23724539
  -OEChem-07051213073D

 78 79  0     1  0  0  0  0  0999 V2000
   -1.7711   -0.5334   -0.0483 O   0  0  0  0  0  0  0  0  0  0  0  0
   -6.1729    2.9527    0.2664 O   0  0  0  0  0  0  0  0  0  0  0  0
   -5.1883    1.9285    2.0489 O   0  0  0  0  0  0  0  0  0  0  0  0
   -0.4671   -4.5938   -0.0256 O   0  0  0  0  0  0  0  0  0  0  0  0
    3.2452    4.2210    0.9143 O   0  0  0  0  0  0  0  0  0  0  0  0
   -2.3633   -2.2962   -1.4172 O   0  0  0  0  0  0  0  0  0  0  0  0
    4.2229    3.3731   -2.6211 N   0  0  0  0  0  0  0  0  0  0  0  0
   -4.1102   -0.0566    0.3174 C   0  0  1  0  0  0  0  0  0  0  0  0
   -5.3400    0.7820   -0.0747 C   0  0  1  0  0  0  0  0  0  0  0  0
   -4.5538   -1.5043    0.1136 C   0  0  0  0  0  0  0  0  0  0  0  0
   -6.5360   -0.1802   -0.0471 C   0  0  0  0  0  0  0  0  0  0  0  0
   -6.0068   -1.4767    0.5539 C   0  0  0  0  0  0  0  0  0  0  0  0
   -2.8689    0.2926   -0.4914 C   0  0  1  0  0  0  0  0  0  0  0  0
   -2.4500    1.7513   -0.2585 C   0  0  0  0  0  0  0  0  0  0  0  0
    2.8543   -2.5773    0.9807 C   0  0  1  0  0  0  0  0  0  0  0  0
   -5.5407    1.9219    0.8788 C   0  0  0  0  0  0  0  0  0  0  0  0
    4.6570   -0.6600    0.9624 C   0  0  2  0  0  0  0  0  0  0  0  0
    4.2176   -2.0622    0.4627 C   0  0  0  0  0  0  0  0  0  0  0  0
    2.4559   -3.9278    0.3292 C   0  0  0  0  0  0  0  0  0  0  0  0
    1.6566   -3.9043   -1.0027 C   0  0  1  0  0  0  0  0  0  0  0  0
    3.6039    0.4282    0.6369 C   0  0  0  0  0  0  0  0  0  0  0  0
    0.1384   -3.6047   -0.8630 C   0  0  2  0  0  0  0  0  0  0  0  0
    3.9824    1.8892    0.9905 C   0  0  1  0  0  0  0  0  0  0  0  0
   -0.2058   -2.2366   -0.2759 C   0  0  0  0  0  0  0  0  0  0  0  0
    2.8897   -2.7454    2.5062 C   0  0  0  0  0  0  0  0  0  0  0  0
   -1.5847   -1.7411   -0.6572 C   0  0  0  0  0  0  0  0  0  0  0  0
   -1.2249    2.1022   -1.0632 C   0  0  0  0  0  0  0  0  0  0  0  0
    6.0228   -0.3333    0.3430 C   0  0  0  0  0  0  0  0  0  0  0  0
    2.2933   -3.0514   -2.0991 C   0  0  0  0  0  0  0  0  0  0  0  0
    2.8326    2.8791    0.6256 C   0  0  2  0  0  0  0  0  0  0  0  0
    4.3411    2.0215    2.4800 C   0  0  0  0  0  0  0  0  0  0  0  0
   -0.0188    2.3195   -0.5136 C   0  0  0  0  0  0  0  0  0  0  0  0
    2.4114    2.8602   -0.8363 C   0  0  0  0  0  0  0  0  0  0  0  0
    1.1649    2.6182   -1.2929 C   0  0  0  0  0  0  0  0  0  0  0  0
    3.4129    3.1439   -1.8230 C   0  0  0  0  0  0  0  0  0  0  0  0
   -3.8699    0.0485    1.3844 H   0  0  0  0  0  0  0  0  0  0  0  0
   -5.2251    1.1882   -1.0878 H   0  0  0  0  0  0  0  0  0  0  0  0
   -3.9739   -2.2229    0.6993 H   0  0  0  0  0  0  0  0  0  0  0  0
   -4.5411   -1.7853   -0.9442 H   0  0  0  0  0  0  0  0  0  0  0  0
   -6.8723   -0.3675   -1.0744 H   0  0  0  0  0  0  0  0  0  0  0  0
   -7.3952    0.1996    0.5155 H   0  0  0  0  0  0  0  0  0  0  0  0
   -6.0713   -1.4385    1.6478 H   0  0  0  0  0  0  0  0  0  0  0  0
   -6.5658   -2.3515    0.2092 H   0  0  0  0  0  0  0  0  0  0  0  0
   -3.0411    0.1326   -1.5646 H   0  0  0  0  0  0  0  0  0  0  0  0
   -2.2531    1.9155    0.8087 H   0  0  0  0  0  0  0  0  0  0  0  0
   -3.2416    2.4466   -0.5548 H   0  0  0  0  0  0  0  0  0  0  0  0
    2.0905   -1.8355    0.7588 H   0  0  0  0  0  0  0  0  0  0  0  0
    4.7938   -0.7134    2.0479 H   0  0  0  0  0  0  0  0  0  0  0  0
    4.2144   -2.0391   -0.6304 H   0  0  0  0  0  0  0  0  0  0  0  0
    4.9930   -2.7888    0.7421 H   0  0  0  0  0  0  0  0  0  0  0  0
    3.3721   -4.5108    0.1608 H   0  0  0  0  0  0  0  0  0  0  0  0
    1.8727   -4.5197    1.0463 H   0  0  0  0  0  0  0  0  0  0  0  0
    1.7095   -4.9427   -1.3644 H   0  0  0  0  0  0  0  0  0  0  0  0
    3.3757    0.3631   -0.4340 H   0  0  0  0  0  0  0  0  0  0  0  0
    2.6731    0.1942    1.1670 H   0  0  0  0  0  0  0  0  0  0  0  0
   -0.3217   -3.7125   -1.8528 H   0  0  0  0  0  0  0  0  0  0  0  0
    4.8743    2.1834    0.4234 H   0  0  0  0  0  0  0  0  0  0  0  0
    0.4828   -1.4753   -0.6552 H   0  0  0  0  0  0  0  0  0  0  0  0
   -0.1645   -2.2716    0.8189 H   0  0  0  0  0  0  0  0  0  0  0  0
    3.6718   -3.4494    2.8096 H   0  0  0  0  0  0  0  0  0  0  0  0
    3.0713   -1.7920    3.0109 H   0  0  0  0  0  0  0  0  0  0  0  0
    1.9304   -3.1227    2.8775 H   0  0  0  0  0  0  0  0  0  0  0  0
   -1.3524    2.1557   -2.1419 H   0  0  0  0  0  0  0  0  0  0  0  0
    6.4568    0.5715    0.7783 H   0  0  0  0  0  0  0  0  0  0  0  0
    6.7353   -1.1461    0.5212 H   0  0  0  0  0  0  0  0  0  0  0  0
    5.9413   -0.1865   -0.7393 H   0  0  0  0  0  0  0  0  0  0  0  0
    2.2961   -1.9865   -1.8525 H   0  0  0  0  0  0  0  0  0  0  0  0
    3.3250   -3.3682   -2.2833 H   0  0  0  0  0  0  0  0  0  0  0  0
    1.7475   -3.1684   -3.0419 H   0  0  0  0  0  0  0  0  0  0  0  0
    1.9918    2.6715    1.2936 H   0  0  0  0  0  0  0  0  0  0  0  0
    3.5074    1.7020    3.1144 H   0  0  0  0  0  0  0  0  0  0  0  0
    5.2163    1.4191    2.7393 H   0  0  0  0  0  0  0  0  0  0  0  0
    4.5843    3.0572    2.7388 H   0  0  0  0  0  0  0  0  0  0  0  0
   -6.3142    3.7091    0.8749 H   0  0  0  0  0  0  0  0  0  0  0  0
    0.0772    2.2502    0.5643 H   0  0  0  0  0  0  0  0  0  0  0  0
   -0.2928   -5.4633   -0.4245 H   0  0  0  0  0  0  0  0  0  0  0  0
    0.9976    2.6447   -2.3708 H   0  0  0  0  0  0  0  0  0  0  0  0
    2.4777    4.8022    0.7750 H   0  0  0  0  0  0  0  0  0  0  0  0
  1 13  1  0  0  0  0
  1 26  1  0  0  0  0
  2 16  1  0  0  0  0
  2 74  1  0  0  0  0
  3 16  2  0  0  0  0
  4 22  1  0  0  0  0
  4 76  1  0  0  0  0
  5 30  1  0  0  0  0
  5 78  1  0  0  0  0
  6 26  2  0  0  0  0
  7 35  3  0  0  0  0
  8  9  1  0  0  0  0
  8 10  1  0  0  0  0
  8 13  1  0  0  0  0
  8 36  1  0  0  0  0
  9 11  1  0  0  0  0
  9 16  1  0  0  0  0
  9 37  1  0  0  0  0
 10 12  1  0  0  0  0
 10 38  1  0  0  0  0
 10 39  1  0  0  0  0
 11 12  1  0  0  0  0
 11 40  1  0  0  0  0
 11 41  1  0  0  0  0
 12 42  1  0  0  0  0
 12 43  1  0  0  0  0
 13 14  1  0  0  0  0
 13 44  1  0  0  0  0
 14 27  1  0  0  0  0
 14 45  1  0  0  0  0
 14 46  1  0  0  0  0
 15 18  1  0  0  0  0
 15 19  1  0  0  0  0
 15 25  1  0  0  0  0
 15 47  1  0  0  0  0
 17 18  1  0  0  0  0
 17 21  1  0  0  0  0
 17 28  1  0  0  0  0
 17 48  1  0  0  0  0
 18 49  1  0  0  0  0
 18 50  1  0  0  0  0
 19 20  1  0  0  0  0
 19 51  1  0  0  0  0
 19 52  1  0  0  0  0
 20 22  1  0  0  0  0
 20 29  1  0  0  0  0
 20 53  1  0  0  0  0
 21 23  1  0  0  0  0
 21 54  1  0  0  0  0
 21 55  1  0  0  0  0
 22 24  1  0  0  0  0
 22 56  1  0  0  0  0
 23 30  1  0  0  0  0
 23 31  1  0  0  0  0
 23 57  1  0  0  0  0
 24 26  1  0  0  0  0
 24 58  1  0  0  0  0
 24 59  1  0  0  0  0
 25 60  1  0  0  0  0
 25 61  1  0  0  0  0
 25 62  1  0  0  0  0
 27 32  2  0  0  0  0
 27 63  1  0  0  0  0
 28 64  1  0  0  0  0
 28 65  1  0  0  0  0
 28 66  1  0  0  0  0
 29 67  1  0  0  0  0
 29 68  1  0  0  0  0
 29 69  1  0  0  0  0
 30 33  1  0  0  0  0
 30 70  1  0  0  0  0
 31 71  1  0  0  0  0
 31 72  1  0  0  0  0
 31 73  1  0  0  0  0
 32 34  1  0  0  0  0
 32 75  1  0  0  0  0
 33 34  2  0  0  0  0
 33 35  1  0  0  0  0
 34 77  1  0  0  0  0
M  END
> <PUBCHEM_COMPOUND_CID>
23724539

> <PUBCHEM_CONFORMER_RMSD>
0.8

> <PUBCHEM_CONFORMER_DIVERSEORDER>
1
25
16
19
3
11
20
8
17
2
15
7
24
10
12
23
13
9
4
22
21
5
14
6
18

> <PUBCHEM_MMFF94_PARTIAL_CHARGES>
26
1 -0.43
13 0.28
14 0.14
16 0.66
2 -0.65
22 0.28
24 0.06
26 0.66
27 -0.29
3 -0.57
30 0.42
32 -0.15
33 -0.07
34 -0.15
35 0.49
4 -0.68
5 -0.68
6 -0.57
63 0.15
7 -0.56
74 0.5
75 0.15
76 0.4
77 0.15
78 0.4
9 0.06

> <PUBCHEM_EFFECTIVE_ROTOR_COUNT>
5.6

> <PUBCHEM_PHARMACOPHORE_FEATURES>
10
1 2 acceptor
1 3 acceptor
1 4 acceptor
1 4 donor
1 5 acceptor
1 5 donor
1 6 acceptor
1 7 acceptor
3 2 3 16 anion
5 8 9 10 11 12 rings

> <PUBCHEM_HEAVY_ATOM_COUNT>
35

> <PUBCHEM_ATOM_DEF_STEREO_COUNT>
9

> <PUBCHEM_ATOM_UDEF_STEREO_COUNT>
0

> <PUBCHEM_BOND_DEF_STEREO_COUNT>
2

> <PUBCHEM_BOND_UDEF_STEREO_COUNT>
0

> <PUBCHEM_ISOTOPIC_ATOM_COUNT>
0

> <PUBCHEM_COMPONENT_COUNT>
1

> <PUBCHEM_CACTVS_TAUTO_COUNT>
1

> <PUBCHEM_CONFORMER_ID>
016A01FB00000001

> <PUBCHEM_MMFF94_ENERGY>
76.279

> <PUBCHEM_FEATURE_SELFOVERLAP>
50.8

> <PUBCHEM_SHAPE_FINGERPRINT>
11059048 146 17981038614189891628
11513181 2 17898289408128748254
12156800 1 15908504271724951542
12422481 6 18272090530610552645
12717326 135 15982304927027909093
12925494 130 18120100734798846633
13383668 262 16482714345285933411
1361 2 18411705361310784875
14784336 7 17898871049800446197
14790565 3 18336266717688555147
15264996 154 18340757217524099446
15274700 259 17557439966363958933
15297060 5 17968660394121065330
15328829 1 17605302664907501005
15406563 185 17825934928159755156
15968369 153 17685214976018947687
16112460 7 18336266748059632488
19301679 30 18201993318977092449
23559900 14 18263358256522960311
245318 6 18270111314668607325
338550 245 18341054025675864140
3493558 16 17825946207075664625
373842 8 18198342841092957643
394071 54 18263921214971136923
5265222 85 18193829341434198636
5776283 40 18267288860806299316
653340 110 17255133246503972480

> <PUBCHEM_SHAPE_MULTIPOLES>
680.09
14.17
6.41
1.87
17.71
1.96
0.08
-5.69
5.09
-5.96
-1.48
-2.28
-0.58
-1.62

> <PUBCHEM_SHAPE_SELFOVERLAP>
1366.513

> <PUBCHEM_SHAPE_VOLUME>
395.4

> <PUBCHEM_COORDINATE_TYPE>
2
5
10

$$$$

