8264
  -OEChem-07051213133D

 21 20  0     0  0  0  0  0  0999 V2000
   -0.0211    0.5267   -0.0264 P   0  0  0  0  0  0  0  0  0  0  0  0
    0.1848    1.1285    1.4204 F   0  0  0  0  0  0  0  0  0  0  0  0
   -0.1693    1.6887   -0.9765 O   0  0  0  0  0  0  0  0  0  0  0  0
    1.3283   -0.4350   -0.2273 N   0  0  0  0  0  0  0  0  0  0  0  0
   -1.3640   -0.4485    0.1408 N   0  0  0  0  0  0  0  0  0  0  0  0
    1.6638   -1.3779    0.8428 C   0  0  0  0  0  0  0  0  0  0  0  0
    2.5523    0.2327   -0.6756 C   0  0  0  0  0  0  0  0  0  0  0  0
   -2.6519    0.2214    0.3284 C   0  0  0  0  0  0  0  0  0  0  0  0
   -1.5230   -1.5366   -0.8265 C   0  0  0  0  0  0  0  0  0  0  0  0
    2.0195   -0.8518    1.7350 H   0  0  0  0  0  0  0  0  0  0  0  0
    2.4321   -2.0885    0.5195 H   0  0  0  0  0  0  0  0  0  0  0  0
    0.7890   -1.9688    1.1298 H   0  0  0  0  0  0  0  0  0  0  0  0
    3.3309   -0.4912   -0.9395 H   0  0  0  0  0  0  0  0  0  0  0  0
    2.9390    0.9080    0.0946 H   0  0  0  0  0  0  0  0  0  0  0  0
    2.3517    0.8216   -1.5764 H   0  0  0  0  0  0  0  0  0  0  0  0
   -2.9727    0.7321   -0.5855 H   0  0  0  0  0  0  0  0  0  0  0  0
   -2.5694    0.9690    1.1241 H   0  0  0  0  0  0  0  0  0  0  0  0
   -3.4298   -0.4861    0.6345 H   0  0  0  0  0  0  0  0  0  0  0  0
   -0.6304   -2.1670   -0.8669 H   0  0  0  0  0  0  0  0  0  0  0  0
   -1.7056   -1.1436   -1.8324 H   0  0  0  0  0  0  0  0  0  0  0  0
   -2.3534   -2.1957   -0.5500 H   0  0  0  0  0  0  0  0  0  0  0  0
  1  2  1  0  0  0  0
  1  3  2  0  0  0  0
  1  4  1  0  0  0  0
  1  5  1  0  0  0  0
  4  6  1  0  0  0  0
  4  7  1  0  0  0  0
  5  8  1  0  0  0  0
  5  9  1  0  0  0  0
  6 10  1  0  0  0  0
  6 11  1  0  0  0  0
  6 12  1  0  0  0  0
  7 13  1  0  0  0  0
  7 14  1  0  0  0  0
  7 15  1  0  0  0  0
  8 16  1  0  0  0  0
  8 17  1  0  0  0  0
  8 18  1  0  0  0  0
  9 19  1  0  0  0  0
  9 20  1  0  0  0  0
  9 21  1  0  0  0  0
M  END
> <PUBCHEM_COMPOUND_CID>
8264

> <PUBCHEM_CONFORMER_RMSD>
0.4

> <PUBCHEM_CONFORMER_DIVERSEORDER>
2
3
6
5
7
4
1

> <PUBCHEM_MMFF94_PARTIAL_CHARGES>
9
1 1.56
2 -0.33
3 -0.7
4 -0.81
5 -0.81
6 0.27
7 0.27
8 0.27
9 0.27

> <PUBCHEM_EFFECTIVE_ROTOR_COUNT>
2

> <PUBCHEM_PHARMACOPHORE_FEATURES>
1
1 3 acceptor

> <PUBCHEM_HEAVY_ATOM_COUNT>
9

> <PUBCHEM_ATOM_DEF_STEREO_COUNT>
0

> <PUBCHEM_ATOM_UDEF_STEREO_COUNT>
0

> <PUBCHEM_BOND_DEF_STEREO_COUNT>
0

> <PUBCHEM_BOND_UDEF_STEREO_COUNT>
0

> <PUBCHEM_ISOTOPIC_ATOM_COUNT>
0

> <PUBCHEM_COMPONENT_COUNT>
1

> <PUBCHEM_CACTVS_TAUTO_COUNT>
1

> <PUBCHEM_CONFORMER_ID>
0000204800000002

> <PUBCHEM_MMFF94_ENERGY>
8.0266

> <PUBCHEM_FEATURE_SELFOVERLAP>
5.074

> <PUBCHEM_SHAPE_FINGERPRINT>
12897270 3 18131909364767626990
14128692 85 18118394055916621206
15310529 11 17917990611397344767
16714656 1 18336820978654065927
18185500 45 18412825763548627598
20653091 64 18192998114726836267
21040471 1 17968937625216139891
23211744 41 15051452639794779934
23552333 60 18342453794092968202
23552423 10 18123475968964903671
23552449 11 17824846467440126731
24536 1 17912375221110280323
29004967 10 17774712108567566265

> <PUBCHEM_SHAPE_MULTIPOLES>
165.96
3.24
1.55
1.08
0.12
0.07
0.14
0.5
-0.17
0.05
-0.14
-0.11
-0.09
-0.49

> <PUBCHEM_SHAPE_SELFOVERLAP>
286.154

> <PUBCHEM_SHAPE_VOLUME>
113.2

> <PUBCHEM_COORDINATE_TYPE>
2
5
10

$$$$

