4402
  -OEChem-06261200063D

 45 48  0     1  0  0  0  0  0999 V2000
   -3.4226   -0.6347   -0.9071 O   0  0  0  0  0  0  0  0  0  0  0  0
   -2.8589    2.0104    1.4607 O   0  0  0  0  0  0  0  0  0  0  0  0
   -5.1777    1.6506    0.0893 O   0  0  0  0  0  0  0  0  0  0  0  0
   -4.7703   -3.0565   -0.4213 O   0  0  0  0  0  0  0  0  0  0  0  0
   -1.2024   -0.0584   -0.2986 N   0  0  0  0  0  0  0  0  0  0  0  0
    3.3964   -0.4439   -0.3444 N   0  0  0  0  0  0  0  0  0  0  0  0
    0.5344   -1.4475   -0.1274 N   0  0  0  0  0  0  0  0  0  0  0  0
   -0.0247    2.0387   -0.6400 N   0  0  0  0  0  0  0  0  0  0  0  0
    2.3933    1.7082   -0.6439 N   0  0  0  0  0  0  0  0  0  0  0  0
   -2.5912    0.3941   -0.3364 C   0  0  2  0  0  0  0  0  0  0  0  0
   -3.1796    0.7029    1.0318 C   0  0  2  0  0  0  0  0  0  0  0  0
   -4.6607    0.5092    0.7738 C   0  0  2  0  0  0  0  0  0  0  0  0
   -4.6715   -0.6821   -0.1790 C   0  0  2  0  0  0  0  0  0  0  0  0
    4.7471    0.0652   -0.4513 C   0  0  0  0  0  0  0  0  0  0  0  0
    5.2235    0.6153    0.8874 C   0  0  0  0  0  0  0  0  0  0  0  0
    5.7308   -1.0677   -0.7175 C   0  0  0  0  0  0  0  0  0  0  0  0
    5.6597   -0.6132    1.6825 C   0  0  0  0  0  0  0  0  0  0  0  0
    5.9916   -1.6919    0.6517 C   0  0  0  0  0  0  0  0  0  0  0  0
   -4.7553   -2.0193    0.5438 C   0  0  0  0  0  0  0  0  0  0  0  0
   -0.0836    0.7136   -0.4395 C   0  0  0  0  0  0  0  0  0  0  0  0
    0.9816   -0.1661   -0.3309 C   0  0  0  0  0  0  0  0  0  0  0  0
    2.2584    0.3755   -0.4408 C   0  0  0  0  0  0  0  0  0  0  0  0
   -0.7785   -1.3484   -0.1130 C   0  0  0  0  0  0  0  0  0  0  0  0
    1.2602    2.4461   -0.7297 C   0  0  0  0  0  0  0  0  0  0  0  0
   -2.6248    1.2625   -1.0060 H   0  0  0  0  0  0  0  0  0  0  0  0
   -2.8250   -0.0131    1.7832 H   0  0  0  0  0  0  0  0  0  0  0  0
   -5.2555    0.3650    1.6802 H   0  0  0  0  0  0  0  0  0  0  0  0
   -5.4724   -0.6036   -0.9230 H   0  0  0  0  0  0  0  0  0  0  0  0
    4.8127    0.8133   -1.2493 H   0  0  0  0  0  0  0  0  0  0  0  0
    4.4680    1.1974    1.4243 H   0  0  0  0  0  0  0  0  0  0  0  0
    6.0925    1.2658    0.7276 H   0  0  0  0  0  0  0  0  0  0  0  0
    6.6695   -0.6569   -1.1096 H   0  0  0  0  0  0  0  0  0  0  0  0
    5.3615   -1.8051   -1.4375 H   0  0  0  0  0  0  0  0  0  0  0  0
    4.8452   -0.9574    2.3305 H   0  0  0  0  0  0  0  0  0  0  0  0
    6.5160   -0.3873    2.3259 H   0  0  0  0  0  0  0  0  0  0  0  0
    7.0279   -2.0336    0.7405 H   0  0  0  0  0  0  0  0  0  0  0  0
    5.3460   -2.5644    0.8049 H   0  0  0  0  0  0  0  0  0  0  0  0
    3.2463   -1.4280   -0.1508 H   0  0  0  0  0  0  0  0  0  0  0  0
   -5.6617   -2.0923    1.1526 H   0  0  0  0  0  0  0  0  0  0  0  0
   -3.8855   -2.1867    1.1858 H   0  0  0  0  0  0  0  0  0  0  0  0
   -1.4631   -2.1730    0.0318 H   0  0  0  0  0  0  0  0  0  0  0  0
   -3.3418    2.1714    2.2891 H   0  0  0  0  0  0  0  0  0  0  0  0
   -5.0637    2.4164    0.6775 H   0  0  0  0  0  0  0  0  0  0  0  0
   -5.5646   -2.9384   -0.9697 H   0  0  0  0  0  0  0  0  0  0  0  0
    1.4059    3.5086   -0.8923 H   0  0  0  0  0  0  0  0  0  0  0  0
  1 10  1  0  0  0  0
  1 13  1  0  0  0  0
  2 11  1  0  0  0  0
  2 42  1  0  0  0  0
  3 12  1  0  0  0  0
  3 43  1  0  0  0  0
  4 19  1  0  0  0  0
  4 44  1  0  0  0  0
  5 10  1  0  0  0  0
  5 20  1  0  0  0  0
  5 23  1  0  0  0  0
  6 14  1  0  0  0  0
  6 22  1  0  0  0  0
  6 38  1  0  0  0  0
  7 21  1  0  0  0  0
  7 23  2  0  0  0  0
  8 20  2  0  0  0  0
  8 24  1  0  0  0  0
  9 22  1  0  0  0  0
  9 24  2  0  0  0  0
 10 11  1  0  0  0  0
 10 25  1  0  0  0  0
 11 12  1  0  0  0  0
 11 26  1  0  0  0  0
 12 13  1  0  0  0  0
 12 27  1  0  0  0  0
 13 19  1  0  0  0  0
 13 28  1  0  0  0  0
 14 15  1  0  0  0  0
 14 16  1  0  0  0  0
 14 29  1  0  0  0  0
 15 17  1  0  0  0  0
 15 30  1  0  0  0  0
 15 31  1  0  0  0  0
 16 18  1  0  0  0  0
 16 32  1  0  0  0  0
 16 33  1  0  0  0  0
 17 18  1  0  0  0  0
 17 34  1  0  0  0  0
 17 35  1  0  0  0  0
 18 36  1  0  0  0  0
 18 37  1  0  0  0  0
 19 39  1  0  0  0  0
 19 40  1  0  0  0  0
 20 21  1  0  0  0  0
 21 22  2  0  0  0  0
 23 41  1  0  0  0  0
 24 45  1  0  0  0  0
M  END
> <PUBCHEM_COMPOUND_CID>
4402

> <PUBCHEM_CONFORMER_RMSD>
0.8

> <PUBCHEM_CONFORMER_DIVERSEORDER>
2
343
155
154
336
268
120
207
303
337
178
279
237
130
272
298
71
129
176
256
49
288
163
319
290
122
85
222
33
314
333
96
335
27
38
56
312
219
289
230
24
229
332
245
322
53
339
126
99
262
179
107
217
17
273
182
174
197
263
254
233
292
226
64
180
138
149
211
221
72
265
308
183
261
82
36
323
108
331
234
47
259
34
97
347
316
117
189
26
284
89
81
112
148
140
210
42
302
200
236
240
346
19
285
223
10
139
306
274
250
69
218
105
315
172
340
232
90
43
310
93
119
345
44
181
159
241
166
150
209
293
177
188
297
75
201
123
76
208
18
118
11
244
29
258
152
146
8
283
115
32
301
246
198
270
190
68
203
78
334
186
156
51
313
133
136
12
66
192
135
109
31
80
173
330
185
255
40
249
157
25
329
243
299
165
321
92
86
251
228
196
102
83
342
14
175
311
338
242
22
216
103
227
239
52
121
171
164
61
199
213
269
326
317
291
21
151
341
271
248
231
143
348
91
147
286
296
215
280
77
160
134
41
307
153
131
74
9
264
170
294
50
94
145
304
235
7
327
124
60
214
193
295
328
5
225
142
101
28
161
220
125
4
88
204
137
127
162
202
67
195
13
309
324
325
141
168
84
252
116
62
16
344
282
23
37
57
276
184
300
3
132
55
79
1
100
114
275
30
87
206
158
111
194
113
238
54
46
257
212
104
253
98
281
95
320
6
106
205
73
287
305
128
15
35
59
144
63
110
39
277
278
260
191
266
167
224
318
247
48
169
45
58
20
267
70
65
187

> <PUBCHEM_MMFF94_PARTIAL_CHARGES>
26
1 -0.56
10 0.54
11 0.28
12 0.28
13 0.28
14 0.37
19 0.28
2 -0.68
20 0.11
21 0.23
22 0.41
23 0.04
24 0.47
3 -0.68
38 0.4
4 -0.68
41 0.15
42 0.4
43 0.4
44 0.4
45 0.15
5 0.05
6 -0.87
7 -0.57
8 -0.57
9 -0.62

> <PUBCHEM_EFFECTIVE_ROTOR_COUNT>
6

> <PUBCHEM_PHARMACOPHORE_FEATURES>
16
1 1 acceptor
1 2 acceptor
1 2 donor
1 3 acceptor
1 3 donor
1 4 acceptor
1 4 donor
1 6 cation
1 6 donor
3 5 7 23 cation
3 5 8 20 cation
3 8 9 24 cation
5 1 10 11 12 13 rings
5 14 15 16 17 18 rings
5 5 7 20 21 23 rings
6 8 9 20 21 22 24 rings

> <PUBCHEM_HEAVY_ATOM_COUNT>
24

> <PUBCHEM_ATOM_DEF_STEREO_COUNT>
0

> <PUBCHEM_ATOM_UDEF_STEREO_COUNT>
4

> <PUBCHEM_BOND_DEF_STEREO_COUNT>
0

> <PUBCHEM_BOND_UDEF_STEREO_COUNT>
0

> <PUBCHEM_ISOTOPIC_ATOM_COUNT>
0

> <PUBCHEM_COMPONENT_COUNT>
1

> <PUBCHEM_CACTVS_TAUTO_COUNT>
3

> <PUBCHEM_CONFORMER_ID>
0000113200000002

> <PUBCHEM_MMFF94_ENERGY>
54.7271

> <PUBCHEM_FEATURE_SELFOVERLAP>
81.812

> <PUBCHEM_SHAPE_FINGERPRINT>
10366900 7 16343991277795491481
11607047 403 16162460572536742123
12166972 35 18341047419747351857
12236239 1 18408602565124293776
12403259 226 18340772529293252749
12403260 363 18340202982285356173
12422481 6 17967253122121522590
12507557 5 18410290311695154689
12596602 18 18408327670527935906
12616971 3 18272640234757946581
12760667 363 17846220011917787866
13009979 54 18335971000458359929
13140716 1 18341329973103251440
13583140 156 15792023285008655134
13675066 3 17821725039738429004
13782708 43 16773793667148313275
13862211 1 18272092703705540806
13914758 101 18202009850137039397
14211702 104 18270959016575098219
14251764 18 18410295796816498818
15188451 53 18262245425985418911
15196674 1 18339638949704972141
15348495 7 18113903727917725554
15788980 27 17632577158118413997
15885798 251 18272090513567625628
17349148 13 18410568457613060654
17492 89 18125154936242868235
17857418 61 18201723924772584074
17862501 102 18410008814858245321
1813 80 17846776326157299668
18222031 100 18272369772177531788
19141452 34 18260834787095454630
20028762 73 18262237699039314087
21033648 29 17168156658060582386
21267235 1 18339913844760169199
21709351 56 18272371953978584197
220451 1 18130783486415001746
22061861 79 14764350457400271586
22182313 1 18122342643043698172
22950370 63 18272087210542219334
23402539 116 18408606967623930583
23522609 53 17986080059713829692
23559900 14 18339649915304910081
3004659 81 17989484131033980446
335352 9 18413387657525553101
345986 75 17987253299029329024
4340502 62 15574713599545496030
465052 167 18059848468147917546
5104073 3 18335975364340000241
542803 24 5833992754366938294
559249 180 18413108377456341759

> <PUBCHEM_SHAPE_MULTIPOLES>
445.53
14.69
2.32
1.09
7.68
0.17
-0.35
6.29
-3.52
-1.83
0.16
0.53
-0.12
-1.02

> <PUBCHEM_SHAPE_SELFOVERLAP>
963.494

> <PUBCHEM_SHAPE_VOLUME>
243.2

> <PUBCHEM_COORDINATE_TYPE>
2
5
10

$$$$

