442130
  -OEChem-07051212573D

 51 54  0     1  0  0  0  0  0999 V2000
    3.3269    2.0264    0.2016 O   0  0  0  0  0  0  0  0  0  0  0  0
    2.4833   -0.9451   -0.5274 O   0  0  0  0  0  0  0  0  0  0  0  0
   -0.4903   -3.1155    0.0306 O   0  0  0  0  0  0  0  0  0  0  0  0
    0.5320    0.3483    0.9129 O   0  0  0  0  0  0  0  0  0  0  0  0
    2.3267    0.4668   -2.3493 O   0  0  0  0  0  0  0  0  0  0  0  0
   -2.0770    1.4634   -0.4173 O   0  0  0  0  0  0  0  0  0  0  0  0
   -0.4172    2.4396    0.6633 O   0  0  0  0  0  0  0  0  0  0  0  0
   -2.8863    3.5973   -0.6117 O   0  0  0  0  0  0  0  0  0  0  0  0
    3.8648    0.9530   -0.5620 C   0  0  1  0  0  0  0  0  0  0  0  0
    3.9374    0.9491    0.9237 C   0  0  1  0  0  0  0  0  0  0  0  0
    1.1462   -1.4103   -0.6655 C   0  0  1  0  0  0  0  0  0  0  0  0
    0.8745   -2.6752    0.1787 C   0  0  0  0  0  0  0  0  0  0  0  0
    0.1866   -0.2701   -0.3229 C   0  0  1  0  0  0  0  0  0  0  0  0
    2.8100    0.1568   -1.2689 C   0  0  0  0  0  0  0  0  0  0  0  0
    5.0572    1.3028   -1.3562 C   0  0  0  0  0  0  0  0  0  0  0  0
   -1.2178   -0.7890   -0.2125 C   0  0  0  0  0  0  0  0  0  0  0  0
    5.1607    1.3455    1.6609 C   0  0  0  0  0  0  0  0  0  0  0  0
    1.7330   -3.8407   -0.3472 C   0  0  0  0  0  0  0  0  0  0  0  0
    1.1771   -2.5159    1.6771 C   0  0  0  0  0  0  0  0  0  0  0  0
   -1.4653   -2.1560   -0.0400 C   0  0  0  0  0  0  0  0  0  0  0  0
   -2.3212    0.0781   -0.2617 C   0  0  0  0  0  0  0  0  0  0  0  0
   -2.7793   -2.6315    0.0497 C   0  0  0  0  0  0  0  0  0  0  0  0
   -3.6337   -0.3822   -0.1636 C   0  0  0  0  0  0  0  0  0  0  0  0
   -3.8597   -1.7493   -0.0102 C   0  0  0  0  0  0  0  0  0  0  0  0
   -0.2538    1.4012    1.2894 C   0  0  0  0  0  0  0  0  0  0  0  0
   -4.7271    0.5736   -0.2262 C   0  0  0  0  0  0  0  0  0  0  0  0
   -3.1044    2.3983   -0.4781 C   0  0  0  0  0  0  0  0  0  0  0  0
   -4.4782    1.8768   -0.3736 C   0  0  0  0  0  0  0  0  0  0  0  0
   -0.9050    1.1036    2.6060 C   0  0  0  0  0  0  0  0  0  0  0  0
    3.3004    0.2948    1.5018 H   0  0  0  0  0  0  0  0  0  0  0  0
    0.9791   -1.6859   -1.7182 H   0  0  0  0  0  0  0  0  0  0  0  0
    0.2254    0.4885   -1.1135 H   0  0  0  0  0  0  0  0  0  0  0  0
    5.7137    0.4325   -1.4602 H   0  0  0  0  0  0  0  0  0  0  0  0
    5.6460    2.1168   -0.9219 H   0  0  0  0  0  0  0  0  0  0  0  0
    4.7767    1.6292   -2.3638 H   0  0  0  0  0  0  0  0  0  0  0  0
    5.9286    0.5715    1.5670 H   0  0  0  0  0  0  0  0  0  0  0  0
    4.9321    1.4612    2.7255 H   0  0  0  0  0  0  0  0  0  0  0  0
    5.5811    2.2956    1.3167 H   0  0  0  0  0  0  0  0  0  0  0  0
    1.5032   -4.7703    0.1868 H   0  0  0  0  0  0  0  0  0  0  0  0
    1.5179   -4.0351   -1.4043 H   0  0  0  0  0  0  0  0  0  0  0  0
    2.8037   -3.6373   -0.2431 H   0  0  0  0  0  0  0  0  0  0  0  0
    2.2013   -2.1716    1.8513 H   0  0  0  0  0  0  0  0  0  0  0  0
    0.4858   -1.8236    2.1656 H   0  0  0  0  0  0  0  0  0  0  0  0
    1.0458   -3.4712    2.1996 H   0  0  0  0  0  0  0  0  0  0  0  0
   -2.9691   -3.6951    0.1727 H   0  0  0  0  0  0  0  0  0  0  0  0
   -4.8700   -2.1433    0.0665 H   0  0  0  0  0  0  0  0  0  0  0  0
   -5.7466    0.2113   -0.1510 H   0  0  0  0  0  0  0  0  0  0  0  0
   -5.2906    2.5937   -0.4203 H   0  0  0  0  0  0  0  0  0  0  0  0
   -0.1816    1.2545    3.4108 H   0  0  0  0  0  0  0  0  0  0  0  0
   -1.2864    0.0800    2.6333 H   0  0  0  0  0  0  0  0  0  0  0  0
   -1.7517    1.7809    2.7506 H   0  0  0  0  0  0  0  0  0  0  0  0
  1  9  1  0  0  0  0
  1 10  1  0  0  0  0
  2 11  1  0  0  0  0
  2 14  1  0  0  0  0
  3 12  1  0  0  0  0
  3 20  1  0  0  0  0
  4 13  1  0  0  0  0
  4 25  1  0  0  0  0
  5 14  2  0  0  0  0
  6 21  1  0  0  0  0
  6 27  1  0  0  0  0
  7 25  2  0  0  0  0
  8 27  2  0  0  0  0
  9 10  1  0  0  0  0
  9 14  1  0  0  0  0
  9 15  1  0  0  0  0
 10 17  1  0  0  0  0
 10 30  1  0  0  0  0
 11 12  1  0  0  0  0
 11 13  1  0  0  0  0
 11 31  1  0  0  0  0
 12 18  1  0  0  0  0
 12 19  1  0  0  0  0
 13 16  1  0  0  0  0
 13 32  1  0  0  0  0
 15 33  1  0  0  0  0
 15 34  1  0  0  0  0
 15 35  1  0  0  0  0
 16 20  2  0  0  0  0
 16 21  1  0  0  0  0
 17 36  1  0  0  0  0
 17 37  1  0  0  0  0
 17 38  1  0  0  0  0
 18 39  1  0  0  0  0
 18 40  1  0  0  0  0
 18 41  1  0  0  0  0
 19 42  1  0  0  0  0
 19 43  1  0  0  0  0
 19 44  1  0  0  0  0
 20 22  1  0  0  0  0
 21 23  2  0  0  0  0
 22 24  2  0  0  0  0
 22 45  1  0  0  0  0
 23 24  1  0  0  0  0
 23 26  1  0  0  0  0
 24 46  1  0  0  0  0
 25 29  1  0  0  0  0
 26 28  2  0  0  0  0
 26 47  1  0  0  0  0
 27 28  1  0  0  0  0
 28 48  1  0  0  0  0
 29 49  1  0  0  0  0
 29 50  1  0  0  0  0
 29 51  1  0  0  0  0
M  END
> <PUBCHEM_COMPOUND_CID>
442130

> <PUBCHEM_CONFORMER_RMSD>
0.8

> <PUBCHEM_CONFORMER_DIVERSEORDER>
1
16
12
18
9
21
20
15
10
13
17
5
23
22
3
8
11
24
14
19
7
2
4
6

> <PUBCHEM_MMFF94_PARTIAL_CHARGES>
32
1 -0.3
10 -0.05
11 0.28
12 0.28
13 0.42
14 0.72
15 0.09
16 -0.14
17 0.09
2 -0.43
20 0.08
21 0.08
22 -0.15
23 0.03
24 -0.15
25 0.66
26 -0.18
27 0.71
28 -0.14
29 0.06
3 -0.36
30 0.1
4 -0.43
45 0.15
46 0.15
47 0.15
48 0.15
5 -0.57
6 -0.23
7 -0.57
8 -0.57
9 0.05

> <PUBCHEM_EFFECTIVE_ROTOR_COUNT>
6.4

> <PUBCHEM_PHARMACOPHORE_FEATURES>
9
1 1 acceptor
1 3 acceptor
1 5 acceptor
1 7 acceptor
1 8 acceptor
3 12 18 19 hydrophobe
6 16 20 21 22 23 24 rings
6 3 11 12 13 16 20 rings
6 6 21 23 26 27 28 rings

> <PUBCHEM_HEAVY_ATOM_COUNT>
29

> <PUBCHEM_ATOM_DEF_STEREO_COUNT>
2

> <PUBCHEM_ATOM_UDEF_STEREO_COUNT>
2

> <PUBCHEM_BOND_DEF_STEREO_COUNT>
0

> <PUBCHEM_BOND_UDEF_STEREO_COUNT>
0

> <PUBCHEM_ISOTOPIC_ATOM_COUNT>
0

> <PUBCHEM_COMPONENT_COUNT>
1

> <PUBCHEM_CACTVS_TAUTO_COUNT>
1

> <PUBCHEM_CONFORMER_ID>
0006BF1200000001

> <PUBCHEM_MMFF94_ENERGY>
118.2683

> <PUBCHEM_FEATURE_SELFOVERLAP>
45.725

> <PUBCHEM_SHAPE_FINGERPRINT>
10411042 1 17547285601669571055
10675989 125 17760658357659848793
10863032 1 18340767156299175583
1100329 8 17615400797949068520
11112241 14 16083078177641095704
11370993 70 18411985779582862508
11578080 2 17201661045365478079
11725454 13 17677065533736250046
12035758 1 17974002847446712443
12173636 292 18340488967099060413
12422481 6 17772493380497815624
12788726 201 17126179297225287578
13140716 1 18051972511807985259
13402501 40 18114745906580169264
13617811 41 18342464751262286309
13965767 371 17916034644757652628
14114211 68 18124846123271434630
14178342 30 18272089396168961318
14251757 17 18113611274767105496
14468879 13 18130775806971317793
14713325 29 18200864085605513275
14787075 74 18042688290871875159
14790565 3 18338224961025716865
16752209 62 18268143167849601806
16945 1 18411418371886313583
17980427 23 17246967633031653762
18681886 176 17904492044651417611
19591789 44 18122346774823276747
20567600 347 18343867727286224026
20715895 44 17982463894766072469
22149856 69 18268689746104901841
22393880 68 18337103596150106516
23419403 2 17314515811856032961
23557571 272 18189320304182234140
23559900 14 18044944716598076774
2748010 2 17905056850510297435
3298306 158 18334301971723986724
350125 39 18340763870543946054
394222 165 18202284748801733386
4340502 62 18411418440679104285
469060 322 18125978522044064419
474 4 17560790043988456959
5104073 3 18198900495709600513
5265222 85 18194679268939278452
7226269 152 18113905901503603808
9981440 41 18342460322185334819

> <PUBCHEM_SHAPE_MULTIPOLES>
549.85
8.84
3.94
1.54
3.53
1.88
-0.52
-5.59
1.21
-1.32
-0.12
1.43
-0.53
0.41

> <PUBCHEM_SHAPE_SELFOVERLAP>
1201.457

> <PUBCHEM_SHAPE_VOLUME>
295.9

> <PUBCHEM_COORDINATE_TYPE>
2
5
10

$$$$

