17395607
  -OEChem-06241222512D

 51 53  0     1  0  0  0  0  0999 V2000
   10.2615   -4.6012    0.0000 Cl  0  0  0  0  0  0  0  0  0  0  0  0
    4.1993   -0.1012    0.0000 O   0  0  0  0  0  0  0  0  0  0  0  0
    4.8379    3.5624    0.0000 O   0  0  0  0  0  0  0  0  0  0  0  0
    3.0778    0.5139    0.0000 O   0  0  0  0  0  0  0  0  0  0  0  0
    5.9313   -3.1012    0.0000 O   0  0  0  0  0  0  0  0  0  0  0  0
    6.7974   -1.6012    0.0000 N   0  0  0  0  0  0  0  0  0  0  0  0
    4.1993    1.8988    0.0000 N   0  0  0  0  0  0  0  0  0  0  0  0
    2.6166    2.2352    0.0000 N   0  0  0  0  0  0  0  0  0  0  0  0
    5.0653    1.3988    0.0000 N   0  0  0  0  0  0  0  0  0  0  0  0
    5.9313   -0.1012    0.0000 C   0  0  3  0  0  0  0  0  0  0  0  0
    6.7974    0.3988    0.0000 C   0  0  0  0  0  0  0  0  0  0  0  0
    5.9313   -1.1012    0.0000 C   0  0  0  0  0  0  0  0  0  0  0  0
    7.6634   -0.1012    0.0000 C   0  0  0  0  0  0  0  0  0  0  0  0
    7.6634   -1.1012    0.0000 C   0  0  0  0  0  0  0  0  0  0  0  0
    3.1166    3.1012    0.0000 C   0  0  3  0  0  0  0  0  0  0  0  0
    5.0653    0.3988    0.0000 C   0  0  0  0  0  0  0  0  0  0  0  0
    4.0948    2.8933    0.0000 C   0  0  0  0  0  0  0  0  0  0  0  0
    2.2506    3.6012    0.0000 C   0  0  0  0  0  0  0  0  0  0  0  0
    3.3245    4.0794    0.0000 C   0  0  0  0  0  0  0  0  0  0  0  0
    3.2857    1.4921    0.0000 C   0  0  0  0  0  0  0  0  0  0  0  0
    6.7974   -2.6012    0.0000 C   0  0  0  0  0  0  0  0  0  0  0  0
    2.2506    4.6012    0.0000 C   0  0  0  0  0  0  0  0  0  0  0  0
    7.6634   -3.1012    0.0000 C   0  0  0  0  0  0  0  0  0  0  0  0
    7.6634   -4.1012    0.0000 C   0  0  0  0  0  0  0  0  0  0  0  0
    8.5294   -2.6012    0.0000 C   0  0  0  0  0  0  0  0  0  0  0  0
    8.5294   -4.6012    0.0000 C   0  0  0  0  0  0  0  0  0  0  0  0
    9.3954   -3.1012    0.0000 C   0  0  0  0  0  0  0  0  0  0  0  0
    9.3954   -4.1012    0.0000 C   0  0  0  0  0  0  0  0  0  0  0  0
    5.3944   -0.4112    0.0000 H   0  0  0  0  0  0  0  0  0  0  0  0
    7.1959    0.8737    0.0000 H   0  0  0  0  0  0  0  0  0  0  0  0
    6.3988    0.8737    0.0000 H   0  0  0  0  0  0  0  0  0  0  0  0
    5.3208   -0.9936    0.0000 H   0  0  0  0  0  0  0  0  0  0  0  0
    5.7193   -1.6838    0.0000 H   0  0  0  0  0  0  0  0  0  0  0  0
    8.2740   -0.2089    0.0000 H   0  0  0  0  0  0  0  0  0  0  0  0
    7.8754    0.4814    0.0000 H   0  0  0  0  0  0  0  0  0  0  0  0
    7.8754   -1.6838    0.0000 H   0  0  0  0  0  0  0  0  0  0  0  0
    8.2740   -0.9936    0.0000 H   0  0  0  0  0  0  0  0  0  0  0  0
    1.6400    3.7089    0.0000 H   0  0  0  0  0  0  0  0  0  0  0  0
    2.0385    3.0186    0.0000 H   0  0  0  0  0  0  0  0  0  0  0  0
    2.0000    2.1704    0.0000 H   0  0  0  0  0  0  0  0  0  0  0  0
    5.6022    1.7088    0.0000 H   0  0  0  0  0  0  0  0  0  0  0  0
    3.9310    3.9505    0.0000 H   0  0  0  0  0  0  0  0  0  0  0  0
    3.4534    4.6858    0.0000 H   0  0  0  0  0  0  0  0  0  0  0  0
    2.7181    4.2083    0.0000 H   0  0  0  0  0  0  0  0  0  0  0  0
    2.8706    4.6012    0.0000 H   0  0  0  0  0  0  0  0  0  0  0  0
    2.2506    5.2212    0.0000 H   0  0  0  0  0  0  0  0  0  0  0  0
    1.6306    4.6012    0.0000 H   0  0  0  0  0  0  0  0  0  0  0  0
    7.1264   -4.4112    0.0000 H   0  0  0  0  0  0  0  0  0  0  0  0
    8.5294   -1.9812    0.0000 H   0  0  0  0  0  0  0  0  0  0  0  0
    8.5294   -5.2212    0.0000 H   0  0  0  0  0  0  0  0  0  0  0  0
    9.9324   -2.7912    0.0000 H   0  0  0  0  0  0  0  0  0  0  0  0
  1 28  1  0  0  0  0
  2 16  2  0  0  0  0
  3 17  2  0  0  0  0
  4 20  2  0  0  0  0
  5 21  2  0  0  0  0
  6 12  1  0  0  0  0
  6 14  1  0  0  0  0
  6 21  1  0  0  0  0
  7  9  1  0  0  0  0
  7 17  1  0  0  0  0
  7 20  1  0  0  0  0
  8 15  1  0  0  0  0
  8 20  1  0  0  0  0
  8 40  1  0  0  0  0
  9 16  1  0  0  0  0
  9 41  1  0  0  0  0
 10 11  1  0  0  0  0
 10 12  1  0  0  0  0
 10 16  1  0  0  0  0
 10 29  1  0  0  0  0
 11 13  1  0  0  0  0
 11 30  1  0  0  0  0
 11 31  1  0  0  0  0
 12 32  1  0  0  0  0
 12 33  1  0  0  0  0
 13 14  1  0  0  0  0
 13 34  1  0  0  0  0
 13 35  1  0  0  0  0
 14 36  1  0  0  0  0
 14 37  1  0  0  0  0
 15 17  1  0  0  0  0
 15 18  1  0  0  0  0
 15 19  1  0  0  0  0
 18 22  1  0  0  0  0
 18 38  1  0  0  0  0
 18 39  1  0  0  0  0
 19 42  1  0  0  0  0
 19 43  1  0  0  0  0
 19 44  1  0  0  0  0
 21 23  1  0  0  0  0
 22 45  1  0  0  0  0
 22 46  1  0  0  0  0
 22 47  1  0  0  0  0
 23 24  2  0  0  0  0
 23 25  1  0  0  0  0
 24 26  1  0  0  0  0
 24 48  1  0  0  0  0
 25 27  2  0  0  0  0
 25 49  1  0  0  0  0
 26 28  2  0  0  0  0
 26 50  1  0  0  0  0
 27 28  1  0  0  0  0
 27 51  1  0  0  0  0
M  END
> <PUBCHEM_COMPOUND_CID>
17395607

> <PUBCHEM_COMPOUND_CANONICALIZED>
1

> <PUBCHEM_CACTVS_COMPLEXITY>
664

> <PUBCHEM_CACTVS_HBOND_ACCEPTOR>
4

> <PUBCHEM_CACTVS_HBOND_DONOR>
2

> <PUBCHEM_CACTVS_ROTATABLE_BOND>
3

> <PUBCHEM_CACTVS_SUBSKEYS>
AAADceB7uAAEAAAAAAAAAAAAAAAAAWAAAAA8QAAAAAAAAAABAAAAHgIYAAAADYrBmCQzAIPiAACIAiFSEACCAAAkBQAeqAGIBsiIYDqB1zGUIQh4lyKIiYcYiQCOBAAAAAAAAAAIAAAAAAAAAAAAAAAAAA==

> <PUBCHEM_IUPAC_OPENEYE_NAME>
1-(4-chlorobenzoyl)-N-(4-ethyl-4-methyl-2,5-dioxo-imidazolidin-1-yl)piperidine-3-carboxamide

> <PUBCHEM_IUPAC_CAS_NAME>
1-[(4-chlorophenyl)-oxomethyl]-N-(4-ethyl-4-methyl-2,5-dioxo-1-imidazolidinyl)-3-piperidinecarboxamide

> <PUBCHEM_IUPAC_NAME>
1-(4-chlorobenzoyl)-N-(4-ethyl-4-methyl-2,5-dioxoimidazolidin-1-yl)piperidine-3-carboxamide

> <PUBCHEM_IUPAC_SYSTEMATIC_NAME>
1-(4-chlorophenyl)carbonyl-N-[4-ethyl-4-methyl-2,5-bis(oxidanylidene)imidazolidin-1-yl]piperidine-3-carboxamide

> <PUBCHEM_IUPAC_TRADITIONAL_NAME>
1-(4-chlorobenzoyl)-N-(4-ethyl-2,5-diketo-4-methyl-imidazolidin-1-yl)nipecotamide

> <PUBCHEM_IUPAC_INCHI>
InChI=1S/C19H23ClN4O4/c1-3-19(2)17(27)24(18(28)21-19)22-15(25)13-5-4-10-23(11-13)16(26)12-6-8-14(20)9-7-12/h6-9,13H,3-5,10-11H2,1-2H3,(H,21,28)(H,22,25)

> <PUBCHEM_IUPAC_INCHIKEY>
LSCKCGVJFXBKAY-UHFFFAOYSA-N

> <PUBCHEM_XLOGP3_AA>
2

> <PUBCHEM_EXACT_MASS>
406.140783

> <PUBCHEM_MOLECULAR_FORMULA>
C19H23ClN4O4

> <PUBCHEM_MOLECULAR_WEIGHT>
406.86332

> <PUBCHEM_OPENEYE_CAN_SMILES>
CCC1(C(=O)N(C(=O)N1)NC(=O)C2CCCN(C2)C(=O)C3=CC=C(C=C3)Cl)C

> <PUBCHEM_OPENEYE_ISO_SMILES>
CCC1(C(=O)N(C(=O)N1)NC(=O)C2CCCN(C2)C(=O)C3=CC=C(C=C3)Cl)C

> <PUBCHEM_CACTVS_TPSA>
98.8

> <PUBCHEM_MONOISOTOPIC_WEIGHT>
406.140783

> <PUBCHEM_TOTAL_CHARGE>
0

> <PUBCHEM_HEAVY_ATOM_COUNT>
28

> <PUBCHEM_ATOM_DEF_STEREO_COUNT>
0

> <PUBCHEM_ATOM_UDEF_STEREO_COUNT>
2

> <PUBCHEM_BOND_DEF_STEREO_COUNT>
0

> <PUBCHEM_BOND_UDEF_STEREO_COUNT>
0

> <PUBCHEM_ISOTOPIC_ATOM_COUNT>
0

> <PUBCHEM_COMPONENT_COUNT>
1

> <PUBCHEM_CACTVS_TAUTO_COUNT>
4

> <PUBCHEM_COORDINATE_TYPE>
1
5
255

> <PUBCHEM_BONDANNOTATIONS>
10  16  3
15  19  3
23  24  8
23  25  8
24  26  8
25  27  8
26  28  8
27  28  8

$$$$

