586120
  -OEChem-06241222452D

 79 85  0     1  0  0  0  0  0999 V2000
    4.5981   -0.9971    0.0000 Sn  0  0  0  0  0  0  0  0  0  0  0  0
    7.1799    0.0605    0.0000 O   0  0  0  0  0  0  0  0  0  0  0  0
    9.3868   -1.9453    0.0000 N   0  0  3  0  0  0  0  0  0  0  0  0
    8.0460    3.5605    0.0000 N   0  0  0  0  0  0  0  0  0  0  0  0
    9.8868   -1.0793    0.0000 C   0  0  3  0  0  0  0  0  0  0  0  0
    7.1962   -1.4970    0.0000 C   0  0  3  0  0  0  0  0  0  0  0  0
    8.9120    0.0605    0.0000 C   0  0  3  0  0  0  0  0  0  0  0  0
    9.8779    0.3193    0.0000 C   0  0  0  0  0  0  0  0  0  0  0  0
    7.4550   -2.4630    0.0000 C   0  0  0  0  0  0  0  0  0  0  0  0
   11.4600   -2.2864    0.0000 C   0  0  0  0  0  0  0  0  0  0  0  0
   10.9600   -3.1524    0.0000 C   0  0  0  0  0  0  0  0  0  0  0  0
    6.3301   -0.9971    0.0000 C   0  0  0  0  0  0  0  0  0  0  0  0
    8.0460    0.5605    0.0000 C   0  0  3  0  0  0  0  0  0  0  0  0
    5.4641   -1.4970    0.0000 C   0  0  0  0  0  0  0  0  0  0  0  0
    8.0460    1.5605    0.0000 C   0  0  0  0  0  0  0  0  0  0  0  0
    3.7320   -0.4971    0.0000 C   0  0  0  0  0  0  0  0  0  0  0  0
    4.0981   -1.8631    0.0000 C   0  0  0  0  0  0  0  0  0  0  0  0
    5.0981   -0.1310    0.0000 C   0  0  0  0  0  0  0  0  0  0  0  0
    8.9120    2.0605    0.0000 C   0  0  0  0  0  0  0  0  0  0  0  0
    7.1799    2.0605    0.0000 C   0  0  0  0  0  0  0  0  0  0  0  0
    8.9120    3.0605    0.0000 C   0  0  0  0  0  0  0  0  0  0  0  0
    6.0981   -0.1310    0.0000 C   0  0  0  0  0  0  0  0  0  0  0  0
    2.8660   -0.9971    0.0000 C   0  0  0  0  0  0  0  0  0  0  0  0
    4.5981   -2.7291    0.0000 C   0  0  0  0  0  0  0  0  0  0  0  0
    4.5981    0.7350    0.0000 C   0  0  0  0  0  0  0  0  0  0  0  0
    3.7320    0.5029    0.0000 C   0  0  0  0  0  0  0  0  0  0  0  0
    3.0981   -1.8631    0.0000 C   0  0  0  0  0  0  0  0  0  0  0  0
    9.8059    1.5258    0.0000 C   0  0  0  0  0  0  0  0  0  0  0  0
    7.1799    3.0605    0.0000 C   0  0  0  0  0  0  0  0  0  0  0  0
    4.0981   -3.5951    0.0000 C   0  0  0  0  0  0  0  0  0  0  0  0
    6.5981    0.7350    0.0000 C   0  0  0  0  0  0  0  0  0  0  0  0
    2.0000   -0.4971    0.0000 C   0  0  0  0  0  0  0  0  0  0  0  0
    5.0981    1.6010    0.0000 C   0  0  0  0  0  0  0  0  0  0  0  0
    2.8660    1.0030    0.0000 C   0  0  0  0  0  0  0  0  0  0  0  0
    2.5981   -2.7291    0.0000 C   0  0  0  0  0  0  0  0  0  0  0  0
    9.8059    3.5951    0.0000 C   0  0  0  0  0  0  0  0  0  0  0  0
   10.7120    2.0396    0.0000 C   0  0  0  0  0  0  0  0  0  0  0  0
    6.0981    1.6010    0.0000 C   0  0  0  0  0  0  0  0  0  0  0  0
    2.0000    0.5029    0.0000 C   0  0  0  0  0  0  0  0  0  0  0  0
    3.0981   -3.5951    0.0000 C   0  0  0  0  0  0  0  0  0  0  0  0
   10.7120    3.0813    0.0000 C   0  0  0  0  0  0  0  0  0  0  0  0
    9.7333   -1.6800    0.0000 H   0  0  0  0  0  0  0  0  0  0  0  0
    7.3101   -0.8876    0.0000 H   0  0  0  0  0  0  0  0  0  0  0  0
    9.4443   -0.2574    0.0000 H   0  0  0  0  0  0  0  0  0  0  0  0
   10.4953    0.3759    0.0000 H   0  0  0  0  0  0  0  0  0  0  0  0
    9.7690    0.9296    0.0000 H   0  0  0  0  0  0  0  0  0  0  0  0
    6.8561   -2.6234    0.0000 H   0  0  0  0  0  0  0  0  0  0  0  0
    7.6154   -3.0619    0.0000 H   0  0  0  0  0  0  0  0  0  0  0  0
   11.9829   -2.6196    0.0000 H   0  0  0  0  0  0  0  0  0  0  0  0
   11.8156   -1.7786    0.0000 H   0  0  0  0  0  0  0  0  0  0  0  0
   10.6043   -3.6603    0.0000 H   0  0  0  0  0  0  0  0  0  0  0  0
   11.4829   -3.4856    0.0000 H   0  0  0  0  0  0  0  0  0  0  0  0
    6.7287   -0.5221    0.0000 H   0  0  0  0  0  0  0  0  0  0  0  0
    5.9316   -0.5221    0.0000 H   0  0  0  0  0  0  0  0  0  0  0  0
    7.5090    0.8705    0.0000 H   0  0  0  0  0  0  0  0  0  0  0  0
    5.0656   -1.9720    0.0000 H   0  0  0  0  0  0  0  0  0  0  0  0
    5.8626   -1.9720    0.0000 H   0  0  0  0  0  0  0  0  0  0  0  0
    7.1799   -0.5595    0.0000 H   0  0  0  0  0  0  0  0  0  0  0  0
    6.6430    1.7505    0.0000 H   0  0  0  0  0  0  0  0  0  0  0  0
    2.8660   -1.6171    0.0000 H   0  0  0  0  0  0  0  0  0  0  0  0
    6.4081   -0.6680    0.0000 H   0  0  0  0  0  0  0  0  0  0  0  0
    5.2181   -2.7291    0.0000 H   0  0  0  0  0  0  0  0  0  0  0  0
    4.2690    0.8129    0.0000 H   0  0  0  0  0  0  0  0  0  0  0  0
    3.9781    0.7350    0.0000 H   0  0  0  0  0  0  0  0  0  0  0  0
    2.7881   -1.3261    0.0000 H   0  0  0  0  0  0  0  0  0  0  0  0
    9.7988    0.9058    0.0000 H   0  0  0  0  0  0  0  0  0  0  0  0
    6.6430    3.3705    0.0000 H   0  0  0  0  0  0  0  0  0  0  0  0
    7.2181    0.7350    0.0000 H   0  0  0  0  0  0  0  0  0  0  0  0
    1.4631   -0.8071    0.0000 H   0  0  0  0  0  0  0  0  0  0  0  0
    4.4081   -4.1321    0.0000 H   0  0  0  0  0  0  0  0  0  0  0  0
    4.7881    2.1380    0.0000 H   0  0  0  0  0  0  0  0  0  0  0  0
    2.8660    1.6229    0.0000 H   0  0  0  0  0  0  0  0  0  0  0  0
    1.9781   -2.7291    0.0000 H   0  0  0  0  0  0  0  0  0  0  0  0
    9.7988    4.2151    0.0000 H   0  0  0  0  0  0  0  0  0  0  0  0
   11.2477    1.7276    0.0000 H   0  0  0  0  0  0  0  0  0  0  0  0
    2.7881   -4.1321    0.0000 H   0  0  0  0  0  0  0  0  0  0  0  0
    6.4081    2.1380    0.0000 H   0  0  0  0  0  0  0  0  0  0  0  0
    1.4631    0.8129    0.0000 H   0  0  0  0  0  0  0  0  0  0  0  0
   11.2477    3.3934    0.0000 H   0  0  0  0  0  0  0  0  0  0  0  0
  1 14  1  0  0  0  0
  1 16  1  0  0  0  0
  1 17  1  0  0  0  0
  1 18  1  0  0  0  0
  2 13  1  0  0  0  0
  2 58  1  0  0  0  0
  3  7  1  0  0  0  0
  3  9  1  0  0  0  0
  3 11  1  0  0  0  0
  4 21  1  0  0  0  0
  4 29  2  0  0  0  0
  5  6  1  0  0  0  0
  5  8  1  0  0  0  0
  5 10  1  0  0  0  0
  5 42  1  0  0  0  0
  6  9  1  0  0  0  0
  6 12  1  0  0  0  0
  6 43  1  0  0  0  0
  7  8  1  0  0  0  0
  7 13  1  0  0  0  0
  7 44  1  0  0  0  0
  8 45  1  0  0  0  0
  8 46  1  0  0  0  0
  9 47  1  0  0  0  0
  9 48  1  0  0  0  0
 10 11  1  0  0  0  0
 10 49  1  0  0  0  0
 10 50  1  0  0  0  0
 11 51  1  0  0  0  0
 11 52  1  0  0  0  0
 12 14  1  0  0  0  0
 12 53  1  0  0  0  0
 12 54  1  0  0  0  0
 13 15  1  0  0  0  0
 13 55  1  0  0  0  0
 14 56  1  0  0  0  0
 14 57  1  0  0  0  0
 15 19  1  0  0  0  0
 15 20  2  0  0  0  0
 16 23  2  0  0  0  0
 16 26  1  0  0  0  0
 17 24  2  0  0  0  0
 17 27  1  0  0  0  0
 18 22  2  0  0  0  0
 18 25  1  0  0  0  0
 19 21  1  0  0  0  0
 19 28  2  0  0  0  0
 20 29  1  0  0  0  0
 20 59  1  0  0  0  0
 21 36  2  0  0  0  0
 22 31  1  0  0  0  0
 22 61  1  0  0  0  0
 23 32  1  0  0  0  0
 23 60  1  0  0  0  0
 24 30  1  0  0  0  0
 24 62  1  0  0  0  0
 25 33  2  0  0  0  0
 25 64  1  0  0  0  0
 26 34  2  0  0  0  0
 26 63  1  0  0  0  0
 27 35  2  0  0  0  0
 27 65  1  0  0  0  0
 28 37  1  0  0  0  0
 28 66  1  0  0  0  0
 29 67  1  0  0  0  0
 30 40  2  0  0  0  0
 30 70  1  0  0  0  0
 31 38  2  0  0  0  0
 31 68  1  0  0  0  0
 32 39  2  0  0  0  0
 32 69  1  0  0  0  0
 33 38  1  0  0  0  0
 33 71  1  0  0  0  0
 34 39  1  0  0  0  0
 34 72  1  0  0  0  0
 35 40  1  0  0  0  0
 35 73  1  0  0  0  0
 36 41  1  0  0  0  0
 36 74  1  0  0  0  0
 37 41  2  0  0  0  0
 37 75  1  0  0  0  0
 38 77  1  0  0  0  0
 39 78  1  0  0  0  0
 40 76  1  0  0  0  0
 41 79  1  0  0  0  0
M  END
> <PUBCHEM_COMPOUND_CID>
586120

> <PUBCHEM_COMPOUND_CANONICALIZED>
1

> <PUBCHEM_CACTVS_COMPLEXITY>
772

> <PUBCHEM_CACTVS_HBOND_ACCEPTOR>
3

> <PUBCHEM_CACTVS_HBOND_DONOR>
1

> <PUBCHEM_CACTVS_ROTATABLE_BOND>
8

> <PUBCHEM_CACTVS_SUBSKEYS>
AAADcfB/IAAAAAAAAACAAAAAAAAAAAAAAAA8ePHiAAAAAACx9AAAHgAACAAADTzhngY8wPMIEgCgAzRnRACCgCAxAiAI2CA4bJgKNuLAkZGEcAhkwAHY2AewwPAOgAAAAAACAAAAAAAAAAQAAAAAAAAAAA==

> <PUBCHEM_IUPAC_OPENEYE_NAME>
4-quinolyl-[5-(2-triphenylstannylethyl)quinuclidin-2-yl]methanol

> <PUBCHEM_IUPAC_CAS_NAME>
4-quinolinyl-[5-(2-triphenylstannylethyl)-1-azabicyclo[2.2.2]octan-2-yl]methanol

> <PUBCHEM_IUPAC_NAME>
quinolin-4-yl-[5-(2-triphenylstannylethyl)-1-azabicyclo[2.2.2]octan-2-yl]methanol

> <PUBCHEM_IUPAC_SYSTEMATIC_NAME>
quinolin-4-yl-[5-(2-triphenylstannylethyl)-1-azabicyclo[2.2.2]octan-2-yl]methanol

> <PUBCHEM_IUPAC_TRADITIONAL_NAME>
4-quinolyl-[5-(2-triphenylstannylethyl)quinuclidin-2-yl]methanol

> <PUBCHEM_IUPAC_INCHI>
InChI=1S/C19H23N2O.3C6H5.Sn/c1-2-13-12-21-10-8-14(13)11-18(21)19(22)16-7-9-20-17-6-4-3-5-15(16)17;3*1-2-4-6-5-3-1;/h3-7,9,13-14,18-19,22H,1-2,8,10-12H2;3*1-5H;

> <PUBCHEM_IUPAC_INCHIKEY>
WWSLDIDSHDTHFM-UHFFFAOYSA-N

> <PUBCHEM_EXACT_MASS>
646.200609

> <PUBCHEM_MOLECULAR_FORMULA>
C37H38N2OSn

> <PUBCHEM_MOLECULAR_WEIGHT>
645.42042

> <PUBCHEM_OPENEYE_CAN_SMILES>
C1CN2CC(C1CC2C(C3=CC=NC4=CC=CC=C34)O)CC[Sn](C5=CC=CC=C5)(C6=CC=CC=C6)C7=CC=CC=C7

> <PUBCHEM_OPENEYE_ISO_SMILES>
C1CN2CC(C1CC2C(C3=CC=NC4=CC=CC=C34)O)CC[Sn](C5=CC=CC=C5)(C6=CC=CC=C6)C7=CC=CC=C7

> <PUBCHEM_CACTVS_TPSA>
36.4

> <PUBCHEM_MONOISOTOPIC_WEIGHT>
646.200609

> <PUBCHEM_TOTAL_CHARGE>
0

> <PUBCHEM_HEAVY_ATOM_COUNT>
41

> <PUBCHEM_ATOM_DEF_STEREO_COUNT>
0

> <PUBCHEM_ATOM_UDEF_STEREO_COUNT>
4

> <PUBCHEM_BOND_DEF_STEREO_COUNT>
0

> <PUBCHEM_BOND_UDEF_STEREO_COUNT>
0

> <PUBCHEM_ISOTOPIC_ATOM_COUNT>
0

> <PUBCHEM_COMPONENT_COUNT>
1

> <PUBCHEM_CACTVS_TAUTO_COUNT>
1

> <PUBCHEM_COORDINATE_TYPE>
1
5
255

> <PUBCHEM_BONDANNOTATIONS>
15  19  8
15  20  8
16  23  8
16  26  8
17  24  8
17  27  8
18  22  8
18  25  8
19  21  8
19  28  8
13  2  3
20  29  8
21  36  8
22  31  8
23  32  8
24  30  8
25  33  8
26  34  8
27  35  8
28  37  8
30  40  8
31  38  8
32  39  8
33  38  8
34  39  8
35  40  8
36  41  8
37  41  8
4  21  8
4  29  8
5  10  3
6  12  3
7  8  3

$$$$

