442138
  -OEChem-07051212572D

 76 82  0     1  0  0  0  0  0999 V2000
    6.6610   -2.0163    0.0000 O   0  0  0  0  0  0  0  0  0  0  0  0
   10.2064    0.1779    0.0000 O   0  0  0  0  0  0  0  0  0  0  0  0
    6.9159    3.3219    0.0000 O   0  0  0  0  0  0  0  0  0  0  0  0
    3.7508    0.6369    0.0000 O   0  0  0  0  0  0  0  0  0  0  0  0
    6.2278   -3.7215    0.0000 O   0  0  0  0  0  0  0  0  0  0  0  0
    2.0000    0.7472    0.0000 O   0  0  0  0  0  0  0  0  0  0  0  0
    7.5321   -0.5306    0.0000 C   0  0  2  0  0  0  0  0  0  0  0  0
    6.7231    0.0572    0.0000 C   0  0  2  0  0  0  0  0  0  0  0  0
    8.3411    0.0572    0.0000 C   0  0  1  0  0  0  0  0  0  0  0  0
    7.0321    1.0082    0.0000 C   0  0  2  0  0  0  0  0  0  0  0  0
    8.0321    1.0082    0.0000 C   0  0  1  0  0  0  0  0  0  0  0  0
    6.2264    1.5904    0.0000 C   0  0  2  0  0  0  0  0  0  0  0  0
    7.4947   -1.5107    0.0000 C   0  0  2  0  0  0  0  0  0  0  0  0
    7.2781   -0.0180    0.0000 C   0  0  0  0  0  0  0  0  0  0  0  0
    9.2848   -0.2101    0.0000 C   0  0  2  0  0  0  0  0  0  0  0  0
    5.7290    0.0597    0.0000 C   0  0  0  0  0  0  0  0  0  0  0  0
    7.5253    0.7428    0.0000 C   0  0  0  0  0  0  0  0  0  0  0  0
    5.4226    1.0054    0.0000 C   0  0  0  0  0  0  0  0  0  0  0  0
    8.2359   -2.1530    0.0000 C   0  0  1  0  0  0  0  0  0  0  0  0
    6.2627    2.5647    0.0000 C   0  0  2  0  0  0  0  0  0  0  0  0
    9.6666   -1.1135    0.0000 C   0  0  0  0  0  0  0  0  0  0  0  0
    9.2007   -1.9766    0.0000 C   0  0  0  0  0  0  0  0  0  0  0  0
    4.4843    1.2703    0.0000 C   0  0  2  0  0  0  0  0  0  0  0  0
    7.8540   -3.0501    0.0000 C   0  0  1  0  0  0  0  0  0  0  0  0
    6.8873   -0.9385    0.0000 C   0  0  0  0  0  0  0  0  0  0  0  0
    9.5560    0.7524    0.0000 C   0  0  0  0  0  0  0  0  0  0  0  0
    4.1040    2.1680    0.0000 C   0  0  1  0  0  0  0  0  0  0  0  0
    5.5253    3.2026    0.0000 C   0  0  0  0  0  0  0  0  0  0  0  0
    5.1398   -0.7483    0.0000 C   0  0  0  0  0  0  0  0  0  0  0  0
    4.5664    3.0264    0.0000 C   0  0  0  0  0  0  0  0  0  0  0  0
    6.8827   -2.9658    0.0000 C   0  0  0  0  0  0  0  0  0  0  0  0
    7.2620    2.5261    0.0000 C   0  0  0  0  0  0  0  0  0  0  0  0
    3.1386    2.0817    0.0000 C   0  0  1  0  0  0  0  0  0  0  0  0
    8.3689   -3.9074    0.0000 C   0  0  0  0  0  0  0  0  0  0  0  0
    2.9208    1.1373    0.0000 C   0  0  0  0  0  0  0  0  0  0  0  0
    2.4818    2.8358    0.0000 C   0  0  0  0  0  0  0  0  0  0  0  0
    6.0914   -0.5116    0.0000 H   0  0  0  0  0  0  0  0  0  0  0  0
    9.0288    0.5568    0.0000 H   0  0  0  0  0  0  0  0  0  0  0  0
    7.2948    1.8166    0.0000 H   0  0  0  0  0  0  0  0  0  0  0  0
    8.2948    1.8166    0.0000 H   0  0  0  0  0  0  0  0  0  0  0  0
    6.9903    1.9631    0.0000 H   0  0  0  0  0  0  0  0  0  0  0  0
    6.7621   -1.0796    0.0000 H   0  0  0  0  0  0  0  0  0  0  0  0
    7.0516    1.1428    0.0000 H   0  0  0  0  0  0  0  0  0  0  0  0
    8.7668   -2.8168    0.0000 H   0  0  0  0  0  0  0  0  0  0  0  0
   10.1326   -1.5225    0.0000 H   0  0  0  0  0  0  0  0  0  0  0  0
   10.1694   -0.7507    0.0000 H   0  0  0  0  0  0  0  0  0  0  0  0
    9.1732   -2.5960    0.0000 H   0  0  0  0  0  0  0  0  0  0  0  0
    9.7983   -2.1418    0.0000 H   0  0  0  0  0  0  0  0  0  0  0  0
    4.6687    0.4405    0.0000 H   0  0  0  0  0  0  0  0  0  0  0  0
    7.5256   -3.5760    0.0000 H   0  0  0  0  0  0  0  0  0  0  0  0
    6.3166   -0.6962    0.0000 H   0  0  0  0  0  0  0  0  0  0  0  0
    6.6450   -1.5092    0.0000 H   0  0  0  0  0  0  0  0  0  0  0  0
    7.4580   -1.1808    0.0000 H   0  0  0  0  0  0  0  0  0  0  0  0
   10.1528    0.5842    0.0000 H   0  0  0  0  0  0  0  0  0  0  0  0
    9.7242    1.3492    0.0000 H   0  0  0  0  0  0  0  0  0  0  0  0
    8.9593    0.9205    0.0000 H   0  0  0  0  0  0  0  0  0  0  0  0
    3.6361    2.8777    0.0000 H   0  0  0  0  0  0  0  0  0  0  0  0
    6.0255    3.5690    0.0000 H   0  0  0  0  0  0  0  0  0  0  0  0
    5.2799    3.7720    0.0000 H   0  0  0  0  0  0  0  0  0  0  0  0
    4.6389   -0.3830    0.0000 H   0  0  0  0  0  0  0  0  0  0  0  0
    4.7745   -1.2492    0.0000 H   0  0  0  0  0  0  0  0  0  0  0  0
    5.6408   -1.1136    0.0000 H   0  0  0  0  0  0  0  0  0  0  0  0
    4.5934    3.6458    0.0000 H   0  0  0  0  0  0  0  0  0  0  0  0
    3.9687    3.1911    0.0000 H   0  0  0  0  0  0  0  0  0  0  0  0
   10.7005   -0.1966    0.0000 H   0  0  0  0  0  0  0  0  0  0  0  0
    7.2380    1.9066    0.0000 H   0  0  0  0  0  0  0  0  0  0  0  0
    7.8815    2.5022    0.0000 H   0  0  0  0  0  0  0  0  0  0  0  0
    7.2859    3.1456    0.0000 H   0  0  0  0  0  0  0  0  0  0  0  0
    2.5371    1.9314    0.0000 H   0  0  0  0  0  0  0  0  0  0  0  0
    6.7119    3.9074    0.0000 H   0  0  0  0  0  0  0  0  0  0  0  0
    7.8374   -4.2266    0.0000 H   0  0  0  0  0  0  0  0  0  0  0  0
    8.6881   -4.4389    0.0000 H   0  0  0  0  0  0  0  0  0  0  0  0
    8.9004   -3.5881    0.0000 H   0  0  0  0  0  0  0  0  0  0  0  0
    2.9493    3.2430    0.0000 H   0  0  0  0  0  0  0  0  0  0  0  0
    2.0745    3.3032    0.0000 H   0  0  0  0  0  0  0  0  0  0  0  0
    2.0143    2.4285    0.0000 H   0  0  0  0  0  0  0  0  0  0  0  0
  1 13  1  0  0  0  0
  1 31  1  0  0  0  0
 15  2  1  1  0  0  0
  2 65  1  0  0  0  0
 20  3  1  6  0  0  0
  3 70  1  0  0  0  0
  4 23  1  0  0  0  0
  4 35  1  0  0  0  0
  5 31  2  0  0  0  0
  6 35  2  0  0  0  0
  7  8  1  0  0  0  0
  7  9  1  0  0  0  0
  7 13  1  0  0  0  0
  7 14  1  1  0  0  0
  8 10  1  0  0  0  0
  8 16  1  0  0  0  0
  8 37  1  6  0  0  0
  9 11  1  0  0  0  0
  9 15  1  0  0  0  0
  9 38  1  6  0  0  0
 10 11  1  0  0  0  0
 10 12  1  0  0  0  0
 10 39  1  6  0  0  0
 11 17  1  0  0  0  0
 11 40  1  1  0  0  0
 12 18  1  0  0  0  0
 12 20  1  0  0  0  0
 12 41  1  1  0  0  0
 13 19  1  0  0  0  0
 13 42  1  1  0  0  0
 14 17  2  0  0  0  0
 14 25  1  0  0  0  0
 15 21  1  0  0  0  0
 15 26  1  0  0  0  0
 16 18  2  0  0  0  0
 16 29  1  0  0  0  0
 17 43  1  0  0  0  0
 18 23  1  0  0  0  0
 19 22  1  0  0  0  0
 19 24  1  0  0  0  0
 19 44  1  6  0  0  0
 20 28  1  0  0  0  0
 20 32  1  0  0  0  0
 21 22  1  0  0  0  0
 21 45  1  0  0  0  0
 21 46  1  0  0  0  0
 22 47  1  0  0  0  0
 22 48  1  0  0  0  0
 23 27  1  0  0  0  0
 23 49  1  6  0  0  0
 24 31  1  0  0  0  0
 24 34  1  6  0  0  0
 24 50  1  0  0  0  0
 25 51  1  0  0  0  0
 25 52  1  0  0  0  0
 25 53  1  0  0  0  0
 26 54  1  0  0  0  0
 26 55  1  0  0  0  0
 26 56  1  0  0  0  0
 27 30  1  0  0  0  0
 27 33  1  0  0  0  0
 27 57  1  1  0  0  0
 28 30  1  0  0  0  0
 28 58  1  0  0  0  0
 28 59  1  0  0  0  0
 29 60  1  0  0  0  0
 29 61  1  0  0  0  0
 29 62  1  0  0  0  0
 30 63  1  0  0  0  0
 30 64  1  0  0  0  0
 32 66  1  0  0  0  0
 32 67  1  0  0  0  0
 32 68  1  0  0  0  0
 33 35  1  0  0  0  0
 33 36  1  1  0  0  0
 33 69  1  0  0  0  0
 34 71  1  0  0  0  0
 34 72  1  0  0  0  0
 34 73  1  0  0  0  0
 36 74  1  0  0  0  0
 36 75  1  0  0  0  0
 36 76  1  0  0  0  0
M  END
> <PUBCHEM_COMPOUND_CID>
442138

> <PUBCHEM_COMPOUND_CANONICALIZED>
1

> <PUBCHEM_CACTVS_COMPLEXITY>
1140

> <PUBCHEM_CACTVS_HBOND_ACCEPTOR>
6

> <PUBCHEM_CACTVS_HBOND_DONOR>
2

> <PUBCHEM_CACTVS_ROTATABLE_BOND>
0

> <PUBCHEM_CACTVS_SUBSKEYS>
AAADcfB4OAAAAAAAAAAAAAAAAAAAAaJECBAgAAAABgwQAADQAAAAGgAACAAAD1SggAICCAAABgCIAiDSCAAAAAAgAAAACAEAAAgABBIAIQACUAAEwAAIIAPK6PyPgAAAAAAAAAAAAAAAAAAAAQAACAAAAA==

> <PUBCHEM_IUPAC_INCHI>
InChI=1S/C30H40O6/c1-12-11-18-20-21(30(12)24(18)29(6,34)10-8-17-14(3)27(32)36-25(17)30)15(4)19-22(20)28(5,33)9-7-16-13(2)26(31)35-23(16)19/h11,13-14,16-18,20-25,33-34H,7-10H2,1-6H3/t13-,14-,16-,17-,18+,20-,21-,22-,23-,24-,25-,28-,29-,30+/m0/s1

> <PUBCHEM_IUPAC_INCHIKEY>
PZHWYURJZAPXAN-ILOFNVQHSA-N

> <PUBCHEM_XLOGP3_AA>
2.2

> <PUBCHEM_EXACT_MASS>
496.282489

> <PUBCHEM_MOLECULAR_FORMULA>
C30H40O6

> <PUBCHEM_MOLECULAR_WEIGHT>
496.635

> <PUBCHEM_OPENEYE_CAN_SMILES>
CC1C2CCC(C3C4C5C=C(C6(C4C(=C3C2OC1=O)C)C5C(CCC7C6OC(=O)C7C)(C)O)C)(C)O

> <PUBCHEM_OPENEYE_ISO_SMILES>
C[C@H]1[C@@H]2CC[C@]([C@@H]3[C@H]4[C@H]5C=C([C@@]6([C@H]4C(=C3[C@H]2OC1=O)C)[C@@H]5[C@@](CC[C@@H]7[C@@H]6OC(=O)[C@H]7C)(C)O)C)(C)O

> <PUBCHEM_CACTVS_TPSA>
93.1

> <PUBCHEM_MONOISOTOPIC_WEIGHT>
496.282489

> <PUBCHEM_TOTAL_CHARGE>
0

> <PUBCHEM_HEAVY_ATOM_COUNT>
36

> <PUBCHEM_ATOM_DEF_STEREO_COUNT>
14

> <PUBCHEM_ATOM_UDEF_STEREO_COUNT>
0

> <PUBCHEM_BOND_DEF_STEREO_COUNT>
0

> <PUBCHEM_BOND_UDEF_STEREO_COUNT>
0

> <PUBCHEM_ISOTOPIC_ATOM_COUNT>
0

> <PUBCHEM_COMPONENT_COUNT>
1

> <PUBCHEM_CACTVS_TAUTO_COUNT>
4

> <PUBCHEM_COORDINATE_TYPE>
1
5
255

> <PUBCHEM_BONDANNOTATIONS>
10  39  6
11  40  5
12  41  5
13  42  5
19  44  6
15  2  5
23  49  6
24  34  6
27  57  5
20  3  6
33  36  5
7  14  5
8  37  6
9  38  6

$$$$

