17396059
  -OEChem-06241222542D

 42 45  0     1  0  0  0  0  0999 V2000
    2.8185   -0.3428    0.0000 S   0  0  0  0  0  0  0  0  0  0  0  0
    4.5981    2.7505    0.0000 O   0  0  0  0  0  0  0  0  0  0  0  0
    5.4641   -0.7495    0.0000 O   0  0  0  0  0  0  0  0  0  0  0  0
    2.0000    2.2505    0.0000 O   0  0  0  0  0  0  0  0  0  0  0  0
    4.5981    0.7505    0.0000 N   0  0  0  0  0  0  0  0  0  0  0  0
    2.8660    3.7505    0.0000 N   0  0  0  0  0  0  0  0  0  0  0  0
    3.7320    1.2505    0.0000 C   0  0  0  0  0  0  0  0  0  0  0  0
    3.7320    2.2505    0.0000 C   0  0  3  0  0  0  0  0  0  0  0  0
    5.4641    1.2505    0.0000 C   0  0  0  0  0  0  0  0  0  0  0  0
    5.4641    2.2505    0.0000 C   0  0  0  0  0  0  0  0  0  0  0  0
    4.5981   -0.2495    0.0000 C   0  0  0  0  0  0  0  0  0  0  0  0
    3.7320   -0.7495    0.0000 C   0  0  0  0  0  0  0  0  0  0  0  0
    6.3580    0.7158    0.0000 C   0  0  0  0  0  0  0  0  0  0  0  0
    2.8660    2.7505    0.0000 C   0  0  0  0  0  0  0  0  0  0  0  0
    6.3580    2.7851    0.0000 C   0  0  0  0  0  0  0  0  0  0  0  0
    3.6275   -1.7441    0.0000 C   0  0  0  0  0  0  0  0  0  0  0  0
    7.2641    1.2296    0.0000 C   0  0  0  0  0  0  0  0  0  0  0  0
    7.2641    2.2713    0.0000 C   0  0  0  0  0  0  0  0  0  0  0  0
    4.3707   -2.4132    0.0000 C   0  0  0  0  0  0  0  0  0  0  0  0
    2.6494   -1.9520    0.0000 C   0  0  0  0  0  0  0  0  0  0  0  0
    2.1494   -1.0859    0.0000 C   0  0  0  0  0  0  0  0  0  0  0  0
    4.1628   -3.3913    0.0000 C   0  0  0  0  0  0  0  0  0  0  0  0
    5.3217   -2.1042    0.0000 C   0  0  0  0  0  0  0  0  0  0  0  0
    4.9059   -4.0605    0.0000 C   0  0  0  0  0  0  0  0  0  0  0  0
    6.0649   -2.7733    0.0000 C   0  0  0  0  0  0  0  0  0  0  0  0
    5.8570   -3.7514    0.0000 C   0  0  0  0  0  0  0  0  0  0  0  0
    3.1215    1.3581    0.0000 H   0  0  0  0  0  0  0  0  0  0  0  0
    3.5200    0.6679    0.0000 H   0  0  0  0  0  0  0  0  0  0  0  0
    3.7320    2.8705    0.0000 H   0  0  0  0  0  0  0  0  0  0  0  0
    6.3509    0.0958    0.0000 H   0  0  0  0  0  0  0  0  0  0  0  0
    6.3509    3.4051    0.0000 H   0  0  0  0  0  0  0  0  0  0  0  0
    7.7998    0.9176    0.0000 H   0  0  0  0  0  0  0  0  0  0  0  0
    7.7998    2.5833    0.0000 H   0  0  0  0  0  0  0  0  0  0  0  0
    2.3972   -2.5184    0.0000 H   0  0  0  0  0  0  0  0  0  0  0  0
    1.5328   -1.0211    0.0000 H   0  0  0  0  0  0  0  0  0  0  0  0
    2.3291    4.0605    0.0000 H   0  0  0  0  0  0  0  0  0  0  0  0
    3.4030    4.0605    0.0000 H   0  0  0  0  0  0  0  0  0  0  0  0
    3.5731   -3.5829    0.0000 H   0  0  0  0  0  0  0  0  0  0  0  0
    5.4506   -1.4977    0.0000 H   0  0  0  0  0  0  0  0  0  0  0  0
    4.7770   -4.6669    0.0000 H   0  0  0  0  0  0  0  0  0  0  0  0
    6.6545   -2.5817    0.0000 H   0  0  0  0  0  0  0  0  0  0  0  0
    6.3177   -4.1663    0.0000 H   0  0  0  0  0  0  0  0  0  0  0  0
  1 12  1  0  0  0  0
  1 21  1  0  0  0  0
  2  8  1  0  0  0  0
  2 10  1  0  0  0  0
  3 11  2  0  0  0  0
  4 14  2  0  0  0  0
  5  7  1  0  0  0  0
  5  9  1  0  0  0  0
  5 11  1  0  0  0  0
  6 14  1  0  0  0  0
  6 36  1  0  0  0  0
  6 37  1  0  0  0  0
  7  8  1  0  0  0  0
  7 27  1  0  0  0  0
  7 28  1  0  0  0  0
  8 14  1  0  0  0  0
  8 29  1  0  0  0  0
  9 10  1  0  0  0  0
  9 13  2  0  0  0  0
 10 15  2  0  0  0  0
 11 12  1  0  0  0  0
 12 16  2  0  0  0  0
 13 17  1  0  0  0  0
 13 30  1  0  0  0  0
 15 18  1  0  0  0  0
 15 31  1  0  0  0  0
 16 19  1  0  0  0  0
 16 20  1  0  0  0  0
 17 18  2  0  0  0  0
 17 32  1  0  0  0  0
 18 33  1  0  0  0  0
 19 22  2  0  0  0  0
 19 23  1  0  0  0  0
 20 21  2  0  0  0  0
 20 34  1  0  0  0  0
 21 35  1  0  0  0  0
 22 24  1  0  0  0  0
 22 38  1  0  0  0  0
 23 25  2  0  0  0  0
 23 39  1  0  0  0  0
 24 26  2  0  0  0  0
 24 40  1  0  0  0  0
 25 26  1  0  0  0  0
 25 41  1  0  0  0  0
 26 42  1  0  0  0  0
M  END
> <PUBCHEM_COMPOUND_CID>
17396059

> <PUBCHEM_COMPOUND_CANONICALIZED>
1

> <PUBCHEM_CACTVS_COMPLEXITY>
537

> <PUBCHEM_CACTVS_HBOND_ACCEPTOR>
4

> <PUBCHEM_CACTVS_HBOND_DONOR>
1

> <PUBCHEM_CACTVS_ROTATABLE_BOND>
3

> <PUBCHEM_CACTVS_SUBSKEYS>
AAADceB7MABAAAAAAAAAAAAAAAAAASAAAAA8YIAAAAAAAACx0AAAHgQQAAAADBzl2Aawx4NABAiMAiVSUAKDCIAlKhBIiBlPbMgOJjrk9Z+HOSjk1hH46QeYyMCOgAAAAAAAEAAAAAAAAAAgAAAAAAAAAA==

> <PUBCHEM_IUPAC_OPENEYE_NAME>
4-(3-phenylthiophene-2-carbonyl)-2,3-dihydro-1,4-benzoxazine-2-carboxamide

> <PUBCHEM_IUPAC_CAS_NAME>
4-[oxo-(3-phenyl-2-thiophenyl)methyl]-2,3-dihydro-1,4-benzoxazine-2-carboxamide

> <PUBCHEM_IUPAC_NAME>
4-(3-phenylthiophene-2-carbonyl)-2,3-dihydro-1,4-benzoxazine-2-carboxamide

> <PUBCHEM_IUPAC_SYSTEMATIC_NAME>
4-(3-phenylthiophen-2-yl)carbonyl-2,3-dihydro-1,4-benzoxazine-2-carboxamide

> <PUBCHEM_IUPAC_TRADITIONAL_NAME>
4-(3-phenylthiophene-2-carbonyl)-2,3-dihydro-1,4-benzoxazine-2-carboxamide

> <PUBCHEM_IUPAC_INCHI>
InChI=1S/C20H16N2O3S/c21-19(23)17-12-22(15-8-4-5-9-16(15)25-17)20(24)18-14(10-11-26-18)13-6-2-1-3-7-13/h1-11,17H,12H2,(H2,21,23)

> <PUBCHEM_IUPAC_INCHIKEY>
FZZQTUHJFXYINV-UHFFFAOYSA-N

> <PUBCHEM_XLOGP3_AA>
3.3

> <PUBCHEM_EXACT_MASS>
364.088163

> <PUBCHEM_MOLECULAR_FORMULA>
C20H16N2O3S

> <PUBCHEM_MOLECULAR_WEIGHT>
364.41764

> <PUBCHEM_OPENEYE_CAN_SMILES>
C1C(OC2=CC=CC=C2N1C(=O)C3=C(C=CS3)C4=CC=CC=C4)C(=O)N

> <PUBCHEM_OPENEYE_ISO_SMILES>
C1C(OC2=CC=CC=C2N1C(=O)C3=C(C=CS3)C4=CC=CC=C4)C(=O)N

> <PUBCHEM_CACTVS_TPSA>
101

> <PUBCHEM_MONOISOTOPIC_WEIGHT>
364.088163

> <PUBCHEM_TOTAL_CHARGE>
0

> <PUBCHEM_HEAVY_ATOM_COUNT>
26

> <PUBCHEM_ATOM_DEF_STEREO_COUNT>
0

> <PUBCHEM_ATOM_UDEF_STEREO_COUNT>
1

> <PUBCHEM_BOND_DEF_STEREO_COUNT>
0

> <PUBCHEM_BOND_UDEF_STEREO_COUNT>
0

> <PUBCHEM_ISOTOPIC_ATOM_COUNT>
0

> <PUBCHEM_COMPONENT_COUNT>
1

> <PUBCHEM_CACTVS_TAUTO_COUNT>
3

> <PUBCHEM_COORDINATE_TYPE>
1
5
255

> <PUBCHEM_BONDANNOTATIONS>
1  12  8
1  21  8
10  15  8
12  16  8
13  17  8
15  18  8
16  20  8
17  18  8
19  22  8
19  23  8
20  21  8
22  24  8
23  25  8
24  26  8
25  26  8
8  14  3
9  10  8
9  13  8

$$$$

