13132966
  -OEChem-07051213112D

 73 77  0     1  0  0  0  0  0999 V2000
    6.6129   -0.1191    0.0000 Mg  0  2  0  0  0  0  0  0  0  0  0  0
    8.0110   -4.4966    0.0000 O   0  0  0  0  0  0  0  0  0  0  0  0
   13.0207   -0.9662    0.0000 O   0  0  0  0  0  0  0  0  0  0  0  0
   11.9780   -2.3492    0.0000 O   0  0  0  0  0  0  0  0  0  0  0  0
    8.0994   -0.0924    0.0000 N   0  0  0  0  0  0  0  0  0  0  0  0
    6.6504   -1.4139    0.0000 N   0  5  0  0  0  0  0  0  0  0  0  0
    6.6181    1.2290    0.0000 N   0  5  0  0  0  0  0  0  0  0  0  0
    5.1995   -0.0924    0.0000 N   0  0  0  0  0  0  0  0  0  0  0  0
    9.5825   -0.5432    0.0000 C   0  0  1  0  0  0  0  0  0  0  0  0
    9.5825    0.4228    0.0000 C   0  0  1  0  0  0  0  0  0  0  0  0
    8.6794   -0.8017    0.0000 C   0  0  0  0  0  0  0  0  0  0  0  0
    8.3903   -1.7355    0.0000 C   0  0  0  0  0  0  0  0  0  0  0  0
   10.3810   -1.1452    0.0000 C   0  0  0  0  0  0  0  0  0  0  0  0
    8.6471    0.6814    0.0000 C   0  0  0  0  0  0  0  0  0  0  0  0
    7.4242   -1.9940    0.0000 C   0  0  0  0  0  0  0  0  0  0  0  0
    8.9285   -2.5650    0.0000 C   0  0  0  0  0  0  0  0  0  0  0  0
    7.1334   -2.9278    0.0000 C   0  0  0  0  0  0  0  0  0  0  0  0
   10.3783    1.0284    0.0000 C   0  0  0  0  0  0  0  0  0  0  0  0
    7.9404   -3.4991    0.0000 C   0  0  0  0  0  0  0  0  0  0  0  0
    6.1672   -2.9278    0.0000 C   0  0  0  0  0  0  0  0  0  0  0  0
    5.8764   -2.0263    0.0000 C   0  0  0  0  0  0  0  0  0  0  0  0
    8.3579    1.5829    0.0000 C   0  0  0  0  0  0  0  0  0  0  0  0
   11.3016   -0.7547    0.0000 C   0  0  0  0  0  0  0  0  0  0  0  0
    7.4242    1.8737    0.0000 C   0  0  0  0  0  0  0  0  0  0  0  0
    7.1011    2.7752    0.0000 C   0  0  0  0  0  0  0  0  0  0  0  0
    5.8442    1.8414    0.0000 C   0  0  0  0  0  0  0  0  0  0  0  0
    4.9426   -1.7355    0.0000 C   0  0  0  0  0  0  0  0  0  0  0  0
    5.5786   -3.7362    0.0000 C   0  0  0  0  0  0  0  0  0  0  0  0
    6.1350    2.7752    0.0000 C   0  0  0  0  0  0  0  0  0  0  0  0
    4.6519   -0.8340    0.0000 C   0  0  0  0  0  0  0  0  0  0  0  0
   12.1001   -1.3567    0.0000 C   0  0  0  0  0  0  0  0  0  0  0  0
    4.9104    1.5829    0.0000 C   0  0  0  0  0  0  0  0  0  0  0  0
    3.7182   -0.5754    0.0000 C   0  0  0  0  0  0  0  0  0  0  0  0
    4.6519    0.6490    0.0000 C   0  0  0  0  0  0  0  0  0  0  0  0
    7.6767    3.5929    0.0000 C   0  0  0  0  0  0  0  0  0  0  0  0
    3.7182    0.3906    0.0000 C   0  0  0  0  0  0  0  0  0  0  0  0
    5.5423    3.5806    0.0000 C   0  0  0  0  0  0  0  0  0  0  0  0
    2.9223   -1.1809    0.0000 C   0  0  0  0  0  0  0  0  0  0  0  0
    2.9223    0.9961    0.0000 C   0  0  0  0  0  0  0  0  0  0  0  0
    2.0000   -0.7944    0.0000 C   0  0  0  0  0  0  0  0  0  0  0  0
    5.9434    4.4966    0.0000 C   0  0  0  0  0  0  0  0  0  0  0  0
    9.4693   -1.1528    0.0000 H   0  0  0  0  0  0  0  0  0  0  0  0
    9.4651    1.0316    0.0000 H   0  0  0  0  0  0  0  0  0  0  0  0
    9.9274   -1.5679    0.0000 H   0  0  0  0  0  0  0  0  0  0  0  0
   10.7185   -1.6653    0.0000 H   0  0  0  0  0  0  0  0  0  0  0  0
    9.3264   -3.0405    0.0000 H   0  0  0  0  0  0  0  0  0  0  0  0
    9.4272   -2.1967    0.0000 H   0  0  0  0  0  0  0  0  0  0  0  0
   10.7537    0.5350    0.0000 H   0  0  0  0  0  0  0  0  0  0  0  0
   10.8716    1.4039    0.0000 H   0  0  0  0  0  0  0  0  0  0  0  0
   10.0028    1.5218    0.0000 H   0  0  0  0  0  0  0  0  0  0  0  0
    8.7944    2.0232    0.0000 H   0  0  0  0  0  0  0  0  0  0  0  0
   11.7551   -0.3320    0.0000 H   0  0  0  0  0  0  0  0  0  0  0  0
   10.9640   -0.2346    0.0000 H   0  0  0  0  0  0  0  0  0  0  0  0
    4.5064   -2.1761    0.0000 H   0  0  0  0  0  0  0  0  0  0  0  0
    5.0774   -3.3713    0.0000 H   0  0  0  0  0  0  0  0  0  0  0  0
    5.2136   -4.2374    0.0000 H   0  0  0  0  0  0  0  0  0  0  0  0
    6.0798   -4.1011    0.0000 H   0  0  0  0  0  0  0  0  0  0  0  0
    4.4720    2.0213    0.0000 H   0  0  0  0  0  0  0  0  0  0  0  0
    8.1837    3.2360    0.0000 H   0  0  0  0  0  0  0  0  0  0  0  0
    8.0336    4.0999    0.0000 H   0  0  0  0  0  0  0  0  0  0  0  0
    7.1697    3.9498    0.0000 H   0  0  0  0  0  0  0  0  0  0  0  0
    4.9261    3.5120    0.0000 H   0  0  0  0  0  0  0  0  0  0  0  0
    2.5870   -1.7024    0.0000 H   0  0  0  0  0  0  0  0  0  0  0  0
    3.3777   -1.6017    0.0000 H   0  0  0  0  0  0  0  0  0  0  0  0
    3.2977    1.4895    0.0000 H   0  0  0  0  0  0  0  0  0  0  0  0
    2.4288    1.3715    0.0000 H   0  0  0  0  0  0  0  0  0  0  0  0
    2.5469    0.5026    0.0000 H   0  0  0  0  0  0  0  0  0  0  0  0
   13.5157   -1.3394    0.0000 H   0  0  0  0  0  0  0  0  0  0  0  0
    2.2396   -0.2226    0.0000 H   0  0  0  0  0  0  0  0  0  0  0  0
    1.4282   -0.5548    0.0000 H   0  0  0  0  0  0  0  0  0  0  0  0
    1.7604   -1.3662    0.0000 H   0  0  0  0  0  0  0  0  0  0  0  0
    6.5596    4.5652    0.0000 H   0  0  0  0  0  0  0  0  0  0  0  0
    5.5759    4.9960    0.0000 H   0  0  0  0  0  0  0  0  0  0  0  0
  2 19  2  0  0  0  0
  3 31  1  0  0  0  0
  3 68  1  0  0  0  0
  4 31  2  0  0  0  0
  5 11  1  0  0  0  0
  5 14  2  0  0  0  0
  6 15  1  0  0  0  0
  6 21  1  0  0  0  0
  7 24  1  0  0  0  0
  7 26  1  0  0  0  0
  8 30  1  0  0  0  0
  8 34  2  0  0  0  0
  9 10  1  0  0  0  0
  9 11  1  0  0  0  0
  9 13  1  6  0  0  0
  9 42  1  0  0  0  0
 10 14  1  0  0  0  0
 10 18  1  1  0  0  0
 10 43  1  0  0  0  0
 11 12  2  0  0  0  0
 12 15  1  0  0  0  0
 12 16  1  0  0  0  0
 13 23  1  0  0  0  0
 13 44  1  0  0  0  0
 13 45  1  0  0  0  0
 14 22  1  0  0  0  0
 15 17  2  0  0  0  0
 16 19  1  0  0  0  0
 16 46  1  0  0  0  0
 16 47  1  0  0  0  0
 17 19  1  0  0  0  0
 17 20  1  0  0  0  0
 18 48  1  0  0  0  0
 18 49  1  0  0  0  0
 18 50  1  0  0  0  0
 20 21  2  0  0  0  0
 20 28  1  0  0  0  0
 21 27  1  0  0  0  0
 22 24  2  0  0  0  0
 22 51  1  0  0  0  0
 23 31  1  0  0  0  0
 23 52  1  0  0  0  0
 23 53  1  0  0  0  0
 24 25  1  0  0  0  0
 25 29  2  0  0  0  0
 25 35  1  0  0  0  0
 26 29  1  0  0  0  0
 26 32  2  0  0  0  0
 27 30  2  0  0  0  0
 27 54  1  0  0  0  0
 28 55  1  0  0  0  0
 28 56  1  0  0  0  0
 28 57  1  0  0  0  0
 29 37  1  0  0  0  0
 30 33  1  0  0  0  0
 32 34  1  0  0  0  0
 32 58  1  0  0  0  0
 33 36  2  0  0  0  0
 33 38  1  0  0  0  0
 34 36  1  0  0  0  0
 35 59  1  0  0  0  0
 35 60  1  0  0  0  0
 35 61  1  0  0  0  0
 36 39  1  0  0  0  0
 37 41  2  0  0  0  0
 37 62  1  0  0  0  0
 38 40  1  0  0  0  0
 38 63  1  0  0  0  0
 38 64  1  0  0  0  0
 39 65  1  0  0  0  0
 39 66  1  0  0  0  0
 39 67  1  0  0  0  0
 40 69  1  0  0  0  0
 40 70  1  0  0  0  0
 40 71  1  0  0  0  0
 41 72  1  0  0  0  0
 41 73  1  0  0  0  0
M  CHG  3   1   2   6  -1   7  -1
M  END
> <PUBCHEM_COMPOUND_CID>
13132966

> <PUBCHEM_COMPOUND_CANONICALIZED>
1

> <PUBCHEM_CACTVS_COMPLEXITY>
1500

> <PUBCHEM_CACTVS_HBOND_ACCEPTOR>
7

> <PUBCHEM_CACTVS_HBOND_DONOR>
1

> <PUBCHEM_CACTVS_ROTATABLE_BOND>
5

> <PUBCHEM_CACTVS_SUBSKEYS>
AAADcfB/sAAAACAAAAAAAAAAAAAAAeIECBAAAAAAAAAWAACBgAAAHgAACAAADQyBngACiJIIEgCoA6TyTACCgCAlAiAImCEwRNgIIHrAlJGEQYhkgADIyUec2fCOgAAAAAAAAAAAAAAAAAAAAAAAAQAAAA==

> <PUBCHEM_IUPAC_INCHI>
InChI=1S/C33H34N4O3.Mg/c1-7-19-15(3)23-12-25-17(5)21(9-10-30(39)40)32(36-25)22-11-29(38)31-18(6)26(37-33(22)31)14-28-20(8-2)16(4)24(35-28)13-27(19)34-23;/h7,12-14,17,21H,1,8-11H2,2-6H3,(H3,34,35,36,37,38,39,40);/q;+2/p-2/t17-,21-;/m0./s1

> <PUBCHEM_IUPAC_INCHIKEY>
BJEMYNDCFDVJRP-PVMVIUQGSA-L

> <PUBCHEM_EXACT_MASS>
556.232483

> <PUBCHEM_MOLECULAR_FORMULA>
C33H32MgN4O3

> <PUBCHEM_MOLECULAR_WEIGHT>
556.93718

> <PUBCHEM_OPENEYE_CAN_SMILES>
CCC1=C(C2=NC1=CC3=C(C4=C([N-]3)C(=C5C(C(C(=N5)C=C6C(=C(C(=C2)[N-]6)C=C)C)C)CCC(=O)O)CC4=O)C)C.[Mg+2]

> <PUBCHEM_OPENEYE_ISO_SMILES>
CCC1=C(C2=NC1=CC3=C(C4=C([N-]3)C(=C5[C@H]([C@@H](C(=N5)C=C6C(=C(C(=C2)[N-]6)C=C)C)C)CCC(=O)O)CC4=O)C)C.[Mg+2]

> <PUBCHEM_CACTVS_TPSA>
81.1

> <PUBCHEM_MONOISOTOPIC_WEIGHT>
556.232483

> <PUBCHEM_TOTAL_CHARGE>
0

> <PUBCHEM_HEAVY_ATOM_COUNT>
41

> <PUBCHEM_ATOM_DEF_STEREO_COUNT>
2

> <PUBCHEM_ATOM_UDEF_STEREO_COUNT>
0

> <PUBCHEM_BOND_DEF_STEREO_COUNT>
0

> <PUBCHEM_BOND_UDEF_STEREO_COUNT>
0

> <PUBCHEM_ISOTOPIC_ATOM_COUNT>
0

> <PUBCHEM_COMPONENT_COUNT>
2

> <PUBCHEM_CACTVS_TAUTO_COUNT>
94

> <PUBCHEM_NONSTANDARDBOND>
1  6  7
1  7  7

> <PUBCHEM_COORDINATE_TYPE>
1
5
255

> <PUBCHEM_BONDANNOTATIONS>
10  18  5
11  12  8
12  15  8
14  22  8
15  17  8
17  20  8
20  21  8
21  27  8
22  24  8
24  25  8
25  29  8
26  29  8
26  32  8
27  30  8
32  34  8
5  11  8
5  14  8
6  15  8
6  21  8
7  24  8
7  26  8
8  30  8
8  34  8
9  13  6

$$$$

