5281295
  -OEChem-07051212563D

 30 32  0     0  0  0  0  0  0999 V2000
    0.7136    0.3690   -0.1081 O   0  0  0  0  0  0  0  0  0  0  0  0
    1.8010   -2.9897    0.1623 O   0  0  0  0  0  0  0  0  0  0  0  0
    4.9686    2.6593   -0.0498 O   0  0  0  0  0  0  0  0  0  0  0  0
   -4.5369    0.7936    2.0080 O   0  0  0  0  0  0  0  0  0  0  0  0
   -5.5780    1.3985   -0.4965 O   0  0  0  0  0  0  0  0  0  0  0  0
    2.7139   -0.7735    0.0633 C   0  0  0  0  0  0  0  0  0  0  0  0
    2.0848    0.4651   -0.0478 C   0  0  0  0  0  0  0  0  0  0  0  0
    0.4270   -0.9888   -0.0340 C   0  0  0  0  0  0  0  0  0  0  0  0
    1.6696   -1.7900    0.0789 C   0  0  0  0  0  0  0  0  0  0  0  0
   -0.8023   -1.5057   -0.0609 C   0  0  0  0  0  0  0  0  0  0  0  0
   -2.0592   -0.7420   -0.1720 C   0  0  0  0  0  0  0  0  0  0  0  0
    4.0843   -0.9046    0.1389 C   0  0  0  0  0  0  0  0  0  0  0  0
    2.8129    1.6348   -0.0874 C   0  0  0  0  0  0  0  0  0  0  0  0
    4.2057    1.5299   -0.0118 C   0  0  0  0  0  0  0  0  0  0  0  0
    4.8347    0.2729    0.0998 C   0  0  0  0  0  0  0  0  0  0  0  0
   -2.7068   -0.3328    0.9815 C   0  0  0  0  0  0  0  0  0  0  0  0
   -2.5650   -0.4502   -1.4275 C   0  0  0  0  0  0  0  0  0  0  0  0
   -3.8953    0.3899    0.8763 C   0  0  0  0  0  0  0  0  0  0  0  0
   -3.7537    0.2721   -1.5326 C   0  0  0  0  0  0  0  0  0  0  0  0
   -4.4188    0.6923   -0.3807 C   0  0  0  0  0  0  0  0  0  0  0  0
   -0.9393   -2.5829    0.0037 H   0  0  0  0  0  0  0  0  0  0  0  0
    4.5651   -1.8717    0.2250 H   0  0  0  0  0  0  0  0  0  0  0  0
    2.3256    2.5995   -0.1739 H   0  0  0  0  0  0  0  0  0  0  0  0
    5.9188    0.2079    0.1568 H   0  0  0  0  0  0  0  0  0  0  0  0
   -2.3034   -0.5663    1.9639 H   0  0  0  0  0  0  0  0  0  0  0  0
   -2.0560   -0.7723   -2.3320 H   0  0  0  0  0  0  0  0  0  0  0  0
   -4.1503    0.5011   -2.5181 H   0  0  0  0  0  0  0  0  0  0  0  0
    5.9062    2.4083    0.0123 H   0  0  0  0  0  0  0  0  0  0  0  0
   -5.3394    1.2787    1.7483 H   0  0  0  0  0  0  0  0  0  0  0  0
   -5.7862    1.5130   -1.4397 H   0  0  0  0  0  0  0  0  0  0  0  0
  1  7  1  0  0  0  0
  1  8  1  0  0  0  0
  2  9  2  0  0  0  0
  3 14  1  0  0  0  0
  3 28  1  0  0  0  0
  4 18  1  0  0  0  0
  4 29  1  0  0  0  0
  5 20  1  0  0  0  0
  5 30  1  0  0  0  0
  6  7  2  0  0  0  0
  6  9  1  0  0  0  0
  6 12  1  0  0  0  0
  7 13  1  0  0  0  0
  8  9  1  0  0  0  0
  8 10  2  0  0  0  0
 10 11  1  0  0  0  0
 10 21  1  0  0  0  0
 11 16  2  0  0  0  0
 11 17  1  0  0  0  0
 12 15  2  0  0  0  0
 12 22  1  0  0  0  0
 13 14  2  0  0  0  0
 13 23  1  0  0  0  0
 14 15  1  0  0  0  0
 15 24  1  0  0  0  0
 16 18  1  0  0  0  0
 16 25  1  0  0  0  0
 17 19  2  0  0  0  0
 17 26  1  0  0  0  0
 18 20  2  0  0  0  0
 19 20  1  0  0  0  0
 19 27  1  0  0  0  0
M  END
> <PUBCHEM_COMPOUND_CID>
5281295

> <PUBCHEM_CONFORMER_RMSD>
0.6

> <PUBCHEM_CONFORMER_DIVERSEORDER>
2
3
6
4
1
5

> <PUBCHEM_MMFF94_PARTIAL_CHARGES>
30
1 -0.16
10 -0.18
11 0.03
12 -0.15
13 -0.15
14 0.08
15 -0.15
16 -0.15
17 -0.15
18 0.08
19 -0.15
2 -0.57
20 0.08
21 0.15
22 0.15
23 0.15
24 0.15
25 0.15
26 0.15
27 0.15
28 0.45
29 0.45
3 -0.53
30 0.45
4 -0.53
5 -0.53
6 0.09
7 0.08
8 0.09
9 0.47

> <PUBCHEM_EFFECTIVE_ROTOR_COUNT>
1.2

> <PUBCHEM_PHARMACOPHORE_FEATURES>
8
1 1 acceptor
1 2 acceptor
1 3 donor
1 4 donor
1 5 donor
5 1 6 7 8 9 rings
6 11 16 17 18 19 20 rings
6 6 7 12 13 14 15 rings

> <PUBCHEM_HEAVY_ATOM_COUNT>
20

> <PUBCHEM_ATOM_DEF_STEREO_COUNT>
0

> <PUBCHEM_ATOM_UDEF_STEREO_COUNT>
0

> <PUBCHEM_BOND_DEF_STEREO_COUNT>
1

> <PUBCHEM_BOND_UDEF_STEREO_COUNT>
0

> <PUBCHEM_ISOTOPIC_ATOM_COUNT>
0

> <PUBCHEM_COMPONENT_COUNT>
1

> <PUBCHEM_CACTVS_TAUTO_COUNT>
77

> <PUBCHEM_CONFORMER_ID>
0050960F00000002

> <PUBCHEM_MMFF94_ENERGY>
58.794

> <PUBCHEM_FEATURE_SELFOVERLAP>
40.703

> <PUBCHEM_SHAPE_FINGERPRINT>
10411042 1 17762904668537153538
11089746 13 17603873282474593000
11471102 20 18410858789155370022
11543360 7 15792013312337154120
11796584 16 14923935787032059174
12236239 1 17894635885360180239
12390115 104 18195796376510067516
12644460 14 18272092742360383362
13583140 156 15697179351898738780
13631057 29 18117569418566330815
13675066 3 17632576050101422882
14848178 96 18190186693834217184
15081414 286 18412537692130268292
15188451 53 14907614533381895881
15196674 1 18411703145202326054
15342168 16 18411417302312343503
15375358 24 18131354119816839851
16988056 13 14073262628514604177
17870717 6 14201113497174003237
1813 80 17609489789443430158
18186145 218 18410852132114238942
19784866 34 18409733924224622562
19862831 5 17458345229882282499
20157964 124 18339083800039524551
204376 136 18412545375335844766
20612939 158 18335701667517238206
20645477 56 18060420235542733495
20645477 70 18338521944707307934
21033648 29 17775298169877476085
21033650 10 15575256766547547634
22849339 104 15647343974806936317
231179 274 18201725058881093182
23402539 116 16732702770171468944
23402655 69 18186803539610055684
23559900 14 16486130772220121571
335352 9 18411420614434054030
34797466 226 14707495737303249128
474 4 18409167705600797906
4921388 177 15068622648118931975
5104073 3 18270687459289102618
602551 16 15769482166930914891
633830 44 18260541213090239686
8272917 22 18335986475146360902
9971528 1 18041001782544461774

> <PUBCHEM_SHAPE_MULTIPOLES>
382.24
11.64
2.11
1.1
2.86
0.28
0.11
-6.81
0.45
-2.52
0.03
1.85
-0.14
-0.28

> <PUBCHEM_SHAPE_SELFOVERLAP>
856.119

> <PUBCHEM_SHAPE_VOLUME>
203.4

> <PUBCHEM_COORDINATE_TYPE>
2
5
10

$$$$

