656723
  -OEChem-07051213043D

 46 48  0     1  0  0  0  0  0999 V2000
    3.8670   -3.3482    0.1799 O   0  0  0  0  0  0  0  0  0  0  0  0
    5.8349   -2.2048    0.0551 O   0  0  0  0  0  0  0  0  0  0  0  0
   -5.5224   -2.5781   -0.0639 O   0  0  0  0  0  0  0  0  0  0  0  0
   -6.5793   -0.8078   -1.0205 O   0  0  0  0  0  0  0  0  0  0  0  0
    4.6514    0.1459    0.2601 N   0  0  0  0  0  0  0  0  0  0  0  0
    1.9783    0.3610   -0.9764 C   0  0  2  0  0  0  0  0  0  0  0  0
    2.9369    1.5634   -0.8523 C   0  0  1  0  0  0  0  0  0  0  0  0
    0.8703    0.3862    0.0918 C   0  0  0  0  0  0  0  0  0  0  0  0
    0.1021    1.7143    0.0835 C   0  0  2  0  0  0  0  0  0  0  0  0
    2.1649    2.8889   -0.7906 C   0  0  0  0  0  0  0  0  0  0  0  0
    2.7751   -0.9528   -0.9331 C   0  0  0  0  0  0  0  0  0  0  0  0
    1.0591    2.8980    0.2619 C   0  0  0  0  0  0  0  0  0  0  0  0
    3.8951    1.3998    0.3424 C   0  0  0  0  0  0  0  0  0  0  0  0
    3.7476   -1.0049    0.2470 C   0  0  1  0  0  0  0  0  0  0  0  0
   -0.9723    1.7225    1.1697 C   0  0  0  0  0  0  0  0  0  0  0  0
    4.6166   -2.2194    0.1503 C   0  0  0  0  0  0  0  0  0  0  0  0
   -2.1862    0.9388    0.7534 C   0  0  0  0  0  0  0  0  0  0  0  0
   -3.2185    1.5803    0.0811 C   0  0  0  0  0  0  0  0  0  0  0  0
   -2.2601   -0.4170    1.0454 C   0  0  0  0  0  0  0  0  0  0  0  0
   -4.3443    0.8533   -0.3058 C   0  0  0  0  0  0  0  0  0  0  0  0
   -3.3860   -1.1439    0.6583 C   0  0  0  0  0  0  0  0  0  0  0  0
   -4.4281   -0.5087   -0.0173 C   0  0  0  0  0  0  0  0  0  0  0  0
   -5.6020   -1.2668   -0.4203 C   0  0  0  0  0  0  0  0  0  0  0  0
    1.4846    0.4177   -1.9567 H   0  0  0  0  0  0  0  0  0  0  0  0
    3.5556    1.5944   -1.7611 H   0  0  0  0  0  0  0  0  0  0  0  0
    0.1925   -0.4484   -0.1152 H   0  0  0  0  0  0  0  0  0  0  0  0
    1.2898    0.2105    1.0893 H   0  0  0  0  0  0  0  0  0  0  0  0
   -0.3749    1.8273   -0.9007 H   0  0  0  0  0  0  0  0  0  0  0  0
    1.7123    3.0761   -1.7732 H   0  0  0  0  0  0  0  0  0  0  0  0
    2.8550    3.7205   -0.6053 H   0  0  0  0  0  0  0  0  0  0  0  0
    3.3343   -1.0558   -1.8739 H   0  0  0  0  0  0  0  0  0  0  0  0
    2.0837   -1.8042   -0.9020 H   0  0  0  0  0  0  0  0  0  0  0  0
    1.5004    2.8778    1.2657 H   0  0  0  0  0  0  0  0  0  0  0  0
    0.5039    3.8408    0.1839 H   0  0  0  0  0  0  0  0  0  0  0  0
    4.6108    2.2301    0.3528 H   0  0  0  0  0  0  0  0  0  0  0  0
    3.3629    1.4423    1.2994 H   0  0  0  0  0  0  0  0  0  0  0  0
    3.2183   -1.0603    1.2056 H   0  0  0  0  0  0  0  0  0  0  0  0
    5.1989    0.1545   -0.6015 H   0  0  0  0  0  0  0  0  0  0  0  0
   -1.2866    2.7530    1.3841 H   0  0  0  0  0  0  0  0  0  0  0  0
   -0.5796    1.3390    2.1206 H   0  0  0  0  0  0  0  0  0  0  0  0
   -3.1624    2.6401   -0.1511 H   0  0  0  0  0  0  0  0  0  0  0  0
   -1.4611   -0.9214    1.5815 H   0  0  0  0  0  0  0  0  0  0  0  0
    4.4189   -4.1565    0.1156 H   0  0  0  0  0  0  0  0  0  0  0  0
   -5.1450    1.3667   -0.8318 H   0  0  0  0  0  0  0  0  0  0  0  0
   -3.4110   -2.2015    0.9055 H   0  0  0  0  0  0  0  0  0  0  0  0
   -6.3182   -3.0805   -0.3407 H   0  0  0  0  0  0  0  0  0  0  0  0
  1 16  1  0  0  0  0
  1 43  1  0  0  0  0
  2 16  2  0  0  0  0
  3 23  1  0  0  0  0
  3 46  1  0  0  0  0
  4 23  2  0  0  0  0
  5 13  1  0  0  0  0
  5 14  1  0  0  0  0
  5 38  1  0  0  0  0
  6  7  1  0  0  0  0
  6  8  1  0  0  0  0
  6 11  1  0  0  0  0
  6 24  1  0  0  0  0
  7 10  1  0  0  0  0
  7 13  1  0  0  0  0
  7 25  1  0  0  0  0
  8  9  1  0  0  0  0
  8 26  1  0  0  0  0
  8 27  1  0  0  0  0
  9 12  1  0  0  0  0
  9 15  1  0  0  0  0
  9 28  1  0  0  0  0
 10 12  1  0  0  0  0
 10 29  1  0  0  0  0
 10 30  1  0  0  0  0
 11 14  1  0  0  0  0
 11 31  1  0  0  0  0
 11 32  1  0  0  0  0
 12 33  1  0  0  0  0
 12 34  1  0  0  0  0
 13 35  1  0  0  0  0
 13 36  1  0  0  0  0
 14 16  1  0  0  0  0
 14 37  1  0  0  0  0
 15 17  1  0  0  0  0
 15 39  1  0  0  0  0
 15 40  1  0  0  0  0
 17 18  2  0  0  0  0
 17 19  1  0  0  0  0
 18 20  1  0  0  0  0
 18 41  1  0  0  0  0
 19 21  2  0  0  0  0
 19 42  1  0  0  0  0
 20 22  2  0  0  0  0
 20 44  1  0  0  0  0
 21 22  1  0  0  0  0
 21 45  1  0  0  0  0
 22 23  1  0  0  0  0
M  END
> <PUBCHEM_COMPOUND_CID>
656723

> <PUBCHEM_CONFORMER_RMSD>
0.8

> <PUBCHEM_CONFORMER_DIVERSEORDER>
1
12
3
4
6
11
13
5
10
9
2
7
14
8

> <PUBCHEM_MMFF94_PARTIAL_CHARGES>
23
1 -0.65
13 0.27
14 0.33
15 0.14
16 0.66
17 -0.14
18 -0.15
19 -0.15
2 -0.57
20 -0.15
21 -0.15
22 0.09
23 0.63
3 -0.65
38 0.36
4 -0.57
41 0.15
42 0.15
43 0.5
44 0.15
45 0.15
46 0.5
5 -0.9

> <PUBCHEM_EFFECTIVE_ROTOR_COUNT>
5.6

> <PUBCHEM_PHARMACOPHORE_FEATURES>
11
1 1 acceptor
1 2 acceptor
1 3 acceptor
1 4 acceptor
1 5 cation
1 5 donor
3 1 2 16 anion
3 3 4 23 anion
6 17 18 19 20 21 22 rings
6 5 6 7 11 13 14 rings
6 6 7 8 9 10 12 rings

> <PUBCHEM_HEAVY_ATOM_COUNT>
23

> <PUBCHEM_ATOM_DEF_STEREO_COUNT>
4

> <PUBCHEM_ATOM_UDEF_STEREO_COUNT>
0

> <PUBCHEM_BOND_DEF_STEREO_COUNT>
0

> <PUBCHEM_BOND_UDEF_STEREO_COUNT>
0

> <PUBCHEM_ISOTOPIC_ATOM_COUNT>
0

> <PUBCHEM_COMPONENT_COUNT>
1

> <PUBCHEM_CACTVS_TAUTO_COUNT>
1

> <PUBCHEM_CONFORMER_ID>
000A055300000001

> <PUBCHEM_MMFF94_ENERGY>
50.3767

> <PUBCHEM_FEATURE_SELFOVERLAP>
55.987

> <PUBCHEM_SHAPE_FINGERPRINT>
10042902 136 18045484568681370654
10447042 23 18261396619856050109
10670039 82 14764359274867760943
10693767 8 18190758440460935463
11135609 99 18335423457059142214
11595378 159 14924210660185144931
11719270 70 18268432331118985456
12107183 9 18192421094888328361
12166972 35 18273210902313730102
12390115 104 9799395772046515033
13533116 47 18408323259090237041
13955234 65 17972599875353244833
14251740 57 18260829323965632030
14251751 18 18335704919007928207
14341114 328 14057009290812357203
14347332 77 18410014326018853789
1454969 45 18412821379499841756
14576447 43 18409441462822198420
14848178 5 18335987544508392491
14910302 57 18201730535270455013
15183329 4 17489315225995253679
15352361 1 18339640148211525866
17349148 13 18186796997810452193
17492 89 18410571781902183467
17857418 61 18260267413420325853
18222031 100 18261664952696902748
200 152 18114458968837659065
20028762 73 18260550056354900214
20626108 58 18410014359745739184
20645477 70 18272652303273234944
21033650 10 16558192729913167637
21315764 119 17988650688298203839
21503847 285 9151183047162306548
22224240 67 18189904119941971328
22393880 68 17988655116029605829
23559900 14 18341616958612927153
23622692 118 18409448119620547916
2637199 183 9079108965087846664
3004659 81 18272373083053816179
314194 84 18410565167594155379
34797466 226 16414628243144761077
3680242 22 18334564738329870011
439807 62 18265616477777529087
44062 13 18341330102079130893
46194498 28 17560521702995701868
463206 1 18188493463159974167
5104073 3 18113330916962180897
5207 123 18342176699692891884
559249 180 18337674230369673537
5718773 13 18339366369932923274
633830 44 9871747970892670744
76465 3 18409728486495631280
7970288 3 18267305511609301334
960060 61 17775276167034019828
9709674 26 18271799086586947561

> <PUBCHEM_SHAPE_MULTIPOLES>
444.87
13.74
3.28
0.97
9.94
0.57
-0.01
11.07
-1.9
-3.09
0.01
0.21
-0.16
-0.8

> <PUBCHEM_SHAPE_SELFOVERLAP>
945.101

> <PUBCHEM_SHAPE_VOLUME>
243.7

> <PUBCHEM_COORDINATE_TYPE>
2
5
10

$$$$

