4466
  -OEChem-06261200082D

 92 97  0     0  0  0  0  0  0999 V2000
    4.6351    3.8130    0.0000 S   0  0  0  0  0  0  0  0  0  0  0  0
   11.9111   -6.3248    0.0000 S   0  0  0  0  0  0  0  0  0  0  0  0
    6.8834    7.7136    0.0000 S   0  0  0  0  0  0  0  0  0  0  0  0
   15.8626   -4.1672    0.0000 S   0  0  0  0  0  0  0  0  0  0  0  0
    3.4030    6.6791    0.0000 S   0  0  0  0  0  0  0  0  0  0  0  0
   14.7478   -7.6228    0.0000 S   0  0  0  0  0  0  0  0  0  0  0  0
    4.1351    2.9470    0.0000 O   0  0  0  0  0  0  0  0  0  0  0  0
   12.3910   -7.2021    0.0000 O   0  0  0  0  0  0  0  0  0  0  0  0
    6.8718    8.7136    0.0000 O   0  0  0  0  0  0  0  0  0  0  0  0
   16.8620   -4.2019    0.0000 O   0  0  0  0  0  0  0  0  0  0  0  0
    3.7690    4.3130    0.0000 O   0  0  0  0  0  0  0  0  0  0  0  0
    5.5010    3.3130    0.0000 O   0  0  0  0  0  0  0  0  0  0  0  0
   11.0338   -6.8046    0.0000 O   0  0  0  0  0  0  0  0  0  0  0  0
   11.4313   -5.4474    0.0000 O   0  0  0  0  0  0  0  0  0  0  0  0
    2.5369    7.1791    0.0000 O   0  0  0  0  0  0  0  0  0  0  0  0
   15.2276   -8.5002    0.0000 O   0  0  0  0  0  0  0  0  0  0  0  0
   15.8973   -3.1678    0.0000 O   0  0  0  0  0  0  0  0  0  0  0  0
   15.8279   -5.1666    0.0000 O   0  0  0  0  0  0  0  0  0  0  0  0
    7.8834    7.7252    0.0000 O   0  0  0  0  0  0  0  0  0  0  0  0
    5.8835    7.7021    0.0000 O   0  0  0  0  0  0  0  0  0  0  0  0
    2.9030    5.8130    0.0000 O   0  0  0  0  0  0  0  0  0  0  0  0
    3.9030    7.5451    0.0000 O   0  0  0  0  0  0  0  0  0  0  0  0
   13.8705   -8.1026    0.0000 O   0  0  0  0  0  0  0  0  0  0  0  0
   15.6252   -7.1430    0.0000 O   0  0  0  0  0  0  0  0  0  0  0  0
   11.8145   -2.3412    0.0000 O   0  0  0  0  0  0  0  0  0  0  0  0
    8.8948    4.6213    0.0000 O   0  0  0  0  0  0  0  0  0  0  0  0
    9.8348   -0.5860    0.0000 O   0  0  0  0  0  0  0  0  0  0  0  0
    7.3850    3.7727    0.0000 N   0  0  0  0  0  0  0  0  0  0  0  0
   11.7946   -4.0730    0.0000 N   0  0  0  0  0  0  0  0  0  0  0  0
    8.3449    0.2972    0.0000 N   0  0  0  0  0  0  0  0  0  0  0  0
    8.3248   -1.4347    0.0000 N   0  0  0  0  0  0  0  0  0  0  0  0
    6.0010    5.1791    0.0000 C   0  0  0  0  0  0  0  0  0  0  0  0
   13.3083   -4.9907    0.0000 C   0  0  0  0  0  0  0  0  0  0  0  0
    6.0010    6.1791    0.0000 C   0  0  0  0  0  0  0  0  0  0  0  0
   14.3080   -5.0138    0.0000 C   0  0  0  0  0  0  0  0  0  0  0  0
    5.1350    4.6791    0.0000 C   0  0  0  0  0  0  0  0  0  0  0  0
   12.7885   -5.8449    0.0000 C   0  0  0  0  0  0  0  0  0  0  0  0
   14.8632   -4.1325    0.0000 C   0  0  0  0  0  0  0  0  0  0  0  0
    6.8950    6.7137    0.0000 C   0  0  0  0  0  0  0  0  0  0  0  0
   12.7944   -4.0847    0.0000 C   0  0  0  0  0  0  0  0  0  0  0  0
    6.8950    4.6444    0.0000 C   0  0  0  0  0  0  0  0  0  0  0  0
   14.7879   -5.8912    0.0000 C   0  0  0  0  0  0  0  0  0  0  0  0
    5.1350    6.6791    0.0000 C   0  0  0  0  0  0  0  0  0  0  0  0
    4.2690    6.1791    0.0000 C   0  0  0  0  0  0  0  0  0  0  0  0
   14.2680   -6.7454    0.0000 C   0  0  0  0  0  0  0  0  0  0  0  0
   13.2683   -6.7223    0.0000 C   0  0  0  0  0  0  0  0  0  0  0  0
    4.2690    5.1791    0.0000 C   0  0  0  0  0  0  0  0  0  0  0  0
    7.8010    6.1999    0.0000 C   0  0  0  0  0  0  0  0  0  0  0  0
   14.3705   -3.2148    0.0000 C   0  0  0  0  0  0  0  0  0  0  0  0
    7.8010    5.1582    0.0000 C   0  0  0  0  0  0  0  0  0  0  0  0
   13.3291   -3.1907    0.0000 C   0  0  0  0  0  0  0  0  0  0  0  0
   11.3046   -3.2013    0.0000 C   0  0  0  0  0  0  0  0  0  0  0  0
    8.3849    3.7611    0.0000 C   0  0  0  0  0  0  0  0  0  0  0  0
    8.8748    2.8893    0.0000 C   0  0  0  0  0  0  0  0  0  0  0  0
   10.3047   -3.1898    0.0000 C   0  0  0  0  0  0  0  0  0  0  0  0
    9.8148   -2.3180    0.0000 C   0  0  0  0  0  0  0  0  0  0  0  0
    8.3649    2.0292    0.0000 C   0  0  0  0  0  0  0  0  0  0  0  0
    9.8748    2.8778    0.0000 C   0  0  0  0  0  0  0  0  0  0  0  0
    9.7947   -4.0499    0.0000 C   0  0  0  0  0  0  0  0  0  0  0  0
    8.8549    1.1574    0.0000 C   0  0  0  0  0  0  0  0  0  0  0  0
    8.8148   -2.3064    0.0000 C   0  0  0  0  0  0  0  0  0  0  0  0
   10.3647    2.0060    0.0000 C   0  0  0  0  0  0  0  0  0  0  0  0
    8.7948   -4.0384    0.0000 C   0  0  0  0  0  0  0  0  0  0  0  0
    9.8547    1.1458    0.0000 C   0  0  0  0  0  0  0  0  0  0  0  0
    8.3048   -3.1667    0.0000 C   0  0  0  0  0  0  0  0  0  0  0  0
    8.8348   -0.5745    0.0000 C   0  0  0  0  0  0  0  0  0  0  0  0
   15.4077   -5.9055    0.0000 H   0  0  0  0  0  0  0  0  0  0  0  0
    5.1350    7.2991    0.0000 H   0  0  0  0  0  0  0  0  0  0  0  0
   12.9460   -7.2519    0.0000 H   0  0  0  0  0  0  0  0  0  0  0  0
    3.7320    4.8691    0.0000 H   0  0  0  0  0  0  0  0  0  0  0  0
   14.6948   -2.6864    0.0000 H   0  0  0  0  0  0  0  0  0  0  0  0
    8.3368    6.5119    0.0000 H   0  0  0  0  0  0  0  0  0  0  0  0
   13.0295   -2.6479    0.0000 H   0  0  0  0  0  0  0  0  0  0  0  0
    8.3368    4.8462    0.0000 H   0  0  0  0  0  0  0  0  0  0  0  0
   11.2541   -4.3768    0.0000 H   0  0  0  0  0  0  0  0  0  0  0  0
    7.0688    3.2393    0.0000 H   0  0  0  0  0  0  0  0  0  0  0  0
    3.5151    2.9470    0.0000 H   0  0  0  0  0  0  0  0  0  0  0  0
   12.0686   -7.7317    0.0000 H   0  0  0  0  0  0  0  0  0  0  0  0
    7.4052    9.0298    0.0000 H   0  0  0  0  0  0  0  0  0  0  0  0
   17.1904   -3.6760    0.0000 H   0  0  0  0  0  0  0  0  0  0  0  0
    2.0000    6.8691    0.0000 H   0  0  0  0  0  0  0  0  0  0  0  0
   14.9053   -9.0298    0.0000 H   0  0  0  0  0  0  0  0  0  0  0  0
   10.1309   -1.7847    0.0000 H   0  0  0  0  0  0  0  0  0  0  0  0
    7.7450    2.0364    0.0000 H   0  0  0  0  0  0  0  0  0  0  0  0
   10.1909    3.4111    0.0000 H   0  0  0  0  0  0  0  0  0  0  0  0
   10.0985   -4.5904    0.0000 H   0  0  0  0  0  0  0  0  0  0  0  0
   10.9847    1.9988    0.0000 H   0  0  0  0  0  0  0  0  0  0  0  0
    8.4786   -4.5717    0.0000 H   0  0  0  0  0  0  0  0  0  0  0  0
   10.1585    0.6053    0.0000 H   0  0  0  0  0  0  0  0  0  0  0  0
    7.6848   -3.1595    0.0000 H   0  0  0  0  0  0  0  0  0  0  0  0
    7.7049   -1.4275    0.0000 H   0  0  0  0  0  0  0  0  0  0  0  0
    7.7249    0.3044    0.0000 H   0  0  0  0  0  0  0  0  0  0  0  0
  1  7  1  0  0  0  0
  1 11  2  0  0  0  0
  1 12  2  0  0  0  0
  1 36  1  0  0  0  0
  2  8  1  0  0  0  0
  2 13  2  0  0  0  0
  2 14  2  0  0  0  0
  2 37  1  0  0  0  0
  3  9  1  0  0  0  0
  3 19  2  0  0  0  0
  3 20  2  0  0  0  0
  3 39  1  0  0  0  0
  4 10  1  0  0  0  0
  4 17  2  0  0  0  0
  4 18  2  0  0  0  0
  4 38  1  0  0  0  0
  5 15  1  0  0  0  0
  5 21  2  0  0  0  0
  5 22  2  0  0  0  0
  5 44  1  0  0  0  0
  6 16  1  0  0  0  0
  6 23  2  0  0  0  0
  6 24  2  0  0  0  0
  6 45  1  0  0  0  0
  7 77  1  0  0  0  0
  8 78  1  0  0  0  0
  9 79  1  0  0  0  0
 10 80  1  0  0  0  0
 15 81  1  0  0  0  0
 16 82  1  0  0  0  0
 25 52  2  0  0  0  0
 26 53  2  0  0  0  0
 27 66  2  0  0  0  0
 28 41  1  0  0  0  0
 28 53  1  0  0  0  0
 28 76  1  0  0  0  0
 29 40  1  0  0  0  0
 29 52  1  0  0  0  0
 29 75  1  0  0  0  0
 30 60  1  0  0  0  0
 30 66  1  0  0  0  0
 30 92  1  0  0  0  0
 31 61  1  0  0  0  0
 31 66  1  0  0  0  0
 31 91  1  0  0  0  0
 32 34  1  0  0  0  0
 32 36  1  0  0  0  0
 32 41  2  0  0  0  0
 33 35  1  0  0  0  0
 33 37  1  0  0  0  0
 33 40  2  0  0  0  0
 34 39  2  0  0  0  0
 34 43  1  0  0  0  0
 35 38  2  0  0  0  0
 35 42  1  0  0  0  0
 36 47  2  0  0  0  0
 37 46  2  0  0  0  0
 38 49  1  0  0  0  0
 39 48  1  0  0  0  0
 40 51  1  0  0  0  0
 41 50  1  0  0  0  0
 42 45  2  0  0  0  0
 42 67  1  0  0  0  0
 43 44  2  0  0  0  0
 43 68  1  0  0  0  0
 44 47  1  0  0  0  0
 45 46  1  0  0  0  0
 46 69  1  0  0  0  0
 47 70  1  0  0  0  0
 48 50  2  0  0  0  0
 48 72  1  0  0  0  0
 49 51  2  0  0  0  0
 49 71  1  0  0  0  0
 50 74  1  0  0  0  0
 51 73  1  0  0  0  0
 52 55  1  0  0  0  0
 53 54  1  0  0  0  0
 54 57  2  0  0  0  0
 54 58  1  0  0  0  0
 55 56  2  0  0  0  0
 55 59  1  0  0  0  0
 56 61  1  0  0  0  0
 56 83  1  0  0  0  0
 57 60  1  0  0  0  0
 57 84  1  0  0  0  0
 58 62  2  0  0  0  0
 58 85  1  0  0  0  0
 59 63  2  0  0  0  0
 59 86  1  0  0  0  0
 60 64  2  0  0  0  0
 61 65  2  0  0  0  0
 62 64  1  0  0  0  0
 62 87  1  0  0  0  0
 63 65  1  0  0  0  0
 63 88  1  0  0  0  0
 64 89  1  0  0  0  0
 65 90  1  0  0  0  0
M  END
> <PUBCHEM_COMPOUND_CID>
4466

> <PUBCHEM_COMPOUND_CANONICALIZED>
1

> <PUBCHEM_CACTVS_COMPLEXITY>
2350

> <PUBCHEM_CACTVS_HBOND_ACCEPTOR>
21

> <PUBCHEM_CACTVS_HBOND_DONOR>
10

> <PUBCHEM_CACTVS_ROTATABLE_BOND>
12

> <PUBCHEM_CACTVS_SUBSKEYS>
AAADceB/vgBwAAAAAAAAAAAAAAAAAAAAAAAwYMGDAAAAAADBVAAAHgQQCAAADAiB2AAxwcLAAIKIAiVSUHDCAEAlAgAIiBkAZMiIIDLAlZGEIQxolALIyacciICOkAQAwEAWAAAgCAGAgCwAAAAAAAAAAA==

> <PUBCHEM_IUPAC_OPENEYE_NAME>
8-[[3-[[3-[(4,6,8-trisulfo-1-naphthyl)carbamoyl]phenyl]carbamoylamino]benzoyl]amino]naphthalene-1,3,5-trisulfonic acid

> <PUBCHEM_IUPAC_CAS_NAME>
8-[[oxo-[3-[[oxo-[3-[oxo-[(4,6,8-trisulfo-1-naphthalenyl)amino]methyl]anilino]methyl]amino]phenyl]methyl]amino]naphthalene-1,3,5-trisulfonic acid

> <PUBCHEM_IUPAC_NAME>
8-[[3-[[3-[(4,6,8-trisulfonaphthalen-1-yl)carbamoyl]phenyl]carbamoylamino]benzoyl]amino]naphthalene-1,3,5-trisulfonic acid

> <PUBCHEM_IUPAC_SYSTEMATIC_NAME>
8-[[3-[[3-[(4,6,8-trisulfonaphthalen-1-yl)carbamoyl]phenyl]carbamoylamino]phenyl]carbonylamino]naphthalene-1,3,5-trisulfonic acid

> <PUBCHEM_IUPAC_TRADITIONAL_NAME>
8-[[3-[[3-[(4,6,8-trisulfo-1-naphthyl)carbamoyl]phenyl]carbamoylamino]benzoyl]amino]naphthalene-1,3,5-trisulfonic acid

> <PUBCHEM_IUPAC_INCHI>
InChI=1S/C35H26N4O21S6/c40-33(38-25-7-9-27(63(49,50)51)23-13-21(61(43,44)45)15-29(31(23)25)65(55,56)57)17-3-1-5-19(11-17)36-35(42)37-20-6-2-4-18(12-20)34(41)39-26-8-10-28(64(52,53)54)24-14-22(62(46,47)48)16-30(32(24)26)66(58,59)60/h1-16H,(H,38,40)(H,39,41)(H2,36,37,42)(H,43,44,45)(H,46,47,48)(H,49,50,51)(H,52,53,54)(H,55,56,57)(H,58,59,60)

> <PUBCHEM_IUPAC_INCHIKEY>
JMONOAYAUIIKMS-UHFFFAOYSA-N

> <PUBCHEM_XLOGP3_AA>
-0.9

> <PUBCHEM_EXACT_MASS>
1029.94138

> <PUBCHEM_MOLECULAR_FORMULA>
C35H26N4O21S6

> <PUBCHEM_MOLECULAR_WEIGHT>
1030.98514

> <PUBCHEM_OPENEYE_CAN_SMILES>
C1=CC(=CC(=C1)NC(=O)NC2=CC=CC(=C2)C(=O)NC3=C4C(=CC(=CC4=C(C=C3)S(=O)(=O)O)S(=O)(=O)O)S(=O)(=O)O)C(=O)NC5=C6C(=CC(=CC6=C(C=C5)S(=O)(=O)O)S(=O)(=O)O)S(=O)(=O)O

> <PUBCHEM_OPENEYE_ISO_SMILES>
C1=CC(=CC(=C1)NC(=O)NC2=CC=CC(=C2)C(=O)NC3=C4C(=CC(=CC4=C(C=C3)S(=O)(=O)O)S(=O)(=O)O)S(=O)(=O)O)C(=O)NC5=C6C(=CC(=CC6=C(C=C5)S(=O)(=O)O)S(=O)(=O)O)S(=O)(=O)O

> <PUBCHEM_CACTVS_TPSA>
476

> <PUBCHEM_MONOISOTOPIC_WEIGHT>
1029.94138

> <PUBCHEM_TOTAL_CHARGE>
0

> <PUBCHEM_HEAVY_ATOM_COUNT>
66

> <PUBCHEM_ATOM_DEF_STEREO_COUNT>
0

> <PUBCHEM_ATOM_UDEF_STEREO_COUNT>
0

> <PUBCHEM_BOND_DEF_STEREO_COUNT>
0

> <PUBCHEM_BOND_UDEF_STEREO_COUNT>
0

> <PUBCHEM_ISOTOPIC_ATOM_COUNT>
0

> <PUBCHEM_COMPONENT_COUNT>
1

> <PUBCHEM_CACTVS_TAUTO_COUNT>
7

> <PUBCHEM_COORDINATE_TYPE>
1
5
255

> <PUBCHEM_BONDANNOTATIONS>
32  34  8
32  36  8
32  41  8
33  35  8
33  37  8
33  40  8
34  39  8
34  43  8
35  38  8
35  42  8
36  47  8
37  46  8
38  49  8
39  48  8
40  51  8
41  50  8
42  45  8
43  44  8
44  47  8
45  46  8
48  50  8
49  51  8
54  57  8
54  58  8
55  56  8
55  59  8
56  61  8
57  60  8
58  62  8
59  63  8
60  64  8
61  65  8
62  64  8
63  65  8

$$$$

