3639
  -OEChem-06251223333D

 25 26  0     0  0  0  0  0  0999 V2000
    2.7010   -2.4152   -0.0041 Cl  0  0  0  0  0  0  0  0  0  0  0  0
   -2.3843    1.2390    0.0262 S   0  0  0  0  0  0  0  0  0  0  0  0
    2.9884    0.8025    0.1072 S   0  0  0  0  0  0  0  0  0  0  0  0
   -2.6655    1.5600    1.4114 O   0  0  0  0  0  0  0  0  0  0  0  0
   -2.1586    2.2718   -0.9652 O   0  0  0  0  0  0  0  0  0  0  0  0
    2.8058    2.1097    0.7178 O   0  0  0  0  0  0  0  0  0  0  0  0
    3.9631   -0.1273    0.6553 O   0  0  0  0  0  0  0  0  0  0  0  0
   -3.5780    0.1713   -0.5689 N   0  0  0  0  0  0  0  0  0  0  0  0
   -2.3503   -1.8587   -0.0568 N   0  0  0  0  0  0  0  0  0  0  0  0
    3.2964    1.0065   -1.5598 N   0  0  0  0  0  0  0  0  0  0  0  0
   -0.9702    0.1815    0.0403 C   0  0  0  0  0  0  0  0  0  0  0  0
   -1.1247   -1.2131    0.0008 C   0  0  0  0  0  0  0  0  0  0  0  0
   -3.6052   -1.1526    0.0785 C   0  0  0  0  0  0  0  0  0  0  0  0
    0.2871    0.7920    0.0681 C   0  0  0  0  0  0  0  0  0  0  0  0
    1.4314    0.0008    0.0573 C   0  0  0  0  0  0  0  0  0  0  0  0
    0.0498   -1.9826   -0.0200 C   0  0  0  0  0  0  0  0  0  0  0  0
    1.3139   -1.3856    0.0119 C   0  0  0  0  0  0  0  0  0  0  0  0
   -4.4034   -1.7454   -0.3796 H   0  0  0  0  0  0  0  0  0  0  0  0
   -3.8572   -1.0340    1.1382 H   0  0  0  0  0  0  0  0  0  0  0  0
    0.3584    1.8756    0.0935 H   0  0  0  0  0  0  0  0  0  0  0  0
   -3.7350    0.1603   -1.5847 H   0  0  0  0  0  0  0  0  0  0  0  0
   -2.3647   -2.8719   -0.0297 H   0  0  0  0  0  0  0  0  0  0  0  0
   -0.0290   -3.0687   -0.0604 H   0  0  0  0  0  0  0  0  0  0  0  0
    3.2437    1.9587   -1.9418 H   0  0  0  0  0  0  0  0  0  0  0  0
    4.0330    0.4290   -1.9833 H   0  0  0  0  0  0  0  0  0  0  0  0
  1 17  1  0  0  0  0
  2  4  2  0  0  0  0
  2  5  2  0  0  0  0
  2  8  1  0  0  0  0
  2 11  1  0  0  0  0
  3  6  2  0  0  0  0
  3  7  2  0  0  0  0
  3 10  1  0  0  0  0
  3 15  1  0  0  0  0
  8 13  1  0  0  0  0
  8 21  1  0  0  0  0
  9 12  1  0  0  0  0
  9 13  1  0  0  0  0
  9 22  1  0  0  0  0
 10 24  1  0  0  0  0
 10 25  1  0  0  0  0
 11 12  1  0  0  0  0
 11 14  2  0  0  0  0
 12 16  2  0  0  0  0
 13 18  1  0  0  0  0
 13 19  1  0  0  0  0
 14 15  1  0  0  0  0
 14 20  1  0  0  0  0
 15 17  2  0  0  0  0
 16 17  1  0  0  0  0
 16 23  1  0  0  0  0
M  END
> <PUBCHEM_COMPOUND_CID>
3639

> <PUBCHEM_CONFORMER_RMSD>
0.6

> <PUBCHEM_CONFORMER_DIVERSEORDER>
1
2

> <PUBCHEM_MMFF94_PARTIAL_CHARGES>
23
1 -0.18
10 -0.98
11 -0.01
12 0.1
13 0.72
14 -0.15
15 -0.01
16 -0.15
17 0.18
2 1.45
20 0.15
21 0.42
22 0.4
23 0.15
24 0.42
25 0.42
3 1.45
4 -0.65
5 -0.65
6 -0.65
7 -0.65
8 -0.91
9 -0.87

> <PUBCHEM_EFFECTIVE_ROTOR_COUNT>
1.6

> <PUBCHEM_PHARMACOPHORE_FEATURES>
10
1 10 donor
1 4 acceptor
1 5 acceptor
1 6 acceptor
1 7 acceptor
1 8 donor
1 9 cation
1 9 donor
6 11 12 14 15 16 17 rings
6 2 8 9 11 12 13 rings

> <PUBCHEM_HEAVY_ATOM_COUNT>
17

> <PUBCHEM_ATOM_DEF_STEREO_COUNT>
0

> <PUBCHEM_ATOM_UDEF_STEREO_COUNT>
0

> <PUBCHEM_BOND_DEF_STEREO_COUNT>
0

> <PUBCHEM_BOND_UDEF_STEREO_COUNT>
0

> <PUBCHEM_ISOTOPIC_ATOM_COUNT>
0

> <PUBCHEM_COMPONENT_COUNT>
1

> <PUBCHEM_CACTVS_TAUTO_COUNT>
1

> <PUBCHEM_CONFORMER_ID>
00000E3700000001

> <PUBCHEM_MMFF94_ENERGY>
23.9785

> <PUBCHEM_FEATURE_SELFOVERLAP>
50.824

> <PUBCHEM_SHAPE_FINGERPRINT>
10498660 4 18271524199958700548
10608611 8 18411143562244697956
10967382 1 18410295765797049539
11132069 177 18336834086862624313
12403259 226 18410865360260251456
12491281 212 18337379517591639425
12932764 1 17986947651353962603
13140716 1 18265612267632931995
13380535 21 18338222851652929298
13380535 76 18411142432800616162
14144814 61 18411139142786660536
14223421 5 18411138026095364843
14614273 12 18341338850784880181
14897335 6 18409736183119106774
15219456 202 18409733996938704543
15375462 6 18412546504743237335
15442244 35 18192714659817876394
15536298 74 18334015033923740114
15775835 57 18410567422705361873
16945 1 18337388214884868547
17802600 8 18410301297862580920
18186145 218 18189048862238525028
200 152 18041574572025014567
20510252 161 18118401748171464896
20671657 1 18336825385644043258
21501502 16 18409444829754636035
21524375 3 18411419509852044058
2334 1 18410572902819991366
23366157 5 18059852909329101106
23402539 116 18264501597859494935
23463225 33 18342462551610516250
23557571 272 18045211644314503078
23559900 14 18263934387525421018
2748010 2 18410571833394266311
3071541 158 18053661662136592390
350125 39 18411414050695071930
5104073 3 18410576218735237411
7364860 26 18335422413149778966
74978 22 18265335195076697211
81228 2 18050846611405225002
9709674 26 18409729568827812175

> <PUBCHEM_SHAPE_MULTIPOLES>
321
6.48
2.53
0.91
0.46
0.34
0.07
-0.93
0.06
0.26
0.01
0.14
-0.41
-0.08

> <PUBCHEM_SHAPE_SELFOVERLAP>
651.371

> <PUBCHEM_SHAPE_VOLUME>
187.1

> <PUBCHEM_COORDINATE_TYPE>
2
5
10

$$$$

