9153
  -OEChem-07051213053D

 32 36  0     0  0  0  0  0  0999 V2000
   -0.1544   -0.5804    0.0003 C   0  0  0  0  0  0  0  0  0  0  0  0
   -0.4043    0.7822    0.0003 C   0  0  0  0  0  0  0  0  0  0  0  0
   -1.3580   -1.2789    0.0001 C   0  0  0  0  0  0  0  0  0  0  0  0
    1.1155   -1.1596    0.0003 C   0  0  0  0  0  0  0  0  0  0  0  0
   -1.8468    0.9813    0.0002 C   0  0  0  0  0  0  0  0  0  0  0  0
   -2.4439   -0.3089    0.0000 C   0  0  0  0  0  0  0  0  0  0  0  0
    2.2247   -0.2501    0.0003 C   0  0  0  0  0  0  0  0  0  0  0  0
    0.6569    1.6657    0.0002 C   0  0  0  0  0  0  0  0  0  0  0  0
    1.9751    1.1622    0.0002 C   0  0  0  0  0  0  0  0  0  0  0  0
   -1.3446   -2.6598   -0.0004 C   0  0  0  0  0  0  0  0  0  0  0  0
    1.1073   -2.5785    0.0001 C   0  0  0  0  0  0  0  0  0  0  0  0
   -2.6200    2.1270    0.0002 C   0  0  0  0  0  0  0  0  0  0  0  0
   -3.8175   -0.4616   -0.0003 C   0  0  0  0  0  0  0  0  0  0  0  0
   -0.1023   -3.3076   -0.0001 C   0  0  0  0  0  0  0  0  0  0  0  0
    3.5678   -0.6817    0.0001 C   0  0  0  0  0  0  0  0  0  0  0  0
    3.0567    2.0561   -0.0003 C   0  0  0  0  0  0  0  0  0  0  0  0
   -4.0094    1.9742   -0.0001 C   0  0  0  0  0  0  0  0  0  0  0  0
   -4.6007    0.6962   -0.0003 C   0  0  0  0  0  0  0  0  0  0  0  0
    4.6264    0.2285   -0.0003 C   0  0  0  0  0  0  0  0  0  0  0  0
    4.3715    1.5937   -0.0006 C   0  0  0  0  0  0  0  0  0  0  0  0
    0.4729    2.7374    0.0000 H   0  0  0  0  0  0  0  0  0  0  0  0
   -2.2623   -3.2380   -0.0007 H   0  0  0  0  0  0  0  0  0  0  0  0
    2.0396   -3.1377    0.0001 H   0  0  0  0  0  0  0  0  0  0  0  0
   -2.1756    3.1161    0.0003 H   0  0  0  0  0  0  0  0  0  0  0  0
   -4.2834   -1.4408   -0.0005 H   0  0  0  0  0  0  0  0  0  0  0  0
   -0.0666   -4.3943   -0.0003 H   0  0  0  0  0  0  0  0  0  0  0  0
    3.8141   -1.7409    0.0003 H   0  0  0  0  0  0  0  0  0  0  0  0
    2.8857    3.1312   -0.0005 H   0  0  0  0  0  0  0  0  0  0  0  0
   -4.6459    2.8554   -0.0002 H   0  0  0  0  0  0  0  0  0  0  0  0
   -5.6844    0.6108   -0.0006 H   0  0  0  0  0  0  0  0  0  0  0  0
    5.6509   -0.1328   -0.0004 H   0  0  0  0  0  0  0  0  0  0  0  0
    5.1956    2.3010   -0.0009 H   0  0  0  0  0  0  0  0  0  0  0  0
  1  2  1  0  0  0  0
  1  3  1  0  0  0  0
  1  4  2  0  0  0  0
  2  5  1  0  0  0  0
  2  8  2  0  0  0  0
  3  6  1  0  0  0  0
  3 10  2  0  0  0  0
  4  7  1  0  0  0  0
  4 11  1  0  0  0  0
  5  6  1  0  0  0  0
  5 12  2  0  0  0  0
  6 13  2  0  0  0  0
  7  9  1  0  0  0  0
  7 15  2  0  0  0  0
  8  9  1  0  0  0  0
  8 21  1  0  0  0  0
  9 16  2  0  0  0  0
 10 14  1  0  0  0  0
 10 22  1  0  0  0  0
 11 14  2  0  0  0  0
 11 23  1  0  0  0  0
 12 17  1  0  0  0  0
 12 24  1  0  0  0  0
 13 18  1  0  0  0  0
 13 25  1  0  0  0  0
 14 26  1  0  0  0  0
 15 19  1  0  0  0  0
 15 27  1  0  0  0  0
 16 20  1  0  0  0  0
 16 28  1  0  0  0  0
 17 18  2  0  0  0  0
 17 29  1  0  0  0  0
 18 30  1  0  0  0  0
 19 20  2  0  0  0  0
 19 31  1  0  0  0  0
 20 32  1  0  0  0  0
M  END
> <PUBCHEM_COMPOUND_CID>
9153

> <PUBCHEM_CONFORMER_RMSD>
0.6

> <PUBCHEM_CONFORMER_DIVERSEORDER>
1

> <PUBCHEM_MMFF94_PARTIAL_CHARGES>
24
10 -0.15
11 -0.15
12 -0.15
13 -0.15
14 -0.15
15 -0.15
16 -0.15
17 -0.15
18 -0.15
19 -0.15
20 -0.15
21 0.15
22 0.15
23 0.15
24 0.15
25 0.15
26 0.15
27 0.15
28 0.15
29 0.15
30 0.15
31 0.15
32 0.15
8 -0.15

> <PUBCHEM_EFFECTIVE_ROTOR_COUNT>
0

> <PUBCHEM_PHARMACOPHORE_FEATURES>
5
5 1 2 3 5 6 rings
6 1 2 4 7 8 9 rings
6 1 3 4 10 11 14 rings
6 5 6 12 13 17 18 rings
6 7 9 15 16 19 20 rings

> <PUBCHEM_HEAVY_ATOM_COUNT>
20

> <PUBCHEM_ATOM_DEF_STEREO_COUNT>
0

> <PUBCHEM_ATOM_UDEF_STEREO_COUNT>
0

> <PUBCHEM_BOND_DEF_STEREO_COUNT>
0

> <PUBCHEM_BOND_UDEF_STEREO_COUNT>
0

> <PUBCHEM_ISOTOPIC_ATOM_COUNT>
0

> <PUBCHEM_COMPONENT_COUNT>
1

> <PUBCHEM_CACTVS_TAUTO_COUNT>
1

> <PUBCHEM_CONFORMER_ID>
000023C100000001

> <PUBCHEM_MMFF94_ENERGY>
86.9475

> <PUBCHEM_FEATURE_SELFOVERLAP>
25.7

> <PUBCHEM_SHAPE_FINGERPRINT>
10319926 262 18046085765761876312
10411042 1 17257933694062066594
10493431 412 18410292488731831945
10608611 8 18263927631594488552
10616163 171 18194397793377141782
10693767 8 17825677912916385271
10948715 1 18410575093258489646
10967382 1 18410855507388632806
11370993 70 18410578387503673928
11578080 2 5544640773444882146
12035759 4 18117305625874603855
12173636 292 18338239254233181940
12390115 104 18262217980770059121
12403814 3 17704080568315730453
12553582 1 17186434642981904982
12592029 89 18340484559914092363
12644460 14 18199463449129904931
12788726 201 17767692659165033834
13140716 1 18122898725344412747
13380535 76 18410292510222486127
13544592 145 18261944224571733446
13583140 156 16916520176333293777
138480 1 17690280834046447875
14178342 30 18051429370306984848
14787075 74 18187931642814060869
14790565 3 18410566301498053088
15042514 8 18124591981662313323
15099037 51 18409726292352697742
15196674 1 18410856563950613604
15309172 13 18410566297508274617
15475509 8 16163819018946689197
15536298 74 18261955270541946118
16945 1 18410856516748327271
19591789 44 18410855477308050471
20510252 161 18262513676409295625
21267235 1 18410847763573271050
21478907 32 17832991542347654823
21524375 3 18342739628187313899
22182313 1 18265309794587861423
23227448 37 18336547114248608222
2334 1 18338516331253084360
23366157 5 17986385818039693474
23402539 116 18334303041128723613
23419403 2 17199124548906842534
23558518 356 17839746959105008808
23559900 14 18260828177620671148
238 59 17552117221081269805
25 1 18411141371821939567
2748010 2 18339631343238665567
3004659 81 18270953657747889382
3091708 16 9265590517592872539
335352 9 18410856594743508766
34934 24 18340493270777460384
350125 39 18266735788586509945
352729 6 18338509733977738807
474 4 18338516455928565881
474229 33 18411136901373134947
5104073 3 18411981368662058129
6138700 20 18193833976157364078
633830 44 18260547878557827245
69090 78 18410014307968397124
7364860 26 18192993952798206791
7808743 9 18195529190974563784
81228 2 17836380241293993059
8272917 22 18191865841373330533
84936 182 18115875263788050937
9709674 26 18334571296544321758

> <PUBCHEM_SHAPE_MULTIPOLES>
411.59
7.93
3.13
0.62
0.85
1.92
0
-4.7
0
-0.31
0
0
0
0

> <PUBCHEM_SHAPE_SELFOVERLAP>
970.112

> <PUBCHEM_SHAPE_VOLUME>
191.6

> <PUBCHEM_COORDINATE_TYPE>
2
5
10

$$$$

