12174
  -OEChem-06261206372D

 15 15  0     0  0  0  0  0  0999 V2000
    2.8090    0.2239    0.0000 O   0  0  0  0  0  0  0  0  0  0  0  0
    5.9360   -1.7627    0.0000 O   0  0  0  0  0  0  0  0  0  0  0  0
    3.6180    0.8116    0.0000 C   0  0  0  0  0  0  0  0  0  0  0  0
    3.3090    1.7627    0.0000 C   0  0  0  0  0  0  0  0  0  0  0  0
    2.3090    1.7627    0.0000 C   0  0  0  0  0  0  0  0  0  0  0  0
    4.5691    0.5026    0.0000 C   0  0  0  0  0  0  0  0  0  0  0  0
    2.0000    0.8116    0.0000 C   0  0  0  0  0  0  0  0  0  0  0  0
    4.7770   -0.4755    0.0000 C   0  0  0  0  0  0  0  0  0  0  0  0
    5.7281   -0.7845    0.0000 C   0  0  0  0  0  0  0  0  0  0  0  0
    3.6734    2.2643    0.0000 H   0  0  0  0  0  0  0  0  0  0  0  0
    5.0298    0.9175    0.0000 H   0  0  0  0  0  0  0  0  0  0  0  0
    1.9446    2.2643    0.0000 H   0  0  0  0  0  0  0  0  0  0  0  0
    1.4103    0.6200    0.0000 H   0  0  0  0  0  0  0  0  0  0  0  0
    4.3162   -0.8904    0.0000 H   0  0  0  0  0  0  0  0  0  0  0  0
    6.1888   -0.3697    0.0000 H   0  0  0  0  0  0  0  0  0  0  0  0
  1  3  1  0  0  0  0
  1  7  1  0  0  0  0
  2  9  2  0  0  0  0
  3  4  2  0  0  0  0
  3  6  1  0  0  0  0
  4  5  1  0  0  0  0
  4 10  1  0  0  0  0
  5  7  2  0  0  0  0
  5 12  1  0  0  0  0
  6  8  2  3  0  0  0
  6 11  1  0  0  0  0
  7 13  1  0  0  0  0
  8  9  1  0  0  0  0
  8 14  1  0  0  0  0
  9 15  1  0  0  0  0
M  END
> <PUBCHEM_COMPOUND_CID>
12174

> <PUBCHEM_COMPOUND_CANONICALIZED>
1

> <PUBCHEM_CACTVS_COMPLEXITY>
118

> <PUBCHEM_CACTVS_HBOND_ACCEPTOR>
2

> <PUBCHEM_CACTVS_HBOND_DONOR>
0

> <PUBCHEM_CACTVS_ROTATABLE_BOND>
2

> <PUBCHEM_CACTVS_SUBSKEYS>
AAADcYBgMAAAAAAAAAAAAAAAAAAAASAAAAAAAAAAAAAAAAABgAAAGgAAAAAACASgkAIwBIAABECIAKhSgAACCAAkIAAIiAEGCMgMJjKENRqCGSCkwBEIqYaIAAAAAAAAAAAAAAAAAAAAAAAAAAAAAAAAAA==

> <PUBCHEM_IUPAC_OPENEYE_NAME>
3-(2-furyl)prop-2-enal

> <PUBCHEM_IUPAC_CAS_NAME>
3-(2-furanyl)-2-propenal

> <PUBCHEM_IUPAC_NAME>
3-(furan-2-yl)prop-2-enal

> <PUBCHEM_IUPAC_SYSTEMATIC_NAME>
3-(furan-2-yl)prop-2-enal

> <PUBCHEM_IUPAC_TRADITIONAL_NAME>
3-(2-furyl)acrolein

> <PUBCHEM_IUPAC_INCHI>
InChI=1S/C7H6O2/c8-5-1-3-7-4-2-6-9-7/h1-6H

> <PUBCHEM_IUPAC_INCHIKEY>
VZIRCHXYMBFNFD-UHFFFAOYSA-N

> <PUBCHEM_XLOGP3>
1.1

> <PUBCHEM_EXACT_MASS>
122.036779

> <PUBCHEM_MOLECULAR_FORMULA>
C7H6O2

> <PUBCHEM_MOLECULAR_WEIGHT>
122.12134

> <PUBCHEM_OPENEYE_CAN_SMILES>
C1=COC(=C1)C=CC=O

> <PUBCHEM_OPENEYE_ISO_SMILES>
C1=COC(=C1)C=CC=O

> <PUBCHEM_CACTVS_TPSA>
30.2

> <PUBCHEM_MONOISOTOPIC_WEIGHT>
122.036779

> <PUBCHEM_TOTAL_CHARGE>
0

> <PUBCHEM_HEAVY_ATOM_COUNT>
9

> <PUBCHEM_ATOM_DEF_STEREO_COUNT>
0

> <PUBCHEM_ATOM_UDEF_STEREO_COUNT>
0

> <PUBCHEM_BOND_DEF_STEREO_COUNT>
0

> <PUBCHEM_BOND_UDEF_STEREO_COUNT>
1

> <PUBCHEM_ISOTOPIC_ATOM_COUNT>
0

> <PUBCHEM_COMPONENT_COUNT>
1

> <PUBCHEM_CACTVS_TAUTO_COUNT>
1

> <PUBCHEM_COORDINATE_TYPE>
1
5
255

> <PUBCHEM_BONDANNOTATIONS>
1  3  8
1  7  8
3  4  8
4  5  8
5  7  8
6  8  1

$$$$

