11903
  -OEChem-07051213053D

 21 21  0     0  0  0  0  0  0999 V2000
    0.4628    0.3078   -0.2657 C   0  0  0  0  0  0  0  0  0  0  0  0
    1.9222    0.4732   -0.5357 C   0  0  0  0  0  0  0  0  0  0  0  0
   -0.0911   -0.9566   -0.0646 C   0  0  0  0  0  0  0  0  0  0  0  0
   -0.3494    1.4409   -0.2160 C   0  0  0  0  0  0  0  0  0  0  0  0
   -1.4570   -1.0877    0.1861 C   0  0  0  0  0  0  0  0  0  0  0  0
    2.7385    0.6516    0.7391 C   0  0  0  0  0  0  0  0  0  0  0  0
    0.7580   -2.1844   -0.1140 C   0  0  0  0  0  0  0  0  0  0  0  0
   -1.7152    1.3097    0.0349 C   0  0  0  0  0  0  0  0  0  0  0  0
   -2.2689    0.0454    0.2359 C   0  0  0  0  0  0  0  0  0  0  0  0
    2.3208   -0.3644   -1.1183 H   0  0  0  0  0  0  0  0  0  0  0  0
    2.0761    1.3516   -1.1766 H   0  0  0  0  0  0  0  0  0  0  0  0
    0.0685    2.4326   -0.3684 H   0  0  0  0  0  0  0  0  0  0  0  0
   -1.9052   -2.0651    0.3441 H   0  0  0  0  0  0  0  0  0  0  0  0
    2.4152    1.5396    1.2931 H   0  0  0  0  0  0  0  0  0  0  0  0
    3.7982    0.7750    0.4937 H   0  0  0  0  0  0  0  0  0  0  0  0
    2.6439   -0.2098    1.4072 H   0  0  0  0  0  0  0  0  0  0  0  0
    1.1485   -2.3428   -1.1245 H   0  0  0  0  0  0  0  0  0  0  0  0
    1.5871   -2.1246    0.5967 H   0  0  0  0  0  0  0  0  0  0  0  0
    0.1834   -3.0795    0.1508 H   0  0  0  0  0  0  0  0  0  0  0  0
   -2.3475    2.1919    0.0742 H   0  0  0  0  0  0  0  0  0  0  0  0
   -3.3325   -0.0566    0.4311 H   0  0  0  0  0  0  0  0  0  0  0  0
  1  2  1  0  0  0  0
  1  3  1  0  0  0  0
  1  4  2  0  0  0  0
  2  6  1  0  0  0  0
  2 10  1  0  0  0  0
  2 11  1  0  0  0  0
  3  5  2  0  0  0  0
  3  7  1  0  0  0  0
  4  8  1  0  0  0  0
  4 12  1  0  0  0  0
  5  9  1  0  0  0  0
  5 13  1  0  0  0  0
  6 14  1  0  0  0  0
  6 15  1  0  0  0  0
  6 16  1  0  0  0  0
  7 17  1  0  0  0  0
  7 18  1  0  0  0  0
  7 19  1  0  0  0  0
  8  9  2  0  0  0  0
  8 20  1  0  0  0  0
  9 21  1  0  0  0  0
M  END
> <PUBCHEM_COMPOUND_CID>
11903

> <PUBCHEM_CONFORMER_RMSD>
0.4

> <PUBCHEM_CONFORMER_DIVERSEORDER>
1
3
2

> <PUBCHEM_MMFF94_PARTIAL_CHARGES>
12
1 -0.14
12 0.15
13 0.15
2 0.14
20 0.15
21 0.15
3 -0.14
4 -0.15
5 -0.15
7 0.14
8 -0.15
9 -0.15

> <PUBCHEM_EFFECTIVE_ROTOR_COUNT>
1

> <PUBCHEM_PHARMACOPHORE_FEATURES>
2
1 6 hydrophobe
6 1 3 4 5 8 9 rings

> <PUBCHEM_HEAVY_ATOM_COUNT>
9

> <PUBCHEM_ATOM_DEF_STEREO_COUNT>
0

> <PUBCHEM_ATOM_UDEF_STEREO_COUNT>
0

> <PUBCHEM_BOND_DEF_STEREO_COUNT>
0

> <PUBCHEM_BOND_UDEF_STEREO_COUNT>
0

> <PUBCHEM_ISOTOPIC_ATOM_COUNT>
0

> <PUBCHEM_COMPONENT_COUNT>
1

> <PUBCHEM_CACTVS_TAUTO_COUNT>
1

> <PUBCHEM_CONFORMER_ID>
00002E7F00000001

> <PUBCHEM_MMFF94_ENERGY>
20.1812

> <PUBCHEM_FEATURE_SELFOVERLAP>
10.148

> <PUBCHEM_SHAPE_FINGERPRINT>
10857977 72 18338518517185768425
12423570 1 7129567062351574295
15310529 11 14490460989443889541
16945 1 18412256225294514389
18185500 45 17114658515261817638
20645464 45 17968662614513388992
20871998 184 17973437703081279582
21040471 1 18411692222842003532
23211744 41 17968097490974115508
23552423 10 18200300151677358590
241688 4 17766830998240504881
2748010 2 18196926889027007333
369184 2 18114187393306599232
5084963 1 18187632583850869796
54338 74 17906193757885225474

> <PUBCHEM_SHAPE_MULTIPOLES>
185.22
3.1
1.88
0.73
0.92
0.77
-0.03
-0.82
-0.57
-0.02
0.07
0.21
-0.06
0.14

> <PUBCHEM_SHAPE_SELFOVERLAP>
376.301

> <PUBCHEM_SHAPE_VOLUME>
105.1

> <PUBCHEM_COORDINATE_TYPE>
2
5
10

$$$$

