60149
  -OEChem-07051212532D

 57 61  0     0  0  0  0  0  0999 V2000
    2.0000   -0.6824    0.0000 Cl  0  0  0  0  0  0  0  0  0  0  0  0
    6.7870   -6.2892    0.0000 F   0  0  0  0  0  0  0  0  0  0  0  0
    6.4897    4.8929    0.0000 O   0  0  0  0  0  0  0  0  0  0  0  0
    6.4763    1.9739    0.0000 N   0  0  0  0  0  0  0  0  0  0  0  0
    5.5443   -2.4871    0.0000 N   0  0  0  0  0  0  0  0  0  0  0  0
    8.0761    4.0812    0.0000 N   0  0  0  0  0  0  0  0  0  0  0  0
    8.0789    5.6992    0.0000 N   0  0  0  0  0  0  0  0  0  0  0  0
    5.8550    0.0729    0.0000 C   0  0  0  0  0  0  0  0  0  0  0  0
    6.8335    0.2791    0.0000 C   0  0  0  0  0  0  0  0  0  0  0  0
    5.1871    0.8172    0.0000 C   0  0  0  0  0  0  0  0  0  0  0  0
    5.4978    1.7677    0.0000 C   0  0  0  0  0  0  0  0  0  0  0  0
    7.1441    1.2296    0.0000 C   0  0  0  0  0  0  0  0  0  0  0  0
    5.5443   -0.8776    0.0000 C   0  0  0  0  0  0  0  0  0  0  0  0
    6.7870    2.9244    0.0000 C   0  0  0  0  0  0  0  0  0  0  0  0
    4.5981   -1.1824    0.0000 C   0  0  0  0  0  0  0  0  0  0  0  0
    7.7654    3.1306    0.0000 C   0  0  0  0  0  0  0  0  0  0  0  0
    6.1279   -1.6824    0.0000 C   0  0  0  0  0  0  0  0  0  0  0  0
    4.5981   -2.1824    0.0000 C   0  0  0  0  0  0  0  0  0  0  0  0
    9.0277    4.3886    0.0000 C   0  0  0  0  0  0  0  0  0  0  0  0
    3.7320   -0.6824    0.0000 C   0  0  0  0  0  0  0  0  0  0  0  0
    9.0294    5.3885    0.0000 C   0  0  0  0  0  0  0  0  0  0  0  0
    3.7320   -2.6824    0.0000 C   0  0  0  0  0  0  0  0  0  0  0  0
    5.8550   -3.4376    0.0000 C   0  0  0  0  0  0  0  0  0  0  0  0
    7.4897    4.8912    0.0000 C   0  0  0  0  0  0  0  0  0  0  0  0
    2.8660   -1.1824    0.0000 C   0  0  0  0  0  0  0  0  0  0  0  0
    2.8660   -2.1824    0.0000 C   0  0  0  0  0  0  0  0  0  0  0  0
    5.1871   -4.1819    0.0000 C   0  0  0  0  0  0  0  0  0  0  0  0
    6.8335   -3.6438    0.0000 C   0  0  0  0  0  0  0  0  0  0  0  0
    5.4978   -5.1325    0.0000 C   0  0  0  0  0  0  0  0  0  0  0  0
    7.1441   -4.5944    0.0000 C   0  0  0  0  0  0  0  0  0  0  0  0
    6.4763   -5.3387    0.0000 C   0  0  0  0  0  0  0  0  0  0  0  0
    6.2690   -0.3886    0.0000 H   0  0  0  0  0  0  0  0  0  0  0  0
    4.6402    1.1092    0.0000 H   0  0  0  0  0  0  0  0  0  0  0  0
    4.8046    0.3293    0.0000 H   0  0  0  0  0  0  0  0  0  0  0  0
    6.8540   -0.3406    0.0000 H   0  0  0  0  0  0  0  0  0  0  0  0
    7.4473    0.1917    0.0000 H   0  0  0  0  0  0  0  0  0  0  0  0
    7.6910    0.9376    0.0000 H   0  0  0  0  0  0  0  0  0  0  0  0
    7.5267    1.7175    0.0000 H   0  0  0  0  0  0  0  0  0  0  0  0
    5.4772    2.3874    0.0000 H   0  0  0  0  0  0  0  0  0  0  0  0
    4.8840    1.8550    0.0000 H   0  0  0  0  0  0  0  0  0  0  0  0
    6.7664    3.5441    0.0000 H   0  0  0  0  0  0  0  0  0  0  0  0
    6.1731    3.0118    0.0000 H   0  0  0  0  0  0  0  0  0  0  0  0
    7.7860    2.5110    0.0000 H   0  0  0  0  0  0  0  0  0  0  0  0
    8.3793    3.0433    0.0000 H   0  0  0  0  0  0  0  0  0  0  0  0
    6.7479   -1.6824    0.0000 H   0  0  0  0  0  0  0  0  0  0  0  0
    9.1556    3.7819    0.0000 H   0  0  0  0  0  0  0  0  0  0  0  0
    9.6444    4.4523    0.0000 H   0  0  0  0  0  0  0  0  0  0  0  0
    3.7320   -0.0624    0.0000 H   0  0  0  0  0  0  0  0  0  0  0  0
    9.6459    5.3227    0.0000 H   0  0  0  0  0  0  0  0  0  0  0  0
    9.1594    5.9948    0.0000 H   0  0  0  0  0  0  0  0  0  0  0  0
    3.7320   -3.3024    0.0000 H   0  0  0  0  0  0  0  0  0  0  0  0
    7.8883    6.2892    0.0000 H   0  0  0  0  0  0  0  0  0  0  0  0
    2.3291   -2.4924    0.0000 H   0  0  0  0  0  0  0  0  0  0  0  0
    4.5804   -4.0541    0.0000 H   0  0  0  0  0  0  0  0  0  0  0  0
    7.2475   -3.1824    0.0000 H   0  0  0  0  0  0  0  0  0  0  0  0
    5.0837   -5.5939    0.0000 H   0  0  0  0  0  0  0  0  0  0  0  0
    7.7508   -4.7222    0.0000 H   0  0  0  0  0  0  0  0  0  0  0  0
  1 25  1  0  0  0  0
  2 31  1  0  0  0  0
  3 24  2  0  0  0  0
  4 11  1  0  0  0  0
  4 12  1  0  0  0  0
  4 14  1  0  0  0  0
  5 17  1  0  0  0  0
  5 18  1  0  0  0  0
  5 23  1  0  0  0  0
  6 16  1  0  0  0  0
  6 19  1  0  0  0  0
  6 24  1  0  0  0  0
  7 21  1  0  0  0  0
  7 24  1  0  0  0  0
  7 52  1  0  0  0  0
  8  9  1  0  0  0  0
  8 10  1  0  0  0  0
  8 13  1  0  0  0  0
  8 32  1  0  0  0  0
  9 12  1  0  0  0  0
  9 35  1  0  0  0  0
  9 36  1  0  0  0  0
 10 11  1  0  0  0  0
 10 33  1  0  0  0  0
 10 34  1  0  0  0  0
 11 39  1  0  0  0  0
 11 40  1  0  0  0  0
 12 37  1  0  0  0  0
 12 38  1  0  0  0  0
 13 15  1  0  0  0  0
 13 17  2  0  0  0  0
 14 16  1  0  0  0  0
 14 41  1  0  0  0  0
 14 42  1  0  0  0  0
 15 18  2  0  0  0  0
 15 20  1  0  0  0  0
 16 43  1  0  0  0  0
 16 44  1  0  0  0  0
 17 45  1  0  0  0  0
 18 22  1  0  0  0  0
 19 21  1  0  0  0  0
 19 46  1  0  0  0  0
 19 47  1  0  0  0  0
 20 25  2  0  0  0  0
 20 48  1  0  0  0  0
 21 49  1  0  0  0  0
 21 50  1  0  0  0  0
 22 26  2  0  0  0  0
 22 51  1  0  0  0  0
 23 27  2  0  0  0  0
 23 28  1  0  0  0  0
 25 26  1  0  0  0  0
 26 53  1  0  0  0  0
 27 29  1  0  0  0  0
 27 54  1  0  0  0  0
 28 30  2  0  0  0  0
 28 55  1  0  0  0  0
 29 31  2  0  0  0  0
 29 56  1  0  0  0  0
 30 31  1  0  0  0  0
 30 57  1  0  0  0  0
M  END
> <PUBCHEM_COMPOUND_CID>
60149

> <PUBCHEM_COMPOUND_CANONICALIZED>
1

> <PUBCHEM_CACTVS_COMPLEXITY>
623

> <PUBCHEM_CACTVS_HBOND_ACCEPTOR>
3

> <PUBCHEM_CACTVS_HBOND_DONOR>
1

> <PUBCHEM_CACTVS_ROTATABLE_BOND>
5

> <PUBCHEM_CACTVS_SUBSKEYS>
AAADceB7oQAEAAAAAAAAAAAAAAAAAWLAAAA8YIAAAAAAAFgB9AAAHwIQAAAADQrBHiw9wPPMEACoAzRnVACCgCAxByAI2KA4ZpiIYOLBk5GUIAholgLIyAcQgMAOgABAIAACAAAAAIBAAAQAAAAAAAAAAA==

> <PUBCHEM_IUPAC_OPENEYE_NAME>
1-[2-[4-[5-chloro-1-(4-fluorophenyl)indol-3-yl]-1-piperidyl]ethyl]imidazolidin-2-one

> <PUBCHEM_IUPAC_CAS_NAME>
1-[2-[4-[5-chloro-1-(4-fluorophenyl)-3-indolyl]-1-piperidinyl]ethyl]-2-imidazolidinone

> <PUBCHEM_IUPAC_NAME>
1-[2-[4-[5-chloro-1-(4-fluorophenyl)indol-3-yl]piperidin-1-yl]ethyl]imidazolidin-2-one

> <PUBCHEM_IUPAC_SYSTEMATIC_NAME>
1-[2-[4-[5-chloranyl-1-(4-fluorophenyl)indol-3-yl]piperidin-1-yl]ethyl]imidazolidin-2-one

> <PUBCHEM_IUPAC_TRADITIONAL_NAME>
1-[2-[4-[5-chloro-1-(4-fluorophenyl)indol-3-yl]piperidino]ethyl]-2-imidazolidinone

> <PUBCHEM_IUPAC_INCHI>
InChI=1S/C24H26ClFN4O/c25-18-1-6-23-21(15-18)22(16-30(23)20-4-2-19(26)3-5-20)17-7-10-28(11-8-17)13-14-29-12-9-27-24(29)31/h1-6,15-17H,7-14H2,(H,27,31)

> <PUBCHEM_IUPAC_INCHIKEY>
GZKLJWGUPQBVJQ-UHFFFAOYSA-N

> <PUBCHEM_XLOGP3_AA>
4.1

> <PUBCHEM_EXACT_MASS>
440.177917

> <PUBCHEM_MOLECULAR_FORMULA>
C24H26ClFN4O

> <PUBCHEM_MOLECULAR_WEIGHT>
440.940843

> <PUBCHEM_OPENEYE_CAN_SMILES>
C1CN(CCC1C2=CN(C3=C2C=C(C=C3)Cl)C4=CC=C(C=C4)F)CCN5CCNC5=O

> <PUBCHEM_OPENEYE_ISO_SMILES>
C1CN(CCC1C2=CN(C3=C2C=C(C=C3)Cl)C4=CC=C(C=C4)F)CCN5CCNC5=O

> <PUBCHEM_CACTVS_TPSA>
40.5

> <PUBCHEM_MONOISOTOPIC_WEIGHT>
440.177917

> <PUBCHEM_TOTAL_CHARGE>
0

> <PUBCHEM_HEAVY_ATOM_COUNT>
31

> <PUBCHEM_ATOM_DEF_STEREO_COUNT>
0

> <PUBCHEM_ATOM_UDEF_STEREO_COUNT>
0

> <PUBCHEM_BOND_DEF_STEREO_COUNT>
0

> <PUBCHEM_BOND_UDEF_STEREO_COUNT>
0

> <PUBCHEM_ISOTOPIC_ATOM_COUNT>
0

> <PUBCHEM_COMPONENT_COUNT>
1

> <PUBCHEM_CACTVS_TAUTO_COUNT>
2

> <PUBCHEM_COORDINATE_TYPE>
1
5
255

> <PUBCHEM_BONDANNOTATIONS>
13  15  8
13  17  8
15  18  8
15  20  8
18  22  8
20  25  8
22  26  8
23  27  8
23  28  8
25  26  8
27  29  8
28  30  8
29  31  8
30  31  8
5  17  8
5  18  8

$$$$

