10068
  -OEChem-06261204172D

 62 66  0     1  0  0  0  0  0999 V2000
    7.9288   -2.1263    0.0000 O   0  0  0  0  0  0  0  0  0  0  0  0
    5.2710   -3.6747    0.0000 O   0  0  0  0  0  0  0  0  0  0  0  0
    2.5357   -3.1786    0.0000 O   0  0  0  0  0  0  0  0  0  0  0  0
    3.9686   -0.5096    0.0000 O   0  0  0  0  0  0  0  0  0  0  0  0
    8.8285    2.8238    0.0000 O   0  0  0  0  0  0  0  0  0  0  0  0
   10.1177    3.9805    0.0000 O   0  0  0  0  0  0  0  0  0  0  0  0
    7.9288   -1.1263    0.0000 C   0  0  1  0  0  0  0  0  0  0  0  0
    7.0628   -1.6263    0.0000 C   0  0  3  0  0  0  0  0  0  0  0  0
    7.9288   -0.1263    0.0000 C   0  0  2  0  0  0  0  0  0  0  0  0
    6.1968   -1.1263    0.0000 C   0  0  3  0  0  0  0  0  0  0  0  0
    5.2868   -1.6331    0.0000 C   0  0  2  0  0  0  0  0  0  0  0  0
    5.2787   -2.6747    0.0000 C   0  0  1  0  0  0  0  0  0  0  0  0
    7.0628    0.3737    0.0000 C   0  0  0  0  0  0  0  0  0  0  0  0
    6.1968   -0.1263    0.0000 C   0  0  0  0  0  0  0  0  0  0  0  0
    8.8750    0.1785    0.0000 C   0  0  2  0  0  0  0  0  0  0  0  0
    7.0789   -2.6678    0.0000 C   0  0  0  0  0  0  0  0  0  0  0  0
    8.8750   -1.4310    0.0000 C   0  0  0  0  0  0  0  0  0  0  0  0
    6.1808   -3.1955    0.0000 C   0  0  0  0  0  0  0  0  0  0  0  0
    9.4586   -0.6263    0.0000 C   0  0  0  0  0  0  0  0  0  0  0  0
    4.3599   -1.0690    0.0000 C   0  0  0  0  0  0  0  0  0  0  0  0
    4.3433   -3.2244    0.0000 C   0  0  0  0  0  0  0  0  0  0  0  0
    7.9288    0.8737    0.0000 C   0  0  0  0  0  0  0  0  0  0  0  0
    3.4120   -1.5970    0.0000 C   0  0  0  0  0  0  0  0  0  0  0  0
    3.4037   -2.6820    0.0000 C   0  0  2  0  0  0  0  0  0  0  0  0
    4.9520   -0.6908    0.0000 C   0  0  0  0  0  0  0  0  0  0  0  0
    9.1857    1.1290    0.0000 C   0  0  0  0  0  0  0  0  0  0  0  0
   10.1642    1.3352    0.0000 C   0  0  0  0  0  0  0  0  0  0  0  0
    8.5179    1.8733    0.0000 C   0  0  0  0  0  0  0  0  0  0  0  0
   10.4749    2.2857    0.0000 C   0  0  0  0  0  0  0  0  0  0  0  0
    9.8070    3.0300    0.0000 C   0  0  0  0  0  0  0  0  0  0  0  0
    7.8022   -2.0456    0.0000 H   0  0  0  0  0  0  0  0  0  0  0  0
    6.9329   -0.7013    0.0000 H   0  0  0  0  0  0  0  0  0  0  0  0
    7.4613    0.8487    0.0000 H   0  0  0  0  0  0  0  0  0  0  0  0
    6.6643    0.8487    0.0000 H   0  0  0  0  0  0  0  0  0  0  0  0
    5.9847    0.4563    0.0000 H   0  0  0  0  0  0  0  0  0  0  0  0
    5.5862   -0.2339    0.0000 H   0  0  0  0  0  0  0  0  0  0  0  0
    9.4875    0.2747    0.0000 H   0  0  0  0  0  0  0  0  0  0  0  0
    7.2969   -3.2482    0.0000 H   0  0  0  0  0  0  0  0  0  0  0  0
    7.6880   -2.5523    0.0000 H   0  0  0  0  0  0  0  0  0  0  0  0
    8.6240   -1.9979    0.0000 H   0  0  0  0  0  0  0  0  0  0  0  0
    9.4124   -1.7402    0.0000 H   0  0  0  0  0  0  0  0  0  0  0  0
    5.7835   -3.6715    0.0000 H   0  0  0  0  0  0  0  0  0  0  0  0
    6.5818   -3.6684    0.0000 H   0  0  0  0  0  0  0  0  0  0  0  0
    9.9195   -1.0410    0.0000 H   0  0  0  0  0  0  0  0  0  0  0  0
    9.9195   -0.2115    0.0000 H   0  0  0  0  0  0  0  0  0  0  0  0
    4.7681   -0.6024    0.0000 H   0  0  0  0  0  0  0  0  0  0  0  0
    3.9700   -0.5870    0.0000 H   0  0  0  0  0  0  0  0  0  0  0  0
    3.9460   -3.7004    0.0000 H   0  0  0  0  0  0  0  0  0  0  0  0
    4.7443   -3.6973    0.0000 H   0  0  0  0  0  0  0  0  0  0  0  0
    8.5488    0.8737    0.0000 H   0  0  0  0  0  0  0  0  0  0  0  0
    7.9288    1.4937    0.0000 H   0  0  0  0  0  0  0  0  0  0  0  0
    7.3088    0.8737    0.0000 H   0  0  0  0  0  0  0  0  0  0  0  0
    3.2075   -1.0117    0.0000 H   0  0  0  0  0  0  0  0  0  0  0  0
    2.8004   -1.6984    0.0000 H   0  0  0  0  0  0  0  0  0  0  0  0
    3.4025   -3.3020    0.0000 H   0  0  0  0  0  0  0  0  0  0  0  0
    8.4658   -2.4363    0.0000 H   0  0  0  0  0  0  0  0  0  0  0  0
    5.3542   -0.2190    0.0000 H   0  0  0  0  0  0  0  0  0  0  0  0
    4.7317   -3.9805    0.0000 H   0  0  0  0  0  0  0  0  0  0  0  0
   10.5783    0.8737    0.0000 H   0  0  0  0  0  0  0  0  0  0  0  0
    7.9112    1.7454    0.0000 H   0  0  0  0  0  0  0  0  0  0  0  0
    2.0000   -2.8665    0.0000 H   0  0  0  0  0  0  0  0  0  0  0  0
   11.0815    2.4136    0.0000 H   0  0  0  0  0  0  0  0  0  0  0  0
  7  1  1  1  0  0  0
  1 56  1  0  0  0  0
 12  2  1  1  0  0  0
  2 58  1  0  0  0  0
 24  3  1  1  0  0  0
  3 61  1  0  0  0  0
  4 25  2  0  0  0  0
  5 28  1  0  0  0  0
  5 30  1  0  0  0  0
  6 30  2  0  0  0  0
  7  8  1  0  0  0  0
  7  9  1  0  0  0  0
  7 17  1  0  0  0  0
  8 10  1  0  0  0  0
  8 16  1  0  0  0  0
  8 31  1  0  0  0  0
  9 13  1  0  0  0  0
  9 15  1  0  0  0  0
  9 22  1  1  0  0  0
 10 11  1  0  0  0  0
 10 14  1  0  0  0  0
 10 32  1  0  0  0  0
 11 12  1  0  0  0  0
 11 20  1  0  0  0  0
 11 25  1  1  0  0  0
 12 18  1  0  0  0  0
 12 21  1  0  0  0  0
 13 14  1  0  0  0  0
 13 33  1  0  0  0  0
 13 34  1  0  0  0  0
 14 35  1  0  0  0  0
 14 36  1  0  0  0  0
 15 19  1  0  0  0  0
 15 26  1  1  0  0  0
 15 37  1  0  0  0  0
 16 18  1  0  0  0  0
 16 38  1  0  0  0  0
 16 39  1  0  0  0  0
 17 19  1  0  0  0  0
 17 40  1  0  0  0  0
 17 41  1  0  0  0  0
 18 42  1  0  0  0  0
 18 43  1  0  0  0  0
 19 44  1  0  0  0  0
 19 45  1  0  0  0  0
 20 23  1  0  0  0  0
 20 46  1  0  0  0  0
 20 47  1  0  0  0  0
 21 24  1  0  0  0  0
 21 48  1  0  0  0  0
 21 49  1  0  0  0  0
 22 50  1  0  0  0  0
 22 51  1  0  0  0  0
 22 52  1  0  0  0  0
 23 24  1  0  0  0  0
 23 53  1  0  0  0  0
 23 54  1  0  0  0  0
 24 55  1  0  0  0  0
 25 57  1  0  0  0  0
 26 27  1  0  0  0  0
 26 28  2  0  0  0  0
 27 29  2  0  0  0  0
 27 59  1  0  0  0  0
 28 60  1  0  0  0  0
 29 30  1  0  0  0  0
 29 62  1  0  0  0  0
M  END
> <PUBCHEM_COMPOUND_CID>
10068

> <PUBCHEM_COMPOUND_CANONICALIZED>
1

> <PUBCHEM_CACTVS_COMPLEXITY>
834

> <PUBCHEM_CACTVS_HBOND_ACCEPTOR>
6

> <PUBCHEM_CACTVS_HBOND_DONOR>
3

> <PUBCHEM_CACTVS_ROTATABLE_BOND>
2

> <PUBCHEM_CACTVS_SUBSKEYS>
AAADcfB4OAAAAAAAAAAAAAAAAAAAAYAAAAAwYMEAAAAAAGDAAAAAGgAACAAAD1SggAICCAAABgCIAijSiAAACAAgIAAICAEAAEgIFBYAIQAAUAAFoAAIoYOI7PTPgAAAAAAAAADAAAYQADAAAYAADAAAAA==

> <PUBCHEM_IUPAC_OPENEYE_NAME>
(3S,5S,10S,13R,14S,17R)-3,5,14-trihydroxy-13-methyl-17-(6-oxopyran-3-yl)-2,3,4,6,7,8,9,11,12,15,16,17-dodecahydro-1H-cyclopenta[a]phenanthrene-10-carbaldehyde

> <PUBCHEM_IUPAC_CAS_NAME>
(3S,5S,10S,13R,14S,17R)-3,5,14-trihydroxy-13-methyl-17-(6-oxo-3-pyranyl)-2,3,4,6,7,8,9,11,12,15,16,17-dodecahydro-1H-cyclopenta[a]phenanthrene-10-carboxaldehyde

> <PUBCHEM_IUPAC_NAME>
(3S,5S,10S,13R,14S,17R)-3,5,14-trihydroxy-13-methyl-17-(6-oxopyran-3-yl)-2,3,4,6,7,8,9,11,12,15,16,17-dodecahydro-1H-cyclopenta[a]phenanthrene-10-carbaldehyde

> <PUBCHEM_IUPAC_SYSTEMATIC_NAME>
(3S,5S,10S,13R,14S,17R)-13-methyl-3,5,14-tris(oxidanyl)-17-(6-oxidanylidenepyran-3-yl)-2,3,4,6,7,8,9,11,12,15,16,17-dodecahydro-1H-cyclopenta[a]phenanthrene-10-carbaldehyde

> <PUBCHEM_IUPAC_TRADITIONAL_NAME>
(3S,5S,10S,13R,14S,17R)-3,5,14-trihydroxy-17-(6-ketopyran-3-yl)-13-methyl-2,3,4,6,7,8,9,11,12,15,16,17-dodecahydro-1H-cyclopenta[a]phenanthrene-10-carbaldehyde

> <PUBCHEM_IUPAC_INCHI>
InChI=1S/C24H32O6/c1-21-8-5-18-19(6-10-23(28)12-16(26)4-9-22(18,23)14-25)24(21,29)11-7-17(21)15-2-3-20(27)30-13-15/h2-3,13-14,16-19,26,28-29H,4-12H2,1H3/t16-,17+,18?,19?,21+,22-,23-,24-/m0/s1

> <PUBCHEM_IUPAC_INCHIKEY>
TVKPTWJPKVSGJB-RTTJAOCVSA-N

> <PUBCHEM_XLOGP3>
1.2

> <PUBCHEM_EXACT_MASS>
416.219889

> <PUBCHEM_MOLECULAR_FORMULA>
C24H32O6

> <PUBCHEM_MOLECULAR_WEIGHT>
416.50728

> <PUBCHEM_OPENEYE_CAN_SMILES>
CC12CCC3C(C1(CCC2C4=COC(=O)C=C4)O)CCC5(C3(CCC(C5)O)C=O)O

> <PUBCHEM_OPENEYE_ISO_SMILES>
C[C@]12CCC3C([C@]1(CC[C@@H]2C4=COC(=O)C=C4)O)CC[C@]5([C@@]3(CC[C@@H](C5)O)C=O)O

> <PUBCHEM_CACTVS_TPSA>
104

> <PUBCHEM_MONOISOTOPIC_WEIGHT>
416.219889

> <PUBCHEM_TOTAL_CHARGE>
0

> <PUBCHEM_HEAVY_ATOM_COUNT>
30

> <PUBCHEM_ATOM_DEF_STEREO_COUNT>
6

> <PUBCHEM_ATOM_UDEF_STEREO_COUNT>
2

> <PUBCHEM_BOND_DEF_STEREO_COUNT>
0

> <PUBCHEM_BOND_UDEF_STEREO_COUNT>
0

> <PUBCHEM_ISOTOPIC_ATOM_COUNT>
0

> <PUBCHEM_COMPONENT_COUNT>
1

> <PUBCHEM_CACTVS_TAUTO_COUNT>
1

> <PUBCHEM_COORDINATE_TYPE>
1
5
255

> <PUBCHEM_BONDANNOTATIONS>
7  1  5
10  32  3
11  25  5
15  26  5
12  2  5
26  27  8
26  28  8
27  29  8
29  30  8
24  3  5
5  28  8
5  30  8
8  31  3
9  22  5

$$$$

