51090892
  -OEChem-06241223002D

 53 54  0     1  0  0  0  0  0999 V2000
    6.3301    2.0000    0.0000 O   0  0  0  0  0  0  0  0  0  0  0  0
    5.4641   -4.5000    0.0000 O   0  0  0  0  0  0  0  0  0  0  0  0
    6.3301    0.0000    0.0000 O   0  0  0  0  0  0  0  0  0  0  0  0
    7.1962    4.5000    0.0000 O   0  0  0  0  0  0  0  0  0  0  0  0
    4.5981   -3.0000    0.0000 N   0  0  0  0  0  0  0  0  0  0  0  0
    4.5981    0.0000    0.0000 N   0  0  0  0  0  0  0  0  0  0  0  0
    4.5981   -1.0000    0.0000 C   0  0  0  0  0  0  0  0  0  0  0  0
    3.7320   -1.5000    0.0000 C   0  0  0  0  0  0  0  0  0  0  0  0
    5.4641   -1.5000    0.0000 C   0  0  0  0  0  0  0  0  0  0  0  0
    3.7320   -2.5000    0.0000 C   0  0  0  0  0  0  0  0  0  0  0  0
    5.4641   -2.5000    0.0000 C   0  0  0  0  0  0  0  0  0  0  0  0
    4.5981   -4.0000    0.0000 C   0  0  0  0  0  0  0  0  0  0  0  0
    5.4641    0.5000    0.0000 C   0  0  0  0  0  0  0  0  0  0  0  0
    5.4641    1.5000    0.0000 C   0  0  3  0  0  0  0  0  0  0  0  0
    3.7320   -4.5000    0.0000 C   0  0  0  0  0  0  0  0  0  0  0  0
    4.5981    2.0000    0.0000 C   0  0  0  0  0  0  0  0  0  0  0  0
    2.8660   -4.0000    0.0000 C   0  0  0  0  0  0  0  0  0  0  0  0
    3.7320   -5.5000    0.0000 C   0  0  0  0  0  0  0  0  0  0  0  0
    6.3301    3.0000    0.0000 C   0  0  0  0  0  0  0  0  0  0  0  0
    2.0000   -4.5000    0.0000 C   0  0  0  0  0  0  0  0  0  0  0  0
    2.8660   -6.0000    0.0000 C   0  0  0  0  0  0  0  0  0  0  0  0
    7.1962    3.5000    0.0000 C   0  0  0  0  0  0  0  0  0  0  0  0
    2.0000   -5.5000    0.0000 C   0  0  0  0  0  0  0  0  0  0  0  0
    8.0622    5.0000    0.0000 C   0  0  0  0  0  0  0  0  0  0  0  0
    8.0622    6.0000    0.0000 C   0  0  0  0  0  0  0  0  0  0  0  0
    5.1350   -0.6900    0.0000 H   0  0  0  0  0  0  0  0  0  0  0  0
    6.0747   -1.6077    0.0000 H   0  0  0  0  0  0  0  0  0  0  0  0
    3.5200   -0.9174    0.0000 H   0  0  0  0  0  0  0  0  0  0  0  0
    3.1215   -1.6077    0.0000 H   0  0  0  0  0  0  0  0  0  0  0  0
    5.6762   -0.9174    0.0000 H   0  0  0  0  0  0  0  0  0  0  0  0
    5.6762   -3.0826    0.0000 H   0  0  0  0  0  0  0  0  0  0  0  0
    6.0747   -2.3923    0.0000 H   0  0  0  0  0  0  0  0  0  0  0  0
    3.1215   -2.3923    0.0000 H   0  0  0  0  0  0  0  0  0  0  0  0
    3.5200   -3.0826    0.0000 H   0  0  0  0  0  0  0  0  0  0  0  0
    4.0611    0.3100    0.0000 H   0  0  0  0  0  0  0  0  0  0  0  0
    5.4641    2.1200    0.0000 H   0  0  0  0  0  0  0  0  0  0  0  0
    4.9081    2.5369    0.0000 H   0  0  0  0  0  0  0  0  0  0  0  0
    4.0611    2.3100    0.0000 H   0  0  0  0  0  0  0  0  0  0  0  0
    4.2881    1.4631    0.0000 H   0  0  0  0  0  0  0  0  0  0  0  0
    2.8660   -3.3800    0.0000 H   0  0  0  0  0  0  0  0  0  0  0  0
    4.2690   -5.8100    0.0000 H   0  0  0  0  0  0  0  0  0  0  0  0
    6.1181    3.5826    0.0000 H   0  0  0  0  0  0  0  0  0  0  0  0
    5.7196    2.8923    0.0000 H   0  0  0  0  0  0  0  0  0  0  0  0
    1.4631   -4.1900    0.0000 H   0  0  0  0  0  0  0  0  0  0  0  0
    2.8660   -6.6200    0.0000 H   0  0  0  0  0  0  0  0  0  0  0  0
    7.4082    2.9174    0.0000 H   0  0  0  0  0  0  0  0  0  0  0  0
    7.8067    3.6077    0.0000 H   0  0  0  0  0  0  0  0  0  0  0  0
    1.4631   -5.8100    0.0000 H   0  0  0  0  0  0  0  0  0  0  0  0
    8.2742    4.4174    0.0000 H   0  0  0  0  0  0  0  0  0  0  0  0
    8.6728    5.1077    0.0000 H   0  0  0  0  0  0  0  0  0  0  0  0
    8.6822    6.0000    0.0000 H   0  0  0  0  0  0  0  0  0  0  0  0
    8.0622    6.6200    0.0000 H   0  0  0  0  0  0  0  0  0  0  0  0
    7.4422    6.0000    0.0000 H   0  0  0  0  0  0  0  0  0  0  0  0
  1 14  1  0  0  0  0
  1 19  1  0  0  0  0
  2 12  2  0  0  0  0
  3 13  2  0  0  0  0
  4 22  1  0  0  0  0
  4 24  1  0  0  0  0
  5 10  1  0  0  0  0
  5 11  1  0  0  0  0
  5 12  1  0  0  0  0
  6  7  1  0  0  0  0
  6 13  1  0  0  0  0
  6 35  1  0  0  0  0
  7  8  1  0  0  0  0
  7  9  1  0  0  0  0
  7 26  1  0  0  0  0
  8 10  1  0  0  0  0
  8 28  1  0  0  0  0
  8 29  1  0  0  0  0
  9 11  1  0  0  0  0
  9 27  1  0  0  0  0
  9 30  1  0  0  0  0
 10 33  1  0  0  0  0
 10 34  1  0  0  0  0
 11 31  1  0  0  0  0
 11 32  1  0  0  0  0
 12 15  1  0  0  0  0
 13 14  1  0  0  0  0
 14 16  1  0  0  0  0
 14 36  1  0  0  0  0
 15 17  2  0  0  0  0
 15 18  1  0  0  0  0
 16 37  1  0  0  0  0
 16 38  1  0  0  0  0
 16 39  1  0  0  0  0
 17 20  1  0  0  0  0
 17 40  1  0  0  0  0
 18 21  2  0  0  0  0
 18 41  1  0  0  0  0
 19 22  1  0  0  0  0
 19 42  1  0  0  0  0
 19 43  1  0  0  0  0
 20 23  2  0  0  0  0
 20 44  1  0  0  0  0
 21 23  1  0  0  0  0
 21 45  1  0  0  0  0
 22 46  1  0  0  0  0
 22 47  1  0  0  0  0
 23 48  1  0  0  0  0
 24 25  1  0  0  0  0
 24 49  1  0  0  0  0
 24 50  1  0  0  0  0
 25 51  1  0  0  0  0
 25 52  1  0  0  0  0
 25 53  1  0  0  0  0
M  END
> <PUBCHEM_COMPOUND_CID>
51090892

> <PUBCHEM_COMPOUND_CANONICALIZED>
1

> <PUBCHEM_CACTVS_COMPLEXITY>
416

> <PUBCHEM_CACTVS_HBOND_ACCEPTOR>
4

> <PUBCHEM_CACTVS_HBOND_DONOR>
1

> <PUBCHEM_CACTVS_ROTATABLE_BOND>
8

> <PUBCHEM_CACTVS_SUBSKEYS>
AAADceB7OAAAAAAAAAAAAAAAAAAAAAAAAAA8QAAAAAAAAAABAAAAHgAQAAAADDzhmAYyAIPABACIAiFSEAKCAAAkAAAIiIFIBMgLIDKA1RWHIQhglgCaiYcYiACOAAAAAAAAAAAAAAAAAAAAAAAAAAAAAA==

> <PUBCHEM_IUPAC_OPENEYE_NAME>
N-(1-benzoyl-4-piperidyl)-2-(2-ethoxyethoxy)propanamide

> <PUBCHEM_IUPAC_CAS_NAME>
N-(1-benzoyl-4-piperidinyl)-2-(2-ethoxyethoxy)propanamide

> <PUBCHEM_IUPAC_NAME>
N-(1-benzoylpiperidin-4-yl)-2-(2-ethoxyethoxy)propanamide

> <PUBCHEM_IUPAC_SYSTEMATIC_NAME>
2-(2-ethoxyethoxy)-N-[1-(phenylcarbonyl)piperidin-4-yl]propanamide

> <PUBCHEM_IUPAC_TRADITIONAL_NAME>
N-(1-benzoyl-4-piperidyl)-2-(2-ethoxyethoxy)propionamide

> <PUBCHEM_IUPAC_INCHI>
InChI=1S/C19H28N2O4/c1-3-24-13-14-25-15(2)18(22)20-17-9-11-21(12-10-17)19(23)16-7-5-4-6-8-16/h4-8,15,17H,3,9-14H2,1-2H3,(H,20,22)

> <PUBCHEM_IUPAC_INCHIKEY>
VYXOMVMNXHVRCD-UHFFFAOYSA-N

> <PUBCHEM_XLOGP3_AA>
1.8

> <PUBCHEM_EXACT_MASS>
348.204907

> <PUBCHEM_MOLECULAR_FORMULA>
C19H28N2O4

> <PUBCHEM_MOLECULAR_WEIGHT>
348.43662

> <PUBCHEM_OPENEYE_CAN_SMILES>
CCOCCOC(C)C(=O)NC1CCN(CC1)C(=O)C2=CC=CC=C2

> <PUBCHEM_OPENEYE_ISO_SMILES>
CCOCCOC(C)C(=O)NC1CCN(CC1)C(=O)C2=CC=CC=C2

> <PUBCHEM_CACTVS_TPSA>
67.9

> <PUBCHEM_MONOISOTOPIC_WEIGHT>
348.204907

> <PUBCHEM_TOTAL_CHARGE>
0

> <PUBCHEM_HEAVY_ATOM_COUNT>
25

> <PUBCHEM_ATOM_DEF_STEREO_COUNT>
0

> <PUBCHEM_ATOM_UDEF_STEREO_COUNT>
1

> <PUBCHEM_BOND_DEF_STEREO_COUNT>
0

> <PUBCHEM_BOND_UDEF_STEREO_COUNT>
0

> <PUBCHEM_ISOTOPIC_ATOM_COUNT>
0

> <PUBCHEM_COMPONENT_COUNT>
1

> <PUBCHEM_CACTVS_TAUTO_COUNT>
2

> <PUBCHEM_COORDINATE_TYPE>
1
5
255

> <PUBCHEM_BONDANNOTATIONS>
14  16  3
15  17  8
15  18  8
17  20  8
18  21  8
20  23  8
21  23  8

$$$$

