443587
  -OEChem-07051213022D

 32 32  0     1  0  0  0  0  0999 V2000
   10.8312    1.2710    0.0000 O   0  0  0  0  0  0  0  0  0  0  0  0
    9.4651   -1.0950    0.0000 O   0  0  0  0  0  0  0  0  0  0  0  0
    2.5369   -0.0950    0.0000 O   0  0  0  0  0  0  0  0  0  0  0  0
    3.4030    1.4050    0.0000 O   0  0  0  0  0  0  0  0  0  0  0  0
    4.2690   -1.0950    0.0000 N   0  0  0  0  0  0  0  0  0  0  0  0
   10.3312    0.4050    0.0000 C   0  0  3  0  0  0  0  0  0  0  0  0
    7.7331   -0.0950    0.0000 C   0  0  0  0  0  0  0  0  0  0  0  0
    6.8671    0.4050    0.0000 C   0  0  0  0  0  0  0  0  0  0  0  0
   11.3312    0.4050    0.0000 C   0  0  0  0  0  0  0  0  0  0  0  0
    8.5991    0.4050    0.0000 C   0  0  0  0  0  0  0  0  0  0  0  0
    6.0010   -0.0950    0.0000 C   0  0  0  0  0  0  0  0  0  0  0  0
    9.4651   -0.0950    0.0000 C   0  0  0  0  0  0  0  0  0  0  0  0
    5.1350    0.4050    0.0000 C   0  0  0  0  0  0  0  0  0  0  0  0
    4.2690   -0.0950    0.0000 C   0  0  1  0  0  0  0  0  0  0  0  0
    3.4030    0.4050    0.0000 C   0  0  0  0  0  0  0  0  0  0  0  0
    9.7301    1.0060    0.0000 H   0  0  0  0  0  0  0  0  0  0  0  0
    7.3346   -0.5699    0.0000 H   0  0  0  0  0  0  0  0  0  0  0  0
    8.1316   -0.5699    0.0000 H   0  0  0  0  0  0  0  0  0  0  0  0
    7.2656    0.8799    0.0000 H   0  0  0  0  0  0  0  0  0  0  0  0
    6.4685    0.8799    0.0000 H   0  0  0  0  0  0  0  0  0  0  0  0
   11.4388   -0.2056    0.0000 H   0  0  0  0  0  0  0  0  0  0  0  0
   11.9138    0.6171    0.0000 H   0  0  0  0  0  0  0  0  0  0  0  0
    8.9976    0.8799    0.0000 H   0  0  0  0  0  0  0  0  0  0  0  0
    8.2006    0.8799    0.0000 H   0  0  0  0  0  0  0  0  0  0  0  0
    5.6025   -0.5699    0.0000 H   0  0  0  0  0  0  0  0  0  0  0  0
    6.3996   -0.5699    0.0000 H   0  0  0  0  0  0  0  0  0  0  0  0
    5.5335    0.8799    0.0000 H   0  0  0  0  0  0  0  0  0  0  0  0
    4.7365    0.8799    0.0000 H   0  0  0  0  0  0  0  0  0  0  0  0
    4.8059   -0.4050    0.0000 H   0  0  0  0  0  0  0  0  0  0  0  0
    3.7320   -1.4050    0.0000 H   0  0  0  0  0  0  0  0  0  0  0  0
    4.8059   -1.4050    0.0000 H   0  0  0  0  0  0  0  0  0  0  0  0
    2.0000    0.2150    0.0000 H   0  0  0  0  0  0  0  0  0  0  0  0
  1  6  1  0  0  0  0
  1  9  1  0  0  0  0
  2 12  2  0  0  0  0
  3 15  1  0  0  0  0
  3 32  1  0  0  0  0
  4 15  2  0  0  0  0
 14  5  1  6  0  0  0
  5 30  1  0  0  0  0
  5 31  1  0  0  0  0
  6  9  1  0  0  0  0
  6 12  1  0  0  0  0
  6 16  1  0  0  0  0
  7  8  1  0  0  0  0
  7 10  1  0  0  0  0
  7 17  1  0  0  0  0
  7 18  1  0  0  0  0
  8 11  1  0  0  0  0
  8 19  1  0  0  0  0
  8 20  1  0  0  0  0
  9 21  1  0  0  0  0
  9 22  1  0  0  0  0
 10 12  1  0  0  0  0
 10 23  1  0  0  0  0
 10 24  1  0  0  0  0
 11 13  1  0  0  0  0
 11 25  1  0  0  0  0
 11 26  1  0  0  0  0
 13 14  1  0  0  0  0
 13 27  1  0  0  0  0
 13 28  1  0  0  0  0
 14 15  1  0  0  0  0
 14 29  1  0  0  0  0
M  END
> <PUBCHEM_COMPOUND_CID>
443587

> <PUBCHEM_COMPOUND_CANONICALIZED>
1

> <PUBCHEM_CACTVS_COMPLEXITY>
242

> <PUBCHEM_CACTVS_HBOND_ACCEPTOR>
5

> <PUBCHEM_CACTVS_HBOND_DONOR>
2

> <PUBCHEM_CACTVS_ROTATABLE_BOND>
8

> <PUBCHEM_CACTVS_SUBSKEYS>
AAADceByOAAAAAAAAAAAAAAAEgAAAAAAAAAAAAAAAAAAAAAAAAAAHgAQCAAACDzhgAYACABABgAIAICQCAIAAAAAAAAAAIHAAAACABYAgAQAQAAEMAAAAAGYyKCAAAAAAAAAAAAAAAAAAAAAAAAAAAAAAA==

> <PUBCHEM_IUPAC_OPENEYE_NAME>
(2S)-2-amino-8-(oxiran-2-yl)-8-oxo-octanoic acid

> <PUBCHEM_IUPAC_CAS_NAME>
(2S)-2-amino-8-(2-oxiranyl)-8-oxooctanoic acid

> <PUBCHEM_IUPAC_NAME>
(2S)-2-amino-8-(oxiran-2-yl)-8-oxooctanoic acid

> <PUBCHEM_IUPAC_SYSTEMATIC_NAME>
(2S)-2-azanyl-8-oxidanylidene-8-(oxiran-2-yl)octanoic acid

> <PUBCHEM_IUPAC_TRADITIONAL_NAME>
(2S)-2-amino-8-keto-8-(oxiran-2-yl)caprylic acid

> <PUBCHEM_IUPAC_INCHI>
InChI=1S/C10H17NO4/c11-7(10(13)14)4-2-1-3-5-8(12)9-6-15-9/h7,9H,1-6,11H2,(H,13,14)/t7-,9?/m0/s1

> <PUBCHEM_IUPAC_INCHIKEY>
PFDHVDFPTKSEKN-JAVCKPHESA-N

> <PUBCHEM_XLOGP3_AA>
-2.4

> <PUBCHEM_EXACT_MASS>
215.115758

> <PUBCHEM_MOLECULAR_FORMULA>
C10H17NO4

> <PUBCHEM_MOLECULAR_WEIGHT>
215.24628

> <PUBCHEM_OPENEYE_CAN_SMILES>
C1C(O1)C(=O)CCCCCC(C(=O)O)N

> <PUBCHEM_OPENEYE_ISO_SMILES>
C1C(O1)C(=O)CCCCC[C@@H](C(=O)O)N

> <PUBCHEM_CACTVS_TPSA>
92.9

> <PUBCHEM_MONOISOTOPIC_WEIGHT>
215.115758

> <PUBCHEM_TOTAL_CHARGE>
0

> <PUBCHEM_HEAVY_ATOM_COUNT>
15

> <PUBCHEM_ATOM_DEF_STEREO_COUNT>
1

> <PUBCHEM_ATOM_UDEF_STEREO_COUNT>
1

> <PUBCHEM_BOND_DEF_STEREO_COUNT>
0

> <PUBCHEM_BOND_UDEF_STEREO_COUNT>
0

> <PUBCHEM_ISOTOPIC_ATOM_COUNT>
0

> <PUBCHEM_COMPONENT_COUNT>
1

> <PUBCHEM_CACTVS_TAUTO_COUNT>
3

> <PUBCHEM_COORDINATE_TYPE>
1
5
255

> <PUBCHEM_BONDANNOTATIONS>
14  5  6
6  16  3

$$$$

