5462506
  -OEChem-07051213023D

 46 50  0     1  0  0  0  0  0999 V2000
   -1.4251    0.6686    1.3931 O   0  0  0  0  0  0  0  0  0  0  0  0
   -3.1513   -0.9141    0.2377 O   0  0  0  0  0  0  0  0  0  0  0  0
   -1.9450    3.4132    0.6009 O   0  0  0  0  0  0  0  0  0  0  0  0
    3.3405   -1.2408    0.3153 N   0  0  2  0  0  0  0  0  0  0  0  0
    0.5384   -0.6232    0.7546 C   0  0  1  0  0  0  0  0  0  0  0  0
    1.0074   -1.6322   -0.3048 C   0  0  2  0  0  0  0  0  0  0  0  0
    2.3952   -1.1320   -0.8221 C   0  0  1  0  0  0  0  0  0  0  0  0
   -0.9321   -0.7068    1.2264 C   0  0  2  0  0  0  0  0  0  0  0  0
    1.5411   -0.6085    1.9253 C   0  0  0  0  0  0  0  0  0  0  0  0
    0.4683    0.7267    0.1207 C   0  0  0  0  0  0  0  0  0  0  0  0
    2.3195    0.2872   -1.4835 C   0  0  0  0  0  0  0  0  0  0  0  0
    2.9919   -0.3962    1.4620 C   0  0  0  0  0  0  0  0  0  0  0  0
   -1.8618   -1.5197    0.2879 C   0  0  2  0  0  0  0  0  0  0  0  0
    1.3045    1.2127   -0.8683 C   0  0  0  0  0  0  0  0  0  0  0  0
   -0.0303   -1.8305   -1.3801 C   0  0  0  0  0  0  0  0  0  0  0  0
   -0.6307    1.4223    0.5721 C   0  0  0  0  0  0  0  0  0  0  0  0
   -1.3410   -1.7581   -1.1045 C   0  0  0  0  0  0  0  0  0  0  0  0
    4.7367   -1.0650   -0.0711 C   0  0  0  0  0  0  0  0  0  0  0  0
    1.0706    2.5135   -1.3173 C   0  0  0  0  0  0  0  0  0  0  0  0
   -0.8770    2.7103    0.1502 C   0  0  0  0  0  0  0  0  0  0  0  0
   -0.0024    3.2628   -0.7943 C   0  0  0  0  0  0  0  0  0  0  0  0
   -4.0838   -1.7379   -0.4457 C   0  0  0  0  0  0  0  0  0  0  0  0
   -5.4336   -1.0525   -0.4544 C   0  0  0  0  0  0  0  0  0  0  0  0
    1.1499   -2.6197    0.1598 H   0  0  0  0  0  0  0  0  0  0  0  0
    2.7383   -1.8359   -1.5930 H   0  0  0  0  0  0  0  0  0  0  0  0
   -0.9915   -1.1607    2.2241 H   0  0  0  0  0  0  0  0  0  0  0  0
    1.4790   -1.5695    2.4536 H   0  0  0  0  0  0  0  0  0  0  0  0
    1.2868    0.1675    2.6587 H   0  0  0  0  0  0  0  0  0  0  0  0
    2.0275    0.1429   -2.5326 H   0  0  0  0  0  0  0  0  0  0  0  0
    3.2986    0.7757   -1.5022 H   0  0  0  0  0  0  0  0  0  0  0  0
    3.1579    0.6639    1.2335 H   0  0  0  0  0  0  0  0  0  0  0  0
    3.6499   -0.6341    2.3073 H   0  0  0  0  0  0  0  0  0  0  0  0
   -1.9748   -2.5142    0.7436 H   0  0  0  0  0  0  0  0  0  0  0  0
    0.2957   -2.0775   -2.3860 H   0  0  0  0  0  0  0  0  0  0  0  0
   -1.9907   -1.9639   -1.9447 H   0  0  0  0  0  0  0  0  0  0  0  0
    4.9762   -0.0336   -0.3480 H   0  0  0  0  0  0  0  0  0  0  0  0
    4.9950   -1.7191   -0.9110 H   0  0  0  0  0  0  0  0  0  0  0  0
    5.3959   -1.3495    0.7569 H   0  0  0  0  0  0  0  0  0  0  0  0
    1.6962    2.9481   -2.0924 H   0  0  0  0  0  0  0  0  0  0  0  0
   -0.1702    4.2723   -1.1625 H   0  0  0  0  0  0  0  0  0  0  0  0
   -3.8341   -1.9031   -1.4938 H   0  0  0  0  0  0  0  0  0  0  0  0
   -4.1709   -2.7060    0.0607 H   0  0  0  0  0  0  0  0  0  0  0  0
   -2.4311    2.8581    1.2353 H   0  0  0  0  0  0  0  0  0  0  0  0
   -6.1823   -1.6656   -0.9642 H   0  0  0  0  0  0  0  0  0  0  0  0
   -5.7741   -0.8594    0.5683 H   0  0  0  0  0  0  0  0  0  0  0  0
   -5.3704   -0.0815   -0.9570 H   0  0  0  0  0  0  0  0  0  0  0  0
  1  8  1  0  0  0  0
  1 16  1  0  0  0  0
  2 13  1  0  0  0  0
  2 22  1  0  0  0  0
  3 20  1  0  0  0  0
  3 43  1  0  0  0  0
  4  7  1  0  0  0  0
  4 12  1  0  0  0  0
  4 18  1  0  0  0  0
  5  6  1  0  0  0  0
  5  8  1  0  0  0  0
  5  9  1  0  0  0  0
  5 10  1  0  0  0  0
  6  7  1  0  0  0  0
  6 15  1  0  0  0  0
  6 24  1  0  0  0  0
  7 11  1  0  0  0  0
  7 25  1  0  0  0  0
  8 13  1  0  0  0  0
  8 26  1  0  0  0  0
  9 12  1  0  0  0  0
  9 27  1  0  0  0  0
  9 28  1  0  0  0  0
 10 14  2  0  0  0  0
 10 16  1  0  0  0  0
 11 14  1  0  0  0  0
 11 29  1  0  0  0  0
 11 30  1  0  0  0  0
 12 31  1  0  0  0  0
 12 32  1  0  0  0  0
 13 17  1  0  0  0  0
 13 33  1  0  0  0  0
 14 19  1  0  0  0  0
 15 17  2  0  0  0  0
 15 34  1  0  0  0  0
 16 20  2  0  0  0  0
 17 35  1  0  0  0  0
 18 36  1  0  0  0  0
 18 37  1  0  0  0  0
 18 38  1  0  0  0  0
 19 21  2  0  0  0  0
 19 39  1  0  0  0  0
 20 21  1  0  0  0  0
 21 40  1  0  0  0  0
 22 23  1  0  0  0  0
 22 41  1  0  0  0  0
 22 42  1  0  0  0  0
 23 44  1  0  0  0  0
 23 45  1  0  0  0  0
 23 46  1  0  0  0  0
M  END
> <PUBCHEM_COMPOUND_CID>
5462506

> <PUBCHEM_CONFORMER_RMSD>
0.6

> <PUBCHEM_CONFORMER_DIVERSEORDER>
1
2
3

> <PUBCHEM_MMFF94_PARTIAL_CHARGES>
26
1 -0.36
10 -0.14
11 0.14
12 0.27
13 0.42
14 -0.14
15 -0.29
16 0.08
17 -0.29
18 0.27
19 -0.15
2 -0.56
20 0.08
21 -0.15
22 0.28
3 -0.53
34 0.15
35 0.15
39 0.15
4 -0.81
40 0.15
43 0.45
5 0.14
6 0.14
7 0.27
8 0.28

> <PUBCHEM_EFFECTIVE_ROTOR_COUNT>
3.2

> <PUBCHEM_PHARMACOPHORE_FEATURES>
9
1 1 acceptor
1 2 acceptor
1 3 donor
1 4 cation
5 1 5 8 10 16 rings
6 10 14 16 19 20 21 rings
6 4 5 6 7 9 12 rings
6 5 6 7 10 11 14 rings
6 5 6 8 13 15 17 rings

> <PUBCHEM_HEAVY_ATOM_COUNT>
23

> <PUBCHEM_ATOM_DEF_STEREO_COUNT>
5

> <PUBCHEM_ATOM_UDEF_STEREO_COUNT>
0

> <PUBCHEM_BOND_DEF_STEREO_COUNT>
0

> <PUBCHEM_BOND_UDEF_STEREO_COUNT>
0

> <PUBCHEM_ISOTOPIC_ATOM_COUNT>
0

> <PUBCHEM_COMPONENT_COUNT>
1

> <PUBCHEM_CACTVS_TAUTO_COUNT>
3

> <PUBCHEM_CONFORMER_ID>
005359EA00000001

> <PUBCHEM_MMFF94_ENERGY>
84.0119

> <PUBCHEM_FEATURE_SELFOVERLAP>
47.798

> <PUBCHEM_SHAPE_FINGERPRINT>
10064457 181 17248062742233679209
104564 63 18335986475177522031
10863032 1 17843396276599290223
10948715 1 17688873455300073700
11578080 2 17676200316400245856
116883 192 18336261331920846389
12035759 4 18265596711314113996
12293681 4 18271796918108861907
12423570 1 5903818172465568026
12788726 201 18342740753700880370
13004483 165 18339658801281288346
13009979 54 17969201383590190859
13134695 92 18339930294716677325
13140716 1 18337938039729515641
13464514 151 17911517593171261653
14181834 199 17899711063155664783
14955137 171 17833838175000837688
15238133 3 18201726158751423719
1601671 61 18335700572574780223
16945 1 18126534956236620018
17093844 170 18047195434538556221
17357779 13 18187944905467323583
1813 80 18339373984740880554
18393751 57 18050871939992973584
19765921 60 17476916853174931169
22112679 90 18340188769895773328
23402539 116 18339927116193185487
23419403 2 18044687280342169472
23557571 272 18335140933387191915
238 59 17473268669842465279
25 1 17766832828181539557
2748010 2 17331370573543328561
276578 36 8935010273411506595
3052486 1 18268993262152336837
34934 24 18120933910744847844
5845 1 11595745047567204404
5895379 119 18042107878304550177
6442390 28 17397816264544412521
7471813 234 18411985723779825717
7495541 125 18129094521055221395
81228 2 18340198708397160659

> <PUBCHEM_SHAPE_MULTIPOLES>
450.74
6.19
3.25
1.5
4.6
3.69
-0.19
-4.54
0.49
0.9
0.66
-0.6
-0.1
-0.85

> <PUBCHEM_SHAPE_SELFOVERLAP>
1007.132

> <PUBCHEM_SHAPE_VOLUME>
237.2

> <PUBCHEM_COORDINATE_TYPE>
2
5
10

$$$$

