5281439
  -OEChem-07051212573D

 52 53  0     1  0  0  0  0  0999 V2000
    1.3227    2.4461    1.1463 O   0  0  0  0  0  0  0  0  0  0  0  0
   -1.8342    0.2016   -0.1702 O   0  0  0  0  0  0  0  0  0  0  0  0
    5.2648   -1.2775    0.9054 O   0  0  0  0  0  0  0  0  0  0  0  0
    0.7579    4.5156    0.3214 O   0  0  0  0  0  0  0  0  0  0  0  0
   -3.1429   -1.0930   -1.5507 O   0  0  0  0  0  0  0  0  0  0  0  0
   -3.5077   -3.1611    1.0335 O   0  0  0  0  0  0  0  0  0  0  0  0
    0.4106    1.0378   -0.5474 C   0  0  2  0  0  0  0  0  0  0  0  0
   -0.6472   -0.0296   -0.9390 C   0  0  1  0  0  0  0  0  0  0  0  0
    0.8698    1.1019    0.9179 C   0  0  1  0  0  0  0  0  0  0  0  0
   -0.2894   -1.5331   -0.7897 C   0  0  0  0  0  0  0  0  0  0  0  0
   -0.0080    2.4700   -0.7153 C   0  0  0  0  0  0  0  0  0  0  0  0
    1.9515    0.1243    1.2911 C   0  0  0  0  0  0  0  0  0  0  0  0
    1.1210   -1.9429   -1.1598 C   0  0  0  0  0  0  0  0  0  0  0  0
    0.7034    3.2996    0.2816 C   0  0  0  0  0  0  0  0  0  0  0  0
    3.1636   -0.0694    0.7211 C   0  0  0  0  0  0  0  0  0  0  0  0
    3.8485   -1.4236    0.9341 C   0  0  1  0  0  0  0  0  0  0  0  0
    3.4040   -2.4543   -0.1446 C   0  0  0  0  0  0  0  0  0  0  0  0
    1.8986   -2.4863   -0.2010 C   0  0  0  0  0  0  0  0  0  0  0  0
   -0.8779    3.0217   -1.5661 C   0  0  0  0  0  0  0  0  0  0  0  0
    1.5781   -1.6328   -2.5558 C   0  0  0  0  0  0  0  0  0  0  0  0
    3.8124    0.8583   -0.2689 C   0  0  0  0  0  0  0  0  0  0  0  0
   -2.8993   -0.6015   -0.4576 C   0  0  0  0  0  0  0  0  0  0  0  0
   -3.7322   -0.8018    0.7685 C   0  0  0  0  0  0  0  0  0  0  0  0
   -3.3837   -1.9182    1.7108 C   0  0  0  0  0  0  0  0  0  0  0  0
   -4.7196    0.0941    0.9569 C   0  0  0  0  0  0  0  0  0  0  0  0
   -5.0647    1.2540    0.0775 C   0  0  0  0  0  0  0  0  0  0  0  0
    1.2749    0.9144   -1.2057 H   0  0  0  0  0  0  0  0  0  0  0  0
   -0.8937    0.1402   -1.9967 H   0  0  0  0  0  0  0  0  0  0  0  0
    0.0216    0.9388    1.5968 H   0  0  0  0  0  0  0  0  0  0  0  0
   -0.9623   -2.1420   -1.4062 H   0  0  0  0  0  0  0  0  0  0  0  0
   -0.5082   -1.8380    0.2431 H   0  0  0  0  0  0  0  0  0  0  0  0
    1.6018   -0.6338    1.9929 H   0  0  0  0  0  0  0  0  0  0  0  0
    3.6002   -1.8133    1.9294 H   0  0  0  0  0  0  0  0  0  0  0  0
    3.7890   -3.4475    0.1142 H   0  0  0  0  0  0  0  0  0  0  0  0
    3.8550   -2.2018   -1.1098 H   0  0  0  0  0  0  0  0  0  0  0  0
    1.4364   -2.7528    0.7497 H   0  0  0  0  0  0  0  0  0  0  0  0
   -1.4074    2.4221   -2.2979 H   0  0  0  0  0  0  0  0  0  0  0  0
   -1.0860    4.0865   -1.5603 H   0  0  0  0  0  0  0  0  0  0  0  0
    2.4954   -2.1668   -2.8203 H   0  0  0  0  0  0  0  0  0  0  0  0
    1.7545   -0.5653   -2.7004 H   0  0  0  0  0  0  0  0  0  0  0  0
    0.8161   -1.9529   -3.2750 H   0  0  0  0  0  0  0  0  0  0  0  0
    3.9097    0.3741   -1.2455 H   0  0  0  0  0  0  0  0  0  0  0  0
    4.8108    1.1438    0.0783 H   0  0  0  0  0  0  0  0  0  0  0  0
    3.2600    1.7892   -0.4121 H   0  0  0  0  0  0  0  0  0  0  0  0
    5.5459   -1.1820   -0.0203 H   0  0  0  0  0  0  0  0  0  0  0  0
   -4.0351   -1.9354    2.5905 H   0  0  0  0  0  0  0  0  0  0  0  0
   -2.3507   -1.8154    2.0574 H   0  0  0  0  0  0  0  0  0  0  0  0
   -5.3364   -0.0062    1.8480 H   0  0  0  0  0  0  0  0  0  0  0  0
   -6.1023    1.1608   -0.2589 H   0  0  0  0  0  0  0  0  0  0  0  0
   -4.4351    1.3484   -0.8105 H   0  0  0  0  0  0  0  0  0  0  0  0
   -4.9766    2.1840    0.6483 H   0  0  0  0  0  0  0  0  0  0  0  0
   -4.4365   -3.2578    0.7614 H   0  0  0  0  0  0  0  0  0  0  0  0
  1  9  1  0  0  0  0
  1 14  1  0  0  0  0
  2  8  1  0  0  0  0
  2 22  1  0  0  0  0
  3 16  1  0  0  0  0
  3 45  1  0  0  0  0
  4 14  2  0  0  0  0
  5 22  2  0  0  0  0
  6 24  1  0  0  0  0
  6 52  1  0  0  0  0
  7  8  1  0  0  0  0
  7  9  1  0  0  0  0
  7 11  1  0  0  0  0
  7 27  1  0  0  0  0
  8 10  1  0  0  0  0
  8 28  1  0  0  0  0
  9 12  1  0  0  0  0
  9 29  1  0  0  0  0
 10 13  1  0  0  0  0
 10 30  1  0  0  0  0
 10 31  1  0  0  0  0
 11 14  1  0  0  0  0
 11 19  2  0  0  0  0
 12 15  2  0  0  0  0
 12 32  1  0  0  0  0
 13 18  2  0  0  0  0
 13 20  1  0  0  0  0
 15 16  1  0  0  0  0
 15 21  1  0  0  0  0
 16 17  1  0  0  0  0
 16 33  1  0  0  0  0
 17 18  1  0  0  0  0
 17 34  1  0  0  0  0
 17 35  1  0  0  0  0
 18 36  1  0  0  0  0
 19 37  1  0  0  0  0
 19 38  1  0  0  0  0
 20 39  1  0  0  0  0
 20 40  1  0  0  0  0
 20 41  1  0  0  0  0
 21 42  1  0  0  0  0
 21 43  1  0  0  0  0
 21 44  1  0  0  0  0
 22 23  1  0  0  0  0
 23 24  1  0  0  0  0
 23 25  2  0  0  0  0
 24 46  1  0  0  0  0
 24 47  1  0  0  0  0
 25 26  1  0  0  0  0
 25 48  1  0  0  0  0
 26 49  1  0  0  0  0
 26 50  1  0  0  0  0
 26 51  1  0  0  0  0
M  END
> <PUBCHEM_COMPOUND_CID>
5281439

> <PUBCHEM_CONFORMER_RMSD>
0.8

> <PUBCHEM_CONFORMER_DIVERSEORDER>
1
12
33
7
14
20
13
8
32
31
16
24
10
23
17
25
27
4
5
22
28
29
15
21
11
19
18
6
2
26
3
30
9

> <PUBCHEM_MMFF94_PARTIAL_CHARGES>
33
1 -0.43
10 0.14
11 -0.12
12 -0.29
13 -0.28
14 0.71
15 -0.28
16 0.42
17 0.14
18 -0.29
19 -0.3
2 -0.43
20 0.14
21 0.14
22 0.71
23 -0.12
24 0.42
25 -0.29
26 0.14
3 -0.68
32 0.15
36 0.15
37 0.15
38 0.15
4 -0.57
45 0.4
48 0.15
5 -0.57
52 0.4
6 -0.68
7 0.14
8 0.28
9 0.42

> <PUBCHEM_EFFECTIVE_ROTOR_COUNT>
5

> <PUBCHEM_PHARMACOPHORE_FEATURES>
8
1 26 hydrophobe
1 3 acceptor
1 3 donor
1 4 acceptor
1 5 acceptor
1 6 acceptor
1 6 donor
5 1 7 9 11 14 rings

> <PUBCHEM_HEAVY_ATOM_COUNT>
26

> <PUBCHEM_ATOM_DEF_STEREO_COUNT>
4

> <PUBCHEM_ATOM_UDEF_STEREO_COUNT>
0

> <PUBCHEM_BOND_DEF_STEREO_COUNT>
3

> <PUBCHEM_BOND_UDEF_STEREO_COUNT>
0

> <PUBCHEM_ISOTOPIC_ATOM_COUNT>
0

> <PUBCHEM_COMPONENT_COUNT>
1

> <PUBCHEM_CACTVS_TAUTO_COUNT>
1

> <PUBCHEM_CONFORMER_ID>
0050969F00000001

> <PUBCHEM_MMFF94_ENERGY>
75.0241

> <PUBCHEM_FEATURE_SELFOVERLAP>
40.595

> <PUBCHEM_SHAPE_FINGERPRINT>
10688039 33 18270683202475520532
11244481 83 17986095323668259811
12422481 6 18188225246989659546
12553582 1 18409457976934170868
12633257 1 18343311357270368027
12788726 201 18127978718088289368
13140716 1 18047754793186927537
13402501 40 18265059213621543045
13533116 47 18198341741987154547
14363568 33 18267299829414664800
14787075 74 17774436062962547090
14790565 3 17979353062933855476
14955137 171 18264475201280299532
15238133 3 18199736111382382381
15664445 248 18263062389200901724
1601671 61 18334571335003822244
1813 80 18338506525589559716
20600515 1 18200583808613370559
20739085 24 18334857195390140200
22182313 1 17607253348980986110
23557571 272 18193832876196823966
23558518 356 17471301024664494516
23559900 14 18199168745823416270
2748010 2 17974890329935741000
3380486 145 18189346817168274783
81228 2 17833529568594405183
9981440 41 17178594511201656338

> <PUBCHEM_SHAPE_MULTIPOLES>
499.85
8.27
4.15
1.64
3.94
3.51
0.54
-4.55
-3.17
-0.38
0.01
-0.03
-0.52
1.14

> <PUBCHEM_SHAPE_SELFOVERLAP>
1031.227

> <PUBCHEM_SHAPE_VOLUME>
285.5

> <PUBCHEM_COORDINATE_TYPE>
2
5
10

$$$$

