47205104
  -OEChem-06241222582D

 36 37  0     0  0  0  0  0  0999 V2000
    2.8660   -5.1012    0.0000 F   0  0  0  0  0  0  0  0  0  0  0  0
    2.8660   -1.1012    0.0000 O   0  0  0  0  0  0  0  0  0  0  0  0
    3.7320    2.3988    0.0000 O   0  0  0  0  0  0  0  0  0  0  0  0
    5.4641    2.3988    0.0000 N   0  0  0  0  0  0  0  0  0  0  0  0
    7.2437    3.4920    0.0000 N   0  0  0  0  0  0  0  0  0  0  0  0
    7.9128    4.2352    0.0000 N   0  0  0  0  0  0  0  0  0  0  0  0
    3.7320    0.3988    0.0000 C   0  0  0  0  0  0  0  0  0  0  0  0
    4.5981    0.8988    0.0000 C   0  0  0  0  0  0  0  0  0  0  0  0
    3.7320   -0.6012    0.0000 C   0  0  0  0  0  0  0  0  0  0  0  0
    4.5981    1.8988    0.0000 C   0  0  0  0  0  0  0  0  0  0  0  0
    5.4641    3.3988    0.0000 C   0  0  0  0  0  0  0  0  0  0  0  0
    6.3301    3.8988    0.0000 C   0  0  0  0  0  0  0  0  0  0  0  0
    2.8660   -2.1012    0.0000 C   0  0  0  0  0  0  0  0  0  0  0  0
    6.4347    4.8933    0.0000 C   0  0  0  0  0  0  0  0  0  0  0  0
    2.0000   -2.6012    0.0000 C   0  0  0  0  0  0  0  0  0  0  0  0
    3.7320   -2.6012    0.0000 C   0  0  0  0  0  0  0  0  0  0  0  0
    7.4128    5.1012    0.0000 C   0  0  0  0  0  0  0  0  0  0  0  0
    2.0000   -3.6012    0.0000 C   0  0  0  0  0  0  0  0  0  0  0  0
    3.7320   -3.6012    0.0000 C   0  0  0  0  0  0  0  0  0  0  0  0
    2.8660   -4.1012    0.0000 C   0  0  0  0  0  0  0  0  0  0  0  0
    3.5200    0.9814    0.0000 H   0  0  0  0  0  0  0  0  0  0  0  0
    3.1215    0.2911    0.0000 H   0  0  0  0  0  0  0  0  0  0  0  0
    4.8101    0.3162    0.0000 H   0  0  0  0  0  0  0  0  0  0  0  0
    5.2087    1.0064    0.0000 H   0  0  0  0  0  0  0  0  0  0  0  0
    3.9441   -1.1838    0.0000 H   0  0  0  0  0  0  0  0  0  0  0  0
    4.3426   -0.4936    0.0000 H   0  0  0  0  0  0  0  0  0  0  0  0
    5.2520    3.9814    0.0000 H   0  0  0  0  0  0  0  0  0  0  0  0
    4.8535    3.2911    0.0000 H   0  0  0  0  0  0  0  0  0  0  0  0
    6.0010    2.0888    0.0000 H   0  0  0  0  0  0  0  0  0  0  0  0
    5.9739    5.3082    0.0000 H   0  0  0  0  0  0  0  0  0  0  0  0
    7.3726    2.8856    0.0000 H   0  0  0  0  0  0  0  0  0  0  0  0
    1.4631   -2.2912    0.0000 H   0  0  0  0  0  0  0  0  0  0  0  0
    4.2690   -2.2912    0.0000 H   0  0  0  0  0  0  0  0  0  0  0  0
    7.6650    5.6676    0.0000 H   0  0  0  0  0  0  0  0  0  0  0  0
    1.4631   -3.9112    0.0000 H   0  0  0  0  0  0  0  0  0  0  0  0
    4.2690   -3.9112    0.0000 H   0  0  0  0  0  0  0  0  0  0  0  0
  1 20  1  0  0  0  0
  2  9  1  0  0  0  0
  2 13  1  0  0  0  0
  3 10  2  0  0  0  0
  4 10  1  0  0  0  0
  4 11  1  0  0  0  0
  4 29  1  0  0  0  0
  5  6  1  0  0  0  0
  5 12  1  0  0  0  0
  5 31  1  0  0  0  0
  6 17  2  0  0  0  0
  7  8  1  0  0  0  0
  7  9  1  0  0  0  0
  7 21  1  0  0  0  0
  7 22  1  0  0  0  0
  8 10  1  0  0  0  0
  8 23  1  0  0  0  0
  8 24  1  0  0  0  0
  9 25  1  0  0  0  0
  9 26  1  0  0  0  0
 11 12  1  0  0  0  0
 11 27  1  0  0  0  0
 11 28  1  0  0  0  0
 12 14  2  0  0  0  0
 13 15  2  0  0  0  0
 13 16  1  0  0  0  0
 14 17  1  0  0  0  0
 14 30  1  0  0  0  0
 15 18  1  0  0  0  0
 15 32  1  0  0  0  0
 16 19  2  0  0  0  0
 16 33  1  0  0  0  0
 17 34  1  0  0  0  0
 18 20  2  0  0  0  0
 18 35  1  0  0  0  0
 19 20  1  0  0  0  0
 19 36  1  0  0  0  0
M  END
> <PUBCHEM_COMPOUND_CID>
47205104

> <PUBCHEM_COMPOUND_CANONICALIZED>
1

> <PUBCHEM_CACTVS_COMPLEXITY>
296

> <PUBCHEM_CACTVS_HBOND_ACCEPTOR>
4

> <PUBCHEM_CACTVS_HBOND_DONOR>
2

> <PUBCHEM_CACTVS_ROTATABLE_BOND>
7

> <PUBCHEM_CACTVS_SUBSKEYS>
AAADceBzMQAAAAAAAAAAAAAAAAAAAWAAAAAwAAAAAAAAAAABwAAAHwAYAAAACAzhlg48hpLjBACqATV3UACSDAAgogAYuaE+bJgMZrKE8duWvCjk3hGI6AeiQAAAAAAAAAAAAAAAAAAAAAAAAAAAAAAAAA==

> <PUBCHEM_IUPAC_OPENEYE_NAME>
4-(4-fluorophenoxy)-N-(1H-pyrazol-5-ylmethyl)butanamide

> <PUBCHEM_IUPAC_CAS_NAME>
4-(4-fluorophenoxy)-N-(1H-pyrazol-5-ylmethyl)butanamide

> <PUBCHEM_IUPAC_NAME>
4-(4-fluorophenoxy)-N-(1H-pyrazol-5-ylmethyl)butanamide

> <PUBCHEM_IUPAC_SYSTEMATIC_NAME>
4-(4-fluoranylphenoxy)-N-(1H-pyrazol-5-ylmethyl)butanamide

> <PUBCHEM_IUPAC_TRADITIONAL_NAME>
4-(4-fluorophenoxy)-N-(1H-pyrazol-5-ylmethyl)butyramide

> <PUBCHEM_IUPAC_INCHI>
InChI=1S/C14H16FN3O2/c15-11-3-5-13(6-4-11)20-9-1-2-14(19)16-10-12-7-8-17-18-12/h3-8H,1-2,9-10H2,(H,16,19)(H,17,18)

> <PUBCHEM_IUPAC_INCHIKEY>
YEUGIOVKYVCTGF-UHFFFAOYSA-N

> <PUBCHEM_XLOGP3_AA>
1.4

> <PUBCHEM_EXACT_MASS>
277.122655

> <PUBCHEM_MOLECULAR_FORMULA>
C14H16FN3O2

> <PUBCHEM_MOLECULAR_WEIGHT>
277.294143

> <PUBCHEM_OPENEYE_CAN_SMILES>
C1=CC(=CC=C1OCCCC(=O)NCC2=CC=NN2)F

> <PUBCHEM_OPENEYE_ISO_SMILES>
C1=CC(=CC=C1OCCCC(=O)NCC2=CC=NN2)F

> <PUBCHEM_CACTVS_TPSA>
67

> <PUBCHEM_MONOISOTOPIC_WEIGHT>
277.122655

> <PUBCHEM_TOTAL_CHARGE>
0

> <PUBCHEM_HEAVY_ATOM_COUNT>
20

> <PUBCHEM_ATOM_DEF_STEREO_COUNT>
0

> <PUBCHEM_ATOM_UDEF_STEREO_COUNT>
0

> <PUBCHEM_BOND_DEF_STEREO_COUNT>
0

> <PUBCHEM_BOND_UDEF_STEREO_COUNT>
0

> <PUBCHEM_ISOTOPIC_ATOM_COUNT>
0

> <PUBCHEM_COMPONENT_COUNT>
1

> <PUBCHEM_CACTVS_TAUTO_COUNT>
4

> <PUBCHEM_COORDINATE_TYPE>
1
5
255

> <PUBCHEM_BONDANNOTATIONS>
12  14  8
13  15  8
13  16  8
14  17  8
15  18  8
16  19  8
18  20  8
19  20  8
5  12  8
5  6  8
6  17  8

$$$$

