582694
  -OEChem-06241222432D

 30 30  0     0  0  0  0  0  0999 V2000
    2.8090   -0.3396    0.0000 Si  0  0  0  0  0  0  0  0  0  0  0  0
    3.3968    0.4694    0.0000 O   0  0  0  0  0  0  0  0  0  0  0  0
    4.7981   -0.5486    0.0000 O   0  0  0  0  0  0  0  0  0  0  0  0
    2.0000   -0.9274    0.0000 C   0  0  0  0  0  0  0  0  0  0  0  0
    3.6180   -0.9274    0.0000 C   0  0  0  0  0  0  0  0  0  0  0  0
    2.3090   -1.8784    0.0000 C   0  0  0  0  0  0  0  0  0  0  0  0
    3.3090   -1.8784    0.0000 C   0  0  0  0  0  0  0  0  0  0  0  0
    2.2212    0.4694    0.0000 C   0  0  0  0  0  0  0  0  0  0  0  0
    4.3913    0.3649    0.0000 C   0  0  0  0  0  0  0  0  0  0  0  0
    4.9791    1.1739    0.0000 C   0  0  0  0  0  0  0  0  0  0  0  0
    5.9736    1.0694    0.0000 C   0  0  0  0  0  0  0  0  0  0  0  0
    6.5614    1.8784    0.0000 C   0  0  0  0  0  0  0  0  0  0  0  0
    1.6900   -0.3904    0.0000 H   0  0  0  0  0  0  0  0  0  0  0  0
    1.4336   -1.1795    0.0000 H   0  0  0  0  0  0  0  0  0  0  0  0
    4.1844   -1.1795    0.0000 H   0  0  0  0  0  0  0  0  0  0  0  0
    3.9280   -0.3904    0.0000 H   0  0  0  0  0  0  0  0  0  0  0  0
    1.7026   -2.0073    0.0000 H   0  0  0  0  0  0  0  0  0  0  0  0
    2.3738   -2.4950    0.0000 H   0  0  0  0  0  0  0  0  0  0  0  0
    3.2442   -2.4950    0.0000 H   0  0  0  0  0  0  0  0  0  0  0  0
    3.9155   -2.0073    0.0000 H   0  0  0  0  0  0  0  0  0  0  0  0
    2.7228    0.8339    0.0000 H   0  0  0  0  0  0  0  0  0  0  0  0
    1.8568    0.9710    0.0000 H   0  0  0  0  0  0  0  0  0  0  0  0
    1.7196    0.1050    0.0000 H   0  0  0  0  0  0  0  0  0  0  0  0
    5.1500    1.7699    0.0000 H   0  0  0  0  0  0  0  0  0  0  0  0
    4.4219    1.4457    0.0000 H   0  0  0  0  0  0  0  0  0  0  0  0
    5.8027    0.4734    0.0000 H   0  0  0  0  0  0  0  0  0  0  0  0
    6.5309    0.7976    0.0000 H   0  0  0  0  0  0  0  0  0  0  0  0
    7.0630    1.5140    0.0000 H   0  0  0  0  0  0  0  0  0  0  0  0
    6.9258    2.3800    0.0000 H   0  0  0  0  0  0  0  0  0  0  0  0
    6.0598    2.2428    0.0000 H   0  0  0  0  0  0  0  0  0  0  0  0
  1  2  1  0  0  0  0
  1  4  1  0  0  0  0
  1  5  1  0  0  0  0
  1  8  1  0  0  0  0
  2  9  1  0  0  0  0
  3  9  2  0  0  0  0
  4  6  1  0  0  0  0
  4 13  1  0  0  0  0
  4 14  1  0  0  0  0
  5  7  1  0  0  0  0
  5 15  1  0  0  0  0
  5 16  1  0  0  0  0
  6  7  1  0  0  0  0
  6 17  1  0  0  0  0
  6 18  1  0  0  0  0
  7 19  1  0  0  0  0
  7 20  1  0  0  0  0
  8 21  1  0  0  0  0
  8 22  1  0  0  0  0
  8 23  1  0  0  0  0
  9 10  1  0  0  0  0
 10 11  1  0  0  0  0
 10 24  1  0  0  0  0
 10 25  1  0  0  0  0
 11 12  1  0  0  0  0
 11 26  1  0  0  0  0
 11 27  1  0  0  0  0
 12 28  1  0  0  0  0
 12 29  1  0  0  0  0
 12 30  1  0  0  0  0
M  END
> <PUBCHEM_COMPOUND_CID>
582694

> <PUBCHEM_COMPOUND_CANONICALIZED>
1

> <PUBCHEM_CACTVS_COMPLEXITY>
162

> <PUBCHEM_CACTVS_HBOND_ACCEPTOR>
2

> <PUBCHEM_CACTVS_HBOND_DONOR>
0

> <PUBCHEM_CACTVS_ROTATABLE_BOND>
4

> <PUBCHEM_CACTVS_SUBSKEYS>
AAADceBwMAgAAAAAAAAAAAAAAAAAASAAAAAAAAAAAAAAAAAAAAAAGhAAAEAACACAoABCCAAAAAEIAACQCAAAAAAAAAAAAAEAAAAAABAAAAAAAAAEAAAAAAAAAAAAAAAAAAAAAAAAAAAAAAAAAAAAAAAAAA==

> <PUBCHEM_IUPAC_OPENEYE_NAME>
(1-methylsilolan-1-yl) butanoate

> <PUBCHEM_IUPAC_CAS_NAME>
butanoic acid (1-methyl-1-silolanyl) ester

> <PUBCHEM_IUPAC_NAME>
(1-methylsilolan-1-yl) butanoate

> <PUBCHEM_IUPAC_SYSTEMATIC_NAME>
(1-methylsilolan-1-yl) butanoate

> <PUBCHEM_IUPAC_TRADITIONAL_NAME>
butyric acid (1-methylsilolan-1-yl) ester

> <PUBCHEM_IUPAC_INCHI>
InChI=1S/C9H18O2Si/c1-3-6-9(10)11-12(2)7-4-5-8-12/h3-8H2,1-2H3

> <PUBCHEM_IUPAC_INCHIKEY>
XPGYVBWKLQPZTO-UHFFFAOYSA-N

> <PUBCHEM_EXACT_MASS>
186.107606

> <PUBCHEM_MOLECULAR_FORMULA>
C9H18O2Si

> <PUBCHEM_MOLECULAR_WEIGHT>
186.32352

> <PUBCHEM_OPENEYE_CAN_SMILES>
CCCC(=O)O[Si]1(CCCC1)C

> <PUBCHEM_OPENEYE_ISO_SMILES>
CCCC(=O)O[Si]1(CCCC1)C

> <PUBCHEM_CACTVS_TPSA>
26.3

> <PUBCHEM_MONOISOTOPIC_WEIGHT>
186.107606

> <PUBCHEM_TOTAL_CHARGE>
0

> <PUBCHEM_HEAVY_ATOM_COUNT>
12

> <PUBCHEM_ATOM_DEF_STEREO_COUNT>
0

> <PUBCHEM_ATOM_UDEF_STEREO_COUNT>
0

> <PUBCHEM_BOND_DEF_STEREO_COUNT>
0

> <PUBCHEM_BOND_UDEF_STEREO_COUNT>
0

> <PUBCHEM_ISOTOPIC_ATOM_COUNT>
0

> <PUBCHEM_COMPONENT_COUNT>
1

> <PUBCHEM_CACTVS_TAUTO_COUNT>
1

> <PUBCHEM_COORDINATE_TYPE>
1
5
255

$$$$

