6437420
  -OEChem-07051213022D

 93 94  0     1  0  0  0  0  0999 V2000
    7.1962    1.5600    0.0000 O   0  0  0  0  0  0  0  0  0  0  0  0
    8.9282    1.5600    0.0000 O   0  0  0  0  0  0  0  0  0  0  0  0
    7.1962    3.5600    0.0000 O   0  0  0  0  0  0  0  0  0  0  0  0
   10.6603    3.5600    0.0000 O   0  0  0  0  0  0  0  0  0  0  0  0
    5.4641    1.5600    0.0000 O   0  0  0  0  0  0  0  0  0  0  0  0
    3.7320   -1.4400    0.0000 O   0  0  0  0  0  0  0  0  0  0  0  0
   10.6603    0.5600    0.0000 O   0  0  0  0  0  0  0  0  0  0  0  0
    9.7942   -2.9400    0.0000 O   0  0  0  0  0  0  0  0  0  0  0  0
    5.5981   -0.9400    0.0000 O   0  0  0  0  0  0  0  0  0  0  0  0
    3.7320   -4.4400    0.0000 O   0  0  0  0  0  0  0  0  0  0  0  0
    8.9282    4.5600    0.0000 N   0  0  0  0  0  0  0  0  0  0  0  0
    7.1962    0.5600    0.0000 C   0  0  1  0  0  0  0  0  0  0  0  0
    8.0622    0.0600    0.0000 C   0  0  2  0  0  0  0  0  0  0  0  0
    8.9282    3.5600    0.0000 C   0  0  2  0  0  0  0  0  0  0  0  0
    6.3301    0.0600    0.0000 C   0  0  2  0  0  0  0  0  0  0  0  0
    8.0622    3.0600    0.0000 C   0  0  2  0  0  0  0  0  0  0  0  0
    8.0622    2.0600    0.0000 C   0  0  2  0  0  0  0  0  0  0  0  0
    9.7942    3.0600    0.0000 C   0  0  1  0  0  0  0  0  0  0  0  0
    9.7942    2.0600    0.0000 C   0  0  1  0  0  0  0  0  0  0  0  0
    8.0622   -0.9400    0.0000 C   0  0  0  0  0  0  0  0  0  0  0  0
    5.4641    0.5600    0.0000 C   0  0  1  0  0  0  0  0  0  0  0  0
    8.9282    0.5600    0.0000 C   0  0  0  0  0  0  0  0  0  0  0  0
    8.9282   -1.4400    0.0000 C   0  0  1  0  0  0  0  0  0  0  0  0
    6.3301   -0.9400    0.0000 C   0  0  0  0  0  0  0  0  0  0  0  0
   10.6603    1.5600    0.0000 C   0  0  0  0  0  0  0  0  0  0  0  0
    4.5981    0.0600    0.0000 C   0  0  0  0  0  0  0  0  0  0  0  0
    9.7942    5.0600    0.0000 C   0  0  0  0  0  0  0  0  0  0  0  0
    8.0622    5.0600    0.0000 C   0  0  0  0  0  0  0  0  0  0  0  0
    9.9282   -1.4400    0.0000 C   0  0  0  0  0  0  0  0  0  0  0  0
    9.7942    0.0600    0.0000 C   0  0  0  0  0  0  0  0  0  0  0  0
    8.9282   -2.4400    0.0000 C   0  0  0  0  0  0  0  0  0  0  0  0
    4.5981   -0.9400    0.0000 C   0  0  0  0  0  0  0  0  0  0  0  0
    3.7320   -2.4400    0.0000 C   0  0  1  0  0  0  0  0  0  0  0  0
    8.0622   -2.9400    0.0000 C   0  0  0  0  0  0  0  0  0  0  0  0
    4.5981   -2.9400    0.0000 C   0  0  2  0  0  0  0  0  0  0  0  0
    2.8660   -2.9400    0.0000 C   0  0  0  0  0  0  0  0  0  0  0  0
    7.1962   -2.4400    0.0000 C   0  0  0  0  0  0  0  0  0  0  0  0
    5.4641   -2.4400    0.0000 C   0  0  0  0  0  0  0  0  0  0  0  0
    6.3301   -2.9400    0.0000 C   0  0  0  0  0  0  0  0  0  0  0  0
    4.5981   -3.9400    0.0000 C   0  0  0  0  0  0  0  0  0  0  0  0
    2.0000   -2.4400    0.0000 C   0  0  0  0  0  0  0  0  0  0  0  0
    6.3301   -3.9400    0.0000 C   0  0  0  0  0  0  0  0  0  0  0  0
    6.6592    0.8700    0.0000 H   0  0  0  0  0  0  0  0  0  0  0  0
    8.0622    0.6800    0.0000 H   0  0  0  0  0  0  0  0  0  0  0  0
    9.4651    3.8700    0.0000 H   0  0  0  0  0  0  0  0  0  0  0  0
    6.8671   -0.2500    0.0000 H   0  0  0  0  0  0  0  0  0  0  0  0
    8.0622    3.6800    0.0000 H   0  0  0  0  0  0  0  0  0  0  0  0
    8.0622    1.4400    0.0000 H   0  0  0  0  0  0  0  0  0  0  0  0
    9.7942    3.6800    0.0000 H   0  0  0  0  0  0  0  0  0  0  0  0
    9.7942    1.4400    0.0000 H   0  0  0  0  0  0  0  0  0  0  0  0
    7.4516   -0.8323    0.0000 H   0  0  0  0  0  0  0  0  0  0  0  0
    7.8501   -1.5226    0.0000 H   0  0  0  0  0  0  0  0  0  0  0  0
    6.0010    0.8700    0.0000 H   0  0  0  0  0  0  0  0  0  0  0  0
    9.3267    1.0350    0.0000 H   0  0  0  0  0  0  0  0  0  0  0  0
    8.5297    1.0350    0.0000 H   0  0  0  0  0  0  0  0  0  0  0  0
    9.0887   -0.8411    0.0000 H   0  0  0  0  0  0  0  0  0  0  0  0
    5.7101   -0.9400    0.0000 H   0  0  0  0  0  0  0  0  0  0  0  0
    6.3301   -1.5600    0.0000 H   0  0  0  0  0  0  0  0  0  0  0  0
    6.9501   -0.9400    0.0000 H   0  0  0  0  0  0  0  0  0  0  0  0
   10.3503    1.0231    0.0000 H   0  0  0  0  0  0  0  0  0  0  0  0
   11.1972    1.2500    0.0000 H   0  0  0  0  0  0  0  0  0  0  0  0
   10.9703    2.0969    0.0000 H   0  0  0  0  0  0  0  0  0  0  0  0
    4.3860    0.6426    0.0000 H   0  0  0  0  0  0  0  0  0  0  0  0
    3.9875   -0.0477    0.0000 H   0  0  0  0  0  0  0  0  0  0  0  0
    6.6592    3.2500    0.0000 H   0  0  0  0  0  0  0  0  0  0  0  0
   11.1972    3.2500    0.0000 H   0  0  0  0  0  0  0  0  0  0  0  0
   10.1042    4.5231    0.0000 H   0  0  0  0  0  0  0  0  0  0  0  0
   10.3312    5.3700    0.0000 H   0  0  0  0  0  0  0  0  0  0  0  0
    9.4842    5.5969    0.0000 H   0  0  0  0  0  0  0  0  0  0  0  0
    8.3722    5.5969    0.0000 H   0  0  0  0  0  0  0  0  0  0  0  0
    7.5252    5.3700    0.0000 H   0  0  0  0  0  0  0  0  0  0  0  0
    7.7522    4.5231    0.0000 H   0  0  0  0  0  0  0  0  0  0  0  0
    9.9282   -2.0600    0.0000 H   0  0  0  0  0  0  0  0  0  0  0  0
   10.5482   -1.4400    0.0000 H   0  0  0  0  0  0  0  0  0  0  0  0
    9.9282   -0.8200    0.0000 H   0  0  0  0  0  0  0  0  0  0  0  0
   10.1043   -0.4769    0.0000 H   0  0  0  0  0  0  0  0  0  0  0  0
    4.9272    1.8700    0.0000 H   0  0  0  0  0  0  0  0  0  0  0  0
    3.1951   -2.1300    0.0000 H   0  0  0  0  0  0  0  0  0  0  0  0
    8.0622   -3.5600    0.0000 H   0  0  0  0  0  0  0  0  0  0  0  0
    5.1350   -3.2500    0.0000 H   0  0  0  0  0  0  0  0  0  0  0  0
    2.4675   -3.4150    0.0000 H   0  0  0  0  0  0  0  0  0  0  0  0
    3.2646   -3.4150    0.0000 H   0  0  0  0  0  0  0  0  0  0  0  0
    7.1962   -1.8200    0.0000 H   0  0  0  0  0  0  0  0  0  0  0  0
    5.4641   -1.8200    0.0000 H   0  0  0  0  0  0  0  0  0  0  0  0
    4.8101   -4.5226    0.0000 H   0  0  0  0  0  0  0  0  0  0  0  0
    5.2087   -3.8323    0.0000 H   0  0  0  0  0  0  0  0  0  0  0  0
    2.3100   -1.9031    0.0000 H   0  0  0  0  0  0  0  0  0  0  0  0
    1.4631   -2.1300    0.0000 H   0  0  0  0  0  0  0  0  0  0  0  0
    1.6900   -2.9769    0.0000 H   0  0  0  0  0  0  0  0  0  0  0  0
    5.7101   -3.9400    0.0000 H   0  0  0  0  0  0  0  0  0  0  0  0
    6.3301   -4.5600    0.0000 H   0  0  0  0  0  0  0  0  0  0  0  0
    6.9501   -3.9400    0.0000 H   0  0  0  0  0  0  0  0  0  0  0  0
    3.7320   -5.0600    0.0000 H   0  0  0  0  0  0  0  0  0  0  0  0
 12  1  1  1  0  0  0
 17  1  1  1  0  0  0
  2 17  1  0  0  0  0
  2 19  1  0  0  0  0
 16  3  1  6  0  0  0
  3 65  1  0  0  0  0
 18  4  1  6  0  0  0
  4 66  1  0  0  0  0
 21  5  1  1  0  0  0
  5 77  1  0  0  0  0
  6 32  1  0  0  0  0
  6 33  1  0  0  0  0
  7 30  2  0  0  0  0
  8 31  2  0  0  0  0
  9 32  2  0  0  0  0
 10 40  1  0  0  0  0
 10 93  1  0  0  0  0
 14 11  1  1  0  0  0
 11 27  1  0  0  0  0
 11 28  1  0  0  0  0
 12 13  1  0  0  0  0
 12 15  1  0  0  0  0
 12 43  1  0  0  0  0
 13 20  1  0  0  0  0
 13 22  1  1  0  0  0
 13 44  1  0  0  0  0
 14 16  1  0  0  0  0
 14 18  1  0  0  0  0
 14 45  1  0  0  0  0
 15 21  1  0  0  0  0
 15 24  1  1  0  0  0
 15 46  1  0  0  0  0
 16 17  1  0  0  0  0
 16 47  1  0  0  0  0
 17 48  1  0  0  0  0
 18 19  1  0  0  0  0
 18 49  1  0  0  0  0
 19 25  1  1  0  0  0
 19 50  1  0  0  0  0
 20 23  1  0  0  0  0
 20 51  1  0  0  0  0
 20 52  1  0  0  0  0
 21 26  1  0  0  0  0
 21 53  1  0  0  0  0
 22 30  1  0  0  0  0
 22 54  1  0  0  0  0
 22 55  1  0  0  0  0
 23 29  1  1  0  0  0
 23 31  1  0  0  0  0
 23 56  1  0  0  0  0
 24 57  1  0  0  0  0
 24 58  1  0  0  0  0
 24 59  1  0  0  0  0
 25 60  1  0  0  0  0
 25 61  1  0  0  0  0
 25 62  1  0  0  0  0
 26 32  1  0  0  0  0
 26 63  1  0  0  0  0
 26 64  1  0  0  0  0
 27 67  1  0  0  0  0
 27 68  1  0  0  0  0
 27 69  1  0  0  0  0
 28 70  1  0  0  0  0
 28 71  1  0  0  0  0
 28 72  1  0  0  0  0
 29 73  1  0  0  0  0
 29 74  1  0  0  0  0
 29 75  1  0  0  0  0
 30 76  1  0  0  0  0
 31 34  1  0  0  0  0
 33 35  1  0  0  0  0
 33 36  1  1  0  0  0
 33 78  1  0  0  0  0
 34 37  2  0  0  0  0
 34 79  1  0  0  0  0
 35 38  1  0  0  0  0
 35 40  1  6  0  0  0
 35 80  1  0  0  0  0
 36 41  1  0  0  0  0
 36 81  1  0  0  0  0
 36 82  1  0  0  0  0
 37 39  1  0  0  0  0
 37 83  1  0  0  0  0
 38 39  2  0  0  0  0
 38 84  1  0  0  0  0
 39 42  1  0  0  0  0
 40 85  1  0  0  0  0
 40 86  1  0  0  0  0
 41 87  1  0  0  0  0
 41 88  1  0  0  0  0
 41 89  1  0  0  0  0
 42 90  1  0  0  0  0
 42 91  1  0  0  0  0
 42 92  1  0  0  0  0
M  END
> <PUBCHEM_COMPOUND_CID>
6437420

> <PUBCHEM_COMPOUND_CANONICALIZED>
1

> <PUBCHEM_CACTVS_COMPLEXITY>
952

> <PUBCHEM_CACTVS_HBOND_ACCEPTOR>
11

> <PUBCHEM_CACTVS_HBOND_DONOR>
4

> <PUBCHEM_CACTVS_ROTATABLE_BOND>
7

> <PUBCHEM_CACTVS_SUBSKEYS>
AAADcfB6PAAAAAAAAAAAAAAAAAAAAAAAAAAkAAAAAAAAAAAAAAAAHgAACAAADTzxgAcCCAMABgCIAqjSiAAAAAAgAAAICAEIAEgbEBYAgQAmQAAH4AAfgYPK7OzOAAAAAAAAAAAAAAAAAAAAAAAAAAAAAA==

> <PUBCHEM_IUPAC_OPENEYE_NAME>
2-[(4R,5S,6S,7R,9R,11E,13E,15R,16R)-6-[(2R,3R,4S,5S,6R)-4-(dimethylamino)-3,5-dihydroxy-6-methyl-tetrahydropyran-2-yl]oxy-16-ethyl-4-hydroxy-15-(hydroxymethyl)-5,9,13-trimethyl-2,10-dioxo-1-oxacyclohexadeca-11,13-dien-7-yl]acetaldehyde

> <PUBCHEM_IUPAC_CAS_NAME>
2-[(4R,5S,6S,7R,9R,11E,13E,15R,16R)-6-[[(2R,3R,4S,5S,6R)-4-(dimethylamino)-3,5-dihydroxy-6-methyl-2-oxanyl]oxy]-16-ethyl-4-hydroxy-15-(hydroxymethyl)-5,9,13-trimethyl-2,10-dioxo-1-oxacyclohexadeca-11,13-dien-7-yl]acetaldehyde

> <PUBCHEM_IUPAC_NAME>
2-[(4R,5S,6S,7R,9R,11E,13E,15R,16R)-6-[(2R,3R,4S,5S,6R)-4-(dimethylamino)-3,5-dihydroxy-6-methyloxan-2-yl]oxy-16-ethyl-4-hydroxy-15-(hydroxymethyl)-5,9,13-trimethyl-2,10-dioxo-1-oxacyclohexadeca-11,13-dien-7-yl]acetaldehyde

> <PUBCHEM_IUPAC_SYSTEMATIC_NAME>
2-[(4R,5S,6S,7R,9R,11E,13E,15R,16R)-6-[(2R,3R,4S,5S,6R)-4-(dimethylamino)-6-methyl-3,5-bis(oxidanyl)oxan-2-yl]oxy-16-ethyl-15-(hydroxymethyl)-5,9,13-trimethyl-4-oxidanyl-2,10-bis(oxidanylidene)-1-oxacyclohexadeca-11,13-dien-7-yl]ethanal

> <PUBCHEM_IUPAC_TRADITIONAL_NAME>
2-[(4R,5S,6S,7R,9R,11E,13E,15R,16R)-6-[(2R,3R,4S,5S,6R)-4-(dimethylamino)-3,5-dihydroxy-6-methyl-tetrahydropyran-2-yl]oxy-16-ethyl-4-hydroxy-2,10-diketo-5,9,13-trimethyl-15-methylol-1-oxacyclohexadeca-11,13-dien-7-yl]acetaldehyde

> <PUBCHEM_IUPAC_INCHI>
InChI=1S/C31H51NO10/c1-8-25-22(16-34)13-17(2)9-10-23(35)18(3)14-21(11-12-33)30(19(4)24(36)15-26(37)41-25)42-31-29(39)27(32(6)7)28(38)20(5)40-31/h9-10,12-13,18-22,24-25,27-31,34,36,38-39H,8,11,14-16H2,1-7H3/b10-9+,17-13+/t18-,19+,20-,21+,22-,24-,25-,27+,28-,29-,30-,31+/m1/s1

> <PUBCHEM_IUPAC_INCHIKEY>
WGUJDBLMJBJUQU-VKRLOHBMSA-N

> <PUBCHEM_XLOGP3_AA>
0.9

> <PUBCHEM_EXACT_MASS>
597.351297

> <PUBCHEM_MOLECULAR_FORMULA>
C31H51NO10

> <PUBCHEM_MOLECULAR_WEIGHT>
597.73734

> <PUBCHEM_OPENEYE_CAN_SMILES>
CCC1C(C=C(C=CC(=O)C(CC(C(C(C(CC(=O)O1)O)C)OC2C(C(C(C(O2)C)O)N(C)C)O)CC=O)C)C)CO

> <PUBCHEM_OPENEYE_ISO_SMILES>
CC[C@@H]1[C@H](/C=C(/C=C/C(=O)[C@@H](C[C@@H]([C@@H]([C@H]([C@@H](CC(=O)O1)O)C)O[C@H]2[C@@H]([C@H]([C@@H]([C@H](O2)C)O)N(C)C)O)CC=O)C)\C)CO

> <PUBCHEM_CACTVS_TPSA>
163

> <PUBCHEM_MONOISOTOPIC_WEIGHT>
597.351297

> <PUBCHEM_TOTAL_CHARGE>
0

> <PUBCHEM_HEAVY_ATOM_COUNT>
42

> <PUBCHEM_ATOM_DEF_STEREO_COUNT>
12

> <PUBCHEM_ATOM_UDEF_STEREO_COUNT>
0

> <PUBCHEM_BOND_DEF_STEREO_COUNT>
2

> <PUBCHEM_BOND_UDEF_STEREO_COUNT>
0

> <PUBCHEM_ISOTOPIC_ATOM_COUNT>
0

> <PUBCHEM_COMPONENT_COUNT>
1

> <PUBCHEM_CACTVS_TAUTO_COUNT>
28

> <PUBCHEM_COORDINATE_TYPE>
1
5
255

> <PUBCHEM_BONDANNOTATIONS>
12  1  5
17  1  5
14  11  5
13  22  5
15  24  5
19  25  5
23  29  5
16  3  6
33  36  5
35  40  6
18  4  6
21  5  5

$$$$

