582794
  -OEChem-06241222442D

 54 57  0     1  0  0  0  0  0999 V2000
    4.6318    0.0458    0.0000 O   0  0  0  0  0  0  0  0  0  0  0  0
    3.3426   -1.1110    0.0000 O   0  0  0  0  0  0  0  0  0  0  0  0
    4.2746    1.7406    0.0000 O   0  0  0  0  0  0  0  0  0  0  0  0
    3.2495    4.1797    0.0000 O   0  5  0  0  0  0  0  0  0  0  0  0
    3.6067    2.4849    0.0000 O   0  0  0  0  0  0  0  0  0  0  0  0
    4.6783   -4.2090    0.0000 N   0  0  0  0  0  0  0  0  0  0  0  0
    5.6103    0.2520    0.0000 N   0  0  0  0  0  0  0  0  0  0  0  0
    5.9209    1.2025    0.0000 N   0  0  0  0  0  0  0  0  0  0  0  0
    3.9174    3.4354    0.0000 N   0  3  0  0  0  0  0  0  0  0  0  0
    4.9889   -1.6491    0.0000 C   0  0  3  0  0  0  0  0  0  0  0  0
    4.6783   -2.5996    0.0000 C   0  0  0  0  0  0  0  0  0  0  0  0
    5.9674   -1.4428    0.0000 C   0  0  0  0  0  0  0  0  0  0  0  0
    3.7321   -2.9043    0.0000 C   0  0  0  0  0  0  0  0  0  0  0  0
    3.7321   -3.9043    0.0000 C   0  0  0  0  0  0  0  0  0  0  0  0
    5.2619   -3.4043    0.0000 C   0  0  0  0  0  0  0  0  0  0  0  0
    6.2781   -0.4923    0.0000 C   0  0  0  0  0  0  0  0  0  0  0  0
    4.3211   -0.9048    0.0000 C   0  0  0  0  0  0  0  0  0  0  0  0
    2.8660   -2.4043    0.0000 C   0  0  0  0  0  0  0  0  0  0  0  0
    2.8660   -4.4043    0.0000 C   0  0  0  0  0  0  0  0  0  0  0  0
    7.2566   -0.2861    0.0000 C   0  0  0  0  0  0  0  0  0  0  0  0
    2.0000   -2.9043    0.0000 C   0  0  0  0  0  0  0  0  0  0  0  0
    2.0000   -3.9043    0.0000 C   0  0  0  0  0  0  0  0  0  0  0  0
    7.5673    0.6644    0.0000 C   0  0  0  0  0  0  0  0  0  0  0  0
    7.9245   -1.0304    0.0000 C   0  0  0  0  0  0  0  0  0  0  0  0
    8.5458    0.8706    0.0000 C   0  0  0  0  0  0  0  0  0  0  0  0
    8.9030   -0.8242    0.0000 C   0  0  0  0  0  0  0  0  0  0  0  0
    9.2136    0.1263    0.0000 C   0  0  0  0  0  0  0  0  0  0  0  0
    5.2531    1.9468    0.0000 C   0  0  0  0  0  0  0  0  0  0  0  0
    5.5637    2.8973    0.0000 C   0  0  0  0  0  0  0  0  0  0  0  0
    4.8959    3.6416    0.0000 C   0  0  0  0  0  0  0  0  0  0  0  0
    6.5422    3.1035    0.0000 C   0  0  0  0  0  0  0  0  0  0  0  0
    5.2066    4.5921    0.0000 C   0  0  0  0  0  0  0  0  0  0  0  0
    6.8529    4.0541    0.0000 C   0  0  0  0  0  0  0  0  0  0  0  0
    6.1851    4.7984    0.0000 C   0  0  0  0  0  0  0  0  0  0  0  0
    5.1815   -1.0597    0.0000 H   0  0  0  0  0  0  0  0  0  0  0  0
    5.9880   -2.0625    0.0000 H   0  0  0  0  0  0  0  0  0  0  0  0
    6.5813   -1.5302    0.0000 H   0  0  0  0  0  0  0  0  0  0  0  0
    5.8819   -3.4043    0.0000 H   0  0  0  0  0  0  0  0  0  0  0  0
    4.8709   -4.7984    0.0000 H   0  0  0  0  0  0  0  0  0  0  0  0
    2.8660   -1.7843    0.0000 H   0  0  0  0  0  0  0  0  0  0  0  0
    2.8660   -5.0243    0.0000 H   0  0  0  0  0  0  0  0  0  0  0  0
    1.4631   -2.5943    0.0000 H   0  0  0  0  0  0  0  0  0  0  0  0
    1.4631   -4.2143    0.0000 H   0  0  0  0  0  0  0  0  0  0  0  0
    7.1532    1.1259    0.0000 H   0  0  0  0  0  0  0  0  0  0  0  0
    7.7318   -1.6197    0.0000 H   0  0  0  0  0  0  0  0  0  0  0  0
    4.2177    0.5072    0.0000 H   0  0  0  0  0  0  0  0  0  0  0  0
    6.5276    1.3304    0.0000 H   0  0  0  0  0  0  0  0  0  0  0  0
    8.7384    1.4600    0.0000 H   0  0  0  0  0  0  0  0  0  0  0  0
    9.3170   -1.2857    0.0000 H   0  0  0  0  0  0  0  0  0  0  0  0
    9.8203    0.2542    0.0000 H   0  0  0  0  0  0  0  0  0  0  0  0
    6.9563    2.6421    0.0000 H   0  0  0  0  0  0  0  0  0  0  0  0
    4.7925    5.0536    0.0000 H   0  0  0  0  0  0  0  0  0  0  0  0
    7.4596    4.1819    0.0000 H   0  0  0  0  0  0  0  0  0  0  0  0
    6.3777    5.3877    0.0000 H   0  0  0  0  0  0  0  0  0  0  0  0
  1 17  1  0  0  0  0
  1 46  1  0  0  0  0
  2 17  2  0  0  0  0
  3 28  2  0  0  0  0
  4  9  1  0  0  0  0
  5  9  2  0  0  0  0
  6 14  1  0  0  0  0
  6 15  1  0  0  0  0
  6 39  1  0  0  0  0
  7  8  1  0  0  0  0
  7 16  2  3  0  0  0
  8 28  1  0  0  0  0
  8 47  1  0  0  0  0
  9 30  1  0  0  0  0
 10 11  1  0  0  0  0
 10 12  1  0  0  0  0
 10 17  1  0  0  0  0
 10 35  1  0  0  0  0
 11 13  1  0  0  0  0
 11 15  2  0  0  0  0
 12 16  1  0  0  0  0
 12 36  1  0  0  0  0
 12 37  1  0  0  0  0
 13 14  1  0  0  0  0
 13 18  2  0  0  0  0
 14 19  2  0  0  0  0
 15 38  1  0  0  0  0
 16 20  1  0  0  0  0
 18 21  1  0  0  0  0
 18 40  1  0  0  0  0
 19 22  1  0  0  0  0
 19 41  1  0  0  0  0
 20 23  2  0  0  0  0
 20 24  1  0  0  0  0
 21 22  2  0  0  0  0
 21 42  1  0  0  0  0
 22 43  1  0  0  0  0
 23 25  1  0  0  0  0
 23 44  1  0  0  0  0
 24 26  2  0  0  0  0
 24 45  1  0  0  0  0
 25 27  2  0  0  0  0
 25 48  1  0  0  0  0
 26 27  1  0  0  0  0
 26 49  1  0  0  0  0
 27 50  1  0  0  0  0
 28 29  1  0  0  0  0
 29 30  1  0  0  0  0
 29 31  2  0  0  0  0
 30 32  2  0  0  0  0
 31 33  1  0  0  0  0
 31 51  1  0  0  0  0
 32 34  1  0  0  0  0
 32 52  1  0  0  0  0
 33 34  2  0  0  0  0
 33 53  1  0  0  0  0
 34 54  1  0  0  0  0
M  CHG  2   4  -1   9   1
M  END
> <PUBCHEM_COMPOUND_CID>
582794

> <PUBCHEM_COMPOUND_CANONICALIZED>
1

> <PUBCHEM_CACTVS_COMPLEXITY>
776

> <PUBCHEM_CACTVS_HBOND_ACCEPTOR>
6

> <PUBCHEM_CACTVS_HBOND_DONOR>
3

> <PUBCHEM_CACTVS_ROTATABLE_BOND>
7

> <PUBCHEM_CACTVS_SUBSKEYS>
AAADceB7uAAAAAAAAAAAAAAAAAAAAWAAAAAwYMAAAAAAAFgB9AAAHgAcCAAADQjBngQ8yPL70gCpAzX3XwCSgCA1AiA62aE4ZNoIIPrA1ZGEYYhk2AHIyce82fOegAAAAAACAAAAAAAAAAQAAAAAAAAAAA==

> <PUBCHEM_IUPAC_OPENEYE_NAME>
2-(1H-indol-3-yl)-4-[(2-nitrobenzoyl)hydrazono]-4-phenyl-butanoic acid

> <PUBCHEM_IUPAC_CAS_NAME>
2-(1H-indol-3-yl)-4-[[(2-nitrophenyl)-oxomethyl]hydrazinylidene]-4-phenylbutanoic acid

> <PUBCHEM_IUPAC_NAME>
2-(1H-indol-3-yl)-4-[(2-nitrobenzoyl)hydrazinylidene]-4-phenylbutanoic acid

> <PUBCHEM_IUPAC_SYSTEMATIC_NAME>
2-(1H-indol-3-yl)-4-[(2-nitrophenyl)carbonylhydrazinylidene]-4-phenyl-butanoic acid

> <PUBCHEM_IUPAC_TRADITIONAL_NAME>
2-(1H-indol-3-yl)-4-[(2-nitrobenzoyl)hydrazono]-4-phenyl-butyric acid

> <PUBCHEM_IUPAC_INCHI>
InChI=1S/C25H20N4O5/c30-24(18-11-5-7-13-23(18)29(33)34)28-27-22(16-8-2-1-3-9-16)14-19(25(31)32)20-15-26-21-12-6-4-10-17(20)21/h1-13,15,19,26H,14H2,(H,28,30)(H,31,32)

> <PUBCHEM_IUPAC_INCHIKEY>
GDHBCFBQFKUSOS-UHFFFAOYSA-N

> <PUBCHEM_XLOGP3_AA>
4.1

> <PUBCHEM_EXACT_MASS>
456.14337

> <PUBCHEM_MOLECULAR_FORMULA>
C25H20N4O5

> <PUBCHEM_MOLECULAR_WEIGHT>
456.4501

> <PUBCHEM_OPENEYE_CAN_SMILES>
C1=CC=C(C=C1)C(=NNC(=O)C2=CC=CC=C2[N+](=O)[O-])CC(C3=CNC4=CC=CC=C43)C(=O)O

> <PUBCHEM_OPENEYE_ISO_SMILES>
C1=CC=C(C=C1)C(=NNC(=O)C2=CC=CC=C2[N+](=O)[O-])CC(C3=CNC4=CC=CC=C43)C(=O)O

> <PUBCHEM_CACTVS_TPSA>
140

> <PUBCHEM_MONOISOTOPIC_WEIGHT>
456.14337

> <PUBCHEM_TOTAL_CHARGE>
0

> <PUBCHEM_HEAVY_ATOM_COUNT>
34

> <PUBCHEM_ATOM_DEF_STEREO_COUNT>
0

> <PUBCHEM_ATOM_UDEF_STEREO_COUNT>
1

> <PUBCHEM_BOND_DEF_STEREO_COUNT>
0

> <PUBCHEM_BOND_UDEF_STEREO_COUNT>
1

> <PUBCHEM_ISOTOPIC_ATOM_COUNT>
0

> <PUBCHEM_COMPONENT_COUNT>
1

> <PUBCHEM_CACTVS_TAUTO_COUNT>
2

> <PUBCHEM_COORDINATE_TYPE>
1
5
255

> <PUBCHEM_BONDANNOTATIONS>
10  35  3
11  13  8
11  15  8
13  14  8
13  18  8
14  19  8
18  21  8
19  22  8
20  23  8
20  24  8
21  22  8
23  25  8
24  26  8
25  27  8
26  27  8
29  30  8
29  31  8
30  32  8
31  33  8
32  34  8
33  34  8
6  14  8
6  15  8
7  16  1

$$$$

