25893
  -OEChem-07051213053D

 33 37  0     0  0  0  0  0  0999 V2000
   -5.8393   -0.3540   -0.0009 O   0  0  0  0  0  0  0  0  0  0  0  0
    0.5906   -0.1982   -0.0001 C   0  0  0  0  0  0  0  0  0  0  0  0
    1.9943    0.0385   -0.0001 C   0  0  0  0  0  0  0  0  0  0  0  0
   -0.3332    0.8809   -0.0001 C   0  0  0  0  0  0  0  0  0  0  0  0
    0.1249   -1.5308    0.0000 C   0  0  0  0  0  0  0  0  0  0  0  0
   -1.7447    0.6049    0.0000 C   0  0  0  0  0  0  0  0  0  0  0  0
    2.4919    1.3594   -0.0001 C   0  0  0  0  0  0  0  0  0  0  0  0
    2.9062   -1.0452    0.0000 C   0  0  0  0  0  0  0  0  0  0  0  0
   -2.1843   -0.7422   -0.0001 C   0  0  0  0  0  0  0  0  0  0  0  0
   -1.2497   -1.7828   -0.0001 C   0  0  0  0  0  0  0  0  0  0  0  0
    0.2112    2.1856    0.0000 C   0  0  0  0  0  0  0  0  0  0  0  0
    1.0406   -2.5918    0.0002 C   0  0  0  0  0  0  0  0  0  0  0  0
    1.5885    2.4215   -0.0001 C   0  0  0  0  0  0  0  0  0  0  0  0
    2.4134   -2.3531    0.0001 C   0  0  0  0  0  0  0  0  0  0  0  0
    3.8769    1.5838   -0.0001 C   0  0  0  0  0  0  0  0  0  0  0  0
    4.2860   -0.7933    0.0000 C   0  0  0  0  0  0  0  0  0  0  0  0
   -2.7529    1.6025    0.0003 C   0  0  0  0  0  0  0  0  0  0  0  0
   -3.5570   -1.0466    0.0001 C   0  0  0  0  0  0  0  0  0  0  0  0
    4.7673    0.5134   -0.0001 C   0  0  0  0  0  0  0  0  0  0  0  0
   -4.1142    1.2868    0.0005 C   0  0  0  0  0  0  0  0  0  0  0  0
   -4.5165   -0.0392    0.0004 C   0  0  0  0  0  0  0  0  0  0  0  0
   -1.6002   -2.8156   -0.0001 H   0  0  0  0  0  0  0  0  0  0  0  0
   -0.4304    3.0631    0.0001 H   0  0  0  0  0  0  0  0  0  0  0  0
    0.6929   -3.6232    0.0004 H   0  0  0  0  0  0  0  0  0  0  0  0
    1.9413    3.4509   -0.0001 H   0  0  0  0  0  0  0  0  0  0  0  0
    3.0926   -3.2031    0.0002 H   0  0  0  0  0  0  0  0  0  0  0  0
    4.2744    2.5965   -0.0002 H   0  0  0  0  0  0  0  0  0  0  0  0
    4.9997   -1.6145    0.0002 H   0  0  0  0  0  0  0  0  0  0  0  0
   -2.4982    2.6592    0.0003 H   0  0  0  0  0  0  0  0  0  0  0  0
   -3.8804   -2.0868   -0.0002 H   0  0  0  0  0  0  0  0  0  0  0  0
    5.8377    0.6976    0.0000 H   0  0  0  0  0  0  0  0  0  0  0  0
   -4.8503    2.0860    0.0005 H   0  0  0  0  0  0  0  0  0  0  0  0
   -5.9342   -1.3220   -0.0012 H   0  0  0  0  0  0  0  0  0  0  0  0
  1 21  1  0  0  0  0
  1 33  1  0  0  0  0
  2  3  1  0  0  0  0
  2  4  2  0  0  0  0
  2  5  1  0  0  0  0
  3  7  1  0  0  0  0
  3  8  2  0  0  0  0
  4  6  1  0  0  0  0
  4 11  1  0  0  0  0
  5 10  2  0  0  0  0
  5 12  1  0  0  0  0
  6  9  2  0  0  0  0
  6 17  1  0  0  0  0
  7 13  1  0  0  0  0
  7 15  2  0  0  0  0
  8 14  1  0  0  0  0
  8 16  1  0  0  0  0
  9 10  1  0  0  0  0
  9 18  1  0  0  0  0
 10 22  1  0  0  0  0
 11 13  2  0  0  0  0
 11 23  1  0  0  0  0
 12 14  2  0  0  0  0
 12 24  1  0  0  0  0
 13 25  1  0  0  0  0
 14 26  1  0  0  0  0
 15 19  1  0  0  0  0
 15 27  1  0  0  0  0
 16 19  2  0  0  0  0
 16 28  1  0  0  0  0
 17 20  2  0  0  0  0
 17 29  1  0  0  0  0
 18 21  2  0  0  0  0
 18 30  1  0  0  0  0
 19 31  1  0  0  0  0
 20 21  1  0  0  0  0
 20 32  1  0  0  0  0
M  END
> <PUBCHEM_COMPOUND_CID>
25893

> <PUBCHEM_CONFORMER_RMSD>
0.6

> <PUBCHEM_CONFORMER_DIVERSEORDER>
1

> <PUBCHEM_MMFF94_PARTIAL_CHARGES>
25
1 -0.53
10 -0.15
11 -0.15
12 -0.15
13 -0.15
14 -0.15
15 -0.15
16 -0.15
17 -0.15
18 -0.15
19 -0.15
20 -0.15
21 0.08
22 0.15
23 0.15
24 0.15
25 0.15
26 0.15
27 0.15
28 0.15
29 0.15
30 0.15
31 0.15
32 0.15
33 0.45

> <PUBCHEM_EFFECTIVE_ROTOR_COUNT>
0

> <PUBCHEM_PHARMACOPHORE_FEATURES>
6
1 1 donor
6 2 3 4 7 11 13 rings
6 2 3 5 8 12 14 rings
6 2 4 5 6 9 10 rings
6 3 7 8 15 16 19 rings
6 6 9 17 18 20 21 rings

> <PUBCHEM_HEAVY_ATOM_COUNT>
21

> <PUBCHEM_ATOM_DEF_STEREO_COUNT>
0

> <PUBCHEM_ATOM_UDEF_STEREO_COUNT>
0

> <PUBCHEM_BOND_DEF_STEREO_COUNT>
0

> <PUBCHEM_BOND_UDEF_STEREO_COUNT>
0

> <PUBCHEM_ISOTOPIC_ATOM_COUNT>
0

> <PUBCHEM_COMPONENT_COUNT>
1

> <PUBCHEM_CACTVS_TAUTO_COUNT>
3

> <PUBCHEM_CONFORMER_ID>
0000652500000001

> <PUBCHEM_MMFF94_ENERGY>
76.422

> <PUBCHEM_FEATURE_SELFOVERLAP>
30.598

> <PUBCHEM_SHAPE_FINGERPRINT>
10411042 1 17257652747308324079
10616163 171 18337952281751521351
10906281 52 18340750590789610944
10967382 1 18410856572878145318
1100329 8 18337393712806660146
11471102 20 18410858758684176710
11578080 2 16914830390069972230
12011746 2 18411415116179316478
12107183 9 17614838943671367641
12236239 1 17749388170258631715
12592029 89 18412543214787765410
12838862 33 18338254686415056208
13132413 78 18408323306377283212
13140716 1 18194686964439218992
138480 1 17978511158927635874
13862211 1 18411141367917661138
14790565 3 18339916009851389572
15196674 1 18410574023822007045
15442244 35 18193274311046152993
15536298 74 18334575763067456302
1601671 61 18411136952596120900
16945 1 17978509728876891556
1813 80 17275383218071261588
19591789 44 18338798918420739278
200 152 18113902658813668705
20028762 73 18187088300100533655
20645477 70 18335701675722297895
20691752 17 17845078739631883073
20905425 154 18192711370025577276
21197605 99 18122054309279327323
21267235 1 18410003364481735526
21279426 13 18266740375179059260
21421861 104 17843124963541277506
221490 88 18412818084342417659
23227448 37 18335422322623163287
2334 1 18338516327205939464
23402539 116 18261118447693268366
23558518 356 17623575250648750418
23559900 14 18192435379859597650
2748010 2 18338513050188194630
3004659 81 18272366504166251574
335352 9 18410855447981888022
33824 294 18411983568006994762
34934 24 18409453570197745174
350125 39 18410290333375894929
3545911 37 18410292501663972653
3680242 22 18270401719125069234
4214541 1 18410855486294007201
474 4 18272368637736264908
484985 159 14681642169144638210
495365 180 17386014910370037072
5104073 3 18339641243496752449
6138700 20 18339076099242758174
7364860 26 18408604772711019207
8272917 22 18408317808871839871
9709674 26 18410568496357930831
9981440 41 17331122693838380736

> <PUBCHEM_SHAPE_MULTIPOLES>
426.3
9.1
2.63
0.61
5.6
0.23
0
-0.76
0
-1.23
0
-0.03
0
0

> <PUBCHEM_SHAPE_SELFOVERLAP>
1004.763

> <PUBCHEM_SHAPE_VOLUME>
216.3

> <PUBCHEM_COORDINATE_TYPE>
2
5
10

$$$$

