275528
  -OEChem-07051212572D

 51 53  0     1  0  0  0  0  0999 V2000
    4.6660   -2.6296    0.0000 O   0  0  0  0  0  0  0  0  0  0  0  0
    3.7782    1.9018    0.0000 O   0  0  0  0  0  0  0  0  0  0  0  0
    5.5442    2.9396    0.0000 O   0  0  0  0  0  0  0  0  0  0  0  0
    3.8000   -1.1296    0.0000 C   0  0  2  0  0  0  0  0  0  0  0  0
    3.8000   -0.1296    0.0000 C   0  0  2  0  0  0  0  0  0  0  0  0
    2.9061   -1.6643    0.0000 C   0  0  0  0  0  0  0  0  0  0  0  0
    2.9061    0.4050    0.0000 C   0  0  0  0  0  0  0  0  0  0  0  0
    2.0000   -1.1504    0.0000 C   0  0  0  0  0  0  0  0  0  0  0  0
    4.6660   -1.6296    0.0000 C   0  0  2  0  0  0  0  0  0  0  0  0
    2.0000   -0.1088    0.0000 C   0  0  0  0  0  0  0  0  0  0  0  0
    4.6660    0.3704    0.0000 C   0  0  0  0  0  0  0  0  0  0  0  0
    3.8000    0.8704    0.0000 C   0  0  0  0  0  0  0  0  0  0  0  0
    2.4161   -2.5360    0.0000 C   0  0  0  0  0  0  0  0  0  0  0  0
    3.4160   -2.5245    0.0000 C   0  0  0  0  0  0  0  0  0  0  0  0
    5.5321   -0.1296    0.0000 C   0  0  0  0  0  0  0  0  0  0  0  0
    5.5321   -1.1296    0.0000 C   0  0  0  0  0  0  0  0  0  0  0  0
    4.6500    1.4119    0.0000 C   0  0  0  0  0  0  0  0  0  0  0  0
    6.4421    0.3772    0.0000 C   0  0  0  0  0  0  0  0  0  0  0  0
    6.4501    1.4188    0.0000 C   0  0  0  0  0  0  0  0  0  0  0  0
    5.5480    1.9396    0.0000 C   0  0  0  0  0  0  0  0  0  0  0  0
    7.3180    1.9155    0.0000 C   0  0  0  0  0  0  0  0  0  0  0  0
    8.1821    1.4121    0.0000 C   0  0  0  0  0  0  0  0  0  0  0  0
    7.3219    2.9155    0.0000 C   0  0  0  0  0  0  0  0  0  0  0  0
    3.8066   -1.9796    0.0000 H   0  0  0  0  0  0  0  0  0  0  0  0
    3.3107    0.8748    0.0000 H   0  0  0  0  0  0  0  0  0  0  0  0
    2.5124    0.8841    0.0000 H   0  0  0  0  0  0  0  0  0  0  0  0
    1.3891   -1.0443    0.0000 H   0  0  0  0  0  0  0  0  0  0  0  0
    1.7909   -1.7341    0.0000 H   0  0  0  0  0  0  0  0  0  0  0  0
    5.2030   -1.9396    0.0000 H   0  0  0  0  0  0  0  0  0  0  0  0
    1.7909    0.4749    0.0000 H   0  0  0  0  0  0  0  0  0  0  0  0
    1.3891   -0.2149    0.0000 H   0  0  0  0  0  0  0  0  0  0  0  0
    4.4200    0.8704    0.0000 H   0  0  0  0  0  0  0  0  0  0  0  0
    3.8000    1.4904    0.0000 H   0  0  0  0  0  0  0  0  0  0  0  0
    3.1800    0.8704    0.0000 H   0  0  0  0  0  0  0  0  0  0  0  0
    2.8827   -2.8407    0.0000 H   0  0  0  0  0  0  0  0  0  0  0  0
    3.7322   -3.0578    0.0000 H   0  0  0  0  0  0  0  0  0  0  0  0
    1.8756   -2.2323    0.0000 H   0  0  0  0  0  0  0  0  0  0  0  0
    2.1123   -3.0765    0.0000 H   0  0  0  0  0  0  0  0  0  0  0  0
    2.9566   -2.8398    0.0000 H   0  0  0  0  0  0  0  0  0  0  0  0
    3.9494   -2.2083    0.0000 H   0  0  0  0  0  0  0  0  0  0  0  0
    6.0690   -1.4396    0.0000 H   0  0  0  0  0  0  0  0  0  0  0  0
    5.2030   -2.9396    0.0000 H   0  0  0  0  0  0  0  0  0  0  0  0
    6.9754    0.0610    0.0000 H   0  0  0  0  0  0  0  0  0  0  0  0
    7.8562    2.2234    0.0000 H   0  0  0  0  0  0  0  0  0  0  0  0
    3.7711    2.5218    0.0000 H   0  0  0  0  0  0  0  0  0  0  0  0
    7.8701    0.8764    0.0000 H   0  0  0  0  0  0  0  0  0  0  0  0
    8.7179    1.1001    0.0000 H   0  0  0  0  0  0  0  0  0  0  0  0
    8.4942    1.9479    0.0000 H   0  0  0  0  0  0  0  0  0  0  0  0
    7.9419    2.9131    0.0000 H   0  0  0  0  0  0  0  0  0  0  0  0
    7.3243    3.5355    0.0000 H   0  0  0  0  0  0  0  0  0  0  0  0
    6.7019    2.9179    0.0000 H   0  0  0  0  0  0  0  0  0  0  0  0
  9  1  1  6  0  0  0
  1 42  1  0  0  0  0
  2 17  1  0  0  0  0
  2 45  1  0  0  0  0
  3 20  2  0  0  0  0
  4  5  1  0  0  0  0
  4  6  1  0  0  0  0
  4  9  1  0  0  0  0
  4 24  1  6  0  0  0
  5  7  1  0  0  0  0
  5 11  1  0  0  0  0
  5 12  1  1  0  0  0
  6  8  1  0  0  0  0
  6 13  1  0  0  0  0
  6 14  1  0  0  0  0
  7 10  1  0  0  0  0
  7 25  1  0  0  0  0
  7 26  1  0  0  0  0
  8 10  1  0  0  0  0
  8 27  1  0  0  0  0
  8 28  1  0  0  0  0
  9 16  1  0  0  0  0
  9 29  1  0  0  0  0
 10 30  1  0  0  0  0
 10 31  1  0  0  0  0
 11 15  1  0  0  0  0
 11 17  2  0  0  0  0
 12 32  1  0  0  0  0
 12 33  1  0  0  0  0
 12 34  1  0  0  0  0
 13 37  1  0  0  0  0
 13 38  1  0  0  0  0
 13 39  1  0  0  0  0
 14 35  1  0  0  0  0
 14 36  1  0  0  0  0
 14 40  1  0  0  0  0
 15 16  2  0  0  0  0
 15 18  1  0  0  0  0
 16 41  1  0  0  0  0
 17 20  1  0  0  0  0
 18 19  2  0  0  0  0
 18 43  1  0  0  0  0
 19 20  1  0  0  0  0
 19 21  1  0  0  0  0
 21 22  1  0  0  0  0
 21 23  1  0  0  0  0
 21 44  1  0  0  0  0
 22 46  1  0  0  0  0
 22 47  1  0  0  0  0
 22 48  1  0  0  0  0
 23 49  1  0  0  0  0
 23 50  1  0  0  0  0
 23 51  1  0  0  0  0
M  END
> <PUBCHEM_COMPOUND_CID>
275528

> <PUBCHEM_COMPOUND_CANONICALIZED>
1

> <PUBCHEM_CACTVS_COMPLEXITY>
648

> <PUBCHEM_CACTVS_HBOND_ACCEPTOR>
3

> <PUBCHEM_CACTVS_HBOND_DONOR>
2

> <PUBCHEM_CACTVS_ROTATABLE_BOND>
1

> <PUBCHEM_CACTVS_SUBSKEYS>
AAADceB4MAAAAAAAAAAAAAAAAAAAAAAAAAAwQIAAAAAAAACAAAAAGgAACAAADxSggAICAAAAAgCIAqBSAAIAAAAgIAAACAFAAEgIFBIAAQAAUAAEwAAIkYOAwOAPgAAAAAAAAAAAAAQAACAAAAAAAAAAAA==

> <PUBCHEM_IUPAC_OPENEYE_NAME>
(4bS,8aS,9S)-4,9-dihydroxy-2-isopropyl-4b,8,8-trimethyl-6,7,8a,9-tetrahydro-5H-phenanthren-3-one

> <PUBCHEM_IUPAC_CAS_NAME>
(4bS,8aS,9S)-4,9-dihydroxy-4b,8,8-trimethyl-2-propan-2-yl-6,7,8a,9-tetrahydro-5H-phenanthren-3-one

> <PUBCHEM_IUPAC_NAME>
(4bS,8aS,9S)-4,9-dihydroxy-4b,8,8-trimethyl-2-propan-2-yl-6,7,8a,9-tetrahydro-5H-phenanthren-3-one

> <PUBCHEM_IUPAC_SYSTEMATIC_NAME>
(4bS,8aS,9S)-4b,8,8-trimethyl-4,9-bis(oxidanyl)-2-propan-2-yl-6,7,8a,9-tetrahydro-5H-phenanthren-3-one

> <PUBCHEM_IUPAC_TRADITIONAL_NAME>
(4bS,8aS,9S)-4,9-dihydroxy-2-isopropyl-4b,8,8-trimethyl-6,7,8a,9-tetrahydro-5H-phenanthren-3-one

> <PUBCHEM_IUPAC_INCHI>
InChI=1S/C20H28O3/c1-11(2)13-9-12-10-14(21)18-19(3,4)7-6-8-20(18,5)15(12)17(23)16(13)22/h9-11,14,18,21,23H,6-8H2,1-5H3/t14-,18-,20+/m0/s1

> <PUBCHEM_IUPAC_INCHIKEY>
QEAIMIKGLGBTSA-ADLFWFRXSA-N

> <PUBCHEM_XLOGP3_AA>
4.1

> <PUBCHEM_EXACT_MASS>
316.203845

> <PUBCHEM_MOLECULAR_FORMULA>
C20H28O3

> <PUBCHEM_MOLECULAR_WEIGHT>
316.43452

> <PUBCHEM_OPENEYE_CAN_SMILES>
CC(C)C1=CC2=CC(C3C(CCCC3(C2=C(C1=O)O)C)(C)C)O

> <PUBCHEM_OPENEYE_ISO_SMILES>
CC(C)C1=CC2=C[C@@H]([C@@H]3[C@@](C2=C(C1=O)O)(CCCC3(C)C)C)O

> <PUBCHEM_CACTVS_TPSA>
57.5

> <PUBCHEM_MONOISOTOPIC_WEIGHT>
316.203845

> <PUBCHEM_TOTAL_CHARGE>
0

> <PUBCHEM_HEAVY_ATOM_COUNT>
23

> <PUBCHEM_ATOM_DEF_STEREO_COUNT>
3

> <PUBCHEM_ATOM_UDEF_STEREO_COUNT>
0

> <PUBCHEM_BOND_DEF_STEREO_COUNT>
0

> <PUBCHEM_BOND_UDEF_STEREO_COUNT>
0

> <PUBCHEM_ISOTOPIC_ATOM_COUNT>
0

> <PUBCHEM_COMPONENT_COUNT>
1

> <PUBCHEM_CACTVS_TAUTO_COUNT>
25

> <PUBCHEM_COORDINATE_TYPE>
1
5
255

> <PUBCHEM_BONDANNOTATIONS>
9  1  6
4  24  6
5  12  5

$$$$

