4853
  -OEChem-06261200223D

 55 57  0     1  0  0  0  0  0999 V2000
   -0.9999    0.1392    1.8505 O   0  0  0  0  0  0  0  0  0  0  0  0
    3.0154    0.4193   -0.3230 N   0  0  0  0  0  0  0  0  0  0  0  0
   -1.2222   -2.1716   -0.6806 N   0  0  0  0  0  0  0  0  0  0  0  0
    3.2878    0.4544    1.1312 C   0  0  1  0  0  0  0  0  0  0  0  0
    4.2386    0.3119   -1.1470 C   0  0  1  0  0  0  0  0  0  0  0  0
    4.0839   -0.7918    1.5540 C   0  0  0  0  0  0  0  0  0  0  0  0
    5.0525   -0.9323   -0.7409 C   0  0  0  0  0  0  0  0  0  0  0  0
    5.3647   -0.9583    0.7489 C   0  0  0  0  0  0  0  0  0  0  0  0
    2.1347    1.5133   -0.7341 C   0  0  0  0  0  0  0  0  0  0  0  0
    0.8083    1.4410    0.0237 C   0  0  0  0  0  0  0  0  0  0  0  0
    3.9654    1.7389    1.6357 C   0  0  0  0  0  0  0  0  0  0  0  0
    3.9380    0.2102   -2.6506 C   0  0  0  0  0  0  0  0  0  0  0  0
    0.0771    0.1184   -0.2725 C   0  0  0  0  0  0  0  0  0  0  0  0
   -1.2961   -0.0322    0.4513 C   0  0  2  0  0  0  0  0  0  0  0  0
   -2.3237    1.0518    0.0863 C   0  0  0  0  0  0  0  0  0  0  0  0
   -1.8884   -1.4268    0.2019 C   0  0  0  0  0  0  0  0  0  0  0  0
   -2.7874    1.1018   -1.2044 C   0  0  0  0  0  0  0  0  0  0  0  0
   -2.7306    1.9205    1.0678 C   0  0  0  0  0  0  0  0  0  0  0  0
   -3.0166   -1.7706    0.8892 C   0  0  0  0  0  0  0  0  0  0  0  0
   -3.7193    2.0855   -1.5357 C   0  0  0  0  0  0  0  0  0  0  0  0
   -3.6626    2.9041    0.7367 C   0  0  0  0  0  0  0  0  0  0  0  0
   -3.5275   -3.0397    0.6407 C   0  0  0  0  0  0  0  0  0  0  0  0
   -4.1569    2.9865   -0.5651 C   0  0  0  0  0  0  0  0  0  0  0  0
   -1.7482   -3.3982   -0.8963 C   0  0  0  0  0  0  0  0  0  0  0  0
   -2.8872   -3.8753   -0.2678 C   0  0  0  0  0  0  0  0  0  0  0  0
    2.3520    0.3487    1.6894 H   0  0  0  0  0  0  0  0  0  0  0  0
    4.8663    1.2004   -1.0013 H   0  0  0  0  0  0  0  0  0  0  0  0
    3.4572   -1.6828    1.4119 H   0  0  0  0  0  0  0  0  0  0  0  0
    4.3240   -0.7502    2.6232 H   0  0  0  0  0  0  0  0  0  0  0  0
    5.9944   -0.9643   -1.3021 H   0  0  0  0  0  0  0  0  0  0  0  0
    4.4970   -1.8421   -1.0056 H   0  0  0  0  0  0  0  0  0  0  0  0
    6.0739   -0.1595    0.9945 H   0  0  0  0  0  0  0  0  0  0  0  0
    5.8497   -1.9052    1.0112 H   0  0  0  0  0  0  0  0  0  0  0  0
    1.8832    1.4375   -1.7971 H   0  0  0  0  0  0  0  0  0  0  0  0
    2.6017    2.4950   -0.5970 H   0  0  0  0  0  0  0  0  0  0  0  0
    0.1872    2.2693   -0.3413 H   0  0  0  0  0  0  0  0  0  0  0  0
    0.9168    1.6251    1.0959 H   0  0  0  0  0  0  0  0  0  0  0  0
    3.3197    2.6134    1.5108 H   0  0  0  0  0  0  0  0  0  0  0  0
    4.9133    1.9419    1.1292 H   0  0  0  0  0  0  0  0  0  0  0  0
    4.1802    1.6582    2.7075 H   0  0  0  0  0  0  0  0  0  0  0  0
    4.8461   -0.0405   -3.2108 H   0  0  0  0  0  0  0  0  0  0  0  0
    3.5752    1.1587   -3.0586 H   0  0  0  0  0  0  0  0  0  0  0  0
    3.1946   -0.5675   -2.8587 H   0  0  0  0  0  0  0  0  0  0  0  0
    0.7247   -0.7072    0.0509 H   0  0  0  0  0  0  0  0  0  0  0  0
   -0.0495    0.0235   -1.3592 H   0  0  0  0  0  0  0  0  0  0  0  0
   -0.6165   -0.6905    2.1831 H   0  0  0  0  0  0  0  0  0  0  0  0
   -2.4525    0.4096   -1.9702 H   0  0  0  0  0  0  0  0  0  0  0  0
   -2.3761    1.8990    2.0919 H   0  0  0  0  0  0  0  0  0  0  0  0
   -3.5058   -1.1172    1.6013 H   0  0  0  0  0  0  0  0  0  0  0  0
   -4.1034    2.1504   -2.5495 H   0  0  0  0  0  0  0  0  0  0  0  0
   -4.0036    3.6065    1.4918 H   0  0  0  0  0  0  0  0  0  0  0  0
   -4.4221   -3.3777    1.1552 H   0  0  0  0  0  0  0  0  0  0  0  0
   -4.8823    3.7525   -0.8230 H   0  0  0  0  0  0  0  0  0  0  0  0
   -1.2116   -4.0108   -1.6133 H   0  0  0  0  0  0  0  0  0  0  0  0
   -3.2673   -4.8686   -0.4769 H   0  0  0  0  0  0  0  0  0  0  0  0
  1 14  1  0  0  0  0
  1 46  1  0  0  0  0
  2  4  1  0  0  0  0
  2  5  1  0  0  0  0
  2  9  1  0  0  0  0
  3 16  1  0  0  0  0
  3 24  2  0  0  0  0
  4  6  1  0  0  0  0
  4 11  1  0  0  0  0
  4 26  1  0  0  0  0
  5  7  1  0  0  0  0
  5 12  1  0  0  0  0
  5 27  1  0  0  0  0
  6  8  1  0  0  0  0
  6 28  1  0  0  0  0
  6 29  1  0  0  0  0
  7  8  1  0  0  0  0
  7 30  1  0  0  0  0
  7 31  1  0  0  0  0
  8 32  1  0  0  0  0
  8 33  1  0  0  0  0
  9 10  1  0  0  0  0
  9 34  1  0  0  0  0
  9 35  1  0  0  0  0
 10 13  1  0  0  0  0
 10 36  1  0  0  0  0
 10 37  1  0  0  0  0
 11 38  1  0  0  0  0
 11 39  1  0  0  0  0
 11 40  1  0  0  0  0
 12 41  1  0  0  0  0
 12 42  1  0  0  0  0
 12 43  1  0  0  0  0
 13 14  1  0  0  0  0
 13 44  1  0  0  0  0
 13 45  1  0  0  0  0
 14 15  1  0  0  0  0
 14 16  1  0  0  0  0
 15 17  2  0  0  0  0
 15 18  1  0  0  0  0
 16 19  2  0  0  0  0
 17 20  1  0  0  0  0
 17 47  1  0  0  0  0
 18 21  2  0  0  0  0
 18 48  1  0  0  0  0
 19 22  1  0  0  0  0
 19 49  1  0  0  0  0
 20 23  2  0  0  0  0
 20 50  1  0  0  0  0
 21 23  1  0  0  0  0
 21 51  1  0  0  0  0
 22 25  2  0  0  0  0
 22 52  1  0  0  0  0
 23 53  1  0  0  0  0
 24 25  1  0  0  0  0
 24 54  1  0  0  0  0
 25 55  1  0  0  0  0
M  END
> <PUBCHEM_COMPOUND_CID>
4853

> <PUBCHEM_CONFORMER_RMSD>
0.8

> <PUBCHEM_CONFORMER_DIVERSEORDER>
21
230
98
146
34
237
192
171
189
118
239
156
198
35
185
102
92
62
216
23
229
72
212
179
211
14
227
66
172
51
149
99
128
27
162
114
214
158
100
75
175
89
201
127
116
55
142
174
73
219
111
222
232
153
129
159
210
69
215
131
186
101
193
166
135
84
173
243
86
120
160
220
242
188
78
13
240
204
157
168
147
194
196
79
218
53
112
113
177
47
167
2
90
138
236
83
187
80
67
209
9
37
139
180
235
50
155
213
161
87
137
59
28
225
33
76
49
226
191
109
52
25
124
11
24
103
164
203
105
130
60
77
40
70
42
119
224
63
165
123
44
145
88
143
148
144
81
38
68
91
64
95
26
104
17
154
19
3
182
231
82
29
108
36
8
223
132
1
234
183
43
106
107
126
202
97
195
170
205
233
163
32
16
93
39
140
125
10
217
200
4
71
176
169
221
18
12
207
45
228
208
94
22
57
7
134
46
30
56
151
85
238
141
20
181
110
5
65
122
61
58
96
178
117
150
54
197
152
31
206
190
74
136
41
199
241
6
121
115
133
15
184
48

> <PUBCHEM_MMFF94_PARTIAL_CHARGES>
28
1 -0.68
14 0.57
15 -0.14
16 0.17
17 -0.15
18 -0.15
19 -0.15
2 -0.81
20 -0.15
21 -0.15
22 -0.15
23 -0.15
24 0.16
25 -0.15
3 -0.62
4 0.27
46 0.4
47 0.15
48 0.15
49 0.15
5 0.27
50 0.15
51 0.15
52 0.15
53 0.15
54 0.15
55 0.15
9 0.27

> <PUBCHEM_EFFECTIVE_ROTOR_COUNT>
7.2

> <PUBCHEM_PHARMACOPHORE_FEATURES>
7
1 1 acceptor
1 1 donor
1 2 cation
1 3 acceptor
6 15 17 18 20 21 23 rings
6 2 4 5 6 7 8 rings
6 3 16 19 22 24 25 rings

> <PUBCHEM_HEAVY_ATOM_COUNT>
25

> <PUBCHEM_ATOM_DEF_STEREO_COUNT>
0

> <PUBCHEM_ATOM_UDEF_STEREO_COUNT>
3

> <PUBCHEM_BOND_DEF_STEREO_COUNT>
0

> <PUBCHEM_BOND_UDEF_STEREO_COUNT>
0

> <PUBCHEM_ISOTOPIC_ATOM_COUNT>
0

> <PUBCHEM_COMPONENT_COUNT>
1

> <PUBCHEM_CACTVS_TAUTO_COUNT>
1

> <PUBCHEM_CONFORMER_ID>
000012F500000015

> <PUBCHEM_MMFF94_ENERGY>
64.6488

> <PUBCHEM_FEATURE_SELFOVERLAP>
35.52

> <PUBCHEM_SHAPE_FINGERPRINT>
105312 117 18340769368022833901
11135926 11 15841551895475508418
11405975 8 18410579487590432008
11545043 162 18333729113929886050
11578080 2 18262247594680536768
11991303 11 17917435350248039783
121448 382 18187377562168825733
12346177 29 18410580573784257580
12422481 6 18195218141005722579
12553582 1 18051125895827710935
12616971 3 16917347065660834488
12643181 29 18265613368184231382
12714826 92 18335977558799100179
12788726 201 18199462169377720139
13004483 165 18193555558949155903
13583140 156 17823431413508651728
13690498 29 18265879286229622998
13726171 33 18120342464179855236
13931106 250 18261966132830852855
14178342 30 18339936934878489800
14251751 93 18342174466383913579
15042514 8 18339920395323877923
15664445 248 17329703228647775373
16752209 62 18411424977187240739
17349148 13 18187086190922943836
17492 89 18268433434513844706
17913733 40 18046047518856455265
1813 80 17906730307039136379
19958102 18 18340217361883557255
20600515 1 18334296500516647552
21781051 124 18272922831164233529
22907989 373 18339355250267453565
23557571 272 18190473674541945176
23559900 14 18260826029973746356
23598288 3 18201429260299116299
3027735 51 18408606942071320439
312423 11 17846208900499678812
32027 91 18043804506641016958
4015057 19 17241346727474137192
44062 13 18413387644255710710
4409770 3 18411427185602212815
497634 4 15913032189040349403
508706 21 18335691758685302255
532947 4 17903355153938699191
5385378 56 17832136496274474049
559249 180 18271812379716794674
7164475 11 18197501727070297165
7399639 24 17539426327098206760
79837 15 18337668736990620225
9709674 26 18114753641800516376

> <PUBCHEM_SHAPE_MULTIPOLES>
498.66
10.85
4.01
1.74
11.67
2.83
0.4
-1.28
0.3
-7.47
0.22
1.54
-0.41
0.45

> <PUBCHEM_SHAPE_SELFOVERLAP>
1049.25

> <PUBCHEM_SHAPE_VOLUME>
279.5

> <PUBCHEM_COORDINATE_TYPE>
2
5
10

$$$$

