5582
  -OEChem-06261200453D

 51 53  0     0  0  0  0  0  0999 V2000
    4.8340   -2.3368   -0.8569 O   0  0  0  0  0  0  0  0  0  0  0  0
    4.6041    2.2135    0.6204 O   0  0  0  0  0  0  0  0  0  0  0  0
    6.0685    0.1034   -0.4166 O   0  0  0  0  0  0  0  0  0  0  0  0
    0.6743   -0.5564    0.7757 N   0  0  0  0  0  0  0  0  0  0  0  0
   -5.6830    0.3103   -1.3767 N   0  3  0  0  0  0  0  0  0  0  0  0
   -5.6449   -0.7880    0.7351 N   0  0  0  0  0  0  0  0  0  0  0  0
   -3.8771    1.3533   -2.3682 N   0  0  0  0  0  0  0  0  0  0  0  0
   -7.6257   -0.6724   -0.5775 N   0  0  0  0  0  0  0  0  0  0  0  0
   -1.6072    0.1732    1.1291 C   0  0  0  0  0  0  0  0  0  0  0  0
   -2.3007    0.5707   -0.0102 C   0  0  0  0  0  0  0  0  0  0  0  0
   -3.6607    0.2534   -0.1549 C   0  0  0  0  0  0  0  0  0  0  0  0
   -0.1601    0.4923    1.3186 C   0  0  0  0  0  0  0  0  0  0  0  0
   -4.3427   -0.4701    0.8473 C   0  0  0  0  0  0  0  0  0  0  0  0
   -2.2691   -0.5396    2.1222 C   0  0  0  0  0  0  0  0  0  0  0  0
   -4.3891    0.6353   -1.2833 C   0  0  0  0  0  0  0  0  0  0  0  0
   -3.6230   -0.8540    1.9753 C   0  0  0  0  0  0  0  0  0  0  0  0
   -1.5190    1.3350   -1.0367 C   0  0  0  0  0  0  0  0  0  0  0  0
    2.0167   -0.3923    0.4792 C   0  0  0  0  0  0  0  0  0  0  0  0
   -6.2639   -0.3763   -0.3899 C   0  0  0  0  0  0  0  0  0  0  0  0
    2.6600    0.8411    0.6967 C   0  0  0  0  0  0  0  0  0  0  0  0
    2.7759   -1.4541   -0.0485 C   0  0  0  0  0  0  0  0  0  0  0  0
    4.1283   -1.2886   -0.3475 C   0  0  0  0  0  0  0  0  0  0  0  0
    4.0124    1.0067    0.3975 C   0  0  0  0  0  0  0  0  0  0  0  0
    4.7465   -0.0582   -0.1247 C   0  0  0  0  0  0  0  0  0  0  0  0
    4.8644   -2.4686   -2.2767 C   0  0  0  0  0  0  0  0  0  0  0  0
    4.5804    3.1545   -0.4510 C   0  0  0  0  0  0  0  0  0  0  0  0
    7.0006   -0.1871    0.6222 C   0  0  0  0  0  0  0  0  0  0  0  0
    0.0631    1.4955    0.9427 H   0  0  0  0  0  0  0  0  0  0  0  0
    0.0482    0.5682    2.3952 H   0  0  0  0  0  0  0  0  0  0  0  0
   -1.7480   -0.8631    3.0196 H   0  0  0  0  0  0  0  0  0  0  0  0
   -4.1169   -1.4135    2.7675 H   0  0  0  0  0  0  0  0  0  0  0  0
    0.2754   -1.4800    0.6451 H   0  0  0  0  0  0  0  0  0  0  0  0
   -1.6557    0.9147   -2.0374 H   0  0  0  0  0  0  0  0  0  0  0  0
   -1.7613    2.4013   -0.9973 H   0  0  0  0  0  0  0  0  0  0  0  0
   -0.4336    1.2649   -0.9444 H   0  0  0  0  0  0  0  0  0  0  0  0
   -6.2230    0.5847   -2.1951 H   0  0  0  0  0  0  0  0  0  0  0  0
    2.1341    1.6937    1.1166 H   0  0  0  0  0  0  0  0  0  0  0  0
    2.3030   -2.4183   -0.2257 H   0  0  0  0  0  0  0  0  0  0  0  0
   -3.3722    2.2051   -2.1622 H   0  0  0  0  0  0  0  0  0  0  0  0
   -4.4913    1.4464   -3.1707 H   0  0  0  0  0  0  0  0  0  0  0  0
   -8.1199   -1.1900    0.1366 H   0  0  0  0  0  0  0  0  0  0  0  0
   -8.1053   -0.3708   -1.4146 H   0  0  0  0  0  0  0  0  0  0  0  0
    3.8539   -2.6196   -2.6693 H   0  0  0  0  0  0  0  0  0  0  0  0
    5.4711   -3.3432   -2.5267 H   0  0  0  0  0  0  0  0  0  0  0  0
    5.3182   -1.5850   -2.7364 H   0  0  0  0  0  0  0  0  0  0  0  0
    3.5491    3.4133   -0.7111 H   0  0  0  0  0  0  0  0  0  0  0  0
    5.0963    4.0608   -0.1225 H   0  0  0  0  0  0  0  0  0  0  0  0
    5.1000    2.7542   -1.3274 H   0  0  0  0  0  0  0  0  0  0  0  0
    6.8357    0.4690    1.4826 H   0  0  0  0  0  0  0  0  0  0  0  0
    8.0086   -0.0108    0.2369 H   0  0  0  0  0  0  0  0  0  0  0  0
    6.9221   -1.2349    0.9287 H   0  0  0  0  0  0  0  0  0  0  0  0
  1 22  1  0  0  0  0
  1 25  1  0  0  0  0
  2 23  1  0  0  0  0
  2 26  1  0  0  0  0
  3 24  1  0  0  0  0
  3 27  1  0  0  0  0
  4 12  1  0  0  0  0
  4 18  1  0  0  0  0
  4 32  1  0  0  0  0
  5 15  2  0  0  0  0
  5 19  1  0  0  0  0
  5 36  1  0  0  0  0
  6 13  1  0  0  0  0
  6 19  2  0  0  0  0
  7 15  1  0  0  0  0
  7 39  1  0  0  0  0
  7 40  1  0  0  0  0
  8 19  1  0  0  0  0
  8 41  1  0  0  0  0
  8 42  1  0  0  0  0
  9 10  2  0  0  0  0
  9 12  1  0  0  0  0
  9 14  1  0  0  0  0
 10 11  1  0  0  0  0
 10 17  1  0  0  0  0
 11 13  2  0  0  0  0
 11 15  1  0  0  0  0
 12 28  1  0  0  0  0
 12 29  1  0  0  0  0
 13 16  1  0  0  0  0
 14 16  2  0  0  0  0
 14 30  1  0  0  0  0
 16 31  1  0  0  0  0
 17 33  1  0  0  0  0
 17 34  1  0  0  0  0
 17 35  1  0  0  0  0
 18 20  2  0  0  0  0
 18 21  1  0  0  0  0
 20 23  1  0  0  0  0
 20 37  1  0  0  0  0
 21 22  2  0  0  0  0
 21 38  1  0  0  0  0
 22 24  1  0  0  0  0
 23 24  2  0  0  0  0
 25 43  1  0  0  0  0
 25 44  1  0  0  0  0
 25 45  1  0  0  0  0
 26 46  1  0  0  0  0
 26 47  1  0  0  0  0
 26 48  1  0  0  0  0
 27 49  1  0  0  0  0
 27 50  1  0  0  0  0
 27 51  1  0  0  0  0
M  CHG  1   5   1
M  END
> <PUBCHEM_COMPOUND_CID>
5582

> <PUBCHEM_CONFORMER_RMSD>
0.8

> <PUBCHEM_CONFORMER_DIVERSEORDER>
3
11
16
25
7
36
10
18
35
12
41
13
34
20
9
33
2
24
5
37
14
40
15
38
39
8
22
32
28
29
4
6
19
26
1
23
31
21
30
17
27

> <PUBCHEM_MMFF94_PARTIAL_CHARGES>
36
1 -0.36
10 -0.14
12 0.51
13 0.31
14 -0.15
15 0.46
16 -0.15
17 0.14
18 0.1
19 0.77
2 -0.36
20 -0.15
21 -0.15
22 0.08
23 0.08
24 0.08
25 0.28
26 0.28
27 0.28
3 -0.36
30 0.15
31 0.15
32 0.4
36 0.46
37 0.15
38 0.15
39 0.4
4 -0.87
40 0.4
41 0.4
42 0.4
5 -0.18
6 -0.62
7 -0.9
8 -0.9
9 -0.14

> <PUBCHEM_EFFECTIVE_ROTOR_COUNT>
6

> <PUBCHEM_PHARMACOPHORE_FEATURES>
12
1 1 acceptor
1 2 acceptor
1 3 acceptor
1 4 cation
1 4 donor
1 5 donor
1 7 donor
1 8 donor
4 5 6 8 19 cation
6 18 20 21 22 23 24 rings
6 5 6 11 13 15 19 rings
6 9 10 11 13 14 16 rings

> <PUBCHEM_HEAVY_ATOM_COUNT>
27

> <PUBCHEM_ATOM_DEF_STEREO_COUNT>
0

> <PUBCHEM_ATOM_UDEF_STEREO_COUNT>
0

> <PUBCHEM_BOND_DEF_STEREO_COUNT>
0

> <PUBCHEM_BOND_UDEF_STEREO_COUNT>
0

> <PUBCHEM_ISOTOPIC_ATOM_COUNT>
0

> <PUBCHEM_COMPONENT_COUNT>
1

> <PUBCHEM_CACTVS_TAUTO_COUNT>
39

> <PUBCHEM_CONFORMER_ID>
000015CE00000003

> <PUBCHEM_MMFF94_ENERGY>
142.329

> <PUBCHEM_FEATURE_SELFOVERLAP>
61.031

> <PUBCHEM_SHAPE_FINGERPRINT>
10299344 5 17095241415188923759
10670039 82 16199868491901422950
11059845 2 14639059080344198354
11089746 13 14189567529939456710
11135609 149 17973165312514567734
12236239 1 16877938356169153834
12390115 104 17631175367747913173
12616971 3 17530959215521790035
13402501 40 17917436388696753900
13533116 47 17749107794271556450
15082195 135 17203317927678688398
15183329 4 17846785126128700497
15537594 2 16443067200969171087
15799311 1 16370999681188183623
173720 79 15410907253485774537
17844677 252 18409725200840465988
17857418 61 16805324413505803290
1813 80 16660362567412532969
19377110 9 16588029034927080914
19489759 90 17060339626072636033
200 152 17967813876945319379
20645477 70 18334574668225517690
21792961 116 18200868574595352106
22061861 79 18409447007244967950
221357 26 18411420626570064272
23081809 10 17458054972219542195
23522609 53 16806422757198043969
23557571 272 17703787020265214504
23559900 14 17775286066727967200
23569914 152 17257108475966603487
239999 70 18343302553135731712
2838139 119 13183022925848778599
341906 21 16559031584423216232
34797466 226 18343302539844758189
351380 3 16587746430141589579
4015057 19 18334289829904325737
4098825 35 18261955254058565209
4325135 7 18186239519861689318
46194498 28 18411138048256166492
5281201 14 18411129277822002244
5283173 99 17775292689657630557

> <PUBCHEM_SHAPE_MULTIPOLES>
513.13
18.64
2.03
1.77
3.52
0.55
0.3
-2.55
4.66
-4.35
0.9
1.42
-0.34
2.42

> <PUBCHEM_SHAPE_SELFOVERLAP>
1110.754

> <PUBCHEM_SHAPE_VOLUME>
283.4

> <PUBCHEM_COORDINATE_TYPE>
2
5
10

$$$$

