20678
  -OEChem-07051213133D

 12 11  0     0  0  0  0  0  0999 V2000
    2.2282    0.0800    0.0009 O   0  0  0  0  0  0  0  0  0  0  0  0
    0.0542   -0.0317   -0.0055 N   0  0  0  0  0  0  0  0  0  0  0  0
    1.1777    0.7319    0.0033 N   0  0  0  0  0  0  0  0  0  0  0  0
    0.0635   -1.5004    0.0006 C   0  0  0  0  0  0  0  0  0  0  0  0
   -1.1492    0.6259   -0.0034 C   0  0  0  0  0  0  0  0  0  0  0  0
   -2.3743    0.0943    0.0040 C   0  0  0  0  0  0  0  0  0  0  0  0
   -0.4203   -1.8832    0.9067 H   0  0  0  0  0  0  0  0  0  0  0  0
    1.0731   -1.9250   -0.0233 H   0  0  0  0  0  0  0  0  0  0  0  0
   -0.4622   -1.8924   -0.8778 H   0  0  0  0  0  0  0  0  0  0  0  0
   -1.0631    1.7105   -0.0077 H   0  0  0  0  0  0  0  0  0  0  0  0
   -3.2449    0.7424    0.0051 H   0  0  0  0  0  0  0  0  0  0  0  0
   -2.5550   -0.9741    0.0097 H   0  0  0  0  0  0  0  0  0  0  0  0
  1  3  2  0  0  0  0
  2  3  1  0  0  0  0
  2  4  1  0  0  0  0
  2  5  1  0  0  0  0
  4  7  1  0  0  0  0
  4  8  1  0  0  0  0
  4  9  1  0  0  0  0
  5  6  2  0  0  0  0
  5 10  1  0  0  0  0
  6 11  1  0  0  0  0
  6 12  1  0  0  0  0
M  END
> <PUBCHEM_COMPOUND_CID>
20678

> <PUBCHEM_CONFORMER_RMSD>
0.4

> <PUBCHEM_CONFORMER_DIVERSEORDER>
2
10
8
4
11
9
3
5
1
6
7

> <PUBCHEM_MMFF94_PARTIAL_CHARGES>
8
1 -0.16
10 0.15
11 0.15
12 0.15
2 -0.3
4 0.37
5 -0.05
6 -0.3

> <PUBCHEM_EFFECTIVE_ROTOR_COUNT>
2

> <PUBCHEM_PHARMACOPHORE_FEATURES>
0

> <PUBCHEM_HEAVY_ATOM_COUNT>
6

> <PUBCHEM_ATOM_DEF_STEREO_COUNT>
0

> <PUBCHEM_ATOM_UDEF_STEREO_COUNT>
0

> <PUBCHEM_BOND_DEF_STEREO_COUNT>
0

> <PUBCHEM_BOND_UDEF_STEREO_COUNT>
0

> <PUBCHEM_ISOTOPIC_ATOM_COUNT>
0

> <PUBCHEM_COMPONENT_COUNT>
1

> <PUBCHEM_CACTVS_TAUTO_COUNT>
1

> <PUBCHEM_CONFORMER_ID>
000050C600000002

> <PUBCHEM_MMFF94_ENERGY>
12.3462

> <PUBCHEM_FEATURE_SELFOVERLAP>
0

> <PUBCHEM_SHAPE_FINGERPRINT>
16714656 1 18341328911808485997
20096714 4 18410012121835441656
21040471 1 18410856533922759302
29004967 10 18272642485151835857
5460574 1 9223234048161502561
5943 1 16770127744952015775

> <PUBCHEM_SHAPE_MULTIPOLES>
107.65
2.75
1.15
0.57
0.17
0.51
0
-0.5
0
-0.12
0
0.06
0.02
0

> <PUBCHEM_SHAPE_SELFOVERLAP>
192.011

> <PUBCHEM_SHAPE_VOLUME>
71

> <PUBCHEM_COORDINATE_TYPE>
2
5
10

$$$$

