23724597
  -OEChem-07051213083D

 73 76  0     1  0  0  0  0  0999 V2000
    6.4502    1.5018    1.4693 O   0  0  0  0  0  0  0  0  0  0  0  0
   -1.3774   -0.9563   -0.3949 C   0  0  1  0  0  0  0  0  0  0  0  0
   -0.1652   -1.9146   -0.3713 C   0  0  1  0  0  0  0  0  0  0  0  0
   -2.5048   -1.8822    0.1278 C   0  0  1  0  0  0  0  0  0  0  0  0
    2.7734    0.7346   -0.3322 C   0  0  2  0  0  0  0  0  0  0  0  0
    1.1980   -1.2520   -0.4198 C   0  0  0  0  0  0  0  0  0  0  0  0
   -1.0931    0.2463    0.5209 C   0  0  0  0  0  0  0  0  0  0  0  0
    1.3814    0.0688   -0.1872 C   0  0  0  0  0  0  0  0  0  0  0  0
   -0.3593   -2.7672    0.8958 C   0  0  0  0  0  0  0  0  0  0  0  0
   -1.8460   -2.6941    1.2476 C   0  0  0  0  0  0  0  0  0  0  0  0
    3.9075   -0.3423   -0.1552 C   0  0  1  0  0  0  0  0  0  0  0  0
    0.2080    0.9697    0.1607 C   0  0  0  0  0  0  0  0  0  0  0  0
    2.3209   -2.1928   -0.7865 C   0  0  0  0  0  0  0  0  0  0  0  0
   -3.7818   -1.1898    0.5859 C   0  0  1  0  0  0  0  0  0  0  0  0
    3.6618   -1.5310   -1.0897 C   0  0  0  0  0  0  0  0  0  0  0  0
   -1.6903   -0.4746   -1.8229 C   0  0  0  0  0  0  0  0  0  0  0  0
    3.0191    1.8292    0.7446 C   0  0  0  0  0  0  0  0  0  0  0  0
    5.3338    0.2493   -0.2851 C   0  0  1  0  0  0  0  0  0  0  0  0
    2.7929    1.3914   -1.7361 C   0  0  0  0  0  0  0  0  0  0  0  0
    4.4097    2.4507    0.6903 C   0  0  0  0  0  0  0  0  0  0  0  0
   -4.6362   -0.7948   -0.6389 C   0  0  0  0  0  0  0  0  0  0  0  0
    5.4795    1.3886    0.7212 C   0  0  0  0  0  0  0  0  0  0  0  0
   -4.5487   -2.0974    1.5529 C   0  0  0  0  0  0  0  0  0  0  0  0
    6.4391   -0.7876   -0.0623 C   0  0  0  0  0  0  0  0  0  0  0  0
   -5.9347   -0.0374   -0.3274 C   0  0  0  0  0  0  0  0  0  0  0  0
   -5.6967    1.2280    0.4486 C   0  0  0  0  0  0  0  0  0  0  0  0
   -5.3765    2.4490   -0.0205 C   0  0  0  0  0  0  0  0  0  0  0  0
   -5.1855    3.6010    0.9307 C   0  0  0  0  0  0  0  0  0  0  0  0
   -5.1791    2.8057   -1.4663 C   0  0  0  0  0  0  0  0  0  0  0  0
   -0.2539   -2.5808   -1.2425 H   0  0  0  0  0  0  0  0  0  0  0  0
   -2.7596   -2.6073   -0.6605 H   0  0  0  0  0  0  0  0  0  0  0  0
   -1.0251   -0.0741    1.5684 H   0  0  0  0  0  0  0  0  0  0  0  0
   -1.9102    0.9768    0.4799 H   0  0  0  0  0  0  0  0  0  0  0  0
    0.2416   -2.4014    1.7375 H   0  0  0  0  0  0  0  0  0  0  0  0
   -0.0531   -3.8034    0.7111 H   0  0  0  0  0  0  0  0  0  0  0  0
   -2.2764   -3.6971    1.3397 H   0  0  0  0  0  0  0  0  0  0  0  0
   -1.9281   -2.1992    2.2221 H   0  0  0  0  0  0  0  0  0  0  0  0
    3.8260   -0.7283    0.8746 H   0  0  0  0  0  0  0  0  0  0  0  0
    0.4514    1.6008    1.0210 H   0  0  0  0  0  0  0  0  0  0  0  0
    0.0213    1.6412   -0.6858 H   0  0  0  0  0  0  0  0  0  0  0  0
    2.4593   -2.8934    0.0473 H   0  0  0  0  0  0  0  0  0  0  0  0
    2.0351   -2.7945   -1.6579 H   0  0  0  0  0  0  0  0  0  0  0  0
   -3.5400   -0.2871    1.1546 H   0  0  0  0  0  0  0  0  0  0  0  0
    4.4368   -2.2962   -0.9784 H   0  0  0  0  0  0  0  0  0  0  0  0
    3.6975   -1.2120   -2.1376 H   0  0  0  0  0  0  0  0  0  0  0  0
   -2.2227   -1.2308   -2.4092 H   0  0  0  0  0  0  0  0  0  0  0  0
   -2.2616    0.4579   -1.8326 H   0  0  0  0  0  0  0  0  0  0  0  0
   -0.7656   -0.2547   -2.3701 H   0  0  0  0  0  0  0  0  0  0  0  0
    2.8651    1.3949    1.7420 H   0  0  0  0  0  0  0  0  0  0  0  0
    2.2967    2.6477    0.6411 H   0  0  0  0  0  0  0  0  0  0  0  0
    5.4874    0.6778   -1.2816 H   0  0  0  0  0  0  0  0  0  0  0  0
    2.0764    2.2197   -1.7930 H   0  0  0  0  0  0  0  0  0  0  0  0
    3.7700    1.8053   -1.9975 H   0  0  0  0  0  0  0  0  0  0  0  0
    2.5202    0.6819   -2.5252 H   0  0  0  0  0  0  0  0  0  0  0  0
    4.5450    3.1133    1.5525 H   0  0  0  0  0  0  0  0  0  0  0  0
    4.5484    3.0548   -0.2118 H   0  0  0  0  0  0  0  0  0  0  0  0
   -4.9005   -1.6990   -1.2027 H   0  0  0  0  0  0  0  0  0  0  0  0
   -4.0781   -0.1613   -1.3221 H   0  0  0  0  0  0  0  0  0  0  0  0
   -4.7613   -3.0723    1.1004 H   0  0  0  0  0  0  0  0  0  0  0  0
   -4.0221   -2.2572    2.4977 H   0  0  0  0  0  0  0  0  0  0  0  0
   -5.5079   -1.6541    1.8366 H   0  0  0  0  0  0  0  0  0  0  0  0
    6.3034   -1.3152    0.8881 H   0  0  0  0  0  0  0  0  0  0  0  0
    6.4653   -1.5257   -0.8692 H   0  0  0  0  0  0  0  0  0  0  0  0
    7.4263   -0.3124   -0.0391 H   0  0  0  0  0  0  0  0  0  0  0  0
   -6.6350   -0.6723    0.2263 H   0  0  0  0  0  0  0  0  0  0  0  0
   -6.4473    0.1930   -1.2692 H   0  0  0  0  0  0  0  0  0  0  0  0
   -5.7991    1.1085    1.5268 H   0  0  0  0  0  0  0  0  0  0  0  0
   -4.1692    3.9993    0.8433 H   0  0  0  0  0  0  0  0  0  0  0  0
   -5.8947    4.4031    0.7017 H   0  0  0  0  0  0  0  0  0  0  0  0
   -5.3389    3.3108    1.9755 H   0  0  0  0  0  0  0  0  0  0  0  0
   -5.9016    3.5704   -1.7696 H   0  0  0  0  0  0  0  0  0  0  0  0
   -4.1697    3.2003   -1.6229 H   0  0  0  0  0  0  0  0  0  0  0  0
   -5.3019    1.9505   -2.1358 H   0  0  0  0  0  0  0  0  0  0  0  0
  1 22  2  0  0  0  0
  2  3  1  0  0  0  0
  2  4  1  0  0  0  0
  2  7  1  0  0  0  0
  2 16  1  0  0  0  0
  3  6  1  0  0  0  0
  3  9  1  0  0  0  0
  3 30  1  0  0  0  0
  4 10  1  0  0  0  0
  4 14  1  0  0  0  0
  4 31  1  0  0  0  0
  5  8  1  0  0  0  0
  5 11  1  0  0  0  0
  5 17  1  0  0  0  0
  5 19  1  0  0  0  0
  6  8  2  0  0  0  0
  6 13  1  0  0  0  0
  7 12  1  0  0  0  0
  7 32  1  0  0  0  0
  7 33  1  0  0  0  0
  8 12  1  0  0  0  0
  9 10  1  0  0  0  0
  9 34  1  0  0  0  0
  9 35  1  0  0  0  0
 10 36  1  0  0  0  0
 10 37  1  0  0  0  0
 11 15  1  0  0  0  0
 11 18  1  0  0  0  0
 11 38  1  0  0  0  0
 12 39  1  0  0  0  0
 12 40  1  0  0  0  0
 13 15  1  0  0  0  0
 13 41  1  0  0  0  0
 13 42  1  0  0  0  0
 14 21  1  0  0  0  0
 14 23  1  0  0  0  0
 14 43  1  0  0  0  0
 15 44  1  0  0  0  0
 15 45  1  0  0  0  0
 16 46  1  0  0  0  0
 16 47  1  0  0  0  0
 16 48  1  0  0  0  0
 17 20  1  0  0  0  0
 17 49  1  0  0  0  0
 17 50  1  0  0  0  0
 18 22  1  0  0  0  0
 18 24  1  0  0  0  0
 18 51  1  0  0  0  0
 19 52  1  0  0  0  0
 19 53  1  0  0  0  0
 19 54  1  0  0  0  0
 20 22  1  0  0  0  0
 20 55  1  0  0  0  0
 20 56  1  0  0  0  0
 21 25  1  0  0  0  0
 21 57  1  0  0  0  0
 21 58  1  0  0  0  0
 23 59  1  0  0  0  0
 23 60  1  0  0  0  0
 23 61  1  0  0  0  0
 24 62  1  0  0  0  0
 24 63  1  0  0  0  0
 24 64  1  0  0  0  0
 25 26  1  0  0  0  0
 25 65  1  0  0  0  0
 25 66  1  0  0  0  0
 26 27  2  0  0  0  0
 26 67  1  0  0  0  0
 27 28  1  0  0  0  0
 27 29  1  0  0  0  0
 28 68  1  0  0  0  0
 28 69  1  0  0  0  0
 28 70  1  0  0  0  0
 29 71  1  0  0  0  0
 29 72  1  0  0  0  0
 29 73  1  0  0  0  0
M  END
> <PUBCHEM_COMPOUND_CID>
23724597

> <PUBCHEM_CONFORMER_RMSD>
0.8

> <PUBCHEM_CONFORMER_DIVERSEORDER>
7
49
58
40
83
102
106
124
81
39
133
86
45
69
92
136
13
122
93
91
60
59
82
96
117
70
134
89
6
141
30
11
84
65
132
18
68
15
127
120
88
2
104
24
63
72
90
71
5
97
109
131
48
66
21
12
140
23
8
22
78
33
85
74
115
101
64
128
107
135
116
111
100
20
9
3
98
113
17
27
38
46
139
52
50
112
51
95
125
114
67
105
77
16
110
53
103
137
10
138
14
35
28
80
76
55
108
79
41
37
129
56
126
44
99
1
57
94
118
47
130
26
31
119
61
19
34
42
121
25
123
73
43
36
29
87
54
4
62
32
75

> <PUBCHEM_MMFF94_PARTIAL_CHARGES>
16
1 -0.57
12 0.14
13 0.14
18 0.06
20 0.06
22 0.45
25 0.14
26 -0.29
27 -0.28
28 0.14
29 0.14
3 0.14
5 0.14
6 -0.28
67 0.15
8 -0.28

> <PUBCHEM_EFFECTIVE_ROTOR_COUNT>
6

> <PUBCHEM_PHARMACOPHORE_FEATURES>
8
1 1 acceptor
1 23 hydrophobe
3 27 28 29 hydrophobe
4 14 21 25 26 hydrophobe
5 2 3 4 9 10 rings
6 2 3 6 7 8 12 rings
6 5 11 17 18 20 22 rings
6 5 6 8 11 13 15 rings

> <PUBCHEM_HEAVY_ATOM_COUNT>
29

> <PUBCHEM_ATOM_DEF_STEREO_COUNT>
4

> <PUBCHEM_ATOM_UDEF_STEREO_COUNT>
3

> <PUBCHEM_BOND_DEF_STEREO_COUNT>
0

> <PUBCHEM_BOND_UDEF_STEREO_COUNT>
0

> <PUBCHEM_ISOTOPIC_ATOM_COUNT>
0

> <PUBCHEM_COMPONENT_COUNT>
1

> <PUBCHEM_CACTVS_TAUTO_COUNT>
3

> <PUBCHEM_CONFORMER_ID>
016A023500000007

> <PUBCHEM_MMFF94_ENERGY>
78.7781

> <PUBCHEM_FEATURE_SELFOVERLAP>
40.79

> <PUBCHEM_SHAPE_FINGERPRINT>
10319926 262 18059853913829241794
10366900 7 6338966585026984646
10554248 39 16298376977329411716
10622 236 11812464030096523401
10674148 151 18202565091009150274
10906281 52 18271230665177533030
1100329 8 17618503628922688962
11135609 149 16662307719503916124
12236239 1 16660636320027534470
12422481 6 17489590112244174069
12633257 1 17275108275686728958
14223995 32 18198910390682013797
14466204 15 18413392033896988121
14739800 52 18341060700160362331
14790565 3 18410008849381604945
14950920 106 14548439350722628293
15021287 119 16702300144076807109
15183329 4 18060421321810542335
15238133 3 18272362058373927596
15799311 1 15339117935478269738
20511986 3 17241057530604884558
20715895 44 18410574006636843624
21033648 144 18041831823217877223
21033648 29 18188787045992026640
21279426 13 18336260240603624782
21315763 129 18337671919228979351
21859007 373 18340492252506513420
23522609 53 16988261128550438964
23559900 14 18271795831366513622
23569914 152 16885522997773266484
2838139 119 18261114084386271069
335352 9 18407758132458932438
3493558 16 18338226086101621473
350125 39 18411697720880287892
4073 2 18272083872962643234
5104073 3 18273214226993327707
5283173 99 18408603669215998609
6086070 43 17241059733485062737
6328613 192 18201429239051367420
7226269 152 18334011700886557673
9981440 41 18272646853740491315
9995097 60 18408603664725624940

> <PUBCHEM_SHAPE_MULTIPOLES>
590.94
15.72
3.54
1.35
0.85
1.11
-0.18
10.05
2.08
-3.68
0.84
-0.22
0.1
1.86

> <PUBCHEM_SHAPE_SELFOVERLAP>
1234.168

> <PUBCHEM_SHAPE_VOLUME>
334

> <PUBCHEM_COORDINATE_TYPE>
2
5
10

$$$$

