11735
  -OEChem-06261206033D

  9  8  0     0  0  0  0  0  0999 V2000
   -1.7829   -1.0781    0.0000 Cl  0  0  0  0  0  0  0  0  0  0  0  0
    1.0494   -1.3840    0.0000 O   0  0  0  0  0  0  0  0  0  0  0  0
    1.6731    0.7984    0.0000 O   0  0  0  0  0  0  0  0  0  0  0  0
   -0.6558    0.2249    0.0000 C   0  0  0  0  0  0  0  0  0  0  0  0
    0.7976   -0.0543    0.0000 C   0  0  0  0  0  0  0  0  0  0  0  0
   -1.0815    1.4931    0.0000 C   0  0  0  0  0  0  0  0  0  0  0  0
   -2.1406    1.7321    0.0000 H   0  0  0  0  0  0  0  0  0  0  0  0
   -0.3946    2.3332    0.0001 H   0  0  0  0  0  0  0  0  0  0  0  0
    2.0115   -1.5758    0.0002 H   0  0  0  0  0  0  0  0  0  0  0  0
  1  4  1  0  0  0  0
  2  5  1  0  0  0  0
  2  9  1  0  0  0  0
  3  5  2  0  0  0  0
  4  5  1  0  0  0  0
  4  6  2  0  0  0  0
  6  7  1  0  0  0  0
  6  8  1  0  0  0  0
M  END
> <PUBCHEM_COMPOUND_CID>
11735

> <PUBCHEM_CONFORMER_RMSD>
0.4

> <PUBCHEM_CONFORMER_DIVERSEORDER>
1
2

> <PUBCHEM_MMFF94_PARTIAL_CHARGES>
9
1 -0.14
2 -0.65
3 -0.57
4 0.15
5 0.71
6 -0.3
7 0.15
8 0.15
9 0.5

> <PUBCHEM_EFFECTIVE_ROTOR_COUNT>
1

> <PUBCHEM_PHARMACOPHORE_FEATURES>
3
1 2 acceptor
1 3 acceptor
3 2 3 5 anion

> <PUBCHEM_HEAVY_ATOM_COUNT>
6

> <PUBCHEM_ATOM_DEF_STEREO_COUNT>
0

> <PUBCHEM_ATOM_UDEF_STEREO_COUNT>
0

> <PUBCHEM_BOND_DEF_STEREO_COUNT>
0

> <PUBCHEM_BOND_UDEF_STEREO_COUNT>
0

> <PUBCHEM_ISOTOPIC_ATOM_COUNT>
0

> <PUBCHEM_COMPONENT_COUNT>
1

> <PUBCHEM_CACTVS_TAUTO_COUNT>
1

> <PUBCHEM_CONFORMER_ID>
00002DD700000001

> <PUBCHEM_MMFF94_ENERGY>
9.4403

> <PUBCHEM_FEATURE_SELFOVERLAP>
15.281

> <PUBCHEM_SHAPE_FINGERPRINT>
139733 1 17978511158821705605
16714656 1 9005966178436620392
20096714 4 9007067863280976767
21015797 1 18122626316637410212
21040471 1 9222966866914983335
24536 1 9150595847569960585
5943 1 8840748514787091533

> <PUBCHEM_SHAPE_MULTIPOLES>
113.61
2.1
1.56
0.59
0.02
0.12
0
-0.31
0
0.3
0
0.06
0.01
0

> <PUBCHEM_SHAPE_SELFOVERLAP>
204.855

> <PUBCHEM_SHAPE_VOLUME>
73.9

> <PUBCHEM_COORDINATE_TYPE>
2
5
10

$$$$

