3661
  -OEChem-06251223343D

 44 46  0     1  0  0  0  0  0999 V2000
   -0.0201    0.0506    0.4106 O   0  0  0  0  0  0  0  0  0  0  0  0
    0.2418    2.1035   -0.5999 O   0  0  0  0  0  0  0  0  0  0  0  0
    3.0605    2.5649   -0.9266 O   0  0  0  0  0  0  0  0  0  0  0  0
   -4.0110   -0.3672    0.9019 N   0  0  0  0  0  0  0  0  0  0  0  0
   -3.7039    0.8416    0.1140 C   0  0  2  0  0  0  0  0  0  0  0  0
   -3.4622   -1.4496    0.0633 C   0  0  1  0  0  0  0  0  0  0  0  0
   -4.0301    0.4501   -1.3315 C   0  0  0  0  0  0  0  0  0  0  0  0
   -3.8697   -1.0718   -1.3652 C   0  0  0  0  0  0  0  0  0  0  0  0
   -2.1995    1.1151    0.3098 C   0  0  0  0  0  0  0  0  0  0  0  0
   -1.9330   -1.4119    0.2538 C   0  0  0  0  0  0  0  0  0  0  0  0
   -1.3238   -0.0610   -0.1474 C   0  0  0  0  0  0  0  0  0  0  0  0
   -5.4395   -0.5237    1.1642 C   0  0  0  0  0  0  0  0  0  0  0  0
    0.6671    1.1962    0.1038 C   0  0  0  0  0  0  0  0  0  0  0  0
    2.0420    1.1684    0.7655 C   0  0  1  0  0  0  0  0  0  0  0  0
    2.8246   -0.0660    0.3464 C   0  0  0  0  0  0  0  0  0  0  0  0
    2.8024    2.4693    0.4709 C   0  0  0  0  0  0  0  0  0  0  0  0
    3.7400   -0.6078    1.2265 C   0  0  0  0  0  0  0  0  0  0  0  0
    2.5969   -0.6100   -0.9021 C   0  0  0  0  0  0  0  0  0  0  0  0
    4.4577   -1.7404    0.8423 C   0  0  0  0  0  0  0  0  0  0  0  0
    3.3147   -1.7426   -1.2862 C   0  0  0  0  0  0  0  0  0  0  0  0
    4.2451   -2.3078   -0.4140 C   0  0  0  0  0  0  0  0  0  0  0  0
   -4.2726    1.7189    0.4424 H   0  0  0  0  0  0  0  0  0  0  0  0
   -3.8327   -2.4402    0.3499 H   0  0  0  0  0  0  0  0  0  0  0  0
   -3.3814    0.9449   -2.0617 H   0  0  0  0  0  0  0  0  0  0  0  0
   -5.0653    0.7134   -1.5791 H   0  0  0  0  0  0  0  0  0  0  0  0
   -4.8285   -1.5339   -1.6286 H   0  0  0  0  0  0  0  0  0  0  0  0
   -3.1357   -1.3884   -2.1133 H   0  0  0  0  0  0  0  0  0  0  0  0
   -1.9690    2.0293   -0.2451 H   0  0  0  0  0  0  0  0  0  0  0  0
   -1.9996    1.3423    1.3660 H   0  0  0  0  0  0  0  0  0  0  0  0
   -1.6859   -1.6314    1.3017 H   0  0  0  0  0  0  0  0  0  0  0  0
   -1.4579   -2.2087   -0.3324 H   0  0  0  0  0  0  0  0  0  0  0  0
   -1.2250   -0.0428   -1.2408 H   0  0  0  0  0  0  0  0  0  0  0  0
   -5.8009    0.3082    1.7787 H   0  0  0  0  0  0  0  0  0  0  0  0
   -5.6167   -1.4388    1.7399 H   0  0  0  0  0  0  0  0  0  0  0  0
   -6.0552   -0.5685    0.2601 H   0  0  0  0  0  0  0  0  0  0  0  0
    1.8498    1.1288    1.8466 H   0  0  0  0  0  0  0  0  0  0  0  0
    3.7580    2.5105    1.0045 H   0  0  0  0  0  0  0  0  0  0  0  0
    2.2117    3.3436    0.7635 H   0  0  0  0  0  0  0  0  0  0  0  0
    3.9118   -0.1707    2.2054 H   0  0  0  0  0  0  0  0  0  0  0  0
    1.8993   -0.1819   -1.6148 H   0  0  0  0  0  0  0  0  0  0  0  0
    3.7816    1.9482   -1.1377 H   0  0  0  0  0  0  0  0  0  0  0  0
    5.1827   -2.1801    1.5210 H   0  0  0  0  0  0  0  0  0  0  0  0
    3.1536   -2.1815   -2.2666 H   0  0  0  0  0  0  0  0  0  0  0  0
    4.8051   -3.1887   -0.7138 H   0  0  0  0  0  0  0  0  0  0  0  0
  1 11  1  0  0  0  0
  1 13  1  0  0  0  0
  2 13  2  0  0  0  0
  3 16  1  0  0  0  0
  3 41  1  0  0  0  0
  4  5  1  0  0  0  0
  4  6  1  0  0  0  0
  4 12  1  0  0  0  0
  5  7  1  0  0  0  0
  5  9  1  0  0  0  0
  5 22  1  0  0  0  0
  6  8  1  0  0  0  0
  6 10  1  0  0  0  0
  6 23  1  0  0  0  0
  7  8  1  0  0  0  0
  7 24  1  0  0  0  0
  7 25  1  0  0  0  0
  8 26  1  0  0  0  0
  8 27  1  0  0  0  0
  9 11  1  0  0  0  0
  9 28  1  0  0  0  0
  9 29  1  0  0  0  0
 10 11  1  0  0  0  0
 10 30  1  0  0  0  0
 10 31  1  0  0  0  0
 11 32  1  0  0  0  0
 12 33  1  0  0  0  0
 12 34  1  0  0  0  0
 12 35  1  0  0  0  0
 13 14  1  0  0  0  0
 14 15  1  0  0  0  0
 14 16  1  0  0  0  0
 14 36  1  0  0  0  0
 15 17  2  0  0  0  0
 15 18  1  0  0  0  0
 16 37  1  0  0  0  0
 16 38  1  0  0  0  0
 17 19  1  0  0  0  0
 17 39  1  0  0  0  0
 18 20  2  0  0  0  0
 18 40  1  0  0  0  0
 19 21  2  0  0  0  0
 19 42  1  0  0  0  0
 20 21  1  0  0  0  0
 20 43  1  0  0  0  0
 21 44  1  0  0  0  0
M  END
> <PUBCHEM_COMPOUND_CID>
3661

> <PUBCHEM_CONFORMER_RMSD>
0.8

> <PUBCHEM_CONFORMER_DIVERSEORDER>
1
74
113
33
105
96
123
67
55
16
126
13
57
111
82
91
54
106
40
80
44
112
18
121
41
119
70
73
116
93
129
88
125
103
92
109
64
8
87
66
86
114
124
20
52
58
102
110
42
24
78
11
68
77
90
107
50
28
63
9
115
10
23
2
7
12
104
6
17
53
75
61
37
69
98
29
26
30
130
71
97
48
47
117
100
5
49
85
62
27
127
118
94
76
51
95
39
84
3
46
31
101
108
59
43
65
34
15
38
72
122
120
60
99
35
32
83
79
81
36
25
89
19
22
128
45
4
14
21
56

> <PUBCHEM_MMFF94_PARTIAL_CHARGES>
23
1 -0.43
11 0.28
12 0.27
13 0.66
14 0.2
15 -0.14
16 0.28
17 -0.15
18 -0.15
19 -0.15
2 -0.57
20 -0.15
21 -0.15
3 -0.68
39 0.15
4 -0.81
40 0.15
41 0.4
42 0.15
43 0.15
44 0.15
5 0.27
6 0.27

> <PUBCHEM_EFFECTIVE_ROTOR_COUNT>
6.2

> <PUBCHEM_PHARMACOPHORE_FEATURES>
6
1 2 acceptor
1 3 acceptor
1 3 donor
1 4 cation
6 15 17 18 19 20 21 rings
8 4 5 6 7 8 9 10 11 rings

> <PUBCHEM_HEAVY_ATOM_COUNT>
21

> <PUBCHEM_ATOM_DEF_STEREO_COUNT>
0

> <PUBCHEM_ATOM_UDEF_STEREO_COUNT>
3

> <PUBCHEM_BOND_DEF_STEREO_COUNT>
0

> <PUBCHEM_BOND_UDEF_STEREO_COUNT>
0

> <PUBCHEM_ISOTOPIC_ATOM_COUNT>
0

> <PUBCHEM_COMPONENT_COUNT>
1

> <PUBCHEM_CACTVS_TAUTO_COUNT>
1

> <PUBCHEM_CONFORMER_ID>
00000E4D00000001

> <PUBCHEM_MMFF94_ENERGY>
54.6452

> <PUBCHEM_FEATURE_SELFOVERLAP>
30.448

> <PUBCHEM_SHAPE_FINGERPRINT>
10369192 42 17485919736605284476
10498660 4 9511451221642048074
10616163 171 18047752602870060534
11405975 8 18408884057718847249
11595378 159 14923935760708795874
116883 192 18337675329507248748
12107183 9 17972024005989932497
12363563 72 18338794619522453378
12553582 1 18339073903992152462
12616971 3 18187366523923371043
12633257 1 18260263053617447119
13224815 77 18041562442710309895
13296908 3 18130510751617526273
13533116 47 18260269599548324867
13544653 18 17968101962140546210
13583140 156 15792315768049790377
13675066 3 18040439918563431049
13955234 65 18337389327803794136
14252887 29 18260271880149611594
14866123 147 16962372302366600242
15163728 17 16484414203199774524
15239154 128 11167941385374791231
15422964 175 17970911292012457358
15442244 35 18408884065902820704
15788980 27 18341055189422006239
15848702 151 18187931715443630031
15885798 251 18409726296109666409
17349148 13 17894915139300735019
17492 89 18335986350740262071
17804303 29 18411696629668359689
17818456 19 17532078578731183689
17844677 252 18131067139130106981
1813 80 18201993365366813732
18186145 218 17918277545351289753
19141452 34 18113902684562568519
193927 3 18410285943206889267
19862831 5 14692571052277375678
20281475 54 18187085014380998839
20369508 70 18201444696559381850
20645477 70 18412266107935206178
20681651 13 17460029579081330083
21756936 100 14348369921710102442
221490 88 18341044125639044946
2255824 54 18343017770844194930
23503953 91 17748826315337404227
23559900 14 18408329886546619088
312423 11 18339911684360087801
314173 41 18411976996844513234
3421961 26 18408886248267946378
5104073 3 18335977589322742987
5161694 15 18130791165589615207
5281201 14 18060138721626402789
5924683 9 16805900528277837711
633830 44 18131358501052727441
7064713 232 16732990837744118455
7364860 26 18335701599135689832
8863177 126 17987500547116479675
90127 26 17846782901673309265
9709674 26 18339362959385680619
9841814 1 18272379685125477848
9971528 1 18186806911148930850

> <PUBCHEM_SHAPE_MULTIPOLES>
409.58
10.94
2.44
1.23
4.86
0.81
0.14
-4.56
-1.08
-2.9
0.38
0.2
-0.2
0.13

> <PUBCHEM_SHAPE_SELFOVERLAP>
871.341

> <PUBCHEM_SHAPE_VOLUME>
228.1

> <PUBCHEM_COORDINATE_TYPE>
2
5
10

$$$$

