854094
  -OEChem-06241222473D

 41 43  0     0  0  0  0  0  0999 V2000
    1.7573    2.4174    1.1695 Cl  0  0  0  0  0  0  0  0  0  0  0  0
   -0.6816   -2.8193   -0.0259 O   0  0  0  0  0  0  0  0  0  0  0  0
    3.1510   -0.2431    1.1242 O   0  0  0  0  0  0  0  0  0  0  0  0
   -2.5126   -4.0714   -0.5784 O   0  0  0  0  0  0  0  0  0  0  0  0
   -0.9268   -0.4062    0.2298 C   0  0  0  0  0  0  0  0  0  0  0  0
   -2.3567   -0.5282   -0.0930 C   0  0  0  0  0  0  0  0  0  0  0  0
   -0.1343   -1.5526    0.2528 C   0  0  0  0  0  0  0  0  0  0  0  0
   -3.3204    0.5665   -0.1613 C   0  0  0  0  0  0  0  0  0  0  0  0
   -0.3158    0.8209    0.5196 C   0  0  0  0  0  0  0  0  0  0  0  0
    1.2283   -1.5066    0.5509 C   0  0  0  0  0  0  0  0  0  0  0  0
    1.8199   -0.2796    0.8351 C   0  0  0  0  0  0  0  0  0  0  0  0
   -2.8474   -1.7507   -0.3551 C   0  0  0  0  0  0  0  0  0  0  0  0
    1.0491    0.8824    0.8200 C   0  0  0  0  0  0  0  0  0  0  0  0
   -2.0244   -2.9736   -0.3333 C   0  0  0  0  0  0  0  0  0  0  0  0
   -3.5252    1.2341   -1.3657 C   0  0  0  0  0  0  0  0  0  0  0  0
   -4.0295    0.9363    0.9781 C   0  0  0  0  0  0  0  0  0  0  0  0
    4.0451   -0.7183    0.1199 C   0  0  0  0  0  0  0  0  0  0  0  0
   -4.4463    2.2796   -1.4312 C   0  0  0  0  0  0  0  0  0  0  0  0
   -4.9508    1.9818    0.9127 C   0  0  0  0  0  0  0  0  0  0  0  0
    5.3576   -0.0105    0.2452 C   0  0  0  0  0  0  0  0  0  0  0  0
    5.9969    0.7267   -0.6825 C   0  0  0  0  0  0  0  0  0  0  0  0
   -5.1591    2.6533   -0.2919 C   0  0  0  0  0  0  0  0  0  0  0  0
    7.3256    1.3613   -0.3657 C   0  0  0  0  0  0  0  0  0  0  0  0
    5.4999    0.9995   -2.0739 C   0  0  0  0  0  0  0  0  0  0  0  0
   -0.8984    1.7398    0.5131 H   0  0  0  0  0  0  0  0  0  0  0  0
    1.8101   -2.4239    0.5668 H   0  0  0  0  0  0  0  0  0  0  0  0
   -3.8959   -1.9031   -0.6003 H   0  0  0  0  0  0  0  0  0  0  0  0
   -2.9766    0.9553   -2.2620 H   0  0  0  0  0  0  0  0  0  0  0  0
   -3.8775    0.4235    1.9247 H   0  0  0  0  0  0  0  0  0  0  0  0
    4.2132   -1.7886    0.2877 H   0  0  0  0  0  0  0  0  0  0  0  0
    3.6028   -0.6056   -0.8738 H   0  0  0  0  0  0  0  0  0  0  0  0
   -4.6083    2.8029   -2.3690 H   0  0  0  0  0  0  0  0  0  0  0  0
   -5.5055    2.2732    1.7997 H   0  0  0  0  0  0  0  0  0  0  0  0
    5.8346   -0.1306    1.2175 H   0  0  0  0  0  0  0  0  0  0  0  0
   -5.8761    3.4675   -0.3428 H   0  0  0  0  0  0  0  0  0  0  0  0
    8.0944    0.9939   -1.0534 H   0  0  0  0  0  0  0  0  0  0  0  0
    7.2595    2.4496   -0.4669 H   0  0  0  0  0  0  0  0  0  0  0  0
    7.6610    1.1430    0.6537 H   0  0  0  0  0  0  0  0  0  0  0  0
    6.2086    0.6033   -2.8089 H   0  0  0  0  0  0  0  0  0  0  0  0
    4.5254    0.5596   -2.2912 H   0  0  0  0  0  0  0  0  0  0  0  0
    5.4086    2.0794   -2.2333 H   0  0  0  0  0  0  0  0  0  0  0  0
  1 13  1  0  0  0  0
  2  7  1  0  0  0  0
  2 14  1  0  0  0  0
  3 11  1  0  0  0  0
  3 17  1  0  0  0  0
  4 14  2  0  0  0  0
  5  6  1  0  0  0  0
  5  7  1  0  0  0  0
  5  9  2  0  0  0  0
  6  8  1  0  0  0  0
  6 12  2  0  0  0  0
  7 10  2  0  0  0  0
  8 15  2  0  0  0  0
  8 16  1  0  0  0  0
  9 13  1  0  0  0  0
  9 25  1  0  0  0  0
 10 11  1  0  0  0  0
 10 26  1  0  0  0  0
 11 13  2  0  0  0  0
 12 14  1  0  0  0  0
 12 27  1  0  0  0  0
 15 18  1  0  0  0  0
 15 28  1  0  0  0  0
 16 19  2  0  0  0  0
 16 29  1  0  0  0  0
 17 20  1  0  0  0  0
 17 30  1  0  0  0  0
 17 31  1  0  0  0  0
 18 22  2  0  0  0  0
 18 32  1  0  0  0  0
 19 22  1  0  0  0  0
 19 33  1  0  0  0  0
 20 21  2  0  0  0  0
 20 34  1  0  0  0  0
 21 23  1  0  0  0  0
 21 24  1  0  0  0  0
 22 35  1  0  0  0  0
 23 36  1  0  0  0  0
 23 37  1  0  0  0  0
 23 38  1  0  0  0  0
 24 39  1  0  0  0  0
 24 40  1  0  0  0  0
 24 41  1  0  0  0  0
M  END
> <PUBCHEM_COMPOUND_CID>
854094

> <PUBCHEM_CONFORMER_RMSD>
0.8

> <PUBCHEM_CONFORMER_DIVERSEORDER>
1
12
15
7
17
9
16
2
8
4
11
18
6
3
14
13
5
10

> <PUBCHEM_MMFF94_PARTIAL_CHARGES>
33
1 -0.18
10 -0.15
11 0.08
12 -0.14
13 0.18
14 0.71
15 -0.15
16 -0.15
17 0.42
18 -0.15
19 -0.15
2 -0.23
20 -0.29
21 -0.28
22 -0.15
23 0.14
24 0.14
25 0.15
26 0.15
27 0.15
28 0.15
29 0.15
3 -0.36
32 0.15
33 0.15
34 0.15
35 0.15
4 -0.57
5 0.03
6 -0.06
7 0.08
8 0.03
9 -0.15

> <PUBCHEM_EFFECTIVE_ROTOR_COUNT>
4

> <PUBCHEM_PHARMACOPHORE_FEATURES>
6
1 3 acceptor
1 4 acceptor
3 21 23 24 hydrophobe
6 2 5 6 7 12 14 rings
6 5 7 9 10 11 13 rings
6 8 15 16 18 19 22 rings

> <PUBCHEM_HEAVY_ATOM_COUNT>
24

> <PUBCHEM_ATOM_DEF_STEREO_COUNT>
0

> <PUBCHEM_ATOM_UDEF_STEREO_COUNT>
0

> <PUBCHEM_BOND_DEF_STEREO_COUNT>
0

> <PUBCHEM_BOND_UDEF_STEREO_COUNT>
0

> <PUBCHEM_ISOTOPIC_ATOM_COUNT>
0

> <PUBCHEM_COMPONENT_COUNT>
1

> <PUBCHEM_CACTVS_TAUTO_COUNT>
1

> <PUBCHEM_CONFORMER_ID>
000D084E00000001

> <PUBCHEM_MMFF94_ENERGY>
79.1965

> <PUBCHEM_FEATURE_SELFOVERLAP>
30.473

> <PUBCHEM_SHAPE_FINGERPRINT>
10165383 225 18409725197347417065
10411042 1 17833833772755486535
105312 117 18408601478487116375
10835480 77 18187368689062109912
10906281 52 17968647328387113992
11796584 16 14057300730150365141
12166972 35 5906033859750994040
12236239 1 18131352999700696978
12390115 104 18334289894803445195
12616971 3 17703800232280767698
12788726 201 17822853224879428368
12895836 83 18413671326629281632
12954195 1 18261116227691483647
13540713 4 17824275795309509760
13540713 5 18199490864028442394
13690498 29 18117839893704333654
13911987 19 18338810030171476149
13944108 23 17620205664154041877
14211702 104 8502383243441267200
14251757 5 18408601457276146936
14790565 3 18191862542464537768
15183329 4 17095525144844259628
1577012 14 18060419081082539684
1601671 61 18411985801416589896
19319366 153 17917155008398975162
19427546 20 18339640023779053414
20871999 31 18338519634415595218
21033650 10 16805879710054435113
21298829 104 17845082984252601804
21315764 119 18336531816561660782
21756936 100 17704352147903939120
22393880 68 18335425604399761048
23559900 14 17894917265784626016
2838139 119 17274821304133431972
293599 30 18410575123423442264
350125 39 18410293589008227403
392239 28 13901896834601343020
4058900 60 18124027095052674977
474 4 18117290357592699257
5283173 99 18337110052098167440
5718773 13 8213269942251788757
6327066 14 18271251628965996813
7237137 82 18338795611459373926
7808743 9 18343022198438545004
7970288 3 9006474127087179429

> <PUBCHEM_SHAPE_MULTIPOLES>
478.17
14.19
3.41
1.28
20.19
2.67
0.37
-10.87
4.33
-4.49
0.52
0.38
-0.67
-0.48

> <PUBCHEM_SHAPE_SELFOVERLAP>
1024.722

> <PUBCHEM_SHAPE_VOLUME>
265

> <PUBCHEM_COORDINATE_TYPE>
2
5
10

$$$$

