17395830
  -OEChem-06241222523D

 46 49  0     0  0  0  0  0  0999 V2000
    2.5772    1.5754   -1.6772 F   0  0  0  0  0  0  0  0  0  0  0  0
    7.2640   -0.7250    1.0586 O   0  0  0  0  0  0  0  0  0  0  0  0
    1.0345    0.2792    0.2175 N   0  0  0  0  0  0  0  0  0  0  0  0
   -1.6637    1.0789    0.1814 N   0  0  0  0  0  0  0  0  0  0  0  0
   -4.0347    0.6921    0.0728 N   0  0  0  0  0  0  0  0  0  0  0  0
   -3.4468    2.7707    0.2641 N   0  0  0  0  0  0  0  0  0  0  0  0
   -5.1831    1.3828    0.0930 N   0  0  0  0  0  0  0  0  0  0  0  0
   -4.8175    2.6534    0.2106 N   0  0  0  0  0  0  0  0  0  0  0  0
    0.3112    0.3797    1.4862 C   0  0  0  0  0  0  0  0  0  0  0  0
    0.1992   -0.0684   -0.9355 C   0  0  0  0  0  0  0  0  0  0  0  0
   -0.8369    1.3826    1.3572 C   0  0  0  0  0  0  0  0  0  0  0  0
   -0.9374    0.9415   -1.0855 C   0  0  0  0  0  0  0  0  0  0  0  0
    2.3976    0.0966    0.1728 C   0  0  0  0  0  0  0  0  0  0  0  0
   -2.9829    1.5454    0.1776 C   0  0  0  0  0  0  0  0  0  0  0  0
    3.1610    0.7578   -0.7894 C   0  0  0  0  0  0  0  0  0  0  0  0
    3.0157   -0.7517    1.0913 C   0  0  0  0  0  0  0  0  0  0  0  0
    4.5425    0.5706   -0.8329 C   0  0  0  0  0  0  0  0  0  0  0  0
    4.3973   -0.9390    1.0478 C   0  0  0  0  0  0  0  0  0  0  0  0
   -4.0260   -0.6937   -0.0433 C   0  0  0  0  0  0  0  0  0  0  0  0
    5.1606   -0.2777    0.0858 C   0  0  0  0  0  0  0  0  0  0  0  0
   -2.9950   -1.4351    0.5336 C   0  0  0  0  0  0  0  0  0  0  0  0
   -5.0481   -1.3422   -0.7363 C   0  0  0  0  0  0  0  0  0  0  0  0
    6.6011   -0.4728    0.0403 C   0  0  0  0  0  0  0  0  0  0  0  0
   -2.9861   -2.8252    0.4177 C   0  0  0  0  0  0  0  0  0  0  0  0
   -5.0392   -2.7323   -0.8522 C   0  0  0  0  0  0  0  0  0  0  0  0
   -4.0084   -3.4738   -0.2753 C   0  0  0  0  0  0  0  0  0  0  0  0
    7.3438   -0.3697   -1.2807 C   0  0  0  0  0  0  0  0  0  0  0  0
    0.9697    0.7272    2.2920 H   0  0  0  0  0  0  0  0  0  0  0  0
   -0.0630   -0.6095    1.7741 H   0  0  0  0  0  0  0  0  0  0  0  0
   -0.2048   -1.0778   -0.7895 H   0  0  0  0  0  0  0  0  0  0  0  0
    0.7727   -0.0930   -1.8694 H   0  0  0  0  0  0  0  0  0  0  0  0
   -1.4395    1.3535    2.2733 H   0  0  0  0  0  0  0  0  0  0  0  0
   -0.4355    2.3992    1.2579 H   0  0  0  0  0  0  0  0  0  0  0  0
   -0.5361    1.9200   -1.3776 H   0  0  0  0  0  0  0  0  0  0  0  0
   -1.6103    0.6081   -1.8845 H   0  0  0  0  0  0  0  0  0  0  0  0
    2.4422   -1.2889    1.8423 H   0  0  0  0  0  0  0  0  0  0  0  0
    5.1134    1.1078   -1.5851 H   0  0  0  0  0  0  0  0  0  0  0  0
    4.8610   -1.6088    1.7674 H   0  0  0  0  0  0  0  0  0  0  0  0
   -2.2285   -1.0018    1.1598 H   0  0  0  0  0  0  0  0  0  0  0  0
   -5.8598   -0.7910   -1.2045 H   0  0  0  0  0  0  0  0  0  0  0  0
   -2.1947   -3.4045    0.8842 H   0  0  0  0  0  0  0  0  0  0  0  0
   -5.8343   -3.2375   -1.3928 H   0  0  0  0  0  0  0  0  0  0  0  0
   -4.0038   -4.5564   -0.3618 H   0  0  0  0  0  0  0  0  0  0  0  0
    7.6548    0.6646   -1.4469 H   0  0  0  0  0  0  0  0  0  0  0  0
    6.7179   -0.7156   -2.1078 H   0  0  0  0  0  0  0  0  0  0  0  0
    8.2268   -1.0153   -1.2472 H   0  0  0  0  0  0  0  0  0  0  0  0
  1 15  1  0  0  0  0
  2 23  2  0  0  0  0
  3  9  1  0  0  0  0
  3 10  1  0  0  0  0
  3 13  1  0  0  0  0
  4 11  1  0  0  0  0
  4 12  1  0  0  0  0
  4 14  1  0  0  0  0
  5  7  1  0  0  0  0
  5 14  1  0  0  0  0
  5 19  1  0  0  0  0
  6  8  1  0  0  0  0
  6 14  2  0  0  0  0
  7  8  2  0  0  0  0
  9 11  1  0  0  0  0
  9 28  1  0  0  0  0
  9 29  1  0  0  0  0
 10 12  1  0  0  0  0
 10 30  1  0  0  0  0
 10 31  1  0  0  0  0
 11 32  1  0  0  0  0
 11 33  1  0  0  0  0
 12 34  1  0  0  0  0
 12 35  1  0  0  0  0
 13 15  2  0  0  0  0
 13 16  1  0  0  0  0
 15 17  1  0  0  0  0
 16 18  2  0  0  0  0
 16 36  1  0  0  0  0
 17 20  2  0  0  0  0
 17 37  1  0  0  0  0
 18 20  1  0  0  0  0
 18 38  1  0  0  0  0
 19 21  2  0  0  0  0
 19 22  1  0  0  0  0
 20 23  1  0  0  0  0
 21 24  1  0  0  0  0
 21 39  1  0  0  0  0
 22 25  2  0  0  0  0
 22 40  1  0  0  0  0
 23 27  1  0  0  0  0
 24 26  2  0  0  0  0
 24 41  1  0  0  0  0
 25 26  1  0  0  0  0
 25 42  1  0  0  0  0
 26 43  1  0  0  0  0
 27 44  1  0  0  0  0
 27 45  1  0  0  0  0
 27 46  1  0  0  0  0
M  END
> <PUBCHEM_COMPOUND_CID>
17395830

> <PUBCHEM_CONFORMER_RMSD>
0.8

> <PUBCHEM_CONFORMER_DIVERSEORDER>
1
83
43
75
31
68
62
28
4
47
39
30
73
56
70
36
74
37
10
13
61
85
19
87
33
8
49
69
82
11
90
46
25
42
24
48
3
35
86
78
14
45
50
71
6
54
53
64
51
9
20
22
15
58
80
16
21
88
72
41
34
12
38
81
59
40
60
32
18
89
55
7
63
5
79
29
26
84
76
23
77
52
65
2
57
27
44
66
17
67

> <PUBCHEM_MMFF94_PARTIAL_CHARGES>
34
1 -0.19
10 0.37
11 0.37
12 0.37
13 0.1
14 0.27
15 0.19
16 -0.15
17 -0.15
18 -0.15
19 -0.02
2 -0.57
20 0.09
21 -0.15
22 -0.15
23 0.42
24 -0.15
25 -0.15
26 -0.15
27 0.06
3 -0.84
36 0.15
37 0.15
38 0.15
39 0.15
4 -0.82
40 0.15
41 0.15
42 0.15
43 0.15
5 0.59
6 -0.34
7 -0.42
9 0.37

> <PUBCHEM_EFFECTIVE_ROTOR_COUNT>
5.2

> <PUBCHEM_PHARMACOPHORE_FEATURES>
7
1 2 acceptor
1 3 cation
4 4 5 6 14 cation
5 5 6 7 8 14 rings
6 13 15 16 17 18 20 rings
6 19 21 22 24 25 26 rings
6 3 4 9 10 11 12 rings

> <PUBCHEM_HEAVY_ATOM_COUNT>
27

> <PUBCHEM_ATOM_DEF_STEREO_COUNT>
0

> <PUBCHEM_ATOM_UDEF_STEREO_COUNT>
0

> <PUBCHEM_BOND_DEF_STEREO_COUNT>
0

> <PUBCHEM_BOND_UDEF_STEREO_COUNT>
0

> <PUBCHEM_ISOTOPIC_ATOM_COUNT>
0

> <PUBCHEM_COMPONENT_COUNT>
1

> <PUBCHEM_CACTVS_TAUTO_COUNT>
2

> <PUBCHEM_CONFORMER_ID>
0109707600000001

> <PUBCHEM_MMFF94_ENERGY>
102.8837

> <PUBCHEM_FEATURE_SELFOVERLAP>
35.52

> <PUBCHEM_SHAPE_FINGERPRINT>
10319926 262 18261123962805875056
10411042 1 18120939409210796103
10595046 47 18342174428182654468
11045977 3 18041287607510712488
11315181 36 18343585122606325325
11524674 6 17458347450554773503
11545043 162 18040156206045935250
11796584 16 18334011731104283098
12107183 9 17981896550649469115
12236239 1 18412544327986050404
12596602 18 18335140878380928688
12616971 3 17846489331477849716
12821665 9 18200024024399161620
13009979 54 18128810859760276439
13583140 156 17748834024460789450
13631057 29 18409170982682236179
13782708 43 17677053443118819822
14251751 18 18334295332031620762
14461889 52 18187939339960166410
14844126 61 18410291377147939203
14856354 85 18408600357816955335
15021287 119 17632850945199065260
15183329 4 17704076179466113850
15250474 111 18271820037480375714
15274700 147 13030115802379713806
15484559 13 14538098705080687199
16990350 14 16892566529486293753
16992828 155 17487904625402430301
17844677 252 18334854983376552616
17857418 61 18202287996139549074
18681886 176 18409169875265962872
18927931 339 18408881815783030311
19489759 90 18333452058052536185
20511986 3 18131084726461664209
21054139 6 18343587326489518402
21236236 1 18410012130662922035
21623969 137 16660638553805927310
21792961 116 16660635290289781710
220451 1 18272931665589863514
2303208 19 17385718098186522526
23081809 10 17918272065637632304
23402539 116 17632574972223017072
23516275 137 17983275308493432234
23522609 53 17916562350800605468
23559900 14 18334301958791885280
23622692 118 18339365162919837061
24771293 8 18059573543714343228
249057 3 18342455963278825709
3004659 81 18130234748176235427
32027 91 17828192530796270902
335352 9 18409736154182983567
397830 11 17968389935935506752
4015057 19 16845000222239010452
4073 2 18334572473618652550
5104073 3 18114740434591420089
5326457 24 18341897454326817874
559249 180 18342177778209633591
5718773 13 17825395085647702103
7495541 125 17967533420382584720

> <PUBCHEM_SHAPE_MULTIPOLES>
512.62
16.85
2.82
1.23
21.7
0.88
0.01
5.6
2.08
-6.85
0.03
1.08
-0.07
-1.29

> <PUBCHEM_SHAPE_SELFOVERLAP>
1115.679

> <PUBCHEM_SHAPE_VOLUME>
280.6

> <PUBCHEM_COORDINATE_TYPE>
2
5
10

$$$$

