5281792
  -OEChem-07051212462D

 42 43  0     1  0  0  0  0  0999 V2000
    6.0010    0.2500    0.0000 O   0  0  0  0  0  0  0  0  0  0  0  0
    4.2690    1.2500    0.0000 O   0  0  0  0  0  0  0  0  0  0  0  0
    8.5991    4.7500    0.0000 O   0  0  0  0  0  0  0  0  0  0  0  0
    6.8671    5.7500    0.0000 O   0  0  0  0  0  0  0  0  0  0  0  0
    5.1350    2.7500    0.0000 O   0  0  0  0  0  0  0  0  0  0  0  0
    4.2690    0.2500    0.0000 O   0  0  0  0  0  0  0  0  0  0  0  0
    2.5369   -4.7500    0.0000 O   0  0  0  0  0  0  0  0  0  0  0  0
    4.2690   -5.7500    0.0000 O   0  0  0  0  0  0  0  0  0  0  0  0
    6.8671    1.7500    0.0000 C   0  0  0  0  0  0  0  0  0  0  0  0
    6.0010    1.2500    0.0000 C   0  0  2  0  0  0  0  0  0  0  0  0
    6.8671    2.7500    0.0000 C   0  0  0  0  0  0  0  0  0  0  0  0
    7.7331    3.2500    0.0000 C   0  0  0  0  0  0  0  0  0  0  0  0
    6.0010    3.2500    0.0000 C   0  0  0  0  0  0  0  0  0  0  0  0
    5.1350    1.7500    0.0000 C   0  0  0  0  0  0  0  0  0  0  0  0
    7.7331    4.2500    0.0000 C   0  0  0  0  0  0  0  0  0  0  0  0
    6.0010    4.2500    0.0000 C   0  0  0  0  0  0  0  0  0  0  0  0
    6.8671    4.7500    0.0000 C   0  0  0  0  0  0  0  0  0  0  0  0
    5.1350   -0.2500    0.0000 C   0  0  0  0  0  0  0  0  0  0  0  0
    4.2690   -2.7500    0.0000 C   0  0  0  0  0  0  0  0  0  0  0  0
    5.1350   -1.2500    0.0000 C   0  0  0  0  0  0  0  0  0  0  0  0
    4.2690   -1.7500    0.0000 C   0  0  0  0  0  0  0  0  0  0  0  0
    3.4030   -3.2500    0.0000 C   0  0  0  0  0  0  0  0  0  0  0  0
    5.1350   -3.2500    0.0000 C   0  0  0  0  0  0  0  0  0  0  0  0
    3.4030   -4.2500    0.0000 C   0  0  0  0  0  0  0  0  0  0  0  0
    5.1350   -4.2500    0.0000 C   0  0  0  0  0  0  0  0  0  0  0  0
    4.2690   -4.7500    0.0000 C   0  0  0  0  0  0  0  0  0  0  0  0
    7.0791    1.1674    0.0000 H   0  0  0  0  0  0  0  0  0  0  0  0
    7.4776    1.8577    0.0000 H   0  0  0  0  0  0  0  0  0  0  0  0
    6.5380    0.9400    0.0000 H   0  0  0  0  0  0  0  0  0  0  0  0
    8.2700    2.9400    0.0000 H   0  0  0  0  0  0  0  0  0  0  0  0
    5.4641    2.9400    0.0000 H   0  0  0  0  0  0  0  0  0  0  0  0
    5.4641    4.5600    0.0000 H   0  0  0  0  0  0  0  0  0  0  0  0
    5.6720   -1.5600    0.0000 H   0  0  0  0  0  0  0  0  0  0  0  0
    3.7320   -1.4400    0.0000 H   0  0  0  0  0  0  0  0  0  0  0  0
    2.8660   -2.9400    0.0000 H   0  0  0  0  0  0  0  0  0  0  0  0
    5.6720   -2.9400    0.0000 H   0  0  0  0  0  0  0  0  0  0  0  0
    5.6720   -4.5600    0.0000 H   0  0  0  0  0  0  0  0  0  0  0  0
    3.7320    1.5600    0.0000 H   0  0  0  0  0  0  0  0  0  0  0  0
    9.1360    4.4400    0.0000 H   0  0  0  0  0  0  0  0  0  0  0  0
    6.3301    6.0600    0.0000 H   0  0  0  0  0  0  0  0  0  0  0  0
    2.0000   -4.4400    0.0000 H   0  0  0  0  0  0  0  0  0  0  0  0
    4.8059   -6.0600    0.0000 H   0  0  0  0  0  0  0  0  0  0  0  0
 10  1  1  1  0  0  0
  1 18  1  0  0  0  0
  2 14  1  0  0  0  0
  2 38  1  0  0  0  0
  3 15  1  0  0  0  0
  3 39  1  0  0  0  0
  4 17  1  0  0  0  0
  4 40  1  0  0  0  0
  5 14  2  0  0  0  0
  6 18  2  0  0  0  0
  7 24  1  0  0  0  0
  7 41  1  0  0  0  0
  8 26  1  0  0  0  0
  8 42  1  0  0  0  0
  9 10  1  0  0  0  0
  9 11  1  0  0  0  0
  9 27  1  0  0  0  0
  9 28  1  0  0  0  0
 10 14  1  0  0  0  0
 10 29  1  0  0  0  0
 11 12  2  0  0  0  0
 11 13  1  0  0  0  0
 12 15  1  0  0  0  0
 12 30  1  0  0  0  0
 13 16  2  0  0  0  0
 13 31  1  0  0  0  0
 15 17  2  0  0  0  0
 16 17  1  0  0  0  0
 16 32  1  0  0  0  0
 18 20  1  0  0  0  0
 19 21  1  0  0  0  0
 19 22  2  0  0  0  0
 19 23  1  0  0  0  0
 20 21  2  0  0  0  0
 20 33  1  0  0  0  0
 21 34  1  0  0  0  0
 22 24  1  0  0  0  0
 22 35  1  0  0  0  0
 23 25  2  0  0  0  0
 23 36  1  0  0  0  0
 24 26  2  0  0  0  0
 25 26  1  0  0  0  0
 25 37  1  0  0  0  0
M  END
> <PUBCHEM_COMPOUND_CID>
5281792

> <PUBCHEM_COMPOUND_CANONICALIZED>
1

> <PUBCHEM_CACTVS_COMPLEXITY>
519

> <PUBCHEM_CACTVS_HBOND_ACCEPTOR>
8

> <PUBCHEM_CACTVS_HBOND_DONOR>
5

> <PUBCHEM_CACTVS_ROTATABLE_BOND>
7

> <PUBCHEM_CACTVS_SUBSKEYS>
AAADceB4PAAAAAAAAAAAAAAAAAAAAAAAAAAwYAAAAAAAAAABQAAAGgAACAAADBSgmAIwDoAABgCIAiDSCAICAAAgIAAIiAFGiMgJJjKCMRaCcAEkwBELuYeI6LyOIAABAAAAQABAAAIAAACAAAAAAAAAAA==

> <PUBCHEM_IUPAC_OPENEYE_NAME>
(2R)-3-(3,4-dihydroxyphenyl)-2-[(E)-3-(3,4-dihydroxyphenyl)prop-2-enoyl]oxy-propanoic acid

> <PUBCHEM_IUPAC_CAS_NAME>
(2R)-3-(3,4-dihydroxyphenyl)-2-[(E)-3-(3,4-dihydroxyphenyl)-1-oxoprop-2-enoxy]propanoic acid

> <PUBCHEM_IUPAC_NAME>
(2R)-3-(3,4-dihydroxyphenyl)-2-[(E)-3-(3,4-dihydroxyphenyl)prop-2-enoyl]oxypropanoic acid

> <PUBCHEM_IUPAC_SYSTEMATIC_NAME>
(2R)-3-[3,4-bis(oxidanyl)phenyl]-2-[(E)-3-[3,4-bis(oxidanyl)phenyl]prop-2-enoyl]oxy-propanoic acid

> <PUBCHEM_IUPAC_TRADITIONAL_NAME>
(2R)-3-(3,4-dihydroxyphenyl)-2-[(E)-3-(3,4-dihydroxyphenyl)acryloyl]oxy-propionic acid

> <PUBCHEM_IUPAC_INCHI>
InChI=1S/C18H16O8/c19-12-4-1-10(7-14(12)21)3-6-17(23)26-16(18(24)25)9-11-2-5-13(20)15(22)8-11/h1-8,16,19-22H,9H2,(H,24,25)/b6-3+/t16-/m1/s1

> <PUBCHEM_IUPAC_INCHIKEY>
DOUMFZQKYFQNTF-WUTVXBCWSA-N

> <PUBCHEM_XLOGP3_AA>
2.4

> <PUBCHEM_EXACT_MASS>
360.084517

> <PUBCHEM_MOLECULAR_FORMULA>
C18H16O8

> <PUBCHEM_MOLECULAR_WEIGHT>
360.31484

> <PUBCHEM_OPENEYE_CAN_SMILES>
C1=CC(=C(C=C1CC(C(=O)O)OC(=O)C=CC2=CC(=C(C=C2)O)O)O)O

> <PUBCHEM_OPENEYE_ISO_SMILES>
C1=CC(=C(C=C1C[C@H](C(=O)O)OC(=O)/C=C/C2=CC(=C(C=C2)O)O)O)O

> <PUBCHEM_CACTVS_TPSA>
145

> <PUBCHEM_MONOISOTOPIC_WEIGHT>
360.084517

> <PUBCHEM_TOTAL_CHARGE>
0

> <PUBCHEM_HEAVY_ATOM_COUNT>
26

> <PUBCHEM_ATOM_DEF_STEREO_COUNT>
1

> <PUBCHEM_ATOM_UDEF_STEREO_COUNT>
0

> <PUBCHEM_BOND_DEF_STEREO_COUNT>
1

> <PUBCHEM_BOND_UDEF_STEREO_COUNT>
0

> <PUBCHEM_ISOTOPIC_ATOM_COUNT>
0

> <PUBCHEM_COMPONENT_COUNT>
1

> <PUBCHEM_CACTVS_TAUTO_COUNT>
288

> <PUBCHEM_COORDINATE_TYPE>
1
5
255

> <PUBCHEM_BONDANNOTATIONS>
10  1  5
11  12  8
11  13  8
12  15  8
13  16  8
15  17  8
16  17  8
19  22  8
19  23  8
22  24  8
23  25  8
24  26  8
25  26  8

$$$$

