13118284
  -OEChem-07051213103D

 37 38  0     1  0  0  0  0  0999 V2000
    2.8191   -1.2973   -0.1629 O   0  0  0  0  0  0  0  0  0  0  0  0
   -0.5426    1.3481   -1.3259 O   0  0  0  0  0  0  0  0  0  0  0  0
   -2.2879    1.3124    0.3402 C   0  0  1  0  0  0  0  0  0  0  0  0
   -3.1269    0.2039   -0.3333 C   0  0  0  0  0  0  0  0  0  0  0  0
    0.2470    1.1449    0.9391 C   0  0  0  0  0  0  0  0  0  0  0  0
   -3.0831   -1.1695    0.3650 C   0  0  0  0  0  0  0  0  0  0  0  0
    1.4349    0.3807    0.4528 C   0  0  0  0  0  0  0  0  0  0  0  0
   -0.8293    1.2587   -0.1299 C   0  0  0  0  0  0  0  0  0  0  0  0
    1.5781   -0.9950    0.3147 C   0  0  0  0  0  0  0  0  0  0  0  0
    0.6824   -2.1626    0.5753 C   0  0  0  0  0  0  0  0  0  0  0  0
   -2.8367    2.6970   -0.0038 C   0  0  0  0  0  0  0  0  0  0  0  0
   -0.7086   -2.0177   -0.0048 C   0  0  0  0  0  0  0  0  0  0  0  0
   -1.7141   -1.6040    0.7889 C   0  0  0  0  0  0  0  0  0  0  0  0
    2.6766    0.9335    0.0273 C   0  0  0  0  0  0  0  0  0  0  0  0
    3.4754   -0.1236   -0.3346 C   0  0  0  0  0  0  0  0  0  0  0  0
   -0.8332   -2.2696   -1.4808 C   0  0  0  0  0  0  0  0  0  0  0  0
    3.0489    2.3601   -0.0273 C   0  0  0  0  0  0  0  0  0  0  0  0
   -2.3263    1.1968    1.4293 H   0  0  0  0  0  0  0  0  0  0  0  0
   -2.8161    0.0813   -1.3785 H   0  0  0  0  0  0  0  0  0  0  0  0
   -4.1804    0.5111   -0.3674 H   0  0  0  0  0  0  0  0  0  0  0  0
   -0.1603    0.6438    1.8231 H   0  0  0  0  0  0  0  0  0  0  0  0
    0.5191    2.1607    1.2447 H   0  0  0  0  0  0  0  0  0  0  0  0
   -3.5495   -1.9281   -0.2741 H   0  0  0  0  0  0  0  0  0  0  0  0
   -3.7097   -1.1200    1.2651 H   0  0  0  0  0  0  0  0  0  0  0  0
    1.1361   -3.0814    0.1820 H   0  0  0  0  0  0  0  0  0  0  0  0
    0.6312   -2.3083    1.6625 H   0  0  0  0  0  0  0  0  0  0  0  0
   -2.2137    3.4833    0.4367 H   0  0  0  0  0  0  0  0  0  0  0  0
   -2.8599    2.8614   -1.0868 H   0  0  0  0  0  0  0  0  0  0  0  0
   -3.8550    2.8181    0.3803 H   0  0  0  0  0  0  0  0  0  0  0  0
   -1.5035   -1.4476    1.8462 H   0  0  0  0  0  0  0  0  0  0  0  0
    4.4836   -0.2049   -0.7145 H   0  0  0  0  0  0  0  0  0  0  0  0
   -1.8598   -2.1779   -1.8445 H   0  0  0  0  0  0  0  0  0  0  0  0
   -0.4974   -3.2849   -1.7167 H   0  0  0  0  0  0  0  0  0  0  0  0
   -0.2161   -1.5630   -2.0448 H   0  0  0  0  0  0  0  0  0  0  0  0
    3.0681    2.7909    0.9790 H   0  0  0  0  0  0  0  0  0  0  0  0
    4.0399    2.5004   -0.4715 H   0  0  0  0  0  0  0  0  0  0  0  0
    2.3299    2.9242   -0.6304 H   0  0  0  0  0  0  0  0  0  0  0  0
  1  9  1  0  0  0  0
  1 15  1  0  0  0  0
  2  8  2  0  0  0  0
  3  4  1  0  0  0  0
  3  8  1  0  0  0  0
  3 11  1  0  0  0  0
  3 18  1  0  0  0  0
  4  6  1  0  0  0  0
  4 19  1  0  0  0  0
  4 20  1  0  0  0  0
  5  7  1  0  0  0  0
  5  8  1  0  0  0  0
  5 21  1  0  0  0  0
  5 22  1  0  0  0  0
  6 13  1  0  0  0  0
  6 23  1  0  0  0  0
  6 24  1  0  0  0  0
  7  9  2  0  0  0  0
  7 14  1  0  0  0  0
  9 10  1  0  0  0  0
 10 12  1  0  0  0  0
 10 25  1  0  0  0  0
 10 26  1  0  0  0  0
 11 27  1  0  0  0  0
 11 28  1  0  0  0  0
 11 29  1  0  0  0  0
 12 13  2  0  0  0  0
 12 16  1  0  0  0  0
 13 30  1  0  0  0  0
 14 15  2  0  0  0  0
 14 17  1  0  0  0  0
 15 31  1  0  0  0  0
 16 32  1  0  0  0  0
 16 33  1  0  0  0  0
 16 34  1  0  0  0  0
 17 35  1  0  0  0  0
 17 36  1  0  0  0  0
 17 37  1  0  0  0  0
M  END
> <PUBCHEM_COMPOUND_CID>
13118284

> <PUBCHEM_CONFORMER_RMSD>
0.6

> <PUBCHEM_CONFORMER_DIVERSEORDER>
1

> <PUBCHEM_MMFF94_PARTIAL_CHARGES>
17
1 -0.28
10 0.32
12 -0.28
13 -0.29
14 -0.18
15 -0.01
16 0.14
17 0.18
2 -0.57
3 0.06
30 0.15
31 0.15
5 0.24
6 0.14
7 -0.18
8 0.45
9 -0.04

> <PUBCHEM_EFFECTIVE_ROTOR_COUNT>
1

> <PUBCHEM_PHARMACOPHORE_FEATURES>
3
1 1 acceptor
1 2 acceptor
5 1 7 9 14 15 rings

> <PUBCHEM_HEAVY_ATOM_COUNT>
17

> <PUBCHEM_ATOM_DEF_STEREO_COUNT>
1

> <PUBCHEM_ATOM_UDEF_STEREO_COUNT>
0

> <PUBCHEM_BOND_DEF_STEREO_COUNT>
1

> <PUBCHEM_BOND_UDEF_STEREO_COUNT>
0

> <PUBCHEM_ISOTOPIC_ATOM_COUNT>
0

> <PUBCHEM_COMPONENT_COUNT>
1

> <PUBCHEM_CACTVS_TAUTO_COUNT>
3

> <PUBCHEM_CONFORMER_ID>
00C82B4C00000001

> <PUBCHEM_MMFF94_ENERGY>
21.848

> <PUBCHEM_FEATURE_SELFOVERLAP>
15.223

> <PUBCHEM_SHAPE_FINGERPRINT>
10608611 8 18410856546955692208
10863032 1 18341049696095459667
10948715 1 18338233877050268949
10967382 1 18051129198667701921
11132069 177 18191311468427427488
12011746 2 18411418419114798647
12173636 292 18410295821827310149
13027679 85 17833267519855202157
13132413 78 17761202220292627869
13140716 1 18338800129617432488
13897977 150 18268713994577832681
14251745 187 17974295313476361032
14817 1 5381489697359578519
15196674 1 18411417267994997787
15775835 57 18198899399617317466
16945 1 18199190770251464843
17357779 13 18124047736618351519
18186145 218 18261105335322040008
20510252 161 18335979770849897081
20511035 2 18046931516760553675
21501502 16 18268997668540908307
22802520 49 18338223895609836394
2334 1 18410013229942415369
23419403 2 15443617509621657875
23559900 14 18261110838103353090
238 59 17550706577796455245
25 1 18050286165460039025
2748010 2 18410008853359937792
2871803 45 18412832378241180151
3060560 45 18122349235644599172
353137 74 18127984013698575264
5939293 188 17835245918871873841
81228 2 18196663890646345137
8272917 22 17686618348430649049
90525 40 18334012834583538399

> <PUBCHEM_SHAPE_MULTIPOLES>
338.11
5.29
3.03
0.98
1.39
0.26
-0.19
1.76
-0.14
-0.91
-0.22
-0.21
-0.24
0.03

> <PUBCHEM_SHAPE_SELFOVERLAP>
701.189

> <PUBCHEM_SHAPE_VOLUME>
193.6

> <PUBCHEM_COORDINATE_TYPE>
2
5
10

$$$$

