442741
  -OEChem-07051212592D

 50 53  0     1  0  0  0  0  0999 V2000
    5.8324   -1.8079    0.0000 O   0  0  0  0  0  0  0  0  0  0  0  0
    5.2229    0.7151    0.0000 O   0  0  0  0  0  0  0  0  0  0  0  0
    2.6248    0.2151    0.0000 O   0  0  0  0  0  0  0  0  0  0  0  0
    3.7806   -0.2081    0.0000 O   0  0  0  0  0  0  0  0  0  0  0  0
    2.0000   -2.1169    0.0000 O   0  0  0  0  0  0  0  0  0  0  0  0
    4.0487   -1.0336    0.0000 O   0  0  0  0  0  0  0  0  0  0  0  0
    4.5661    3.1869    0.0000 N   0  0  3  0  0  0  0  0  0  0  0  0
    5.0391   -1.1992    0.0000 C   0  0  2  0  0  0  0  0  0  0  0  0
    5.9629   -0.8165    0.0000 C   0  0  2  0  0  0  0  0  0  0  0  0
    4.3569    2.2151    0.0000 C   0  0  1  0  0  0  0  0  0  0  0  0
    4.5391   -2.0652    0.0000 C   0  0  0  0  0  0  0  0  0  0  0  0
    5.2229    1.7151    0.0000 C   0  0  1  0  0  0  0  0  0  0  0  0
    3.5731   -2.3240    0.0000 C   0  0  2  0  0  0  0  0  0  0  0  0
    5.9599    2.3821    0.0000 C   0  0  0  0  0  0  0  0  0  0  0  0
    5.5548    3.2899    0.0000 C   0  0  0  0  0  0  0  0  0  0  0  0
    4.7802   -0.2332    0.0000 C   0  0  0  0  0  0  0  0  0  0  0  0
    3.4909    1.7151    0.0000 C   0  0  0  0  0  0  0  0  0  0  0  0
    5.0705    2.3140    0.0000 C   0  0  0  0  0  0  0  0  0  0  0  0
    2.8660   -1.6169    0.0000 C   0  0  2  0  0  0  0  0  0  0  0  0
    6.5717   -0.0231    0.0000 C   0  0  0  0  0  0  0  0  0  0  0  0
    4.4758    1.4999    0.0000 C   0  0  0  0  0  0  0  0  0  0  0  0
    3.3143   -3.2899    0.0000 C   0  0  0  0  0  0  0  0  0  0  0  0
    3.4909    0.7151    0.0000 C   0  0  0  0  0  0  0  0  0  0  0  0
    3.1248   -0.6510    0.0000 C   0  0  0  0  0  0  0  0  0  0  0  0
    2.0000   -1.1168    0.0000 C   0  0  0  0  0  0  0  0  0  0  0  0
    6.5357   -1.0537    0.0000 H   0  0  0  0  0  0  0  0  0  0  0  0
    3.9319    2.9512    0.0000 H   0  0  0  0  0  0  0  0  0  0  0  0
    4.5391   -2.6852    0.0000 H   0  0  0  0  0  0  0  0  0  0  0  0
    5.1379   -2.2256    0.0000 H   0  0  0  0  0  0  0  0  0  0  0  0
    5.9999    1.3703    0.0000 H   0  0  0  0  0  0  0  0  0  0  0  0
    2.9743   -2.4845    0.0000 H   0  0  0  0  0  0  0  0  0  0  0  0
    6.3254    1.8813    0.0000 H   0  0  0  0  0  0  0  0  0  0  0  0
    6.4964    2.6929    0.0000 H   0  0  0  0  0  0  0  0  0  0  0  0
    6.1444    3.4817    0.0000 H   0  0  0  0  0  0  0  0  0  0  0  0
    5.4261    3.8964    0.0000 H   0  0  0  0  0  0  0  0  0  0  0  0
    5.5158    1.8826    0.0000 H   0  0  0  0  0  0  0  0  0  0  0  0
    5.5593    2.6954    0.0000 H   0  0  0  0  0  0  0  0  0  0  0  0
    7.0636   -0.4006    0.0000 H   0  0  0  0  0  0  0  0  0  0  0  0
    6.9491    0.4688    0.0000 H   0  0  0  0  0  0  0  0  0  0  0  0
    6.0798    0.3543    0.0000 H   0  0  0  0  0  0  0  0  0  0  0  0
    4.6956    0.9202    0.0000 H   0  0  0  0  0  0  0  0  0  0  0  0
    2.7154   -3.1295    0.0000 H   0  0  0  0  0  0  0  0  0  0  0  0
    3.1538   -3.8888    0.0000 H   0  0  0  0  0  0  0  0  0  0  0  0
    3.9132   -3.4504    0.0000 H   0  0  0  0  0  0  0  0  0  0  0  0
    3.7029    0.1324    0.0000 H   0  0  0  0  0  0  0  0  0  0  0  0
    4.1014    0.8227    0.0000 H   0  0  0  0  0  0  0  0  0  0  0  0
    2.3101   -0.5799    0.0000 H   0  0  0  0  0  0  0  0  0  0  0  0
    1.4632   -0.8068    0.0000 H   0  0  0  0  0  0  0  0  0  0  0  0
    1.6900   -1.6537    0.0000 H   0  0  0  0  0  0  0  0  0  0  0  0
    2.0000   -2.7369    0.0000 H   0  0  0  0  0  0  0  0  0  0  0  0
  8  1  1  6  0  0  0
  1  9  1  0  0  0  0
  2 12  1  0  0  0  0
  2 16  1  0  0  0  0
  3 23  1  0  0  0  0
  3 24  1  0  0  0  0
  4 16  2  0  0  0  0
 19  5  1  1  0  0  0
  5 50  1  0  0  0  0
  6 24  2  0  0  0  0
  7 10  1  0  0  0  0
  7 15  1  0  0  0  0
  7 18  1  0  0  0  0
  8  9  1  0  0  0  0
  8 11  1  0  0  0  0
  8 16  1  0  0  0  0
  9 20  1  6  0  0  0
  9 26  1  0  0  0  0
 10 12  1  0  0  0  0
 10 17  1  0  0  0  0
 10 27  1  6  0  0  0
 11 13  1  0  0  0  0
 11 28  1  0  0  0  0
 11 29  1  0  0  0  0
 12 14  1  0  0  0  0
 12 30  1  6  0  0  0
 13 19  1  0  0  0  0
 13 22  1  1  0  0  0
 13 31  1  0  0  0  0
 14 15  1  0  0  0  0
 14 32  1  0  0  0  0
 14 33  1  0  0  0  0
 15 34  1  0  0  0  0
 15 35  1  0  0  0  0
 17 21  2  0  0  0  0
 17 23  1  0  0  0  0
 18 21  1  0  0  0  0
 18 36  1  0  0  0  0
 18 37  1  0  0  0  0
 19 24  1  0  0  0  0
 19 25  1  0  0  0  0
 20 38  1  0  0  0  0
 20 39  1  0  0  0  0
 20 40  1  0  0  0  0
 21 41  1  0  0  0  0
 22 42  1  0  0  0  0
 22 43  1  0  0  0  0
 22 44  1  0  0  0  0
 23 45  1  0  0  0  0
 23 46  1  0  0  0  0
 25 47  1  0  0  0  0
 25 48  1  0  0  0  0
 25 49  1  0  0  0  0
M  END
> <PUBCHEM_COMPOUND_CID>
442741

> <PUBCHEM_COMPOUND_CANONICALIZED>
1

> <PUBCHEM_CACTVS_COMPLEXITY>
648

> <PUBCHEM_CACTVS_HBOND_ACCEPTOR>
7

> <PUBCHEM_CACTVS_HBOND_DONOR>
1

> <PUBCHEM_CACTVS_ROTATABLE_BOND>
0

> <PUBCHEM_CACTVS_SUBSKEYS>
AAADceB6OAAAAAAAAAAAAAAAEgAAAWIAAAAAAAAAAAAQAAAAAAAAHgAACAAADXzhgAYCCAMABgCIAiDSCAKAAAAgAAAACAFIAAgDBBYAoQQHUAAH4ACbIAPY7HzOgAAAAAAAAAAAAAAAAAAAAAAAAAAAAA==

> <PUBCHEM_IUPAC_INCHI>
InChI=1S/C18H25NO6/c1-10-8-18(11(2)25-18)16(21)24-13-5-7-19-6-4-12(14(13)19)9-23-15(20)17(10,3)22/h4,10-11,13-14,22H,5-9H2,1-3H3/t10-,11+,13-,14-,17-,18+/m1/s1

> <PUBCHEM_IUPAC_INCHIKEY>
IAPHXJRHXBQDQJ-WKMWQDDRSA-N

> <PUBCHEM_XLOGP3_AA>
0.3

> <PUBCHEM_EXACT_MASS>
351.168188

> <PUBCHEM_MOLECULAR_FORMULA>
C18H25NO6

> <PUBCHEM_MOLECULAR_WEIGHT>
351.3942

> <PUBCHEM_OPENEYE_CAN_SMILES>
CC1CC2(C(O2)C)C(=O)OC3CCN4C3C(=CC4)COC(=O)C1(C)O

> <PUBCHEM_OPENEYE_ISO_SMILES>
C[C@@H]1C[C@]2([C@@H](O2)C)C(=O)O[C@@H]3CCN4[C@@H]3C(=CC4)COC(=O)[C@]1(C)O

> <PUBCHEM_CACTVS_TPSA>
88.6

> <PUBCHEM_MONOISOTOPIC_WEIGHT>
351.168188

> <PUBCHEM_TOTAL_CHARGE>
0

> <PUBCHEM_HEAVY_ATOM_COUNT>
25

> <PUBCHEM_ATOM_DEF_STEREO_COUNT>
6

> <PUBCHEM_ATOM_UDEF_STEREO_COUNT>
0

> <PUBCHEM_BOND_DEF_STEREO_COUNT>
0

> <PUBCHEM_BOND_UDEF_STEREO_COUNT>
0

> <PUBCHEM_ISOTOPIC_ATOM_COUNT>
0

> <PUBCHEM_COMPONENT_COUNT>
1

> <PUBCHEM_CACTVS_TAUTO_COUNT>
1

> <PUBCHEM_COORDINATE_TYPE>
1
5
255

> <PUBCHEM_BONDANNOTATIONS>
8  1  6
10  27  6
12  30  6
13  22  5
19  5  5
9  20  6

$$$$

