55717
  -OEChem-07051212513D

 51 53  0     0  0  0  0  0  0999 V2000
    2.1203    1.4504    0.4762 O   0  0  0  0  0  0  0  0  0  0  0  0
   -8.0138   -1.0402   -1.1579 O   0  0  0  0  0  0  0  0  0  0  0  0
    8.0976    0.2221   -1.1559 O   0  0  0  0  0  0  0  0  0  0  0  0
   -9.2732   -0.5333   -1.4541 N   0  0  0  0  0  0  0  0  0  0  0  0
    7.9335   -1.4102    0.4364 N   0  0  0  0  0  0  0  0  0  0  0  0
   -2.6757    0.3847    0.2413 C   0  0  0  0  0  0  0  0  0  0  0  0
   -3.7766   -0.5882    0.6691 C   0  0  0  0  0  0  0  0  0  0  0  0
   -1.3060   -0.0666    0.7509 C   0  0  0  0  0  0  0  0  0  0  0  0
   -5.1516   -0.1166    0.1857 C   0  0  0  0  0  0  0  0  0  0  0  0
   -0.2118    0.9215    0.3526 C   0  0  0  0  0  0  0  0  0  0  0  0
   -6.2868   -1.0747    0.5637 C   0  0  0  0  0  0  0  0  0  0  0  0
    1.1479    0.5018    0.8926 C   0  0  0  0  0  0  0  0  0  0  0  0
   -7.6392   -0.6168    0.0765 C   0  0  0  0  0  0  0  0  0  0  0  0
   -8.6261    0.1661    0.6145 C   0  0  0  0  0  0  0  0  0  0  0  0
    3.4006    0.9906    0.3075 C   0  0  0  0  0  0  0  0  0  0  0  0
   -9.6184    0.1837   -0.3808 C   0  0  0  0  0  0  0  0  0  0  0  0
    6.0075    0.0577   -0.0331 C   0  0  0  0  0  0  0  0  0  0  0  0
    3.8660   -0.0754    1.0775 C   0  0  0  0  0  0  0  0  0  0  0  0
    4.2386    1.5902   -0.6327 C   0  0  0  0  0  0  0  0  0  0  0  0
    7.3816   -0.4337   -0.2119 C   0  0  0  0  0  0  0  0  0  0  0  0
    5.1694   -0.5418    0.9072 C   0  0  0  0  0  0  0  0  0  0  0  0
    5.5420    1.1237   -0.8029 C   0  0  0  0  0  0  0  0  0  0  0  0
    9.2825   -0.5449   -1.3006 C   0  0  0  0  0  0  0  0  0  0  0  0
    9.3088   -1.4256   -0.0735 C   0  0  0  0  0  0  0  0  0  0  0  0
  -10.9171    0.8755   -0.3482 C   0  0  0  0  0  0  0  0  0  0  0  0
   -2.9001    1.3853    0.6306 H   0  0  0  0  0  0  0  0  0  0  0  0
   -2.6549    0.4604   -0.8527 H   0  0  0  0  0  0  0  0  0  0  0  0
   -3.5664   -1.5844    0.2617 H   0  0  0  0  0  0  0  0  0  0  0  0
   -3.7870   -0.6799    1.7618 H   0  0  0  0  0  0  0  0  0  0  0  0
   -1.0720   -1.0593    0.3477 H   0  0  0  0  0  0  0  0  0  0  0  0
   -1.3347   -0.1599    1.8434 H   0  0  0  0  0  0  0  0  0  0  0  0
   -5.3622    0.8770    0.6021 H   0  0  0  0  0  0  0  0  0  0  0  0
   -5.1308    0.0035   -0.9053 H   0  0  0  0  0  0  0  0  0  0  0  0
   -0.4529    1.9260    0.7225 H   0  0  0  0  0  0  0  0  0  0  0  0
   -0.1599    1.0090   -0.7400 H   0  0  0  0  0  0  0  0  0  0  0  0
   -6.3266   -1.1842    1.6544 H   0  0  0  0  0  0  0  0  0  0  0  0
   -6.0814   -2.0710    0.1533 H   0  0  0  0  0  0  0  0  0  0  0  0
    1.3677   -0.5009    0.5032 H   0  0  0  0  0  0  0  0  0  0  0  0
    1.1240    0.4695    1.9881 H   0  0  0  0  0  0  0  0  0  0  0  0
   -8.6249    0.6499    1.5801 H   0  0  0  0  0  0  0  0  0  0  0  0
    3.2558   -0.5514    1.8392 H   0  0  0  0  0  0  0  0  0  0  0  0
    3.8809    2.4210   -1.2347 H   0  0  0  0  0  0  0  0  0  0  0  0
    5.5127   -1.3693    1.5223 H   0  0  0  0  0  0  0  0  0  0  0  0
    6.1666    1.6146   -1.5440 H   0  0  0  0  0  0  0  0  0  0  0  0
   10.1562    0.1107   -1.3580 H   0  0  0  0  0  0  0  0  0  0  0  0
    9.2147   -1.1284   -2.2248 H   0  0  0  0  0  0  0  0  0  0  0  0
    9.6367   -2.4412   -0.3146 H   0  0  0  0  0  0  0  0  0  0  0  0
    9.9831   -1.0214    0.6896 H   0  0  0  0  0  0  0  0  0  0  0  0
  -11.0558    1.4186    0.5923 H   0  0  0  0  0  0  0  0  0  0  0  0
  -11.7398    0.1597   -0.4460 H   0  0  0  0  0  0  0  0  0  0  0  0
  -10.9912    1.5990   -1.1667 H   0  0  0  0  0  0  0  0  0  0  0  0
  1 12  1  0  0  0  0
  1 15  1  0  0  0  0
  2  4  1  0  0  0  0
  2 13  1  0  0  0  0
  3 20  1  0  0  0  0
  3 23  1  0  0  0  0
  4 16  2  0  0  0  0
  5 20  2  0  0  0  0
  5 24  1  0  0  0  0
  6  7  1  0  0  0  0
  6  8  1  0  0  0  0
  6 26  1  0  0  0  0
  6 27  1  0  0  0  0
  7  9  1  0  0  0  0
  7 28  1  0  0  0  0
  7 29  1  0  0  0  0
  8 10  1  0  0  0  0
  8 30  1  0  0  0  0
  8 31  1  0  0  0  0
  9 11  1  0  0  0  0
  9 32  1  0  0  0  0
  9 33  1  0  0  0  0
 10 12  1  0  0  0  0
 10 34  1  0  0  0  0
 10 35  1  0  0  0  0
 11 13  1  0  0  0  0
 11 36  1  0  0  0  0
 11 37  1  0  0  0  0
 12 38  1  0  0  0  0
 12 39  1  0  0  0  0
 13 14  2  0  0  0  0
 14 16  1  0  0  0  0
 14 40  1  0  0  0  0
 15 18  2  0  0  0  0
 15 19  1  0  0  0  0
 16 25  1  0  0  0  0
 17 20  1  0  0  0  0
 17 21  2  0  0  0  0
 17 22  1  0  0  0  0
 18 21  1  0  0  0  0
 18 41  1  0  0  0  0
 19 22  2  0  0  0  0
 19 42  1  0  0  0  0
 21 43  1  0  0  0  0
 22 44  1  0  0  0  0
 23 24  1  0  0  0  0
 23 45  1  0  0  0  0
 23 46  1  0  0  0  0
 24 47  1  0  0  0  0
 24 48  1  0  0  0  0
 25 49  1  0  0  0  0
 25 50  1  0  0  0  0
 25 51  1  0  0  0  0
M  END
> <PUBCHEM_COMPOUND_CID>
55717

> <PUBCHEM_CONFORMER_RMSD>
1.2

> <PUBCHEM_CONFORMER_DIVERSEORDER>
1
121
120
91
79
114
56
49
92
29
15
87
36
90
35
123
117
76
70
23
83
116
21
13
27
63
2
97
82
39
61
17
73
125
95
41
6
55
88
94
14
58
12
30
107
10
98
62
93
113
32
33
50
111
99
31
8
54
112
57
65
3
84
5
28
86
59
100
25
44
19
124
18
40
11
42
110
66
81
22
47
104
71
106
69
43
60
105
53
126
77
34
64
103
26
7
46
48
89
122
38
75
45
108
78
9
102
51
119
16
67
96
20
37
4
74
118
68
101
109
72
80
85
52
24
115

> <PUBCHEM_MMFF94_PARTIAL_CHARGES>
25
1 -0.36
11 0.18
12 0.28
13 -0.04
14 -0.15
15 0.08
16 0.11
17 0.09
18 -0.15
19 -0.15
2 -0.02
20 0.51
21 -0.15
22 -0.15
23 0.28
24 0.25
25 0.18
3 -0.43
4 -0.41
40 0.15
41 0.15
42 0.15
43 0.15
44 0.15
5 -0.7

> <PUBCHEM_EFFECTIVE_ROTOR_COUNT>
10.6

> <PUBCHEM_PHARMACOPHORE_FEATURES>
7
1 1 acceptor
1 4 acceptor
3 6 8 10 hydrophobe
3 7 9 11 hydrophobe
5 2 4 13 14 16 rings
5 3 5 20 23 24 rings
6 15 17 18 19 21 22 rings

> <PUBCHEM_HEAVY_ATOM_COUNT>
25

> <PUBCHEM_ATOM_DEF_STEREO_COUNT>
0

> <PUBCHEM_ATOM_UDEF_STEREO_COUNT>
0

> <PUBCHEM_BOND_DEF_STEREO_COUNT>
0

> <PUBCHEM_BOND_UDEF_STEREO_COUNT>
0

> <PUBCHEM_ISOTOPIC_ATOM_COUNT>
0

> <PUBCHEM_COMPONENT_COUNT>
1

> <PUBCHEM_CACTVS_TAUTO_COUNT>
1

> <PUBCHEM_CONFORMER_ID>
0000D9A500000001

> <PUBCHEM_MMFF94_ENERGY>
43.991

> <PUBCHEM_FEATURE_SELFOVERLAP>
35.52

> <PUBCHEM_SHAPE_FINGERPRINT>
10 15 9079117756616765825
10162869 55 6627461913526852601
10299344 5 18412823585989386369
106641 1 7781515915083733345
10883706 142 8358259241590840464
11534866 41 15936403473537469846
11638347 137 14490465405324397932
12089408 11 17676201360240724801
12498461 61 16226052201696889870
12539745 222 16370717175529884345
12559415 86 16916788556207894311
12592606 108 18260830375873864899
14117953 113 18335415764476984686
14251764 46 17748826320043646043
14344974 52 15123499277218083304
14428016 248 12895352205289005951
14428016 86 11167945762336804144
15065858 18 17240207625380495683
15247644 1 17167860863837545823
15326923 82 18260831480624848848
15510794 2 15791726430002165489
155225 1 12607399988826500694
15690457 1 17312821576338718854
15706992 2 10519980479197870162
15773216 30 16414927460299505386
1754911 235 17346599660255203999
1818759 1 18186799179654163422
21095123 145 14189569720937202721
21362267 313 9006520293679191957
21792961 116 18410856590390642457
22224240 67 6699810877824640677
232437 2 17821446863307202943
246663 6 18114178640342500658
28498 318 18411700984802010763
3092352 35 12103847847559405817
33684 2 17458344143946367361
439807 62 18272932735221615826
5758199 1 12103852259218604465
6081469 158 17561084722232744566
9663363 56 18335140891455630816
9937071 3 18334009502069387570

> <PUBCHEM_SHAPE_MULTIPOLES>
486.92
43.25
1.26
1.09
50.44
0.11
0.19
-8.1
14.98
-1.43
0.03
-0.09
-0.06
-0.34

> <PUBCHEM_SHAPE_SELFOVERLAP>
1011.278

> <PUBCHEM_SHAPE_VOLUME>
279.1

> <PUBCHEM_COORDINATE_TYPE>
2
5
10

$$$$

