442568
  -OEChem-07051212582D

 99102  0     1  0  0  0  0  0999 V2000
    2.8660   -1.0000    0.0000 O   0  0  0  0  0  0  0  0  0  0  0  0
    8.0622    2.0000    0.0000 O   0  0  0  0  0  0  0  0  0  0  0  0
    4.5981    1.0000    0.0000 O   0  0  0  0  0  0  0  0  0  0  0  0
    3.7226   -1.5167    0.0000 O   0  0  0  0  0  0  0  0  0  0  0  0
    3.7118   -4.4632    0.0000 O   0  0  0  0  0  0  0  0  0  0  0  0
    2.0000   -5.5000    0.0000 O   0  0  0  0  0  0  0  0  0  0  0  0
    5.4641   -0.5000    0.0000 N   0  0  0  0  0  0  0  0  0  0  0  0
    6.3301    2.0000    0.0000 N   0  0  0  0  0  0  0  0  0  0  0  0
    6.3301    4.0000    0.0000 N   0  0  0  0  0  0  0  0  0  0  0  0
    5.4641   -2.5000    0.0000 N   0  0  0  0  0  0  0  0  0  0  0  0
    4.5981   -5.0000    0.0000 N   0  0  0  0  0  0  0  0  0  0  0  0
    8.2710   -2.3021    0.0000 N   0  0  0  0  0  0  0  0  0  0  0  0
    4.5981   -1.0000    0.0000 C   0  0  1  0  0  0  0  0  0  0  0  0
    3.7321   -0.5000    0.0000 C   0  0  0  0  0  0  0  0  0  0  0  0
    7.1962    3.5000    0.0000 C   0  0  1  0  0  0  0  0  0  0  0  0
    6.3301    1.0000    0.0000 C   0  0  1  0  0  0  0  0  0  0  0  0
    8.0622    4.0000    0.0000 C   0  0  2  0  0  0  0  0  0  0  0  0
    7.1962    0.5000    0.0000 C   0  0  0  0  0  0  0  0  0  0  0  0
    7.1962    2.5000    0.0000 C   0  0  0  0  0  0  0  0  0  0  0  0
    5.4641    0.5000    0.0000 C   0  0  0  0  0  0  0  0  0  0  0  0
    8.0622    5.0000    0.0000 C   0  0  0  0  0  0  0  0  0  0  0  0
    4.5981   -2.0000    0.0000 C   0  0  0  0  0  0  0  0  0  0  0  0
    3.0250    0.2071    0.0000 C   0  0  0  0  0  0  0  0  0  0  0  0
    3.9909    0.4659    0.0000 C   0  0  0  0  0  0  0  0  0  0  0  0
    8.9282    3.5000    0.0000 C   0  0  0  0  0  0  0  0  0  0  0  0
    5.4641   -3.5000    0.0000 C   0  0  1  0  0  0  0  0  0  0  0  0
    8.0622    1.0000    0.0000 C   0  0  0  0  0  0  0  0  0  0  0  0
    7.1962   -0.5000    0.0000 C   0  0  0  0  0  0  0  0  0  0  0  0
    6.3301   -4.0000    0.0000 C   0  0  0  0  0  0  0  0  0  0  0  0
    8.9282    5.5000    0.0000 C   0  0  0  0  0  0  0  0  0  0  0  0
    6.3301    5.0000    0.0000 C   0  0  0  0  0  0  0  0  0  0  0  0
    5.4641    3.5000    0.0000 C   0  0  0  0  0  0  0  0  0  0  0  0
    7.1962   -3.5000    0.0000 C   0  0  0  0  0  0  0  0  0  0  0  0
    2.8660   -2.0000    0.0000 C   0  0  0  0  0  0  0  0  0  0  0  0
    4.5981   -4.0000    0.0000 C   0  0  0  0  0  0  0  0  0  0  0  0
    8.1039   -3.9051    0.0000 C   0  0  0  0  0  0  0  0  0  0  0  0
    7.2992   -2.5113    0.0000 C   0  0  0  0  0  0  0  0  0  0  0  0
    8.7718   -3.1608    0.0000 C   0  0  0  0  0  0  0  0  0  0  0  0
    3.7321   -2.5000    0.0000 C   0  0  0  0  0  0  0  0  0  0  0  0
    2.0000   -2.5000    0.0000 C   0  0  0  0  0  0  0  0  0  0  0  0
    3.7321   -5.5000    0.0000 C   0  0  0  0  0  0  0  0  0  0  0  0
    2.8660   -4.0000    0.0000 C   0  0  0  0  0  0  0  0  0  0  0  0
    8.4146   -4.8556    0.0000 C   0  0  0  0  0  0  0  0  0  0  0  0
    3.7321   -3.5000    0.0000 C   0  0  0  0  0  0  0  0  0  0  0  0
    2.0000   -3.5000    0.0000 C   0  0  0  0  0  0  0  0  0  0  0  0
    2.8660   -5.0000    0.0000 C   0  0  0  0  0  0  0  0  0  0  0  0
    9.7503   -3.3670    0.0000 C   0  0  0  0  0  0  0  0  0  0  0  0
    9.3931   -5.0618    0.0000 C   0  0  0  0  0  0  0  0  0  0  0  0
   10.0610   -4.3175    0.0000 C   0  0  0  0  0  0  0  0  0  0  0  0
    5.1350   -1.3100    0.0000 H   0  0  0  0  0  0  0  0  0  0  0  0
    7.1962    4.1200    0.0000 H   0  0  0  0  0  0  0  0  0  0  0  0
    5.7932    1.3100    0.0000 H   0  0  0  0  0  0  0  0  0  0  0  0
    8.0622    3.3800    0.0000 H   0  0  0  0  0  0  0  0  0  0  0  0
    6.6592    0.1900    0.0000 H   0  0  0  0  0  0  0  0  0  0  0  0
    6.0010   -0.8100    0.0000 H   0  0  0  0  0  0  0  0  0  0  0  0
    5.7932    2.3100    0.0000 H   0  0  0  0  0  0  0  0  0  0  0  0
    7.8501    5.5826    0.0000 H   0  0  0  0  0  0  0  0  0  0  0  0
    7.4516    4.8923    0.0000 H   0  0  0  0  0  0  0  0  0  0  0  0
    4.5898    0.3055    0.0000 H   0  0  0  0  0  0  0  0  0  0  0  0
    4.1513    1.0648    0.0000 H   0  0  0  0  0  0  0  0  0  0  0  0
    3.3920    0.6264    0.0000 H   0  0  0  0  0  0  0  0  0  0  0  0
    3.4634    0.6455    0.0000 H   0  0  0  0  0  0  0  0  0  0  0  0
    2.5865    0.6455    0.0000 H   0  0  0  0  0  0  0  0  0  0  0  0
    2.5865   -0.2313    0.0000 H   0  0  0  0  0  0  0  0  0  0  0  0
    8.6182    2.9631    0.0000 H   0  0  0  0  0  0  0  0  0  0  0  0
    9.4651    3.1900    0.0000 H   0  0  0  0  0  0  0  0  0  0  0  0
    9.2382    4.0369    0.0000 H   0  0  0  0  0  0  0  0  0  0  0  0
    6.0010   -3.1900    0.0000 H   0  0  0  0  0  0  0  0  0  0  0  0
    6.5762   -0.5000    0.0000 H   0  0  0  0  0  0  0  0  0  0  0  0
    8.3722    0.4631    0.0000 H   0  0  0  0  0  0  0  0  0  0  0  0
    8.5991    1.3100    0.0000 H   0  0  0  0  0  0  0  0  0  0  0  0
    7.7522    1.5369    0.0000 H   0  0  0  0  0  0  0  0  0  0  0  0
    7.1962   -1.1200    0.0000 H   0  0  0  0  0  0  0  0  0  0  0  0
    7.8162   -0.5000    0.0000 H   0  0  0  0  0  0  0  0  0  0  0  0
    6.0010   -2.1900    0.0000 H   0  0  0  0  0  0  0  0  0  0  0  0
    5.9316   -4.4750    0.0000 H   0  0  0  0  0  0  0  0  0  0  0  0
    6.7287   -4.4750    0.0000 H   0  0  0  0  0  0  0  0  0  0  0  0
    9.2382    4.9631    0.0000 H   0  0  0  0  0  0  0  0  0  0  0  0
    9.4651    5.8100    0.0000 H   0  0  0  0  0  0  0  0  0  0  0  0
    8.6182    6.0369    0.0000 H   0  0  0  0  0  0  0  0  0  0  0  0
    6.9501    5.0000    0.0000 H   0  0  0  0  0  0  0  0  0  0  0  0
    6.3301    5.6200    0.0000 H   0  0  0  0  0  0  0  0  0  0  0  0
    5.7101    5.0000    0.0000 H   0  0  0  0  0  0  0  0  0  0  0  0
    5.1541    4.0369    0.0000 H   0  0  0  0  0  0  0  0  0  0  0  0
    4.9272    3.1900    0.0000 H   0  0  0  0  0  0  0  0  0  0  0  0
    5.7741    2.9631    0.0000 H   0  0  0  0  0  0  0  0  0  0  0  0
    6.8377   -2.0972    0.0000 H   0  0  0  0  0  0  0  0  0  0  0  0
    5.1350   -5.3100    0.0000 H   0  0  0  0  0  0  0  0  0  0  0  0
    4.2690   -2.1900    0.0000 H   0  0  0  0  0  0  0  0  0  0  0  0
    1.4631   -2.1900    0.0000 H   0  0  0  0  0  0  0  0  0  0  0  0
    8.5212   -1.7348    0.0000 H   0  0  0  0  0  0  0  0  0  0  0  0
    3.3335   -5.9750    0.0000 H   0  0  0  0  0  0  0  0  0  0  0  0
    4.1306   -5.9750    0.0000 H   0  0  0  0  0  0  0  0  0  0  0  0
    8.0006   -5.3171    0.0000 H   0  0  0  0  0  0  0  0  0  0  0  0
    4.2690   -3.8100    0.0000 H   0  0  0  0  0  0  0  0  0  0  0  0
    1.4631   -3.8100    0.0000 H   0  0  0  0  0  0  0  0  0  0  0  0
   10.1644   -2.9056    0.0000 H   0  0  0  0  0  0  0  0  0  0  0  0
    9.5857   -5.6512    0.0000 H   0  0  0  0  0  0  0  0  0  0  0  0
   10.6676   -4.4454    0.0000 H   0  0  0  0  0  0  0  0  0  0  0  0
  1 14  1  0  0  0  0
  1 34  1  0  0  0  0
  2 19  2  0  0  0  0
  3 20  2  0  0  0  0
  4 22  2  0  0  0  0
  5 35  2  0  0  0  0
  6 46  2  0  0  0  0
 13  7  1  6  0  0  0
  7 20  1  0  0  0  0
  7 55  1  0  0  0  0
 16  8  1  1  0  0  0
  8 19  1  0  0  0  0
  8 56  1  0  0  0  0
 15  9  1  1  0  0  0
  9 31  1  0  0  0  0
  9 32  1  0  0  0  0
 10 22  1  0  0  0  0
 10 26  1  0  0  0  0
 10 75  1  0  0  0  0
 11 35  1  0  0  0  0
 11 41  1  0  0  0  0
 11 88  1  0  0  0  0
 12 37  1  0  0  0  0
 12 38  1  0  0  0  0
 12 91  1  0  0  0  0
 13 14  1  0  0  0  0
 13 22  1  0  0  0  0
 13 50  1  0  0  0  0
 14 23  1  0  0  0  0
 14 24  1  0  0  0  0
 15 17  1  0  0  0  0
 15 19  1  0  0  0  0
 15 51  1  0  0  0  0
 16 18  1  0  0  0  0
 16 20  1  0  0  0  0
 16 52  1  0  0  0  0
 17 21  1  0  0  0  0
 17 25  1  6  0  0  0
 17 53  1  0  0  0  0
 18 27  1  0  0  0  0
 18 28  1  0  0  0  0
 18 54  1  0  0  0  0
 21 30  1  0  0  0  0
 21 57  1  0  0  0  0
 21 58  1  0  0  0  0
 23 62  1  0  0  0  0
 23 63  1  0  0  0  0
 23 64  1  0  0  0  0
 24 59  1  0  0  0  0
 24 60  1  0  0  0  0
 24 61  1  0  0  0  0
 25 65  1  0  0  0  0
 25 66  1  0  0  0  0
 25 67  1  0  0  0  0
 26 29  1  1  0  0  0
 26 35  1  0  0  0  0
 26 68  1  0  0  0  0
 27 70  1  0  0  0  0
 27 71  1  0  0  0  0
 27 72  1  0  0  0  0
 28 69  1  0  0  0  0
 28 73  1  0  0  0  0
 28 74  1  0  0  0  0
 29 33  1  0  0  0  0
 29 76  1  0  0  0  0
 29 77  1  0  0  0  0
 30 78  1  0  0  0  0
 30 79  1  0  0  0  0
 30 80  1  0  0  0  0
 31 81  1  0  0  0  0
 31 82  1  0  0  0  0
 31 83  1  0  0  0  0
 32 84  1  0  0  0  0
 32 85  1  0  0  0  0
 32 86  1  0  0  0  0
 33 36  1  0  0  0  0
 33 37  2  0  0  0  0
 34 39  2  0  0  0  0
 34 40  1  0  0  0  0
 36 38  1  0  0  0  0
 36 43  2  0  0  0  0
 37 87  1  0  0  0  0
 38 47  2  0  0  0  0
 39 44  1  0  0  0  0
 39 89  1  0  0  0  0
 40 45  2  0  0  0  0
 40 90  1  0  0  0  0
 41 46  1  0  0  0  0
 41 92  1  0  0  0  0
 41 93  1  0  0  0  0
 42 44  2  0  0  0  0
 42 45  1  0  0  0  0
 42 46  1  0  0  0  0
 43 48  1  0  0  0  0
 43 94  1  0  0  0  0
 44 95  1  0  0  0  0
 45 96  1  0  0  0  0
 47 49  1  0  0  0  0
 47 97  1  0  0  0  0
 48 49  2  0  0  0  0
 48 98  1  0  0  0  0
 49 99  1  0  0  0  0
M  END
> <PUBCHEM_COMPOUND_CID>
442568

> <PUBCHEM_COMPOUND_CANONICALIZED>
1

> <PUBCHEM_CACTVS_COMPLEXITY>
1180

> <PUBCHEM_CACTVS_HBOND_ACCEPTOR>
7

> <PUBCHEM_CACTVS_HBOND_DONOR>
5

> <PUBCHEM_CACTVS_ROTATABLE_BOND>
10

> <PUBCHEM_CACTVS_SUBSKEYS>
AAADcfB/uAAAAAAAAAAAAAAAAAAAAWAAAAAwYAAAAAAAAFgB9AAAHgAQAAAADWzBngQ+xvPJlACoA7V3VACCiCA1IiAI2aG+bNgOZvbEtbuXOSjm9hHY6YeYzcDOoAAAAAACAABAAAAAAAQAAAAAAAAAAA==

> <PUBCHEM_IUPAC_OPENEYE_NAME>
(2S,3S)-2-(dimethylamino)-N-[(1S)-1-[[(6S,9S)-6-(1H-indol-3-ylmethyl)-10,10-dimethyl-2,5,8-trioxo-11-oxa-4,7-diazabicyclo[10.2.2]hexadeca-1(14),12,15-trien-9-yl]carbamoyl]-2-methyl-propyl]-3-methyl-pentanamide

> <PUBCHEM_IUPAC_CAS_NAME>
(2S,3S)-2-(dimethylamino)-N-[(2S)-1-[[(6S,9S)-6-(1H-indol-3-ylmethyl)-10,10-dimethyl-2,5,8-trioxo-11-oxa-4,7-diazabicyclo[10.2.2]hexadeca-1(14),12,15-trien-9-yl]amino]-3-methyl-1-oxobutan-2-yl]-3-methylpentanamide

> <PUBCHEM_IUPAC_NAME>
(2S,3S)-2-(dimethylamino)-N-[(2S)-1-[[(6S,9S)-6-(1H-indol-3-ylmethyl)-10,10-dimethyl-2,5,8-trioxo-11-oxa-4,7-diazabicyclo[10.2.2]hexadeca-1(14),12,15-trien-9-yl]amino]-3-methyl-1-oxobutan-2-yl]-3-methylpentanamide

> <PUBCHEM_IUPAC_SYSTEMATIC_NAME>
(2S,3S)-2-(dimethylamino)-N-[(2S)-1-[[(6S,9S)-6-(1H-indol-3-ylmethyl)-10,10-dimethyl-2,5,8-tris(oxidanylidene)-11-oxa-4,7-diazabicyclo[10.2.2]hexadeca-1(14),12,15-trien-9-yl]amino]-3-methyl-1-oxidanylidene-butan-2-yl]-3-methyl-pentanamide

> <PUBCHEM_IUPAC_TRADITIONAL_NAME>
(2S,3S)-2-(dimethylamino)-N-[(1S)-1-[[(6S,9S)-6-(1H-indol-3-ylmethyl)-2,5,8-triketo-10,10-dimethyl-11-oxa-4,7-diazabicyclo[10.2.2]hexadeca-1(14),12,15-trien-9-yl]carbamoyl]-2-methyl-propyl]-3-methyl-valeramide

> <PUBCHEM_IUPAC_INCHI>
InChI=1S/C37H50N6O6/c1-9-22(4)31(43(7)8)35(47)41-30(21(2)3)34(46)42-32-36(48)40-28(18-24-19-38-27-13-11-10-12-26(24)27)33(45)39-20-29(44)23-14-16-25(17-15-23)49-37(32,5)6/h10-17,19,21-22,28,30-32,38H,9,18,20H2,1-8H3,(H,39,45)(H,40,48)(H,41,47)(H,42,46)/t22-,28-,30-,31-,32+/m0/s1

> <PUBCHEM_IUPAC_INCHIKEY>
ATQXXRJEZULCTG-DLCFQVRISA-N

> <PUBCHEM_XLOGP3_AA>
4.8

> <PUBCHEM_EXACT_MASS>
674.379183

> <PUBCHEM_MOLECULAR_FORMULA>
C37H50N6O6

> <PUBCHEM_MOLECULAR_WEIGHT>
674.8295

> <PUBCHEM_OPENEYE_CAN_SMILES>
CCC(C)C(C(=O)NC(C(C)C)C(=O)NC1C(=O)NC(C(=O)NCC(=O)C2=CC=C(C=C2)OC1(C)C)CC3=CNC4=CC=CC=C43)N(C)C

> <PUBCHEM_OPENEYE_ISO_SMILES>
CC[C@H](C)[C@@H](C(=O)N[C@@H](C(C)C)C(=O)N[C@@H]1C(=O)N[C@H](C(=O)NCC(=O)C2=CC=C(C=C2)OC1(C)C)CC3=CNC4=CC=CC=C43)N(C)C

> <PUBCHEM_CACTVS_TPSA>
162

> <PUBCHEM_MONOISOTOPIC_WEIGHT>
674.379183

> <PUBCHEM_TOTAL_CHARGE>
0

> <PUBCHEM_HEAVY_ATOM_COUNT>
49

> <PUBCHEM_ATOM_DEF_STEREO_COUNT>
5

> <PUBCHEM_ATOM_UDEF_STEREO_COUNT>
0

> <PUBCHEM_BOND_DEF_STEREO_COUNT>
0

> <PUBCHEM_BOND_UDEF_STEREO_COUNT>
0

> <PUBCHEM_ISOTOPIC_ATOM_COUNT>
0

> <PUBCHEM_COMPONENT_COUNT>
1

> <PUBCHEM_CACTVS_TAUTO_COUNT>
72

> <PUBCHEM_COORDINATE_TYPE>
1
5
255

> <PUBCHEM_BONDANNOTATIONS>
12  37  8
12  38  8
17  25  6
26  29  5
33  36  8
33  37  8
34  39  8
34  40  8
36  38  8
36  43  8
38  47  8
39  44  8
40  45  8
42  44  8
42  45  8
43  48  8
47  49  8
48  49  8
13  7  6
16  8  5
15  9  5

$$$$

