17396042
  -OEChem-06241222543D

 43 45  0     0  0  0  0  0  0999 V2000
    2.8721   -0.5532   -0.1459 S   0  0  0  0  0  0  0  0  0  0  0  0
   -0.3084    3.1936    0.6272 F   0  0  0  0  0  0  0  0  0  0  0  0
   -5.1423    1.4579   -0.6879 O   0  0  0  0  0  0  0  0  0  0  0  0
    1.5498   -3.0964   -0.2731 O   0  0  0  0  0  0  0  0  0  0  0  0
    0.0169   -2.6321    1.3685 O   0  0  0  0  0  0  0  0  0  0  0  0
   -1.6235   -0.7158    0.2197 N   0  0  0  0  0  0  0  0  0  0  0  0
   -4.2319    0.3660   -0.6597 C   0  0  0  0  0  0  0  0  0  0  0  0
   -2.8758   -1.0880    0.8919 C   0  0  0  0  0  0  0  0  0  0  0  0
   -1.8615   -0.3261   -1.1768 C   0  0  0  0  0  0  0  0  0  0  0  0
   -3.9759   -0.0299    0.7914 C   0  0  0  0  0  0  0  0  0  0  0  0
   -2.9271    0.7577   -1.3490 C   0  0  0  0  0  0  0  0  0  0  0  0
   -0.8816    0.3031    0.9588 C   0  0  0  0  0  0  0  0  0  0  0  0
    0.5476    0.2860    0.5216 C   0  0  0  0  0  0  0  0  0  0  0  0
    1.3045    1.4691    0.2254 C   0  0  0  0  0  0  0  0  0  0  0  0
    1.2755   -0.8690    0.3608 C   0  0  0  0  0  0  0  0  0  0  0  0
    2.6110    1.1512   -0.1581 C   0  0  0  0  0  0  0  0  0  0  0  0
    0.9322    2.8346    0.2658 C   0  0  0  0  0  0  0  0  0  0  0  0
    3.5429    2.1515   -0.4980 C   0  0  0  0  0  0  0  0  0  0  0  0
    0.8731   -2.2250    0.5577 C   0  0  0  0  0  0  0  0  0  0  0  0
    1.8542    3.8293   -0.0707 C   0  0  0  0  0  0  0  0  0  0  0  0
    3.1453    3.4889   -0.4484 C   0  0  0  0  0  0  0  0  0  0  0  0
    1.2293   -4.4881   -0.1668 C   0  0  0  0  0  0  0  0  0  0  0  0
    2.0736   -5.2653   -1.1542 C   0  0  0  0  0  0  0  0  0  0  0  0
   -4.6968   -0.4735   -1.1904 H   0  0  0  0  0  0  0  0  0  0  0  0
   -2.6892   -1.3310    1.9451 H   0  0  0  0  0  0  0  0  0  0  0  0
   -3.2408   -2.0202    0.4410 H   0  0  0  0  0  0  0  0  0  0  0  0
   -2.1831   -1.2216   -1.7252 H   0  0  0  0  0  0  0  0  0  0  0  0
   -0.9363   -0.0107   -1.6729 H   0  0  0  0  0  0  0  0  0  0  0  0
   -3.7092    0.8571    1.3803 H   0  0  0  0  0  0  0  0  0  0  0  0
   -4.9029   -0.4101    1.2377 H   0  0  0  0  0  0  0  0  0  0  0  0
   -3.1154    0.9243   -2.4168 H   0  0  0  0  0  0  0  0  0  0  0  0
   -2.5721    1.7219   -0.9647 H   0  0  0  0  0  0  0  0  0  0  0  0
   -1.3511    1.2838    0.8721 H   0  0  0  0  0  0  0  0  0  0  0  0
   -0.8795    0.0649    2.0317 H   0  0  0  0  0  0  0  0  0  0  0  0
   -5.2838    1.6972   -1.6197 H   0  0  0  0  0  0  0  0  0  0  0  0
    4.5558    1.8943   -0.7947 H   0  0  0  0  0  0  0  0  0  0  0  0
    1.5563    4.8733   -0.0358 H   0  0  0  0  0  0  0  0  0  0  0  0
    3.8553    4.2693   -0.7084 H   0  0  0  0  0  0  0  0  0  0  0  0
    0.1668   -4.6338   -0.3905 H   0  0  0  0  0  0  0  0  0  0  0  0
    1.4377   -4.8319    0.8521 H   0  0  0  0  0  0  0  0  0  0  0  0
    1.8540   -6.3352   -1.0997 H   0  0  0  0  0  0  0  0  0  0  0  0
    3.1392   -5.1121   -0.9539 H   0  0  0  0  0  0  0  0  0  0  0  0
    1.8892   -4.9178   -2.1760 H   0  0  0  0  0  0  0  0  0  0  0  0
  1 15  1  0  0  0  0
  1 16  1  0  0  0  0
  2 17  1  0  0  0  0
  3  7  1  0  0  0  0
  3 35  1  0  0  0  0
  4 19  1  0  0  0  0
  4 22  1  0  0  0  0
  5 19  2  0  0  0  0
  6  8  1  0  0  0  0
  6  9  1  0  0  0  0
  6 12  1  0  0  0  0
  7 10  1  0  0  0  0
  7 11  1  0  0  0  0
  7 24  1  0  0  0  0
  8 10  1  0  0  0  0
  8 25  1  0  0  0  0
  8 26  1  0  0  0  0
  9 11  1  0  0  0  0
  9 27  1  0  0  0  0
  9 28  1  0  0  0  0
 10 29  1  0  0  0  0
 10 30  1  0  0  0  0
 11 31  1  0  0  0  0
 11 32  1  0  0  0  0
 12 13  1  0  0  0  0
 12 33  1  0  0  0  0
 12 34  1  0  0  0  0
 13 14  1  0  0  0  0
 13 15  2  0  0  0  0
 14 16  1  0  0  0  0
 14 17  2  0  0  0  0
 15 19  1  0  0  0  0
 16 18  2  0  0  0  0
 17 20  1  0  0  0  0
 18 21  1  0  0  0  0
 18 36  1  0  0  0  0
 20 21  2  0  0  0  0
 20 37  1  0  0  0  0
 21 38  1  0  0  0  0
 22 23  1  0  0  0  0
 22 39  1  0  0  0  0
 22 40  1  0  0  0  0
 23 41  1  0  0  0  0
 23 42  1  0  0  0  0
 23 43  1  0  0  0  0
M  END
> <PUBCHEM_COMPOUND_CID>
17396042

> <PUBCHEM_CONFORMER_RMSD>
0.8

> <PUBCHEM_CONFORMER_DIVERSEORDER>
1
65
46
14
36
29
69
43
39
72
47
12
32
10
76
71
64
73
19
41
21
55
2
22
59
57
49
33
56
42
66
18
77
7
38
40
30
54
6
67
70
74
35
78
13
34
52
45
53
28
31
63
37
61
62
58
24
44
16
5
15
60
17
11
20
23
26
8
50
68
9
51
4
25
48
3
75
27

> <PUBCHEM_MMFF94_PARTIAL_CHARGES>
23
1 -0.08
12 0.45
13 -0.18
15 -0.05
16 0.04
17 0.19
18 -0.15
19 0.81
2 -0.19
20 -0.15
21 -0.15
22 0.28
3 -0.68
35 0.4
36 0.15
37 0.15
38 0.15
4 -0.43
5 -0.57
6 -0.81
7 0.28
8 0.27
9 0.27

> <PUBCHEM_EFFECTIVE_ROTOR_COUNT>
6.2

> <PUBCHEM_PHARMACOPHORE_FEATURES>
7
1 3 acceptor
1 3 donor
1 5 acceptor
1 6 cation
5 1 13 14 15 16 rings
6 14 16 17 18 20 21 rings
6 6 7 8 9 10 11 rings

> <PUBCHEM_HEAVY_ATOM_COUNT>
23

> <PUBCHEM_ATOM_DEF_STEREO_COUNT>
0

> <PUBCHEM_ATOM_UDEF_STEREO_COUNT>
0

> <PUBCHEM_BOND_DEF_STEREO_COUNT>
0

> <PUBCHEM_BOND_UDEF_STEREO_COUNT>
0

> <PUBCHEM_ISOTOPIC_ATOM_COUNT>
0

> <PUBCHEM_COMPONENT_COUNT>
1

> <PUBCHEM_CACTVS_TAUTO_COUNT>
1

> <PUBCHEM_CONFORMER_ID>
0109714A00000001

> <PUBCHEM_MMFF94_ENERGY>
45.9051

> <PUBCHEM_FEATURE_SELFOVERLAP>
35.58

> <PUBCHEM_SHAPE_FINGERPRINT>
10165383 225 17980464681942135177
10411042 1 17834393797672213811
116883 192 17761220211936861559
12173636 292 18051978013381458197
12403259 226 16604903999987680072
12553582 1 18122609819926905186
12730499 353 18271525308803599817
12788726 201 16901023981737762795
13009979 54 17461437211736728899
13140716 1 18342185418486922680
13583140 156 16339797628551618672
13681431 1 18194695975259812155
13690498 29 17187257099882189052
138480 1 18266740379521654750
13911987 19 18268966801091253886
14508225 48 17761215813795587078
17539 30 17112418268900064006
1813 80 17681549565171490735
18186145 218 18191859037755152792
19591789 44 18123747556531130074
20101258 96 17544738484394258914
21304303 282 17251508242117667124
21524375 3 18055919783799174570
22620623 9 16819395138896123102
22907989 373 17045146290711023460
23114952 82 18271246131112088309
23559900 14 18339647831533712547
238 59 18053418476724630783
25 1 18341054008200693137
2748010 2 18196354936895986666
3060560 45 18411143502320962332
3084891 72 18337390435789337576
350125 39 17908416961732742753
3886686 26 17613754451924456736
394222 165 18059586724040280736
5969126 39 17615698766081322294
6442390 28 18123182399407779635
6443956 14 18268992166619204326
81228 2 17474687511803045138
8272917 22 18410291428423295605

> <PUBCHEM_SHAPE_MULTIPOLES>
447.32
6.66
6.05
1.09
3.82
10.07
-0.08
-7.77
-1.29
-2.55
-1.58
0.66
0.2
0.66

> <PUBCHEM_SHAPE_SELFOVERLAP>
942.525

> <PUBCHEM_SHAPE_VOLUME>
253.8

> <PUBCHEM_COORDINATE_TYPE>
2
5
10

$$$$

