641683
  -OEChem-07051213063D

 30 31  0     0  0  0  0  0  0999 V2000
   -3.1323   -0.2921    0.1078 C   0  0  0  0  0  0  0  0  0  0  0  0
    3.1458    0.2888   -0.1069 C   0  0  0  0  0  0  0  0  0  0  0  0
   -1.7224   -0.6335    0.2149 C   0  0  0  0  0  0  0  0  0  0  0  0
    1.7179    0.6345   -0.2152 C   0  0  0  0  0  0  0  0  0  0  0  0
   -3.5280    1.0455    0.1090 C   0  0  0  0  0  0  0  0  0  0  0  0
    3.5236   -1.0443   -0.1097 C   0  0  0  0  0  0  0  0  0  0  0  0
   -4.0887   -1.3023    0.0040 C   0  0  0  0  0  0  0  0  0  0  0  0
    4.0841    1.3034   -0.0043 C   0  0  0  0  0  0  0  0  0  0  0  0
   -0.6878    0.1952   -0.0570 C   0  0  0  0  0  0  0  0  0  0  0  0
    0.7013   -0.1987    0.0580 C   0  0  0  0  0  0  0  0  0  0  0  0
   -4.8799    1.3730    0.0065 C   0  0  0  0  0  0  0  0  0  0  0  0
    4.8755   -1.3718   -0.0069 C   0  0  0  0  0  0  0  0  0  0  0  0
   -5.4407   -0.9746   -0.0985 C   0  0  0  0  0  0  0  0  0  0  0  0
    5.4361    0.9758    0.0984 C   0  0  0  0  0  0  0  0  0  0  0  0
   -5.8362    0.3630   -0.0972 C   0  0  0  0  0  0  0  0  0  0  0  0
    5.8317   -0.3619    0.0970 C   0  0  0  0  0  0  0  0  0  0  0  0
   -1.5087   -1.6527    0.5327 H   0  0  0  0  0  0  0  0  0  0  0  0
    1.5064    1.6535   -0.5342 H   0  0  0  0  0  0  0  0  0  0  0  0
   -2.8222    1.8648    0.2087 H   0  0  0  0  0  0  0  0  0  0  0  0
    2.8177   -1.8625   -0.2114 H   0  0  0  0  0  0  0  0  0  0  0  0
   -3.7995   -2.3505    0.0001 H   0  0  0  0  0  0  0  0  0  0  0  0
    3.7915    2.3500   -0.0004 H   0  0  0  0  0  0  0  0  0  0  0  0
   -0.8598    1.2106   -0.4025 H   0  0  0  0  0  0  0  0  0  0  0  0
    0.8726   -1.2132    0.4050 H   0  0  0  0  0  0  0  0  0  0  0  0
   -5.1891    2.4142    0.0124 H   0  0  0  0  0  0  0  0  0  0  0  0
    5.1848   -2.4130   -0.0131 H   0  0  0  0  0  0  0  0  0  0  0  0
   -6.1856   -1.7609   -0.1792 H   0  0  0  0  0  0  0  0  0  0  0  0
    6.1810    1.7621    0.1795 H   0  0  0  0  0  0  0  0  0  0  0  0
   -6.8891    0.6180   -0.1758 H   0  0  0  0  0  0  0  0  0  0  0  0
    6.8845   -0.6168    0.1757 H   0  0  0  0  0  0  0  0  0  0  0  0
  1  3  1  0  0  0  0
  1  5  2  0  0  0  0
  1  7  1  0  0  0  0
  2  4  1  0  0  0  0
  2  6  2  0  0  0  0
  2  8  1  0  0  0  0
  3  9  2  0  0  0  0
  3 17  1  0  0  0  0
  4 10  2  0  0  0  0
  4 18  1  0  0  0  0
  5 11  1  0  0  0  0
  5 19  1  0  0  0  0
  6 12  1  0  0  0  0
  6 20  1  0  0  0  0
  7 13  2  0  0  0  0
  7 21  1  0  0  0  0
  8 14  2  0  0  0  0
  8 22  1  0  0  0  0
  9 10  1  0  0  0  0
  9 23  1  0  0  0  0
 10 24  1  0  0  0  0
 11 15  2  0  0  0  0
 11 25  1  0  0  0  0
 12 16  2  0  0  0  0
 12 26  1  0  0  0  0
 13 15  1  0  0  0  0
 13 27  1  0  0  0  0
 14 16  1  0  0  0  0
 14 28  1  0  0  0  0
 15 29  1  0  0  0  0
 16 30  1  0  0  0  0
M  END
> <PUBCHEM_COMPOUND_CID>
641683

> <PUBCHEM_CONFORMER_RMSD>
0.6

> <PUBCHEM_CONFORMER_DIVERSEORDER>
1
2
3

> <PUBCHEM_MMFF94_PARTIAL_CHARGES>
30
1 0.03
10 -0.15
11 -0.15
12 -0.15
13 -0.15
14 -0.15
15 -0.15
16 -0.15
17 0.15
18 0.15
19 0.15
2 0.03
20 0.15
21 0.15
22 0.15
23 0.15
24 0.15
25 0.15
26 0.15
27 0.15
28 0.15
29 0.15
3 -0.18
30 0.15
4 -0.18
5 -0.15
6 -0.15
7 -0.15
8 -0.15
9 -0.15

> <PUBCHEM_EFFECTIVE_ROTOR_COUNT>
3

> <PUBCHEM_PHARMACOPHORE_FEATURES>
2
6 1 5 7 11 13 15 rings
6 2 6 8 12 14 16 rings

> <PUBCHEM_HEAVY_ATOM_COUNT>
16

> <PUBCHEM_ATOM_DEF_STEREO_COUNT>
0

> <PUBCHEM_ATOM_UDEF_STEREO_COUNT>
0

> <PUBCHEM_BOND_DEF_STEREO_COUNT>
2

> <PUBCHEM_BOND_UDEF_STEREO_COUNT>
0

> <PUBCHEM_ISOTOPIC_ATOM_COUNT>
0

> <PUBCHEM_COMPONENT_COUNT>
1

> <PUBCHEM_CACTVS_TAUTO_COUNT>
1

> <PUBCHEM_CONFORMER_ID>
0009CA9300000001

> <PUBCHEM_MMFF94_ENERGY>
45.4903

> <PUBCHEM_FEATURE_SELFOVERLAP>
10.149

> <PUBCHEM_SHAPE_FINGERPRINT>
10595046 47 18410012108950416321
11287383 113 18409729547515797914
11315181 36 18187080646589351577
11858739 19 18040712614948982486
12091667 2 18410572873177031635
12107183 9 17689998263820785890
12236239 1 18410575084668373187
12516196 113 18040719155836047096
13073987 5 18410292527412658257
13167372 99 18334853973764014464
13167823 11 18409732850198358215
13288520 33 18408886214330304887
13533116 47 14129327538442613542
14123238 8 17530682104210674927
1420 363 18060695083300328579
14251718 22 18409167692821280619
14251732 16 18337673009870993696
14933364 13 18410571786144299193
15183329 4 18412263968909468187
17834072 33 18335422348371432374
17844677 252 18409722958930919017
19427546 62 18270398262383017146
19489759 90 18413108364312944657
200 152 18186802486831365169
20281389 69 18342176687272551345
20645477 70 18335699485953810006
220451 1 18040992921240966255
23402539 116 18408045104603255221
23536379 177 18410293626908448699
23559900 14 18336272245390807577
239999 70 18261386776630115574
29717793 49 17676762150321214852
300161 21 18040722446039276542
3004659 81 18413387661973403226
314173 85 16702020885118364396
34797466 226 17458898250177524108
351380 180 18410855451628151345
3545911 37 18412262848439935937
4073 2 18060132090555795514
4214541 1 18410855464745031873
42788 4 18410573985151451137
5104073 3 18410572889940072827
542803 24 18410575080368124612
7495541 125 17676491596750051296
77779 3 18411135827003316577
9971528 1 17989486312339426660

> <PUBCHEM_SHAPE_MULTIPOLES>
329.27
16.84
1.4
0.63
0.07
0
0
0.01
0
0
0
0
0
0

> <PUBCHEM_SHAPE_SELFOVERLAP>
700.593

> <PUBCHEM_SHAPE_VOLUME>
171.8

> <PUBCHEM_COORDINATE_TYPE>
2
5
10

$$$$

