17522
  -OEChem-07051213113D

 25 25  0     0  0  0  0  0  0999 V2000
    2.2879    0.4313   -2.1630 S   0  0  0  0  0  0  0  0  0  0  0  0
    2.3608    0.1055   -0.2415 P   0  0  0  0  0  0  0  0  0  0  0  0
    1.1520   -0.7613    0.4034 O   0  0  0  0  0  0  0  0  0  0  0  0
    3.6577   -0.7237    0.2905 O   0  0  0  0  0  0  0  0  0  0  0  0
    2.4044    1.4063    0.7349 O   0  0  0  0  0  0  0  0  0  0  0  0
   -5.4461    0.4740   -0.2230 N   0  0  0  0  0  0  0  0  0  0  0  0
   -0.1876   -0.5107    0.2754 C   0  0  0  0  0  0  0  0  0  0  0  0
   -0.6327    0.7978    0.1166 C   0  0  0  0  0  0  0  0  0  0  0  0
   -1.0929   -1.5665    0.3059 C   0  0  0  0  0  0  0  0  0  0  0  0
   -1.9979    1.0532   -0.0128 C   0  0  0  0  0  0  0  0  0  0  0  0
   -2.4581   -1.3109    0.1765 C   0  0  0  0  0  0  0  0  0  0  0  0
   -2.9105   -0.0011    0.0171 C   0  0  0  0  0  0  0  0  0  0  0  0
    3.8178   -2.0870   -0.0644 C   0  0  0  0  0  0  0  0  0  0  0  0
    3.3540    2.4319    0.4997 C   0  0  0  0  0  0  0  0  0  0  0  0
   -4.3088    0.2611   -0.1154 C   0  0  0  0  0  0  0  0  0  0  0  0
    0.0451    1.6430    0.0966 H   0  0  0  0  0  0  0  0  0  0  0  0
   -0.7446   -2.5880    0.4297 H   0  0  0  0  0  0  0  0  0  0  0  0
   -2.3356    2.0797   -0.1347 H   0  0  0  0  0  0  0  0  0  0  0  0
   -3.1573   -2.1434    0.2016 H   0  0  0  0  0  0  0  0  0  0  0  0
    4.7233   -2.4673    0.4150 H   0  0  0  0  0  0  0  0  0  0  0  0
    3.9237   -2.1857   -1.1473 H   0  0  0  0  0  0  0  0  0  0  0  0
    2.9624   -2.6720    0.2822 H   0  0  0  0  0  0  0  0  0  0  0  0
    3.4248    3.0533    1.3959 H   0  0  0  0  0  0  0  0  0  0  0  0
    3.0273    3.0543   -0.3368 H   0  0  0  0  0  0  0  0  0  0  0  0
    4.3368    2.0028    0.2874 H   0  0  0  0  0  0  0  0  0  0  0  0
  1  2  2  0  0  0  0
  2  3  1  0  0  0  0
  2  4  1  0  0  0  0
  2  5  1  0  0  0  0
  3  7  1  0  0  0  0
  4 13  1  0  0  0  0
  5 14  1  0  0  0  0
  6 15  3  0  0  0  0
  7  8  2  0  0  0  0
  7  9  1  0  0  0  0
  8 10  1  0  0  0  0
  8 16  1  0  0  0  0
  9 11  2  0  0  0  0
  9 17  1  0  0  0  0
 10 12  2  0  0  0  0
 10 18  1  0  0  0  0
 11 12  1  0  0  0  0
 11 19  1  0  0  0  0
 12 15  1  0  0  0  0
 13 20  1  0  0  0  0
 13 21  1  0  0  0  0
 13 22  1  0  0  0  0
 14 23  1  0  0  0  0
 14 24  1  0  0  0  0
 14 25  1  0  0  0  0
M  END
> <PUBCHEM_COMPOUND_CID>
17522

> <PUBCHEM_CONFORMER_RMSD>
0.6

> <PUBCHEM_CONFORMER_DIVERSEORDER>
1
9
11
13
10
4
3
12
5
7
15
14
6
2
8

> <PUBCHEM_MMFF94_PARTIAL_CHARGES>
19
1 -0.68
10 -0.15
11 -0.15
12 0.07
13 0.28
14 0.28
15 0.48
16 0.15
17 0.15
18 0.15
19 0.15
2 1.49
3 -0.35
4 -0.55
5 -0.55
6 -0.56
7 0.08
8 -0.15
9 -0.15

> <PUBCHEM_EFFECTIVE_ROTOR_COUNT>
4

> <PUBCHEM_PHARMACOPHORE_FEATURES>
2
1 6 acceptor
6 7 8 9 10 11 12 rings

> <PUBCHEM_HEAVY_ATOM_COUNT>
15

> <PUBCHEM_ATOM_DEF_STEREO_COUNT>
0

> <PUBCHEM_ATOM_UDEF_STEREO_COUNT>
0

> <PUBCHEM_BOND_DEF_STEREO_COUNT>
0

> <PUBCHEM_BOND_UDEF_STEREO_COUNT>
0

> <PUBCHEM_ISOTOPIC_ATOM_COUNT>
0

> <PUBCHEM_COMPONENT_COUNT>
1

> <PUBCHEM_CACTVS_TAUTO_COUNT>
1

> <PUBCHEM_CONFORMER_ID>
0000447200000001

> <PUBCHEM_MMFF94_ENERGY>
27.9908

> <PUBCHEM_FEATURE_SELFOVERLAP>
10.148

> <PUBCHEM_SHAPE_FINGERPRINT>
10608611 8 18410859832526500400
11543360 7 16732988574934318757
12932764 1 18264190444674527886
13675066 3 18059855043584468803
14115302 16 18272643558614253886
15196674 1 18410858724836186755
15536298 74 18410014316605895560
17802600 8 18341335586198297812
18186145 218 18261945297875901985
20279233 1 17530959194031337279
20369508 70 18335422404517360526
20645476 183 17916004790334658551
20645477 56 18272373031762284197
20645477 70 18113898256018626950
212847 35 18343298188684178253
23402539 116 18041852812859722285
23557571 272 18045492024005734382
23559900 14 18408888417136792450
3060560 45 16298944252320453772
3248919 1 16877929530032679994
3286 77 18337955691934221692
4990 188 17894629271157880863
5104073 3 18412544284672414043
69090 78 18334582338852517983
7364860 26 18408604756206415866

> <PUBCHEM_SHAPE_MULTIPOLES>
293.8
8.63
1.94
1.07
5.9
0.07
0.72
0.7
0.4
-2.17
-0.41
-1.03
0.26
0.37

> <PUBCHEM_SHAPE_SELFOVERLAP>
571.076

> <PUBCHEM_SHAPE_VOLUME>
179

> <PUBCHEM_COORDINATE_TYPE>
2
5
10

$$$$

