394146
  -OEChem-07051212592D

 25 26  0     1  0  0  0  0  0999 V2000
    3.5888   -0.8892    0.0000 O   0  0  0  0  0  0  0  0  0  0  0  0
    2.3100    0.8709    0.0000 O   0  0  0  0  0  0  0  0  0  0  0  0
    7.0842   -1.0906    0.0000 O   0  0  0  0  0  0  0  0  0  0  0  0
    4.8488    1.3709    0.0000 N   0  0  3  0  0  0  0  0  0  0  0  0
    4.8488    0.3709    0.0000 C   0  0  1  0  0  0  0  0  0  0  0  0
    3.8978    0.0619    0.0000 C   0  0  1  0  0  0  0  0  0  0  0  0
    3.3100    0.8709    0.0000 C   0  0  1  0  0  0  0  0  0  0  0  0
    3.8978    1.6799    0.0000 C   0  0  0  0  0  0  0  0  0  0  0  0
    5.7951    0.0662    0.0000 C   0  0  0  0  0  0  0  0  0  0  0  0
    5.7951    1.6756    0.0000 C   0  0  0  0  0  0  0  0  0  0  0  0
    6.3787    0.8709    0.0000 C   0  0  0  0  0  0  0  0  0  0  0  0
    6.1057   -0.8844    0.0000 C   0  0  0  0  0  0  0  0  0  0  0  0
    4.8500   -0.4791    0.0000 H   0  0  0  0  0  0  0  0  0  0  0  0
    3.2854   -0.0351    0.0000 H   0  0  0  0  0  0  0  0  0  0  0  0
    3.0285    0.3185    0.0000 H   0  0  0  0  0  0  0  0  0  0  0  0
    4.1500    2.2463    0.0000 H   0  0  0  0  0  0  0  0  0  0  0  0
    3.3608    1.9899    0.0000 H   0  0  0  0  0  0  0  0  0  0  0  0
    6.3324    1.9848    0.0000 H   0  0  0  0  0  0  0  0  0  0  0  0
    5.5440    2.2425    0.0000 H   0  0  0  0  0  0  0  0  0  0  0  0
    6.9987    0.8709    0.0000 H   0  0  0  0  0  0  0  0  0  0  0  0
    5.4919   -0.9717    0.0000 H   0  0  0  0  0  0  0  0  0  0  0  0
    6.0852   -1.5040    0.0000 H   0  0  0  0  0  0  0  0  0  0  0  0
    2.9823   -1.0181    0.0000 H   0  0  0  0  0  0  0  0  0  0  0  0
    2.0000    1.4078    0.0000 H   0  0  0  0  0  0  0  0  0  0  0  0
    7.2768   -1.6799    0.0000 H   0  0  0  0  0  0  0  0  0  0  0  0
  6  1  1  6  0  0  0
  1 23  1  0  0  0  0
  7  2  1  6  0  0  0
  2 24  1  0  0  0  0
  3 12  1  0  0  0  0
  3 25  1  0  0  0  0
  4  5  1  0  0  0  0
  4  8  1  0  0  0  0
  4 10  1  0  0  0  0
  5  6  1  0  0  0  0
  5  9  1  0  0  0  0
  5 13  1  1  0  0  0
  6  7  1  0  0  0  0
  6 14  1  0  0  0  0
  7  8  1  0  0  0  0
  7 15  1  0  0  0  0
  8 16  1  0  0  0  0
  8 17  1  0  0  0  0
  9 11  2  0  0  0  0
  9 12  1  0  0  0  0
 10 11  1  0  0  0  0
 10 18  1  0  0  0  0
 10 19  1  0  0  0  0
 11 20  1  0  0  0  0
 12 21  1  0  0  0  0
 12 22  1  0  0  0  0
M  END
> <PUBCHEM_COMPOUND_CID>
394146

> <PUBCHEM_COMPOUND_CANONICALIZED>
1

> <PUBCHEM_CACTVS_COMPLEXITY>
216

> <PUBCHEM_CACTVS_HBOND_ACCEPTOR>
4

> <PUBCHEM_CACTVS_HBOND_DONOR>
3

> <PUBCHEM_CACTVS_ROTATABLE_BOND>
1

> <PUBCHEM_CACTVS_SUBSKEYS>
AAADccByMAAAAAAAAAAAAAAAAAAAAWIAAAAAAAAAAAAQAAAAAAAAHgAACAAADDzhgAYAAAMAAgCAAiBCAACAAAAgAAAACAAIAAgDFAIAgQAEUAAGwACZEAPQYAQAAAAAAAAAAAAAAAAAAAAAAAAAAAAAAA==

> <PUBCHEM_IUPAC_OPENEYE_NAME>
(1S,2R,8R)-7-(hydroxymethyl)-2,3,5,8-tetrahydro-1H-pyrrolizine-1,2-diol

> <PUBCHEM_IUPAC_CAS_NAME>
(1S,2R,8R)-7-(hydroxymethyl)-2,3,5,8-tetrahydro-1H-pyrrolizine-1,2-diol

> <PUBCHEM_IUPAC_NAME>
(1S,2R,8R)-7-(hydroxymethyl)-2,3,5,8-tetrahydro-1H-pyrrolizine-1,2-diol

> <PUBCHEM_IUPAC_SYSTEMATIC_NAME>
(1S,2R,8R)-7-(hydroxymethyl)-2,3,5,8-tetrahydro-1H-pyrrolizine-1,2-diol

> <PUBCHEM_IUPAC_TRADITIONAL_NAME>
(1S,2R,8R)-7-methylol-2,3,5,8-tetrahydro-1H-pyrrolizine-1,2-diol

> <PUBCHEM_IUPAC_INCHI>
InChI=1S/C8H13NO3/c10-4-5-1-2-9-3-6(11)8(12)7(5)9/h1,6-8,10-12H,2-4H2/t6-,7-,8-/m1/s1

> <PUBCHEM_IUPAC_INCHIKEY>
VMWCRDCGNVMCGJ-BWZBUEFSSA-N

> <PUBCHEM_XLOGP3_AA>
-2.3

> <PUBCHEM_EXACT_MASS>
171.089543

> <PUBCHEM_MOLECULAR_FORMULA>
C8H13NO3

> <PUBCHEM_MOLECULAR_WEIGHT>
171.19372

> <PUBCHEM_OPENEYE_CAN_SMILES>
C1C=C(C2N1CC(C2O)O)CO

> <PUBCHEM_OPENEYE_ISO_SMILES>
C1C=C([C@H]2N1C[C@H]([C@H]2O)O)CO

> <PUBCHEM_CACTVS_TPSA>
63.9

> <PUBCHEM_MONOISOTOPIC_WEIGHT>
171.089543

> <PUBCHEM_TOTAL_CHARGE>
0

> <PUBCHEM_HEAVY_ATOM_COUNT>
12

> <PUBCHEM_ATOM_DEF_STEREO_COUNT>
3

> <PUBCHEM_ATOM_UDEF_STEREO_COUNT>
0

> <PUBCHEM_BOND_DEF_STEREO_COUNT>
0

> <PUBCHEM_BOND_UDEF_STEREO_COUNT>
0

> <PUBCHEM_ISOTOPIC_ATOM_COUNT>
0

> <PUBCHEM_COMPONENT_COUNT>
1

> <PUBCHEM_CACTVS_TAUTO_COUNT>
1

> <PUBCHEM_COORDINATE_TYPE>
1
5
255

> <PUBCHEM_BONDANNOTATIONS>
6  1  6
7  2  6
5  13  5

$$$$

