179375
  -OEChem-07051212573D

 46 48  0     1  0  0  0  0  0999 V2000
   -1.8793   -2.2121   -0.5105 O   0  0  0  0  0  0  0  0  0  0  0  0
    2.4217   -0.4077    0.3474 O   0  0  0  0  0  0  0  0  0  0  0  0
   -2.8139    1.8658    1.4825 O   0  0  0  0  0  0  0  0  0  0  0  0
   -1.3916   -4.4621   -0.3116 O   0  0  0  0  0  0  0  0  0  0  0  0
   -4.9077    1.2804    0.9200 O   0  0  0  0  0  0  0  0  0  0  0  0
    3.0408    1.1546    1.9195 O   0  0  0  0  0  0  0  0  0  0  0  0
    3.5429    0.1610   -2.0973 O   0  0  0  0  0  0  0  0  0  0  0  0
   -0.8667    1.4561   -0.0315 C   0  0  2  0  0  0  0  0  0  0  0  0
   -1.6720    0.2729   -0.6278 C   0  0  1  0  0  0  0  0  0  0  0  0
   -1.2694   -1.0434    0.0538 C   0  0  2  0  0  0  0  0  0  0  0  0
    0.2177   -1.3039   -0.1134 C   0  0  1  0  0  0  0  0  0  0  0  0
    0.6536    1.1483    0.0066 C   0  0  0  0  0  0  0  0  0  0  0  0
    1.0294   -0.2266    0.5941 C   0  0  2  0  0  0  0  0  0  0  0  0
   -1.3771    1.7385    1.3892 C   0  0  0  0  0  0  0  0  0  0  0  0
   -3.1530    0.5143   -0.4897 C   0  0  0  0  0  0  0  0  0  0  0  0
    0.2024   -2.7342    0.2983 C   0  0  0  0  0  0  0  0  0  0  0  0
   -1.0542    2.7000   -0.8760 C   0  0  0  0  0  0  0  0  0  0  0  0
   -1.0905   -3.2893   -0.1888 C   0  0  0  0  0  0  0  0  0  0  0  0
   -3.7045    1.2303    0.6835 C   0  0  0  0  0  0  0  0  0  0  0  0
   -4.0231    0.1431   -1.4428 C   0  0  0  0  0  0  0  0  0  0  0  0
    1.0600   -3.4740    1.0023 C   0  0  0  0  0  0  0  0  0  0  0  0
   -0.6904    2.7952   -2.1593 C   0  0  0  0  0  0  0  0  0  0  0  0
    3.2511    0.5291    0.8899 C   0  0  0  0  0  0  0  0  0  0  0  0
    4.4644    0.6877    0.0392 C   0  0  0  0  0  0  0  0  0  0  0  0
    4.6312   -0.1061   -1.2226 C   0  0  0  0  0  0  0  0  0  0  0  0
    5.3782    1.5820    0.4451 C   0  0  0  0  0  0  0  0  0  0  0  0
   -1.4410    0.1642   -1.6975 H   0  0  0  0  0  0  0  0  0  0  0  0
   -1.5638   -1.0183    1.1141 H   0  0  0  0  0  0  0  0  0  0  0  0
    0.4936   -1.3042   -1.1797 H   0  0  0  0  0  0  0  0  0  0  0  0
    1.1555    1.9564    0.5538 H   0  0  0  0  0  0  0  0  0  0  0  0
    1.0818    1.1912   -1.0045 H   0  0  0  0  0  0  0  0  0  0  0  0
    0.8491   -0.2635    1.6754 H   0  0  0  0  0  0  0  0  0  0  0  0
   -1.0872    0.9595    2.1014 H   0  0  0  0  0  0  0  0  0  0  0  0
   -0.9542    2.6737    1.7769 H   0  0  0  0  0  0  0  0  0  0  0  0
   -1.5060    3.5762   -0.4162 H   0  0  0  0  0  0  0  0  0  0  0  0
   -3.6813   -0.3679   -2.3377 H   0  0  0  0  0  0  0  0  0  0  0  0
   -5.0894    0.3300   -1.3721 H   0  0  0  0  0  0  0  0  0  0  0  0
    1.9866   -3.0486    1.3718 H   0  0  0  0  0  0  0  0  0  0  0  0
    0.8636   -4.5164    1.2287 H   0  0  0  0  0  0  0  0  0  0  0  0
   -0.8523    3.7206   -2.7022 H   0  0  0  0  0  0  0  0  0  0  0  0
   -0.2381    1.9729   -2.7013 H   0  0  0  0  0  0  0  0  0  0  0  0
    4.6428   -1.1782   -1.0018 H   0  0  0  0  0  0  0  0  0  0  0  0
    5.5605    0.1345   -1.7494 H   0  0  0  0  0  0  0  0  0  0  0  0
    6.2818    1.7539   -0.1316 H   0  0  0  0  0  0  0  0  0  0  0  0
    5.2648    2.1674    1.3514 H   0  0  0  0  0  0  0  0  0  0  0  0
    3.5561    1.1112   -2.3047 H   0  0  0  0  0  0  0  0  0  0  0  0
  1 10  1  0  0  0  0
  1 18  1  0  0  0  0
  2 13  1  0  0  0  0
  2 23  1  0  0  0  0
  3 14  1  0  0  0  0
  3 19  1  0  0  0  0
  4 18  2  0  0  0  0
  5 19  2  0  0  0  0
  6 23  2  0  0  0  0
  7 25  1  0  0  0  0
  7 46  1  0  0  0  0
  8  9  1  0  0  0  0
  8 12  1  0  0  0  0
  8 14  1  0  0  0  0
  8 17  1  0  0  0  0
  9 10  1  0  0  0  0
  9 15  1  0  0  0  0
  9 27  1  0  0  0  0
 10 11  1  0  0  0  0
 10 28  1  0  0  0  0
 11 13  1  0  0  0  0
 11 16  1  0  0  0  0
 11 29  1  0  0  0  0
 12 13  1  0  0  0  0
 12 30  1  0  0  0  0
 12 31  1  0  0  0  0
 13 32  1  0  0  0  0
 14 33  1  0  0  0  0
 14 34  1  0  0  0  0
 15 19  1  0  0  0  0
 15 20  2  0  0  0  0
 16 18  1  0  0  0  0
 16 21  2  0  0  0  0
 17 22  2  0  0  0  0
 17 35  1  0  0  0  0
 20 36  1  0  0  0  0
 20 37  1  0  0  0  0
 21 38  1  0  0  0  0
 21 39  1  0  0  0  0
 22 40  1  0  0  0  0
 22 41  1  0  0  0  0
 23 24  1  0  0  0  0
 24 25  1  0  0  0  0
 24 26  2  0  0  0  0
 25 42  1  0  0  0  0
 25 43  1  0  0  0  0
 26 44  1  0  0  0  0
 26 45  1  0  0  0  0
M  END
> <PUBCHEM_COMPOUND_CID>
179375

> <PUBCHEM_CONFORMER_RMSD>
0.8

> <PUBCHEM_CONFORMER_DIVERSEORDER>
1
17
12
19
21
22
23
5
9
4
11
20
8
7
10
16
13
14
15
3
6
18
2

> <PUBCHEM_MMFF94_PARTIAL_CHARGES>
35
1 -0.43
10 0.28
11 0.14
13 0.28
14 0.28
15 -0.12
16 -0.12
17 -0.29
18 0.71
19 0.71
2 -0.43
20 -0.3
21 -0.3
22 -0.3
23 0.71
24 -0.12
25 0.42
26 -0.3
3 -0.43
35 0.15
36 0.15
37 0.15
38 0.15
39 0.15
4 -0.57
40 0.15
41 0.15
44 0.15
45 0.15
46 0.4
5 -0.57
6 -0.57
7 -0.68
8 0.14
9 0.14

> <PUBCHEM_EFFECTIVE_ROTOR_COUNT>
6

> <PUBCHEM_PHARMACOPHORE_FEATURES>
10
1 22 hydrophobe
1 26 hydrophobe
1 4 acceptor
1 5 acceptor
1 6 acceptor
1 7 acceptor
1 7 donor
5 1 10 11 16 18 rings
6 3 8 9 14 15 19 rings
6 8 9 10 11 12 13 rings

> <PUBCHEM_HEAVY_ATOM_COUNT>
26

> <PUBCHEM_ATOM_DEF_STEREO_COUNT>
5

> <PUBCHEM_ATOM_UDEF_STEREO_COUNT>
0

> <PUBCHEM_BOND_DEF_STEREO_COUNT>
0

> <PUBCHEM_BOND_UDEF_STEREO_COUNT>
0

> <PUBCHEM_ISOTOPIC_ATOM_COUNT>
0

> <PUBCHEM_COMPONENT_COUNT>
1

> <PUBCHEM_CACTVS_TAUTO_COUNT>
1

> <PUBCHEM_CONFORMER_ID>
0002BCAF00000001

> <PUBCHEM_MMFF94_ENERGY>
81.8809

> <PUBCHEM_FEATURE_SELFOVERLAP>
50.872

> <PUBCHEM_SHAPE_FINGERPRINT>
10165383 225 18336538421609730728
10411042 1 17617381675727470026
10493431 412 18408882932300239641
10498660 4 18343309145530722948
1100329 8 18194122902738380627
11578080 2 15437007374121466912
12160290 23 18047784561769312682
12403814 3 18131360716850099029
12633257 1 18337685135286980928
12788726 201 17836353861826809702
13140716 1 18269556048443573825
13583140 156 16630256843521279997
13911987 19 18272945915948974165
14223421 5 17982732175571035977
14787075 74 17967541142660072889
14790565 3 18410847789454741069
14840074 17 18059561495133579085
14955137 171 18199166465374752833
15209289 33 18187366527896663121
15309172 13 18341049704606480960
15575132 122 18060415850149477532
16752209 62 18198633129052246690
16945 1 18340215162749446909
17492 54 18128278760498926711
19591789 44 18265612267828142954
20600515 1 17691166688199144001
20642791 13 18046634399623564610
20739085 24 18053648450664325889
23419403 2 16882178975186822155
23557571 272 18118684323282249670
23559900 14 17621894500933159321
350125 39 18124032592325879330
3729539 64 17831273354003434550
458136 41 18265046023550234403
469060 322 18058724698486987683
484989 97 17837788733735064367
633830 44 18041000677952071572
81228 2 18196653991147778002
9709674 26 17968094171307235164
9925002 15 18056754326020381148

> <PUBCHEM_SHAPE_MULTIPOLES>
493.98
8.08
4.03
1.54
6.72
4.78
0.26
-4.64
-0.08
-1.74
0.35
0.18
-0.93
-0.35

> <PUBCHEM_SHAPE_SELFOVERLAP>
1061.739

> <PUBCHEM_SHAPE_VOLUME>
268.2

> <PUBCHEM_COORDINATE_TYPE>
2
5
10

$$$$

