586269
  -OEChem-06241222463D

 19 19  0     0  0  0  0  0  0999 V2000
    2.6504   -0.9936    0.0001 O   0  0  0  0  0  0  0  0  0  0  0  0
    2.8575    1.2904   -0.0009 O   0  0  0  0  0  0  0  0  0  0  0  0
   -4.0855   -0.9930   -0.0007 O   0  0  0  0  0  0  0  0  0  0  0  0
   -1.3644   -0.9913    0.0002 N   0  0  0  0  0  0  0  0  0  0  0  0
    0.6943    0.2760    0.0001 C   0  0  0  0  0  0  0  0  0  0  0  0
   -0.0283    1.4638    0.0004 C   0  0  0  0  0  0  0  0  0  0  0  0
   -1.4183    1.4255    0.0006 C   0  0  0  0  0  0  0  0  0  0  0  0
   -0.0148   -0.9144    0.0002 C   0  0  0  0  0  0  0  0  0  0  0  0
   -2.0328    0.1837    0.0004 C   0  0  0  0  0  0  0  0  0  0  0  0
    2.1469    0.2827   -0.0006 C   0  0  0  0  0  0  0  0  0  0  0  0
   -3.4824    0.0846   -0.0002 C   0  0  0  0  0  0  0  0  0  0  0  0
    4.0775   -1.1145    0.0004 C   0  0  0  0  0  0  0  0  0  0  0  0
    0.4739    2.4275    0.0004 H   0  0  0  0  0  0  0  0  0  0  0  0
   -1.9893    2.3479    0.0006 H   0  0  0  0  0  0  0  0  0  0  0  0
    0.4658   -1.8874    0.0000 H   0  0  0  0  0  0  0  0  0  0  0  0
   -4.0434    1.0346   -0.0001 H   0  0  0  0  0  0  0  0  0  0  0  0
    4.4953   -0.6542    0.9007 H   0  0  0  0  0  0  0  0  0  0  0  0
    4.4956   -0.6547   -0.9000 H   0  0  0  0  0  0  0  0  0  0  0  0
    4.3282   -2.1785    0.0007 H   0  0  0  0  0  0  0  0  0  0  0  0
  1 10  1  0  0  0  0
  1 12  1  0  0  0  0
  2 10  2  0  0  0  0
  3 11  2  0  0  0  0
  4  8  1  0  0  0  0
  4  9  2  0  0  0  0
  5  6  1  0  0  0  0
  5  8  2  0  0  0  0
  5 10  1  0  0  0  0
  6  7  2  0  0  0  0
  6 13  1  0  0  0  0
  7  9  1  0  0  0  0
  7 14  1  0  0  0  0
  8 15  1  0  0  0  0
  9 11  1  0  0  0  0
 11 16  1  0  0  0  0
 12 17  1  0  0  0  0
 12 18  1  0  0  0  0
 12 19  1  0  0  0  0
M  END
> <PUBCHEM_COMPOUND_CID>
586269

> <PUBCHEM_CONFORMER_RMSD>
0.6

> <PUBCHEM_CONFORMER_DIVERSEORDER>
1
3
2
4

> <PUBCHEM_MMFF94_PARTIAL_CHARGES>
16
1 -0.43
10 0.63
11 0.42
12 0.28
13 0.15
14 0.15
15 0.15
16 0.06
2 -0.57
3 -0.57
4 -0.62
5 0.09
6 -0.15
7 -0.15
8 0.16
9 0.4

> <PUBCHEM_EFFECTIVE_ROTOR_COUNT>
3

> <PUBCHEM_PHARMACOPHORE_FEATURES>
4
1 2 acceptor
1 3 acceptor
1 4 acceptor
6 4 5 6 7 8 9 rings

> <PUBCHEM_HEAVY_ATOM_COUNT>
12

> <PUBCHEM_ATOM_DEF_STEREO_COUNT>
0

> <PUBCHEM_ATOM_UDEF_STEREO_COUNT>
0

> <PUBCHEM_BOND_DEF_STEREO_COUNT>
0

> <PUBCHEM_BOND_UDEF_STEREO_COUNT>
0

> <PUBCHEM_ISOTOPIC_ATOM_COUNT>
0

> <PUBCHEM_COMPONENT_COUNT>
1

> <PUBCHEM_CACTVS_TAUTO_COUNT>
1

> <PUBCHEM_CONFORMER_ID>
0008F21D00000001

> <PUBCHEM_MMFF94_ENERGY>
31.2843

> <PUBCHEM_FEATURE_SELFOVERLAP>
20.303

> <PUBCHEM_SHAPE_FINGERPRINT>
10130415 120 18410294717951487208
10219947 1 18335136471248344231
11543360 7 15625931007009093563
11769659 78 18411985779588104467
12032990 46 18412259528203551227
12932764 1 17240492385437754568
13690532 89 18413389855968559338
14325111 11 18410575089132379365
14993402 34 15554442994280180475
16945 1 18410574019516516229
18186145 218 17560806532600014493
193761 8 17690280838667826181
19422 9 18408598167257176281
20201158 50 18336545009983950518
20645477 70 18409733971332535271
20871998 22 18116143549278729014
21501925 9 18410583898415985944
23402539 116 18187938304091981567
23463225 33 18410855490324944662
23552423 10 18272931613839272156
2748010 2 18123468280662077367
369184 2 18334859424071874232
7364860 26 18335420119874606720

> <PUBCHEM_SHAPE_MULTIPOLES>
224.37
6.48
1.48
0.58
0.7
0.27
0
-2.35
0
0.19
0
0
0.01
0

> <PUBCHEM_SHAPE_SELFOVERLAP>
468.153

> <PUBCHEM_SHAPE_VOLUME>
126.5

> <PUBCHEM_COORDINATE_TYPE>
2
5
10

$$$$

