9542
  -OEChem-06261203483D

 32 31  0     0  0  0  0  0  0999 V2000
   -7.2117    0.4549    0.0005 F   0  0  0  0  0  0  0  0  0  0  0  0
    6.3659   -0.6150    0.0345 O   0  0  0  0  0  0  0  0  0  0  0  0
    5.2809    1.3814   -0.0194 O   0  0  0  0  0  0  0  0  0  0  0  0
   -1.0839   -0.5315    0.0092 C   0  0  0  0  0  0  0  0  0  0  0  0
    0.2052    0.2919    0.0119 C   0  0  0  0  0  0  0  0  0  0  0  0
   -2.3203    0.3702    0.0375 C   0  0  0  0  0  0  0  0  0  0  0  0
    1.4415   -0.6096    0.0173 C   0  0  0  0  0  0  0  0  0  0  0  0
   -3.6085   -0.4549    0.0029 C   0  0  0  0  0  0  0  0  0  0  0  0
    2.7307    0.2164   -0.0136 C   0  0  0  0  0  0  0  0  0  0  0  0
   -4.8748    0.4008    0.0157 C   0  0  0  0  0  0  0  0  0  0  0  0
    3.9822   -0.6556   -0.0400 C   0  0  0  0  0  0  0  0  0  0  0  0
   -6.1593   -0.4068   -0.0471 C   0  0  0  0  0  0  0  0  0  0  0  0
    5.2521    0.1577   -0.0095 C   0  0  0  0  0  0  0  0  0  0  0  0
   -1.1107   -1.1663   -0.8847 H   0  0  0  0  0  0  0  0  0  0  0  0
   -1.0972   -1.1982    0.8800 H   0  0  0  0  0  0  0  0  0  0  0  0
    0.2262    0.9413   -0.8717 H   0  0  0  0  0  0  0  0  0  0  0  0
    0.2242    0.9443    0.8934 H   0  0  0  0  0  0  0  0  0  0  0  0
   -2.3055    0.9899    0.9422 H   0  0  0  0  0  0  0  0  0  0  0  0
   -2.2998    1.0510   -0.8221 H   0  0  0  0  0  0  0  0  0  0  0  0
    1.4145   -1.2761   -0.8533 H   0  0  0  0  0  0  0  0  0  0  0  0
    1.4327   -1.2440    0.9118 H   0  0  0  0  0  0  0  0  0  0  0  0
   -3.6269   -1.1353    0.8634 H   0  0  0  0  0  0  0  0  0  0  0  0
   -3.6112   -1.0825   -0.8969 H   0  0  0  0  0  0  0  0  0  0  0  0
    2.7253    0.8716   -0.8939 H   0  0  0  0  0  0  0  0  0  0  0  0
    2.7598    0.8748    0.8640 H   0  0  0  0  0  0  0  0  0  0  0  0
   -4.8923    1.0224    0.9192 H   0  0  0  0  0  0  0  0  0  0  0  0
   -4.8588    1.1015   -0.8280 H   0  0  0  0  0  0  0  0  0  0  0  0
    3.9907   -1.2661   -0.9495 H   0  0  0  0  0  0  0  0  0  0  0  0
    3.9861   -1.3186    0.8323 H   0  0  0  0  0  0  0  0  0  0  0  0
   -6.2303   -0.9779   -0.9771 H   0  0  0  0  0  0  0  0  0  0  0  0
   -6.2453   -1.0914    0.8015 H   0  0  0  0  0  0  0  0  0  0  0  0
    7.1850   -0.0758    0.0560 H   0  0  0  0  0  0  0  0  0  0  0  0
  1 12  1  0  0  0  0
  2 13  1  0  0  0  0
  2 32  1  0  0  0  0
  3 13  2  0  0  0  0
  4  5  1  0  0  0  0
  4  6  1  0  0  0  0
  4 14  1  0  0  0  0
  4 15  1  0  0  0  0
  5  7  1  0  0  0  0
  5 16  1  0  0  0  0
  5 17  1  0  0  0  0
  6  8  1  0  0  0  0
  6 18  1  0  0  0  0
  6 19  1  0  0  0  0
  7  9  1  0  0  0  0
  7 20  1  0  0  0  0
  7 21  1  0  0  0  0
  8 10  1  0  0  0  0
  8 22  1  0  0  0  0
  8 23  1  0  0  0  0
  9 11  1  0  0  0  0
  9 24  1  0  0  0  0
  9 25  1  0  0  0  0
 10 12  1  0  0  0  0
 10 26  1  0  0  0  0
 10 27  1  0  0  0  0
 11 13  1  0  0  0  0
 11 28  1  0  0  0  0
 11 29  1  0  0  0  0
 12 30  1  0  0  0  0
 12 31  1  0  0  0  0
M  END
> <PUBCHEM_COMPOUND_CID>
9542

> <PUBCHEM_CONFORMER_RMSD>
0.8

> <PUBCHEM_CONFORMER_DIVERSEORDER>
1
184
35
187
223
409
22
392
374
143
316
259
134
13
373
45
156
19
338
183
421
136
404
67
59
287
370
358
6
419
78
350
335
60
66
424
146
106
318
23
393
394
92
171
125
86
317
312
180
129
93
14
339
188
295
33
242
79
413
225
411
164
49
398
389
46
10
87
56
308
101
105
230
9
68
196
420
55
383
110
193
112
26
84
109
8
427
264
416
44
309
131
206
222
256
28
144
132
326
425
52
390
175
219
54
130
165
168
124
89
347
179
197
41
75
203
343
254
43
260
395
190
80
90
423
42
386
17
412
20
337
265
39
148
271
388
118
376
158
103
27
381
244
387
235
160
279
238
378
62
400
275
77
269
15
277
166
85
108
320
121
408
302
38
228
135
76
21
336
127
345
72
64
369
372
107
34
363
402
406
300
152
310
278
384
352
399
282
154
410
82
272
407
303
157
414
47
150
236
232
368
161
122
366
176
31
342
133
204
401
53
69
305
380
291
364
128
274
418
198
194
65
290
11
285
83
172
139
237
250
137
210
73
120
417
220
174
36
284
355
24
240
74
207
360
327
297
252
397
70
30
202
50
29
298
151
422
371
102
81
123
58
173
115
100
227
32
426
261
286
322
114
385
248
149
159
396
51
163
289
247
40
199
99
288
98
243
229
321
263
249
344
138
281
273
119
195
116
234
391
201
280
357
186
37
126
104
88
377
319
162
94
213
208
141
25
16
333
405
113
216
375
296
169
145
307
241
301
365
63
233
96
231
153
270
266
95
191
351
239
415
349
111
205
189
178
315
330
117
294
147
71
142
97
12
353
299
367
306
379
325
212
211
18
293
253
57
181
328
356
361
177
200
218
226
192
140
182
283
209
314
3
221
348
292
346
359
313
268
304
262
167
155
224
185
7
91
267
255
170
61
215
48
258
2
382
354
311
276
246
217
329
4
332
334
257
5
341
340
403
323
245
331
214
251
324
362

> <PUBCHEM_MMFF94_PARTIAL_CHARGES>
7
1 -0.34
11 0.06
12 0.34
13 0.66
2 -0.65
3 -0.57
32 0.5

> <PUBCHEM_EFFECTIVE_ROTOR_COUNT>
9

> <PUBCHEM_PHARMACOPHORE_FEATURES>
3
1 2 acceptor
1 3 acceptor
3 2 3 13 anion

> <PUBCHEM_HEAVY_ATOM_COUNT>
13

> <PUBCHEM_ATOM_DEF_STEREO_COUNT>
0

> <PUBCHEM_ATOM_UDEF_STEREO_COUNT>
0

> <PUBCHEM_BOND_DEF_STEREO_COUNT>
0

> <PUBCHEM_BOND_UDEF_STEREO_COUNT>
0

> <PUBCHEM_ISOTOPIC_ATOM_COUNT>
0

> <PUBCHEM_COMPONENT_COUNT>
1

> <PUBCHEM_CACTVS_TAUTO_COUNT>
1

> <PUBCHEM_CONFORMER_ID>
0000254600000001

> <PUBCHEM_MMFF94_ENERGY>
1.2153

> <PUBCHEM_FEATURE_SELFOVERLAP>
15.281

> <PUBCHEM_SHAPE_FINGERPRINT>
12091667 2 18411981365385013083
13533116 47 17203338853001811674
14123238 8 17603302656760316738
1420 363 18202560683270209387
14251718 22 18408323281050383011
14251764 46 18040154024075980462
17834072 33 18040437659368441596
17834076 25 17603867805874182639
187816 3 15647051564727522195
20281389 69 18343023297871454089
20621476 8 18338795719055004909
20645477 70 18041555962116967734
20767249 213 18410855447248534661
21130983 4 18342453729510397861
23402539 116 18334299747173585711
23521765 1 18335421274513563811
33684 2 18412263947935875874
42788 4 18410855464423129092
4463277 17 18410293614509122577
8209 1 18410573989451712703

> <PUBCHEM_SHAPE_MULTIPOLES>
248.52
18.54
0.9
0.59
7.54
0.09
0
1.3
0.12
-0.6
0
0.03
-0.01
-0.03

> <PUBCHEM_SHAPE_SELFOVERLAP>
453.297

> <PUBCHEM_SHAPE_VOLUME>
157.9

> <PUBCHEM_COORDINATE_TYPE>
2
5
10

$$$$

