443044
  -OEChem-07051213032D

 19 19  0     1  0  0  0  0  0999 V2000
    4.2812   -1.0171    0.0000 O   0  0  0  0  0  0  0  0  0  0  0  0
    2.1828    0.6142    0.0000 O   0  0  0  0  0  0  0  0  0  0  0  0
    2.5984   -1.2067    0.0000 O   0  0  0  0  0  0  0  0  0  0  0  0
    4.7812    1.1736    0.0000 C   0  0  0  0  0  0  0  0  0  0  0  0
    3.7812    1.1736    0.0000 C   0  0  0  0  0  0  0  0  0  0  0  0
    5.4047    0.3917    0.0000 C   0  0  0  0  0  0  0  0  0  0  0  0
    3.1577    0.3917    0.0000 C   0  0  3  0  0  0  0  0  0  0  0  0
    5.1821   -0.5832    0.0000 C   0  0  0  0  0  0  0  0  0  0  0  0
    3.3802   -0.5832    0.0000 C   0  0  0  0  0  0  0  0  0  0  0  0
    5.3398    1.4426    0.0000 H   0  0  0  0  0  0  0  0  0  0  0  0
    4.6432    1.7780    0.0000 H   0  0  0  0  0  0  0  0  0  0  0  0
    3.9191    1.7780    0.0000 H   0  0  0  0  0  0  0  0  0  0  0  0
    3.2226    1.4426    0.0000 H   0  0  0  0  0  0  0  0  0  0  0  0
    5.9633    0.1227    0.0000 H   0  0  0  0  0  0  0  0  0  0  0  0
    5.7912    0.8765    0.0000 H   0  0  0  0  0  0  0  0  0  0  0  0
    2.5566   -0.2093    0.0000 H   0  0  0  0  0  0  0  0  0  0  0  0
    5.3201   -1.1877    0.0000 H   0  0  0  0  0  0  0  0  0  0  0  0
    5.8021   -0.5832    0.0000 H   0  0  0  0  0  0  0  0  0  0  0  0
    2.0000    1.2067    0.0000 H   0  0  0  0  0  0  0  0  0  0  0  0
  1  8  1  0  0  0  0
  1  9  1  0  0  0  0
  2  7  1  0  0  0  0
  2 19  1  0  0  0  0
  3  9  2  0  0  0  0
  4  5  1  0  0  0  0
  4  6  1  0  0  0  0
  4 10  1  0  0  0  0
  4 11  1  0  0  0  0
  5  7  1  0  0  0  0
  5 12  1  0  0  0  0
  5 13  1  0  0  0  0
  6  8  1  0  0  0  0
  6 14  1  0  0  0  0
  6 15  1  0  0  0  0
  7  9  1  0  0  0  0
  7 16  1  0  0  0  0
  8 17  1  0  0  0  0
  8 18  1  0  0  0  0
M  END
> <PUBCHEM_COMPOUND_CID>
443044

> <PUBCHEM_COMPOUND_CANONICALIZED>
1

> <PUBCHEM_CACTVS_COMPLEXITY>
111

> <PUBCHEM_CACTVS_HBOND_ACCEPTOR>
3

> <PUBCHEM_CACTVS_HBOND_DONOR>
1

> <PUBCHEM_CACTVS_ROTATABLE_BOND>
0

> <PUBCHEM_CACTVS_SUBSKEYS>
AAADccBgMAAAAAAAAAAAAAAAAAAAAAAAAAAAAAAABIAAAAAAAAAAGgAACAAACBSggAIACAAABgAIAACQCAIAAAAAAAAAAAFAAAABEBIAAAACQAAEAAADAAGIaAwAAAAAAAAAAAAAAAAAAAAAAAAAAAAAAA==

> <PUBCHEM_IUPAC_OPENEYE_NAME>
3-hydroxyoxepan-2-one

> <PUBCHEM_IUPAC_CAS_NAME>
3-hydroxy-2-oxepanone

> <PUBCHEM_IUPAC_NAME>
3-hydroxyoxepan-2-one

> <PUBCHEM_IUPAC_SYSTEMATIC_NAME>
3-oxidanyloxepan-2-one

> <PUBCHEM_IUPAC_TRADITIONAL_NAME>
3-hydroxyoxepan-2-one

> <PUBCHEM_IUPAC_INCHI>
InChI=1S/C6H10O3/c7-5-3-1-2-4-9-6(5)8/h5,7H,1-4H2

> <PUBCHEM_IUPAC_INCHIKEY>
HUFRMAUWIZDZIJ-UHFFFAOYSA-N

> <PUBCHEM_XLOGP3_AA>
0.3

> <PUBCHEM_EXACT_MASS>
130.062994

> <PUBCHEM_MOLECULAR_FORMULA>
C6H10O3

> <PUBCHEM_MOLECULAR_WEIGHT>
130.1418

> <PUBCHEM_OPENEYE_CAN_SMILES>
C1CCOC(=O)C(C1)O

> <PUBCHEM_OPENEYE_ISO_SMILES>
C1CCOC(=O)C(C1)O

> <PUBCHEM_CACTVS_TPSA>
46.5

> <PUBCHEM_MONOISOTOPIC_WEIGHT>
130.062994

> <PUBCHEM_TOTAL_CHARGE>
0

> <PUBCHEM_HEAVY_ATOM_COUNT>
9

> <PUBCHEM_ATOM_DEF_STEREO_COUNT>
0

> <PUBCHEM_ATOM_UDEF_STEREO_COUNT>
1

> <PUBCHEM_BOND_DEF_STEREO_COUNT>
0

> <PUBCHEM_BOND_UDEF_STEREO_COUNT>
0

> <PUBCHEM_ISOTOPIC_ATOM_COUNT>
0

> <PUBCHEM_COMPONENT_COUNT>
1

> <PUBCHEM_CACTVS_TAUTO_COUNT>
4

> <PUBCHEM_COORDINATE_TYPE>
1
5
255

> <PUBCHEM_BONDANNOTATIONS>
7  16  3

$$$$

