17396248
  -OEChem-06241222553D

 40 42  0     0  0  0  0  0  0999 V2000
   -4.4187    1.7556   -0.8385 O   0  0  0  0  0  0  0  0  0  0  0  0
    1.9077   -2.3307   -0.2396 O   0  0  0  0  0  0  0  0  0  0  0  0
   -4.1369   -0.4424   -0.0419 N   0  0  0  0  0  0  0  0  0  0  0  0
    2.2261   -0.0241    0.0496 N   0  0  0  0  0  0  0  0  0  0  0  0
   -6.3405    0.5436   -0.2780 C   0  0  0  0  0  0  0  0  0  0  0  0
   -7.1009    1.5432    0.5433 C   0  0  0  0  0  0  0  0  0  0  0  0
   -6.9100    0.1442    1.0516 C   0  0  0  0  0  0  0  0  0  0  0  0
   -4.8579    0.6935   -0.4196 C   0  0  0  0  0  0  0  0  0  0  0  0
   -2.7540   -0.6263   -0.0544 C   0  0  0  0  0  0  0  0  0  0  0  0
   -2.2081   -1.8406    0.3617 C   0  0  0  0  0  0  0  0  0  0  0  0
   -1.9172    0.4046   -0.4818 C   0  0  0  0  0  0  0  0  0  0  0  0
    0.0114   -0.9932   -0.0770 C   0  0  0  0  0  0  0  0  0  0  0  0
   -0.8255   -2.0241    0.3504 C   0  0  0  0  0  0  0  0  0  0  0  0
   -0.5345    0.2211   -0.4930 C   0  0  0  0  0  0  0  0  0  0  0  0
    1.4529   -1.1852   -0.0893 C   0  0  0  0  0  0  0  0  0  0  0  0
    3.6371    0.1010    0.0501 C   0  0  0  0  0  0  0  0  0  0  0  0
    4.2267    1.3558    0.2018 C   0  0  0  0  0  0  0  0  0  0  0  0
    5.6161    1.4784    0.2010 C   0  0  0  0  0  0  0  0  0  0  0  0
    4.4370   -1.0316   -0.1025 C   0  0  0  0  0  0  0  0  0  0  0  0
    6.4161    0.3459    0.0483 C   0  0  0  0  0  0  0  0  0  0  0  0
    5.8265   -0.9090   -0.1034 C   0  0  0  0  0  0  0  0  0  0  0  0
    6.2468    2.8203    0.3612 C   0  0  0  0  0  0  0  0  0  0  0  0
   -6.8405    0.1698   -1.1659 H   0  0  0  0  0  0  0  0  0  0  0  0
   -8.0903    1.8260    0.2053 H   0  0  0  0  0  0  0  0  0  0  0  0
   -6.5544    2.3360    1.0393 H   0  0  0  0  0  0  0  0  0  0  0  0
   -6.2439    0.0085    1.8949 H   0  0  0  0  0  0  0  0  0  0  0  0
   -7.7706   -0.5136    1.0535 H   0  0  0  0  0  0  0  0  0  0  0  0
   -4.6783   -1.2425    0.2784 H   0  0  0  0  0  0  0  0  0  0  0  0
   -2.8485   -2.6520    0.6987 H   0  0  0  0  0  0  0  0  0  0  0  0
   -2.2667    1.3680   -0.8262 H   0  0  0  0  0  0  0  0  0  0  0  0
   -0.4205   -2.9762    0.6835 H   0  0  0  0  0  0  0  0  0  0  0  0
    0.0741    1.0376   -0.8704 H   0  0  0  0  0  0  0  0  0  0  0  0
    1.7456    0.8571    0.2090 H   0  0  0  0  0  0  0  0  0  0  0  0
    3.6043    2.2403    0.3184 H   0  0  0  0  0  0  0  0  0  0  0  0
    4.0560   -2.0353   -0.2251 H   0  0  0  0  0  0  0  0  0  0  0  0
    7.4998    0.4283    0.0438 H   0  0  0  0  0  0  0  0  0  0  0  0
    6.4505   -1.7902   -0.2227 H   0  0  0  0  0  0  0  0  0  0  0  0
    7.2342    2.7412    0.8288 H   0  0  0  0  0  0  0  0  0  0  0  0
    5.6394    3.4668    1.0038 H   0  0  0  0  0  0  0  0  0  0  0  0
    6.3598    3.3013   -0.6155 H   0  0  0  0  0  0  0  0  0  0  0  0
  1  8  2  0  0  0  0
  2 15  2  0  0  0  0
  3  8  1  0  0  0  0
  3  9  1  0  0  0  0
  3 28  1  0  0  0  0
  4 15  1  0  0  0  0
  4 16  1  0  0  0  0
  4 33  1  0  0  0  0
  5  6  1  0  0  0  0
  5  7  1  0  0  0  0
  5  8  1  0  0  0  0
  5 23  1  0  0  0  0
  6  7  1  0  0  0  0
  6 24  1  0  0  0  0
  6 25  1  0  0  0  0
  7 26  1  0  0  0  0
  7 27  1  0  0  0  0
  9 10  2  0  0  0  0
  9 11  1  0  0  0  0
 10 13  1  0  0  0  0
 10 29  1  0  0  0  0
 11 14  2  0  0  0  0
 11 30  1  0  0  0  0
 12 13  2  0  0  0  0
 12 14  1  0  0  0  0
 12 15  1  0  0  0  0
 13 31  1  0  0  0  0
 14 32  1  0  0  0  0
 16 17  1  0  0  0  0
 16 19  2  0  0  0  0
 17 18  2  0  0  0  0
 17 34  1  0  0  0  0
 18 20  1  0  0  0  0
 18 22  1  0  0  0  0
 19 21  1  0  0  0  0
 19 35  1  0  0  0  0
 20 21  2  0  0  0  0
 20 36  1  0  0  0  0
 21 37  1  0  0  0  0
 22 38  1  0  0  0  0
 22 39  1  0  0  0  0
 22 40  1  0  0  0  0
M  END
> <PUBCHEM_COMPOUND_CID>
17396248

> <PUBCHEM_CONFORMER_RMSD>
0.8

> <PUBCHEM_CONFORMER_DIVERSEORDER>
1
12
7
4
10
11
2
5
8
9
3
6

> <PUBCHEM_MMFF94_PARTIAL_CHARGES>
37
1 -0.57
10 -0.15
11 -0.15
12 0.09
13 -0.15
14 -0.15
15 0.54
16 0.12
17 -0.15
18 -0.14
19 -0.15
2 -0.57
20 -0.15
21 -0.15
22 0.14
23 0.1
24 0.1
25 0.1
26 0.1
27 0.1
28 0.37
29 0.15
3 -0.55
30 0.15
31 0.15
32 0.15
33 0.37
34 0.15
35 0.15
36 0.15
37 0.15
4 -0.55
5 -0.1
6 -0.2
7 -0.2
8 0.63
9 0.12

> <PUBCHEM_EFFECTIVE_ROTOR_COUNT>
6.6

> <PUBCHEM_PHARMACOPHORE_FEATURES>
6
1 1 acceptor
1 2 acceptor
1 3 donor
1 4 donor
6 16 17 18 19 20 21 rings
6 9 10 11 12 13 14 rings

> <PUBCHEM_HEAVY_ATOM_COUNT>
22

> <PUBCHEM_ATOM_DEF_STEREO_COUNT>
0

> <PUBCHEM_ATOM_UDEF_STEREO_COUNT>
0

> <PUBCHEM_BOND_DEF_STEREO_COUNT>
0

> <PUBCHEM_BOND_UDEF_STEREO_COUNT>
0

> <PUBCHEM_ISOTOPIC_ATOM_COUNT>
0

> <PUBCHEM_COMPONENT_COUNT>
1

> <PUBCHEM_CACTVS_TAUTO_COUNT>
7

> <PUBCHEM_CONFORMER_ID>
0109721800000001

> <PUBCHEM_MMFF94_ENERGY>
70.1431

> <PUBCHEM_FEATURE_SELFOVERLAP>
30.446

> <PUBCHEM_SHAPE_FINGERPRINT>
10 15 18060417993158296425
106641 1 17846211142978983729
11315181 36 11239993469760884919
11646440 116 18342450456956646125
12236239 1 17967817154437993079
12403259 415 18130516309400016948
125118 31 18412260666222763269
12596602 18 16702307888193134697
12730499 353 18412259575380061434
13167372 99 18261391199596993832
13402501 40 18412548716662373028
13533116 47 18188212116990045290
13668630 136 8214142954267263257
14251752 14 4895274768020293347
14251764 18 18412825759733396445
14849402 71 18261670381789643233
14933364 13 18410854365075148545
15048467 5 18334295379328865545
15183329 4 15647050473805589041
15196674 1 18339362968476606118
15475509 35 16271095968094038666
15519825 34 16199580261283839785
155225 6 17983570815645613692
15690457 1 12391507564776488593
15716309 27 12175622876067629433
1768 4 18335413522520043089
17980427 23 18200876162752993391
18006028 8 10519982660719658895
18335252 114 18187372046750446308
20157964 124 18260265265984417046
20281389 69 18272654562357382844
21033648 29 18263654970222901168
21236236 1 18338237068686282319
21521721 280 18409443709269293179
22224240 67 18131069338453945707
23198884 109 16732700562985533659
23559900 14 18261118434861172520
2838139 119 18409739477311459533
2916195 48 18343585166125632405
293599 30 18411420613684902415
29717793 49 17240759606066661766
335352 9 18410855473778305934
34797466 226 18040430014205394351
3545911 37 18413387661250814231
4073 2 18130504129042064178
4340502 62 17060337448255614283
465052 167 10807931582957734832
5104073 3 18130794425807598698
5718773 13 9006797375437868412
5758199 1 18412259558801039995
5969126 39 18120377558663845519

> <PUBCHEM_SHAPE_MULTIPOLES>
431.05
20.22
2.22
0.75
7.85
0.28
-0.04
12.49
-2.69
-1.92
-0.17
0.6
0.09
0.64

> <PUBCHEM_SHAPE_SELFOVERLAP>
924.001

> <PUBCHEM_SHAPE_VOLUME>
238.9

> <PUBCHEM_COORDINATE_TYPE>
2
5
10

$$$$

