13223
  -OEChem-06261207542D

 20 22  0     1  0  0  0  0  0999 V2000
    2.6412   -0.9484    0.0000 O   0  0  0  0  0  0  0  0  0  0  0  0
    3.7552   -2.3320    0.0000 O   0  0  0  0  0  0  0  0  0  0  0  0
    2.0000    0.7082    0.0000 O   0  0  0  0  0  0  0  0  0  0  0  0
    5.9482    0.3835    0.0000 C   0  0  3  0  0  0  0  0  0  0  0  0
    6.2070    1.3494    0.0000 C   0  0  3  0  0  0  0  0  0  0  0  0
    4.2161   -0.6165    0.0000 C   0  0  3  0  0  0  0  0  0  0  0  0
    3.7161    0.2495    0.0000 C   0  0  3  0  0  0  0  0  0  0  0  0
    5.4704    2.3320    0.0000 C   0  0  0  0  0  0  0  0  0  0  0  0
    8.0389    0.5906    0.0000 C   0  0  0  0  0  0  0  0  0  0  0  0
    7.7801   -0.3753    0.0000 C   0  0  0  0  0  0  0  0  0  0  0  0
    3.5490   -1.3535    0.0000 C   0  0  0  0  0  0  0  0  0  0  0  0
    2.7443    0.0403    0.0000 C   0  0  0  0  0  0  0  0  0  0  0  0
    4.6057   -1.0989    0.0000 H   0  0  0  0  0  0  0  0  0  0  0  0
    3.5247    0.8392    0.0000 H   0  0  0  0  0  0  0  0  0  0  0  0
    6.4186    0.7873    0.0000 H   0  0  0  0  0  0  0  0  0  0  0  0
    6.5872    1.8392    0.0000 H   0  0  0  0  0  0  0  0  0  0  0  0
    5.7882    2.8644    0.0000 H   0  0  0  0  0  0  0  0  0  0  0  0
    4.8572    2.4240    0.0000 H   0  0  0  0  0  0  0  0  0  0  0  0
    8.0543   -0.9314    0.0000 H   0  0  0  0  0  0  0  0  0  0  0  0
    8.5950    0.8648    0.0000 H   0  0  0  0  0  0  0  0  0  0  0  0
  1 11  1  0  0  0  0
  1 12  1  0  0  0  0
  2 11  2  0  0  0  0
  3 12  2  0  0  0  0
  4  6  1  0  0  0  0
  4  8  1  0  0  0  0
  4 10  1  0  0  0  0
  4 15  1  0  0  0  0
  5  7  1  0  0  0  0
  5  8  1  0  0  0  0
  5  9  1  0  0  0  0
  5 16  1  0  0  0  0
  6  7  1  0  0  0  0
  6 11  1  0  0  0  0
  6 13  1  0  0  0  0
  7 12  1  0  0  0  0
  7 14  1  0  0  0  0
  8 17  1  0  0  0  0
  8 18  1  0  0  0  0
  9 10  2  0  0  0  0
  9 20  1  0  0  0  0
 10 19  1  0  0  0  0
M  END
> <PUBCHEM_COMPOUND_CID>
13223

> <PUBCHEM_COMPOUND_CANONICALIZED>
1

> <PUBCHEM_CACTVS_COMPLEXITY>
277

> <PUBCHEM_CACTVS_HBOND_ACCEPTOR>
3

> <PUBCHEM_CACTVS_HBOND_DONOR>
0

> <PUBCHEM_CACTVS_ROTATABLE_BOND>
0

> <PUBCHEM_CACTVS_SUBSKEYS>
AAADccBwMAAAAAAAAAAAAAAAAAAAAaIEAAAgAAAAAAASAAAAAAAAGgAAAAAADQCAgAAACAAABACIACDSCAAAAAAgAAAICAEAAAgAABIAAQACAAAEgAAIAAOLyDCOgAAAAAAAAAAAAAAAAAAAAQAACAAAAA==

> <PUBCHEM_IUPAC_INCHI>
InChI=1S/C9H8O3/c10-8-6-4-1-2-5(3-4)7(6)9(11)12-8/h1-2,4-7H,3H2

> <PUBCHEM_IUPAC_INCHIKEY>
KNDQHSIWLOJIGP-UHFFFAOYSA-N

> <PUBCHEM_XLOGP3_AA>
0.7

> <PUBCHEM_EXACT_MASS>
164.047344

> <PUBCHEM_MOLECULAR_FORMULA>
C9H8O3

> <PUBCHEM_MOLECULAR_WEIGHT>
164.15802

> <PUBCHEM_OPENEYE_CAN_SMILES>
C1C2C=CC1C3C2C(=O)OC3=O

> <PUBCHEM_OPENEYE_ISO_SMILES>
C1C2C=CC1C3C2C(=O)OC3=O

> <PUBCHEM_CACTVS_TPSA>
43.4

> <PUBCHEM_MONOISOTOPIC_WEIGHT>
164.047344

> <PUBCHEM_TOTAL_CHARGE>
0

> <PUBCHEM_HEAVY_ATOM_COUNT>
12

> <PUBCHEM_ATOM_DEF_STEREO_COUNT>
0

> <PUBCHEM_ATOM_UDEF_STEREO_COUNT>
4

> <PUBCHEM_BOND_DEF_STEREO_COUNT>
0

> <PUBCHEM_BOND_UDEF_STEREO_COUNT>
0

> <PUBCHEM_ISOTOPIC_ATOM_COUNT>
0

> <PUBCHEM_COMPONENT_COUNT>
1

> <PUBCHEM_CACTVS_TAUTO_COUNT>
1

> <PUBCHEM_COORDINATE_TYPE>
1
5
255

> <PUBCHEM_BONDANNOTATIONS>
4  10  3
5  9  3
6  11  3
7  12  3

$$$$

