181684
  -OEChem-07051212593D

 35 37  0     0  0  0  0  0  0999 V2000
   -0.5990   -2.2195    0.2116 O   0  0  0  0  0  0  0  0  0  0  0  0
    1.4449   -2.2297   -1.0106 O   0  0  0  0  0  0  0  0  0  0  0  0
   -4.2795    0.6561   -0.1499 O   0  0  0  0  0  0  0  0  0  0  0  0
    0.1869    2.6769   -0.1578 C   0  0  0  0  0  0  0  0  0  0  0  0
    1.4716    2.4606    0.6419 C   0  0  0  0  0  0  0  0  0  0  0  0
   -0.7020    1.4570   -0.1134 C   0  0  0  0  0  0  0  0  0  0  0  0
   -0.1189    0.1676   -0.0936 C   0  0  0  0  0  0  0  0  0  0  0  0
    2.1471    1.1654    0.2602 C   0  0  0  0  0  0  0  0  0  0  0  0
    1.3594    0.0407   -0.0829 C   0  0  0  0  0  0  0  0  0  0  0  0
   -0.9856   -0.9395   -0.0699 C   0  0  0  0  0  0  0  0  0  0  0  0
   -2.0956    1.6137   -0.1489 C   0  0  0  0  0  0  0  0  0  0  0  0
    2.0312   -1.1495   -0.4135 C   0  0  0  0  0  0  0  0  0  0  0  0
    3.5463    1.0744    0.3049 C   0  0  0  0  0  0  0  0  0  0  0  0
   -2.9281    0.4992   -0.1334 C   0  0  0  0  0  0  0  0  0  0  0  0
   -2.3740   -0.7752   -0.0893 C   0  0  0  0  0  0  0  0  0  0  0  0
    3.4268   -1.2282   -0.3820 C   0  0  0  0  0  0  0  0  0  0  0  0
    4.1831   -0.1196   -0.0190 C   0  0  0  0  0  0  0  0  0  0  0  0
   -0.6428   -2.6197    1.5780 C   0  0  0  0  0  0  0  0  0  0  0  0
   -5.0718   -0.5306   -0.1325 C   0  0  0  0  0  0  0  0  0  0  0  0
    0.4245    2.8884   -1.2083 H   0  0  0  0  0  0  0  0  0  0  0  0
   -0.3372    3.5514    0.2454 H   0  0  0  0  0  0  0  0  0  0  0  0
    1.2489    2.4261    1.7160 H   0  0  0  0  0  0  0  0  0  0  0  0
    2.1420    3.3109    0.4702 H   0  0  0  0  0  0  0  0  0  0  0  0
   -2.5313    2.6094   -0.1846 H   0  0  0  0  0  0  0  0  0  0  0  0
    4.1450    1.9361    0.5888 H   0  0  0  0  0  0  0  0  0  0  0  0
   -2.9759   -1.6775   -0.0407 H   0  0  0  0  0  0  0  0  0  0  0  0
    3.9476   -2.1384   -0.6703 H   0  0  0  0  0  0  0  0  0  0  0  0
    5.2670   -0.1820    0.0029 H   0  0  0  0  0  0  0  0  0  0  0  0
    2.0964   -2.9364   -1.1560 H   0  0  0  0  0  0  0  0  0  0  0  0
   -0.1632   -3.5989    1.6618 H   0  0  0  0  0  0  0  0  0  0  0  0
   -1.6780   -2.7110    1.9211 H   0  0  0  0  0  0  0  0  0  0  0  0
   -0.0982   -1.9118    2.2115 H   0  0  0  0  0  0  0  0  0  0  0  0
   -4.8965   -1.1457   -1.0217 H   0  0  0  0  0  0  0  0  0  0  0  0
   -6.1210   -0.2186   -0.1621 H   0  0  0  0  0  0  0  0  0  0  0  0
   -4.9325   -1.0933    0.7968 H   0  0  0  0  0  0  0  0  0  0  0  0
  1 10  1  0  0  0  0
  1 18  1  0  0  0  0
  2 12  1  0  0  0  0
  2 29  1  0  0  0  0
  3 14  1  0  0  0  0
  3 19  1  0  0  0  0
  4  5  1  0  0  0  0
  4  6  1  0  0  0  0
  4 20  1  0  0  0  0
  4 21  1  0  0  0  0
  5  8  1  0  0  0  0
  5 22  1  0  0  0  0
  5 23  1  0  0  0  0
  6  7  2  0  0  0  0
  6 11  1  0  0  0  0
  7  9  1  0  0  0  0
  7 10  1  0  0  0  0
  8  9  2  0  0  0  0
  8 13  1  0  0  0  0
  9 12  1  0  0  0  0
 10 15  2  0  0  0  0
 11 14  2  0  0  0  0
 11 24  1  0  0  0  0
 12 16  2  0  0  0  0
 13 17  2  0  0  0  0
 13 25  1  0  0  0  0
 14 15  1  0  0  0  0
 15 26  1  0  0  0  0
 16 17  1  0  0  0  0
 16 27  1  0  0  0  0
 17 28  1  0  0  0  0
 18 30  1  0  0  0  0
 18 31  1  0  0  0  0
 18 32  1  0  0  0  0
 19 33  1  0  0  0  0
 19 34  1  0  0  0  0
 19 35  1  0  0  0  0
M  END
> <PUBCHEM_COMPOUND_CID>
181684

> <PUBCHEM_CONFORMER_RMSD>
0.6

> <PUBCHEM_CONFORMER_DIVERSEORDER>
1
3
2

> <PUBCHEM_MMFF94_PARTIAL_CHARGES>
23
1 -0.36
10 0.08
11 -0.15
12 0.08
13 -0.15
14 0.08
15 -0.15
16 -0.15
17 -0.15
18 0.28
19 0.28
2 -0.53
24 0.15
25 0.15
26 0.15
27 0.15
28 0.15
29 0.45
3 -0.36
4 0.14
5 0.14
6 -0.14
8 -0.14

> <PUBCHEM_EFFECTIVE_ROTOR_COUNT>
2.4

> <PUBCHEM_PHARMACOPHORE_FEATURES>
6
1 1 acceptor
1 2 donor
1 3 acceptor
6 4 5 6 7 8 9 rings
6 6 7 10 11 14 15 rings
6 8 9 12 13 16 17 rings

> <PUBCHEM_HEAVY_ATOM_COUNT>
19

> <PUBCHEM_ATOM_DEF_STEREO_COUNT>
0

> <PUBCHEM_ATOM_UDEF_STEREO_COUNT>
0

> <PUBCHEM_BOND_DEF_STEREO_COUNT>
0

> <PUBCHEM_BOND_UDEF_STEREO_COUNT>
0

> <PUBCHEM_ISOTOPIC_ATOM_COUNT>
0

> <PUBCHEM_COMPONENT_COUNT>
1

> <PUBCHEM_CACTVS_TAUTO_COUNT>
9

> <PUBCHEM_CONFORMER_ID>
0002C5B400000001

> <PUBCHEM_MMFF94_ENERGY>
85.7063

> <PUBCHEM_FEATURE_SELFOVERLAP>
30.49

> <PUBCHEM_SHAPE_FINGERPRINT>
10693767 8 18189356683051772903
10906281 52 18337372890821409984
10967382 1 18409167714327772052
11132069 177 18408612452387046032
11471102 20 18335424560158407093
11680986 33 18267019445021719009
11806522 49 18409168814097908285
12011746 2 18408881828525189244
12035758 1 18339922619256640010
12403259 226 18194405713238605508
13140716 1 18122351181317642232
13380535 76 18410012117719867910
13862211 1 18410863169710846983
14022347 108 18272085011471692544
14115302 16 18059565867673302892
14648413 74 18123470484059733552
14787075 74 18411419497009002509
15196674 1 18337110158691556564
15230672 131 13081706713881196731
15279308 132 18344145899243023835
15536298 74 18259705596747667285
15848702 151 17968090971377225799
16945 1 18187375336663512596
18186145 218 18272099283589812967
19591789 44 18339926033987949547
200 152 17749112196834437885
20028762 73 18188209785150306399
20510252 161 18335703904926661400
20511035 2 18121496847823825892
20588541 1 18410009931718703276
20905425 154 17976543033013229110
21029758 11 18335142003119190401
21197605 99 17977095770205067443
21267235 1 18335975445859793870
21421861 104 17625820844176664713
21501502 16 18195247702505744060
22721475 48 18409161117368983012
2334 1 17761492487199255636
23402539 116 18409740563985684006
23463225 33 18410857663889782220
23558518 356 17978497956261172760
23559900 14 18410575102739863854
25 1 18410859888255378847
2748010 2 17977383833075424044
2871803 45 18340210794693685189
335352 9 18409731763576537204
43471831 8 18129103505382739987
495365 180 17750246823956804688
5104073 3 18335421317436889921
69090 78 18261116257497577455
7364860 26 18261676961062075832
81228 2 18192976335248560080
8809292 202 18341610391428330090
9709674 26 18337388227791005958
9981440 41 17106244000309778561

> <PUBCHEM_SHAPE_MULTIPOLES>
373.4
6.97
2.78
0.84
3.85
0.05
0.17
0.28
-0.55
-0.49
0.48
-0.08
0.39
0.7

> <PUBCHEM_SHAPE_SELFOVERLAP>
822.616

> <PUBCHEM_SHAPE_VOLUME>
201.3

> <PUBCHEM_COORDINATE_TYPE>
2
5
10

$$$$

