5280655
  -OEChem-07051212493D

 55 58  0     1  0  0  0  0  0999 V2000
    3.0720   -1.0324   -0.3960 O   0  0  0  0  0  0  0  0  0  0  0  0
   -5.1401   -2.1608   -0.6110 O   0  0  0  0  0  0  0  0  0  0  0  0
    4.9430   -1.6122    0.8143 O   0  0  0  0  0  0  0  0  0  0  0  0
    0.1406    0.4419    1.0288 N   0  0  2  0  0  0  0  0  0  0  0  0
   -3.6371   -0.4409   -0.1454 N   0  0  0  0  0  0  0  0  0  0  0  0
   -1.1957   -0.3632   -1.1014 C   0  0  2  0  0  0  0  0  0  0  0  0
   -2.0209    1.2947    0.3432 C   0  0  2  0  0  0  0  0  0  0  0  0
    0.1662   -0.2918   -0.2791 C   0  0  2  0  0  0  0  0  0  0  0  0
   -1.6695    1.0745   -1.1370 C   0  0  0  0  0  0  0  0  0  0  0  0
   -3.4778    0.8996    0.5514 C   0  0  1  0  0  0  0  0  0  0  0  0
   -0.7323    1.6597    1.0819 C   0  0  0  0  0  0  0  0  0  0  0  0
   -2.4006   -1.2298   -0.5512 C   0  0  0  0  0  0  0  0  0  0  0  0
    0.7806   -1.6829   -0.0560 C   0  0  0  0  0  0  0  0  0  0  0  0
   -4.4838    1.9228    0.0204 C   0  0  0  0  0  0  0  0  0  0  0  0
    1.4757    0.6588    1.5743 C   0  0  0  0  0  0  0  0  0  0  0  0
    2.1758   -1.5782    0.5703 C   0  0  2  0  0  0  0  0  0  0  0  0
    2.1626   -0.6906    1.8175 C   0  0  0  0  0  0  0  0  0  0  0  0
   -5.8453    1.2975   -0.2980 C   0  0  0  0  0  0  0  0  0  0  0  0
   -4.9033   -1.0197   -0.2195 C   0  0  0  0  0  0  0  0  0  0  0  0
   -6.0101   -0.1065    0.2717 C   0  0  0  0  0  0  0  0  0  0  0  0
    4.3697   -0.8992    0.0029 C   0  0  0  0  0  0  0  0  0  0  0  0
    4.9953    0.2621   -0.6997 C   0  0  0  0  0  0  0  0  0  0  0  0
    4.5281    0.5906   -2.0866 C   0  0  0  0  0  0  0  0  0  0  0  0
    5.9644    0.9053   -0.0227 C   0  0  0  0  0  0  0  0  0  0  0  0
    6.7426    2.1008   -0.4730 C   0  0  0  0  0  0  0  0  0  0  0  0
   -0.9587   -0.7090   -2.1152 H   0  0  0  0  0  0  0  0  0  0  0  0
   -2.2673    2.3751    0.2977 H   0  0  0  0  0  0  0  0  0  0  0  0
    0.8505    0.2698   -0.9343 H   0  0  0  0  0  0  0  0  0  0  0  0
   -0.8889    1.7573   -1.4958 H   0  0  0  0  0  0  0  0  0  0  0  0
   -2.5146    1.1964   -1.8241 H   0  0  0  0  0  0  0  0  0  0  0  0
   -3.6590    0.7112    1.6167 H   0  0  0  0  0  0  0  0  0  0  0  0
   -0.2091    2.5065    0.6179 H   0  0  0  0  0  0  0  0  0  0  0  0
   -0.9490    1.9069    2.1269 H   0  0  0  0  0  0  0  0  0  0  0  0
   -2.7009   -1.9623   -1.3086 H   0  0  0  0  0  0  0  0  0  0  0  0
   -2.0973   -1.7902    0.3390 H   0  0  0  0  0  0  0  0  0  0  0  0
    0.1368   -2.2806    0.5998 H   0  0  0  0  0  0  0  0  0  0  0  0
    0.8510   -2.2036   -1.0187 H   0  0  0  0  0  0  0  0  0  0  0  0
   -4.1300    2.4262   -0.8873 H   0  0  0  0  0  0  0  0  0  0  0  0
   -4.6096    2.7158    0.7686 H   0  0  0  0  0  0  0  0  0  0  0  0
    1.4102    1.1831    2.5353 H   0  0  0  0  0  0  0  0  0  0  0  0
    2.0774    1.2840    0.9036 H   0  0  0  0  0  0  0  0  0  0  0  0
    2.5181   -2.5883    0.8277 H   0  0  0  0  0  0  0  0  0  0  0  0
    3.1652   -0.5028    2.2134 H   0  0  0  0  0  0  0  0  0  0  0  0
    1.6158   -1.2196    2.6100 H   0  0  0  0  0  0  0  0  0  0  0  0
   -5.9580    1.2489   -1.3891 H   0  0  0  0  0  0  0  0  0  0  0  0
   -6.6478    1.9487    0.0668 H   0  0  0  0  0  0  0  0  0  0  0  0
   -6.9725   -0.5209   -0.0480 H   0  0  0  0  0  0  0  0  0  0  0  0
   -5.9983   -0.0943    1.3672 H   0  0  0  0  0  0  0  0  0  0  0  0
    5.2485    1.1927   -2.6460 H   0  0  0  0  0  0  0  0  0  0  0  0
    4.3760   -0.3271   -2.6656 H   0  0  0  0  0  0  0  0  0  0  0  0
    3.5794    1.1358   -2.0489 H   0  0  0  0  0  0  0  0  0  0  0  0
    6.2305    0.5645    0.9768 H   0  0  0  0  0  0  0  0  0  0  0  0
    6.6945    2.8779    0.2968 H   0  0  0  0  0  0  0  0  0  0  0  0
    6.3704    2.5395   -1.4011 H   0  0  0  0  0  0  0  0  0  0  0  0
    7.7927    1.8282   -0.6156 H   0  0  0  0  0  0  0  0  0  0  0  0
  1 16  1  0  0  0  0
  1 21  1  0  0  0  0
  2 19  2  0  0  0  0
  3 21  2  0  0  0  0
  4  8  1  0  0  0  0
  4 11  1  0  0  0  0
  4 15  1  0  0  0  0
  5 10  1  0  0  0  0
  5 12  1  0  0  0  0
  5 19  1  0  0  0  0
  6  8  1  0  0  0  0
  6  9  1  0  0  0  0
  6 12  1  0  0  0  0
  6 26  1  0  0  0  0
  7  9  1  0  0  0  0
  7 10  1  0  0  0  0
  7 11  1  0  0  0  0
  7 27  1  0  0  0  0
  8 13  1  0  0  0  0
  8 28  1  0  0  0  0
  9 29  1  0  0  0  0
  9 30  1  0  0  0  0
 10 14  1  0  0  0  0
 10 31  1  0  0  0  0
 11 32  1  0  0  0  0
 11 33  1  0  0  0  0
 12 34  1  0  0  0  0
 12 35  1  0  0  0  0
 13 16  1  0  0  0  0
 13 36  1  0  0  0  0
 13 37  1  0  0  0  0
 14 18  1  0  0  0  0
 14 38  1  0  0  0  0
 14 39  1  0  0  0  0
 15 17  1  0  0  0  0
 15 40  1  0  0  0  0
 15 41  1  0  0  0  0
 16 17  1  0  0  0  0
 16 42  1  0  0  0  0
 17 43  1  0  0  0  0
 17 44  1  0  0  0  0
 18 20  1  0  0  0  0
 18 45  1  0  0  0  0
 18 46  1  0  0  0  0
 19 20  1  0  0  0  0
 20 47  1  0  0  0  0
 20 48  1  0  0  0  0
 21 22  1  0  0  0  0
 22 23  1  0  0  0  0
 22 24  2  0  0  0  0
 23 49  1  0  0  0  0
 23 50  1  0  0  0  0
 23 51  1  0  0  0  0
 24 25  1  0  0  0  0
 24 52  1  0  0  0  0
 25 53  1  0  0  0  0
 25 54  1  0  0  0  0
 25 55  1  0  0  0  0
M  END
> <PUBCHEM_COMPOUND_CID>
5280655

> <PUBCHEM_CONFORMER_RMSD>
0.8

> <PUBCHEM_CONFORMER_DIVERSEORDER>
1
20
16
22
4
12
9
29
13
3
23
27
15
8
18
2
5
30
6
11
14
7
10
24
28
31
26
25
17
21
19

> <PUBCHEM_MMFF94_PARTIAL_CHARGES>
19
1 -0.43
10 0.3
11 0.27
12 0.3
15 0.27
16 0.28
19 0.57
2 -0.57
20 0.06
21 0.71
22 -0.12
23 0.14
24 -0.29
25 0.14
3 -0.57
4 -0.81
5 -0.66
52 0.15
8 0.27

> <PUBCHEM_EFFECTIVE_ROTOR_COUNT>
5

> <PUBCHEM_PHARMACOPHORE_FEATURES>
9
1 2 acceptor
1 23 hydrophobe
1 25 hydrophobe
1 3 acceptor
1 4 cation
6 4 6 7 8 9 11 rings
6 4 8 13 15 16 17 rings
6 5 10 14 18 19 20 rings
6 5 6 7 9 10 12 rings

> <PUBCHEM_HEAVY_ATOM_COUNT>
25

> <PUBCHEM_ATOM_DEF_STEREO_COUNT>
5

> <PUBCHEM_ATOM_UDEF_STEREO_COUNT>
0

> <PUBCHEM_BOND_DEF_STEREO_COUNT>
1

> <PUBCHEM_BOND_UDEF_STEREO_COUNT>
0

> <PUBCHEM_ISOTOPIC_ATOM_COUNT>
0

> <PUBCHEM_COMPONENT_COUNT>
1

> <PUBCHEM_CACTVS_TAUTO_COUNT>
1

> <PUBCHEM_CONFORMER_ID>
0050938F00000001

> <PUBCHEM_MMFF94_ENERGY>
108.1228

> <PUBCHEM_FEATURE_SELFOVERLAP>
46.492

> <PUBCHEM_SHAPE_FINGERPRINT>
10366900 7 17531256110064115651
10595046 47 18413389855926133978
10906281 52 17677887032532285561
11646440 116 13901900146390003565
12011746 2 17822296816472057597
12166972 35 18201719579257223516
12236239 1 18343302586735879614
12467345 10 18411133628101867940
12788726 201 17385718140914636848
13533116 47 16271653398892716738
13631057 29 17845087368897070603
13914758 101 6338961019213189681
14251764 18 18408884049745811601
14528608 73 18342734122434704028
14787075 74 18412263938887174611
14790565 3 18408320016532437705
15048467 5 18342738537529280509
15537594 2 15936411152311110740
16994733 274 18060702784172155868
17349148 13 11959720586319463226
17834072 33 18413388743730096853
18335252 98 18187920647550421614
19319366 153 18342184383743618082
19377110 9 17846791718876924672
200 152 16200152144521380707
20511986 3 17988370342465349055
20567600 75 14851598912366140233
21033648 29 15864652677049625907
21150785 3 17846223246386851471
21267235 1 18187928336217017039
2215653 11 15719393949166639772
23175994 123 16081092580269525299
23402539 116 17203045287554953367
23522609 53 18189031201455031873
23559900 14 18261120651671322481
300161 21 17703794751617524639
3004659 81 18336263561320635398
335352 9 18260554420995610357
3472631 163 18335697214116479868
34797466 226 17894903027846570500
350125 39 18334859411487821697
4325135 7 18342457041172548894
4340502 62 16415477159983113026
474 4 17560793313244468052
5207 217 18411415073530382168
53794403 172 18123468277085580780
543368 44 18342174444993486037
6328613 192 18408885166021181281
6823239 73 18113629962248874099
6913067 236 16056884619612219054
7495541 125 18334300872502431570
8509985 295 9727628406461092794

> <PUBCHEM_SHAPE_MULTIPOLES>
486.92
15.48
2.01
1.34
5.13
0.01
0.03
3.69
-2.95
-0.05
0.01
1.15
0.13
-1.18

> <PUBCHEM_SHAPE_SELFOVERLAP>
1018.16

> <PUBCHEM_SHAPE_VOLUME>
270.1

> <PUBCHEM_COORDINATE_TYPE>
2
5
10

$$$$

