9470
  -OEChem-06261203442D

 30 31  0     1  0  0  0  0  0999 V2000
    2.0000    0.2500    0.0000 O   0  0  0  0  0  0  0  0  0  0  0  0
    3.7320    1.2500    0.0000 N   0  0  0  0  0  0  0  0  0  0  0  0
    4.5981    2.7500    0.0000 N   0  0  0  0  0  0  0  0  0  0  0  0
    2.8660   -0.2500    0.0000 C   0  0  3  0  0  0  0  0  0  0  0  0
    3.7320    0.2500    0.0000 C   0  0  0  0  0  0  0  0  0  0  0  0
    2.8660   -1.2500    0.0000 C   0  0  0  0  0  0  0  0  0  0  0  0
    2.0000   -1.7500    0.0000 C   0  0  0  0  0  0  0  0  0  0  0  0
    3.7320   -1.7500    0.0000 C   0  0  0  0  0  0  0  0  0  0  0  0
    4.5981    1.7500    0.0000 C   0  0  0  0  0  0  0  0  0  0  0  0
    2.0000   -2.7500    0.0000 C   0  0  0  0  0  0  0  0  0  0  0  0
    3.7320   -2.7500    0.0000 C   0  0  0  0  0  0  0  0  0  0  0  0
    2.8660   -3.2500    0.0000 C   0  0  0  0  0  0  0  0  0  0  0  0
    5.4641    1.2500    0.0000 C   0  0  0  0  0  0  0  0  0  0  0  0
    6.3301    1.7500    0.0000 C   0  0  0  0  0  0  0  0  0  0  0  0
    5.4641    3.2500    0.0000 C   0  0  0  0  0  0  0  0  0  0  0  0
    6.3301    2.7500    0.0000 C   0  0  0  0  0  0  0  0  0  0  0  0
    2.8660    0.3700    0.0000 H   0  0  0  0  0  0  0  0  0  0  0  0
    3.9441   -0.3326    0.0000 H   0  0  0  0  0  0  0  0  0  0  0  0
    4.3426    0.3577    0.0000 H   0  0  0  0  0  0  0  0  0  0  0  0
    3.1951    1.5600    0.0000 H   0  0  0  0  0  0  0  0  0  0  0  0
    1.4631   -1.4400    0.0000 H   0  0  0  0  0  0  0  0  0  0  0  0
    4.2690   -1.4400    0.0000 H   0  0  0  0  0  0  0  0  0  0  0  0
    2.0000    0.8700    0.0000 H   0  0  0  0  0  0  0  0  0  0  0  0
    1.4631   -3.0600    0.0000 H   0  0  0  0  0  0  0  0  0  0  0  0
    4.2690   -3.0600    0.0000 H   0  0  0  0  0  0  0  0  0  0  0  0
    2.8660   -3.8700    0.0000 H   0  0  0  0  0  0  0  0  0  0  0  0
    5.4641    0.6300    0.0000 H   0  0  0  0  0  0  0  0  0  0  0  0
    6.8671    1.4400    0.0000 H   0  0  0  0  0  0  0  0  0  0  0  0
    5.4641    3.8700    0.0000 H   0  0  0  0  0  0  0  0  0  0  0  0
    6.8671    3.0600    0.0000 H   0  0  0  0  0  0  0  0  0  0  0  0
  1  4  1  0  0  0  0
  1 23  1  0  0  0  0
  2  5  1  0  0  0  0
  2  9  1  0  0  0  0
  2 20  1  0  0  0  0
  3  9  1  0  0  0  0
  3 15  2  0  0  0  0
  4  5  1  0  0  0  0
  4  6  1  0  0  0  0
  4 17  1  0  0  0  0
  5 18  1  0  0  0  0
  5 19  1  0  0  0  0
  6  7  2  0  0  0  0
  6  8  1  0  0  0  0
  7 10  1  0  0  0  0
  7 21  1  0  0  0  0
  8 11  2  0  0  0  0
  8 22  1  0  0  0  0
  9 13  2  0  0  0  0
 10 12  2  0  0  0  0
 10 24  1  0  0  0  0
 11 12  1  0  0  0  0
 11 25  1  0  0  0  0
 12 26  1  0  0  0  0
 13 14  1  0  0  0  0
 13 27  1  0  0  0  0
 14 16  2  0  0  0  0
 14 28  1  0  0  0  0
 15 16  1  0  0  0  0
 15 29  1  0  0  0  0
 16 30  1  0  0  0  0
M  END
> <PUBCHEM_COMPOUND_CID>
9470

> <PUBCHEM_COMPOUND_CANONICALIZED>
1

> <PUBCHEM_CACTVS_COMPLEXITY>
192

> <PUBCHEM_CACTVS_HBOND_ACCEPTOR>
3

> <PUBCHEM_CACTVS_HBOND_DONOR>
2

> <PUBCHEM_CACTVS_ROTATABLE_BOND>
4

> <PUBCHEM_CACTVS_SUBSKEYS>
AAADccBzIAAAAAAAAAAAAAAAAAAAAAAAAAA8QAAAAAAAAAABwAAAHgAQCAAADBThmgY9sJLIEgCgAjJnZACCgCkxAiAJ2KA4bJiKNuLAmZGEcAhs0APY2CeQwKAOAAAAAAAAAAAAAAAAAAAAAAAAAAAAAA==

> <PUBCHEM_IUPAC_OPENEYE_NAME>
1-phenyl-2-(2-pyridylamino)ethanol

> <PUBCHEM_IUPAC_CAS_NAME>
1-phenyl-2-(2-pyridinylamino)ethanol

> <PUBCHEM_IUPAC_NAME>
1-phenyl-2-(pyridin-2-ylamino)ethanol

> <PUBCHEM_IUPAC_SYSTEMATIC_NAME>
1-phenyl-2-(pyridin-2-ylamino)ethanol

> <PUBCHEM_IUPAC_TRADITIONAL_NAME>
1-phenyl-2-(2-pyridylamino)ethanol

> <PUBCHEM_IUPAC_INCHI>
InChI=1S/C13H14N2O/c16-12(11-6-2-1-3-7-11)10-15-13-8-4-5-9-14-13/h1-9,12,16H,10H2,(H,14,15)

> <PUBCHEM_IUPAC_INCHIKEY>
ZEAJXCPGHPJVNP-UHFFFAOYSA-N

> <PUBCHEM_XLOGP3_AA>
2

> <PUBCHEM_EXACT_MASS>
214.110613

> <PUBCHEM_MOLECULAR_FORMULA>
C13H14N2O

> <PUBCHEM_MOLECULAR_WEIGHT>
214.26306

> <PUBCHEM_OPENEYE_CAN_SMILES>
C1=CC=C(C=C1)C(CNC2=CC=CC=N2)O

> <PUBCHEM_OPENEYE_ISO_SMILES>
C1=CC=C(C=C1)C(CNC2=CC=CC=N2)O

> <PUBCHEM_CACTVS_TPSA>
45.2

> <PUBCHEM_MONOISOTOPIC_WEIGHT>
214.110613

> <PUBCHEM_TOTAL_CHARGE>
0

> <PUBCHEM_HEAVY_ATOM_COUNT>
16

> <PUBCHEM_ATOM_DEF_STEREO_COUNT>
0

> <PUBCHEM_ATOM_UDEF_STEREO_COUNT>
1

> <PUBCHEM_BOND_DEF_STEREO_COUNT>
0

> <PUBCHEM_BOND_UDEF_STEREO_COUNT>
0

> <PUBCHEM_ISOTOPIC_ATOM_COUNT>
0

> <PUBCHEM_COMPONENT_COUNT>
1

> <PUBCHEM_CACTVS_TAUTO_COUNT>
2

> <PUBCHEM_COORDINATE_TYPE>
1
5
255

> <PUBCHEM_BONDANNOTATIONS>
4  1  3
10  12  8
11  12  8
13  14  8
14  16  8
15  16  8
3  15  8
3  9  8
6  7  8
6  8  8
7  10  8
8  11  8
9  13  8

$$$$

