6041
  -OEChem-06261201043D

 25 25  0     1  0  0  0  0  0999 V2000
    1.2321   -1.9839   -1.4029 O   0  0  0  0  0  0  0  0  0  0  0  0
   -2.6271    1.5025   -1.3985 O   0  0  0  0  0  0  0  0  0  0  0  0
    2.4382    0.8243    0.7285 N   0  0  0  0  0  0  0  0  0  0  0  0
    1.2976   -1.1635   -0.2287 C   0  0  1  0  0  0  0  0  0  0  0  0
    2.3112   -0.0239   -0.4544 C   0  0  0  0  0  0  0  0  0  0  0  0
   -0.0675   -0.6511    0.0834 C   0  0  0  0  0  0  0  0  0  0  0  0
   -0.7162    0.1969   -0.8143 C   0  0  0  0  0  0  0  0  0  0  0  0
   -0.6960   -1.0201    1.2728 C   0  0  0  0  0  0  0  0  0  0  0  0
   -1.9936    0.6757   -0.5226 C   0  0  0  0  0  0  0  0  0  0  0  0
   -1.9731   -0.5414    1.5644 C   0  0  0  0  0  0  0  0  0  0  0  0
   -2.6219    0.3065    0.6668 C   0  0  0  0  0  0  0  0  0  0  0  0
    3.4163    1.8781    0.5054 C   0  0  0  0  0  0  0  0  0  0  0  0
    1.6587   -1.8093    0.5818 H   0  0  0  0  0  0  0  0  0  0  0  0
    2.0288    0.5732   -1.3305 H   0  0  0  0  0  0  0  0  0  0  0  0
    3.2826   -0.4727   -0.7015 H   0  0  0  0  0  0  0  0  0  0  0  0
   -0.2453    0.4841   -1.7509 H   0  0  0  0  0  0  0  0  0  0  0  0
   -0.2038   -1.6796    1.9826 H   0  0  0  0  0  0  0  0  0  0  0  0
    2.7256    0.2571    1.5256 H   0  0  0  0  0  0  0  0  0  0  0  0
   -2.4624   -0.8286    2.4905 H   0  0  0  0  0  0  0  0  0  0  0  0
    2.1300   -2.3133   -1.5785 H   0  0  0  0  0  0  0  0  0  0  0  0
   -3.6169    0.6724    0.9058 H   0  0  0  0  0  0  0  0  0  0  0  0
    3.1186    2.5269   -0.3247 H   0  0  0  0  0  0  0  0  0  0  0  0
    4.4109    1.4682    0.3013 H   0  0  0  0  0  0  0  0  0  0  0  0
    3.4883    2.5036    1.4006 H   0  0  0  0  0  0  0  0  0  0  0  0
   -3.4995    1.7357   -1.0370 H   0  0  0  0  0  0  0  0  0  0  0  0
  1  4  1  0  0  0  0
  1 20  1  0  0  0  0
  2  9  1  0  0  0  0
  2 25  1  0  0  0  0
  3  5  1  0  0  0  0
  3 12  1  0  0  0  0
  3 18  1  0  0  0  0
  4  5  1  0  0  0  0
  4  6  1  0  0  0  0
  4 13  1  0  0  0  0
  5 14  1  0  0  0  0
  5 15  1  0  0  0  0
  6  7  2  0  0  0  0
  6  8  1  0  0  0  0
  7  9  1  0  0  0  0
  7 16  1  0  0  0  0
  8 10  2  0  0  0  0
  8 17  1  0  0  0  0
  9 11  2  0  0  0  0
 10 11  1  0  0  0  0
 10 19  1  0  0  0  0
 11 21  1  0  0  0  0
 12 22  1  0  0  0  0
 12 23  1  0  0  0  0
 12 24  1  0  0  0  0
M  END
> <PUBCHEM_COMPOUND_CID>
6041

> <PUBCHEM_CONFORMER_RMSD>
0.6

> <PUBCHEM_CONFORMER_DIVERSEORDER>
3
12
13
6
11
15
14
2
8
7
10
9
5
4
1

> <PUBCHEM_MMFF94_PARTIAL_CHARGES>
19
1 -0.68
10 -0.15
11 -0.15
12 0.27
16 0.15
17 0.15
18 0.36
19 0.15
2 -0.53
20 0.4
21 0.15
25 0.45
3 -0.9
4 0.42
5 0.27
6 -0.14
7 -0.15
8 -0.15
9 0.08

> <PUBCHEM_EFFECTIVE_ROTOR_COUNT>
3

> <PUBCHEM_PHARMACOPHORE_FEATURES>
6
1 1 acceptor
1 1 donor
1 2 donor
1 3 cation
1 3 donor
6 6 7 8 9 10 11 rings

> <PUBCHEM_HEAVY_ATOM_COUNT>
12

> <PUBCHEM_ATOM_DEF_STEREO_COUNT>
1

> <PUBCHEM_ATOM_UDEF_STEREO_COUNT>
0

> <PUBCHEM_BOND_DEF_STEREO_COUNT>
0

> <PUBCHEM_BOND_UDEF_STEREO_COUNT>
0

> <PUBCHEM_ISOTOPIC_ATOM_COUNT>
0

> <PUBCHEM_COMPONENT_COUNT>
1

> <PUBCHEM_CACTVS_TAUTO_COUNT>
3

> <PUBCHEM_CONFORMER_ID>
0000179900000003

> <PUBCHEM_MMFF94_ENERGY>
24.5094

> <PUBCHEM_FEATURE_SELFOVERLAP>
30.446

> <PUBCHEM_SHAPE_FINGERPRINT>
10857977 72 17703210846207468899
12932764 1 18341883125788260930
13380536 127 16414895496735674823
13571099 52 18201453509346943893
13839132 238 17988362671152578852
15775835 57 17095231506404135552
16945 1 18115303530563010414
18380122 1 18269539581517783939
19786989 88 18259984885564899255
20511035 2 16771546437406891899
20645464 45 18272929440184971891
20645476 183 16370997564059118845
20653085 51 17971189472501422721
21028194 46 18411418388939192448
21040471 1 16915368025828995951
21947302 44 18339651155922743512
228727 97 16298391231866592955
23211744 41 18342737420558358058
23552423 10 15647604713322656703
25610 171 17632281376774666249
27216 239 18053108319972667616
2748010 2 16986868193463023907
369184 2 18131353003135853675
5084963 1 17844222220295560483
8030462 33 16226056625317797655
81228 2 17631710735004134627

> <PUBCHEM_SHAPE_MULTIPOLES>
230.23
4.62
1.68
1.41
2.22
0.1
-0.01
2.66
0.86
0.59
-0.33
-0.39
-0.19
1.41

> <PUBCHEM_SHAPE_SELFOVERLAP>
467.152

> <PUBCHEM_SHAPE_VOLUME>
135

> <PUBCHEM_COORDINATE_TYPE>
2
5
10

$$$$

