441676
  -OEChem-07051212552D

 82 85  0     1  0  0  0  0  0999 V2000
    9.6005    0.6680    0.0000 O   0  0  0  0  0  0  0  0  0  0  0  0
    2.0000   -3.3289    0.0000 O   0  0  0  0  0  0  0  0  0  0  0  0
    6.5271   -1.7766    0.0000 C   0  0  1  0  0  0  0  0  0  0  0  0
    7.3931   -1.2766    0.0000 C   0  0  1  0  0  0  0  0  0  0  0  0
    5.6610   -1.2766    0.0000 C   0  0  1  0  0  0  0  0  0  0  0  0
    7.3931   -0.2766    0.0000 C   0  0  1  0  0  0  0  0  0  0  0  0
    4.7510   -1.7834    0.0000 C   0  0  2  0  0  0  0  0  0  0  0  0
    4.7430   -2.8250    0.0000 C   0  0  1  0  0  0  0  0  0  0  0  0
    6.5431   -2.8181    0.0000 C   0  0  0  0  0  0  0  0  0  0  0  0
    8.3393    0.0282    0.0000 C   0  0  2  0  0  0  0  0  0  0  0  0
    5.6610   -0.2766    0.0000 C   0  0  0  0  0  0  0  0  0  0  0  0
    8.3393   -1.5813    0.0000 C   0  0  0  0  0  0  0  0  0  0  0  0
    6.5271    0.2234    0.0000 C   0  0  0  0  0  0  0  0  0  0  0  0
    5.6451   -3.3458    0.0000 C   0  0  0  0  0  0  0  0  0  0  0  0
    8.9229   -0.7766    0.0000 C   0  0  0  0  0  0  0  0  0  0  0  0
    7.1698   -2.5426    0.0000 C   0  0  0  0  0  0  0  0  0  0  0  0
    3.8242   -1.2193    0.0000 C   0  0  0  0  0  0  0  0  0  0  0  0
    3.8076   -3.3747    0.0000 C   0  0  0  0  0  0  0  0  0  0  0  0
    7.7352   -2.2162    0.0000 C   0  0  0  0  0  0  0  0  0  0  0  0
    8.6500    0.9787    0.0000 C   0  0  2  0  0  0  0  0  0  0  0  0
    4.7587   -0.7834    0.0000 C   0  0  0  0  0  0  0  0  0  0  0  0
    2.8763   -1.7473    0.0000 C   0  0  0  0  0  0  0  0  0  0  0  0
    2.8680   -2.8322    0.0000 C   0  0  0  0  0  0  0  0  0  0  0  0
    3.3109   -4.2427    0.0000 C   0  0  0  0  0  0  0  0  0  0  0  0
    4.3109   -4.2388    0.0000 C   0  0  0  0  0  0  0  0  0  0  0  0
    8.9606    1.9292    0.0000 C   0  0  0  0  0  0  0  0  0  0  0  0
    7.6994    1.2894    0.0000 C   0  0  0  0  0  0  0  0  0  0  0  0
    9.9391    2.1354    0.0000 C   0  0  0  0  0  0  0  0  0  0  0  0
   10.2498    3.0859    0.0000 C   0  0  0  0  0  0  0  0  0  0  0  0
   11.2283    3.2922    0.0000 C   0  0  0  0  0  0  0  0  0  0  0  0
   11.5390    4.2427    0.0000 C   0  0  0  0  0  0  0  0  0  0  0  0
   11.8961    2.5479    0.0000 C   0  0  0  0  0  0  0  0  0  0  0  0
    6.3972   -0.8516    0.0000 H   0  0  0  0  0  0  0  0  0  0  0  0
    7.4830    0.5687    0.0000 H   0  0  0  0  0  0  0  0  0  0  0  0
    4.7463   -3.6750    0.0000 H   0  0  0  0  0  0  0  0  0  0  0  0
    6.7612   -3.3985    0.0000 H   0  0  0  0  0  0  0  0  0  0  0  0
    7.1523   -2.7026    0.0000 H   0  0  0  0  0  0  0  0  0  0  0  0
    9.1790    0.1600    0.0000 H   0  0  0  0  0  0  0  0  0  0  0  0
    5.4490    0.3060    0.0000 H   0  0  0  0  0  0  0  0  0  0  0  0
    5.0504   -0.3842    0.0000 H   0  0  0  0  0  0  0  0  0  0  0  0
    8.0883   -2.1482    0.0000 H   0  0  0  0  0  0  0  0  0  0  0  0
    8.8767   -1.8905    0.0000 H   0  0  0  0  0  0  0  0  0  0  0  0
    6.9256    0.6984    0.0000 H   0  0  0  0  0  0  0  0  0  0  0  0
    6.1285    0.6984    0.0000 H   0  0  0  0  0  0  0  0  0  0  0  0
    5.2478   -3.8218    0.0000 H   0  0  0  0  0  0  0  0  0  0  0  0
    6.0460   -3.8187    0.0000 H   0  0  0  0  0  0  0  0  0  0  0  0
    9.3838   -1.1913    0.0000 H   0  0  0  0  0  0  0  0  0  0  0  0
    9.3838   -0.3618    0.0000 H   0  0  0  0  0  0  0  0  0  0  0  0
    6.6949   -2.9411    0.0000 H   0  0  0  0  0  0  0  0  0  0  0  0
    7.5684   -3.0176    0.0000 H   0  0  0  0  0  0  0  0  0  0  0  0
    7.6448   -2.1441    0.0000 H   0  0  0  0  0  0  0  0  0  0  0  0
    4.2324   -0.7527    0.0000 H   0  0  0  0  0  0  0  0  0  0  0  0
    3.4343   -0.7373    0.0000 H   0  0  0  0  0  0  0  0  0  0  0  0
    7.1526   -2.4283    0.0000 H   0  0  0  0  0  0  0  0  0  0  0  0
    7.9473   -2.7988    0.0000 H   0  0  0  0  0  0  0  0  0  0  0  0
    8.3178   -2.0041    0.0000 H   0  0  0  0  0  0  0  0  0  0  0  0
    5.3787   -0.7882    0.0000 H   0  0  0  0  0  0  0  0  0  0  0  0
    4.7635   -0.1635    0.0000 H   0  0  0  0  0  0  0  0  0  0  0  0
    4.1388   -0.7787    0.0000 H   0  0  0  0  0  0  0  0  0  0  0  0
    2.6718   -1.1620    0.0000 H   0  0  0  0  0  0  0  0  0  0  0  0
    2.2647   -1.8487    0.0000 H   0  0  0  0  0  0  0  0  0  0  0  0
    2.7728   -3.9348    0.0000 H   0  0  0  0  0  0  0  0  0  0  0  0
    3.0030   -4.7808    0.0000 H   0  0  0  0  0  0  0  0  0  0  0  0
    3.8490   -4.5506    0.0000 H   0  0  0  0  0  0  0  0  0  0  0  0
    3.7752   -4.5509    0.0000 H   0  0  0  0  0  0  0  0  0  0  0  0
    4.6230   -4.7746    0.0000 H   0  0  0  0  0  0  0  0  0  0  0  0
    4.8466   -3.9268    0.0000 H   0  0  0  0  0  0  0  0  0  0  0  0
    8.9401    2.5489    0.0000 H   0  0  0  0  0  0  0  0  0  0  0  0
    8.3468    2.0166    0.0000 H   0  0  0  0  0  0  0  0  0  0  0  0
    7.8921    1.8787    0.0000 H   0  0  0  0  0  0  0  0  0  0  0  0
    7.1101    1.4820    0.0000 H   0  0  0  0  0  0  0  0  0  0  0  0
    7.5068    0.7000    0.0000 H   0  0  0  0  0  0  0  0  0  0  0  0
   10.0620    1.0821    0.0000 H   0  0  0  0  0  0  0  0  0  0  0  0
    9.9597    1.5158    0.0000 H   0  0  0  0  0  0  0  0  0  0  0  0
   10.5530    2.0481    0.0000 H   0  0  0  0  0  0  0  0  0  0  0  0
    9.8357    3.5474    0.0000 H   0  0  0  0  0  0  0  0  0  0  0  0
   11.4347    2.1338    0.0000 H   0  0  0  0  0  0  0  0  0  0  0  0
   12.3102    2.0864    0.0000 H   0  0  0  0  0  0  0  0  0  0  0  0
   12.1283    4.0501    0.0000 H   0  0  0  0  0  0  0  0  0  0  0  0
   11.7316    4.8320    0.0000 H   0  0  0  0  0  0  0  0  0  0  0  0
   10.9496    4.4353    0.0000 H   0  0  0  0  0  0  0  0  0  0  0  0
   12.3576    2.9619    0.0000 H   0  0  0  0  0  0  0  0  0  0  0  0
 20  1  1  1  0  0  0
  1 73  1  0  0  0  0
  2 23  2  0  0  0  0
  3  4  1  0  0  0  0
  3  5  1  0  0  0  0
  3  9  1  0  0  0  0
  3 16  1  1  0  0  0
  4  6  1  0  0  0  0
  4 12  1  0  0  0  0
  4 19  1  6  0  0  0
  5  7  1  0  0  0  0
  5 11  1  0  0  0  0
  5 33  1  6  0  0  0
  6 10  1  0  0  0  0
  6 13  1  0  0  0  0
  6 34  1  1  0  0  0
  7  8  1  0  0  0  0
  7 17  1  0  0  0  0
  7 21  1  1  0  0  0
  8 14  1  0  0  0  0
  8 18  1  0  0  0  0
  8 35  1  6  0  0  0
  9 14  1  0  0  0  0
  9 36  1  0  0  0  0
  9 37  1  0  0  0  0
 10 15  1  0  0  0  0
 10 20  1  0  0  0  0
 10 38  1  6  0  0  0
 11 13  1  0  0  0  0
 11 39  1  0  0  0  0
 11 40  1  0  0  0  0
 12 15  1  0  0  0  0
 12 41  1  0  0  0  0
 12 42  1  0  0  0  0
 13 43  1  0  0  0  0
 13 44  1  0  0  0  0
 14 45  1  0  0  0  0
 14 46  1  0  0  0  0
 15 47  1  0  0  0  0
 15 48  1  0  0  0  0
 16 49  1  0  0  0  0
 16 50  1  0  0  0  0
 16 51  1  0  0  0  0
 17 22  1  0  0  0  0
 17 52  1  0  0  0  0
 17 53  1  0  0  0  0
 18 23  1  0  0  0  0
 18 24  1  0  0  0  0
 18 25  1  0  0  0  0
 19 54  1  0  0  0  0
 19 55  1  0  0  0  0
 19 56  1  0  0  0  0
 20 26  1  0  0  0  0
 20 27  1  0  0  0  0
 21 57  1  0  0  0  0
 21 58  1  0  0  0  0
 21 59  1  0  0  0  0
 22 23  1  0  0  0  0
 22 60  1  0  0  0  0
 22 61  1  0  0  0  0
 24 62  1  0  0  0  0
 24 63  1  0  0  0  0
 24 64  1  0  0  0  0
 25 65  1  0  0  0  0
 25 66  1  0  0  0  0
 25 67  1  0  0  0  0
 26 28  1  0  0  0  0
 26 68  1  0  0  0  0
 26 69  1  0  0  0  0
 27 70  1  0  0  0  0
 27 71  1  0  0  0  0
 27 72  1  0  0  0  0
 28 29  1  0  0  0  0
 28 74  1  0  0  0  0
 28 75  1  0  0  0  0
 29 30  2  0  0  0  0
 29 76  1  0  0  0  0
 30 31  1  0  0  0  0
 30 32  1  0  0  0  0
 31 79  1  0  0  0  0
 31 80  1  0  0  0  0
 31 81  1  0  0  0  0
 32 77  1  0  0  0  0
 32 78  1  0  0  0  0
 32 82  1  0  0  0  0
M  END
> <PUBCHEM_COMPOUND_CID>
441676

> <PUBCHEM_COMPOUND_CANONICALIZED>
1

> <PUBCHEM_CACTVS_COMPLEXITY>
791

> <PUBCHEM_CACTVS_HBOND_ACCEPTOR>
2

> <PUBCHEM_CACTVS_HBOND_DONOR>
1

> <PUBCHEM_CACTVS_ROTATABLE_BOND>
4

> <PUBCHEM_CACTVS_SUBSKEYS>
AAADcfB4MAAAAAAAAAAAAAAAAAAAAYAAAAAwYMAAAAAAAGDAAAAAGgAACAAAD0SAgAACAAAAAgCIAqBSAAAAAAAgAAAACAEAAAgAABIAAQAAQAAEgAAIAAOIyPCPgAAAAAAAAACAAAQAACAAAQAACAAAAA==

> <PUBCHEM_IUPAC_OPENEYE_NAME>
(5R,8R,9R,10R,13R,14R,17S)-17-[(1S)-1-hydroxy-1,5-dimethyl-hex-4-enyl]-4,4,8,10,14-pentamethyl-1,2,5,6,7,9,11,12,13,15,16,17-dodecahydrocyclopenta[a]phenanthren-3-one

> <PUBCHEM_IUPAC_CAS_NAME>
(5R,8R,9R,10R,13R,14R,17S)-17-[(2S)-2-hydroxy-6-methylhept-5-en-2-yl]-4,4,8,10,14-pentamethyl-1,2,5,6,7,9,11,12,13,15,16,17-dodecahydrocyclopenta[a]phenanthren-3-one

> <PUBCHEM_IUPAC_NAME>
(5R,8R,9R,10R,13R,14R,17S)-17-[(2S)-2-hydroxy-6-methylhept-5-en-2-yl]-4,4,8,10,14-pentamethyl-1,2,5,6,7,9,11,12,13,15,16,17-dodecahydrocyclopenta[a]phenanthren-3-one

> <PUBCHEM_IUPAC_SYSTEMATIC_NAME>
(5R,8R,9R,10R,13R,14R,17S)-4,4,8,10,14-pentamethyl-17-[(2S)-6-methyl-2-oxidanyl-hept-5-en-2-yl]-1,2,5,6,7,9,11,12,13,15,16,17-dodecahydrocyclopenta[a]phenanthren-3-one

> <PUBCHEM_IUPAC_TRADITIONAL_NAME>
(5R,8R,9R,10R,13R,14R,17S)-17-[(1S)-1-hydroxy-1,5-dimethyl-hex-4-enyl]-4,4,8,10,14-pentamethyl-1,2,5,6,7,9,11,12,13,15,16,17-dodecahydrocyclopenta[a]phenanthren-3-one

> <PUBCHEM_IUPAC_INCHI>
InChI=1S/C30H50O2/c1-20(2)10-9-16-30(8,32)22-13-18-28(6)21(22)11-12-24-27(5)17-15-25(31)26(3,4)23(27)14-19-29(24,28)7/h10,21-24,32H,9,11-19H2,1-8H3/t21-,22+,23+,24-,27+,28-,29-,30+/m1/s1

> <PUBCHEM_IUPAC_INCHIKEY>
NJICGAVMYWKCMW-GWJXCKMPSA-N

> <PUBCHEM_XLOGP3_AA>
8.2

> <PUBCHEM_EXACT_MASS>
442.381081

> <PUBCHEM_MOLECULAR_FORMULA>
C30H50O2

> <PUBCHEM_MOLECULAR_WEIGHT>
442.7168

> <PUBCHEM_OPENEYE_CAN_SMILES>
CC(=CCCC(C)(C1CCC2(C1CCC3C2(CCC4C3(CCC(=O)C4(C)C)C)C)C)O)C

> <PUBCHEM_OPENEYE_ISO_SMILES>
CC(=CCC[C@@](C)([C@H]1CC[C@@]2([C@@H]1CC[C@H]3[C@]2(CC[C@@H]4[C@@]3(CCC(=O)C4(C)C)C)C)C)O)C

> <PUBCHEM_CACTVS_TPSA>
37.3

> <PUBCHEM_MONOISOTOPIC_WEIGHT>
442.381081

> <PUBCHEM_TOTAL_CHARGE>
0

> <PUBCHEM_HEAVY_ATOM_COUNT>
32

> <PUBCHEM_ATOM_DEF_STEREO_COUNT>
8

> <PUBCHEM_ATOM_UDEF_STEREO_COUNT>
0

> <PUBCHEM_BOND_DEF_STEREO_COUNT>
0

> <PUBCHEM_BOND_UDEF_STEREO_COUNT>
0

> <PUBCHEM_ISOTOPIC_ATOM_COUNT>
0

> <PUBCHEM_COMPONENT_COUNT>
1

> <PUBCHEM_CACTVS_TAUTO_COUNT>
2

> <PUBCHEM_COORDINATE_TYPE>
1
5
255

> <PUBCHEM_BONDANNOTATIONS>
20  1  5
10  38  6
3  16  5
4  19  6
5  33  6
6  34  5
7  21  5
8  35  6

$$$$

