235071
  -OEChem-07051213043D

 52 55  0     1  0  0  0  0  0999 V2000
    4.9326    1.0881   -0.1233 O   0  0  0  0  0  0  0  0  0  0  0  0
   -0.4568    0.4374   -0.3175 C   0  0  1  0  0  0  0  0  0  0  0  0
    0.3534   -0.7887    0.2176 C   0  0  2  0  0  0  0  0  0  0  0  0
    1.7724   -0.7224   -0.3569 C   0  0  1  0  0  0  0  0  0  0  0  0
   -1.9497    0.4179    0.1821 C   0  0  2  0  0  0  0  0  0  0  0  0
    2.5172    0.5656    0.0457 C   0  0  2  0  0  0  0  0  0  0  0  0
   -2.5701   -0.9480   -0.2558 C   0  0  1  0  0  0  0  0  0  0  0  0
    0.2855    1.7779   -0.0706 C   0  0  0  0  0  0  0  0  0  0  0  0
    1.7525    1.7606   -0.5386 C   0  0  0  0  0  0  0  0  0  0  0  0
   -0.3362   -2.1129   -0.1402 C   0  0  0  0  0  0  0  0  0  0  0  0
    2.7658   -1.8300   -0.0161 C   0  0  0  0  0  0  0  0  0  0  0  0
    3.8795    0.2840   -0.6183 C   0  0  2  0  0  0  0  0  0  0  0  0
   -1.7972   -2.1479    0.3028 C   0  0  0  0  0  0  0  0  0  0  0  0
   -2.7708    1.5485   -0.5006 C   0  0  0  0  0  0  0  0  0  0  0  0
    4.1392   -1.2055   -0.3221 C   0  0  0  0  0  0  0  0  0  0  0  0
   -4.0693   -1.0528    0.0575 C   0  0  0  0  0  0  0  0  0  0  0  0
   -2.0182    0.6229    1.7174 C   0  0  0  0  0  0  0  0  0  0  0  0
    2.6933    0.7611    1.5732 C   0  0  0  0  0  0  0  0  0  0  0  0
   -4.2773    1.4564   -0.2410 C   0  0  0  0  0  0  0  0  0  0  0  0
   -4.8458    0.0876   -0.5952 C   0  0  0  0  0  0  0  0  0  0  0  0
   -0.4965    0.3270   -1.4131 H   0  0  0  0  0  0  0  0  0  0  0  0
    0.4140   -0.7419    1.3097 H   0  0  0  0  0  0  0  0  0  0  0  0
    1.6697   -0.7357   -1.4552 H   0  0  0  0  0  0  0  0  0  0  0  0
   -2.4851   -1.0086   -1.3524 H   0  0  0  0  0  0  0  0  0  0  0  0
    0.2535    2.0430    0.9905 H   0  0  0  0  0  0  0  0  0  0  0  0
   -0.2221    2.5883   -0.6055 H   0  0  0  0  0  0  0  0  0  0  0  0
    1.7672    1.7160   -1.6354 H   0  0  0  0  0  0  0  0  0  0  0  0
    2.2380    2.7041   -0.2622 H   0  0  0  0  0  0  0  0  0  0  0  0
    0.1941   -2.9517    0.3258 H   0  0  0  0  0  0  0  0  0  0  0  0
   -0.2880   -2.2743   -1.2249 H   0  0  0  0  0  0  0  0  0  0  0  0
    2.5966   -2.7315   -0.6138 H   0  0  0  0  0  0  0  0  0  0  0  0
    2.7028   -2.1153    1.0399 H   0  0  0  0  0  0  0  0  0  0  0  0
    3.8250    0.4296   -1.7047 H   0  0  0  0  0  0  0  0  0  0  0  0
   -2.2494   -3.0809   -0.0553 H   0  0  0  0  0  0  0  0  0  0  0  0
   -1.8571   -2.1756    1.3967 H   0  0  0  0  0  0  0  0  0  0  0  0
   -2.6039    1.5154   -1.5855 H   0  0  0  0  0  0  0  0  0  0  0  0
   -2.4272    2.5332   -0.1630 H   0  0  0  0  0  0  0  0  0  0  0  0
    4.8268   -1.3460    0.5195 H   0  0  0  0  0  0  0  0  0  0  0  0
    4.6002   -1.6863   -1.1923 H   0  0  0  0  0  0  0  0  0  0  0  0
   -4.2446   -1.0562    1.1390 H   0  0  0  0  0  0  0  0  0  0  0  0
   -4.4611   -2.0054   -0.3199 H   0  0  0  0  0  0  0  0  0  0  0  0
   -1.6750    1.6238    1.9994 H   0  0  0  0  0  0  0  0  0  0  0  0
   -3.0356    0.5264    2.1062 H   0  0  0  0  0  0  0  0  0  0  0  0
   -1.4072   -0.0968    2.2675 H   0  0  0  0  0  0  0  0  0  0  0  0
    3.2199    1.6994    1.7832 H   0  0  0  0  0  0  0  0  0  0  0  0
    1.7404    0.8072    2.1068 H   0  0  0  0  0  0  0  0  0  0  0  0
    3.2758   -0.0433    2.0332 H   0  0  0  0  0  0  0  0  0  0  0  0
   -4.7923    2.2254   -0.8289 H   0  0  0  0  0  0  0  0  0  0  0  0
   -4.4912    1.6813    0.8101 H   0  0  0  0  0  0  0  0  0  0  0  0
   -5.8988    0.0359   -0.2958 H   0  0  0  0  0  0  0  0  0  0  0  0
   -4.8218   -0.0391   -1.6849 H   0  0  0  0  0  0  0  0  0  0  0  0
    4.6951    2.0157   -0.2923 H   0  0  0  0  0  0  0  0  0  0  0  0
  1 12  1  0  0  0  0
  1 52  1  0  0  0  0
  2  3  1  0  0  0  0
  2  5  1  0  0  0  0
  2  8  1  0  0  0  0
  2 21  1  0  0  0  0
  3  4  1  0  0  0  0
  3 10  1  0  0  0  0
  3 22  1  0  0  0  0
  4  6  1  0  0  0  0
  4 11  1  0  0  0  0
  4 23  1  0  0  0  0
  5  7  1  0  0  0  0
  5 14  1  0  0  0  0
  5 17  1  0  0  0  0
  6  9  1  0  0  0  0
  6 12  1  0  0  0  0
  6 18  1  0  0  0  0
  7 13  1  0  0  0  0
  7 16  1  0  0  0  0
  7 24  1  0  0  0  0
  8  9  1  0  0  0  0
  8 25  1  0  0  0  0
  8 26  1  0  0  0  0
  9 27  1  0  0  0  0
  9 28  1  0  0  0  0
 10 13  1  0  0  0  0
 10 29  1  0  0  0  0
 10 30  1  0  0  0  0
 11 15  1  0  0  0  0
 11 31  1  0  0  0  0
 11 32  1  0  0  0  0
 12 15  1  0  0  0  0
 12 33  1  0  0  0  0
 13 34  1  0  0  0  0
 13 35  1  0  0  0  0
 14 19  1  0  0  0  0
 14 36  1  0  0  0  0
 14 37  1  0  0  0  0
 15 38  1  0  0  0  0
 15 39  1  0  0  0  0
 16 20  1  0  0  0  0
 16 40  1  0  0  0  0
 16 41  1  0  0  0  0
 17 42  1  0  0  0  0
 17 43  1  0  0  0  0
 17 44  1  0  0  0  0
 18 45  1  0  0  0  0
 18 46  1  0  0  0  0
 18 47  1  0  0  0  0
 19 20  1  0  0  0  0
 19 48  1  0  0  0  0
 19 49  1  0  0  0  0
 20 50  1  0  0  0  0
 20 51  1  0  0  0  0
M  END
> <PUBCHEM_COMPOUND_CID>
235071

> <PUBCHEM_CONFORMER_RMSD>
0.6

> <PUBCHEM_CONFORMER_DIVERSEORDER>
1

> <PUBCHEM_MMFF94_PARTIAL_CHARGES>
3
1 -0.68
12 0.28
52 0.4

> <PUBCHEM_EFFECTIVE_ROTOR_COUNT>
2.2

> <PUBCHEM_PHARMACOPHORE_FEATURES>
6
1 1 acceptor
1 1 donor
5 4 6 11 12 15 rings
6 2 3 4 6 8 9 rings
6 2 3 5 7 10 13 rings
6 5 7 14 16 19 20 rings

> <PUBCHEM_HEAVY_ATOM_COUNT>
20

> <PUBCHEM_ATOM_DEF_STEREO_COUNT>
7

> <PUBCHEM_ATOM_UDEF_STEREO_COUNT>
0

> <PUBCHEM_BOND_DEF_STEREO_COUNT>
0

> <PUBCHEM_BOND_UDEF_STEREO_COUNT>
0

> <PUBCHEM_ISOTOPIC_ATOM_COUNT>
0

> <PUBCHEM_COMPONENT_COUNT>
1

> <PUBCHEM_CACTVS_TAUTO_COUNT>
1

> <PUBCHEM_CONFORMER_ID>
0003963F00000001

> <PUBCHEM_MMFF94_ENERGY>
68.3915

> <PUBCHEM_FEATURE_SELFOVERLAP>
30.537

> <PUBCHEM_SHAPE_FINGERPRINT>
10062212 137 18261399966136850375
10366900 7 17458343026774881112
10411042 1 16610544035419821171
10498660 4 18413107285812150668
10608611 8 18409732820175512264
10616163 171 18338795594074172703
10646746 165 18411984693151237325
10863032 1 18334859436972515995
10967382 1 18339642346923713942
11132069 177 18411704278809844104
11315181 36 17895188901207161728
11471102 20 18410856572915062286
11578080 2 16880486865430608195
12011746 2 18408601474492666902
12236239 1 17894910754751055525
12403259 226 18409736136323099745
12403259 415 18335425664366156185
12403814 3 17489593359060140621
12500047 106 18409452466179822244
12592029 89 18272934964130301267
13140716 1 18267301121867238979
13224815 77 18259982673593301970
13533116 47 17894911875289380263
13571099 22 18408321111743725964
14178342 30 18122644768292142090
14790565 3 18122054570976946049
15099037 51 18413671322655769159
15196674 1 18411418427272157855
15309172 13 18339913900462556979
15375358 24 18410856547050351822
15536298 74 18334859428398412126
15848702 151 17605549057837379038
1601671 61 18342739619871829076
16752209 62 18338524032150869911
16945 1 18266744567141116135
17349148 13 18187649111059085207
17492 89 18410293579823142231
18186145 218 18261108603923611737
19591789 44 18268431415520538775
19862831 5 18334577962154015399
200 152 17894352176900092943
20510252 161 18334574659361289705
20645477 70 18335701697592851310
21029758 11 18334296461434160569
21267235 1 18411128156208005014
221490 88 18269548351930575571
2334 1 18410009935697230895
23402539 116 18260836998533964223
23402655 69 18334013908188199431
23493267 7 17846773022620508643
23557571 272 17896315818467865943
23558518 356 17699565836201589792
23559900 14 18334859420320154416
2748010 2 18409724075590585663
296302 2 17704070689822273509
3004659 81 18272087249471653902
3286 77 17604155921086591554
335352 9 18267866262158938423
34934 24 18413111641351892414
350125 39 18411130308635245841
3545911 37 18409165493608068958
4028521 119 18409731772414436735
4214541 1 18411418431815038509
474 4 16629108859451803748
495365 180 17531262642403424242
5104073 3 18411418431572342179
633830 44 17561080323737814255
69090 78 18408044009202160151
7364860 26 18192148205398118088
74978 22 18340764853779888972
9709674 26 18339077090705015823
9981440 41 17406551407902039616

> <PUBCHEM_SHAPE_MULTIPOLES>
405.72
8.79
2.15
0.99
0.2
0.47
0.41
-0.86
-1.16
0.09
-0.1
-0.02
-0.22
0.23

> <PUBCHEM_SHAPE_SELFOVERLAP>
858.325

> <PUBCHEM_SHAPE_VOLUME>
225.2

> <PUBCHEM_COORDINATE_TYPE>
2
5
10

$$$$

