442837
  -OEChem-07051212593D

 81 84  0     1  0  0  0  0  0999 V2000
   -1.6506   -1.4836   -1.0218 O   0  0  0  0  0  0  0  0  0  0  0  0
   -4.1773    3.5814    0.6758 O   0  0  0  0  0  0  0  0  0  0  0  0
   -0.3738    0.9040   -1.6020 O   0  0  0  0  0  0  0  0  0  0  0  0
    2.3682    0.9316   -1.9958 O   0  0  0  0  0  0  0  0  0  0  0  0
   -4.4814   -0.9717    1.3746 C   0  0  1  0  0  0  0  0  0  0  0  0
   -3.4991   -0.6098    0.2208 C   0  0  2  0  0  0  0  0  0  0  0  0
   -2.0974   -1.2869    0.3347 C   0  0  1  0  0  0  0  0  0  0  0  0
   -3.4292    0.9088   -0.0476 C   0  0  0  0  0  0  0  0  0  0  0  0
   -5.8636   -0.3260    1.0792 C   0  0  0  0  0  0  0  0  0  0  0  0
   -4.8172    1.5087   -0.3144 C   0  0  1  0  0  0  0  0  0  0  0  0
   -4.6665   -2.5177    1.4474 C   0  0  0  0  0  0  0  0  0  0  0  0
   -5.7928    1.1785    0.8193 C   0  0  0  0  0  0  0  0  0  0  0  0
   -2.1736   -2.6759    1.0032 C   0  0  0  0  0  0  0  0  0  0  0  0
   -3.5354   -3.3279    0.8067 C   0  0  0  0  0  0  0  0  0  0  0  0
   -3.9980   -0.4673    2.7545 C   0  0  0  0  0  0  0  0  0  0  0  0
   -4.7209    3.0198   -0.5192 C   0  0  0  0  0  0  0  0  0  0  0  0
   -1.0140   -0.4413    1.0171 C   0  0  0  0  0  0  0  0  0  0  0  0
   -3.7834    3.3456   -1.6805 C   0  0  0  0  0  0  0  0  0  0  0  0
   -6.1068    3.6190   -0.7524 C   0  0  0  0  0  0  0  0  0  0  0  0
   -0.3036   -1.4526   -1.2180 C   0  0  0  0  0  0  0  0  0  0  0  0
    0.3435   -0.2520   -1.5103 C   0  0  0  0  0  0  0  0  0  0  0  0
    0.4298   -2.6354   -1.1247 C   0  0  0  0  0  0  0  0  0  0  0  0
    1.8103   -2.6176   -1.3237 C   0  0  0  0  0  0  0  0  0  0  0  0
    1.7239   -0.2342   -1.7094 C   0  0  0  0  0  0  0  0  0  0  0  0
    2.4573   -1.4171   -1.6160 C   0  0  0  0  0  0  0  0  0  0  0  0
    2.5943   -3.8824   -1.2241 C   0  0  0  0  0  0  0  0  0  0  0  0
    3.0967   -4.1568    0.1697 C   0  0  0  0  0  0  0  0  0  0  0  0
    3.3528    1.3534   -1.1191 C   0  0  0  0  0  0  0  0  0  0  0  0
    4.3906   -4.2314    0.5016 C   0  0  0  0  0  0  0  0  0  0  0  0
    4.5709    1.8217   -1.6116 C   0  0  0  0  0  0  0  0  0  0  0  0
    3.1271    1.3097    0.2568 C   0  0  0  0  0  0  0  0  0  0  0  0
    5.5633    2.2463   -0.7283 C   0  0  0  0  0  0  0  0  0  0  0  0
    4.1195    1.7344    1.1401 C   0  0  0  0  0  0  0  0  0  0  0  0
    5.3376    2.2028    0.6476 C   0  0  0  0  0  0  0  0  0  0  0  0
    6.3983    2.6565    1.5925 C   0  0  0  0  0  0  0  0  0  0  0  0
    7.3305    1.5485    2.0094 C   0  0  0  0  0  0  0  0  0  0  0  0
    7.4701    1.1167    3.2679 C   0  0  0  0  0  0  0  0  0  0  0  0
   -3.9564   -1.0243   -0.6939 H   0  0  0  0  0  0  0  0  0  0  0  0
   -2.7972    1.0565   -0.9265 H   0  0  0  0  0  0  0  0  0  0  0  0
   -2.9498    1.4210    0.7926 H   0  0  0  0  0  0  0  0  0  0  0  0
   -6.5576   -0.5180    1.9074 H   0  0  0  0  0  0  0  0  0  0  0  0
   -6.3065   -0.8017    0.1933 H   0  0  0  0  0  0  0  0  0  0  0  0
   -5.2092    1.0521   -1.2349 H   0  0  0  0  0  0  0  0  0  0  0  0
   -4.7764   -2.8298    2.4944 H   0  0  0  0  0  0  0  0  0  0  0  0
   -5.6010   -2.8227    0.9590 H   0  0  0  0  0  0  0  0  0  0  0  0
   -5.5184    1.6981    1.7442 H   0  0  0  0  0  0  0  0  0  0  0  0
   -6.8087    1.5010    0.5666 H   0  0  0  0  0  0  0  0  0  0  0  0
   -1.9924   -2.5915    2.0814 H   0  0  0  0  0  0  0  0  0  0  0  0
   -1.4153   -3.3662    0.6341 H   0  0  0  0  0  0  0  0  0  0  0  0
   -3.7309   -3.4475   -0.2664 H   0  0  0  0  0  0  0  0  0  0  0  0
   -3.5315   -4.3381    1.2328 H   0  0  0  0  0  0  0  0  0  0  0  0
   -3.7326    0.5934    2.7438 H   0  0  0  0  0  0  0  0  0  0  0  0
   -4.7834   -0.5947    3.5094 H   0  0  0  0  0  0  0  0  0  0  0  0
   -3.1296   -1.0201    3.1197 H   0  0  0  0  0  0  0  0  0  0  0  0
   -0.0472   -0.9446    1.1323 H   0  0  0  0  0  0  0  0  0  0  0  0
   -1.3200   -0.2439    2.0517 H   0  0  0  0  0  0  0  0  0  0  0  0
   -0.8634    0.5542    0.6015 H   0  0  0  0  0  0  0  0  0  0  0  0
   -3.8191    4.4175   -1.9105 H   0  0  0  0  0  0  0  0  0  0  0  0
   -2.7346    3.1451   -1.4383 H   0  0  0  0  0  0  0  0  0  0  0  0
   -4.0559    2.8011   -2.5904 H   0  0  0  0  0  0  0  0  0  0  0  0
   -6.7181    3.6224    0.1560 H   0  0  0  0  0  0  0  0  0  0  0  0
   -6.6459    3.1020   -1.5528 H   0  0  0  0  0  0  0  0  0  0  0  0
   -6.0219    4.6750   -1.0373 H   0  0  0  0  0  0  0  0  0  0  0  0
   -4.1136    4.5438    0.5512 H   0  0  0  0  0  0  0  0  0  0  0  0
   -0.0690   -3.5815   -0.9387 H   0  0  0  0  0  0  0  0  0  0  0  0
    3.5324   -1.4092   -1.7799 H   0  0  0  0  0  0  0  0  0  0  0  0
    0.2398    1.6316   -1.8039 H   0  0  0  0  0  0  0  0  0  0  0  0
    1.9746   -4.7309   -1.5422 H   0  0  0  0  0  0  0  0  0  0  0  0
    3.4273   -3.8556   -1.9391 H   0  0  0  0  0  0  0  0  0  0  0  0
    2.3524   -4.3182    0.9459 H   0  0  0  0  0  0  0  0  0  0  0  0
    5.1736   -4.0853   -0.2341 H   0  0  0  0  0  0  0  0  0  0  0  0
    4.6842   -4.4399    1.5245 H   0  0  0  0  0  0  0  0  0  0  0  0
    4.7521    1.8568   -2.6823 H   0  0  0  0  0  0  0  0  0  0  0  0
    2.1816    0.9659    0.6671 H   0  0  0  0  0  0  0  0  0  0  0  0
    6.5085    2.6074   -1.1252 H   0  0  0  0  0  0  0  0  0  0  0  0
    3.9303    1.6976    2.2097 H   0  0  0  0  0  0  0  0  0  0  0  0
    5.9329    3.1238    2.4705 H   0  0  0  0  0  0  0  0  0  0  0  0
    6.9935    3.4535    1.1283 H   0  0  0  0  0  0  0  0  0  0  0  0
    7.9359    1.0866    1.2331 H   0  0  0  0  0  0  0  0  0  0  0  0
    8.1663    0.3185    3.5009 H   0  0  0  0  0  0  0  0  0  0  0  0
    6.8966    1.5467    4.0814 H   0  0  0  0  0  0  0  0  0  0  0  0
  1  7  1  0  0  0  0
  1 20  1  0  0  0  0
  2 16  1  0  0  0  0
  2 64  1  0  0  0  0
  3 21  1  0  0  0  0
  3 67  1  0  0  0  0
  4 24  1  0  0  0  0
  4 28  1  0  0  0  0
  5  6  1  0  0  0  0
  5  9  1  0  0  0  0
  5 11  1  0  0  0  0
  5 15  1  0  0  0  0
  6  7  1  0  0  0  0
  6  8  1  0  0  0  0
  6 38  1  0  0  0  0
  7 13  1  0  0  0  0
  7 17  1  0  0  0  0
  8 10  1  0  0  0  0
  8 39  1  0  0  0  0
  8 40  1  0  0  0  0
  9 12  1  0  0  0  0
  9 41  1  0  0  0  0
  9 42  1  0  0  0  0
 10 12  1  0  0  0  0
 10 16  1  0  0  0  0
 10 43  1  0  0  0  0
 11 14  1  0  0  0  0
 11 44  1  0  0  0  0
 11 45  1  0  0  0  0
 12 46  1  0  0  0  0
 12 47  1  0  0  0  0
 13 14  1  0  0  0  0
 13 48  1  0  0  0  0
 13 49  1  0  0  0  0
 14 50  1  0  0  0  0
 14 51  1  0  0  0  0
 15 52  1  0  0  0  0
 15 53  1  0  0  0  0
 15 54  1  0  0  0  0
 16 18  1  0  0  0  0
 16 19  1  0  0  0  0
 17 55  1  0  0  0  0
 17 56  1  0  0  0  0
 17 57  1  0  0  0  0
 18 58  1  0  0  0  0
 18 59  1  0  0  0  0
 18 60  1  0  0  0  0
 19 61  1  0  0  0  0
 19 62  1  0  0  0  0
 19 63  1  0  0  0  0
 20 21  1  0  0  0  0
 20 22  2  0  0  0  0
 21 24  2  0  0  0  0
 22 23  1  0  0  0  0
 22 65  1  0  0  0  0
 23 25  2  0  0  0  0
 23 26  1  0  0  0  0
 24 25  1  0  0  0  0
 25 66  1  0  0  0  0
 26 27  1  0  0  0  0
 26 68  1  0  0  0  0
 26 69  1  0  0  0  0
 27 29  2  0  0  0  0
 27 70  1  0  0  0  0
 28 30  2  0  0  0  0
 28 31  1  0  0  0  0
 29 71  1  0  0  0  0
 29 72  1  0  0  0  0
 30 32  1  0  0  0  0
 30 73  1  0  0  0  0
 31 33  2  0  0  0  0
 31 74  1  0  0  0  0
 32 34  2  0  0  0  0
 32 75  1  0  0  0  0
 33 34  1  0  0  0  0
 33 76  1  0  0  0  0
 34 35  1  0  0  0  0
 35 36  1  0  0  0  0
 35 77  1  0  0  0  0
 35 78  1  0  0  0  0
 36 37  2  0  0  0  0
 36 79  1  0  0  0  0
 37 80  1  0  0  0  0
 37 81  1  0  0  0  0
M  END
> <PUBCHEM_COMPOUND_CID>
442837

> <PUBCHEM_CONFORMER_RMSD>
1.2

> <PUBCHEM_CONFORMER_DIVERSEORDER>
1
13
11
5
7
10
8
4
14
12
6
3
15
9
2

> <PUBCHEM_MMFF94_PARTIAL_CHARGES>
38
1 -0.36
16 0.28
2 -0.68
20 0.08
21 0.08
22 -0.15
23 -0.14
24 0.08
25 -0.15
26 0.28
27 -0.29
28 0.08
29 -0.3
3 -0.53
30 -0.15
31 -0.15
32 -0.15
33 -0.15
34 -0.14
35 0.28
36 -0.29
37 -0.3
4 -0.17
64 0.4
65 0.15
66 0.15
67 0.45
7 0.28
70 0.15
71 0.15
72 0.15
73 0.15
74 0.15
75 0.15
76 0.15
79 0.15
80 0.15
81 0.15

> <PUBCHEM_EFFECTIVE_ROTOR_COUNT>
10.6

> <PUBCHEM_PHARMACOPHORE_FEATURES>
12
1 1 acceptor
1 2 acceptor
1 2 donor
1 29 hydrophobe
1 3 donor
1 37 hydrophobe
1 4 acceptor
3 16 18 19 hydrophobe
6 20 21 22 23 24 25 rings
6 28 30 31 32 33 34 rings
6 5 6 7 11 13 14 rings
6 5 6 8 9 10 12 rings

> <PUBCHEM_HEAVY_ATOM_COUNT>
37

> <PUBCHEM_ATOM_DEF_STEREO_COUNT>
4

> <PUBCHEM_ATOM_UDEF_STEREO_COUNT>
0

> <PUBCHEM_BOND_DEF_STEREO_COUNT>
0

> <PUBCHEM_BOND_UDEF_STEREO_COUNT>
0

> <PUBCHEM_ISOTOPIC_ATOM_COUNT>
0

> <PUBCHEM_COMPONENT_COUNT>
1

> <PUBCHEM_CACTVS_TAUTO_COUNT>
3

> <PUBCHEM_CONFORMER_ID>
0006C1D500000001

> <PUBCHEM_MMFF94_ENERGY>
149.4755

> <PUBCHEM_FEATURE_SELFOVERLAP>
60.909

> <PUBCHEM_SHAPE_FINGERPRINT>
10305334 12 17703241658102462539
10319926 262 18343299258663583644
11170278 141 17345485945560775700
11578080 2 18337381729911305141
12128747 34 18198897187872885686
12422481 6 18273218599517499630
12925494 130 18339641238816811972
14739800 52 18040425595000804690
16067689 68 17916328116253346144
17913733 40 18260545623894870124
19053607 189 18341886424497867901
19246450 95 18336847320564484824
21033648 144 18262221271411177919
21033648 29 18187355481251359844
22889206 1 18340214106515222426
23522609 53 17131535177621016084
23559900 14 18198608003335180167
2838139 119 15719938169348081288
3117164 225 18199748209709545862
3459 39 17968384438134728960
397638 26 18333734598587390048
4112364 45 18187080680569684594
469060 322 17979890758753396275
508180 173 17767943686844321570
5104073 3 18197475489853726963
5265222 85 18123737674513704060
552612 73 18271796969532042150
563151 74 18334867133891384468
6086070 43 18118953922105097422
6371380 46 17769653427878525231
6695519 79 17969477369520082763
6697151 62 17831864916543808743
9961470 85 18195807590459414701

> <PUBCHEM_SHAPE_MULTIPOLES>
737.97
17.48
5.53
2.37
11.3
2.71
-0.94
-15.4
-11.4
0.57
0.65
2.57
-0.41
4.29

> <PUBCHEM_SHAPE_SELFOVERLAP>
1566.852

> <PUBCHEM_SHAPE_VOLUME>
409.4

> <PUBCHEM_COORDINATE_TYPE>
2
5
10

$$$$

