5282339
  -OEChem-07051213043D

 29 31  0     0  0  0  0  0  0999 V2000
   -3.8096   -0.1692    2.2475 Cl  0  0  0  0  0  0  0  0  0  0  0  0
   -5.0533   -0.7053   -0.6899 Cl  0  0  0  0  0  0  0  0  0  0  0  0
    3.0365    1.4321    0.1669 S   0  0  0  0  0  0  0  0  0  0  0  0
    0.7758    2.6680   -0.0435 N   0  0  0  0  0  0  0  0  0  0  0  0
    2.6721    4.0667    0.1496 N   0  0  0  0  0  0  0  0  0  0  0  0
    1.9397   -3.7404    0.0278 N   0  0  0  0  0  0  0  0  0  0  0  0
    0.5147    1.3118   -0.0770 C   0  0  0  0  0  0  0  0  0  0  0  0
    1.6140    0.4847    0.0250 C   0  0  0  0  0  0  0  0  0  0  0  0
   -0.8301    0.8255   -0.2089 C   0  0  0  0  0  0  0  0  0  0  0  0
    1.7259   -0.9548    0.0265 C   0  0  0  0  0  0  0  0  0  0  0  0
   -1.5991    0.5827    0.9292 C   0  0  0  0  0  0  0  0  0  0  0  0
   -1.3671    0.5952   -1.4756 C   0  0  0  0  0  0  0  0  0  0  0  0
    2.0717    2.8488    0.0828 C   0  0  0  0  0  0  0  0  0  0  0  0
    1.8966   -1.6407   -1.1700 C   0  0  0  0  0  0  0  0  0  0  0  0
    1.6618   -1.6576    1.2237 C   0  0  0  0  0  0  0  0  0  0  0  0
   -2.9050    0.1098    0.8008 C   0  0  0  0  0  0  0  0  0  0  0  0
   -2.6730    0.1223   -1.6041 C   0  0  0  0  0  0  0  0  0  0  0  0
   -3.4420   -0.1203   -0.4658 C   0  0  0  0  0  0  0  0  0  0  0  0
    1.9974   -3.0216   -1.1158 C   0  0  0  0  0  0  0  0  0  0  0  0
    1.7730   -3.0377    1.1707 C   0  0  0  0  0  0  0  0  0  0  0  0
   -1.1789    0.7633    1.9171 H   0  0  0  0  0  0  0  0  0  0  0  0
   -0.7806    0.7794   -2.3726 H   0  0  0  0  0  0  0  0  0  0  0  0
    1.9496   -1.1267   -2.1244 H   0  0  0  0  0  0  0  0  0  0  0  0
    1.5274   -1.1571    2.1772 H   0  0  0  0  0  0  0  0  0  0  0  0
   -3.0755   -0.0518   -2.5988 H   0  0  0  0  0  0  0  0  0  0  0  0
    2.1307   -3.6046   -2.0211 H   0  0  0  0  0  0  0  0  0  0  0  0
    1.7286   -3.6336    2.0764 H   0  0  0  0  0  0  0  0  0  0  0  0
    3.6774    4.1623    0.2478 H   0  0  0  0  0  0  0  0  0  0  0  0
    2.1387    4.9286    0.1042 H   0  0  0  0  0  0  0  0  0  0  0  0
  1 16  1  0  0  0  0
  2 18  1  0  0  0  0
  3  8  1  0  0  0  0
  3 13  1  0  0  0  0
  4  7  1  0  0  0  0
  4 13  2  0  0  0  0
  5 13  1  0  0  0  0
  5 28  1  0  0  0  0
  5 29  1  0  0  0  0
  6 19  2  0  0  0  0
  6 20  1  0  0  0  0
  7  8  2  0  0  0  0
  7  9  1  0  0  0  0
  8 10  1  0  0  0  0
  9 11  2  0  0  0  0
  9 12  1  0  0  0  0
 10 14  2  0  0  0  0
 10 15  1  0  0  0  0
 11 16  1  0  0  0  0
 11 21  1  0  0  0  0
 12 17  2  0  0  0  0
 12 22  1  0  0  0  0
 14 19  1  0  0  0  0
 14 23  1  0  0  0  0
 15 20  2  0  0  0  0
 15 24  1  0  0  0  0
 16 18  2  0  0  0  0
 17 18  1  0  0  0  0
 17 25  1  0  0  0  0
 19 26  1  0  0  0  0
 20 27  1  0  0  0  0
M  END
> <PUBCHEM_COMPOUND_CID>
5282339

> <PUBCHEM_CONFORMER_RMSD>
0.6

> <PUBCHEM_CONFORMER_DIVERSEORDER>
2
4
7
3
8
5
6
1

> <PUBCHEM_MMFF94_PARTIAL_CHARGES>
29
1 -0.18
10 0.05
11 -0.15
12 -0.15
13 0.46
14 -0.15
15 -0.15
16 0.18
17 -0.15
18 0.18
19 0.16
2 -0.18
20 0.16
21 0.15
22 0.15
23 0.15
24 0.15
25 0.15
26 0.15
27 0.15
28 0.4
29 0.4
3 -0.08
4 -0.57
5 -0.88
6 -0.62
7 0.17
8 -0.01
9 0.05

> <PUBCHEM_EFFECTIVE_ROTOR_COUNT>
2

> <PUBCHEM_PHARMACOPHORE_FEATURES>
6
1 5 donor
1 6 acceptor
3 4 5 13 cation
5 3 4 7 8 13 rings
6 6 10 14 15 19 20 rings
6 9 11 12 16 17 18 rings

> <PUBCHEM_HEAVY_ATOM_COUNT>
20

> <PUBCHEM_ATOM_DEF_STEREO_COUNT>
0

> <PUBCHEM_ATOM_UDEF_STEREO_COUNT>
0

> <PUBCHEM_BOND_DEF_STEREO_COUNT>
0

> <PUBCHEM_BOND_UDEF_STEREO_COUNT>
0

> <PUBCHEM_ISOTOPIC_ATOM_COUNT>
0

> <PUBCHEM_COMPONENT_COUNT>
1

> <PUBCHEM_CACTVS_TAUTO_COUNT>
3

> <PUBCHEM_CONFORMER_ID>
00509A2300000002

> <PUBCHEM_MMFF94_ENERGY>
52.1841

> <PUBCHEM_FEATURE_SELFOVERLAP>
30.446

> <PUBCHEM_SHAPE_FINGERPRINT>
11421498 54 17677316243566808185
11578080 2 17701543037381894212
11582403 64 16045978490677774909
12363563 72 18052267476828969287
12553582 1 18120928675016553911
12592029 89 18268727033876997329
12707595 3 18270396234372963699
12788726 201 17332804353785324714
13083527 12 18197802070381723306
13140716 1 18267027146061578640
13149001 5 17977070524312929564
13533116 47 18268687512510996011
13681431 1 18338523061509217224
13965767 371 17170364524807258641
14787075 74 18200867504763971114
14844126 61 17259354790859644602
15309172 13 18124596388103534536
15635459 17 18272936033350414587
16752209 62 16828972993254008304
16945 1 18410009922886240540
17138139 8 17103150000501328663
17818456 19 17606112034315147209
1813 80 17825372235914654966
18915476 22 18269294420869356573
19049666 15 18059865020857210125
20361792 2 18119817060202287607
20645477 70 18411708673136440119
20832881 197 17912647097193735313
21421861 104 18335979848322669665
21452121 199 18125730229863544698
21524375 3 18122351172854203888
21731516 1 18049438437573559814
22182313 1 17489583434234868339
2255824 54 18335983090753933148
23184049 29 17835809964421783146
23419403 2 16457627896143384468
23526113 38 18058458762480134809
23558518 356 16758895022900389720
23598288 3 17186416479791946870
23598291 2 17968925504865896993
23728640 28 16394659341667045650
238 59 18126034648370772343
3060560 45 18340493244728517252
31174 14 18341321279999858051
33824 294 18340493257528671991
4340502 62 18193838146475104067
458136 41 18196634242561116076
5845 1 17100335615584427584
621550 34 18200604588145456405
633830 44 17970605421047083301
6669772 16 18339358545066200644
7097593 13 18189040049224376169
7364860 26 18409169908971670812
7399639 24 18056216695368817549
81228 2 17329725721560179512
8272917 22 18408885114370498765

> <PUBCHEM_SHAPE_MULTIPOLES>
404.24
6.69
4.06
1.53
8.61
0.17
0.29
0.53
0.29
-6.6
0.17
1.34
0.58
0.13

> <PUBCHEM_SHAPE_SELFOVERLAP>
861.227

> <PUBCHEM_SHAPE_VOLUME>
229.5

> <PUBCHEM_COORDINATE_TYPE>
2
5
10

$$$$

