5459897
  -OEChem-07051212483D

 21 20  0     1  0  0  0  0  0999 V2000
    2.7611   -0.0693   -0.0565 P   0  0  0  0  0  0  0  0  0  0  0  0
    1.2762    0.5241   -0.3225 O   0  0  0  0  0  0  0  0  0  0  0  0
   -3.4702    0.9795    0.2906 O   0  0  0  0  0  0  0  0  0  0  0  0
   -2.8195   -1.5099   -0.9986 O   0  0  0  0  0  0  0  0  0  0  0  0
   -1.1317    1.5637   -0.8318 O   0  0  0  0  0  0  0  0  0  0  0  0
    2.5798   -1.6624   -0.2678 O   0  0  0  0  0  0  0  0  0  0  0  0
    2.9308    0.0765    1.5450 O   0  0  0  0  0  0  0  0  0  0  0  0
    3.8506    0.5660   -0.8699 O   0  0  0  0  0  0  0  0  0  0  0  0
   -2.3752    0.1718    0.6955 C   0  0  2  0  0  0  0  0  0  0  0  0
   -1.1046    0.6676    0.0121 C   0  0  0  0  0  0  0  0  0  0  0  0
    0.1911   -0.0177    0.4020 C   0  0  0  0  0  0  0  0  0  0  0  0
   -2.6884   -1.2899    0.4018 C   0  0  0  0  0  0  0  0  0  0  0  0
   -2.2517    0.3081    1.7757 H   0  0  0  0  0  0  0  0  0  0  0  0
    0.1107   -1.0834    0.1769 H   0  0  0  0  0  0  0  0  0  0  0  0
    0.3485    0.1321    1.4737 H   0  0  0  0  0  0  0  0  0  0  0  0
   -1.9189   -1.9646    0.7882 H   0  0  0  0  0  0  0  0  0  0  0  0
   -3.6445   -1.5673    0.8573 H   0  0  0  0  0  0  0  0  0  0  0  0
   -3.3000    1.8833    0.6070 H   0  0  0  0  0  0  0  0  0  0  0  0
   -1.9476   -1.3672   -1.4039 H   0  0  0  0  0  0  0  0  0  0  0  0
    3.3722   -2.2393   -0.2296 H   0  0  0  0  0  0  0  0  0  0  0  0
    3.7980   -0.1352    1.9515 H   0  0  0  0  0  0  0  0  0  0  0  0
  1  2  1  0  0  0  0
  1  6  1  0  0  0  0
  1  7  1  0  0  0  0
  1  8  2  0  0  0  0
  2 11  1  0  0  0  0
  3  9  1  0  0  0  0
  3 18  1  0  0  0  0
  4 12  1  0  0  0  0
  4 19  1  0  0  0  0
  5 10  2  0  0  0  0
  6 20  1  0  0  0  0
  7 21  1  0  0  0  0
  9 10  1  0  0  0  0
  9 12  1  0  0  0  0
  9 13  1  0  0  0  0
 10 11  1  0  0  0  0
 11 14  1  0  0  0  0
 11 15  1  0  0  0  0
 12 16  1  0  0  0  0
 12 17  1  0  0  0  0
M  END
> <PUBCHEM_COMPOUND_CID>
5459897

> <PUBCHEM_CONFORMER_RMSD>
0.6

> <PUBCHEM_CONFORMER_DIVERSEORDER>
1
64
85
2
83
89
37
84
13
87
19
75
46
77
16
6
81
91
32
29
101
36
95
56
96
33
69
25
80
5
57
28
104
18
50
8
59
65
100
53
44
47
70
26
51
92
58
30
73
74
7
38
86
48
12
103
4
98
94
24
45
9
82
22
102
54
72
90
55
67
78
62
20
10
76
68
63
35
3
99
40
66
27
97
14
41
88
71
39
11
23
61
42
93
43
49
60
79
21
17
31
15
52
34

> <PUBCHEM_MMFF94_PARTIAL_CHARGES>
16
1 1.51
10 0.45
11 0.34
12 0.28
18 0.4
19 0.4
2 -0.55
20 0.5
21 0.5
3 -0.68
4 -0.68
5 -0.57
6 -0.77
7 -0.77
8 -0.7
9 0.34

> <PUBCHEM_EFFECTIVE_ROTOR_COUNT>
5

> <PUBCHEM_PHARMACOPHORE_FEATURES>
9
1 3 acceptor
1 3 donor
1 4 acceptor
1 4 donor
1 5 acceptor
1 6 acceptor
1 7 acceptor
1 8 acceptor
4 1 6 7 8 anion

> <PUBCHEM_HEAVY_ATOM_COUNT>
12

> <PUBCHEM_ATOM_DEF_STEREO_COUNT>
1

> <PUBCHEM_ATOM_UDEF_STEREO_COUNT>
0

> <PUBCHEM_BOND_DEF_STEREO_COUNT>
0

> <PUBCHEM_BOND_UDEF_STEREO_COUNT>
0

> <PUBCHEM_ISOTOPIC_ATOM_COUNT>
0

> <PUBCHEM_COMPONENT_COUNT>
1

> <PUBCHEM_CACTVS_TAUTO_COUNT>
6

> <PUBCHEM_CONFORMER_ID>
00534FB900000001

> <PUBCHEM_MMFF94_ENERGY>
-22.1017

> <PUBCHEM_FEATURE_SELFOVERLAP>
45.719

> <PUBCHEM_SHAPE_FINGERPRINT>
12500047 106 18186519942534411233
12932764 1 17967816054625632786
13296908 3 17313104133483527968
14325111 11 18411976975036919072
14577589 140 18334288773769507999
15775835 57 18335976540844508022
20279233 1 17967822660185139834
20281407 28 18333731307998648371
22169311 21 18186810200545259851
22485316 2 18333448750864252290
23402539 116 17988926665431912572
3248919 1 18273498965844177570
8030462 33 16343416310591933384

> <PUBCHEM_SHAPE_MULTIPOLES>
209.72
6.55
1.41
1
2.29
0.32
-0.15
0.69
0.13
-0.7
0.32
0.3
0.02
-0.24

> <PUBCHEM_SHAPE_SELFOVERLAP>
385.3

> <PUBCHEM_SHAPE_VOLUME>
132.6

> <PUBCHEM_COORDINATE_TYPE>
2
5
10

$$$$

