442168
  -OEChem-07051212573D

 51 54  0     1  0  0  0  0  0999 V2000
    4.4841    1.2522   -1.3897 O   0  0  0  0  0  0  0  0  0  0  0  0
   -4.5663    0.8477    1.5599 O   0  0  0  0  0  0  0  0  0  0  0  0
    4.2707    1.7509    1.3345 O   0  0  0  0  0  0  0  0  0  0  0  0
   -4.3851    1.8452   -1.0254 O   0  0  0  0  0  0  0  0  0  0  0  0
   -0.0365   -2.7454   -0.3135 N   0  0  0  0  0  0  0  0  0  0  0  0
    0.6294   -1.7916   -1.2235 C   0  0  1  0  0  0  0  0  0  0  0  0
   -0.6249   -2.0055    0.8209 C   0  0  1  0  0  0  0  0  0  0  0  0
   -0.4835   -0.9818   -1.9306 C   0  0  0  0  0  0  0  0  0  0  0  0
    0.4530   -1.3011    1.6774 C   0  0  0  0  0  0  0  0  0  0  0  0
    1.6156   -0.8612   -0.5300 C   0  0  0  0  0  0  0  0  0  0  0  0
   -1.6475   -0.9891    0.3209 C   0  0  0  0  0  0  0  0  0  0  0  0
   -1.5496   -0.4727   -0.9860 C   0  0  0  0  0  0  0  0  0  0  0  0
    1.5028   -0.5985    0.8482 C   0  0  0  0  0  0  0  0  0  0  0  0
    0.8247   -3.8533    0.0874 C   0  0  0  0  0  0  0  0  0  0  0  0
    2.6232   -0.2271   -1.2710 C   0  0  0  0  0  0  0  0  0  0  0  0
   -2.6671   -0.5329    1.1682 C   0  0  0  0  0  0  0  0  0  0  0  0
   -2.4807    0.4752   -1.4286 C   0  0  0  0  0  0  0  0  0  0  0  0
    2.4066    0.2767    1.4643 C   0  0  0  0  0  0  0  0  0  0  0  0
    3.5129    0.6483   -0.6492 C   0  0  0  0  0  0  0  0  0  0  0  0
   -3.5839    0.4174    0.7196 C   0  0  0  0  0  0  0  0  0  0  0  0
    3.4050    0.8996    0.7166 C   0  0  0  0  0  0  0  0  0  0  0  0
   -3.4910    0.9203   -0.5765 C   0  0  0  0  0  0  0  0  0  0  0  0
    4.1603    2.5084   -1.9823 C   0  0  0  0  0  0  0  0  0  0  0  0
   -4.2719    1.9808    2.3744 C   0  0  0  0  0  0  0  0  0  0  0  0
    5.4656    1.1848    1.8690 C   0  0  0  0  0  0  0  0  0  0  0  0
   -5.5661    1.3525   -1.6549 C   0  0  0  0  0  0  0  0  0  0  0  0
    1.1718   -2.3517   -1.9974 H   0  0  0  0  0  0  0  0  0  0  0  0
   -1.1725   -2.7186    1.4517 H   0  0  0  0  0  0  0  0  0  0  0  0
   -0.9829   -1.6330   -2.6608 H   0  0  0  0  0  0  0  0  0  0  0  0
   -0.0522   -0.1383   -2.4840 H   0  0  0  0  0  0  0  0  0  0  0  0
    0.9665   -2.0477    2.2968 H   0  0  0  0  0  0  0  0  0  0  0  0
   -0.0112   -0.5796    2.3615 H   0  0  0  0  0  0  0  0  0  0  0  0
    1.7377   -3.5365    0.6014 H   0  0  0  0  0  0  0  0  0  0  0  0
    1.1211   -4.4358   -0.7920 H   0  0  0  0  0  0  0  0  0  0  0  0
    0.2820   -4.5401    0.7461 H   0  0  0  0  0  0  0  0  0  0  0  0
    2.7120   -0.4162   -2.3385 H   0  0  0  0  0  0  0  0  0  0  0  0
   -2.7437   -0.9189    2.1821 H   0  0  0  0  0  0  0  0  0  0  0  0
   -2.4178    0.8656   -2.4417 H   0  0  0  0  0  0  0  0  0  0  0  0
    2.3313    0.4707    2.5318 H   0  0  0  0  0  0  0  0  0  0  0  0
    3.9101    3.2448   -1.2120 H   0  0  0  0  0  0  0  0  0  0  0  0
    3.3261    2.3984   -2.6824 H   0  0  0  0  0  0  0  0  0  0  0  0
    5.0355    2.8629   -2.5336 H   0  0  0  0  0  0  0  0  0  0  0  0
   -4.0452    2.8534    1.7536 H   0  0  0  0  0  0  0  0  0  0  0  0
   -3.4312    1.7655    3.0416 H   0  0  0  0  0  0  0  0  0  0  0  0
   -5.1529    2.2037    2.9825 H   0  0  0  0  0  0  0  0  0  0  0  0
    6.0530    1.9886    2.3212 H   0  0  0  0  0  0  0  0  0  0  0  0
    6.0604    0.7203    1.0761 H   0  0  0  0  0  0  0  0  0  0  0  0
    5.2280    0.4471    2.6420 H   0  0  0  0  0  0  0  0  0  0  0  0
   -6.1419    0.7310   -0.9618 H   0  0  0  0  0  0  0  0  0  0  0  0
   -5.3118    0.7789   -2.5518 H   0  0  0  0  0  0  0  0  0  0  0  0
   -6.1798    2.2082   -1.9493 H   0  0  0  0  0  0  0  0  0  0  0  0
  1 19  1  0  0  0  0
  1 23  1  0  0  0  0
  2 20  1  0  0  0  0
  2 24  1  0  0  0  0
  3 21  1  0  0  0  0
  3 25  1  0  0  0  0
  4 22  1  0  0  0  0
  4 26  1  0  0  0  0
  5  6  1  0  0  0  0
  5  7  1  0  0  0  0
  5 14  1  0  0  0  0
  6  8  1  0  0  0  0
  6 10  1  0  0  0  0
  6 27  1  0  0  0  0
  7  9  1  0  0  0  0
  7 11  1  0  0  0  0
  7 28  1  0  0  0  0
  8 12  1  0  0  0  0
  8 29  1  0  0  0  0
  8 30  1  0  0  0  0
  9 13  1  0  0  0  0
  9 31  1  0  0  0  0
  9 32  1  0  0  0  0
 10 13  1  0  0  0  0
 10 15  2  0  0  0  0
 11 12  1  0  0  0  0
 11 16  2  0  0  0  0
 12 17  2  0  0  0  0
 13 18  2  0  0  0  0
 14 33  1  0  0  0  0
 14 34  1  0  0  0  0
 14 35  1  0  0  0  0
 15 19  1  0  0  0  0
 15 36  1  0  0  0  0
 16 20  1  0  0  0  0
 16 37  1  0  0  0  0
 17 22  1  0  0  0  0
 17 38  1  0  0  0  0
 18 21  1  0  0  0  0
 18 39  1  0  0  0  0
 19 21  2  0  0  0  0
 20 22  2  0  0  0  0
 23 40  1  0  0  0  0
 23 41  1  0  0  0  0
 23 42  1  0  0  0  0
 24 43  1  0  0  0  0
 24 44  1  0  0  0  0
 24 45  1  0  0  0  0
 25 46  1  0  0  0  0
 25 47  1  0  0  0  0
 25 48  1  0  0  0  0
 26 49  1  0  0  0  0
 26 50  1  0  0  0  0
 26 51  1  0  0  0  0
M  END
> <PUBCHEM_COMPOUND_CID>
442168

> <PUBCHEM_CONFORMER_RMSD>
0.8

> <PUBCHEM_CONFORMER_DIVERSEORDER>
1
2

> <PUBCHEM_MMFF94_PARTIAL_CHARGES>
30
1 -0.36
10 -0.14
11 -0.14
12 -0.14
13 -0.14
14 0.27
15 -0.15
16 -0.15
17 -0.15
18 -0.15
19 0.08
2 -0.36
20 0.08
21 0.08
22 0.08
23 0.28
24 0.28
25 0.28
26 0.28
3 -0.36
36 0.15
37 0.15
38 0.15
39 0.15
4 -0.36
5 -0.81
6 0.41
7 0.41
8 0.14
9 0.14

> <PUBCHEM_EFFECTIVE_ROTOR_COUNT>
4.6

> <PUBCHEM_PHARMACOPHORE_FEATURES>
9
1 1 acceptor
1 2 acceptor
1 3 acceptor
1 4 acceptor
1 5 cation
6 10 13 15 18 19 21 rings
6 11 12 16 17 20 22 rings
6 5 6 7 8 11 12 rings
6 5 6 7 9 10 13 rings

> <PUBCHEM_HEAVY_ATOM_COUNT>
26

> <PUBCHEM_ATOM_DEF_STEREO_COUNT>
2

> <PUBCHEM_ATOM_UDEF_STEREO_COUNT>
0

> <PUBCHEM_BOND_DEF_STEREO_COUNT>
0

> <PUBCHEM_BOND_UDEF_STEREO_COUNT>
0

> <PUBCHEM_ISOTOPIC_ATOM_COUNT>
0

> <PUBCHEM_COMPONENT_COUNT>
1

> <PUBCHEM_CACTVS_TAUTO_COUNT>
1

> <PUBCHEM_CONFORMER_ID>
0006BF3800000001

> <PUBCHEM_MMFF94_ENERGY>
120.4347

> <PUBCHEM_FEATURE_SELFOVERLAP>
47.027

> <PUBCHEM_SHAPE_FINGERPRINT>
10042902 136 12679173938407014040
10165383 225 18266435703036691542
10498660 4 18187091645736982189
11578080 2 17905281322079922323
11796584 16 10375591430732104977
12035759 4 15358522185426049703
12363563 72 9151176445586264158
12403259 118 17846226531071708797
12633257 1 16271656662366559116
12788726 201 17767689352093170614
12892183 10 15984818212048224456
13103583 49 14620517869139543505
13134695 92 17761222410987153735
13544653 18 11384113037748593774
14178342 30 15697425746146961137
14341114 328 17988914535917001465
14848178 5 12319161864221698817
14950920 106 15841561751434279512
14955137 171 16916238788062862440
15163728 17 18265309798950711814
15238133 3 18272941496923595356
17980427 23 17203328888830906063
1813 80 17247519596285477758
18222031 100 10879991341806821066
18785283 64 18200304545872488210
193927 3 9799692614315990429
19862831 5 15430028881204405318
20775438 99 6696940048896898269
21033648 29 17845369015682534785
21120745 212 17262980473733880126
21304303 282 17900575335204376238
21756936 100 17488453067403736836
21864079 5 17988641831511500788
22149856 69 17629177568443177985
22182313 1 16951961744486840658
22393880 68 15936407887729978065
23559900 14 17772185568829683759
25 1 18040705987556091958
2637199 183 17240757419569618319
2838139 119 17821726165004309272
3027735 51 7996877235883380461
392239 28 15982832391111995736
4098825 35 14923935743713510105
46194498 28 14779846926816057241
463206 1 7925635453740739381
474 4 18411134757878337013
495365 180 17842846783332275831
633830 44 17895184549925275491
6442390 28 18336253557904213131
7808743 9 18127962023666824428
7970288 3 9511183013851541488

> <PUBCHEM_SHAPE_MULTIPOLES>
506.61
10.32
2.85
2.25
1.4
1.88
0.27
-10.82
1.03
-0.84
-0.22
0.13
-1.04
-0.29

> <PUBCHEM_SHAPE_SELFOVERLAP>
1102.591

> <PUBCHEM_SHAPE_VOLUME>
278.2

> <PUBCHEM_COORDINATE_TYPE>
2
5
10

$$$$

