10290858
  -OEChem-07051213073D

 16 15  0     0  0  0  0  0  0999 V2000
    0.0085    1.3474    0.3808 O   0  0  0  0  0  0  0  0  0  0  0  0
    3.5509   -0.9324    0.0179 O   0  0  0  0  0  0  0  0  0  0  0  0
    2.5853    1.0383   -0.5628 O   0  0  0  0  0  0  0  0  0  0  0  0
   -2.7668    1.0855   -0.0023 O   0  0  0  0  0  0  0  0  0  0  0  0
   -1.1785   -0.6273    0.0318 N   0  0  0  0  0  0  0  0  0  0  0  0
   -3.4073   -1.1003   -0.3031 N   0  0  0  0  0  0  0  0  0  0  0  0
    1.2137   -0.7402    0.3691 C   0  0  0  0  0  0  0  0  0  0  0  0
   -0.0258    0.1255    0.2550 C   0  0  0  0  0  0  0  0  0  0  0  0
    2.4907   -0.0914   -0.1039 C   0  0  0  0  0  0  0  0  0  0  0  0
   -2.4707   -0.1050   -0.0826 C   0  0  0  0  0  0  0  0  0  0  0  0
    1.3294   -1.0057    1.4255 H   0  0  0  0  0  0  0  0  0  0  0  0
    1.0759   -1.6556   -0.2173 H   0  0  0  0  0  0  0  0  0  0  0  0
   -1.0874   -1.6367   -0.0455 H   0  0  0  0  0  0  0  0  0  0  0  0
   -4.3919   -0.8800   -0.4084 H   0  0  0  0  0  0  0  0  0  0  0  0
   -3.1432   -2.0776   -0.3668 H   0  0  0  0  0  0  0  0  0  0  0  0
    4.3829   -0.5196   -0.2979 H   0  0  0  0  0  0  0  0  0  0  0  0
  1  8  2  0  0  0  0
  2  9  1  0  0  0  0
  2 16  1  0  0  0  0
  3  9  2  0  0  0  0
  4 10  2  0  0  0  0
  5  8  1  0  0  0  0
  5 10  1  0  0  0  0
  5 13  1  0  0  0  0
  6 10  1  0  0  0  0
  6 14  1  0  0  0  0
  6 15  1  0  0  0  0
  7  8  1  0  0  0  0
  7  9  1  0  0  0  0
  7 11  1  0  0  0  0
  7 12  1  0  0  0  0
M  END
> <PUBCHEM_COMPOUND_CID>
10290858

> <PUBCHEM_CONFORMER_RMSD>
0.6

> <PUBCHEM_CONFORMER_DIVERSEORDER>
1
18
14
19
7
11
15
9
6
21
4
17
10
12
2
16
8
20
5
3
13

> <PUBCHEM_MMFF94_PARTIAL_CHARGES>
14
1 -0.57
10 0.69
13 0.37
14 0.37
15 0.37
16 0.5
2 -0.65
3 -0.57
4 -0.57
5 -0.49
6 -0.8
7 0.12
8 0.57
9 0.66

> <PUBCHEM_EFFECTIVE_ROTOR_COUNT>
4

> <PUBCHEM_PHARMACOPHORE_FEATURES>
8
1 1 acceptor
1 2 acceptor
1 3 acceptor
1 4 acceptor
1 5 donor
1 6 donor
1 7 anion
3 2 3 9 anion

> <PUBCHEM_HEAVY_ATOM_COUNT>
10

> <PUBCHEM_ATOM_DEF_STEREO_COUNT>
0

> <PUBCHEM_ATOM_UDEF_STEREO_COUNT>
0

> <PUBCHEM_BOND_DEF_STEREO_COUNT>
0

> <PUBCHEM_BOND_UDEF_STEREO_COUNT>
0

> <PUBCHEM_ISOTOPIC_ATOM_COUNT>
0

> <PUBCHEM_COMPONENT_COUNT>
1

> <PUBCHEM_CACTVS_TAUTO_COUNT>
5

> <PUBCHEM_CONFORMER_ID>
009D06AA00000001

> <PUBCHEM_MMFF94_ENERGY>
13.3786

> <PUBCHEM_FEATURE_SELFOVERLAP>
40.973

> <PUBCHEM_SHAPE_FINGERPRINT>
10219947 1 7781523619838421867
11062470 55 6916262940239256555
12897270 3 18343582958006092014
12932764 1 17386011641382940203
14325111 11 18412262830743128038
14390081 3 18201720639138160477
21293036 1 18410292462935420502
23552423 10 18269272533309950619
29004967 10 14634868660851174106
3248919 1 17775566411927682339

> <PUBCHEM_SHAPE_MULTIPOLES>
172.36
5.68
1.19
0.63
0.23
0.18
-0.01
-1.03
0.76
0.11
0
-0.07
0.02
-0.27

> <PUBCHEM_SHAPE_SELFOVERLAP>
333.784

> <PUBCHEM_SHAPE_VOLUME>
103.1

> <PUBCHEM_COORDINATE_TYPE>
2
5
10

$$$$

