17395681
  -OEChem-06241222512D

 42 44  0     1  0  0  0  0  0999 V2000
    2.0000    3.4852    0.0000 S   0  0  0  0  0  0  0  0  0  0  0  0
    6.1808   -4.3512    0.0000 F   0  0  0  0  0  0  0  0  0  0  0  0
    6.1808    1.6488    0.0000 O   0  0  0  0  0  0  0  0  0  0  0  0
    5.3147    0.1488    0.0000 N   0  0  0  0  0  0  0  0  0  0  0  0
    7.9603   -0.2580    0.0000 N   0  0  0  0  0  0  0  0  0  0  0  0
    7.1513    1.1433    0.0000 N   0  0  0  0  0  0  0  0  0  0  0  0
    6.1808   -0.3512    0.0000 C   0  0  3  0  0  0  0  0  0  0  0  0
    7.0468    0.1488    0.0000 C   0  0  0  0  0  0  0  0  0  0  0  0
    6.1808   -1.3512    0.0000 C   0  0  0  0  0  0  0  0  0  0  0  0
    4.4487    1.6488    0.0000 C   0  0  0  0  0  0  0  0  0  0  0  0
    5.3147    1.1488    0.0000 C   0  0  0  0  0  0  0  0  0  0  0  0
    4.4487    2.6488    0.0000 C   0  0  0  0  0  0  0  0  0  0  0  0
    5.3147   -1.8512    0.0000 C   0  0  0  0  0  0  0  0  0  0  0  0
    7.0468   -1.8512    0.0000 C   0  0  0  0  0  0  0  0  0  0  0  0
    8.6294    0.4852    0.0000 C   0  0  0  0  0  0  0  0  0  0  0  0
    3.5827    3.1488    0.0000 C   0  0  0  0  0  0  0  0  0  0  0  0
    8.1682   -1.2361    0.0000 C   0  0  0  0  0  0  0  0  0  0  0  0
    8.1294    1.3512    0.0000 C   0  0  0  0  0  0  0  0  0  0  0  0
    5.3147   -2.8512    0.0000 C   0  0  0  0  0  0  0  0  0  0  0  0
    7.0468   -2.8512    0.0000 C   0  0  0  0  0  0  0  0  0  0  0  0
    6.1808   -3.3512    0.0000 C   0  0  0  0  0  0  0  0  0  0  0  0
    3.4782    4.1433    0.0000 C   0  0  0  0  0  0  0  0  0  0  0  0
    2.6691    2.7420    0.0000 C   0  0  0  0  0  0  0  0  0  0  0  0
    2.5000    4.3512    0.0000 C   0  0  0  0  0  0  0  0  0  0  0  0
    6.1808    0.2688    0.0000 H   0  0  0  0  0  0  0  0  0  0  0  0
    4.7778   -0.1612    0.0000 H   0  0  0  0  0  0  0  0  0  0  0  0
    3.8381    1.7564    0.0000 H   0  0  0  0  0  0  0  0  0  0  0  0
    4.2366    1.0662    0.0000 H   0  0  0  0  0  0  0  0  0  0  0  0
    5.0593    2.5411    0.0000 H   0  0  0  0  0  0  0  0  0  0  0  0
    4.6608    3.2314    0.0000 H   0  0  0  0  0  0  0  0  0  0  0  0
    4.7778   -1.5412    0.0000 H   0  0  0  0  0  0  0  0  0  0  0  0
    7.5837   -1.5412    0.0000 H   0  0  0  0  0  0  0  0  0  0  0  0
    9.2461    0.4204    0.0000 H   0  0  0  0  0  0  0  0  0  0  0  0
    7.5618   -1.3650    0.0000 H   0  0  0  0  0  0  0  0  0  0  0  0
    8.2971   -1.8426    0.0000 H   0  0  0  0  0  0  0  0  0  0  0  0
    8.7747   -1.1072    0.0000 H   0  0  0  0  0  0  0  0  0  0  0  0
    8.3816    1.9176    0.0000 H   0  0  0  0  0  0  0  0  0  0  0  0
    4.7778   -3.1612    0.0000 H   0  0  0  0  0  0  0  0  0  0  0  0
    7.5837   -3.1612    0.0000 H   0  0  0  0  0  0  0  0  0  0  0  0
    3.9389    4.5582    0.0000 H   0  0  0  0  0  0  0  0  0  0  0  0
    2.5402    2.1356    0.0000 H   0  0  0  0  0  0  0  0  0  0  0  0
    2.2478    4.9176    0.0000 H   0  0  0  0  0  0  0  0  0  0  0  0
  1 23  1  0  0  0  0
  1 24  1  0  0  0  0
  2 21  1  0  0  0  0
  3 11  2  0  0  0  0
  4  7  1  0  0  0  0
  4 11  1  0  0  0  0
  4 26  1  0  0  0  0
  5  8  1  0  0  0  0
  5 15  1  0  0  0  0
  5 17  1  0  0  0  0
  6  8  2  0  0  0  0
  6 18  1  0  0  0  0
  7  8  1  0  0  0  0
  7  9  1  0  0  0  0
  7 25  1  0  0  0  0
  9 13  2  0  0  0  0
  9 14  1  0  0  0  0
 10 11  1  0  0  0  0
 10 12  1  0  0  0  0
 10 27  1  0  0  0  0
 10 28  1  0  0  0  0
 12 16  1  0  0  0  0
 12 29  1  0  0  0  0
 12 30  1  0  0  0  0
 13 19  1  0  0  0  0
 13 31  1  0  0  0  0
 14 20  2  0  0  0  0
 14 32  1  0  0  0  0
 15 18  2  0  0  0  0
 15 33  1  0  0  0  0
 16 22  1  0  0  0  0
 16 23  2  0  0  0  0
 17 34  1  0  0  0  0
 17 35  1  0  0  0  0
 17 36  1  0  0  0  0
 18 37  1  0  0  0  0
 19 21  2  0  0  0  0
 19 38  1  0  0  0  0
 20 21  1  0  0  0  0
 20 39  1  0  0  0  0
 22 24  2  0  0  0  0
 22 40  1  0  0  0  0
 23 41  1  0  0  0  0
 24 42  1  0  0  0  0
M  END
> <PUBCHEM_COMPOUND_CID>
17395681

> <PUBCHEM_COMPOUND_CANONICALIZED>
1

> <PUBCHEM_CACTVS_COMPLEXITY>
417

> <PUBCHEM_CACTVS_HBOND_ACCEPTOR>
4

> <PUBCHEM_CACTVS_HBOND_DONOR>
1

> <PUBCHEM_CACTVS_ROTATABLE_BOND>
6

> <PUBCHEM_CACTVS_SUBSKEYS>
AAADceB7IQBAAAAAAAAAAAAAAAAAAWJAAAAwAAAAAAAAAAAB8AAAHwQQAAAADCjF2wy/kZfMEAisAjN3dACDgK0xGrBJyJk4NIiIaDKgmRGUIAholgKoiCcYiIAOAAAAAAAAAAAAAAAAAAAAAAAAAAAAAA==

> <PUBCHEM_IUPAC_OPENEYE_NAME>
N-[(4-fluorophenyl)-(1-methylimidazol-2-yl)methyl]-3-(3-thienyl)propanamide

> <PUBCHEM_IUPAC_CAS_NAME>
N-[(4-fluorophenyl)-(1-methyl-2-imidazolyl)methyl]-3-(3-thiophenyl)propanamide

> <PUBCHEM_IUPAC_NAME>
N-[(4-fluorophenyl)-(1-methylimidazol-2-yl)methyl]-3-thiophen-3-ylpropanamide

> <PUBCHEM_IUPAC_SYSTEMATIC_NAME>
N-[(4-fluorophenyl)-(1-methylimidazol-2-yl)methyl]-3-thiophen-3-yl-propanamide

> <PUBCHEM_IUPAC_TRADITIONAL_NAME>
N-[(4-fluorophenyl)-(1-methylimidazol-2-yl)methyl]-3-(3-thienyl)propionamide

> <PUBCHEM_IUPAC_INCHI>
InChI=1S/C18H18FN3OS/c1-22-10-9-20-18(22)17(14-3-5-15(19)6-4-14)21-16(23)7-2-13-8-11-24-12-13/h3-6,8-12,17H,2,7H2,1H3,(H,21,23)

> <PUBCHEM_IUPAC_INCHIKEY>
FQSLXNKEJHJDCH-UHFFFAOYSA-N

> <PUBCHEM_XLOGP3_AA>
2.5

> <PUBCHEM_EXACT_MASS>
343.115461

> <PUBCHEM_MOLECULAR_FORMULA>
C18H18FN3OS

> <PUBCHEM_MOLECULAR_WEIGHT>
343.418423

> <PUBCHEM_OPENEYE_CAN_SMILES>
CN1C=CN=C1C(C2=CC=C(C=C2)F)NC(=O)CCC3=CSC=C3

> <PUBCHEM_OPENEYE_ISO_SMILES>
CN1C=CN=C1C(C2=CC=C(C=C2)F)NC(=O)CCC3=CSC=C3

> <PUBCHEM_CACTVS_TPSA>
75.2

> <PUBCHEM_MONOISOTOPIC_WEIGHT>
343.115461

> <PUBCHEM_TOTAL_CHARGE>
0

> <PUBCHEM_HEAVY_ATOM_COUNT>
24

> <PUBCHEM_ATOM_DEF_STEREO_COUNT>
0

> <PUBCHEM_ATOM_UDEF_STEREO_COUNT>
1

> <PUBCHEM_BOND_DEF_STEREO_COUNT>
0

> <PUBCHEM_BOND_UDEF_STEREO_COUNT>
0

> <PUBCHEM_ISOTOPIC_ATOM_COUNT>
0

> <PUBCHEM_COMPONENT_COUNT>
1

> <PUBCHEM_CACTVS_TAUTO_COUNT>
2

> <PUBCHEM_COORDINATE_TYPE>
1
5
255

> <PUBCHEM_BONDANNOTATIONS>
1  23  8
1  24  8
13  19  8
14  20  8
15  18  8
16  22  8
16  23  8
19  21  8
20  21  8
22  24  8
7  4  3
5  15  8
5  8  8
6  18  8
6  8  8
9  13  8
9  14  8

$$$$

