16061238
  -OEChem-07051213083D

 98 98  0     1  0  0  0  0  0999 V2000
   15.5738    0.1789   -0.3737 O   0  0  0  0  0  0  0  0  0  0  0  0
   13.7829    1.0017   -2.1535 O   0  0  0  0  0  0  0  0  0  0  0  0
  -14.8094    1.6454    1.9968 O   0  0  0  0  0  0  0  0  0  0  0  0
  -15.6760    0.4507   -1.3507 O   0  0  0  0  0  0  0  0  0  0  0  0
   12.3449   -0.8592    1.2997 C   0  0  0  0  0  0  0  0  0  0  0  0
   13.7729   -0.2856    1.1428 C   0  0  0  0  0  0  0  0  0  0  0  0
   11.4191   -0.3417    0.1762 C   0  0  0  0  0  0  0  0  0  0  0  0
   14.2840   -0.4018   -0.2783 C   0  0  1  0  0  0  0  0  0  0  0  0
   11.8654   -0.4278    2.7080 C   0  0  0  0  0  0  0  0  0  0  0  0
   12.4017   -2.4022    1.2537 C   0  0  0  0  0  0  0  0  0  0  0  0
   11.8713    0.2289   -0.9663 C   0  0  0  0  0  0  0  0  0  0  0  0
   13.3536    0.3451   -1.2049 C   0  0  0  0  0  0  0  0  0  0  0  0
    9.9956   -0.5046    0.4265 C   0  0  0  0  0  0  0  0  0  0  0  0
   11.0366    0.7624   -2.1027 C   0  0  0  0  0  0  0  0  0  0  0  0
    9.0835    0.4285    0.1096 C   0  0  0  0  0  0  0  0  0  0  0  0
    7.6414    0.3448    0.3429 C   0  0  0  0  0  0  0  0  0  0  0  0
    7.1164   -0.9005    1.0194 C   0  0  0  0  0  0  0  0  0  0  0  0
    6.7628    1.3135    0.0048 C   0  0  0  0  0  0  0  0  0  0  0  0
  -15.5103    1.6898    0.7448 C   0  0  0  0  0  0  0  0  0  0  0  0
    5.3250    1.3259    0.1923 C   0  0  0  0  0  0  0  0  0  0  0  0
  -14.9931    0.4953   -0.0929 C   0  0  2  0  0  0  0  0  0  0  0  0
  -17.0076    1.6055    1.0509 C   0  0  0  0  0  0  0  0  0  0  0  0
  -15.1781    3.0333    0.0857 C   0  0  0  0  0  0  0  0  0  0  0  0
    4.5476    2.3544   -0.1875 C   0  0  0  0  0  0  0  0  0  0  0  0
  -13.5198    0.5224   -0.3986 C   0  0  0  0  0  0  0  0  0  0  0  0
  -12.6867   -0.4780   -0.0715 C   0  0  0  0  0  0  0  0  0  0  0  0
    3.0999    2.4317    0.0075 C   0  0  0  0  0  0  0  0  0  0  0  0
  -11.2584   -0.5079   -0.3401 C   0  0  0  0  0  0  0  0  0  0  0  0
    2.6259    3.8118    0.3798 C   0  0  0  0  0  0  0  0  0  0  0  0
    2.3112    1.3520   -0.1695 C   0  0  0  0  0  0  0  0  0  0  0  0
  -10.7718    0.7106   -1.0829 C   0  0  0  0  0  0  0  0  0  0  0  0
  -10.4004   -1.4974   -0.0233 C   0  0  0  0  0  0  0  0  0  0  0  0
    0.8712    1.2794   -0.0134 C   0  0  0  0  0  0  0  0  0  0  0  0
   -8.9741   -1.5600   -0.2755 C   0  0  0  0  0  0  0  0  0  0  0  0
   -8.2294   -2.6143    0.0957 C   0  0  0  0  0  0  0  0  0  0  0  0
    0.0996    0.1930   -0.1943 C   0  0  0  0  0  0  0  0  0  0  0  0
   -6.7964   -2.7673   -0.1133 C   0  0  0  0  0  0  0  0  0  0  0  0
   -1.3398    0.1218   -0.0377 C   0  0  0  0  0  0  0  0  0  0  0  0
   -5.8588   -1.8072    0.0161 C   0  0  0  0  0  0  0  0  0  0  0  0
   -6.4093   -4.1466   -0.5842 C   0  0  0  0  0  0  0  0  0  0  0  0
   -2.1255   -0.9600   -0.2157 C   0  0  0  0  0  0  0  0  0  0  0  0
   -4.4296   -1.9311   -0.1852 C   0  0  0  0  0  0  0  0  0  0  0  0
   -3.5768   -0.9037   -0.0288 C   0  0  0  0  0  0  0  0  0  0  0  0
   -1.6350   -2.3300   -0.6086 C   0  0  0  0  0  0  0  0  0  0  0  0
   14.4737   -0.7816    1.8275 H   0  0  0  0  0  0  0  0  0  0  0  0
   13.7875    0.7744    1.4380 H   0  0  0  0  0  0  0  0  0  0  0  0
   14.3562   -1.4437   -0.6052 H   0  0  0  0  0  0  0  0  0  0  0  0
   10.9089   -0.8896    2.9772 H   0  0  0  0  0  0  0  0  0  0  0  0
   11.7400    0.6597    2.7691 H   0  0  0  0  0  0  0  0  0  0  0  0
   12.5889   -0.7236    3.4770 H   0  0  0  0  0  0  0  0  0  0  0  0
   12.6691   -2.7721    0.2578 H   0  0  0  0  0  0  0  0  0  0  0  0
   11.4387   -2.8524    1.5193 H   0  0  0  0  0  0  0  0  0  0  0  0
   13.1427   -2.7899    1.9625 H   0  0  0  0  0  0  0  0  0  0  0  0
    9.6961   -1.4476    0.8722 H   0  0  0  0  0  0  0  0  0  0  0  0
   11.5458    0.6162   -3.0628 H   0  0  0  0  0  0  0  0  0  0  0  0
   10.0854    0.2379   -2.2250 H   0  0  0  0  0  0  0  0  0  0  0  0
   10.8619    1.8364   -1.9853 H   0  0  0  0  0  0  0  0  0  0  0  0
   15.9025    0.0170   -1.2747 H   0  0  0  0  0  0  0  0  0  0  0  0
    9.3973    1.3907   -0.2869 H   0  0  0  0  0  0  0  0  0  0  0  0
    6.0464   -0.9405    1.2162 H   0  0  0  0  0  0  0  0  0  0  0  0
    7.3430   -1.7811    0.4063 H   0  0  0  0  0  0  0  0  0  0  0  0
    7.6016   -1.0284    1.9948 H   0  0  0  0  0  0  0  0  0  0  0  0
    7.1630    2.2064   -0.4770 H   0  0  0  0  0  0  0  0  0  0  0  0
    4.8483    0.4846    0.6783 H   0  0  0  0  0  0  0  0  0  0  0  0
  -15.2425   -0.4313    0.4407 H   0  0  0  0  0  0  0  0  0  0  0  0
  -17.2434    0.6691    1.5689 H   0  0  0  0  0  0  0  0  0  0  0  0
  -17.3203    2.4156    1.7197 H   0  0  0  0  0  0  0  0  0  0  0  0
  -17.6106    1.6589    0.1390 H   0  0  0  0  0  0  0  0  0  0  0  0
  -14.0992    3.2153    0.0438 H   0  0  0  0  0  0  0  0  0  0  0  0
  -15.5889    3.8613    0.6762 H   0  0  0  0  0  0  0  0  0  0  0  0
  -15.5925    3.1056   -0.9248 H   0  0  0  0  0  0  0  0  0  0  0  0
  -13.1728    1.3956   -0.9404 H   0  0  0  0  0  0  0  0  0  0  0  0
    5.0002    3.2268   -0.6559 H   0  0  0  0  0  0  0  0  0  0  0  0
  -15.1048    2.4004    2.5339 H   0  0  0  0  0  0  0  0  0  0  0  0
  -15.3954   -0.3583   -1.8122 H   0  0  0  0  0  0  0  0  0  0  0  0
  -13.0845   -1.3444    0.4530 H   0  0  0  0  0  0  0  0  0  0  0  0
    2.8413    4.5196   -0.4286 H   0  0  0  0  0  0  0  0  0  0  0  0
    3.1403    4.1581    1.2838 H   0  0  0  0  0  0  0  0  0  0  0  0
    1.5554    3.8737    0.5844 H   0  0  0  0  0  0  0  0  0  0  0  0
    2.7671    0.4085   -0.4687 H   0  0  0  0  0  0  0  0  0  0  0  0
  -11.2813    0.8083   -2.0494 H   0  0  0  0  0  0  0  0  0  0  0  0
  -10.9420    1.6195   -0.4929 H   0  0  0  0  0  0  0  0  0  0  0  0
   -9.7076    0.7179   -1.3207 H   0  0  0  0  0  0  0  0  0  0  0  0
  -10.8124   -2.3625    0.4973 H   0  0  0  0  0  0  0  0  0  0  0  0
   -8.4816   -0.7362   -0.7768 H   0  0  0  0  0  0  0  0  0  0  0  0
    0.3660    2.1955    0.2795 H   0  0  0  0  0  0  0  0  0  0  0  0
   -8.7081   -3.4592    0.5894 H   0  0  0  0  0  0  0  0  0  0  0  0
    0.6084   -0.7205   -0.4872 H   0  0  0  0  0  0  0  0  0  0  0  0
   -1.8098    1.0614    0.2522 H   0  0  0  0  0  0  0  0  0  0  0  0
   -6.1896   -0.8177    0.3323 H   0  0  0  0  0  0  0  0  0  0  0  0
   -7.2605   -4.6714   -1.0350 H   0  0  0  0  0  0  0  0  0  0  0  0
   -6.0557   -4.7508    0.2581 H   0  0  0  0  0  0  0  0  0  0  0  0
   -5.6366   -4.1255   -1.3592 H   0  0  0  0  0  0  0  0  0  0  0  0
   -4.0691   -2.9151   -0.4597 H   0  0  0  0  0  0  0  0  0  0  0  0
   -3.9739    0.0698    0.2562 H   0  0  0  0  0  0  0  0  0  0  0  0
   -1.8713   -3.0705    0.1645 H   0  0  0  0  0  0  0  0  0  0  0  0
   -0.5531   -2.3833   -0.7475 H   0  0  0  0  0  0  0  0  0  0  0  0
   -2.0726   -2.6470   -1.5625 H   0  0  0  0  0  0  0  0  0  0  0  0
  1  8  1  0  0  0  0
  1 58  1  0  0  0  0
  2 12  2  0  0  0  0
  3 19  1  0  0  0  0
  3 74  1  0  0  0  0
  4 21  1  0  0  0  0
  4 75  1  0  0  0  0
  5  6  1  0  0  0  0
  5  7  1  0  0  0  0
  5  9  1  0  0  0  0
  5 10  1  0  0  0  0
  6  8  1  0  0  0  0
  6 45  1  0  0  0  0
  6 46  1  0  0  0  0
  7 11  2  0  0  0  0
  7 13  1  0  0  0  0
  8 12  1  0  0  0  0
  8 47  1  0  0  0  0
  9 48  1  0  0  0  0
  9 49  1  0  0  0  0
  9 50  1  0  0  0  0
 10 51  1  0  0  0  0
 10 52  1  0  0  0  0
 10 53  1  0  0  0  0
 11 12  1  0  0  0  0
 11 14  1  0  0  0  0
 13 15  2  0  0  0  0
 13 54  1  0  0  0  0
 14 55  1  0  0  0  0
 14 56  1  0  0  0  0
 14 57  1  0  0  0  0
 15 16  1  0  0  0  0
 15 59  1  0  0  0  0
 16 17  1  0  0  0  0
 16 18  2  0  0  0  0
 17 60  1  0  0  0  0
 17 61  1  0  0  0  0
 17 62  1  0  0  0  0
 18 20  1  0  0  0  0
 18 63  1  0  0  0  0
 19 21  1  0  0  0  0
 19 22  1  0  0  0  0
 19 23  1  0  0  0  0
 20 24  2  0  0  0  0
 20 64  1  0  0  0  0
 21 25  1  0  0  0  0
 21 65  1  0  0  0  0
 22 66  1  0  0  0  0
 22 67  1  0  0  0  0
 22 68  1  0  0  0  0
 23 69  1  0  0  0  0
 23 70  1  0  0  0  0
 23 71  1  0  0  0  0
 24 27  1  0  0  0  0
 24 73  1  0  0  0  0
 25 26  2  0  0  0  0
 25 72  1  0  0  0  0
 26 28  1  0  0  0  0
 26 76  1  0  0  0  0
 27 29  1  0  0  0  0
 27 30  2  0  0  0  0
 28 31  1  0  0  0  0
 28 32  2  0  0  0  0
 29 77  1  0  0  0  0
 29 78  1  0  0  0  0
 29 79  1  0  0  0  0
 30 33  1  0  0  0  0
 30 80  1  0  0  0  0
 31 81  1  0  0  0  0
 31 82  1  0  0  0  0
 31 83  1  0  0  0  0
 32 34  1  0  0  0  0
 32 84  1  0  0  0  0
 33 36  2  0  0  0  0
 33 86  1  0  0  0  0
 34 35  2  0  0  0  0
 34 85  1  0  0  0  0
 35 37  1  0  0  0  0
 35 87  1  0  0  0  0
 36 38  1  0  0  0  0
 36 88  1  0  0  0  0
 37 39  2  0  0  0  0
 37 40  1  0  0  0  0
 38 41  2  0  0  0  0
 38 89  1  0  0  0  0
 39 42  1  0  0  0  0
 39 90  1  0  0  0  0
 40 91  1  0  0  0  0
 40 92  1  0  0  0  0
 40 93  1  0  0  0  0
 41 43  1  0  0  0  0
 41 44  1  0  0  0  0
 42 43  2  0  0  0  0
 42 94  1  0  0  0  0
 43 95  1  0  0  0  0
 44 96  1  0  0  0  0
 44 97  1  0  0  0  0
 44 98  1  0  0  0  0
M  END
> <PUBCHEM_COMPOUND_CID>
16061238

> <PUBCHEM_CONFORMER_RMSD>
1.4

> <PUBCHEM_CONFORMER_DIVERSEORDER>
7
54
50
44
22
59
58
5
49
48
37
51
30
2
57
26
34
21
53
10
24
55
11
35
27
12
31
29
42
6
45
14
38
40
43
3
39
23
20
41
36
28
25
9
32
52
13
15
4
46
19
8
1
33
47
17
56
18
16

> <PUBCHEM_MMFF94_PARTIAL_CHARGES>
59
1 -0.68
11 -0.12
12 0.49
13 -0.15
14 0.14
15 -0.15
16 -0.14
17 0.14
18 -0.15
19 0.28
2 -0.57
20 -0.15
21 0.42
24 -0.15
25 -0.29
26 -0.15
27 -0.14
28 -0.14
29 0.14
3 -0.68
30 -0.15
31 0.14
32 -0.15
33 -0.15
34 -0.15
35 -0.15
36 -0.15
37 -0.14
38 -0.15
39 -0.15
4 -0.68
40 0.14
41 -0.14
42 -0.15
43 -0.15
44 0.14
5 0.14
54 0.15
58 0.4
59 0.15
63 0.15
64 0.15
7 -0.14
72 0.15
73 0.15
74 0.4
75 0.4
76 0.15
8 0.34
80 0.15
84 0.15
85 0.15
86 0.15
87 0.15
88 0.15
89 0.15
90 0.15
94 0.15
95 0.15

> <PUBCHEM_EFFECTIVE_ROTOR_COUNT>
13.6

> <PUBCHEM_PHARMACOPHORE_FEATURES>
15
1 1 acceptor
1 1 donor
1 17 hydrophobe
1 2 acceptor
1 29 hydrophobe
1 3 acceptor
1 3 donor
1 31 hydrophobe
1 4 acceptor
1 4 donor
1 40 hydrophobe
1 44 hydrophobe
3 19 22 23 hydrophobe
3 5 9 10 hydrophobe
6 5 6 7 8 11 12 rings

> <PUBCHEM_HEAVY_ATOM_COUNT>
44

> <PUBCHEM_ATOM_DEF_STEREO_COUNT>
2

> <PUBCHEM_ATOM_UDEF_STEREO_COUNT>
0

> <PUBCHEM_BOND_DEF_STEREO_COUNT>
11

> <PUBCHEM_BOND_UDEF_STEREO_COUNT>
0

> <PUBCHEM_ISOTOPIC_ATOM_COUNT>
0

> <PUBCHEM_COMPONENT_COUNT>
1

> <PUBCHEM_CACTVS_TAUTO_COUNT>
12

> <PUBCHEM_CONFORMER_ID>
00F5133600000007

> <PUBCHEM_MMFF94_ENERGY>
118.0276

> <PUBCHEM_FEATURE_SELFOVERLAP>
76.124

> <PUBCHEM_SHAPE_FINGERPRINT>
12013929 2 18411984629322969747
14251920 17 8862946082446301722
15343295 29 18408889539130805949
3092352 35 8286200548358146663
3991529 128 13254799040509065537

> <PUBCHEM_SHAPE_MULTIPOLES>
882.02
104.52
3.21
1.35
130.53
0.45
0.21
-24.4
7.72
8.55
0.11
-3.99
-0.14
-5.13

> <PUBCHEM_SHAPE_SELFOVERLAP>
1777.576

> <PUBCHEM_SHAPE_VOLUME>
516.7

> <PUBCHEM_COORDINATE_TYPE>
2
5
10

$$$$

