9194
  -OEChem-06261203303D

 20 22  0     0  0  0  0  0  0999 V2000
   -0.9048    0.5421    0.0000 N   0  0  0  0  0  0  0  0  0  0  0  0
    0.2047   -2.0371    0.0000 N   0  0  0  0  0  0  0  0  0  0  0  0
   -2.9642   -0.3095    0.0000 N   0  0  0  0  0  0  0  0  0  0  0  0
    0.4948    0.4407    0.0001 C   0  0  0  0  0  0  0  0  0  0  0  0
   -1.6817   -0.5863   -0.0001 C   0  0  0  0  0  0  0  0  0  0  0  0
    1.0222   -0.8723    0.0001 C   0  0  0  0  0  0  0  0  0  0  0  0
   -1.7478    1.6168    0.0000 C   0  0  0  0  0  0  0  0  0  0  0  0
    1.3183    1.5658    0.0000 C   0  0  0  0  0  0  0  0  0  0  0  0
   -1.0864   -1.8864    0.0000 C   0  0  0  0  0  0  0  0  0  0  0  0
    2.4114   -1.0228    0.0001 C   0  0  0  0  0  0  0  0  0  0  0  0
   -3.0123    1.0647    0.0000 C   0  0  0  0  0  0  0  0  0  0  0  0
    2.7007    1.3854   -0.0001 C   0  0  0  0  0  0  0  0  0  0  0  0
    3.2451    0.0991    0.0000 C   0  0  0  0  0  0  0  0  0  0  0  0
   -1.4101    2.6437    0.0000 H   0  0  0  0  0  0  0  0  0  0  0  0
    0.9194    2.5749    0.0000 H   0  0  0  0  0  0  0  0  0  0  0  0
   -1.7372   -2.7751   -0.0001 H   0  0  0  0  0  0  0  0  0  0  0  0
    2.8559   -2.0151    0.0001 H   0  0  0  0  0  0  0  0  0  0  0  0
   -3.9560    1.5906    0.0001 H   0  0  0  0  0  0  0  0  0  0  0  0
    3.3590    2.2497   -0.0002 H   0  0  0  0  0  0  0  0  0  0  0  0
    4.3238   -0.0305   -0.0001 H   0  0  0  0  0  0  0  0  0  0  0  0
  1  4  1  0  0  0  0
  1  5  1  0  0  0  0
  1  7  1  0  0  0  0
  2  6  1  0  0  0  0
  2  9  2  0  0  0  0
  3  5  2  0  0  0  0
  3 11  1  0  0  0  0
  4  6  1  0  0  0  0
  4  8  2  0  0  0  0
  5  9  1  0  0  0  0
  6 10  2  0  0  0  0
  7 11  2  0  0  0  0
  7 14  1  0  0  0  0
  8 12  1  0  0  0  0
  8 15  1  0  0  0  0
  9 16  1  0  0  0  0
 10 13  1  0  0  0  0
 10 17  1  0  0  0  0
 11 18  1  0  0  0  0
 12 13  2  0  0  0  0
 12 19  1  0  0  0  0
 13 20  1  0  0  0  0
M  END
> <PUBCHEM_COMPOUND_CID>
9194

> <PUBCHEM_CONFORMER_RMSD>
0.4

> <PUBCHEM_CONFORMER_DIVERSEORDER>
1

> <PUBCHEM_MMFF94_PARTIAL_CHARGES>
20
1 0.33
10 -0.15
11 0.08
12 -0.15
13 -0.15
14 0.15
15 0.15
16 0.06
17 0.15
18 0.15
19 0.15
2 -0.63
20 0.15
3 -0.57
4 -0.02
5 0.1
6 0.18
7 -0.3
8 -0.15
9 0.47

> <PUBCHEM_EFFECTIVE_ROTOR_COUNT>
0

> <PUBCHEM_PHARMACOPHORE_FEATURES>
5
1 2 acceptor
3 1 3 5 cation
5 1 3 5 7 11 rings
6 1 2 4 5 6 9 rings
6 4 6 8 10 12 13 rings

> <PUBCHEM_HEAVY_ATOM_COUNT>
13

> <PUBCHEM_ATOM_DEF_STEREO_COUNT>
0

> <PUBCHEM_ATOM_UDEF_STEREO_COUNT>
0

> <PUBCHEM_BOND_DEF_STEREO_COUNT>
0

> <PUBCHEM_BOND_UDEF_STEREO_COUNT>
0

> <PUBCHEM_ISOTOPIC_ATOM_COUNT>
0

> <PUBCHEM_COMPONENT_COUNT>
1

> <PUBCHEM_CACTVS_TAUTO_COUNT>
1

> <PUBCHEM_CONFORMER_ID>
000023EA00000001

> <PUBCHEM_MMFF94_ENERGY>
31.904

> <PUBCHEM_FEATURE_SELFOVERLAP>
25.52

> <PUBCHEM_SHAPE_FINGERPRINT>
10608611 8 18410014312395707464
10967382 1 18410855485903253316
11471102 20 18338520862586194973
13380535 21 18339066099925461550
13380535 76 18410014333738486783
13897977 150 18411140268289754997
14144814 61 18411419518325732840
14325111 11 18410573985156979232
15775835 57 18412538816815132852
16945 1 18410855434490350246
17844478 74 18200861890750449091
18186145 218 18261669376001832708
193761 8 17690279309453889893
19973954 147 18339358548533050964
20510252 161 18261669255800641193
20645476 183 17845354601487531126
20871998 184 18116707409538558647
21501502 16 18338519612655571302
2334 1 18338797788780822535
23402539 116 18262249845300739653
23402655 69 18192164883172866957
23463225 33 18270121339412400266
23552423 10 18127693729743927476
23559900 14 18333724725016589748
25 1 18268432519511490397
2748010 2 18411134710317094495
5084963 1 18186803594906566785
528886 8 18410298037866306840
53812653 166 18335706061126389744
7364860 26 18118966029633715678

> <PUBCHEM_SHAPE_MULTIPOLES>
252.59
4.68
2.02
0.6
0.19
0.35
0
-1.17
0
-0.1
0
0.02
-0.01
0

> <PUBCHEM_SHAPE_SELFOVERLAP>
571.413

> <PUBCHEM_SHAPE_VOLUME>
131.5

> <PUBCHEM_COORDINATE_TYPE>
2
5
10

$$$$

