439881
  -OEChem-07051212472D

 18 17  0     1  0  0  0  0  0999 V2000
    3.4030   -0.4400    0.0000 O   0  0  0  0  0  0  0  0  0  0  0  0
    6.0010    1.0600    0.0000 O   0  0  0  0  0  0  0  0  0  0  0  0
    5.1350    2.5600    0.0000 O   0  0  0  0  0  0  0  0  0  0  0  0
    4.2690   -1.9400    0.0000 O   0  0  0  0  0  0  0  0  0  0  0  0
    3.4030    1.5600    0.0000 N   0  0  0  0  0  0  0  0  0  0  0  0
    2.5369   -1.9400    0.0000 N   0  0  0  0  0  0  0  0  0  0  0  0
    4.2690    1.0600    0.0000 C   0  0  1  0  0  0  0  0  0  0  0  0
    4.2690    0.0600    0.0000 C   0  0  0  0  0  0  0  0  0  0  0  0
    5.1350    1.5600    0.0000 C   0  0  0  0  0  0  0  0  0  0  0  0
    3.4030   -1.4400    0.0000 C   0  0  0  0  0  0  0  0  0  0  0  0
    4.2690    1.6800    0.0000 H   0  0  0  0  0  0  0  0  0  0  0  0
    4.4810   -0.5226    0.0000 H   0  0  0  0  0  0  0  0  0  0  0  0
    4.8796    0.1677    0.0000 H   0  0  0  0  0  0  0  0  0  0  0  0
    2.8660    1.2500    0.0000 H   0  0  0  0  0  0  0  0  0  0  0  0
    3.4030    2.1800    0.0000 H   0  0  0  0  0  0  0  0  0  0  0  0
    6.5380    1.3700    0.0000 H   0  0  0  0  0  0  0  0  0  0  0  0
    2.5369   -2.5600    0.0000 H   0  0  0  0  0  0  0  0  0  0  0  0
    2.0000   -1.6300    0.0000 H   0  0  0  0  0  0  0  0  0  0  0  0
  1  8  1  0  0  0  0
  1 10  1  0  0  0  0
  2  9  1  0  0  0  0
  2 16  1  0  0  0  0
  3  9  2  0  0  0  0
  4 10  2  0  0  0  0
  7  5  1  6  0  0  0
  5 14  1  0  0  0  0
  5 15  1  0  0  0  0
  6 10  1  0  0  0  0
  6 17  1  0  0  0  0
  6 18  1  0  0  0  0
  7  8  1  0  0  0  0
  7  9  1  0  0  0  0
  7 11  1  0  0  0  0
  8 12  1  0  0  0  0
  8 13  1  0  0  0  0
M  END
> <PUBCHEM_COMPOUND_CID>
439881

> <PUBCHEM_COMPOUND_CANONICALIZED>
1

> <PUBCHEM_CACTVS_COMPLEXITY>
146

> <PUBCHEM_CACTVS_HBOND_ACCEPTOR>
5

> <PUBCHEM_CACTVS_HBOND_DONOR>
3

> <PUBCHEM_CACTVS_ROTATABLE_BOND>
4

> <PUBCHEM_CACTVS_SUBSKEYS>
AAADccBjOAAAAAAAAAAAAAAAAAAAAAAAAAAAAAAAAAAAAAAAAAAAHgAQCAAACCjhgAYACABABgAIAACQGAAAAAAAAAAAAIGAAAECAAQAAAAJQAABMAAAAAAAAAAAAAAAAAAAAAAAAAAAAAAAAAAAAAAAAA==

> <PUBCHEM_IUPAC_OPENEYE_NAME>
(2S)-2-amino-3-carbamoyloxy-propanoic acid

> <PUBCHEM_IUPAC_CAS_NAME>
(2S)-2-amino-3-carbamoyloxypropanoic acid

> <PUBCHEM_IUPAC_NAME>
(2S)-2-amino-3-carbamoyloxypropanoic acid

> <PUBCHEM_IUPAC_SYSTEMATIC_NAME>
(2S)-3-aminocarbonyloxy-2-azanyl-propanoic acid

> <PUBCHEM_IUPAC_TRADITIONAL_NAME>
(2S)-2-amino-3-carbamoyloxy-propionic acid

> <PUBCHEM_IUPAC_INCHI>
InChI=1S/C4H8N2O4/c5-2(3(7)8)1-10-4(6)9/h2H,1,5H2,(H2,6,9)(H,7,8)/t2-/m0/s1

> <PUBCHEM_IUPAC_INCHIKEY>
MYFVWSDZEBSNKM-REOHCLBHSA-N

> <PUBCHEM_XLOGP3_AA>
-4

> <PUBCHEM_EXACT_MASS>
148.048407

> <PUBCHEM_MOLECULAR_FORMULA>
C4H8N2O4

> <PUBCHEM_MOLECULAR_WEIGHT>
148.11732

> <PUBCHEM_OPENEYE_CAN_SMILES>
C(C(C(=O)O)N)OC(=O)N

> <PUBCHEM_OPENEYE_ISO_SMILES>
C([C@@H](C(=O)O)N)OC(=O)N

> <PUBCHEM_CACTVS_TPSA>
116

> <PUBCHEM_MONOISOTOPIC_WEIGHT>
148.048407

> <PUBCHEM_TOTAL_CHARGE>
0

> <PUBCHEM_HEAVY_ATOM_COUNT>
10

> <PUBCHEM_ATOM_DEF_STEREO_COUNT>
1

> <PUBCHEM_ATOM_UDEF_STEREO_COUNT>
0

> <PUBCHEM_BOND_DEF_STEREO_COUNT>
0

> <PUBCHEM_BOND_UDEF_STEREO_COUNT>
0

> <PUBCHEM_ISOTOPIC_ATOM_COUNT>
0

> <PUBCHEM_COMPONENT_COUNT>
1

> <PUBCHEM_CACTVS_TAUTO_COUNT>
2

> <PUBCHEM_COORDINATE_TYPE>
1
5
255

> <PUBCHEM_BONDANNOTATIONS>
7  5  6

$$$$

