442554
  -OEChem-07051212583D

 77 83  0     1  0  0  0  0  0999 V2000
    0.7661   -1.0754    3.5440 S   0  0  0  0  0  0  0  0  0  0  0  0
   -5.2419   -3.0668   -0.4416 O   0  0  0  0  0  0  0  0  0  0  0  0
    3.6654    3.7455    0.4177 O   0  0  0  0  0  0  0  0  0  0  0  0
   -2.6752    0.6627    0.1223 N   0  0  2  0  0  0  0  0  0  0  0  0
    2.7841   -0.7192   -0.0494 N   0  0  2  0  0  0  0  0  0  0  0  0
   -1.0490    0.0519    1.9443 C   0  0  2  0  0  0  0  0  0  0  0  0
    1.1169   -1.3023    1.7577 C   0  0  1  0  0  0  0  0  0  0  0  0
   -0.1727   -0.8454    1.0298 C   0  0  0  0  0  0  0  0  0  0  0  0
   -2.5207    0.0414    1.4593 C   0  0  0  0  0  0  0  0  0  0  0  0
   -0.5970    1.5237    1.9982 C   0  0  0  0  0  0  0  0  0  0  0  0
   -0.9652   -0.6019    3.3300 C   0  0  0  0  0  0  0  0  0  0  0  0
   -2.3205    2.1062    0.2053 C   0  0  1  0  0  0  0  0  0  0  0  0
    2.3728   -0.4981    1.3631 C   0  0  0  0  0  0  0  0  0  0  0  0
    1.3918   -2.7919    1.5159 C   0  0  0  0  0  0  0  0  0  0  0  0
    3.0896   -2.1643   -0.2671 C   0  0  1  0  0  0  0  0  0  0  0  0
   -0.8621    2.2534    0.6855 C   0  0  0  0  0  0  0  0  0  0  0  0
    1.8625   -3.0304    0.0849 C   0  0  0  0  0  0  0  0  0  0  0  0
   -2.5153    2.8378   -1.1511 C   0  0  1  0  0  0  0  0  0  0  0  0
   -4.0411    0.4405   -0.4217 C   0  0  1  0  0  0  0  0  0  0  0  0
    3.5527   -2.4465   -1.7233 C   0  0  1  0  0  0  0  0  0  0  0  0
    3.9459    0.1439   -0.4105 C   0  0  1  0  0  0  0  0  0  0  0  0
   -3.9499    2.6522   -1.6485 C   0  0  0  0  0  0  0  0  0  0  0  0
   -4.2683    1.1736   -1.7580 C   0  0  0  0  0  0  0  0  0  0  0  0
    4.7740   -1.5888   -2.0604 C   0  0  0  0  0  0  0  0  0  0  0  0
    4.4512   -0.1237   -1.8426 C   0  0  0  0  0  0  0  0  0  0  0  0
   -2.2090    4.3379   -1.0739 C   0  0  0  0  0  0  0  0  0  0  0  0
   -4.3143   -1.0425   -0.6251 C   0  0  0  0  0  0  0  0  0  0  0  0
    3.9024   -3.9179   -1.9733 C   0  0  0  0  0  0  0  0  0  0  0  0
    3.6119    1.6211   -0.2713 C   0  0  0  0  0  0  0  0  0  0  0  0
   -3.6060   -1.9176   -1.4688 C   0  0  0  0  0  0  0  0  0  0  0  0
   -5.2970   -1.7759   -0.0207 C   0  0  0  0  0  0  0  0  0  0  0  0
    2.6159    2.3250   -0.9722 C   0  0  0  0  0  0  0  0  0  0  0  0
    4.2254    2.5157    0.5604 C   0  0  0  0  0  0  0  0  0  0  0  0
   -4.2101   -3.1447   -1.3226 C   0  0  0  0  0  0  0  0  0  0  0  0
    2.6868    3.6209   -0.5167 C   0  0  0  0  0  0  0  0  0  0  0  0
   -0.7619   -1.7327    0.7567 H   0  0  0  0  0  0  0  0  0  0  0  0
    0.0584   -0.3544    0.0786 H   0  0  0  0  0  0  0  0  0  0  0  0
   -2.8504   -1.0034    1.4424 H   0  0  0  0  0  0  0  0  0  0  0  0
   -3.1641    0.5508    2.1907 H   0  0  0  0  0  0  0  0  0  0  0  0
    0.4586    1.6260    2.2621 H   0  0  0  0  0  0  0  0  0  0  0  0
   -1.1522    2.0422    2.7923 H   0  0  0  0  0  0  0  0  0  0  0  0
   -1.2833    0.0666    4.1358 H   0  0  0  0  0  0  0  0  0  0  0  0
   -1.5720   -1.5122    3.3855 H   0  0  0  0  0  0  0  0  0  0  0  0
   -2.9756    2.5880    0.9464 H   0  0  0  0  0  0  0  0  0  0  0  0
    2.1651    0.5620    1.5259 H   0  0  0  0  0  0  0  0  0  0  0  0
    3.2115   -0.7579    2.0254 H   0  0  0  0  0  0  0  0  0  0  0  0
    0.5011   -3.4028    1.7115 H   0  0  0  0  0  0  0  0  0  0  0  0
    2.1745   -3.1538    2.1973 H   0  0  0  0  0  0  0  0  0  0  0  0
    3.9091   -2.4526    0.4085 H   0  0  0  0  0  0  0  0  0  0  0  0
   -0.6174    3.3092    0.8449 H   0  0  0  0  0  0  0  0  0  0  0  0
   -0.1787    1.8861   -0.0877 H   0  0  0  0  0  0  0  0  0  0  0  0
    2.1044   -4.0948   -0.0037 H   0  0  0  0  0  0  0  0  0  0  0  0
    1.0453   -2.8311   -0.6195 H   0  0  0  0  0  0  0  0  0  0  0  0
   -1.8336    2.3978   -1.8927 H   0  0  0  0  0  0  0  0  0  0  0  0
   -4.7728    0.8321    0.3005 H   0  0  0  0  0  0  0  0  0  0  0  0
    2.7396   -2.1773   -2.4120 H   0  0  0  0  0  0  0  0  0  0  0  0
    4.7732   -0.0837    0.2785 H   0  0  0  0  0  0  0  0  0  0  0  0
   -4.0789    3.1246   -2.6295 H   0  0  0  0  0  0  0  0  0  0  0  0
   -4.6581    3.1354   -0.9636 H   0  0  0  0  0  0  0  0  0  0  0  0
   -5.3104    1.0500   -2.0793 H   0  0  0  0  0  0  0  0  0  0  0  0
   -3.6468    0.7357   -2.5506 H   0  0  0  0  0  0  0  0  0  0  0  0
    5.0739   -1.7429   -3.1037 H   0  0  0  0  0  0  0  0  0  0  0  0
    5.6282   -1.8776   -1.4349 H   0  0  0  0  0  0  0  0  0  0  0  0
    5.3471    0.4780   -2.0419 H   0  0  0  0  0  0  0  0  0  0  0  0
    3.6993    0.1879   -2.5802 H   0  0  0  0  0  0  0  0  0  0  0  0
   -1.1438    4.5217   -0.9057 H   0  0  0  0  0  0  0  0  0  0  0  0
   -2.4713    4.8373   -2.0132 H   0  0  0  0  0  0  0  0  0  0  0  0
   -2.7736    4.8176   -0.2675 H   0  0  0  0  0  0  0  0  0  0  0  0
    4.3447   -4.0496   -2.9671 H   0  0  0  0  0  0  0  0  0  0  0  0
    4.6200   -4.2869   -1.2330 H   0  0  0  0  0  0  0  0  0  0  0  0
    3.0127   -4.5533   -1.9385 H   0  0  0  0  0  0  0  0  0  0  0  0
   -2.7603   -1.6973   -2.1044 H   0  0  0  0  0  0  0  0  0  0  0  0
   -6.0757   -1.5506    0.6935 H   0  0  0  0  0  0  0  0  0  0  0  0
    1.9268    1.9491   -1.7149 H   0  0  0  0  0  0  0  0  0  0  0  0
    5.0297    2.4495    1.2785 H   0  0  0  0  0  0  0  0  0  0  0  0
   -4.0339   -4.1205   -1.7510 H   0  0  0  0  0  0  0  0  0  0  0  0
    2.1390    4.5238   -0.7438 H   0  0  0  0  0  0  0  0  0  0  0  0
  1  7  1  0  0  0  0
  1 11  1  0  0  0  0
  2 31  1  0  0  0  0
  2 34  1  0  0  0  0
  3 33  1  0  0  0  0
  3 35  1  0  0  0  0
  4  9  1  0  0  0  0
  4 12  1  0  0  0  0
  4 19  1  0  0  0  0
  5 13  1  0  0  0  0
  5 15  1  0  0  0  0
  5 21  1  0  0  0  0
  6  8  1  0  0  0  0
  6  9  1  0  0  0  0
  6 10  1  0  0  0  0
  6 11  1  0  0  0  0
  7  8  1  0  0  0  0
  7 13  1  0  0  0  0
  7 14  1  0  0  0  0
  8 36  1  0  0  0  0
  8 37  1  0  0  0  0
  9 38  1  0  0  0  0
  9 39  1  0  0  0  0
 10 16  1  0  0  0  0
 10 40  1  0  0  0  0
 10 41  1  0  0  0  0
 11 42  1  0  0  0  0
 11 43  1  0  0  0  0
 12 16  1  0  0  0  0
 12 18  1  0  0  0  0
 12 44  1  0  0  0  0
 13 45  1  0  0  0  0
 13 46  1  0  0  0  0
 14 17  1  0  0  0  0
 14 47  1  0  0  0  0
 14 48  1  0  0  0  0
 15 17  1  0  0  0  0
 15 20  1  0  0  0  0
 15 49  1  0  0  0  0
 16 50  1  0  0  0  0
 16 51  1  0  0  0  0
 17 52  1  0  0  0  0
 17 53  1  0  0  0  0
 18 22  1  0  0  0  0
 18 26  1  0  0  0  0
 18 54  1  0  0  0  0
 19 23  1  0  0  0  0
 19 27  1  0  0  0  0
 19 55  1  0  0  0  0
 20 24  1  0  0  0  0
 20 28  1  0  0  0  0
 20 56  1  0  0  0  0
 21 25  1  0  0  0  0
 21 29  1  0  0  0  0
 21 57  1  0  0  0  0
 22 23  1  0  0  0  0
 22 58  1  0  0  0  0
 22 59  1  0  0  0  0
 23 60  1  0  0  0  0
 23 61  1  0  0  0  0
 24 25  1  0  0  0  0
 24 62  1  0  0  0  0
 24 63  1  0  0  0  0
 25 64  1  0  0  0  0
 25 65  1  0  0  0  0
 26 66  1  0  0  0  0
 26 67  1  0  0  0  0
 26 68  1  0  0  0  0
 27 30  1  0  0  0  0
 27 31  2  0  0  0  0
 28 69  1  0  0  0  0
 28 70  1  0  0  0  0
 28 71  1  0  0  0  0
 29 32  1  0  0  0  0
 29 33  2  0  0  0  0
 30 34  2  0  0  0  0
 30 72  1  0  0  0  0
 31 73  1  0  0  0  0
 32 35  2  0  0  0  0
 32 74  1  0  0  0  0
 33 75  1  0  0  0  0
 34 76  1  0  0  0  0
 35 77  1  0  0  0  0
M  END
> <PUBCHEM_COMPOUND_CID>
442554

> <PUBCHEM_CONFORMER_RMSD>
0.8

> <PUBCHEM_CONFORMER_DIVERSEORDER>
1
7
6
8
5
3
4
2

> <PUBCHEM_MMFF94_PARTIAL_CHARGES>
27
1 -0.46
11 0.23
12 0.27
13 0.27
15 0.27
19 0.45
2 -0.28
21 0.45
27 -0.18
29 -0.18
3 -0.28
30 -0.15
31 -0.01
32 -0.15
33 -0.01
34 -0.01
35 -0.01
4 -0.81
5 -0.81
7 0.23
72 0.15
73 0.15
74 0.15
75 0.15
76 0.15
77 0.15
9 0.27

> <PUBCHEM_EFFECTIVE_ROTOR_COUNT>
5.4

> <PUBCHEM_PHARMACOPHORE_FEATURES>
11
1 2 acceptor
1 3 acceptor
1 4 cation
1 5 cation
5 1 6 7 8 11 rings
5 2 27 30 31 34 rings
5 3 29 32 33 35 rings
6 4 12 18 19 22 23 rings
6 4 6 9 10 12 16 rings
6 5 15 20 21 24 25 rings
6 5 7 13 14 15 17 rings

> <PUBCHEM_HEAVY_ATOM_COUNT>
35

> <PUBCHEM_ATOM_DEF_STEREO_COUNT>
8

> <PUBCHEM_ATOM_UDEF_STEREO_COUNT>
0

> <PUBCHEM_BOND_DEF_STEREO_COUNT>
0

> <PUBCHEM_BOND_UDEF_STEREO_COUNT>
0

> <PUBCHEM_ISOTOPIC_ATOM_COUNT>
0

> <PUBCHEM_COMPONENT_COUNT>
1

> <PUBCHEM_CACTVS_TAUTO_COUNT>
1

> <PUBCHEM_CONFORMER_ID>
0006C0BA00000001

> <PUBCHEM_MMFF94_ENERGY>
63.2721

> <PUBCHEM_FEATURE_SELFOVERLAP>
55.862

> <PUBCHEM_SHAPE_FINGERPRINT>
11093857 51 16686008976799743917
11285246 1 18342167925090471993
11331351 85 16836601314664907362
12156800 1 16885865642365127104
12633046 712 17530966895556409273
13383661 66 17973990770082824774
1361 2 17905890275491458661
14918310 93 15611829495351738763
15001296 14 18411705374543515119
15297060 5 16678399273993018184
15484559 13 16976492824044709535
17909252 39 18334852814401841182
17980427 23 17556057801819308608
1813 80 14707205487687201913
20429585 67 18199463273679927715
20764821 26 15912497955090479180
20775438 99 17976016276839142477
21033648 144 18124861371164918856
22393880 68 18343023323735982924
23559900 14 18262528124790087991
238 59 18412255121841243456
25222932 49 15360556179164279940
25265897 201 18047454906139029149
340366 18 17764318635962553371
354706 35 17627221256760443444
4066623 53 15805826206440265766
4280585 95 18048885383836893586
46194498 28 18408036299641106990
463206 1 18126001555895481181
508706 21 17846484946611671720
6669772 16 17245002432138474496

> <PUBCHEM_SHAPE_MULTIPOLES>
702.43
10.81
5.29
2.78
3.07
2.09
-2
-3.26
7.75
-0.63
2.4
-0.59
-1.36
1.38

> <PUBCHEM_SHAPE_SELFOVERLAP>
1504.837

> <PUBCHEM_SHAPE_VOLUME>
393.8

> <PUBCHEM_COORDINATE_TYPE>
2
5
10

$$$$

