47205305
  -OEChem-06241222583D

 34 35  0     0  0  0  0  0  0999 V2000
   -0.8532   -1.2487    0.7086 O   0  0  0  0  0  0  0  0  0  0  0  0
   -0.2885    1.7060   -1.5599 O   0  0  0  0  0  0  0  0  0  0  0  0
    0.2486    1.5400    0.6897 N   0  0  0  0  0  0  0  0  0  0  0  0
    3.1069    0.2873    1.2191 N   0  0  0  0  0  0  0  0  0  0  0  0
    4.0640   -0.5347    0.7558 N   0  0  0  0  0  0  0  0  0  0  0  0
    1.5522    2.1571    0.5969 C   0  0  0  0  0  0  0  0  0  0  0  0
   -1.8906    0.7374   -0.1479 C   0  0  0  0  0  0  0  0  0  0  0  0
    2.6266    1.1562    0.2838 C   0  0  0  0  0  0  0  0  0  0  0  0
   -1.9772   -0.5414    0.4021 C   0  0  0  0  0  0  0  0  0  0  0  0
   -0.5967    1.3528   -0.4090 C   0  0  0  0  0  0  0  0  0  0  0  0
   -3.0528    1.4440   -0.4570 C   0  0  0  0  0  0  0  0  0  0  0  0
   -3.2262   -1.1138    0.6431 C   0  0  0  0  0  0  0  0  0  0  0  0
    3.3179    0.8840   -0.8715 C   0  0  0  0  0  0  0  0  0  0  0  0
   -4.3018    0.8716   -0.2161 C   0  0  0  0  0  0  0  0  0  0  0  0
   -4.3886   -0.4073    0.3339 C   0  0  0  0  0  0  0  0  0  0  0  0
    4.1885   -0.1655   -0.5217 C   0  0  0  0  0  0  0  0  0  0  0  0
   -0.6755   -2.4999    0.0478 C   0  0  0  0  0  0  0  0  0  0  0  0
    0.7852   -2.7346   -0.1504 C   0  0  0  0  0  0  0  0  0  0  0  0
    1.3612   -2.8905   -1.3475 C   0  0  0  0  0  0  0  0  0  0  0  0
    1.5273    2.9338   -0.1754 H   0  0  0  0  0  0  0  0  0  0  0  0
    1.7562    2.6422    1.5575 H   0  0  0  0  0  0  0  0  0  0  0  0
   -0.0600    1.2263    1.6056 H   0  0  0  0  0  0  0  0  0  0  0  0
   -2.9998    2.4420   -0.8845 H   0  0  0  0  0  0  0  0  0  0  0  0
   -3.3097   -2.1059    1.0783 H   0  0  0  0  0  0  0  0  0  0  0  0
    3.2073    1.3721   -1.8287 H   0  0  0  0  0  0  0  0  0  0  0  0
    2.8274    0.1983    2.1882 H   0  0  0  0  0  0  0  0  0  0  0  0
   -5.2069    1.4220   -0.4560 H   0  0  0  0  0  0  0  0  0  0  0  0
   -5.3612   -0.8521    0.5232 H   0  0  0  0  0  0  0  0  0  0  0  0
    4.9076   -0.6773   -1.1449 H   0  0  0  0  0  0  0  0  0  0  0  0
   -1.0850   -3.2936    0.6825 H   0  0  0  0  0  0  0  0  0  0  0  0
   -1.2068   -2.5183   -0.9128 H   0  0  0  0  0  0  0  0  0  0  0  0
    1.4090   -2.7821    0.7382 H   0  0  0  0  0  0  0  0  0  0  0  0
    2.4297   -3.0590   -1.4247 H   0  0  0  0  0  0  0  0  0  0  0  0
    0.7844   -2.8513   -2.2648 H   0  0  0  0  0  0  0  0  0  0  0  0
  1  9  1  0  0  0  0
  1 17  1  0  0  0  0
  2 10  2  0  0  0  0
  3  6  1  0  0  0  0
  3 10  1  0  0  0  0
  3 22  1  0  0  0  0
  4  5  1  0  0  0  0
  4  8  1  0  0  0  0
  4 26  1  0  0  0  0
  5 16  2  0  0  0  0
  6  8  1  0  0  0  0
  6 20  1  0  0  0  0
  6 21  1  0  0  0  0
  7  9  1  0  0  0  0
  7 10  1  0  0  0  0
  7 11  2  0  0  0  0
  8 13  2  0  0  0  0
  9 12  2  0  0  0  0
 11 14  1  0  0  0  0
 11 23  1  0  0  0  0
 12 15  1  0  0  0  0
 12 24  1  0  0  0  0
 13 16  1  0  0  0  0
 13 25  1  0  0  0  0
 14 15  2  0  0  0  0
 14 27  1  0  0  0  0
 15 28  1  0  0  0  0
 16 29  1  0  0  0  0
 17 18  1  0  0  0  0
 17 30  1  0  0  0  0
 17 31  1  0  0  0  0
 18 19  2  0  0  0  0
 18 32  1  0  0  0  0
 19 33  1  0  0  0  0
 19 34  1  0  0  0  0
M  END
> <PUBCHEM_COMPOUND_CID>
47205305

> <PUBCHEM_CONFORMER_RMSD>
0.8

> <PUBCHEM_CONFORMER_DIVERSEORDER>
2
72
64
29
61
62
71
83
32
78
118
95
42
103
48
49
55
90
52
63
117
113
33
45
51
1
43
110
4
89
82
24
122
119
65
108
58
26
94
28
9
18
56
88
107
105
19
87
35
70
92
75
46
31
84
121
99
111
34
17
59
39
91
85
93
66
114
104
22
20
100
60
69
57
67
21
54
38
101
47
27
81
109
96
50
115
106
10
77
12
112
11
79
74
120
80
40
37
25
13
53
73
102
8
6
3
15
30
116
36
76
97
41
16
5
23
68
7
14
44
98
86

> <PUBCHEM_MMFF94_PARTIAL_CHARGES>
30
1 -0.36
10 0.54
11 -0.15
12 -0.15
13 -0.15
14 -0.15
15 -0.15
16 0.14
17 0.42
18 -0.29
19 -0.3
2 -0.57
22 0.37
23 0.15
24 0.15
25 0.15
26 0.27
27 0.15
28 0.15
29 0.15
3 -0.73
32 0.15
33 0.15
34 0.15
4 0.3
5 -0.71
6 0.48
7 0.09
8 -0.33
9 0.08

> <PUBCHEM_EFFECTIVE_ROTOR_COUNT>
7

> <PUBCHEM_PHARMACOPHORE_FEATURES>
8
1 1 acceptor
1 19 hydrophobe
1 2 acceptor
1 3 donor
1 4 donor
1 5 acceptor
5 4 5 8 13 16 rings
6 7 9 11 12 14 15 rings

> <PUBCHEM_HEAVY_ATOM_COUNT>
19

> <PUBCHEM_ATOM_DEF_STEREO_COUNT>
0

> <PUBCHEM_ATOM_UDEF_STEREO_COUNT>
0

> <PUBCHEM_BOND_DEF_STEREO_COUNT>
0

> <PUBCHEM_BOND_UDEF_STEREO_COUNT>
0

> <PUBCHEM_ISOTOPIC_ATOM_COUNT>
0

> <PUBCHEM_COMPONENT_COUNT>
1

> <PUBCHEM_CACTVS_TAUTO_COUNT>
4

> <PUBCHEM_CONFORMER_ID>
02D04BB900000002

> <PUBCHEM_MMFF94_ENERGY>
41.4065

> <PUBCHEM_FEATURE_SELFOVERLAP>
40.595

> <PUBCHEM_SHAPE_MULTIPOLES>
364.33
7.74
2.91
1.07
0.2
2.05
-0.16
-1.17
0.46
-0.74
-0.55
-0.46
-0.01
0.8

> <PUBCHEM_SHAPE_SELFOVERLAP>
766.801

> <PUBCHEM_SHAPE_VOLUME>
204.6

> <PUBCHEM_COORDINATE_TYPE>
2
5
10

$$$$

