442511
  -OEChem-07051212583D

 58 60  0     1  0  0  0  0  0999 V2000
    0.0434   -1.5860   -0.7730 O   0  0  0  0  0  0  0  0  0  0  0  0
   -1.7550    2.4532    1.1820 O   0  0  0  0  0  0  0  0  0  0  0  0
   -4.4647   -1.4231    0.6238 O   0  0  0  0  0  0  0  0  0  0  0  0
   -1.7171   -3.3355   -1.4580 O   0  0  0  0  0  0  0  0  0  0  0  0
   -5.0982    0.6559    2.1691 O   0  0  0  0  0  0  0  0  0  0  0  0
    1.5666    0.3735   -0.8342 C   0  0  1  0  0  0  0  0  0  0  0  0
    1.3986   -1.1485   -0.5855 C   0  0  1  0  0  0  0  0  0  0  0  0
    0.5237    1.2338   -0.0620 C   0  0  1  0  0  0  0  0  0  0  0  0
    3.0105    0.7995   -0.4772 C   0  0  0  0  0  0  0  0  0  0  0  0
    3.4033    0.4477    0.9760 C   0  0  2  0  0  0  0  0  0  0  0  0
    0.3419    2.5850   -0.7775 C   0  0  0  0  0  0  0  0  0  0  0  0
   -0.7933    0.5160    0.1259 C   0  0  0  0  0  0  0  0  0  0  0  0
    1.8997   -1.5610    0.7799 C   0  0  0  0  0  0  0  0  0  0  0  0
    4.9266    0.4093    1.1128 C   0  0  0  0  0  0  0  0  0  0  0  0
    2.7939   -0.8404    1.4723 C   0  0  0  0  0  0  0  0  0  0  0  0
    2.1898   -1.9653   -1.6278 C   0  0  0  0  0  0  0  0  0  0  0  0
   -0.9500   -0.8206   -0.2400 C   0  0  0  0  0  0  0  0  0  0  0  0
   -0.2039    2.4394   -2.2014 C   0  0  0  0  0  0  0  0  0  0  0  0
   -1.8873    1.1719    0.7190 C   0  0  0  0  0  0  0  0  0  0  0  0
    5.3270    0.2532    2.5768 C   0  0  0  0  0  0  0  0  0  0  0  0
    5.5096   -0.7217    0.2704 C   0  0  0  0  0  0  0  0  0  0  0  0
   -2.1840   -1.4646   -0.0872 C   0  0  0  0  0  0  0  0  0  0  0  0
    0.6909    1.5737   -3.0896 C   0  0  0  0  0  0  0  0  0  0  0  0
   -1.6108    1.8398   -2.1439 C   0  0  0  0  0  0  0  0  0  0  0  0
   -3.1135    0.5263    0.8880 C   0  0  0  0  0  0  0  0  0  0  0  0
   -3.2649   -0.7918    0.4751 C   0  0  0  0  0  0  0  0  0  0  0  0
   -2.3510   -2.8493   -0.5220 C   0  0  0  0  0  0  0  0  0  0  0  0
   -4.2319    1.2295    1.5082 C   0  0  0  0  0  0  0  0  0  0  0  0
    1.5855    0.3575   -1.8823 H   0  0  0  0  0  0  0  0  0  0  0  0
    0.8952    1.4410    0.9486 H   0  0  0  0  0  0  0  0  0  0  0  0
    3.1415    1.8780   -0.6261 H   0  0  0  0  0  0  0  0  0  0  0  0
    3.6817    0.3485   -1.2111 H   0  0  0  0  0  0  0  0  0  0  0  0
    3.0245    1.2482    1.6258 H   0  0  0  0  0  0  0  0  0  0  0  0
   -0.2730    3.2967   -0.2232 H   0  0  0  0  0  0  0  0  0  0  0  0
    1.3167    3.0854   -0.8405 H   0  0  0  0  0  0  0  0  0  0  0  0
    1.5181   -2.4832    1.2104 H   0  0  0  0  0  0  0  0  0  0  0  0
    5.3405    1.3606    0.7539 H   0  0  0  0  0  0  0  0  0  0  0  0
    3.0537   -1.1959    2.4649 H   0  0  0  0  0  0  0  0  0  0  0  0
    1.8510   -1.7379   -2.6458 H   0  0  0  0  0  0  0  0  0  0  0  0
    3.2697   -1.7998   -1.5787 H   0  0  0  0  0  0  0  0  0  0  0  0
    2.0148   -3.0405   -1.4909 H   0  0  0  0  0  0  0  0  0  0  0  0
   -0.2665    3.4446   -2.6376 H   0  0  0  0  0  0  0  0  0  0  0  0
    4.8094    0.9785    3.2135 H   0  0  0  0  0  0  0  0  0  0  0  0
    6.4024    0.4347    2.6883 H   0  0  0  0  0  0  0  0  0  0  0  0
    5.1397   -0.7518    2.9669 H   0  0  0  0  0  0  0  0  0  0  0  0
    5.4230   -0.5481   -0.8044 H   0  0  0  0  0  0  0  0  0  0  0  0
    6.5858   -0.8052    0.4671 H   0  0  0  0  0  0  0  0  0  0  0  0
    5.0769   -1.6999    0.5013 H   0  0  0  0  0  0  0  0  0  0  0  0
    0.3901    0.5219   -3.1689 H   0  0  0  0  0  0  0  0  0  0  0  0
    0.4774    1.9077   -4.1192 H   0  0  0  0  0  0  0  0  0  0  0  0
    1.7590    1.8060   -3.0084 H   0  0  0  0  0  0  0  0  0  0  0  0
   -2.0786    2.0617   -3.1155 H   0  0  0  0  0  0  0  0  0  0  0  0
   -1.6652    0.7545   -2.1100 H   0  0  0  0  0  0  0  0  0  0  0  0
   -2.2656    2.3461   -1.4335 H   0  0  0  0  0  0  0  0  0  0  0  0
   -2.3382    2.5951    1.9451 H   0  0  0  0  0  0  0  0  0  0  0  0
   -3.0874   -3.4670    0.0179 H   0  0  0  0  0  0  0  0  0  0  0  0
   -4.2781    2.3233    1.3776 H   0  0  0  0  0  0  0  0  0  0  0  0
   -4.5716   -2.1038   -0.0598 H   0  0  0  0  0  0  0  0  0  0  0  0
  1  7  1  0  0  0  0
  1 17  1  0  0  0  0
  2 19  1  0  0  0  0
  2 55  1  0  0  0  0
  3 26  1  0  0  0  0
  3 58  1  0  0  0  0
  4 27  2  0  0  0  0
  5 28  2  0  0  0  0
  6  7  1  0  0  0  0
  6  8  1  0  0  0  0
  6  9  1  0  0  0  0
  6 29  1  0  0  0  0
  7 13  1  0  0  0  0
  7 16  1  0  0  0  0
  8 11  1  0  0  0  0
  8 12  1  0  0  0  0
  8 30  1  0  0  0  0
  9 10  1  0  0  0  0
  9 31  1  0  0  0  0
  9 32  1  0  0  0  0
 10 14  1  0  0  0  0
 10 15  1  0  0  0  0
 10 33  1  0  0  0  0
 11 18  1  0  0  0  0
 11 34  1  0  0  0  0
 11 35  1  0  0  0  0
 12 17  1  0  0  0  0
 12 19  2  0  0  0  0
 13 15  2  0  0  0  0
 13 36  1  0  0  0  0
 14 20  1  0  0  0  0
 14 21  1  0  0  0  0
 14 37  1  0  0  0  0
 15 38  1  0  0  0  0
 16 39  1  0  0  0  0
 16 40  1  0  0  0  0
 16 41  1  0  0  0  0
 17 22  2  0  0  0  0
 18 23  1  0  0  0  0
 18 24  1  0  0  0  0
 18 42  1  0  0  0  0
 19 25  1  0  0  0  0
 20 43  1  0  0  0  0
 20 44  1  0  0  0  0
 20 45  1  0  0  0  0
 21 46  1  0  0  0  0
 21 47  1  0  0  0  0
 21 48  1  0  0  0  0
 22 26  1  0  0  0  0
 22 27  1  0  0  0  0
 23 49  1  0  0  0  0
 23 50  1  0  0  0  0
 23 51  1  0  0  0  0
 24 52  1  0  0  0  0
 24 53  1  0  0  0  0
 24 54  1  0  0  0  0
 25 26  2  0  0  0  0
 25 28  1  0  0  0  0
 27 56  1  0  0  0  0
 28 57  1  0  0  0  0
M  END
> <PUBCHEM_COMPOUND_CID>
442511

> <PUBCHEM_CONFORMER_RMSD>
0.8

> <PUBCHEM_CONFORMER_DIVERSEORDER>
1
2

> <PUBCHEM_MMFF94_PARTIAL_CHARGES>
24
1 -0.36
10 0.14
12 -0.14
13 -0.29
15 -0.29
17 0.08
19 0.08
2 -0.53
22 0.09
25 0.09
26 0.08
27 0.42
28 0.42
3 -0.53
36 0.15
38 0.15
4 -0.57
5 -0.57
55 0.45
56 0.06
57 0.06
58 0.45
7 0.42
8 0.14

> <PUBCHEM_EFFECTIVE_ROTOR_COUNT>
5.8

> <PUBCHEM_PHARMACOPHORE_FEATURES>
10
1 1 acceptor
1 2 donor
1 3 donor
1 4 acceptor
1 5 acceptor
3 14 20 21 hydrophobe
3 18 23 24 hydrophobe
6 1 6 7 8 12 17 rings
6 12 17 19 22 25 26 rings
6 6 7 9 10 13 15 rings

> <PUBCHEM_HEAVY_ATOM_COUNT>
28

> <PUBCHEM_ATOM_DEF_STEREO_COUNT>
3

> <PUBCHEM_ATOM_UDEF_STEREO_COUNT>
1

> <PUBCHEM_BOND_DEF_STEREO_COUNT>
0

> <PUBCHEM_BOND_UDEF_STEREO_COUNT>
0

> <PUBCHEM_ISOTOPIC_ATOM_COUNT>
0

> <PUBCHEM_COMPONENT_COUNT>
1

> <PUBCHEM_CACTVS_TAUTO_COUNT>
17

> <PUBCHEM_CONFORMER_ID>
0006C08F00000001

> <PUBCHEM_MMFF94_ENERGY>
137.7363

> <PUBCHEM_FEATURE_SELFOVERLAP>
50.887

> <PUBCHEM_SHAPE_FINGERPRINT>
107951 10 12563171493063632815
11578080 2 17912081960965083356
11595378 159 17845936350781676234
12035758 1 17845090852258069445
12403814 3 18202007637659111137
12422481 6 18341894138279294496
12553582 1 17846770819349874994
12633257 1 18334296452839016640
13009979 54 18195522593255541227
13140716 1 18119246160432998699
133893 2 17486207808002213197
13544653 18 16559040402149129384
13583140 156 17560806549985638073
13692114 37 17554333901465236381
13965767 371 18122897887672744401
14068700 675 17463436939687833367
14081887 123 18113617880521733192
14178342 30 18261670372524260527
14840074 17 18131345276832657532
14955137 171 18199165365678235920
15163728 17 14274000195887983633
15238133 3 16845284008066057037
16945 1 18260823774313666525
17980427 23 18262519191258476101
17980427 26 17315921245556591599
1813 80 17846774109616382564
19319366 153 16468957066214120751
20600515 1 18336257959870358926
20691752 17 18201710782236091666
20739085 24 17988914527569770476
20905425 154 17102552948380683321
21033648 29 18262510532831377945
21304303 282 15334668302415861588
21756936 100 17169286853710382352
22112679 90 18270677567652183430
22149856 69 17828729024642563177
22182313 1 18197779023022684764
23175994 123 16415484830715529973
23419403 2 17469087329731717373
23559900 14 17750493179381607388
238 59 5039682426110081605
25147074 1 18196642996025920023
2748010 2 18124308569644153301
2838139 119 15719396182454870856
3380486 145 18271544068466537284
350125 39 18044078279933828226
3759504 43 5400797306116031596
394222 165 17768205143410949641
4340502 62 17894624889943131433
469060 322 17987260870919151048
484985 159 15409229514500196920
513202 73 17630614633559779874
5951187 136 15726123192769307305
7064713 232 18260823808673580449
7471813 234 17465682090844730015
90316 7 18201731660272350380

> <PUBCHEM_SHAPE_MULTIPOLES>
546.88
8.81
2.91
2.31
5.1
0.16
-0.29
-2.19
7.28
-1.75
-1.97
0.03
0.68
-0.79

> <PUBCHEM_SHAPE_SELFOVERLAP>
1178.462

> <PUBCHEM_SHAPE_VOLUME>
297.6

> <PUBCHEM_COORDINATE_TYPE>
2
5
10

$$$$

