137843
  -OEChem-07051212553D

  8  7  0     0  0  0  0  0  0999 V2000
   -0.6002   -0.0005    0.0000 C   0  0  0  0  0  0  0  0  0  0  0  0
    0.6001   -0.0008    0.0002 C   0  0  0  0  0  0  0  0  0  0  0  0
   -1.9725    0.0000    0.0000 C   0  0  0  0  0  0  0  0  0  0  0  0
    1.9725   -0.0001    0.0001 C   0  0  0  0  0  0  0  0  0  0  0  0
   -3.1726    0.0006   -0.0001 C   0  0  0  0  0  0  0  0  0  0  0  0
    3.1727    0.0007   -0.0002 C   0  0  0  0  0  0  0  0  0  0  0  0
   -4.2376    0.0011   -0.0001 H   0  0  0  0  0  0  0  0  0  0  0  0
    4.2377    0.0014   -0.0004 H   0  0  0  0  0  0  0  0  0  0  0  0
  1  2  3  0  0  0  0
  1  3  1  0  0  0  0
  2  4  1  0  0  0  0
  3  5  3  0  0  0  0
  4  6  3  0  0  0  0
  5  7  1  0  0  0  0
  6  8  1  0  0  0  0
M  END
> <PUBCHEM_COMPOUND_CID>
137843

> <PUBCHEM_CONFORMER_RMSD>
0.4

> <PUBCHEM_CONFORMER_DIVERSEORDER>
1

> <PUBCHEM_MMFF94_PARTIAL_CHARGES>
4
5 -0.18
6 -0.18
7 0.18
8 0.18

> <PUBCHEM_EFFECTIVE_ROTOR_COUNT>
0

> <PUBCHEM_PHARMACOPHORE_FEATURES>
2
1 5 hydrophobe
1 6 hydrophobe

> <PUBCHEM_HEAVY_ATOM_COUNT>
6

> <PUBCHEM_ATOM_DEF_STEREO_COUNT>
0

> <PUBCHEM_ATOM_UDEF_STEREO_COUNT>
0

> <PUBCHEM_BOND_DEF_STEREO_COUNT>
0

> <PUBCHEM_BOND_UDEF_STEREO_COUNT>
0

> <PUBCHEM_ISOTOPIC_ATOM_COUNT>
0

> <PUBCHEM_COMPONENT_COUNT>
1

> <PUBCHEM_CACTVS_TAUTO_COUNT>
1

> <PUBCHEM_CONFORMER_ID>
00021A7300000001

> <PUBCHEM_MMFF94_ENERGY>
-0.2521

> <PUBCHEM_FEATURE_SELFOVERLAP>
10.149

> <PUBCHEM_SHAPE_FINGERPRINT>
11062470 55 18342458144604707933
14325111 11 18342458140299236618
14390081 3 18341898493249661857
29004967 10 18342452651388918290
5460574 1 8286201647357493249

> <PUBCHEM_SHAPE_MULTIPOLES>
123.48
5.39
0.62
0.62
0
0
0
0
0
0
0
0
0
0

> <PUBCHEM_SHAPE_SELFOVERLAP>
231.253

> <PUBCHEM_SHAPE_VOLUME>
75

> <PUBCHEM_COORDINATE_TYPE>
2
5
10

$$$$

