9571
  -OEChem-06261203492D

 37 37  0     1  0  0  0  0  0999 V2000
    8.5991    2.5000    0.0000 Cl  0  0  0  0  0  0  0  0  0  0  0  0
    5.1350    2.5000    0.0000 Cl  0  0  0  0  0  0  0  0  0  0  0  0
    2.5369   -1.0000    0.0000 O   0  0  0  0  0  0  0  0  0  0  0  0
    3.4030    0.5000    0.0000 O   0  0  0  0  0  0  0  0  0  0  0  0
    6.8671    0.5000    0.0000 N   0  0  0  0  0  0  0  0  0  0  0  0
    4.2690   -2.0000    0.0000 N   0  0  0  0  0  0  0  0  0  0  0  0
    6.8671   -0.5000    0.0000 C   0  0  0  0  0  0  0  0  0  0  0  0
    6.0010   -1.0000    0.0000 C   0  0  0  0  0  0  0  0  0  0  0  0
    5.1350   -0.5000    0.0000 C   0  0  0  0  0  0  0  0  0  0  0  0
    7.7331    1.0000    0.0000 C   0  0  0  0  0  0  0  0  0  0  0  0
    6.0010    1.0000    0.0000 C   0  0  0  0  0  0  0  0  0  0  0  0
    4.2690   -1.0000    0.0000 C   0  0  3  0  0  0  0  0  0  0  0  0
    7.7331   -1.0000    0.0000 C   0  0  0  0  0  0  0  0  0  0  0  0
    6.0010   -2.0000    0.0000 C   0  0  0  0  0  0  0  0  0  0  0  0
    7.7331    2.0000    0.0000 C   0  0  0  0  0  0  0  0  0  0  0  0
    6.0010    2.0000    0.0000 C   0  0  0  0  0  0  0  0  0  0  0  0
    7.7331   -2.0000    0.0000 C   0  0  0  0  0  0  0  0  0  0  0  0
    6.8671   -2.5000    0.0000 C   0  0  0  0  0  0  0  0  0  0  0  0
    3.4030   -0.5000    0.0000 C   0  0  0  0  0  0  0  0  0  0  0  0
    5.5335   -0.0251    0.0000 H   0  0  0  0  0  0  0  0  0  0  0  0
    4.7365   -0.0251    0.0000 H   0  0  0  0  0  0  0  0  0  0  0  0
    7.9451    0.4174    0.0000 H   0  0  0  0  0  0  0  0  0  0  0  0
    8.3437    1.1077    0.0000 H   0  0  0  0  0  0  0  0  0  0  0  0
    5.3905    1.1077    0.0000 H   0  0  0  0  0  0  0  0  0  0  0  0
    5.7890    0.4174    0.0000 H   0  0  0  0  0  0  0  0  0  0  0  0
    4.8059   -1.3100    0.0000 H   0  0  0  0  0  0  0  0  0  0  0  0
    8.2700   -0.6900    0.0000 H   0  0  0  0  0  0  0  0  0  0  0  0
    5.4641   -2.3100    0.0000 H   0  0  0  0  0  0  0  0  0  0  0  0
    7.5210    2.5826    0.0000 H   0  0  0  0  0  0  0  0  0  0  0  0
    7.1225    1.8923    0.0000 H   0  0  0  0  0  0  0  0  0  0  0  0
    6.6116    1.8923    0.0000 H   0  0  0  0  0  0  0  0  0  0  0  0
    6.2131    2.5826    0.0000 H   0  0  0  0  0  0  0  0  0  0  0  0
    8.2700   -2.3100    0.0000 H   0  0  0  0  0  0  0  0  0  0  0  0
    6.8671   -3.1200    0.0000 H   0  0  0  0  0  0  0  0  0  0  0  0
    3.7320   -2.3100    0.0000 H   0  0  0  0  0  0  0  0  0  0  0  0
    4.8059   -2.3100    0.0000 H   0  0  0  0  0  0  0  0  0  0  0  0
    2.0000   -0.6900    0.0000 H   0  0  0  0  0  0  0  0  0  0  0  0
  1 15  1  0  0  0  0
  2 16  1  0  0  0  0
  3 19  1  0  0  0  0
  3 37  1  0  0  0  0
  4 19  2  0  0  0  0
  5  7  1  0  0  0  0
  5 10  1  0  0  0  0
  5 11  1  0  0  0  0
  6 12  1  0  0  0  0
  6 35  1  0  0  0  0
  6 36  1  0  0  0  0
  7  8  1  0  0  0  0
  7 13  2  0  0  0  0
  8  9  1  0  0  0  0
  8 14  2  0  0  0  0
  9 12  1  0  0  0  0
  9 20  1  0  0  0  0
  9 21  1  0  0  0  0
 10 15  1  0  0  0  0
 10 22  1  0  0  0  0
 10 23  1  0  0  0  0
 11 16  1  0  0  0  0
 11 24  1  0  0  0  0
 11 25  1  0  0  0  0
 12 19  1  0  0  0  0
 12 26  1  0  0  0  0
 13 17  1  0  0  0  0
 13 27  1  0  0  0  0
 14 18  1  0  0  0  0
 14 28  1  0  0  0  0
 15 29  1  0  0  0  0
 15 30  1  0  0  0  0
 16 31  1  0  0  0  0
 16 32  1  0  0  0  0
 17 18  2  0  0  0  0
 17 33  1  0  0  0  0
 18 34  1  0  0  0  0
M  END
> <PUBCHEM_COMPOUND_CID>
9571

> <PUBCHEM_COMPOUND_CANONICALIZED>
1

> <PUBCHEM_CACTVS_COMPLEXITY>
273

> <PUBCHEM_CACTVS_HBOND_ACCEPTOR>
4

> <PUBCHEM_CACTVS_HBOND_DONOR>
2

> <PUBCHEM_CACTVS_ROTATABLE_BOND>
8

> <PUBCHEM_CACTVS_SUBSKEYS>
AAADceBzMAAGAAAAAAAAAAAAAAAAAAAAAAAwAAAAAAAAAAABAAAAHgIQCAAADCvBmEQwyINAAgCIAiTSSACCAAAhAgAIiIGIZIgKIDLAkZHEYAhkkADIyAeY2aOeAAAAAAACAAAAAAAAAAQAAAAAAAAAAA==

> <PUBCHEM_IUPAC_OPENEYE_NAME>
2-amino-3-[2-[bis(2-chloroethyl)amino]phenyl]propanoic acid

> <PUBCHEM_IUPAC_CAS_NAME>
2-amino-3-[2-[bis(2-chloroethyl)amino]phenyl]propanoic acid

> <PUBCHEM_IUPAC_NAME>
2-amino-3-[2-[bis(2-chloroethyl)amino]phenyl]propanoic acid

> <PUBCHEM_IUPAC_SYSTEMATIC_NAME>
2-azanyl-3-[2-[bis(2-chloroethyl)amino]phenyl]propanoic acid

> <PUBCHEM_IUPAC_TRADITIONAL_NAME>
2-amino-3-[2-[bis(2-chloroethyl)amino]phenyl]propionic acid

> <PUBCHEM_IUPAC_INCHI>
InChI=1S/C13H18Cl2N2O2/c14-5-7-17(8-6-15)12-4-2-1-3-10(12)9-11(16)13(18)19/h1-4,11H,5-9,16H2,(H,18,19)

> <PUBCHEM_IUPAC_INCHIKEY>
ZJHNCWIVJDCKSB-UHFFFAOYSA-N

> <PUBCHEM_XLOGP3_AA>
-0.1

> <PUBCHEM_EXACT_MASS>
304.074533

> <PUBCHEM_MOLECULAR_FORMULA>
C13H18Cl2N2O2

> <PUBCHEM_MOLECULAR_WEIGHT>
305.20022

> <PUBCHEM_OPENEYE_CAN_SMILES>
C1=CC=C(C(=C1)CC(C(=O)O)N)N(CCCl)CCCl

> <PUBCHEM_OPENEYE_ISO_SMILES>
C1=CC=C(C(=C1)CC(C(=O)O)N)N(CCCl)CCCl

> <PUBCHEM_CACTVS_TPSA>
66.6

> <PUBCHEM_MONOISOTOPIC_WEIGHT>
304.074533

> <PUBCHEM_TOTAL_CHARGE>
0

> <PUBCHEM_HEAVY_ATOM_COUNT>
19

> <PUBCHEM_ATOM_DEF_STEREO_COUNT>
0

> <PUBCHEM_ATOM_UDEF_STEREO_COUNT>
1

> <PUBCHEM_BOND_DEF_STEREO_COUNT>
0

> <PUBCHEM_BOND_UDEF_STEREO_COUNT>
0

> <PUBCHEM_ISOTOPIC_ATOM_COUNT>
0

> <PUBCHEM_COMPONENT_COUNT>
1

> <PUBCHEM_CACTVS_TAUTO_COUNT>
1

> <PUBCHEM_COORDINATE_TYPE>
1
5
255

> <PUBCHEM_BONDANNOTATIONS>
13  17  8
14  18  8
17  18  8
12  6  3
7  13  8
7  8  8
8  14  8

$$$$

