440370
  -OEChem-07051212493D

 32 33  0     0  0  0  0  0  0999 V2000
    0.1918   -0.2897    0.5424 O   0  0  0  0  0  0  0  0  0  0  0  0
    4.4365    1.6674   -0.5480 O   0  0  0  0  0  0  0  0  0  0  0  0
    4.1788   -2.8789    0.8510 O   0  0  0  0  0  0  0  0  0  0  0  0
   -4.2901    1.4608    1.6166 O   0  0  0  0  0  0  0  0  0  0  0  0
   -6.0447   -0.1812    0.2194 O   0  0  0  0  0  0  0  0  0  0  0  0
    0.0016   -0.9694   -1.6796 O   0  0  0  0  0  0  0  0  0  0  0  0
    1.5436    2.7917    0.7774 O   0  0  0  0  0  0  0  0  0  0  0  0
    1.2017    2.3137   -1.4182 O   0  0  0  0  0  0  0  0  0  0  0  0
    1.5797   -0.3796    0.4053 C   0  0  0  0  0  0  0  0  0  0  0  0
    2.2979    0.7198   -0.0104 C   0  0  0  0  0  0  0  0  0  0  0  0
   -1.9508   -0.5014   -0.3933 C   0  0  0  0  0  0  0  0  0  0  0  0
    3.6822    0.6078   -0.1401 C   0  0  0  0  0  0  0  0  0  0  0  0
    2.1776   -1.5867    0.6981 C   0  0  0  0  0  0  0  0  0  0  0  0
    3.5619   -1.6988    0.5685 C   0  0  0  0  0  0  0  0  0  0  0  0
    4.3142   -0.6016    0.1494 C   0  0  0  0  0  0  0  0  0  0  0  0
   -0.5175   -0.6173   -0.6111 C   0  0  0  0  0  0  0  0  0  0  0  0
   -2.4449    0.4332    0.5167 C   0  0  0  0  0  0  0  0  0  0  0  0
   -2.8313   -1.3251   -1.0945 C   0  0  0  0  0  0  0  0  0  0  0  0
   -3.8195    0.5443    0.7253 C   0  0  0  0  0  0  0  0  0  0  0  0
   -4.7000   -0.2794    0.0240 C   0  0  0  0  0  0  0  0  0  0  0  0
   -4.2060   -1.2142   -0.8859 C   0  0  0  0  0  0  0  0  0  0  0  0
    1.6373    1.9846   -0.3128 C   0  0  0  0  0  0  0  0  0  0  0  0
    1.5873   -2.4378    1.0248 H   0  0  0  0  0  0  0  0  0  0  0  0
    5.3935   -0.6827    0.0464 H   0  0  0  0  0  0  0  0  0  0  0  0
   -1.7784    1.0950    1.0647 H   0  0  0  0  0  0  0  0  0  0  0  0
   -2.4627   -2.0606   -1.8049 H   0  0  0  0  0  0  0  0  0  0  0  0
   -4.8808   -1.8627   -1.4382 H   0  0  0  0  0  0  0  0  0  0  0  0
    3.8753    2.4419   -0.7139 H   0  0  0  0  0  0  0  0  0  0  0  0
    5.1353   -2.7770    0.7074 H   0  0  0  0  0  0  0  0  0  0  0  0
   -5.2611    1.3999    1.6341 H   0  0  0  0  0  0  0  0  0  0  0  0
   -6.4957   -0.8282   -0.3498 H   0  0  0  0  0  0  0  0  0  0  0  0
    1.0972    3.6395    0.5670 H   0  0  0  0  0  0  0  0  0  0  0  0
  1  9  1  0  0  0  0
  1 16  1  0  0  0  0
  2 12  1  0  0  0  0
  2 28  1  0  0  0  0
  3 14  1  0  0  0  0
  3 29  1  0  0  0  0
  4 19  1  0  0  0  0
  4 30  1  0  0  0  0
  5 20  1  0  0  0  0
  5 31  1  0  0  0  0
  6 16  2  0  0  0  0
  7 22  1  0  0  0  0
  7 32  1  0  0  0  0
  8 22  2  0  0  0  0
  9 10  1  0  0  0  0
  9 13  2  0  0  0  0
 10 12  2  0  0  0  0
 10 22  1  0  0  0  0
 11 16  1  0  0  0  0
 11 17  2  0  0  0  0
 11 18  1  0  0  0  0
 12 15  1  0  0  0  0
 13 14  1  0  0  0  0
 13 23  1  0  0  0  0
 14 15  2  0  0  0  0
 15 24  1  0  0  0  0
 17 19  1  0  0  0  0
 17 25  1  0  0  0  0
 18 21  2  0  0  0  0
 18 26  1  0  0  0  0
 19 20  2  0  0  0  0
 20 21  1  0  0  0  0
 21 27  1  0  0  0  0
M  END
> <PUBCHEM_COMPOUND_CID>
440370

> <PUBCHEM_CONFORMER_RMSD>
0.6

> <PUBCHEM_CONFORMER_DIVERSEORDER>
1
135
99
123
152
43
113
140
136
143
74
105
87
106
45
149
100
153
36
137
50
120
124
51
134
16
66
107
155
37
69
52
79
128
61
154
144
117
139
91
119
56
151
77
138
112
133
13
146
104
39
49
111
110
73
55
84
129
4
93
92
67
68
127
89
132
150
38
14
101
48
109
147
126
58
7
102
70
53
98
96
145
26
97
95
42
30
63
115
2
81
33
72
88
5
116
75
19
121
54
78
80
20
156
65
12
71
76
108
60
131
57
10
157
41
82
85
8
23
34
44
46
3
29
90
122
86
130
142
15
103
17
31
62
125
141
114
11
35
27
47
40
6
118
18
148
25
83
59
22
28
24
21
32
94
64
9

> <PUBCHEM_MMFF94_PARTIAL_CHARGES>
32
1 -0.23
10 0.09
11 0.09
12 0.08
13 -0.15
14 0.08
15 -0.15
16 0.63
17 -0.15
18 -0.15
19 0.08
2 -0.53
20 0.08
21 -0.15
22 0.63
23 0.15
24 0.15
25 0.15
26 0.15
27 0.15
28 0.45
29 0.45
3 -0.53
30 0.45
31 0.45
32 0.5
4 -0.53
5 -0.53
6 -0.57
7 -0.65
8 -0.57
9 0.08

> <PUBCHEM_EFFECTIVE_ROTOR_COUNT>
4

> <PUBCHEM_PHARMACOPHORE_FEATURES>
10
1 2 donor
1 3 donor
1 4 donor
1 5 donor
1 6 acceptor
1 7 acceptor
1 8 acceptor
3 7 8 22 anion
6 11 17 18 19 20 21 rings
6 9 10 12 13 14 15 rings

> <PUBCHEM_HEAVY_ATOM_COUNT>
22

> <PUBCHEM_ATOM_DEF_STEREO_COUNT>
0

> <PUBCHEM_ATOM_UDEF_STEREO_COUNT>
0

> <PUBCHEM_BOND_DEF_STEREO_COUNT>
0

> <PUBCHEM_BOND_UDEF_STEREO_COUNT>
0

> <PUBCHEM_ISOTOPIC_ATOM_COUNT>
0

> <PUBCHEM_COMPONENT_COUNT>
1

> <PUBCHEM_CACTVS_TAUTO_COUNT>
144

> <PUBCHEM_CONFORMER_ID>
0006B83200000001

> <PUBCHEM_MMFF94_ENERGY>
74.2761

> <PUBCHEM_FEATURE_SELFOVERLAP>
50.805

> <PUBCHEM_SHAPE_FINGERPRINT>
10062212 137 18041002821646862303
10354089 29 18411696560964609793
10366900 7 16773800311884589465
11552529 35 18195801869779261211
11578080 2 17899734324936612504
12107183 9 17904198479436084763
12236239 1 18259423026881343866
12553582 1 18198637716325446738
12633257 1 18201447990435807786
12670546 56 18187372008111174953
13009979 54 18114740563814686370
13167823 11 18335422361362264519
13533116 47 18412548687198845787
13583140 156 18271800178073136627
14294032 229 17241036713584352777
14341114 176 18412538800057302419
14386348 63 16343705430594691131
14739800 52 17532108106868941744
14790565 3 18055064368665813780
1601671 61 18040712593431772284
17349148 13 17749395862518724407
17980427 26 17827380790862452228
1813 80 18198896088593496462
19078846 21 18187645820913845344
20233049 118 17458062651257122264
20645477 70 18202570596208112186
20715895 44 17828758783938245273
20739085 24 18341609356415019382
21033648 144 18266470819111349317
21033648 29 17489321763025370253
21065198 48 18408322190086563347
21267235 1 18411414051222943394
21641784 216 17560223852115683612
2255824 54 18269837523720730908
23557571 272 15936396854328195121
23558518 356 17762626088230555590
23559900 14 18059858333682437443
23598291 2 18335711541267574919
312423 11 18336260142241499983
345986 75 18267880556274148074
474 4 18128255579985689781
5104073 3 18334576845557763635
573450 72 17968101940734560827
5895379 119 16371545073252235976
8272917 22 18411417319339738390
84936 182 17899981526011023336
9981440 41 17472149375131451688

> <PUBCHEM_SHAPE_MULTIPOLES>
405.8
10.78
2.34
1.14
7.99
0.57
0.13
-1.67
-1.62
-2.7
-0.15
0.5
0.08
-1.87

> <PUBCHEM_SHAPE_SELFOVERLAP>
890.476

> <PUBCHEM_SHAPE_VOLUME>
216.8

> <PUBCHEM_COORDINATE_TYPE>
2
5
10

$$$$

