9026
  -OEChem-06261203202D

 67 66  0     1  0  0  0  0  0999 V2000
    7.1962   -1.0950    0.0000 O   0  0  0  0  0  0  0  0  0  0  0  0
   17.5885   -0.0950    0.0000 O   0  0  0  0  0  0  0  0  0  0  0  0
   16.7224    1.4050    0.0000 O   0  0  0  0  0  0  0  0  0  0  0  0
    6.3301    0.4050    0.0000 C   0  0  0  0  0  0  0  0  0  0  0  0
    5.4641   -0.0950    0.0000 C   0  0  0  0  0  0  0  0  0  0  0  0
    7.1962   -0.0950    0.0000 C   0  0  3  0  0  0  0  0  0  0  0  0
    4.5981    0.4050    0.0000 C   0  0  0  0  0  0  0  0  0  0  0  0
   12.3923   -0.0950    0.0000 C   0  0  0  0  0  0  0  0  0  0  0  0
   13.2583    0.4050    0.0000 C   0  0  0  0  0  0  0  0  0  0  0  0
   11.5263    0.4050    0.0000 C   0  0  0  0  0  0  0  0  0  0  0  0
   14.1244   -0.0950    0.0000 C   0  0  0  0  0  0  0  0  0  0  0  0
    8.0622    0.4050    0.0000 C   0  0  0  0  0  0  0  0  0  0  0  0
    3.7320   -0.0950    0.0000 C   0  0  0  0  0  0  0  0  0  0  0  0
   10.6603   -0.0950    0.0000 C   0  0  0  0  0  0  0  0  0  0  0  0
   14.9904    0.4050    0.0000 C   0  0  0  0  0  0  0  0  0  0  0  0
    2.8660    0.4050    0.0000 C   0  0  0  0  0  0  0  0  0  0  0  0
    8.9282   -0.0950    0.0000 C   0  0  0  0  0  0  0  0  0  0  0  0
    9.7942    0.4050    0.0000 C   0  0  0  0  0  0  0  0  0  0  0  0
   15.8564   -0.0950    0.0000 C   0  0  0  0  0  0  0  0  0  0  0  0
    2.0000   -0.0950    0.0000 C   0  0  0  0  0  0  0  0  0  0  0  0
   16.7224    0.4050    0.0000 C   0  0  0  0  0  0  0  0  0  0  0  0
   18.4545    0.4050    0.0000 C   0  0  0  0  0  0  0  0  0  0  0  0
   19.3205   -0.0950    0.0000 C   0  0  0  0  0  0  0  0  0  0  0  0
   20.1865    0.4050    0.0000 C   0  0  0  0  0  0  0  0  0  0  0  0
   21.0526   -0.0950    0.0000 C   0  0  0  0  0  0  0  0  0  0  0  0
    6.7287    0.8799    0.0000 H   0  0  0  0  0  0  0  0  0  0  0  0
    5.9316    0.8799    0.0000 H   0  0  0  0  0  0  0  0  0  0  0  0
    5.0656   -0.5699    0.0000 H   0  0  0  0  0  0  0  0  0  0  0  0
    5.8626   -0.5699    0.0000 H   0  0  0  0  0  0  0  0  0  0  0  0
    6.4600   -0.5200    0.0000 H   0  0  0  0  0  0  0  0  0  0  0  0
    4.9966    0.8799    0.0000 H   0  0  0  0  0  0  0  0  0  0  0  0
    4.1996    0.8799    0.0000 H   0  0  0  0  0  0  0  0  0  0  0  0
   11.9938   -0.5699    0.0000 H   0  0  0  0  0  0  0  0  0  0  0  0
   12.7908   -0.5699    0.0000 H   0  0  0  0  0  0  0  0  0  0  0  0
   13.6569    0.8799    0.0000 H   0  0  0  0  0  0  0  0  0  0  0  0
   12.8598    0.8799    0.0000 H   0  0  0  0  0  0  0  0  0  0  0  0
   11.9248    0.8799    0.0000 H   0  0  0  0  0  0  0  0  0  0  0  0
   11.1278    0.8799    0.0000 H   0  0  0  0  0  0  0  0  0  0  0  0
   13.7258   -0.5699    0.0000 H   0  0  0  0  0  0  0  0  0  0  0  0
   14.5229   -0.5699    0.0000 H   0  0  0  0  0  0  0  0  0  0  0  0
    8.4607    0.8799    0.0000 H   0  0  0  0  0  0  0  0  0  0  0  0
    7.6636    0.8799    0.0000 H   0  0  0  0  0  0  0  0  0  0  0  0
    3.3335   -0.5699    0.0000 H   0  0  0  0  0  0  0  0  0  0  0  0
    4.1306   -0.5699    0.0000 H   0  0  0  0  0  0  0  0  0  0  0  0
   10.2617   -0.5699    0.0000 H   0  0  0  0  0  0  0  0  0  0  0  0
   11.0588   -0.5699    0.0000 H   0  0  0  0  0  0  0  0  0  0  0  0
   15.3889    0.8799    0.0000 H   0  0  0  0  0  0  0  0  0  0  0  0
   14.5919    0.8799    0.0000 H   0  0  0  0  0  0  0  0  0  0  0  0
    3.2646    0.8799    0.0000 H   0  0  0  0  0  0  0  0  0  0  0  0
    2.4675    0.8799    0.0000 H   0  0  0  0  0  0  0  0  0  0  0  0
    8.9282   -0.7150    0.0000 H   0  0  0  0  0  0  0  0  0  0  0  0
    9.7942    1.0250    0.0000 H   0  0  0  0  0  0  0  0  0  0  0  0
   15.4579   -0.5699    0.0000 H   0  0  0  0  0  0  0  0  0  0  0  0
   16.2549   -0.5699    0.0000 H   0  0  0  0  0  0  0  0  0  0  0  0
    6.6592   -1.4050    0.0000 H   0  0  0  0  0  0  0  0  0  0  0  0
    1.6900    0.4419    0.0000 H   0  0  0  0  0  0  0  0  0  0  0  0
    1.4631   -0.4050    0.0000 H   0  0  0  0  0  0  0  0  0  0  0  0
    2.3100   -0.6319    0.0000 H   0  0  0  0  0  0  0  0  0  0  0  0
   18.8530    0.8799    0.0000 H   0  0  0  0  0  0  0  0  0  0  0  0
   18.0560    0.8799    0.0000 H   0  0  0  0  0  0  0  0  0  0  0  0
   18.9220   -0.5699    0.0000 H   0  0  0  0  0  0  0  0  0  0  0  0
   19.7190   -0.5699    0.0000 H   0  0  0  0  0  0  0  0  0  0  0  0
   20.5851    0.8799    0.0000 H   0  0  0  0  0  0  0  0  0  0  0  0
   19.7880    0.8799    0.0000 H   0  0  0  0  0  0  0  0  0  0  0  0
   20.7426   -0.6319    0.0000 H   0  0  0  0  0  0  0  0  0  0  0  0
   21.5895   -0.4050    0.0000 H   0  0  0  0  0  0  0  0  0  0  0  0
   21.3626    0.4419    0.0000 H   0  0  0  0  0  0  0  0  0  0  0  0
  1  6  1  0  0  0  0
  1 55  1  0  0  0  0
  2 21  1  0  0  0  0
  2 22  1  0  0  0  0
  3 21  2  0  0  0  0
  4  5  1  0  0  0  0
  4  6  1  0  0  0  0
  4 26  1  0  0  0  0
  4 27  1  0  0  0  0
  5  7  1  0  0  0  0
  5 28  1  0  0  0  0
  5 29  1  0  0  0  0
  6 12  1  0  0  0  0
  6 30  1  0  0  0  0
  7 13  1  0  0  0  0
  7 31  1  0  0  0  0
  7 32  1  0  0  0  0
  8  9  1  0  0  0  0
  8 10  1  0  0  0  0
  8 33  1  0  0  0  0
  8 34  1  0  0  0  0
  9 11  1  0  0  0  0
  9 35  1  0  0  0  0
  9 36  1  0  0  0  0
 10 14  1  0  0  0  0
 10 37  1  0  0  0  0
 10 38  1  0  0  0  0
 11 15  1  0  0  0  0
 11 39  1  0  0  0  0
 11 40  1  0  0  0  0
 12 17  1  0  0  0  0
 12 41  1  0  0  0  0
 12 42  1  0  0  0  0
 13 16  1  0  0  0  0
 13 43  1  0  0  0  0
 13 44  1  0  0  0  0
 14 18  1  0  0  0  0
 14 45  1  0  0  0  0
 14 46  1  0  0  0  0
 15 19  1  0  0  0  0
 15 47  1  0  0  0  0
 15 48  1  0  0  0  0
 16 20  1  0  0  0  0
 16 49  1  0  0  0  0
 16 50  1  0  0  0  0
 17 18  2  3  0  0  0
 17 51  1  0  0  0  0
 18 52  1  0  0  0  0
 19 21  1  0  0  0  0
 19 53  1  0  0  0  0
 19 54  1  0  0  0  0
 20 56  1  0  0  0  0
 20 57  1  0  0  0  0
 20 58  1  0  0  0  0
 22 23  1  0  0  0  0
 22 59  1  0  0  0  0
 22 60  1  0  0  0  0
 23 24  1  0  0  0  0
 23 61  1  0  0  0  0
 23 62  1  0  0  0  0
 24 25  1  0  0  0  0
 24 63  1  0  0  0  0
 24 64  1  0  0  0  0
 25 65  1  0  0  0  0
 25 66  1  0  0  0  0
 25 67  1  0  0  0  0
M  END
> <PUBCHEM_COMPOUND_CID>
9026

> <PUBCHEM_COMPOUND_CANONICALIZED>
1

> <PUBCHEM_CACTVS_COMPLEXITY>
312

> <PUBCHEM_CACTVS_HBOND_ACCEPTOR>
3

> <PUBCHEM_CACTVS_HBOND_DONOR>
1

> <PUBCHEM_CACTVS_ROTATABLE_BOND>
19

> <PUBCHEM_CACTVS_SUBSKEYS>
AAADcfB4MAAAAAAAAAAAAAAAAAAAAAAAAAAAAAAAAAAAAAAAAAAAGgAACAAACBSggAICCAAABgCIACDSCAAAAAAgAAAICAEAAAgAEBIAAQACQAAEwAAIAAOIyKCAAAAAAAAAAAAAAAAAAAAAAAAAAAAAAA==

> <PUBCHEM_IUPAC_OPENEYE_NAME>
butyl 12-hydroxyoctadec-9-enoate

> <PUBCHEM_IUPAC_CAS_NAME>
12-hydroxy-9-octadecenoic acid butyl ester

> <PUBCHEM_IUPAC_NAME>
butyl 12-hydroxyoctadec-9-enoate

> <PUBCHEM_IUPAC_SYSTEMATIC_NAME>
butyl 12-oxidanyloctadec-9-enoate

> <PUBCHEM_IUPAC_TRADITIONAL_NAME>
12-hydroxyoctadec-9-enoic acid butyl ester

> <PUBCHEM_IUPAC_INCHI>
InChI=1S/C22H42O3/c1-3-5-7-14-17-21(23)18-15-12-10-8-9-11-13-16-19-22(24)25-20-6-4-2/h12,15,21,23H,3-11,13-14,16-20H2,1-2H3

> <PUBCHEM_IUPAC_INCHIKEY>
HGWAKQDTQVDVRP-UHFFFAOYSA-N

> <PUBCHEM_XLOGP3_AA>
7.3

> <PUBCHEM_EXACT_MASS>
354.313395

> <PUBCHEM_MOLECULAR_FORMULA>
C22H42O3

> <PUBCHEM_MOLECULAR_WEIGHT>
354.56708

> <PUBCHEM_OPENEYE_CAN_SMILES>
CCCCCCC(CC=CCCCCCCCC(=O)OCCCC)O

> <PUBCHEM_OPENEYE_ISO_SMILES>
CCCCCCC(CC=CCCCCCCCC(=O)OCCCC)O

> <PUBCHEM_CACTVS_TPSA>
46.5

> <PUBCHEM_MONOISOTOPIC_WEIGHT>
354.313395

> <PUBCHEM_TOTAL_CHARGE>
0

> <PUBCHEM_HEAVY_ATOM_COUNT>
25

> <PUBCHEM_ATOM_DEF_STEREO_COUNT>
0

> <PUBCHEM_ATOM_UDEF_STEREO_COUNT>
1

> <PUBCHEM_BOND_DEF_STEREO_COUNT>
0

> <PUBCHEM_BOND_UDEF_STEREO_COUNT>
1

> <PUBCHEM_ISOTOPIC_ATOM_COUNT>
0

> <PUBCHEM_COMPONENT_COUNT>
1

> <PUBCHEM_CACTVS_TAUTO_COUNT>
1

> <PUBCHEM_COORDINATE_TYPE>
1
5
255

> <PUBCHEM_BONDANNOTATIONS>
17  18  1
6  30  3

$$$$

