11954090
  -OEChem-07051213062D

 55 58  0     1  0  0  0  0  0999 V2000
    9.1493    1.4410    0.0000 O   0  0  0  0  0  0  0  0  0  0  0  0
    2.0000   -2.5024    0.0000 O   0  0  0  0  0  0  0  0  0  0  0  0
    7.3931    0.5499    0.0000 C   0  0  1  0  0  0  0  0  0  0  0  0
    7.3931   -0.4501    0.0000 C   0  0  2  0  0  0  0  0  0  0  0  0
    6.5271   -0.9501    0.0000 C   0  0  1  0  0  0  0  0  0  0  0  0
    5.6610   -0.4501    0.0000 C   0  0  1  0  0  0  0  0  0  0  0  0
    8.3393    0.8547    0.0000 C   0  0  2  0  0  0  0  0  0  0  0  0
    4.7510   -0.9569    0.0000 C   0  0  1  0  0  0  0  0  0  0  0  0
    6.5271    1.0499    0.0000 C   0  0  0  0  0  0  0  0  0  0  0  0
    8.3393   -0.7548    0.0000 C   0  0  0  0  0  0  0  0  0  0  0  0
    5.6610    0.5499    0.0000 C   0  0  0  0  0  0  0  0  0  0  0  0
    6.5431   -1.9916    0.0000 C   0  0  0  0  0  0  0  0  0  0  0  0
    8.9229    0.0499    0.0000 C   0  0  0  0  0  0  0  0  0  0  0  0
    4.7430   -1.9985    0.0000 C   0  0  1  0  0  0  0  0  0  0  0  0
    5.6451   -2.5193    0.0000 C   0  0  0  0  0  0  0  0  0  0  0  0
    7.3931    1.5499    0.0000 C   0  0  0  0  0  0  0  0  0  0  0  0
    8.0319    1.8062    0.0000 C   0  0  0  0  0  0  0  0  0  0  0  0
    4.7587    0.0431    0.0000 C   0  0  0  0  0  0  0  0  0  0  0  0
    3.8242   -0.3928    0.0000 C   0  0  0  0  0  0  0  0  0  0  0  0
    3.8076   -2.5482    0.0000 C   0  0  0  0  0  0  0  0  0  0  0  0
    2.8763   -0.9208    0.0000 C   0  0  0  0  0  0  0  0  0  0  0  0
    2.8680   -2.0057    0.0000 C   0  0  0  0  0  0  0  0  0  0  0  0
    8.7023    2.5482    0.0000 C   0  0  0  0  0  0  0  0  0  0  0  0
    7.4830   -1.2953    0.0000 H   0  0  0  0  0  0  0  0  0  0  0  0
    7.2664   -1.3694    0.0000 H   0  0  0  0  0  0  0  0  0  0  0  0
    6.3972   -0.0251    0.0000 H   0  0  0  0  0  0  0  0  0  0  0  0
    6.9256    1.5249    0.0000 H   0  0  0  0  0  0  0  0  0  0  0  0
    6.1285    1.5249    0.0000 H   0  0  0  0  0  0  0  0  0  0  0  0
    8.0883   -1.3217    0.0000 H   0  0  0  0  0  0  0  0  0  0  0  0
    8.8767   -1.0640    0.0000 H   0  0  0  0  0  0  0  0  0  0  0  0
    5.4490    1.1325    0.0000 H   0  0  0  0  0  0  0  0  0  0  0  0
    5.0504    0.4423    0.0000 H   0  0  0  0  0  0  0  0  0  0  0  0
    6.7612   -2.5720    0.0000 H   0  0  0  0  0  0  0  0  0  0  0  0
    7.1523   -1.8761    0.0000 H   0  0  0  0  0  0  0  0  0  0  0  0
    9.3838   -0.3648    0.0000 H   0  0  0  0  0  0  0  0  0  0  0  0
    9.3838    0.4647    0.0000 H   0  0  0  0  0  0  0  0  0  0  0  0
    4.7463   -2.8485    0.0000 H   0  0  0  0  0  0  0  0  0  0  0  0
    5.2478   -2.9953    0.0000 H   0  0  0  0  0  0  0  0  0  0  0  0
    6.0460   -2.9922    0.0000 H   0  0  0  0  0  0  0  0  0  0  0  0
    8.0131    1.5499    0.0000 H   0  0  0  0  0  0  0  0  0  0  0  0
    7.3931    2.1699    0.0000 H   0  0  0  0  0  0  0  0  0  0  0  0
    6.7731    1.5499    0.0000 H   0  0  0  0  0  0  0  0  0  0  0  0
    7.6511    2.2955    0.0000 H   0  0  0  0  0  0  0  0  0  0  0  0
    7.4840    1.5161    0.0000 H   0  0  0  0  0  0  0  0  0  0  0  0
    5.3787    0.0383    0.0000 H   0  0  0  0  0  0  0  0  0  0  0  0
    4.7635    0.6630    0.0000 H   0  0  0  0  0  0  0  0  0  0  0  0
    4.1388    0.0478    0.0000 H   0  0  0  0  0  0  0  0  0  0  0  0
    3.8361    0.2271    0.0000 H   0  0  0  0  0  0  0  0  0  0  0  0
    3.4103   -3.0242    0.0000 H   0  0  0  0  0  0  0  0  0  0  0  0
    4.2085   -3.0211    0.0000 H   0  0  0  0  0  0  0  0  0  0  0  0
    9.7153    1.1879    0.0000 H   0  0  0  0  0  0  0  0  0  0  0  0
    2.3430   -0.6046    0.0000 H   0  0  0  0  0  0  0  0  0  0  0  0
    9.1624    2.1326    0.0000 H   0  0  0  0  0  0  0  0  0  0  0  0
    9.1180    3.0083    0.0000 H   0  0  0  0  0  0  0  0  0  0  0  0
    8.2423    2.9639    0.0000 H   0  0  0  0  0  0  0  0  0  0  0  0
  7  1  1  1  0  0  0
  1 51  1  0  0  0  0
  2 22  2  0  0  0  0
  3  4  1  0  0  0  0
  3  7  1  0  0  0  0
  3  9  1  0  0  0  0
  3 16  1  1  0  0  0
  4  5  1  0  0  0  0
  4 10  1  0  0  0  0
  4 24  1  6  0  0  0
  5  6  1  0  0  0  0
  5 12  1  0  0  0  0
  5 25  1  1  0  0  0
  6  8  1  0  0  0  0
  6 11  1  0  0  0  0
  6 26  1  6  0  0  0
  7 13  1  0  0  0  0
  7 17  1  0  0  0  0
  8 14  1  0  0  0  0
  8 18  1  1  0  0  0
  8 19  1  0  0  0  0
  9 11  1  0  0  0  0
  9 27  1  0  0  0  0
  9 28  1  0  0  0  0
 10 13  1  0  0  0  0
 10 29  1  0  0  0  0
 10 30  1  0  0  0  0
 11 31  1  0  0  0  0
 11 32  1  0  0  0  0
 12 15  1  0  0  0  0
 12 33  1  0  0  0  0
 12 34  1  0  0  0  0
 13 35  1  0  0  0  0
 13 36  1  0  0  0  0
 14 15  1  0  0  0  0
 14 20  1  0  0  0  0
 14 37  1  6  0  0  0
 15 38  1  0  0  0  0
 15 39  1  0  0  0  0
 16 40  1  0  0  0  0
 16 41  1  0  0  0  0
 16 42  1  0  0  0  0
 17 23  1  0  0  0  0
 17 43  1  0  0  0  0
 17 44  1  0  0  0  0
 18 45  1  0  0  0  0
 18 46  1  0  0  0  0
 18 47  1  0  0  0  0
 19 21  2  0  0  0  0
 19 48  1  0  0  0  0
 20 22  1  0  0  0  0
 20 49  1  0  0  0  0
 20 50  1  0  0  0  0
 21 22  1  0  0  0  0
 21 52  1  0  0  0  0
 23 53  1  0  0  0  0
 23 54  1  0  0  0  0
 23 55  1  0  0  0  0
M  END
> <PUBCHEM_COMPOUND_CID>
11954090

> <PUBCHEM_COMPOUND_CANONICALIZED>
1

> <PUBCHEM_CACTVS_COMPLEXITY>
552

> <PUBCHEM_CACTVS_HBOND_ACCEPTOR>
2

> <PUBCHEM_CACTVS_HBOND_DONOR>
1

> <PUBCHEM_CACTVS_ROTATABLE_BOND>
1

> <PUBCHEM_CACTVS_SUBSKEYS>
AAADcfB4MAAAAAAAAAAAAAAAAAAAAYAAAAAwYIAAAAAAAGDAAAAAGgAACAAAD0SAgAACAAAAAgCIAKBSAAAAAAAgAAAICAEAAEgAABIAAAAAQAAEgAAIAYOIyPCPgAAAAAAAAACAAAQAACAAAYAADAAAAA==

> <PUBCHEM_IUPAC_OPENEYE_NAME>
(5S,8R,9S,10R,13S,14S,17S)-17-ethyl-17-hydroxy-10,13-dimethyl-5,6,7,8,9,11,12,14,15,16-decahydro-4H-cyclopenta[a]phenanthren-3-one

> <PUBCHEM_IUPAC_CAS_NAME>
(5S,8R,9S,10R,13S,14S,17S)-17-ethyl-17-hydroxy-10,13-dimethyl-5,6,7,8,9,11,12,14,15,16-decahydro-4H-cyclopenta[a]phenanthren-3-one

> <PUBCHEM_IUPAC_NAME>
(5S,8R,9S,10R,13S,14S,17S)-17-ethyl-17-hydroxy-10,13-dimethyl-5,6,7,8,9,11,12,14,15,16-decahydro-4H-cyclopenta[a]phenanthren-3-one

> <PUBCHEM_IUPAC_SYSTEMATIC_NAME>
(5S,8R,9S,10R,13S,14S,17S)-17-ethyl-10,13-dimethyl-17-oxidanyl-5,6,7,8,9,11,12,14,15,16-decahydro-4H-cyclopenta[a]phenanthren-3-one

> <PUBCHEM_IUPAC_TRADITIONAL_NAME>
(5S,8R,9S,10R,13S,14S,17S)-17-ethyl-17-hydroxy-10,13-dimethyl-5,6,7,8,9,11,12,14,15,16-decahydro-4H-cyclopenta[a]phenanthren-3-one

> <PUBCHEM_IUPAC_INCHI>
InChI=1S/C21H32O2/c1-4-21(23)12-9-18-16-6-5-14-13-15(22)7-10-19(14,2)17(16)8-11-20(18,21)3/h7,10,14,16-18,23H,4-6,8-9,11-13H2,1-3H3/t14-,16+,17-,18-,19-,20-,21-/m0/s1

> <PUBCHEM_IUPAC_INCHIKEY>
WPYJZLXFDIBWTK-JJFNZWTKSA-N

> <PUBCHEM_XLOGP3_AA>
4.7

> <PUBCHEM_EXACT_MASS>
316.24023

> <PUBCHEM_MOLECULAR_FORMULA>
C21H32O2

> <PUBCHEM_MOLECULAR_WEIGHT>
316.47758

> <PUBCHEM_OPENEYE_CAN_SMILES>
CCC1(CCC2C1(CCC3C2CCC4C3(C=CC(=O)C4)C)C)O

> <PUBCHEM_OPENEYE_ISO_SMILES>
CC[C@@]1(CC[C@@H]2[C@@]1(CC[C@H]3[C@H]2CC[C@@H]4[C@@]3(C=CC(=O)C4)C)C)O

> <PUBCHEM_CACTVS_TPSA>
37.3

> <PUBCHEM_MONOISOTOPIC_WEIGHT>
316.24023

> <PUBCHEM_TOTAL_CHARGE>
0

> <PUBCHEM_HEAVY_ATOM_COUNT>
23

> <PUBCHEM_ATOM_DEF_STEREO_COUNT>
7

> <PUBCHEM_ATOM_UDEF_STEREO_COUNT>
0

> <PUBCHEM_BOND_DEF_STEREO_COUNT>
0

> <PUBCHEM_BOND_UDEF_STEREO_COUNT>
0

> <PUBCHEM_ISOTOPIC_ATOM_COUNT>
0

> <PUBCHEM_COMPONENT_COUNT>
1

> <PUBCHEM_CACTVS_TAUTO_COUNT>
2

> <PUBCHEM_COORDINATE_TYPE>
1
5
255

> <PUBCHEM_BONDANNOTATIONS>
7  1  5
14  37  6
3  16  5
4  24  6
5  25  5
6  26  6
8  18  5

$$$$

