10931527
  -OEChem-07051213052D

 16 16  0     1  0  0  0  0  0999 V2000
    3.7601   -0.9630    0.0000 O   0  0  0  0  0  0  0  0  0  0  0  0
    7.2144   -0.3241    0.0000 O   0  0  0  0  0  0  0  0  0  0  0  0
    2.0000   -0.6843    0.0000 O   0  0  0  0  0  0  0  0  0  0  0  0
    6.0554    0.9630    0.0000 O   0  0  0  0  0  0  0  0  0  0  0  0
    4.5691   -0.3752    0.0000 C   0  0  1  0  0  0  0  0  0  0  0  0
    5.5202   -0.6843    0.0000 C   0  0  0  0  0  0  0  0  0  0  0  0
    4.2601    0.5758    0.0000 C   0  0  0  0  0  0  0  0  0  0  0  0
    3.2601    0.5758    0.0000 C   0  0  0  0  0  0  0  0  0  0  0  0
    2.9511   -0.3752    0.0000 C   0  0  0  0  0  0  0  0  0  0  0  0
    6.2633   -0.0151    0.0000 C   0  0  0  0  0  0  0  0  0  0  0  0
    4.6661   -0.9876    0.0000 H   0  0  0  0  0  0  0  0  0  0  0  0
    5.2291   -1.2317    0.0000 H   0  0  0  0  0  0  0  0  0  0  0  0
    6.0087   -1.0660    0.0000 H   0  0  0  0  0  0  0  0  0  0  0  0
    4.6245    1.0774    0.0000 H   0  0  0  0  0  0  0  0  0  0  0  0
    2.8956    1.0774    0.0000 H   0  0  0  0  0  0  0  0  0  0  0  0
    7.6751    0.0907    0.0000 H   0  0  0  0  0  0  0  0  0  0  0  0
  1  5  1  0  0  0  0
  1  9  1  0  0  0  0
  2 10  1  0  0  0  0
  2 16  1  0  0  0  0
  3  9  2  0  0  0  0
  4 10  2  0  0  0  0
  5  6  1  6  0  0  0
  5  7  1  0  0  0  0
  5 11  1  0  0  0  0
  6 10  1  0  0  0  0
  6 12  1  0  0  0  0
  6 13  1  0  0  0  0
  7  8  2  0  0  0  0
  7 14  1  0  0  0  0
  8  9  1  0  0  0  0
  8 15  1  0  0  0  0
M  END
> <PUBCHEM_COMPOUND_CID>
10931527

> <PUBCHEM_COMPOUND_CANONICALIZED>
1

> <PUBCHEM_CACTVS_COMPLEXITY>
194

> <PUBCHEM_CACTVS_HBOND_ACCEPTOR>
4

> <PUBCHEM_CACTVS_HBOND_DONOR>
1

> <PUBCHEM_CACTVS_ROTATABLE_BOND>
2

> <PUBCHEM_CACTVS_SUBSKEYS>
AAADcYBgOAAAAAAAAAAAAAAAAAAAAQAAAAAAAAAAAAAAAAAAAAAAGgAACAAACBSggAIACAAABgCIACDSCAAAAAAgAAAICAEAAEgABBQAIQACUAAFoAAIIYIAAAAAAAAAAAAAAAAAAAAAAAAAAAAAAAAAAA==

> <PUBCHEM_IUPAC_OPENEYE_NAME>
2-[(2S)-5-oxo-2H-furan-2-yl]acetic acid

> <PUBCHEM_IUPAC_CAS_NAME>
2-[(2S)-5-oxo-2H-furan-2-yl]acetic acid

> <PUBCHEM_IUPAC_NAME>
2-[(2S)-5-oxo-2H-furan-2-yl]acetic acid

> <PUBCHEM_IUPAC_SYSTEMATIC_NAME>
2-[(2S)-5-oxidanylidene-2H-furan-2-yl]ethanoic acid

> <PUBCHEM_IUPAC_TRADITIONAL_NAME>
2-[(2S)-5-keto-2H-furan-2-yl]acetic acid

> <PUBCHEM_IUPAC_INCHI>
InChI=1S/C6H6O4/c7-5(8)3-4-1-2-6(9)10-4/h1-2,4H,3H2,(H,7,8)/t4-/m1/s1

> <PUBCHEM_IUPAC_INCHIKEY>
HPEKPJGPWNSAAV-SCSAIBSYSA-N

> <PUBCHEM_XLOGP3_AA>
-0.2

> <PUBCHEM_EXACT_MASS>
142.026609

> <PUBCHEM_MOLECULAR_FORMULA>
C6H6O4

> <PUBCHEM_MOLECULAR_WEIGHT>
142.10944

> <PUBCHEM_OPENEYE_CAN_SMILES>
C1=CC(=O)OC1CC(=O)O

> <PUBCHEM_OPENEYE_ISO_SMILES>
C1=CC(=O)O[C@H]1CC(=O)O

> <PUBCHEM_CACTVS_TPSA>
63.6

> <PUBCHEM_MONOISOTOPIC_WEIGHT>
142.026609

> <PUBCHEM_TOTAL_CHARGE>
0

> <PUBCHEM_HEAVY_ATOM_COUNT>
10

> <PUBCHEM_ATOM_DEF_STEREO_COUNT>
1

> <PUBCHEM_ATOM_UDEF_STEREO_COUNT>
0

> <PUBCHEM_BOND_DEF_STEREO_COUNT>
0

> <PUBCHEM_BOND_UDEF_STEREO_COUNT>
0

> <PUBCHEM_ISOTOPIC_ATOM_COUNT>
0

> <PUBCHEM_COMPONENT_COUNT>
1

> <PUBCHEM_CACTVS_TAUTO_COUNT>
1

> <PUBCHEM_COORDINATE_TYPE>
1
5
255

> <PUBCHEM_BONDANNOTATIONS>
5  6  6

$$$$

