15420
  -OEChem-07051213053D

 25 25  0     0  0  0  0  0  0999 V2000
   -4.0156    0.0339    0.6606 O   0  0  0  0  0  0  0  0  0  0  0  0
    2.3396   -0.0209    0.2504 C   0  0  0  0  0  0  0  0  0  0  0  0
    1.3908   -0.0436   -0.9501 C   0  0  0  0  0  0  0  0  0  0  0  0
    3.8006   -0.0058   -0.1986 C   0  0  0  0  0  0  0  0  0  0  0  0
   -0.0535   -0.0227   -0.5195 C   0  0  0  0  0  0  0  0  0  0  0  0
    4.7481    0.0578    0.9888 C   0  0  0  0  0  0  0  0  0  0  0  0
   -0.7149   -1.2208   -0.2956 C   0  0  0  0  0  0  0  0  0  0  0  0
   -0.6977    1.1943   -0.3546 C   0  0  0  0  0  0  0  0  0  0  0  0
   -2.0516   -1.2015    0.1026 C   0  0  0  0  0  0  0  0  0  0  0  0
   -2.0344    1.2138    0.0437 C   0  0  0  0  0  0  0  0  0  0  0  0
   -2.7113    0.0157    0.2723 C   0  0  0  0  0  0  0  0  0  0  0  0
    2.1591   -0.8964    0.8870 H   0  0  0  0  0  0  0  0  0  0  0  0
    2.1379    0.8642    0.8671 H   0  0  0  0  0  0  0  0  0  0  0  0
    1.5797   -0.9345   -1.5629 H   0  0  0  0  0  0  0  0  0  0  0  0
    1.5893    0.8149   -1.6047 H   0  0  0  0  0  0  0  0  0  0  0  0
    4.0183   -0.9049   -0.7866 H   0  0  0  0  0  0  0  0  0  0  0  0
    3.9822    0.8587   -0.8477 H   0  0  0  0  0  0  0  0  0  0  0  0
    4.6140   -0.8087    1.6443 H   0  0  0  0  0  0  0  0  0  0  0  0
    4.5784    0.9645    1.5782 H   0  0  0  0  0  0  0  0  0  0  0  0
    5.7870    0.0659    0.6446 H   0  0  0  0  0  0  0  0  0  0  0  0
   -0.2091   -2.1736   -0.4231 H   0  0  0  0  0  0  0  0  0  0  0  0
   -0.1785    2.1325   -0.5284 H   0  0  0  0  0  0  0  0  0  0  0  0
   -2.5675   -2.1417    0.2779 H   0  0  0  0  0  0  0  0  0  0  0  0
   -2.5428    2.1651    0.1745 H   0  0  0  0  0  0  0  0  0  0  0  0
   -4.3239   -0.8818    0.7729 H   0  0  0  0  0  0  0  0  0  0  0  0
  1 11  1  0  0  0  0
  1 25  1  0  0  0  0
  2  3  1  0  0  0  0
  2  4  1  0  0  0  0
  2 12  1  0  0  0  0
  2 13  1  0  0  0  0
  3  5  1  0  0  0  0
  3 14  1  0  0  0  0
  3 15  1  0  0  0  0
  4  6  1  0  0  0  0
  4 16  1  0  0  0  0
  4 17  1  0  0  0  0
  5  7  2  0  0  0  0
  5  8  1  0  0  0  0
  6 18  1  0  0  0  0
  6 19  1  0  0  0  0
  6 20  1  0  0  0  0
  7  9  1  0  0  0  0
  7 21  1  0  0  0  0
  8 10  2  0  0  0  0
  8 22  1  0  0  0  0
  9 11  2  0  0  0  0
  9 23  1  0  0  0  0
 10 11  1  0  0  0  0
 10 24  1  0  0  0  0
M  END
> <PUBCHEM_COMPOUND_CID>
15420

> <PUBCHEM_CONFORMER_RMSD>
0.6

> <PUBCHEM_CONFORMER_DIVERSEORDER>
1
3
2
4

> <PUBCHEM_MMFF94_PARTIAL_CHARGES>
13
1 -0.53
10 -0.15
11 0.08
21 0.15
22 0.15
23 0.15
24 0.15
25 0.45
3 0.14
5 -0.14
7 -0.15
8 -0.15
9 -0.15

> <PUBCHEM_EFFECTIVE_ROTOR_COUNT>
3

> <PUBCHEM_PHARMACOPHORE_FEATURES>
3
1 1 donor
1 6 hydrophobe
6 5 7 8 9 10 11 rings

> <PUBCHEM_HEAVY_ATOM_COUNT>
11

> <PUBCHEM_ATOM_DEF_STEREO_COUNT>
0

> <PUBCHEM_ATOM_UDEF_STEREO_COUNT>
0

> <PUBCHEM_BOND_DEF_STEREO_COUNT>
0

> <PUBCHEM_BOND_UDEF_STEREO_COUNT>
0

> <PUBCHEM_ISOTOPIC_ATOM_COUNT>
0

> <PUBCHEM_COMPONENT_COUNT>
1

> <PUBCHEM_CACTVS_TAUTO_COUNT>
2

> <PUBCHEM_CONFORMER_ID>
00003C3C00000001

> <PUBCHEM_MMFF94_ENERGY>
17.1996

> <PUBCHEM_FEATURE_SELFOVERLAP>
15.223

> <PUBCHEM_SHAPE_FINGERPRINT>
11062470 55 16732698359050145235
11132069 177 18334292067444889222
11401426 45 18409169918152345277
12119455 92 17240767314889379869
12251169 10 18411138022132589988
13024252 1 14549020996272569045
13214271 11 17022625251663224845
13897977 58 18339075995883857820
15219456 202 17968934322433729974
16945 1 18339062853209708887
17846911 113 18259984889865108873
200 152 15051737486452615096
20528008 55 18261115162016938820
20645464 45 17967530172806780726
20645477 70 13830140507603669128
20871998 184 18188203200337219903
21119208 17 7060378124151825712
21293036 1 8358258129104451543
22485316 2 15051734175101395272
22926399 37 14417854730651105634
23402539 116 18334304162695248253
23403322 49 12894806873549869808
2748010 2 17980182399711389975
369184 2 18334858328997482775
42 15 18273215322304647314

> <PUBCHEM_SHAPE_MULTIPOLES>
220.51
7.38
1.15
0.87
6.75
0
0
-0.13
-2.73
-0.77
0.06
0.37
0
0.03

> <PUBCHEM_SHAPE_SELFOVERLAP>
442.691

> <PUBCHEM_SHAPE_VOLUME>
130.9

> <PUBCHEM_COORDINATE_TYPE>
2
5
10

$$$$

