3035905
  -OEChem-07051213113D

 44 46  0     0  0  0  0  0  0999 V2000
   -1.4068   -2.4356    1.0188 S   0  0  0  0  0  0  0  0  0  0  0  0
   -0.1566   -0.5511   -0.3497 N   0  0  0  0  0  0  0  0  0  0  0  0
   -2.3561   -0.0659    0.2673 N   0  0  0  0  0  0  0  0  0  0  0  0
    4.4515    0.0484    1.0539 N   0  0  0  0  0  0  0  0  0  0  0  0
    6.2730    0.6994   -0.0370 N   0  0  0  0  0  0  0  0  0  0  0  0
   -3.6519   -0.2895    0.8688 C   0  0  0  0  0  0  0  0  0  0  0  0
    2.6281    0.1093   -0.6892 C   0  0  0  0  0  0  0  0  0  0  0  0
   -4.2577    1.0235    1.3760 C   0  0  0  0  0  0  0  0  0  0  0  0
   -4.5978   -0.9970   -0.1075 C   0  0  0  0  0  0  0  0  0  0  0  0
    1.6614    1.0565    0.0479 C   0  0  0  0  0  0  0  0  0  0  0  0
    2.1589   -1.3527   -0.5577 C   0  0  0  0  0  0  0  0  0  0  0  0
    0.2250    0.8536   -0.4301 C   0  0  0  0  0  0  0  0  0  0  0  0
    0.7126   -1.5079   -1.0239 C   0  0  0  0  0  0  0  0  0  0  0  0
   -4.7167    1.9342    0.2373 C   0  0  0  0  0  0  0  0  0  0  0  0
   -5.0562   -0.0830   -1.2439 C   0  0  0  0  0  0  0  0  0  0  0  0
   -5.6655    1.2116   -0.7142 C   0  0  0  0  0  0  0  0  0  0  0  0
   -1.2963   -0.9427    0.2722 C   0  0  0  0  0  0  0  0  0  0  0  0
    4.0655    0.2905   -0.2265 C   0  0  0  0  0  0  0  0  0  0  0  0
    5.1937    0.6897   -0.8847 C   0  0  0  0  0  0  0  0  0  0  0  0
    5.7919    0.3087    1.1223 C   0  0  0  0  0  0  0  0  0  0  0  0
   -3.5317   -0.9258    1.7516 H   0  0  0  0  0  0  0  0  0  0  0  0
    2.6014    0.3725   -1.7568 H   0  0  0  0  0  0  0  0  0  0  0  0
   -3.5340    1.5603    2.0012 H   0  0  0  0  0  0  0  0  0  0  0  0
   -5.1218    0.7960    2.0135 H   0  0  0  0  0  0  0  0  0  0  0  0
   -5.4834   -1.3394    0.4435 H   0  0  0  0  0  0  0  0  0  0  0  0
   -4.1314   -1.8911   -0.5359 H   0  0  0  0  0  0  0  0  0  0  0  0
    1.9584    2.1007   -0.1071 H   0  0  0  0  0  0  0  0  0  0  0  0
    1.7078    0.8702    1.1290 H   0  0  0  0  0  0  0  0  0  0  0  0
    2.2362   -1.6800    0.4872 H   0  0  0  0  0  0  0  0  0  0  0  0
    2.8082   -2.0125   -1.1459 H   0  0  0  0  0  0  0  0  0  0  0  0
   -0.4276    1.4851    0.1806 H   0  0  0  0  0  0  0  0  0  0  0  0
    0.1174    1.1671   -1.4749 H   0  0  0  0  0  0  0  0  0  0  0  0
    0.6516   -1.2774   -2.0956 H   0  0  0  0  0  0  0  0  0  0  0  0
    0.3946   -2.5482   -0.9277 H   0  0  0  0  0  0  0  0  0  0  0  0
   -3.8499    2.3072   -0.3206 H   0  0  0  0  0  0  0  0  0  0  0  0
   -5.2202    2.8134    0.6555 H   0  0  0  0  0  0  0  0  0  0  0  0
   -5.7932   -0.6085   -1.8618 H   0  0  0  0  0  0  0  0  0  0  0  0
   -4.2063    0.1518   -1.8962 H   0  0  0  0  0  0  0  0  0  0  0  0
   -6.6028    0.9851   -0.1911 H   0  0  0  0  0  0  0  0  0  0  0  0
   -5.9196    1.8700   -1.5524 H   0  0  0  0  0  0  0  0  0  0  0  0
   -2.2728    0.7552   -0.3218 H   0  0  0  0  0  0  0  0  0  0  0  0
    3.8650   -0.2647    1.8163 H   0  0  0  0  0  0  0  0  0  0  0  0
    5.2948    0.9717   -1.9227 H   0  0  0  0  0  0  0  0  0  0  0  0
    6.3530    0.1943    2.0388 H   0  0  0  0  0  0  0  0  0  0  0  0
  1 17  2  0  0  0  0
  2 12  1  0  0  0  0
  2 13  1  0  0  0  0
  2 17  1  0  0  0  0
  3  6  1  0  0  0  0
  3 17  1  0  0  0  0
  3 41  1  0  0  0  0
  4 18  1  0  0  0  0
  4 20  1  0  0  0  0
  4 42  1  0  0  0  0
  5 19  1  0  0  0  0
  5 20  2  0  0  0  0
  6  8  1  0  0  0  0
  6  9  1  0  0  0  0
  6 21  1  0  0  0  0
  7 10  1  0  0  0  0
  7 11  1  0  0  0  0
  7 18  1  0  0  0  0
  7 22  1  0  0  0  0
  8 14  1  0  0  0  0
  8 23  1  0  0  0  0
  8 24  1  0  0  0  0
  9 15  1  0  0  0  0
  9 25  1  0  0  0  0
  9 26  1  0  0  0  0
 10 12  1  0  0  0  0
 10 27  1  0  0  0  0
 10 28  1  0  0  0  0
 11 13  1  0  0  0  0
 11 29  1  0  0  0  0
 11 30  1  0  0  0  0
 12 31  1  0  0  0  0
 12 32  1  0  0  0  0
 13 33  1  0  0  0  0
 13 34  1  0  0  0  0
 14 16  1  0  0  0  0
 14 35  1  0  0  0  0
 14 36  1  0  0  0  0
 15 16  1  0  0  0  0
 15 37  1  0  0  0  0
 15 38  1  0  0  0  0
 16 39  1  0  0  0  0
 16 40  1  0  0  0  0
 18 19  2  0  0  0  0
 19 43  1  0  0  0  0
 20 44  1  0  0  0  0
M  END
> <PUBCHEM_COMPOUND_CID>
3035905

> <PUBCHEM_CONFORMER_RMSD>
0.8

> <PUBCHEM_CONFORMER_DIVERSEORDER>
2
41
126
19
29
129
40
13
11
88
132
128
103
130
90
28
105
50
33
91
10
119
137
135
56
48
31
113
83
47
3
4
123
93
27
121
14
26
71
120
112
127
122
45
92
25
134
89
49
66
101
76
65
86
22
111
44
124
53
77
106
133
69
97
21
117
42
54
78
9
64
85
58
7
131
20
17
94
39
104
102
95
96
37
110
67
57
12
63
87
30
125
70
60
51
82
5
34
79
35
36
18
1
72
32
100
114
73
23
8
15
52
115
107
59
6
24
81
43
136
109
99
68
108
84
55
16
62
98
80
46
118
74
116
61
38
75

> <PUBCHEM_MMFF94_PARTIAL_CHARGES>
17
1 -0.38
12 0.3
13 0.3
17 0.5
18 -0.33
19 0.08
2 -0.66
20 0.04
3 -0.73
4 0.03
41 0.37
42 0.27
43 0.15
44 0.15
5 -0.57
6 0.3
7 0.18

> <PUBCHEM_EFFECTIVE_ROTOR_COUNT>
6.4

> <PUBCHEM_PHARMACOPHORE_FEATURES>
7
1 1 acceptor
1 3 donor
1 4 donor
3 4 5 20 cation
5 4 5 18 19 20 rings
6 2 7 10 11 12 13 rings
6 6 8 9 14 15 16 rings

> <PUBCHEM_HEAVY_ATOM_COUNT>
20

> <PUBCHEM_ATOM_DEF_STEREO_COUNT>
0

> <PUBCHEM_ATOM_UDEF_STEREO_COUNT>
0

> <PUBCHEM_BOND_DEF_STEREO_COUNT>
0

> <PUBCHEM_BOND_UDEF_STEREO_COUNT>
0

> <PUBCHEM_ISOTOPIC_ATOM_COUNT>
0

> <PUBCHEM_COMPONENT_COUNT>
1

> <PUBCHEM_CACTVS_TAUTO_COUNT>
4

> <PUBCHEM_CONFORMER_ID>
002E530100000002

> <PUBCHEM_MMFF94_ENERGY>
34.8948

> <PUBCHEM_FEATURE_SELFOVERLAP>
35.52

> <PUBCHEM_SHAPE_FINGERPRINT>
10906281 52 18339906182612268732
11089746 13 17894352172689645192
11128504 68 5112002846292389834
11287383 113 14490190488404012924
117890 112 18341895199220573540
12236239 1 17274823532677690720
12507557 5 18412542094423818833
12596602 18 16558742399653590681
12633257 1 18131631158145016524
12969540 114 17385731317478707140
13073987 5 18341045311493182347
13288520 33 8862939477429892817
13533116 47 18188772868252546530
13583140 156 16845569778057315593
13631057 29 17604439488203512391
13740256 8 8646480830434403109
1420 363 9367344838296407452
14251718 22 15936130759207235181
14251758 9 15913330225263409319
14251764 18 17489585650021020731
14251764 30 8574424335876584381
14350574 20 10159695794273109382
14466204 15 18201442518705377573
14528608 73 17385444327837646350
15142383 8 15554457313843304284
15348495 7 15195274296768127740
15375358 24 18409440388779563998
15527383 91 10087638213389167359
15537594 2 9439407921498062733
15788980 27 15698277802738196583
1601671 61 18409444791516648860
17093844 174 12391518555412851383
17780758 139 12535626077262208237
17834072 33 15647052668475731524
19141452 34 14405180643022122336
19489759 90 18260266339288150841
200 152 16443059504493212739
20281389 69 17632297865170128557
21033648 29 17530690887761817354
21150785 3 14923953331657269556
21421861 104 17560530620038787906
21709351 56 18259988141392930525
22950370 63 9151172060572464903
23402539 116 18341617005651611797
23402655 69 18040995185184252653
23557571 272 10375606905267371682
23559900 14 18268691953043618734
2767999 5 18334577949153250856
2838139 119 18260270754272236704
2916195 48 17530971258974059104
300161 21 18187364372186817381
34797466 226 15864069845207131476
34934 24 18412829087985404266
351380 3 9079114449212321005
4072396 5 18411426128792123658
4325135 7 5978388326439964953
441001 317 17821444681843657481
5104073 3 18335972177432354467
5385378 56 18129096900308386971
6328613 192 18200868475247206428
7226269 152 18413106169094474905
9981440 41 18341325652514573011

> <PUBCHEM_SHAPE_MULTIPOLES>
395.52
15.03
1.78
1.19
6.68
0.64
-0.11
-6.48
-0.64
-1.61
-0.21
-0.26
0.07
0.08

> <PUBCHEM_SHAPE_SELFOVERLAP>
809.441

> <PUBCHEM_SHAPE_VOLUME>
229

> <PUBCHEM_COORDINATE_TYPE>
2
5
10

$$$$

