12829
  -OEChem-06261207252D

 14 14  0     0  0  0  0  0  0999 V2000
    3.8660   -1.0000    0.0000 S   0  0  0  0  0  0  0  0  0  0  0  0
    3.8660    1.0000    0.0000 S   0  0  0  0  0  0  0  0  0  0  0  0
    2.5000   -1.3660    0.0000 F   0  0  0  0  0  0  0  0  0  0  0  0
    2.0000   -0.5000    0.0000 F   0  0  0  0  0  0  0  0  0  0  0  0
    5.2320   -1.3660    0.0000 F   0  0  0  0  0  0  0  0  0  0  0  0
    5.7320   -0.5000    0.0000 F   0  0  0  0  0  0  0  0  0  0  0  0
    2.5000    1.3660    0.0000 F   0  0  0  0  0  0  0  0  0  0  0  0
    2.0000    0.5000    0.0000 F   0  0  0  0  0  0  0  0  0  0  0  0
    5.2320    1.3660    0.0000 F   0  0  0  0  0  0  0  0  0  0  0  0
    5.7320    0.5000    0.0000 F   0  0  0  0  0  0  0  0  0  0  0  0
    3.0000   -0.5000    0.0000 C   0  0  0  0  0  0  0  0  0  0  0  0
    4.7320   -0.5000    0.0000 C   0  0  0  0  0  0  0  0  0  0  0  0
    3.0000    0.5000    0.0000 C   0  0  0  0  0  0  0  0  0  0  0  0
    4.7320    0.5000    0.0000 C   0  0  0  0  0  0  0  0  0  0  0  0
  1 11  1  0  0  0  0
  1 12  1  0  0  0  0
  2 13  1  0  0  0  0
  2 14  1  0  0  0  0
  3 11  1  0  0  0  0
  4 11  1  0  0  0  0
  5 12  1  0  0  0  0
  6 12  1  0  0  0  0
  7 13  1  0  0  0  0
  8 13  1  0  0  0  0
  9 14  1  0  0  0  0
 10 14  1  0  0  0  0
 11 13  1  0  0  0  0
 12 14  1  0  0  0  0
M  END
> <PUBCHEM_COMPOUND_CID>
12829

> <PUBCHEM_COMPOUND_CANONICALIZED>
1

> <PUBCHEM_CACTVS_COMPLEXITY>
198

> <PUBCHEM_CACTVS_HBOND_ACCEPTOR>
10

> <PUBCHEM_CACTVS_HBOND_DONOR>
0

> <PUBCHEM_CACTVS_ROTATABLE_BOND>
0

> <PUBCHEM_CACTVS_SUBSKEYS>
AAADcQBgAcBgAAAAAAAAAAAAAAAAAAAAAAAkAAAAAAAAAAAAAAAACQQAAAAAAAAAQBAAAAAAAAgAAAAAAAAAAAAAABAAAAAAAAAAAAAAAAAAAAAAAAAgAAAAAAAAAAAAAAAAAAAAAAAAAAAAAAAAAAAAAA==

> <PUBCHEM_IUPAC_OPENEYE_NAME>
2,2,3,3,5,5,6,6-octafluoro-1,4-dithiane

> <PUBCHEM_IUPAC_CAS_NAME>
2,2,3,3,5,5,6,6-octafluoro-1,4-dithiane

> <PUBCHEM_IUPAC_NAME>
2,2,3,3,5,5,6,6-octafluoro-1,4-dithiane

> <PUBCHEM_IUPAC_SYSTEMATIC_NAME>
2,2,3,3,5,5,6,6-octakis(fluoranyl)-1,4-dithiane

> <PUBCHEM_IUPAC_TRADITIONAL_NAME>
2,2,3,3,5,5,6,6-octafluoro-1,4-dithiane

> <PUBCHEM_IUPAC_INCHI>
InChI=1S/C4F8S2/c5-1(6)2(7,8)14-4(11,12)3(9,10)13-1

> <PUBCHEM_IUPAC_INCHIKEY>
MABSKGZSSMBURB-UHFFFAOYSA-N

> <PUBCHEM_XLOGP3_AA>
4.4

> <PUBCHEM_EXACT_MASS>
263.931368

> <PUBCHEM_MOLECULAR_FORMULA>
C4F8S2

> <PUBCHEM_MOLECULAR_WEIGHT>
264.160026

> <PUBCHEM_OPENEYE_CAN_SMILES>
C1(C(SC(C(S1)(F)F)(F)F)(F)F)(F)F

> <PUBCHEM_OPENEYE_ISO_SMILES>
C1(C(SC(C(S1)(F)F)(F)F)(F)F)(F)F

> <PUBCHEM_CACTVS_TPSA>
50.6

> <PUBCHEM_MONOISOTOPIC_WEIGHT>
263.931368

> <PUBCHEM_TOTAL_CHARGE>
0

> <PUBCHEM_HEAVY_ATOM_COUNT>
14

> <PUBCHEM_ATOM_DEF_STEREO_COUNT>
0

> <PUBCHEM_ATOM_UDEF_STEREO_COUNT>
0

> <PUBCHEM_BOND_DEF_STEREO_COUNT>
0

> <PUBCHEM_BOND_UDEF_STEREO_COUNT>
0

> <PUBCHEM_ISOTOPIC_ATOM_COUNT>
0

> <PUBCHEM_COMPONENT_COUNT>
1

> <PUBCHEM_CACTVS_TAUTO_COUNT>
1

> <PUBCHEM_COORDINATE_TYPE>
1
5
255

$$$$

