17395443
  -OEChem-06241222503D

 39 41  0     1  0  0  0  0  0999 V2000
    5.5596    1.7363    0.2121 F   0  0  0  0  0  0  0  0  0  0  0  0
    5.8388   -0.2057    1.1697 F   0  0  0  0  0  0  0  0  0  0  0  0
    6.4399    0.0829   -0.9090 F   0  0  0  0  0  0  0  0  0  0  0  0
    0.8945    2.0186   -0.2715 O   0  0  0  0  0  0  0  0  0  0  0  0
    1.7443   -0.0878    0.1821 N   0  0  0  0  0  0  0  0  0  0  0  0
   -0.9969   -0.6467    1.1157 N   0  0  0  0  0  0  0  0  0  0  0  0
   -2.3142   -0.9101    1.1545 N   0  0  0  0  0  0  0  0  0  0  0  0
    4.1359   -0.0187   -0.4431 C   0  0  1  0  0  0  0  0  0  0  0  0
    4.0899   -1.5310   -0.7068 C   0  0  0  0  0  0  0  0  0  0  0  0
    3.0740    0.3733    0.5916 C   0  0  0  0  0  0  0  0  0  0  0  0
    2.6817   -1.9736   -1.1016 C   0  0  0  0  0  0  0  0  0  0  0  0
    1.6455   -1.5326   -0.0700 C   0  0  0  0  0  0  0  0  0  0  0  0
    5.5266    0.4088    0.0185 C   0  0  0  0  0  0  0  0  0  0  0  0
    0.6972    0.8418    0.0361 C   0  0  0  0  0  0  0  0  0  0  0  0
   -0.6616    0.3626    0.2615 C   0  0  0  0  0  0  0  0  0  0  0  0
   -1.8417    0.7887   -0.2977 C   0  0  0  0  0  0  0  0  0  0  0  0
   -2.8251   -0.0302    0.2891 C   0  0  0  0  0  0  0  0  0  0  0  0
   -4.2418    0.0129    0.0381 C   0  0  0  0  0  0  0  0  0  0  0  0
   -4.8517    1.2162   -0.3163 C   0  0  0  0  0  0  0  0  0  0  0  0
   -5.0050   -1.1495    0.1493 C   0  0  0  0  0  0  0  0  0  0  0  0
   -6.2245    1.2573   -0.5596 C   0  0  0  0  0  0  0  0  0  0  0  0
   -6.3778   -1.1084   -0.0940 C   0  0  0  0  0  0  0  0  0  0  0  0
   -6.9876    0.0949   -0.4485 C   0  0  0  0  0  0  0  0  0  0  0  0
    3.9122    0.5005   -1.3847 H   0  0  0  0  0  0  0  0  0  0  0  0
    4.4022   -2.0805    0.1902 H   0  0  0  0  0  0  0  0  0  0  0  0
    4.7916   -1.7972   -1.5058 H   0  0  0  0  0  0  0  0  0  0  0  0
    3.2869   -0.0861    1.5648 H   0  0  0  0  0  0  0  0  0  0  0  0
    3.0655    1.4584    0.7413 H   0  0  0  0  0  0  0  0  0  0  0  0
    2.4311   -1.5379   -2.0770 H   0  0  0  0  0  0  0  0  0  0  0  0
    2.6518   -3.0627   -1.2166 H   0  0  0  0  0  0  0  0  0  0  0  0
    0.6569   -1.7964   -0.4535 H   0  0  0  0  0  0  0  0  0  0  0  0
    1.8007   -2.0499    0.8835 H   0  0  0  0  0  0  0  0  0  0  0  0
   -1.9582    1.5762   -1.0293 H   0  0  0  0  0  0  0  0  0  0  0  0
   -0.3864   -1.1880    1.7148 H   0  0  0  0  0  0  0  0  0  0  0  0
   -4.2861    2.1407   -0.4011 H   0  0  0  0  0  0  0  0  0  0  0  0
   -4.5574   -2.1040    0.4154 H   0  0  0  0  0  0  0  0  0  0  0  0
   -6.7001    2.1946   -0.8333 H   0  0  0  0  0  0  0  0  0  0  0  0
   -6.9720   -2.0137   -0.0093 H   0  0  0  0  0  0  0  0  0  0  0  0
   -8.0566    0.1269   -0.6378 H   0  0  0  0  0  0  0  0  0  0  0  0
  1 13  1  0  0  0  0
  2 13  1  0  0  0  0
  3 13  1  0  0  0  0
  4 14  2  0  0  0  0
  5 10  1  0  0  0  0
  5 12  1  0  0  0  0
  5 14  1  0  0  0  0
  6  7  1  0  0  0  0
  6 15  1  0  0  0  0
  6 34  1  0  0  0  0
  7 17  2  0  0  0  0
  8  9  1  0  0  0  0
  8 10  1  0  0  0  0
  8 13  1  0  0  0  0
  8 24  1  0  0  0  0
  9 11  1  0  0  0  0
  9 25  1  0  0  0  0
  9 26  1  0  0  0  0
 10 27  1  0  0  0  0
 10 28  1  0  0  0  0
 11 12  1  0  0  0  0
 11 29  1  0  0  0  0
 11 30  1  0  0  0  0
 12 31  1  0  0  0  0
 12 32  1  0  0  0  0
 14 15  1  0  0  0  0
 15 16  2  0  0  0  0
 16 17  1  0  0  0  0
 16 33  1  0  0  0  0
 17 18  1  0  0  0  0
 18 19  2  0  0  0  0
 18 20  1  0  0  0  0
 19 21  1  0  0  0  0
 19 35  1  0  0  0  0
 20 22  2  0  0  0  0
 20 36  1  0  0  0  0
 21 23  2  0  0  0  0
 21 37  1  0  0  0  0
 22 23  1  0  0  0  0
 22 38  1  0  0  0  0
 23 39  1  0  0  0  0
M  END
> <PUBCHEM_COMPOUND_CID>
17395443

> <PUBCHEM_CONFORMER_RMSD>
0.8

> <PUBCHEM_CONFORMER_DIVERSEORDER>
1
49
38
42
65
45
32
52
24
29
56
57
61
41
5
18
66
53
59
13
63
14
16
20
51
6
15
35
25
43
31
64
36
17
27
7
50
33
10
28
34
11
30
19
46
8
60
4
26
23
12
3
62
55
2
48
9
21
22
58
40
39
54
44
37
47

> <PUBCHEM_MMFF94_PARTIAL_CHARGES>
27
1 -0.34
10 0.3
12 0.3
13 1.02
14 0.71
15 -0.24
16 -0.15
17 0.23
18 0.05
19 -0.15
2 -0.34
20 -0.15
21 -0.15
22 -0.15
23 -0.15
3 -0.34
33 0.15
34 0.27
35 0.15
36 0.15
37 0.15
38 0.15
39 0.15
4 -0.57
5 -0.66
6 0.3
7 -0.71

> <PUBCHEM_EFFECTIVE_ROTOR_COUNT>
5.2

> <PUBCHEM_PHARMACOPHORE_FEATURES>
6
1 4 acceptor
1 6 donor
1 7 acceptor
5 6 7 15 16 17 rings
6 18 19 20 21 22 23 rings
6 5 8 9 10 11 12 rings

> <PUBCHEM_HEAVY_ATOM_COUNT>
23

> <PUBCHEM_ATOM_DEF_STEREO_COUNT>
0

> <PUBCHEM_ATOM_UDEF_STEREO_COUNT>
1

> <PUBCHEM_BOND_DEF_STEREO_COUNT>
0

> <PUBCHEM_BOND_UDEF_STEREO_COUNT>
0

> <PUBCHEM_ISOTOPIC_ATOM_COUNT>
0

> <PUBCHEM_COMPONENT_COUNT>
1

> <PUBCHEM_CACTVS_TAUTO_COUNT>
3

> <PUBCHEM_CONFORMER_ID>
01096EF300000001

> <PUBCHEM_MMFF94_ENERGY>
49.2732

> <PUBCHEM_FEATURE_SELFOVERLAP>
30.446

> <PUBCHEM_SHAPE_FINGERPRINT>
10366900 7 14996284729913331607
10835480 77 18336269028523768533
10906281 52 18200574973749766616
10968037 39 18408040711141783623
11045977 3 9079105666483969549
11089746 13 16630525116095304221
11315181 36 18261109661166321593
11719270 70 18261397780051809318
12236239 1 16805318911821346243
12516196 113 18186522107266812137
12730499 353 18114180830997705326
13073987 5 18261950860275009097
13167372 99 12679469707124660351
13533116 47 16371003052827279070
13668630 136 16805602560452338375
14170010 4 18335702719468065353
14251718 22 18410573989889517111
14251764 18 18130788958640907521
14251764 46 18113620083876859480
15183329 4 18131351925315443945
15475509 35 5544641890615946678
15537594 2 16877667867967005247
15716309 27 5039950745760193853
18681886 176 18336272245554039017
200 152 17967252014072271793
20281389 69 16774083976941459661
20645477 70 18187925144054230470
21033650 10 17129849775869812948
21150785 3 18040159509334591829
21285901 2 18270115841558830404
21315759 40 15410895146273478467
21344244 181 16733250310362995334
220451 1 16877663465915481975
22224240 67 18041287591100891842
23035841 295 13839984417499711957
23402539 116 18059860558338281661
23536379 177 18261110798910414889
23559900 14 18336834096085938609
3004659 81 18060136600266304562
34797466 226 16225762996016396440
3545911 37 18334295357943712827
4072396 5 18343591754732260218
4073 2 18059288769068190259
42630746 31 18186518813496186670
4325135 7 18411135835920448638
4340502 62 17821453452272474686
4463277 17 18413672409219516093
5283173 99 18270401723225305437
54446538 1 12535347904899395263

> <PUBCHEM_SHAPE_MULTIPOLES>
430.7
18.06
1.63
0.9
4.83
0.14
0.06
-0.91
-2.32
-0.53
-0.28
-0.33
0.16
0.95

> <PUBCHEM_SHAPE_SELFOVERLAP>
931.522

> <PUBCHEM_SHAPE_VOLUME>
236.4

> <PUBCHEM_COORDINATE_TYPE>
2
5
10

$$$$

