5461154
  -OEChem-07051213073D

 33 34  0     0  0  0  0  0  0999 V2000
    2.6040    0.6317    2.3483 O   0  0  0  0  0  0  0  0  0  0  0  0
    2.4557   -1.4191   -1.9884 O   0  0  0  0  0  0  0  0  0  0  0  0
    6.1045    1.3994   -0.7895 O   0  0  0  0  0  0  0  0  0  0  0  0
    1.2303   -2.1646    1.0338 O   0  0  0  0  0  0  0  0  0  0  0  0
   -6.0136   -1.1946   -0.1988 O   0  0  0  0  0  0  0  0  0  0  0  0
   -6.1773    1.5566   -0.5583 O   0  0  0  0  0  0  0  0  0  0  0  0
    2.5199   -0.3990    0.1826 C   0  0  0  0  0  0  0  0  0  0  0  0
   -2.5121   -0.2318    0.2206 C   0  0  0  0  0  0  0  0  0  0  0  0
    3.1418    0.4106    1.1155 C   0  0  0  0  0  0  0  0  0  0  0  0
    3.0674   -0.6218   -1.0676 C   0  0  0  0  0  0  0  0  0  0  0  0
    1.2322   -1.0455    0.5328 C   0  0  0  0  0  0  0  0  0  0  0  0
   -1.2259   -0.8537    0.4928 C   0  0  0  0  0  0  0  0  0  0  0  0
    4.3533    1.0187    0.7866 C   0  0  0  0  0  0  0  0  0  0  0  0
    4.2789   -0.0135   -1.3964 C   0  0  0  0  0  0  0  0  0  0  0  0
   -0.0211   -0.3020    0.2245 C   0  0  0  0  0  0  0  0  0  0  0  0
    4.9218    0.8067   -0.4692 C   0  0  0  0  0  0  0  0  0  0  0  0
   -3.6631   -1.0156    0.1395 C   0  0  0  0  0  0  0  0  0  0  0  0
   -2.5945    1.1489    0.0396 C   0  0  0  0  0  0  0  0  0  0  0  0
   -4.8964   -0.4189   -0.1226 C   0  0  0  0  0  0  0  0  0  0  0  0
   -4.9785    0.9619   -0.3034 C   0  0  0  0  0  0  0  0  0  0  0  0
   -3.8275    1.7457   -0.2224 C   0  0  0  0  0  0  0  0  0  0  0  0
   -1.2725   -1.8469    0.9344 H   0  0  0  0  0  0  0  0  0  0  0  0
    4.8611    1.6594    1.5035 H   0  0  0  0  0  0  0  0  0  0  0  0
    4.7171   -0.1826   -2.3770 H   0  0  0  0  0  0  0  0  0  0  0  0
    0.0956    0.6713   -0.2381 H   0  0  0  0  0  0  0  0  0  0  0  0
   -3.6117   -2.0936    0.2773 H   0  0  0  0  0  0  0  0  0  0  0  0
   -1.7291    1.8010    0.1132 H   0  0  0  0  0  0  0  0  0  0  0  0
   -3.8787    2.8229   -0.3568 H   0  0  0  0  0  0  0  0  0  0  0  0
    3.1896    1.2248    2.8494 H   0  0  0  0  0  0  0  0  0  0  0  0
    1.6454   -1.8067   -1.6209 H   0  0  0  0  0  0  0  0  0  0  0  0
    6.3502    1.1437   -1.6953 H   0  0  0  0  0  0  0  0  0  0  0  0
   -6.7743   -0.6176   -0.3859 H   0  0  0  0  0  0  0  0  0  0  0  0
   -6.0414    2.5149   -0.6544 H   0  0  0  0  0  0  0  0  0  0  0  0
  1  9  1  0  0  0  0
  1 29  1  0  0  0  0
  2 10  1  0  0  0  0
  2 30  1  0  0  0  0
  3 16  1  0  0  0  0
  3 31  1  0  0  0  0
  4 11  2  0  0  0  0
  5 19  1  0  0  0  0
  5 32  1  0  0  0  0
  6 20  1  0  0  0  0
  6 33  1  0  0  0  0
  7  9  2  0  0  0  0
  7 10  1  0  0  0  0
  7 11  1  0  0  0  0
  8 12  1  0  0  0  0
  8 17  2  0  0  0  0
  8 18  1  0  0  0  0
  9 13  1  0  0  0  0
 10 14  2  0  0  0  0
 11 15  1  0  0  0  0
 12 15  2  0  0  0  0
 12 22  1  0  0  0  0
 13 16  2  0  0  0  0
 13 23  1  0  0  0  0
 14 16  1  0  0  0  0
 14 24  1  0  0  0  0
 15 25  1  0  0  0  0
 17 19  1  0  0  0  0
 17 26  1  0  0  0  0
 18 21  2  0  0  0  0
 18 27  1  0  0  0  0
 19 20  2  0  0  0  0
 20 21  1  0  0  0  0
 21 28  1  0  0  0  0
M  END
> <PUBCHEM_COMPOUND_CID>
5461154

> <PUBCHEM_CONFORMER_RMSD>
0.6

> <PUBCHEM_CONFORMER_DIVERSEORDER>
1
18
25
11
7
22
3
23
9
13
16
5
20
24
15
6
19
10
4
21
12
8
26
14
17
2

> <PUBCHEM_MMFF94_PARTIAL_CHARGES>
33
1 -0.53
10 0.08
11 0.47
12 -0.18
13 -0.15
14 -0.15
15 -0.14
16 0.08
17 -0.15
18 -0.15
19 0.08
2 -0.53
20 0.08
21 -0.15
22 0.15
23 0.15
24 0.15
25 0.15
26 0.15
27 0.15
28 0.15
29 0.45
3 -0.53
30 0.45
31 0.45
32 0.45
33 0.45
4 -0.57
5 -0.53
6 -0.53
7 0.09
8 0.03
9 0.08

> <PUBCHEM_EFFECTIVE_ROTOR_COUNT>
3

> <PUBCHEM_PHARMACOPHORE_FEATURES>
8
1 1 donor
1 2 donor
1 3 donor
1 4 acceptor
1 5 donor
1 6 donor
6 7 9 10 13 14 16 rings
6 8 17 18 19 20 21 rings

> <PUBCHEM_HEAVY_ATOM_COUNT>
21

> <PUBCHEM_ATOM_DEF_STEREO_COUNT>
0

> <PUBCHEM_ATOM_UDEF_STEREO_COUNT>
0

> <PUBCHEM_BOND_DEF_STEREO_COUNT>
1

> <PUBCHEM_BOND_UDEF_STEREO_COUNT>
0

> <PUBCHEM_ISOTOPIC_ATOM_COUNT>
0

> <PUBCHEM_COMPONENT_COUNT>
1

> <PUBCHEM_CACTVS_TAUTO_COUNT>
225

> <PUBCHEM_CONFORMER_ID>
005354A200000001

> <PUBCHEM_MMFF94_ENERGY>
64.2356

> <PUBCHEM_FEATURE_SELFOVERLAP>
40.599

> <PUBCHEM_SHAPE_FINGERPRINT>
10354089 29 15697997440384836516
10498660 4 18412263977600064697
10670039 82 18201994482422444260
10693767 8 15792277315946211660
11128504 68 14996285794901242456
12236239 1 17489873730129951195
12596602 18 16845573110699106673
12633257 1 13758068555057475472
12730499 353 17822007584389128814
13533116 47 14404912452506183569
13631057 29 16987711287222606259
13668630 136 14345796045908074245
14341114 176 12607401092205672054
14341114 328 16774081756443257144
14528608 73 18412266129562893517
14576447 43 15140951881874610364
15188451 53 10591749953823621129
15348495 7 11815603178172809573
15475509 35 8357714919881695932
15537594 2 4895560657991451717
15885798 251 8142086459371841083
15961568 22 18343017770639363724
17844677 252 16877659067905991729
1813 80 5039950745327690875
19377110 9 16988554702761017985
200 152 15647046075542890962
20511986 3 17203061707067259069
20645477 70 17023175055001633750
21637258 2 5256414851564301596
221357 26 17385442141520412768
22224240 67 13830132738013371336
22289505 5 17968097546956656400
22950370 63 6122505704801247250
23522609 53 6265784280683128051
23557571 272 18334853901186822343
23559900 14 18337673117250892558
23596394 208 17676203606371405270
2767999 5 17489870423147597213
2838139 119 18053375497652310980
300161 21 17632861945195372309
3060560 45 17022903441680842796
341906 21 18202008754266400481
3472631 163 18201996586829649748
34797466 226 18188199919013490389
3545911 37 17967812721625606959
4325135 7 18411700955064385015
46194498 28 17749103366540485068
474 4 16988838367385208442
5104073 3 18058730338063611667
5281201 14 17386001805813088384
53794403 172 18126281943740174660
542803 24 17489588965440348235
5924683 9 12966546631502628281
7808743 9 18272088245434223808
7970288 3 6555413098033338884
960060 61 15430040958710438073

> <PUBCHEM_SHAPE_MULTIPOLES>
396.95
14.59
1.63
1.33
8.18
0.02
0.11
-5.34
-3.4
0.73
-0.02
-1.98
0.11
0.58

> <PUBCHEM_SHAPE_SELFOVERLAP>
864.676

> <PUBCHEM_SHAPE_VOLUME>
216

> <PUBCHEM_COORDINATE_TYPE>
2
5
10

$$$$

