583033
  -OEChem-06241222443D

 31 31  0     1  0  0  0  0  0999 V2000
    0.0441    1.0919   -0.5744 C   0  0  1  0  0  0  0  0  0  0  0  0
   -3.4018   -0.4709    0.4705 C   0  0  0  0  0  0  0  0  0  0  0  0
    1.3164    0.3255   -0.2506 C   0  0  0  0  0  0  0  0  0  0  0  0
   -1.1289    0.5747    0.2253 C   0  0  0  0  0  0  0  0  0  0  0  0
   -2.2301    0.0423   -0.3271 C   0  0  0  0  0  0  0  0  0  0  0  0
    0.2045    2.6033   -0.3705 C   0  0  0  0  0  0  0  0  0  0  0  0
   -3.6064   -1.9624    0.2065 C   0  0  0  0  0  0  0  0  0  0  0  0
   -4.6640    0.3158    0.1195 C   0  0  0  0  0  0  0  0  0  0  0  0
    2.1275    0.7772    0.7716 C   0  0  0  0  0  0  0  0  0  0  0  0
    1.6248   -0.8008   -0.9876 C   0  0  0  0  0  0  0  0  0  0  0  0
    3.2948    0.0740    1.0689 C   0  0  0  0  0  0  0  0  0  0  0  0
    2.7921   -1.5040   -0.6901 C   0  0  0  0  0  0  0  0  0  0  0  0
    3.6270   -1.0665    0.3381 C   0  0  0  0  0  0  0  0  0  0  0  0
   -0.1555    0.9555   -1.6471 H   0  0  0  0  0  0  0  0  0  0  0  0
   -3.2096   -0.3407    1.5432 H   0  0  0  0  0  0  0  0  0  0  0  0
   -1.0642    0.6529    1.3086 H   0  0  0  0  0  0  0  0  0  0  0  0
   -2.2982   -0.0327   -1.4102 H   0  0  0  0  0  0  0  0  0  0  0  0
   -0.6558    3.1322   -0.7987 H   0  0  0  0  0  0  0  0  0  0  0  0
    0.2496    2.8897    0.6862 H   0  0  0  0  0  0  0  0  0  0  0  0
    1.1021    2.9831   -0.8715 H   0  0  0  0  0  0  0  0  0  0  0  0
   -3.8265   -2.1587   -0.8490 H   0  0  0  0  0  0  0  0  0  0  0  0
   -2.7115   -2.5345    0.4758 H   0  0  0  0  0  0  0  0  0  0  0  0
   -4.4409   -2.3495    0.8013 H   0  0  0  0  0  0  0  0  0  0  0  0
   -4.9251    0.2081   -0.9395 H   0  0  0  0  0  0  0  0  0  0  0  0
   -4.5307    1.3836    0.3263 H   0  0  0  0  0  0  0  0  0  0  0  0
   -5.5156   -0.0346    0.7125 H   0  0  0  0  0  0  0  0  0  0  0  0
    1.8916    1.6466    1.3746 H   0  0  0  0  0  0  0  0  0  0  0  0
    0.9799   -1.1502   -1.7883 H   0  0  0  0  0  0  0  0  0  0  0  0
    3.9428    0.4113    1.8727 H   0  0  0  0  0  0  0  0  0  0  0  0
    3.0506   -2.3927   -1.2585 H   0  0  0  0  0  0  0  0  0  0  0  0
    4.5352   -1.6150    0.5706 H   0  0  0  0  0  0  0  0  0  0  0  0
  1  3  1  0  0  0  0
  1  4  1  0  0  0  0
  1  6  1  0  0  0  0
  1 14  1  0  0  0  0
  2  5  1  0  0  0  0
  2  7  1  0  0  0  0
  2  8  1  0  0  0  0
  2 15  1  0  0  0  0
  3  9  2  0  0  0  0
  3 10  1  0  0  0  0
  4  5  2  0  0  0  0
  4 16  1  0  0  0  0
  5 17  1  0  0  0  0
  6 18  1  0  0  0  0
  6 19  1  0  0  0  0
  6 20  1  0  0  0  0
  7 21  1  0  0  0  0
  7 22  1  0  0  0  0
  7 23  1  0  0  0  0
  8 24  1  0  0  0  0
  8 25  1  0  0  0  0
  8 26  1  0  0  0  0
  9 11  1  0  0  0  0
  9 27  1  0  0  0  0
 10 12  2  0  0  0  0
 10 28  1  0  0  0  0
 11 13  2  0  0  0  0
 11 29  1  0  0  0  0
 12 13  1  0  0  0  0
 12 30  1  0  0  0  0
 13 31  1  0  0  0  0
M  END
> <PUBCHEM_COMPOUND_CID>
583033

> <PUBCHEM_CONFORMER_RMSD>
0.6

> <PUBCHEM_CONFORMER_DIVERSEORDER>
1
18
12
8
5
13
6
14
11
4
16
7
3
15
9
17
10
2

> <PUBCHEM_MMFF94_PARTIAL_CHARGES>
17
1 0.28
10 -0.15
11 -0.15
12 -0.15
13 -0.15
16 0.15
17 0.15
2 0.14
27 0.15
28 0.15
29 0.15
3 -0.14
30 0.15
31 0.15
4 -0.29
5 -0.29
9 -0.15

> <PUBCHEM_EFFECTIVE_ROTOR_COUNT>
3

> <PUBCHEM_PHARMACOPHORE_FEATURES>
3
1 6 hydrophobe
3 2 7 8 hydrophobe
6 3 9 10 11 12 13 rings

> <PUBCHEM_HEAVY_ATOM_COUNT>
13

> <PUBCHEM_ATOM_DEF_STEREO_COUNT>
0

> <PUBCHEM_ATOM_UDEF_STEREO_COUNT>
1

> <PUBCHEM_BOND_DEF_STEREO_COUNT>
0

> <PUBCHEM_BOND_UDEF_STEREO_COUNT>
1

> <PUBCHEM_ISOTOPIC_ATOM_COUNT>
0

> <PUBCHEM_COMPONENT_COUNT>
1

> <PUBCHEM_CACTVS_TAUTO_COUNT>
1

> <PUBCHEM_CONFORMER_ID>
0008E57900000001

> <PUBCHEM_MMFF94_ENERGY>
24.2581

> <PUBCHEM_FEATURE_SELFOVERLAP>
15.223

> <PUBCHEM_SHAPE_FINGERPRINT>
10618630 7 18341893021482211454
11543360 7 13686288050734441963
11715629 250 9871470876924656139
12251169 10 17676212376741888526
12346177 29 18411990148355964711
13081056 2 9799688208017265291
13296908 3 18413674620990289701
14115302 16 16917060053753945643
14252887 29 18408881841178021450
15375358 24 18335144210848119855
15501101 241 18186243922266666144
15775835 57 7420943158096716564
15885798 251 18342453772861127345
17834072 14 18408891737072756517
17844478 74 18188497985760140476
18186145 218 11095884903553882493
18380122 1 18261122914955290508
201361 129 8862406226663672541
20279233 1 18334857221217842639
20281407 28 18411414046400091619
20281475 54 18343298146061312605
20361792 2 17703785925095897109
20645477 70 18199473156383890207
20671657 53 16487256594896037742
20767249 442 6916257425379766811
20871998 22 18410008875019553028
21501925 9 18336830788633637447
21524375 3 7781517001267730845
22485316 2 18343585144197290651
23402539 116 18341622516026204010
23402655 69 12319740275545532739
23532345 42 18410858733246727754
23557571 272 18339079414604031012
23590187 302 13686300166858237383
26918003 58 18187369847837681323
2748010 2 17752781400707691180
276578 36 5617255905666304364
31174 14 18113911476360558592
4990 188 11600008768781025425
5902787 121 18272934877798191427
6333272 397 7925619008373440959
7364860 26 18194678168367873693
81228 2 18125993004178433385
81539 233 17628912335930175900

> <PUBCHEM_SHAPE_MULTIPOLES>
267.53
7.8
1.94
0.94
6.06
0.53
-0.02
-3.54
-1.58
0.09
0.28
-0.56
-0.04
0.46

> <PUBCHEM_SHAPE_SELFOVERLAP>
536.177

> <PUBCHEM_SHAPE_VOLUME>
153.6

> <PUBCHEM_COORDINATE_TYPE>
2
5
10

$$$$

