10163
  -OEChem-07051212592D

 30 32  0     0  0  0  0  0  0999 V2000
    6.4144    1.8592    0.0000 O   0  0  0  0  0  0  0  0  0  0  0  0
    8.1962   -1.1995    0.0000 O   0  0  0  0  0  0  0  0  0  0  0  0
    4.6660    1.8246    0.0000 O   0  0  0  0  0  0  0  0  0  0  0  0
    4.6660   -2.1754    0.0000 O   0  0  0  0  0  0  0  0  0  0  0  0
    9.0641    0.3521    0.0000 O   0  0  0  0  0  0  0  0  0  0  0  0
    5.5321    0.3246    0.0000 C   0  0  0  0  0  0  0  0  0  0  0  0
    5.5321   -0.6754    0.0000 C   0  0  0  0  0  0  0  0  0  0  0  0
    3.8000    0.3246    0.0000 C   0  0  0  0  0  0  0  0  0  0  0  0
    3.8000   -0.6754    0.0000 C   0  0  0  0  0  0  0  0  0  0  0  0
    6.4260    0.8593    0.0000 C   0  0  0  0  0  0  0  0  0  0  0  0
    4.6660    0.8246    0.0000 C   0  0  0  0  0  0  0  0  0  0  0  0
    4.6660   -1.1754    0.0000 C   0  0  0  0  0  0  0  0  0  0  0  0
    7.3321    0.3454    0.0000 C   0  0  0  0  0  0  0  0  0  0  0  0
    6.4260   -1.2100    0.0000 C   0  0  0  0  0  0  0  0  0  0  0  0
    7.3321   -0.6962    0.0000 C   0  0  0  0  0  0  0  0  0  0  0  0
    2.9061    0.8593    0.0000 C   0  0  0  0  0  0  0  0  0  0  0  0
    2.9061   -1.2100    0.0000 C   0  0  0  0  0  0  0  0  0  0  0  0
    8.1962    0.8488    0.0000 C   0  0  0  0  0  0  0  0  0  0  0  0
    2.0000    0.3454    0.0000 C   0  0  0  0  0  0  0  0  0  0  0  0
    2.0000   -0.6962    0.0000 C   0  0  0  0  0  0  0  0  0  0  0  0
    6.4188   -1.8300    0.0000 H   0  0  0  0  0  0  0  0  0  0  0  0
    2.9132    1.4792    0.0000 H   0  0  0  0  0  0  0  0  0  0  0  0
    2.9132   -1.8300    0.0000 H   0  0  0  0  0  0  0  0  0  0  0  0
    8.5929    1.3252    0.0000 H   0  0  0  0  0  0  0  0  0  0  0  0
    7.7958    1.3222    0.0000 H   0  0  0  0  0  0  0  0  0  0  0  0
    1.4643    0.6575    0.0000 H   0  0  0  0  0  0  0  0  0  0  0  0
    1.4643   -1.0083    0.0000 H   0  0  0  0  0  0  0  0  0  0  0  0
    6.9478    2.1754    0.0000 H   0  0  0  0  0  0  0  0  0  0  0  0
    8.1938   -1.8195    0.0000 H   0  0  0  0  0  0  0  0  0  0  0  0
    9.5998    0.6642    0.0000 H   0  0  0  0  0  0  0  0  0  0  0  0
  1 10  1  0  0  0  0
  1 28  1  0  0  0  0
  2 15  1  0  0  0  0
  2 29  1  0  0  0  0
  3 11  2  0  0  0  0
  4 12  2  0  0  0  0
  5 18  1  0  0  0  0
  5 30  1  0  0  0  0
  6  7  1  0  0  0  0
  6 10  2  0  0  0  0
  6 11  1  0  0  0  0
  7 12  1  0  0  0  0
  7 14  2  0  0  0  0
  8  9  1  0  0  0  0
  8 11  1  0  0  0  0
  8 16  2  0  0  0  0
  9 12  1  0  0  0  0
  9 17  2  0  0  0  0
 10 13  1  0  0  0  0
 13 15  2  0  0  0  0
 13 18  1  0  0  0  0
 14 15  1  0  0  0  0
 14 21  1  0  0  0  0
 16 19  1  0  0  0  0
 16 22  1  0  0  0  0
 17 20  1  0  0  0  0
 17 23  1  0  0  0  0
 18 24  1  0  0  0  0
 18 25  1  0  0  0  0
 19 20  2  0  0  0  0
 19 26  1  0  0  0  0
 20 27  1  0  0  0  0
M  END
> <PUBCHEM_COMPOUND_CID>
10163

> <PUBCHEM_COMPOUND_CANONICALIZED>
1

> <PUBCHEM_CACTVS_COMPLEXITY>
421

> <PUBCHEM_CACTVS_HBOND_ACCEPTOR>
5

> <PUBCHEM_CACTVS_HBOND_DONOR>
3

> <PUBCHEM_CACTVS_ROTATABLE_BOND>
1

> <PUBCHEM_CACTVS_SUBSKEYS>
AAADccBwOAAAAAAAAAAAAAAAAAAAAAAAAAAwYMAAAAAAAADBQAAAGgAACAAADASgmAIwBoAAAgCIAqBSAAACAAAkIAAIiAEGCMgINzaCFRKAcUAl4BUImYeL7PTO4AADCAAYAADAAAYQADAAAAAAAAAAAA==

> <PUBCHEM_IUPAC_OPENEYE_NAME>
1,3-dihydroxy-2-(hydroxymethyl)anthracene-9,10-dione

> <PUBCHEM_IUPAC_CAS_NAME>
1,3-dihydroxy-2-(hydroxymethyl)anthracene-9,10-dione

> <PUBCHEM_IUPAC_NAME>
1,3-dihydroxy-2-(hydroxymethyl)anthracene-9,10-dione

> <PUBCHEM_IUPAC_SYSTEMATIC_NAME>
2-(hydroxymethyl)-1,3-bis(oxidanyl)anthracene-9,10-dione

> <PUBCHEM_IUPAC_TRADITIONAL_NAME>
1,3-dihydroxy-2-methylol-9,10-anthraquinone

> <PUBCHEM_IUPAC_INCHI>
InChI=1S/C15H10O5/c16-6-10-11(17)5-9-12(15(10)20)14(19)8-4-2-1-3-7(8)13(9)18/h1-5,16-17,20H,6H2

> <PUBCHEM_IUPAC_INCHIKEY>
AMIDUPFSOUCLQB-UHFFFAOYSA-N

> <PUBCHEM_XLOGP3_AA>
2.4

> <PUBCHEM_EXACT_MASS>
270.052823

> <PUBCHEM_MOLECULAR_FORMULA>
C15H10O5

> <PUBCHEM_MOLECULAR_WEIGHT>
270.2369

> <PUBCHEM_OPENEYE_CAN_SMILES>
C1=CC=C2C(=C1)C(=O)C3=CC(=C(C(=C3C2=O)O)CO)O

> <PUBCHEM_OPENEYE_ISO_SMILES>
C1=CC=C2C(=C1)C(=O)C3=CC(=C(C(=C3C2=O)O)CO)O

> <PUBCHEM_CACTVS_TPSA>
94.8

> <PUBCHEM_MONOISOTOPIC_WEIGHT>
270.052823

> <PUBCHEM_TOTAL_CHARGE>
0

> <PUBCHEM_HEAVY_ATOM_COUNT>
20

> <PUBCHEM_ATOM_DEF_STEREO_COUNT>
0

> <PUBCHEM_ATOM_UDEF_STEREO_COUNT>
0

> <PUBCHEM_BOND_DEF_STEREO_COUNT>
0

> <PUBCHEM_BOND_UDEF_STEREO_COUNT>
0

> <PUBCHEM_ISOTOPIC_ATOM_COUNT>
0

> <PUBCHEM_COMPONENT_COUNT>
1

> <PUBCHEM_CACTVS_TAUTO_COUNT>
12

> <PUBCHEM_COORDINATE_TYPE>
1
5
255

> <PUBCHEM_BONDANNOTATIONS>
10  13  8
13  15  8
14  15  8
16  19  8
17  20  8
19  20  8
6  10  8
6  7  8
7  14  8
8  16  8
8  9  8
9  17  8

$$$$

