5281949
  -OEChem-07051213013D

 47 49  0     0  0  0  0  0  0999 V2000
   -0.1961    0.1627    0.0127 O   0  0  0  0  0  0  0  0  0  0  0  0
   -4.6245    1.8917    0.2063 O   0  0  0  0  0  0  0  0  0  0  0  0
   -4.0265   -2.8066    0.0299 O   0  0  0  0  0  0  0  0  0  0  0  0
    1.1862   -3.2517   -0.1252 O   0  0  0  0  0  0  0  0  0  0  0  0
   -1.5621   -3.6755   -0.0674 O   0  0  0  0  0  0  0  0  0  0  0  0
    6.0799    0.6387   -0.1624 O   0  0  0  0  0  0  0  0  0  0  0  0
   -1.8347    2.4034    0.1381 C   0  0  0  0  0  0  0  0  0  0  0  0
   -2.3943    1.0168    0.1085 C   0  0  0  0  0  0  0  0  0  0  0  0
   -1.5437   -0.0871    0.0446 C   0  0  0  0  0  0  0  0  0  0  0  0
   -2.9009    3.5516    0.1521 C   0  0  0  0  0  0  0  0  0  0  0  0
   -1.0083    2.6116    1.4490 C   0  0  0  0  0  0  0  0  0  0  0  0
   -2.0741   -1.3750    0.0177 C   0  0  0  0  0  0  0  0  0  0  0  0
   -3.7759    0.8270    0.1443 C   0  0  0  0  0  0  0  0  0  0  0  0
   -0.9978    2.6885   -1.1291 C   0  0  0  0  0  0  0  0  0  0  0  0
   -3.4572   -1.5694    0.0537 C   0  0  0  0  0  0  0  0  0  0  0  0
   -4.3060   -0.4636    0.1169 C   0  0  0  0  0  0  0  0  0  0  0  0
   -1.1551   -2.5216   -0.0471 C   0  0  0  0  0  0  0  0  0  0  0  0
    0.6745   -0.9132   -0.0613 C   0  0  0  0  0  0  0  0  0  0  0  0
    0.2927   -2.2032   -0.0846 C   0  0  0  0  0  0  0  0  0  0  0  0
    2.0905   -0.5060   -0.0880 C   0  0  0  0  0  0  0  0  0  0  0  0
    0.2977    3.0168   -1.2150 C   0  0  0  0  0  0  0  0  0  0  0  0
    2.7297   -0.2819   -1.3076 C   0  0  0  0  0  0  0  0  0  0  0  0
    2.7928   -0.3451    1.1068 C   0  0  0  0  0  0  0  0  0  0  0  0
    4.0703    0.1028   -1.3325 C   0  0  0  0  0  0  0  0  0  0  0  0
    4.1333    0.0398    1.0817 C   0  0  0  0  0  0  0  0  0  0  0  0
    4.7721    0.2637   -0.1378 C   0  0  0  0  0  0  0  0  0  0  0  0
    6.7376    0.7850    1.0955 C   0  0  0  0  0  0  0  0  0  0  0  0
   -3.4935    3.5775    1.0745 H   0  0  0  0  0  0  0  0  0  0  0  0
   -2.3838    4.5235    0.1414 H   0  0  0  0  0  0  0  0  0  0  0  0
   -3.5301    3.5740   -0.7464 H   0  0  0  0  0  0  0  0  0  0  0  0
   -1.6292    2.4046    2.3299 H   0  0  0  0  0  0  0  0  0  0  0  0
   -0.6567    3.6471    1.5376 H   0  0  0  0  0  0  0  0  0  0  0  0
   -0.1250    1.9718    1.5262 H   0  0  0  0  0  0  0  0  0  0  0  0
   -1.5419    2.6062   -2.0705 H   0  0  0  0  0  0  0  0  0  0  0  0
   -5.3827   -0.6146    0.1448 H   0  0  0  0  0  0  0  0  0  0  0  0
    0.7522    3.1853   -2.1857 H   0  0  0  0  0  0  0  0  0  0  0  0
    0.9317    3.1225   -0.3433 H   0  0  0  0  0  0  0  0  0  0  0  0
   -5.5412    1.5673    0.2233 H   0  0  0  0  0  0  0  0  0  0  0  0
    2.1954   -0.4022   -2.2469 H   0  0  0  0  0  0  0  0  0  0  0  0
    2.3070   -0.5155    2.0646 H   0  0  0  0  0  0  0  0  0  0  0  0
   -3.3449   -3.4941   -0.0186 H   0  0  0  0  0  0  0  0  0  0  0  0
    2.0946   -2.9103   -0.1429 H   0  0  0  0  0  0  0  0  0  0  0  0
    4.5624    0.2761   -2.2855 H   0  0  0  0  0  0  0  0  0  0  0  0
    4.6182    0.1465    2.0461 H   0  0  0  0  0  0  0  0  0  0  0  0
    6.7860   -0.1658    1.6371 H   0  0  0  0  0  0  0  0  0  0  0  0
    6.2856    1.5820    1.6956 H   0  0  0  0  0  0  0  0  0  0  0  0
    7.7692    1.0873    0.8876 H   0  0  0  0  0  0  0  0  0  0  0  0
  1  9  1  0  0  0  0
  1 18  1  0  0  0  0
  2 13  1  0  0  0  0
  2 38  1  0  0  0  0
  3 15  1  0  0  0  0
  3 41  1  0  0  0  0
  4 19  1  0  0  0  0
  4 42  1  0  0  0  0
  5 17  2  0  0  0  0
  6 26  1  0  0  0  0
  6 27  1  0  0  0  0
  7  8  1  0  0  0  0
  7 10  1  0  0  0  0
  7 11  1  0  0  0  0
  7 14  1  0  0  0  0
  8  9  1  0  0  0  0
  8 13  2  0  0  0  0
  9 12  2  0  0  0  0
 10 28  1  0  0  0  0
 10 29  1  0  0  0  0
 10 30  1  0  0  0  0
 11 31  1  0  0  0  0
 11 32  1  0  0  0  0
 11 33  1  0  0  0  0
 12 15  1  0  0  0  0
 12 17  1  0  0  0  0
 13 16  1  0  0  0  0
 14 21  2  0  0  0  0
 14 34  1  0  0  0  0
 15 16  2  0  0  0  0
 16 35  1  0  0  0  0
 17 19  1  0  0  0  0
 18 19  2  0  0  0  0
 18 20  1  0  0  0  0
 20 22  2  0  0  0  0
 20 23  1  0  0  0  0
 21 36  1  0  0  0  0
 21 37  1  0  0  0  0
 22 24  1  0  0  0  0
 22 39  1  0  0  0  0
 23 25  2  0  0  0  0
 23 40  1  0  0  0  0
 24 26  2  0  0  0  0
 24 43  1  0  0  0  0
 25 26  1  0  0  0  0
 25 44  1  0  0  0  0
 27 45  1  0  0  0  0
 27 46  1  0  0  0  0
 27 47  1  0  0  0  0
M  END
> <PUBCHEM_COMPOUND_CID>
5281949

> <PUBCHEM_CONFORMER_RMSD>
0.8

> <PUBCHEM_CONFORMER_DIVERSEORDER>
1
6
4
5
3
2

> <PUBCHEM_MMFF94_PARTIAL_CHARGES>
36
1 -0.16
12 0.09
13 0.08
14 -0.29
15 0.08
16 -0.15
17 0.47
18 0.05
19 0.09
2 -0.53
20 0.03
21 -0.3
22 -0.15
23 -0.15
24 -0.15
25 -0.15
26 0.08
27 0.28
3 -0.53
34 0.15
35 0.15
36 0.15
37 0.15
38 0.45
39 0.15
4 -0.53
40 0.15
41 0.45
42 0.45
43 0.15
44 0.15
5 -0.57
6 -0.36
7 0.28
8 -0.14
9 0.08

> <PUBCHEM_EFFECTIVE_ROTOR_COUNT>
4

> <PUBCHEM_PHARMACOPHORE_FEATURES>
11
1 1 acceptor
1 2 donor
1 21 hydrophobe
1 3 donor
1 4 donor
1 5 acceptor
1 6 acceptor
3 7 10 11 hydrophobe
6 1 9 12 17 18 19 rings
6 20 22 23 24 25 26 rings
6 8 9 12 13 15 16 rings

> <PUBCHEM_HEAVY_ATOM_COUNT>
27

> <PUBCHEM_ATOM_DEF_STEREO_COUNT>
0

> <PUBCHEM_ATOM_UDEF_STEREO_COUNT>
0

> <PUBCHEM_BOND_DEF_STEREO_COUNT>
0

> <PUBCHEM_BOND_UDEF_STEREO_COUNT>
0

> <PUBCHEM_ISOTOPIC_ATOM_COUNT>
0

> <PUBCHEM_COMPONENT_COUNT>
1

> <PUBCHEM_CACTVS_TAUTO_COUNT>
24

> <PUBCHEM_CONFORMER_ID>
0050989D00000001

> <PUBCHEM_MMFF94_ENERGY>
108.4593

> <PUBCHEM_FEATURE_SELFOVERLAP>
55.848

> <PUBCHEM_SHAPE_FINGERPRINT>
10319926 262 18263098694907140498
10411042 1 17905609904585444235
10493431 412 18264479762762954065
10498660 4 18411133675314424245
10670039 82 18342446063689834590
10967382 1 18195522821579540655
1100329 8 18267860580571346027
11135609 187 18196663015491979517
11595378 159 18200892720384415664
12107183 9 17909842255979919986
12166972 35 17559960913605807718
12173636 292 18337953518780795503
12236239 1 17846785066458074266
12390115 104 18188479293582602617
12788726 201 18196637532632425198
12838862 33 18339376231473000117
13140716 1 18195801865288523731
13402501 40 18041284275122518992
13773456 30 17481447270800229460
13782708 43 17821998831747063894
13965767 371 17770498947999411172
14081887 123 18335425698451243649
14117953 113 18199748209767634061
14142880 1 18342176721500304269
14790565 3 18338502127971141309
14910302 57 18262226816182139974
16087824 20 18408887353050493991
18336668 15 18130788893462446781
19591789 44 18194674870439171035
20510252 161 18334572464390213363
20511986 3 17703520943010309596
20600515 1 18336815395086058557
20642791 178 18271792502782598941
20715895 44 17412761862045482245
21033648 29 17749119855077631898
22122407 14 15985095319137966532
23366157 5 17985823972141196402
23402539 116 18409735023736503998
23557571 272 18261387815674071076
23559900 14 18261103132409804550
238 59 16759467344540516757
283562 15 18408887352053702243
3178227 256 18270102532584451211
34934 24 18341615975207542131
3524813 1 18114188514197981938
392239 28 18333446530276951280
469060 322 18268127834642094267
484989 97 18126574410650908831
5104073 3 18268704073024285075
7064713 232 18340483490768376972
7808743 9 18410576218861850312
9925002 15 17536885372884790399
9981440 41 18342734152167679499

> <PUBCHEM_SHAPE_MULTIPOLES>
520.43
10.5
4.02
1.07
15.14
0.13
0.04
-2.15
-1.86
-4.61
0.28
0.97
-0.55
-0.01

> <PUBCHEM_SHAPE_SELFOVERLAP>
1144.723

> <PUBCHEM_SHAPE_VOLUME>
279.4

> <PUBCHEM_COORDINATE_TYPE>
2
5
10

$$$$

