443472
  -OEChem-07051213023D

 52 54  0     1  0  0  0  0  0999 V2000
   -1.0119    0.6462   -0.0315 C   0  0  1  0  0  0  0  0  0  0  0  0
   -1.9616   -0.5964   -0.2898 C   0  0  2  0  0  0  0  0  0  0  0  0
   -3.4547   -0.4665    0.1854 C   0  0  0  0  0  0  0  0  0  0  0  0
    0.3021    0.4013   -0.8852 C   0  0  2  0  0  0  0  0  0  0  0  0
   -1.7398    1.9248   -0.5234 C   0  0  0  0  0  0  0  0  0  0  0  0
   -1.2734   -1.9188    0.1204 C   0  0  0  0  0  0  0  0  0  0  0  0
   -4.0293    0.8931   -0.2817 C   0  0  0  0  0  0  0  0  0  0  0  0
   -3.1453    2.0871    0.0498 C   0  0  0  0  0  0  0  0  0  0  0  0
    0.9400   -0.9331   -0.5204 C   0  0  0  0  0  0  0  0  0  0  0  0
    0.0349   -2.1281   -0.6471 C   0  0  0  0  0  0  0  0  0  0  0  0
   -0.6320    0.8380    1.4542 C   0  0  0  0  0  0  0  0  0  0  0  0
    1.3414    1.5493   -0.9235 C   0  0  0  0  0  0  0  0  0  0  0  0
   -4.3136   -1.5673   -0.4954 C   0  0  0  0  0  0  0  0  0  0  0  0
   -3.6663   -0.6382    1.7015 C   0  0  0  0  0  0  0  0  0  0  0  0
    2.4678    1.4270    0.1034 C   0  0  0  0  0  0  0  0  0  0  0  0
    2.2139   -1.0619   -0.1107 C   0  0  0  0  0  0  0  0  0  0  0  0
    3.1032    0.0638    0.0853 C   0  0  0  0  0  0  0  0  0  0  0  0
    4.4216   -0.1063    0.2654 C   0  0  0  0  0  0  0  0  0  0  0  0
    5.3509    1.0536    0.4691 C   0  0  0  0  0  0  0  0  0  0  0  0
    5.0519   -1.4676    0.2740 C   0  0  0  0  0  0  0  0  0  0  0  0
   -2.0467   -0.6512   -1.3887 H   0  0  0  0  0  0  0  0  0  0  0  0
   -0.0329    0.3021   -1.9300 H   0  0  0  0  0  0  0  0  0  0  0  0
   -1.8098    1.9081   -1.6191 H   0  0  0  0  0  0  0  0  0  0  0  0
   -1.1681    2.8229   -0.2640 H   0  0  0  0  0  0  0  0  0  0  0  0
   -1.9184   -2.7772   -0.0911 H   0  0  0  0  0  0  0  0  0  0  0  0
   -1.0770   -1.9361    1.1982 H   0  0  0  0  0  0  0  0  0  0  0  0
   -5.0251    1.0533    0.1511 H   0  0  0  0  0  0  0  0  0  0  0  0
   -4.1726    0.8720   -1.3710 H   0  0  0  0  0  0  0  0  0  0  0  0
   -3.1058    2.2469    1.1321 H   0  0  0  0  0  0  0  0  0  0  0  0
   -3.5980    2.9920   -0.3736 H   0  0  0  0  0  0  0  0  0  0  0  0
   -0.1853   -2.2929   -1.7094 H   0  0  0  0  0  0  0  0  0  0  0  0
    0.5184   -3.0423   -0.2826 H   0  0  0  0  0  0  0  0  0  0  0  0
   -0.0272    1.7407    1.5859 H   0  0  0  0  0  0  0  0  0  0  0  0
   -1.4940    0.9792    2.1016 H   0  0  0  0  0  0  0  0  0  0  0  0
   -0.0604   -0.0024    1.8575 H   0  0  0  0  0  0  0  0  0  0  0  0
    0.8695    2.5312   -0.8328 H   0  0  0  0  0  0  0  0  0  0  0  0
    1.8043    1.5431   -1.9217 H   0  0  0  0  0  0  0  0  0  0  0  0
   -5.3821   -1.4007   -0.3132 H   0  0  0  0  0  0  0  0  0  0  0  0
   -4.1659   -1.5758   -1.5811 H   0  0  0  0  0  0  0  0  0  0  0  0
   -4.0777   -2.5659   -0.1144 H   0  0  0  0  0  0  0  0  0  0  0  0
   -3.3126    0.2107    2.2849 H   0  0  0  0  0  0  0  0  0  0  0  0
   -4.7351   -0.7295    1.9331 H   0  0  0  0  0  0  0  0  0  0  0  0
   -3.1823   -1.5429    2.0813 H   0  0  0  0  0  0  0  0  0  0  0  0
    2.0907    1.6270    1.1115 H   0  0  0  0  0  0  0  0  0  0  0  0
    3.1785    2.2269   -0.1276 H   0  0  0  0  0  0  0  0  0  0  0  0
    2.5748   -2.0612    0.1121 H   0  0  0  0  0  0  0  0  0  0  0  0
    6.2192    0.7449    1.0629 H   0  0  0  0  0  0  0  0  0  0  0  0
    5.7188    1.4225   -0.4933 H   0  0  0  0  0  0  0  0  0  0  0  0
    4.9001    1.8786    1.0281 H   0  0  0  0  0  0  0  0  0  0  0  0
    6.1240   -1.3943    0.0564 H   0  0  0  0  0  0  0  0  0  0  0  0
    4.9472   -1.9349    1.2584 H   0  0  0  0  0  0  0  0  0  0  0  0
    4.6473   -2.1326   -0.4952 H   0  0  0  0  0  0  0  0  0  0  0  0
  1  2  1  0  0  0  0
  1  4  1  0  0  0  0
  1  5  1  0  0  0  0
  1 11  1  0  0  0  0
  2  3  1  0  0  0  0
  2  6  1  0  0  0  0
  2 21  1  0  0  0  0
  3  7  1  0  0  0  0
  3 13  1  0  0  0  0
  3 14  1  0  0  0  0
  4  9  1  0  0  0  0
  4 12  1  0  0  0  0
  4 22  1  0  0  0  0
  5  8  1  0  0  0  0
  5 23  1  0  0  0  0
  5 24  1  0  0  0  0
  6 10  1  0  0  0  0
  6 25  1  0  0  0  0
  6 26  1  0  0  0  0
  7  8  1  0  0  0  0
  7 27  1  0  0  0  0
  7 28  1  0  0  0  0
  8 29  1  0  0  0  0
  8 30  1  0  0  0  0
  9 10  1  0  0  0  0
  9 16  2  0  0  0  0
 10 31  1  0  0  0  0
 10 32  1  0  0  0  0
 11 33  1  0  0  0  0
 11 34  1  0  0  0  0
 11 35  1  0  0  0  0
 12 15  1  0  0  0  0
 12 36  1  0  0  0  0
 12 37  1  0  0  0  0
 13 38  1  0  0  0  0
 13 39  1  0  0  0  0
 13 40  1  0  0  0  0
 14 41  1  0  0  0  0
 14 42  1  0  0  0  0
 14 43  1  0  0  0  0
 15 17  1  0  0  0  0
 15 44  1  0  0  0  0
 15 45  1  0  0  0  0
 16 17  1  0  0  0  0
 16 46  1  0  0  0  0
 17 18  2  0  0  0  0
 18 19  1  0  0  0  0
 18 20  1  0  0  0  0
 19 47  1  0  0  0  0
 19 48  1  0  0  0  0
 19 49  1  0  0  0  0
 20 50  1  0  0  0  0
 20 51  1  0  0  0  0
 20 52  1  0  0  0  0
M  END
> <PUBCHEM_COMPOUND_CID>
443472

> <PUBCHEM_CONFORMER_RMSD>
0.6

> <PUBCHEM_CONFORMER_DIVERSEORDER>
1

> <PUBCHEM_MMFF94_PARTIAL_CHARGES>
10
10 0.14
15 0.14
16 -0.15
17 -0.14
18 -0.28
19 0.14
20 0.14
4 0.14
46 0.15
9 -0.28

> <PUBCHEM_EFFECTIVE_ROTOR_COUNT>
1.6

> <PUBCHEM_PHARMACOPHORE_FEATURES>
5
3 18 19 20 hydrophobe
3 3 13 14 hydrophobe
6 1 2 3 5 7 8 rings
6 1 2 4 6 9 10 rings
6 4 9 12 15 16 17 rings

> <PUBCHEM_HEAVY_ATOM_COUNT>
20

> <PUBCHEM_ATOM_DEF_STEREO_COUNT>
3

> <PUBCHEM_ATOM_UDEF_STEREO_COUNT>
0

> <PUBCHEM_BOND_DEF_STEREO_COUNT>
0

> <PUBCHEM_BOND_UDEF_STEREO_COUNT>
0

> <PUBCHEM_ISOTOPIC_ATOM_COUNT>
0

> <PUBCHEM_COMPONENT_COUNT>
1

> <PUBCHEM_CACTVS_TAUTO_COUNT>
1

> <PUBCHEM_CONFORMER_ID>
0006C45000000001

> <PUBCHEM_MMFF94_ENERGY>
66.5845

> <PUBCHEM_FEATURE_SELFOVERLAP>
25.413

> <PUBCHEM_SHAPE_FINGERPRINT>
10 15 18339654330958909632
10062212 137 18411422821355952431
10863032 1 18337675346349065979
11132069 177 18259979370995696383
11370993 70 18408890667209090453
11680986 33 18120646083411396655
12011746 2 18412546543709121110
12107183 9 17764315333285333186
12119455 92 17167583799728359166
12251169 10 18413108329821253044
12390115 104 18115572859409404152
12403259 226 18335990765971566113
12403259 415 18260269650766400088
12403260 363 18336831905293693941
12403814 3 18410572864681951665
12507560 40 18408606963772237072
12633257 1 18040704840651806585
12670546 56 18271816726191854826
13140716 1 18195519286310143027
13224815 77 18113332016098962725
13583140 156 17346325868843026115
13675066 3 18411699876885142570
14178342 30 18267007548189389593
14341114 176 18341607127189816666
14420673 8 17981609574611416978
14787075 74 18041285361300682602
14790565 3 17981318994414704716
15042514 8 18266739082716494135
15196674 1 18410295826290406718
15209294 21 17894899767834257785
15536298 74 18261671583894649902
15788980 27 18272087205735672430
16945 1 18340473483588977127
17349148 13 18335139773788259094
17804303 29 18410853270116970628
17862501 102 18409733953983555454
17980427 23 18060131033782837901
1813 80 16988844999600587158
18186145 218 17967800678537244175
19591789 44 18339927142432793142
200 152 18187653496231270021
20261772 1 18409165485303217830
20510252 161 18260265269604112224
21033648 29 18187661210014068408
21267235 1 18412537695744454502
21682296 61 17971187269405292094
22182313 1 18265883842926218879
22854114 59 18333450937292736912
23402539 116 18411145718761379575
23557571 272 17966968322834569887
23559900 14 18043814414650267374
26918003 58 17846498097859249203
2748010 2 18122614213694085047
296302 2 18334856125526330960
3286 77 18341615884528244372
335352 9 18339924925659345991
34934 24 18269843171855893709
350125 39 18410011009544809869
351380 180 18411985749517967691
4214541 1 18411140263968550300
474229 33 18334017168095088694
5104073 3 18411702118905622648
69090 78 18335143068096818198
9709674 26 18410287012690993982

> <PUBCHEM_SHAPE_MULTIPOLES>
411.59
9.47
2.19
1.04
7.21
0.03
-0.3
0.5
-1.71
-0.69
0.28
-0.53
-0.03
0.11

> <PUBCHEM_SHAPE_SELFOVERLAP>
856.351

> <PUBCHEM_SHAPE_VOLUME>
232.8

> <PUBCHEM_COORDINATE_TYPE>
2
5
10

$$$$

