5281419
  -OEChem-07051212573D

 56 58  0     0  0  0  0  0  0999 V2000
   -2.4076    1.2072    0.8028 O   0  0  0  0  0  0  0  0  0  0  0  0
    2.1125   -0.0335   -0.4432 O   0  0  0  0  0  0  0  0  0  0  0  0
   -1.2320   -3.3732    0.1502 O   0  0  0  0  0  0  0  0  0  0  0  0
    1.5947   -3.0683   -1.6561 O   0  0  0  0  0  0  0  0  0  0  0  0
   -2.9774    3.3982    1.1182 O   0  0  0  0  0  0  0  0  0  0  0  0
    0.4418   -1.6901   -0.1456 C   0  0  0  0  0  0  0  0  0  0  0  0
   -0.1162    0.6546    0.1761 C   0  0  0  0  0  0  0  0  0  0  0  0
    3.6795   -3.7756    0.2171 C   0  0  0  0  0  0  0  0  0  0  0  0
   -1.8069   -1.0806    0.4734 C   0  0  0  0  0  0  0  0  0  0  0  0
    2.2629   -3.3551    0.6467 C   0  0  0  0  0  0  0  0  0  0  0  0
   -1.4185    0.2598    0.4777 C   0  0  0  0  0  0  0  0  0  0  0  0
    0.8169   -0.3424   -0.1374 C   0  0  0  0  0  0  0  0  0  0  0  0
   -0.8681   -2.0583    0.1591 C   0  0  0  0  0  0  0  0  0  0  0  0
    1.4232   -2.7197   -0.4745 C   0  0  0  0  0  0  0  0  0  0  0  0
    0.2236    2.0856    0.1989 C   0  0  0  0  0  0  0  0  0  0  0  0
   -3.2129   -1.4653    0.8021 C   0  0  0  0  0  0  0  0  0  0  0  0
    4.4441   -2.5651   -0.3230 C   0  0  0  0  0  0  0  0  0  0  0  0
    4.4549   -4.3985    1.3809 C   0  0  0  0  0  0  0  0  0  0  0  0
    1.5178    2.6995   -0.0849 C   0  0  0  0  0  0  0  0  0  0  0  0
   -0.7429    2.9638    0.5132 C   0  0  0  0  0  0  0  0  0  0  0  0
   -4.1064   -1.5127   -0.4119 C   0  0  0  0  0  0  0  0  0  0  0  0
   -2.1247    2.5636    0.8354 C   0  0  0  0  0  0  0  0  0  0  0  0
   -5.2040   -0.7742   -0.6642 C   0  0  0  0  0  0  0  0  0  0  0  0
    1.8324    3.0800   -1.3865 C   0  0  0  0  0  0  0  0  0  0  0  0
    2.4291    2.9015    0.9478 C   0  0  0  0  0  0  0  0  0  0  0  0
    3.0684    3.6670   -1.6577 C   0  0  0  0  0  0  0  0  0  0  0  0
    3.6650    3.4887    0.6768 C   0  0  0  0  0  0  0  0  0  0  0  0
   -6.0515   -0.8738   -1.9007 C   0  0  0  0  0  0  0  0  0  0  0  0
   -5.6824    0.2453    0.3353 C   0  0  0  0  0  0  0  0  0  0  0  0
    3.9846    3.8715   -0.6259 C   0  0  0  0  0  0  0  0  0  0  0  0
    3.6068   -4.5215   -0.5842 H   0  0  0  0  0  0  0  0  0  0  0  0
    1.7098   -4.2317    1.0045 H   0  0  0  0  0  0  0  0  0  0  0  0
    2.3249   -2.6430    1.4788 H   0  0  0  0  0  0  0  0  0  0  0  0
   -3.2279   -2.4672    1.2527 H   0  0  0  0  0  0  0  0  0  0  0  0
   -3.5864   -0.8366    1.6128 H   0  0  0  0  0  0  0  0  0  0  0  0
    4.4336   -1.7328    0.3888 H   0  0  0  0  0  0  0  0  0  0  0  0
    5.4912   -2.8262   -0.5136 H   0  0  0  0  0  0  0  0  0  0  0  0
    4.0329   -2.2171   -1.2741 H   0  0  0  0  0  0  0  0  0  0  0  0
    4.5797   -3.6847    2.2023 H   0  0  0  0  0  0  0  0  0  0  0  0
    5.4497   -4.7230    1.0579 H   0  0  0  0  0  0  0  0  0  0  0  0
    3.9266   -5.2749    1.7706 H   0  0  0  0  0  0  0  0  0  0  0  0
   -0.5554    4.0348    0.5474 H   0  0  0  0  0  0  0  0  0  0  0  0
   -3.8165   -2.2454   -1.1649 H   0  0  0  0  0  0  0  0  0  0  0  0
    2.5091   -0.7428   -0.9719 H   0  0  0  0  0  0  0  0  0  0  0  0
   -0.4956   -3.9360   -0.1365 H   0  0  0  0  0  0  0  0  0  0  0  0
    1.1295    2.9260   -2.2016 H   0  0  0  0  0  0  0  0  0  0  0  0
    2.1954    2.6072    1.9680 H   0  0  0  0  0  0  0  0  0  0  0  0
    3.3177    3.9645   -2.6720 H   0  0  0  0  0  0  0  0  0  0  0  0
    4.3788    3.6473    1.4799 H   0  0  0  0  0  0  0  0  0  0  0  0
   -7.0781   -1.1496   -1.6394 H   0  0  0  0  0  0  0  0  0  0  0  0
   -5.6671   -1.6309   -2.5921 H   0  0  0  0  0  0  0  0  0  0  0  0
   -6.0691    0.0843   -2.4300 H   0  0  0  0  0  0  0  0  0  0  0  0
   -5.0752    0.3654    1.2306 H   0  0  0  0  0  0  0  0  0  0  0  0
   -6.6934   -0.0144    0.6687 H   0  0  0  0  0  0  0  0  0  0  0  0
   -5.7299    1.2305   -0.1426 H   0  0  0  0  0  0  0  0  0  0  0  0
    4.9471    4.3283   -0.8370 H   0  0  0  0  0  0  0  0  0  0  0  0
  1 11  1  0  0  0  0
  1 22  1  0  0  0  0
  2 12  1  0  0  0  0
  2 44  1  0  0  0  0
  3 13  1  0  0  0  0
  3 45  1  0  0  0  0
  4 14  2  0  0  0  0
  5 22  2  0  0  0  0
  6 12  2  0  0  0  0
  6 13  1  0  0  0  0
  6 14  1  0  0  0  0
  7 11  2  0  0  0  0
  7 12  1  0  0  0  0
  7 15  1  0  0  0  0
  8 10  1  0  0  0  0
  8 17  1  0  0  0  0
  8 18  1  0  0  0  0
  8 31  1  0  0  0  0
  9 11  1  0  0  0  0
  9 13  2  0  0  0  0
  9 16  1  0  0  0  0
 10 14  1  0  0  0  0
 10 32  1  0  0  0  0
 10 33  1  0  0  0  0
 15 19  1  0  0  0  0
 15 20  2  0  0  0  0
 16 21  1  0  0  0  0
 16 34  1  0  0  0  0
 16 35  1  0  0  0  0
 17 36  1  0  0  0  0
 17 37  1  0  0  0  0
 17 38  1  0  0  0  0
 18 39  1  0  0  0  0
 18 40  1  0  0  0  0
 18 41  1  0  0  0  0
 19 24  2  0  0  0  0
 19 25  1  0  0  0  0
 20 22  1  0  0  0  0
 20 42  1  0  0  0  0
 21 23  2  0  0  0  0
 21 43  1  0  0  0  0
 23 28  1  0  0  0  0
 23 29  1  0  0  0  0
 24 26  1  0  0  0  0
 24 46  1  0  0  0  0
 25 27  2  0  0  0  0
 25 47  1  0  0  0  0
 26 30  2  0  0  0  0
 26 48  1  0  0  0  0
 27 30  1  0  0  0  0
 27 49  1  0  0  0  0
 28 50  1  0  0  0  0
 28 51  1  0  0  0  0
 28 52  1  0  0  0  0
 29 53  1  0  0  0  0
 29 54  1  0  0  0  0
 29 55  1  0  0  0  0
 30 56  1  0  0  0  0
M  END
> <PUBCHEM_COMPOUND_CID>
5281419

> <PUBCHEM_CONFORMER_RMSD>
0.8

> <PUBCHEM_CONFORMER_DIVERSEORDER>
1
20
7
37
27
35
38
25
18
31
34
12
39
5
36
4
29
30
33
8
21
15
28
22
24
16
9
13
17
10
32
26
11
19
23
14
6
3
2

> <PUBCHEM_MMFF94_PARTIAL_CHARGES>
36
1 -0.23
10 0.06
11 0.08
12 0.08
13 0.08
14 0.42
15 -0.06
16 0.28
19 0.03
2 -0.53
20 -0.14
21 -0.29
22 0.71
23 -0.28
24 -0.15
25 -0.15
26 -0.15
27 -0.15
28 0.14
29 0.14
3 -0.53
30 -0.15
4 -0.57
42 0.15
43 0.15
44 0.45
45 0.45
46 0.15
47 0.15
48 0.15
49 0.15
5 -0.57
56 0.15
6 0.09
7 0.03
9 -0.14

> <PUBCHEM_EFFECTIVE_ROTOR_COUNT>
6

> <PUBCHEM_PHARMACOPHORE_FEATURES>
9
1 2 donor
1 3 donor
1 4 acceptor
1 5 acceptor
3 23 28 29 hydrophobe
3 8 17 18 hydrophobe
6 1 7 11 15 20 22 rings
6 19 24 25 26 27 30 rings
6 6 7 9 11 12 13 rings

> <PUBCHEM_HEAVY_ATOM_COUNT>
30

> <PUBCHEM_ATOM_DEF_STEREO_COUNT>
0

> <PUBCHEM_ATOM_UDEF_STEREO_COUNT>
0

> <PUBCHEM_BOND_DEF_STEREO_COUNT>
0

> <PUBCHEM_BOND_UDEF_STEREO_COUNT>
0

> <PUBCHEM_ISOTOPIC_ATOM_COUNT>
0

> <PUBCHEM_COMPONENT_COUNT>
1

> <PUBCHEM_CACTVS_TAUTO_COUNT>
36

> <PUBCHEM_CONFORMER_ID>
0050968B00000001

> <PUBCHEM_MMFF94_ENERGY>
96.7229

> <PUBCHEM_FEATURE_SELFOVERLAP>
45.696

> <PUBCHEM_SHAPE_FINGERPRINT>
10411042 1 18267024053606640723
10675989 125 18338513011344208684
1100329 8 18121210150320260457
11135926 11 18337392622244013853
12160290 23 17117168133435871598
13140716 1 18122053209302949866
13540713 5 18187638133661026529
13757389 114 17469305393953753204
13911987 19 17979911619161762933
140371 6 18337107964301411075
14068700 675 18189909771506775283
14251757 5 17259324580534171628
14508225 48 18195255631105355287
14790565 3 17979350854855928544
15042514 8 17834394901151696410
15439362 3 18341618083788779141
15927050 60 18120932802733631870
16752209 62 17544762226835703888
167882 2 18339927021946647583
17980427 23 18116152353840301487
20511986 3 17483134651718770144
20600515 1 17683521011115917208
21033648 29 11957237764789774349
21796203 349 17546114974067189067
21927370 108 18124871515134555875
22113638 7 17834103526544198753
22311459 1 18266737073273076035
23366157 5 18343290475160174504
23419403 2 18129121028796515054
23559900 14 18409170982650516330
25019877 29 17095822000347395310
266924 87 18335977572117142205
3084891 72 17975689498251967673
3298306 158 18049439249311615183
3380486 145 17760352692983696235
4058900 60 18198897011604970868
5385378 56 18266448820473326019
6004065 56 17834115625588884761
7471813 234 18334868250688805135
9961470 85 18048041775329927672
9981440 41 18053380994270965859

> <PUBCHEM_SHAPE_MULTIPOLES>
588.04
9.79
7.01
1.27
11.1
1.32
-0.38
1.89
-1.99
-11.47
0.55
0.13
-0.29
-2.12

> <PUBCHEM_SHAPE_SELFOVERLAP>
1266.215

> <PUBCHEM_SHAPE_VOLUME>
325.6

> <PUBCHEM_COORDINATE_TYPE>
2
5
10

$$$$

