19829
  -OEChem-07051212502D

 21 21  0     0  0  0  0  0  0999 V2000
    6.0010    1.4050    0.0000 O   0  0  0  0  0  0  0  0  0  0  0  0
    4.2690    2.4050    0.0000 O   0  0  0  0  0  0  0  0  0  0  0  0
    2.5369    1.4050    0.0000 O   0  0  0  0  0  0  0  0  0  0  0  0
    3.4030   -2.0950    0.0000 O   0  0  0  0  0  0  0  0  0  0  0  0
    5.1350   -2.0950    0.0000 O   0  0  0  0  0  0  0  0  0  0  0  0
    5.1350    0.9050    0.0000 C   0  0  0  0  0  0  0  0  0  0  0  0
    4.2690   -0.5950    0.0000 C   0  0  0  0  0  0  0  0  0  0  0  0
    4.2690    1.4050    0.0000 C   0  0  0  0  0  0  0  0  0  0  0  0
    5.1350   -0.0950    0.0000 C   0  0  0  0  0  0  0  0  0  0  0  0
    3.4030    0.9050    0.0000 C   0  0  0  0  0  0  0  0  0  0  0  0
    3.4030   -0.0950    0.0000 C   0  0  0  0  0  0  0  0  0  0  0  0
    4.2690   -1.5950    0.0000 C   0  0  0  0  0  0  0  0  0  0  0  0
    6.8671    0.9050    0.0000 C   0  0  0  0  0  0  0  0  0  0  0  0
    5.6720   -0.4050    0.0000 H   0  0  0  0  0  0  0  0  0  0  0  0
    2.8660   -0.4050    0.0000 H   0  0  0  0  0  0  0  0  0  0  0  0
    6.5571    0.3681    0.0000 H   0  0  0  0  0  0  0  0  0  0  0  0
    7.4040    0.5950    0.0000 H   0  0  0  0  0  0  0  0  0  0  0  0
    7.1771    1.4419    0.0000 H   0  0  0  0  0  0  0  0  0  0  0  0
    4.8059    2.7150    0.0000 H   0  0  0  0  0  0  0  0  0  0  0  0
    2.0000    1.0950    0.0000 H   0  0  0  0  0  0  0  0  0  0  0  0
    3.4030   -2.7150    0.0000 H   0  0  0  0  0  0  0  0  0  0  0  0
  1  6  1  0  0  0  0
  1 13  1  0  0  0  0
  2  8  1  0  0  0  0
  2 19  1  0  0  0  0
  3 10  1  0  0  0  0
  3 20  1  0  0  0  0
  4 12  1  0  0  0  0
  4 21  1  0  0  0  0
  5 12  2  0  0  0  0
  6  8  1  0  0  0  0
  6  9  2  0  0  0  0
  7  9  1  0  0  0  0
  7 11  2  0  0  0  0
  7 12  1  0  0  0  0
  8 10  2  0  0  0  0
  9 14  1  0  0  0  0
 10 11  1  0  0  0  0
 11 15  1  0  0  0  0
 13 16  1  0  0  0  0
 13 17  1  0  0  0  0
 13 18  1  0  0  0  0
M  END
> <PUBCHEM_COMPOUND_CID>
19829

> <PUBCHEM_COMPOUND_CANONICALIZED>
1

> <PUBCHEM_CACTVS_COMPLEXITY>
193

> <PUBCHEM_CACTVS_HBOND_ACCEPTOR>
5

> <PUBCHEM_CACTVS_HBOND_DONOR>
3

> <PUBCHEM_CACTVS_ROTATABLE_BOND>
2

> <PUBCHEM_CACTVS_SUBSKEYS>
AAADccBwOAAAAAAAAAAAAAAAAAAAAAAAAAAwAAAAAAAAAAABAAAAGgAACAAADASAmAIyDoAABgCIAiDSCAACCAAkIAAAiAEGiMgNJzKGNRqAcSMlwBULuYfK7DzOIAABCAAAQABAAAIQAACAAAAAAAAAAA==

> <PUBCHEM_IUPAC_OPENEYE_NAME>
3,4-dihydroxy-5-methoxy-benzoic acid

> <PUBCHEM_IUPAC_CAS_NAME>
3,4-dihydroxy-5-methoxybenzoic acid

> <PUBCHEM_IUPAC_NAME>
3,4-dihydroxy-5-methoxybenzoic acid

> <PUBCHEM_IUPAC_SYSTEMATIC_NAME>
3-methoxy-4,5-bis(oxidanyl)benzoic acid

> <PUBCHEM_IUPAC_TRADITIONAL_NAME>
3,4-dihydroxy-5-methoxy-benzoic acid

> <PUBCHEM_IUPAC_INCHI>
InChI=1S/C8H8O5/c1-13-6-3-4(8(11)12)2-5(9)7(6)10/h2-3,9-10H,1H3,(H,11,12)

> <PUBCHEM_IUPAC_INCHIKEY>
KWCCUYSXAYTNKA-UHFFFAOYSA-N

> <PUBCHEM_XLOGP3>
0.7

> <PUBCHEM_EXACT_MASS>
184.037173

> <PUBCHEM_MOLECULAR_FORMULA>
C8H8O5

> <PUBCHEM_MOLECULAR_WEIGHT>
184.14612

> <PUBCHEM_OPENEYE_CAN_SMILES>
COC1=CC(=CC(=C1O)O)C(=O)O

> <PUBCHEM_OPENEYE_ISO_SMILES>
COC1=CC(=CC(=C1O)O)C(=O)O

> <PUBCHEM_CACTVS_TPSA>
87

> <PUBCHEM_MONOISOTOPIC_WEIGHT>
184.037173

> <PUBCHEM_TOTAL_CHARGE>
0

> <PUBCHEM_HEAVY_ATOM_COUNT>
13

> <PUBCHEM_ATOM_DEF_STEREO_COUNT>
0

> <PUBCHEM_ATOM_UDEF_STEREO_COUNT>
0

> <PUBCHEM_BOND_DEF_STEREO_COUNT>
0

> <PUBCHEM_BOND_UDEF_STEREO_COUNT>
0

> <PUBCHEM_ISOTOPIC_ATOM_COUNT>
0

> <PUBCHEM_COMPONENT_COUNT>
1

> <PUBCHEM_CACTVS_TAUTO_COUNT>
12

> <PUBCHEM_COORDINATE_TYPE>
1
5
255

> <PUBCHEM_BONDANNOTATIONS>
10  11  8
6  8  8
6  9  8
7  11  8
7  9  8
8  10  8

$$$$

