46174047
  -OEChem-07051213112D

 56 58  0     1  0  0  0  0  0999 V2000
    8.4732   -1.6968    0.0000 P   0  0  3  0  0  0  0  0  0  0  0  0
    6.8909   -0.9923    0.0000 P   0  0  3  0  0  0  0  0  0  0  0  0
    5.0298    1.4723    0.0000 O   0  0  0  0  0  0  0  0  0  0  0  0
    9.7465   -3.3523    0.0000 O   0  0  0  0  0  0  0  0  0  0  0  0
    3.1330   -0.2878    0.0000 O   0  0  0  0  0  0  0  0  0  0  0  0
    2.4608    1.7813    0.0000 O   0  0  0  0  0  0  0  0  0  0  0  0
    9.4677   -1.5922    0.0000 O   0  0  0  0  0  0  0  0  0  0  0  0
    6.3031   -0.1832    0.0000 O   0  0  0  0  0  0  0  0  0  0  0  0
   12.3156   -3.6613    0.0000 O   0  0  0  0  0  0  0  0  0  0  0  0
   11.6433   -1.5922    0.0000 O   0  0  0  0  0  0  0  0  0  0  0  0
    7.4787   -1.8013    0.0000 O   0  0  0  0  0  0  0  0  0  0  0  0
   11.4216   -5.4401    0.0000 O   0  0  0  0  0  0  0  0  0  0  0  0
    2.4888    3.0601    0.0000 O   0  0  0  0  0  0  0  0  0  0  0  0
    8.5778   -2.6913    0.0000 O   0  0  0  0  0  0  0  0  0  0  0  0
    7.6999   -0.4045    0.0000 O   0  0  0  0  0  0  0  0  0  0  0  0
    8.3687   -0.7022    0.0000 O   0  0  0  0  0  0  0  0  0  0  0  0
    6.0819   -1.5800    0.0000 O   0  0  0  0  0  0  0  0  0  0  0  0
    4.2208    6.0601    0.0000 O   0  0  0  0  0  0  0  0  0  0  0  0
    4.2208    3.0601    0.0000 N   0  0  0  0  0  0  0  0  0  0  0  0
    3.3548    4.5601    0.0000 N   0  0  0  0  0  0  0  0  0  0  0  0
    3.7208    0.5212    0.0000 C   0  0  1  0  0  0  0  0  0  0  0  0
    3.4118    1.4723    0.0000 C   0  0  2  0  0  0  0  0  0  0  0  0
    4.7208    0.5212    0.0000 C   0  0  1  0  0  0  0  0  0  0  0  0
    4.2208    2.0601    0.0000 C   0  0  3  0  0  0  0  0  0  0  0  0
   11.3645   -3.3523    0.0000 C   0  0  2  0  0  0  0  0  0  0  0  0
   11.0555   -2.4012    0.0000 C   0  0  2  0  0  0  0  0  0  0  0  0
   10.5555   -3.9401    0.0000 C   0  0  2  0  0  0  0  0  0  0  0  0
    5.3086   -0.2878    0.0000 C   0  0  0  0  0  0  0  0  0  0  0  0
   10.0555   -2.4012    0.0000 C   0  0  2  0  0  0  0  0  0  0  0  0
   10.5555   -4.9401    0.0000 C   0  0  0  0  0  0  0  0  0  0  0  0
    3.3548    3.5601    0.0000 C   0  0  0  0  0  0  0  0  0  0  0  0
    5.0868    3.5601    0.0000 C   0  0  0  0  0  0  0  0  0  0  0  0
    5.0868    4.5601    0.0000 C   0  0  0  0  0  0  0  0  0  0  0  0
    4.2208    5.0601    0.0000 C   0  0  0  0  0  0  0  0  0  0  0  0
    3.1085    0.6182    0.0000 H   0  0  0  0  0  0  0  0  0  0  0  0
    2.9734    1.0339    0.0000 H   0  0  0  0  0  0  0  0  0  0  0  0
    5.3332    0.6182    0.0000 H   0  0  0  0  0  0  0  0  0  0  0  0
    3.6684    2.3416    0.0000 H   0  0  0  0  0  0  0  0  0  0  0  0
   11.4615   -3.9647    0.0000 H   0  0  0  0  0  0  0  0  0  0  0  0
   10.7741   -1.8488    0.0000 H   0  0  0  0  0  0  0  0  0  0  0  0
   10.0031   -4.2216    0.0000 H   0  0  0  0  0  0  0  0  0  0  0  0
    9.4432   -2.4982    0.0000 H   0  0  0  0  0  0  0  0  0  0  0  0
    4.7514   -0.5596    0.0000 H   0  0  0  0  0  0  0  0  0  0  0  0
    5.4795   -0.8838    0.0000 H   0  0  0  0  0  0  0  0  0  0  0  0
    9.9450   -4.8324    0.0000 H   0  0  0  0  0  0  0  0  0  0  0  0
   10.3435   -5.5227    0.0000 H   0  0  0  0  0  0  0  0  0  0  0  0
    3.3852   -0.8542    0.0000 H   0  0  0  0  0  0  0  0  0  0  0  0
    2.0000    1.3664    0.0000 H   0  0  0  0  0  0  0  0  0  0  0  0
    5.6238    3.2501    0.0000 H   0  0  0  0  0  0  0  0  0  0  0  0
   12.7764   -3.2464    0.0000 H   0  0  0  0  0  0  0  0  0  0  0  0
   12.2599   -1.6570    0.0000 H   0  0  0  0  0  0  0  0  0  0  0  0
    2.8179    4.8701    0.0000 H   0  0  0  0  0  0  0  0  0  0  0  0
    5.6238    4.8701    0.0000 H   0  0  0  0  0  0  0  0  0  0  0  0
   11.4216   -6.0601    0.0000 H   0  0  0  0  0  0  0  0  0  0  0  0
    8.0762   -3.0557    0.0000 H   0  0  0  0  0  0  0  0  0  0  0  0
    7.6351    0.2121    0.0000 H   0  0  0  0  0  0  0  0  0  0  0  0
  1  7  1  0  0  0  0
  1 11  1  0  0  0  0
  1 14  1  0  0  0  0
  1 16  2  0  0  0  0
  2  8  1  0  0  0  0
  2 11  1  0  0  0  0
  2 15  1  0  0  0  0
  2 17  2  0  0  0  0
  3 23  1  0  0  0  0
  3 24  1  0  0  0  0
  4 27  1  0  0  0  0
  4 29  1  0  0  0  0
 21  5  1  1  0  0  0
  5 47  1  0  0  0  0
 22  6  1  1  0  0  0
  6 48  1  0  0  0  0
 29  7  1  6  0  0  0
  8 28  1  0  0  0  0
 25  9  1  1  0  0  0
  9 50  1  0  0  0  0
 26 10  1  6  0  0  0
 10 51  1  0  0  0  0
 12 30  1  0  0  0  0
 12 54  1  0  0  0  0
 13 31  2  0  0  0  0
 14 55  1  0  0  0  0
 15 56  1  0  0  0  0
 18 34  2  0  0  0  0
 19 24  1  0  0  0  0
 19 31  1  0  0  0  0
 19 32  1  0  0  0  0
 20 31  1  0  0  0  0
 20 34  1  0  0  0  0
 20 52  1  0  0  0  0
 21 22  1  0  0  0  0
 21 23  1  0  0  0  0
 21 35  1  0  0  0  0
 22 24  1  0  0  0  0
 22 36  1  0  0  0  0
 23 28  1  6  0  0  0
 23 37  1  0  0  0  0
 24 38  1  0  0  0  0
 25 26  1  0  0  0  0
 25 27  1  0  0  0  0
 25 39  1  0  0  0  0
 26 29  1  0  0  0  0
 26 40  1  0  0  0  0
 27 30  1  6  0  0  0
 27 41  1  0  0  0  0
 28 43  1  0  0  0  0
 28 44  1  0  0  0  0
 29 42  1  0  0  0  0
 30 45  1  0  0  0  0
 30 46  1  0  0  0  0
 32 33  2  0  0  0  0
 32 49  1  0  0  0  0
 33 34  1  0  0  0  0
 33 53  1  0  0  0  0
M  END
> <PUBCHEM_COMPOUND_CID>
46174047

> <PUBCHEM_COMPOUND_CANONICALIZED>
1

> <PUBCHEM_CACTVS_COMPLEXITY>
916

> <PUBCHEM_CACTVS_HBOND_ACCEPTOR>
16

> <PUBCHEM_CACTVS_HBOND_DONOR>
8

> <PUBCHEM_CACTVS_ROTATABLE_BOND>
9

> <PUBCHEM_CACTVS_SUBSKEYS>
AAADceBzPgMAAAAAAAAAAAAAAAAAASJAAAAgAAAAAAAAAAAAAAAAHgAQCCAACBTxgAcBCAPABxCIQCFWUICAAAAAAgAIAAAIAECTEAIAgAAOQAAPFyIXAMDwMAIAAAAAAAAAAAAAAAAAAAAAAAAAAAAAAA==

> <PUBCHEM_IUPAC_OPENEYE_NAME>
[(2R,3R,4R,5S)-3,4-dihydroxy-5-(hydroxymethyl)tetrahydrofuran-2-yl] [[(2R,3S,4R)-5-(2,4-dioxopyrimidin-1-yl)-3,4-dihydroxy-tetrahydrofuran-2-yl]methoxy-hydroxy-phosphoryl] hydrogen phosphate

> <PUBCHEM_IUPAC_CAS_NAME>
[(2R,3R,4R,5S)-3,4-dihydroxy-5-(hydroxymethyl)-2-oxolanyl] [[(2R,3S,4R)-5-(2,4-dioxo-1-pyrimidinyl)-3,4-dihydroxy-2-oxolanyl]methoxy-hydroxyphosphoryl] hydrogen phosphate

> <PUBCHEM_IUPAC_NAME>
[(2R,3R,4R,5S)-3,4-dihydroxy-5-(hydroxymethyl)oxolan-2-yl] [[(2R,3S,4R)-5-(2,4-dioxopyrimidin-1-yl)-3,4-dihydroxyoxolan-2-yl]methoxy-hydroxyphosphoryl] hydrogen phosphate

> <PUBCHEM_IUPAC_SYSTEMATIC_NAME>
[[(2R,3S,4R)-5-[2,4-bis(oxidanylidene)pyrimidin-1-yl]-3,4-bis(oxidanyl)oxolan-2-yl]methoxy-oxidanyl-phosphoryl] [(2R,3R,4R,5S)-5-(hydroxymethyl)-3,4-bis(oxidanyl)oxolan-2-yl] hydrogen phosphate

> <PUBCHEM_IUPAC_TRADITIONAL_NAME>
[(2R,3R,4R,5S)-3,4-dihydroxy-5-methylol-tetrahydrofuran-2-yl] [[(2R,3S,4R)-5-(2,4-diketopyrimidin-1-yl)-3,4-dihydroxy-tetrahydrofuran-2-yl]methoxy-hydroxy-phosphoryl] hydrogen phosphate

> <PUBCHEM_IUPAC_INCHI>
InChI=1S/C14H22N2O16P2/c17-3-5-8(19)11(22)13(30-5)31-34(26,27)32-33(24,25)28-4-6-9(20)10(21)12(29-6)16-2-1-7(18)15-14(16)23/h1-2,5-6,8-13,17,19-22H,3-4H2,(H,24,25)(H,26,27)(H,15,18,23)/t5-,6+,8-,9+,10+,11+,12?,13+/m0/s1

> <PUBCHEM_IUPAC_INCHIKEY>
QGNZSCRNMXQWNR-MGYZEILKSA-N

> <PUBCHEM_XLOGP3>
-5.7

> <PUBCHEM_EXACT_MASS>
536.044456

> <PUBCHEM_MOLECULAR_FORMULA>
C14H22N2O16P2

> <PUBCHEM_MOLECULAR_WEIGHT>
536.275804

> <PUBCHEM_OPENEYE_CAN_SMILES>
C1=CN(C(=O)NC1=O)C2C(C(C(O2)COP(=O)(O)OP(=O)(O)OC3C(C(C(O3)CO)O)O)O)O

> <PUBCHEM_OPENEYE_ISO_SMILES>
C1=CN(C(=O)NC1=O)C2[C@@H]([C@@H]([C@H](O2)COP(=O)(O)OP(=O)(O)O[C@@H]3[C@@H]([C@H]([C@@H](O3)CO)O)O)O)O

> <PUBCHEM_CACTVS_TPSA>
271

> <PUBCHEM_MONOISOTOPIC_WEIGHT>
536.044456

> <PUBCHEM_TOTAL_CHARGE>
0

> <PUBCHEM_HEAVY_ATOM_COUNT>
34

> <PUBCHEM_ATOM_DEF_STEREO_COUNT>
7

> <PUBCHEM_ATOM_UDEF_STEREO_COUNT>
1

> <PUBCHEM_BOND_DEF_STEREO_COUNT>
0

> <PUBCHEM_BOND_UDEF_STEREO_COUNT>
0

> <PUBCHEM_ISOTOPIC_ATOM_COUNT>
0

> <PUBCHEM_COMPONENT_COUNT>
1

> <PUBCHEM_CACTVS_TAUTO_COUNT>
3

> <PUBCHEM_COORDINATE_TYPE>
1
5
255

> <PUBCHEM_BONDANNOTATIONS>
26  10  6
24  19  3
19  31  8
19  32  8
20  31  8
20  34  8
23  28  6
27  30  6
32  33  8
33  34  8
21  5  5
22  6  5
29  7  6
25  9  5

$$$$

