51090955
  -OEChem-06241223013D

 46 48  0     1  0  0  0  0  0999 V2000
    4.7433   -1.4929    0.2701 O   0  0  0  0  0  0  0  0  0  0  0  0
   -4.4348   -2.7344   -0.1452 O   0  0  0  0  0  0  0  0  0  0  0  0
    3.8492    0.9060    0.4986 O   0  0  0  0  0  0  0  0  0  0  0  0
   -3.3736   -0.0972   -0.0027 N   0  0  0  0  0  0  0  0  0  0  0  0
    2.4146    0.7110   -1.3212 N   0  0  0  0  0  0  0  0  0  0  0  0
    3.7428   -1.1562   -0.6950 C   0  0  1  0  0  0  0  0  0  0  0  0
    2.5833   -2.1149   -0.5016 C   0  0  0  0  0  0  0  0  0  0  0  0
    2.7250   -2.5116    0.9484 C   0  0  0  0  0  0  0  0  0  0  0  0
   -2.6482   -1.1819   -0.6785 C   0  0  0  0  0  0  0  0  0  0  0  0
   -4.8211   -0.3405   -0.0711 C   0  0  0  0  0  0  0  0  0  0  0  0
   -3.0367    1.1975   -0.5908 C   0  0  0  0  0  0  0  0  0  0  0  0
    4.2264   -2.5207    1.1261 C   0  0  0  0  0  0  0  0  0  0  0  0
   -3.0252   -2.5234   -0.0565 C   0  0  0  0  0  0  0  0  0  0  0  0
   -5.1465   -1.7016    0.5375 C   0  0  0  0  0  0  0  0  0  0  0  0
   -1.7211    1.7207   -0.0787 C   0  0  0  0  0  0  0  0  0  0  0  0
    3.3607    0.2663   -0.4291 C   0  0  0  0  0  0  0  0  0  0  0  0
    1.8539    2.0620   -1.2654 C   0  0  0  0  0  0  0  0  0  0  0  0
    0.6362    2.1363   -0.4071 C   0  0  0  0  0  0  0  0  0  0  0  0
   -0.5826    1.6516   -0.8817 C   0  0  0  0  0  0  0  0  0  0  0  0
   -1.6406    2.2746    1.1992 C   0  0  0  0  0  0  0  0  0  0  0  0
    0.7167    2.6902    0.8707 C   0  0  0  0  0  0  0  0  0  0  0  0
   -0.4218    2.7591    1.6739 C   0  0  0  0  0  0  0  0  0  0  0  0
    4.1736   -1.2272   -1.6995 H   0  0  0  0  0  0  0  0  0  0  0  0
    1.5927   -1.7112   -0.7277 H   0  0  0  0  0  0  0  0  0  0  0  0
    2.7341   -2.9999   -1.1321 H   0  0  0  0  0  0  0  0  0  0  0  0
    2.2607   -3.4717    1.1882 H   0  0  0  0  0  0  0  0  0  0  0  0
    2.2761   -1.7429    1.5885 H   0  0  0  0  0  0  0  0  0  0  0  0
   -5.3657    0.4318    0.4842 H   0  0  0  0  0  0  0  0  0  0  0  0
   -5.1612   -0.3146   -1.1146 H   0  0  0  0  0  0  0  0  0  0  0  0
   -2.8937   -1.1980   -1.7485 H   0  0  0  0  0  0  0  0  0  0  0  0
   -1.5649   -1.0550   -0.5801 H   0  0  0  0  0  0  0  0  0  0  0  0
   -3.0496    1.1654   -1.6888 H   0  0  0  0  0  0  0  0  0  0  0  0
   -3.7937    1.9475   -0.3202 H   0  0  0  0  0  0  0  0  0  0  0  0
    4.5306   -2.3291    2.1587 H   0  0  0  0  0  0  0  0  0  0  0  0
    4.6583   -3.4744    0.8041 H   0  0  0  0  0  0  0  0  0  0  0  0
   -4.9043   -1.7352    1.6068 H   0  0  0  0  0  0  0  0  0  0  0  0
   -2.7107   -2.5857    0.9925 H   0  0  0  0  0  0  0  0  0  0  0  0
   -2.5326   -3.3371   -0.5984 H   0  0  0  0  0  0  0  0  0  0  0  0
   -6.2161   -1.9101    0.4337 H   0  0  0  0  0  0  0  0  0  0  0  0
    2.6297    2.7509   -0.9112 H   0  0  0  0  0  0  0  0  0  0  0  0
    1.6121    2.3557   -2.2933 H   0  0  0  0  0  0  0  0  0  0  0  0
   -0.6433    1.2191   -1.8777 H   0  0  0  0  0  0  0  0  0  0  0  0
    2.0827    0.0961   -2.0585 H   0  0  0  0  0  0  0  0  0  0  0  0
   -2.5204    2.3339    1.8346 H   0  0  0  0  0  0  0  0  0  0  0  0
    1.6599    3.0700    1.2543 H   0  0  0  0  0  0  0  0  0  0  0  0
   -0.3590    3.1896    2.6690 H   0  0  0  0  0  0  0  0  0  0  0  0
  1  6  1  0  0  0  0
  1 12  1  0  0  0  0
  2 13  1  0  0  0  0
  2 14  1  0  0  0  0
  3 16  2  0  0  0  0
  4  9  1  0  0  0  0
  4 10  1  0  0  0  0
  4 11  1  0  0  0  0
  5 16  1  0  0  0  0
  5 17  1  0  0  0  0
  5 43  1  0  0  0  0
  6  7  1  0  0  0  0
  6 16  1  0  0  0  0
  6 23  1  0  0  0  0
  7  8  1  0  0  0  0
  7 24  1  0  0  0  0
  7 25  1  0  0  0  0
  8 12  1  0  0  0  0
  8 26  1  0  0  0  0
  8 27  1  0  0  0  0
  9 13  1  0  0  0  0
  9 30  1  0  0  0  0
  9 31  1  0  0  0  0
 10 14  1  0  0  0  0
 10 28  1  0  0  0  0
 10 29  1  0  0  0  0
 11 15  1  0  0  0  0
 11 32  1  0  0  0  0
 11 33  1  0  0  0  0
 12 34  1  0  0  0  0
 12 35  1  0  0  0  0
 13 37  1  0  0  0  0
 13 38  1  0  0  0  0
 14 36  1  0  0  0  0
 14 39  1  0  0  0  0
 15 19  1  0  0  0  0
 15 20  2  0  0  0  0
 17 18  1  0  0  0  0
 17 40  1  0  0  0  0
 17 41  1  0  0  0  0
 18 19  2  0  0  0  0
 18 21  1  0  0  0  0
 19 42  1  0  0  0  0
 20 22  1  0  0  0  0
 20 44  1  0  0  0  0
 21 22  2  0  0  0  0
 21 45  1  0  0  0  0
 22 46  1  0  0  0  0
M  END
> <PUBCHEM_COMPOUND_CID>
51090955

> <PUBCHEM_CONFORMER_RMSD>
1

> <PUBCHEM_CONFORMER_DIVERSEORDER>
1
30
164
49
134
78
192
215
204
23
181
16
198
141
187
53
139
189
3
99
163
195
137
35
155
69
89
147
52
113
93
171
133
112
200
138
43
169
172
196
51
10
174
63
136
106
84
157
175
168
125
39
210
205
176
86
67
31
167
151
145
81
146
140
199
114
64
15
54
14
57
188
29
206
48
144
116
33
158
201
130
87
7
27
209
70
183
193
152
44
165
60
191
41
91
173
170
213
11
28
126
150
117
128
25
71
45
208
107
161
143
100
85
83
207
96
132
13
55
65
197
214
177
73
124
5
88
66
6
179
190
18
194
109
4
24
212
12
166
118
9
108
90
180
8
162
186
120
34
62
159
37
2
178
111
50
185
156
40
131
59
127
110
47
142
17
19
32
182
160
95
21
75
38
104
148
94
154
149
36
216
97
122
211
77
76
20
74
202
129
26
72
121
101
105
98
82
203
58
42
22
153
79
102
92
115
46
56
184
68
80
135
61
123
103
119

> <PUBCHEM_MMFF94_PARTIAL_CHARGES>
25
1 -0.56
10 0.27
11 0.41
12 0.28
13 0.28
14 0.28
15 -0.14
16 0.57
17 0.44
18 -0.14
19 -0.15
2 -0.56
20 -0.15
21 -0.15
22 -0.15
3 -0.57
4 -0.81
42 0.15
43 0.37
44 0.15
45 0.15
46 0.15
5 -0.73
6 0.34
9 0.27

> <PUBCHEM_EFFECTIVE_ROTOR_COUNT>
8.2

> <PUBCHEM_PHARMACOPHORE_FEATURES>
8
1 1 acceptor
1 2 acceptor
1 3 acceptor
1 4 cation
1 5 donor
5 1 6 7 8 12 rings
6 15 18 19 20 21 22 rings
6 2 4 9 10 13 14 rings

> <PUBCHEM_HEAVY_ATOM_COUNT>
22

> <PUBCHEM_ATOM_DEF_STEREO_COUNT>
0

> <PUBCHEM_ATOM_UDEF_STEREO_COUNT>
1

> <PUBCHEM_BOND_DEF_STEREO_COUNT>
0

> <PUBCHEM_BOND_UDEF_STEREO_COUNT>
0

> <PUBCHEM_ISOTOPIC_ATOM_COUNT>
0

> <PUBCHEM_COMPONENT_COUNT>
1

> <PUBCHEM_CACTVS_TAUTO_COUNT>
2

> <PUBCHEM_CONFORMER_ID>
030B960B00000001

> <PUBCHEM_MMFF94_ENERGY>
41.2858

> <PUBCHEM_FEATURE_SELFOVERLAP>
40.608

> <PUBCHEM_SHAPE_FINGERPRINT>
114674 6 17328020975994421451
12506688 2 18408604751252325396
12553582 1 18113900437872413695
12596599 1 18121210141708823758
12788726 201 18187910803221595889
12824470 246 18410852196011591300
13533116 47 18046346328347603951
13631057 29 18409443674951629236
14251757 17 17417238828353283779
14787075 74 18117561721958334940
14931854 50 18272364257012678614
15352361 1 18411982463936824519
15475509 35 18121210988250067099
15537594 2 18269253747106900847
17138139 8 18122049915373984822
20291156 8 18411419531083904238
20626108 58 18131361816635890496
20775530 9 18412548725289029430
21033648 29 15068888802941990505
21054139 6 18271231743604838228
21250096 35 18334576828298467063
21315759 227 18129668478323961523
21421861 104 18263624230619834257
23557571 272 18042121127840717334
23559900 14 18337961094956172237
312425 83 17203612558145437173
339767 52 18269005339231224950
345986 75 18041547067112480227
3680242 22 18339348743539796627
392239 28 17897185562810164568
4283 87 18340773641462863951
445580 102 18269260275573917539
463206 1 18266175037440651067
556388 4 18341049605969867719
6433294 58 18267019453643360463
88748 71 18272085011234419435
9795274 37 18269835311506949715

> <PUBCHEM_SHAPE_MULTIPOLES>
425.18
10.12
4.13
1.24
2.2
0.35
0.19
9.78
0.56
0.17
1.1
-0.53
-0.57
-1.05

> <PUBCHEM_SHAPE_SELFOVERLAP>
888.56

> <PUBCHEM_SHAPE_VOLUME>
241.6

> <PUBCHEM_COORDINATE_TYPE>
2
5
10

$$$$

