5070
  -OEChem-07051212542D

 20 21  0     0  0  0  0  0  0999 V2000
    7.2764    0.6217    0.0000 S   0  0  0  0  0  0  0  0  0  0  0  0
    2.0000   -0.1830    0.0000 F   0  0  0  0  0  0  0  0  0  0  0  0
    2.3660    1.1830    0.0000 F   0  0  0  0  0  0  0  0  0  0  0  0
    3.3660   -0.5490    0.0000 F   0  0  0  0  0  0  0  0  0  0  0  0
    3.7320    0.8170    0.0000 O   0  0  0  0  0  0  0  0  0  0  0  0
    7.2764   -0.9877    0.0000 N   0  0  0  0  0  0  0  0  0  0  0  0
    8.8600   -0.1830    0.0000 N   0  0  0  0  0  0  0  0  0  0  0  0
    6.3301    0.3170    0.0000 C   0  0  0  0  0  0  0  0  0  0  0  0
    6.3301   -0.6830    0.0000 C   0  0  0  0  0  0  0  0  0  0  0  0
    5.4641    0.8170    0.0000 C   0  0  0  0  0  0  0  0  0  0  0  0
    4.5981    0.3170    0.0000 C   0  0  0  0  0  0  0  0  0  0  0  0
    5.4641   -1.1830    0.0000 C   0  0  0  0  0  0  0  0  0  0  0  0
    4.5981   -0.6830    0.0000 C   0  0  0  0  0  0  0  0  0  0  0  0
    7.8600   -0.1830    0.0000 C   0  0  0  0  0  0  0  0  0  0  0  0
    2.8660    0.3170    0.0000 C   0  0  0  0  0  0  0  0  0  0  0  0
    5.4641    1.4370    0.0000 H   0  0  0  0  0  0  0  0  0  0  0  0
    5.4641   -1.8030    0.0000 H   0  0  0  0  0  0  0  0  0  0  0  0
    4.0611   -0.9930    0.0000 H   0  0  0  0  0  0  0  0  0  0  0  0
    9.1700   -0.7199    0.0000 H   0  0  0  0  0  0  0  0  0  0  0  0
    9.1700    0.3539    0.0000 H   0  0  0  0  0  0  0  0  0  0  0  0
  1  8  1  0  0  0  0
  1 14  1  0  0  0  0
  2 15  1  0  0  0  0
  3 15  1  0  0  0  0
  4 15  1  0  0  0  0
  5 11  1  0  0  0  0
  5 15  1  0  0  0  0
  6  9  1  0  0  0  0
  6 14  2  0  0  0  0
  7 14  1  0  0  0  0
  7 19  1  0  0  0  0
  7 20  1  0  0  0  0
  8  9  2  0  0  0  0
  8 10  1  0  0  0  0
  9 12  1  0  0  0  0
 10 11  2  0  0  0  0
 10 16  1  0  0  0  0
 11 13  1  0  0  0  0
 12 13  2  0  0  0  0
 12 17  1  0  0  0  0
 13 18  1  0  0  0  0
M  END
> <PUBCHEM_COMPOUND_CID>
5070

> <PUBCHEM_COMPOUND_CANONICALIZED>
1

> <PUBCHEM_CACTVS_COMPLEXITY>
238

> <PUBCHEM_CACTVS_HBOND_ACCEPTOR>
7

> <PUBCHEM_CACTVS_HBOND_DONOR>
1

> <PUBCHEM_CACTVS_ROTATABLE_BOND>
1

> <PUBCHEM_CACTVS_SUBSKEYS>
AAADcYBzIYBAAAAAAAAAAAAAAAAAAWAAAAAwAAAAAAAAAFgB8AAAHwQQAAAACAyB1hAx17JIFAikASRiZACD+KlhKjlImDw2bJiMJqLksZuEMChkwBNI6CewQAAAAEAABAAAAQAAgAAIAAACAAAAAAAAAA==

> <PUBCHEM_IUPAC_OPENEYE_NAME>
6-(trifluoromethoxy)-1,3-benzothiazol-2-amine

> <PUBCHEM_IUPAC_CAS_NAME>
6-(trifluoromethoxy)-1,3-benzothiazol-2-amine

> <PUBCHEM_IUPAC_NAME>
6-(trifluoromethoxy)-1,3-benzothiazol-2-amine

> <PUBCHEM_IUPAC_SYSTEMATIC_NAME>
6-(trifluoromethyloxy)-1,3-benzothiazol-2-amine

> <PUBCHEM_IUPAC_TRADITIONAL_NAME>
[6-(trifluoromethoxy)-1,3-benzothiazol-2-yl]amine

> <PUBCHEM_IUPAC_INCHI>
InChI=1S/C8H5F3N2OS/c9-8(10,11)14-4-1-2-5-6(3-4)15-7(12)13-5/h1-3H,(H2,12,13)

> <PUBCHEM_IUPAC_INCHIKEY>
FTALBRSUTCGOEG-UHFFFAOYSA-N

> <PUBCHEM_XLOGP3>
3.6

> <PUBCHEM_EXACT_MASS>
234.007468

> <PUBCHEM_MOLECULAR_FORMULA>
C8H5F3N2OS

> <PUBCHEM_MOLECULAR_WEIGHT>
234.19831

> <PUBCHEM_OPENEYE_CAN_SMILES>
C1=CC2=C(C=C1OC(F)(F)F)SC(=N2)N

> <PUBCHEM_OPENEYE_ISO_SMILES>
C1=CC2=C(C=C1OC(F)(F)F)SC(=N2)N

> <PUBCHEM_CACTVS_TPSA>
76.4

> <PUBCHEM_MONOISOTOPIC_WEIGHT>
234.007468

> <PUBCHEM_TOTAL_CHARGE>
0

> <PUBCHEM_HEAVY_ATOM_COUNT>
15

> <PUBCHEM_ATOM_DEF_STEREO_COUNT>
0

> <PUBCHEM_ATOM_UDEF_STEREO_COUNT>
0

> <PUBCHEM_BOND_DEF_STEREO_COUNT>
0

> <PUBCHEM_BOND_UDEF_STEREO_COUNT>
0

> <PUBCHEM_ISOTOPIC_ATOM_COUNT>
0

> <PUBCHEM_COMPONENT_COUNT>
1

> <PUBCHEM_CACTVS_TAUTO_COUNT>
2

> <PUBCHEM_COORDINATE_TYPE>
1
5
255

> <PUBCHEM_BONDANNOTATIONS>
1  14  8
1  8  8
10  11  8
11  13  8
12  13  8
6  14  8
6  9  8
8  10  8
8  9  8
9  12  8

$$$$

