162933
  -OEChem-07051212493D

 31 34  0     1  0  0  0  0  0999 V2000
   -0.7007   -0.7307    1.6564 O   0  0  0  0  0  0  0  0  0  0  0  0
    1.0062    1.7409   -0.9111 O   0  0  0  0  0  0  0  0  0  0  0  0
   -4.5057   -1.8689   -1.0683 O   0  0  0  0  0  0  0  0  0  0  0  0
    4.7506   -1.1143   -1.4334 O   0  0  0  0  0  0  0  0  0  0  0  0
   -0.5966    1.5895    0.9529 C   0  0  2  0  0  0  0  0  0  0  0  0
    0.1863    0.4176    1.5722 C   0  0  2  0  0  0  0  0  0  0  0  0
   -1.6724    0.8294    0.2598 C   0  0  0  0  0  0  0  0  0  0  0  0
    0.2794    2.4734    0.0797 C   0  0  0  0  0  0  0  0  0  0  0  0
    1.4196    0.0433    0.7848 C   0  0  0  0  0  0  0  0  0  0  0  0
   -1.6887   -0.4720    0.7401 C   0  0  0  0  0  0  0  0  0  0  0  0
    1.7510    0.7108   -0.4003 C   0  0  0  0  0  0  0  0  0  0  0  0
   -2.6079    1.2493   -0.6694 C   0  0  0  0  0  0  0  0  0  0  0  0
    2.2430   -1.0024    1.2269 C   0  0  0  0  0  0  0  0  0  0  0  0
   -2.6251   -1.3977    0.3218 C   0  0  0  0  0  0  0  0  0  0  0  0
    2.8587    0.3124   -1.1524 C   0  0  0  0  0  0  0  0  0  0  0  0
   -3.5575    0.3266   -1.1166 C   0  0  0  0  0  0  0  0  0  0  0  0
   -3.5668   -0.9881   -0.6229 C   0  0  0  0  0  0  0  0  0  0  0  0
    3.3612   -1.3864    0.4859 C   0  0  0  0  0  0  0  0  0  0  0  0
    3.6655   -0.7327   -0.7060 C   0  0  0  0  0  0  0  0  0  0  0  0
   -1.0693    2.1855    1.7440 H   0  0  0  0  0  0  0  0  0  0  0  0
    0.4981    0.6849    2.5901 H   0  0  0  0  0  0  0  0  0  0  0  0
   -0.3289    3.2145   -0.4502 H   0  0  0  0  0  0  0  0  0  0  0  0
    0.9958    3.0338    0.6947 H   0  0  0  0  0  0  0  0  0  0  0  0
   -2.6172    2.2684   -1.0401 H   0  0  0  0  0  0  0  0  0  0  0  0
    2.0109   -1.5304    2.1486 H   0  0  0  0  0  0  0  0  0  0  0  0
   -2.6189   -2.4091    0.7142 H   0  0  0  0  0  0  0  0  0  0  0  0
    3.0987    0.8226   -2.0822 H   0  0  0  0  0  0  0  0  0  0  0  0
   -4.2996    0.6366   -1.8482 H   0  0  0  0  0  0  0  0  0  0  0  0
    3.9823   -2.2020    0.8462 H   0  0  0  0  0  0  0  0  0  0  0  0
   -4.3687   -2.7248   -0.6268 H   0  0  0  0  0  0  0  0  0  0  0  0
    5.1931   -1.8505   -0.9771 H   0  0  0  0  0  0  0  0  0  0  0  0
  1  6  1  0  0  0  0
  1 10  1  0  0  0  0
  2  8  1  0  0  0  0
  2 11  1  0  0  0  0
  3 17  1  0  0  0  0
  3 30  1  0  0  0  0
  4 19  1  0  0  0  0
  4 31  1  0  0  0  0
  5  6  1  0  0  0  0
  5  7  1  0  0  0  0
  5  8  1  0  0  0  0
  5 20  1  0  0  0  0
  6  9  1  0  0  0  0
  6 21  1  0  0  0  0
  7 10  2  0  0  0  0
  7 12  1  0  0  0  0
  8 22  1  0  0  0  0
  8 23  1  0  0  0  0
  9 11  2  0  0  0  0
  9 13  1  0  0  0  0
 10 14  1  0  0  0  0
 11 15  1  0  0  0  0
 12 16  2  0  0  0  0
 12 24  1  0  0  0  0
 13 18  2  0  0  0  0
 13 25  1  0  0  0  0
 14 17  2  0  0  0  0
 14 26  1  0  0  0  0
 15 19  2  0  0  0  0
 15 27  1  0  0  0  0
 16 17  1  0  0  0  0
 16 28  1  0  0  0  0
 18 19  1  0  0  0  0
 18 29  1  0  0  0  0
M  END
> <PUBCHEM_COMPOUND_CID>
162933

> <PUBCHEM_CONFORMER_RMSD>
0.6

> <PUBCHEM_CONFORMER_DIVERSEORDER>
1
2

> <PUBCHEM_MMFF94_PARTIAL_CHARGES>
27
1 -0.36
10 0.08
11 0.08
12 -0.15
13 -0.15
14 -0.15
15 -0.15
16 -0.15
17 0.08
18 -0.15
19 0.08
2 -0.36
24 0.15
25 0.15
26 0.15
27 0.15
28 0.15
29 0.15
3 -0.53
30 0.45
31 0.45
4 -0.53
5 0.14
6 0.42
7 -0.14
8 0.28
9 -0.14

> <PUBCHEM_EFFECTIVE_ROTOR_COUNT>
0.6

> <PUBCHEM_PHARMACOPHORE_FEATURES>
8
1 1 acceptor
1 2 acceptor
1 3 donor
1 4 donor
5 1 5 6 7 10 rings
6 2 5 6 8 9 11 rings
6 7 10 12 14 16 17 rings
6 9 11 13 15 18 19 rings

> <PUBCHEM_HEAVY_ATOM_COUNT>
19

> <PUBCHEM_ATOM_DEF_STEREO_COUNT>
2

> <PUBCHEM_ATOM_UDEF_STEREO_COUNT>
0

> <PUBCHEM_BOND_DEF_STEREO_COUNT>
0

> <PUBCHEM_BOND_UDEF_STEREO_COUNT>
0

> <PUBCHEM_ISOTOPIC_ATOM_COUNT>
0

> <PUBCHEM_COMPONENT_COUNT>
1

> <PUBCHEM_CACTVS_TAUTO_COUNT>
8

> <PUBCHEM_CONFORMER_ID>
00027C7500000001

> <PUBCHEM_MMFF94_ENERGY>
61.0571

> <PUBCHEM_FEATURE_SELFOVERLAP>
40.99

> <PUBCHEM_SHAPE_FINGERPRINT>
10062212 137 18128827515237255555
10465860 71 18412547617239909209
10948715 1 11672065246022013000
11221954 11 13253074911666438590
11471102 22 13840265905345480532
11578080 2 17985016862002970124
12202030 40 17169541020836261446
12251169 10 6266902363537643491
12363563 72 17822009804607353727
12382932 28 6988324949661638483
12553582 1 18413101788164113850
12633257 1 4751155233047469126
12670546 177 17988923374975436606
12892183 10 7348886689398203901
13296908 3 18113344102073747209
13544653 18 17022910055244793144
13693222 15 14490478598767611752
13764800 53 11239998988150151935
14178342 30 6988038016061401037
14341114 328 6194553437589222991
16752209 62 18339936999313704451
16945 1 18265338493527314848
17349148 13 17703515488781034984
18186145 218 15410610436616688098
19784866 240 17822286860622081031
19862831 5 18131632300416341478
200 152 18272645779671294118
20361792 2 17894348856600521609
20645477 70 18192159187808601967
20671657 53 18408322176864174732
20871999 31 18272088314016621871
21634736 98 18272089374794578852
22182313 1 17557976256378628641
22802520 49 17916863496283951849
231179 274 13398633857166886126
23379529 103 18191299386437342135
23382010 3 17203612566508394193
23402539 116 18271802480033136670
23419403 2 15189721797898084648
23557571 272 18262532423968124544
23559900 14 18335994168060106744
25 1 16271924960494232800
27216 239 12318866112425120438
2748010 2 17122808146918072497
276578 36 9655584023563043928
3082319 5 17918557933532566815
394222 165 4820663218840381723
4028521 119 14908180854299302647
427121 178 9799137421405808821
5262128 65 18339067229296359724
549884 4 17775576320612640241
633830 44 15625384687258511773
6442390 28 12607111967966586497
7097593 13 6555417479068337364
7364860 26 18192159191523567441
90316 7 5400803873501043595

> <PUBCHEM_SHAPE_MULTIPOLES>
367.53
7.31
1.96
1.46
0.59
0.57
0.13
-4.43
-4.02
-0.56
-0.09
0.36
-0.15
-0.27

> <PUBCHEM_SHAPE_SELFOVERLAP>
835.976

> <PUBCHEM_SHAPE_VOLUME>
190.2

> <PUBCHEM_COORDINATE_TYPE>
2
5
10

$$$$

