12733
  -OEChem-06261207183D

 15 14  0     0  0  0  0  0  0999 V2000
    2.7549   -0.9933    0.2711 Cl  0  0  0  0  0  0  0  0  0  0  0  0
   -0.4680   -0.3606   -0.4033 S   0  0  0  0  0  0  0  0  0  0  0  0
    0.7286    0.8568    0.1915 C   0  0  0  0  0  0  0  0  0  0  0  0
   -1.9689    0.3783    0.2968 C   0  0  0  0  0  0  0  0  0  0  0  0
    2.1396    0.5758   -0.3053 C   0  0  0  0  0  0  0  0  0  0  0  0
   -3.1862   -0.4571   -0.0509 C   0  0  0  0  0  0  0  0  0  0  0  0
    0.7125    0.8673    1.2867 H   0  0  0  0  0  0  0  0  0  0  0  0
    0.4234    1.8484   -0.1589 H   0  0  0  0  0  0  0  0  0  0  0  0
   -1.8655    0.4424    1.3845 H   0  0  0  0  0  0  0  0  0  0  0  0
   -2.0926    1.3903   -0.1012 H   0  0  0  0  0  0  0  0  0  0  0  0
    2.1880    0.5751   -1.3991 H   0  0  0  0  0  0  0  0  0  0  0  0
    2.8256    1.3458    0.0607 H   0  0  0  0  0  0  0  0  0  0  0  0
   -3.3324   -0.5233   -1.1344 H   0  0  0  0  0  0  0  0  0  0  0  0
   -3.1060   -1.4722    0.3524 H   0  0  0  0  0  0  0  0  0  0  0  0
   -4.0855   -0.0014    0.3768 H   0  0  0  0  0  0  0  0  0  0  0  0
  1  5  1  0  0  0  0
  2  3  1  0  0  0  0
  2  4  1  0  0  0  0
  3  5  1  0  0  0  0
  3  7  1  0  0  0  0
  3  8  1  0  0  0  0
  4  6  1  0  0  0  0
  4  9  1  0  0  0  0
  4 10  1  0  0  0  0
  5 11  1  0  0  0  0
  5 12  1  0  0  0  0
  6 13  1  0  0  0  0
  6 14  1  0  0  0  0
  6 15  1  0  0  0  0
M  END
> <PUBCHEM_COMPOUND_CID>
12733

> <PUBCHEM_CONFORMER_RMSD>
0.4

> <PUBCHEM_CONFORMER_DIVERSEORDER>
1
10
16
14
17
2
5
3
15
11
6
4
13
9
8
12
7

> <PUBCHEM_MMFF94_PARTIAL_CHARGES>
5
1 -0.29
2 -0.46
3 0.23
4 0.23
5 0.29

> <PUBCHEM_EFFECTIVE_ROTOR_COUNT>
3

> <PUBCHEM_PHARMACOPHORE_FEATURES>
1
1 6 hydrophobe

> <PUBCHEM_HEAVY_ATOM_COUNT>
6

> <PUBCHEM_ATOM_DEF_STEREO_COUNT>
0

> <PUBCHEM_ATOM_UDEF_STEREO_COUNT>
0

> <PUBCHEM_BOND_DEF_STEREO_COUNT>
0

> <PUBCHEM_BOND_UDEF_STEREO_COUNT>
0

> <PUBCHEM_ISOTOPIC_ATOM_COUNT>
0

> <PUBCHEM_COMPONENT_COUNT>
1

> <PUBCHEM_CACTVS_TAUTO_COUNT>
1

> <PUBCHEM_CONFORMER_ID>
000031BD00000001

> <PUBCHEM_MMFF94_ENERGY>
4.1247

> <PUBCHEM_FEATURE_SELFOVERLAP>
5.074

> <PUBCHEM_SHAPE_FINGERPRINT>
12932741 1 16200143253706969449
14325111 11 18410292493279753405
14390081 3 9151168753289449903
20651381 32 18272096010508222285
23552333 60 18408038511897047144
29004967 10 17989203742056280336
5460574 1 10735884958308543509

> <PUBCHEM_SHAPE_MULTIPOLES>
129.2
5.05
1.06
0.72
1.41
0.04
-0.02
1.26
0.28
-0.48
0.04
-0.04
0.01
-0.22

> <PUBCHEM_SHAPE_SELFOVERLAP>
199.632

> <PUBCHEM_SHAPE_VOLUME>
93.6

> <PUBCHEM_COORDINATE_TYPE>
2
5
10

$$$$

