5281916
  -OEChem-07051213012D

 28 29  0     0  0  0  0  0  0999 V2000
    7.7331   -1.3623    0.0000 O   0  0  0  0  0  0  0  0  0  0  0  0
    4.2690   -1.3623    0.0000 O   0  0  0  0  0  0  0  0  0  0  0  0
    2.5369   -0.3623    0.0000 O   0  0  0  0  0  0  0  0  0  0  0  0
    3.4030    1.1377    0.0000 O   0  0  0  0  0  0  0  0  0  0  0  0
    8.5991    0.1377    0.0000 C   0  0  0  0  0  0  0  0  0  0  0  0
    8.5991    1.1377    0.0000 C   0  0  0  0  0  0  0  0  0  0  0  0
    7.7331   -0.3623    0.0000 C   0  0  0  0  0  0  0  0  0  0  0  0
    6.8671    0.1377    0.0000 C   0  0  0  0  0  0  0  0  0  0  0  0
    7.7331    1.6377    0.0000 C   0  0  0  0  0  0  0  0  0  0  0  0
    6.8671    1.1377    0.0000 C   0  0  0  0  0  0  0  0  0  0  0  0
    9.4931   -0.3970    0.0000 C   0  0  0  0  0  0  0  0  0  0  0  0
    9.4931    1.6723    0.0000 C   0  0  0  0  0  0  0  0  0  0  0  0
   10.3991    0.1169    0.0000 C   0  0  0  0  0  0  0  0  0  0  0  0
   10.3991    1.1585    0.0000 C   0  0  0  0  0  0  0  0  0  0  0  0
    6.0010   -0.3623    0.0000 C   0  0  0  0  0  0  0  0  0  0  0  0
    5.1350    0.1377    0.0000 C   0  0  0  0  0  0  0  0  0  0  0  0
    4.2690   -0.3623    0.0000 C   0  0  0  0  0  0  0  0  0  0  0  0
    3.4030    0.1377    0.0000 C   0  0  0  0  0  0  0  0  0  0  0  0
    7.7331    2.2577    0.0000 H   0  0  0  0  0  0  0  0  0  0  0  0
    6.3301    1.4477    0.0000 H   0  0  0  0  0  0  0  0  0  0  0  0
    9.4859   -1.0170    0.0000 H   0  0  0  0  0  0  0  0  0  0  0  0
    9.4859    2.2923    0.0000 H   0  0  0  0  0  0  0  0  0  0  0  0
   10.9349   -0.1952    0.0000 H   0  0  0  0  0  0  0  0  0  0  0  0
   10.9349    1.4706    0.0000 H   0  0  0  0  0  0  0  0  0  0  0  0
    6.0010   -0.9823    0.0000 H   0  0  0  0  0  0  0  0  0  0  0  0
    5.1350    0.7577    0.0000 H   0  0  0  0  0  0  0  0  0  0  0  0
    8.2700   -1.6723    0.0000 H   0  0  0  0  0  0  0  0  0  0  0  0
    2.0000   -0.0523    0.0000 H   0  0  0  0  0  0  0  0  0  0  0  0
  1  7  1  0  0  0  0
  1 27  1  0  0  0  0
  2 17  2  0  0  0  0
  3 18  1  0  0  0  0
  3 28  1  0  0  0  0
  4 18  2  0  0  0  0
  5  6  1  0  0  0  0
  5  7  1  0  0  0  0
  5 11  2  0  0  0  0
  6  9  1  0  0  0  0
  6 12  2  0  0  0  0
  7  8  2  0  0  0  0
  8 10  1  0  0  0  0
  8 15  1  0  0  0  0
  9 10  2  0  0  0  0
  9 19  1  0  0  0  0
 10 20  1  0  0  0  0
 11 13  1  0  0  0  0
 11 21  1  0  0  0  0
 12 14  1  0  0  0  0
 12 22  1  0  0  0  0
 13 14  2  0  0  0  0
 13 23  1  0  0  0  0
 14 24  1  0  0  0  0
 15 16  2  0  0  0  0
 15 25  1  0  0  0  0
 16 17  1  0  0  0  0
 16 26  1  0  0  0  0
 17 18  1  0  0  0  0
M  END
> <PUBCHEM_COMPOUND_CID>
5281916

> <PUBCHEM_COMPOUND_CANONICALIZED>
1

> <PUBCHEM_CACTVS_COMPLEXITY>
361

> <PUBCHEM_CACTVS_HBOND_ACCEPTOR>
4

> <PUBCHEM_CACTVS_HBOND_DONOR>
2

> <PUBCHEM_CACTVS_ROTATABLE_BOND>
3

> <PUBCHEM_CACTVS_SUBSKEYS>
AAADccBwOAAAAAAAAAAAAAAAAAAAAAAAAAAwYAAAAAAAAADBUAAAGgAACAAADASAmAAwDsAAAgCIAqDSCAICAAAgIAAIiAFECMgIJiKCERKAcAAkwBEImYeAwPAOwAADAAAYAACAAAYAADAAAAAAAAAAAA==

> <PUBCHEM_IUPAC_OPENEYE_NAME>
(E)-4-(1-hydroxy-2-naphthyl)-2-oxo-but-3-enoic acid

> <PUBCHEM_IUPAC_CAS_NAME>
(E)-4-(1-hydroxy-2-naphthalenyl)-2-oxo-3-butenoic acid

> <PUBCHEM_IUPAC_NAME>
(E)-4-(1-hydroxynaphthalen-2-yl)-2-oxobut-3-enoic acid

> <PUBCHEM_IUPAC_SYSTEMATIC_NAME>
(E)-2-oxidanylidene-4-(1-oxidanylnaphthalen-2-yl)but-3-enoic acid

> <PUBCHEM_IUPAC_TRADITIONAL_NAME>
(E)-4-(1-hydroxy-2-naphthyl)-2-keto-but-3-enoic acid

> <PUBCHEM_IUPAC_INCHI>
InChI=1S/C14H10O4/c15-12(14(17)18)8-7-10-6-5-9-3-1-2-4-11(9)13(10)16/h1-8,16H,(H,17,18)/b8-7+

> <PUBCHEM_IUPAC_INCHIKEY>
XAFGQLAMLVMFHU-BQYQJAHWSA-N

> <PUBCHEM_XLOGP3_AA>
2.7

> <PUBCHEM_EXACT_MASS>
242.057909

> <PUBCHEM_MOLECULAR_FORMULA>
C14H10O4

> <PUBCHEM_MOLECULAR_WEIGHT>
242.2268

> <PUBCHEM_OPENEYE_CAN_SMILES>
C1=CC=C2C(=C1)C=CC(=C2O)C=CC(=O)C(=O)O

> <PUBCHEM_OPENEYE_ISO_SMILES>
C1=CC=C2C(=C1)C=CC(=C2O)/C=C/C(=O)C(=O)O

> <PUBCHEM_CACTVS_TPSA>
74.6

> <PUBCHEM_MONOISOTOPIC_WEIGHT>
242.057909

> <PUBCHEM_TOTAL_CHARGE>
0

> <PUBCHEM_HEAVY_ATOM_COUNT>
18

> <PUBCHEM_ATOM_DEF_STEREO_COUNT>
0

> <PUBCHEM_ATOM_UDEF_STEREO_COUNT>
0

> <PUBCHEM_BOND_DEF_STEREO_COUNT>
1

> <PUBCHEM_BOND_UDEF_STEREO_COUNT>
0

> <PUBCHEM_ISOTOPIC_ATOM_COUNT>
0

> <PUBCHEM_COMPONENT_COUNT>
1

> <PUBCHEM_CACTVS_TAUTO_COUNT>
5

> <PUBCHEM_COORDINATE_TYPE>
1
5
255

> <PUBCHEM_BONDANNOTATIONS>
11  13  8
12  14  8
13  14  8
5  11  8
5  6  8
5  7  8
6  12  8
6  9  8
7  8  8
8  10  8
9  10  8

$$$$

