441812
  -OEChem-07051212563D

 64 69  0     1  0  0  0  0  0999 V2000
   -2.0076    1.9130    1.4046 O   0  0  0  0  0  0  0  0  0  0  0  0
   -3.9938    1.2367   -0.6309 O   0  0  0  0  0  0  0  0  0  0  0  0
   -0.1233   -0.7080    2.8686 O   0  0  0  0  0  0  0  0  0  0  0  0
    0.4279    2.2870   -1.5509 O   0  0  0  0  0  0  0  0  0  0  0  0
    5.2086   -0.8953   -0.1820 O   0  0  0  0  0  0  0  0  0  0  0  0
   -3.8166    3.4582   -1.0558 O   0  0  0  0  0  0  0  0  0  0  0  0
   -5.5759   -3.0195    0.0062 O   0  0  0  0  0  0  0  0  0  0  0  0
    5.2257   -2.4139   -1.8928 O   0  0  0  0  0  0  0  0  0  0  0  0
   -1.2829    1.1715    0.3898 C   0  0  1  0  0  0  0  0  0  0  0  0
    0.2701    1.1773    0.6093 C   0  0  1  0  0  0  0  0  0  0  0  0
   -1.9882   -0.1284    0.0014 C   0  0  1  0  0  0  0  0  0  0  0  0
    0.8266   -0.3023    0.6535 C   0  0  1  0  0  0  0  0  0  0  0  0
   -2.0264    2.4601    0.0879 C   0  0  1  0  0  0  0  0  0  0  0  0
    2.4240   -0.4793    0.7849 C   0  0  1  0  0  0  0  0  0  0  0  0
   -1.5391   -1.2541    0.9793 C   0  0  0  0  0  0  0  0  0  0  0  0
   -0.0955   -1.1823    1.5264 C   0  0  2  0  0  0  0  0  0  0  0  0
   -3.5507    0.0844    0.1437 C   0  0  2  0  0  0  0  0  0  0  0  0
    3.0848    0.3876   -0.3868 C   0  0  1  0  0  0  0  0  0  0  0  0
    1.0048    1.8064   -0.5764 C   0  0  0  0  0  0  0  0  0  0  0  0
    0.5892    2.0496    1.8515 C   0  0  0  0  0  0  0  0  0  0  0  0
    2.5160    1.8147   -0.4966 C   0  0  0  0  0  0  0  0  0  0  0  0
   -1.6729   -0.4633   -1.4803 C   0  0  0  0  0  0  0  0  0  0  0  0
   -3.3502    2.4373   -0.5655 C   0  0  0  0  0  0  0  0  0  0  0  0
    4.6550    0.4007   -0.5005 C   0  0  0  0  0  0  0  0  0  0  0  0
    2.9712   -0.1418    2.1796 C   0  0  0  0  0  0  0  0  0  0  0  0
    2.7391   -1.9829    0.6093 C   0  0  0  0  0  0  0  0  0  0  0  0
   -4.4072   -1.1237   -0.2011 C   0  0  0  0  0  0  0  0  0  0  0  0
    5.1047    0.7733   -1.9326 C   0  0  0  0  0  0  0  0  0  0  0  0
    5.3613    1.3804    0.4519 C   0  0  0  0  0  0  0  0  0  0  0  0
    3.6663   -2.6167   -0.1203 C   0  0  0  0  0  0  0  0  0  0  0  0
   -4.9190   -1.4571   -1.4701 C   0  0  0  0  0  0  0  0  0  0  0  0
   -4.8282   -2.0959    0.6654 C   0  0  0  0  0  0  0  0  0  0  0  0
    4.7287   -1.9503   -0.8779 C   0  0  0  0  0  0  0  0  0  0  0  0
   -5.6263   -2.6234   -1.2928 C   0  0  0  0  0  0  0  0  0  0  0  0
    0.6764   -0.7182   -0.3492 H   0  0  0  0  0  0  0  0  0  0  0  0
   -1.4499    3.3640   -0.0697 H   0  0  0  0  0  0  0  0  0  0  0  0
   -1.6635   -2.2195    0.4709 H   0  0  0  0  0  0  0  0  0  0  0  0
   -2.2188   -1.2797    1.8408 H   0  0  0  0  0  0  0  0  0  0  0  0
    0.2568   -2.2128    1.5841 H   0  0  0  0  0  0  0  0  0  0  0  0
   -3.7955    0.3283    1.1880 H   0  0  0  0  0  0  0  0  0  0  0  0
    2.7346   -0.1158   -1.3042 H   0  0  0  0  0  0  0  0  0  0  0  0
    1.6477    2.1803    2.0517 H   0  0  0  0  0  0  0  0  0  0  0  0
    0.2154    3.0721    1.7109 H   0  0  0  0  0  0  0  0  0  0  0  0
    0.1272    1.6663    2.7647 H   0  0  0  0  0  0  0  0  0  0  0  0
    2.8762    2.3003   -1.4103 H   0  0  0  0  0  0  0  0  0  0  0  0
    2.8262    2.4534    0.3328 H   0  0  0  0  0  0  0  0  0  0  0  0
   -0.6186   -0.3875   -1.7443 H   0  0  0  0  0  0  0  0  0  0  0  0
   -1.9956   -1.4775   -1.7371 H   0  0  0  0  0  0  0  0  0  0  0  0
   -2.1846    0.2277   -2.1600 H   0  0  0  0  0  0  0  0  0  0  0  0
    3.9606   -0.5884    2.3412 H   0  0  0  0  0  0  0  0  0  0  0  0
    3.0996    0.9264    2.3431 H   0  0  0  0  0  0  0  0  0  0  0  0
    2.3346   -0.5315    2.9785 H   0  0  0  0  0  0  0  0  0  0  0  0
    2.1200   -2.6644    1.1865 H   0  0  0  0  0  0  0  0  0  0  0  0
   -0.6483   -1.3348    3.3949 H   0  0  0  0  0  0  0  0  0  0  0  0
    6.1785    0.5916   -2.0609 H   0  0  0  0  0  0  0  0  0  0  0  0
    4.5957    0.1605   -2.6846 H   0  0  0  0  0  0  0  0  0  0  0  0
    4.9096    1.8239   -2.1678 H   0  0  0  0  0  0  0  0  0  0  0  0
    6.4494    1.3132    0.3256 H   0  0  0  0  0  0  0  0  0  0  0  0
    5.0758    2.4208    0.2723 H   0  0  0  0  0  0  0  0  0  0  0  0
    5.1815    1.1435    1.5017 H   0  0  0  0  0  0  0  0  0  0  0  0
    3.6772   -3.7023   -0.1480 H   0  0  0  0  0  0  0  0  0  0  0  0
   -4.7954   -0.9247   -2.4023 H   0  0  0  0  0  0  0  0  0  0  0  0
   -4.6951   -2.2728    1.7228 H   0  0  0  0  0  0  0  0  0  0  0  0
   -6.1919   -3.2628   -1.9547 H   0  0  0  0  0  0  0  0  0  0  0  0
  1  9  1  0  0  0  0
  1 13  1  0  0  0  0
  2 17  1  0  0  0  0
  2 23  1  0  0  0  0
  3 16  1  0  0  0  0
  3 54  1  0  0  0  0
  4 19  2  0  0  0  0
  5 24  1  0  0  0  0
  5 33  1  0  0  0  0
  6 23  2  0  0  0  0
  7 32  1  0  0  0  0
  7 34  1  0  0  0  0
  8 33  2  0  0  0  0
  9 10  1  0  0  0  0
  9 11  1  0  0  0  0
  9 13  1  0  0  0  0
 10 12  1  0  0  0  0
 10 19  1  0  0  0  0
 10 20  1  0  0  0  0
 11 15  1  0  0  0  0
 11 17  1  0  0  0  0
 11 22  1  0  0  0  0
 12 14  1  0  0  0  0
 12 16  1  0  0  0  0
 12 35  1  0  0  0  0
 13 23  1  0  0  0  0
 13 36  1  0  0  0  0
 14 18  1  0  0  0  0
 14 25  1  0  0  0  0
 14 26  1  0  0  0  0
 15 16  1  0  0  0  0
 15 37  1  0  0  0  0
 15 38  1  0  0  0  0
 16 39  1  0  0  0  0
 17 27  1  0  0  0  0
 17 40  1  0  0  0  0
 18 21  1  0  0  0  0
 18 24  1  0  0  0  0
 18 41  1  0  0  0  0
 19 21  1  0  0  0  0
 20 42  1  0  0  0  0
 20 43  1  0  0  0  0
 20 44  1  0  0  0  0
 21 45  1  0  0  0  0
 21 46  1  0  0  0  0
 22 47  1  0  0  0  0
 22 48  1  0  0  0  0
 22 49  1  0  0  0  0
 24 28  1  0  0  0  0
 24 29  1  0  0  0  0
 25 50  1  0  0  0  0
 25 51  1  0  0  0  0
 25 52  1  0  0  0  0
 26 30  2  0  0  0  0
 26 53  1  0  0  0  0
 27 31  1  0  0  0  0
 27 32  2  0  0  0  0
 28 55  1  0  0  0  0
 28 56  1  0  0  0  0
 28 57  1  0  0  0  0
 29 58  1  0  0  0  0
 29 59  1  0  0  0  0
 29 60  1  0  0  0  0
 30 33  1  0  0  0  0
 30 61  1  0  0  0  0
 31 34  2  0  0  0  0
 31 62  1  0  0  0  0
 32 63  1  0  0  0  0
 34 64  1  0  0  0  0
M  END
> <PUBCHEM_COMPOUND_CID>
441812

> <PUBCHEM_CONFORMER_RMSD>
0.8

> <PUBCHEM_CONFORMER_DIVERSEORDER>
1
2

> <PUBCHEM_MMFF94_PARTIAL_CHARGES>
33
1 -0.3
10 0.16
11 0.09
13 0.05
14 0.14
16 0.28
17 0.46
19 0.45
2 -0.43
21 0.06
23 0.72
24 0.28
26 -0.29
27 -0.18
3 -0.68
30 -0.14
31 -0.15
32 -0.01
33 0.71
34 -0.01
36 0.1
4 -0.57
5 -0.43
53 0.15
54 0.4
6 -0.57
61 0.15
62 0.15
63 0.15
64 0.15
7 -0.28
8 -0.57
9 -0.04

> <PUBCHEM_EFFECTIVE_ROTOR_COUNT>
2.6

> <PUBCHEM_PHARMACOPHORE_FEATURES>
13
1 1 acceptor
1 3 acceptor
1 3 donor
1 4 acceptor
1 6 acceptor
1 7 acceptor
1 8 acceptor
3 24 28 29 hydrophobe
5 7 27 31 32 34 rings
6 10 12 14 18 19 21 rings
6 9 10 11 12 15 16 rings
7 1 2 9 11 13 17 23 rings
7 5 14 18 24 26 30 33 rings

> <PUBCHEM_HEAVY_ATOM_COUNT>
34

> <PUBCHEM_ATOM_DEF_STEREO_COUNT>
9

> <PUBCHEM_ATOM_UDEF_STEREO_COUNT>
0

> <PUBCHEM_BOND_DEF_STEREO_COUNT>
0

> <PUBCHEM_BOND_UDEF_STEREO_COUNT>
0

> <PUBCHEM_ISOTOPIC_ATOM_COUNT>
0

> <PUBCHEM_COMPONENT_COUNT>
1

> <PUBCHEM_CACTVS_TAUTO_COUNT>
2

> <PUBCHEM_CONFORMER_ID>
0006BDD400000001

> <PUBCHEM_MMFF94_ENERGY>
154.3179

> <PUBCHEM_FEATURE_SELFOVERLAP>
66.01

> <PUBCHEM_SHAPE_FINGERPRINT>
10319926 262 9223227464314085516
10928967 22 17676779711826050855
117089 54 18115012108617123302
11763715 3 17897137235595985360
11796584 16 18116432733663440830
11991303 11 18126856113160451861
12422481 6 17894620458022555271
12788726 201 18271252638140795667
12969540 114 16271917259554444074
131258 38 15439081977371762095
13224815 77 18410013282088398688
13583140 156 17168446933715477904
13690498 29 18411699894292027975
13782708 43 17748545930971611854
14347332 77 18409730664418434495
14790565 3 17691688213631494633
14950920 106 15647055915693183331
15001296 14 18190745236971708494
15082195 135 18200017453452750596
16994733 274 14907918106535336295
17349148 13 18202846552320327872
17492 54 17346320358157301250
17492 89 18188204411987508686
17909252 39 18335421205820649699
20691752 17 17131834321702271744
20775438 99 17758418274232104111
21307412 95 17756136040337740534
221357 26 18412266103951540139
22182313 1 17969529063698419577
22393880 68 18271811279994066236
23379529 103 18336262328327677799
23559900 14 18189342432255026808
23569914 152 17760961780098375471
255183 451 18050573942188235439
2838139 119 14764082133365495143
3680242 22 7925644271608544454
44062 13 18336829805165202813
46194498 28 18129666274894488830
463206 1 18117840997405504887
7970288 3 18187366489226698807
9709674 26 18342450435423170448

> <PUBCHEM_SHAPE_MULTIPOLES>
652.75
12.44
3.39
1.81
0.94
0.3
-0.47
-7.58
5.41
2.35
0.77
-0.76
-0.12
0.29

> <PUBCHEM_SHAPE_SELFOVERLAP>
1433.93

> <PUBCHEM_SHAPE_VOLUME>
347.9

> <PUBCHEM_COORDINATE_TYPE>
2
5
10

$$$$

