11692
  -OEChem-06261206003D

 35 37  0     0  0  0  0  0  0999 V2000
    0.0324   -0.0049   -2.6232 Br  0  0  0  0  0  0  0  0  0  0  0  0
   -0.0490   -0.0113   -0.5386 C   0  0  0  0  0  0  0  0  0  0  0  0
   -1.4713   -0.2751   -0.1747 C   0  0  0  0  0  0  0  0  0  0  0  0
    0.9770   -1.1386   -0.1438 C   0  0  0  0  0  0  0  0  0  0  0  0
    0.5004    1.4127   -0.1523 C   0  0  0  0  0  0  0  0  0  0  0  0
   -2.1279   -1.3918   -0.6918 C   0  0  0  0  0  0  0  0  0  0  0  0
    0.6857   -1.8773    0.9546 C   0  0  0  0  0  0  0  0  0  0  0  0
   -0.1293    2.4826   -0.6961 C   0  0  0  0  0  0  0  0  0  0  0  0
   -2.1448    0.5951    0.6824 C   0  0  0  0  0  0  0  0  0  0  0  0
    2.0692   -1.2795   -0.9335 C   0  0  0  0  0  0  0  0  0  0  0  0
    1.5591    1.4545    0.6927 C   0  0  0  0  0  0  0  0  0  0  0  0
   -3.4581   -1.6384   -0.3519 C   0  0  0  0  0  0  0  0  0  0  0  0
    1.5948   -2.8757    1.3047 C   0  0  0  0  0  0  0  0  0  0  0  0
    0.3576    3.7443   -0.3542 C   0  0  0  0  0  0  0  0  0  0  0  0
   -3.4748    0.3486    1.0224 C   0  0  0  0  0  0  0  0  0  0  0  0
    2.9782   -2.2779   -0.5836 C   0  0  0  0  0  0  0  0  0  0  0  0
    2.0460    2.7161    1.0348 C   0  0  0  0  0  0  0  0  0  0  0  0
   -4.1315   -0.7682    0.5052 C   0  0  0  0  0  0  0  0  0  0  0  0
    2.7410   -3.0760    0.5356 C   0  0  0  0  0  0  0  0  0  0  0  0
    1.4452    3.8610    0.5113 C   0  0  0  0  0  0  0  0  0  0  0  0
   -1.6257   -2.0998   -1.3455 H   0  0  0  0  0  0  0  0  0  0  0  0
   -0.1839   -1.7243    1.5819 H   0  0  0  0  0  0  0  0  0  0  0  0
   -0.9854    2.4176   -1.3578 H   0  0  0  0  0  0  0  0  0  0  0  0
   -1.6758    1.4510    1.1549 H   0  0  0  0  0  0  0  0  0  0  0  0
    2.3611   -0.6382   -1.7540 H   0  0  0  0  0  0  0  0  0  0  0  0
    2.0460    0.6076    1.1555 H   0  0  0  0  0  0  0  0  0  0  0  0
   -3.9680   -2.5107   -0.7501 H   0  0  0  0  0  0  0  0  0  0  0  0
    1.4139   -3.4925    2.1802 H   0  0  0  0  0  0  0  0  0  0  0  0
   -0.1126    4.6361   -0.7583 H   0  0  0  0  0  0  0  0  0  0  0  0
   -3.9967    1.0193    1.6989 H   0  0  0  0  0  0  0  0  0  0  0  0
    3.8821   -2.4203   -1.1689 H   0  0  0  0  0  0  0  0  0  0  0  0
    2.8881    2.8082    1.7147 H   0  0  0  0  0  0  0  0  0  0  0  0
   -5.1660   -0.9622    0.7730 H   0  0  0  0  0  0  0  0  0  0  0  0
    3.4521   -3.8489    0.8120 H   0  0  0  0  0  0  0  0  0  0  0  0
    1.8226    4.8433    0.7797 H   0  0  0  0  0  0  0  0  0  0  0  0
  1  2  1  0  0  0  0
  2  3  1  0  0  0  0
  2  4  1  0  0  0  0
  2  5  1  0  0  0  0
  3  6  2  0  0  0  0
  3  9  1  0  0  0  0
  4  7  2  0  0  0  0
  4 10  1  0  0  0  0
  5  8  2  0  0  0  0
  5 11  1  0  0  0  0
  6 12  1  0  0  0  0
  6 21  1  0  0  0  0
  7 13  1  0  0  0  0
  7 22  1  0  0  0  0
  8 14  1  0  0  0  0
  8 23  1  0  0  0  0
  9 15  2  0  0  0  0
  9 24  1  0  0  0  0
 10 16  2  0  0  0  0
 10 25  1  0  0  0  0
 11 17  2  0  0  0  0
 11 26  1  0  0  0  0
 12 18  2  0  0  0  0
 12 27  1  0  0  0  0
 13 19  2  0  0  0  0
 13 28  1  0  0  0  0
 14 20  2  0  0  0  0
 14 29  1  0  0  0  0
 15 18  1  0  0  0  0
 15 30  1  0  0  0  0
 16 19  1  0  0  0  0
 16 31  1  0  0  0  0
 17 20  1  0  0  0  0
 17 32  1  0  0  0  0
 18 33  1  0  0  0  0
 19 34  1  0  0  0  0
 20 35  1  0  0  0  0
M  END
> <PUBCHEM_COMPOUND_CID>
11692

> <PUBCHEM_CONFORMER_RMSD>
0.6

> <PUBCHEM_CONFORMER_DIVERSEORDER>
1
2
3

> <PUBCHEM_MMFF94_PARTIAL_CHARGES>
35
1 -0.23
10 -0.15
11 -0.15
12 -0.15
13 -0.15
14 -0.15
15 -0.15
16 -0.15
17 -0.15
18 -0.15
19 -0.15
2 0.66
20 -0.15
21 0.15
22 0.15
23 0.15
24 0.15
25 0.15
26 0.15
27 0.15
28 0.15
29 0.15
3 -0.14
30 0.15
31 0.15
32 0.15
33 0.15
34 0.15
35 0.15
4 -0.14
5 -0.14
6 -0.15
7 -0.15
8 -0.15
9 -0.15

> <PUBCHEM_EFFECTIVE_ROTOR_COUNT>
3

> <PUBCHEM_PHARMACOPHORE_FEATURES>
4
1 1 hydrophobe
6 3 6 9 12 15 18 rings
6 4 7 10 13 16 19 rings
6 5 8 11 14 17 20 rings

> <PUBCHEM_HEAVY_ATOM_COUNT>
20

> <PUBCHEM_ATOM_DEF_STEREO_COUNT>
0

> <PUBCHEM_ATOM_UDEF_STEREO_COUNT>
0

> <PUBCHEM_BOND_DEF_STEREO_COUNT>
0

> <PUBCHEM_BOND_UDEF_STEREO_COUNT>
0

> <PUBCHEM_ISOTOPIC_ATOM_COUNT>
0

> <PUBCHEM_COMPONENT_COUNT>
1

> <PUBCHEM_CACTVS_TAUTO_COUNT>
1

> <PUBCHEM_CONFORMER_ID>
00002DAC00000001

> <PUBCHEM_MMFF94_ENERGY>
91.9444

> <PUBCHEM_FEATURE_SELFOVERLAP>
20.297

> <PUBCHEM_SHAPE_FINGERPRINT>
10090160 65 17760942740460644703
11578080 2 17988089996595896789
12035758 1 17976826703003545745
12173636 292 17114112612355484030
12553582 1 18267020737981409523
12643181 29 16247996594162781806
12788726 201 17837760489074966826
13132413 78 18336815493944081053
13134695 92 18340769338184656303
13140716 1 18050569534358825065
13275264 69 17980200004228694947
13538477 17 17405706364627991770
13583140 156 18199162080835142857
136203 1 17618221049574569160
14223421 5 18267303140997590507
14787075 74 18342163467531772766
14955137 171 18048280566320763939
15309172 13 17837506154122991869
15375462 189 18199736115261001643
15420108 30 18040726839458459004
15490181 8 17834671591502554077
15906896 17 17327757591097890255
16752209 62 17547576336605457455
16945 1 18189616046882033277
17780758 139 17119190131568522714
17980427 23 17531256114285463625
20510252 161 17254281635766181624
20600515 1 17751909457420816779
20645476 183 17330557544866659821
20905425 154 18261099790297825325
21524375 3 17682392555656086501
21731228 192 17762055441447638057
22112679 90 18120068814168671151
2255824 54 18337663110187946671
23419403 2 17986420929433716358
23557571 272 17757563219684792434
23558518 356 17543914503571259302
23598288 3 17832997422220991926
25222932 49 17322116624925176815
2748010 2 18266197177743542501
298252 57 16664289855221405165
3091708 16 9214036629089464313
352729 6 17185874991394139765
4175511 71 18263353840953597535
4340502 62 17911241612275906699
43471831 8 18048319942390386363
4409770 3 17691968580289494885
474 4 18121782725337206681
497634 4 14641563733477231396
6138700 20 18335975373504960308
7097593 13 18335698338991384931
7364860 26 18262232223097383587
81228 2 17760372492676993408
90316 7 18048312537819496835
9999458 23 18195521498102126221

> <PUBCHEM_SHAPE_MULTIPOLES>
417.53
4.87
4.65
1.52
4.92
3.41
0.89
-3.3
-1.22
-4.42
-1.12
-0.17
-0.18
0

> <PUBCHEM_SHAPE_SELFOVERLAP>
908.121

> <PUBCHEM_SHAPE_VOLUME>
228.3

> <PUBCHEM_COORDINATE_TYPE>
2
5
10

$$$$

