47205690
  -OEChem-06241222593D

 37 37  0     0  0  0  0  0  0999 V2000
   -3.7464   -0.8588    1.2434 O   0  0  0  0  0  0  0  0  0  0  0  0
   -1.1952    1.0681   -0.5321 O   0  0  0  0  0  0  0  0  0  0  0  0
    6.3582   -0.0718   -0.0700 O   0  0  0  0  0  0  0  0  0  0  0  0
   -3.1823   -0.6901   -1.0022 N   0  0  0  0  0  0  0  0  0  0  0  0
    0.4310   -0.6263   -0.4730 N   0  0  0  0  0  0  0  0  0  0  0  0
   -5.3703    0.0331   -0.3152 C   0  0  0  0  0  0  0  0  0  0  0  0
   -6.3169    0.1928    0.8709 C   0  0  0  0  0  0  0  0  0  0  0  0
   -1.8467   -1.2238   -0.8784 C   0  0  0  0  0  0  0  0  0  0  0  0
   -4.0290   -0.5523    0.0881 C   0  0  0  0  0  0  0  0  0  0  0  0
    1.6264    0.0865   -0.2165 C   0  0  0  0  0  0  0  0  0  0  0  0
   -0.8540   -0.1077   -0.6081 C   0  0  0  0  0  0  0  0  0  0  0  0
   -7.6637    0.7491    0.4386 C   0  0  0  0  0  0  0  0  0  0  0  0
    4.0156    0.1055    0.1418 C   0  0  0  0  0  0  0  0  0  0  0  0
    2.8375   -0.5975   -0.1108 C   0  0  0  0  0  0  0  0  0  0  0  0
    1.5934    1.4732   -0.0698 C   0  0  0  0  0  0  0  0  0  0  0  0
    3.9826    1.4922    0.2888 C   0  0  0  0  0  0  0  0  0  0  0  0
    2.7715    2.1760    0.1830 C   0  0  0  0  0  0  0  0  0  0  0  0
    5.2786   -0.6069    0.2522 C   0  0  0  0  0  0  0  0  0  0  0  0
    5.3096   -2.0411    0.7694 C   0  0  0  0  0  0  0  0  0  0  0  0
   -5.8191   -0.6280   -1.0663 H   0  0  0  0  0  0  0  0  0  0  0  0
   -5.1925    1.0072   -0.7863 H   0  0  0  0  0  0  0  0  0  0  0  0
   -5.8708    0.8607    1.6175 H   0  0  0  0  0  0  0  0  0  0  0  0
   -6.4682   -0.7757    1.3624 H   0  0  0  0  0  0  0  0  0  0  0  0
   -1.5942   -1.7156   -1.8229 H   0  0  0  0  0  0  0  0  0  0  0  0
   -1.8107   -1.9536   -0.0631 H   0  0  0  0  0  0  0  0  0  0  0  0
   -3.4961   -0.3919   -1.9213 H   0  0  0  0  0  0  0  0  0  0  0  0
   -8.1509    0.0830   -0.2806 H   0  0  0  0  0  0  0  0  0  0  0  0
   -8.3250    0.8565    1.3041 H   0  0  0  0  0  0  0  0  0  0  0  0
   -7.5502    1.7336   -0.0264 H   0  0  0  0  0  0  0  0  0  0  0  0
    0.5418   -1.6337   -0.5669 H   0  0  0  0  0  0  0  0  0  0  0  0
    2.8503   -1.6770   -0.2405 H   0  0  0  0  0  0  0  0  0  0  0  0
    0.6963    2.0721   -0.1377 H   0  0  0  0  0  0  0  0  0  0  0  0
    4.8896    2.0564    0.4900 H   0  0  0  0  0  0  0  0  0  0  0  0
    2.7468    3.2558    0.2986 H   0  0  0  0  0  0  0  0  0  0  0  0
    5.1937   -2.7344   -0.0672 H   0  0  0  0  0  0  0  0  0  0  0  0
    4.5226   -2.2038    1.5107 H   0  0  0  0  0  0  0  0  0  0  0  0
    6.2689   -2.2213    1.2639 H   0  0  0  0  0  0  0  0  0  0  0  0
  1  9  2  0  0  0  0
  2 11  2  0  0  0  0
  3 18  2  0  0  0  0
  4  8  1  0  0  0  0
  4  9  1  0  0  0  0
  4 26  1  0  0  0  0
  5 10  1  0  0  0  0
  5 11  1  0  0  0  0
  5 30  1  0  0  0  0
  6  7  1  0  0  0  0
  6  9  1  0  0  0  0
  6 20  1  0  0  0  0
  6 21  1  0  0  0  0
  7 12  1  0  0  0  0
  7 22  1  0  0  0  0
  7 23  1  0  0  0  0
  8 11  1  0  0  0  0
  8 24  1  0  0  0  0
  8 25  1  0  0  0  0
 10 14  1  0  0  0  0
 10 15  2  0  0  0  0
 12 27  1  0  0  0  0
 12 28  1  0  0  0  0
 12 29  1  0  0  0  0
 13 14  2  0  0  0  0
 13 16  1  0  0  0  0
 13 18  1  0  0  0  0
 14 31  1  0  0  0  0
 15 17  1  0  0  0  0
 15 32  1  0  0  0  0
 16 17  2  0  0  0  0
 16 33  1  0  0  0  0
 17 34  1  0  0  0  0
 18 19  1  0  0  0  0
 19 35  1  0  0  0  0
 19 36  1  0  0  0  0
 19 37  1  0  0  0  0
M  END
> <PUBCHEM_COMPOUND_CID>
47205690

> <PUBCHEM_CONFORMER_RMSD>
1

> <PUBCHEM_CONFORMER_DIVERSEORDER>
1
64
61
44
49
71
66
32
76
74
27
10
19
7
48
53
37
68
65
43
45
30
5
40
70
55
67
24
62
16
69
17
23
39
56
8
29
35
59
28
25
60
11
51
52
73
47
58
6
18
20
36
54
57
15
63
21
26
41
12
42
31
46
13
34
2
4
75
22
33
50
38
9
72
14
3

> <PUBCHEM_MMFF94_PARTIAL_CHARGES>
23
1 -0.57
10 0.12
11 0.57
13 0.09
14 -0.15
15 -0.15
16 -0.15
17 -0.15
18 0.42
19 0.06
2 -0.57
26 0.37
3 -0.57
30 0.37
31 0.15
32 0.15
33 0.15
34 0.15
4 -0.73
5 -0.55
6 0.06
8 0.36
9 0.57

> <PUBCHEM_EFFECTIVE_ROTOR_COUNT>
8

> <PUBCHEM_PHARMACOPHORE_FEATURES>
7
1 1 acceptor
1 12 hydrophobe
1 2 acceptor
1 3 acceptor
1 4 donor
1 5 donor
6 10 13 14 15 16 17 rings

> <PUBCHEM_HEAVY_ATOM_COUNT>
19

> <PUBCHEM_ATOM_DEF_STEREO_COUNT>
0

> <PUBCHEM_ATOM_UDEF_STEREO_COUNT>
0

> <PUBCHEM_BOND_DEF_STEREO_COUNT>
0

> <PUBCHEM_BOND_UDEF_STEREO_COUNT>
0

> <PUBCHEM_ISOTOPIC_ATOM_COUNT>
0

> <PUBCHEM_COMPONENT_COUNT>
1

> <PUBCHEM_CACTVS_TAUTO_COUNT>
8

> <PUBCHEM_CONFORMER_ID>
02D04D3A00000001

> <PUBCHEM_MMFF94_ENERGY>
43.0998

> <PUBCHEM_FEATURE_SELFOVERLAP>
35.52

> <PUBCHEM_SHAPE_FINGERPRINT>
10299344 5 11887954359380285769
10968037 39 10735876171517482465
11089746 13 17313108540510513113
11458722 120 18187366527690648839
11638347 137 18202558481028244347
12236239 1 17894633621421824359
12596602 18 18342171125632236505
12616971 3 18187369796545922301
13167372 99 18187361056446074657
13533116 47 18272656783103635634
14123256 10 10735875071589129753
1420 363 16630526241181602187
14251718 22 10087641507185789647
14251764 18 18334013865839848141
14251764 46 16845572020093514811
14341114 176 18131069320625340413
14617045 38 16343703248661699683
15142383 8 18341615940262618188
15348495 7 18129937872010771505
15475509 35 16988020370243548104
15527383 91 18411981351592938404
19141452 34 18334581200396183999
19489759 90 15430033249550272183
20281389 69 18261112967916755513
21150785 3 13901900125036758546
21267235 1 18339361972487389542
212847 35 17894630318539395160
21344244 181 15410612640288502328
2297311 6 16128658574300030895
23035841 295 15913329091486605769
23081809 10 18188214204296081199
23402539 116 16950288390720712589
23503953 91 17821734901157569798
23559900 14 17632296735493210124
26918003 58 18341611499492969235
2767999 5 16950561091284868321
2838139 119 18187369848745438597
33382 64 16917074403355771978
34797466 226 15626215823929400750
4072396 5 17313104163611628678
4073 2 18058446508748873402
4340502 62 17060348392881609250
5104073 3 18262526870575566610

> <PUBCHEM_SHAPE_MULTIPOLES>
363.44
17.84
1.64
0.89
19.5
0.35
-0.06
-0.76
-4.8
-2.12
-0.16
0.63
-0.18
-0.59

> <PUBCHEM_SHAPE_SELFOVERLAP>
737.748

> <PUBCHEM_SHAPE_VOLUME>
210.8

> <PUBCHEM_COORDINATE_TYPE>
2
5
10

$$$$

