5281400
  -OEChem-07051212572D

 78 83  0     1  0  0  0  0  0999 V2000
   10.4869    2.6845    0.0000 O   0  0  0  0  0  0  0  0  0  0  0  0
   10.1449    0.8956    0.0000 O   0  0  0  0  0  0  0  0  0  0  0  0
    9.2588    0.4112    0.0000 O   0  0  0  0  0  0  0  0  0  0  0  0
    9.3647   -1.1654    0.0000 O   0  0  0  0  0  0  0  0  0  0  0  0
   13.3221    2.7283    0.0000 O   0  0  0  0  0  0  0  0  0  0  0  0
   12.9100    3.4361    0.0000 O   0  0  0  0  0  0  0  0  0  0  0  0
   11.7342    4.2479    0.0000 O   0  0  0  0  0  0  0  0  0  0  0  0
   14.6043    2.6974    0.0000 O   0  0  0  0  0  0  0  0  0  0  0  0
   11.0751    0.7784    0.0000 C   0  0  1  0  0  0  0  0  0  0  0  0
   11.9761    0.3445    0.0000 C   0  0  2  0  0  0  0  0  0  0  0  0
   10.8526    1.7533    0.0000 C   0  0  1  0  0  0  0  0  0  0  0  0
   11.4761    2.5352    0.0000 C   0  0  1  0  0  0  0  0  0  0  0  0
   10.2055    0.2050    0.0000 C   0  0  2  0  0  0  0  0  0  0  0  0
   12.8771    0.7784    0.0000 C   0  0  1  0  0  0  0  0  0  0  0  0
   12.0699   -0.6929    0.0000 C   0  0  1  0  0  0  0  0  0  0  0  0
   10.2754   -0.8343    0.0000 C   0  0  2  0  0  0  0  0  0  0  0  0
   13.0996    1.7533    0.0000 C   0  0  1  0  0  0  0  0  0  0  0  0
   12.4761    2.5352    0.0000 C   0  0  2  0  0  0  0  0  0  0  0  0
   11.2139   -1.2863    0.0000 C   0  0  0  0  0  0  0  0  0  0  0  0
    8.7520   -0.4147    0.0000 C   0  0  3  0  0  0  0  0  0  0  0  0
   12.0996    3.3170    0.0000 C   0  0  0  0  0  0  0  0  0  0  0  0
   13.7317    0.2708    0.0000 C   0  0  0  0  0  0  0  0  0  0  0  0
   14.0899    1.8399    0.0000 C   0  0  0  0  0  0  0  0  0  0  0  0
   12.9759   -1.1163    0.0000 C   0  0  0  0  0  0  0  0  0  0  0  0
   10.2253   -1.8331    0.0000 C   0  0  0  0  0  0  0  0  0  0  0  0
   14.4798    0.9254    0.0000 C   0  0  0  0  0  0  0  0  0  0  0  0
    7.7543   -0.4817    0.0000 C   0  0  0  0  0  0  0  0  0  0  0  0
    9.3354   -2.2891    0.0000 C   0  0  0  0  0  0  0  0  0  0  0  0
   15.4547    0.7029    0.0000 C   0  0  0  0  0  0  0  0  0  0  0  0
   11.0652   -2.3758    0.0000 C   0  0  0  0  0  0  0  0  0  0  0  0
    7.3134   -1.3793    0.0000 C   0  0  0  0  0  0  0  0  0  0  0  0
    6.3157   -1.4464    0.0000 C   0  0  0  0  0  0  0  0  0  0  0  0
    5.8749   -2.3440    0.0000 C   0  0  0  0  0  0  0  0  0  0  0  0
    4.8771   -2.4110    0.0000 C   0  0  0  0  0  0  0  0  0  0  0  0
    4.4363   -3.3086    0.0000 C   0  0  0  0  0  0  0  0  0  0  0  0
    3.4386   -3.3756    0.0000 C   0  0  0  0  0  0  0  0  0  0  0  0
    2.9978   -4.2732    0.0000 C   0  0  0  0  0  0  0  0  0  0  0  0
    2.0000   -4.3403    0.0000 C   0  0  0  0  0  0  0  0  0  0  0  0
   10.5503    1.4470    0.0000 H   0  0  0  0  0  0  0  0  0  0  0  0
   10.0404    1.5027    0.0000 H   0  0  0  0  0  0  0  0  0  0  0  0
    9.5192    0.7065    0.0000 H   0  0  0  0  0  0  0  0  0  0  0  0
   12.8400   -0.0708    0.0000 H   0  0  0  0  0  0  0  0  0  0  0  0
   12.5774   -0.3367    0.0000 H   0  0  0  0  0  0  0  0  0  0  0  0
   13.0922    2.6046    0.0000 H   0  0  0  0  0  0  0  0  0  0  0  0
   10.8532   -1.7906    0.0000 H   0  0  0  0  0  0  0  0  0  0  0  0
   11.6490   -1.7279    0.0000 H   0  0  0  0  0  0  0  0  0  0  0  0
   12.5098    2.8521    0.0000 H   0  0  0  0  0  0  0  0  0  0  0  0
   12.6286    3.6403    0.0000 H   0  0  0  0  0  0  0  0  0  0  0  0
   13.7884   -0.3466    0.0000 H   0  0  0  0  0  0  0  0  0  0  0  0
   12.7133   -1.6780    0.0000 H   0  0  0  0  0  0  0  0  0  0  0  0
   13.5375   -1.3788    0.0000 H   0  0  0  0  0  0  0  0  0  0  0  0
   13.2384   -0.5546    0.0000 H   0  0  0  0  0  0  0  0  0  0  0  0
   13.9146    2.9110    0.0000 H   0  0  0  0  0  0  0  0  0  0  0  0
   12.5607    3.9484    0.0000 H   0  0  0  0  0  0  0  0  0  0  0  0
    7.4090    0.0332    0.0000 H   0  0  0  0  0  0  0  0  0  0  0  0
    9.0526   -1.7373    0.0000 H   0  0  0  0  0  0  0  0  0  0  0  0
    8.7836   -2.5718    0.0000 H   0  0  0  0  0  0  0  0  0  0  0  0
    9.6181   -2.8409    0.0000 H   0  0  0  0  0  0  0  0  0  0  0  0
   11.1212    4.3403    0.0000 H   0  0  0  0  0  0  0  0  0  0  0  0
   15.3168    0.0985    0.0000 H   0  0  0  0  0  0  0  0  0  0  0  0
   16.0592    0.5650    0.0000 H   0  0  0  0  0  0  0  0  0  0  0  0
   15.5927    1.3074    0.0000 H   0  0  0  0  0  0  0  0  0  0  0  0
   11.0342   -2.9950    0.0000 H   0  0  0  0  0  0  0  0  0  0  0  0
   11.6170   -2.0930    0.0000 H   0  0  0  0  0  0  0  0  0  0  0  0
    7.6588   -1.8943    0.0000 H   0  0  0  0  0  0  0  0  0  0  0  0
    5.9704   -0.9314    0.0000 H   0  0  0  0  0  0  0  0  0  0  0  0
    6.2202   -2.8589    0.0000 H   0  0  0  0  0  0  0  0  0  0  0  0
    4.9436   -1.7946    0.0000 H   0  0  0  0  0  0  0  0  0  0  0  0
    4.2816   -2.2385    0.0000 H   0  0  0  0  0  0  0  0  0  0  0  0
    4.3698   -3.9250    0.0000 H   0  0  0  0  0  0  0  0  0  0  0  0
    5.0318   -3.4811    0.0000 H   0  0  0  0  0  0  0  0  0  0  0  0
    3.5050   -2.7592    0.0000 H   0  0  0  0  0  0  0  0  0  0  0  0
    2.8430   -3.2031    0.0000 H   0  0  0  0  0  0  0  0  0  0  0  0
    2.9313   -4.8897    0.0000 H   0  0  0  0  0  0  0  0  0  0  0  0
    3.5933   -4.4458    0.0000 H   0  0  0  0  0  0  0  0  0  0  0  0
    1.9584   -3.7217    0.0000 H   0  0  0  0  0  0  0  0  0  0  0  0
    1.3814   -4.3818    0.0000 H   0  0  0  0  0  0  0  0  0  0  0  0
    2.0416   -4.9589    0.0000 H   0  0  0  0  0  0  0  0  0  0  0  0
  1 11  1  0  0  0  0
  1 12  1  0  0  0  0
 10  2  1  6  0  0  0
  2 20  1  0  0  0  0
  3 13  1  0  0  0  0
  3 20  1  0  0  0  0
  4 16  1  0  0  0  0
  4 20  1  0  0  0  0
 17  5  1  1  0  0  0
  5 53  1  0  0  0  0
 18  6  1  1  0  0  0
  6 54  1  0  0  0  0
  7 21  1  0  0  0  0
  7 59  1  0  0  0  0
  8 23  2  0  0  0  0
  9 10  1  0  0  0  0
  9 11  1  0  0  0  0
  9 13  1  0  0  0  0
  9 39  1  1  0  0  0
 10 14  1  0  0  0  0
 10 15  1  0  0  0  0
 11 12  1  0  0  0  0
 11 40  1  1  0  0  0
 12 18  1  0  0  0  0
 12 21  1  1  0  0  0
 13 16  1  0  0  0  0
 13 41  1  1  0  0  0
 14 17  1  0  0  0  0
 14 22  1  0  0  0  0
 14 42  1  6  0  0  0
 15 19  1  0  0  0  0
 15 24  1  6  0  0  0
 15 43  1  0  0  0  0
 16 19  1  0  0  0  0
 16 25  1  1  0  0  0
 17 18  1  0  0  0  0
 17 23  1  0  0  0  0
 18 44  1  0  0  0  0
 19 45  1  0  0  0  0
 19 46  1  0  0  0  0
 20 27  1  0  0  0  0
 21 47  1  0  0  0  0
 21 48  1  0  0  0  0
 22 26  2  0  0  0  0
 22 49  1  0  0  0  0
 23 26  1  0  0  0  0
 24 50  1  0  0  0  0
 24 51  1  0  0  0  0
 24 52  1  0  0  0  0
 25 28  1  0  0  0  0
 25 30  2  0  0  0  0
 26 29  1  0  0  0  0
 27 31  2  0  0  0  0
 27 55  1  0  0  0  0
 28 56  1  0  0  0  0
 28 57  1  0  0  0  0
 28 58  1  0  0  0  0
 29 60  1  0  0  0  0
 29 61  1  0  0  0  0
 29 62  1  0  0  0  0
 30 63  1  0  0  0  0
 30 64  1  0  0  0  0
 31 32  1  0  0  0  0
 31 65  1  0  0  0  0
 32 33  2  0  0  0  0
 32 66  1  0  0  0  0
 33 34  1  0  0  0  0
 33 67  1  0  0  0  0
 34 35  1  0  0  0  0
 34 68  1  0  0  0  0
 34 69  1  0  0  0  0
 35 36  1  0  0  0  0
 35 70  1  0  0  0  0
 35 71  1  0  0  0  0
 36 37  1  0  0  0  0
 36 72  1  0  0  0  0
 36 73  1  0  0  0  0
 37 38  1  0  0  0  0
 37 74  1  0  0  0  0
 37 75  1  0  0  0  0
 38 76  1  0  0  0  0
 38 77  1  0  0  0  0
 38 78  1  0  0  0  0
M  END
> <PUBCHEM_COMPOUND_CID>
5281400

> <PUBCHEM_COMPOUND_CANONICALIZED>
1

> <PUBCHEM_CACTVS_COMPLEXITY>
1140

> <PUBCHEM_CACTVS_HBOND_ACCEPTOR>
8

> <PUBCHEM_CACTVS_HBOND_DONOR>
3

> <PUBCHEM_CACTVS_ROTATABLE_BOND>
8

> <PUBCHEM_CACTVS_SUBSKEYS>
AAADcfB4PAAAAAAAAAAAAAAAEgAAASIAAAA0QAAABogSAACAAAAAGgAACAAADVSggAICCAAABgCIAqBSAAIAAAAgAAAICAFAAEgZFBYAIQAiUAAF4AAPoYPK7PzOgAAAAAAAAADCAAYQADCAAAAAAAAAAA==

> <PUBCHEM_IUPAC_INCHI>
InChI=1S/C30H40O8/c1-6-7-8-9-10-11-12-13-28-36-23-21-24-27(16-31,35-24)25(33)29(34)20(14-18(4)22(29)32)30(21,38-28)19(5)15-26(23,37-28)17(2)3/h10-14,19-21,23-25,31,33-34H,2,6-9,15-16H2,1,3-5H3/b11-10+,13-12+/t19-,20-,21-,23-,24+,25-,26-,27+,28?,29-,30+/m1/s1

> <PUBCHEM_IUPAC_INCHIKEY>
CZCPFHFUOUQBDL-NBYZGKQKSA-N

> <PUBCHEM_XLOGP3_AA>
3.6

> <PUBCHEM_EXACT_MASS>
528.272318

> <PUBCHEM_MOLECULAR_FORMULA>
C30H40O8

> <PUBCHEM_MOLECULAR_WEIGHT>
528.6338

> <PUBCHEM_OPENEYE_CAN_SMILES>
CCCCCC=CC=CC12OC3C4C5C(O5)(C(C6(C(C4(O1)C(CC3(O2)C(=C)C)C)C=C(C6=O)C)O)O)CO

> <PUBCHEM_OPENEYE_ISO_SMILES>
CCCCC/C=C/C=C/C12O[C@@H]3[C@@H]4[C@H]5[C@](O5)([C@H]([C@]6([C@H]([C@@]4(O1)[C@@H](C[C@@]3(O2)C(=C)C)C)C=C(C6=O)C)O)O)CO

> <PUBCHEM_CACTVS_TPSA>
118

> <PUBCHEM_MONOISOTOPIC_WEIGHT>
528.272318

> <PUBCHEM_TOTAL_CHARGE>
0

> <PUBCHEM_HEAVY_ATOM_COUNT>
38

> <PUBCHEM_ATOM_DEF_STEREO_COUNT>
10

> <PUBCHEM_ATOM_UDEF_STEREO_COUNT>
1

> <PUBCHEM_BOND_DEF_STEREO_COUNT>
2

> <PUBCHEM_BOND_UDEF_STEREO_COUNT>
0

> <PUBCHEM_ISOTOPIC_ATOM_COUNT>
0

> <PUBCHEM_COMPONENT_COUNT>
1

> <PUBCHEM_CACTVS_TAUTO_COUNT>
3

> <PUBCHEM_COORDINATE_TYPE>
1
5
255

> <PUBCHEM_BONDANNOTATIONS>
11  40  5
12  21  5
13  41  5
14  42  6
15  24  6
16  25  5
10  2  6
20  27  3
17  5  5
18  6  5
9  39  5

$$$$

