24836925
  -OEChem-07051213103D

 80 85  0     1  0  0  0  0  0999 V2000
    4.3177    1.4464   -0.2528 O   0  0  0  0  0  0  0  0  0  0  0  0
   -4.5186    0.0194   -0.3682 O   0  0  0  0  0  0  0  0  0  0  0  0
   -0.8436   -1.3847   -2.5693 O   0  0  0  0  0  0  0  0  0  0  0  0
    8.7118   -0.0310   -0.6999 O   0  0  0  0  0  0  0  0  0  0  0  0
   -5.9898   -0.0333    1.4930 O   0  0  0  0  0  0  0  0  0  0  0  0
    8.8959    2.2184   -0.2503 O   0  0  0  0  0  0  0  0  0  0  0  0
   -6.9874    2.5063    0.5902 O   0  0  0  0  0  0  0  0  0  0  0  0
   -8.4481    1.4200   -1.5148 O   0  0  0  0  0  0  0  0  0  0  0  0
   -8.8658   -1.2109   -0.4897 O   0  0  0  0  0  0  0  0  0  0  0  0
    3.5439    0.3814    0.3218 C   0  0  1  0  0  0  0  0  0  0  0  0
    2.0784    0.5263   -0.1749 C   0  0  1  0  0  0  0  0  0  0  0  0
    4.2036   -0.9707   -0.0653 C   0  0  1  0  0  0  0  0  0  0  0  0
    1.1850   -0.6996    0.1738 C   0  0  1  0  0  0  0  0  0  0  0  0
   -0.2743   -0.5358   -0.3752 C   0  0  2  0  0  0  0  0  0  0  0  0
    5.4658   -1.0164    0.8583 C   0  0  2  0  0  0  0  0  0  0  0  0
    3.2698   -2.1541    0.3043 C   0  0  0  0  0  0  0  0  0  0  0  0
   -0.8684    0.7999    0.1514 C   0  0  1  0  0  0  0  0  0  0  0  0
    1.8585   -2.0150   -0.2605 C   0  0  0  0  0  0  0  0  0  0  0  0
    3.7235    0.4435    1.8503 C   0  0  0  0  0  0  0  0  0  0  0  0
    1.4281    1.8339    0.3238 C   0  0  0  0  0  0  0  0  0  0  0  0
    4.9877   -0.3653    2.1722 C   0  0  0  0  0  0  0  0  0  0  0  0
    0.0013    2.0143   -0.1852 C   0  0  0  0  0  0  0  0  0  0  0  0
   -1.1946   -1.6989    0.0790 C   0  0  0  0  0  0  0  0  0  0  0  0
    4.5519   -1.0668   -1.5653 C   0  0  0  0  0  0  0  0  0  0  0  0
   -2.3197    1.0113   -0.2982 C   0  0  0  0  0  0  0  0  0  0  0  0
   -2.6610   -1.4912   -0.3116 C   0  0  0  0  0  0  0  0  0  0  0  0
   -3.2056   -0.1469    0.1566 C   0  0  2  0  0  0  0  0  0  0  0  0
    6.6963   -0.3190    0.3467 C   0  0  0  0  0  0  0  0  0  0  0  0
   -0.2343   -0.5636   -1.8918 C   0  0  0  0  0  0  0  0  0  0  0  0
    7.7402   -1.0411   -0.4085 C   0  0  0  0  0  0  0  0  0  0  0  0
    7.0078    0.9665    0.4891 C   0  0  0  0  0  0  0  0  0  0  0  0
   -5.3383    0.7807    0.5119 C   0  0  2  0  0  0  0  0  0  0  0  0
    8.2966    1.1594   -0.1774 C   0  0  0  0  0  0  0  0  0  0  0  0
   -6.3633    1.5752   -0.2953 C   0  0  1  0  0  0  0  0  0  0  0  0
   -7.4166    0.6480   -0.9040 C   0  0  1  0  0  0  0  0  0  0  0  0
   -6.9230   -0.9728    0.9500 C   0  0  2  0  0  0  0  0  0  0  0  0
   -8.0308   -0.2580    0.1638 C   0  0  2  0  0  0  0  0  0  0  0  0
   -7.4804   -1.7757    2.1220 C   0  0  0  0  0  0  0  0  0  0  0  0
    2.1412    0.6153   -1.2670 H   0  0  0  0  0  0  0  0  0  0  0  0
    1.0982   -0.7428    1.2690 H   0  0  0  0  0  0  0  0  0  0  0  0
    5.7496   -2.0561    1.0704 H   0  0  0  0  0  0  0  0  0  0  0  0
    3.1875   -2.2644    1.3927 H   0  0  0  0  0  0  0  0  0  0  0  0
    3.7065   -3.0960   -0.0527 H   0  0  0  0  0  0  0  0  0  0  0  0
   -0.8905    0.7342    1.2506 H   0  0  0  0  0  0  0  0  0  0  0  0
    1.2764   -2.8720    0.0954 H   0  0  0  0  0  0  0  0  0  0  0  0
    1.8871   -2.0942   -1.3522 H   0  0  0  0  0  0  0  0  0  0  0  0
    3.8373    1.4716    2.2118 H   0  0  0  0  0  0  0  0  0  0  0  0
    2.8779    0.0006    2.3861 H   0  0  0  0  0  0  0  0  0  0  0  0
    2.0146    2.7018    0.0036 H   0  0  0  0  0  0  0  0  0  0  0  0
    1.4128    1.8503    1.4204 H   0  0  0  0  0  0  0  0  0  0  0  0
    4.7216   -1.1537    2.8888 H   0  0  0  0  0  0  0  0  0  0  0  0
    5.7393    0.2445    2.6845 H   0  0  0  0  0  0  0  0  0  0  0  0
    0.0132    2.1953   -1.2663 H   0  0  0  0  0  0  0  0  0  0  0  0
   -0.4257    2.9151    0.2727 H   0  0  0  0  0  0  0  0  0  0  0  0
   -1.1349   -1.8009    1.1707 H   0  0  0  0  0  0  0  0  0  0  0  0
   -0.8684   -2.6585   -0.3390 H   0  0  0  0  0  0  0  0  0  0  0  0
    5.0454   -2.0190   -1.7893 H   0  0  0  0  0  0  0  0  0  0  0  0
    3.6585   -1.0066   -2.1942 H   0  0  0  0  0  0  0  0  0  0  0  0
    5.2140   -0.2615   -1.8979 H   0  0  0  0  0  0  0  0  0  0  0  0
   -2.3805    1.1242   -1.3884 H   0  0  0  0  0  0  0  0  0  0  0  0
   -2.7029    1.9540    0.1111 H   0  0  0  0  0  0  0  0  0  0  0  0
   -3.2644   -2.2918    0.1368 H   0  0  0  0  0  0  0  0  0  0  0  0
   -2.8265   -1.6026   -1.3878 H   0  0  0  0  0  0  0  0  0  0  0  0
   -3.2372   -0.1752    1.2553 H   0  0  0  0  0  0  0  0  0  0  0  0
    4.0743    2.2785    0.1851 H   0  0  0  0  0  0  0  0  0  0  0  0
    0.3622    0.2139   -2.3932 H   0  0  0  0  0  0  0  0  0  0  0  0
    8.2142   -1.8253    0.1892 H   0  0  0  0  0  0  0  0  0  0  0  0
    7.3789   -1.4622   -1.3495 H   0  0  0  0  0  0  0  0  0  0  0  0
    6.4787    1.7537    0.9970 H   0  0  0  0  0  0  0  0  0  0  0  0
   -4.7314    1.4998    1.0762 H   0  0  0  0  0  0  0  0  0  0  0  0
   -5.8814    2.1519   -1.0933 H   0  0  0  0  0  0  0  0  0  0  0  0
   -6.9677    0.0349   -1.6954 H   0  0  0  0  0  0  0  0  0  0  0  0
   -6.3852   -1.6744    0.2991 H   0  0  0  0  0  0  0  0  0  0  0  0
   -8.6682    0.3328    0.8321 H   0  0  0  0  0  0  0  0  0  0  0  0
   -6.3002    3.1168    0.9073 H   0  0  0  0  0  0  0  0  0  0  0  0
   -8.1762   -2.5495    1.7846 H   0  0  0  0  0  0  0  0  0  0  0  0
   -6.6666   -2.2572    2.6752 H   0  0  0  0  0  0  0  0  0  0  0  0
   -7.9989   -1.1216    2.8318 H   0  0  0  0  0  0  0  0  0  0  0  0
   -8.0299    1.9909   -2.1817 H   0  0  0  0  0  0  0  0  0  0  0  0
   -8.3045   -1.7607   -1.0626 H   0  0  0  0  0  0  0  0  0  0  0  0
  1 10  1  0  0  0  0
  1 65  1  0  0  0  0
  2 27  1  0  0  0  0
  2 32  1  0  0  0  0
  3 29  2  0  0  0  0
  4 30  1  0  0  0  0
  4 33  1  0  0  0  0
  5 32  1  0  0  0  0
  5 36  1  0  0  0  0
  6 33  2  0  0  0  0
  7 34  1  0  0  0  0
  7 75  1  0  0  0  0
  8 35  1  0  0  0  0
  8 79  1  0  0  0  0
  9 37  1  0  0  0  0
  9 80  1  0  0  0  0
 10 11  1  0  0  0  0
 10 12  1  0  0  0  0
 10 19  1  0  0  0  0
 11 13  1  0  0  0  0
 11 20  1  0  0  0  0
 11 39  1  0  0  0  0
 12 15  1  0  0  0  0
 12 16  1  0  0  0  0
 12 24  1  0  0  0  0
 13 14  1  0  0  0  0
 13 18  1  0  0  0  0
 13 40  1  0  0  0  0
 14 17  1  0  0  0  0
 14 23  1  0  0  0  0
 14 29  1  0  0  0  0
 15 21  1  0  0  0  0
 15 28  1  0  0  0  0
 15 41  1  0  0  0  0
 16 18  1  0  0  0  0
 16 42  1  0  0  0  0
 16 43  1  0  0  0  0
 17 22  1  0  0  0  0
 17 25  1  0  0  0  0
 17 44  1  0  0  0  0
 18 45  1  0  0  0  0
 18 46  1  0  0  0  0
 19 21  1  0  0  0  0
 19 47  1  0  0  0  0
 19 48  1  0  0  0  0
 20 22  1  0  0  0  0
 20 49  1  0  0  0  0
 20 50  1  0  0  0  0
 21 51  1  0  0  0  0
 21 52  1  0  0  0  0
 22 53  1  0  0  0  0
 22 54  1  0  0  0  0
 23 26  1  0  0  0  0
 23 55  1  0  0  0  0
 23 56  1  0  0  0  0
 24 57  1  0  0  0  0
 24 58  1  0  0  0  0
 24 59  1  0  0  0  0
 25 27  1  0  0  0  0
 25 60  1  0  0  0  0
 25 61  1  0  0  0  0
 26 27  1  0  0  0  0
 26 62  1  0  0  0  0
 26 63  1  0  0  0  0
 27 64  1  0  0  0  0
 28 30  1  0  0  0  0
 28 31  2  0  0  0  0
 29 66  1  0  0  0  0
 30 67  1  0  0  0  0
 30 68  1  0  0  0  0
 31 33  1  0  0  0  0
 31 69  1  0  0  0  0
 32 34  1  0  0  0  0
 32 70  1  0  0  0  0
 34 35  1  0  0  0  0
 34 71  1  0  0  0  0
 35 37  1  0  0  0  0
 35 72  1  0  0  0  0
 36 37  1  0  0  0  0
 36 38  1  0  0  0  0
 36 73  1  0  0  0  0
 37 74  1  0  0  0  0
 38 76  1  0  0  0  0
 38 77  1  0  0  0  0
 38 78  1  0  0  0  0
M  END
> <PUBCHEM_COMPOUND_CID>
24836925

> <PUBCHEM_CONFORMER_RMSD>
1

> <PUBCHEM_CONFORMER_DIVERSEORDER>
1
27
29
20
11
18
15
30
23
5
24
22
4
19
17
13
6
7
8
31
16
26
14
21
12
28
10
9
25
2
3

> <PUBCHEM_MMFF94_PARTIAL_CHARGES>
29
1 -0.68
10 0.28
14 0.06
15 0.14
2 -0.56
27 0.28
28 -0.28
29 0.45
3 -0.57
30 0.42
31 -0.14
32 0.56
33 0.71
34 0.28
35 0.28
36 0.28
37 0.28
4 -0.43
5 -0.56
6 -0.57
65 0.4
66 0.06
69 0.15
7 -0.68
75 0.4
79 0.4
8 -0.68
80 0.4
9 -0.68

> <PUBCHEM_EFFECTIVE_ROTOR_COUNT>
7.8

> <PUBCHEM_PHARMACOPHORE_FEATURES>
18
1 1 acceptor
1 1 donor
1 2 acceptor
1 3 acceptor
1 5 acceptor
1 6 acceptor
1 7 acceptor
1 7 donor
1 8 acceptor
1 8 donor
1 9 acceptor
1 9 donor
5 10 12 15 19 21 rings
5 4 28 30 31 33 rings
6 10 11 12 13 16 18 rings
6 11 13 14 17 20 22 rings
6 14 17 23 25 26 27 rings
6 5 32 34 35 36 37 rings

> <PUBCHEM_HEAVY_ATOM_COUNT>
38

> <PUBCHEM_ATOM_DEF_STEREO_COUNT>
13

> <PUBCHEM_ATOM_UDEF_STEREO_COUNT>
0

> <PUBCHEM_BOND_DEF_STEREO_COUNT>
0

> <PUBCHEM_BOND_UDEF_STEREO_COUNT>
0

> <PUBCHEM_ISOTOPIC_ATOM_COUNT>
0

> <PUBCHEM_COMPONENT_COUNT>
1

> <PUBCHEM_CACTVS_TAUTO_COUNT>
1

> <PUBCHEM_CONFORMER_ID>
017AFB3D00000001

> <PUBCHEM_MMFF94_ENERGY>
122.7666

> <PUBCHEM_FEATURE_SELFOVERLAP>
91.59

> <PUBCHEM_SHAPE_FINGERPRINT>
10 15 18342740714882553283
10100884 174 17486764187669717707
10162869 55 16343702097441911755
10299344 5 16774077375660985331
11315181 36 18411138061642032953
11828532 37 8502357971668399212
12013929 94 18271519789449280771
12133447 93 18337379565084745524
12522641 33 17530684338200532647
12838862 33 18337405889181570416
13782708 43 17560802130754629539
13811026 1 18412542111197369841
13914758 101 5256408297006175986
14251764 18 18410576179890321425
14294032 229 16443343217464415609
14856354 85 15985098618569894587
15131766 46 17200216051111741196
15183329 4 16226052206170944571
15301273 46 18411699902607467098
15461852 350 17458351819132150877
15840311 113 17989202630603996884
15849732 13 18334295370322375268
18608769 82 18412261718362780122
19841028 212 17346043384945095690
20105231 36 18260260863706619222
21267235 1 18410570704397778282
21781055 127 16226868000385156944
21792938 703 16443353027570484679
22224240 67 17704353273338676154
23576562 1 17241906292988021405
24771293 8 18408601496073550269
24893992 56 7420938781963138909
249057 3 16225771796335534652
335352 9 18408325471024852844
3633792 109 16009024025264197390
4017518 198 16370723713045057206
4073 2 18343580733145312386
4093350 32 16443338819133275958
5283156 175 8718831994277420184
6009941 240 17775562040305051281
6081469 158 8358266934557619946
6086070 43 16805892783819027675
6126387 218 15195574502840755071
6691757 9 16660357044427734895

> <PUBCHEM_SHAPE_MULTIPOLES>
729.2
28.48
2.07
1.49
15.55
0.29
-0.01
5.02
-2.05
0.45
-0.03
0.57
-0.47
1.17

> <PUBCHEM_SHAPE_SELFOVERLAP>
1574.849

> <PUBCHEM_SHAPE_VOLUME>
396

> <PUBCHEM_COORDINATE_TYPE>
2
5
10

$$$$

