5280990
  -OEChem-07051212523D

 25 26  0     0  0  0  0  0  0999 V2000
   -4.7239    0.0282   -0.3881 O   0  0  0  0  0  0  0  0  0  0  0  0
   -3.5885    1.7618    0.5377 O   0  0  0  0  0  0  0  0  0  0  0  0
    1.6047   -1.9653    0.2649 N   0  0  0  0  0  0  0  0  0  0  0  0
   -2.6191   -1.4665   -0.7009 N   0  0  0  0  0  0  0  0  0  0  0  0
    1.3304    0.2394    0.0627 C   0  0  0  0  0  0  0  0  0  0  0  0
    2.2831   -0.7816    0.0808 C   0  0  0  0  0  0  0  0  0  0  0  0
    0.0585   -0.3730    0.2421 C   0  0  0  0  0  0  0  0  0  0  0  0
    0.2599   -1.7286    0.3634 C   0  0  0  0  0  0  0  0  0  0  0  0
    1.7639    1.5684   -0.1139 C   0  0  0  0  0  0  0  0  0  0  0  0
    3.6531   -0.5390   -0.0693 C   0  0  0  0  0  0  0  0  0  0  0  0
   -1.2067    0.2525    0.2928 C   0  0  0  0  0  0  0  0  0  0  0  0
    3.1313    1.8261   -0.2655 C   0  0  0  0  0  0  0  0  0  0  0  0
    4.0596    0.7871   -0.2432 C   0  0  0  0  0  0  0  0  0  0  0  0
   -2.4080   -0.2480   -0.1212 C   0  0  0  0  0  0  0  0  0  0  0  0
   -3.5985    0.6385    0.0576 C   0  0  0  0  0  0  0  0  0  0  0  0
    2.0385   -2.8762    0.3259 H   0  0  0  0  0  0  0  0  0  0  0  0
   -0.4108   -2.5581    0.5395 H   0  0  0  0  0  0  0  0  0  0  0  0
    1.0547    2.3911   -0.1345 H   0  0  0  0  0  0  0  0  0  0  0  0
    4.3766   -1.3472   -0.0521 H   0  0  0  0  0  0  0  0  0  0  0  0
   -1.1929    1.2660    0.6914 H   0  0  0  0  0  0  0  0  0  0  0  0
    3.4715    2.8491   -0.4023 H   0  0  0  0  0  0  0  0  0  0  0  0
    5.1168    1.0099   -0.3628 H   0  0  0  0  0  0  0  0  0  0  0  0
   -1.8468   -2.0575   -0.9738 H   0  0  0  0  0  0  0  0  0  0  0  0
   -3.5565   -1.7210   -0.9876 H   0  0  0  0  0  0  0  0  0  0  0  0
   -5.5167    0.5954   -0.2782 H   0  0  0  0  0  0  0  0  0  0  0  0
  1 15  1  0  0  0  0
  1 25  1  0  0  0  0
  2 15  2  0  0  0  0
  3  6  1  0  0  0  0
  3  8  1  0  0  0  0
  3 16  1  0  0  0  0
  4 14  1  0  0  0  0
  4 23  1  0  0  0  0
  4 24  1  0  0  0  0
  5  6  1  0  0  0  0
  5  7  1  0  0  0  0
  5  9  2  0  0  0  0
  6 10  2  0  0  0  0
  7  8  2  0  0  0  0
  7 11  1  0  0  0  0
  8 17  1  0  0  0  0
  9 12  1  0  0  0  0
  9 18  1  0  0  0  0
 10 13  1  0  0  0  0
 10 19  1  0  0  0  0
 11 14  2  0  0  0  0
 11 20  1  0  0  0  0
 12 13  2  0  0  0  0
 12 21  1  0  0  0  0
 13 22  1  0  0  0  0
 14 15  1  0  0  0  0
M  END
> <PUBCHEM_COMPOUND_CID>
5280990

> <PUBCHEM_CONFORMER_RMSD>
0.6

> <PUBCHEM_CONFORMER_DIVERSEORDER>
1
5
4
3
2

> <PUBCHEM_MMFF94_PARTIAL_CHARGES>
24
1 -0.65
10 -0.15
11 -0.1
12 -0.15
13 -0.15
14 0.11
15 0.71
16 0.27
17 0.15
18 0.15
19 0.15
2 -0.57
20 0.15
21 0.15
22 0.15
23 0.4
24 0.4
25 0.5
3 0.03
4 -0.9
6 -0.15
7 -0.05
8 -0.3
9 -0.15

> <PUBCHEM_EFFECTIVE_ROTOR_COUNT>
2

> <PUBCHEM_PHARMACOPHORE_FEATURES>
9
1 1 acceptor
1 2 acceptor
1 3 cation
1 3 donor
1 4 cation
1 4 donor
3 1 2 15 anion
5 3 5 6 7 8 rings
6 5 6 9 10 12 13 rings

> <PUBCHEM_HEAVY_ATOM_COUNT>
15

> <PUBCHEM_ATOM_DEF_STEREO_COUNT>
0

> <PUBCHEM_ATOM_UDEF_STEREO_COUNT>
0

> <PUBCHEM_BOND_DEF_STEREO_COUNT>
1

> <PUBCHEM_BOND_UDEF_STEREO_COUNT>
0

> <PUBCHEM_ISOTOPIC_ATOM_COUNT>
0

> <PUBCHEM_COMPONENT_COUNT>
1

> <PUBCHEM_CACTVS_TAUTO_COUNT>
4

> <PUBCHEM_CONFORMER_ID>
005094DE00000001

> <PUBCHEM_MMFF94_ENERGY>
35.7931

> <PUBCHEM_FEATURE_SELFOVERLAP>
45.819

> <PUBCHEM_SHAPE_FINGERPRINT>
10465860 228 18338510958085531896
10608611 8 18340204072948612432
10980938 120 18340486763274343856
11401426 45 18335143081435095416
11471102 20 18413390951427696092
12346645 44 18411700980396319057
13380535 76 18341892974285349418
13922767 16 18411420605332273376
14251717 144 18411983576370017518
14325111 11 18411699842298537888
14415576 193 18411415120263339028
14897335 6 18410575071794124771
14911166 2 18411689994555791358
15442244 35 18049440636601765472
15536298 74 18334575750382995004
15775835 57 18410290298277210685
16945 1 18340759386898535418
17834072 32 18121215652558741529
17834072 33 18408610236611150479
18186145 218 18413392033743552654
20606313 2 18412544314705555132
20645477 70 18336546109253141334
21267235 1 18409158926735221463
21524375 3 18342459209888557138
22485316 2 8574716784252006649
22854114 111 18343018912709416161
231179 274 17703801326685070717
23402539 116 18261398819422676444
23402655 69 18407758127504536372
23559900 14 18114179697585151872
25 1 18342738520396883898
2748010 2 18124300615829067778
3060560 45 18408885161530886166
4028521 119 18201729474418885549
4047638 21 18201718448984245560
474 4 18130504141383425828
4990 188 18113327622690310638
5104073 3 18412544297108871042
633830 44 18412542098439101302
7364860 26 18336827610310800910
77779 3 18409728461073714287
84936 182 18188493475918321424

> <PUBCHEM_SHAPE_MULTIPOLES>
286.99
7.9
1.87
0.68
4.85
0.06
-0.01
-2.61
-0.81
-0.56
0.07
0.11
0.02
-0.53

> <PUBCHEM_SHAPE_SELFOVERLAP>
627.856

> <PUBCHEM_SHAPE_VOLUME>
156.2

> <PUBCHEM_COORDINATE_TYPE>
2
5
10

$$$$

