440192
  -OEChem-07051212493D

 29 29  0     1  0  0  0  0  0999 V2000
    0.1958   -0.1116    0.0124 O   0  0  0  0  0  0  0  0  0  0  0  0
    1.8286   -1.7157   -0.2398 O   0  0  0  0  0  0  0  0  0  0  0  0
    4.3551   -0.7120   -0.5014 O   0  0  0  0  0  0  0  0  0  0  0  0
    2.4405    0.6088    0.1577 C   0  0  1  0  0  0  0  0  0  0  0  0
    2.2652    1.6731   -0.9210 C   0  0  0  0  0  0  0  0  0  0  0  0
    1.4866   -0.5539   -0.0616 C   0  0  0  0  0  0  0  0  0  0  0  0
    3.9092    0.2021    0.1920 C   0  0  0  0  0  0  0  0  0  0  0  0
   -0.8123   -1.1169   -0.1347 C   0  0  0  0  0  0  0  0  0  0  0  0
   -2.1640   -0.4742   -0.0299 C   0  0  0  0  0  0  0  0  0  0  0  0
    4.8141    1.0029    1.0934 C   0  0  0  0  0  0  0  0  0  0  0  0
   -2.7776   -0.3600    1.2126 C   0  0  0  0  0  0  0  0  0  0  0  0
   -2.7908    0.0021   -1.1762 C   0  0  0  0  0  0  0  0  0  0  0  0
   -4.0341    0.2377    1.3102 C   0  0  0  0  0  0  0  0  0  0  0  0
   -4.0473    0.5999   -1.0784 C   0  0  0  0  0  0  0  0  0  0  0  0
   -4.6690    0.7177    0.1648 C   0  0  0  0  0  0  0  0  0  0  0  0
    2.1986    1.0241    1.1442 H   0  0  0  0  0  0  0  0  0  0  0  0
    2.4479    1.2554   -1.9178 H   0  0  0  0  0  0  0  0  0  0  0  0
    2.9604    2.5069   -0.7778 H   0  0  0  0  0  0  0  0  0  0  0  0
    1.2491    2.0815   -0.9162 H   0  0  0  0  0  0  0  0  0  0  0  0
   -0.6928   -1.8782    0.6464 H   0  0  0  0  0  0  0  0  0  0  0  0
   -0.7023   -1.6118   -1.1078 H   0  0  0  0  0  0  0  0  0  0  0  0
    4.8340    2.0458    0.7693 H   0  0  0  0  0  0  0  0  0  0  0  0
    5.8296    0.5993    1.0466 H   0  0  0  0  0  0  0  0  0  0  0  0
    4.4586    0.9342    2.1245 H   0  0  0  0  0  0  0  0  0  0  0  0
   -2.2911   -0.7284    2.1116 H   0  0  0  0  0  0  0  0  0  0  0  0
   -2.3147   -0.0823   -2.1492 H   0  0  0  0  0  0  0  0  0  0  0  0
   -4.5179    0.3301    2.2782 H   0  0  0  0  0  0  0  0  0  0  0  0
   -4.5415    0.9744   -1.9701 H   0  0  0  0  0  0  0  0  0  0  0  0
   -5.6472    1.1834    0.2409 H   0  0  0  0  0  0  0  0  0  0  0  0
  1  6  1  0  0  0  0
  1  8  1  0  0  0  0
  2  6  2  0  0  0  0
  3  7  2  0  0  0  0
  4  5  1  0  0  0  0
  4  6  1  0  0  0  0
  4  7  1  0  0  0  0
  4 16  1  0  0  0  0
  5 17  1  0  0  0  0
  5 18  1  0  0  0  0
  5 19  1  0  0  0  0
  7 10  1  0  0  0  0
  8  9  1  0  0  0  0
  8 20  1  0  0  0  0
  8 21  1  0  0  0  0
  9 11  2  0  0  0  0
  9 12  1  0  0  0  0
 10 22  1  0  0  0  0
 10 23  1  0  0  0  0
 10 24  1  0  0  0  0
 11 13  1  0  0  0  0
 11 25  1  0  0  0  0
 12 14  2  0  0  0  0
 12 26  1  0  0  0  0
 13 15  2  0  0  0  0
 13 27  1  0  0  0  0
 14 15  1  0  0  0  0
 14 28  1  0  0  0  0
 15 29  1  0  0  0  0
M  END
> <PUBCHEM_COMPOUND_CID>
440192

> <PUBCHEM_CONFORMER_RMSD>
0.6

> <PUBCHEM_CONFORMER_DIVERSEORDER>
1
277
50
149
278
91
31
37
200
72
13
253
86
8
240
33
147
45
25
152
14
242
211
228
137
87
237
191
205
241
2
148
255
103
175
230
227
165
213
18
174
209
223
34
226
179
105
23
155
178
221
254
10
24
15
218
157
132
30
142
160
80
233
190
204
27
144
29
111
139
117
145
122
203
154
271
48
125
98
9
274
134
74
133
70
83
128
268
180
63
197
19
81
78
173
171
210
265
141
198
4
215
95
273
119
38
120
187
192
32
189
6
44
256
90
129
193
104
275
89
118
62
156
102
49
43
261
59
60
225
11
66
55
269
54
140
52
168
224
5
73
47
76
259
114
56
112
12
279
177
169
35
53
121
7
264
99
163
17
64
108
270
110
267
162
199
85
69
194
158
97
127
16
181
166
172
67
252
262
244
71
130
106
272
58
280
235
123
39
150
75
94
229
41
202
216
68
88
281
266
220
219
40
188
77
207
135
36
195
92
186
109
42
263
151
124
176
212
84
20
201
283
258
26
101
239
146
246
167
61
284
214
46
82
248
28
234
65
184
153
164
159
250
126
57
238
183
21
143
245
107
96
22
260
138
3
93
243
282
217
206
185
131
208
79
232
161
51
247
249
115
113
196
136
170
257
276
100
236
222
116
231
251
182

> <PUBCHEM_MMFF94_PARTIAL_CHARGES>
19
1 -0.43
10 0.06
11 -0.15
12 -0.15
13 -0.15
14 -0.15
15 -0.15
2 -0.57
25 0.15
26 0.15
27 0.15
28 0.15
29 0.15
3 -0.57
4 0.12
6 0.66
7 0.45
8 0.42
9 -0.14

> <PUBCHEM_EFFECTIVE_ROTOR_COUNT>
5

> <PUBCHEM_PHARMACOPHORE_FEATURES>
5
1 2 acceptor
1 3 acceptor
1 4 anion
1 5 hydrophobe
6 9 11 12 13 14 15 rings

> <PUBCHEM_HEAVY_ATOM_COUNT>
15

> <PUBCHEM_ATOM_DEF_STEREO_COUNT>
0

> <PUBCHEM_ATOM_UDEF_STEREO_COUNT>
1

> <PUBCHEM_BOND_DEF_STEREO_COUNT>
0

> <PUBCHEM_BOND_UDEF_STEREO_COUNT>
0

> <PUBCHEM_ISOTOPIC_ATOM_COUNT>
0

> <PUBCHEM_COMPONENT_COUNT>
1

> <PUBCHEM_CACTVS_TAUTO_COUNT>
5

> <PUBCHEM_CONFORMER_ID>
0006B78000000001

> <PUBCHEM_MMFF94_ENERGY>
27.8909

> <PUBCHEM_FEATURE_SELFOVERLAP>
25.377

> <PUBCHEM_SHAPE_FINGERPRINT>
10014705 185 18261118439266883217
10366900 7 16845570890158387641
11543360 7 14996285782037374530
12236239 1 17603305968802490277
12251169 10 15841549674180765695
124424 183 17417822728866874428
12507557 5 18272089361941481257
12616999 72 5761658083689162636
12670546 177 14923947825266460529
13675066 3 18342737390772915008
15653759 3 16988844960276130325
17834072 33 16443353052406695080
18186145 218 18409442600677230438
20279233 1 17846495950460204971
20300324 65 16226051080926345329
20325693 3 14634867540175861737
20645464 45 17775845718589629563
20645476 183 16950290598381330439
20645477 70 18338802345768277142
20871999 31 14634589367907611017
22169311 14 16845574192798470369
22485316 2 8502376615973666629
231179 274 18343587356057975334
23402539 116 16081089294498230520
23402655 69 17022902358705629336
23559900 14 17059493087802992018
3268164 11 15574719135932790185
3472631 163 16588015845093259601
351380 180 17989211443059203669
3545911 37 18408318891314400523
42 15 15410899569319627360
474 4 18114750321927765072
4921388 177 16008747970878800743
53428517 29 16487259867471206509
542803 24 17168143442398550777
9971528 1 18260547831903945844

> <PUBCHEM_SHAPE_MULTIPOLES>
291.09
10.7
1.27
1.17
2.27
0.09
0.2
2.56
2.03
0.65
-0.24
-0.6
0.11
0.6

> <PUBCHEM_SHAPE_SELFOVERLAP>
593.135

> <PUBCHEM_SHAPE_VOLUME>
168.6

> <PUBCHEM_COORDINATE_TYPE>
2
5
10

$$$$

