443346
  -OEChem-07051213023D

 70 72  0     1  0  0  0  0  0999 V2000
   -0.8841   -0.0504    0.7316 O   0  0  0  0  0  0  0  0  0  0  0  0
   -1.8867   -1.2326   -1.0477 O   0  0  0  0  0  0  0  0  0  0  0  0
    1.1160   -1.1720    0.3012 O   0  0  0  0  0  0  0  0  0  0  0  0
    0.3606    2.3925    0.0308 O   0  0  0  0  0  0  0  0  0  0  0  0
    3.2682    2.3202    0.5014 O   0  0  0  0  0  0  0  0  0  0  0  0
    4.4352   -0.0191   -0.7321 O   0  0  0  0  0  0  0  0  0  0  0  0
    2.1486   -3.5747   -0.5455 O   0  0  0  0  0  0  0  0  0  0  0  0
   -5.1444    2.0246   -0.4786 O   0  0  0  0  0  0  0  0  0  0  0  0
   -5.1060    0.9664   -2.5373 O   0  0  0  0  0  0  0  0  0  0  0  0
   -0.8422    2.3660    2.0029 O   0  0  0  0  0  0  0  0  0  0  0  0
    2.5506    3.8661   -1.0581 O   0  0  0  0  0  0  0  0  0  0  0  0
    5.5889    0.9055    1.0430 O   0  0  0  0  0  0  0  0  0  0  0  0
    3.6698   -5.1741    0.1367 O   0  0  0  0  0  0  0  0  0  0  0  0
   -2.9403   -1.2037    1.2023 C   0  0  2  0  0  0  0  0  0  0  0  0
   -3.9126   -0.0834    0.7637 C   0  0  2  0  0  0  0  0  0  0  0  0
   -5.2737   -0.6238    1.2241 C   0  0  0  0  0  0  0  0  0  0  0  0
   -1.6514   -1.2012    0.3672 C   0  0  2  0  0  0  0  0  0  0  0  0
   -3.7823   -2.4625    1.1154 C   0  0  0  0  0  0  0  0  0  0  0  0
   -5.2299   -2.1149    0.9112 C   0  0  0  0  0  0  0  0  0  0  0  0
   -3.8166    0.1681   -0.7148 C   0  0  0  0  0  0  0  0  0  0  0  0
    0.3504   -0.0034    0.0168 C   0  0  2  0  0  0  0  0  0  0  0  0
    1.1032    1.2513    0.4593 C   0  0  1  0  0  0  0  0  0  0  0  0
    2.5055    1.3014   -0.1472 C   0  0  2  0  0  0  0  0  0  0  0  0
    3.2370   -0.0280    0.0395 C   0  0  1  0  0  0  0  0  0  0  0  0
    2.3575   -1.1990   -0.4053 C   0  0  1  0  0  0  0  0  0  0  0  0
   -2.8863   -0.4049   -1.4868 C   0  0  0  0  0  0  0  0  0  0  0  0
   -3.3353   -3.7188    1.2290 C   0  0  0  0  0  0  0  0  0  0  0  0
    3.0200   -2.5431   -0.1198 C   0  0  0  0  0  0  0  0  0  0  0  0
   -4.7562    1.0786   -1.3718 C   0  0  0  0  0  0  0  0  0  0  0  0
   -0.5837    2.8445    0.9068 C   0  0  0  0  0  0  0  0  0  0  0  0
    3.1966    3.5595   -0.0653 C   0  0  0  0  0  0  0  0  0  0  0  0
    5.5410    0.4773   -0.1022 C   0  0  0  0  0  0  0  0  0  0  0  0
   -1.2789    4.0392    0.3276 C   0  0  0  0  0  0  0  0  0  0  0  0
    4.0404    4.5201    0.7166 C   0  0  0  0  0  0  0  0  0  0  0  0
   -6.0713    2.9956   -0.9754 C   0  0  0  0  0  0  0  0  0  0  0  0
    2.5973   -4.8557   -0.3587 C   0  0  0  0  0  0  0  0  0  0  0  0
    6.7182    0.4244   -1.0282 C   0  0  0  0  0  0  0  0  0  0  0  0
    1.5769   -5.8361   -0.8524 C   0  0  0  0  0  0  0  0  0  0  0  0
   -2.6922   -1.0388    2.2605 H   0  0  0  0  0  0  0  0  0  0  0  0
   -3.6711    0.8456    1.2956 H   0  0  0  0  0  0  0  0  0  0  0  0
   -5.3776   -0.4769    2.3074 H   0  0  0  0  0  0  0  0  0  0  0  0
   -6.1319   -0.1402    0.7479 H   0  0  0  0  0  0  0  0  0  0  0  0
   -1.0705   -2.0959    0.6170 H   0  0  0  0  0  0  0  0  0  0  0  0
   -5.8986   -2.6778    1.5692 H   0  0  0  0  0  0  0  0  0  0  0  0
   -5.5156   -2.2950   -0.1311 H   0  0  0  0  0  0  0  0  0  0  0  0
    0.1427    0.0590   -1.0593 H   0  0  0  0  0  0  0  0  0  0  0  0
    1.2122    1.2615    1.5530 H   0  0  0  0  0  0  0  0  0  0  0  0
    2.4476    1.5123   -1.2243 H   0  0  0  0  0  0  0  0  0  0  0  0
    3.4665   -0.1603    1.1068 H   0  0  0  0  0  0  0  0  0  0  0  0
    2.1487   -1.1457   -1.4824 H   0  0  0  0  0  0  0  0  0  0  0  0
   -2.8149   -0.2879   -2.5600 H   0  0  0  0  0  0  0  0  0  0  0  0
   -4.0168   -4.5603    1.1630 H   0  0  0  0  0  0  0  0  0  0  0  0
   -2.2866   -3.9359    1.3973 H   0  0  0  0  0  0  0  0  0  0  0  0
    3.9742   -2.6243   -0.6525 H   0  0  0  0  0  0  0  0  0  0  0  0
    3.1939   -2.6536    0.9576 H   0  0  0  0  0  0  0  0  0  0  0  0
   -0.5531    4.8330    0.1341 H   0  0  0  0  0  0  0  0  0  0  0  0
   -2.0187    4.4103    1.0426 H   0  0  0  0  0  0  0  0  0  0  0  0
   -1.7955    3.7554   -0.5928 H   0  0  0  0  0  0  0  0  0  0  0  0
    3.6682    4.5900    1.7418 H   0  0  0  0  0  0  0  0  0  0  0  0
    3.9832    5.5107    0.2565 H   0  0  0  0  0  0  0  0  0  0  0  0
    5.0824    4.1909    0.7063 H   0  0  0  0  0  0  0  0  0  0  0  0
   -5.6264    3.5538   -1.8047 H   0  0  0  0  0  0  0  0  0  0  0  0
   -6.9981    2.5070   -1.2909 H   0  0  0  0  0  0  0  0  0  0  0  0
   -6.2998    3.6929   -0.1650 H   0  0  0  0  0  0  0  0  0  0  0  0
    6.5229    1.0394   -1.9102 H   0  0  0  0  0  0  0  0  0  0  0  0
    7.6005    0.8191   -0.5162 H   0  0  0  0  0  0  0  0  0  0  0  0
    6.9166   -0.6111   -1.3162 H   0  0  0  0  0  0  0  0  0  0  0  0
    0.6431   -5.7083   -0.2990 H   0  0  0  0  0  0  0  0  0  0  0  0
    1.9424   -6.8539   -0.6891 H   0  0  0  0  0  0  0  0  0  0  0  0
    1.4129   -5.6917   -1.9231 H   0  0  0  0  0  0  0  0  0  0  0  0
  1 17  1  0  0  0  0
  1 21  1  0  0  0  0
  2 17  1  0  0  0  0
  2 26  1  0  0  0  0
  3 21  1  0  0  0  0
  3 25  1  0  0  0  0
  4 22  1  0  0  0  0
  4 30  1  0  0  0  0
  5 23  1  0  0  0  0
  5 31  1  0  0  0  0
  6 24  1  0  0  0  0
  6 32  1  0  0  0  0
  7 28  1  0  0  0  0
  7 36  1  0  0  0  0
  8 29  1  0  0  0  0
  8 35  1  0  0  0  0
  9 29  2  0  0  0  0
 10 30  2  0  0  0  0
 11 31  2  0  0  0  0
 12 32  2  0  0  0  0
 13 36  2  0  0  0  0
 14 15  1  0  0  0  0
 14 17  1  0  0  0  0
 14 18  1  0  0  0  0
 14 39  1  0  0  0  0
 15 16  1  0  0  0  0
 15 20  1  0  0  0  0
 15 40  1  0  0  0  0
 16 19  1  0  0  0  0
 16 41  1  0  0  0  0
 16 42  1  0  0  0  0
 17 43  1  0  0  0  0
 18 19  1  0  0  0  0
 18 27  2  0  0  0  0
 19 44  1  0  0  0  0
 19 45  1  0  0  0  0
 20 26  2  0  0  0  0
 20 29  1  0  0  0  0
 21 22  1  0  0  0  0
 21 46  1  0  0  0  0
 22 23  1  0  0  0  0
 22 47  1  0  0  0  0
 23 24  1  0  0  0  0
 23 48  1  0  0  0  0
 24 25  1  0  0  0  0
 24 49  1  0  0  0  0
 25 28  1  0  0  0  0
 25 50  1  0  0  0  0
 26 51  1  0  0  0  0
 27 52  1  0  0  0  0
 27 53  1  0  0  0  0
 28 54  1  0  0  0  0
 28 55  1  0  0  0  0
 30 33  1  0  0  0  0
 31 34  1  0  0  0  0
 32 37  1  0  0  0  0
 33 56  1  0  0  0  0
 33 57  1  0  0  0  0
 33 58  1  0  0  0  0
 34 59  1  0  0  0  0
 34 60  1  0  0  0  0
 34 61  1  0  0  0  0
 35 62  1  0  0  0  0
 35 63  1  0  0  0  0
 35 64  1  0  0  0  0
 36 38  1  0  0  0  0
 37 65  1  0  0  0  0
 37 66  1  0  0  0  0
 37 67  1  0  0  0  0
 38 68  1  0  0  0  0
 38 69  1  0  0  0  0
 38 70  1  0  0  0  0
M  END
> <PUBCHEM_COMPOUND_CID>
443346

> <PUBCHEM_CONFORMER_RMSD>
1.2

> <PUBCHEM_CONFORMER_DIVERSEORDER>
1
27
16
23
11
17
35
36
33
13
26
30
18
4
34
28
10
8
12
3
15
29
25
24
19
14
32
20
2
31
21
9
5
22
6
7

> <PUBCHEM_MMFF94_PARTIAL_CHARGES>
40
1 -0.56
10 -0.57
11 -0.57
12 -0.57
13 -0.57
14 0.14
15 0.14
17 0.56
18 -0.28
19 0.14
2 -0.36
20 -0.12
21 0.56
22 0.28
23 0.28
24 0.28
25 0.28
26 -0.07
27 -0.3
28 0.28
29 0.71
3 -0.56
30 0.66
31 0.66
32 0.66
33 0.06
34 0.06
35 0.28
36 0.66
37 0.06
38 0.06
4 -0.43
5 -0.43
51 0.15
52 0.15
53 0.15
6 -0.43
7 -0.43
8 -0.43
9 -0.57

> <PUBCHEM_EFFECTIVE_ROTOR_COUNT>
15

> <PUBCHEM_PHARMACOPHORE_FEATURES>
11
1 1 acceptor
1 10 acceptor
1 11 acceptor
1 12 acceptor
1 13 acceptor
1 2 acceptor
1 3 acceptor
1 9 acceptor
5 14 15 16 18 19 rings
6 2 14 15 17 20 26 rings
6 3 21 22 23 24 25 rings

> <PUBCHEM_HEAVY_ATOM_COUNT>
38

> <PUBCHEM_ATOM_DEF_STEREO_COUNT>
8

> <PUBCHEM_ATOM_UDEF_STEREO_COUNT>
0

> <PUBCHEM_BOND_DEF_STEREO_COUNT>
0

> <PUBCHEM_BOND_UDEF_STEREO_COUNT>
0

> <PUBCHEM_ISOTOPIC_ATOM_COUNT>
0

> <PUBCHEM_COMPONENT_COUNT>
1

> <PUBCHEM_CACTVS_TAUTO_COUNT>
1

> <PUBCHEM_CONFORMER_ID>
0006C3D200000001

> <PUBCHEM_MMFF94_ENERGY>
82.4809

> <PUBCHEM_FEATURE_SELFOVERLAP>
56.149

> <PUBCHEM_SHAPE_FINGERPRINT>
10290309 65 18338794498899391746
10675989 125 17981892157298818843
1100329 8 18119524341797826338
11135926 11 18410005576716966606
12788726 201 17969506094197658473
13140716 1 18192708947959583754
13583140 156 18409448060045030599
13911987 19 18196637528574841486
140371 6 18340197578968513064
14790565 3 18193551173671138288
15351339 4 17265258047947164643
15815584 197 18334288747541080862
16112460 7 17973718370805151265
20028762 73 18187916228372088790
20775438 99 17835837400420007532
22311459 1 18338795732056860760
23559900 14 18411140263994774930
5265222 85 18126553536713425470
613672 6 18050573137916722250
7399639 24 18125715691367859035

> <PUBCHEM_SHAPE_MULTIPOLES>
705.72
13.41
7.05
1.39
0.57
6.02
-0.27
-3.53
-2.04
-5.8
-0.15
1.75
-0.28
2.92

> <PUBCHEM_SHAPE_SELFOVERLAP>
1474.674

> <PUBCHEM_SHAPE_VOLUME>
392.6

> <PUBCHEM_COORDINATE_TYPE>
2
5
10

$$$$

