11953827
  -OEChem-07051212493D

 56 58  0     1  0  0  0  0  0999 V2000
    4.5235    1.9106    0.2945 O   0  0  0  0  0  0  0  0  0  0  0  0
    3.2623    0.0690   -0.4269 N   0  0  0  0  0  0  0  0  0  0  0  0
   -0.3826   -0.0170   -0.3066 N   0  0  0  0  0  0  0  0  0  0  0  0
   -3.6839    2.6051    1.3935 N   0  0  0  0  0  0  0  0  0  0  0  0
    1.7368    1.7068    0.3281 N   0  0  0  0  0  0  0  0  0  0  0  0
   -1.1012   -3.3208   -0.0164 N   0  0  0  0  0  0  0  0  0  0  0  0
   -2.5497   -3.3058    1.8998 N   0  0  0  0  0  0  0  0  0  0  0  0
   -3.3665   -3.7851   -0.1733 N   0  0  0  0  0  0  0  0  0  0  0  0
    5.6722   -0.0157   -0.6018 C   0  0  1  0  0  0  0  0  0  0  0  0
    1.1389   -1.7175   -1.0890 C   0  0  0  0  0  0  0  0  0  0  0  0
    0.9040   -0.3642   -0.5074 C   0  0  0  0  0  0  0  0  0  0  0  0
    6.9111    0.3443    0.2337 C   0  0  0  0  0  0  0  0  0  0  0  0
   -1.9536    1.5881    0.4394 C   0  0  0  0  0  0  0  0  0  0  0  0
    1.9306    0.4870   -0.1932 C   0  0  0  0  0  0  0  0  0  0  0  0
   -3.1361    1.2118   -0.2605 C   0  0  0  0  0  0  0  0  0  0  0  0
    1.2878   -2.7978   -0.0041 C   0  0  0  0  0  0  0  0  0  0  0  0
   -0.5910    1.2073    0.2170 C   0  0  0  0  0  0  0  0  0  0  0  0
    4.4323    0.7811   -0.1775 C   0  0  0  0  0  0  0  0  0  0  0  0
   -4.2055    1.8630    0.3579 C   0  0  0  0  0  0  0  0  0  0  0  0
    5.9410    0.2521   -2.0843 C   0  0  0  0  0  0  0  0  0  0  0  0
   -2.3253    2.4459    1.4509 C   0  0  0  0  0  0  0  0  0  0  0  0
    0.0310   -2.9682    0.8418 C   0  0  0  0  0  0  0  0  0  0  0  0
    0.4500    2.0540    0.5287 C   0  0  0  0  0  0  0  0  0  0  0  0
    6.7346    0.0149    1.7107 C   0  0  0  0  0  0  0  0  0  0  0  0
   -3.3978    0.3762   -1.3645 C   0  0  0  0  0  0  0  0  0  0  0  0
   -5.5289    1.7201   -0.0744 C   0  0  0  0  0  0  0  0  0  0  0  0
   -4.7165    0.2237   -1.8079 C   0  0  0  0  0  0  0  0  0  0  0  0
   -5.7642    0.8862   -1.1713 C   0  0  0  0  0  0  0  0  0  0  0  0
   -2.2534   -3.4549    0.5632 C   0  0  0  0  0  0  0  0  0  0  0  0
    5.4723   -1.0872   -0.4716 H   0  0  0  0  0  0  0  0  0  0  0  0
    0.2865   -1.9675   -1.7350 H   0  0  0  0  0  0  0  0  0  0  0  0
    1.9920   -1.7395   -1.7746 H   0  0  0  0  0  0  0  0  0  0  0  0
    7.1448    1.4113    0.1337 H   0  0  0  0  0  0  0  0  0  0  0  0
    7.7792   -0.2086   -0.1453 H   0  0  0  0  0  0  0  0  0  0  0  0
    1.5183   -3.7496   -0.4987 H   0  0  0  0  0  0  0  0  0  0  0  0
    2.1355   -2.5640    0.6510 H   0  0  0  0  0  0  0  0  0  0  0  0
    3.3883   -0.8639   -0.8032 H   0  0  0  0  0  0  0  0  0  0  0  0
    5.0774   -0.0292   -2.6967 H   0  0  0  0  0  0  0  0  0  0  0  0
    6.1401    1.3142   -2.2655 H   0  0  0  0  0  0  0  0  0  0  0  0
    6.8039   -0.3232   -2.4354 H   0  0  0  0  0  0  0  0  0  0  0  0
   -1.7594    2.9579    2.2177 H   0  0  0  0  0  0  0  0  0  0  0  0
   -4.2264    3.1821    2.0213 H   0  0  0  0  0  0  0  0  0  0  0  0
   -0.1699   -2.0562    1.4148 H   0  0  0  0  0  0  0  0  0  0  0  0
    0.2142   -3.7767    1.5607 H   0  0  0  0  0  0  0  0  0  0  0  0
    0.3130    3.0481    0.9386 H   0  0  0  0  0  0  0  0  0  0  0  0
    5.9358    0.6056    2.1681 H   0  0  0  0  0  0  0  0  0  0  0  0
    7.6598    0.2300    2.2551 H   0  0  0  0  0  0  0  0  0  0  0  0
    6.5009   -1.0456    1.8493 H   0  0  0  0  0  0  0  0  0  0  0  0
   -2.5982   -0.1484   -1.8794 H   0  0  0  0  0  0  0  0  0  0  0  0
   -6.3451    2.2353    0.4207 H   0  0  0  0  0  0  0  0  0  0  0  0
   -4.9242   -0.4193   -2.6591 H   0  0  0  0  0  0  0  0  0  0  0  0
   -6.7809    0.7532   -1.5324 H   0  0  0  0  0  0  0  0  0  0  0  0
   -1.8443   -3.0673    2.5876 H   0  0  0  0  0  0  0  0  0  0  0  0
   -3.4958   -3.4340    2.2424 H   0  0  0  0  0  0  0  0  0  0  0  0
   -4.2770   -3.8918    0.2602 H   0  0  0  0  0  0  0  0  0  0  0  0
   -3.3079   -3.9265   -1.1759 H   0  0  0  0  0  0  0  0  0  0  0  0
  1 18  2  0  0  0  0
  2 14  1  0  0  0  0
  2 18  1  0  0  0  0
  2 37  1  0  0  0  0
  3 11  2  0  0  0  0
  3 17  1  0  0  0  0
  4 19  1  0  0  0  0
  4 21  1  0  0  0  0
  4 42  1  0  0  0  0
  5 14  2  0  0  0  0
  5 23  1  0  0  0  0
  6 22  1  0  0  0  0
  6 29  2  0  0  0  0
  7 29  1  0  0  0  0
  7 53  1  0  0  0  0
  7 54  1  0  0  0  0
  8 29  1  0  0  0  0
  8 55  1  0  0  0  0
  8 56  1  0  0  0  0
  9 12  1  0  0  0  0
  9 18  1  0  0  0  0
  9 20  1  0  0  0  0
  9 30  1  0  0  0  0
 10 11  1  0  0  0  0
 10 16  1  0  0  0  0
 10 31  1  0  0  0  0
 10 32  1  0  0  0  0
 11 14  1  0  0  0  0
 12 24  1  0  0  0  0
 12 33  1  0  0  0  0
 12 34  1  0  0  0  0
 13 15  1  0  0  0  0
 13 17  1  0  0  0  0
 13 21  2  0  0  0  0
 15 19  1  0  0  0  0
 15 25  2  0  0  0  0
 16 22  1  0  0  0  0
 16 35  1  0  0  0  0
 16 36  1  0  0  0  0
 17 23  2  0  0  0  0
 19 26  2  0  0  0  0
 20 38  1  0  0  0  0
 20 39  1  0  0  0  0
 20 40  1  0  0  0  0
 21 41  1  0  0  0  0
 22 43  1  0  0  0  0
 22 44  1  0  0  0  0
 23 45  1  0  0  0  0
 24 46  1  0  0  0  0
 24 47  1  0  0  0  0
 24 48  1  0  0  0  0
 25 27  1  0  0  0  0
 25 49  1  0  0  0  0
 26 28  1  0  0  0  0
 26 50  1  0  0  0  0
 27 28  2  0  0  0  0
 27 51  1  0  0  0  0
 28 52  1  0  0  0  0
M  END
> <PUBCHEM_COMPOUND_CID>
11953827

> <PUBCHEM_CONFORMER_RMSD>
1

> <PUBCHEM_CONFORMER_DIVERSEORDER>
1
165
121
110
68
97
164
130
147
163
148
158
94
161
100
75
54
115
95
169
40
60
98
173
108
168
113
86
166
123
28
143
8
136
49
156
91
33
19
127
124
85
152
70
31
141
107
35
116
79
11
106
57
103
37
52
99
5
153
64
72
150
145
129
111
15
67
84
162
167
87
65
128
105
58
42
114
21
29
157
43
46
59
89
104
76
71
78
144
81
27
172
18
135
96
9
109
170
13
126
17
137
74
142
69
146
140
122
112
155
10
53
149
132
120
25
171
22
101
90
14
159
23
119
134
133
44
88
34
55
61
6
83
47
151
160
77
7
32
125
93
38
41
92
82
39
80
51
50
4
131
26
16
63
117
154
24
66
36
48
73
45
56
30
2
118
139
20
3
62
12
138
102

> <PUBCHEM_MMFF94_PARTIAL_CHARGES>
36
1 -0.57
10 0.14
11 0.17
13 -0.05
14 0.43
17 0.36
18 0.57
19 -0.15
2 -0.55
21 -0.3
22 0.25
23 0.16
25 -0.15
26 -0.15
27 -0.15
28 -0.15
29 0.55
3 -0.62
37 0.37
4 0.03
41 0.15
42 0.27
45 0.15
49 0.15
5 -0.62
50 0.15
51 0.15
52 0.15
53 0.4
54 0.4
55 0.4
56 0.4
6 -0.7
7 -0.85
8 -0.85
9 0.06

> <PUBCHEM_EFFECTIVE_ROTOR_COUNT>
9

> <PUBCHEM_PHARMACOPHORE_FEATURES>
13
1 1 acceptor
1 2 donor
1 20 hydrophobe
1 24 hydrophobe
1 3 acceptor
1 4 cation
1 4 donor
1 7 donor
1 8 donor
4 6 7 8 29 cation
5 4 13 15 19 21 rings
6 15 19 25 26 27 28 rings
6 3 5 11 14 17 23 rings

> <PUBCHEM_HEAVY_ATOM_COUNT>
29

> <PUBCHEM_ATOM_DEF_STEREO_COUNT>
1

> <PUBCHEM_ATOM_UDEF_STEREO_COUNT>
0

> <PUBCHEM_BOND_DEF_STEREO_COUNT>
0

> <PUBCHEM_BOND_UDEF_STEREO_COUNT>
0

> <PUBCHEM_ISOTOPIC_ATOM_COUNT>
0

> <PUBCHEM_COMPONENT_COUNT>
1

> <PUBCHEM_CACTVS_TAUTO_COUNT>
16

> <PUBCHEM_CONFORMER_ID>
00B666A300000001

> <PUBCHEM_MMFF94_ENERGY>
68.081

> <PUBCHEM_FEATURE_SELFOVERLAP>
66.114

> <PUBCHEM_SHAPE_FINGERPRINT>
10032420 55 18189352301858089177
10119406 146 18263914613918302214
10319688 67 18263103092684496450
10675989 125 17477207601413977581
11135609 187 18340210816743878605
11991303 11 17917703583107632846
12156800 1 18123500222698128587
12788726 201 17604431933313658513
13052359 8 18342172237369739810
13583140 156 17060331911990060776
13631057 29 18113909247499378837
14931854 50 18336563659433518743
15131766 46 16557320646327021548
15629462 23 16588849321929662192
17138139 8 18117021947764163007
18681886 176 16950580877809408365
21054139 6 18261401056578554365
21236236 1 18339924809806433574
21267235 1 17822011995922117253
21796203 349 16968257975188708963
22182313 1 17969476300352404862
23559900 14 18262245421532475608
23569917 315 18410008866673179590
23576562 1 17987222353832412996
3383291 50 18188215308092886695
34797466 226 15647058174904048684
4058900 60 18199749326981174813
4073 2 18335139761736845848
4409770 3 18339922598267827067
5171179 24 17681002790153790809
6669772 16 17775004656318626667

> <PUBCHEM_SHAPE_MULTIPOLES>
556.07
14.57
4.03
1.48
17.74
5.27
0.12
-6.93
2.25
-4.63
-1.79
0.09
0.03
0.08

> <PUBCHEM_SHAPE_SELFOVERLAP>
1185.361

> <PUBCHEM_SHAPE_VOLUME>
308.1

> <PUBCHEM_COORDINATE_TYPE>
2
5
10

$$$$

