7251183
  -OEChem-07051213083D

 33 33  0     1  0  0  0  0  0999 V2000
   -0.0634   -3.1515   -0.8498 O   0  0  0  0  0  0  0  0  0  0  0  0
   -2.3834    2.4367   -1.4473 O   0  0  0  0  0  0  0  0  0  0  0  0
   -2.6540    2.2811    0.8072 O   0  0  0  0  0  0  0  0  0  0  0  0
   -1.0667   -0.1397    0.7433 C   0  0  2  0  0  0  0  0  0  0  0  0
    0.0049   -1.2448    0.6550 C   0  0  1  0  0  0  0  0  0  0  0  0
   -2.3813   -0.9227    0.6308 C   0  0  0  0  0  0  0  0  0  0  0  0
   -2.1296   -1.9820   -0.4369 C   0  0  0  0  0  0  0  0  0  0  0  0
   -0.6524   -2.2394   -0.2833 C   0  0  0  0  0  0  0  0  0  0  0  0
   -0.9686    0.9410   -0.3354 C   0  0  0  0  0  0  0  0  0  0  0  0
    1.3797   -0.8087    0.1851 C   0  0  0  0  0  0  0  0  0  0  0  0
    2.0314    0.1164    1.1720 C   0  0  0  0  0  0  0  0  0  0  0  0
   -2.0838    1.9420   -0.2188 C   0  0  0  0  0  0  0  0  0  0  0  0
    2.9346    1.0495    0.8373 C   0  0  0  0  0  0  0  0  0  0  0  0
    3.4078    1.2868   -0.5663 C   0  0  0  0  0  0  0  0  0  0  0  0
    4.6246    0.4352   -0.8928 C   0  0  0  0  0  0  0  0  0  0  0  0
   -1.0165    0.3447    1.7270 H   0  0  0  0  0  0  0  0  0  0  0  0
    0.0750   -1.7507    1.6283 H   0  0  0  0  0  0  0  0  0  0  0  0
   -3.2600   -0.3166    0.3947 H   0  0  0  0  0  0  0  0  0  0  0  0
   -2.5852   -1.4195    1.5887 H   0  0  0  0  0  0  0  0  0  0  0  0
   -2.3243   -1.5963   -1.4414 H   0  0  0  0  0  0  0  0  0  0  0  0
   -2.7090   -2.8889   -0.2512 H   0  0  0  0  0  0  0  0  0  0  0  0
   -0.0361    1.5072   -0.2491 H   0  0  0  0  0  0  0  0  0  0  0  0
   -0.9971    0.4884   -1.3335 H   0  0  0  0  0  0  0  0  0  0  0  0
    1.3185   -0.4001   -0.8267 H   0  0  0  0  0  0  0  0  0  0  0  0
    2.0147   -1.7014    0.1067 H   0  0  0  0  0  0  0  0  0  0  0  0
    1.7885   -0.0062    2.2247 H   0  0  0  0  0  0  0  0  0  0  0  0
    3.3795    1.6536    1.6236 H   0  0  0  0  0  0  0  0  0  0  0  0
    2.6232    1.1283   -1.3112 H   0  0  0  0  0  0  0  0  0  0  0  0
    3.6796    2.3459   -0.6558 H   0  0  0  0  0  0  0  0  0  0  0  0
   -3.1098    3.0950   -1.4092 H   0  0  0  0  0  0  0  0  0  0  0  0
    4.3852   -0.6327   -0.8572 H   0  0  0  0  0  0  0  0  0  0  0  0
    4.9860    0.6653   -1.9003 H   0  0  0  0  0  0  0  0  0  0  0  0
    5.4431    0.6254   -0.1902 H   0  0  0  0  0  0  0  0  0  0  0  0
  1  8  2  0  0  0  0
  2 12  1  0  0  0  0
  2 30  1  0  0  0  0
  3 12  2  0  0  0  0
  4  5  1  0  0  0  0
  4  6  1  0  0  0  0
  4  9  1  0  0  0  0
  4 16  1  0  0  0  0
  5  8  1  0  0  0  0
  5 10  1  0  0  0  0
  5 17  1  0  0  0  0
  6  7  1  0  0  0  0
  6 18  1  0  0  0  0
  6 19  1  0  0  0  0
  7  8  1  0  0  0  0
  7 20  1  0  0  0  0
  7 21  1  0  0  0  0
  9 12  1  0  0  0  0
  9 22  1  0  0  0  0
  9 23  1  0  0  0  0
 10 11  1  0  0  0  0
 10 24  1  0  0  0  0
 10 25  1  0  0  0  0
 11 13  2  0  0  0  0
 11 26  1  0  0  0  0
 13 14  1  0  0  0  0
 13 27  1  0  0  0  0
 14 15  1  0  0  0  0
 14 28  1  0  0  0  0
 14 29  1  0  0  0  0
 15 31  1  0  0  0  0
 15 32  1  0  0  0  0
 15 33  1  0  0  0  0
M  END
> <PUBCHEM_COMPOUND_CID>
7251183

> <PUBCHEM_CONFORMER_RMSD>
0.6

> <PUBCHEM_CONFORMER_DIVERSEORDER>
2
57
71
8
40
34
54
73
45
35
6
37
55
28
52
60
61
67
18
13
50
7
51
53
21
38
62
64
26
72
44
65
16
59
36
63
68
32
4
31
47
20
27
10
56
58
66
24
49
41
33
15
12
23
70
19
22
46
14
11
9
1
48
3
30
25
17
43
5
29
69
42
39

> <PUBCHEM_MMFF94_PARTIAL_CHARGES>
15
1 -0.57
10 0.14
11 -0.29
12 0.66
13 -0.29
14 0.14
2 -0.65
26 0.15
27 0.15
3 -0.57
30 0.5
5 0.06
7 0.06
8 0.45
9 0.06

> <PUBCHEM_EFFECTIVE_ROTOR_COUNT>
5.8

> <PUBCHEM_PHARMACOPHORE_FEATURES>
6
1 1 acceptor
1 15 hydrophobe
1 2 acceptor
1 3 acceptor
3 2 3 12 anion
5 4 5 6 7 8 rings

> <PUBCHEM_HEAVY_ATOM_COUNT>
15

> <PUBCHEM_ATOM_DEF_STEREO_COUNT>
2

> <PUBCHEM_ATOM_UDEF_STEREO_COUNT>
0

> <PUBCHEM_BOND_DEF_STEREO_COUNT>
1

> <PUBCHEM_BOND_UDEF_STEREO_COUNT>
0

> <PUBCHEM_ISOTOPIC_ATOM_COUNT>
0

> <PUBCHEM_COMPONENT_COUNT>
1

> <PUBCHEM_CACTVS_TAUTO_COUNT>
3

> <PUBCHEM_CONFORMER_ID>
006EA4EF00000002

> <PUBCHEM_MMFF94_ENERGY>
19.2098

> <PUBCHEM_FEATURE_SELFOVERLAP>
30.503

> <PUBCHEM_SHAPE_FINGERPRINT>
10871710 139 17844518920947569676
12173636 292 18334295374596554992
12186901 62 18411129221712854686
14614273 12 18408601452870325515
16752209 62 18340504269502974550
16945 1 18264219006048804042
17134986 127 18196938979170333876
1741750 31 18336270119318692552
18785283 64 17978491354595518411
19868273 325 17905331727894885186
20645477 56 18334856065971964552
20671657 1 18195816382319948448
21029758 27 17981603763198515651
21296965 12 18342740757874359065
21501502 16 18341056306256025658
21524375 3 18269564990470187809
23557571 272 17975427814953802360
23598291 2 17917444167493729410
23598294 1 18412549786182621936
2748010 2 18337391646568850538
3071541 250 17185874995863764995
458136 41 18118672451829152521
559249 180 18341332288766234058
81228 2 18194971733655865304

> <PUBCHEM_SHAPE_MULTIPOLES>
291.09
5.82
3.03
1.13
7.55
0.07
0.02
-2.39
1.05
-3.02
0.95
0.17
-0.22
0.08

> <PUBCHEM_SHAPE_SELFOVERLAP>
580.088

> <PUBCHEM_SHAPE_VOLUME>
173

> <PUBCHEM_COORDINATE_TYPE>
2
5
10

$$$$

