11292824
  -OEChem-07051213122D

 51 52  0     1  0  0  0  0  0999 V2000
    9.7942   -5.6550    0.0000 Cl  0  0  0  0  0  0  0  0  0  0  0  0
    5.4641   -4.1550    0.0000 O   0  0  0  0  0  0  0  0  0  0  0  0
    2.8660    2.3450    0.0000 O   0  0  0  0  0  0  0  0  0  0  0  0
    7.1962   -2.1550    0.0000 O   0  0  0  0  0  0  0  0  0  0  0  0
    4.5981    3.3450    0.0000 O   0  0  0  0  0  0  0  0  0  0  0  0
    5.4641   -2.1550    0.0000 N   0  0  0  0  0  0  0  0  0  0  0  0
    4.5981   -0.6550    0.0000 C   0  0  0  0  0  0  0  0  0  0  0  0
    5.4641   -1.1550    0.0000 C   0  0  0  0  0  0  0  0  0  0  0  0
    4.5981    0.3450    0.0000 C   0  0  0  0  0  0  0  0  0  0  0  0
    6.3301   -3.6550    0.0000 C   0  0  3  0  0  0  0  0  0  0  0  0
    6.3301   -2.6550    0.0000 C   0  0  0  0  0  0  0  0  0  0  0  0
    7.1962   -4.1550    0.0000 C   0  0  0  0  0  0  0  0  0  0  0  0
    3.7320    0.8450    0.0000 C   0  0  0  0  0  0  0  0  0  0  0  0
    5.4641    0.8450    0.0000 C   0  0  0  0  0  0  0  0  0  0  0  0
    3.7320    1.8450    0.0000 C   0  0  0  0  0  0  0  0  0  0  0  0
    4.5981    2.3450    0.0000 C   0  0  0  0  0  0  0  0  0  0  0  0
    5.4641    1.8450    0.0000 C   0  0  0  0  0  0  0  0  0  0  0  0
    7.1962   -5.1550    0.0000 C   0  0  0  0  0  0  0  0  0  0  0  0
    8.0622   -3.6550    0.0000 C   0  0  0  0  0  0  0  0  0  0  0  0
    8.0622   -5.6550    0.0000 C   0  0  0  0  0  0  0  0  0  0  0  0
    8.9282   -4.1550    0.0000 C   0  0  0  0  0  0  0  0  0  0  0  0
    8.9282   -5.1550    0.0000 C   0  0  0  0  0  0  0  0  0  0  0  0
    5.4641   -5.1550    0.0000 C   0  0  0  0  0  0  0  0  0  0  0  0
    5.4641    3.8450    0.0000 C   0  0  0  0  0  0  0  0  0  0  0  0
    2.0000    1.8450    0.0000 C   0  0  0  0  0  0  0  0  0  0  0  0
    4.5981   -5.6550    0.0000 C   0  0  0  0  0  0  0  0  0  0  0  0
    5.4641    4.8450    0.0000 C   0  0  0  0  0  0  0  0  0  0  0  0
    3.7320   -6.1550    0.0000 C   0  0  0  0  0  0  0  0  0  0  0  0
    5.4641    5.8450    0.0000 C   0  0  0  0  0  0  0  0  0  0  0  0
    3.9875   -0.5473    0.0000 H   0  0  0  0  0  0  0  0  0  0  0  0
    4.3860   -1.2376    0.0000 H   0  0  0  0  0  0  0  0  0  0  0  0
    6.0747   -1.2627    0.0000 H   0  0  0  0  0  0  0  0  0  0  0  0
    5.6762   -0.5724    0.0000 H   0  0  0  0  0  0  0  0  0  0  0  0
    5.5940   -3.2300    0.0000 H   0  0  0  0  0  0  0  0  0  0  0  0
    4.9272   -2.4650    0.0000 H   0  0  0  0  0  0  0  0  0  0  0  0
    3.1951    0.5350    0.0000 H   0  0  0  0  0  0  0  0  0  0  0  0
    6.0010    0.5350    0.0000 H   0  0  0  0  0  0  0  0  0  0  0  0
    6.0010    2.1550    0.0000 H   0  0  0  0  0  0  0  0  0  0  0  0
    6.6592   -5.4650    0.0000 H   0  0  0  0  0  0  0  0  0  0  0  0
    8.0622   -3.0350    0.0000 H   0  0  0  0  0  0  0  0  0  0  0  0
    8.0622   -6.2750    0.0000 H   0  0  0  0  0  0  0  0  0  0  0  0
    9.4651   -3.8450    0.0000 H   0  0  0  0  0  0  0  0  0  0  0  0
    5.6762   -5.7376    0.0000 H   0  0  0  0  0  0  0  0  0  0  0  0
    6.0747   -5.0473    0.0000 H   0  0  0  0  0  0  0  0  0  0  0  0
    5.6762    3.2624    0.0000 H   0  0  0  0  0  0  0  0  0  0  0  0
    6.0747    3.9527    0.0000 H   0  0  0  0  0  0  0  0  0  0  0  0
    1.6900    2.3819    0.0000 H   0  0  0  0  0  0  0  0  0  0  0  0
    1.4631    1.5350    0.0000 H   0  0  0  0  0  0  0  0  0  0  0  0
    2.3100    1.3081    0.0000 H   0  0  0  0  0  0  0  0  0  0  0  0
    3.1951   -6.4650    0.0000 H   0  0  0  0  0  0  0  0  0  0  0  0
    5.4641    6.4650    0.0000 H   0  0  0  0  0  0  0  0  0  0  0  0
  1 22  1  0  0  0  0
  2 10  1  0  0  0  0
  2 23  1  0  0  0  0
  3 15  1  0  0  0  0
  3 25  1  0  0  0  0
  4 11  2  0  0  0  0
  5 16  1  0  0  0  0
  5 24  1  0  0  0  0
  6  8  1  0  0  0  0
  6 11  1  0  0  0  0
  6 35  1  0  0  0  0
  7  8  1  0  0  0  0
  7  9  1  0  0  0  0
  7 30  1  0  0  0  0
  7 31  1  0  0  0  0
  8 32  1  0  0  0  0
  8 33  1  0  0  0  0
  9 13  2  0  0  0  0
  9 14  1  0  0  0  0
 10 11  1  0  0  0  0
 10 12  1  0  0  0  0
 10 34  1  0  0  0  0
 12 18  2  0  0  0  0
 12 19  1  0  0  0  0
 13 15  1  0  0  0  0
 13 36  1  0  0  0  0
 14 17  2  0  0  0  0
 14 37  1  0  0  0  0
 15 16  2  0  0  0  0
 16 17  1  0  0  0  0
 17 38  1  0  0  0  0
 18 20  1  0  0  0  0
 18 39  1  0  0  0  0
 19 21  2  0  0  0  0
 19 40  1  0  0  0  0
 20 22  2  0  0  0  0
 20 41  1  0  0  0  0
 21 22  1  0  0  0  0
 21 42  1  0  0  0  0
 23 26  1  0  0  0  0
 23 43  1  0  0  0  0
 23 44  1  0  0  0  0
 24 27  1  0  0  0  0
 24 45  1  0  0  0  0
 24 46  1  0  0  0  0
 25 47  1  0  0  0  0
 25 48  1  0  0  0  0
 25 49  1  0  0  0  0
 26 28  3  0  0  0  0
 27 29  3  0  0  0  0
 28 50  1  0  0  0  0
 29 51  1  0  0  0  0
M  END
> <PUBCHEM_COMPOUND_CID>
11292824

> <PUBCHEM_COMPOUND_CANONICALIZED>
1

> <PUBCHEM_CACTVS_COMPLEXITY>
599

> <PUBCHEM_CACTVS_HBOND_ACCEPTOR>
4

> <PUBCHEM_CACTVS_HBOND_DONOR>
1

> <PUBCHEM_CACTVS_ROTATABLE_BOND>
10

> <PUBCHEM_CACTVS_SUBSKEYS>
AAADceB6OAAEAAAAAAAAAAAAAAAAAAAAAAAwYAAAAAAAAAABQAAAHgIQAAAADBbhmCYyBoLABADIGiFSEAICCAAgJQAIiIFOiogPJjKFtx+HOCKk1hGaqAeY2LKOJAABAAAAQABIAAIAAACAAAAAAAAAAA==

> <PUBCHEM_IUPAC_OPENEYE_NAME>
2-(4-chlorophenyl)-N-[2-(3-methoxy-4-prop-2-ynoxy-phenyl)ethyl]-2-prop-2-ynoxy-acetamide

> <PUBCHEM_IUPAC_CAS_NAME>
2-(4-chlorophenyl)-N-[2-(3-methoxy-4-prop-2-ynoxyphenyl)ethyl]-2-prop-2-ynoxyacetamide

> <PUBCHEM_IUPAC_NAME>
2-(4-chlorophenyl)-N-[2-(3-methoxy-4-prop-2-ynoxyphenyl)ethyl]-2-prop-2-ynoxyacetamide

> <PUBCHEM_IUPAC_SYSTEMATIC_NAME>
2-(4-chlorophenyl)-N-[2-(3-methoxy-4-prop-2-ynoxy-phenyl)ethyl]-2-prop-2-ynoxy-ethanamide

> <PUBCHEM_IUPAC_TRADITIONAL_NAME>
2-(4-chlorophenyl)-N-[2-(3-methoxy-4-propargyloxy-phenyl)ethyl]-2-propargyloxy-acetamide

> <PUBCHEM_IUPAC_INCHI>
InChI=1S/C23H22ClNO4/c1-4-14-28-20-11-6-17(16-21(20)27-3)12-13-25-23(26)22(29-15-5-2)18-7-9-19(24)10-8-18/h1-2,6-11,16,22H,12-15H2,3H3,(H,25,26)

> <PUBCHEM_IUPAC_INCHIKEY>
KWLVWJPJKJMCSH-UHFFFAOYSA-N

> <PUBCHEM_XLOGP3_AA>
3.9

> <PUBCHEM_EXACT_MASS>
411.123736

> <PUBCHEM_MOLECULAR_FORMULA>
C23H22ClNO4

> <PUBCHEM_MOLECULAR_WEIGHT>
411.87808

> <PUBCHEM_OPENEYE_CAN_SMILES>
COC1=C(C=CC(=C1)CCNC(=O)C(C2=CC=C(C=C2)Cl)OCC#C)OCC#C

> <PUBCHEM_OPENEYE_ISO_SMILES>
COC1=C(C=CC(=C1)CCNC(=O)C(C2=CC=C(C=C2)Cl)OCC#C)OCC#C

> <PUBCHEM_CACTVS_TPSA>
56.8

> <PUBCHEM_MONOISOTOPIC_WEIGHT>
411.123736

> <PUBCHEM_TOTAL_CHARGE>
0

> <PUBCHEM_HEAVY_ATOM_COUNT>
29

> <PUBCHEM_ATOM_DEF_STEREO_COUNT>
0

> <PUBCHEM_ATOM_UDEF_STEREO_COUNT>
1

> <PUBCHEM_BOND_DEF_STEREO_COUNT>
0

> <PUBCHEM_BOND_UDEF_STEREO_COUNT>
0

> <PUBCHEM_ISOTOPIC_ATOM_COUNT>
0

> <PUBCHEM_COMPONENT_COUNT>
1

> <PUBCHEM_CACTVS_TAUTO_COUNT>
2

> <PUBCHEM_COORDINATE_TYPE>
1
5
255

> <PUBCHEM_BONDANNOTATIONS>
10  34  3
12  18  8
12  19  8
13  15  8
14  17  8
15  16  8
16  17  8
18  20  8
19  21  8
20  22  8
21  22  8
9  13  8
9  14  8

$$$$

