5411
  -OEChem-07051212532D

 43 43  0     0  0  0  0  0  0999 V2000
    4.5981    2.2500    0.0000 O   0  0  0  0  0  0  0  0  0  0  0  0
    2.8660    2.2500    0.0000 O   0  0  0  0  0  0  0  0  0  0  0  0
    3.7320   -2.2500    0.0000 N   0  0  0  0  0  0  0  0  0  0  0  0
    5.4641    4.7500    0.0000 N   0  0  0  0  0  0  0  0  0  0  0  0
    2.8660   -3.7500    0.0000 C   0  0  0  0  0  0  0  0  0  0  0  0
    2.8660   -2.7500    0.0000 C   0  0  0  0  0  0  0  0  0  0  0  0
    2.0000   -4.2500    0.0000 C   0  0  0  0  0  0  0  0  0  0  0  0
    3.7320   -1.2500    0.0000 C   0  0  0  0  0  0  0  0  0  0  0  0
    5.4641    3.7500    0.0000 C   0  0  0  0  0  0  0  0  0  0  0  0
    4.5981    3.2500    0.0000 C   0  0  0  0  0  0  0  0  0  0  0  0
    2.0000   -5.2500    0.0000 C   0  0  0  0  0  0  0  0  0  0  0  0
    3.7320    0.7500    0.0000 C   0  0  0  0  0  0  0  0  0  0  0  0
    4.5981   -0.7500    0.0000 C   0  0  0  0  0  0  0  0  0  0  0  0
    2.8660   -0.7500    0.0000 C   0  0  0  0  0  0  0  0  0  0  0  0
    4.5981    0.2500    0.0000 C   0  0  0  0  0  0  0  0  0  0  0  0
    2.8660    0.2500    0.0000 C   0  0  0  0  0  0  0  0  0  0  0  0
    3.7320    1.7500    0.0000 C   0  0  0  0  0  0  0  0  0  0  0  0
    6.3301    5.2500    0.0000 C   0  0  0  0  0  0  0  0  0  0  0  0
    4.5981    5.2500    0.0000 C   0  0  0  0  0  0  0  0  0  0  0  0
    3.0781   -4.3326    0.0000 H   0  0  0  0  0  0  0  0  0  0  0  0
    3.4766   -3.6423    0.0000 H   0  0  0  0  0  0  0  0  0  0  0  0
    2.6540   -2.1674    0.0000 H   0  0  0  0  0  0  0  0  0  0  0  0
    2.2554   -2.8577    0.0000 H   0  0  0  0  0  0  0  0  0  0  0  0
    1.7880   -3.6674    0.0000 H   0  0  0  0  0  0  0  0  0  0  0  0
    1.3894   -4.3577    0.0000 H   0  0  0  0  0  0  0  0  0  0  0  0
    4.2690   -2.5600    0.0000 H   0  0  0  0  0  0  0  0  0  0  0  0
    5.6762    3.1674    0.0000 H   0  0  0  0  0  0  0  0  0  0  0  0
    6.0747    3.8577    0.0000 H   0  0  0  0  0  0  0  0  0  0  0  0
    4.3860    3.8326    0.0000 H   0  0  0  0  0  0  0  0  0  0  0  0
    3.9875    3.1423    0.0000 H   0  0  0  0  0  0  0  0  0  0  0  0
    1.3800   -5.2500    0.0000 H   0  0  0  0  0  0  0  0  0  0  0  0
    2.0000   -5.8700    0.0000 H   0  0  0  0  0  0  0  0  0  0  0  0
    2.6200   -5.2500    0.0000 H   0  0  0  0  0  0  0  0  0  0  0  0
    5.1350   -1.0600    0.0000 H   0  0  0  0  0  0  0  0  0  0  0  0
    2.3291   -1.0600    0.0000 H   0  0  0  0  0  0  0  0  0  0  0  0
    5.1350    0.5600    0.0000 H   0  0  0  0  0  0  0  0  0  0  0  0
    2.3291    0.5600    0.0000 H   0  0  0  0  0  0  0  0  0  0  0  0
    6.6401    4.7131    0.0000 H   0  0  0  0  0  0  0  0  0  0  0  0
    6.8671    5.5600    0.0000 H   0  0  0  0  0  0  0  0  0  0  0  0
    6.0201    5.7869    0.0000 H   0  0  0  0  0  0  0  0  0  0  0  0
    4.9081    5.7869    0.0000 H   0  0  0  0  0  0  0  0  0  0  0  0
    4.0611    5.5600    0.0000 H   0  0  0  0  0  0  0  0  0  0  0  0
    4.2881    4.7131    0.0000 H   0  0  0  0  0  0  0  0  0  0  0  0
  1 10  1  0  0  0  0
  1 17  1  0  0  0  0
  2 17  2  0  0  0  0
  3  6  1  0  0  0  0
  3  8  1  0  0  0  0
  3 26  1  0  0  0  0
  4  9  1  0  0  0  0
  4 18  1  0  0  0  0
  4 19  1  0  0  0  0
  5  6  1  0  0  0  0
  5  7  1  0  0  0  0
  5 20  1  0  0  0  0
  5 21  1  0  0  0  0
  6 22  1  0  0  0  0
  6 23  1  0  0  0  0
  7 11  1  0  0  0  0
  7 24  1  0  0  0  0
  7 25  1  0  0  0  0
  8 13  2  0  0  0  0
  8 14  1  0  0  0  0
  9 10  1  0  0  0  0
  9 27  1  0  0  0  0
  9 28  1  0  0  0  0
 10 29  1  0  0  0  0
 10 30  1  0  0  0  0
 11 31  1  0  0  0  0
 11 32  1  0  0  0  0
 11 33  1  0  0  0  0
 12 15  2  0  0  0  0
 12 16  1  0  0  0  0
 12 17  1  0  0  0  0
 13 15  1  0  0  0  0
 13 34  1  0  0  0  0
 14 16  2  0  0  0  0
 14 35  1  0  0  0  0
 15 36  1  0  0  0  0
 16 37  1  0  0  0  0
 18 38  1  0  0  0  0
 18 39  1  0  0  0  0
 18 40  1  0  0  0  0
 19 41  1  0  0  0  0
 19 42  1  0  0  0  0
 19 43  1  0  0  0  0
M  END
> <PUBCHEM_COMPOUND_CID>
5411

> <PUBCHEM_COMPOUND_CANONICALIZED>
1

> <PUBCHEM_CACTVS_COMPLEXITY>
249

> <PUBCHEM_CACTVS_HBOND_ACCEPTOR>
4

> <PUBCHEM_CACTVS_HBOND_DONOR>
1

> <PUBCHEM_CACTVS_ROTATABLE_BOND>
9

> <PUBCHEM_CACTVS_SUBSKEYS>
AAADceBzMAAAAAAAAAAAAAAAAAAAAAAAAAAwAAAAAAAAAAABAAAAHgAQAAAADAjhmAYyyIPABACIAiTSSACCAAAlAgAIiIEIbMgKJjLAtZmHMQhk0AHY6YeY2SOeCAAAAAAAAAAQAAAAAAAAAAAAAAAAAA==

> <PUBCHEM_IUPAC_OPENEYE_NAME>
2-(dimethylamino)ethyl 4-(butylamino)benzoate

> <PUBCHEM_IUPAC_CAS_NAME>
4-(butylamino)benzoic acid 2-(dimethylamino)ethyl ester

> <PUBCHEM_IUPAC_NAME>
2-(dimethylamino)ethyl 4-(butylamino)benzoate

> <PUBCHEM_IUPAC_SYSTEMATIC_NAME>
2-(dimethylamino)ethyl 4-(butylamino)benzoate

> <PUBCHEM_IUPAC_TRADITIONAL_NAME>
4-(butylamino)benzoic acid 2-(dimethylamino)ethyl ester

> <PUBCHEM_IUPAC_INCHI>
InChI=1S/C15H24N2O2/c1-4-5-10-16-14-8-6-13(7-9-14)15(18)19-12-11-17(2)3/h6-9,16H,4-5,10-12H2,1-3H3

> <PUBCHEM_IUPAC_INCHIKEY>
GKCBAIGFKIBETG-UHFFFAOYSA-N

> <PUBCHEM_XLOGP3>
3.7

> <PUBCHEM_EXACT_MASS>
264.183778

> <PUBCHEM_MOLECULAR_FORMULA>
C15H24N2O2

> <PUBCHEM_MOLECULAR_WEIGHT>
264.36326

> <PUBCHEM_OPENEYE_CAN_SMILES>
CCCCNC1=CC=C(C=C1)C(=O)OCCN(C)C

> <PUBCHEM_OPENEYE_ISO_SMILES>
CCCCNC1=CC=C(C=C1)C(=O)OCCN(C)C

> <PUBCHEM_CACTVS_TPSA>
41.6

> <PUBCHEM_MONOISOTOPIC_WEIGHT>
264.183778

> <PUBCHEM_TOTAL_CHARGE>
0

> <PUBCHEM_HEAVY_ATOM_COUNT>
19

> <PUBCHEM_ATOM_DEF_STEREO_COUNT>
0

> <PUBCHEM_ATOM_UDEF_STEREO_COUNT>
0

> <PUBCHEM_BOND_DEF_STEREO_COUNT>
0

> <PUBCHEM_BOND_UDEF_STEREO_COUNT>
0

> <PUBCHEM_ISOTOPIC_ATOM_COUNT>
0

> <PUBCHEM_COMPONENT_COUNT>
1

> <PUBCHEM_CACTVS_TAUTO_COUNT>
3

> <PUBCHEM_COORDINATE_TYPE>
1
5
255

> <PUBCHEM_BONDANNOTATIONS>
12  15  8
12  16  8
13  15  8
14  16  8
8  13  8
8  14  8

$$$$

