51090937
  -OEChem-06241223002D

 41 42  0     1  0  0  0  0  0999 V2000
   10.0829    3.4250    0.0000 F   0  0  0  0  0  0  0  0  0  0  0  0
   10.3041    2.0282    0.0000 F   0  0  0  0  0  0  0  0  0  0  0  0
    8.6861    3.2037    0.0000 F   0  0  0  0  0  0  0  0  0  0  0  0
    3.7320    0.0750    0.0000 O   0  0  0  0  0  0  0  0  0  0  0  0
    2.8660   -1.4250    0.0000 O   0  0  0  0  0  0  0  0  0  0  0  0
    7.9128    1.9114    0.0000 N   0  0  3  0  0  0  0  0  0  0  0  0
    5.4641    0.0750    0.0000 N   0  0  0  0  0  0  0  0  0  0  0  0
    6.3301    1.5750    0.0000 C   0  0  3  0  0  0  0  0  0  0  0  0
    6.4347    2.5696    0.0000 C   0  0  0  0  0  0  0  0  0  0  0  0
    7.2437    1.1683    0.0000 C   0  0  0  0  0  0  0  0  0  0  0  0
    7.4128    2.7775    0.0000 C   0  0  0  0  0  0  0  0  0  0  0  0
    5.4641    1.0750    0.0000 C   0  0  0  0  0  0  0  0  0  0  0  0
    8.9073    1.8069    0.0000 C   0  0  0  0  0  0  0  0  0  0  0  0
    9.4951    2.6159    0.0000 C   0  0  0  0  0  0  0  0  0  0  0  0
    4.5981   -0.4250    0.0000 C   0  0  0  0  0  0  0  0  0  0  0  0
    4.5981   -1.4250    0.0000 C   0  0  0  0  0  0  0  0  0  0  0  0
    3.7320   -1.9250    0.0000 C   0  0  0  0  0  0  0  0  0  0  0  0
    5.4641   -1.9250    0.0000 C   0  0  0  0  0  0  0  0  0  0  0  0
    3.7320   -2.9250    0.0000 C   0  0  0  0  0  0  0  0  0  0  0  0
    5.4641   -2.9250    0.0000 C   0  0  0  0  0  0  0  0  0  0  0  0
    4.5981   -3.4250    0.0000 C   0  0  0  0  0  0  0  0  0  0  0  0
    2.0000   -1.9250    0.0000 C   0  0  0  0  0  0  0  0  0  0  0  0
    5.8102    1.9127    0.0000 H   0  0  0  0  0  0  0  0  0  0  0  0
    6.3698    3.1862    0.0000 H   0  0  0  0  0  0  0  0  0  0  0  0
    5.8147    2.5696    0.0000 H   0  0  0  0  0  0  0  0  0  0  0  0
    6.9337    0.6314    0.0000 H   0  0  0  0  0  0  0  0  0  0  0  0
    7.7453    0.8039    0.0000 H   0  0  0  0  0  0  0  0  0  0  0  0
    7.9792    3.0296    0.0000 H   0  0  0  0  0  0  0  0  0  0  0  0
    7.2212    3.3671    0.0000 H   0  0  0  0  0  0  0  0  0  0  0  0
    5.2520    1.6576    0.0000 H   0  0  0  0  0  0  0  0  0  0  0  0
    4.8535    0.9674    0.0000 H   0  0  0  0  0  0  0  0  0  0  0  0
    8.7364    1.2109    0.0000 H   0  0  0  0  0  0  0  0  0  0  0  0
    9.4646    1.5351    0.0000 H   0  0  0  0  0  0  0  0  0  0  0  0
    6.0010   -0.2350    0.0000 H   0  0  0  0  0  0  0  0  0  0  0  0
    6.0010   -1.6150    0.0000 H   0  0  0  0  0  0  0  0  0  0  0  0
    3.1951   -3.2350    0.0000 H   0  0  0  0  0  0  0  0  0  0  0  0
    6.0010   -3.2350    0.0000 H   0  0  0  0  0  0  0  0  0  0  0  0
    4.5981   -4.0450    0.0000 H   0  0  0  0  0  0  0  0  0  0  0  0
    1.6900   -1.3880    0.0000 H   0  0  0  0  0  0  0  0  0  0  0  0
    1.4631   -2.2350    0.0000 H   0  0  0  0  0  0  0  0  0  0  0  0
    2.3100   -2.4619    0.0000 H   0  0  0  0  0  0  0  0  0  0  0  0
  1 14  1  0  0  0  0
  2 14  1  0  0  0  0
  3 14  1  0  0  0  0
  4 15  2  0  0  0  0
  5 17  1  0  0  0  0
  5 22  1  0  0  0  0
  6 10  1  0  0  0  0
  6 11  1  0  0  0  0
  6 13  1  0  0  0  0
  7 12  1  0  0  0  0
  7 15  1  0  0  0  0
  7 34  1  0  0  0  0
  8  9  1  0  0  0  0
  8 10  1  0  0  0  0
  8 12  1  0  0  0  0
  8 23  1  0  0  0  0
  9 11  1  0  0  0  0
  9 24  1  0  0  0  0
  9 25  1  0  0  0  0
 10 26  1  0  0  0  0
 10 27  1  0  0  0  0
 11 28  1  0  0  0  0
 11 29  1  0  0  0  0
 12 30  1  0  0  0  0
 12 31  1  0  0  0  0
 13 14  1  0  0  0  0
 13 32  1  0  0  0  0
 13 33  1  0  0  0  0
 15 16  1  0  0  0  0
 16 17  1  0  0  0  0
 16 18  2  0  0  0  0
 17 19  2  0  0  0  0
 18 20  1  0  0  0  0
 18 35  1  0  0  0  0
 19 21  1  0  0  0  0
 19 36  1  0  0  0  0
 20 21  2  0  0  0  0
 20 37  1  0  0  0  0
 21 38  1  0  0  0  0
 22 39  1  0  0  0  0
 22 40  1  0  0  0  0
 22 41  1  0  0  0  0
M  END
> <PUBCHEM_COMPOUND_CID>
51090937

> <PUBCHEM_COMPOUND_CANONICALIZED>
1

> <PUBCHEM_CACTVS_COMPLEXITY>
376

> <PUBCHEM_CACTVS_HBOND_ACCEPTOR>
6

> <PUBCHEM_CACTVS_HBOND_DONOR>
1

> <PUBCHEM_CACTVS_ROTATABLE_BOND>
5

> <PUBCHEM_CACTVS_SUBSKEYS>
AAADceBzMYAAAAAAAAAAAAAAAAAAAWAAAAAwAAAAAAAAAAABAAAAHwAQAAAADQTBmBYyBoPABACIAiFSEACCCAAkIAAIiIEODMgMJjaE9RuEMWhm9hGIqYeYyCCOAAAAAAAIAAAAAAAAABAAAAAAAAAAAA==

> <PUBCHEM_IUPAC_OPENEYE_NAME>
2-methoxy-N-[[1-(2,2,2-trifluoroethyl)pyrrolidin-3-yl]methyl]benzamide

> <PUBCHEM_IUPAC_CAS_NAME>
2-methoxy-N-[[1-(2,2,2-trifluoroethyl)-3-pyrrolidinyl]methyl]benzamide

> <PUBCHEM_IUPAC_NAME>
2-methoxy-N-[[1-(2,2,2-trifluoroethyl)pyrrolidin-3-yl]methyl]benzamide

> <PUBCHEM_IUPAC_SYSTEMATIC_NAME>
2-methoxy-N-[[1-[2,2,2-tris(fluoranyl)ethyl]pyrrolidin-3-yl]methyl]benzamide

> <PUBCHEM_IUPAC_TRADITIONAL_NAME>
2-methoxy-N-[[1-(2,2,2-trifluoroethyl)pyrrolidin-3-yl]methyl]benzamide

> <PUBCHEM_IUPAC_INCHI>
InChI=1S/C15H19F3N2O2/c1-22-13-5-3-2-4-12(13)14(21)19-8-11-6-7-20(9-11)10-15(16,17)18/h2-5,11H,6-10H2,1H3,(H,19,21)

> <PUBCHEM_IUPAC_INCHIKEY>
SBGQPBNFOBGYCI-UHFFFAOYSA-N

> <PUBCHEM_XLOGP3>
2.8

> <PUBCHEM_EXACT_MASS>
316.139863

> <PUBCHEM_MOLECULAR_FORMULA>
C15H19F3N2O2

> <PUBCHEM_MOLECULAR_WEIGHT>
316.31877

> <PUBCHEM_OPENEYE_CAN_SMILES>
COC1=CC=CC=C1C(=O)NCC2CCN(C2)CC(F)(F)F

> <PUBCHEM_OPENEYE_ISO_SMILES>
COC1=CC=CC=C1C(=O)NCC2CCN(C2)CC(F)(F)F

> <PUBCHEM_CACTVS_TPSA>
41.6

> <PUBCHEM_MONOISOTOPIC_WEIGHT>
316.139863

> <PUBCHEM_TOTAL_CHARGE>
0

> <PUBCHEM_HEAVY_ATOM_COUNT>
22

> <PUBCHEM_ATOM_DEF_STEREO_COUNT>
0

> <PUBCHEM_ATOM_UDEF_STEREO_COUNT>
1

> <PUBCHEM_BOND_DEF_STEREO_COUNT>
0

> <PUBCHEM_BOND_UDEF_STEREO_COUNT>
0

> <PUBCHEM_ISOTOPIC_ATOM_COUNT>
0

> <PUBCHEM_COMPONENT_COUNT>
1

> <PUBCHEM_CACTVS_TAUTO_COUNT>
2

> <PUBCHEM_COORDINATE_TYPE>
1
5
255

> <PUBCHEM_BONDANNOTATIONS>
16  17  8
16  18  8
17  19  8
18  20  8
19  21  8
20  21  8
8  12  3

$$$$

