17242
  -OEChem-07051213133D

 34 33  0     1  0  0  0  0  0999 V2000
   -3.4113    0.2415    0.4836 S   0  0  1  0  0  0  0  0  0  0  0  0
    0.4951    0.2801   -1.5169 S   0  0  0  0  0  0  0  0  0  0  0  0
    3.9714   -0.2501   -1.6224 S   0  0  0  0  0  0  0  0  0  0  0  0
    2.3516   -0.0545   -0.5327 P   0  0  0  0  0  0  0  0  0  0  0  0
    2.5050    1.1133    0.6017 O   0  0  0  0  0  0  0  0  0  0  0  0
    2.1346   -1.3226    0.4766 O   0  0  0  0  0  0  0  0  0  0  0  0
   -3.4668   -1.1991    0.8836 O   0  0  0  0  0  0  0  0  0  0  0  0
   -2.1417    0.3855   -0.8157 C   0  0  0  0  0  0  0  0  0  0  0  0
   -0.7599    0.1617   -0.2262 C   0  0  0  0  0  0  0  0  0  0  0  0
   -4.8120    0.5634   -0.6133 C   0  0  0  0  0  0  0  0  0  0  0  0
   -6.1278    0.5273    0.1365 C   0  0  0  0  0  0  0  0  0  0  0  0
    2.7203    2.4614    0.2182 C   0  0  0  0  0  0  0  0  0  0  0  0
    1.9460   -2.6286   -0.0430 C   0  0  0  0  0  0  0  0  0  0  0  0
    2.8236    3.3174    1.4624 C   0  0  0  0  0  0  0  0  0  0  0  0
    1.7718   -3.5967    1.1077 C   0  0  0  0  0  0  0  0  0  0  0  0
   -2.3677   -0.3561   -1.5897 H   0  0  0  0  0  0  0  0  0  0  0  0
   -2.2239    1.3887   -1.2479 H   0  0  0  0  0  0  0  0  0  0  0  0
   -0.6917   -0.8267    0.2398 H   0  0  0  0  0  0  0  0  0  0  0  0
   -0.5411    0.9062    0.5467 H   0  0  0  0  0  0  0  0  0  0  0  0
   -4.6740    1.5502   -1.0660 H   0  0  0  0  0  0  0  0  0  0  0  0
   -4.8154   -0.1869   -1.4102 H   0  0  0  0  0  0  0  0  0  0  0  0
   -6.3000   -0.4544    0.5903 H   0  0  0  0  0  0  0  0  0  0  0  0
   -6.1487    1.2747    0.9367 H   0  0  0  0  0  0  0  0  0  0  0  0
   -6.9587    0.7359   -0.5446 H   0  0  0  0  0  0  0  0  0  0  0  0
    3.6456    2.5410   -0.3589 H   0  0  0  0  0  0  0  0  0  0  0  0
    1.8870    2.8032   -0.4024 H   0  0  0  0  0  0  0  0  0  0  0  0
    1.0595   -2.6452   -0.6835 H   0  0  0  0  0  0  0  0  0  0  0  0
    2.8154   -2.9214   -0.6380 H   0  0  0  0  0  0  0  0  0  0  0  0
    2.9893    4.3666    1.2025 H   0  0  0  0  0  0  0  0  0  0  0  0
    1.9086    3.2414    2.0592 H   0  0  0  0  0  0  0  0  0  0  0  0
    3.6474    2.9761    2.0980 H   0  0  0  0  0  0  0  0  0  0  0  0
    1.6240   -4.6165    0.7417 H   0  0  0  0  0  0  0  0  0  0  0  0
    2.6493   -3.5796    1.7624 H   0  0  0  0  0  0  0  0  0  0  0  0
    0.9107   -3.3133    1.7219 H   0  0  0  0  0  0  0  0  0  0  0  0
  1  7  2  0  0  0  0
  1  8  1  0  0  0  0
  1 10  1  0  0  0  0
  2  4  1  0  0  0  0
  2  9  1  0  0  0  0
  3  4  2  0  0  0  0
  4  5  1  0  0  0  0
  4  6  1  0  0  0  0
  5 12  1  0  0  0  0
  6 13  1  0  0  0  0
  8  9  1  0  0  0  0
  8 16  1  0  0  0  0
  8 17  1  0  0  0  0
  9 18  1  0  0  0  0
  9 19  1  0  0  0  0
 10 11  1  0  0  0  0
 10 20  1  0  0  0  0
 10 21  1  0  0  0  0
 11 22  1  0  0  0  0
 11 23  1  0  0  0  0
 11 24  1  0  0  0  0
 12 14  1  0  0  0  0
 12 25  1  0  0  0  0
 12 26  1  0  0  0  0
 13 15  1  0  0  0  0
 13 27  1  0  0  0  0
 13 28  1  0  0  0  0
 14 29  1  0  0  0  0
 14 30  1  0  0  0  0
 14 31  1  0  0  0  0
 15 32  1  0  0  0  0
 15 33  1  0  0  0  0
 15 34  1  0  0  0  0
M  END
> <PUBCHEM_COMPOUND_CID>
17242

> <PUBCHEM_CONFORMER_RMSD>
0.8

> <PUBCHEM_CONFORMER_DIVERSEORDER>
1
111
191
59
5
28
186
21
37
76
70
139
19
200
86
36
16
84
166
45
129
118
35
53
207
146
49
184
153
167
48
7
23
100
124
58
130
81
115
27
102
89
145
121
31
180
106
149
32
82
119
210
144
203
136
105
205
197
140
54
47
137
50
138
93
43
122
199
85
77
74
182
33
39
201
171
17
61
195
107
80
160
51
72
99
161
103
113
148
154
42
112
92
168
109
196
38
123
73
108
62
159
190
194
142
64
88
26
165
52
95
40
170
193
110
163
10
66
25
30
34
173
209
128
44
41
15
188
120
117
134
90
67
104
116
97
151
172
78
185
132
192
211
204
157
152
2
141
101
91
57
176
3
156
131
114
11
55
14
155
6
202
187
183
208
94
158
68
125
96
22
143
9
79
75
206
12
133
177
69
169
65
83
18
127
29
8
56
126
174
178
13
150
87
181
4
164
46
71
20
98
175
198
162
24
60
135
189
63
147
179

> <PUBCHEM_MMFF94_PARTIAL_CHARGES>
12
1 0.11
10 0.19
12 0.28
13 0.28
2 -0.48
3 -0.68
4 1.47
5 -0.55
6 -0.55
7 -0.5
8 0.19
9 0.23

> <PUBCHEM_EFFECTIVE_ROTOR_COUNT>
9

> <PUBCHEM_PHARMACOPHORE_FEATURES>
1
1 7 acceptor

> <PUBCHEM_HEAVY_ATOM_COUNT>
15

> <PUBCHEM_ATOM_DEF_STEREO_COUNT>
0

> <PUBCHEM_ATOM_UDEF_STEREO_COUNT>
1

> <PUBCHEM_BOND_DEF_STEREO_COUNT>
0

> <PUBCHEM_BOND_UDEF_STEREO_COUNT>
0

> <PUBCHEM_ISOTOPIC_ATOM_COUNT>
0

> <PUBCHEM_COMPONENT_COUNT>
1

> <PUBCHEM_CACTVS_TAUTO_COUNT>
1

> <PUBCHEM_CONFORMER_ID>
0000435A00000001

> <PUBCHEM_MMFF94_ENERGY>
0.0518

> <PUBCHEM_FEATURE_SELFOVERLAP>
5.074

> <PUBCHEM_SHAPE_FINGERPRINT>
10366900 7 18341602741938737885
13533116 47 18341611581646019443
13583140 156 18409444778779141293
13955234 65 18411141354900819571
14178342 30 18057890143228210187
15142526 21 17972892362288362209
20369508 70 18338239383040197447
20645477 70 18186238429024464061
21503847 285 18113330908103285204
23532345 1 18408326553710169081
23557571 272 16128091255943019767
23558518 356 17832153723255767054
23559900 14 18201995530220144029
239999 70 18114176423786065319
31174 14 18339088201584509007
495365 180 18412268311274450177
633830 44 18261959539750092213
81228 2 17478899281836518006
9999458 23 18410009918902393196

> <PUBCHEM_SHAPE_MULTIPOLES>
306.48
10.29
3.38
1.42
18.45
0.88
-0.19
-2.41
-0.42
-5.54
2.51
-1.14
-0.16
0.9

> <PUBCHEM_SHAPE_SELFOVERLAP>
506.488

> <PUBCHEM_SHAPE_VOLUME>
212

> <PUBCHEM_COORDINATE_TYPE>
2
5
10

$$$$

