17396287
  -OEChem-06241222553D

 35 37  0     1  0  0  0  0  0999 V2000
   -1.3778    2.8417   -0.8950 S   0  0  0  0  0  0  0  0  0  0  0  0
   -3.6938   -1.0287    1.9631 S   0  0  0  0  0  0  0  0  0  0  0  0
    5.0473   -2.7604   -0.0530 F   0  0  0  0  0  0  0  0  0  0  0  0
    1.9754    2.9426   -0.3694 O   0  0  0  0  0  0  0  0  0  0  0  0
   -1.6986   -1.8374   -2.4668 O   0  0  0  0  0  0  0  0  0  0  0  0
   -1.6143    0.3196   -1.6166 N   0  0  0  0  0  0  0  0  0  0  0  0
    1.0235    1.0053    0.5517 N   0  0  0  0  0  0  0  0  0  0  0  0
   -2.5251    0.9085    0.5136 N   0  0  0  0  0  0  0  0  0  0  0  0
   -0.2631    3.0461    0.5099 C   0  0  1  0  0  0  0  0  0  0  0  0
    1.0470    2.3433    0.1663 C   0  0  0  0  0  0  0  0  0  0  0  0
   -2.6394   -1.3917   -0.3466 C   0  0  0  0  0  0  0  0  0  0  0  0
   -1.9112    1.2085   -0.5911 C   0  0  0  0  0  0  0  0  0  0  0  0
   -0.0532    4.5300    0.7835 C   0  0  0  0  0  0  0  0  0  0  0  0
   -2.8746   -0.4067    0.5980 C   0  0  0  0  0  0  0  0  0  0  0  0
   -1.9499   -1.0331   -1.5761 C   0  0  0  0  0  0  0  0  0  0  0  0
    2.0507    0.0441    0.3974 C   0  0  0  0  0  0  0  0  0  0  0  0
   -3.1361   -2.6624    0.0584 C   0  0  0  0  0  0  0  0  0  0  0  0
   -3.7344   -2.6056    1.2979 C   0  0  0  0  0  0  0  0  0  0  0  0
    1.8558   -1.2626    0.8448 C   0  0  0  0  0  0  0  0  0  0  0  0
    3.2579    0.4035   -0.2020 C   0  0  0  0  0  0  0  0  0  0  0  0
    2.8682   -2.2100    0.6927 C   0  0  0  0  0  0  0  0  0  0  0  0
    4.2703   -0.5440   -0.3539 C   0  0  0  0  0  0  0  0  0  0  0  0
    4.0754   -1.8507    0.0933 C   0  0  0  0  0  0  0  0  0  0  0  0
   -0.6964    2.6050    1.4145 H   0  0  0  0  0  0  0  0  0  0  0  0
    0.3664    5.0575   -0.0812 H   0  0  0  0  0  0  0  0  0  0  0  0
   -0.9920    5.0207    1.0635 H   0  0  0  0  0  0  0  0  0  0  0  0
    0.6504    4.6663    1.6129 H   0  0  0  0  0  0  0  0  0  0  0  0
   -1.1273    0.6715   -2.4355 H   0  0  0  0  0  0  0  0  0  0  0  0
    0.1801    0.6582    1.0023 H   0  0  0  0  0  0  0  0  0  0  0  0
   -3.0621   -3.5725   -0.5230 H   0  0  0  0  0  0  0  0  0  0  0  0
   -4.1940   -3.4163    1.8453 H   0  0  0  0  0  0  0  0  0  0  0  0
    0.9190   -1.5559    1.3121 H   0  0  0  0  0  0  0  0  0  0  0  0
    3.4836    1.3925   -0.5745 H   0  0  0  0  0  0  0  0  0  0  0  0
    2.7167   -3.2276    1.0403 H   0  0  0  0  0  0  0  0  0  0  0  0
    5.2107   -0.2661   -0.8208 H   0  0  0  0  0  0  0  0  0  0  0  0
  1  9  1  0  0  0  0
  1 12  1  0  0  0  0
  2 14  1  0  0  0  0
  2 18  1  0  0  0  0
  3 23  1  0  0  0  0
  4 10  2  0  0  0  0
  5 15  2  0  0  0  0
  6 12  1  0  0  0  0
  6 15  1  0  0  0  0
  6 28  1  0  0  0  0
  7 10  1  0  0  0  0
  7 16  1  0  0  0  0
  7 29  1  0  0  0  0
  8 12  2  0  0  0  0
  8 14  1  0  0  0  0
  9 10  1  0  0  0  0
  9 13  1  0  0  0  0
  9 24  1  0  0  0  0
 11 14  2  0  0  0  0
 11 15  1  0  0  0  0
 11 17  1  0  0  0  0
 13 25  1  0  0  0  0
 13 26  1  0  0  0  0
 13 27  1  0  0  0  0
 16 19  2  0  0  0  0
 16 20  1  0  0  0  0
 17 18  2  0  0  0  0
 17 30  1  0  0  0  0
 18 31  1  0  0  0  0
 19 21  1  0  0  0  0
 19 32  1  0  0  0  0
 20 22  2  0  0  0  0
 20 33  1  0  0  0  0
 21 23  2  0  0  0  0
 21 34  1  0  0  0  0
 22 23  1  0  0  0  0
 22 35  1  0  0  0  0
M  END
> <PUBCHEM_COMPOUND_CID>
17396287

> <PUBCHEM_CONFORMER_RMSD>
0.8

> <PUBCHEM_CONFORMER_DIVERSEORDER>
1
37
51
47
73
39
6
29
14
62
64
7
74
38
23
60
28
75
55
33
63
44
56
72
18
26
54
92
97
40
3
82
8
67
57
83
22
90
89
95
103
11
58
69
15
52
43
101
105
104
2
16
66
27
50
20
78
13
91
81
68
88
79
65
5
61
46
48
17
32
99
53
59
4
84
31
86
34
21
49
100
94
71
45
25
10
24
36
42
77
87
85
9
70
19
102
30
76
35
41
98
96
93
80
12

> <PUBCHEM_MMFF94_PARTIAL_CHARGES>
30
1 -0.37
10 0.57
11 -0.09
12 0.65
14 0.17
15 0.72
16 0.12
17 -0.15
18 -0.11
19 -0.15
2 -0.08
20 -0.15
21 -0.15
22 -0.15
23 0.19
28 0.37
29 0.37
3 -0.19
30 0.15
31 0.15
32 0.15
33 0.15
34 0.15
35 0.15
4 -0.57
5 -0.57
6 -0.49
7 -0.55
8 -0.58
9 0.29

> <PUBCHEM_EFFECTIVE_ROTOR_COUNT>
5

> <PUBCHEM_PHARMACOPHORE_FEATURES>
8
1 13 hydrophobe
1 4 acceptor
1 5 acceptor
1 6 donor
1 7 donor
5 2 11 14 17 18 rings
6 16 19 20 21 22 23 rings
6 6 8 11 12 14 15 rings

> <PUBCHEM_HEAVY_ATOM_COUNT>
23

> <PUBCHEM_ATOM_DEF_STEREO_COUNT>
0

> <PUBCHEM_ATOM_UDEF_STEREO_COUNT>
1

> <PUBCHEM_BOND_DEF_STEREO_COUNT>
0

> <PUBCHEM_BOND_UDEF_STEREO_COUNT>
0

> <PUBCHEM_ISOTOPIC_ATOM_COUNT>
0

> <PUBCHEM_COMPONENT_COUNT>
1

> <PUBCHEM_CACTVS_TAUTO_COUNT>
8

> <PUBCHEM_CONFORMER_ID>
0109723F00000001

> <PUBCHEM_MMFF94_ENERGY>
50.1038

> <PUBCHEM_FEATURE_SELFOVERLAP>
40.676

> <PUBCHEM_SHAPE_FINGERPRINT>
10064457 181 16754086837045322049
107951 10 17619906596768499847
114674 6 17983862172528857683
11640471 11 12175087426578957167
12107183 9 18264186111774921489
12156800 1 16472830035824301883
12553582 1 18410296904148051338
12633257 1 18263342790314183195
12788726 201 18050866699178303969
13135754 10 17827328258394138152
13533116 47 18050842222766761459
13583140 156 17905038154818013683
138480 1 15096770609071712224
14251757 5 18198061584773891780
15422964 175 17984424036356575997
19930381 70 17980759333762192763
20291156 8 18410290302709250058
20645476 183 17626672943981394869
21427221 339 17898543437994956897
21634736 98 18341332305597508292
221490 88 18412543241359279170
23598288 3 18337669836064372220
23728640 28 17973455582745224573
3737641 26 18339067191058365724
445580 42 18054238888482366426
6287921 2 17832419804658342523
7097593 13 18118392952563875553

> <PUBCHEM_SHAPE_MULTIPOLES>
447.07
7.8
4.74
1.51
4.83
4.42
-0.49
-8.5
1.36
0.83
0.79
-1.65
-0.5
0.37

> <PUBCHEM_SHAPE_SELFOVERLAP>
943.735

> <PUBCHEM_SHAPE_VOLUME>
254.9

> <PUBCHEM_COORDINATE_TYPE>
2
5
10

$$$$

