443774
  -OEChem-07051213033D

 52 55  0     1  0  0  0  0  0999 V2000
    4.7275    2.1103    0.1684 O   0  0  0  0  0  0  0  0  0  0  0  0
   -4.5348   -0.7420    1.2751 O   0  0  0  0  0  0  0  0  0  0  0  0
   -5.0974    0.1362   -1.1200 O   0  0  0  0  0  0  0  0  0  0  0  0
    3.5966   -1.7395   -1.3916 N   0  0  0  0  0  0  0  0  0  0  0  0
    2.5287   -2.3979   -0.6334 C   0  0  1  0  0  0  0  0  0  0  0  0
    4.1581   -0.5760   -0.6834 C   0  0  1  0  0  0  0  0  0  0  0  0
    1.3452   -1.4357   -0.4670 C   0  0  0  0  0  0  0  0  0  0  0  0
    1.7675   -0.0737    0.0211 C   0  0  0  0  0  0  0  0  0  0  0  0
    3.1010    0.3516   -0.1142 C   0  0  0  0  0  0  0  0  0  0  0  0
    0.8088    0.8001    0.5533 C   0  0  0  0  0  0  0  0  0  0  0  0
    2.0901   -3.6629   -1.3701 C   0  0  0  0  0  0  0  0  0  0  0  0
    3.4508    1.6470    0.2988 C   0  0  0  0  0  0  0  0  0  0  0  0
    5.1609   -1.0146    0.3922 C   0  0  0  0  0  0  0  0  0  0  0  0
   -0.5861    0.4211    0.6857 C   0  0  0  0  0  0  0  0  0  0  0  0
    1.1716    2.0821    0.9638 C   0  0  0  0  0  0  0  0  0  0  0  0
    2.4915    2.5056    0.8361 C   0  0  0  0  0  0  0  0  0  0  0  0
   -1.5104    0.6444   -0.3516 C   0  0  0  0  0  0  0  0  0  0  0  0
   -0.9975   -0.1774    1.8799 C   0  0  0  0  0  0  0  0  0  0  0  0
   -2.8606    0.2577   -0.1762 C   0  0  0  0  0  0  0  0  0  0  0  0
   -2.3250   -0.5577    2.0524 C   0  0  0  0  0  0  0  0  0  0  0  0
   -3.2516   -0.3422    1.0319 C   0  0  0  0  0  0  0  0  0  0  0  0
   -1.1193    1.2443   -1.5596 C   0  0  0  0  0  0  0  0  0  0  0  0
   -0.0413   -0.4279    3.0033 C   0  0  0  0  0  0  0  0  0  0  0  0
   -3.7797    0.4826   -1.2140 C   0  0  0  0  0  0  0  0  0  0  0  0
   -2.0459    1.4601   -2.5801 C   0  0  0  0  0  0  0  0  0  0  0  0
   -3.3736    1.0799   -2.4076 C   0  0  0  0  0  0  0  0  0  0  0  0
   -4.8752   -2.0755    0.9071 C   0  0  0  0  0  0  0  0  0  0  0  0
    2.9032   -2.7008    0.3521 H   0  0  0  0  0  0  0  0  0  0  0  0
    4.7208   -0.0159   -1.4419 H   0  0  0  0  0  0  0  0  0  0  0  0
    0.6409   -1.9022    0.2306 H   0  0  0  0  0  0  0  0  0  0  0  0
    0.8299   -1.3074   -1.4282 H   0  0  0  0  0  0  0  0  0  0  0  0
    3.2229   -1.4313   -2.2902 H   0  0  0  0  0  0  0  0  0  0  0  0
    2.9273   -4.3613   -1.4788 H   0  0  0  0  0  0  0  0  0  0  0  0
    1.2974   -4.1764   -0.8153 H   0  0  0  0  0  0  0  0  0  0  0  0
    1.7070   -3.4368   -2.3717 H   0  0  0  0  0  0  0  0  0  0  0  0
    4.6668   -1.5042    1.2386 H   0  0  0  0  0  0  0  0  0  0  0  0
    5.8929   -1.7160   -0.0242 H   0  0  0  0  0  0  0  0  0  0  0  0
    5.7241   -0.1661    0.7934 H   0  0  0  0  0  0  0  0  0  0  0  0
    0.4372    2.7687    1.3787 H   0  0  0  0  0  0  0  0  0  0  0  0
    2.7581    3.5100    1.1539 H   0  0  0  0  0  0  0  0  0  0  0  0
   -2.6507   -1.0225    2.9802 H   0  0  0  0  0  0  0  0  0  0  0  0
   -0.0966    1.5599   -1.7485 H   0  0  0  0  0  0  0  0  0  0  0  0
    0.7723   -1.0894    2.6891 H   0  0  0  0  0  0  0  0  0  0  0  0
    0.3734    0.5127    3.3800 H   0  0  0  0  0  0  0  0  0  0  0  0
   -0.5336   -0.9177    3.8513 H   0  0  0  0  0  0  0  0  0  0  0  0
    4.7744    3.0220    0.5035 H   0  0  0  0  0  0  0  0  0  0  0  0
   -1.7305    1.9247   -3.5098 H   0  0  0  0  0  0  0  0  0  0  0  0
   -4.0802    1.2561   -3.2144 H   0  0  0  0  0  0  0  0  0  0  0  0
   -5.5582    0.3736   -1.9426 H   0  0  0  0  0  0  0  0  0  0  0  0
   -5.9648   -2.1664    0.9139 H   0  0  0  0  0  0  0  0  0  0  0  0
   -4.4623   -2.7780    1.6378 H   0  0  0  0  0  0  0  0  0  0  0  0
   -4.5081   -2.3278   -0.0931 H   0  0  0  0  0  0  0  0  0  0  0  0
  1 12  1  0  0  0  0
  1 46  1  0  0  0  0
  2 21  1  0  0  0  0
  2 27  1  0  0  0  0
  3 24  1  0  0  0  0
  3 49  1  0  0  0  0
  4  5  1  0  0  0  0
  4  6  1  0  0  0  0
  4 32  1  0  0  0  0
  5  7  1  0  0  0  0
  5 11  1  0  0  0  0
  5 28  1  0  0  0  0
  6  9  1  0  0  0  0
  6 13  1  0  0  0  0
  6 29  1  0  0  0  0
  7  8  1  0  0  0  0
  7 30  1  0  0  0  0
  7 31  1  0  0  0  0
  8  9  1  0  0  0  0
  8 10  2  0  0  0  0
  9 12  2  0  0  0  0
 10 14  1  0  0  0  0
 10 15  1  0  0  0  0
 11 33  1  0  0  0  0
 11 34  1  0  0  0  0
 11 35  1  0  0  0  0
 12 16  1  0  0  0  0
 13 36  1  0  0  0  0
 13 37  1  0  0  0  0
 13 38  1  0  0  0  0
 14 17  2  0  0  0  0
 14 18  1  0  0  0  0
 15 16  2  0  0  0  0
 15 39  1  0  0  0  0
 16 40  1  0  0  0  0
 17 19  1  0  0  0  0
 17 22  1  0  0  0  0
 18 20  2  0  0  0  0
 18 23  1  0  0  0  0
 19 21  2  0  0  0  0
 19 24  1  0  0  0  0
 20 21  1  0  0  0  0
 20 41  1  0  0  0  0
 22 25  2  0  0  0  0
 22 42  1  0  0  0  0
 23 43  1  0  0  0  0
 23 44  1  0  0  0  0
 23 45  1  0  0  0  0
 24 26  2  0  0  0  0
 25 26  1  0  0  0  0
 25 47  1  0  0  0  0
 26 48  1  0  0  0  0
 27 50  1  0  0  0  0
 27 51  1  0  0  0  0
 27 52  1  0  0  0  0
M  END
> <PUBCHEM_COMPOUND_CID>
443774

> <PUBCHEM_CONFORMER_RMSD>
0.6

> <PUBCHEM_CONFORMER_DIVERSEORDER>
1
4
2
3

> <PUBCHEM_MMFF94_PARTIAL_CHARGES>
30
1 -0.53
12 0.08
15 -0.15
16 -0.15
18 -0.14
2 -0.36
20 -0.15
21 0.08
22 -0.15
23 0.14
24 0.08
25 -0.15
26 -0.15
27 0.28
3 -0.53
32 0.36
39 0.15
4 -0.9
40 0.15
41 0.15
42 0.15
46 0.45
47 0.15
48 0.15
49 0.45
5 0.27
6 0.41
7 0.14
8 -0.14
9 -0.14

> <PUBCHEM_EFFECTIVE_ROTOR_COUNT>
2.8

> <PUBCHEM_PHARMACOPHORE_FEATURES>
9
1 1 donor
1 2 acceptor
1 3 donor
1 4 cation
1 4 donor
6 14 17 18 19 20 21 rings
6 17 19 22 24 25 26 rings
6 4 5 6 7 8 9 rings
6 8 9 10 12 15 16 rings

> <PUBCHEM_HEAVY_ATOM_COUNT>
27

> <PUBCHEM_ATOM_DEF_STEREO_COUNT>
2

> <PUBCHEM_ATOM_UDEF_STEREO_COUNT>
0

> <PUBCHEM_BOND_DEF_STEREO_COUNT>
0

> <PUBCHEM_BOND_UDEF_STEREO_COUNT>
0

> <PUBCHEM_ISOTOPIC_ATOM_COUNT>
0

> <PUBCHEM_COMPONENT_COUNT>
1

> <PUBCHEM_CACTVS_TAUTO_COUNT>
20

> <PUBCHEM_CONFORMER_ID>
0006C57E00000001

> <PUBCHEM_MMFF94_ENERGY>
96.7164

> <PUBCHEM_FEATURE_SELFOVERLAP>
45.717

> <PUBCHEM_SHAPE_FINGERPRINT>
10498660 4 16917358038864672941
10670039 82 16200154304631350818
11582403 64 17621932687508987800
11725454 13 18057065539646119576
12156800 1 13362674715785364678
12236239 1 16877938326220758264
13140716 1 18187083898169874834
13583140 156 18131361825431469074
13782708 43 18273209798607965962
13911987 19 18264198128941161700
13947920 75 15697711584757982878
13965767 371 5876436553025615678
14251757 17 18199753707256680482
14659021 117 16753533310261327662
14739800 52 16127522646030129212
14787075 74 16516268253309901610
15375462 189 17022618684679374027
15961568 22 17059488505336742924
17138139 8 16880788170002046134
17349148 13 17895202129627526618
1813 80 17458334295354639204
18915476 22 18408605855048046078
200 152 17968100853843863464
20511986 3 16805614697465830144
20600515 1 16916225442845586853
20645477 70 18409443683483379104
21033650 10 17058350725560343070
21285901 2 17988350499553131895
22112679 90 16153431653088669713
22121540 332 16767022028943235349
23402539 116 16988844977313633199
235170 7 18342739611265946791
23526113 38 18198628932868834738
23557571 272 17774996895349106093
23559900 14 17489587887836086506
23598288 3 16660916794392442129
238 59 18337966669960223262
3052486 1 16630531734492357117
44802255 64 16765867168666976868
469060 322 17981057322740548175
7399639 24 18341618049070474476
77492 1 16950277403788388752

> <PUBCHEM_SHAPE_MULTIPOLES>
533.06
9.53
2.66
2.31
0.97
1.25
0.18
1.78
-1.39
-2.43
-0.8
1.96
0
2.91

> <PUBCHEM_SHAPE_SELFOVERLAP>
1181.644

> <PUBCHEM_SHAPE_VOLUME>
287

> <PUBCHEM_COORDINATE_TYPE>
2
5
10

$$$$

