17396147
  -OEChem-06241222542D

 44 47  0     0  0  0  0  0  0999 V2000
    3.7320   -0.0670    0.0000 S   0  0  0  0  0  0  0  0  0  0  0  0
    2.8660    4.4330    0.0000 O   0  0  0  0  0  0  0  0  0  0  0  0
    2.0000    0.9330    0.0000 O   0  0  0  0  0  0  0  0  0  0  0  0
    5.4641   -3.0670    0.0000 N   0  0  0  0  0  0  0  0  0  0  0  0
    2.8660    2.4330    0.0000 N   0  0  0  0  0  0  0  0  0  0  0  0
    4.5981   -1.5670    0.0000 N   0  0  0  0  0  0  0  0  0  0  0  0
    5.4641   -0.0670    0.0000 N   0  0  0  0  0  0  0  0  0  0  0  0
    4.5981   -3.5670    0.0000 C   0  0  0  0  0  0  0  0  0  0  0  0
    3.5981   -3.5670    0.0000 C   0  0  0  0  0  0  0  0  0  0  0  0
    4.0981   -4.4330    0.0000 C   0  0  0  0  0  0  0  0  0  0  0  0
    5.4641   -2.0670    0.0000 C   0  0  0  0  0  0  0  0  0  0  0  0
    6.3301   -1.5670    0.0000 C   0  0  0  0  0  0  0  0  0  0  0  0
    2.0000    2.9330    0.0000 C   0  0  0  0  0  0  0  0  0  0  0  0
    3.7320    2.9330    0.0000 C   0  0  0  0  0  0  0  0  0  0  0  0
    2.0000    3.9330    0.0000 C   0  0  0  0  0  0  0  0  0  0  0  0
    3.7320    3.9330    0.0000 C   0  0  0  0  0  0  0  0  0  0  0  0
    6.3301   -0.5670    0.0000 C   0  0  0  0  0  0  0  0  0  0  0  0
    2.8660    1.4330    0.0000 C   0  0  0  0  0  0  0  0  0  0  0  0
    4.5981   -0.5670    0.0000 C   0  0  0  0  0  0  0  0  0  0  0  0
    7.2241   -2.1016    0.0000 C   0  0  0  0  0  0  0  0  0  0  0  0
    3.7320    0.9330    0.0000 C   0  0  0  0  0  0  0  0  0  0  0  0
    7.2241   -0.0323    0.0000 C   0  0  0  0  0  0  0  0  0  0  0  0
    8.1301   -1.5878    0.0000 C   0  0  0  0  0  0  0  0  0  0  0  0
    8.1301   -0.5462    0.0000 C   0  0  0  0  0  0  0  0  0  0  0  0
    5.0365   -4.0054    0.0000 H   0  0  0  0  0  0  0  0  0  0  0  0
    3.6231   -4.8315    0.0000 H   0  0  0  0  0  0  0  0  0  0  0  0
    4.5730   -4.8315    0.0000 H   0  0  0  0  0  0  0  0  0  0  0  0
    3.4904   -2.9564    0.0000 H   0  0  0  0  0  0  0  0  0  0  0  0
    3.0155   -3.7790    0.0000 H   0  0  0  0  0  0  0  0  0  0  0  0
    6.0010   -3.3770    0.0000 H   0  0  0  0  0  0  0  0  0  0  0  0
    1.3894    3.0407    0.0000 H   0  0  0  0  0  0  0  0  0  0  0  0
    1.7880    2.3504    0.0000 H   0  0  0  0  0  0  0  0  0  0  0  0
    3.9441    2.3504    0.0000 H   0  0  0  0  0  0  0  0  0  0  0  0
    4.3426    3.0407    0.0000 H   0  0  0  0  0  0  0  0  0  0  0  0
    1.7880    4.5156    0.0000 H   0  0  0  0  0  0  0  0  0  0  0  0
    1.3894    3.8254    0.0000 H   0  0  0  0  0  0  0  0  0  0  0  0
    4.3426    3.8254    0.0000 H   0  0  0  0  0  0  0  0  0  0  0  0
    3.9441    4.5156    0.0000 H   0  0  0  0  0  0  0  0  0  0  0  0
    7.2169   -2.7216    0.0000 H   0  0  0  0  0  0  0  0  0  0  0  0
    4.3426    0.8254    0.0000 H   0  0  0  0  0  0  0  0  0  0  0  0
    3.9441    1.5156    0.0000 H   0  0  0  0  0  0  0  0  0  0  0  0
    7.2169    0.5876    0.0000 H   0  0  0  0  0  0  0  0  0  0  0  0
    8.6659   -1.8999    0.0000 H   0  0  0  0  0  0  0  0  0  0  0  0
    8.6659   -0.2341    0.0000 H   0  0  0  0  0  0  0  0  0  0  0  0
  1 19  1  0  0  0  0
  1 21  1  0  0  0  0
  2 15  1  0  0  0  0
  2 16  1  0  0  0  0
  3 18  2  0  0  0  0
  4  8  1  0  0  0  0
  4 11  1  0  0  0  0
  4 30  1  0  0  0  0
  5 13  1  0  0  0  0
  5 14  1  0  0  0  0
  5 18  1  0  0  0  0
  6 11  2  0  0  0  0
  6 19  1  0  0  0  0
  7 17  1  0  0  0  0
  7 19  2  0  0  0  0
  8  9  1  0  0  0  0
  8 10  1  0  0  0  0
  8 25  1  0  0  0  0
  9 10  1  0  0  0  0
  9 28  1  0  0  0  0
  9 29  1  0  0  0  0
 10 26  1  0  0  0  0
 10 27  1  0  0  0  0
 11 12  1  0  0  0  0
 12 17  1  0  0  0  0
 12 20  2  0  0  0  0
 13 15  1  0  0  0  0
 13 31  1  0  0  0  0
 13 32  1  0  0  0  0
 14 16  1  0  0  0  0
 14 33  1  0  0  0  0
 14 34  1  0  0  0  0
 15 35  1  0  0  0  0
 15 36  1  0  0  0  0
 16 37  1  0  0  0  0
 16 38  1  0  0  0  0
 17 22  2  0  0  0  0
 18 21  1  0  0  0  0
 20 23  1  0  0  0  0
 20 39  1  0  0  0  0
 21 40  1  0  0  0  0
 21 41  1  0  0  0  0
 22 24  1  0  0  0  0
 22 42  1  0  0  0  0
 23 24  2  0  0  0  0
 23 43  1  0  0  0  0
 24 44  1  0  0  0  0
M  END
> <PUBCHEM_COMPOUND_CID>
17396147

> <PUBCHEM_COMPOUND_CANONICALIZED>
1

> <PUBCHEM_CACTVS_COMPLEXITY>
442

> <PUBCHEM_CACTVS_HBOND_ACCEPTOR>
6

> <PUBCHEM_CACTVS_HBOND_DONOR>
1

> <PUBCHEM_CACTVS_ROTATABLE_BOND>
5

> <PUBCHEM_CACTVS_SUBSKEYS>
AAADceB7sABAAAAAAAAAAAAAGAAAAAAAAAA8WIAAAAAAAACx8AAAHgQQAAAADCjl3gax8PfIFAioAydydACC0ClhArAJmKA4ZJiKKKLA2dGHJAholgLYyCcQgAAOAAAAAAACAAAAAAAAAAQAAAAAAAAAAA==

> <PUBCHEM_IUPAC_OPENEYE_NAME>
2-[4-(cyclopropylamino)quinazolin-2-yl]sulfanyl-1-morpholino-ethanone

> <PUBCHEM_IUPAC_CAS_NAME>
2-[[4-(cyclopropylamino)-2-quinazolinyl]thio]-1-(4-morpholinyl)ethanone

> <PUBCHEM_IUPAC_NAME>
2-[4-(cyclopropylamino)quinazolin-2-yl]sulfanyl-1-morpholin-4-ylethanone

> <PUBCHEM_IUPAC_SYSTEMATIC_NAME>
2-[4-(cyclopropylamino)quinazolin-2-yl]sulfanyl-1-morpholin-4-yl-ethanone

> <PUBCHEM_IUPAC_TRADITIONAL_NAME>
2-[[4-(cyclopropylamino)quinazolin-2-yl]thio]-1-morpholino-ethanone

> <PUBCHEM_IUPAC_INCHI>
InChI=1S/C17H20N4O2S/c22-15(21-7-9-23-10-8-21)11-24-17-19-14-4-2-1-3-13(14)16(20-17)18-12-5-6-12/h1-4,12H,5-11H2,(H,18,19,20)

> <PUBCHEM_IUPAC_INCHIKEY>
PLRZKTCWLSSRSH-UHFFFAOYSA-N

> <PUBCHEM_XLOGP3_AA>
2.4

> <PUBCHEM_EXACT_MASS>
344.130697

> <PUBCHEM_MOLECULAR_FORMULA>
C17H20N4O2S

> <PUBCHEM_MOLECULAR_WEIGHT>
344.4313

> <PUBCHEM_OPENEYE_CAN_SMILES>
C1CC1NC2=NC(=NC3=CC=CC=C32)SCC(=O)N4CCOCC4

> <PUBCHEM_OPENEYE_ISO_SMILES>
C1CC1NC2=NC(=NC3=CC=CC=C32)SCC(=O)N4CCOCC4

> <PUBCHEM_CACTVS_TPSA>
92.6

> <PUBCHEM_MONOISOTOPIC_WEIGHT>
344.130697

> <PUBCHEM_TOTAL_CHARGE>
0

> <PUBCHEM_HEAVY_ATOM_COUNT>
24

> <PUBCHEM_ATOM_DEF_STEREO_COUNT>
0

> <PUBCHEM_ATOM_UDEF_STEREO_COUNT>
0

> <PUBCHEM_BOND_DEF_STEREO_COUNT>
0

> <PUBCHEM_BOND_UDEF_STEREO_COUNT>
0

> <PUBCHEM_ISOTOPIC_ATOM_COUNT>
0

> <PUBCHEM_COMPONENT_COUNT>
1

> <PUBCHEM_CACTVS_TAUTO_COUNT>
3

> <PUBCHEM_COORDINATE_TYPE>
1
5
255

> <PUBCHEM_BONDANNOTATIONS>
11  12  8
12  17  8
12  20  8
17  22  8
20  23  8
22  24  8
23  24  8
6  11  8
6  19  8
7  17  8
7  19  8

$$$$

