3034646
  -OEChem-07051213093D

 38 40  0     1  0  0  0  0  0999 V2000
   -4.3037    3.3547   -0.4831 S   0  0  0  0  0  0  0  0  0  0  0  0
    4.7783    1.4988    0.1276 P   0  0  0  0  0  0  0  0  0  0  0  0
    1.2155   -0.7640    1.0301 O   0  0  0  0  0  0  0  0  0  0  0  0
   -0.5899   -2.7903   -1.3268 O   0  0  0  0  0  0  0  0  0  0  0  0
    1.3551   -3.7271    0.3239 O   0  0  0  0  0  0  0  0  0  0  0  0
    3.7572    0.3621    0.6633 O   0  0  0  0  0  0  0  0  0  0  0  0
    3.9764    2.1896   -1.0951 O   0  0  0  0  0  0  0  0  0  0  0  0
    5.9223    0.6339   -0.6195 O   0  0  0  0  0  0  0  0  0  0  0  0
    5.2830    2.4435    1.1789 O   0  0  0  0  0  0  0  0  0  0  0  0
   -0.8464    0.0151    0.1518 N   0  0  0  0  0  0  0  0  0  0  0  0
   -3.0946   -0.8765    0.3735 N   0  0  0  0  0  0  0  0  0  0  0  0
   -1.4036    2.1440   -0.2796 N   0  0  0  0  0  0  0  0  0  0  0  0
   -4.8526    0.7299    0.0705 N   0  0  0  0  0  0  0  0  0  0  0  0
   -5.3037   -1.5342    0.5486 N   0  0  0  0  0  0  0  0  0  0  0  0
    0.4035   -1.8844   -0.8919 C   0  0  1  0  0  0  0  0  0  0  0  0
   -0.0079   -1.1594    0.3804 C   0  0  1  0  0  0  0  0  0  0  0  0
    1.6802   -2.5712   -0.4483 C   0  0  1  0  0  0  0  0  0  0  0  0
    2.3088   -1.5274    0.4696 C   0  0  1  0  0  0  0  0  0  0  0  0
    3.2347   -0.5698   -0.2673 C   0  0  0  0  0  0  0  0  0  0  0  0
   -2.1980    0.0916    0.1582 C   0  0  0  0  0  0  0  0  0  0  0  0
   -0.4071    1.2907   -0.1192 C   0  0  0  0  0  0  0  0  0  0  0  0
   -2.5356    1.3903   -0.1051 C   0  0  0  0  0  0  0  0  0  0  0  0
   -3.9373    1.7580   -0.1581 C   0  0  0  0  0  0  0  0  0  0  0  0
   -4.4346   -0.4980    0.3177 C   0  0  0  0  0  0  0  0  0  0  0  0
    0.6127   -1.1776   -1.7031 H   0  0  0  0  0  0  0  0  0  0  0  0
   -0.5546   -1.8107    1.0729 H   0  0  0  0  0  0  0  0  0  0  0  0
    2.3131   -2.8915   -1.2808 H   0  0  0  0  0  0  0  0  0  0  0  0
    2.8391   -1.9813    1.3144 H   0  0  0  0  0  0  0  0  0  0  0  0
    2.6886   -0.0207   -1.0406 H   0  0  0  0  0  0  0  0  0  0  0  0
    4.0559   -1.1232   -0.7332 H   0  0  0  0  0  0  0  0  0  0  0  0
   -0.7333   -3.4419   -0.6195 H   0  0  0  0  0  0  0  0  0  0  0  0
    2.1923   -4.1154    0.6305 H   0  0  0  0  0  0  0  0  0  0  0  0
    0.6429    1.5396   -0.1928 H   0  0  0  0  0  0  0  0  0  0  0  0
   -2.8417   -1.8405    0.5641 H   0  0  0  0  0  0  0  0  0  0  0  0
   -4.9697   -2.4730    0.7369 H   0  0  0  0  0  0  0  0  0  0  0  0
   -6.3075   -1.3898    0.5360 H   0  0  0  0  0  0  0  0  0  0  0  0
    4.3721    2.9674   -1.5428 H   0  0  0  0  0  0  0  0  0  0  0  0
    6.7192    1.0941   -0.9592 H   0  0  0  0  0  0  0  0  0  0  0  0
  1 23  2  0  0  0  0
  2  6  1  0  0  0  0
  2  7  1  0  0  0  0
  2  8  1  0  0  0  0
  2  9  2  0  0  0  0
  3 16  1  0  0  0  0
  3 18  1  0  0  0  0
  4 15  1  0  0  0  0
  4 31  1  0  0  0  0
  5 17  1  0  0  0  0
  5 32  1  0  0  0  0
  6 19  1  0  0  0  0
  7 37  1  0  0  0  0
  8 38  1  0  0  0  0
 10 16  1  0  0  0  0
 10 20  1  0  0  0  0
 10 21  1  0  0  0  0
 11 20  1  0  0  0  0
 11 24  1  0  0  0  0
 11 34  1  0  0  0  0
 12 21  2  0  0  0  0
 12 22  1  0  0  0  0
 13 23  1  0  0  0  0
 13 24  2  0  0  0  0
 14 24  1  0  0  0  0
 14 35  1  0  0  0  0
 14 36  1  0  0  0  0
 15 16  1  0  0  0  0
 15 17  1  0  0  0  0
 15 25  1  0  0  0  0
 16 26  1  0  0  0  0
 17 18  1  0  0  0  0
 17 27  1  0  0  0  0
 18 19  1  0  0  0  0
 18 28  1  0  0  0  0
 19 29  1  0  0  0  0
 19 30  1  0  0  0  0
 20 22  2  0  0  0  0
 21 33  1  0  0  0  0
 22 23  1  0  0  0  0
M  END
> <PUBCHEM_COMPOUND_CID>
3034646

> <PUBCHEM_CONFORMER_RMSD>
0.8

> <PUBCHEM_CONFORMER_DIVERSEORDER>
6
33
9
45
29
8
49
47
27
25
38
3
24
20
19
15
16
46
5
48
32
41
51
23
18
21
28
44
35
42
12
34
39
26
4
37
13
43
17
1
36
30
2
50
22
31
10
14
52
11
40
7

> <PUBCHEM_MMFF94_PARTIAL_CHARGES>
32
1 -0.38
10 0.05
11 -0.53
12 -0.57
13 -0.66
14 -0.85
15 0.28
16 0.54
17 0.28
18 0.28
19 0.28
2 1.51
20 -0.07
21 0.04
22 0.14
23 0.68
24 0.55
3 -0.56
31 0.4
32 0.4
33 0.15
34 0.4
35 0.4
36 0.4
37 0.5
38 0.5
4 -0.68
5 -0.68
6 -0.55
7 -0.77
8 -0.77
9 -0.7

> <PUBCHEM_EFFECTIVE_ROTOR_COUNT>
5

> <PUBCHEM_PHARMACOPHORE_FEATURES>
17
1 1 acceptor
1 11 donor
1 14 donor
1 3 acceptor
1 4 acceptor
1 4 donor
1 5 acceptor
1 5 donor
1 7 acceptor
1 8 acceptor
1 9 acceptor
3 10 12 21 cation
4 11 13 14 24 cation
4 2 7 8 9 anion
5 10 12 20 21 22 rings
5 3 15 16 17 18 rings
6 11 13 20 22 23 24 rings

> <PUBCHEM_HEAVY_ATOM_COUNT>
24

> <PUBCHEM_ATOM_DEF_STEREO_COUNT>
4

> <PUBCHEM_ATOM_UDEF_STEREO_COUNT>
0

> <PUBCHEM_BOND_DEF_STEREO_COUNT>
0

> <PUBCHEM_BOND_UDEF_STEREO_COUNT>
0

> <PUBCHEM_ISOTOPIC_ATOM_COUNT>
0

> <PUBCHEM_COMPONENT_COUNT>
1

> <PUBCHEM_CACTVS_TAUTO_COUNT>
6

> <PUBCHEM_CONFORMER_ID>
002E4E1600000006

> <PUBCHEM_MMFF94_ENERGY>
30.2073

> <PUBCHEM_FEATURE_SELFOVERLAP>
86.48

> <PUBCHEM_SHAPE_FINGERPRINT>
10090160 65 18272655614598146007
10498660 4 18409165549696293128
10906281 52 18270664416958162673
11578080 2 16700915957816292685
12403259 118 18341626948411159920
12788726 201 17338424594098548210
12925494 130 18337676437751976673
14341114 328 17418376878891521760
14528608 73 18335987535855284444
1454969 45 18336266726653380591
14787075 74 18335140847767570203
14790565 3 18409726223122070136
15196674 1 18412544348706584392
15375358 24 18121223336291338919
15961568 22 18130785689417155940
17980427 23 17846208960608323981
19591789 44 18121499055532136793
21065198 57 18123470746337477611
22620623 9 16806738252589769214
23227448 37 18117281359203658412
23559900 14 18049728717359983731
245318 6 17344325780041700452
2838139 119 18335991900212035092
3298306 158 18335424568985971788
34797466 226 17967810583059194869
474 4 18131626786142791012
474229 33 18339922623609940667
5104073 3 18271241750393289409
550186 72 18339645530054260317
6442390 28 18409730634443658898
7808743 9 18265059020780863016
9709674 26 17903074770379625423
9981440 41 18343581832740842794

> <PUBCHEM_SHAPE_MULTIPOLES>
435.62
11.55
3.74
0.9
3.15
0.47
0.06
-8.15
-0.78
0.54
0.53
0.47
0.06
0.85

> <PUBCHEM_SHAPE_SELFOVERLAP>
910.892

> <PUBCHEM_SHAPE_VOLUME>
250.3

> <PUBCHEM_COORDINATE_TYPE>
2
5
10

$$$$

