4369
  -OEChem-06261200043D

 48 50  0     0  0  0  0  0  0999 V2000
    2.0579   -1.6014   -0.8963 S   0  0  0  0  0  0  0  0  0  0  0  0
    4.7549   -0.3925    1.6510 O   0  0  0  0  0  0  0  0  0  0  0  0
    2.7133   -2.6205   -0.1131 O   0  0  0  0  0  0  0  0  0  0  0  0
    2.1526   -1.5773   -2.3364 O   0  0  0  0  0  0  0  0  0  0  0  0
    3.1509    3.1022   -1.2269 O   0  0  0  0  0  0  0  0  0  0  0  0
    1.8489    4.2056    0.8688 O   0  0  0  0  0  0  0  0  0  0  0  0
   -3.6378   -1.5398    0.6297 O   0  0  0  0  0  0  0  0  0  0  0  0
    1.5390    2.9157    0.4177 N   0  0  0  0  0  0  0  0  0  0  0  0
    2.6498   -0.0072   -0.3162 C   0  0  0  0  0  0  0  0  0  0  0  0
    4.1469    0.1440   -0.6402 C   0  0  0  0  0  0  0  0  0  0  0  0
    2.4213    0.1149    1.2009 C   0  0  0  0  0  0  0  0  0  0  0  0
    1.8447    1.0730   -1.0537 C   0  0  0  0  0  0  0  0  0  0  0  0
    5.0313   -0.6871    0.2838 C   0  0  0  0  0  0  0  0  0  0  0  0
    3.4134   -0.7150    2.0096 C   0  0  0  0  0  0  0  0  0  0  0  0
    0.3573   -1.5829   -0.4404 C   0  0  0  0  0  0  0  0  0  0  0  0
    2.2698    2.4657   -0.6550 C   0  0  0  0  0  0  0  0  0  0  0  0
   -0.5827   -1.0833   -1.3305 C   0  0  0  0  0  0  0  0  0  0  0  0
   -0.0218   -2.0680    0.8031 C   0  0  0  0  0  0  0  0  0  0  0  0
   -1.9300   -1.0685   -0.9694 C   0  0  0  0  0  0  0  0  0  0  0  0
   -1.3690   -2.0533    1.1641 C   0  0  0  0  0  0  0  0  0  0  0  0
   -2.3231   -1.5534    0.2778 C   0  0  0  0  0  0  0  0  0  0  0  0
   -4.3618   -0.3885    0.3695 C   0  0  0  0  0  0  0  0  0  0  0  0
   -3.8076    0.8404    0.6789 C   0  0  0  0  0  0  0  0  0  0  0  0
   -5.6212   -0.4970   -0.1923 C   0  0  0  0  0  0  0  0  0  0  0  0
   -4.5373    2.0002    0.4176 C   0  0  0  0  0  0  0  0  0  0  0  0
   -6.3509    0.6627   -0.4536 C   0  0  0  0  0  0  0  0  0  0  0  0
   -5.8089    1.9113   -0.1486 C   0  0  0  0  0  0  0  0  0  0  0  0
    4.4641    1.1815   -0.4952 H   0  0  0  0  0  0  0  0  0  0  0  0
    4.3605   -0.1111   -1.6844 H   0  0  0  0  0  0  0  0  0  0  0  0
    1.3966   -0.0741    1.5203 H   0  0  0  0  0  0  0  0  0  0  0  0
    2.6433    1.1381    1.5179 H   0  0  0  0  0  0  0  0  0  0  0  0
    1.9696    0.9977   -2.1410 H   0  0  0  0  0  0  0  0  0  0  0  0
    0.7721    1.0029   -0.8590 H   0  0  0  0  0  0  0  0  0  0  0  0
    6.0801   -0.4260    0.1039 H   0  0  0  0  0  0  0  0  0  0  0  0
    4.9510   -1.7629    0.1074 H   0  0  0  0  0  0  0  0  0  0  0  0
    3.2551   -1.7931    1.9548 H   0  0  0  0  0  0  0  0  0  0  0  0
    3.3018   -0.4562    3.0689 H   0  0  0  0  0  0  0  0  0  0  0  0
   -0.3008   -0.7103   -2.3106 H   0  0  0  0  0  0  0  0  0  0  0  0
    0.7016   -2.4667    1.5078 H   0  0  0  0  0  0  0  0  0  0  0  0
    0.7213    2.4736    0.8224 H   0  0  0  0  0  0  0  0  0  0  0  0
   -2.6537   -0.6961   -1.6897 H   0  0  0  0  0  0  0  0  0  0  0  0
   -1.6696   -2.4332    2.1367 H   0  0  0  0  0  0  0  0  0  0  0  0
    2.4716    3.9921    1.5843 H   0  0  0  0  0  0  0  0  0  0  0  0
   -2.8297    0.9354    1.1419 H   0  0  0  0  0  0  0  0  0  0  0  0
   -6.0442   -1.4682   -0.4303 H   0  0  0  0  0  0  0  0  0  0  0  0
   -4.1177    2.9723    0.6600 H   0  0  0  0  0  0  0  0  0  0  0  0
   -7.3411    0.5935   -0.8943 H   0  0  0  0  0  0  0  0  0  0  0  0
   -6.3776    2.8143   -0.3509 H   0  0  0  0  0  0  0  0  0  0  0  0
  1  3  2  0  0  0  0
  1  4  2  0  0  0  0
  1  9  1  0  0  0  0
  1 15  1  0  0  0  0
  2 13  1  0  0  0  0
  2 14  1  0  0  0  0
  5 16  2  0  0  0  0
  6  8  1  0  0  0  0
  6 43  1  0  0  0  0
  7 21  1  0  0  0  0
  7 22  1  0  0  0  0
  8 16  1  0  0  0  0
  8 40  1  0  0  0  0
  9 10  1  0  0  0  0
  9 11  1  0  0  0  0
  9 12  1  0  0  0  0
 10 13  1  0  0  0  0
 10 28  1  0  0  0  0
 10 29  1  0  0  0  0
 11 14  1  0  0  0  0
 11 30  1  0  0  0  0
 11 31  1  0  0  0  0
 12 16  1  0  0  0  0
 12 32  1  0  0  0  0
 12 33  1  0  0  0  0
 13 34  1  0  0  0  0
 13 35  1  0  0  0  0
 14 36  1  0  0  0  0
 14 37  1  0  0  0  0
 15 17  2  0  0  0  0
 15 18  1  0  0  0  0
 17 19  1  0  0  0  0
 17 38  1  0  0  0  0
 18 20  2  0  0  0  0
 18 39  1  0  0  0  0
 19 21  2  0  0  0  0
 19 41  1  0  0  0  0
 20 21  1  0  0  0  0
 20 42  1  0  0  0  0
 22 23  2  0  0  0  0
 22 24  1  0  0  0  0
 23 25  1  0  0  0  0
 23 44  1  0  0  0  0
 24 26  2  0  0  0  0
 24 45  1  0  0  0  0
 25 27  2  0  0  0  0
 25 46  1  0  0  0  0
 26 27  1  0  0  0  0
 26 47  1  0  0  0  0
 27 48  1  0  0  0  0
M  END
> <PUBCHEM_COMPOUND_CID>
4369

> <PUBCHEM_CONFORMER_RMSD>
1

> <PUBCHEM_CONFORMER_DIVERSEORDER>
1
37
35
7
43
23
29
31
15
40
24
22
2
32
25
30
16
17
42
36
6
10
41
34
12
3
27
33
21
5
4
26
13
39
28
38
20
9
14
8
19
11
18

> <PUBCHEM_MMFF94_PARTIAL_CHARGES>
36
1 1.2
12 0.06
13 0.28
14 0.28
15 -0.01
16 0.57
17 -0.15
18 -0.15
19 -0.15
2 -0.56
20 -0.15
21 0.08
22 0.08
23 -0.15
24 -0.15
25 -0.15
26 -0.15
27 -0.15
3 -0.65
38 0.15
39 0.15
4 -0.65
40 0.37
41 0.15
42 0.15
43 0.4
44 0.15
45 0.15
46 0.15
47 0.15
48 0.15
5 -0.57
6 -0.44
7 -0.17
8 -0.39
9 0.11

> <PUBCHEM_EFFECTIVE_ROTOR_COUNT>
8.2

> <PUBCHEM_PHARMACOPHORE_FEATURES>
9
1 2 acceptor
1 3 acceptor
1 4 acceptor
1 5 acceptor
1 7 acceptor
1 8 donor
6 15 17 18 19 20 21 rings
6 2 9 10 11 13 14 rings
6 22 23 24 25 26 27 rings

> <PUBCHEM_HEAVY_ATOM_COUNT>
27

> <PUBCHEM_ATOM_DEF_STEREO_COUNT>
0

> <PUBCHEM_ATOM_UDEF_STEREO_COUNT>
0

> <PUBCHEM_BOND_DEF_STEREO_COUNT>
0

> <PUBCHEM_BOND_UDEF_STEREO_COUNT>
0

> <PUBCHEM_ISOTOPIC_ATOM_COUNT>
0

> <PUBCHEM_COMPONENT_COUNT>
1

> <PUBCHEM_CACTVS_TAUTO_COUNT>
3

> <PUBCHEM_CONFORMER_ID>
0000111100000001

> <PUBCHEM_MMFF94_ENERGY>
84.7542

> <PUBCHEM_FEATURE_SELFOVERLAP>
45.687

> <PUBCHEM_SHAPE_FINGERPRINT>
11089746 13 18201444683838224511
12166972 35 18113900463652753865
12403259 118 18336271150137346855
12596602 18 17132105828233721649
12633257 1 18273503368153974887
12670546 177 13840273584836943107
12778500 126 16558472014530052685
13402501 40 18412825793956537005
13583140 156 18272077302206181411
14251764 38 18408597085463845097
14466204 15 18341618165013239337
14790565 3 17622995803911393516
14848178 96 18342171164176438173
15238133 3 18272365386973646662
15295992 7 18200591397825948115
15848702 68 18412826850344158484
1601671 61 18410291432665502446
17980427 23 18117021925983124208
19078846 21 18343024372087700618
20715895 44 18337392755324644625
21033648 29 17750536021828182274
21315763 129 18410575068132303143
21315763 76 18409735101499647585
21475661 188 18412825802646217589
21503847 285 18343017766222154054
21521721 280 10159683717047015830
21860390 5 18334568053564367429
21864079 5 18265892458540677221
22149856 69 17531231852675072307
23227448 37 18408884006527399279
23559900 14 18337099172508566199
2838139 119 18187654630266198881
3052486 1 18055631969735740412
345986 75 17415303868535429066
351380 180 18410854382729726023
3680242 22 18199465644259184689
437795 51 12966540077277279750
474 4 18411980265335620471
508706 21 18270682107907934157
5104073 3 17631733764033388939
5895379 119 18041543832559579040
6086070 43 17986418717963610071
6328613 192 18130214974721688172
6371009 1 18410586097687667833
653340 110 18049445043397330665
8509985 295 18201162138823599058

> <PUBCHEM_SHAPE_MULTIPOLES>
519.3
12.37
3.39
1.49
15.45
3.41
0.02
3.62
-1.19
-1.68
-0.12
-1.51
-0.33
-0.16

> <PUBCHEM_SHAPE_SELFOVERLAP>
1102.817

> <PUBCHEM_SHAPE_VOLUME>
288

> <PUBCHEM_COORDINATE_TYPE>
2
5
10

$$$$

