12311183
  -OEChem-07051213113D

 51 53  0     1  0  0  0  0  0999 V2000
    3.4756    1.6523   -1.6988 O   0  0  0  0  0  0  0  0  0  0  0  0
    0.8519   -0.8231    0.2335 C   0  0  1  0  0  0  0  0  0  0  0  0
    1.7682    0.4193   -0.0394 C   0  0  2  0  0  0  0  0  0  0  0  0
   -0.5958   -0.5038   -0.3415 C   0  0  2  0  0  0  0  0  0  0  0  0
    3.2986    0.2090    0.2347 C   0  0  2  0  0  0  0  0  0  0  0  0
    1.4029   -2.0900   -0.4944 C   0  0  0  0  0  0  0  0  0  0  0  0
   -1.0734    0.9190   -0.0943 C   0  0  0  0  0  0  0  0  0  0  0  0
    1.1978    1.6883    0.6343 C   0  0  0  0  0  0  0  0  0  0  0  0
   -1.6590   -1.5334    0.1085 C   0  0  0  0  0  0  0  0  0  0  0  0
    3.7231   -1.2678    0.0861 C   0  0  0  0  0  0  0  0  0  0  0  0
    2.8653   -2.0102   -0.9252 C   0  0  0  0  0  0  0  0  0  0  0  0
    0.7856   -1.1261    1.7541 C   0  0  0  0  0  0  0  0  0  0  0  0
   -3.5289    0.2092   -0.0165 C   0  0  1  0  0  0  0  0  0  0  0  0
   -2.4927    1.2390   -0.5084 C   0  0  0  0  0  0  0  0  0  0  0  0
   -3.0617   -1.2089   -0.4111 C   0  0  0  0  0  0  0  0  0  0  0  0
   -0.2634    1.8819    0.3744 C   0  0  0  0  0  0  0  0  0  0  0  0
    3.8137    0.7405    1.5841 C   0  0  0  0  0  0  0  0  0  0  0  0
    4.0387    1.0037   -0.8232 C   0  0  0  0  0  0  0  0  0  0  0  0
   -3.7291    0.3241    1.5071 C   0  0  0  0  0  0  0  0  0  0  0  0
   -4.8522    0.4944   -0.6862 C   0  0  0  0  0  0  0  0  0  0  0  0
   -5.9651   -0.2172   -0.4778 C   0  0  0  0  0  0  0  0  0  0  0  0
    1.6370    0.5742   -1.1216 H   0  0  0  0  0  0  0  0  0  0  0  0
   -0.5305   -0.5802   -1.4383 H   0  0  0  0  0  0  0  0  0  0  0  0
    0.8179   -2.3116   -1.3958 H   0  0  0  0  0  0  0  0  0  0  0  0
    1.2767   -2.9724    0.1464 H   0  0  0  0  0  0  0  0  0  0  0  0
    1.7306    2.5669    0.2511 H   0  0  0  0  0  0  0  0  0  0  0  0
    1.3450    1.6743    1.7194 H   0  0  0  0  0  0  0  0  0  0  0  0
   -1.7132   -1.5914    1.2001 H   0  0  0  0  0  0  0  0  0  0  0  0
   -1.3789   -2.5337   -0.2424 H   0  0  0  0  0  0  0  0  0  0  0  0
    3.6578   -1.7880    1.0497 H   0  0  0  0  0  0  0  0  0  0  0  0
    4.7742   -1.3398   -0.2219 H   0  0  0  0  0  0  0  0  0  0  0  0
    2.9329   -1.5130   -1.9009 H   0  0  0  0  0  0  0  0  0  0  0  0
    3.2541   -3.0250   -1.0703 H   0  0  0  0  0  0  0  0  0  0  0  0
    1.7769   -1.2612    2.1902 H   0  0  0  0  0  0  0  0  0  0  0  0
    0.2807   -0.3325    2.3131 H   0  0  0  0  0  0  0  0  0  0  0  0
    0.2479   -2.0582    1.9588 H   0  0  0  0  0  0  0  0  0  0  0  0
   -2.7788    2.2448   -0.1710 H   0  0  0  0  0  0  0  0  0  0  0  0
   -2.5017    1.2750   -1.6078 H   0  0  0  0  0  0  0  0  0  0  0  0
   -3.0602   -1.3131   -1.5052 H   0  0  0  0  0  0  0  0  0  0  0  0
   -3.7524   -1.9717   -0.0295 H   0  0  0  0  0  0  0  0  0  0  0  0
   -0.6503    2.8857    0.5302 H   0  0  0  0  0  0  0  0  0  0  0  0
    4.8763    0.5025    1.7180 H   0  0  0  0  0  0  0  0  0  0  0  0
    3.7338    1.8317    1.6493 H   0  0  0  0  0  0  0  0  0  0  0  0
    3.2747    0.3095    2.4315 H   0  0  0  0  0  0  0  0  0  0  0  0
    5.1417    0.9726   -0.7742 H   0  0  0  0  0  0  0  0  0  0  0  0
   -2.7818    0.2581    2.0526 H   0  0  0  0  0  0  0  0  0  0  0  0
   -4.1818    1.2865    1.7761 H   0  0  0  0  0  0  0  0  0  0  0  0
   -4.3772   -0.4687    1.8980 H   0  0  0  0  0  0  0  0  0  0  0  0
   -4.9134    1.3312   -1.3786 H   0  0  0  0  0  0  0  0  0  0  0  0
   -6.8835    0.0457   -0.9921 H   0  0  0  0  0  0  0  0  0  0  0  0
   -5.9945   -1.0656    0.1960 H   0  0  0  0  0  0  0  0  0  0  0  0
  1 18  2  0  0  0  0
  2  3  1  0  0  0  0
  2  4  1  0  0  0  0
  2  6  1  0  0  0  0
  2 12  1  0  0  0  0
  3  5  1  0  0  0  0
  3  8  1  0  0  0  0
  3 22  1  0  0  0  0
  4  7  1  0  0  0  0
  4  9  1  0  0  0  0
  4 23  1  0  0  0  0
  5 10  1  0  0  0  0
  5 17  1  0  0  0  0
  5 18  1  0  0  0  0
  6 11  1  0  0  0  0
  6 24  1  0  0  0  0
  6 25  1  0  0  0  0
  7 14  1  0  0  0  0
  7 16  2  0  0  0  0
  8 16  1  0  0  0  0
  8 26  1  0  0  0  0
  8 27  1  0  0  0  0
  9 15  1  0  0  0  0
  9 28  1  0  0  0  0
  9 29  1  0  0  0  0
 10 11  1  0  0  0  0
 10 30  1  0  0  0  0
 10 31  1  0  0  0  0
 11 32  1  0  0  0  0
 11 33  1  0  0  0  0
 12 34  1  0  0  0  0
 12 35  1  0  0  0  0
 12 36  1  0  0  0  0
 13 14  1  0  0  0  0
 13 15  1  0  0  0  0
 13 19  1  0  0  0  0
 13 20  1  0  0  0  0
 14 37  1  0  0  0  0
 14 38  1  0  0  0  0
 15 39  1  0  0  0  0
 15 40  1  0  0  0  0
 16 41  1  0  0  0  0
 17 42  1  0  0  0  0
 17 43  1  0  0  0  0
 17 44  1  0  0  0  0
 18 45  1  0  0  0  0
 19 46  1  0  0  0  0
 19 47  1  0  0  0  0
 19 48  1  0  0  0  0
 20 21  2  0  0  0  0
 20 49  1  0  0  0  0
 21 50  1  0  0  0  0
 21 51  1  0  0  0  0
M  END
> <PUBCHEM_COMPOUND_CID>
12311183

> <PUBCHEM_CONFORMER_RMSD>
0.6

> <PUBCHEM_CONFORMER_DIVERSEORDER>
3
4
1
2

> <PUBCHEM_MMFF94_PARTIAL_CHARGES>
16
1 -0.57
13 0.14
14 0.14
16 -0.29
18 0.45
20 -0.29
21 -0.3
4 0.14
41 0.15
45 0.06
49 0.15
5 0.06
50 0.15
51 0.15
7 -0.28
8 0.14

> <PUBCHEM_EFFECTIVE_ROTOR_COUNT>
3.8

> <PUBCHEM_PHARMACOPHORE_FEATURES>
5
1 1 acceptor
1 21 hydrophobe
6 2 3 4 7 8 16 rings
6 2 3 5 6 10 11 rings
6 4 7 9 13 14 15 rings

> <PUBCHEM_HEAVY_ATOM_COUNT>
21

> <PUBCHEM_ATOM_DEF_STEREO_COUNT>
5

> <PUBCHEM_ATOM_UDEF_STEREO_COUNT>
0

> <PUBCHEM_BOND_DEF_STEREO_COUNT>
0

> <PUBCHEM_BOND_UDEF_STEREO_COUNT>
0

> <PUBCHEM_ISOTOPIC_ATOM_COUNT>
0

> <PUBCHEM_COMPONENT_COUNT>
1

> <PUBCHEM_CACTVS_TAUTO_COUNT>
1

> <PUBCHEM_CONFORMER_ID>
00BBDA8F00000003

> <PUBCHEM_MMFF94_ENERGY>
72.8293

> <PUBCHEM_FEATURE_SELFOVERLAP>
25.406

> <PUBCHEM_SHAPE_FINGERPRINT>
10366900 7 18186799166837619225
10863032 1 18113616776720672346
10967382 1 18335703853386624806
10980938 120 18408323306429926586
11132069 177 18411144623101626713
11471102 20 18408042917984853415
12011746 2 18408324389178241445
12236239 1 17989212516864363608
12403814 3 17846786204328976525
12553582 1 18335975402694271817
12670546 56 17095525114816158905
13140716 1 18192441765953695352
13221675 6 18410014333991408595
13224815 77 18131062740624348307
13533116 47 17821730572178837903
13583140 156 6194553347547786325
14787075 74 18058718088405465227
14790565 3 18337666546716061041
15196674 1 18335985367381940573
15375358 24 17917992789351932891
15536298 74 18260551151196130351
15635459 17 18335986445086422455
15788980 27 17632298981824292651
15848702 151 17749386031032908047
1601671 61 18409165489345016540
16945 1 18334855000413880008
17834072 33 18040722454840233847
17980427 23 18056216674173490556
18186145 218 17703792513712937518
200 152 17822018597196543477
20645477 70 18412266172417835527
20691752 17 17702370939403817992
21267235 1 18335414716061924014
21285901 2 18270966846785145789
23402539 116 18340497694309172430
23557571 272 17968096490499787184
23558518 356 18049431849130553849
23559900 14 18341330084772933822
2748010 2 18121787385081421124
2871803 45 18271528692704949037
296302 2 16630527323803355241
3004659 81 18342177803826404662
3060560 45 17530683195570322542
3286 77 17458913746292583330
3323516 105 18334011705059932414
34797466 226 16153708678869573785
34934 24 18335149656449919766
350125 39 18264203789427852548
3545911 37 18333733498838359015
4072396 5 18339660991577076338
4340502 62 16415479376782070379
474 4 17917705773640622124
5104073 3 18334576897287132323
537710 114 18408884035869555100
633830 44 17846498140455604607
69090 78 18334581252294422367
7164475 11 18264483073860946788
7364860 26 18187090545998221864
9709674 26 18336261335836447327
9999458 23 16988567900989984754

> <PUBCHEM_SHAPE_MULTIPOLES>
426.3
9.58
2.01
1.27
8.43
0.3
0.3
-0.58
-1.44
-1.31
-0.24
-0.63
-0.16
-0.07

> <PUBCHEM_SHAPE_SELFOVERLAP>
892.896

> <PUBCHEM_SHAPE_VOLUME>
238

> <PUBCHEM_COORDINATE_TYPE>
2
5
10

$$$$

