441706
  -OEChem-07051212552D

 59 64  0     1  0  0  0  0  0999 V2000
    4.8455    1.2427    0.0000 O   0  0  0  0  0  0  0  0  0  0  0  0
    3.0025    0.5510    0.0000 O   0  0  0  0  0  0  0  0  0  0  0  0
    2.6091   -1.0348    0.0000 O   0  0  0  0  0  0  0  0  0  0  0  0
    5.1173    0.0237    0.0000 N   0  0  3  0  0  0  0  0  0  0  0  0
    5.7193   -1.2754    0.0000 C   0  0  2  0  0  0  0  0  0  0  0  0
    4.8533   -0.7754    0.0000 C   0  0  1  0  0  0  0  0  0  0  0  0
    4.8533    0.2246    0.0000 C   0  0  1  0  0  0  0  0  0  0  0  0
    6.5854   -0.7754    0.0000 C   0  0  1  0  0  0  0  0  0  0  0  0
    5.7193    0.7246    0.0000 C   0  0  1  0  0  0  0  0  0  0  0  0
    3.9638    0.7382    0.0000 C   0  0  3  0  0  0  0  0  0  0  0  0
    7.4954   -1.2822    0.0000 C   0  0  2  0  0  0  0  0  0  0  0  0
    6.5854    0.2246    0.0000 C   0  0  0  0  0  0  0  0  0  0  0  0
    5.7033   -2.3169    0.0000 C   0  0  0  0  0  0  0  0  0  0  0  0
    3.6478   -1.7090    0.0000 C   0  0  0  0  0  0  0  0  0  0  0  0
    5.7193    0.7246    0.0000 C   0  0  0  0  0  0  0  0  0  0  0  0
    3.9873    0.7246    0.0000 C   0  0  1  0  0  0  0  0  0  0  0  0
    4.8533    2.2246    0.0000 C   0  0  2  0  0  0  0  0  0  0  0  0
    6.2949   -0.6500    0.0000 C   0  0  0  0  0  0  0  0  0  0  0  0
    7.5034   -2.3238    0.0000 C   0  0  0  0  0  0  0  0  0  0  0  0
    5.7193    1.7246    0.0000 C   0  0  0  0  0  0  0  0  0  0  0  0
    6.6013   -2.8446    0.0000 C   0  0  0  0  0  0  0  0  0  0  0  0
    3.9873    1.7246    0.0000 C   0  0  0  0  0  0  0  0  0  0  0  0
    8.3555   -0.7722    0.0000 C   0  0  0  0  0  0  0  0  0  0  0  0
    4.2446   -0.4645    0.0000 C   0  0  0  0  0  0  0  0  0  0  0  0
    3.1213    2.2246    0.0000 C   0  0  0  0  0  0  0  0  0  0  0  0
    3.2622   -0.2775    0.0000 C   0  0  0  0  0  0  0  0  0  0  0  0
    4.8533   -1.6254    0.0000 H   0  0  0  0  0  0  0  0  0  0  0  0
    7.3215   -0.3504    0.0000 H   0  0  0  0  0  0  0  0  0  0  0  0
    6.4555    1.1496    0.0000 H   0  0  0  0  0  0  0  0  0  0  0  0
    3.1257    0.8795    0.0000 H   0  0  0  0  0  0  0  0  0  0  0  0
    7.1960    0.1170    0.0000 H   0  0  0  0  0  0  0  0  0  0  0  0
    6.7974    0.8072    0.0000 H   0  0  0  0  0  0  0  0  0  0  0  0
    5.0941   -2.2014    0.0000 H   0  0  0  0  0  0  0  0  0  0  0  0
    5.4852   -2.8973    0.0000 H   0  0  0  0  0  0  0  0  0  0  0  0
    3.0280   -1.7223    0.0000 H   0  0  0  0  0  0  0  0  0  0  0  0
    3.8548   -2.2935    0.0000 H   0  0  0  0  0  0  0  0  0  0  0  0
    5.9314    0.1420    0.0000 H   0  0  0  0  0  0  0  0  0  0  0  0
    6.3299    0.8323    0.0000 H   0  0  0  0  0  0  0  0  0  0  0  0
    3.8796    0.1141    0.0000 H   0  0  0  0  0  0  0  0  0  0  0  0
    4.8533    3.0746    0.0000 H   0  0  0  0  0  0  0  0  0  0  0  0
    5.7629   -0.9683    0.0000 H   0  0  0  0  0  0  0  0  0  0  0  0
    6.5934   -0.1065    0.0000 H   0  0  0  0  0  0  0  0  0  0  0  0
    7.7170   -2.9059    0.0000 H   0  0  0  0  0  0  0  0  0  0  0  0
    8.1134   -2.2130    0.0000 H   0  0  0  0  0  0  0  0  0  0  0  0
    6.3299    1.6170    0.0000 H   0  0  0  0  0  0  0  0  0  0  0  0
    5.9314    2.3072    0.0000 H   0  0  0  0  0  0  0  0  0  0  0  0
    6.2004   -3.3175    0.0000 H   0  0  0  0  0  0  0  0  0  0  0  0
    6.9986   -3.3206    0.0000 H   0  0  0  0  0  0  0  0  0  0  0  0
    8.6717   -1.3056    0.0000 H   0  0  0  0  0  0  0  0  0  0  0  0
    8.8889   -0.4560    0.0000 H   0  0  0  0  0  0  0  0  0  0  0  0
    8.0394   -0.2389    0.0000 H   0  0  0  0  0  0  0  0  0  0  0  0
    3.9588   -1.0148    0.0000 H   0  0  0  0  0  0  0  0  0  0  0  0
    4.6898   -0.8961    0.0000 H   0  0  0  0  0  0  0  0  0  0  0  0
    2.6040    1.0260    0.0000 H   0  0  0  0  0  0  0  0  0  0  0  0
    3.1213    2.8446    0.0000 H   0  0  0  0  0  0  0  0  0  0  0  0
    2.5843    1.9146    0.0000 H   0  0  0  0  0  0  0  0  0  0  0  0
    3.4821    0.3022    0.0000 H   0  0  0  0  0  0  0  0  0  0  0  0
    2.7295    0.0398    0.0000 H   0  0  0  0  0  0  0  0  0  0  0  0
    2.0000   -0.9188    0.0000 H   0  0  0  0  0  0  0  0  0  0  0  0
  1  9  1  0  0  0  0
  1 10  1  0  0  0  0
 16  2  1  6  0  0  0
  2 54  1  0  0  0  0
  3 26  1  0  0  0  0
  3 59  1  0  0  0  0
  4 10  1  0  0  0  0
  4 18  1  0  0  0  0
  4 24  1  0  0  0  0
  5  6  1  0  0  0  0
  5  8  1  0  0  0  0
  5 10  1  0  0  0  0
  5 13  1  6  0  0  0
  6  7  1  0  0  0  0
  6 14  1  0  0  0  0
  6 27  1  1  0  0  0
  7  9  1  0  0  0  0
  7 15  1  6  0  0  0
  7 16  1  0  0  0  0
  8 11  1  0  0  0  0
  8 12  1  0  0  0  0
  8 28  1  1  0  0  0
  9 12  1  0  0  0  0
  9 29  1  1  0  0  0
 10 30  1  0  0  0  0
 11 18  1  0  0  0  0
 11 19  1  0  0  0  0
 11 23  1  6  0  0  0
 12 31  1  0  0  0  0
 12 32  1  0  0  0  0
 13 21  1  0  0  0  0
 13 33  1  0  0  0  0
 13 34  1  0  0  0  0
 14 17  1  0  0  0  0
 14 35  1  0  0  0  0
 14 36  1  0  0  0  0
 15 20  1  0  0  0  0
 15 37  1  0  0  0  0
 15 38  1  0  0  0  0
 16 22  1  0  0  0  0
 16 39  1  0  0  0  0
 17 20  1  0  0  0  0
 17 22  1  0  0  0  0
 17 40  1  6  0  0  0
 18 41  1  0  0  0  0
 18 42  1  0  0  0  0
 19 21  1  0  0  0  0
 19 43  1  0  0  0  0
 19 44  1  0  0  0  0
 20 45  1  0  0  0  0
 20 46  1  0  0  0  0
 21 47  1  0  0  0  0
 21 48  1  0  0  0  0
 22 25  2  0  0  0  0
 23 49  1  0  0  0  0
 23 50  1  0  0  0  0
 23 51  1  0  0  0  0
 24 26  1  0  0  0  0
 24 52  1  0  0  0  0
 24 53  1  0  0  0  0
 25 55  1  0  0  0  0
 25 56  1  0  0  0  0
 26 57  1  0  0  0  0
 26 58  1  0  0  0  0
M  END
> <PUBCHEM_COMPOUND_CID>
441706

> <PUBCHEM_COMPOUND_CANONICALIZED>
1

> <PUBCHEM_CACTVS_COMPLEXITY>
666

> <PUBCHEM_CACTVS_HBOND_ACCEPTOR>
4

> <PUBCHEM_CACTVS_HBOND_DONOR>
2

> <PUBCHEM_CACTVS_ROTATABLE_BOND>
2

> <PUBCHEM_CACTVS_SUBSKEYS>
AAADcfB6MAAAAAAAAAAAAAAAAAAAAAAAAAA8aMGDAAAWLADQAAAAHgAACAAADxThgAYCAAMABgCAAgBCAAAAAAAgAAAAAAAIAAgCFAIAgQAOQAAFgACQEAGQ8P4PgAAAAAAAAADAAAYAADAAAAAAAAAAAA==

> <PUBCHEM_IUPAC_INCHI>
InChI=1S/C22H33NO3/c1-13-14-4-7-22(18(13)25)16(10-14)21-6-3-5-20(2)12-23(8-9-24)19(21)26-17(22)11-15(20)21/h14-19,24-25H,1,3-12H2,2H3/t14-,15+,16-,17+,18+,19?,20-,21-,22+/m0/s1

> <PUBCHEM_IUPAC_INCHIKEY>
RLXRCZIALRMBJR-VRMMQTGXSA-N

> <PUBCHEM_XLOGP3_AA>
2.4

> <PUBCHEM_EXACT_MASS>
359.246044

> <PUBCHEM_MOLECULAR_FORMULA>
C22H33NO3

> <PUBCHEM_MOLECULAR_WEIGHT>
359.50232

> <PUBCHEM_OPENEYE_CAN_SMILES>
CC12CCCC34C1CC(C56C3CC(CC5)C(=C)C6O)OC4N(C2)CCO

> <PUBCHEM_OPENEYE_ISO_SMILES>
C[C@@]12CCC[C@]34[C@@H]1C[C@H]([C@]56[C@H]3C[C@H](CC5)C(=C)[C@H]6O)OC4N(C2)CCO

> <PUBCHEM_CACTVS_TPSA>
52.9

> <PUBCHEM_MONOISOTOPIC_WEIGHT>
359.246044

> <PUBCHEM_TOTAL_CHARGE>
0

> <PUBCHEM_HEAVY_ATOM_COUNT>
26

> <PUBCHEM_ATOM_DEF_STEREO_COUNT>
8

> <PUBCHEM_ATOM_UDEF_STEREO_COUNT>
1

> <PUBCHEM_BOND_DEF_STEREO_COUNT>
0

> <PUBCHEM_BOND_UDEF_STEREO_COUNT>
0

> <PUBCHEM_ISOTOPIC_ATOM_COUNT>
0

> <PUBCHEM_COMPONENT_COUNT>
1

> <PUBCHEM_CACTVS_TAUTO_COUNT>
1

> <PUBCHEM_COORDINATE_TYPE>
1
5
255

> <PUBCHEM_BONDANNOTATIONS>
10  30  3
11  23  6
17  40  6
16  2  6
5  13  6
6  27  5
7  15  6
8  28  5
9  29  5

$$$$

