50465
  -OEChem-07051213123D

 20 20  0     0  0  0  0  0  0999 V2000
    0.2739   -2.8782    0.0016 Cl  0  0  0  0  0  0  0  0  0  0  0  0
    4.1648    0.9420    0.0059 Cl  0  0  0  0  0  0  0  0  0  0  0  0
    1.8398    2.7043   -0.0044 F   0  0  0  0  0  0  0  0  0  0  0  0
   -1.4782   -0.4801   -0.0081 O   0  0  0  0  0  0  0  0  0  0  0  0
   -4.6390    1.2079    0.0274 O   0  0  0  0  0  0  0  0  0  0  0  0
   -4.1476   -1.0158   -0.0093 O   0  0  0  0  0  0  0  0  0  0  0  0
    0.1895    1.1112   -0.0064 N   0  0  0  0  0  0  0  0  0  0  0  0
    3.1289   -1.9039    0.0081 N   0  0  0  0  0  0  0  0  0  0  0  0
    2.1397   -0.8913    0.0032 C   0  0  0  0  0  0  0  0  0  0  0  0
   -0.1362   -0.2009   -0.0048 C   0  0  0  0  0  0  0  0  0  0  0  0
    0.7912   -1.2303   -0.0001 C   0  0  0  0  0  0  0  0  0  0  0  0
    2.5143    0.4477    0.0019 C   0  0  0  0  0  0  0  0  0  0  0  0
    1.5097    1.4021   -0.0029 C   0  0  0  0  0  0  0  0  0  0  0  0
   -2.3633    0.6335   -0.0129 C   0  0  0  0  0  0  0  0  0  0  0  0
   -3.7875    0.1518    0.0008 C   0  0  0  0  0  0  0  0  0  0  0  0
   -2.2072    1.2400    0.8870 H   0  0  0  0  0  0  0  0  0  0  0  0
   -2.2176    1.2248   -0.9244 H   0  0  0  0  0  0  0  0  0  0  0  0
    4.1082   -1.6516    0.0100 H   0  0  0  0  0  0  0  0  0  0  0  0
    2.8536   -2.8770    0.0087 H   0  0  0  0  0  0  0  0  0  0  0  0
   -5.5772    0.9216    0.0373 H   0  0  0  0  0  0  0  0  0  0  0  0
  1 11  1  0  0  0  0
  2 12  1  0  0  0  0
  3 13  1  0  0  0  0
  4 10  1  0  0  0  0
  4 14  1  0  0  0  0
  5 15  1  0  0  0  0
  5 20  1  0  0  0  0
  6 15  2  0  0  0  0
  7 10  2  0  0  0  0
  7 13  1  0  0  0  0
  8  9  1  0  0  0  0
  8 18  1  0  0  0  0
  8 19  1  0  0  0  0
  9 11  2  0  0  0  0
  9 12  1  0  0  0  0
 10 11  1  0  0  0  0
 12 13  2  0  0  0  0
 14 15  1  0  0  0  0
 14 16  1  0  0  0  0
 14 17  1  0  0  0  0
M  END
> <PUBCHEM_COMPOUND_CID>
50465

> <PUBCHEM_CONFORMER_RMSD>
0.6

> <PUBCHEM_CONFORMER_DIVERSEORDER>
1
19
12
11
9
20
3
18
15
17
14
7
10
13
2
5
6
4
8
16

> <PUBCHEM_MMFF94_PARTIAL_CHARGES>
18
1 -0.18
10 0.39
11 0.18
12 0.18
13 0.5
14 0.34
15 0.66
18 0.4
19 0.4
2 -0.18
20 0.5
3 -0.19
4 -0.36
5 -0.65
6 -0.57
7 -0.62
8 -0.9
9 0.1

> <PUBCHEM_EFFECTIVE_ROTOR_COUNT>
3

> <PUBCHEM_PHARMACOPHORE_FEATURES>
6
1 5 acceptor
1 6 acceptor
1 8 cation
1 8 donor
3 5 6 15 anion
6 7 9 10 11 12 13 rings

> <PUBCHEM_HEAVY_ATOM_COUNT>
15

> <PUBCHEM_ATOM_DEF_STEREO_COUNT>
0

> <PUBCHEM_ATOM_UDEF_STEREO_COUNT>
0

> <PUBCHEM_BOND_DEF_STEREO_COUNT>
0

> <PUBCHEM_BOND_UDEF_STEREO_COUNT>
0

> <PUBCHEM_ISOTOPIC_ATOM_COUNT>
0

> <PUBCHEM_COMPONENT_COUNT>
1

> <PUBCHEM_CACTVS_TAUTO_COUNT>
2

> <PUBCHEM_CONFORMER_ID>
0000C52100000001

> <PUBCHEM_MMFF94_ENERGY>
41.7284

> <PUBCHEM_FEATURE_SELFOVERLAP>
30.502

> <PUBCHEM_SHAPE_FINGERPRINT>
10219947 1 18410572920047196946
10608611 8 18341897398534141853
10967382 1 18410856564288269190
10980938 120 18411419531078609858
11471102 20 18411142471586852933
12346645 6 18409167727191497054
13140716 1 18122916317794396168
13380535 76 18338797814841101474
13380536 305 18410570673990213318
13922767 16 18410014325143238537
14251717 144 18410858780275265575
14325111 11 18410856542929399301
14415576 193 18412542141367649029
14911166 2 18336817616285601460
15196674 1 18410575097859464003
15442244 35 17975974585728431233
15501101 241 18201437012414398957
15536298 74 18333449867555840230
16945 1 18338797806556823160
18186145 218 18261382356485814137
193761 8 17906170655535760590
200 152 18187091650590774501
20606313 2 18410856585557325412
20645477 70 18336267950481598743
20871998 22 17973722768603339334
21501502 16 18051980212515353406
21524375 3 18270401585711979066
221490 88 18340760464598054435
23402539 116 18260555493661345868
23402655 69 18335706065679936821
25 1 18412265025576976438
2748010 2 18339631253192246670
3060560 45 18335701662974526774
3071541 37 18342450457172417470
4990 188 17968365797707613148
5104073 3 18411136957102040283
53812653 166 18335987467652642456
7364860 26 18336546135101897231
8272917 22 18335977675037458807

> <PUBCHEM_SHAPE_MULTIPOLES>
277.59
7.36
2.46
0.58
6.84
0.87
0
-2.04
0.03
-1.35
0
-0.05
0.02
-0.01

> <PUBCHEM_SHAPE_SELFOVERLAP>
563.336

> <PUBCHEM_SHAPE_VOLUME>
163.6

> <PUBCHEM_COORDINATE_TYPE>
2
5
10

$$$$

