13192
  -OEChem-06261207523D

 24 23  0     0  0  0  0  0  0999 V2000
    5.8902   -0.4591   -0.2608 O   0  0  0  0  0  0  0  0  0  0  0  0
   -5.8892    0.4941    0.1403 O   0  0  0  0  0  0  0  0  0  0  0  0
    3.6433   -0.1566    0.3587 N   0  0  0  0  0  0  0  0  0  0  0  0
   -3.6270    0.1396   -0.3897 N   0  0  0  0  0  0  0  0  0  0  0  0
    0.7253   -0.0812   -0.1798 C   0  0  0  0  0  0  0  0  0  0  0  0
   -0.7347    0.0736    0.2528 C   0  0  0  0  0  0  0  0  0  0  0  0
    1.5624    1.1279    0.2478 C   0  0  0  0  0  0  0  0  0  0  0  0
   -1.5626   -1.1535   -0.1397 C   0  0  0  0  0  0  0  0  0  0  0  0
    3.0104    1.0299   -0.2199 C   0  0  0  0  0  0  0  0  0  0  0  0
   -3.0269   -1.0237    0.2657 C   0  0  0  0  0  0  0  0  0  0  0  0
    4.7656   -0.3063    0.0482 C   0  0  0  0  0  0  0  0  0  0  0  0
   -4.7569    0.3153   -0.1239 C   0  0  0  0  0  0  0  0  0  0  0  0
    1.1360   -0.9972    0.2609 H   0  0  0  0  0  0  0  0  0  0  0  0
    0.7743   -0.1954   -1.2695 H   0  0  0  0  0  0  0  0  0  0  0  0
   -1.1497    0.9765   -0.2101 H   0  0  0  0  0  0  0  0  0  0  0  0
   -0.7847    0.2145    1.3394 H   0  0  0  0  0  0  0  0  0  0  0  0
    1.5372    1.2171    1.3410 H   0  0  0  0  0  0  0  0  0  0  0  0
    1.1200    2.0444   -0.1606 H   0  0  0  0  0  0  0  0  0  0  0  0
   -1.1402   -2.0490    0.3316 H   0  0  0  0  0  0  0  0  0  0  0  0
   -1.4994   -1.3000   -1.2252 H   0  0  0  0  0  0  0  0  0  0  0  0
    3.5419    1.9390    0.0921 H   0  0  0  0  0  0  0  0  0  0  0  0
    3.0360    0.9878   -1.3173 H   0  0  0  0  0  0  0  0  0  0  0  0
   -3.5542   -1.9423   -0.0244 H   0  0  0  0  0  0  0  0  0  0  0  0
   -3.0935   -0.9310    1.3583 H   0  0  0  0  0  0  0  0  0  0  0  0
  1 11  2  0  0  0  0
  2 12  2  0  0  0  0
  3  9  1  0  0  0  0
  3 11  2  0  0  0  0
  4 10  1  0  0  0  0
  4 12  2  0  0  0  0
  5  6  1  0  0  0  0
  5  7  1  0  0  0  0
  5 13  1  0  0  0  0
  5 14  1  0  0  0  0
  6  8  1  0  0  0  0
  6 15  1  0  0  0  0
  6 16  1  0  0  0  0
  7  9  1  0  0  0  0
  7 17  1  0  0  0  0
  7 18  1  0  0  0  0
  8 10  1  0  0  0  0
  8 19  1  0  0  0  0
  8 20  1  0  0  0  0
  9 21  1  0  0  0  0
  9 22  1  0  0  0  0
 10 23  1  0  0  0  0
 10 24  1  0  0  0  0
M  END
> <PUBCHEM_COMPOUND_CID>
13192

> <PUBCHEM_CONFORMER_RMSD>
0.8

> <PUBCHEM_CONFORMER_DIVERSEORDER>
1
118
77
100
2
127
16
67
20
124
119
53
102
11
54
28
123
10
39
47
55
113
35
112
23
27
98
128
83
19
108
9
50
57
97
31
14
12
126
5
69
78
38
109
59
104
64
7
18
58
116
13
110
4
132
46
29
41
106
91
51
95
114
6
15
33
24
36
61
129
45
49
3
84
117
73
107
89
65
131
80
25
96
85
52
63
8
81
120
94
26
111
30
71
74
103
62
101
92
134
44
121
76
115
88
66
17
21
70
42
99
133
48
122
82
43
75
90
68
86
22
105
135
60
93
34
72
87
79
56
130
32
37
40
125

> <PUBCHEM_MMFF94_PARTIAL_CHARGES>
8
1 -0.49
10 0.25
11 0.79
12 0.79
2 -0.49
3 -0.55
4 -0.55
9 0.25

> <PUBCHEM_EFFECTIVE_ROTOR_COUNT>
7

> <PUBCHEM_PHARMACOPHORE_FEATURES>
3
1 3 acceptor
1 4 acceptor
4 5 6 7 8 hydrophobe

> <PUBCHEM_HEAVY_ATOM_COUNT>
12

> <PUBCHEM_ATOM_DEF_STEREO_COUNT>
0

> <PUBCHEM_ATOM_UDEF_STEREO_COUNT>
0

> <PUBCHEM_BOND_DEF_STEREO_COUNT>
0

> <PUBCHEM_BOND_UDEF_STEREO_COUNT>
0

> <PUBCHEM_ISOTOPIC_ATOM_COUNT>
0

> <PUBCHEM_COMPONENT_COUNT>
1

> <PUBCHEM_CACTVS_TAUTO_COUNT>
1

> <PUBCHEM_CONFORMER_ID>
0000338800000001

> <PUBCHEM_MMFF94_ENERGY>
4.1329

> <PUBCHEM_FEATURE_SELFOVERLAP>
15.223

> <PUBCHEM_SHAPE_FINGERPRINT>
11401426 45 16588025705984183957
114248 4 9943807789628153366
124424 183 18259983747509173393
12815109 37 18260267447627089826
14123238 8 9655577413360357992
1420 363 8862943900470981556
14251718 22 9295286140594094813
14251731 8 18342740719140480270
15242439 84 18411982446688110698
15531645 54 18408322202538766613
17834072 8 18411982463862711662
17834076 25 18113056043080944151
18186145 218 17202776898958621196
19489759 90 16008744727825239443
20279233 1 15647327511753911838
20621476 66 18411133654140774609
20645477 70 18408039594302827582
20724930 37 16370725920310027656
20724930 69 18408603673885109289
20767249 13 14634588272300677253
212847 35 18410572859960171108
22485316 2 18336268947008677314
23218964 4 18413390951137513213
23402539 116 17676493843503392989
23590187 130 18060138760281004477
42788 4 18410575080373399365
449060 50 10159701296062782336
474229 33 9151170956697668329

> <PUBCHEM_SHAPE_MULTIPOLES>
225.25
13.3
1.07
0.64
0.08
0
0
-0.08
0.43
-0.02
-0.01
0.01
0
0.06

> <PUBCHEM_SHAPE_SELFOVERLAP>
423.205

> <PUBCHEM_SHAPE_VOLUME>
137.6

> <PUBCHEM_COORDINATE_TYPE>
2
5
10

$$$$

