583405
  -OEChem-06241222453D

 29 29  0     1  0  0  0  0  0999 V2000
    4.1736   -1.3159    0.5835 O   0  0  0  0  0  0  0  0  0  0  0  0
    0.9139    1.4406   -0.2908 C   0  0  1  0  0  0  0  0  0  0  0  0
    2.1360    0.5752    0.0815 C   0  0  0  0  0  0  0  0  0  0  0  0
   -0.4078    0.7054   -0.1505 C   0  0  0  0  0  0  0  0  0  0  0  0
    0.9071    2.7239    0.5486 C   0  0  0  0  0  0  0  0  0  0  0  0
    2.2223   -0.7165   -0.7322 C   0  0  0  0  0  0  0  0  0  0  0  0
   -1.2054    0.5414   -1.2663 C   0  0  0  0  0  0  0  0  0  0  0  0
   -0.7761    0.2207    1.0895 C   0  0  0  0  0  0  0  0  0  0  0  0
   -2.8113   -0.6316    0.1053 C   0  0  0  0  0  0  0  0  0  0  0  0
   -2.4192   -0.1337   -1.1371 C   0  0  0  0  0  0  0  0  0  0  0  0
   -1.9899   -0.4545    1.2186 C   0  0  0  0  0  0  0  0  0  0  0  0
    3.3653   -1.6009   -0.2934 C   0  0  0  0  0  0  0  0  0  0  0  0
   -4.1086   -1.3542    0.2432 C   0  0  0  0  0  0  0  0  0  0  0  0
    1.0389    1.7454   -1.3391 H   0  0  0  0  0  0  0  0  0  0  0  0
    3.0530    1.1587   -0.0753 H   0  0  0  0  0  0  0  0  0  0  0  0
    2.1165    0.3295    1.1513 H   0  0  0  0  0  0  0  0  0  0  0  0
    0.8587    2.5170    1.6232 H   0  0  0  0  0  0  0  0  0  0  0  0
    0.0504    3.3569    0.2909 H   0  0  0  0  0  0  0  0  0  0  0  0
    1.8172    3.3059    0.3658 H   0  0  0  0  0  0  0  0  0  0  0  0
    2.3617   -0.4907   -1.7946 H   0  0  0  0  0  0  0  0  0  0  0  0
    1.3141   -1.3178   -0.6264 H   0  0  0  0  0  0  0  0  0  0  0  0
   -0.9103    0.9236   -2.2389 H   0  0  0  0  0  0  0  0  0  0  0  0
   -0.1496    0.3474    1.9668 H   0  0  0  0  0  0  0  0  0  0  0  0
   -3.0496   -0.2672   -2.0123 H   0  0  0  0  0  0  0  0  0  0  0  0
   -2.2835   -0.8399    2.1915 H   0  0  0  0  0  0  0  0  0  0  0  0
    3.4450   -2.5592   -0.8351 H   0  0  0  0  0  0  0  0  0  0  0  0
   -4.5336   -1.2161    1.2432 H   0  0  0  0  0  0  0  0  0  0  0  0
   -4.8477   -0.9794   -0.4731 H   0  0  0  0  0  0  0  0  0  0  0  0
   -3.9625   -2.4248    0.0688 H   0  0  0  0  0  0  0  0  0  0  0  0
  1 12  2  0  0  0  0
  2  3  1  0  0  0  0
  2  4  1  0  0  0  0
  2  5  1  0  0  0  0
  2 14  1  0  0  0  0
  3  6  1  0  0  0  0
  3 15  1  0  0  0  0
  3 16  1  0  0  0  0
  4  7  2  0  0  0  0
  4  8  1  0  0  0  0
  5 17  1  0  0  0  0
  5 18  1  0  0  0  0
  5 19  1  0  0  0  0
  6 12  1  0  0  0  0
  6 20  1  0  0  0  0
  6 21  1  0  0  0  0
  7 10  1  0  0  0  0
  7 22  1  0  0  0  0
  8 11  2  0  0  0  0
  8 23  1  0  0  0  0
  9 10  2  0  0  0  0
  9 11  1  0  0  0  0
  9 13  1  0  0  0  0
 10 24  1  0  0  0  0
 11 25  1  0  0  0  0
 12 26  1  0  0  0  0
 13 27  1  0  0  0  0
 13 28  1  0  0  0  0
 13 29  1  0  0  0  0
M  END
> <PUBCHEM_COMPOUND_CID>
583405

> <PUBCHEM_CONFORMER_RMSD>
0.6

> <PUBCHEM_CONFORMER_DIVERSEORDER>
2
10
18
7
20
19
3
13
9
8
5
14
16
17
4
12
15
1
6
11

> <PUBCHEM_MMFF94_PARTIAL_CHARGES>
16
1 -0.57
10 -0.15
11 -0.15
12 0.45
13 0.14
2 0.14
22 0.15
23 0.15
24 0.15
25 0.15
26 0.06
4 -0.14
6 0.06
7 -0.15
8 -0.15
9 -0.14

> <PUBCHEM_EFFECTIVE_ROTOR_COUNT>
4

> <PUBCHEM_PHARMACOPHORE_FEATURES>
3
1 1 acceptor
1 5 hydrophobe
6 4 7 8 9 10 11 rings

> <PUBCHEM_HEAVY_ATOM_COUNT>
13

> <PUBCHEM_ATOM_DEF_STEREO_COUNT>
0

> <PUBCHEM_ATOM_UDEF_STEREO_COUNT>
1

> <PUBCHEM_BOND_DEF_STEREO_COUNT>
0

> <PUBCHEM_BOND_UDEF_STEREO_COUNT>
0

> <PUBCHEM_ISOTOPIC_ATOM_COUNT>
0

> <PUBCHEM_COMPONENT_COUNT>
1

> <PUBCHEM_CACTVS_TAUTO_COUNT>
2

> <PUBCHEM_CONFORMER_ID>
0008E6ED00000002

> <PUBCHEM_MMFF94_ENERGY>
27.0172

> <PUBCHEM_FEATURE_SELFOVERLAP>
15.223

> <PUBCHEM_SHAPE_FINGERPRINT>
10465860 71 16056596521869817159
10857977 72 14273727413845957881
11127187 94 17846215608901251463
11769659 78 18262237708024081663
12202030 40 17916290650462006643
12251169 10 15068627084313876146
15422964 175 18189046650367719942
16945 1 18190465948048753653
17834072 14 18340783618956202960
17841504 4 18336542733493060585
18186145 218 11887663005540983630
20201158 50 18201998858693444490
20361792 2 18333731338258695860
20645477 70 18268718216673330495
20671657 53 18411415115846948328
20711985 344 17914343617412467724
21061003 4 18334296495746075348
21296965 67 18409167739997413952
22802520 49 17131822153664185713
228727 97 14045745923915230445
23403322 49 18058170694929598034
23526113 38 17846214402026081824
23557571 272 15911621429501046416
23559900 14 17915757551348898538
27216 239 7420071258482747622
3286 77 18341048528106987423
4072396 5 16588009226843821027
81228 2 17975407237771099448
90316 7 15936406762590816091

> <PUBCHEM_SHAPE_MULTIPOLES>
261.66
6.25
1.98
1.15
0.77
0.98
-0.05
-4.91
0.43
1.57
0.26
-0.49
0.03
0.26

> <PUBCHEM_SHAPE_SELFOVERLAP>
528.18

> <PUBCHEM_SHAPE_VOLUME>
154

> <PUBCHEM_COORDINATE_TYPE>
2
5
10

$$$$

