12657825
  -OEChem-07051213132D

 35 35  0     0  0  0  0  0  0999 V2000
    3.7320   -4.2500    0.0000 Cl  0  0  0  0  0  0  0  0  0  0  0  0
    4.5981    1.2500    0.0000 N   0  0  0  0  0  0  0  0  0  0  0  0
    3.7320   -0.2500    0.0000 N   0  0  0  0  0  0  0  0  0  0  0  0
    5.4641    2.7500    0.0000 C   0  0  0  0  0  0  0  0  0  0  0  0
    5.4641    1.7500    0.0000 C   0  0  0  0  0  0  0  0  0  0  0  0
    6.3301    3.2500    0.0000 C   0  0  0  0  0  0  0  0  0  0  0  0
    6.3301    4.2500    0.0000 C   0  0  0  0  0  0  0  0  0  0  0  0
    3.7320    1.7500    0.0000 C   0  0  0  0  0  0  0  0  0  0  0  0
    4.5981    0.2500    0.0000 C   0  0  0  0  0  0  0  0  0  0  0  0
    3.7320   -1.2500    0.0000 C   0  0  0  0  0  0  0  0  0  0  0  0
    2.8660   -1.7500    0.0000 C   0  0  0  0  0  0  0  0  0  0  0  0
    4.5981   -1.7500    0.0000 C   0  0  0  0  0  0  0  0  0  0  0  0
    2.8660   -2.7500    0.0000 C   0  0  0  0  0  0  0  0  0  0  0  0
    2.0000   -1.2500    0.0000 C   0  0  0  0  0  0  0  0  0  0  0  0
    4.5981   -2.7500    0.0000 C   0  0  0  0  0  0  0  0  0  0  0  0
    3.7320   -3.2500    0.0000 C   0  0  0  0  0  0  0  0  0  0  0  0
    5.2520    3.3326    0.0000 H   0  0  0  0  0  0  0  0  0  0  0  0
    4.8535    2.6423    0.0000 H   0  0  0  0  0  0  0  0  0  0  0  0
    5.6762    1.1674    0.0000 H   0  0  0  0  0  0  0  0  0  0  0  0
    6.0747    1.8577    0.0000 H   0  0  0  0  0  0  0  0  0  0  0  0
    6.5422    2.6674    0.0000 H   0  0  0  0  0  0  0  0  0  0  0  0
    6.9407    3.3577    0.0000 H   0  0  0  0  0  0  0  0  0  0  0  0
    6.9501    4.2500    0.0000 H   0  0  0  0  0  0  0  0  0  0  0  0
    6.3301    4.8700    0.0000 H   0  0  0  0  0  0  0  0  0  0  0  0
    5.7101    4.2500    0.0000 H   0  0  0  0  0  0  0  0  0  0  0  0
    4.0420    2.2869    0.0000 H   0  0  0  0  0  0  0  0  0  0  0  0
    3.1951    2.0600    0.0000 H   0  0  0  0  0  0  0  0  0  0  0  0
    3.4220    1.2131    0.0000 H   0  0  0  0  0  0  0  0  0  0  0  0
    5.1350   -0.0600    0.0000 H   0  0  0  0  0  0  0  0  0  0  0  0
    5.1350   -1.4400    0.0000 H   0  0  0  0  0  0  0  0  0  0  0  0
    2.3291   -3.0600    0.0000 H   0  0  0  0  0  0  0  0  0  0  0  0
    2.3100   -0.7131    0.0000 H   0  0  0  0  0  0  0  0  0  0  0  0
    1.4631   -0.9400    0.0000 H   0  0  0  0  0  0  0  0  0  0  0  0
    1.6900   -1.7869    0.0000 H   0  0  0  0  0  0  0  0  0  0  0  0
    5.1350   -3.0600    0.0000 H   0  0  0  0  0  0  0  0  0  0  0  0
  1 16  1  0  0  0  0
  2  5  1  0  0  0  0
  2  8  1  0  0  0  0
  2  9  1  0  0  0  0
  3  9  2  0  0  0  0
  3 10  1  0  0  0  0
  4  5  1  0  0  0  0
  4  6  1  0  0  0  0
  4 17  1  0  0  0  0
  4 18  1  0  0  0  0
  5 19  1  0  0  0  0
  5 20  1  0  0  0  0
  6  7  1  0  0  0  0
  6 21  1  0  0  0  0
  6 22  1  0  0  0  0
  7 23  1  0  0  0  0
  7 24  1  0  0  0  0
  7 25  1  0  0  0  0
  8 26  1  0  0  0  0
  8 27  1  0  0  0  0
  8 28  1  0  0  0  0
  9 29  1  0  0  0  0
 10 11  2  0  0  0  0
 10 12  1  0  0  0  0
 11 13  1  0  0  0  0
 11 14  1  0  0  0  0
 12 15  2  0  0  0  0
 12 30  1  0  0  0  0
 13 16  2  0  0  0  0
 13 31  1  0  0  0  0
 14 32  1  0  0  0  0
 14 33  1  0  0  0  0
 14 34  1  0  0  0  0
 15 16  1  0  0  0  0
 15 35  1  0  0  0  0
M  END
> <PUBCHEM_COMPOUND_CID>
12657825

> <PUBCHEM_COMPOUND_CANONICALIZED>
1

> <PUBCHEM_CACTVS_COMPLEXITY>
218

> <PUBCHEM_CACTVS_HBOND_ACCEPTOR>
1

> <PUBCHEM_CACTVS_HBOND_DONOR>
0

> <PUBCHEM_CACTVS_ROTATABLE_BOND>
5

> <PUBCHEM_CACTVS_SUBSKEYS>
AAADceBzAAAEAAAAAAAAAAAAAAAAAAAAAAAwAAAAAAAAAAABAAAAHAIAAAAADArBGCQzwIMAAACgAiRDZACCAAEgBwAJiAAIZogIICKBm5GEIABggAAIyAcQgAAOAABAIAACAAAAAIBAAAQAAAAAAAAAAA==

> <PUBCHEM_IUPAC_OPENEYE_NAME>
N-butyl-N'-(4-chloro-2-methyl-phenyl)-N-methyl-formamidine

> <PUBCHEM_IUPAC_CAS_NAME>
N-butyl-N'-(4-chloro-2-methylphenyl)-N-methylmethanimidamide

> <PUBCHEM_IUPAC_NAME>
N-butyl-N'-(4-chloro-2-methylphenyl)-N-methylmethanimidamide

> <PUBCHEM_IUPAC_SYSTEMATIC_NAME>
N-butyl-N'-(4-chloranyl-2-methyl-phenyl)-N-methyl-methanimidamide

> <PUBCHEM_IUPAC_TRADITIONAL_NAME>
N-butyl-N'-(4-chloro-2-methyl-phenyl)-N-methyl-formamidine

> <PUBCHEM_IUPAC_INCHI>
InChI=1S/C13H19ClN2/c1-4-5-8-16(3)10-15-13-7-6-12(14)9-11(13)2/h6-7,9-10H,4-5,8H2,1-3H3

> <PUBCHEM_IUPAC_INCHIKEY>
OUDYXRYNDPEKLK-UHFFFAOYSA-N

> <PUBCHEM_XLOGP3>
4.1

> <PUBCHEM_EXACT_MASS>
238.123676

> <PUBCHEM_MOLECULAR_FORMULA>
C13H19ClN2

> <PUBCHEM_MOLECULAR_WEIGHT>
238.75636

> <PUBCHEM_OPENEYE_CAN_SMILES>
CCCCN(C)C=NC1=C(C=C(C=C1)Cl)C

> <PUBCHEM_OPENEYE_ISO_SMILES>
CCCCN(C)C=NC1=C(C=C(C=C1)Cl)C

> <PUBCHEM_CACTVS_TPSA>
15.6

> <PUBCHEM_MONOISOTOPIC_WEIGHT>
238.123676

> <PUBCHEM_TOTAL_CHARGE>
0

> <PUBCHEM_HEAVY_ATOM_COUNT>
16

> <PUBCHEM_ATOM_DEF_STEREO_COUNT>
0

> <PUBCHEM_ATOM_UDEF_STEREO_COUNT>
0

> <PUBCHEM_BOND_DEF_STEREO_COUNT>
0

> <PUBCHEM_BOND_UDEF_STEREO_COUNT>
0

> <PUBCHEM_ISOTOPIC_ATOM_COUNT>
0

> <PUBCHEM_COMPONENT_COUNT>
1

> <PUBCHEM_CACTVS_TAUTO_COUNT>
1

> <PUBCHEM_COORDINATE_TYPE>
1
5
255

> <PUBCHEM_BONDANNOTATIONS>
10  11  8
10  12  8
11  13  8
12  15  8
13  16  8
15  16  8

$$$$

