12991541
  -OEChem-07051213093D

 30 31  0     1  0  0  0  0  0999 V2000
    1.4702    1.0241   -1.7579 O   0  0  0  0  0  0  0  0  0  0  0  0
    2.4627    2.2257   -0.1111 O   0  0  0  0  0  0  0  0  0  0  0  0
   -1.6295   -1.8415   -0.4394 N   0  0  0  0  0  0  0  0  0  0  0  0
    3.8627   -0.0428    0.6117 N   0  0  0  0  0  0  0  0  0  0  0  0
    0.1527   -0.8885    0.4787 C   0  0  0  0  0  0  0  0  0  0  0  0
    1.5098   -0.6790    1.0251 C   0  0  0  0  0  0  0  0  0  0  0  0
   -0.8811    0.0859    0.3985 C   0  0  0  0  0  0  0  0  0  0  0  0
   -0.3375   -2.0630   -0.0440 C   0  0  0  0  0  0  0  0  0  0  0  0
   -1.9882   -0.5377   -0.1812 C   0  0  0  0  0  0  0  0  0  0  0  0
    2.5502   -0.2103   -0.0178 C   0  0  1  0  0  0  0  0  0  0  0  0
   -0.9817    1.4429    0.7646 C   0  0  0  0  0  0  0  0  0  0  0  0
    0.2922   -3.3872   -0.2105 C   0  0  0  0  0  0  0  0  0  0  0  0
   -3.1955    0.1305   -0.4140 C   0  0  0  0  0  0  0  0  0  0  0  0
   -2.1833    2.1239    0.5379 C   0  0  0  0  0  0  0  0  0  0  0  0
   -3.2718    1.4758   -0.0426 C   0  0  0  0  0  0  0  0  0  0  0  0
    2.1680    1.1412   -0.5978 C   0  0  0  0  0  0  0  0  0  0  0  0
    1.8622   -1.6106    1.4884 H   0  0  0  0  0  0  0  0  0  0  0  0
    1.4551    0.0519    1.8440 H   0  0  0  0  0  0  0  0  0  0  0  0
    2.6478   -0.9331   -0.8357 H   0  0  0  0  0  0  0  0  0  0  0  0
   -2.2366   -2.5318   -0.8598 H   0  0  0  0  0  0  0  0  0  0  0  0
   -0.1471    1.9643    1.2240 H   0  0  0  0  0  0  0  0  0  0  0  0
    1.2698   -3.2922   -0.6942 H   0  0  0  0  0  0  0  0  0  0  0  0
    0.4374   -3.8652    0.7635 H   0  0  0  0  0  0  0  0  0  0  0  0
   -0.3188   -4.0554   -0.8264 H   0  0  0  0  0  0  0  0  0  0  0  0
   -4.0435   -0.3732   -0.8657 H   0  0  0  0  0  0  0  0  0  0  0  0
   -2.2672    3.1702    0.8197 H   0  0  0  0  0  0  0  0  0  0  0  0
   -4.1957    2.0240   -0.2094 H   0  0  0  0  0  0  0  0  0  0  0  0
    4.1667   -0.9352    1.0000 H   0  0  0  0  0  0  0  0  0  0  0  0
    3.7858    0.5920    1.4062 H   0  0  0  0  0  0  0  0  0  0  0  0
    1.2323    1.8995   -2.1311 H   0  0  0  0  0  0  0  0  0  0  0  0
  1 16  1  0  0  0  0
  1 30  1  0  0  0  0
  2 16  2  0  0  0  0
  3  8  1  0  0  0  0
  3  9  1  0  0  0  0
  3 20  1  0  0  0  0
  4 10  1  0  0  0  0
  4 28  1  0  0  0  0
  4 29  1  0  0  0  0
  5  6  1  0  0  0  0
  5  7  1  0  0  0  0
  5  8  2  0  0  0  0
  6 10  1  0  0  0  0
  6 17  1  0  0  0  0
  6 18  1  0  0  0  0
  7  9  1  0  0  0  0
  7 11  2  0  0  0  0
  8 12  1  0  0  0  0
  9 13  2  0  0  0  0
 10 16  1  0  0  0  0
 10 19  1  0  0  0  0
 11 14  1  0  0  0  0
 11 21  1  0  0  0  0
 12 22  1  0  0  0  0
 12 23  1  0  0  0  0
 12 24  1  0  0  0  0
 13 15  1  0  0  0  0
 13 25  1  0  0  0  0
 14 15  2  0  0  0  0
 14 26  1  0  0  0  0
 15 27  1  0  0  0  0
M  END
> <PUBCHEM_COMPOUND_CID>
12991541

> <PUBCHEM_CONFORMER_RMSD>
0.6

> <PUBCHEM_CONFORMER_DIVERSEORDER>
1
13
10
5
9
8
2
11
6
4
12
3
7

> <PUBCHEM_MMFF94_PARTIAL_CHARGES>
23
1 -0.65
10 0.33
11 -0.15
12 0.18
13 -0.15
14 -0.15
15 -0.15
16 0.66
2 -0.57
20 0.27
21 0.15
25 0.15
26 0.15
27 0.15
28 0.36
29 0.36
3 0.03
30 0.5
4 -0.99
5 -0.18
6 0.18
8 -0.33
9 -0.15

> <PUBCHEM_EFFECTIVE_ROTOR_COUNT>
3

> <PUBCHEM_PHARMACOPHORE_FEATURES>
9
1 1 acceptor
1 2 acceptor
1 3 cation
1 3 donor
1 4 cation
1 4 donor
3 1 2 16 anion
5 3 5 7 8 9 rings
6 7 9 11 13 14 15 rings

> <PUBCHEM_HEAVY_ATOM_COUNT>
16

> <PUBCHEM_ATOM_DEF_STEREO_COUNT>
1

> <PUBCHEM_ATOM_UDEF_STEREO_COUNT>
0

> <PUBCHEM_BOND_DEF_STEREO_COUNT>
0

> <PUBCHEM_BOND_UDEF_STEREO_COUNT>
0

> <PUBCHEM_ISOTOPIC_ATOM_COUNT>
0

> <PUBCHEM_COMPONENT_COUNT>
1

> <PUBCHEM_CACTVS_TAUTO_COUNT>
1

> <PUBCHEM_CONFORMER_ID>
00C63C3500000001

> <PUBCHEM_MMFF94_ENERGY>
21.7328

> <PUBCHEM_FEATURE_SELFOVERLAP>
45.82

> <PUBCHEM_SHAPE_FINGERPRINT>
10967382 1 18193276518764903123
11640471 11 17701532914217823492
14790565 3 18264480690707725673
15490181 8 18339916121219391195
15775835 57 18272926120344453396
16945 1 18338515364948830851
19591789 44 18193275192169018123
20510252 161 18262513672198795763
20645476 183 18057872572247658974
21130352 189 17260184918106586195
21524375 3 18343864432961833675
22802520 49 17969477399399412310
2334 1 18266460906078682569
23402539 116 18187660084442063812
23419403 2 16033871618031044948
23552423 10 18120658199994069443
23557571 272 17825947022955789872
23559900 14 18040721372967320434
2748010 2 17902816080135425915
305870 269 18266739267072338578
3071541 158 17545598315398091407
6992083 37 18273221902157569426
7364860 26 18046628090258616947
7832392 63 17904196284549761161
81228 2 17903065638683016235
9981440 41 17551236169140042328

> <PUBCHEM_SHAPE_MULTIPOLES>
307.57
4.9
2.87
0.97
0.37
1.69
0.16
-2.53
0.03
0.24
0.24
0.31
-0.22
-0.6

> <PUBCHEM_SHAPE_SELFOVERLAP>
660.731

> <PUBCHEM_SHAPE_VOLUME>
171.1

> <PUBCHEM_COORDINATE_TYPE>
2
5
10

$$$$

