5973
  -OEChem-06261201012D

 52 51  0     0  0  0  0  0  0999 V2000
    9.4651    1.2500    0.0000 O   0  0  0  0  0  0  0  0  0  0  0  0
   12.0632   -1.2500    0.0000 O   0  0  0  0  0  0  0  0  0  0  0  0
    2.5369    0.2500    0.0000 O   0  0  0  0  0  0  0  0  0  0  0  0
   18.9914   -0.2500    0.0000 O   0  0  0  0  0  0  0  0  0  0  0  0
    3.4030   -1.2500    0.0000 O   0  0  0  0  0  0  0  0  0  0  0  0
   18.1254    1.2500    0.0000 O   0  0  0  0  0  0  0  0  0  0  0  0
    8.5991   -0.2500    0.0000 N   0  0  0  0  0  0  0  0  0  0  0  0
   12.9292    0.2500    0.0000 N   0  0  0  0  0  0  0  0  0  0  0  0
    6.0010    0.2500    0.0000 C   0  0  0  0  0  0  0  0  0  0  0  0
   15.5273   -0.2500    0.0000 C   0  0  0  0  0  0  0  0  0  0  0  0
    6.8671   -0.2500    0.0000 C   0  0  0  0  0  0  0  0  0  0  0  0
   14.6613    0.2500    0.0000 C   0  0  0  0  0  0  0  0  0  0  0  0
    5.1350   -0.2500    0.0000 C   0  0  0  0  0  0  0  0  0  0  0  0
   16.3933    0.2500    0.0000 C   0  0  0  0  0  0  0  0  0  0  0  0
    7.7331    0.2500    0.0000 C   0  0  0  0  0  0  0  0  0  0  0  0
   13.7953   -0.2500    0.0000 C   0  0  0  0  0  0  0  0  0  0  0  0
    4.2690    0.2500    0.0000 C   0  0  0  0  0  0  0  0  0  0  0  0
   17.2594   -0.2500    0.0000 C   0  0  0  0  0  0  0  0  0  0  0  0
   10.3312   -0.2500    0.0000 C   0  0  0  0  0  0  0  0  0  0  0  0
   11.1972    0.2500    0.0000 C   0  0  0  0  0  0  0  0  0  0  0  0
    9.4651    0.2500    0.0000 C   0  0  0  0  0  0  0  0  0  0  0  0
   12.0632   -0.2500    0.0000 C   0  0  0  0  0  0  0  0  0  0  0  0
    3.4030   -0.2500    0.0000 C   0  0  0  0  0  0  0  0  0  0  0  0
   18.1254    0.2500    0.0000 C   0  0  0  0  0  0  0  0  0  0  0  0
    6.3996    0.7249    0.0000 H   0  0  0  0  0  0  0  0  0  0  0  0
    5.6025    0.7249    0.0000 H   0  0  0  0  0  0  0  0  0  0  0  0
   15.1288   -0.7249    0.0000 H   0  0  0  0  0  0  0  0  0  0  0  0
   15.9258   -0.7249    0.0000 H   0  0  0  0  0  0  0  0  0  0  0  0
    6.4685   -0.7249    0.0000 H   0  0  0  0  0  0  0  0  0  0  0  0
    7.2656   -0.7249    0.0000 H   0  0  0  0  0  0  0  0  0  0  0  0
   15.0598    0.7249    0.0000 H   0  0  0  0  0  0  0  0  0  0  0  0
   14.2628    0.7249    0.0000 H   0  0  0  0  0  0  0  0  0  0  0  0
    4.7365   -0.7249    0.0000 H   0  0  0  0  0  0  0  0  0  0  0  0
    5.5335   -0.7249    0.0000 H   0  0  0  0  0  0  0  0  0  0  0  0
   16.7919    0.7249    0.0000 H   0  0  0  0  0  0  0  0  0  0  0  0
   15.9948    0.7249    0.0000 H   0  0  0  0  0  0  0  0  0  0  0  0
    8.1316    0.7249    0.0000 H   0  0  0  0  0  0  0  0  0  0  0  0
    7.3346    0.7249    0.0000 H   0  0  0  0  0  0  0  0  0  0  0  0
   13.3967   -0.7249    0.0000 H   0  0  0  0  0  0  0  0  0  0  0  0
   14.1938   -0.7249    0.0000 H   0  0  0  0  0  0  0  0  0  0  0  0
    4.6675    0.7249    0.0000 H   0  0  0  0  0  0  0  0  0  0  0  0
    3.8705    0.7249    0.0000 H   0  0  0  0  0  0  0  0  0  0  0  0
   16.8608   -0.7249    0.0000 H   0  0  0  0  0  0  0  0  0  0  0  0
   17.6579   -0.7249    0.0000 H   0  0  0  0  0  0  0  0  0  0  0  0
    9.9326   -0.7249    0.0000 H   0  0  0  0  0  0  0  0  0  0  0  0
   10.7297   -0.7249    0.0000 H   0  0  0  0  0  0  0  0  0  0  0  0
   11.5957    0.7249    0.0000 H   0  0  0  0  0  0  0  0  0  0  0  0
   10.7987    0.7249    0.0000 H   0  0  0  0  0  0  0  0  0  0  0  0
    8.5991   -0.8700    0.0000 H   0  0  0  0  0  0  0  0  0  0  0  0
   12.9292    0.8700    0.0000 H   0  0  0  0  0  0  0  0  0  0  0  0
    2.0000   -0.0600    0.0000 H   0  0  0  0  0  0  0  0  0  0  0  0
   19.5284    0.0600    0.0000 H   0  0  0  0  0  0  0  0  0  0  0  0
  1 21  2  0  0  0  0
  2 22  2  0  0  0  0
  3 23  1  0  0  0  0
  3 51  1  0  0  0  0
  4 24  1  0  0  0  0
  4 52  1  0  0  0  0
  5 23  2  0  0  0  0
  6 24  2  0  0  0  0
  7 15  1  0  0  0  0
  7 21  1  0  0  0  0
  7 49  1  0  0  0  0
  8 16  1  0  0  0  0
  8 22  1  0  0  0  0
  8 50  1  0  0  0  0
  9 11  1  0  0  0  0
  9 13  1  0  0  0  0
  9 25  1  0  0  0  0
  9 26  1  0  0  0  0
 10 12  1  0  0  0  0
 10 14  1  0  0  0  0
 10 27  1  0  0  0  0
 10 28  1  0  0  0  0
 11 15  1  0  0  0  0
 11 29  1  0  0  0  0
 11 30  1  0  0  0  0
 12 16  1  0  0  0  0
 12 31  1  0  0  0  0
 12 32  1  0  0  0  0
 13 17  1  0  0  0  0
 13 33  1  0  0  0  0
 13 34  1  0  0  0  0
 14 18  1  0  0  0  0
 14 35  1  0  0  0  0
 14 36  1  0  0  0  0
 15 37  1  0  0  0  0
 15 38  1  0  0  0  0
 16 39  1  0  0  0  0
 16 40  1  0  0  0  0
 17 23  1  0  0  0  0
 17 41  1  0  0  0  0
 17 42  1  0  0  0  0
 18 24  1  0  0  0  0
 18 43  1  0  0  0  0
 18 44  1  0  0  0  0
 19 20  1  0  0  0  0
 19 21  1  0  0  0  0
 19 45  1  0  0  0  0
 19 46  1  0  0  0  0
 20 22  1  0  0  0  0
 20 47  1  0  0  0  0
 20 48  1  0  0  0  0
M  END
> <PUBCHEM_COMPOUND_CID>
5973

> <PUBCHEM_COMPOUND_CANONICALIZED>
1

> <PUBCHEM_CACTVS_COMPLEXITY>
373

> <PUBCHEM_CACTVS_HBOND_ACCEPTOR>
6

> <PUBCHEM_CACTVS_HBOND_DONOR>
4

> <PUBCHEM_CACTVS_ROTATABLE_BOND>
15

> <PUBCHEM_CACTVS_SUBSKEYS>
AAADceB7OAAAAAAAAAAAAAAAAAAAAAAAAAAAAAAAAAAAAAAAAAAAHgAQCAAACADBgAQACALAAgAIAAGQGAAAAAAAAAAAAIEIAAAAABIAgAAEQAAEFgCAAAGdSAAAAAAAAAAAAAAAAAAAAAAAAAAAAAAAAA==

> <PUBCHEM_IUPAC_OPENEYE_NAME>
6-[[4-(5-carboxypentylamino)-4-oxo-butanoyl]amino]hexanoic acid

> <PUBCHEM_IUPAC_CAS_NAME>
6-[[4-(5-carboxypentylamino)-1,4-dioxobutyl]amino]hexanoic acid

> <PUBCHEM_IUPAC_NAME>
6-[[4-(5-carboxypentylamino)-4-oxobutanoyl]amino]hexanoic acid

> <PUBCHEM_IUPAC_SYSTEMATIC_NAME>
6-[[4-oxidanylidene-4-[(6-oxidanyl-6-oxidanylidene-hexyl)amino]butanoyl]amino]hexanoic acid

> <PUBCHEM_IUPAC_TRADITIONAL_NAME>
6-[[4-(5-carboxypentylamino)-4-keto-butanoyl]amino]hexanoic acid

> <PUBCHEM_IUPAC_INCHI>
InChI=1S/C16H28N2O6/c19-13(17-11-5-1-3-7-15(21)22)9-10-14(20)18-12-6-2-4-8-16(23)24/h1-12H2,(H,17,19)(H,18,20)(H,21,22)(H,23,24)

> <PUBCHEM_IUPAC_INCHIKEY>
HWCHABFRSIARLK-UHFFFAOYSA-N

> <PUBCHEM_XLOGP3_AA>
-0.1

> <PUBCHEM_EXACT_MASS>
344.194737

> <PUBCHEM_MOLECULAR_FORMULA>
C16H28N2O6

> <PUBCHEM_MOLECULAR_WEIGHT>
344.40332

> <PUBCHEM_OPENEYE_CAN_SMILES>
C(CCC(=O)O)CCNC(=O)CCC(=O)NCCCCCC(=O)O

> <PUBCHEM_OPENEYE_ISO_SMILES>
C(CCC(=O)O)CCNC(=O)CCC(=O)NCCCCCC(=O)O

> <PUBCHEM_CACTVS_TPSA>
133

> <PUBCHEM_MONOISOTOPIC_WEIGHT>
344.194737

> <PUBCHEM_TOTAL_CHARGE>
0

> <PUBCHEM_HEAVY_ATOM_COUNT>
24

> <PUBCHEM_ATOM_DEF_STEREO_COUNT>
0

> <PUBCHEM_ATOM_UDEF_STEREO_COUNT>
0

> <PUBCHEM_BOND_DEF_STEREO_COUNT>
0

> <PUBCHEM_BOND_UDEF_STEREO_COUNT>
0

> <PUBCHEM_ISOTOPIC_ATOM_COUNT>
0

> <PUBCHEM_COMPONENT_COUNT>
1

> <PUBCHEM_CACTVS_TAUTO_COUNT>
3

> <PUBCHEM_COORDINATE_TYPE>
1
5
255

$$$$

