47205794
  -OEChem-06241223002D

 40 41  0     0  0  0  0  0  0999 V2000
    8.6697   -3.8365    0.0000 O   0  0  0  0  0  0  0  0  0  0  0  0
    4.7770    1.9813    0.0000 O   0  0  0  0  0  0  0  0  0  0  0  0
    8.7891   -0.2329    0.0000 O   0  0  0  0  0  0  0  0  0  0  0  0
    2.8090    2.6807    0.0000 O   0  0  0  0  0  0  0  0  0  0  0  0
    9.2050   -2.1892    0.0000 N   0  0  0  0  0  0  0  0  0  0  0  0
    7.0949   -0.5930    0.0000 N   0  0  0  0  0  0  0  0  0  0  0  0
   10.3639   -3.4764    0.0000 C   0  0  0  0  0  0  0  0  0  0  0  0
   11.0331   -4.2195    0.0000 C   0  0  0  0  0  0  0  0  0  0  0  0
   11.3421   -3.2685    0.0000 C   0  0  0  0  0  0  0  0  0  0  0  0
    9.4129   -3.1674    0.0000 C   0  0  0  0  0  0  0  0  0  0  0  0
    8.2539   -1.8802    0.0000 C   0  0  0  0  0  0  0  0  0  0  0  0
    8.0460   -0.9020    0.0000 C   0  0  0  0  0  0  0  0  0  0  0  0
    6.8870    0.3851    0.0000 C   0  0  0  0  0  0  0  0  0  0  0  0
    5.9360    0.6941    0.0000 C   0  0  0  0  0  0  0  0  0  0  0  0
    5.7281    1.6723    0.0000 C   0  0  0  0  0  0  0  0  0  0  0  0
    4.5691    2.9594    0.0000 C   0  0  0  0  0  0  0  0  0  0  0  0
    3.6180    3.2685    0.0000 C   0  0  0  0  0  0  0  0  0  0  0  0
    3.3090    4.2195    0.0000 C   0  0  0  0  0  0  0  0  0  0  0  0
    2.3090    4.2195    0.0000 C   0  0  0  0  0  0  0  0  0  0  0  0
    2.0000    3.2685    0.0000 C   0  0  0  0  0  0  0  0  0  0  0  0
   10.3964   -2.8572    0.0000 H   0  0  0  0  0  0  0  0  0  0  0  0
   10.6514   -4.7081    0.0000 H   0  0  0  0  0  0  0  0  0  0  0  0
   11.5805   -4.5106    0.0000 H   0  0  0  0  0  0  0  0  0  0  0  0
   11.9560   -3.3548    0.0000 H   0  0  0  0  0  0  0  0  0  0  0  0
   11.3204   -2.6488    0.0000 H   0  0  0  0  0  0  0  0  0  0  0  0
    9.6657   -1.7744    0.0000 H   0  0  0  0  0  0  0  0  0  0  0  0
    7.6343   -1.9018    0.0000 H   0  0  0  0  0  0  0  0  0  0  0  0
    8.1676   -2.4942    0.0000 H   0  0  0  0  0  0  0  0  0  0  0  0
    7.5066    0.4068    0.0000 H   0  0  0  0  0  0  0  0  0  0  0  0
    6.9733    0.9991    0.0000 H   0  0  0  0  0  0  0  0  0  0  0  0
    5.3164    0.6725    0.0000 H   0  0  0  0  0  0  0  0  0  0  0  0
    5.8497    0.0802    0.0000 H   0  0  0  0  0  0  0  0  0  0  0  0
    6.6342   -1.0079    0.0000 H   0  0  0  0  0  0  0  0  0  0  0  0
    6.3477    1.6939    0.0000 H   0  0  0  0  0  0  0  0  0  0  0  0
    5.8144    2.2862    0.0000 H   0  0  0  0  0  0  0  0  0  0  0  0
    5.1887    2.9811    0.0000 H   0  0  0  0  0  0  0  0  0  0  0  0
    4.6554    3.5734    0.0000 H   0  0  0  0  0  0  0  0  0  0  0  0
    3.6734    4.7211    0.0000 H   0  0  0  0  0  0  0  0  0  0  0  0
    1.9446    4.7211    0.0000 H   0  0  0  0  0  0  0  0  0  0  0  0
    1.4103    3.0769    0.0000 H   0  0  0  0  0  0  0  0  0  0  0  0
  1 10  2  0  0  0  0
  2 15  1  0  0  0  0
  2 16  1  0  0  0  0
  3 12  2  0  0  0  0
  4 17  1  0  0  0  0
  4 20  1  0  0  0  0
  5 10  1  0  0  0  0
  5 11  1  0  0  0  0
  5 26  1  0  0  0  0
  6 12  1  0  0  0  0
  6 13  1  0  0  0  0
  6 33  1  0  0  0  0
  7  8  1  0  0  0  0
  7  9  1  0  0  0  0
  7 10  1  0  0  0  0
  7 21  1  0  0  0  0
  8  9  1  0  0  0  0
  8 22  1  0  0  0  0
  8 23  1  0  0  0  0
  9 24  1  0  0  0  0
  9 25  1  0  0  0  0
 11 12  1  0  0  0  0
 11 27  1  0  0  0  0
 11 28  1  0  0  0  0
 13 14  1  0  0  0  0
 13 29  1  0  0  0  0
 13 30  1  0  0  0  0
 14 15  1  0  0  0  0
 14 31  1  0  0  0  0
 14 32  1  0  0  0  0
 15 34  1  0  0  0  0
 15 35  1  0  0  0  0
 16 17  1  0  0  0  0
 16 36  1  0  0  0  0
 16 37  1  0  0  0  0
 17 18  2  0  0  0  0
 18 19  1  0  0  0  0
 18 38  1  0  0  0  0
 19 20  2  0  0  0  0
 19 39  1  0  0  0  0
 20 40  1  0  0  0  0
M  END
> <PUBCHEM_COMPOUND_CID>
47205794

> <PUBCHEM_COMPOUND_CANONICALIZED>
1

> <PUBCHEM_CACTVS_COMPLEXITY>
331

> <PUBCHEM_CACTVS_HBOND_ACCEPTOR>
4

> <PUBCHEM_CACTVS_HBOND_DONOR>
2

> <PUBCHEM_CACTVS_ROTATABLE_BOND>
9

> <PUBCHEM_CACTVS_SUBSKEYS>
AAADceBzOAAAAAAAAAAAAAAAGAAAASAAAAAAAAAAAAAAAAABgAAAHgAQAAAADQThkAYwBILABECIAKlSkAICCAAkIAAIiIHOCMgNZjKEtT6WGSCm1hGKqYaIJAgAAAAAAAAAAAAAAAAAAAAAAAAAAAAAAA==

> <PUBCHEM_IUPAC_OPENEYE_NAME>
N-[2-[3-(2-furylmethoxy)propylamino]-2-oxo-ethyl]cyclopropanecarboxamide

> <PUBCHEM_IUPAC_CAS_NAME>
N-[2-[3-(2-furanylmethoxy)propylamino]-2-oxoethyl]cyclopropanecarboxamide

> <PUBCHEM_IUPAC_NAME>
N-[2-[3-(furan-2-ylmethoxy)propylamino]-2-oxoethyl]cyclopropanecarboxamide

> <PUBCHEM_IUPAC_SYSTEMATIC_NAME>
N-[2-[3-(furan-2-ylmethoxy)propylamino]-2-oxidanylidene-ethyl]cyclopropanecarboxamide

> <PUBCHEM_IUPAC_TRADITIONAL_NAME>
N-[2-[3-(2-furfuryloxy)propylamino]-2-keto-ethyl]cyclopropanecarboxamide

> <PUBCHEM_IUPAC_INCHI>
InChI=1S/C14H20N2O4/c17-13(9-16-14(18)11-4-5-11)15-6-2-7-19-10-12-3-1-8-20-12/h1,3,8,11H,2,4-7,9-10H2,(H,15,17)(H,16,18)

> <PUBCHEM_IUPAC_INCHIKEY>
UULMQZXFFADTMB-UHFFFAOYSA-N

> <PUBCHEM_XLOGP3_AA>
0.1

> <PUBCHEM_EXACT_MASS>
280.142307

> <PUBCHEM_MOLECULAR_FORMULA>
C14H20N2O4

> <PUBCHEM_MOLECULAR_WEIGHT>
280.3196

> <PUBCHEM_OPENEYE_CAN_SMILES>
C1CC1C(=O)NCC(=O)NCCCOCC2=CC=CO2

> <PUBCHEM_OPENEYE_ISO_SMILES>
C1CC1C(=O)NCC(=O)NCCCOCC2=CC=CO2

> <PUBCHEM_CACTVS_TPSA>
80.6

> <PUBCHEM_MONOISOTOPIC_WEIGHT>
280.142307

> <PUBCHEM_TOTAL_CHARGE>
0

> <PUBCHEM_HEAVY_ATOM_COUNT>
20

> <PUBCHEM_ATOM_DEF_STEREO_COUNT>
0

> <PUBCHEM_ATOM_UDEF_STEREO_COUNT>
0

> <PUBCHEM_BOND_DEF_STEREO_COUNT>
0

> <PUBCHEM_BOND_UDEF_STEREO_COUNT>
0

> <PUBCHEM_ISOTOPIC_ATOM_COUNT>
0

> <PUBCHEM_COMPONENT_COUNT>
1

> <PUBCHEM_CACTVS_TAUTO_COUNT>
4

> <PUBCHEM_COORDINATE_TYPE>
1
5
255

> <PUBCHEM_BONDANNOTATIONS>
17  18  8
18  19  8
19  20  8
4  17  8
4  20  8

$$$$

