11953831
  -OEChem-07051212493D

 69 73  0     1  0  0  0  0  0999 V2000
   -0.0064   -1.3115    0.1525 O   0  0  0  0  0  0  0  0  0  0  0  0
    2.7219   -1.6950    0.5494 O   0  0  0  0  0  0  0  0  0  0  0  0
    3.9461    0.0585    1.5779 O   0  0  0  0  0  0  0  0  0  0  0  0
    0.9506   -4.5578    1.5523 O   0  0  0  0  0  0  0  0  0  0  0  0
   -0.5516   -5.2658   -0.8136 O   0  0  0  0  0  0  0  0  0  0  0  0
   -1.7353   -0.6499   -1.2678 O   0  0  0  0  0  0  0  0  0  0  0  0
   -2.7017   -3.3095   -1.2943 O   0  0  0  0  0  0  0  0  0  0  0  0
    6.2728   -0.9864    0.2533 O   0  0  0  0  0  0  0  0  0  0  0  0
    5.5532    0.0057   -2.2452 O   0  0  0  0  0  0  0  0  0  0  0  0
    3.9097    2.1915   -1.4284 O   0  0  0  0  0  0  0  0  0  0  0  0
   -2.8453    2.4533    0.3831 O   0  0  0  0  0  0  0  0  0  0  0  0
    0.5089    0.9877   -1.4076 O   0  0  0  0  0  0  0  0  0  0  0  0
    0.4596   -2.2330    1.1397 C   0  0  1  0  0  0  0  0  0  0  0  0
    0.5657   -3.6355    0.5362 C   0  0  2  0  0  0  0  0  0  0  0  0
   -0.7720   -4.0714   -0.0618 C   0  0  1  0  0  0  0  0  0  0  0  0
   -1.3465   -2.9915   -0.9787 C   0  0  2  0  0  0  0  0  0  0  0  0
    4.9511   -1.2095   -0.2406 C   0  0  1  0  0  0  0  0  0  0  0  0
    4.0039   -1.2305    0.9577 C   0  0  2  0  0  0  0  0  0  0  0  0
    4.5667   -0.1003   -1.2212 C   0  0  1  0  0  0  0  0  0  0  0  0
    4.4388    1.2442   -0.5041 C   0  0  2  0  0  0  0  0  0  0  0  0
   -1.3210   -1.6192   -0.3055 C   0  0  1  0  0  0  0  0  0  0  0  0
    1.8103   -1.7290    1.6381 C   0  0  0  0  0  0  0  0  0  0  0  0
    3.5085    1.1084    0.7092 C   0  0  2  0  0  0  0  0  0  0  0  0
    3.4644    2.3867    1.5420 C   0  0  0  0  0  0  0  0  0  0  0  0
   -1.7332    0.6226   -0.7386 C   0  0  0  0  0  0  0  0  0  0  0  0
   -2.8029    1.1669   -0.1304 C   0  0  0  0  0  0  0  0  0  0  0  0
   -0.4955    1.4291   -0.8654 C   0  0  0  0  0  0  0  0  0  0  0  0
   -0.5418    2.7884   -0.3050 C   0  0  0  0  0  0  0  0  0  0  0  0
   -4.0741    0.4402    0.0333 C   0  0  0  0  0  0  0  0  0  0  0  0
   -1.7201    3.2311    0.2918 C   0  0  0  0  0  0  0  0  0  0  0  0
    0.5746    3.6259   -0.3694 C   0  0  0  0  0  0  0  0  0  0  0  0
   -1.7900    4.5171    0.8284 C   0  0  0  0  0  0  0  0  0  0  0  0
   -4.2929   -0.3360    1.1720 C   0  0  0  0  0  0  0  0  0  0  0  0
   -5.0602    0.5277   -0.9501 C   0  0  0  0  0  0  0  0  0  0  0  0
    0.5025    4.9114    0.1686 C   0  0  0  0  0  0  0  0  0  0  0  0
   -0.6774    5.3564    0.7662 C   0  0  0  0  0  0  0  0  0  0  0  0
   -5.4963   -1.0242    1.3269 C   0  0  0  0  0  0  0  0  0  0  0  0
   -6.2635   -0.1605   -0.7949 C   0  0  0  0  0  0  0  0  0  0  0  0
   -6.4815   -0.9364    0.3437 C   0  0  0  0  0  0  0  0  0  0  0  0
   -0.2325   -2.2301    1.9924 H   0  0  0  0  0  0  0  0  0  0  0  0
    1.3324   -3.6738   -0.2468 H   0  0  0  0  0  0  0  0  0  0  0  0
   -1.4899   -4.3297    0.7265 H   0  0  0  0  0  0  0  0  0  0  0  0
   -0.7971   -2.9671   -1.9273 H   0  0  0  0  0  0  0  0  0  0  0  0
    4.9569   -2.1735   -0.7607 H   0  0  0  0  0  0  0  0  0  0  0  0
    4.4033   -1.9213    1.7106 H   0  0  0  0  0  0  0  0  0  0  0  0
    3.6214   -0.3465   -1.7195 H   0  0  0  0  0  0  0  0  0  0  0  0
    5.4318    1.5995   -0.2025 H   0  0  0  0  0  0  0  0  0  0  0  0
   -2.0112   -1.6141    0.5446 H   0  0  0  0  0  0  0  0  0  0  0  0
    2.1970   -2.3788    2.4315 H   0  0  0  0  0  0  0  0  0  0  0  0
    1.6747   -0.7201    2.0435 H   0  0  0  0  0  0  0  0  0  0  0  0
    2.4855    0.9014    0.3764 H   0  0  0  0  0  0  0  0  0  0  0  0
    2.7759    2.2640    2.3854 H   0  0  0  0  0  0  0  0  0  0  0  0
    3.1473    3.2550    0.9622 H   0  0  0  0  0  0  0  0  0  0  0  0
    4.4490    2.6009    1.9730 H   0  0  0  0  0  0  0  0  0  0  0  0
    0.2744   -4.5346    2.2508 H   0  0  0  0  0  0  0  0  0  0  0  0
   -0.1751   -5.9263   -0.2070 H   0  0  0  0  0  0  0  0  0  0  0  0
   -3.2095   -3.3237   -0.4650 H   0  0  0  0  0  0  0  0  0  0  0  0
    6.2529   -0.2157    0.8452 H   0  0  0  0  0  0  0  0  0  0  0  0
    6.4087    0.1791   -1.8163 H   0  0  0  0  0  0  0  0  0  0  0  0
    4.0068    3.0753   -1.0361 H   0  0  0  0  0  0  0  0  0  0  0  0
    1.4942    3.3020   -0.8444 H   0  0  0  0  0  0  0  0  0  0  0  0
   -2.7049    4.8715    1.2954 H   0  0  0  0  0  0  0  0  0  0  0  0
   -3.5400   -0.4066    1.9534 H   0  0  0  0  0  0  0  0  0  0  0  0
   -4.9050    1.1286   -1.8428 H   0  0  0  0  0  0  0  0  0  0  0  0
    1.3661    5.5684    0.1190 H   0  0  0  0  0  0  0  0  0  0  0  0
   -0.7297    6.3581    1.1829 H   0  0  0  0  0  0  0  0  0  0  0  0
   -5.6669   -1.6267    2.2143 H   0  0  0  0  0  0  0  0  0  0  0  0
   -7.0310   -0.0923   -1.5605 H   0  0  0  0  0  0  0  0  0  0  0  0
   -7.4186   -1.4719    0.4647 H   0  0  0  0  0  0  0  0  0  0  0  0
  1 13  1  0  0  0  0
  1 21  1  0  0  0  0
  2 18  1  0  0  0  0
  2 22  1  0  0  0  0
  3 18  1  0  0  0  0
  3 23  1  0  0  0  0
  4 14  1  0  0  0  0
  4 55  1  0  0  0  0
  5 15  1  0  0  0  0
  5 56  1  0  0  0  0
  6 21  1  0  0  0  0
  6 25  1  0  0  0  0
  7 16  1  0  0  0  0
  7 57  1  0  0  0  0
  8 17  1  0  0  0  0
  8 58  1  0  0  0  0
  9 19  1  0  0  0  0
  9 59  1  0  0  0  0
 10 20  1  0  0  0  0
 10 60  1  0  0  0  0
 11 26  1  0  0  0  0
 11 30  1  0  0  0  0
 12 27  2  0  0  0  0
 13 14  1  0  0  0  0
 13 22  1  0  0  0  0
 13 40  1  0  0  0  0
 14 15  1  0  0  0  0
 14 41  1  0  0  0  0
 15 16  1  0  0  0  0
 15 42  1  0  0  0  0
 16 21  1  0  0  0  0
 16 43  1  0  0  0  0
 17 18  1  0  0  0  0
 17 19  1  0  0  0  0
 17 44  1  0  0  0  0
 18 45  1  0  0  0  0
 19 20  1  0  0  0  0
 19 46  1  0  0  0  0
 20 23  1  0  0  0  0
 20 47  1  0  0  0  0
 21 48  1  0  0  0  0
 22 49  1  0  0  0  0
 22 50  1  0  0  0  0
 23 24  1  0  0  0  0
 23 51  1  0  0  0  0
 24 52  1  0  0  0  0
 24 53  1  0  0  0  0
 24 54  1  0  0  0  0
 25 26  2  0  0  0  0
 25 27  1  0  0  0  0
 26 29  1  0  0  0  0
 27 28  1  0  0  0  0
 28 30  1  0  0  0  0
 28 31  2  0  0  0  0
 29 33  2  0  0  0  0
 29 34  1  0  0  0  0
 30 32  2  0  0  0  0
 31 35  1  0  0  0  0
 31 61  1  0  0  0  0
 32 36  1  0  0  0  0
 32 62  1  0  0  0  0
 33 37  1  0  0  0  0
 33 63  1  0  0  0  0
 34 38  2  0  0  0  0
 34 64  1  0  0  0  0
 35 36  2  0  0  0  0
 35 65  1  0  0  0  0
 36 66  1  0  0  0  0
 37 39  2  0  0  0  0
 37 67  1  0  0  0  0
 38 39  1  0  0  0  0
 38 68  1  0  0  0  0
 39 69  1  0  0  0  0
M  END
> <PUBCHEM_COMPOUND_CID>
11953831

> <PUBCHEM_CONFORMER_RMSD>
1

> <PUBCHEM_CONFORMER_DIVERSEORDER>
1
42
9
64
115
204
107
39
177
158
60
72
179
147
50
133
87
80
45
159
153
113
124
49
111
155
140
191
186
151
38
144
167
116
197
126
94
199
29
189
139
25
143
109
146
82
166
181
81
157
58
134
165
193
70
40
8
112
152
184
114
196
135
55
27
100
4
104
33
198
162
19
48
52
171
156
5
141
54
51
148
67
170
168
15
178
137
192
44
90
86
6
200
118
92
102
56
71
130
3
183
203
34
105
149
75
43
202
176
138
79
182
160
103
16
174
136
18
85
69
74
83
73
97
150
84
99
110
161
169
63
95
175
121
2
17
66
142
47
119
163
190
131
28
164
37
117
26
76
24
89
145
187
65
32
132
180
173
188
30
68
172
91
194
154
78
201
53
122
57
101
129
98
62
36
127
12
125
106
22
96
31
120
195
128
61
7
41
88
13
23
14
35
123
20
11
59
10
46
108
185
77
21
93

> <PUBCHEM_MMFF94_PARTIAL_CHARGES>
53
1 -0.56
10 -0.68
11 -0.16
12 -0.57
13 0.28
14 0.28
15 0.28
16 0.28
17 0.28
18 0.56
19 0.28
2 -0.56
20 0.28
21 0.56
22 0.28
23 0.28
25 0.09
26 0.05
27 0.47
28 0.09
29 0.03
3 -0.56
30 0.08
31 -0.15
32 -0.15
33 -0.15
34 -0.15
35 -0.15
36 -0.15
37 -0.15
38 -0.15
39 -0.15
4 -0.68
5 -0.68
55 0.4
56 0.4
57 0.4
58 0.4
59 0.4
6 -0.36
60 0.4
61 0.15
62 0.15
63 0.15
64 0.15
65 0.15
66 0.15
67 0.15
68 0.15
69 0.15
7 -0.68
8 -0.68
9 -0.68

> <PUBCHEM_EFFECTIVE_ROTOR_COUNT>
8.4

> <PUBCHEM_PHARMACOPHORE_FEATURES>
23
1 1 acceptor
1 10 acceptor
1 10 donor
1 11 acceptor
1 12 acceptor
1 2 acceptor
1 3 acceptor
1 4 acceptor
1 4 donor
1 5 acceptor
1 5 donor
1 6 acceptor
1 7 acceptor
1 7 donor
1 8 acceptor
1 8 donor
1 9 acceptor
1 9 donor
6 1 13 14 15 16 21 rings
6 11 25 26 27 28 30 rings
6 28 30 31 32 35 36 rings
6 29 33 34 37 38 39 rings
6 3 17 18 19 20 23 rings

> <PUBCHEM_HEAVY_ATOM_COUNT>
39

> <PUBCHEM_ATOM_DEF_STEREO_COUNT>
10

> <PUBCHEM_ATOM_UDEF_STEREO_COUNT>
0

> <PUBCHEM_BOND_DEF_STEREO_COUNT>
0

> <PUBCHEM_BOND_UDEF_STEREO_COUNT>
0

> <PUBCHEM_ISOTOPIC_ATOM_COUNT>
0

> <PUBCHEM_COMPONENT_COUNT>
1

> <PUBCHEM_CACTVS_TAUTO_COUNT>
1

> <PUBCHEM_CONFORMER_ID>
00B666A700000001

> <PUBCHEM_MMFF94_ENERGY>
123.8837

> <PUBCHEM_FEATURE_SELFOVERLAP>
116.862

> <PUBCHEM_SHAPE_FINGERPRINT>
10006869 2 18268160927555649899
10190108 129 18191847106815812825
10670039 82 18268422607169823254
10864689 126 18410577301066845669
1100329 8 18265899043137199757
11513181 2 17900264400935848911
12058002 1 17388783493349185627
12788726 201 18339347639606756988
13140716 1 18340784666670228314
1361 2 18339367370680707617
13911987 19 18413113879029782983
140371 6 17691419924498989773
14725015 67 18262807375301020680
14790565 3 18411982455700032021
14840074 17 18342173363131128247
14955137 171 18339637854862624179
15001296 14 18200036122942076813
15927050 60 17834108646102991741
15968369 153 18335702715631670354
19311894 1 18335424517425603423
19319366 153 17988928842827766962
19611394 137 18129649813071704115
20764821 26 18196390138516581576
21796203 349 18124843860546239523
3178227 256 18340191996312810209
3383291 50 18410289199093078630
392239 28 18341322396627876489
463206 1 18267867185645536828
469060 322 18338225089368243457
5309563 4 18411422825914924121
5776283 40 18336250294524718134
6004065 56 18338811044163201999
6287921 2 17834956751629990854
9896288 288 18118964943355168952

> <PUBCHEM_SHAPE_MULTIPOLES>
732.17
11.69
6.96
1.48
0.89
2.08
0.04
-2.28
0.83
0.73
-1.17
-0.87
-0.34
-0.78

> <PUBCHEM_SHAPE_SELFOVERLAP>
1589.375

> <PUBCHEM_SHAPE_VOLUME>
393.4

> <PUBCHEM_COORDINATE_TYPE>
2
5
10

$$$$

