54675770
  -OEChem-07051212503D

 27 27  0     0  0  0  0  0  0999 V2000
    4.7135   -0.0804    1.5129 Cl  0  0  0  0  0  0  0  0  0  0  0  0
    2.5209   -1.9027    0.9309 O   0  0  0  0  0  0  0  0  0  0  0  0
    0.2324   -2.6520   -0.2110 O   0  0  0  0  0  0  0  0  0  0  0  0
   -3.1758    0.5488    2.2558 O   0  0  0  0  0  0  0  0  0  0  0  0
   -5.4538    0.1292    0.4911 O   0  0  0  0  0  0  0  0  0  0  0  0
   -4.2444    1.5458   -0.8091 O   0  0  0  0  0  0  0  0  0  0  0  0
    1.2635   -0.5742   -0.5045 N   0  0  0  0  0  0  0  0  0  0  0  0
    1.1239    0.6247   -1.1513 N   0  0  0  0  0  0  0  0  0  0  0  0
    4.0631    2.4972   -0.1069 N   0  0  0  0  0  0  0  0  0  0  0  0
    2.3560   -0.8394    0.3299 C   0  0  0  0  0  0  0  0  0  0  0  0
    3.2365    1.4182   -0.1443 C   0  0  0  0  0  0  0  0  0  0  0  0
    3.3640    0.2466    0.4822 C   0  0  0  0  0  0  0  0  0  0  0  0
    0.2589   -1.5287   -0.7157 C   0  0  0  0  0  0  0  0  0  0  0  0
    2.0306    1.5237   -0.9781 C   0  0  0  0  0  0  0  0  0  0  0  0
   -0.8565   -1.1532   -1.6162 C   0  0  0  0  0  0  0  0  0  0  0  0
   -1.9372   -0.5647   -1.0894 C   0  0  0  0  0  0  0  0  0  0  0  0
   -2.0599   -0.2800    0.3272 C   0  0  0  0  0  0  0  0  0  0  0  0
   -3.1269    0.3086    0.8945 C   0  0  0  0  0  0  0  0  0  0  0  0
   -4.3088    0.7324    0.1019 C   0  0  0  0  0  0  0  0  0  0  0  0
    1.9002    2.4828   -1.5075 H   0  0  0  0  0  0  0  0  0  0  0  0
   -0.7643   -1.3670   -2.6735 H   0  0  0  0  0  0  0  0  0  0  0  0
   -2.7486   -0.3053   -1.7609 H   0  0  0  0  0  0  0  0  0  0  0  0
    3.8419    3.3303   -0.6373 H   0  0  0  0  0  0  0  0  0  0  0  0
    4.9042    2.4646    0.4557 H   0  0  0  0  0  0  0  0  0  0  0  0
   -1.2463   -0.5543    0.9929 H   0  0  0  0  0  0  0  0  0  0  0  0
   -4.0286    0.9760    2.4475 H   0  0  0  0  0  0  0  0  0  0  0  0
   -6.2233    0.4208   -0.0430 H   0  0  0  0  0  0  0  0  0  0  0  0
  1 12  1  0  0  0  0
  2 10  2  0  0  0  0
  3 13  2  0  0  0  0
  4 18  1  0  0  0  0
  4 26  1  0  0  0  0
  5 19  1  0  0  0  0
  5 27  1  0  0  0  0
  6 19  2  0  0  0  0
  7  8  1  0  0  0  0
  7 10  1  0  0  0  0
  7 13  1  0  0  0  0
  8 14  2  0  0  0  0
  9 11  1  0  0  0  0
  9 23  1  0  0  0  0
  9 24  1  0  0  0  0
 10 12  1  0  0  0  0
 11 12  2  0  0  0  0
 11 14  1  0  0  0  0
 13 15  1  0  0  0  0
 14 20  1  0  0  0  0
 15 16  2  0  0  0  0
 15 21  1  0  0  0  0
 16 17  1  0  0  0  0
 16 22  1  0  0  0  0
 17 18  2  0  0  0  0
 17 25  1  0  0  0  0
 18 19  1  0  0  0  0
M  END
> <PUBCHEM_COMPOUND_CID>
54675770

> <PUBCHEM_CONFORMER_RMSD>
0.6

> <PUBCHEM_CONFORMER_DIVERSEORDER>
1
48
50
51
54
45
2
21
53
24
52
25
39
47
19
55
20
56
49
26
7
44
46
40
15
18
16
37
13
35
6
28
42
10
17
38
27
29
31
33
5
11
41
12
9
8
30
22
43
23
32
4
3
34
36
14

> <PUBCHEM_MMFF94_PARTIAL_CHARGES>
27
1 -0.14
10 0.62
11 0.11
12 0.15
13 0.62
14 0.38
15 -0.14
16 -0.15
17 -0.15
18 0.09
19 0.71
2 -0.57
20 0.06
21 0.15
22 0.15
23 0.4
24 0.4
25 0.15
26 0.45
27 0.5
3 -0.57
4 -0.53
5 -0.65
6 -0.57
7 -0.06
8 -0.51
9 -0.9

> <PUBCHEM_EFFECTIVE_ROTOR_COUNT>
4

> <PUBCHEM_PHARMACOPHORE_FEATURES>
10
1 2 acceptor
1 3 acceptor
1 4 donor
1 5 acceptor
1 6 acceptor
1 8 acceptor
1 9 cation
1 9 donor
3 5 6 19 anion
6 7 8 10 11 12 14 rings

> <PUBCHEM_HEAVY_ATOM_COUNT>
19

> <PUBCHEM_ATOM_DEF_STEREO_COUNT>
0

> <PUBCHEM_ATOM_UDEF_STEREO_COUNT>
0

> <PUBCHEM_BOND_DEF_STEREO_COUNT>
2

> <PUBCHEM_BOND_UDEF_STEREO_COUNT>
0

> <PUBCHEM_ISOTOPIC_ATOM_COUNT>
0

> <PUBCHEM_COMPONENT_COUNT>
1

> <PUBCHEM_CACTVS_TAUTO_COUNT>
12

> <PUBCHEM_CONFORMER_ID>
0342493A00000001

> <PUBCHEM_MMFF94_ENERGY>
60.8758

> <PUBCHEM_FEATURE_SELFOVERLAP>
50.81

> <PUBCHEM_SHAPE_FINGERPRINT>
10498660 4 16371276857308650633
11370993 70 17917990568679917547
11471102 22 17988648518696296566
11640471 11 18114184133247138375
12251169 10 18131631183962507311
12390115 104 17909818839781506356
12633257 1 16271648867154053704
12670546 177 5328449423744001513
12788726 201 17682412351007867510
12892183 10 17704069568999489089
14123255 52 18336543820082824340
14251764 38 18195532717021634957
15209294 21 18187379700888115194
15342168 16 18340204094254618205
15527383 91 18060143158828525776
15775835 57 18259704480034960909
1813 80 17755291615713979094
193927 3 11455895801134942857
20157964 124 18339931527920969629
20361792 2 10952050022487571687
204376 136 18334009480488581679
20715895 44 17831582346957156777
20739085 24 17989490706507877132
21503847 285 18412542120182832780
21524375 3 18040433295697733671
21713013 43 6194840359001286953
21756936 100 17911506602967461428
23184049 59 18341619247645795118
235170 7 4967611654975833273
23557571 272 15286219258909328095
23559900 14 18193549198166134431
2838139 119 15864651491622626720
3472631 163 17095532755336436865
351380 180 18131072671195599517
351380 3 11887671796885520449
46194498 28 5400507005192297393
474 4 18335138700062337035
5281201 14 5617540679019474003
602551 16 14979960284912082720
960060 61 8934712259053582209

> <PUBCHEM_SHAPE_MULTIPOLES>
348.59
9.63
2.03
1.47
5.16
0.29
0.34
-4.86
3.6
-1.37
-0.38
0.32
-0.03
-0.91

> <PUBCHEM_SHAPE_SELFOVERLAP>
721.405

> <PUBCHEM_SHAPE_VOLUME>
197.4

> <PUBCHEM_COORDINATE_TYPE>
2
5
10

$$$$

