46173741
  -OEChem-07051212503D

 50 53  0     1  0  0  0  0  0999 V2000
   -5.1280   -0.3320   -0.2584 O   0  0  0  0  0  0  0  0  0  0  0  0
    0.1609   -2.4759    0.4249 O   0  0  0  0  0  0  0  0  0  0  0  0
    5.4611   -0.3865    0.9874 O   0  0  0  0  0  0  0  0  0  0  0  0
   -2.1473   -0.6326   -0.2831 C   0  0  1  0  0  0  0  0  0  0  0  0
   -2.8971    0.7111   -0.1364 C   0  0  2  0  0  0  0  0  0  0  0  0
   -0.6710   -0.4739   -0.7274 C   0  0  1  0  0  0  0  0  0  0  0  0
    0.1241    0.5353    0.1457 C   0  0  1  0  0  0  0  0  0  0  0  0
    1.6249    0.7160   -0.3269 C   0  0  2  0  0  0  0  0  0  0  0  0
   -2.0794    1.6985    0.7283 C   0  0  0  0  0  0  0  0  0  0  0  0
   -0.6396    1.8745    0.2472 C   0  0  0  0  0  0  0  0  0  0  0  0
   -4.1801    0.2802    0.6132 C   0  0  2  0  0  0  0  0  0  0  0  0
   -2.3951   -1.3336    1.0642 C   0  0  0  0  0  0  0  0  0  0  0  0
    0.0630   -1.8256   -0.8391 C   0  0  1  0  0  0  0  0  0  0  0  0
   -3.7196   -0.7858    1.6072 C   0  0  0  0  0  0  0  0  0  0  0  0
    2.2714   -0.6507   -0.5793 C   0  0  0  0  0  0  0  0  0  0  0  0
    1.4704   -1.6385   -1.3987 C   0  0  0  0  0  0  0  0  0  0  0  0
   -3.2114    1.3395   -1.5049 C   0  0  0  0  0  0  0  0  0  0  0  0
    2.3957    1.4676    0.7989 C   0  0  0  0  0  0  0  0  0  0  0  0
    1.7306    1.5339   -1.6355 C   0  0  0  0  0  0  0  0  0  0  0  0
    3.9078    1.4034    0.6516 C   0  0  0  0  0  0  0  0  0  0  0  0
    3.4931   -0.9973   -0.1399 C   0  0  0  0  0  0  0  0  0  0  0  0
    4.3654   -0.0277    0.5611 C   0  0  0  0  0  0  0  0  0  0  0  0
   -2.6536   -1.2352   -1.0523 H   0  0  0  0  0  0  0  0  0  0  0  0
   -0.7099   -0.0621   -1.7453 H   0  0  0  0  0  0  0  0  0  0  0  0
    0.1618    0.1175    1.1620 H   0  0  0  0  0  0  0  0  0  0  0  0
   -2.5759    2.6773    0.7420 H   0  0  0  0  0  0  0  0  0  0  0  0
   -2.0469    1.3698    1.7744 H   0  0  0  0  0  0  0  0  0  0  0  0
   -0.1326    2.5466    0.9478 H   0  0  0  0  0  0  0  0  0  0  0  0
   -0.6497    2.3865   -0.7202 H   0  0  0  0  0  0  0  0  0  0  0  0
   -4.6762    1.1213    1.1089 H   0  0  0  0  0  0  0  0  0  0  0  0
   -2.4516   -2.4201    0.9362 H   0  0  0  0  0  0  0  0  0  0  0  0
   -1.6024   -1.1317    1.7916 H   0  0  0  0  0  0  0  0  0  0  0  0
   -0.5032   -2.4897   -1.5029 H   0  0  0  0  0  0  0  0  0  0  0  0
   -3.5452   -0.3392    2.5929 H   0  0  0  0  0  0  0  0  0  0  0  0
   -4.4512   -1.5910    1.7337 H   0  0  0  0  0  0  0  0  0  0  0  0
    1.4128   -1.2789   -2.4331 H   0  0  0  0  0  0  0  0  0  0  0  0
    1.9775   -2.6112   -1.4317 H   0  0  0  0  0  0  0  0  0  0  0  0
   -3.8393    2.2295   -1.3855 H   0  0  0  0  0  0  0  0  0  0  0  0
   -2.3075    1.6411   -2.0419 H   0  0  0  0  0  0  0  0  0  0  0  0
   -3.7475    0.6412   -2.1568 H   0  0  0  0  0  0  0  0  0  0  0  0
    2.1328    1.0340    1.7741 H   0  0  0  0  0  0  0  0  0  0  0  0
    2.0964    2.5215    0.8384 H   0  0  0  0  0  0  0  0  0  0  0  0
    2.7504    1.5216   -2.0380 H   0  0  0  0  0  0  0  0  0  0  0  0
    1.0750    1.1440   -2.4205 H   0  0  0  0  0  0  0  0  0  0  0  0
    1.4666    2.5850   -1.4774 H   0  0  0  0  0  0  0  0  0  0  0  0
    4.3737    1.8625    1.5306 H   0  0  0  0  0  0  0  0  0  0  0  0
    4.2538    1.9409   -0.2368 H   0  0  0  0  0  0  0  0  0  0  0  0
    3.9122   -1.9801   -0.3281 H   0  0  0  0  0  0  0  0  0  0  0  0
   -5.9048   -0.5712    0.2755 H   0  0  0  0  0  0  0  0  0  0  0  0
    0.5962   -3.3336    0.2827 H   0  0  0  0  0  0  0  0  0  0  0  0
  1 11  1  0  0  0  0
  1 49  1  0  0  0  0
  2 13  1  0  0  0  0
  2 50  1  0  0  0  0
  3 22  2  0  0  0  0
  4  5  1  0  0  0  0
  4  6  1  0  0  0  0
  4 12  1  0  0  0  0
  4 23  1  0  0  0  0
  5  9  1  0  0  0  0
  5 11  1  0  0  0  0
  5 17  1  0  0  0  0
  6  7  1  0  0  0  0
  6 13  1  0  0  0  0
  6 24  1  0  0  0  0
  7  8  1  0  0  0  0
  7 10  1  0  0  0  0
  7 25  1  0  0  0  0
  8 15  1  0  0  0  0
  8 18  1  0  0  0  0
  8 19  1  0  0  0  0
  9 10  1  0  0  0  0
  9 26  1  0  0  0  0
  9 27  1  0  0  0  0
 10 28  1  0  0  0  0
 10 29  1  0  0  0  0
 11 14  1  0  0  0  0
 11 30  1  0  0  0  0
 12 14  1  0  0  0  0
 12 31  1  0  0  0  0
 12 32  1  0  0  0  0
 13 16  1  0  0  0  0
 13 33  1  0  0  0  0
 14 34  1  0  0  0  0
 14 35  1  0  0  0  0
 15 16  1  0  0  0  0
 15 21  2  0  0  0  0
 16 36  1  0  0  0  0
 16 37  1  0  0  0  0
 17 38  1  0  0  0  0
 17 39  1  0  0  0  0
 17 40  1  0  0  0  0
 18 20  1  0  0  0  0
 18 41  1  0  0  0  0
 18 42  1  0  0  0  0
 19 43  1  0  0  0  0
 19 44  1  0  0  0  0
 19 45  1  0  0  0  0
 20 22  1  0  0  0  0
 20 46  1  0  0  0  0
 20 47  1  0  0  0  0
 21 22  1  0  0  0  0
 21 48  1  0  0  0  0
M  END
> <PUBCHEM_COMPOUND_CID>
46173741

> <PUBCHEM_CONFORMER_RMSD>
0.6

> <PUBCHEM_CONFORMER_DIVERSEORDER>
1

> <PUBCHEM_MMFF94_PARTIAL_CHARGES>
14
1 -0.68
11 0.28
13 0.28
15 -0.28
16 0.14
2 -0.68
20 0.06
21 -0.14
22 0.49
3 -0.57
48 0.15
49 0.4
50 0.4
8 0.14

> <PUBCHEM_EFFECTIVE_ROTOR_COUNT>
1.8

> <PUBCHEM_PHARMACOPHORE_FEATURES>
9
1 1 acceptor
1 1 donor
1 2 acceptor
1 2 donor
1 3 acceptor
5 4 5 11 12 14 rings
6 4 5 6 7 9 10 rings
6 6 7 8 13 15 16 rings
6 8 15 18 20 21 22 rings

> <PUBCHEM_HEAVY_ATOM_COUNT>
22

> <PUBCHEM_ATOM_DEF_STEREO_COUNT>
7

> <PUBCHEM_ATOM_UDEF_STEREO_COUNT>
0

> <PUBCHEM_BOND_DEF_STEREO_COUNT>
0

> <PUBCHEM_BOND_UDEF_STEREO_COUNT>
0

> <PUBCHEM_ISOTOPIC_ATOM_COUNT>
0

> <PUBCHEM_COMPONENT_COUNT>
1

> <PUBCHEM_CACTVS_TAUTO_COUNT>
5

> <PUBCHEM_CONFORMER_ID>
02C08E2D00000001

> <PUBCHEM_MMFF94_ENERGY>
70.5032

> <PUBCHEM_FEATURE_SELFOVERLAP>
45.87

> <PUBCHEM_SHAPE_FINGERPRINT>
10 15 18337968796866080920
10366900 7 18260822683455478304
10759866 29 17843949356949928732
10863032 1 5617270194700718597
11132069 177 18336819814987135775
11578080 2 16985193666822996006
11640471 11 16009293388369797411
12011746 2 18334292085363249812
12077114 3 18272094910912198429
12236239 1 14836400337782105847
12251169 10 18342737399268007918
12403259 415 18411138056128753917
12403260 363 18261398827490527369
12507560 40 18343308041703379400
12633257 1 18129645453283310873
13140716 1 18189337862140467066
13224815 77 18261105279418601061
13583140 156 17988939871971031448
13675066 3 18342177747854673200
14178342 30 18197766898472724825
14223421 5 18190737737768430980
14787075 74 18114187397474842561
15196674 1 18261109737436333676
15309172 13 18113898247307281807
15375358 24 18410011061342438433
15536298 74 17895186757501587974
15653759 3 18202278104418208395
16945 1 17967805072167403894
17349148 13 18410016532835420093
1813 80 17060054904649574774
18186145 218 17676478450118830652
19862831 5 9439405713773628592
200 152 18041003947186613821
21033648 29 18336847341322208200
21069387 34 14476668668736235339
21267235 1 18334007311614343710
21637258 2 16271657754068727834
21682296 61 17824536603289285294
22182313 1 18264764531298507926
22854114 111 18261386754300327205
22854114 59 18040431100905888403
23184049 59 18408322168448125012
23402539 116 18336274483010460525
23419403 2 16608070026006891193
23493267 7 17988091083444142057
23557571 272 17989209291201811805
23558518 356 18120642784966437465
23559900 14 18201145658981635654
26918003 58 18343865510972186409
2748010 2 18337661001232131245
2838139 119 5111420135949197754
296302 2 15285357327439055724
351380 180 18334579048590863386
465052 167 17845077490403120299
474 4 17313104120646151000
5104073 3 18189891100956671923
633830 44 17313092034666591940
69090 78 18040157300977875926
7364860 26 17896031216828570094
9709674 26 18262511606367109423

> <PUBCHEM_SHAPE_MULTIPOLES>
435.14
8.69
2.07
1.34
1.41
0.23
0.19
-0.35
-2.6
0.23
0.12
-0.26
-0.04
0.71

> <PUBCHEM_SHAPE_SELFOVERLAP>
935.935

> <PUBCHEM_SHAPE_VOLUME>
236.3

> <PUBCHEM_COORDINATE_TYPE>
2
5
10

$$$$

