9851693
  -OEChem-07051213002D

 41 44  0     1  0  0  0  0  0999 V2000
    4.9522    0.0188    0.0000 O   0  0  0  0  0  0  0  0  0  0  0  0
    4.2465   -1.8198    0.0000 O   0  0  0  0  0  0  0  0  0  0  0  0
    7.0525   -2.3416    0.0000 O   0  0  0  0  0  0  0  0  0  0  0  0
    2.5664    0.9404    0.0000 N   0  0  0  0  0  0  0  0  0  0  0  0
    6.1865   -0.8416    0.0000 N   0  0  0  0  0  0  0  0  0  0  0  0
    7.0525    0.6584    0.0000 N   0  0  0  0  0  0  0  0  0  0  0  0
    3.3754    0.3526    0.0000 C   0  0  2  0  0  0  0  0  0  0  0  0
    4.2890    0.7593    0.0000 C   0  0  2  0  0  0  0  0  0  0  0  0
    3.4819   -0.6358    0.0000 C   0  0  0  0  0  0  0  0  0  0  0  0
    4.4544   -0.8416    0.0000 C   0  0  3  0  0  0  0  0  0  0  0  0
    4.3935    1.7538    0.0000 C   0  0  0  0  0  0  0  0  0  0  0  0
    3.5845    2.3416    0.0000 C   0  0  0  0  0  0  0  0  0  0  0  0
    2.6709    1.9349    0.0000 C   0  0  0  0  0  0  0  0  0  0  0  0
    5.3204   -1.3416    0.0000 C   0  0  0  0  0  0  0  0  0  0  0  0
    7.0525   -1.3416    0.0000 C   0  0  0  0  0  0  0  0  0  0  0  0
    6.1865    0.1584    0.0000 C   0  0  0  0  0  0  0  0  0  0  0  0
    7.9185   -0.8416    0.0000 C   0  0  0  0  0  0  0  0  0  0  0  0
    7.9185    0.1584    0.0000 C   0  0  0  0  0  0  0  0  0  0  0  0
    8.8125   -1.3763    0.0000 C   0  0  0  0  0  0  0  0  0  0  0  0
    8.8125    0.6930    0.0000 C   0  0  0  0  0  0  0  0  0  0  0  0
    9.7185   -0.8624    0.0000 C   0  0  0  0  0  0  0  0  0  0  0  0
    9.7185    0.1792    0.0000 C   0  0  0  0  0  0  0  0  0  0  0  0
    2.6398   -0.0734    0.0000 H   0  0  0  0  0  0  0  0  0  0  0  0
    5.0977    1.0209    0.0000 H   0  0  0  0  0  0  0  0  0  0  0  0
    2.8619   -0.6370    0.0000 H   0  0  0  0  0  0  0  0  0  0  0  0
    3.4180   -1.2525    0.0000 H   0  0  0  0  0  0  0  0  0  0  0  0
    4.9895    1.5829    0.0000 H   0  0  0  0  0  0  0  0  0  0  0  0
    4.6653    2.3111    0.0000 H   0  0  0  0  0  0  0  0  0  0  0  0
    2.0000    0.6882    0.0000 H   0  0  0  0  0  0  0  0  0  0  0  0
    4.0305    2.7723    0.0000 H   0  0  0  0  0  0  0  0  0  0  0  0
    3.2378    2.8556    0.0000 H   0  0  0  0  0  0  0  0  0  0  0  0
    2.5209    2.5365    0.0000 H   0  0  0  0  0  0  0  0  0  0  0  0
    2.0524    1.8916    0.0000 H   0  0  0  0  0  0  0  0  0  0  0  0
    4.9219   -1.8166    0.0000 H   0  0  0  0  0  0  0  0  0  0  0  0
    5.7190   -1.8166    0.0000 H   0  0  0  0  0  0  0  0  0  0  0  0
    3.6569   -2.0114    0.0000 H   0  0  0  0  0  0  0  0  0  0  0  0
    5.6495    0.4684    0.0000 H   0  0  0  0  0  0  0  0  0  0  0  0
    8.8053   -1.9962    0.0000 H   0  0  0  0  0  0  0  0  0  0  0  0
    8.8053    1.3130    0.0000 H   0  0  0  0  0  0  0  0  0  0  0  0
   10.2543   -1.1745    0.0000 H   0  0  0  0  0  0  0  0  0  0  0  0
   10.2543    0.4913    0.0000 H   0  0  0  0  0  0  0  0  0  0  0  0
  1  8  1  0  0  0  0
  1 10  1  0  0  0  0
  2 10  1  0  0  0  0
  2 36  1  0  0  0  0
  3 15  2  0  0  0  0
  4  7  1  0  0  0  0
  4 13  1  0  0  0  0
  4 29  1  0  0  0  0
  5 14  1  0  0  0  0
  5 15  1  0  0  0  0
  5 16  1  0  0  0  0
  6 16  2  0  0  0  0
  6 18  1  0  0  0  0
  7  8  1  0  0  0  0
  7  9  1  0  0  0  0
  7 23  1  1  0  0  0
  8 11  1  0  0  0  0
  8 24  1  1  0  0  0
  9 10  1  0  0  0  0
  9 25  1  0  0  0  0
  9 26  1  0  0  0  0
 10 14  1  0  0  0  0
 11 12  1  0  0  0  0
 11 27  1  0  0  0  0
 11 28  1  0  0  0  0
 12 13  1  0  0  0  0
 12 30  1  0  0  0  0
 12 31  1  0  0  0  0
 13 32  1  0  0  0  0
 13 33  1  0  0  0  0
 14 34  1  0  0  0  0
 14 35  1  0  0  0  0
 15 17  1  0  0  0  0
 16 37  1  0  0  0  0
 17 18  1  0  0  0  0
 17 19  2  0  0  0  0
 18 20  2  0  0  0  0
 19 21  1  0  0  0  0
 19 38  1  0  0  0  0
 20 22  1  0  0  0  0
 20 39  1  0  0  0  0
 21 22  2  0  0  0  0
 21 40  1  0  0  0  0
 22 41  1  0  0  0  0
M  END
> <PUBCHEM_COMPOUND_CID>
9851693

> <PUBCHEM_COMPOUND_CANONICALIZED>
1

> <PUBCHEM_CACTVS_COMPLEXITY>
483

> <PUBCHEM_CACTVS_HBOND_ACCEPTOR>
5

> <PUBCHEM_CACTVS_HBOND_DONOR>
2

> <PUBCHEM_CACTVS_ROTATABLE_BOND>
2

> <PUBCHEM_CACTVS_SUBSKEYS>
AAADceB7MAAAAAAAAAAAAAAAAAAAASAAAAA8QIAAAAAAAFiBAAAAHgAQCAAADDzhmAYxyIPABgCoAiVTdACCAAEkAgAJiIEIZMgaIDqA3ZGHYYhmlgCcycf42KKOAAAAAAACAAAAAAAAAAQAAAAAAAAAAA==

> <PUBCHEM_IUPAC_OPENEYE_NAME>
3-[[(3aS,7aS)-2-hydroxy-3a,4,5,6,7,7a-hexahydro-3H-furo[3,2-b]pyridin-2-yl]methyl]quinazolin-4-one

> <PUBCHEM_IUPAC_CAS_NAME>
3-[[(3aS,7aS)-2-hydroxy-3a,4,5,6,7,7a-hexahydro-3H-furo[3,2-b]pyridin-2-yl]methyl]-4-quinazolinone

> <PUBCHEM_IUPAC_NAME>
3-[[(3aS,7aS)-2-hydroxy-3a,4,5,6,7,7a-hexahydro-3H-furo[3,2-b]pyridin-2-yl]methyl]quinazolin-4-one

> <PUBCHEM_IUPAC_SYSTEMATIC_NAME>
3-[[(3aS,7aS)-2-oxidanyl-3a,4,5,6,7,7a-hexahydro-3H-furo[3,2-b]pyridin-2-yl]methyl]quinazolin-4-one

> <PUBCHEM_IUPAC_TRADITIONAL_NAME>
3-[[(3aS,7aS)-2-hydroxy-3a,4,5,6,7,7a-hexahydro-3H-furo[3,2-b]pyridin-2-yl]methyl]quinazolin-4-one

> <PUBCHEM_IUPAC_INCHI>
InChI=1S/C16H19N3O3/c20-15-11-4-1-2-5-12(11)18-10-19(15)9-16(21)8-13-14(22-16)6-3-7-17-13/h1-2,4-5,10,13-14,17,21H,3,6-9H2/t13-,14-,16?/m0/s1

> <PUBCHEM_IUPAC_INCHIKEY>
YLYLCQRQSRDSQR-ADTLFGHVSA-N

> <PUBCHEM_XLOGP3_AA>
0.4

> <PUBCHEM_EXACT_MASS>
301.142641

> <PUBCHEM_MOLECULAR_FORMULA>
C16H19N3O3

> <PUBCHEM_MOLECULAR_WEIGHT>
301.34036

> <PUBCHEM_OPENEYE_CAN_SMILES>
C1CC2C(CC(O2)(CN3C=NC4=CC=CC=C4C3=O)O)NC1

> <PUBCHEM_OPENEYE_ISO_SMILES>
C1C[C@H]2[C@H](CC(O2)(CN3C=NC4=CC=CC=C4C3=O)O)NC1

> <PUBCHEM_CACTVS_TPSA>
74.2

> <PUBCHEM_MONOISOTOPIC_WEIGHT>
301.142641

> <PUBCHEM_TOTAL_CHARGE>
0

> <PUBCHEM_HEAVY_ATOM_COUNT>
22

> <PUBCHEM_ATOM_DEF_STEREO_COUNT>
2

> <PUBCHEM_ATOM_UDEF_STEREO_COUNT>
1

> <PUBCHEM_BOND_DEF_STEREO_COUNT>
0

> <PUBCHEM_BOND_UDEF_STEREO_COUNT>
0

> <PUBCHEM_ISOTOPIC_ATOM_COUNT>
0

> <PUBCHEM_COMPONENT_COUNT>
1

> <PUBCHEM_CACTVS_TAUTO_COUNT>
1

> <PUBCHEM_COORDINATE_TYPE>
1
5
255

> <PUBCHEM_BONDANNOTATIONS>
15  17  8
17  18  8
17  19  8
18  20  8
19  21  8
10  2  3
20  22  8
21  22  8
5  15  8
5  16  8
6  16  8
6  18  8
7  23  5
8  24  5

$$$$

