443502
  -OEChem-07051213022D

 29 29  0     1  0  0  0  0  0999 V2000
    4.5981   -1.4400    0.0000 O   0  0  0  0  0  0  0  0  0  0  0  0
    4.5981    1.5600    0.0000 O   0  0  0  0  0  0  0  0  0  0  0  0
    2.8660    0.5600    0.0000 O   0  0  0  0  0  0  0  0  0  0  0  0
    6.3301    0.5600    0.0000 O   0  0  0  0  0  0  0  0  0  0  0  0
    2.8660   -1.4400    0.0000 O   0  0  0  0  0  0  0  0  0  0  0  0
    4.5981    0.5600    0.0000 C   0  0  2  0  0  0  0  0  0  0  0  0
    5.4641    0.0600    0.0000 C   0  0  1  0  0  0  0  0  0  0  0  0
    3.7320    0.0600    0.0000 C   0  0  2  0  0  0  0  0  0  0  0  0
    5.4641   -0.9400    0.0000 C   0  0  1  0  0  0  0  0  0  0  0  0
    3.7320   -0.9400    0.0000 C   0  0  3  0  0  0  0  0  0  0  0  0
    6.3301   -1.4400    0.0000 C   0  0  0  0  0  0  0  0  0  0  0  0
    5.4641    2.0600    0.0000 C   0  0  0  0  0  0  0  0  0  0  0  0
    2.0000    0.0600    0.0000 C   0  0  0  0  0  0  0  0  0  0  0  0
    5.1350    0.8700    0.0000 H   0  0  0  0  0  0  0  0  0  0  0  0
    5.4641    0.6800    0.0000 H   0  0  0  0  0  0  0  0  0  0  0  0
    3.7320    0.6800    0.0000 H   0  0  0  0  0  0  0  0  0  0  0  0
    5.4641   -1.5600    0.0000 H   0  0  0  0  0  0  0  0  0  0  0  0
    2.9959   -0.5150    0.0000 H   0  0  0  0  0  0  0  0  0  0  0  0
    6.0201   -1.9769    0.0000 H   0  0  0  0  0  0  0  0  0  0  0  0
    6.8671   -1.7500    0.0000 H   0  0  0  0  0  0  0  0  0  0  0  0
    6.6401   -0.9031    0.0000 H   0  0  0  0  0  0  0  0  0  0  0  0
    6.8671    0.2500    0.0000 H   0  0  0  0  0  0  0  0  0  0  0  0
    2.8660   -2.0600    0.0000 H   0  0  0  0  0  0  0  0  0  0  0  0
    5.7741    1.5231    0.0000 H   0  0  0  0  0  0  0  0  0  0  0  0
    6.0010    2.3700    0.0000 H   0  0  0  0  0  0  0  0  0  0  0  0
    5.1541    2.5969    0.0000 H   0  0  0  0  0  0  0  0  0  0  0  0
    1.6900    0.5969    0.0000 H   0  0  0  0  0  0  0  0  0  0  0  0
    1.4631   -0.2500    0.0000 H   0  0  0  0  0  0  0  0  0  0  0  0
    2.3100   -0.4769    0.0000 H   0  0  0  0  0  0  0  0  0  0  0  0
  1  9  1  0  0  0  0
  1 10  1  0  0  0  0
  6  2  1  6  0  0  0
  2 12  1  0  0  0  0
  8  3  1  6  0  0  0
  3 13  1  0  0  0  0
  7  4  1  6  0  0  0
  4 22  1  0  0  0  0
  5 10  1  0  0  0  0
  5 23  1  0  0  0  0
  6  7  1  0  0  0  0
  6  8  1  0  0  0  0
  6 14  1  0  0  0  0
  7  9  1  0  0  0  0
  7 15  1  0  0  0  0
  8 10  1  0  0  0  0
  8 16  1  0  0  0  0
  9 11  1  1  0  0  0
  9 17  1  0  0  0  0
 10 18  1  0  0  0  0
 11 19  1  0  0  0  0
 11 20  1  0  0  0  0
 11 21  1  0  0  0  0
 12 24  1  0  0  0  0
 12 25  1  0  0  0  0
 12 26  1  0  0  0  0
 13 27  1  0  0  0  0
 13 28  1  0  0  0  0
 13 29  1  0  0  0  0
M  END
> <PUBCHEM_COMPOUND_CID>
443502

> <PUBCHEM_COMPOUND_CANONICALIZED>
1

> <PUBCHEM_CACTVS_COMPLEXITY>
163

> <PUBCHEM_CACTVS_HBOND_ACCEPTOR>
5

> <PUBCHEM_CACTVS_HBOND_DONOR>
2

> <PUBCHEM_CACTVS_ROTATABLE_BOND>
2

> <PUBCHEM_CACTVS_SUBSKEYS>
AAADceBwOAAAAAAAAAAAAAAAAAAAAAAAAAAkAAAAAAAAAAAAAAAAGgAACAAACBSwgAMCCAAABgAAAAAAAAAAAAAAAAAAAAAAAAAREAIAAAACQAAFAAAHAAHAYAQAAAAAAAAAAAAAAAAAAAAAAAAAAAAAAA==

> <PUBCHEM_IUPAC_OPENEYE_NAME>
(3R,4R,5R,6R)-3,4-dimethoxy-6-methyl-tetrahydropyran-2,5-diol

> <PUBCHEM_IUPAC_CAS_NAME>
(3R,4R,5R,6R)-3,4-dimethoxy-6-methyloxane-2,5-diol

> <PUBCHEM_IUPAC_NAME>
(3R,4R,5R,6R)-3,4-dimethoxy-6-methyloxane-2,5-diol

> <PUBCHEM_IUPAC_SYSTEMATIC_NAME>
(3R,4R,5R,6R)-3,4-dimethoxy-6-methyl-oxane-2,5-diol

> <PUBCHEM_IUPAC_TRADITIONAL_NAME>
(3R,4R,5R,6R)-3,4-dimethoxy-6-methyl-tetrahydropyran-2,5-diol

> <PUBCHEM_IUPAC_INCHI>
InChI=1S/C8H16O5/c1-4-5(9)6(11-2)7(12-3)8(10)13-4/h4-10H,1-3H3/t4-,5-,6-,7-,8?/m1/s1

> <PUBCHEM_IUPAC_INCHIKEY>
SXWBIRCAXZNEGK-RTRLPJTCSA-N

> <PUBCHEM_XLOGP3_AA>
-1

> <PUBCHEM_EXACT_MASS>
192.099774

> <PUBCHEM_MOLECULAR_FORMULA>
C8H16O5

> <PUBCHEM_MOLECULAR_WEIGHT>
192.20964

> <PUBCHEM_OPENEYE_CAN_SMILES>
CC1C(C(C(C(O1)O)OC)OC)O

> <PUBCHEM_OPENEYE_ISO_SMILES>
C[C@@H]1[C@H]([C@H]([C@H](C(O1)O)OC)OC)O

> <PUBCHEM_CACTVS_TPSA>
68.2

> <PUBCHEM_MONOISOTOPIC_WEIGHT>
192.099774

> <PUBCHEM_TOTAL_CHARGE>
0

> <PUBCHEM_HEAVY_ATOM_COUNT>
13

> <PUBCHEM_ATOM_DEF_STEREO_COUNT>
4

> <PUBCHEM_ATOM_UDEF_STEREO_COUNT>
1

> <PUBCHEM_BOND_DEF_STEREO_COUNT>
0

> <PUBCHEM_BOND_UDEF_STEREO_COUNT>
0

> <PUBCHEM_ISOTOPIC_ATOM_COUNT>
0

> <PUBCHEM_COMPONENT_COUNT>
1

> <PUBCHEM_CACTVS_TAUTO_COUNT>
1

> <PUBCHEM_COORDINATE_TYPE>
1
5
255

> <PUBCHEM_BONDANNOTATIONS>
10  18  3
6  2  6
8  3  6
7  4  6
9  11  5

$$$$

