164939
  -OEChem-07051213153D

 45 45  0     1  0  0  0  0  0999 V2000
   -2.2616    0.3191    1.2833 O   0  0  0  0  0  0  0  0  0  0  0  0
   -0.3203   -0.6289    0.3069 O   0  0  0  0  0  0  0  0  0  0  0  0
   -3.8995   -1.0449   -2.2533 O   0  0  0  0  0  0  0  0  0  0  0  0
   -3.5085    1.7746   -1.8656 O   0  0  0  0  0  0  0  0  0  0  0  0
   -1.8923   -2.6219   -0.8895 O   0  0  0  0  0  0  0  0  0  0  0  0
    2.7160    0.1724    2.1681 O   0  0  0  0  0  0  0  0  0  0  0  0
   -2.1621    2.9454    2.0217 O   0  0  0  0  0  0  0  0  0  0  0  0
    3.0832   -1.4625   -0.1880 O   0  0  0  0  0  0  0  0  0  0  0  0
    3.3635    2.1328   -0.6306 O   0  0  0  0  0  0  0  0  0  0  0  0
    0.6183   -3.0885    0.6974 O   0  0  0  0  0  0  0  0  0  0  0  0
    5.7454    1.3472   -1.7742 O   0  0  0  0  0  0  0  0  0  0  0  0
   -2.8799   -0.4903   -1.4188 C   0  0  1  0  0  0  0  0  0  0  0  0
   -3.4085    0.8135   -0.8174 C   0  0  1  0  0  0  0  0  0  0  0  0
   -2.5382   -1.4907   -0.3162 C   0  0  2  0  0  0  0  0  0  0  0  0
   -2.4815    1.3288    0.2919 C   0  0  1  0  0  0  0  0  0  0  0  0
   -1.6520   -0.8632    0.7611 C   0  0  2  0  0  0  0  0  0  0  0  0
    0.6212   -0.7548    1.3672 C   0  0  2  0  0  0  0  0  0  0  0  0
   -3.0679    2.5401    1.0120 C   0  0  0  0  0  0  0  0  0  0  0  0
    1.7999    0.1807    1.0664 C   0  0  2  0  0  0  0  0  0  0  0  0
    2.6142   -0.1100   -0.2063 C   0  0  1  0  0  0  0  0  0  0  0  0
    3.8364    0.7930   -0.4292 C   0  0  1  0  0  0  0  0  0  0  0  0
    1.0081   -2.2160    1.4674 C   0  0  0  0  0  0  0  0  0  0  0  0
    4.6662    0.4242   -1.6544 C   0  0  0  0  0  0  0  0  0  0  0  0
   -2.0144   -0.2976   -2.0646 H   0  0  0  0  0  0  0  0  0  0  0  0
   -4.4195    0.6403   -0.4265 H   0  0  0  0  0  0  0  0  0  0  0  0
   -3.4703   -1.8411    0.1459 H   0  0  0  0  0  0  0  0  0  0  0  0
   -1.5098    1.6257   -0.1250 H   0  0  0  0  0  0  0  0  0  0  0  0
   -1.6249   -1.5888    1.5847 H   0  0  0  0  0  0  0  0  0  0  0  0
    0.1831   -0.4652    2.3316 H   0  0  0  0  0  0  0  0  0  0  0  0
   -4.0205    2.2970    1.4943 H   0  0  0  0  0  0  0  0  0  0  0  0
   -3.2206    3.3839    0.3340 H   0  0  0  0  0  0  0  0  0  0  0  0
    1.4104    1.2033    0.9906 H   0  0  0  0  0  0  0  0  0  0  0  0
    1.9397   -0.0227   -1.0667 H   0  0  0  0  0  0  0  0  0  0  0  0
   -3.5154   -1.8053   -2.7213 H   0  0  0  0  0  0  0  0  0  0  0  0
   -4.0133    2.5325   -1.5265 H   0  0  0  0  0  0  0  0  0  0  0  0
   -2.5340   -3.0695   -1.4660 H   0  0  0  0  0  0  0  0  0  0  0  0
    4.4886    0.8073    0.4508 H   0  0  0  0  0  0  0  0  0  0  0  0
    1.6732   -2.4737    2.3092 H   0  0  0  0  0  0  0  0  0  0  0  0
    5.0829   -0.5848   -1.5844 H   0  0  0  0  0  0  0  0  0  0  0  0
    4.0736    0.4981   -2.5717 H   0  0  0  0  0  0  0  0  0  0  0  0
    3.0869   -0.7213    2.2520 H   0  0  0  0  0  0  0  0  0  0  0  0
   -2.0275    2.1888    2.6177 H   0  0  0  0  0  0  0  0  0  0  0  0
    3.7626   -1.5362    0.5033 H   0  0  0  0  0  0  0  0  0  0  0  0
    2.7891    2.1328   -1.4154 H   0  0  0  0  0  0  0  0  0  0  0  0
    6.2929    1.2623   -0.9750 H   0  0  0  0  0  0  0  0  0  0  0  0
  1 15  1  0  0  0  0
  1 16  1  0  0  0  0
  2 16  1  0  0  0  0
  2 17  1  0  0  0  0
  3 12  1  0  0  0  0
  3 34  1  0  0  0  0
  4 13  1  0  0  0  0
  4 35  1  0  0  0  0
  5 14  1  0  0  0  0
  5 36  1  0  0  0  0
  6 19  1  0  0  0  0
  6 41  1  0  0  0  0
  7 18  1  0  0  0  0
  7 42  1  0  0  0  0
  8 20  1  0  0  0  0
  8 43  1  0  0  0  0
  9 21  1  0  0  0  0
  9 44  1  0  0  0  0
 10 22  2  0  0  0  0
 11 23  1  0  0  0  0
 11 45  1  0  0  0  0
 12 13  1  0  0  0  0
 12 14  1  0  0  0  0
 12 24  1  0  0  0  0
 13 15  1  0  0  0  0
 13 25  1  0  0  0  0
 14 16  1  0  0  0  0
 14 26  1  0  0  0  0
 15 18  1  0  0  0  0
 15 27  1  0  0  0  0
 16 28  1  0  0  0  0
 17 19  1  0  0  0  0
 17 22  1  0  0  0  0
 17 29  1  0  0  0  0
 18 30  1  0  0  0  0
 18 31  1  0  0  0  0
 19 20  1  0  0  0  0
 19 32  1  0  0  0  0
 20 21  1  0  0  0  0
 20 33  1  0  0  0  0
 21 23  1  0  0  0  0
 21 37  1  0  0  0  0
 22 38  1  0  0  0  0
 23 39  1  0  0  0  0
 23 40  1  0  0  0  0
M  END
> <PUBCHEM_COMPOUND_CID>
164939

> <PUBCHEM_CONFORMER_RMSD>
1

> <PUBCHEM_CONFORMER_DIVERSEORDER>
2
87
151
68
12
55
41
32
95
116
27
130
49
88
125
10
71
159
19
137
105
73
45
124
47
102
3
56
64
163
13
100
83
16
86
90
141
30
138
96
58
69
67
149
66
40
57
9
132
99
51
136
122
129
107
118
108
15
147
127
131
80
103
74
98
161
50
156
1
109
114
77
14
150
101
29
63
146
35
84
142
115
92
97
31
134
59
106
46
25
94
72
17
70
54
6
153
28
44
81
37
139
154
76
60
158
5
152
123
39
24
133
65
140
23
113
26
117
34
143
148
157
119
22
62
42
43
20
75
121
61
93
162
4
79
155
7
85
128
78
8
111
36
120
91
11
18
53
126
21
144
33
135
104
82
112
145
38
48
52
160
110
89

> <PUBCHEM_MMFF94_PARTIAL_CHARGES>
32
1 -0.56
10 -0.57
11 -0.68
12 0.28
13 0.28
14 0.28
15 0.28
16 0.56
17 0.34
18 0.28
19 0.28
2 -0.56
20 0.28
21 0.28
22 0.45
23 0.28
3 -0.68
34 0.4
35 0.4
36 0.4
38 0.06
4 -0.68
41 0.4
42 0.4
43 0.4
44 0.4
45 0.4
5 -0.68
6 -0.68
7 -0.68
8 -0.68
9 -0.68

> <PUBCHEM_EFFECTIVE_ROTOR_COUNT>
9.2

> <PUBCHEM_PHARMACOPHORE_FEATURES>
20
1 1 acceptor
1 10 acceptor
1 11 acceptor
1 11 donor
1 2 acceptor
1 3 acceptor
1 3 donor
1 4 acceptor
1 4 donor
1 5 acceptor
1 5 donor
1 6 acceptor
1 6 donor
1 7 acceptor
1 7 donor
1 8 acceptor
1 8 donor
1 9 acceptor
1 9 donor
6 1 12 13 14 15 16 rings

> <PUBCHEM_HEAVY_ATOM_COUNT>
23

> <PUBCHEM_ATOM_DEF_STEREO_COUNT>
9

> <PUBCHEM_ATOM_UDEF_STEREO_COUNT>
0

> <PUBCHEM_BOND_DEF_STEREO_COUNT>
0

> <PUBCHEM_BOND_UDEF_STEREO_COUNT>
0

> <PUBCHEM_ISOTOPIC_ATOM_COUNT>
0

> <PUBCHEM_COMPONENT_COUNT>
1

> <PUBCHEM_CACTVS_TAUTO_COUNT>
2

> <PUBCHEM_CONFORMER_ID>
0002844B00000002

> <PUBCHEM_MMFF94_ENERGY>
60.9582

> <PUBCHEM_FEATURE_SELFOVERLAP>
101.571

> <PUBCHEM_SHAPE_FINGERPRINT>
10498660 4 17917717872405382476
11370993 144 13110702539936414028
11640471 11 18272101538210299011
12633257 1 11383838151599953286
12788726 201 17343506592133742762
13544653 18 5328747344820408018
13583140 156 14045459969525201612
14123250 116 18409161134395936513
14251751 93 18336254674563412070
15183329 4 18131061646452309990
15295992 7 15911087342123324337
15342168 16 18058446672464038813
15475509 8 17313394392612754381
18186145 218 18410285883583586858
18981168 100 17345739940798948315
20671657 53 15647326417001429546
20693207 138 16588027879116413928
20775530 9 5037944226849455165
21475661 188 15694372518062632949
21713013 43 16660645133036214036
21864079 5 17703229632231170732
22393880 68 17458061586558803020
22907989 373 18261117370152420759
235170 7 17022902316099107700
23557571 272 17677350311062815961
27216 239 15482670156742633197
3459 83 18199181966497228134
469060 322 15983681239916010409
474 4 18059017296932999331
5161694 15 15575005012870982641
5262128 65 16805615728336946729
633830 44 18198890578176763994
85463 6 7709464875039266038

> <PUBCHEM_SHAPE_MULTIPOLES>
408.77
8.92
2.88
2.06
8.47
0.24
0.12
-4.98
5.69
-1.28
-0.68
-0.4
-0.44
-2.14

> <PUBCHEM_SHAPE_SELFOVERLAP>
817.736

> <PUBCHEM_SHAPE_VOLUME>
236.6

> <PUBCHEM_COORDINATE_TYPE>
2
5
10

$$$$

