656869
  -OEChem-07051213043D

 23 24  0     0  0  0  0  0  0999 V2000
   -1.3038   -2.0700   -0.0010 O   0  0  0  0  0  0  0  0  0  0  0  0
   -3.4252   -0.3847    0.0009 O   0  0  0  0  0  0  0  0  0  0  0  0
    0.2515   -0.2026   -0.0001 C   0  0  0  0  0  0  0  0  0  0  0  0
    0.4330    1.2010    0.0002 C   0  0  0  0  0  0  0  0  0  0  0  0
    1.3785   -1.0408   -0.0002 C   0  0  0  0  0  0  0  0  0  0  0  0
   -1.0514   -0.7266   -0.0003 C   0  0  0  0  0  0  0  0  0  0  0  0
    1.7359    1.7251    0.0001 C   0  0  0  0  0  0  0  0  0  0  0  0
   -0.6940    2.0391    0.0001 C   0  0  0  0  0  0  0  0  0  0  0  0
    2.6657   -0.5027   -0.0002 C   0  0  0  0  0  0  0  0  0  0  0  0
   -2.1596    0.1208   -0.0004 C   0  0  0  0  0  0  0  0  0  0  0  0
    2.8441    0.8776   -0.0001 C   0  0  0  0  0  0  0  0  0  0  0  0
    1.3066   -2.5371    0.0010 C   0  0  0  0  0  0  0  0  0  0  0  0
   -1.9812    1.5011   -0.0001 C   0  0  0  0  0  0  0  0  0  0  0  0
    1.8990    2.8008    0.0002 H   0  0  0  0  0  0  0  0  0  0  0  0
   -0.5781    3.1209    0.0003 H   0  0  0  0  0  0  0  0  0  0  0  0
    3.5460   -1.1403   -0.0001 H   0  0  0  0  0  0  0  0  0  0  0  0
    3.8463    1.2961    0.0000 H   0  0  0  0  0  0  0  0  0  0  0  0
    0.8076   -2.9054    0.9032 H   0  0  0  0  0  0  0  0  0  0  0  0
    0.8082   -2.9068   -0.9009 H   0  0  0  0  0  0  0  0  0  0  0  0
    2.3039   -2.9938    0.0018 H   0  0  0  0  0  0  0  0  0  0  0  0
   -2.8355    2.1729    0.0001 H   0  0  0  0  0  0  0  0  0  0  0  0
   -2.2664   -2.2115   -0.0012 H   0  0  0  0  0  0  0  0  0  0  0  0
   -4.0616    0.3508    0.0010 H   0  0  0  0  0  0  0  0  0  0  0  0
  1  6  1  0  0  0  0
  1 22  1  0  0  0  0
  2 10  1  0  0  0  0
  2 23  1  0  0  0  0
  3  4  1  0  0  0  0
  3  5  2  0  0  0  0
  3  6  1  0  0  0  0
  4  7  2  0  0  0  0
  4  8  1  0  0  0  0
  5  9  1  0  0  0  0
  5 12  1  0  0  0  0
  6 10  2  0  0  0  0
  7 11  1  0  0  0  0
  7 14  1  0  0  0  0
  8 13  2  0  0  0  0
  8 15  1  0  0  0  0
  9 11  2  0  0  0  0
  9 16  1  0  0  0  0
 10 13  1  0  0  0  0
 11 17  1  0  0  0  0
 12 18  1  0  0  0  0
 12 19  1  0  0  0  0
 12 20  1  0  0  0  0
 13 21  1  0  0  0  0
M  END
> <PUBCHEM_COMPOUND_CID>
656869

> <PUBCHEM_CONFORMER_RMSD>
0.4

> <PUBCHEM_CONFORMER_DIVERSEORDER>
1

> <PUBCHEM_MMFF94_PARTIAL_CHARGES>
18
1 -0.53
10 0.08
11 -0.15
12 0.14
13 -0.15
14 0.15
15 0.15
16 0.15
17 0.15
2 -0.53
21 0.15
22 0.45
23 0.45
5 -0.14
6 0.08
7 -0.15
8 -0.15
9 -0.15

> <PUBCHEM_EFFECTIVE_ROTOR_COUNT>
0

> <PUBCHEM_PHARMACOPHORE_FEATURES>
4
1 1 donor
1 2 donor
6 3 4 5 7 9 11 rings
6 3 4 6 8 10 13 rings

> <PUBCHEM_HEAVY_ATOM_COUNT>
13

> <PUBCHEM_ATOM_DEF_STEREO_COUNT>
0

> <PUBCHEM_ATOM_UDEF_STEREO_COUNT>
0

> <PUBCHEM_BOND_DEF_STEREO_COUNT>
0

> <PUBCHEM_BOND_UDEF_STEREO_COUNT>
0

> <PUBCHEM_ISOTOPIC_ATOM_COUNT>
0

> <PUBCHEM_COMPONENT_COUNT>
1

> <PUBCHEM_CACTVS_TAUTO_COUNT>
21

> <PUBCHEM_CONFORMER_ID>
000A05E500000001

> <PUBCHEM_MMFF94_ENERGY>
42.4508

> <PUBCHEM_FEATURE_SELFOVERLAP>
20.33

> <PUBCHEM_SHAPE_FINGERPRINT>
10967382 1 18410856529585580998
11206711 2 18340483481845633020
11471102 20 18411142433069375293
12423570 1 7475383462090870648
12524768 44 18412823611738129843
13140716 1 18266459797829355970
13380535 76 18411985732396432666
16945 1 18410573998142003972
17844478 74 18059847364235885865
17990270 104 18266741470543503274
193761 8 18122344845987412804
19973954 147 18265894855005944512
20201158 50 18412827992662833051
20588541 1 18411979126831358601
20645477 70 18409736196705726455
21501502 16 18266739262772090072
2334 1 17978509724128289090
23463225 33 18342462573227582696
23552423 10 18269832180464793004
23559900 14 18117829114354389582
241688 4 17762617695647707136
2748010 2 18122624946616663396
2897 32 18339922713867323548
5084963 1 18114747139008624521
528886 8 18337958874478399792
53812653 166 18189620436576233584
66348 1 18338798909904443336
7364860 26 18262238949227354062
8809292 202 18272645719077892394

> <PUBCHEM_SHAPE_MULTIPOLES>
255.8
3.96
2.45
0.6
0.81
0.58
0
-0.03
0
-0.4
0
-0.03
-0.02
0

> <PUBCHEM_SHAPE_SELFOVERLAP>
565.37

> <PUBCHEM_SHAPE_VOLUME>
138.8

> <PUBCHEM_COORDINATE_TYPE>
2
5
10

$$$$

