15517793
  -OEChem-07051212523D

 21 22  0     1  0  0  0  0  0999 V2000
   -0.5170    1.2236    0.8101 O   0  0  0  0  0  0  0  0  0  0  0  0
    2.9683    0.8014   -1.4414 O   0  0  0  0  0  0  0  0  0  0  0  0
    0.4324   -3.0168   -0.6942 O   0  0  0  0  0  0  0  0  0  0  0  0
    0.1259   -2.2048    1.4136 O   0  0  0  0  0  0  0  0  0  0  0  0
   -4.2661    0.7908   -0.5123 O   0  0  0  0  0  0  0  0  0  0  0  0
    1.4468    0.0461    0.1970 N   0  0  0  0  0  0  0  0  0  0  0  0
    0.8917    1.0547    1.1033 C   0  0  1  0  0  0  0  0  0  0  0  0
    1.9096    2.0488    0.5163 C   0  0  0  0  0  0  0  0  0  0  0  0
    0.3865   -0.6862   -0.4426 C   0  0  2  0  0  0  0  0  0  0  0  0
    2.2925    0.9072   -0.4432 C   0  0  0  0  0  0  0  0  0  0  0  0
   -0.8068    0.1629   -0.0697 C   0  0  0  0  0  0  0  0  0  0  0  0
    0.2963   -2.0228    0.2173 C   0  0  0  0  0  0  0  0  0  0  0  0
   -2.0432   -0.0035   -0.5523 C   0  0  0  0  0  0  0  0  0  0  0  0
   -3.1168    0.8986   -0.1019 C   0  0  0  0  0  0  0  0  0  0  0  0
    1.0551    0.8051    2.1577 H   0  0  0  0  0  0  0  0  0  0  0  0
    2.7135    2.3515    1.1917 H   0  0  0  0  0  0  0  0  0  0  0  0
    1.4820    2.9219    0.0176 H   0  0  0  0  0  0  0  0  0  0  0  0
    0.5430   -0.7371   -1.5241 H   0  0  0  0  0  0  0  0  0  0  0  0
   -2.2905   -0.7926   -1.2521 H   0  0  0  0  0  0  0  0  0  0  0  0
    0.3767   -3.9042   -0.2796 H   0  0  0  0  0  0  0  0  0  0  0  0
   -2.8479    1.6806    0.6253 H   0  0  0  0  0  0  0  0  0  0  0  0
  1  7  1  0  0  0  0
  1 11  1  0  0  0  0
  2 10  2  0  0  0  0
  3 12  1  0  0  0  0
  3 20  1  0  0  0  0
  4 12  2  0  0  0  0
  5 14  2  0  0  0  0
  6  7  1  0  0  0  0
  6  9  1  0  0  0  0
  6 10  1  0  0  0  0
  7  8  1  0  0  0  0
  7 15  1  0  0  0  0
  8 10  1  0  0  0  0
  8 16  1  0  0  0  0
  8 17  1  0  0  0  0
  9 11  1  0  0  0  0
  9 12  1  0  0  0  0
  9 18  1  0  0  0  0
 11 13  2  0  0  0  0
 13 14  1  0  0  0  0
 13 19  1  0  0  0  0
 14 21  1  0  0  0  0
M  END
> <PUBCHEM_COMPOUND_CID>
15517793

> <PUBCHEM_CONFORMER_RMSD>
0.6

> <PUBCHEM_CONFORMER_DIVERSEORDER>
1
2

> <PUBCHEM_MMFF94_PARTIAL_CHARGES>
17
1 -0.33
10 0.58
11 -0.06
12 0.66
13 -0.14
14 0.5
19 0.15
2 -0.57
20 0.5
21 0.06
3 -0.65
4 -0.57
5 -0.57
6 -0.59
7 0.48
8 0.05
9 0.5

> <PUBCHEM_EFFECTIVE_ROTOR_COUNT>
2.6

> <PUBCHEM_PHARMACOPHORE_FEATURES>
7
1 1 acceptor
1 2 acceptor
1 3 acceptor
1 4 acceptor
1 5 acceptor
3 3 4 12 anion
7 1 6 7 8 9 10 11 rings

> <PUBCHEM_HEAVY_ATOM_COUNT>
14

> <PUBCHEM_ATOM_DEF_STEREO_COUNT>
2

> <PUBCHEM_ATOM_UDEF_STEREO_COUNT>
0

> <PUBCHEM_BOND_DEF_STEREO_COUNT>
1

> <PUBCHEM_BOND_UDEF_STEREO_COUNT>
0

> <PUBCHEM_ISOTOPIC_ATOM_COUNT>
0

> <PUBCHEM_COMPONENT_COUNT>
1

> <PUBCHEM_CACTVS_TAUTO_COUNT>
1

> <PUBCHEM_CONFORMER_ID>
00ECC86100000001

> <PUBCHEM_MMFF94_ENERGY>
34.4253

> <PUBCHEM_FEATURE_SELFOVERLAP>
35.576

> <PUBCHEM_SHAPE_FINGERPRINT>
1 1 18340216261859979254
107287 299 18343014519495949073
11031198 65 18411697712263966453
12138202 97 18192984920814039572
12423570 1 10007099754962941928
12532896 13 18194412099374991538
13380535 21 18410569604986617671
13380536 305 18408324354323169816
15490181 7 18193844747122549907
16945 1 18113890580811835400
18186145 218 18260823765803301201
20559304 39 18044106858904516433
20645476 183 18129374913230051564
20645477 70 18266469883383251223
20653091 64 18051699037970036859
20708731 107 18266463281274822447
20711985 344 17693383235206041730
20820808 20 18409167709948688113
21040471 1 18266469706456206944
21524375 3 18342464707356849861
21930827 45 18121789322174806296
23419403 2 17336126893341649218
23552423 10 18122624118009852025
25 1 18409440406001611693
2748010 2 18118397345867032848
3060560 45 18411707573240067445
3071541 250 17973717270886730543
3250762 1 17684653121482081800
430814 3 17632580401045673052
7364860 26 18191033493648615727
81228 2 17621608211234845459
81539 233 18201163230056353245

> <PUBCHEM_SHAPE_MULTIPOLES>
253.79
4.28
2.47
1.07
4.11
2.16
0.07
-3.01
-1.48
-0.64
0.34
-0.47
0.08
0.11

> <PUBCHEM_SHAPE_SELFOVERLAP>
541.046

> <PUBCHEM_SHAPE_VOLUME>
140.1

> <PUBCHEM_COORDINATE_TYPE>
2
5
10

$$$$

