11664966
  -OEChem-07051213123D

 48 49  0     0  0  0  0  0  0999 V2000
    7.2935   -0.7180    0.2441 F   0  0  0  0  0  0  0  0  0  0  0  0
    6.3807    0.5939    1.7104 F   0  0  0  0  0  0  0  0  0  0  0  0
    5.7593   -1.4860    1.5804 F   0  0  0  0  0  0  0  0  0  0  0  0
   -0.7858    1.1125   -0.3378 O   0  0  0  0  0  0  0  0  0  0  0  0
   -2.7687   -3.0682   -0.5061 O   0  0  0  0  0  0  0  0  0  0  0  0
   -2.3469   -0.1369    2.2082 O   0  0  0  0  0  0  0  0  0  0  0  0
   -4.8238   -2.1488   -1.0883 O   0  0  0  0  0  0  0  0  0  0  0  0
    0.4194    0.7318   -0.9393 N   0  0  0  0  0  0  0  0  0  0  0  0
   -2.6037   -1.2961    1.4628 N   0  0  0  0  0  0  0  0  0  0  0  0
   -3.1469    1.1831   -0.6141 C   0  0  0  0  0  0  0  0  0  0  0  0
   -3.8765    0.3216    0.1788 C   0  0  0  0  0  0  0  0  0  0  0  0
   -1.8443    0.7877   -1.2293 C   0  0  0  0  0  0  0  0  0  0  0  0
    2.7986    0.6340   -0.6491 C   0  0  0  0  0  0  0  0  0  0  0  0
   -3.6416    2.4659   -0.8493 C   0  0  0  0  0  0  0  0  0  0  0  0
    5.0356   -0.0401   -0.1630 C   0  0  0  0  0  0  0  0  0  0  0  0
    3.7594    0.3041    0.2822 C   0  0  0  0  0  0  0  0  0  0  0  0
   -5.0805    0.6872    0.7471 C   0  0  0  0  0  0  0  0  0  0  0  0
    1.4361    1.0009   -0.1752 C   0  0  0  0  0  0  0  0  0  0  0  0
    3.0515    0.6363   -2.0037 C   0  0  0  0  0  0  0  0  0  0  0  0
   -3.3735   -1.0518    0.4459 C   0  0  0  0  0  0  0  0  0  0  0  0
   -4.8557    2.8593   -0.2865 C   0  0  0  0  0  0  0  0  0  0  0  0
   -5.5752    1.9700    0.5117 C   0  0  0  0  0  0  0  0  0  0  0  0
    5.3199   -0.0460   -1.5285 C   0  0  0  0  0  0  0  0  0  0  0  0
    4.3278    0.2921   -2.4489 C   0  0  0  0  0  0  0  0  0  0  0  0
    6.0962   -0.4030    0.8211 C   0  0  0  0  0  0  0  0  0  0  0  0
    1.3024    1.6599    1.1835 C   0  0  0  0  0  0  0  0  0  0  0  0
   -3.7657   -2.1627   -0.4910 C   0  0  0  0  0  0  0  0  0  0  0  0
   -2.9877   -4.1938   -1.3606 C   0  0  0  0  0  0  0  0  0  0  0  0
   -1.5038   -0.4889    3.2942 C   0  0  0  0  0  0  0  0  0  0  0  0
   -1.6985    1.3279   -2.1742 H   0  0  0  0  0  0  0  0  0  0  0  0
   -1.8159   -0.2796   -1.4763 H   0  0  0  0  0  0  0  0  0  0  0  0
   -3.0908    3.1705   -1.4669 H   0  0  0  0  0  0  0  0  0  0  0  0
    3.5495    0.2797    1.3473 H   0  0  0  0  0  0  0  0  0  0  0  0
   -5.6456   -0.0002    1.3696 H   0  0  0  0  0  0  0  0  0  0  0  0
    2.2956    0.9048   -2.7354 H   0  0  0  0  0  0  0  0  0  0  0  0
   -5.2406    3.8584   -0.4690 H   0  0  0  0  0  0  0  0  0  0  0  0
   -6.5204    2.2764    0.9500 H   0  0  0  0  0  0  0  0  0  0  0  0
    6.3079   -0.3110   -1.8947 H   0  0  0  0  0  0  0  0  0  0  0  0
    4.5498    0.2893   -3.5121 H   0  0  0  0  0  0  0  0  0  0  0  0
    2.2361    2.1294    1.5035 H   0  0  0  0  0  0  0  0  0  0  0  0
    0.5505    2.4540    1.1503 H   0  0  0  0  0  0  0  0  0  0  0  0
    1.0002    0.9104    1.9196 H   0  0  0  0  0  0  0  0  0  0  0  0
   -3.8749   -4.7475   -1.0386 H   0  0  0  0  0  0  0  0  0  0  0  0
   -3.0934   -3.8661   -2.3994 H   0  0  0  0  0  0  0  0  0  0  0  0
   -2.1176   -4.8516   -1.2871 H   0  0  0  0  0  0  0  0  0  0  0  0
   -0.5684   -0.9222    2.9268 H   0  0  0  0  0  0  0  0  0  0  0  0
   -1.2725    0.4168    3.8609 H   0  0  0  0  0  0  0  0  0  0  0  0
   -2.0127   -1.1975    3.9549 H   0  0  0  0  0  0  0  0  0  0  0  0
  1 25  1  0  0  0  0
  2 25  1  0  0  0  0
  3 25  1  0  0  0  0
  4  8  1  0  0  0  0
  4 12  1  0  0  0  0
  5 27  1  0  0  0  0
  5 28  1  0  0  0  0
  6  9  1  0  0  0  0
  6 29  1  0  0  0  0
  7 27  2  0  0  0  0
  8 18  2  0  0  0  0
  9 20  2  0  0  0  0
 10 11  1  0  0  0  0
 10 12  1  0  0  0  0
 10 14  2  0  0  0  0
 11 17  2  0  0  0  0
 11 20  1  0  0  0  0
 12 30  1  0  0  0  0
 12 31  1  0  0  0  0
 13 16  2  0  0  0  0
 13 18  1  0  0  0  0
 13 19  1  0  0  0  0
 14 21  1  0  0  0  0
 14 32  1  0  0  0  0
 15 16  1  0  0  0  0
 15 23  2  0  0  0  0
 15 25  1  0  0  0  0
 16 33  1  0  0  0  0
 17 22  1  0  0  0  0
 17 34  1  0  0  0  0
 18 26  1  0  0  0  0
 19 24  2  0  0  0  0
 19 35  1  0  0  0  0
 20 27  1  0  0  0  0
 21 22  2  0  0  0  0
 21 36  1  0  0  0  0
 22 37  1  0  0  0  0
 23 24  1  0  0  0  0
 23 38  1  0  0  0  0
 24 39  1  0  0  0  0
 26 40  1  0  0  0  0
 26 41  1  0  0  0  0
 26 42  1  0  0  0  0
 28 43  1  0  0  0  0
 28 44  1  0  0  0  0
 28 45  1  0  0  0  0
 29 46  1  0  0  0  0
 29 47  1  0  0  0  0
 29 48  1  0  0  0  0
M  END
> <PUBCHEM_COMPOUND_CID>
11664966

> <PUBCHEM_CONFORMER_RMSD>
1

> <PUBCHEM_CONFORMER_DIVERSEORDER>
1
41
42
19
27
133
122
62
65
119
31
49
43
82
120
57
83
80
58
15
132
96
95
123
30
84
76
129
110
52
5
25
70
91
77
98
101
121
21
103
128
32
44
72
9
100
11
137
78
33
131
124
71
79
28
88
90
20
60
135
125
107
74
55
14
127
59
64
22
37
38
45
136
99
12
56
85
113
81
36
104
6
61
126
105
112
3
40
16
63
24
102
67
17
51
92
97
23
53
10
8
73
89
87
69
106
130
94
138
68
7
18
116
34
2
48
134
115
4
93
29
35
47
26
118
86
75
13
117
46
108
111
66
39
50
54
114
109

> <PUBCHEM_MMFF94_PARTIAL_CHARGES>
37
1 -0.34
10 -0.14
11 0.09
12 0.42
13 0.09
14 -0.15
15 -0.14
16 -0.15
17 -0.15
18 0.3
19 -0.15
2 -0.34
20 0.36
21 -0.15
22 -0.15
23 -0.15
24 -0.15
25 1.16
26 0.06
27 0.72
28 0.28
29 0.28
3 -0.34
32 0.15
33 0.15
34 0.15
35 0.15
36 0.15
37 0.15
38 0.15
39 0.15
4 -0.22
5 -0.43
6 -0.22
7 -0.57
8 -0.51
9 -0.51

> <PUBCHEM_EFFECTIVE_ROTOR_COUNT>
9

> <PUBCHEM_PHARMACOPHORE_FEATURES>
5
1 7 acceptor
1 8 acceptor
1 9 acceptor
6 10 11 14 17 21 22 rings
6 13 15 16 19 23 24 rings

> <PUBCHEM_HEAVY_ATOM_COUNT>
29

> <PUBCHEM_ATOM_DEF_STEREO_COUNT>
0

> <PUBCHEM_ATOM_UDEF_STEREO_COUNT>
0

> <PUBCHEM_BOND_DEF_STEREO_COUNT>
2

> <PUBCHEM_BOND_UDEF_STEREO_COUNT>
0

> <PUBCHEM_ISOTOPIC_ATOM_COUNT>
0

> <PUBCHEM_COMPONENT_COUNT>
1

> <PUBCHEM_CACTVS_TAUTO_COUNT>
1

> <PUBCHEM_CONFORMER_ID>
00B1FE4600000001

> <PUBCHEM_MMFF94_ENERGY>
79.7739

> <PUBCHEM_FEATURE_SELFOVERLAP>
25.371

> <PUBCHEM_SHAPE_FINGERPRINT>
11405975 8 18341610399839553236
11443803 9 18270125738229551409
11524674 6 18186522137463387671
11796584 16 18408885170415927286
12236239 1 17131824391363811549
12523318 42 18187650150209478167
12596602 18 17894635821073055114
12616971 3 17274818065005248100
13004483 165 17901105218847722023
14251751 18 18410859832895460052
15021287 119 17060334154200464004
15131766 46 15265058041109912711
15183329 4 16630808807591559938
15250474 111 18272091561123116006
15348495 7 18187090525019562912
17809404 112 17603299366915822622
17857418 61 17917997170234308172
20775530 9 17178832645632086015
23522609 53 17344316038876622524
23572383 38 17530677710622863182
32027 91 17679005239910310118
3383291 50 18261107479222480823
3411729 13 17699563955956161857
3459 83 17203332238683519226
3610482 184 17488155193482273988
397830 11 18042135276011473840
44062 13 18409161083009140743
508706 21 18334284349784869663
5104073 3 18260831445199643016
5364581 5 18117287964668843744
559249 180 18130790096216650645
5924683 9 18335987463373519119

> <PUBCHEM_SHAPE_MULTIPOLES>
541.55
16.44
3.01
2.18
22.24
2.95
-1.09
-0.11
-1.36
-6.67
1.25
1.26
0.39
-0.96

> <PUBCHEM_SHAPE_SELFOVERLAP>
1146.027

> <PUBCHEM_SHAPE_VOLUME>
305.9

> <PUBCHEM_COORDINATE_TYPE>
2
5
10

$$$$

