5460401
  -OEChem-07051212453D

 31 30  0     1  0  0  0  0  0999 V2000
    0.3395    1.8460    0.0186 O   0  0  0  0  0  0  0  0  0  0  0  0
    1.3751   -0.2168    1.6385 O   0  0  0  0  0  0  0  0  0  0  0  0
    3.0446    0.2967   -1.5730 O   0  0  0  0  0  0  0  0  0  0  0  0
    5.2499    0.4926    0.1508 O   0  0  0  0  0  0  0  0  0  0  0  0
   -0.8932   -2.4587    0.5999 O   0  0  0  0  0  0  0  0  0  0  0  0
   -1.7379   -1.8925   -1.4250 O   0  0  0  0  0  0  0  0  0  0  0  0
   -3.6944    0.2293    1.3190 O   0  0  0  0  0  0  0  0  0  0  0  0
   -2.1975    0.6177   -0.4210 N   0  0  0  0  0  0  0  0  0  0  0  0
    0.2597    0.4647   -0.3615 C   0  0  1  0  0  0  0  0  0  0  0  0
    1.5117   -0.2250    0.2093 C   0  0  1  0  0  0  0  0  0  0  0  0
   -1.0773   -0.1226    0.1131 C   0  0  2  0  0  0  0  0  0  0  0  0
    2.8545    0.4302   -0.1584 C   0  0  1  0  0  0  0  0  0  0  0  0
    4.0649   -0.2069    0.5227 C   0  0  0  0  0  0  0  0  0  0  0  0
   -1.2907   -1.5580   -0.3346 C   0  0  0  0  0  0  0  0  0  0  0  0
   -3.4129    0.7285    0.2327 C   0  0  0  0  0  0  0  0  0  0  0  0
   -4.3957    1.5749   -0.5310 C   0  0  0  0  0  0  0  0  0  0  0  0
    0.3109    0.4339   -1.4571 H   0  0  0  0  0  0  0  0  0  0  0  0
    1.5126   -1.2710   -0.1208 H   0  0  0  0  0  0  0  0  0  0  0  0
   -1.1595   -0.0735    1.2052 H   0  0  0  0  0  0  0  0  0  0  0  0
    2.8505    1.5015    0.0701 H   0  0  0  0  0  0  0  0  0  0  0  0
    3.9887   -0.1565    1.6121 H   0  0  0  0  0  0  0  0  0  0  0  0
    4.1891   -1.2536    0.2262 H   0  0  0  0  0  0  0  0  0  0  0  0
   -2.1030    1.0217   -1.3488 H   0  0  0  0  0  0  0  0  0  0  0  0
   -0.4433    2.2924   -0.3467 H   0  0  0  0  0  0  0  0  0  0  0  0
    1.9551   -0.9119    1.9925 H   0  0  0  0  0  0  0  0  0  0  0  0
    3.0584   -0.6524   -1.7845 H   0  0  0  0  0  0  0  0  0  0  0  0
    5.3129    0.4609   -0.8191 H   0  0  0  0  0  0  0  0  0  0  0  0
   -5.3678    1.5547   -0.0305 H   0  0  0  0  0  0  0  0  0  0  0  0
   -4.0363    2.6068   -0.5740 H   0  0  0  0  0  0  0  0  0  0  0  0
   -4.5146    1.1868   -1.5466 H   0  0  0  0  0  0  0  0  0  0  0  0
   -1.0182   -3.3823    0.2942 H   0  0  0  0  0  0  0  0  0  0  0  0
  1  9  1  0  0  0  0
  1 24  1  0  0  0  0
  2 10  1  0  0  0  0
  2 25  1  0  0  0  0
  3 12  1  0  0  0  0
  3 26  1  0  0  0  0
  4 13  1  0  0  0  0
  4 27  1  0  0  0  0
  5 14  1  0  0  0  0
  5 31  1  0  0  0  0
  6 14  2  0  0  0  0
  7 15  2  0  0  0  0
  8 11  1  0  0  0  0
  8 15  1  0  0  0  0
  8 23  1  0  0  0  0
  9 10  1  0  0  0  0
  9 11  1  0  0  0  0
  9 17  1  0  0  0  0
 10 12  1  0  0  0  0
 10 18  1  0  0  0  0
 11 14  1  0  0  0  0
 11 19  1  0  0  0  0
 12 13  1  0  0  0  0
 12 20  1  0  0  0  0
 13 21  1  0  0  0  0
 13 22  1  0  0  0  0
 15 16  1  0  0  0  0
 16 28  1  0  0  0  0
 16 29  1  0  0  0  0
 16 30  1  0  0  0  0
M  END
> <PUBCHEM_COMPOUND_CID>
5460401

> <PUBCHEM_CONFORMER_RMSD>
0.8

> <PUBCHEM_CONFORMER_DIVERSEORDER>
1
27
42
44
15
43
11
5
12
7
19
53
45
50
51
26
32
38
4
40
25
33
14
48
3
16
49
28
30
34
22
2
24
31
36
10
47
6
52
41
29
46
20
9
23
17
8
39
35
37
54
18
13
21

> <PUBCHEM_MMFF94_PARTIAL_CHARGES>
22
1 -0.68
10 0.28
11 0.36
12 0.28
13 0.28
14 0.66
15 0.57
16 0.06
2 -0.68
23 0.37
24 0.4
25 0.4
26 0.4
27 0.4
3 -0.68
31 0.5
4 -0.68
5 -0.65
6 -0.57
7 -0.57
8 -0.73
9 0.28

> <PUBCHEM_EFFECTIVE_ROTOR_COUNT>
7

> <PUBCHEM_PHARMACOPHORE_FEATURES>
13
1 1 acceptor
1 1 donor
1 2 acceptor
1 2 donor
1 3 acceptor
1 3 donor
1 4 acceptor
1 4 donor
1 5 acceptor
1 6 acceptor
1 7 acceptor
1 8 donor
3 5 6 14 anion

> <PUBCHEM_HEAVY_ATOM_COUNT>
16

> <PUBCHEM_ATOM_DEF_STEREO_COUNT>
4

> <PUBCHEM_ATOM_UDEF_STEREO_COUNT>
0

> <PUBCHEM_BOND_DEF_STEREO_COUNT>
0

> <PUBCHEM_BOND_UDEF_STEREO_COUNT>
0

> <PUBCHEM_ISOTOPIC_ATOM_COUNT>
0

> <PUBCHEM_COMPONENT_COUNT>
1

> <PUBCHEM_CACTVS_TAUTO_COUNT>
2

> <PUBCHEM_CONFORMER_ID>
005351B100000001

> <PUBCHEM_MMFF94_ENERGY>
33.5894

> <PUBCHEM_FEATURE_SELFOVERLAP>
66.044

> <PUBCHEM_SHAPE_FINGERPRINT>
10014705 185 18335427828813252448
124424 183 16732703839723788272
12500047 106 17967821526445824406
13214271 11 17775567541762634825
13675066 3 18060137648153525920
14943859 89 18410575097579700915
14993402 34 18409171025879627429
15309172 13 18410288142736371521
15342168 16 15409462417770696574
15375358 24 17385723595459642748
15375462 189 17988933266538164504
15775835 57 18410860992499680711
16945 1 17895195540625253569
18186145 218 17603587460801035585
187816 3 17458348558872307761
19422 9 17632570518109640723
200 152 5978102431841491372
20233049 118 18341615948852793108
20279233 1 17167856453090046686
20645476 183 17988345005983933967
20645477 56 18410857659520968460
20871999 31 18337117765162871702
21061003 4 14045739300996584239
21501502 16 18120091684674564556
23402539 116 18261965114633544396
23526113 38 16732979868650507326
23557571 272 18115021880104368828
23559900 14 18040433292330895182
298252 57 18412265064469156651
3286 77 14333118659501237422
366044 4 18261114097324024415
69090 78 17967537882526310743
81228 2 17974303019017253707
81539 233 18128538352638395399

> <PUBCHEM_SHAPE_MULTIPOLES>
283.21
8.18
1.71
1.13
3.72
0.88
0.01
-3.33
-0.32
-1.39
0.22
0.01
0.2
-0.21

> <PUBCHEM_SHAPE_SELFOVERLAP>
548.941

> <PUBCHEM_SHAPE_VOLUME>
170.1

> <PUBCHEM_COORDINATE_TYPE>
2
5
10

$$$$

