12452
  -OEChem-06261206573D

 45 48  0     1  0  0  0  0  0999 V2000
   -4.9317    1.0397    0.9429 O   0  0  0  0  0  0  0  0  0  0  0  0
    5.6752   -0.1323    0.7236 O   0  0  0  0  0  0  0  0  0  0  0  0
   -2.0274   -0.7227    0.2081 C   0  0  2  0  0  0  0  0  0  0  0  0
    0.1748    0.4480    0.1459 C   0  0  1  0  0  0  0  0  0  0  0  0
   -2.7878    0.5855   -0.1138 C   0  0  2  0  0  0  0  0  0  0  0  0
   -0.6489   -0.7372   -0.4617 C   0  0  1  0  0  0  0  0  0  0  0  0
    1.6638    0.4341   -0.3559 C   0  0  2  0  0  0  0  0  0  0  0  0
   -0.5688    1.7995   -0.0120 C   0  0  0  0  0  0  0  0  0  0  0  0
   -2.0205    1.7505    0.5055 C   0  0  0  0  0  0  0  0  0  0  0  0
   -3.0445   -1.8204   -0.0908 C   0  0  0  0  0  0  0  0  0  0  0  0
   -4.1169    0.2276    0.5259 C   0  0  0  0  0  0  0  0  0  0  0  0
   -4.3295   -1.2767    0.5525 C   0  0  0  0  0  0  0  0  0  0  0  0
    0.0938   -2.0349   -0.2953 C   0  0  0  0  0  0  0  0  0  0  0  0
    2.2827   -0.9318   -0.0209 C   0  0  0  0  0  0  0  0  0  0  0  0
    2.4677    1.5432    0.3740 C   0  0  0  0  0  0  0  0  0  0  0  0
   -3.0799    0.8491   -1.6037 C   0  0  0  0  0  0  0  0  0  0  0  0
    1.7527    0.6619   -1.8834 C   0  0  0  0  0  0  0  0  0  0  0  0
    1.4159   -2.1007   -0.0867 C   0  0  0  0  0  0  0  0  0  0  0  0
    3.9717    1.4456    0.1513 C   0  0  0  0  0  0  0  0  0  0  0  0
    3.5652   -1.0901    0.3482 C   0  0  0  0  0  0  0  0  0  0  0  0
    4.4925    0.0620    0.4463 C   0  0  0  0  0  0  0  0  0  0  0  0
   -1.8560   -0.7730    1.2978 H   0  0  0  0  0  0  0  0  0  0  0  0
    0.2205    0.2748    1.2350 H   0  0  0  0  0  0  0  0  0  0  0  0
   -0.7814   -0.5962   -1.5398 H   0  0  0  0  0  0  0  0  0  0  0  0
   -0.5687    2.1098   -1.0619 H   0  0  0  0  0  0  0  0  0  0  0  0
   -0.0468    2.5850    0.5449 H   0  0  0  0  0  0  0  0  0  0  0  0
   -2.0105    1.6561    1.5992 H   0  0  0  0  0  0  0  0  0  0  0  0
   -2.5202    2.7030    0.2910 H   0  0  0  0  0  0  0  0  0  0  0  0
   -2.7680   -2.7839    0.3483 H   0  0  0  0  0  0  0  0  0  0  0  0
   -3.1751   -1.9704   -1.1678 H   0  0  0  0  0  0  0  0  0  0  0  0
   -4.4170   -1.6025    1.5929 H   0  0  0  0  0  0  0  0  0  0  0  0
   -5.2159   -1.5579   -0.0200 H   0  0  0  0  0  0  0  0  0  0  0  0
   -0.4626   -2.9644   -0.3739 H   0  0  0  0  0  0  0  0  0  0  0  0
    2.2735    1.4835    1.4542 H   0  0  0  0  0  0  0  0  0  0  0  0
    2.1387    2.5381    0.0515 H   0  0  0  0  0  0  0  0  0  0  0  0
   -2.1722    0.9647   -2.2014 H   0  0  0  0  0  0  0  0  0  0  0  0
   -3.6755    0.0522   -2.0616 H   0  0  0  0  0  0  0  0  0  0  0  0
   -3.6627    1.7714   -1.7171 H   0  0  0  0  0  0  0  0  0  0  0  0
    2.7827    0.5771   -2.2477 H   0  0  0  0  0  0  0  0  0  0  0  0
    1.1686   -0.0695   -2.4504 H   0  0  0  0  0  0  0  0  0  0  0  0
    1.3944    1.6590   -2.1594 H   0  0  0  0  0  0  0  0  0  0  0  0
    1.8723   -3.0799    0.0353 H   0  0  0  0  0  0  0  0  0  0  0  0
    4.4756    2.1525    0.8201 H   0  0  0  0  0  0  0  0  0  0  0  0
    4.2412    1.7045   -0.8774 H   0  0  0  0  0  0  0  0  0  0  0  0
    3.9818   -2.0641    0.5864 H   0  0  0  0  0  0  0  0  0  0  0  0
  1 11  2  0  0  0  0
  2 21  2  0  0  0  0
  3  5  1  0  0  0  0
  3  6  1  0  0  0  0
  3 10  1  0  0  0  0
  3 22  1  0  0  0  0
  4  6  1  0  0  0  0
  4  7  1  0  0  0  0
  4  8  1  0  0  0  0
  4 23  1  0  0  0  0
  5  9  1  0  0  0  0
  5 11  1  0  0  0  0
  5 16  1  0  0  0  0
  6 13  1  0  0  0  0
  6 24  1  0  0  0  0
  7 14  1  0  0  0  0
  7 15  1  0  0  0  0
  7 17  1  0  0  0  0
  8  9  1  0  0  0  0
  8 25  1  0  0  0  0
  8 26  1  0  0  0  0
  9 27  1  0  0  0  0
  9 28  1  0  0  0  0
 10 12  1  0  0  0  0
 10 29  1  0  0  0  0
 10 30  1  0  0  0  0
 11 12  1  0  0  0  0
 12 31  1  0  0  0  0
 12 32  1  0  0  0  0
 13 18  2  0  0  0  0
 13 33  1  0  0  0  0
 14 18  1  0  0  0  0
 14 20  2  0  0  0  0
 15 19  1  0  0  0  0
 15 34  1  0  0  0  0
 15 35  1  0  0  0  0
 16 36  1  0  0  0  0
 16 37  1  0  0  0  0
 16 38  1  0  0  0  0
 17 39  1  0  0  0  0
 17 40  1  0  0  0  0
 17 41  1  0  0  0  0
 18 42  1  0  0  0  0
 19 21  1  0  0  0  0
 19 43  1  0  0  0  0
 19 44  1  0  0  0  0
 20 21  1  0  0  0  0
 20 45  1  0  0  0  0
M  END
> <PUBCHEM_COMPOUND_CID>
12452

> <PUBCHEM_CONFORMER_RMSD>
0.6

> <PUBCHEM_CONFORMER_DIVERSEORDER>
1

> <PUBCHEM_MMFF94_PARTIAL_CHARGES>
16
1 -0.57
11 0.45
12 0.06
13 -0.29
14 -0.14
18 -0.15
19 0.06
2 -0.57
20 -0.14
21 0.49
33 0.15
42 0.15
45 0.15
5 0.06
6 0.14
7 0.14

> <PUBCHEM_EFFECTIVE_ROTOR_COUNT>
1.2

> <PUBCHEM_PHARMACOPHORE_FEATURES>
6
1 1 acceptor
1 2 acceptor
5 3 5 10 11 12 rings
6 3 4 5 6 8 9 rings
6 4 6 7 13 14 18 rings
6 7 14 15 19 20 21 rings

> <PUBCHEM_HEAVY_ATOM_COUNT>
21

> <PUBCHEM_ATOM_DEF_STEREO_COUNT>
5

> <PUBCHEM_ATOM_UDEF_STEREO_COUNT>
0

> <PUBCHEM_BOND_DEF_STEREO_COUNT>
0

> <PUBCHEM_BOND_UDEF_STEREO_COUNT>
0

> <PUBCHEM_ISOTOPIC_ATOM_COUNT>
0

> <PUBCHEM_COMPONENT_COUNT>
1

> <PUBCHEM_CACTVS_TAUTO_COUNT>
4

> <PUBCHEM_CONFORMER_ID>
000030A400000001

> <PUBCHEM_MMFF94_ENERGY>
59.7083

> <PUBCHEM_FEATURE_SELFOVERLAP>
30.544

> <PUBCHEM_SHAPE_FINGERPRINT>
10062212 137 18412548674039513683
10967382 1 18409448111083068514
11132069 177 18411693292710885767
12107183 9 17763466510134642922
12236239 1 18060136527351619420
12251169 10 18411699898011799946
12403259 415 18412832373841166156
12403814 3 17989204837684261285
12507557 5 18341899592798186944
13140716 1 18337671897474529225
13214271 11 18259421923327767991
13224815 77 18410572881476776975
13583140 156 17203345419421211437
13675066 3 18131349708901127713
14178342 30 18339633538151745513
14223421 5 18337389469025641286
14341114 176 18410006676244217466
14787075 74 18340208466600001018
14790565 3 18266168436218543072
15163728 17 14708591014810579537
15196674 1 18409729534477941250
15536298 74 18261387888414546326
15788980 27 17346601871762376293
16945 1 18266178520426564807
17349148 13 17989205932420834640
17492 89 18412545448208585363
1813 80 17275102864734889406
18186145 218 18408884040301412828
19050596 39 18411697681877221067
19591789 44 18192715544364802954
19784866 9 18408884057317842762
200 152 18261122854941715263
20715895 44 18056205910843230117
21033648 29 18270420350609302752
21267235 1 18411129217154539418
21421861 104 18129100211148066674
22854114 111 18412259527908022247
23402539 116 18040723545234432324
23557571 272 17894907382669238255
23559900 14 18261673766181154214
26918003 58 18342177769371779297
2748010 2 18410852157435695383
2838139 119 15648199382353429656
296302 2 16081088177458437510
335352 9 18409165553779835430
34934 24 18337113462175359491
350125 39 18410854344144040328
3545911 37 18410854386386344299
42 15 18344145882242463624
5104073 3 18410856529617217488
633830 44 18040712563082301396
7364860 26 18188766287845574070
9709674 26 18336260240677796055

> <PUBCHEM_SHAPE_MULTIPOLES>
420.43
9.39
2.08
1.05
2.06
0.38
0.45
-0.48
-2.61
-0.27
-0.05
-0.2
-0.26
-0.03

> <PUBCHEM_SHAPE_SELFOVERLAP>
914.843

> <PUBCHEM_SHAPE_VOLUME>
227.6

> <PUBCHEM_COORDINATE_TYPE>
2
5
10

$$$$

