5282160
  -OEChem-07051213033D

 53 56  0     1  0  0  0  0  0999 V2000
   -3.6690   -0.0155   -0.5856 O   0  0  0  0  0  0  0  0  0  0  0  0
   -2.9385    0.8590    1.4505 O   0  0  0  0  0  0  0  0  0  0  0  0
   -6.8745   -1.8542    1.2060 O   0  0  0  0  0  0  0  0  0  0  0  0
   -6.0398   -2.6740   -1.4372 O   0  0  0  0  0  0  0  0  0  0  0  0
   -4.5473   -1.0286    2.8132 O   0  0  0  0  0  0  0  0  0  0  0  0
   -2.9130   -0.4297   -3.1958 O   0  0  0  0  0  0  0  0  0  0  0  0
    1.6706    0.1090    0.5887 O   0  0  0  0  0  0  0  0  0  0  0  0
   -0.3834    4.3662   -0.4817 O   0  0  0  0  0  0  0  0  0  0  0  0
    4.3551    2.1766   -0.8626 O   0  0  0  0  0  0  0  0  0  0  0  0
    2.1433    3.8617   -0.9272 O   0  0  0  0  0  0  0  0  0  0  0  0
    5.3858   -3.1963   -1.7223 O   0  0  0  0  0  0  0  0  0  0  0  0
    6.9452   -3.3314    0.5747 O   0  0  0  0  0  0  0  0  0  0  0  0
   -5.5296   -1.7607    0.7341 C   0  0  1  0  0  0  0  0  0  0  0  0
   -5.5739   -1.5028   -0.7721 C   0  0  1  0  0  0  0  0  0  0  0  0
   -4.8102   -0.6290    1.4683 C   0  0  2  0  0  0  0  0  0  0  0  0
   -4.1849   -1.1389   -1.3019 C   0  0  1  0  0  0  0  0  0  0  0  0
   -3.4775   -0.2915    0.7999 C   0  0  1  0  0  0  0  0  0  0  0  0
   -4.2248   -0.7631   -2.7798 C   0  0  0  0  0  0  0  0  0  0  0  0
   -1.7428    1.3196    0.9843 C   0  0  0  0  0  0  0  0  0  0  0  0
   -0.6192    0.4933    1.0127 C   0  0  0  0  0  0  0  0  0  0  0  0
   -1.6451    2.6168    0.4795 C   0  0  0  0  0  0  0  0  0  0  0  0
    0.6030    0.9674    0.5355 C   0  0  0  0  0  0  0  0  0  0  0  0
    0.6992    2.2625    0.0314 C   0  0  0  0  0  0  0  0  0  0  0  0
   -0.4238    3.0930    0.0010 C   0  0  0  0  0  0  0  0  0  0  0  0
    1.9990    2.7367   -0.4678 C   0  0  0  0  0  0  0  0  0  0  0  0
    2.9008    0.5546    0.1316 C   0  0  0  0  0  0  0  0  0  0  0  0
    3.1256    1.7760   -0.3861 C   0  0  0  0  0  0  0  0  0  0  0  0
    3.9594   -0.4645    0.2445 C   0  0  0  0  0  0  0  0  0  0  0  0
    4.1792   -1.3615   -0.8013 C   0  0  0  0  0  0  0  0  0  0  0  0
    4.7423   -0.5330    1.3973 C   0  0  0  0  0  0  0  0  0  0  0  0
    5.1811   -2.3261   -0.6944 C   0  0  0  0  0  0  0  0  0  0  0  0
    5.7441   -1.4976    1.5043 C   0  0  0  0  0  0  0  0  0  0  0  0
    5.9635   -2.3941    0.4584 C   0  0  0  0  0  0  0  0  0  0  0  0
   -5.0564   -2.7255    0.9542 H   0  0  0  0  0  0  0  0  0  0  0  0
   -6.2899   -0.6990   -0.9833 H   0  0  0  0  0  0  0  0  0  0  0  0
   -5.4523    0.2582    1.5209 H   0  0  0  0  0  0  0  0  0  0  0  0
   -3.4854   -1.9779   -1.1844 H   0  0  0  0  0  0  0  0  0  0  0  0
   -2.7836   -1.1340    0.9195 H   0  0  0  0  0  0  0  0  0  0  0  0
   -4.8623    0.1099   -2.9543 H   0  0  0  0  0  0  0  0  0  0  0  0
   -4.5827   -1.5907   -3.3988 H   0  0  0  0  0  0  0  0  0  0  0  0
   -7.3073   -2.5713    0.7117 H   0  0  0  0  0  0  0  0  0  0  0  0
   -5.4068   -3.3910   -1.2616 H   0  0  0  0  0  0  0  0  0  0  0  0
   -3.9791   -1.8174    2.7881 H   0  0  0  0  0  0  0  0  0  0  0  0
   -2.6026    0.3009   -2.6338 H   0  0  0  0  0  0  0  0  0  0  0  0
   -0.6792   -0.5125    1.4198 H   0  0  0  0  0  0  0  0  0  0  0  0
   -2.5245    3.2562    0.4589 H   0  0  0  0  0  0  0  0  0  0  0  0
    0.5114    4.5886   -0.7808 H   0  0  0  0  0  0  0  0  0  0  0  0
    3.5733   -1.3157   -1.7036 H   0  0  0  0  0  0  0  0  0  0  0  0
    4.5827    0.1587    2.2209 H   0  0  0  0  0  0  0  0  0  0  0  0
    6.3502   -1.5454    2.4049 H   0  0  0  0  0  0  0  0  0  0  0  0
    5.0002    1.4595   -0.7547 H   0  0  0  0  0  0  0  0  0  0  0  0
    6.2877   -3.5524   -1.6750 H   0  0  0  0  0  0  0  0  0  0  0  0
    6.7636   -4.0719   -0.0261 H   0  0  0  0  0  0  0  0  0  0  0  0
  1 16  1  0  0  0  0
  1 17  1  0  0  0  0
  2 17  1  0  0  0  0
  2 19  1  0  0  0  0
  3 13  1  0  0  0  0
  3 41  1  0  0  0  0
  4 14  1  0  0  0  0
  4 42  1  0  0  0  0
  5 15  1  0  0  0  0
  5 43  1  0  0  0  0
  6 18  1  0  0  0  0
  6 44  1  0  0  0  0
  7 22  1  0  0  0  0
  7 26  1  0  0  0  0
  8 24  1  0  0  0  0
  8 47  1  0  0  0  0
  9 27  1  0  0  0  0
  9 51  1  0  0  0  0
 10 25  2  0  0  0  0
 11 31  1  0  0  0  0
 11 52  1  0  0  0  0
 12 33  1  0  0  0  0
 12 53  1  0  0  0  0
 13 14  1  0  0  0  0
 13 15  1  0  0  0  0
 13 34  1  0  0  0  0
 14 16  1  0  0  0  0
 14 35  1  0  0  0  0
 15 17  1  0  0  0  0
 15 36  1  0  0  0  0
 16 18  1  0  0  0  0
 16 37  1  0  0  0  0
 17 38  1  0  0  0  0
 18 39  1  0  0  0  0
 18 40  1  0  0  0  0
 19 20  1  0  0  0  0
 19 21  2  0  0  0  0
 20 22  2  0  0  0  0
 20 45  1  0  0  0  0
 21 24  1  0  0  0  0
 21 46  1  0  0  0  0
 22 23  1  0  0  0  0
 23 24  2  0  0  0  0
 23 25  1  0  0  0  0
 25 27  1  0  0  0  0
 26 27  2  0  0  0  0
 26 28  1  0  0  0  0
 28 29  2  0  0  0  0
 28 30  1  0  0  0  0
 29 31  1  0  0  0  0
 29 48  1  0  0  0  0
 30 32  2  0  0  0  0
 30 49  1  0  0  0  0
 31 33  2  0  0  0  0
 32 33  1  0  0  0  0
 32 50  1  0  0  0  0
M  END
> <PUBCHEM_COMPOUND_CID>
5282160

> <PUBCHEM_CONFORMER_RMSD>
0.8

> <PUBCHEM_CONFORMER_DIVERSEORDER>
2
124
143
71
180
181
76
198
133
10
149
190
185
189
96
115
161
130
178
84
195
112
199
75
93
158
114
129
147
121
74
131
32
113
191
139
90
58
148
102
42
15
72
99
111
201
55
132
151
79
203
188
134
92
194
5
78
122
193
140
14
97
101
11
12
87
187
73
126
117
128
205
63
67
85
135
197
175
110
179
53
106
171
172
159
66
13
37
138
9
8
144
4
44
54
141
202
83
206
154
52
36
153
7
80
169
3
33
146
173
142
82
43
167
86
94
186
1
34
123
156
168
6
157
81
41
48
166
61
38
165
77
27
177
192
196
39
109
57
160
88
31
45
164
62
108
200
49
137
170
98
24
119
107
183
60
40
68
127
56
145
150
176
120
116
47
17
118
22
69
125
28
204
162
46
174
182
35
163
100
30
70
152
136
89
65
184
51
95
29
155
64
104
103
91
25
105
59
20
26
23
50
19
18
21
16

> <PUBCHEM_MMFF94_PARTIAL_CHARGES>
46
1 -0.56
10 -0.57
11 -0.53
12 -0.53
13 0.28
14 0.28
15 0.28
16 0.28
17 0.56
18 0.28
19 0.08
2 -0.36
20 -0.15
21 -0.15
22 0.08
23 0.09
24 0.08
25 0.47
26 0.05
27 0.09
28 0.03
29 -0.15
3 -0.68
30 -0.15
31 0.08
32 -0.15
33 0.08
4 -0.68
41 0.4
42 0.4
43 0.4
44 0.4
45 0.15
46 0.15
47 0.45
48 0.15
49 0.15
5 -0.68
50 0.15
51 0.45
52 0.45
53 0.45
6 -0.68
7 -0.16
8 -0.53
9 -0.53

> <PUBCHEM_EFFECTIVE_ROTOR_COUNT>
5.2

> <PUBCHEM_PHARMACOPHORE_FEATURES>
20
1 1 acceptor
1 10 acceptor
1 11 donor
1 12 donor
1 2 acceptor
1 3 acceptor
1 3 donor
1 4 acceptor
1 4 donor
1 5 acceptor
1 5 donor
1 6 acceptor
1 6 donor
1 7 acceptor
1 8 donor
1 9 donor
6 1 13 14 15 16 17 rings
6 19 20 21 22 23 24 rings
6 28 29 30 31 32 33 rings
6 7 22 23 25 26 27 rings

> <PUBCHEM_HEAVY_ATOM_COUNT>
33

> <PUBCHEM_ATOM_DEF_STEREO_COUNT>
5

> <PUBCHEM_ATOM_UDEF_STEREO_COUNT>
0

> <PUBCHEM_BOND_DEF_STEREO_COUNT>
0

> <PUBCHEM_BOND_UDEF_STEREO_COUNT>
0

> <PUBCHEM_ISOTOPIC_ATOM_COUNT>
0

> <PUBCHEM_COMPONENT_COUNT>
1

> <PUBCHEM_CACTVS_TAUTO_COUNT>
183

> <PUBCHEM_CONFORMER_ID>
0050997000000002

> <PUBCHEM_MMFF94_ENERGY>
109.7672

> <PUBCHEM_FEATURE_SELFOVERLAP>
101.582

> <PUBCHEM_SHAPE_FINGERPRINT>
10319926 262 15430303750526676609
10622 236 18409168809518136793
10670039 82 14476694030291401199
11135609 149 18340221690810119517
11135926 11 18197210339789647988
11227688 84 18055350494843926274
11455722 242 18339632469918699662
11497681 19 18334010623677655254
11607047 403 17972896769615950328
11991303 11 17840870990686020637
12166972 35 17918269848606612174
12422481 6 17458622366978961094
13540713 5 18268688632817997480
13782708 43 17775007830647643643
14114206 34 17130980035654367944
14347332 77 18340198691528793728
14848178 5 18260276251867019502
15320294 125 17530959151930847935
17492 89 18411696625816796488
17686467 74 18411426137977936946
1813 80 18261103046268008317
19301679 30 18262223487598114587
19303781 99 18412272748224411814
19315092 285 17749395827847886712
20028762 73 18334575763369033114
20691028 202 9439401349997854323
20775438 99 18125167026343854514
208703 8 18412263960415076810
21033650 10 15554455123405312453
21703447 108 18342468028016131336
229767 44 17313110743481207423
23536364 44 18059867206942517381
23569914 152 18052573077422316583
24771750 20 17195994952304500501
2838139 119 11672066341339017306
312425 54 17023178374742568514
3388396 114 17057770054814862132
34797466 226 16414633731928440013
46194498 28 17130707163301673925
50009960 94 17986413272499357090
513202 73 18409165549991211687
5937810 71 9437959938527583538
6058803 2 18265307608450177160
613672 6 18342185479012064746
6712543 237 16298385790386272263
7970288 3 18410573972520523731

> <PUBCHEM_SHAPE_MULTIPOLES>
608.69
16.92
4.33
2.03
0.1
2.79
-0.75
-21.5
1.06
3.86
-1.17
-2.87
-1.06
-0.85

> <PUBCHEM_SHAPE_SELFOVERLAP>
1338.22

> <PUBCHEM_SHAPE_VOLUME>
324.7

> <PUBCHEM_COORDINATE_TYPE>
2
5
10

$$$$

