17395422
  -OEChem-06241222503D

 38 39  0     0  0  0  0  0  0999 V2000
    1.0256   -1.8121   -0.0138 O   0  0  0  0  0  0  0  0  0  0  0  0
   -6.0416   -1.1115   -0.6935 O   0  0  0  0  0  0  0  0  0  0  0  0
    2.2682   -0.0435    0.9036 N   0  0  0  0  0  0  0  0  0  0  0  0
   -4.8781    0.9322   -0.5256 N   0  0  0  0  0  0  0  0  0  0  0  0
    4.4163    0.8526    0.4148 N   0  0  0  0  0  0  0  0  0  0  0  0
   -1.2161   -0.1471    1.1885 C   0  0  0  0  0  0  0  0  0  0  0  0
    0.0890   -0.5307    1.7999 C   0  0  0  0  0  0  0  0  0  0  0  0
   -2.1809   -1.1217    0.9335 C   0  0  0  0  0  0  0  0  0  0  0  0
   -1.4718    1.1871    0.8719 C   0  0  0  0  0  0  0  0  0  0  0  0
   -3.6573    0.5721    0.0459 C   0  0  0  0  0  0  0  0  0  0  0  0
    1.1686   -0.8894    0.7820 C   0  0  0  0  0  0  0  0  0  0  0  0
   -3.4015   -0.7621    0.3623 C   0  0  0  0  0  0  0  0  0  0  0  0
   -2.6924    1.5468    0.3006 C   0  0  0  0  0  0  0  0  0  0  0  0
    3.4589   -0.0612    0.1389 C   0  0  0  0  0  0  0  0  0  0  0  0
    3.5674   -1.0229   -0.8526 C   0  0  0  0  0  0  0  0  0  0  0  0
    5.5355    0.7967   -0.3415 C   0  0  0  0  0  0  0  0  0  0  0  0
    4.7334   -1.0487   -1.6096 C   0  0  0  0  0  0  0  0  0  0  0  0
    5.7411   -0.1249   -1.3556 C   0  0  0  0  0  0  0  0  0  0  0  0
   -5.9589    0.1023   -0.8520 C   0  0  0  0  0  0  0  0  0  0  0  0
    6.5949    1.8042   -0.0422 C   0  0  0  0  0  0  0  0  0  0  0  0
   -7.1002    0.8817   -1.4555 C   0  0  0  0  0  0  0  0  0  0  0  0
    0.4249    0.2673    2.4735 H   0  0  0  0  0  0  0  0  0  0  0  0
   -0.0408   -1.4076    2.4481 H   0  0  0  0  0  0  0  0  0  0  0  0
   -1.9920   -2.1647    1.1743 H   0  0  0  0  0  0  0  0  0  0  0  0
   -0.7271    1.9552    1.0640 H   0  0  0  0  0  0  0  0  0  0  0  0
   -4.0979   -1.5716    0.1942 H   0  0  0  0  0  0  0  0  0  0  0  0
   -2.8780    2.5902    0.0586 H   0  0  0  0  0  0  0  0  0  0  0  0
    2.2480    0.6855    1.6121 H   0  0  0  0  0  0  0  0  0  0  0  0
   -4.9874    1.9240   -0.7272 H   0  0  0  0  0  0  0  0  0  0  0  0
    2.8332   -1.7689   -1.1080 H   0  0  0  0  0  0  0  0  0  0  0  0
    6.6551   -0.1349   -1.9396 H   0  0  0  0  0  0  0  0  0  0  0  0
    4.8581   -1.7866   -2.3967 H   0  0  0  0  0  0  0  0  0  0  0  0
    7.5243    1.3044    0.2488 H   0  0  0  0  0  0  0  0  0  0  0  0
    6.2927    2.4605    0.7806 H   0  0  0  0  0  0  0  0  0  0  0  0
    6.7845    2.4296   -0.9204 H   0  0  0  0  0  0  0  0  0  0  0  0
   -7.9132    0.2012   -1.7233 H   0  0  0  0  0  0  0  0  0  0  0  0
   -7.4718    1.6125   -0.7317 H   0  0  0  0  0  0  0  0  0  0  0  0
   -6.7605    1.3997   -2.3568 H   0  0  0  0  0  0  0  0  0  0  0  0
  1 11  2  0  0  0  0
  2 19  2  0  0  0  0
  3 11  1  0  0  0  0
  3 14  1  0  0  0  0
  3 28  1  0  0  0  0
  4 10  1  0  0  0  0
  4 19  1  0  0  0  0
  4 29  1  0  0  0  0
  5 14  1  0  0  0  0
  5 16  2  0  0  0  0
  6  7  1  0  0  0  0
  6  8  2  0  0  0  0
  6  9  1  0  0  0  0
  7 11  1  0  0  0  0
  7 22  1  0  0  0  0
  7 23  1  0  0  0  0
  8 12  1  0  0  0  0
  8 24  1  0  0  0  0
  9 13  2  0  0  0  0
  9 25  1  0  0  0  0
 10 12  2  0  0  0  0
 10 13  1  0  0  0  0
 12 26  1  0  0  0  0
 13 27  1  0  0  0  0
 14 15  2  0  0  0  0
 15 17  1  0  0  0  0
 15 30  1  0  0  0  0
 16 18  1  0  0  0  0
 16 20  1  0  0  0  0
 17 18  2  0  0  0  0
 17 32  1  0  0  0  0
 18 31  1  0  0  0  0
 19 21  1  0  0  0  0
 20 33  1  0  0  0  0
 20 34  1  0  0  0  0
 20 35  1  0  0  0  0
 21 36  1  0  0  0  0
 21 37  1  0  0  0  0
 21 38  1  0  0  0  0
M  END
> <PUBCHEM_COMPOUND_CID>
17395422

> <PUBCHEM_CONFORMER_RMSD>
0.8

> <PUBCHEM_CONFORMER_DIVERSEORDER>
2
9
3
10
16
13
5
14
8
15
11
12
7
6
1
4

> <PUBCHEM_MMFF94_PARTIAL_CHARGES>
30
1 -0.57
10 0.12
11 0.57
12 -0.15
13 -0.15
14 0.43
15 -0.15
16 0.17
17 -0.15
18 -0.15
19 0.57
2 -0.57
20 0.14
21 0.06
24 0.15
25 0.15
26 0.15
27 0.15
28 0.37
29 0.37
3 -0.55
30 0.15
31 0.15
32 0.15
4 -0.55
5 -0.62
6 -0.14
7 0.2
8 -0.15
9 -0.15

> <PUBCHEM_EFFECTIVE_ROTOR_COUNT>
6

> <PUBCHEM_PHARMACOPHORE_FEATURES>
7
1 1 acceptor
1 2 acceptor
1 3 donor
1 4 donor
1 5 acceptor
6 5 14 15 16 17 18 rings
6 6 8 9 10 12 13 rings

> <PUBCHEM_HEAVY_ATOM_COUNT>
21

> <PUBCHEM_ATOM_DEF_STEREO_COUNT>
0

> <PUBCHEM_ATOM_UDEF_STEREO_COUNT>
0

> <PUBCHEM_BOND_DEF_STEREO_COUNT>
0

> <PUBCHEM_BOND_UDEF_STEREO_COUNT>
0

> <PUBCHEM_ISOTOPIC_ATOM_COUNT>
0

> <PUBCHEM_COMPONENT_COUNT>
1

> <PUBCHEM_CACTVS_TAUTO_COUNT>
6

> <PUBCHEM_CONFORMER_ID>
01096EDE00000002

> <PUBCHEM_MMFF94_ENERGY>
61.8001

> <PUBCHEM_FEATURE_SELFOVERLAP>
35.52

> <PUBCHEM_SHAPE_FINGERPRINT>
10 15 12679173921253271191
10319926 262 9439404661881096523
10498660 4 18272644662937794216
10595046 47 17676480687960556120
10692045 39 13038915463907274896
11089746 13 16200150958904561910
11638347 137 10735877292414789181
117890 112 16702303455327461782
11961588 58 18342179955320365451
12714333 28 17846782914367956321
13533116 47 17274832410496658514
13668630 136 15719384062663608132
13673619 4 14634590475666464443
13685833 64 4895548589159547649
14123256 34 5039951861955994140
14251752 14 16153984751041040697
14251764 18 12463564063138508002
14251764 30 14201399391133828957
14347424 109 11959733751027118166
14528608 73 18411418427366960356
14617045 38 7204781393170789228
15003188 100 18410010997118850364
15183329 4 18334857263787616595
15188451 53 8718243742994002625
15238133 3 16486967363799299116
15348495 7 10807920557676511261
15537594 2 14129061447342924964
16994733 274 16916512579433557077
17980427 23 14117504425342950619
1813 80 13984376673878877650
19784866 240 15502377816323295577
200 152 16660636384567685898
20157964 124 16128380410336780659
20554085 129 18130521751345309440
20645477 70 17532070827064443246
21150785 3 18040436568367659717
21267235 1 6266903484708945056
21298829 104 17274823592702245389
21403212 168 11023836058992207361
21521239 73 17968093157679551558
21637258 2 14779273024853929355
22122407 14 15194988475231675877
221357 26 18040435507722156648
23016692 55 14923943448789588177
23522609 53 15214122077946830699
23559900 14 18335707083455622681
2767999 5 16845575318180050933
2838139 119 15984830320067337335
300161 21 17704355463629312418
3004659 81 14996285807754469920
312425 54 10375864156655010556
33382 64 6843937048722417644
3472631 163 17561075887142177262
34797466 226 18333446530165940708
351380 3 14418135127401010301
465052 167 14273460253684222885
5207 217 18060137626900144763
543368 44 17917997200705598909
7970288 3 14779273024780077213
8863177 126 14996864108295631815

> <PUBCHEM_SHAPE_MULTIPOLES>
405.49
18.14
1.53
1.43
3.58
0.14
0.13
6.51
9.93
-0.37
-0.05
-0.08
-0.2
1.03

> <PUBCHEM_SHAPE_SELFOVERLAP>
855.831

> <PUBCHEM_SHAPE_VOLUME>
226.3

> <PUBCHEM_COORDINATE_TYPE>
2
5
10

$$$$

