411840
  -OEChem-07051212503D

 11 10  0     1  0  0  0  0  0999 V2000
   -1.1516    1.2252    0.1785 N   0  0  0  0  0  0  0  0  0  0  0  0
    2.0329   -0.0326    0.1395 N   0  0  0  0  0  0  0  0  0  0  0  0
   -0.5432    0.0261   -0.3933 C   0  0  2  0  0  0  0  0  0  0  0  0
   -1.2341   -1.2128    0.1686 C   0  0  0  0  0  0  0  0  0  0  0  0
    0.8961   -0.0060   -0.0934 C   0  0  0  0  0  0  0  0  0  0  0  0
   -0.6821    0.0512   -1.4798 H   0  0  0  0  0  0  0  0  0  0  0  0
   -1.1238   -1.2830    1.2574 H   0  0  0  0  0  0  0  0  0  0  0  0
   -2.3050   -1.2070   -0.0636 H   0  0  0  0  0  0  0  0  0  0  0  0
   -0.8062   -2.1253   -0.2626 H   0  0  0  0  0  0  0  0  0  0  0  0
   -1.1071    1.1870    1.1967 H   0  0  0  0  0  0  0  0  0  0  0  0
   -2.1443    1.2475   -0.0535 H   0  0  0  0  0  0  0  0  0  0  0  0
  1  3  1  0  0  0  0
  1 10  1  0  0  0  0
  1 11  1  0  0  0  0
  2  5  3  0  0  0  0
  3  4  1  0  0  0  0
  3  5  1  0  0  0  0
  3  6  1  0  0  0  0
  4  7  1  0  0  0  0
  4  8  1  0  0  0  0
  4  9  1  0  0  0  0
M  END
> <PUBCHEM_COMPOUND_CID>
411840

> <PUBCHEM_CONFORMER_RMSD>
0.4

> <PUBCHEM_CONFORMER_DIVERSEORDER>
1
2

> <PUBCHEM_MMFF94_PARTIAL_CHARGES>
6
1 -0.99
10 0.36
11 0.36
2 -0.56
3 0.47
5 0.36

> <PUBCHEM_EFFECTIVE_ROTOR_COUNT>
0

> <PUBCHEM_PHARMACOPHORE_FEATURES>
3
1 1 cation
1 1 donor
1 2 acceptor

> <PUBCHEM_HEAVY_ATOM_COUNT>
5

> <PUBCHEM_ATOM_DEF_STEREO_COUNT>
0

> <PUBCHEM_ATOM_UDEF_STEREO_COUNT>
1

> <PUBCHEM_BOND_DEF_STEREO_COUNT>
0

> <PUBCHEM_BOND_UDEF_STEREO_COUNT>
0

> <PUBCHEM_ISOTOPIC_ATOM_COUNT>
0

> <PUBCHEM_COMPONENT_COUNT>
1

> <PUBCHEM_CACTVS_TAUTO_COUNT>
1

> <PUBCHEM_CONFORMER_ID>
000648C000000001

> <PUBCHEM_MMFF94_ENERGY>
-2.2374

> <PUBCHEM_FEATURE_SELFOVERLAP>
15.223

> <PUBCHEM_SHAPE_FINGERPRINT>
139733 1 8573896565720794055
20096714 4 18192150618789599024
21015797 1 8646775494997255855
21040471 1 18194679495449061868
24536 1 18410304609408836796
29004967 10 18052536569319636947
5943 1 16159346789633666167

> <PUBCHEM_SHAPE_MULTIPOLES>
92.94
2.08
1.15
0.63
0.98
0.11
-0.03
-0.27
0.17
-0.64
0.1
-0.04
-0.01
-0.01

> <PUBCHEM_SHAPE_SELFOVERLAP>
162.523

> <PUBCHEM_SHAPE_VOLUME>
60.1

> <PUBCHEM_COORDINATE_TYPE>
2
5
10

$$$$

