442121
  -OEChem-07051212573D

 68 74  0     1  0  0  0  0  0999 V2000
   -2.0299    2.2003   -0.8559 N   0  0  1  0  0  0  0  0  0  0  0  0
    2.8698    0.2475    3.0343 N   0  0  2  0  0  0  0  0  0  0  0  0
   -2.9648   -1.2074    0.3842 N   0  0  0  0  0  0  0  0  0  0  0  0
    2.1201   -0.9276   -0.4651 N   0  0  0  0  0  0  0  0  0  0  0  0
    0.6210    1.5837    0.2316 C   0  0  1  0  0  0  0  0  0  0  0  0
   -1.6642    0.7912   -0.5483 C   0  0  1  0  0  0  0  0  0  0  0  0
   -0.6441    0.7840    0.5957 C   0  0  0  0  0  0  0  0  0  0  0  0
    0.2407    3.0034   -0.2549 C   0  0  2  0  0  0  0  0  0  0  0  0
   -0.8591    2.9429   -1.3350 C   0  0  0  0  0  0  0  0  0  0  0  0
    1.5655    1.6034    1.4392 C   0  0  0  0  0  0  0  0  0  0  0  0
    2.0033    0.1852    1.8230 C   0  0  1  0  0  0  0  0  0  0  0  0
   -2.9043    0.0187   -0.2151 C   0  0  0  0  0  0  0  0  0  0  0  0
   -3.1494    2.2808   -1.8196 C   0  0  0  0  0  0  0  0  0  0  0  0
   -4.1884    0.4074   -0.5339 C   0  0  0  0  0  0  0  0  0  0  0  0
   -4.4522    1.7026   -1.2187 C   0  0  0  0  0  0  0  0  0  0  0  0
    2.7090   -0.4782    0.6821 C   0  0  0  0  0  0  0  0  0  0  0  0
    1.4144    3.7716   -0.7965 C   0  0  0  0  0  0  0  0  0  0  0  0
    4.0612   -0.7334    0.6068 C   0  0  0  0  0  0  0  0  0  0  0  0
   -5.0729   -0.6087   -0.0824 C   0  0  0  0  0  0  0  0  0  0  0  0
    4.2815    0.5768    2.7188 C   0  0  0  0  0  0  0  0  0  0  0  0
    4.9756   -0.3870    1.7280 C   0  0  0  0  0  0  0  0  0  0  0  0
   -4.2800   -1.6095    0.4898 C   0  0  0  0  0  0  0  0  0  0  0  0
    4.3113   -1.3600   -0.6440 C   0  0  0  0  0  0  0  0  0  0  0  0
    2.7740   -0.9786    3.8293 C   0  0  0  0  0  0  0  0  0  0  0  0
    3.0782   -1.4677   -1.2972 C   0  0  0  0  0  0  0  0  0  0  0  0
    1.8533    4.9266   -0.2851 C   0  0  0  0  0  0  0  0  0  0  0  0
   -6.4712   -0.7818   -0.1044 C   0  0  0  0  0  0  0  0  0  0  0  0
   -4.8219   -2.7767    1.0403 C   0  0  0  0  0  0  0  0  0  0  0  0
    5.4640   -1.8526   -1.2880 C   0  0  0  0  0  0  0  0  0  0  0  0
    2.9464   -2.0412   -2.5670 C   0  0  0  0  0  0  0  0  0  0  0  0
   -7.0251   -1.9439    0.4445 C   0  0  0  0  0  0  0  0  0  0  0  0
   -6.2113   -2.9246    1.0074 C   0  0  0  0  0  0  0  0  0  0  0  0
    5.3450   -2.4281   -2.5579 C   0  0  0  0  0  0  0  0  0  0  0  0
    4.1047   -2.5194   -3.1860 C   0  0  0  0  0  0  0  0  0  0  0  0
    1.0981    1.1347   -0.6397 H   0  0  0  0  0  0  0  0  0  0  0  0
   -1.2157    0.3233   -1.4368 H   0  0  0  0  0  0  0  0  0  0  0  0
   -1.0991    1.1967    1.5074 H   0  0  0  0  0  0  0  0  0  0  0  0
   -0.4050   -0.2597    0.8137 H   0  0  0  0  0  0  0  0  0  0  0  0
   -0.1757    3.5485    0.6056 H   0  0  0  0  0  0  0  0  0  0  0  0
   -1.1574    3.9710   -1.5804 H   0  0  0  0  0  0  0  0  0  0  0  0
   -0.4703    2.4944   -2.2599 H   0  0  0  0  0  0  0  0  0  0  0  0
    1.0698    2.0856    2.2923 H   0  0  0  0  0  0  0  0  0  0  0  0
    2.4421    2.2172    1.2001 H   0  0  0  0  0  0  0  0  0  0  0  0
    1.1234   -0.4042    2.0966 H   0  0  0  0  0  0  0  0  0  0  0  0
   -2.8929    1.7450   -2.7435 H   0  0  0  0  0  0  0  0  0  0  0  0
   -3.3434    3.3250   -2.0939 H   0  0  0  0  0  0  0  0  0  0  0  0
   -5.1956    1.5734   -2.0130 H   0  0  0  0  0  0  0  0  0  0  0  0
   -4.8636    2.4102   -0.4883 H   0  0  0  0  0  0  0  0  0  0  0  0
    1.9357    3.3552   -1.6552 H   0  0  0  0  0  0  0  0  0  0  0  0
   -2.1712   -1.7451    0.7048 H   0  0  0  0  0  0  0  0  0  0  0  0
    4.8689    0.6310    3.6441 H   0  0  0  0  0  0  0  0  0  0  0  0
    4.3153    1.5924    2.3041 H   0  0  0  0  0  0  0  0  0  0  0  0
    5.2673   -1.3073    2.2478 H   0  0  0  0  0  0  0  0  0  0  0  0
    5.8899    0.0801    1.3453 H   0  0  0  0  0  0  0  0  0  0  0  0
    1.1306   -0.9314   -0.6677 H   0  0  0  0  0  0  0  0  0  0  0  0
    1.7449   -1.1295    4.1743 H   0  0  0  0  0  0  0  0  0  0  0  0
    3.3914   -0.9011    4.7311 H   0  0  0  0  0  0  0  0  0  0  0  0
    3.0828   -1.8728    3.2777 H   0  0  0  0  0  0  0  0  0  0  0  0
    2.7083    5.4307   -0.7220 H   0  0  0  0  0  0  0  0  0  0  0  0
    1.3741    5.3871    0.5717 H   0  0  0  0  0  0  0  0  0  0  0  0
   -7.1185   -0.0263   -0.5407 H   0  0  0  0  0  0  0  0  0  0  0  0
   -4.1897   -3.5418    1.4782 H   0  0  0  0  0  0  0  0  0  0  0  0
    6.4378   -1.7886   -0.8108 H   0  0  0  0  0  0  0  0  0  0  0  0
    1.9810   -2.1149   -3.0567 H   0  0  0  0  0  0  0  0  0  0  0  0
   -8.1030   -2.0817    0.4301 H   0  0  0  0  0  0  0  0  0  0  0  0
   -6.6627   -3.8199    1.4275 H   0  0  0  0  0  0  0  0  0  0  0  0
    6.2314   -2.8082   -3.0588 H   0  0  0  0  0  0  0  0  0  0  0  0
    4.0352   -2.9706   -4.1725 H   0  0  0  0  0  0  0  0  0  0  0  0
  1  6  1  0  0  0  0
  1  9  1  0  0  0  0
  1 13  1  0  0  0  0
  2 11  1  0  0  0  0
  2 20  1  0  0  0  0
  2 24  1  0  0  0  0
  3 12  1  0  0  0  0
  3 22  1  0  0  0  0
  3 50  1  0  0  0  0
  4 16  1  0  0  0  0
  4 25  1  0  0  0  0
  4 55  1  0  0  0  0
  5  7  1  0  0  0  0
  5  8  1  0  0  0  0
  5 10  1  0  0  0  0
  5 35  1  0  0  0  0
  6  7  1  0  0  0  0
  6 12  1  0  0  0  0
  6 36  1  0  0  0  0
  7 37  1  0  0  0  0
  7 38  1  0  0  0  0
  8  9  1  0  0  0  0
  8 17  1  0  0  0  0
  8 39  1  0  0  0  0
  9 40  1  0  0  0  0
  9 41  1  0  0  0  0
 10 11  1  0  0  0  0
 10 42  1  0  0  0  0
 10 43  1  0  0  0  0
 11 16  1  0  0  0  0
 11 44  1  0  0  0  0
 12 14  2  0  0  0  0
 13 15  1  0  0  0  0
 13 45  1  0  0  0  0
 13 46  1  0  0  0  0
 14 15  1  0  0  0  0
 14 19  1  0  0  0  0
 15 47  1  0  0  0  0
 15 48  1  0  0  0  0
 16 18  2  0  0  0  0
 17 26  2  0  0  0  0
 17 49  1  0  0  0  0
 18 21  1  0  0  0  0
 18 23  1  0  0  0  0
 19 22  1  0  0  0  0
 19 27  2  0  0  0  0
 20 21  1  0  0  0  0
 20 51  1  0  0  0  0
 20 52  1  0  0  0  0
 21 53  1  0  0  0  0
 21 54  1  0  0  0  0
 22 28  2  0  0  0  0
 23 25  1  0  0  0  0
 23 29  2  0  0  0  0
 24 56  1  0  0  0  0
 24 57  1  0  0  0  0
 24 58  1  0  0  0  0
 25 30  2  0  0  0  0
 26 59  1  0  0  0  0
 26 60  1  0  0  0  0
 27 31  1  0  0  0  0
 27 61  1  0  0  0  0
 28 32  1  0  0  0  0
 28 62  1  0  0  0  0
 29 33  1  0  0  0  0
 29 63  1  0  0  0  0
 30 34  1  0  0  0  0
 30 64  1  0  0  0  0
 31 32  2  0  0  0  0
 31 65  1  0  0  0  0
 32 66  1  0  0  0  0
 33 34  2  0  0  0  0
 33 67  1  0  0  0  0
 34 68  1  0  0  0  0
M  END
> <PUBCHEM_COMPOUND_CID>
442121

> <PUBCHEM_CONFORMER_RMSD>
0.8

> <PUBCHEM_CONFORMER_DIVERSEORDER>
1
2
6
5
3
4

> <PUBCHEM_MMFF94_PARTIAL_CHARGES>
42
1 -0.81
11 0.45
12 -0.33
13 0.27
14 -0.18
15 0.18
16 -0.33
17 -0.29
18 -0.18
2 -0.81
20 0.27
21 0.18
22 -0.15
24 0.27
25 -0.15
26 -0.3
27 -0.15
28 -0.15
29 -0.15
3 0.03
30 -0.15
31 -0.15
32 -0.15
33 -0.15
34 -0.15
4 0.03
49 0.15
50 0.27
55 0.27
59 0.15
6 0.45
60 0.15
61 0.15
62 0.15
63 0.15
64 0.15
65 0.15
66 0.15
67 0.15
68 0.15
8 0.14
9 0.27

> <PUBCHEM_EFFECTIVE_ROTOR_COUNT>
5

> <PUBCHEM_PHARMACOPHORE_FEATURES>
14
1 1 cation
1 2 cation
1 26 hydrophobe
1 3 cation
1 3 donor
1 4 cation
1 4 donor
5 3 12 14 19 22 rings
5 4 16 18 23 25 rings
6 1 5 6 7 8 9 rings
6 1 6 12 13 14 15 rings
6 19 22 27 28 31 32 rings
6 2 11 16 18 20 21 rings
6 23 25 29 30 33 34 rings

> <PUBCHEM_HEAVY_ATOM_COUNT>
34

> <PUBCHEM_ATOM_DEF_STEREO_COUNT>
4

> <PUBCHEM_ATOM_UDEF_STEREO_COUNT>
0

> <PUBCHEM_BOND_DEF_STEREO_COUNT>
0

> <PUBCHEM_BOND_UDEF_STEREO_COUNT>
0

> <PUBCHEM_ISOTOPIC_ATOM_COUNT>
0

> <PUBCHEM_COMPONENT_COUNT>
1

> <PUBCHEM_CACTVS_TAUTO_COUNT>
1

> <PUBCHEM_CONFORMER_ID>
0006BF0900000001

> <PUBCHEM_MMFF94_ENERGY>
77.9491

> <PUBCHEM_FEATURE_SELFOVERLAP>
71.413

> <PUBCHEM_SHAPE_FINGERPRINT>
10165383 225 17604154706360134784
10169797 241 17916013565195139099
10928967 22 17846214432802925499
10981352 41 18262801745016094799
11049842 53 16903288962758223256
11399939 17 17168707397569960727
11513181 2 17833822781849559511
11763715 3 17702391847964251928
12107183 9 18201166525088242361
12128747 34 17241887782100807169
12342043 65 18041554849161080254
12422481 6 18113898209565550535
12623949 98 18195519299664186231
12788726 201 17703787072147375889
131258 43 18041823070370219828
13402501 40 18259980500361729070
13636023 20 17632569440500592788
13673619 4 17822561815743575406
13782708 43 18042404806299551902
14068700 675 17130165293601148954
14950920 106 16008751299452737095
15274700 259 16699802140908313007
15324884 4 18044116728644858964
15361156 5 18114187496354854869
15392192 104 17898289395249224363
15484559 13 17340962283419388980
15721738 202 18260542286700500464
17138139 8 17560795537520822746
17909252 39 18337941290830256972
1979834 28 18041565737124520288
20501277 246 18114164355071310879
20578428 11 17630883786058800045
21033648 29 17822875159314046209
21033650 10 17915448600669992104
22440779 20 17387679742757974752
2260408 40 17967808336390437585
23559900 14 18411416190290516093
239999 70 18270121188719332192
24893989 43 17909829826050069123
25222932 49 18129118761370293746
255183 313 17329448150567290792
3178227 256 17385450895681776394
3411729 13 17983578507087462784
437815 12 18261105297210192103
46194498 28 18339921515460886236
508706 21 18340495551436925343
563151 74 16443638882565251122
613672 6 18337410317108451053
6700243 42 18128245877628026422
6823239 73 18411699897959026418
86090 222 18113329825724749182
9831232 110 18408600341249834295

> <PUBCHEM_SHAPE_MULTIPOLES>
679.78
14.99
4.42
2.94
16.75
4.44
-1.2
-15.19
0.35
-0.18
2.22
-5.9
-1.55
4.99

> <PUBCHEM_SHAPE_SELFOVERLAP>
1514.686

> <PUBCHEM_SHAPE_VOLUME>
357

> <PUBCHEM_COORDINATE_TYPE>
2
5
10

$$$$

