443651
  -OEChem-07051213023D

 57 60  0     1  0  0  0  0  0999 V2000
    0.9313    1.5999   -0.4546 O   0  0  0  0  0  0  0  0  0  0  0  0
    0.3810    0.5186    1.5383 O   0  0  0  0  0  0  0  0  0  0  0  0
    4.1304    3.4849    1.3003 O   0  0  0  0  0  0  0  0  0  0  0  0
    3.0865    4.4628   -1.2116 O   0  0  0  0  0  0  0  0  0  0  0  0
    1.9595    2.3866    2.9621 O   0  0  0  0  0  0  0  0  0  0  0  0
   -0.0086    2.1766   -2.9726 O   0  0  0  0  0  0  0  0  0  0  0  0
   -2.0285   -1.5783   -0.3280 O   0  3  0  0  0  0  0  0  0  0  0  0
   -4.4140    2.3247    1.3080 O   0  0  0  0  0  0  0  0  0  0  0  0
    3.1455   -2.4279   -2.0515 O   0  0  0  0  0  0  0  0  0  0  0  0
   -6.6708   -0.9319   -1.3251 O   0  0  0  0  0  0  0  0  0  0  0  0
    1.9197   -4.7103    1.9769 O   0  0  0  0  0  0  0  0  0  0  0  0
    3.6750   -4.3581   -0.1364 O   0  0  0  0  0  0  0  0  0  0  0  0
    2.7663    3.3456    0.8998 C   0  0  1  0  0  0  0  0  0  0  0  0
    2.7315    3.2143   -0.6228 C   0  0  1  0  0  0  0  0  0  0  0  0
    2.1608    2.1150    1.5753 C   0  0  2  0  0  0  0  0  0  0  0  0
    1.3356    2.8081   -1.1012 C   0  0  1  0  0  0  0  0  0  0  0  0
    0.8108    1.7497    0.9580 C   0  0  1  0  0  0  0  0  0  0  0  0
    1.3051    2.5570   -2.6056 C   0  0  0  0  0  0  0  0  0  0  0  0
   -0.8311    0.1145    1.0279 C   0  0  0  0  0  0  0  0  0  0  0  0
   -0.9419   -1.1692    0.2652 C   0  0  0  0  0  0  0  0  0  0  0  0
   -1.9467    0.8482    1.1322 C   0  0  0  0  0  0  0  0  0  0  0  0
   -3.1912    0.4042    0.5147 C   0  0  0  0  0  0  0  0  0  0  0  0
    0.2748   -2.0083    0.1604 C   0  0  0  0  0  0  0  0  0  0  0  0
   -3.1903   -0.7928   -0.2087 C   0  0  0  0  0  0  0  0  0  0  0  0
   -4.3689    1.1507    0.6156 C   0  0  0  0  0  0  0  0  0  0  0  0
   -4.3584   -1.2415   -0.8264 C   0  0  0  0  0  0  0  0  0  0  0  0
    1.1486   -1.8224   -0.9049 C   0  0  0  0  0  0  0  0  0  0  0  0
    0.5301   -2.9744    1.1267 C   0  0  0  0  0  0  0  0  0  0  0  0
   -5.5364    0.6992   -0.0025 C   0  0  0  0  0  0  0  0  0  0  0  0
   -5.5309   -0.4949   -0.7230 C   0  0  0  0  0  0  0  0  0  0  0  0
    2.2931   -2.6135   -1.0050 C   0  0  0  0  0  0  0  0  0  0  0  0
    1.6747   -3.7654    1.0265 C   0  0  0  0  0  0  0  0  0  0  0  0
    2.5562   -3.5850   -0.0393 C   0  0  0  0  0  0  0  0  0  0  0  0
    4.2012   -1.4867   -1.8684 C   0  0  0  0  0  0  0  0  0  0  0  0
    2.2565    4.2601    1.2247 H   0  0  0  0  0  0  0  0  0  0  0  0
    3.4775    2.4724   -0.9366 H   0  0  0  0  0  0  0  0  0  0  0  0
    2.8554    1.2680    1.5117 H   0  0  0  0  0  0  0  0  0  0  0  0
    0.5992    3.5907   -0.8730 H   0  0  0  0  0  0  0  0  0  0  0  0
    0.0897    2.5443    1.1937 H   0  0  0  0  0  0  0  0  0  0  0  0
    1.9803    1.7429   -2.8898 H   0  0  0  0  0  0  0  0  0  0  0  0
    1.5684    3.4510   -3.1768 H   0  0  0  0  0  0  0  0  0  0  0  0
    4.6061    2.6773    1.0411 H   0  0  0  0  0  0  0  0  0  0  0  0
    3.2951    4.3022   -2.1471 H   0  0  0  0  0  0  0  0  0  0  0  0
    1.5596    1.5938    3.3588 H   0  0  0  0  0  0  0  0  0  0  0  0
   -0.2400    1.3840   -2.4585 H   0  0  0  0  0  0  0  0  0  0  0  0
   -1.9259    1.7718    1.6962 H   0  0  0  0  0  0  0  0  0  0  0  0
   -4.3406   -2.1744   -1.3831 H   0  0  0  0  0  0  0  0  0  0  0  0
    0.9435   -1.0686   -1.6609 H   0  0  0  0  0  0  0  0  0  0  0  0
   -0.1606   -3.1116    1.9552 H   0  0  0  0  0  0  0  0  0  0  0  0
   -6.4523    1.2800    0.0761 H   0  0  0  0  0  0  0  0  0  0  0  0
   -3.5413    2.7466    1.3172 H   0  0  0  0  0  0  0  0  0  0  0  0
   -6.4855   -1.7723   -1.7784 H   0  0  0  0  0  0  0  0  0  0  0  0
    1.2041   -4.6910    2.6352 H   0  0  0  0  0  0  0  0  0  0  0  0
    3.6908   -4.9715    0.6186 H   0  0  0  0  0  0  0  0  0  0  0  0
    4.8512   -1.7918   -1.0423 H   0  0  0  0  0  0  0  0  0  0  0  0
    3.7952   -0.4879   -1.6777 H   0  0  0  0  0  0  0  0  0  0  0  0
    4.7942   -1.4536   -2.7865 H   0  0  0  0  0  0  0  0  0  0  0  0
  1 16  1  0  0  0  0
  1 17  1  0  0  0  0
  2 17  1  0  0  0  0
  2 19  1  0  0  0  0
  3 13  1  0  0  0  0
  3 42  1  0  0  0  0
  4 14  1  0  0  0  0
  4 43  1  0  0  0  0
  5 15  1  0  0  0  0
  5 44  1  0  0  0  0
  6 18  1  0  0  0  0
  6 45  1  0  0  0  0
  7 20  2  0  0  0  0
  7 24  1  0  0  0  0
  8 25  1  0  0  0  0
  8 51  1  0  0  0  0
  9 31  1  0  0  0  0
  9 34  1  0  0  0  0
 10 30  1  0  0  0  0
 10 52  1  0  0  0  0
 11 32  1  0  0  0  0
 11 53  1  0  0  0  0
 12 33  1  0  0  0  0
 12 54  1  0  0  0  0
 13 14  1  0  0  0  0
 13 15  1  0  0  0  0
 13 35  1  0  0  0  0
 14 16  1  0  0  0  0
 14 36  1  0  0  0  0
 15 17  1  0  0  0  0
 15 37  1  0  0  0  0
 16 18  1  0  0  0  0
 16 38  1  0  0  0  0
 17 39  1  0  0  0  0
 18 40  1  0  0  0  0
 18 41  1  0  0  0  0
 19 20  1  0  0  0  0
 19 21  2  0  0  0  0
 20 23  1  0  0  0  0
 21 22  1  0  0  0  0
 21 46  1  0  0  0  0
 22 24  1  0  0  0  0
 22 25  2  0  0  0  0
 23 27  1  0  0  0  0
 23 28  2  0  0  0  0
 24 26  2  0  0  0  0
 25 29  1  0  0  0  0
 26 30  1  0  0  0  0
 26 47  1  0  0  0  0
 27 31  2  0  0  0  0
 27 48  1  0  0  0  0
 28 32  1  0  0  0  0
 28 49  1  0  0  0  0
 29 30  2  0  0  0  0
 29 50  1  0  0  0  0
 31 33  1  0  0  0  0
 32 33  2  0  0  0  0
 34 55  1  0  0  0  0
 34 56  1  0  0  0  0
 34 57  1  0  0  0  0
M  CHG  1   7   1
M  END
> <PUBCHEM_COMPOUND_CID>
443651

> <PUBCHEM_CONFORMER_RMSD>
1

> <PUBCHEM_CONFORMER_DIVERSEORDER>
1
77
55
23
5
54
46
75
29
31
64
21
26
45
74
3
15
60
69
13
28
71
17
2
57
42
40
76
58
56
51
70
52
78
22
4
72
25
12
20
59
6
65
34
8
61
43
53
16
79
44
14
19
27
48
36
62
73
32
47
11
37
33
24
68
41
67
66
7
10
30
35
49
39
81
38
18
9
80
63
50

> <PUBCHEM_MMFF94_PARTIAL_CHARGES>
47
1 -0.56
10 -0.53
11 -0.53
12 -0.53
13 0.28
14 0.28
15 0.28
16 0.28
17 0.56
18 0.28
19 0.09
2 -0.36
20 0.85
21 -0.18
22 0.03
23 0.09
24 0.92
25 0.08
26 -0.15
27 -0.15
28 -0.15
29 -0.15
3 -0.68
30 0.08
31 0.08
32 0.08
33 0.08
34 0.28
4 -0.68
42 0.4
43 0.4
44 0.4
45 0.4
46 0.15
47 0.15
48 0.15
49 0.15
5 -0.68
50 0.15
51 0.45
52 0.45
53 0.45
54 0.45
6 -0.68
7 -0.87
8 -0.53
9 -0.36

> <PUBCHEM_EFFECTIVE_ROTOR_COUNT>
6.2

> <PUBCHEM_PHARMACOPHORE_FEATURES>
19
1 1 acceptor
1 10 donor
1 11 donor
1 12 donor
1 2 acceptor
1 3 acceptor
1 3 donor
1 4 acceptor
1 4 donor
1 5 acceptor
1 5 donor
1 6 acceptor
1 6 donor
1 8 donor
1 9 acceptor
6 1 13 14 15 16 17 rings
6 22 24 25 26 29 30 rings
6 23 27 28 31 32 33 rings
6 7 19 20 21 22 24 rings

> <PUBCHEM_HEAVY_ATOM_COUNT>
34

> <PUBCHEM_ATOM_DEF_STEREO_COUNT>
5

> <PUBCHEM_ATOM_UDEF_STEREO_COUNT>
0

> <PUBCHEM_BOND_DEF_STEREO_COUNT>
0

> <PUBCHEM_BOND_UDEF_STEREO_COUNT>
0

> <PUBCHEM_ISOTOPIC_ATOM_COUNT>
0

> <PUBCHEM_COMPONENT_COUNT>
1

> <PUBCHEM_CACTVS_TAUTO_COUNT>
154

> <PUBCHEM_CONFORMER_ID>
0006C50300000001

> <PUBCHEM_MMFF94_ENERGY>
119.2926

> <PUBCHEM_FEATURE_SELFOVERLAP>
96.509

> <PUBCHEM_SHAPE_FINGERPRINT>
10675989 125 18261104132642014024
10721379 63 18335134310911417073
11045515 52 17981041139324706299
11578080 2 17984440786175038853
11582403 64 16011307543364034320
12156800 1 16556521524126306148
12160290 23 16827815190150613235
12788726 201 17405983436767677227
13004483 165 17692240159455781650
133893 2 18337099138232516059
13540713 5 18040718091680878129
14415361 192 17844255240884782160
14844126 61 15443181334265886636
14955137 171 17611147797322161923
15439362 3 18412539890610068341
18681886 176 17894630400276169126
19304152 47 14793389319509787816
20567600 347 18117283553594245435
20600515 1 17390503356835867849
20642791 239 18194938933117401490
23366157 5 18411986875237470451
23419403 2 17975441283691771328
23559900 14 17894919576714329203
23598288 3 17193204366222867352
3298306 158 18044090151354978402
4017518 198 18190178985068767668
4409770 3 16829264355466668859
5081480 168 18267876149811905725
5171179 24 18127145271379889893
5265222 85 17902790761388391600
7164475 11 17549537861192281014
9981440 41 18195530277352798731

> <PUBCHEM_SHAPE_MULTIPOLES>
629.27
9.52
6.29
2.2
16.52
1.51
-0.43
-0.2
-2.47
-10.71
0.76
-1.67
-1.18
-0.24

> <PUBCHEM_SHAPE_SELFOVERLAP>
1374.085

> <PUBCHEM_SHAPE_VOLUME>
338.6

> <PUBCHEM_COORDINATE_TYPE>
2
5
10

$$$$

