5281241
  -OEChem-07051212553D

 52 54  0     1  0  0  0  0  0999 V2000
   -3.1509   -0.3929    0.3092 O   0  0  0  0  0  0  0  0  0  0  0  0
   -0.8910   -0.1581    0.8399 O   0  0  0  0  0  0  0  0  0  0  0  0
   -2.9478   -4.4777    0.6834 O   0  0  0  0  0  0  0  0  0  0  0  0
   -5.1753   -3.2704   -0.7082 O   0  0  0  0  0  0  0  0  0  0  0  0
   -0.4942   -2.9007    0.2668 O   0  0  0  0  0  0  0  0  0  0  0  0
   -5.3225    0.9586   -0.6978 O   0  0  0  0  0  0  0  0  0  0  0  0
   -2.5631    1.7200    2.0574 O   0  0  0  0  0  0  0  0  0  0  0  0
    0.5856    3.4553   -2.0257 O   0  0  0  0  0  0  0  0  0  0  0  0
   -2.4003    4.3377    1.5052 O   0  0  0  0  0  0  0  0  0  0  0  0
    0.4667    0.0698   -2.1766 O   0  0  0  0  0  0  0  0  0  0  0  0
    8.1305   -1.0958    1.1708 O   0  0  0  0  0  0  0  0  0  0  0  0
   -2.8680   -3.2329   -0.0126 C   0  0  1  0  0  0  0  0  0  0  0  0
   -4.2326   -2.5501    0.0814 C   0  0  1  0  0  0  0  0  0  0  0  0
   -1.7727   -2.3691    0.6132 C   0  0  2  0  0  0  0  0  0  0  0  0
   -4.1528   -1.1057   -0.4183 C   0  0  1  0  0  0  0  0  0  0  0  0
   -1.8448   -0.9280    0.1087 C   0  0  1  0  0  0  0  0  0  0  0  0
   -5.4738   -0.3677   -0.2255 C   0  0  0  0  0  0  0  0  0  0  0  0
   -0.8976    1.1631    0.4470 C   0  0  0  0  0  0  0  0  0  0  0  0
   -0.1235    1.6508   -0.5409 C   0  0  0  0  0  0  0  0  0  0  0  0
   -1.7936    2.0889    1.1829 C   0  0  0  0  0  0  0  0  0  0  0  0
   -0.1568    3.0546   -0.9290 C   0  0  0  0  0  0  0  0  0  0  0  0
   -1.7386    3.5512    0.8460 C   0  0  0  0  0  0  0  0  0  0  0  0
    0.7991    0.6940   -1.1805 C   0  0  0  0  0  0  0  0  0  0  0  0
   -0.8910    3.9678   -0.2830 C   0  0  0  0  0  0  0  0  0  0  0  0
    2.1195    0.5748   -0.5155 C   0  0  0  0  0  0  0  0  0  0  0  0
    3.0316   -0.2763   -1.0075 C   0  0  0  0  0  0  0  0  0  0  0  0
    4.3721   -0.4919   -0.4341 C   0  0  0  0  0  0  0  0  0  0  0  0
    4.9152    0.4704    0.4014 C   0  0  0  0  0  0  0  0  0  0  0  0
    5.0626   -1.6525   -0.7428 C   0  0  0  0  0  0  0  0  0  0  0  0
    6.1843    0.2663    0.9432 C   0  0  0  0  0  0  0  0  0  0  0  0
    6.3315   -1.8565   -0.2008 C   0  0  0  0  0  0  0  0  0  0  0  0
    6.8924   -0.8971    0.6422 C   0  0  0  0  0  0  0  0  0  0  0  0
   -2.6296   -3.4761   -1.0554 H   0  0  0  0  0  0  0  0  0  0  0  0
   -4.5839   -2.5800    1.1201 H   0  0  0  0  0  0  0  0  0  0  0  0
   -1.8432   -2.3997    1.7070 H   0  0  0  0  0  0  0  0  0  0  0  0
   -3.8982   -1.0711   -1.4865 H   0  0  0  0  0  0  0  0  0  0  0  0
   -1.5956   -0.8935   -0.9597 H   0  0  0  0  0  0  0  0  0  0  0  0
   -5.7529   -0.3155    0.8321 H   0  0  0  0  0  0  0  0  0  0  0  0
   -6.2875   -0.8410   -0.7822 H   0  0  0  0  0  0  0  0  0  0  0  0
   -2.0681   -4.8903    0.6410 H   0  0  0  0  0  0  0  0  0  0  0  0
   -4.8781   -3.2396   -1.6336 H   0  0  0  0  0  0  0  0  0  0  0  0
   -0.4107   -2.8787   -0.7019 H   0  0  0  0  0  0  0  0  0  0  0  0
   -4.5936    1.3671   -0.2000 H   0  0  0  0  0  0  0  0  0  0  0  0
   -0.9056    5.0111   -0.5760 H   0  0  0  0  0  0  0  0  0  0  0  0
    2.2840    1.1790    0.3691 H   0  0  0  0  0  0  0  0  0  0  0  0
    1.0013    2.6806   -2.4371 H   0  0  0  0  0  0  0  0  0  0  0  0
    2.8006   -0.8770   -1.8844 H   0  0  0  0  0  0  0  0  0  0  0  0
    4.4101    1.3994    0.6454 H   0  0  0  0  0  0  0  0  0  0  0  0
    4.6386   -2.4098   -1.3967 H   0  0  0  0  0  0  0  0  0  0  0  0
    6.6126    1.0233    1.5948 H   0  0  0  0  0  0  0  0  0  0  0  0
    6.8783   -2.7650   -0.4386 H   0  0  0  0  0  0  0  0  0  0  0  0
    8.3609   -0.3335    1.7292 H   0  0  0  0  0  0  0  0  0  0  0  0
  1 15  1  0  0  0  0
  1 16  1  0  0  0  0
  2 16  1  0  0  0  0
  2 18  1  0  0  0  0
  3 12  1  0  0  0  0
  3 40  1  0  0  0  0
  4 13  1  0  0  0  0
  4 41  1  0  0  0  0
  5 14  1  0  0  0  0
  5 42  1  0  0  0  0
  6 17  1  0  0  0  0
  6 43  1  0  0  0  0
  7 20  2  0  0  0  0
  8 21  1  0  0  0  0
  8 46  1  0  0  0  0
  9 22  2  0  0  0  0
 10 23  2  0  0  0  0
 11 32  1  0  0  0  0
 11 52  1  0  0  0  0
 12 13  1  0  0  0  0
 12 14  1  0  0  0  0
 12 33  1  0  0  0  0
 13 15  1  0  0  0  0
 13 34  1  0  0  0  0
 14 16  1  0  0  0  0
 14 35  1  0  0  0  0
 15 17  1  0  0  0  0
 15 36  1  0  0  0  0
 16 37  1  0  0  0  0
 17 38  1  0  0  0  0
 17 39  1  0  0  0  0
 18 19  2  0  0  0  0
 18 20  1  0  0  0  0
 19 21  1  0  0  0  0
 19 23  1  0  0  0  0
 20 22  1  0  0  0  0
 21 24  2  0  0  0  0
 22 24  1  0  0  0  0
 23 25  1  0  0  0  0
 24 44  1  0  0  0  0
 25 26  2  0  0  0  0
 25 45  1  0  0  0  0
 26 27  1  0  0  0  0
 26 47  1  0  0  0  0
 27 28  2  0  0  0  0
 27 29  1  0  0  0  0
 28 30  1  0  0  0  0
 28 48  1  0  0  0  0
 29 31  2  0  0  0  0
 29 49  1  0  0  0  0
 30 32  2  0  0  0  0
 30 50  1  0  0  0  0
 31 32  1  0  0  0  0
 31 51  1  0  0  0  0
M  END
> <PUBCHEM_COMPOUND_CID>
5281241

> <PUBCHEM_CONFORMER_RMSD>
1

> <PUBCHEM_CONFORMER_DIVERSEORDER>
1
20
19
2
28
5
31
23
6
33
26
8
3
30
29
18
32
12
17
22
16
21
27
15
10
25
4
13
11
7
14
24
9

> <PUBCHEM_MMFF94_PARTIAL_CHARGES>
45
1 -0.56
10 -0.57
11 -0.53
12 0.28
13 0.28
14 0.28
15 0.28
16 0.56
17 0.28
18 0.09
19 0.01
2 -0.36
20 0.56
21 0.08
22 0.56
23 0.54
24 -0.14
25 -0.14
26 -0.18
27 0.03
28 -0.15
29 -0.15
3 -0.68
30 -0.15
31 -0.15
32 0.08
4 -0.68
40 0.4
41 0.4
42 0.4
43 0.4
44 0.15
45 0.15
46 0.45
47 0.15
48 0.15
49 0.15
5 -0.68
50 0.15
51 0.15
52 0.45
6 -0.68
7 -0.57
8 -0.53
9 -0.57

> <PUBCHEM_EFFECTIVE_ROTOR_COUNT>
7.2

> <PUBCHEM_PHARMACOPHORE_FEATURES>
18
1 1 acceptor
1 10 acceptor
1 11 donor
1 2 acceptor
1 3 acceptor
1 3 donor
1 4 acceptor
1 4 donor
1 5 acceptor
1 5 donor
1 6 acceptor
1 6 donor
1 7 acceptor
1 8 donor
1 9 acceptor
6 1 12 13 14 15 16 rings
6 18 19 20 21 22 24 rings
6 27 28 29 30 31 32 rings

> <PUBCHEM_HEAVY_ATOM_COUNT>
32

> <PUBCHEM_ATOM_DEF_STEREO_COUNT>
5

> <PUBCHEM_ATOM_UDEF_STEREO_COUNT>
0

> <PUBCHEM_BOND_DEF_STEREO_COUNT>
1

> <PUBCHEM_BOND_UDEF_STEREO_COUNT>
0

> <PUBCHEM_ISOTOPIC_ATOM_COUNT>
0

> <PUBCHEM_COMPONENT_COUNT>
1

> <PUBCHEM_CACTVS_TAUTO_COUNT>
6

> <PUBCHEM_CONFORMER_ID>
005095D900000001

> <PUBCHEM_MMFF94_ENERGY>
97.4874

> <PUBCHEM_FEATURE_SELFOVERLAP>
91.416

> <PUBCHEM_SHAPE_FINGERPRINT>
10483366 6 18199482111564958165
10930396 42 18044687263752917306
11456790 92 18339627947043382227
11720765 8 18118972378291698333
12166972 35 17988359248211551703
12788726 201 18337090311795420444
13004483 165 18336548201286991918
13782708 43 17822280324003896326
140371 6 18337658767875582615
14068700 675 18411420574861313924
14394314 77 18342741831494779513
14844126 61 18412537738757158795
14866123 147 18337383971768234899
15183329 4 13614250291177590934
15250474 111 18271801363732380602
15420108 30 17907855459247136473
15950262 2 14854113620234651337
17492 89 17910110205672468291
17686467 74 18341335484279820888
20600515 1 18189317040155152069
20642791 13 18188484804442446237
23559900 14 18336834069714663568
24893992 56 18412823557365005579
255183 313 18118100684456124809
3004659 81 17988924427796493942
4058900 60 10663007171868078959
4280585 95 18412550885593950912
463206 1 18201152135861331578
484985 159 18201168753358143142
5924683 9 18410291454203694392
6004065 56 18118974589630397383
613672 6 18262788562864879422
6376802 137 17749387053672812489
653340 110 18337674221790866578
7226269 152 18409450293316773607

> <PUBCHEM_SHAPE_MULTIPOLES>
593.98
14.66
5.19
1.37
27.28
1.66
-0.13
-11.63
2.82
-7.37
0.59
0.16
0.91
-0.92

> <PUBCHEM_SHAPE_SELFOVERLAP>
1279.779

> <PUBCHEM_SHAPE_VOLUME>
322.2

> <PUBCHEM_COORDINATE_TYPE>
2
5
10

$$$$

