441968
  -OEChem-07051212563D

 36 38  0     0  0  0  0  0  0999 V2000
    2.7129   -0.9603   -0.0891 O   0  0  0  0  0  0  0  0  0  0  0  0
   -1.1168    1.9738    0.0745 O   0  0  0  0  0  0  0  0  0  0  0  0
   -1.5897   -2.8293   -0.3224 O   0  0  0  0  0  0  0  0  0  0  0  0
   -3.6486   -1.1954   -0.2315 O   0  0  0  0  0  0  0  0  0  0  0  0
    3.6381    0.1406    0.0171 C   0  0  0  0  0  0  0  0  0  0  0  0
    0.8110    0.5695   -0.0020 C   0  0  0  0  0  0  0  0  0  0  0  0
    1.3688   -0.7104   -0.0949 C   0  0  0  0  0  0  0  0  0  0  0  0
    3.0184    1.5118    0.1168 C   0  0  0  0  0  0  0  0  0  0  0  0
   -0.5884    0.7068   -0.0178 C   0  0  0  0  0  0  0  0  0  0  0  0
    1.7003    1.7188    0.1085 C   0  0  0  0  0  0  0  0  0  0  0  0
    4.4828   -0.1251    1.2688 C   0  0  0  0  0  0  0  0  0  0  0  0
    4.5287    0.0773   -1.2293 C   0  0  0  0  0  0  0  0  0  0  0  0
   -1.4023   -0.4244   -0.1250 C   0  0  0  0  0  0  0  0  0  0  0  0
    0.5467   -1.8367   -0.2018 C   0  0  0  0  0  0  0  0  0  0  0  0
   -0.8391   -1.6975   -0.2172 C   0  0  0  0  0  0  0  0  0  0  0  0
   -2.8650   -0.2604   -0.1397 C   0  0  0  0  0  0  0  0  0  0  0  0
   -2.4916    2.1314    0.0609 C   0  0  0  0  0  0  0  0  0  0  0  0
   -3.3667    1.1214   -0.0374 C   0  0  0  0  0  0  0  0  0  0  0  0
   -2.9290    3.5582    0.1679 C   0  0  0  0  0  0  0  0  0  0  0  0
   -1.9704   -3.4700    0.8937 C   0  0  0  0  0  0  0  0  0  0  0  0
    3.6822    2.3692    0.1992 H   0  0  0  0  0  0  0  0  0  0  0  0
    1.2962    2.7211    0.1823 H   0  0  0  0  0  0  0  0  0  0  0  0
    4.9546   -1.1136    1.2190 H   0  0  0  0  0  0  0  0  0  0  0  0
    5.2701    0.6255    1.4005 H   0  0  0  0  0  0  0  0  0  0  0  0
    3.8564   -0.1284    2.1691 H   0  0  0  0  0  0  0  0  0  0  0  0
    5.0012   -0.9078   -1.3221 H   0  0  0  0  0  0  0  0  0  0  0  0
    3.9356    0.2209   -2.1406 H   0  0  0  0  0  0  0  0  0  0  0  0
    5.3181    0.8368   -1.2096 H   0  0  0  0  0  0  0  0  0  0  0  0
    0.9922   -2.8266   -0.2742 H   0  0  0  0  0  0  0  0  0  0  0  0
   -4.4389    1.2782   -0.0452 H   0  0  0  0  0  0  0  0  0  0  0  0
   -2.5615    3.9968    1.1013 H   0  0  0  0  0  0  0  0  0  0  0  0
   -4.0192    3.6592    0.1553 H   0  0  0  0  0  0  0  0  0  0  0  0
   -2.5278    4.1397   -0.6684 H   0  0  0  0  0  0  0  0  0  0  0  0
   -2.7316   -4.2202    0.6624 H   0  0  0  0  0  0  0  0  0  0  0  0
   -2.3876   -2.7560    1.6110 H   0  0  0  0  0  0  0  0  0  0  0  0
   -1.1051   -3.9744    1.3350 H   0  0  0  0  0  0  0  0  0  0  0  0
  1  5  1  0  0  0  0
  1  7  1  0  0  0  0
  2  9  1  0  0  0  0
  2 17  1  0  0  0  0
  3 15  1  0  0  0  0
  3 20  1  0  0  0  0
  4 16  2  0  0  0  0
  5  8  1  0  0  0  0
  5 11  1  0  0  0  0
  5 12  1  0  0  0  0
  6  7  1  0  0  0  0
  6  9  2  0  0  0  0
  6 10  1  0  0  0  0
  7 14  2  0  0  0  0
  8 10  2  0  0  0  0
  8 21  1  0  0  0  0
  9 13  1  0  0  0  0
 10 22  1  0  0  0  0
 11 23  1  0  0  0  0
 11 24  1  0  0  0  0
 11 25  1  0  0  0  0
 12 26  1  0  0  0  0
 12 27  1  0  0  0  0
 12 28  1  0  0  0  0
 13 15  2  0  0  0  0
 13 16  1  0  0  0  0
 14 15  1  0  0  0  0
 14 29  1  0  0  0  0
 16 18  1  0  0  0  0
 17 18  2  0  0  0  0
 17 19  1  0  0  0  0
 18 30  1  0  0  0  0
 19 31  1  0  0  0  0
 19 32  1  0  0  0  0
 19 33  1  0  0  0  0
 20 34  1  0  0  0  0
 20 35  1  0  0  0  0
 20 36  1  0  0  0  0
M  END
> <PUBCHEM_COMPOUND_CID>
441968

> <PUBCHEM_CONFORMER_RMSD>
0.6

> <PUBCHEM_CONFORMER_DIVERSEORDER>
1

> <PUBCHEM_MMFF94_PARTIAL_CHARGES>
22
1 -0.36
10 -0.18
13 0.09
14 -0.15
15 0.08
16 0.47
17 -0.06
18 -0.14
19 0.14
2 -0.16
20 0.28
21 0.15
22 0.15
29 0.15
3 -0.36
30 0.15
4 -0.57
5 0.42
6 0.03
7 0.08
8 -0.29
9 0.08

> <PUBCHEM_EFFECTIVE_ROTOR_COUNT>
1.4

> <PUBCHEM_PHARMACOPHORE_FEATURES>
8
1 1 acceptor
1 2 acceptor
1 3 acceptor
1 4 acceptor
3 5 11 12 hydrophobe
6 1 5 6 7 8 10 rings
6 2 9 13 16 17 18 rings
6 6 7 9 13 14 15 rings

> <PUBCHEM_HEAVY_ATOM_COUNT>
20

> <PUBCHEM_ATOM_DEF_STEREO_COUNT>
0

> <PUBCHEM_ATOM_UDEF_STEREO_COUNT>
0

> <PUBCHEM_BOND_DEF_STEREO_COUNT>
0

> <PUBCHEM_BOND_UDEF_STEREO_COUNT>
0

> <PUBCHEM_ISOTOPIC_ATOM_COUNT>
0

> <PUBCHEM_COMPONENT_COUNT>
1

> <PUBCHEM_CACTVS_TAUTO_COUNT>
3

> <PUBCHEM_CONFORMER_ID>
0006BE7000000001

> <PUBCHEM_MMFF94_ENERGY>
71.8448

> <PUBCHEM_FEATURE_SELFOVERLAP>
40.661

> <PUBCHEM_SHAPE_FINGERPRINT>
10319926 262 18190767313947018664
10411042 1 17906170655093448014
10608611 8 18334580109764575776
10616163 171 18338794520733125790
10967382 1 18265615566288952341
11132069 177 18334298677626495424
11578080 2 16807306695632087363
12173636 292 18337958999064392461
12236239 1 17917713505267361952
12390115 104 18116697685590351033
12403259 226 18188777141053675745
12403260 363 18337966635389598388
12403814 3 17704358787659745020
12553582 1 17472980606043199966
12730499 353 17837209638888722869
12788726 201 18200870652220547778
13140716 1 18195248814907633155
13380535 76 18335987553050880390
13538477 17 18272376330481790386
13583140 156 17131834282747093657
138480 1 16897364811551437795
13862211 1 18337679594731682919
14223421 5 18191024495813625376
14790565 3 17688292900365916100
15042514 8 18340202982333134307
15196674 1 18409449223859497316
15309172 13 18339073916776782297
15442244 35 18411986888164537506
16752209 62 18409737269692903248
16945 1 18410572872860598454
17804303 29 18408319960845646772
18186145 218 17967808405389352304
19591789 44 18267300030924459462
20510252 161 18260830401601503521
21267235 1 18338509751189444950
21524375 3 18270402822730982673
21731228 192 18337382872309276657
23184049 29 18194686969050742544
2334 1 17905891370565161511
23402539 116 18262529104496455215
23557571 272 18188195546636400444
23558518 356 18340484573089332519
23559900 14 18260544563802793580
238 59 16833786603895352173
2748010 2 18193548106690040175
3091708 16 9415611195653705483
335352 9 17977102680278971462
350125 39 18410287047472777345
352729 6 18409726227426989415
5104073 3 18409450258893940488
54173680 148 18267866081902297259
559249 180 18267305507809790510
7097593 13 18058186079644864626
7364860 26 17688310509456899535
81228 2 18267595602215892353
84936 182 17538856075452384337
8809292 202 18341049597184799779
9709674 26 18334292046371213390

> <PUBCHEM_SHAPE_MULTIPOLES>
388.11
7.35
3.45
0.82
5.69
0.6
-0.05
-1.93
-0.06
-4.25
-0.52
0.65
0.14
0.06

> <PUBCHEM_SHAPE_SELFOVERLAP>
852.095

> <PUBCHEM_SHAPE_VOLUME>
211.2

> <PUBCHEM_COORDINATE_TYPE>
2
5
10

$$$$

