4311
  -OEChem-06261200022D

 45 45  0     1  0  0  0  0  0999 V2000
    3.0000   -0.2500    0.0000 S   0  0  0  0  0  0  0  0  0  0  0  0
    4.7320    2.7500    0.0000 O   0  0  0  0  0  0  0  0  0  0  0  0
    4.0000   -0.2500    0.0000 O   0  0  0  0  0  0  0  0  0  0  0  0
    2.0000   -0.2500    0.0000 O   0  0  0  0  0  0  0  0  0  0  0  0
    3.0000    2.7500    0.0000 O   0  0  0  0  0  0  0  0  0  0  0  0
    6.4641   -0.2500    0.0000 O   0  0  0  0  0  0  0  0  0  0  0  0
    3.0000    0.7500    0.0000 N   0  0  0  0  0  0  0  0  0  0  0  0
    7.3301    1.2500    0.0000 N   0  0  0  0  0  0  0  0  0  0  0  0
    3.8660    1.2500    0.0000 C   0  0  3  0  0  0  0  0  0  0  0  0
    4.7320    0.7500    0.0000 C   0  0  0  0  0  0  0  0  0  0  0  0
    5.5981    1.2500    0.0000 C   0  0  0  0  0  0  0  0  0  0  0  0
    3.8660    2.2500    0.0000 C   0  0  0  0  0  0  0  0  0  0  0  0
    3.0000   -1.2500    0.0000 C   0  0  0  0  0  0  0  0  0  0  0  0
    4.7320    3.7500    0.0000 C   0  0  0  0  0  0  0  0  0  0  0  0
    6.4641    0.7500    0.0000 C   0  0  0  0  0  0  0  0  0  0  0  0
    2.1340   -1.7500    0.0000 C   0  0  0  0  0  0  0  0  0  0  0  0
    3.8660   -1.7500    0.0000 C   0  0  0  0  0  0  0  0  0  0  0  0
    3.0000   -3.2500    0.0000 C   0  0  0  0  0  0  0  0  0  0  0  0
    2.1340   -2.7500    0.0000 C   0  0  0  0  0  0  0  0  0  0  0  0
    3.8660   -2.7500    0.0000 C   0  0  0  0  0  0  0  0  0  0  0  0
    5.5981    4.2500    0.0000 C   0  0  0  0  0  0  0  0  0  0  0  0
    3.8660    4.2500    0.0000 C   0  0  0  0  0  0  0  0  0  0  0  0
    3.0000   -4.2500    0.0000 C   0  0  0  0  0  0  0  0  0  0  0  0
    3.8660    0.6300    0.0000 H   0  0  0  0  0  0  0  0  0  0  0  0
    4.3335    0.2751    0.0000 H   0  0  0  0  0  0  0  0  0  0  0  0
    5.1306    0.2751    0.0000 H   0  0  0  0  0  0  0  0  0  0  0  0
    2.4631    1.0600    0.0000 H   0  0  0  0  0  0  0  0  0  0  0  0
    5.9966    1.7250    0.0000 H   0  0  0  0  0  0  0  0  0  0  0  0
    5.1996    1.7250    0.0000 H   0  0  0  0  0  0  0  0  0  0  0  0
    5.2690    3.4400    0.0000 H   0  0  0  0  0  0  0  0  0  0  0  0
    1.5970   -1.4400    0.0000 H   0  0  0  0  0  0  0  0  0  0  0  0
    4.4030   -1.4400    0.0000 H   0  0  0  0  0  0  0  0  0  0  0  0
    1.5970   -3.0600    0.0000 H   0  0  0  0  0  0  0  0  0  0  0  0
    4.4030   -3.0600    0.0000 H   0  0  0  0  0  0  0  0  0  0  0  0
    5.9081    3.7131    0.0000 H   0  0  0  0  0  0  0  0  0  0  0  0
    6.1350    4.5600    0.0000 H   0  0  0  0  0  0  0  0  0  0  0  0
    5.2881    4.7869    0.0000 H   0  0  0  0  0  0  0  0  0  0  0  0
    4.1760    4.7869    0.0000 H   0  0  0  0  0  0  0  0  0  0  0  0
    3.3291    4.5600    0.0000 H   0  0  0  0  0  0  0  0  0  0  0  0
    3.5560    3.7131    0.0000 H   0  0  0  0  0  0  0  0  0  0  0  0
    2.3800   -4.2500    0.0000 H   0  0  0  0  0  0  0  0  0  0  0  0
    3.0000   -4.8700    0.0000 H   0  0  0  0  0  0  0  0  0  0  0  0
    3.6200   -4.2500    0.0000 H   0  0  0  0  0  0  0  0  0  0  0  0
    7.8671    0.9400    0.0000 H   0  0  0  0  0  0  0  0  0  0  0  0
    7.3301    1.8700    0.0000 H   0  0  0  0  0  0  0  0  0  0  0  0
  1  3  2  0  0  0  0
  1  4  2  0  0  0  0
  1  7  1  0  0  0  0
  1 13  1  0  0  0  0
  2 12  1  0  0  0  0
  2 14  1  0  0  0  0
  5 12  2  0  0  0  0
  6 15  2  0  0  0  0
  7  9  1  0  0  0  0
  7 27  1  0  0  0  0
  8 15  1  0  0  0  0
  8 44  1  0  0  0  0
  8 45  1  0  0  0  0
  9 10  1  0  0  0  0
  9 12  1  0  0  0  0
  9 24  1  0  0  0  0
 10 11  1  0  0  0  0
 10 25  1  0  0  0  0
 10 26  1  0  0  0  0
 11 15  1  0  0  0  0
 11 28  1  0  0  0  0
 11 29  1  0  0  0  0
 13 16  2  0  0  0  0
 13 17  1  0  0  0  0
 14 21  1  0  0  0  0
 14 22  1  0  0  0  0
 14 30  1  0  0  0  0
 16 19  1  0  0  0  0
 16 31  1  0  0  0  0
 17 20  2  0  0  0  0
 17 32  1  0  0  0  0
 18 19  2  0  0  0  0
 18 20  1  0  0  0  0
 18 23  1  0  0  0  0
 19 33  1  0  0  0  0
 20 34  1  0  0  0  0
 21 35  1  0  0  0  0
 21 36  1  0  0  0  0
 21 37  1  0  0  0  0
 22 38  1  0  0  0  0
 22 39  1  0  0  0  0
 22 40  1  0  0  0  0
 23 41  1  0  0  0  0
 23 42  1  0  0  0  0
 23 43  1  0  0  0  0
M  END
> <PUBCHEM_COMPOUND_CID>
4311

> <PUBCHEM_COMPOUND_CANONICALIZED>
1

> <PUBCHEM_CACTVS_COMPLEXITY>
505

> <PUBCHEM_CACTVS_HBOND_ACCEPTOR>
6

> <PUBCHEM_CACTVS_HBOND_DONOR>
2

> <PUBCHEM_CACTVS_ROTATABLE_BOND>
9

> <PUBCHEM_CACTVS_SUBSKEYS>
AAADceBzOABAAAAAAAAAAAAAAAAAAAAAAAAwAAAAAAAAAAABAAAAHgQQQAAADDzh2AYyCYBABAKIAiHSGHBCABAgAAAIiJmAAIgKIDKAkRCDIAAkkAAIiAeclwAOEAAAAAAAAAAgAAAAAAAAAAAAAAAAAA==

> <PUBCHEM_IUPAC_OPENEYE_NAME>
isopropyl 5-amino-5-oxo-2-(p-tolylsulfonylamino)pentanoate

> <PUBCHEM_IUPAC_CAS_NAME>
5-amino-2-[(4-methylphenyl)sulfonylamino]-5-oxopentanoic acid propan-2-yl ester

> <PUBCHEM_IUPAC_NAME>
propan-2-yl 5-amino-2-[(4-methylphenyl)sulfonylamino]-5-oxopentanoate

> <PUBCHEM_IUPAC_SYSTEMATIC_NAME>
propan-2-yl 5-azanyl-2-[(4-methylphenyl)sulfonylamino]-5-oxidanylidene-pentanoate

> <PUBCHEM_IUPAC_TRADITIONAL_NAME>
5-amino-5-keto-2-(tosylamino)valeric acid isopropyl ester

> <PUBCHEM_IUPAC_INCHI>
InChI=1S/C15H22N2O5S/c1-10(2)22-15(19)13(8-9-14(16)18)17-23(20,21)12-6-4-11(3)5-7-12/h4-7,10,13,17H,8-9H2,1-3H3,(H2,16,18)

> <PUBCHEM_IUPAC_INCHIKEY>
FYSFMHXDSMZVBA-UHFFFAOYSA-N

> <PUBCHEM_XLOGP3_AA>
1.2

> <PUBCHEM_EXACT_MASS>
342.124943

> <PUBCHEM_MOLECULAR_FORMULA>
C15H22N2O5S

> <PUBCHEM_MOLECULAR_WEIGHT>
342.41058

> <PUBCHEM_OPENEYE_CAN_SMILES>
CC1=CC=C(C=C1)S(=O)(=O)NC(CCC(=O)N)C(=O)OC(C)C

> <PUBCHEM_OPENEYE_ISO_SMILES>
CC1=CC=C(C=C1)S(=O)(=O)NC(CCC(=O)N)C(=O)OC(C)C

> <PUBCHEM_CACTVS_TPSA>
124

> <PUBCHEM_MONOISOTOPIC_WEIGHT>
342.124943

> <PUBCHEM_TOTAL_CHARGE>
0

> <PUBCHEM_HEAVY_ATOM_COUNT>
23

> <PUBCHEM_ATOM_DEF_STEREO_COUNT>
0

> <PUBCHEM_ATOM_UDEF_STEREO_COUNT>
1

> <PUBCHEM_BOND_DEF_STEREO_COUNT>
0

> <PUBCHEM_BOND_UDEF_STEREO_COUNT>
0

> <PUBCHEM_ISOTOPIC_ATOM_COUNT>
0

> <PUBCHEM_COMPONENT_COUNT>
1

> <PUBCHEM_CACTVS_TAUTO_COUNT>
3

> <PUBCHEM_COORDINATE_TYPE>
1
5
255

> <PUBCHEM_BONDANNOTATIONS>
13  16  8
13  17  8
16  19  8
17  20  8
18  19  8
18  20  8
9  10  3

$$$$

