442374
  -OEChem-07051212583D

 41 42  0     1  0  0  0  0  0999 V2000
   -1.1877    2.2171    2.3298 O   0  0  0  0  0  0  0  0  0  0  0  0
    1.4403    2.1727   -1.6204 O   0  0  0  0  0  0  0  0  0  0  0  0
   -1.6604   -0.8605    0.1325 C   0  0  2  0  0  0  0  0  0  0  0  0
    0.2625    0.4893    0.4860 C   0  0  1  0  0  0  0  0  0  0  0  0
   -1.0701    0.1282    1.1767 C   0  0  1  0  0  0  0  0  0  0  0  0
    1.2308   -0.7117    0.6613 C   0  0  1  0  0  0  0  0  0  0  0  0
   -0.8574   -2.1877    0.2451 C   0  0  0  0  0  0  0  0  0  0  0  0
    0.6624   -2.0142    0.0462 C   0  0  0  0  0  0  0  0  0  0  0  0
   -1.2943   -0.1382   -1.1637 C   0  0  0  0  0  0  0  0  0  0  0  0
   -0.2129    0.6292   -0.9403 C   0  0  0  0  0  0  0  0  0  0  0  0
    2.6235   -0.4188    0.1024 C   0  0  0  0  0  0  0  0  0  0  0  0
   -3.1548   -1.1207    0.3246 C   0  0  0  0  0  0  0  0  0  0  0  0
   -1.9230    1.3712    1.4698 C   0  0  0  0  0  0  0  0  0  0  0  0
   -2.0516   -0.3583   -2.4264 C   0  0  0  0  0  0  0  0  0  0  0  0
    3.1694    0.8834    0.6819 C   0  0  0  0  0  0  0  0  0  0  0  0
    3.5722   -1.5781    0.3953 C   0  0  0  0  0  0  0  0  0  0  0  0
    0.4513    1.4971   -1.9008 C   0  0  0  0  0  0  0  0  0  0  0  0
    0.6555    1.4203    0.8973 H   0  0  0  0  0  0  0  0  0  0  0  0
   -0.8812   -0.3676    2.1390 H   0  0  0  0  0  0  0  0  0  0  0  0
    1.3304   -0.8850    1.7433 H   0  0  0  0  0  0  0  0  0  0  0  0
   -1.2263   -2.9223   -0.4821 H   0  0  0  0  0  0  0  0  0  0  0  0
   -1.0287   -2.6234    1.2386 H   0  0  0  0  0  0  0  0  0  0  0  0
    1.1632   -2.8905    0.4744 H   0  0  0  0  0  0  0  0  0  0  0  0
    0.8730   -2.0400   -1.0313 H   0  0  0  0  0  0  0  0  0  0  0  0
    2.5776   -0.3058   -0.9877 H   0  0  0  0  0  0  0  0  0  0  0  0
   -3.3618   -1.4757    1.3401 H   0  0  0  0  0  0  0  0  0  0  0  0
   -3.7550   -0.2206    0.1530 H   0  0  0  0  0  0  0  0  0  0  0  0
   -3.5147   -1.8859   -0.3726 H   0  0  0  0  0  0  0  0  0  0  0  0
   -2.8489    1.0896    1.9810 H   0  0  0  0  0  0  0  0  0  0  0  0
   -2.1824    1.9321    0.5665 H   0  0  0  0  0  0  0  0  0  0  0  0
   -1.5863    0.1224   -3.2901 H   0  0  0  0  0  0  0  0  0  0  0  0
   -3.0685    0.0356   -2.3362 H   0  0  0  0  0  0  0  0  0  0  0  0
   -2.1133   -1.4288   -2.6473 H   0  0  0  0  0  0  0  0  0  0  0  0
    3.1722    0.8545    1.7776 H   0  0  0  0  0  0  0  0  0  0  0  0
    4.2071    1.0323    0.3609 H   0  0  0  0  0  0  0  0  0  0  0  0
    2.6296    1.7769    0.3734 H   0  0  0  0  0  0  0  0  0  0  0  0
    3.5964   -1.8176    1.4638 H   0  0  0  0  0  0  0  0  0  0  0  0
    4.5939   -1.3265    0.0893 H   0  0  0  0  0  0  0  0  0  0  0  0
    3.2961   -2.4824   -0.1554 H   0  0  0  0  0  0  0  0  0  0  0  0
    0.0215    1.5310   -2.9130 H   0  0  0  0  0  0  0  0  0  0  0  0
   -1.7440    2.9927    2.5158 H   0  0  0  0  0  0  0  0  0  0  0  0
  1 13  1  0  0  0  0
  1 41  1  0  0  0  0
  2 17  2  0  0  0  0
  3  5  1  0  0  0  0
  3  7  1  0  0  0  0
  3  9  1  0  0  0  0
  3 12  1  0  0  0  0
  4  5  1  0  0  0  0
  4  6  1  0  0  0  0
  4 10  1  0  0  0  0
  4 18  1  0  0  0  0
  5 13  1  0  0  0  0
  5 19  1  0  0  0  0
  6  8  1  0  0  0  0
  6 11  1  0  0  0  0
  6 20  1  0  0  0  0
  7  8  1  0  0  0  0
  7 21  1  0  0  0  0
  7 22  1  0  0  0  0
  8 23  1  0  0  0  0
  8 24  1  0  0  0  0
  9 10  2  0  0  0  0
  9 14  1  0  0  0  0
 10 17  1  0  0  0  0
 11 15  1  0  0  0  0
 11 16  1  0  0  0  0
 11 25  1  0  0  0  0
 12 26  1  0  0  0  0
 12 27  1  0  0  0  0
 12 28  1  0  0  0  0
 13 29  1  0  0  0  0
 13 30  1  0  0  0  0
 14 31  1  0  0  0  0
 14 32  1  0  0  0  0
 14 33  1  0  0  0  0
 15 34  1  0  0  0  0
 15 35  1  0  0  0  0
 15 36  1  0  0  0  0
 16 37  1  0  0  0  0
 16 38  1  0  0  0  0
 16 39  1  0  0  0  0
 17 40  1  0  0  0  0
M  END
> <PUBCHEM_COMPOUND_CID>
442374

> <PUBCHEM_CONFORMER_RMSD>
0.6

> <PUBCHEM_CONFORMER_DIVERSEORDER>
2
14
13
7
1
16
10
9
4
5
8
15
6
12
11
3

> <PUBCHEM_MMFF94_PARTIAL_CHARGES>
11
1 -0.68
10 -0.12
13 0.28
14 0.14
17 0.5
2 -0.57
3 0.14
4 0.14
40 0.06
41 0.4
9 -0.28

> <PUBCHEM_EFFECTIVE_ROTOR_COUNT>
3.8

> <PUBCHEM_PHARMACOPHORE_FEATURES>
5
1 1 acceptor
1 1 donor
1 2 acceptor
3 11 15 16 hydrophobe
8 3 4 5 6 7 8 9 10 rings

> <PUBCHEM_HEAVY_ATOM_COUNT>
17

> <PUBCHEM_ATOM_DEF_STEREO_COUNT>
0

> <PUBCHEM_ATOM_UDEF_STEREO_COUNT>
4

> <PUBCHEM_BOND_DEF_STEREO_COUNT>
0

> <PUBCHEM_BOND_UDEF_STEREO_COUNT>
0

> <PUBCHEM_ISOTOPIC_ATOM_COUNT>
0

> <PUBCHEM_COMPONENT_COUNT>
1

> <PUBCHEM_CACTVS_TAUTO_COUNT>
1

> <PUBCHEM_CONFORMER_ID>
0006C00600000002

> <PUBCHEM_MMFF94_ENERGY>
53.4572

> <PUBCHEM_FEATURE_SELFOVERLAP>
25.371

> <PUBCHEM_SHAPE_FINGERPRINT>
12423570 1 17627248766014806923
13024252 1 14692288499184921171
13299463 15 18051163515667491174
13583140 156 15142968437703499810
13898156 1 18193808531968820481
14142880 1 18193573365582754936
144361 1 17630328532343641124
14817 1 12459066824342066869
15906896 17 17677336167993933747
16945 1 18195271960423016018
19010151 120 17917712404811885210
19868273 325 17775567580570444918
21524375 3 17389097055652168473
22344851 262 18269546316200408585
22802520 49 18056498354807348022
2306618 200 18125460819444479666
23419403 2 16893754594822604622
2748010 2 18059592303176254926
45790113 50 18113335314866162642
528886 8 17914925190280346055
54276843 12 18410292475926181195
5845 1 7975996930398665145
68419 9 18049401990681325225
81228 2 16987450900134391796

> <PUBCHEM_SHAPE_MULTIPOLES>
338.11
4.18
2.22
1.97
2.75
0.08
-0.08
-1.2
0.42
0.38
-0.04
-1.31
1.37
-0.59

> <PUBCHEM_SHAPE_SELFOVERLAP>
704.531

> <PUBCHEM_SHAPE_VOLUME>
194.8

> <PUBCHEM_COORDINATE_TYPE>
2
5
10

$$$$

