439904
  -OEChem-07051212483D

 23 23  0     1  0  0  0  0  0999 V2000
    2.9220   -0.2412   -0.7668 S   0  0  0  0  0  0  0  0  0  0  0  0
   -0.0580   -1.0314   -0.5740 O   0  0  0  0  0  0  0  0  0  0  0  0
   -0.9555    2.2560    0.5469 O   0  0  0  0  0  0  0  0  0  0  0  0
   -2.4578    0.6897   -1.1353 O   0  0  0  0  0  0  0  0  0  0  0  0
   -1.4817   -2.0463    1.0008 O   0  0  0  0  0  0  0  0  0  0  0  0
   -0.8240    0.8526    0.6253 C   0  0  2  0  0  0  0  0  0  0  0  0
    0.2856    0.3329   -0.2740 C   0  0  1  0  0  0  0  0  0  0  0  0
   -2.0286    0.1047    0.0902 C   0  0  2  0  0  0  0  0  0  0  0  0
   -1.4266   -1.2652   -0.1869 C   0  0  1  0  0  0  0  0  0  0  0  0
    1.6584    0.3846    0.3728 C   0  0  0  0  0  0  0  0  0  0  0  0
    4.3663   -0.0365    0.3009 C   0  0  0  0  0  0  0  0  0  0  0  0
   -0.6507    0.5698    1.6711 H   0  0  0  0  0  0  0  0  0  0  0  0
    0.3060    0.8955   -1.2171 H   0  0  0  0  0  0  0  0  0  0  0  0
   -2.8708    0.1000    0.7873 H   0  0  0  0  0  0  0  0  0  0  0  0
   -1.9404   -1.7957   -0.9954 H   0  0  0  0  0  0  0  0  0  0  0  0
    1.6769   -0.2449    1.2690 H   0  0  0  0  0  0  0  0  0  0  0  0
    1.9094    1.4116    0.6558 H   0  0  0  0  0  0  0  0  0  0  0  0
   -0.1195    2.6483    0.8503 H   0  0  0  0  0  0  0  0  0  0  0  0
   -1.7856    0.5282   -1.8180 H   0  0  0  0  0  0  0  0  0  0  0  0
   -1.4166   -2.9783    0.7323 H   0  0  0  0  0  0  0  0  0  0  0  0
    4.4972    1.0155    0.5679 H   0  0  0  0  0  0  0  0  0  0  0  0
    5.2592   -0.3727   -0.2328 H   0  0  0  0  0  0  0  0  0  0  0  0
    4.2580   -0.6365    1.2082 H   0  0  0  0  0  0  0  0  0  0  0  0
  1 10  1  0  0  0  0
  1 11  1  0  0  0  0
  2  7  1  0  0  0  0
  2  9  1  0  0  0  0
  3  6  1  0  0  0  0
  3 18  1  0  0  0  0
  4  8  1  0  0  0  0
  4 19  1  0  0  0  0
  5  9  1  0  0  0  0
  5 20  1  0  0  0  0
  6  7  1  0  0  0  0
  6  8  1  0  0  0  0
  6 12  1  0  0  0  0
  7 10  1  0  0  0  0
  7 13  1  0  0  0  0
  8  9  1  0  0  0  0
  8 14  1  0  0  0  0
  9 15  1  0  0  0  0
 10 16  1  0  0  0  0
 10 17  1  0  0  0  0
 11 21  1  0  0  0  0
 11 22  1  0  0  0  0
 11 23  1  0  0  0  0
M  END
> <PUBCHEM_COMPOUND_CID>
439904

> <PUBCHEM_CONFORMER_RMSD>
0.6

> <PUBCHEM_CONFORMER_DIVERSEORDER>
1
9
10
4
6
8
5
7
2
3

> <PUBCHEM_MMFF94_PARTIAL_CHARGES>
14
1 -0.46
10 0.23
11 0.23
18 0.4
19 0.4
2 -0.56
20 0.4
3 -0.68
4 -0.68
5 -0.68
6 0.28
7 0.28
8 0.28
9 0.56

> <PUBCHEM_EFFECTIVE_ROTOR_COUNT>
3

> <PUBCHEM_PHARMACOPHORE_FEATURES>
9
1 11 hydrophobe
1 2 acceptor
1 3 acceptor
1 3 donor
1 4 acceptor
1 4 donor
1 5 acceptor
1 5 donor
5 2 6 7 8 9 rings

> <PUBCHEM_HEAVY_ATOM_COUNT>
11

> <PUBCHEM_ATOM_DEF_STEREO_COUNT>
4

> <PUBCHEM_ATOM_UDEF_STEREO_COUNT>
0

> <PUBCHEM_BOND_DEF_STEREO_COUNT>
0

> <PUBCHEM_BOND_UDEF_STEREO_COUNT>
0

> <PUBCHEM_ISOTOPIC_ATOM_COUNT>
0

> <PUBCHEM_COMPONENT_COUNT>
1

> <PUBCHEM_CACTVS_TAUTO_COUNT>
1

> <PUBCHEM_CONFORMER_ID>
0006B66000000001

> <PUBCHEM_MMFF94_ENERGY>
26.8556

> <PUBCHEM_FEATURE_SELFOVERLAP>
45.721

> <PUBCHEM_SHAPE_FINGERPRINT>
12423570 1 12159971345131239537
12716758 59 18342747286098016145
12932764 1 17632286870470276620
13024252 1 13326853340048549605
16945 1 18335982051192362904
187816 3 18337120033201042037
20201158 50 17967252009777375926
20645464 45 17603862312969739766
20653085 51 17346597482263803557
20871998 184 18114174207704428614
23235685 24 18337390538683611317
23402539 116 18335712666828406125
23552423 10 18199465463727996572
2748010 2 18118409449105952404
3248919 1 18408597081057614572
369184 2 18413387622738305878

> <PUBCHEM_SHAPE_MULTIPOLES>
206.75
5.07
1.63
0.94
6.77
0.09
-0.06
-0.28
-0.17
-1.22
0.4
-0.15
-0.07
0.31

> <PUBCHEM_SHAPE_SELFOVERLAP>
394.08

> <PUBCHEM_SHAPE_VOLUME>
129.7

> <PUBCHEM_COORDINATE_TYPE>
2
5
10

$$$$

