46173952
  -OEChem-07051213103D

 85 88  0     1  0  0  0  0  0999 V2000
    0.2472    2.1006   -0.0768 O   0  0  0  0  0  0  0  0  0  0  0  0
    3.4410    0.3372   -0.3246 O   0  0  0  0  0  0  0  0  0  0  0  0
   -0.1787    0.6595    1.7340 O   0  0  0  0  0  0  0  0  0  0  0  0
    3.7374    3.1676    0.1416 O   0  0  0  0  0  0  0  0  0  0  0  0
   -3.6291    0.3184    0.8128 O   0  0  0  0  0  0  0  0  0  0  0  0
    3.3100   -1.9283    0.3457 O   0  0  0  0  0  0  0  0  0  0  0  0
   -2.5534    2.4512    2.1672 O   0  0  0  0  0  0  0  0  0  0  0  0
   -4.3772   -0.6947   -1.1883 O   0  0  0  0  0  0  0  0  0  0  0  0
    6.9960   -0.8361    1.8643 O   0  0  0  0  0  0  0  0  0  0  0  0
    6.8559   -2.5237   -0.4589 O   0  0  0  0  0  0  0  0  0  0  0  0
   -0.1714   -2.1389    2.0855 O   0  0  0  0  0  0  0  0  0  0  0  0
   -7.9492    0.0952    0.7374 O   0  0  0  0  0  0  0  0  0  0  0  0
   -6.8834   -2.6395    0.6462 O   0  0  0  0  0  0  0  0  0  0  0  0
   -4.4534   -2.6998   -2.7089 O   0  0  0  0  0  0  0  0  0  0  0  0
    0.8043    0.9467   -2.8158 N   0  0  0  0  0  0  0  0  0  0  0  0
    1.1167    3.9259   -2.3259 N   0  0  0  0  0  0  0  0  0  0  0  0
    4.7519    0.9963    2.1249 N   0  0  0  0  0  0  0  0  0  0  0  0
   -5.8577    2.1130    0.7384 N   0  0  0  0  0  0  0  0  0  0  0  0
    2.9286   -3.8773   -1.6421 N   0  0  0  0  0  0  0  0  0  0  0  0
    1.6539    1.9295    0.0670 C   0  0  1  0  0  0  0  0  0  0  0  0
    2.1229    0.7048   -0.7384 C   0  0  1  0  0  0  0  0  0  0  0  0
    2.1574    0.9385   -2.2599 C   0  0  2  0  0  0  0  0  0  0  0  0
    2.3869    3.2247   -0.3238 C   0  0  2  0  0  0  0  0  0  0  0  0
    2.4243    3.4838   -1.8410 C   0  0  1  0  0  0  0  0  0  0  0  0
    2.9064    2.2385   -2.6084 C   0  0  0  0  0  0  0  0  0  0  0  0
   -0.4175    1.9660    1.1738 C   0  0  2  0  0  0  0  0  0  0  0  0
   -2.2636    0.6244    0.6262 C   0  0  1  0  0  0  0  0  0  0  0  0
   -1.9197    2.0640    0.9520 C   0  0  1  0  0  0  0  0  0  0  0  0
    3.4020   -0.5672    0.7773 C   0  0  1  0  0  0  0  0  0  0  0  0
   -1.3720   -0.1324    1.5970 C   0  0  1  0  0  0  0  0  0  0  0  0
    4.6345   -0.3903    1.6724 C   0  0  1  0  0  0  0  0  0  0  0  0
    5.9075   -0.8266    0.9389 C   0  0  2  0  0  0  0  0  0  0  0  0
    5.7329   -2.2400    0.3720 C   0  0  1  0  0  0  0  0  0  0  0  0
    4.4325   -2.3582   -0.4322 C   0  0  1  0  0  0  0  0  0  0  0  0
   -4.3802    0.4891   -0.3856 C   0  0  1  0  0  0  0  0  0  0  0  0
   -5.8267    0.8945   -0.0713 C   0  0  1  0  0  0  0  0  0  0  0  0
   -1.0088   -1.5268    1.1184 C   0  0  0  0  0  0  0  0  0  0  0  0
   -6.5650   -0.2453    0.6425 C   0  0  2  0  0  0  0  0  0  0  0  0
   -6.4283   -1.5480   -0.1529 C   0  0  1  0  0  0  0  0  0  0  0  0
    4.1537   -3.7961   -0.8613 C   0  0  0  0  0  0  0  0  0  0  0  0
   -4.9763   -1.8142   -0.5405 C   0  0  1  0  0  0  0  0  0  0  0  0
   -4.8924   -2.8861   -1.5788 C   0  0  0  0  0  0  0  0  0  0  0  0
    1.9151    1.7594    1.1201 H   0  0  0  0  0  0  0  0  0  0  0  0
    1.4411   -0.1379   -0.5584 H   0  0  0  0  0  0  0  0  0  0  0  0
    2.7031    0.1105   -2.7308 H   0  0  0  0  0  0  0  0  0  0  0  0
    1.9134    4.0741    0.1850 H   0  0  0  0  0  0  0  0  0  0  0  0
    3.1391    4.2903   -2.0487 H   0  0  0  0  0  0  0  0  0  0  0  0
    2.8597    2.4213   -3.6906 H   0  0  0  0  0  0  0  0  0  0  0  0
    3.9721    2.0900   -2.3864 H   0  0  0  0  0  0  0  0  0  0  0  0
   -0.0545    2.7258    1.8760 H   0  0  0  0  0  0  0  0  0  0  0  0
   -1.9415    0.3902   -0.3993 H   0  0  0  0  0  0  0  0  0  0  0  0
   -2.2174    2.7602    0.1624 H   0  0  0  0  0  0  0  0  0  0  0  0
   -1.8290   -0.2011    2.5924 H   0  0  0  0  0  0  0  0  0  0  0  0
    2.5172   -0.3815    1.3989 H   0  0  0  0  0  0  0  0  0  0  0  0
    4.5157   -1.0246    2.5612 H   0  0  0  0  0  0  0  0  0  0  0  0
    6.1715   -0.1225    0.1403 H   0  0  0  0  0  0  0  0  0  0  0  0
    0.3526    0.0510   -2.6363 H   0  0  0  0  0  0  0  0  0  0  0  0
    0.8496    1.0494   -3.8287 H   0  0  0  0  0  0  0  0  0  0  0  0
    5.7418   -2.9678    1.1924 H   0  0  0  0  0  0  0  0  0  0  0  0
    4.4994   -1.7415   -1.3392 H   0  0  0  0  0  0  0  0  0  0  0  0
    1.1740    4.1420   -3.3202 H   0  0  0  0  0  0  0  0  0  0  0  0
    0.8507    4.7907   -1.8570 H   0  0  0  0  0  0  0  0  0  0  0  0
   -3.9383    1.2876   -0.9967 H   0  0  0  0  0  0  0  0  0  0  0  0
    4.1513    4.0270   -0.0475 H   0  0  0  0  0  0  0  0  0  0  0  0
   -6.3461    1.1043   -1.0160 H   0  0  0  0  0  0  0  0  0  0  0  0
   -1.9026   -2.1434    0.9861 H   0  0  0  0  0  0  0  0  0  0  0  0
   -0.4540   -1.4885    0.1757 H   0  0  0  0  0  0  0  0  0  0  0  0
   -6.1973   -0.3811    1.6669 H   0  0  0  0  0  0  0  0  0  0  0  0
   -7.0697   -1.5126   -1.0420 H   0  0  0  0  0  0  0  0  0  0  0  0
   -2.2626    3.3566    2.3703 H   0  0  0  0  0  0  0  0  0  0  0  0
   -4.3654   -2.1348    0.3110 H   0  0  0  0  0  0  0  0  0  0  0  0
    4.9834   -4.1878   -1.4586 H   0  0  0  0  0  0  0  0  0  0  0  0
    4.0414   -4.4368    0.0211 H   0  0  0  0  0  0  0  0  0  0  0  0
    5.5471    1.0835    2.7563 H   0  0  0  0  0  0  0  0  0  0  0  0
    3.9252    1.2527    2.6628 H   0  0  0  0  0  0  0  0  0  0  0  0
    6.7769   -1.4534    2.5829 H   0  0  0  0  0  0  0  0  0  0  0  0
    6.8405   -1.9033   -1.2075 H   0  0  0  0  0  0  0  0  0  0  0  0
   -6.8246    2.3947    0.8947 H   0  0  0  0  0  0  0  0  0  0  0  0
   -5.4124    2.8749    0.2287 H   0  0  0  0  0  0  0  0  0  0  0  0
    0.0527   -3.0241    1.7512 H   0  0  0  0  0  0  0  0  0  0  0  0
   -8.2921    0.2222   -0.1636 H   0  0  0  0  0  0  0  0  0  0  0  0
   -5.2411   -3.8862   -1.2695 H   0  0  0  0  0  0  0  0  0  0  0  0
    2.7229   -4.8530   -1.8520 H   0  0  0  0  0  0  0  0  0  0  0  0
    2.1452   -3.5309   -1.0895 H   0  0  0  0  0  0  0  0  0  0  0  0
   -6.3310   -2.6790    1.4456 H   0  0  0  0  0  0  0  0  0  0  0  0
  1 20  1  0  0  0  0
  1 26  1  0  0  0  0
  2 21  1  0  0  0  0
  2 29  1  0  0  0  0
  3 26  1  0  0  0  0
  3 30  1  0  0  0  0
  4 23  1  0  0  0  0
  4 64  1  0  0  0  0
  5 27  1  0  0  0  0
  5 35  1  0  0  0  0
  6 29  1  0  0  0  0
  6 34  1  0  0  0  0
  7 28  1  0  0  0  0
  7 70  1  0  0  0  0
  8 35  1  0  0  0  0
  8 41  1  0  0  0  0
  9 32  1  0  0  0  0
  9 76  1  0  0  0  0
 10 33  1  0  0  0  0
 10 77  1  0  0  0  0
 11 37  1  0  0  0  0
 11 80  1  0  0  0  0
 12 38  1  0  0  0  0
 12 81  1  0  0  0  0
 13 39  1  0  0  0  0
 13 85  1  0  0  0  0
 14 42  2  0  0  0  0
 15 22  1  0  0  0  0
 15 57  1  0  0  0  0
 15 58  1  0  0  0  0
 16 24  1  0  0  0  0
 16 61  1  0  0  0  0
 16 62  1  0  0  0  0
 17 31  1  0  0  0  0
 17 74  1  0  0  0  0
 17 75  1  0  0  0  0
 18 36  1  0  0  0  0
 18 78  1  0  0  0  0
 18 79  1  0  0  0  0
 19 40  1  0  0  0  0
 19 83  1  0  0  0  0
 19 84  1  0  0  0  0
 20 21  1  0  0  0  0
 20 23  1  0  0  0  0
 20 43  1  0  0  0  0
 21 22  1  0  0  0  0
 21 44  1  0  0  0  0
 22 25  1  0  0  0  0
 22 45  1  0  0  0  0
 23 24  1  0  0  0  0
 23 46  1  0  0  0  0
 24 25  1  0  0  0  0
 24 47  1  0  0  0  0
 25 48  1  0  0  0  0
 25 49  1  0  0  0  0
 26 28  1  0  0  0  0
 26 50  1  0  0  0  0
 27 28  1  0  0  0  0
 27 30  1  0  0  0  0
 27 51  1  0  0  0  0
 28 52  1  0  0  0  0
 29 31  1  0  0  0  0
 29 54  1  0  0  0  0
 30 37  1  0  0  0  0
 30 53  1  0  0  0  0
 31 32  1  0  0  0  0
 31 55  1  0  0  0  0
 32 33  1  0  0  0  0
 32 56  1  0  0  0  0
 33 34  1  0  0  0  0
 33 59  1  0  0  0  0
 34 40  1  0  0  0  0
 34 60  1  0  0  0  0
 35 36  1  0  0  0  0
 35 63  1  0  0  0  0
 36 38  1  0  0  0  0
 36 65  1  0  0  0  0
 37 66  1  0  0  0  0
 37 67  1  0  0  0  0
 38 39  1  0  0  0  0
 38 68  1  0  0  0  0
 39 41  1  0  0  0  0
 39 69  1  0  0  0  0
 40 72  1  0  0  0  0
 40 73  1  0  0  0  0
 41 42  1  0  0  0  0
 41 71  1  0  0  0  0
 42 82  1  0  0  0  0
M  END
> <PUBCHEM_COMPOUND_CID>
46173952

> <PUBCHEM_CONFORMER_RMSD>
1.2

> <PUBCHEM_CONFORMER_DIVERSEORDER>
1
18
32
41
6
46
14
21
5
26
4
28
31
45
35
47
39
36
19
33
40
25
22
23
29
30
9
48
44
12
43
27
15
34
7
17
20
24
42
37
8
13
11
16
3
38
2
10

> <PUBCHEM_MMFF94_PARTIAL_CHARGES>
59
1 -0.56
10 -0.68
11 -0.68
12 -0.68
13 -0.68
14 -0.57
15 -0.99
16 -0.99
17 -0.99
18 -0.99
19 -0.99
2 -0.56
20 0.28
21 0.28
22 0.27
23 0.28
24 0.27
26 0.56
27 0.28
28 0.28
29 0.56
3 -0.56
30 0.28
31 0.27
32 0.28
33 0.28
34 0.28
35 0.56
36 0.27
37 0.28
38 0.28
39 0.28
4 -0.68
40 0.27
41 0.34
42 0.45
5 -0.56
57 0.36
58 0.36
6 -0.56
61 0.36
62 0.36
64 0.4
7 -0.68
70 0.4
74 0.36
75 0.36
76 0.4
77 0.4
78 0.36
79 0.36
8 -0.56
80 0.4
81 0.4
82 0.06
83 0.36
84 0.36
85 0.4
9 -0.68

> <PUBCHEM_EFFECTIVE_ROTOR_COUNT>
13.6

> <PUBCHEM_PHARMACOPHORE_FEATURES>
35
1 1 acceptor
1 10 acceptor
1 10 donor
1 11 acceptor
1 11 donor
1 12 acceptor
1 12 donor
1 13 acceptor
1 13 donor
1 14 acceptor
1 15 cation
1 15 donor
1 16 cation
1 16 donor
1 17 cation
1 17 donor
1 18 cation
1 18 donor
1 19 cation
1 19 donor
1 2 acceptor
1 3 acceptor
1 4 acceptor
1 4 donor
1 5 acceptor
1 6 acceptor
1 7 acceptor
1 7 donor
1 8 acceptor
1 9 acceptor
1 9 donor
5 3 26 27 28 30 rings
6 20 21 22 23 24 25 rings
6 6 29 31 32 33 34 rings
6 8 35 36 38 39 41 rings

> <PUBCHEM_HEAVY_ATOM_COUNT>
42

> <PUBCHEM_ATOM_DEF_STEREO_COUNT>
19

> <PUBCHEM_ATOM_UDEF_STEREO_COUNT>
0

> <PUBCHEM_BOND_DEF_STEREO_COUNT>
0

> <PUBCHEM_BOND_UDEF_STEREO_COUNT>
0

> <PUBCHEM_ISOTOPIC_ATOM_COUNT>
0

> <PUBCHEM_COMPONENT_COUNT>
1

> <PUBCHEM_CACTVS_TAUTO_COUNT>
2

> <PUBCHEM_CONFORMER_ID>
02C08F0000000001

> <PUBCHEM_MMFF94_ENERGY>
96.8322

> <PUBCHEM_FEATURE_SELFOVERLAP>
177.77

> <PUBCHEM_SHAPE_FINGERPRINT>
10670039 82 12679190435476669743
11135609 149 17702126774902966244
11135609 99 18113338648040489110
11331351 85 18340767164457424925
11399939 17 17967523602055463694
117089 54 18336543795184296555
12166972 35 18343864420087468336
12422481 6 16081094748758504797
1361 4 18196651796625575331
13782708 43 17131542857011283707
13811026 1 18261399978694600643
14068700 675 18410856607433465648
15021287 119 18273494581241932369
15183329 4 16702302377433121577
15250474 111 18116442444880409799
15328829 1 18267296711748476401
15406563 5 18337676412255608765
19303781 99 18341341036512660531
21223535 225 17489042555833681205
23559900 14 18271238335899920672
249057 3 18271246136008870893
25222932 49 17168722816407496334
3886686 26 17320125838024174400
4066623 53 16487256578054104324
4149490 64 18129378207617719681
5081480 168 16917345930903291318
6086070 43 16916776366705437522
613672 6 17987503961783979410
6523845 18 15841552968663203913
77296 10 18114183085248575834

> <PUBCHEM_SHAPE_MULTIPOLES>
757.26
17.82
4.63
2.36
16.49
0.07
-0.99
12.63
2.73
-3.79
-2.51
-1.09
-0.56
-2.47

> <PUBCHEM_SHAPE_SELFOVERLAP>
1574.828

> <PUBCHEM_SHAPE_VOLUME>
423.3

> <PUBCHEM_COORDINATE_TYPE>
2
5
10

$$$$

