10433
  -OEChem-06261204323D

 20 20  0     1  0  0  0  0  0999 V2000
   -1.6200   -1.1321   -0.8986 O   0  0  0  0  0  0  0  0  0  0  0  0
    2.5254   -0.5125    0.0108 O   0  0  0  0  0  0  0  0  0  0  0  0
   -1.2129   -0.7294    0.4075 C   0  0  1  0  0  0  0  0  0  0  0  0
    1.1685   -0.2173   -0.3042 C   0  0  1  0  0  0  0  0  0  0  0  0
    0.2649   -1.0717    0.5872 C   0  0  0  0  0  0  0  0  0  0  0  0
   -1.4693    0.7676    0.5911 C   0  0  0  0  0  0  0  0  0  0  0  0
    0.9072    1.2737   -0.0967 C   0  0  0  0  0  0  0  0  0  0  0  0
   -0.5637    1.6216   -0.2972 C   0  0  0  0  0  0  0  0  0  0  0  0
   -1.8180   -1.2926    1.1264 H   0  0  0  0  0  0  0  0  0  0  0  0
    1.0096   -0.4719   -1.3587 H   0  0  0  0  0  0  0  0  0  0  0  0
    0.5522   -0.9337    1.6377 H   0  0  0  0  0  0  0  0  0  0  0  0
    0.4415   -2.1307    0.3603 H   0  0  0  0  0  0  0  0  0  0  0  0
   -1.3049    1.0392    1.6409 H   0  0  0  0  0  0  0  0  0  0  0  0
   -2.5136    0.9980    0.3496 H   0  0  0  0  0  0  0  0  0  0  0  0
    1.5299    1.8573   -0.7853 H   0  0  0  0  0  0  0  0  0  0  0  0
    1.2262    1.5676    0.9118 H   0  0  0  0  0  0  0  0  0  0  0  0
   -0.8339    1.4745   -1.3500 H   0  0  0  0  0  0  0  0  0  0  0  0
   -0.7252    2.6822   -0.0736 H   0  0  0  0  0  0  0  0  0  0  0  0
   -1.4702   -2.0901   -0.9710 H   0  0  0  0  0  0  0  0  0  0  0  0
    2.6645   -1.4615   -0.1492 H   0  0  0  0  0  0  0  0  0  0  0  0
  1  3  1  0  0  0  0
  1 19  1  0  0  0  0
  2  4  1  0  0  0  0
  2 20  1  0  0  0  0
  3  5  1  0  0  0  0
  3  6  1  0  0  0  0
  3  9  1  0  0  0  0
  4  5  1  0  0  0  0
  4  7  1  0  0  0  0
  4 10  1  0  0  0  0
  5 11  1  0  0  0  0
  5 12  1  0  0  0  0
  6  8  1  0  0  0  0
  6 13  1  0  0  0  0
  6 14  1  0  0  0  0
  7  8  1  0  0  0  0
  7 15  1  0  0  0  0
  7 16  1  0  0  0  0
  8 17  1  0  0  0  0
  8 18  1  0  0  0  0
M  END
> <PUBCHEM_COMPOUND_CID>
10433

> <PUBCHEM_CONFORMER_RMSD>
0.4

> <PUBCHEM_CONFORMER_DIVERSEORDER>
1
6
4
3
7
2
5

> <PUBCHEM_MMFF94_PARTIAL_CHARGES>
6
1 -0.68
19 0.4
2 -0.68
20 0.4
3 0.28
4 0.28

> <PUBCHEM_EFFECTIVE_ROTOR_COUNT>
1.2

> <PUBCHEM_PHARMACOPHORE_FEATURES>
5
1 1 acceptor
1 1 donor
1 2 acceptor
1 2 donor
6 3 4 5 6 7 8 rings

> <PUBCHEM_HEAVY_ATOM_COUNT>
8

> <PUBCHEM_ATOM_DEF_STEREO_COUNT>
0

> <PUBCHEM_ATOM_UDEF_STEREO_COUNT>
2

> <PUBCHEM_BOND_DEF_STEREO_COUNT>
0

> <PUBCHEM_BOND_UDEF_STEREO_COUNT>
0

> <PUBCHEM_ISOTOPIC_ATOM_COUNT>
0

> <PUBCHEM_COMPONENT_COUNT>
1

> <PUBCHEM_CACTVS_TAUTO_COUNT>
1

> <PUBCHEM_CONFORMER_ID>
000028C100000001

> <PUBCHEM_MMFF94_ENERGY>
8.1397

> <PUBCHEM_FEATURE_SELFOVERLAP>
25.371

> <PUBCHEM_SHAPE_FINGERPRINT>
12423570 1 16680090327165495633
137420 1 6550873463561145912
16714656 1 18266729371551961184
18185500 45 18411699876515922923
21040471 1 17980478193655670256
23552423 10 18129932511775885358
241688 4 18412265008318161537
24536 1 17985544455346935840
29004967 10 18053659179307677283

> <PUBCHEM_SHAPE_MULTIPOLES>
152.9
2.3
1.62
0.81
0.95
0.4
-0.04
-0.39
-0.05
-0.27
-0.08
-0.22
-0.12
-0.2

> <PUBCHEM_SHAPE_SELFOVERLAP>
295.74

> <PUBCHEM_SHAPE_VOLUME>
92.3

> <PUBCHEM_COORDINATE_TYPE>
2
5
10

$$$$

