442249
  -OEChem-07051212573D

 75 78  0     1  0  0  0  0  0999 V2000
   -2.3117   -0.1308   -0.1262 O   0  0  0  0  0  0  0  0  0  0  0  0
   -2.0309    1.1887    1.8113 O   0  0  0  0  0  0  0  0  0  0  0  0
   -4.3288   -0.8968    0.7617 O   0  0  0  0  0  0  0  0  0  0  0  0
   -3.7325    1.0768   -2.2548 O   0  0  0  0  0  0  0  0  0  0  0  0
   -6.2725   -0.3098   -2.8083 O   0  0  0  0  0  0  0  0  0  0  0  0
   -7.8002   -0.6331   -0.3757 O   0  0  0  0  0  0  0  0  0  0  0  0
    1.2296    3.2843   -0.7470 O   0  0  0  0  0  0  0  0  0  0  0  0
   -5.5909   -1.5294    3.1203 O   0  0  0  0  0  0  0  0  0  0  0  0
    0.3553   -2.5071   -1.0242 O   0  0  0  0  0  0  0  0  0  0  0  0
    0.4842    4.4227    1.1261 O   0  0  0  0  0  0  0  0  0  0  0  0
    6.6745   -0.6998    2.5044 O   0  0  0  0  0  0  0  0  0  0  0  0
    8.1921   -0.9294    0.1893 O   0  0  0  0  0  0  0  0  0  0  0  0
    1.9777   -0.8971   -1.4539 N   0  0  0  0  0  0  0  0  0  0  0  0
    0.4796    0.8351    0.2985 C   0  0  1  0  0  0  0  0  0  0  0  0
    2.0090    0.7470    0.3869 C   0  0  0  0  0  0  0  0  0  0  0  0
    2.5132   -0.6183   -0.1009 C   0  0  2  0  0  0  0  0  0  0  0  0
   -0.2143   -0.3310    1.0590 C   0  0  2  0  0  0  0  0  0  0  0  0
   -1.7281   -0.0631    1.1766 C   0  0  2  0  0  0  0  0  0  0  0  0
    4.0328   -0.6963   -0.0449 C   0  0  0  0  0  0  0  0  0  0  0  0
   -0.0900    2.1535    0.7508 C   0  0  0  0  0  0  0  0  0  0  0  0
   -3.7213    0.0865   -0.0730 C   0  0  2  0  0  0  0  0  0  0  0  0
    2.7468   -0.3362   -2.5647 C   0  0  0  0  0  0  0  0  0  0  0  0
   -4.2664   -0.0092   -1.4979 C   0  0  1  0  0  0  0  0  0  0  0  0
   -5.7935    0.0626   -1.5151 C   0  0  2  0  0  0  0  0  0  0  0  0
    4.8074   -0.8096   -1.2155 C   0  0  0  0  0  0  0  0  0  0  0  0
    4.1548   -0.9139   -2.5695 C   0  0  0  0  0  0  0  0  0  0  0  0
   -6.4040   -0.8943   -0.4911 C   0  0  1  0  0  0  0  0  0  0  0  0
   -5.7418   -0.7198    0.8776 C   0  0  1  0  0  0  0  0  0  0  0  0
    0.3655   -0.6088    2.4195 C   0  0  0  0  0  0  0  0  0  0  0  0
   -1.2275    2.2393    1.4527 C   0  0  0  0  0  0  0  0  0  0  0  0
    4.6831   -0.6638    1.2001 C   0  0  0  0  0  0  0  0  0  0  0  0
    0.7913   -1.5859   -1.7195 C   0  0  0  0  0  0  0  0  0  0  0  0
    6.2046   -0.8937   -1.1200 C   0  0  0  0  0  0  0  0  0  0  0  0
    0.5602    3.4252    0.4254 C   0  0  0  0  0  0  0  0  0  0  0  0
   -6.2523   -1.7436    1.8867 C   0  0  0  0  0  0  0  0  0  0  0  0
    6.0736   -0.7366    1.2824 C   0  0  0  0  0  0  0  0  0  0  0  0
    6.8339   -0.8508    0.1228 C   0  0  0  0  0  0  0  0  0  0  0  0
    0.4090   -1.8218    2.9810 C   0  0  0  0  0  0  0  0  0  0  0  0
    0.0056   -1.1428   -2.9291 C   0  0  0  0  0  0  0  0  0  0  0  0
    1.9227    4.4511   -1.2018 C   0  0  0  0  0  0  0  0  0  0  0  0
    0.1846    0.7727   -0.7559 H   0  0  0  0  0  0  0  0  0  0  0  0
    2.4972    1.5136   -0.2207 H   0  0  0  0  0  0  0  0  0  0  0  0
    2.3465    0.9453    1.4119 H   0  0  0  0  0  0  0  0  0  0  0  0
    2.1459   -1.4229    0.5432 H   0  0  0  0  0  0  0  0  0  0  0  0
   -0.1380   -1.2489    0.5082 H   0  0  0  0  0  0  0  0  0  0  0  0
   -2.1738   -0.8503    1.7977 H   0  0  0  0  0  0  0  0  0  0  0  0
   -3.9162    1.0917    0.3231 H   0  0  0  0  0  0  0  0  0  0  0  0
    2.7668    0.7534   -2.4457 H   0  0  0  0  0  0  0  0  0  0  0  0
    2.2918   -0.5504   -3.5347 H   0  0  0  0  0  0  0  0  0  0  0  0
   -3.9252   -0.9338   -1.9800 H   0  0  0  0  0  0  0  0  0  0  0  0
   -6.1381    1.0892   -1.3444 H   0  0  0  0  0  0  0  0  0  0  0  0
    4.7537   -0.3873   -3.3216 H   0  0  0  0  0  0  0  0  0  0  0  0
    4.1191   -1.9747   -2.8476 H   0  0  0  0  0  0  0  0  0  0  0  0
   -6.2883   -1.9298   -0.8359 H   0  0  0  0  0  0  0  0  0  0  0  0
   -5.9371    0.2825    1.2830 H   0  0  0  0  0  0  0  0  0  0  0  0
    0.7161    0.2339    3.0104 H   0  0  0  0  0  0  0  0  0  0  0  0
   -1.6571    3.1602    1.8249 H   0  0  0  0  0  0  0  0  0  0  0  0
    4.0997   -0.5868    2.1152 H   0  0  0  0  0  0  0  0  0  0  0  0
    6.7979   -0.9973   -2.0260 H   0  0  0  0  0  0  0  0  0  0  0  0
   -7.3292   -1.6478    2.0518 H   0  0  0  0  0  0  0  0  0  0  0  0
   -6.0342   -2.7673    1.5645 H   0  0  0  0  0  0  0  0  0  0  0  0
   -2.7630    1.0130   -2.2111 H   0  0  0  0  0  0  0  0  0  0  0  0
   -5.9695   -1.2149   -2.9941 H   0  0  0  0  0  0  0  0  0  0  0  0
    0.0465   -2.7009    2.4598 H   0  0  0  0  0  0  0  0  0  0  0  0
    0.8131   -1.9513    3.9790 H   0  0  0  0  0  0  0  0  0  0  0  0
   -8.1883   -0.7298   -1.2621 H   0  0  0  0  0  0  0  0  0  0  0  0
   -1.0547   -1.3581   -2.7630 H   0  0  0  0  0  0  0  0  0  0  0  0
    0.1001   -0.0668   -3.0971 H   0  0  0  0  0  0  0  0  0  0  0  0
    0.3420   -1.6953   -3.8101 H   0  0  0  0  0  0  0  0  0  0  0  0
   -4.6353   -1.6122    2.9603 H   0  0  0  0  0  0  0  0  0  0  0  0
    7.6368   -0.7623    2.3742 H   0  0  0  0  0  0  0  0  0  0  0  0
    8.5503   -1.0052   -0.7118 H   0  0  0  0  0  0  0  0  0  0  0  0
    2.6828    4.7477   -0.4728 H   0  0  0  0  0  0  0  0  0  0  0  0
    1.2155    5.2672   -1.3777 H   0  0  0  0  0  0  0  0  0  0  0  0
    2.4179    4.2053   -2.1450 H   0  0  0  0  0  0  0  0  0  0  0  0
  1 18  1  0  0  0  0
  1 21  1  0  0  0  0
  2 18  1  0  0  0  0
  2 30  1  0  0  0  0
  3 21  1  0  0  0  0
  3 28  1  0  0  0  0
  4 23  1  0  0  0  0
  4 62  1  0  0  0  0
  5 24  1  0  0  0  0
  5 63  1  0  0  0  0
  6 27  1  0  0  0  0
  6 66  1  0  0  0  0
  7 34  1  0  0  0  0
  7 40  1  0  0  0  0
  8 35  1  0  0  0  0
  8 70  1  0  0  0  0
  9 32  2  0  0  0  0
 10 34  2  0  0  0  0
 11 36  1  0  0  0  0
 11 71  1  0  0  0  0
 12 37  1  0  0  0  0
 12 72  1  0  0  0  0
 13 16  1  0  0  0  0
 13 22  1  0  0  0  0
 13 32  1  0  0  0  0
 14 15  1  0  0  0  0
 14 17  1  0  0  0  0
 14 20  1  0  0  0  0
 14 41  1  0  0  0  0
 15 16  1  0  0  0  0
 15 42  1  0  0  0  0
 15 43  1  0  0  0  0
 16 19  1  0  0  0  0
 16 44  1  0  0  0  0
 17 18  1  0  0  0  0
 17 29  1  0  0  0  0
 17 45  1  0  0  0  0
 18 46  1  0  0  0  0
 19 25  1  0  0  0  0
 19 31  2  0  0  0  0
 20 30  2  0  0  0  0
 20 34  1  0  0  0  0
 21 23  1  0  0  0  0
 21 47  1  0  0  0  0
 22 26  1  0  0  0  0
 22 48  1  0  0  0  0
 22 49  1  0  0  0  0
 23 24  1  0  0  0  0
 23 50  1  0  0  0  0
 24 27  1  0  0  0  0
 24 51  1  0  0  0  0
 25 26  1  0  0  0  0
 25 33  2  0  0  0  0
 26 52  1  0  0  0  0
 26 53  1  0  0  0  0
 27 28  1  0  0  0  0
 27 54  1  0  0  0  0
 28 35  1  0  0  0  0
 28 55  1  0  0  0  0
 29 38  2  0  0  0  0
 29 56  1  0  0  0  0
 30 57  1  0  0  0  0
 31 36  1  0  0  0  0
 31 58  1  0  0  0  0
 32 39  1  0  0  0  0
 33 37  1  0  0  0  0
 33 59  1  0  0  0  0
 35 60  1  0  0  0  0
 35 61  1  0  0  0  0
 36 37  2  0  0  0  0
 38 64  1  0  0  0  0
 38 65  1  0  0  0  0
 39 67  1  0  0  0  0
 39 68  1  0  0  0  0
 39 69  1  0  0  0  0
 40 73  1  0  0  0  0
 40 74  1  0  0  0  0
 40 75  1  0  0  0  0
M  END
> <PUBCHEM_COMPOUND_CID>
442249

> <PUBCHEM_CONFORMER_RMSD>
1.2

> <PUBCHEM_CONFORMER_DIVERSEORDER>
1
2
4
6
5
3

> <PUBCHEM_MMFF94_PARTIAL_CHARGES>
51
1 -0.56
10 -0.57
11 -0.53
12 -0.53
13 -0.66
14 0.14
16 0.44
17 0.14
18 0.56
19 -0.14
2 -0.36
20 -0.12
21 0.56
22 0.3
23 0.28
24 0.28
25 -0.14
26 0.14
27 0.28
28 0.28
29 -0.29
3 -0.56
30 -0.07
31 -0.15
32 0.57
33 -0.15
34 0.71
35 0.28
36 0.08
37 0.08
38 -0.3
39 0.06
4 -0.68
40 0.28
5 -0.68
56 0.15
57 0.15
58 0.15
59 0.15
6 -0.68
62 0.4
63 0.4
64 0.15
65 0.15
66 0.4
7 -0.43
70 0.4
71 0.45
72 0.45
8 -0.68
9 -0.57

> <PUBCHEM_EFFECTIVE_ROTOR_COUNT>
11.8

> <PUBCHEM_PHARMACOPHORE_FEATURES>
20
1 1 acceptor
1 10 acceptor
1 11 donor
1 12 donor
1 2 acceptor
1 3 acceptor
1 38 hydrophobe
1 4 acceptor
1 4 donor
1 5 acceptor
1 5 donor
1 6 acceptor
1 6 donor
1 8 acceptor
1 8 donor
1 9 acceptor
6 13 16 19 22 25 26 rings
6 19 25 31 33 36 37 rings
6 2 14 17 18 20 30 rings
6 3 21 23 24 27 28 rings

> <PUBCHEM_HEAVY_ATOM_COUNT>
40

> <PUBCHEM_ATOM_DEF_STEREO_COUNT>
9

> <PUBCHEM_ATOM_UDEF_STEREO_COUNT>
0

> <PUBCHEM_BOND_DEF_STEREO_COUNT>
0

> <PUBCHEM_BOND_UDEF_STEREO_COUNT>
0

> <PUBCHEM_ISOTOPIC_ATOM_COUNT>
0

> <PUBCHEM_COMPONENT_COUNT>
1

> <PUBCHEM_CACTVS_TAUTO_COUNT>
18

> <PUBCHEM_CONFORMER_ID>
0006BF8900000001

> <PUBCHEM_MMFF94_ENERGY>
123.1113

> <PUBCHEM_FEATURE_SELFOVERLAP>
101.614

> <PUBCHEM_SHAPE_FINGERPRINT>
102385 1 17760372084850850878
10930396 42 18265077807289257936
11578080 2 17058641864487932484
12107698 1 18411702084567281453
12166972 35 17632289065093121668
12422481 6 16951108690925174133
13782708 43 17988073375647467411
13811026 1 18410860957792192096
14068700 675 17632300112076243220
14394314 77 15936404559573598371
14840074 17 17603587425992768142
14849402 71 15502669134906665787
15021287 119 18114172026573179409
15183329 4 15339119056934289946
15297060 5 16988287568922896325
15775530 1 17554025655233722106
15840311 113 16154247534467993195
16992727 255 17701830010012182765
1813 80 18114172056078852389
24771293 8 17531247236450802400
25019877 29 16443066106100716484
25223398 141 16772937113795267483
2838139 119 14764341643831889999
3633792 109 17203047495511268946
392239 28 16009026220087639042
404807 14 16122490516016495794
4066623 53 18060143132511129773
4258327 124 18041559110717969712
469060 322 18335136553011368700
613672 6 18335973233703995854
6669772 16 18056477249127007040
6823239 73 17560523898541784213

> <PUBCHEM_SHAPE_MULTIPOLES>
747.77
17.51
3.11
3.03
4.59
5.66
0.06
-10.97
-0.42
-1.05
-0.06
1.04
-1.3
0.77

> <PUBCHEM_SHAPE_SELFOVERLAP>
1588.271

> <PUBCHEM_SHAPE_VOLUME>
408.4

> <PUBCHEM_COORDINATE_TYPE>
2
5
10

$$$$

