17396474
  -OEChem-06241222562D

 63 66  0     1  0  0  0  0  0999 V2000
    9.1643   -1.0818    0.0000 O   0  0  0  0  0  0  0  0  0  0  0  0
    7.4323    0.9182    0.0000 N   0  0  0  0  0  0  0  0  0  0  0  0
    4.9836    2.7546    0.0000 N   0  0  0  0  0  0  0  0  0  0  0  0
    5.4836    3.6206    0.0000 N   0  0  0  0  0  0  0  0  0  0  0  0
    7.4323   -1.0818    0.0000 N   0  0  0  0  0  0  0  0  0  0  0  0
    6.5662    2.4182    0.0000 C   0  0  0  0  0  0  0  0  0  0  0  0
    7.4323    1.9182    0.0000 C   0  0  0  0  0  0  0  0  0  0  0  0
    8.2983    0.4182    0.0000 C   0  0  3  0  0  0  0  0  0  0  0  0
    5.6527    2.0114    0.0000 C   0  0  0  0  0  0  0  0  0  0  0  0
    6.4617    3.4127    0.0000 C   0  0  0  0  0  0  0  0  0  0  0  0
    9.1643    0.9182    0.0000 C   0  0  0  0  0  0  0  0  0  0  0  0
    8.2983   -0.5818    0.0000 C   0  0  0  0  0  0  0  0  0  0  0  0
    5.4448    1.0333    0.0000 C   0  0  0  0  0  0  0  0  0  0  0  0
    3.9890    2.6500    0.0000 C   0  0  0  0  0  0  0  0  0  0  0  0
    7.2049    4.0818    0.0000 C   0  0  0  0  0  0  0  0  0  0  0  0
   10.0303    0.4182    0.0000 C   0  0  0  0  0  0  0  0  0  0  0  0
    9.1643    1.9182    0.0000 C   0  0  0  0  0  0  0  0  0  0  0  0
    7.4323   -2.0818    0.0000 C   0  0  0  0  0  0  0  0  0  0  0  0
    6.5662   -2.5818    0.0000 C   0  0  0  0  0  0  0  0  0  0  0  0
    3.4013    3.4591    0.0000 C   0  0  0  0  0  0  0  0  0  0  0  0
    3.5823    1.7365    0.0000 C   0  0  0  0  0  0  0  0  0  0  0  0
    8.2983   -2.5818    0.0000 C   0  0  0  0  0  0  0  0  0  0  0  0
   10.8964    0.9182    0.0000 C   0  0  0  0  0  0  0  0  0  0  0  0
   10.0303    2.4182    0.0000 C   0  0  0  0  0  0  0  0  0  0  0  0
    8.2983   -3.5818    0.0000 C   0  0  0  0  0  0  0  0  0  0  0  0
   10.8964    1.9182    0.0000 C   0  0  0  0  0  0  0  0  0  0  0  0
    6.5662   -3.5818    0.0000 C   0  0  0  0  0  0  0  0  0  0  0  0
    7.4323   -4.0818    0.0000 C   0  0  0  0  0  0  0  0  0  0  0  0
    2.4067    3.3545    0.0000 C   0  0  0  0  0  0  0  0  0  0  0  0
    2.5878    1.6320    0.0000 C   0  0  0  0  0  0  0  0  0  0  0  0
    5.7002   -2.0818    0.0000 C   0  0  0  0  0  0  0  0  0  0  0  0
    2.0000    2.4410    0.0000 C   0  0  0  0  0  0  0  0  0  0  0  0
    9.1643   -4.0818    0.0000 C   0  0  0  0  0  0  0  0  0  0  0  0
    8.0428    1.8105    0.0000 H   0  0  0  0  0  0  0  0  0  0  0  0
    7.6443    2.5008    0.0000 H   0  0  0  0  0  0  0  0  0  0  0  0
    7.7614    0.1082    0.0000 H   0  0  0  0  0  0  0  0  0  0  0  0
    6.8953    0.6082    0.0000 H   0  0  0  0  0  0  0  0  0  0  0  0
    4.8383    1.1622    0.0000 H   0  0  0  0  0  0  0  0  0  0  0  0
    5.3159    0.4268    0.0000 H   0  0  0  0  0  0  0  0  0  0  0  0
    6.0512    0.9044    0.0000 H   0  0  0  0  0  0  0  0  0  0  0  0
    7.6197    3.6211    0.0000 H   0  0  0  0  0  0  0  0  0  0  0  0
    7.6656    4.4967    0.0000 H   0  0  0  0  0  0  0  0  0  0  0  0
    6.7900    4.5426    0.0000 H   0  0  0  0  0  0  0  0  0  0  0  0
    6.8953   -0.7718    0.0000 H   0  0  0  0  0  0  0  0  0  0  0  0
   10.0303   -0.2018    0.0000 H   0  0  0  0  0  0  0  0  0  0  0  0
    8.6274    2.2282    0.0000 H   0  0  0  0  0  0  0  0  0  0  0  0
    3.6534    4.0255    0.0000 H   0  0  0  0  0  0  0  0  0  0  0  0
    3.9467    1.2349    0.0000 H   0  0  0  0  0  0  0  0  0  0  0  0
    8.8352   -2.2718    0.0000 H   0  0  0  0  0  0  0  0  0  0  0  0
   11.4333    0.6082    0.0000 H   0  0  0  0  0  0  0  0  0  0  0  0
   10.0303    3.0382    0.0000 H   0  0  0  0  0  0  0  0  0  0  0  0
   11.4333    2.2282    0.0000 H   0  0  0  0  0  0  0  0  0  0  0  0
    6.0293   -3.8918    0.0000 H   0  0  0  0  0  0  0  0  0  0  0  0
    7.4323   -4.7018    0.0000 H   0  0  0  0  0  0  0  0  0  0  0  0
    2.0423    3.8561    0.0000 H   0  0  0  0  0  0  0  0  0  0  0  0
    2.3356    1.0656    0.0000 H   0  0  0  0  0  0  0  0  0  0  0  0
    6.0102   -1.5449    0.0000 H   0  0  0  0  0  0  0  0  0  0  0  0
    5.1633   -1.7718    0.0000 H   0  0  0  0  0  0  0  0  0  0  0  0
    5.3902   -2.6188    0.0000 H   0  0  0  0  0  0  0  0  0  0  0  0
    1.3834    2.3762    0.0000 H   0  0  0  0  0  0  0  0  0  0  0  0
    8.8543   -4.6188    0.0000 H   0  0  0  0  0  0  0  0  0  0  0  0
    9.7012   -4.3918    0.0000 H   0  0  0  0  0  0  0  0  0  0  0  0
    9.4743   -3.5449    0.0000 H   0  0  0  0  0  0  0  0  0  0  0  0
  1 12  2  0  0  0  0
  2  7  1  0  0  0  0
  2  8  1  0  0  0  0
  2 37  1  0  0  0  0
  3  4  1  0  0  0  0
  3  9  1  0  0  0  0
  3 14  1  0  0  0  0
  4 10  2  0  0  0  0
  5 12  1  0  0  0  0
  5 18  1  0  0  0  0
  5 44  1  0  0  0  0
  6  7  1  0  0  0  0
  6  9  2  0  0  0  0
  6 10  1  0  0  0  0
  7 34  1  0  0  0  0
  7 35  1  0  0  0  0
  8 11  1  0  0  0  0
  8 12  1  0  0  0  0
  8 36  1  0  0  0  0
  9 13  1  0  0  0  0
 10 15  1  0  0  0  0
 11 16  2  0  0  0  0
 11 17  1  0  0  0  0
 13 38  1  0  0  0  0
 13 39  1  0  0  0  0
 13 40  1  0  0  0  0
 14 20  2  0  0  0  0
 14 21  1  0  0  0  0
 15 41  1  0  0  0  0
 15 42  1  0  0  0  0
 15 43  1  0  0  0  0
 16 23  1  0  0  0  0
 16 45  1  0  0  0  0
 17 24  2  0  0  0  0
 17 46  1  0  0  0  0
 18 19  2  0  0  0  0
 18 22  1  0  0  0  0
 19 27  1  0  0  0  0
 19 31  1  0  0  0  0
 20 29  1  0  0  0  0
 20 47  1  0  0  0  0
 21 30  2  0  0  0  0
 21 48  1  0  0  0  0
 22 25  2  0  0  0  0
 22 49  1  0  0  0  0
 23 26  2  0  0  0  0
 23 50  1  0  0  0  0
 24 26  1  0  0  0  0
 24 51  1  0  0  0  0
 25 28  1  0  0  0  0
 25 33  1  0  0  0  0
 26 52  1  0  0  0  0
 27 28  2  0  0  0  0
 27 53  1  0  0  0  0
 28 54  1  0  0  0  0
 29 32  2  0  0  0  0
 29 55  1  0  0  0  0
 30 32  1  0  0  0  0
 30 56  1  0  0  0  0
 31 57  1  0  0  0  0
 31 58  1  0  0  0  0
 31 59  1  0  0  0  0
 32 60  1  0  0  0  0
 33 61  1  0  0  0  0
 33 62  1  0  0  0  0
 33 63  1  0  0  0  0
M  END
> <PUBCHEM_COMPOUND_CID>
17396474

> <PUBCHEM_COMPOUND_CANONICALIZED>
1

> <PUBCHEM_CACTVS_COMPLEXITY>
615

> <PUBCHEM_CACTVS_HBOND_ACCEPTOR>
3

> <PUBCHEM_CACTVS_HBOND_DONOR>
2

> <PUBCHEM_CACTVS_ROTATABLE_BOND>
7

> <PUBCHEM_CACTVS_SUBSKEYS>
AAADceB7oAAAAAAAAAAAAAAAAAAAAWAAAAAwYMAAAAAAAAAB1AAAHgAYAAAADCjBngQywJLIAACqAyVyVACSBCAhAgAYmKG4ZJgIYHLA1fGUpAhgnADIyAcYiICOQAAAQAACAACAAACAAAQAAAAAAAAAAA==

> <PUBCHEM_IUPAC_OPENEYE_NAME>
N-(2,5-dimethylphenyl)-2-[(3,5-dimethyl-1-phenyl-pyrazol-4-yl)methylamino]-2-phenyl-acetamide

> <PUBCHEM_IUPAC_CAS_NAME>
N-(2,5-dimethylphenyl)-2-[(3,5-dimethyl-1-phenyl-4-pyrazolyl)methylamino]-2-phenylacetamide

> <PUBCHEM_IUPAC_NAME>
N-(2,5-dimethylphenyl)-2-[(3,5-dimethyl-1-phenylpyrazol-4-yl)methylamino]-2-phenylacetamide

> <PUBCHEM_IUPAC_SYSTEMATIC_NAME>
N-(2,5-dimethylphenyl)-2-[(3,5-dimethyl-1-phenyl-pyrazol-4-yl)methylamino]-2-phenyl-ethanamide

> <PUBCHEM_IUPAC_TRADITIONAL_NAME>
N-(2,5-dimethylphenyl)-2-[(3,5-dimethyl-1-phenyl-pyrazol-4-yl)methylamino]-2-phenyl-acetamide

> <PUBCHEM_IUPAC_INCHI>
InChI=1S/C28H30N4O/c1-19-15-16-20(2)26(17-19)30-28(33)27(23-11-7-5-8-12-23)29-18-25-21(3)31-32(22(25)4)24-13-9-6-10-14-24/h5-17,27,29H,18H2,1-4H3,(H,30,33)

> <PUBCHEM_IUPAC_INCHIKEY>
LSEXZDZHXHMVDI-UHFFFAOYSA-N

> <PUBCHEM_XLOGP3_AA>
5.4

> <PUBCHEM_EXACT_MASS>
438.241962

> <PUBCHEM_MOLECULAR_FORMULA>
C28H30N4O

> <PUBCHEM_MOLECULAR_WEIGHT>
438.564

> <PUBCHEM_OPENEYE_CAN_SMILES>
CC1=CC(=C(C=C1)C)NC(=O)C(C2=CC=CC=C2)NCC3=C(N(N=C3C)C4=CC=CC=C4)C

> <PUBCHEM_OPENEYE_ISO_SMILES>
CC1=CC(=C(C=C1)C)NC(=O)C(C2=CC=CC=C2)NCC3=C(N(N=C3C)C4=CC=CC=C4)C

> <PUBCHEM_CACTVS_TPSA>
59

> <PUBCHEM_MONOISOTOPIC_WEIGHT>
438.241962

> <PUBCHEM_TOTAL_CHARGE>
0

> <PUBCHEM_HEAVY_ATOM_COUNT>
33

> <PUBCHEM_ATOM_DEF_STEREO_COUNT>
0

> <PUBCHEM_ATOM_UDEF_STEREO_COUNT>
1

> <PUBCHEM_BOND_DEF_STEREO_COUNT>
0

> <PUBCHEM_BOND_UDEF_STEREO_COUNT>
0

> <PUBCHEM_ISOTOPIC_ATOM_COUNT>
0

> <PUBCHEM_COMPONENT_COUNT>
1

> <PUBCHEM_CACTVS_TAUTO_COUNT>
3

> <PUBCHEM_COORDINATE_TYPE>
1
5
255

> <PUBCHEM_BONDANNOTATIONS>
11  16  8
11  17  8
14  20  8
14  21  8
16  23  8
17  24  8
18  19  8
18  22  8
19  27  8
20  29  8
21  30  8
22  25  8
23  26  8
24  26  8
25  28  8
27  28  8
29  32  8
3  4  8
3  9  8
30  32  8
4  10  8
6  10  8
6  9  8
8  12  3

$$$$

