586169
  -OEChem-06241222453D

 36 36  0     0  0  0  0  0  0999 V2000
   -1.6506    0.5925    0.9821 O   0  0  0  0  0  0  0  0  0  0  0  0
    3.6561    0.5271    1.3048 O   0  0  0  0  0  0  0  0  0  0  0  0
   -0.9748   -1.6167    0.3286 C   0  0  0  0  0  0  0  0  0  0  0  0
   -1.3461   -0.1617   -0.0637 C   0  0  0  0  0  0  0  0  0  0  0  0
    0.4515   -1.9820   -0.1928 C   0  0  0  0  0  0  0  0  0  0  0  0
   -1.0378   -1.8734    1.8538 C   0  0  0  0  0  0  0  0  0  0  0  0
   -1.9950   -2.5897   -0.3153 C   0  0  0  0  0  0  0  0  0  0  0  0
   -1.4054    0.4249   -1.2456 C   0  0  0  0  0  0  0  0  0  0  0  0
    1.5599   -1.1012    0.3249 C   0  0  0  0  0  0  0  0  0  0  0  0
   -1.8036    1.7482   -0.9395 C   0  0  0  0  0  0  0  0  0  0  0  0
   -1.9395    1.7993    0.4282 C   0  0  0  0  0  0  0  0  0  0  0  0
   -1.1329   -0.1269   -2.5856 C   0  0  0  0  0  0  0  0  0  0  0  0
   -2.3237    2.8674    1.3614 C   0  0  0  0  0  0  0  0  0  0  0  0
    2.3281   -0.3445   -0.4702 C   0  0  0  0  0  0  0  0  0  0  0  0
    3.4070    0.5063    0.1017 C   0  0  0  0  0  0  0  0  0  0  0  0
    4.2067    1.3301   -0.8729 C   0  0  0  0  0  0  0  0  0  0  0  0
    0.6881   -3.0115    0.1103 H   0  0  0  0  0  0  0  0  0  0  0  0
    0.4661   -2.0023   -1.2880 H   0  0  0  0  0  0  0  0  0  0  0  0
   -0.3897   -1.1895    2.4125 H   0  0  0  0  0  0  0  0  0  0  0  0
   -0.7339   -2.8972    2.1001 H   0  0  0  0  0  0  0  0  0  0  0  0
   -2.0564   -1.7310    2.2349 H   0  0  0  0  0  0  0  0  0  0  0  0
   -3.0236   -2.3146   -0.0542 H   0  0  0  0  0  0  0  0  0  0  0  0
   -1.8269   -3.6176    0.0273 H   0  0  0  0  0  0  0  0  0  0  0  0
   -1.9232   -2.6078   -1.4057 H   0  0  0  0  0  0  0  0  0  0  0  0
    1.7322   -1.1153    1.3975 H   0  0  0  0  0  0  0  0  0  0  0  0
   -1.9714    2.5641   -1.6287 H   0  0  0  0  0  0  0  0  0  0  0  0
   -1.7680   -0.9868   -2.8095 H   0  0  0  0  0  0  0  0  0  0  0  0
   -1.3384    0.6237   -3.3576 H   0  0  0  0  0  0  0  0  0  0  0  0
   -0.0848   -0.4134   -2.6985 H   0  0  0  0  0  0  0  0  0  0  0  0
   -3.2199    2.5842    1.9220 H   0  0  0  0  0  0  0  0  0  0  0  0
   -1.5177    3.0618    2.0758 H   0  0  0  0  0  0  0  0  0  0  0  0
   -2.5370    3.7996    0.8292 H   0  0  0  0  0  0  0  0  0  0  0  0
    2.1833   -0.3247   -1.5442 H   0  0  0  0  0  0  0  0  0  0  0  0
    5.1618    0.8354   -1.0658 H   0  0  0  0  0  0  0  0  0  0  0  0
    3.6695    1.4610   -1.8162 H   0  0  0  0  0  0  0  0  0  0  0  0
    4.3799    2.3222   -0.4462 H   0  0  0  0  0  0  0  0  0  0  0  0
  1  4  1  0  0  0  0
  1 11  1  0  0  0  0
  2 15  2  0  0  0  0
  3  4  1  0  0  0  0
  3  5  1  0  0  0  0
  3  6  1  0  0  0  0
  3  7  1  0  0  0  0
  4  8  2  0  0  0  0
  5  9  1  0  0  0  0
  5 17  1  0  0  0  0
  5 18  1  0  0  0  0
  6 19  1  0  0  0  0
  6 20  1  0  0  0  0
  6 21  1  0  0  0  0
  7 22  1  0  0  0  0
  7 23  1  0  0  0  0
  7 24  1  0  0  0  0
  8 10  1  0  0  0  0
  8 12  1  0  0  0  0
  9 14  2  0  0  0  0
  9 25  1  0  0  0  0
 10 11  2  0  0  0  0
 10 26  1  0  0  0  0
 11 13  1  0  0  0  0
 12 27  1  0  0  0  0
 12 28  1  0  0  0  0
 12 29  1  0  0  0  0
 13 30  1  0  0  0  0
 13 31  1  0  0  0  0
 13 32  1  0  0  0  0
 14 15  1  0  0  0  0
 14 33  1  0  0  0  0
 15 16  1  0  0  0  0
 16 34  1  0  0  0  0
 16 35  1  0  0  0  0
 16 36  1  0  0  0  0
M  END
> <PUBCHEM_COMPOUND_CID>
586169

> <PUBCHEM_CONFORMER_RMSD>
0.6

> <PUBCHEM_CONFORMER_DIVERSEORDER>
1
8
74
72
43
41
48
39
76
49
29
35
23
47
65
44
46
19
32
69
75
12
77
16
27
13
30
73
40
36
22
25
54
5
15
53
14
7
78
34
56
68
45
51
4
61
62
6
26
38
79
66
57
17
55
71
52
50
10
58
33
70
63
64
42
28
59
31
20
67
18
37
2
60
21
3
24
9
11

> <PUBCHEM_MMFF94_PARTIAL_CHARGES>
17
1 -0.28
10 -0.15
11 -0.04
12 0.18
13 0.18
14 -0.14
15 0.49
16 0.06
2 -0.57
25 0.15
26 0.15
3 0.18
33 0.15
4 -0.04
5 0.14
8 -0.18
9 -0.29

> <PUBCHEM_EFFECTIVE_ROTOR_COUNT>
4

> <PUBCHEM_PHARMACOPHORE_FEATURES>
4
1 1 acceptor
1 2 acceptor
3 3 6 7 hydrophobe
5 1 4 8 10 11 rings

> <PUBCHEM_HEAVY_ATOM_COUNT>
16

> <PUBCHEM_ATOM_DEF_STEREO_COUNT>
0

> <PUBCHEM_ATOM_UDEF_STEREO_COUNT>
0

> <PUBCHEM_BOND_DEF_STEREO_COUNT>
0

> <PUBCHEM_BOND_UDEF_STEREO_COUNT>
1

> <PUBCHEM_ISOTOPIC_ATOM_COUNT>
0

> <PUBCHEM_COMPONENT_COUNT>
1

> <PUBCHEM_CACTVS_TAUTO_COUNT>
5

> <PUBCHEM_CONFORMER_ID>
0008F1B900000001

> <PUBCHEM_MMFF94_ENERGY>
28.2596

> <PUBCHEM_FEATURE_SELFOVERLAP>
20.297

> <PUBCHEM_SHAPE_FINGERPRINT>
12173636 292 18334015016300382630
13024252 1 12679191500480742535
13764800 53 18411130325408673480
14142880 1 18343582914930117517
14614273 12 17988652877840435638
14787075 74 18411421696522881305
14817 1 9288817400202853111
15534591 1 18114463477993890745
15848702 68 16681463625446966752
16945 1 18335697239469408755
17357990 137 17102288412517409865
19765921 60 17980796957796791045
19837323 101 18187374254363493415
20510252 161 18270118981486047234
20539784 86 17188668279663407585
20600515 1 17272272562306310347
21339142 36 18119826711025606247
21524375 3 18268149949043806210
2306618 200 17988096495128964502
23419403 2 17547602300083649839
23557571 272 18264761065555812214
27216 239 18339636750929513104
298252 57 17097219565182018013
31174 14 17192337337154364169
430814 3 17973446799753089801
81228 2 18130773530427881563

> <PUBCHEM_SHAPE_MULTIPOLES>
317.53
5.29
2.89
1.76
8.17
0.02
-0.54
3.12
0.38
-2.35
0.89
-0.8
0.17
-0.53

> <PUBCHEM_SHAPE_SELFOVERLAP>
645.011

> <PUBCHEM_SHAPE_VOLUME>
188.5

> <PUBCHEM_COORDINATE_TYPE>
2
5
10

$$$$

