5282256
  -OEChem-07051213043D

 57 56  0     0  0  0  0  0  0999 V2000
    2.9459    2.7734   -0.5939 O   0  0  0  0  0  0  0  0  0  0  0  0
    1.7847    3.2113    1.3070 O   0  0  0  0  0  0  0  0  0  0  0  0
    1.4353   -2.0810   -0.3311 C   0  0  0  0  0  0  0  0  0  0  0  0
    0.1446   -1.7377    0.4156 C   0  0  0  0  0  0  0  0  0  0  0  0
    2.6960   -1.5436    0.3527 C   0  0  0  0  0  0  0  0  0  0  0  0
   -1.0868   -2.2186   -0.3573 C   0  0  0  0  0  0  0  0  0  0  0  0
    4.0183   -1.8179   -0.3742 C   0  0  0  0  0  0  0  0  0  0  0  0
   -2.3760   -1.9032    0.4045 C   0  0  0  0  0  0  0  0  0  0  0  0
    5.2791   -1.2264    0.2836 C   0  0  0  0  0  0  0  0  0  0  0  0
   -3.6449   -2.3436   -0.3328 C   0  0  0  0  0  0  0  0  0  0  0  0
   -4.9319   -2.0472    0.4444 C   0  0  0  0  0  0  0  0  0  0  0  0
    6.5565   -1.5941   -0.4720 C   0  0  0  0  0  0  0  0  0  0  0  0
    5.1502    0.2970    0.3703 C   0  0  0  0  0  0  0  0  0  0  0  0
   -5.0975   -0.5660    0.8020 C   0  0  0  0  0  0  0  0  0  0  0  0
   -5.1694    0.3318   -0.3993 C   0  0  0  0  0  0  0  0  0  0  0  0
   -3.2085    1.8815    0.1114 C   0  0  0  0  0  0  0  0  0  0  0  0
   -1.8754    1.8003   -0.6413 C   0  0  0  0  0  0  0  0  0  0  0  0
   -4.3722    1.3715   -0.6894 C   0  0  0  0  0  0  0  0  0  0  0  0
   -0.6888    2.3528    0.1589 C   0  0  0  0  0  0  0  0  0  0  0  0
    0.6267    2.2661   -0.6169 C   0  0  0  0  0  0  0  0  0  0  0  0
    1.8139    2.7936    0.1578 C   0  0  0  0  0  0  0  0  0  0  0  0
    1.3846   -1.6698   -1.3470 H   0  0  0  0  0  0  0  0  0  0  0  0
    1.5192   -3.1697   -0.4340 H   0  0  0  0  0  0  0  0  0  0  0  0
    0.0831   -0.6555    0.5711 H   0  0  0  0  0  0  0  0  0  0  0  0
    0.1651   -2.2037    1.4081 H   0  0  0  0  0  0  0  0  0  0  0  0
    2.7579   -1.9618    1.3651 H   0  0  0  0  0  0  0  0  0  0  0  0
    2.5624   -0.4629    0.4705 H   0  0  0  0  0  0  0  0  0  0  0  0
   -1.1153   -1.7376   -1.3423 H   0  0  0  0  0  0  0  0  0  0  0  0
   -1.0184   -3.2999   -0.5267 H   0  0  0  0  0  0  0  0  0  0  0  0
    3.9381   -1.4404   -1.4021 H   0  0  0  0  0  0  0  0  0  0  0  0
    4.1441   -2.9051   -0.4584 H   0  0  0  0  0  0  0  0  0  0  0  0
   -2.4006   -0.8320    0.6077 H   0  0  0  0  0  0  0  0  0  0  0  0
   -2.3443   -2.4034    1.3808 H   0  0  0  0  0  0  0  0  0  0  0  0
    5.3626   -1.6243    1.3027 H   0  0  0  0  0  0  0  0  0  0  0  0
   -3.5945   -3.4234   -0.5200 H   0  0  0  0  0  0  0  0  0  0  0  0
   -3.6818   -1.8621   -1.3171 H   0  0  0  0  0  0  0  0  0  0  0  0
   -5.7903   -2.3836   -0.1503 H   0  0  0  0  0  0  0  0  0  0  0  0
   -4.9405   -2.6368    1.3693 H   0  0  0  0  0  0  0  0  0  0  0  0
    7.4399   -1.1878    0.0318 H   0  0  0  0  0  0  0  0  0  0  0  0
    6.6724   -2.6815   -0.5266 H   0  0  0  0  0  0  0  0  0  0  0  0
    6.5382   -1.2039   -1.4952 H   0  0  0  0  0  0  0  0  0  0  0  0
    4.9445    0.7358   -0.6116 H   0  0  0  0  0  0  0  0  0  0  0  0
    6.0791    0.7409    0.7458 H   0  0  0  0  0  0  0  0  0  0  0  0
    4.3580    0.5988    1.0612 H   0  0  0  0  0  0  0  0  0  0  0  0
   -4.3296   -0.2624    1.5169 H   0  0  0  0  0  0  0  0  0  0  0  0
   -6.0471   -0.4581    1.3423 H   0  0  0  0  0  0  0  0  0  0  0  0
   -5.9735    0.1127   -1.1001 H   0  0  0  0  0  0  0  0  0  0  0  0
   -3.1109    1.3703    1.0724 H   0  0  0  0  0  0  0  0  0  0  0  0
   -3.4120    2.9322    0.3550 H   0  0  0  0  0  0  0  0  0  0  0  0
   -1.6706    0.7624   -0.9256 H   0  0  0  0  0  0  0  0  0  0  0  0
   -1.9595    2.3639   -1.5798 H   0  0  0  0  0  0  0  0  0  0  0  0
   -4.5837    1.9187   -1.6067 H   0  0  0  0  0  0  0  0  0  0  0  0
   -0.5958    1.7987    1.1012 H   0  0  0  0  0  0  0  0  0  0  0  0
   -0.8851    3.3976    0.4299 H   0  0  0  0  0  0  0  0  0  0  0  0
    0.5412    2.8514   -1.5396 H   0  0  0  0  0  0  0  0  0  0  0  0
    0.8344    1.2238   -0.8816 H   0  0  0  0  0  0  0  0  0  0  0  0
    3.7184    3.1228   -0.1003 H   0  0  0  0  0  0  0  0  0  0  0  0
  1 21  1  0  0  0  0
  1 57  1  0  0  0  0
  2 21  2  0  0  0  0
  3  4  1  0  0  0  0
  3  5  1  0  0  0  0
  3 22  1  0  0  0  0
  3 23  1  0  0  0  0
  4  6  1  0  0  0  0
  4 24  1  0  0  0  0
  4 25  1  0  0  0  0
  5  7  1  0  0  0  0
  5 26  1  0  0  0  0
  5 27  1  0  0  0  0
  6  8  1  0  0  0  0
  6 28  1  0  0  0  0
  6 29  1  0  0  0  0
  7  9  1  0  0  0  0
  7 30  1  0  0  0  0
  7 31  1  0  0  0  0
  8 10  1  0  0  0  0
  8 32  1  0  0  0  0
  8 33  1  0  0  0  0
  9 12  1  0  0  0  0
  9 13  1  0  0  0  0
  9 34  1  0  0  0  0
 10 11  1  0  0  0  0
 10 35  1  0  0  0  0
 10 36  1  0  0  0  0
 11 14  1  0  0  0  0
 11 37  1  0  0  0  0
 11 38  1  0  0  0  0
 12 39  1  0  0  0  0
 12 40  1  0  0  0  0
 12 41  1  0  0  0  0
 13 42  1  0  0  0  0
 13 43  1  0  0  0  0
 13 44  1  0  0  0  0
 14 15  1  0  0  0  0
 14 45  1  0  0  0  0
 14 46  1  0  0  0  0
 15 18  2  0  0  0  0
 15 47  1  0  0  0  0
 16 17  1  0  0  0  0
 16 18  1  0  0  0  0
 16 48  1  0  0  0  0
 16 49  1  0  0  0  0
 17 19  1  0  0  0  0
 17 50  1  0  0  0  0
 17 51  1  0  0  0  0
 18 52  1  0  0  0  0
 19 20  1  0  0  0  0
 19 53  1  0  0  0  0
 19 54  1  0  0  0  0
 20 21  1  0  0  0  0
 20 55  1  0  0  0  0
 20 56  1  0  0  0  0
M  END
> <PUBCHEM_COMPOUND_CID>
5282256

> <PUBCHEM_CONFORMER_RMSD>
1.4

> <PUBCHEM_CONFORMER_DIVERSEORDER>
1
23
13
46
15
18
5
52
53
10
61
66
12
64
50
55
28
62
26
21
11
39
27
60
16
51
3
49
17
47
20
54
38
58
29
9
19
59
7
45
48
68
56
42
22
40
24
34
31
43
30
63
8
37
57
6
25
35
67
65
36
4
32
14
2
41
33
44

> <PUBCHEM_MMFF94_PARTIAL_CHARGES>
11
1 -0.65
14 0.14
15 -0.29
16 0.14
18 -0.29
2 -0.57
20 0.06
21 0.66
47 0.15
52 0.15
57 0.5

> <PUBCHEM_EFFECTIVE_ROTOR_COUNT>
15

> <PUBCHEM_PHARMACOPHORE_FEATURES>
5
1 1 acceptor
1 2 acceptor
3 1 2 21 anion
3 9 12 13 hydrophobe
5 16 17 18 19 20 hydrophobe

> <PUBCHEM_HEAVY_ATOM_COUNT>
21

> <PUBCHEM_ATOM_DEF_STEREO_COUNT>
0

> <PUBCHEM_ATOM_UDEF_STEREO_COUNT>
0

> <PUBCHEM_BOND_DEF_STEREO_COUNT>
1

> <PUBCHEM_BOND_UDEF_STEREO_COUNT>
0

> <PUBCHEM_ISOTOPIC_ATOM_COUNT>
0

> <PUBCHEM_COMPONENT_COUNT>
1

> <PUBCHEM_CACTVS_TAUTO_COUNT>
1

> <PUBCHEM_CONFORMER_ID>
005099D000000001

> <PUBCHEM_MMFF94_ENERGY>
6.2192

> <PUBCHEM_FEATURE_SELFOVERLAP>
25.43

> <PUBCHEM_SHAPE_FINGERPRINT>
10730089 173 18340485664037555358
10864689 126 18121785186247861924
1100329 8 18411136965243678449
12166972 35 17917987300610783742
13402501 40 18411139164235136082
14251751 18 18413669106115352460
14647877 51 18337955580296642544
18336668 15 18131626807184884052
20721686 56 18270116799922417795
21279426 13 18413111653756824724
23557571 272 18335695087838870054
23559900 14 18411427180959482025
3014063 31 18410854326605078724
338550 245 18271243820383143044
350125 39 18411979131031562277
6437827 68 18411981338713434740

> <PUBCHEM_SHAPE_MULTIPOLES>
420.43
13.61
4.31
0.86
8.03
2.41
0.06
-6.28
-0.12
0.43
0.14
-0.09
0.19
0.9

> <PUBCHEM_SHAPE_SELFOVERLAP>
774.593

> <PUBCHEM_SHAPE_VOLUME>
265.3

> <PUBCHEM_COORDINATE_TYPE>
2
5
10

$$$$

