442524
  -OEChem-07051212582D

 71 76  0     1  0  0  0  0  0999 V2000
    9.4804    3.3158    0.0000 O   0  0  0  0  0  0  0  0  0  0  0  0
    2.3121   -1.3022    0.0000 O   0  0  0  0  0  0  0  0  0  0  0  0
    5.9781    1.2225    0.0000 O   0  0  0  0  0  0  0  0  0  0  0  0
    7.7265    1.2571    0.0000 O   0  0  0  0  0  0  0  0  0  0  0  0
    4.2297    1.2571    0.0000 O   0  0  0  0  0  0  0  0  0  0  0  0
   13.0104    0.2633    0.0000 O   0  0  0  0  0  0  0  0  0  0  0  0
   11.2642   -2.8158    0.0000 O   0  0  0  0  0  0  0  0  0  0  0  0
    3.3121   -1.2983    0.0000 C   0  0  3  0  0  0  0  0  0  0  0  0
    9.5044    1.2467    0.0000 C   0  0  0  0  0  0  0  0  0  0  0  0
    4.2181   -1.8122    0.0000 C   0  0  0  0  0  0  0  0  0  0  0  0
    8.5924    1.7500    0.0000 C   0  0  0  0  0  0  0  0  0  0  0  0
   10.3685    1.7500    0.0000 C   0  0  0  0  0  0  0  0  0  0  0  0
    9.5082    0.2467    0.0000 C   0  0  0  0  0  0  0  0  0  0  0  0
    8.5804    2.7916    0.0000 C   0  0  3  0  0  0  0  0  0  0  0  0
   10.3805    2.7916    0.0000 C   0  0  3  0  0  0  0  0  0  0  0  0
    5.1121   -1.2775    0.0000 C   0  0  0  0  0  0  0  0  0  0  0  0
    3.3121   -0.2567    0.0000 C   0  0  0  0  0  0  0  0  0  0  0  0
    5.1121   -0.2775    0.0000 C   0  0  0  0  0  0  0  0  0  0  0  0
    8.6441   -0.2567    0.0000 C   0  0  0  0  0  0  0  0  0  0  0  0
   10.3762   -0.2500    0.0000 C   0  0  0  0  0  0  0  0  0  0  0  0
    6.8441   -0.2775    0.0000 C   0  0  0  0  0  0  0  0  0  0  0  0
    4.2181    0.2572    0.0000 C   0  0  0  0  0  0  0  0  0  0  0  0
    6.8441   -1.2775    0.0000 C   0  0  0  0  0  0  0  0  0  0  0  0
   11.2364    1.2533    0.0000 C   0  0  0  0  0  0  0  0  0  0  0  0
   11.2403    0.2533    0.0000 C   0  0  0  0  0  0  0  0  0  0  0  0
    5.9781    0.2225    0.0000 C   0  0  0  0  0  0  0  0  0  0  0  0
    5.9781   -1.7775    0.0000 C   0  0  0  0  0  0  0  0  0  0  0  0
    2.8154   -2.1662    0.0000 C   0  0  0  0  0  0  0  0  0  0  0  0
    7.7381    0.2572    0.0000 C   0  0  0  0  0  0  0  0  0  0  0  0
    7.7105    3.2849    0.0000 C   0  0  0  0  0  0  0  0  0  0  0  0
   11.2504    3.2849    0.0000 C   0  0  0  0  0  0  0  0  0  0  0  0
    8.6441   -1.2983    0.0000 C   0  0  0  0  0  0  0  0  0  0  0  0
    7.7381   -1.8122    0.0000 C   0  0  0  0  0  0  0  0  0  0  0  0
   10.3641   -1.2916    0.0000 C   0  0  0  0  0  0  0  0  0  0  0  0
   12.1522   -0.2500    0.0000 C   0  0  0  0  0  0  0  0  0  0  0  0
   11.2642   -1.8158    0.0000 C   0  0  0  0  0  0  0  0  0  0  0  0
   12.1643   -1.2916    0.0000 C   0  0  0  0  0  0  0  0  0  0  0  0
   13.8841   -0.2233    0.0000 C   0  0  0  0  0  0  0  0  0  0  0  0
   12.1302   -3.3158    0.0000 C   0  0  0  0  0  0  0  0  0  0  0  0
    3.8245   -2.2912    0.0000 H   0  0  0  0  0  0  0  0  0  0  0  0
    4.6227   -2.2819    0.0000 H   0  0  0  0  0  0  0  0  0  0  0  0
    7.9804    1.8490    0.0000 H   0  0  0  0  0  0  0  0  0  0  0  0
    8.3901    1.1639    0.0000 H   0  0  0  0  0  0  0  0  0  0  0  0
    8.5755    3.6415    0.0000 H   0  0  0  0  0  0  0  0  0  0  0  0
   10.3854    3.6415    0.0000 H   0  0  0  0  0  0  0  0  0  0  0  0
    3.1030    0.3270    0.0000 H   0  0  0  0  0  0  0  0  0  0  0  0
    2.7012   -0.3628    0.0000 H   0  0  0  0  0  0  0  0  0  0  0  0
   11.7721    1.5654    0.0000 H   0  0  0  0  0  0  0  0  0  0  0  0
    5.9781   -2.3975    0.0000 H   0  0  0  0  0  0  0  0  0  0  0  0
    2.2773   -1.8583    0.0000 H   0  0  0  0  0  0  0  0  0  0  0  0
    2.5075   -2.7044    0.0000 H   0  0  0  0  0  0  0  0  0  0  0  0
    3.3535   -2.4742    0.0000 H   0  0  0  0  0  0  0  0  0  0  0  0
    8.0164    3.8242    0.0000 H   0  0  0  0  0  0  0  0  0  0  0  0
    7.1712    3.5907    0.0000 H   0  0  0  0  0  0  0  0  0  0  0  0
    7.4047    2.7456    0.0000 H   0  0  0  0  0  0  0  0  0  0  0  0
   11.5562    2.7456    0.0000 H   0  0  0  0  0  0  0  0  0  0  0  0
   11.7897    3.5907    0.0000 H   0  0  0  0  0  0  0  0  0  0  0  0
   10.9445    3.8242    0.0000 H   0  0  0  0  0  0  0  0  0  0  0  0
    9.1799   -1.6104    0.0000 H   0  0  0  0  0  0  0  0  0  0  0  0
    7.7309   -2.4321    0.0000 H   0  0  0  0  0  0  0  0  0  0  0  0
    9.8248   -1.5974    0.0000 H   0  0  0  0  0  0  0  0  0  0  0  0
    2.0000   -0.7664    0.0000 H   0  0  0  0  0  0  0  0  0  0  0  0
   12.7036   -1.5974    0.0000 H   0  0  0  0  0  0  0  0  0  0  0  0
    5.4412    1.5325    0.0000 H   0  0  0  0  0  0  0  0  0  0  0  0
    7.1860    1.5609    0.0000 H   0  0  0  0  0  0  0  0  0  0  0  0
   13.5824   -0.7649    0.0000 H   0  0  0  0  0  0  0  0  0  0  0  0
   14.4257   -0.5250    0.0000 H   0  0  0  0  0  0  0  0  0  0  0  0
   14.1857    0.3184    0.0000 H   0  0  0  0  0  0  0  0  0  0  0  0
   11.8202   -3.8528    0.0000 H   0  0  0  0  0  0  0  0  0  0  0  0
   12.6671   -3.6258    0.0000 H   0  0  0  0  0  0  0  0  0  0  0  0
   12.4402   -2.7789    0.0000 H   0  0  0  0  0  0  0  0  0  0  0  0
  1 14  1  0  0  0  0
  1 15  1  0  0  0  0
  2  8  1  0  0  0  0
  2 62  1  0  0  0  0
  3 26  1  0  0  0  0
  3 64  1  0  0  0  0
  4 29  1  0  0  0  0
  4 65  1  0  0  0  0
  5 22  2  0  0  0  0
  6 35  1  0  0  0  0
  6 38  1  0  0  0  0
  7 36  1  0  0  0  0
  7 39  1  0  0  0  0
  8 10  1  0  0  0  0
  8 17  1  0  0  0  0
  8 28  1  0  0  0  0
  9 11  1  0  0  0  0
  9 12  2  0  0  0  0
  9 13  1  0  0  0  0
 10 16  1  0  0  0  0
 10 40  1  0  0  0  0
 10 41  1  0  0  0  0
 11 14  1  0  0  0  0
 11 42  1  0  0  0  0
 11 43  1  0  0  0  0
 12 15  1  0  0  0  0
 12 24  1  0  0  0  0
 13 19  1  0  0  0  0
 13 20  2  0  0  0  0
 14 30  1  0  0  0  0
 14 44  1  0  0  0  0
 15 31  1  0  0  0  0
 15 45  1  0  0  0  0
 16 18  2  0  0  0  0
 16 27  1  0  0  0  0
 17 22  1  0  0  0  0
 17 46  1  0  0  0  0
 17 47  1  0  0  0  0
 18 22  1  0  0  0  0
 18 26  1  0  0  0  0
 19 29  2  0  0  0  0
 19 32  1  0  0  0  0
 20 25  1  0  0  0  0
 20 34  1  0  0  0  0
 21 23  1  0  0  0  0
 21 26  2  0  0  0  0
 21 29  1  0  0  0  0
 23 27  2  0  0  0  0
 23 33  1  0  0  0  0
 24 25  2  0  0  0  0
 24 48  1  0  0  0  0
 25 35  1  0  0  0  0
 27 49  1  0  0  0  0
 28 50  1  0  0  0  0
 28 51  1  0  0  0  0
 28 52  1  0  0  0  0
 30 53  1  0  0  0  0
 30 54  1  0  0  0  0
 30 55  1  0  0  0  0
 31 56  1  0  0  0  0
 31 57  1  0  0  0  0
 31 58  1  0  0  0  0
 32 33  2  0  0  0  0
 32 59  1  0  0  0  0
 33 60  1  0  0  0  0
 34 36  2  0  0  0  0
 34 61  1  0  0  0  0
 35 37  2  0  0  0  0
 36 37  1  0  0  0  0
 37 63  1  0  0  0  0
 38 66  1  0  0  0  0
 38 67  1  0  0  0  0
 38 68  1  0  0  0  0
 39 69  1  0  0  0  0
 39 70  1  0  0  0  0
 39 71  1  0  0  0  0
M  END
> <PUBCHEM_COMPOUND_CID>
442524

> <PUBCHEM_COMPOUND_CANONICALIZED>
1

> <PUBCHEM_CACTVS_COMPLEXITY>
911

> <PUBCHEM_CACTVS_HBOND_ACCEPTOR>
7

> <PUBCHEM_CACTVS_HBOND_DONOR>
3

> <PUBCHEM_CACTVS_ROTATABLE_BOND>
3

> <PUBCHEM_CACTVS_SUBSKEYS>
AAADcfB8OAAAAAAAAAAAAAAAAAAAAAAAAAA0YMGDAAAAAADRVAAAGgAACAAADFSgmAIyBsAABgCIAqBSAAACCAAkIAAIiAEGCMgMJzaGNRqCcWAl4BUIuQeI7PzO4AADCAAYAADAAAYQADAAAAAAAAAAAA==

> <PUBCHEM_IUPAC_OPENEYE_NAME>
7-(7,9-dimethoxy-1,3-dimethyl-3,4-dihydro-1H-benzo[g]isochromen-5-yl)-3,8,9-trihydroxy-3-methyl-2,4-dihydroanthracen-1-one

> <PUBCHEM_IUPAC_CAS_NAME>
7-(7,9-dimethoxy-1,3-dimethyl-3,4-dihydro-1H-benzo[g][2]benzopyran-5-yl)-3,8,9-trihydroxy-3-methyl-2,4-dihydroanthracen-1-one

> <PUBCHEM_IUPAC_NAME>
7-(7,9-dimethoxy-1,3-dimethyl-3,4-dihydro-1H-benzo[g]isochromen-5-yl)-3,8,9-trihydroxy-3-methyl-2,4-dihydroanthracen-1-one

> <PUBCHEM_IUPAC_SYSTEMATIC_NAME>
7-(7,9-dimethoxy-1,3-dimethyl-3,4-dihydro-1H-benzo[g]isochromen-5-yl)-3-methyl-3,8,9-tris(oxidanyl)-2,4-dihydroanthracen-1-one

> <PUBCHEM_IUPAC_TRADITIONAL_NAME>
7-(7,9-dimethoxy-1,3-dimethyl-3,4-dihydro-1H-benz[g]isochromen-5-yl)-3,8,9-trihydroxy-3-methyl-2,4-dihydroanthracen-1-one

> <PUBCHEM_IUPAC_INCHI>
InChI=1S/C32H32O7/c1-15-8-23-21(16(2)39-15)12-22-24(10-19(37-4)11-26(22)38-5)29(23)20-7-6-17-9-18-13-32(3,36)14-25(33)27(18)31(35)28(17)30(20)34/h6-7,9-12,15-16,34-36H,8,13-14H2,1-5H3

> <PUBCHEM_IUPAC_INCHIKEY>
XFQXBYAOHZIDSQ-UHFFFAOYSA-N

> <PUBCHEM_XLOGP3_AA>
5.7

> <PUBCHEM_EXACT_MASS>
528.214803

> <PUBCHEM_MOLECULAR_FORMULA>
C32H32O7

> <PUBCHEM_MOLECULAR_WEIGHT>
528.59228

> <PUBCHEM_OPENEYE_CAN_SMILES>
CC1CC2=C(C=C3C(=CC(=CC3=C2C4=C(C5=C(C6=C(CC(CC6=O)(C)O)C=C5C=C4)O)O)OC)OC)C(O1)C

> <PUBCHEM_OPENEYE_ISO_SMILES>
CC1CC2=C(C=C3C(=CC(=CC3=C2C4=C(C5=C(C6=C(CC(CC6=O)(C)O)C=C5C=C4)O)O)OC)OC)C(O1)C

> <PUBCHEM_CACTVS_TPSA>
105

> <PUBCHEM_MONOISOTOPIC_WEIGHT>
528.214803

> <PUBCHEM_TOTAL_CHARGE>
0

> <PUBCHEM_HEAVY_ATOM_COUNT>
39

> <PUBCHEM_ATOM_DEF_STEREO_COUNT>
0

> <PUBCHEM_ATOM_UDEF_STEREO_COUNT>
3

> <PUBCHEM_BOND_DEF_STEREO_COUNT>
0

> <PUBCHEM_BOND_UDEF_STEREO_COUNT>
0

> <PUBCHEM_ISOTOPIC_ATOM_COUNT>
0

> <PUBCHEM_COMPONENT_COUNT>
1

> <PUBCHEM_CACTVS_TAUTO_COUNT>
100

> <PUBCHEM_COORDINATE_TYPE>
1
5
255

> <PUBCHEM_BONDANNOTATIONS>
12  24  8
13  20  8
14  44  3
15  45  3
16  18  8
16  27  8
18  26  8
19  29  8
19  32  8
20  25  8
20  34  8
21  23  8
21  26  8
21  29  8
23  27  8
23  33  8
24  25  8
25  35  8
32  33  8
34  36  8
35  37  8
36  37  8
8  28  3
9  12  8
9  13  8

$$$$

