9236
  -OEChem-06261203313D

 21 22  0     0  0  0  0  0  0999 V2000
    1.0474    0.0548    1.2064 N   0  0  0  0  0  0  0  0  0  0  0  0
   -1.2619    0.0373    0.2784 C   0  0  0  0  0  0  0  0  0  0  0  0
    1.2498   -0.0382   -0.2506 C   0  0  0  0  0  0  0  0  0  0  0  0
   -0.8905    1.2380   -0.6063 C   0  0  0  0  0  0  0  0  0  0  0  0
   -0.9385   -1.2573   -0.4856 C   0  0  0  0  0  0  0  0  0  0  0  0
    0.6132    1.1976   -0.9091 C   0  0  0  0  0  0  0  0  0  0  0  0
    0.5669   -1.3119   -0.7771 C   0  0  0  0  0  0  0  0  0  0  0  0
   -0.3865    0.0797    1.5440 C   0  0  0  0  0  0  0  0  0  0  0  0
   -2.3244    0.0704    0.5415 H   0  0  0  0  0  0  0  0  0  0  0  0
    2.3226   -0.0657   -0.4685 H   0  0  0  0  0  0  0  0  0  0  0  0
   -1.1426    2.1768   -0.0991 H   0  0  0  0  0  0  0  0  0  0  0  0
   -1.4636    1.2190   -1.5407 H   0  0  0  0  0  0  0  0  0  0  0  0
   -1.5058   -1.3020   -1.4227 H   0  0  0  0  0  0  0  0  0  0  0  0
   -1.2343   -2.1322    0.1055 H   0  0  0  0  0  0  0  0  0  0  0  0
    0.7718    1.1715   -1.9939 H   0  0  0  0  0  0  0  0  0  0  0  0
    1.0913    2.1154   -0.5449 H   0  0  0  0  0  0  0  0  0  0  0  0
    1.0051   -2.2030   -0.3109 H   0  0  0  0  0  0  0  0  0  0  0  0
    0.7314   -1.4105   -1.8569 H   0  0  0  0  0  0  0  0  0  0  0  0
   -0.5959    0.9877    2.1205 H   0  0  0  0  0  0  0  0  0  0  0  0
   -0.6230   -0.7735    2.1909 H   0  0  0  0  0  0  0  0  0  0  0  0
    1.4847   -0.7458    1.6623 H   0  0  0  0  0  0  0  0  0  0  0  0
  1  3  1  0  0  0  0
  1  8  1  0  0  0  0
  1 21  1  0  0  0  0
  2  4  1  0  0  0  0
  2  5  1  0  0  0  0
  2  8  1  0  0  0  0
  2  9  1  0  0  0  0
  3  6  1  0  0  0  0
  3  7  1  0  0  0  0
  3 10  1  0  0  0  0
  4  6  1  0  0  0  0
  4 11  1  0  0  0  0
  4 12  1  0  0  0  0
  5  7  1  0  0  0  0
  5 13  1  0  0  0  0
  5 14  1  0  0  0  0
  6 15  1  0  0  0  0
  6 16  1  0  0  0  0
  7 17  1  0  0  0  0
  7 18  1  0  0  0  0
  8 19  1  0  0  0  0
  8 20  1  0  0  0  0
M  END
> <PUBCHEM_COMPOUND_CID>
9236

> <PUBCHEM_CONFORMER_RMSD>
0.4

> <PUBCHEM_CONFORMER_DIVERSEORDER>
1

> <PUBCHEM_MMFF94_PARTIAL_CHARGES>
4
1 -0.9
21 0.36
3 0.27
8 0.27

> <PUBCHEM_EFFECTIVE_ROTOR_COUNT>
1.2

> <PUBCHEM_PHARMACOPHORE_FEATURES>
3
1 1 cation
1 1 donor
8 1 2 3 4 5 6 7 8 rings

> <PUBCHEM_HEAVY_ATOM_COUNT>
8

> <PUBCHEM_ATOM_DEF_STEREO_COUNT>
0

> <PUBCHEM_ATOM_UDEF_STEREO_COUNT>
0

> <PUBCHEM_BOND_DEF_STEREO_COUNT>
0

> <PUBCHEM_BOND_UDEF_STEREO_COUNT>
0

> <PUBCHEM_ISOTOPIC_ATOM_COUNT>
0

> <PUBCHEM_COMPONENT_COUNT>
1

> <PUBCHEM_CACTVS_TAUTO_COUNT>
1

> <PUBCHEM_CONFORMER_ID>
0000241400000001

> <PUBCHEM_MMFF94_ENERGY>
9.2893

> <PUBCHEM_FEATURE_SELFOVERLAP>
15.223

> <PUBCHEM_SHAPE_FINGERPRINT>
12423570 1 18339630205019318207
13024252 1 5097587462714839667
137420 1 9838914771074806293
21040471 1 11187197007762918997
29004967 10 10219323778325277600
5943 1 12313526634694177316

> <PUBCHEM_SHAPE_MULTIPOLES>
159.66
1.46
1.42
1.32
0.02
0.03
-0.49
0
0
0.07
0.55
-0.1
-0.02
-0.01

> <PUBCHEM_SHAPE_SELFOVERLAP>
328.513

> <PUBCHEM_SHAPE_VOLUME>
88.2

> <PUBCHEM_COORDINATE_TYPE>
2
5
10

$$$$

