10077584
  -OEChem-07051213082D

 83 88  0     1  0  0  0  0  0999 V2000
    5.9302    9.6627    0.0000 O   0  0  0  0  0  0  0  0  0  0  0  0
    7.8242    8.0887    0.0000 O   0  0  0  0  0  0  0  0  0  0  0  0
    3.7760    0.4691    0.0000 O   0  0  0  0  0  0  0  0  0  0  0  0
    3.3162    8.0934    0.0000 O   0  0  0  0  0  0  0  0  0  0  0  0
    7.7002    9.6385    0.0000 O   0  0  0  0  0  0  0  0  0  0  0  0
    5.3549   -0.2429    0.0000 O   0  0  0  0  0  0  0  0  0  0  0  0
    3.2345   -9.1594    0.0000 O   0  0  0  0  0  0  0  0  0  0  0  0
    4.6406   -8.1479    0.0000 O   0  0  0  0  0  0  0  0  0  0  0  0
    3.9489   -1.2544    0.0000 N   0  0  0  0  0  0  0  0  0  0  0  0
    4.1822    6.5934    0.0000 N   0  0  0  0  0  0  0  0  0  0  0  0
    2.7158   -3.9892    0.0000 N   0  0  0  0  0  0  0  0  0  0  0  0
    5.4598    4.2928    0.0000 N   0  0  0  0  0  0  0  0  0  0  0  0
    3.1268   -3.0776    0.0000 C   0  0  0  0  0  0  0  0  0  0  0  0
    2.5428   -2.2658    0.0000 C   0  0  0  0  0  0  0  0  0  0  0  0
    4.1218   -2.9777    0.0000 C   0  0  0  0  0  0  0  0  0  0  0  0
    2.9539   -1.3542    0.0000 C   0  0  0  0  0  0  0  0  0  0  0  0
    4.5328   -2.0661    0.0000 C   0  0  0  0  0  0  0  0  0  0  0  0
    5.0482    6.0934    0.0000 C   0  0  0  0  0  0  0  0  0  0  0  0
    3.8503    5.0186    0.0000 C   0  0  0  0  0  0  0  0  0  0  0  0
    3.4452    5.9264    0.0000 C   0  0  0  0  0  0  0  0  0  0  0  0
    5.9143    7.5934    0.0000 C   0  0  0  0  0  0  0  0  0  0  0  0
    6.8243    8.1003    0.0000 C   0  0  2  0  0  0  0  0  0  0  0  0
    4.8390    5.1216    0.0000 C   0  0  0  0  0  0  0  0  0  0  0  0
    5.0482    8.0934    0.0000 C   0  0  0  0  0  0  0  0  0  0  0  0
    5.9143    6.5934    0.0000 C   0  0  0  0  0  0  0  0  0  0  0  0
    3.4138    4.0796    0.0000 C   0  0  0  0  0  0  0  0  0  0  0  0
    4.1822    7.5934    0.0000 C   0  0  0  0  0  0  0  0  0  0  0  0
    3.2997   -4.8010    0.0000 C   0  0  0  0  0  0  0  0  0  0  0  0
    7.3142    7.2285    0.0000 C   0  0  0  0  0  0  0  0  0  0  0  0
    4.0152    3.2367    0.0000 C   0  0  0  0  0  0  0  0  0  0  0  0
    5.0322    9.1349    0.0000 C   0  0  0  0  0  0  0  0  0  0  0  0
    6.8323    9.1419    0.0000 C   0  0  0  0  0  0  0  0  0  0  0  0
    5.0451    3.3440    0.0000 C   0  0  0  0  0  0  0  0  0  0  0  0
    4.3599   -0.3427    0.0000 C   0  0  0  0  0  0  0  0  0  0  0  0
    2.4181    3.9874    0.0000 C   0  0  0  0  0  0  0  0  0  0  0  0
    2.8887   -5.7126    0.0000 C   0  0  0  0  0  0  0  0  0  0  0  0
    3.5606    2.2586    0.0000 C   0  0  0  0  0  0  0  0  0  0  0  0
    4.1870    1.3807    0.0000 C   0  0  0  0  0  0  0  0  0  0  0  0
    6.8042    6.3683    0.0000 C   0  0  0  0  0  0  0  0  0  0  0  0
    3.4726   -6.5244    0.0000 C   0  0  0  0  0  0  0  0  0  0  0  0
    5.6917    2.4808    0.0000 C   0  0  0  0  0  0  0  0  0  0  0  0
    2.0000    3.0790    0.0000 C   0  0  0  0  0  0  0  0  0  0  0  0
    5.2598    1.4925    0.0000 C   0  0  0  0  0  0  0  0  0  0  0  0
    3.0616   -7.4360    0.0000 C   0  0  0  0  0  0  0  0  0  0  0  0
    3.6456   -8.2478    0.0000 C   0  0  0  0  0  0  0  0  0  0  0  0
    3.4888   -3.5809    0.0000 H   0  0  0  0  0  0  0  0  0  0  0  0
    4.0756   -3.5960    0.0000 H   0  0  0  0  0  0  0  0  0  0  0  0
    4.7227   -3.1306    0.0000 H   0  0  0  0  0  0  0  0  0  0  0  0
    2.0305   -1.9167    0.0000 H   0  0  0  0  0  0  0  0  0  0  0  0
    2.1101   -2.7098    0.0000 H   0  0  0  0  0  0  0  0  0  0  0  0
    3.0000   -0.7359    0.0000 H   0  0  0  0  0  0  0  0  0  0  0  0
    2.3530   -1.2014    0.0000 H   0  0  0  0  0  0  0  0  0  0  0  0
    5.0452   -2.4152    0.0000 H   0  0  0  0  0  0  0  0  0  0  0  0
    4.9656   -1.6222    0.0000 H   0  0  0  0  0  0  0  0  0  0  0  0
    3.0798    6.4272    0.0000 H   0  0  0  0  0  0  0  0  0  0  0  0
    2.9087    5.6156    0.0000 H   0  0  0  0  0  0  0  0  0  0  0  0
    2.0988   -4.0511    0.0000 H   0  0  0  0  0  0  0  0  0  0  0  0
    6.4512    6.2834    0.0000 H   0  0  0  0  0  0  0  0  0  0  0  0
    3.8121   -5.1501    0.0000 H   0  0  0  0  0  0  0  0  0  0  0  0
    3.7325   -4.3570    0.0000 H   0  0  0  0  0  0  0  0  0  0  0  0
    7.7845    6.8245    0.0000 H   0  0  0  0  0  0  0  0  0  0  0  0
    7.7937    7.6215    0.0000 H   0  0  0  0  0  0  0  0  0  0  0  0
    4.8142    9.7153    0.0000 H   0  0  0  0  0  0  0  0  0  0  0  0
    4.4230    9.0194    0.0000 H   0  0  0  0  0  0  0  0  0  0  0  0
    2.4690    4.6053    0.0000 H   0  0  0  0  0  0  0  0  0  0  0  0
    1.8184    4.1449    0.0000 H   0  0  0  0  0  0  0  0  0  0  0  0
    2.3763   -5.3635    0.0000 H   0  0  0  0  0  0  0  0  0  0  0  0
    2.4559   -6.1565    0.0000 H   0  0  0  0  0  0  0  0  0  0  0  0
    2.9432    2.2015    0.0000 H   0  0  0  0  0  0  0  0  0  0  0  0
    6.2709    6.6845    0.0000 H   0  0  0  0  0  0  0  0  0  0  0  0
    6.4880    5.8350    0.0000 H   0  0  0  0  0  0  0  0  0  0  0  0
    7.3376    6.0522    0.0000 H   0  0  0  0  0  0  0  0  0  0  0  0
    8.1280    7.5482    0.0000 H   0  0  0  0  0  0  0  0  0  0  0  0
    3.9850   -6.8735    0.0000 H   0  0  0  0  0  0  0  0  0  0  0  0
    3.9054   -6.0804    0.0000 H   0  0  0  0  0  0  0  0  0  0  0  0
    6.3076    2.5522    0.0000 H   0  0  0  0  0  0  0  0  0  0  0  0
    1.4368    3.3382    0.0000 H   0  0  0  0  0  0  0  0  0  0  0  0
    1.7408    2.5158    0.0000 H   0  0  0  0  0  0  0  0  0  0  0  0
    2.5632    2.8198    0.0000 H   0  0  0  0  0  0  0  0  0  0  0  0
    5.6257    0.9920    0.0000 H   0  0  0  0  0  0  0  0  0  0  0  0
    2.5492   -7.0869    0.0000 H   0  0  0  0  0  0  0  0  0  0  0  0
    2.6288   -7.8799    0.0000 H   0  0  0  0  0  0  0  0  0  0  0  0
    3.5966   -9.6627    0.0000 H   0  0  0  0  0  0  0  0  0  0  0  0
  1 31  1  0  0  0  0
  1 32  1  0  0  0  0
 22  2  1  1  0  0  0
  2 73  1  0  0  0  0
  3 34  1  0  0  0  0
  3 38  1  0  0  0  0
  4 27  2  0  0  0  0
  5 32  2  0  0  0  0
  6 34  2  0  0  0  0
  7 45  1  0  0  0  0
  7 83  1  0  0  0  0
  8 45  2  0  0  0  0
  9 16  1  0  0  0  0
  9 17  1  0  0  0  0
  9 34  1  0  0  0  0
 10 18  1  0  0  0  0
 10 20  1  0  0  0  0
 10 27  1  0  0  0  0
 11 13  1  0  0  0  0
 11 28  1  0  0  0  0
 11 57  1  0  0  0  0
 12 23  1  0  0  0  0
 12 33  2  0  0  0  0
 13 14  1  0  0  0  0
 13 15  1  0  0  0  0
 13 46  1  0  0  0  0
 14 16  1  0  0  0  0
 14 49  1  0  0  0  0
 14 50  1  0  0  0  0
 15 17  1  0  0  0  0
 15 47  1  0  0  0  0
 15 48  1  0  0  0  0
 16 51  1  0  0  0  0
 16 52  1  0  0  0  0
 17 53  1  0  0  0  0
 17 54  1  0  0  0  0
 18 23  1  0  0  0  0
 18 25  2  0  0  0  0
 19 20  1  0  0  0  0
 19 23  2  0  0  0  0
 19 26  1  0  0  0  0
 20 55  1  0  0  0  0
 20 56  1  0  0  0  0
 21 22  1  0  0  0  0
 21 24  2  0  0  0  0
 21 25  1  0  0  0  0
 22 29  1  0  0  0  0
 22 32  1  0  0  0  0
 24 27  1  0  0  0  0
 24 31  1  0  0  0  0
 25 58  1  0  0  0  0
 26 30  2  0  0  0  0
 26 35  1  0  0  0  0
 28 36  1  0  0  0  0
 28 59  1  0  0  0  0
 28 60  1  0  0  0  0
 29 39  1  0  0  0  0
 29 61  1  0  0  0  0
 29 62  1  0  0  0  0
 30 33  1  0  0  0  0
 30 37  1  0  0  0  0
 31 63  1  0  0  0  0
 31 64  1  0  0  0  0
 33 41  1  0  0  0  0
 35 42  1  0  0  0  0
 35 65  1  0  0  0  0
 35 66  1  0  0  0  0
 36 40  1  0  0  0  0
 36 67  1  0  0  0  0
 36 68  1  0  0  0  0
 37 38  2  0  0  0  0
 37 69  1  0  0  0  0
 38 43  1  0  0  0  0
 39 70  1  0  0  0  0
 39 71  1  0  0  0  0
 39 72  1  0  0  0  0
 40 44  1  0  0  0  0
 40 74  1  0  0  0  0
 40 75  1  0  0  0  0
 41 43  2  0  0  0  0
 41 76  1  0  0  0  0
 42 77  1  0  0  0  0
 42 78  1  0  0  0  0
 42 79  1  0  0  0  0
 43 80  1  0  0  0  0
 44 45  1  0  0  0  0
 44 81  1  0  0  0  0
 44 82  1  0  0  0  0
M  END
> <PUBCHEM_COMPOUND_CID>
10077584

> <PUBCHEM_COMPOUND_CANONICALIZED>
1

> <PUBCHEM_CACTVS_COMPLEXITY>
1260

> <PUBCHEM_CACTVS_HBOND_ACCEPTOR>
10

> <PUBCHEM_CACTVS_HBOND_DONOR>
3

> <PUBCHEM_CACTVS_ROTATABLE_BOND>
10

> <PUBCHEM_CACTVS_SUBSKEYS>
AAADcfB/vAAAAAAAAAAAAAAAAAAAAWAAAAA8WIECAAAAAFix8AAAHgAQCAAADGzhngYyzvPIFgCoAyXyXAKCiCAhIiAImKF+bNgNZvbE8Zuecihm9hHL+Qe40fIOgEABAAACAAAAgAIAAAQAAAAAAAAAAA==

> <PUBCHEM_IUPAC_INCHI>
InChI=1S/C33H38N4O8/c1-3-21-22-15-20(45-32(42)36-13-10-19(11-14-36)34-12-6-5-7-28(38)39)8-9-26(22)35-29-23(21)17-37-27(29)16-25-24(30(37)40)18-44-31(41)33(25,43)4-2/h8-9,15-16,19,34,43H,3-7,10-14,17-18H2,1-2H3,(H,38,39)/t33-/m0/s1

> <PUBCHEM_IUPAC_INCHIKEY>
BSVVZICJFYZDJJ-XIFFEERXSA-N

> <PUBCHEM_XLOGP3_AA>
-0.4

> <PUBCHEM_EXACT_MASS>
618.268964

> <PUBCHEM_MOLECULAR_FORMULA>
C33H38N4O8

> <PUBCHEM_MOLECULAR_WEIGHT>
618.67682

> <PUBCHEM_OPENEYE_CAN_SMILES>
CCC1=C2C=C(C=CC2=NC3=C1CN4C3=CC5=C(C4=O)COC(=O)C5(CC)O)OC(=O)N6CCC(CC6)NCCCCC(=O)O

> <PUBCHEM_OPENEYE_ISO_SMILES>
CCC1=C2C=C(C=CC2=NC3=C1CN4C3=CC5=C(C4=O)COC(=O)[C@@]5(CC)O)OC(=O)N6CCC(CC6)NCCCCC(=O)O

> <PUBCHEM_CACTVS_TPSA>
159

> <PUBCHEM_MONOISOTOPIC_WEIGHT>
618.268964

> <PUBCHEM_TOTAL_CHARGE>
0

> <PUBCHEM_HEAVY_ATOM_COUNT>
45

> <PUBCHEM_ATOM_DEF_STEREO_COUNT>
1

> <PUBCHEM_ATOM_UDEF_STEREO_COUNT>
0

> <PUBCHEM_BOND_DEF_STEREO_COUNT>
0

> <PUBCHEM_BOND_UDEF_STEREO_COUNT>
0

> <PUBCHEM_ISOTOPIC_ATOM_COUNT>
0

> <PUBCHEM_COMPONENT_COUNT>
1

> <PUBCHEM_CACTVS_TAUTO_COUNT>
1

> <PUBCHEM_COORDINATE_TYPE>
1
5
255

> <PUBCHEM_BONDANNOTATIONS>
10  18  8
10  27  8
12  23  8
12  33  8
18  25  8
19  23  8
19  26  8
22  2  5
21  24  8
21  25  8
24  27  8
26  30  8
30  33  8
30  37  8
33  41  8
37  38  8
38  43  8
41  43  8

$$$$

