91656
  -OEChem-07051213012D

 48 50  0     1  0  0  0  0  0999 V2000
    3.7320   -0.4806    0.0000 O   0  0  0  0  0  0  0  0  0  0  0  0
    5.4641   -1.4806    0.0000 O   0  0  0  0  0  0  0  0  0  0  0  0
    4.5981   -2.9806    0.0000 N   0  0  0  0  0  0  0  0  0  0  0  0
    3.7891   -3.5684    0.0000 N   0  0  0  0  0  0  0  0  0  0  0  0
    5.0981   -4.5194    0.0000 N   0  0  0  0  0  0  0  0  0  0  0  0
    2.8660   -1.9806    0.0000 C   0  0  0  0  0  0  0  0  0  0  0  0
    3.7320   -1.4806    0.0000 C   0  0  3  0  0  0  0  0  0  0  0  0
    4.5981   -1.9806    0.0000 C   0  0  3  0  0  0  0  0  0  0  0  0
    2.0000   -2.4806    0.0000 C   0  0  0  0  0  0  0  0  0  0  0  0
    2.3660   -1.1146    0.0000 C   0  0  0  0  0  0  0  0  0  0  0  0
    3.3660   -2.8466    0.0000 C   0  0  0  0  0  0  0  0  0  0  0  0
    5.4641   -0.4806    0.0000 C   0  0  0  0  0  0  0  0  0  0  0  0
    5.4071   -3.5684    0.0000 C   0  0  0  0  0  0  0  0  0  0  0  0
    6.3301    0.0194    0.0000 C   0  0  0  0  0  0  0  0  0  0  0  0
    4.5981    0.0194    0.0000 C   0  0  0  0  0  0  0  0  0  0  0  0
    4.0981   -4.5194    0.0000 C   0  0  0  0  0  0  0  0  0  0  0  0
    5.4641    1.5194    0.0000 C   0  0  0  0  0  0  0  0  0  0  0  0
    6.3301    1.0194    0.0000 C   0  0  0  0  0  0  0  0  0  0  0  0
    4.5981    1.0194    0.0000 C   0  0  0  0  0  0  0  0  0  0  0  0
    5.4641    2.5194    0.0000 C   0  0  0  0  0  0  0  0  0  0  0  0
    6.3301    3.0194    0.0000 C   0  0  0  0  0  0  0  0  0  0  0  0
    4.5981    3.0194    0.0000 C   0  0  0  0  0  0  0  0  0  0  0  0
    6.3301    4.0194    0.0000 C   0  0  0  0  0  0  0  0  0  0  0  0
    4.5981    4.0194    0.0000 C   0  0  0  0  0  0  0  0  0  0  0  0
    5.4641    4.5194    0.0000 C   0  0  0  0  0  0  0  0  0  0  0  0
    4.2690   -1.1706    0.0000 H   0  0  0  0  0  0  0  0  0  0  0  0
    4.5981   -1.3606    0.0000 H   0  0  0  0  0  0  0  0  0  0  0  0
    1.6900   -1.9436    0.0000 H   0  0  0  0  0  0  0  0  0  0  0  0
    2.8291   -3.1566    0.0000 H   0  0  0  0  0  0  0  0  0  0  0  0
    3.6760   -3.3835    0.0000 H   0  0  0  0  0  0  0  0  0  0  0  0
    1.4631   -2.7906    0.0000 H   0  0  0  0  0  0  0  0  0  0  0  0
    2.3100   -3.0175    0.0000 H   0  0  0  0  0  0  0  0  0  0  0  0
    2.9030   -0.8046    0.0000 H   0  0  0  0  0  0  0  0  0  0  0  0
    2.0560   -0.5776    0.0000 H   0  0  0  0  0  0  0  0  0  0  0  0
    1.8291   -1.4246    0.0000 H   0  0  0  0  0  0  0  0  0  0  0  0
    3.9030   -2.5366    0.0000 H   0  0  0  0  0  0  0  0  0  0  0  0
    3.1951   -0.1706    0.0000 H   0  0  0  0  0  0  0  0  0  0  0  0
    5.9967   -3.3768    0.0000 H   0  0  0  0  0  0  0  0  0  0  0  0
    6.8671   -0.2906    0.0000 H   0  0  0  0  0  0  0  0  0  0  0  0
    4.0611   -0.2906    0.0000 H   0  0  0  0  0  0  0  0  0  0  0  0
    3.7336   -5.0210    0.0000 H   0  0  0  0  0  0  0  0  0  0  0  0
    6.8671    1.3294    0.0000 H   0  0  0  0  0  0  0  0  0  0  0  0
    4.0611    1.3294    0.0000 H   0  0  0  0  0  0  0  0  0  0  0  0
    6.8671    2.7094    0.0000 H   0  0  0  0  0  0  0  0  0  0  0  0
    4.0611    2.7094    0.0000 H   0  0  0  0  0  0  0  0  0  0  0  0
    6.8671    4.3294    0.0000 H   0  0  0  0  0  0  0  0  0  0  0  0
    4.0611    4.3294    0.0000 H   0  0  0  0  0  0  0  0  0  0  0  0
    5.4641    5.1394    0.0000 H   0  0  0  0  0  0  0  0  0  0  0  0
  1  7  1  0  0  0  0
  1 37  1  0  0  0  0
  2  8  1  0  0  0  0
  2 12  1  0  0  0  0
  3  4  1  0  0  0  0
  3  8  1  0  0  0  0
  3 13  1  0  0  0  0
  4 16  2  0  0  0  0
  5 13  2  0  0  0  0
  5 16  1  0  0  0  0
  6  7  1  0  0  0  0
  6  9  1  0  0  0  0
  6 10  1  0  0  0  0
  6 11  1  0  0  0  0
  7  8  1  0  0  0  0
  7 26  1  0  0  0  0
  8 27  1  0  0  0  0
  9 28  1  0  0  0  0
  9 31  1  0  0  0  0
  9 32  1  0  0  0  0
 10 33  1  0  0  0  0
 10 34  1  0  0  0  0
 10 35  1  0  0  0  0
 11 29  1  0  0  0  0
 11 30  1  0  0  0  0
 11 36  1  0  0  0  0
 12 14  2  0  0  0  0
 12 15  1  0  0  0  0
 13 38  1  0  0  0  0
 14 18  1  0  0  0  0
 14 39  1  0  0  0  0
 15 19  2  0  0  0  0
 15 40  1  0  0  0  0
 16 41  1  0  0  0  0
 17 18  2  0  0  0  0
 17 19  1  0  0  0  0
 17 20  1  0  0  0  0
 18 42  1  0  0  0  0
 19 43  1  0  0  0  0
 20 21  2  0  0  0  0
 20 22  1  0  0  0  0
 21 23  1  0  0  0  0
 21 44  1  0  0  0  0
 22 24  2  0  0  0  0
 22 45  1  0  0  0  0
 23 25  2  0  0  0  0
 23 46  1  0  0  0  0
 24 25  1  0  0  0  0
 24 47  1  0  0  0  0
 25 48  1  0  0  0  0
M  END
> <PUBCHEM_COMPOUND_CID>
91656

> <PUBCHEM_COMPOUND_CANONICALIZED>
1

> <PUBCHEM_CACTVS_COMPLEXITY>
398

> <PUBCHEM_CACTVS_HBOND_ACCEPTOR>
4

> <PUBCHEM_CACTVS_HBOND_DONOR>
1

> <PUBCHEM_CACTVS_ROTATABLE_BOND>
6

> <PUBCHEM_CACTVS_SUBSKEYS>
AAADceB7MAAAAAAAAAAAAAAAAAAAAWAAAAAwYAAAAAAAAAAB0AAAHgAICAAADhThmAY3FoYIFgCiAiBDJAASCAswoIAdyAAOCIiPPiKEuRqOeCCswBMbqAeAwPAPoAAAAAAAAABAAAAAAAAAAAAAAAAAAA==

> <PUBCHEM_IUPAC_OPENEYE_NAME>
3,3-dimethyl-1-(4-phenylphenoxy)-1-(1,2,4-triazol-1-yl)butan-2-ol

> <PUBCHEM_IUPAC_CAS_NAME>
3,3-dimethyl-1-(4-phenylphenoxy)-1-(1,2,4-triazol-1-yl)-2-butanol

> <PUBCHEM_IUPAC_NAME>
3,3-dimethyl-1-(4-phenylphenoxy)-1-(1,2,4-triazol-1-yl)butan-2-ol

> <PUBCHEM_IUPAC_SYSTEMATIC_NAME>
3,3-dimethyl-1-(4-phenylphenoxy)-1-(1,2,4-triazol-1-yl)butan-2-ol

> <PUBCHEM_IUPAC_TRADITIONAL_NAME>
3,3-dimethyl-1-(4-phenylphenoxy)-1-(1,2,4-triazol-1-yl)butan-2-ol

> <PUBCHEM_IUPAC_INCHI>
InChI=1S/C20H23N3O2/c1-20(2,3)18(24)19(23-14-21-13-22-23)25-17-11-9-16(10-12-17)15-7-5-4-6-8-15/h4-14,18-19,24H,1-3H3

> <PUBCHEM_IUPAC_INCHIKEY>
VGPIBGGRCVEHQZ-UHFFFAOYSA-N

> <PUBCHEM_XLOGP3>
4.2

> <PUBCHEM_EXACT_MASS>
337.179027

> <PUBCHEM_MOLECULAR_FORMULA>
C20H23N3O2

> <PUBCHEM_MOLECULAR_WEIGHT>
337.41552

> <PUBCHEM_OPENEYE_CAN_SMILES>
CC(C)(C)C(C(N1C=NC=N1)OC2=CC=C(C=C2)C3=CC=CC=C3)O

> <PUBCHEM_OPENEYE_ISO_SMILES>
CC(C)(C)C(C(N1C=NC=N1)OC2=CC=C(C=C2)C3=CC=CC=C3)O

> <PUBCHEM_CACTVS_TPSA>
60.2

> <PUBCHEM_MONOISOTOPIC_WEIGHT>
337.179027

> <PUBCHEM_TOTAL_CHARGE>
0

> <PUBCHEM_HEAVY_ATOM_COUNT>
25

> <PUBCHEM_ATOM_DEF_STEREO_COUNT>
0

> <PUBCHEM_ATOM_UDEF_STEREO_COUNT>
2

> <PUBCHEM_BOND_DEF_STEREO_COUNT>
0

> <PUBCHEM_BOND_UDEF_STEREO_COUNT>
0

> <PUBCHEM_ISOTOPIC_ATOM_COUNT>
0

> <PUBCHEM_COMPONENT_COUNT>
1

> <PUBCHEM_CACTVS_TAUTO_COUNT>
1

> <PUBCHEM_COORDINATE_TYPE>
1
5
255

> <PUBCHEM_BONDANNOTATIONS>
7  1  3
12  14  8
12  15  8
14  18  8
15  19  8
17  18  8
17  19  8
8  2  3
20  21  8
20  22  8
21  23  8
22  24  8
23  25  8
24  25  8
3  13  8
3  4  8
4  16  8
5  13  8
5  16  8

$$$$

