5280401
  -OEChem-07051212452D

 41 41  0     1  0  0  0  0  0999 V2000
    6.7181    2.6830    0.0000 P   0  0  0  0  0  0  0  0  0  0  0  0
    5.8520    2.1830    0.0000 O   0  0  0  0  0  0  0  0  0  0  0  0
    4.1200   -0.8170    0.0000 O   0  0  0  0  0  0  0  0  0  0  0  0
    7.5841    1.1830    0.0000 O   0  0  0  0  0  0  0  0  0  0  0  0
    7.5841   -0.8170    0.0000 O   0  0  0  0  0  0  0  0  0  0  0  0
    7.5841    3.1830    0.0000 O   0  0  0  0  0  0  0  0  0  0  0  0
    6.2181    3.5490    0.0000 O   0  0  0  0  0  0  0  0  0  0  0  0
    7.2181    1.8170    0.0000 O   0  0  0  0  0  0  0  0  0  0  0  0
    4.1200    1.1830    0.0000 N   0  0  0  0  0  0  0  0  0  0  0  0
    5.8520   -1.8170    0.0000 N   0  0  0  0  0  0  0  0  0  0  0  0
    2.6200    2.0491    0.0000 N   0  0  0  0  0  0  0  0  0  0  0  0
    2.6200    0.3170    0.0000 N   0  0  0  0  0  0  0  0  0  0  0  0
    5.8520   -3.5490    0.0000 N   0  0  0  0  0  0  0  0  0  0  0  0
    7.3520   -2.6830    0.0000 N   0  0  0  0  0  0  0  0  0  0  0  0
    5.8520    1.1830    0.0000 C   0  0  1  0  0  0  0  0  0  0  0  0
    4.9860    0.6830    0.0000 C   0  0  1  0  0  0  0  0  0  0  0  0
    5.8520   -0.8170    0.0000 C   0  0  1  0  0  0  0  0  0  0  0  0
    4.9860   -0.3170    0.0000 C   0  0  2  0  0  0  0  0  0  0  0  0
    6.7181    0.6830    0.0000 C   0  0  2  0  0  0  0  0  0  0  0  0
    6.7181   -0.3170    0.0000 C   0  0  2  0  0  0  0  0  0  0  0  0
    3.1200    1.1830    0.0000 C   0  0  0  0  0  0  0  0  0  0  0  0
    6.3520   -2.6830    0.0000 C   0  0  0  0  0  0  0  0  0  0  0  0
    6.3890    1.4930    0.0000 H   0  0  0  0  0  0  0  0  0  0  0  0
    4.9860    1.3030    0.0000 H   0  0  0  0  0  0  0  0  0  0  0  0
    6.3890   -1.1270    0.0000 H   0  0  0  0  0  0  0  0  0  0  0  0
    4.9860   -0.9370    0.0000 H   0  0  0  0  0  0  0  0  0  0  0  0
    6.7181    1.3030    0.0000 H   0  0  0  0  0  0  0  0  0  0  0  0
    6.7181   -0.9370    0.0000 H   0  0  0  0  0  0  0  0  0  0  0  0
    4.1200   -1.4370    0.0000 H   0  0  0  0  0  0  0  0  0  0  0  0
    8.1210    0.8730    0.0000 H   0  0  0  0  0  0  0  0  0  0  0  0
    8.1210   -0.5070    0.0000 H   0  0  0  0  0  0  0  0  0  0  0  0
    6.5281    4.0860    0.0000 H   0  0  0  0  0  0  0  0  0  0  0  0
    7.5841    3.8030    0.0000 H   0  0  0  0  0  0  0  0  0  0  0  0
    2.0000    0.3170    0.0000 H   0  0  0  0  0  0  0  0  0  0  0  0
    2.9300   -0.2200    0.0000 H   0  0  0  0  0  0  0  0  0  0  0  0
    2.0000    2.0491    0.0000 H   0  0  0  0  0  0  0  0  0  0  0  0
    2.9300    2.5860    0.0000 H   0  0  0  0  0  0  0  0  0  0  0  0
    6.1620   -4.0860    0.0000 H   0  0  0  0  0  0  0  0  0  0  0  0
    7.6620   -3.2200    0.0000 H   0  0  0  0  0  0  0  0  0  0  0  0
    7.6620   -2.1461    0.0000 H   0  0  0  0  0  0  0  0  0  0  0  0
    5.2320   -3.5490    0.0000 H   0  0  0  0  0  0  0  0  0  0  0  0
  1  2  1  0  0  0  0
  1  6  1  0  0  0  0
  1  7  1  0  0  0  0
  1  8  2  0  0  0  0
 15  2  1  6  0  0  0
 18  3  1  6  0  0  0
  3 29  1  0  0  0  0
 19  4  1  1  0  0  0
  4 30  1  0  0  0  0
 20  5  1  6  0  0  0
  5 31  1  0  0  0  0
  6 33  1  0  0  0  0
  7 32  1  0  0  0  0
 16  9  1  1  0  0  0
  9 21  2  0  0  0  0
 17 10  1  1  0  0  0
 10 22  2  0  0  0  0
 11 21  1  0  0  0  0
 11 36  1  0  0  0  0
 11 37  1  0  0  0  0
 12 21  1  0  0  0  0
 12 34  1  0  0  0  0
 12 35  1  0  0  0  0
 13 22  1  0  0  0  0
 13 38  1  0  0  0  0
 13 41  1  0  0  0  0
 14 22  1  0  0  0  0
 14 39  1  0  0  0  0
 14 40  1  0  0  0  0
 15 16  1  0  0  0  0
 15 19  1  0  0  0  0
 15 23  1  0  0  0  0
 16 18  1  0  0  0  0
 16 24  1  0  0  0  0
 17 18  1  0  0  0  0
 17 20  1  0  0  0  0
 17 25  1  0  0  0  0
 18 26  1  0  0  0  0
 19 20  1  0  0  0  0
 19 27  1  0  0  0  0
 20 28  1  0  0  0  0
M  END
> <PUBCHEM_COMPOUND_CID>
5280401

> <PUBCHEM_COMPOUND_CANONICALIZED>
1

> <PUBCHEM_CACTVS_COMPLEXITY>
501

> <PUBCHEM_CACTVS_HBOND_ACCEPTOR>
9

> <PUBCHEM_CACTVS_HBOND_DONOR>
9

> <PUBCHEM_CACTVS_ROTATABLE_BOND>
4

> <PUBCHEM_CACTVS_SUBSKEYS>
AAADceBzuAIAAAAAAAAAAAAAAAAAAAAAAAAwAAAAAAAAAAAAAAAAHgAQCCAACDzhgAYBAAJAAxAgQAAAJIAAAAEAAAAAAAAAAAADEAIAwAAAQAAHAAABAAHwcAUAAAAAAAAAAAACgAAUCACgAAAAAAAAAA==

> <PUBCHEM_IUPAC_OPENEYE_NAME>
[(1S,2R,3S,4S,5R,6S)-2,4-diguanidino-3,5,6-trihydroxy-cyclohexyl] dihydrogen phosphate

> <PUBCHEM_IUPAC_CAS_NAME>
[(1S,2R,3S,4S,5R,6S)-2,4-bis(diaminomethylideneamino)-3,5,6-trihydroxycyclohexyl] dihydrogen phosphate

> <PUBCHEM_IUPAC_NAME>
[(1S,2R,3S,4S,5R,6S)-2,4-bis(diaminomethylideneamino)-3,5,6-trihydroxycyclohexyl] dihydrogen phosphate

> <PUBCHEM_IUPAC_SYSTEMATIC_NAME>
[(1S,2R,3S,4S,5R,6S)-2,4-bis[bis(azanyl)methylideneamino]-3,5,6-tris(oxidanyl)cyclohexyl] dihydrogen phosphate

> <PUBCHEM_IUPAC_TRADITIONAL_NAME>
[(1S,2R,3S,4S,5R,6S)-2,4-diguanidino-3,5,6-trihydroxy-cyclohexyl] dihydrogen phosphate

> <PUBCHEM_IUPAC_INCHI>
InChI=1S/C8H19N6O7P/c9-7(10)13-1-3(15)2(14-8(11)12)6(5(17)4(1)16)21-22(18,19)20/h1-6,15-17H,(H4,9,10,13)(H4,11,12,14)(H2,18,19,20)/t1-,2+,3-,4+,5-,6-/m0/s1

> <PUBCHEM_IUPAC_INCHIKEY>
UUUGVWGQJIFFRM-FUHDGFEASA-N

> <PUBCHEM_XLOGP3_AA>
-6.6

> <PUBCHEM_EXACT_MASS>
342.105284

> <PUBCHEM_MOLECULAR_FORMULA>
C8H19N6O7P

> <PUBCHEM_MOLECULAR_WEIGHT>
342.246222

> <PUBCHEM_OPENEYE_CAN_SMILES>
C1(C(C(C(C(C1O)O)OP(=O)(O)O)N=C(N)N)O)N=C(N)N

> <PUBCHEM_OPENEYE_ISO_SMILES>
[C@@H]1([C@@H]([C@H]([C@@H]([C@H]([C@@H]1O)O)OP(=O)(O)O)N=C(N)N)O)N=C(N)N

> <PUBCHEM_CACTVS_TPSA>
256

> <PUBCHEM_MONOISOTOPIC_WEIGHT>
342.105284

> <PUBCHEM_TOTAL_CHARGE>
0

> <PUBCHEM_HEAVY_ATOM_COUNT>
22

> <PUBCHEM_ATOM_DEF_STEREO_COUNT>
6

> <PUBCHEM_ATOM_UDEF_STEREO_COUNT>
0

> <PUBCHEM_BOND_DEF_STEREO_COUNT>
0

> <PUBCHEM_BOND_UDEF_STEREO_COUNT>
0

> <PUBCHEM_ISOTOPIC_ATOM_COUNT>
0

> <PUBCHEM_COMPONENT_COUNT>
1

> <PUBCHEM_CACTVS_TAUTO_COUNT>
4

> <PUBCHEM_COORDINATE_TYPE>
1
5
255

> <PUBCHEM_BONDANNOTATIONS>
17  10  5
15  2  6
18  3  6
19  4  5
20  5  6
16  9  5

$$$$

