53297450
  -OEChem-07051213153D

 50 51  0     1  0  0  0  0  0999 V2000
   -2.8215    0.6268   -0.2115 O   0  0  0  0  0  0  0  0  0  0  0  0
   -0.6907   -2.1808   -1.2285 O   0  0  0  0  0  0  0  0  0  0  0  0
   -2.5347   -3.3701    0.7257 O   0  0  0  0  0  0  0  0  0  0  0  0
   -5.1295   -2.1158    0.5677 O   0  0  0  0  0  0  0  0  0  0  0  0
    1.8944    3.6526    1.3488 O   0  0  0  0  0  0  0  0  0  0  0  0
   -4.5194    0.9899    1.9404 O   0  5  0  0  0  0  0  0  0  0  0  0
   -6.0051    1.2120    0.2147 O   0  0  0  0  0  0  0  0  0  0  0  0
    4.7014   -2.9415   -0.7808 O   0  0  0  0  0  0  0  0  0  0  0  0
   -0.6247    0.7860   -1.1130 N   0  3  0  0  0  0  0  0  0  0  0  0
    5.3346   -1.4536    0.5733 N   0  0  0  0  0  0  0  0  0  0  0  0
    5.2239   -1.8242   -0.6895 N   0  0  0  0  0  0  0  0  0  0  0  0
   -1.5412   -1.4459   -0.3490 C   0  0  1  0  0  0  0  0  0  0  0  0
   -1.8585   -0.0869   -0.9923 C   0  0  1  0  0  0  0  0  0  0  0  0
   -2.8238   -2.2481   -0.1106 C   0  0  2  0  0  0  0  0  0  0  0  0
   -3.8925   -1.4028    0.5849 C   0  0  1  0  0  0  0  0  0  0  0  0
   -4.0623   -0.0589   -0.1124 C   0  0  1  0  0  0  0  0  0  0  0  0
    0.0623    1.0910   -0.0037 C   0  0  0  0  0  0  0  0  0  0  0  0
    1.1952    1.8882   -0.0845 C   0  0  0  0  0  0  0  0  0  0  0  0
   -0.2607    1.2251   -2.3257 C   0  0  0  0  0  0  0  0  0  0  0  0
   -4.9481    0.7984    0.7689 C   0  0  0  0  0  0  0  0  0  0  0  0
    1.9662    2.2336    1.1412 C   0  0  1  0  0  0  0  0  0  0  0  0
    3.4573    1.8274    1.1005 C   0  0  0  0  0  0  0  0  0  0  0  0
    1.5966    2.3580   -1.3314 C   0  0  0  0  0  0  0  0  0  0  0  0
    0.8639    2.0254   -2.4669 C   0  0  0  0  0  0  0  0  0  0  0  0
    3.6579    0.3253    0.8797 C   0  0  0  0  0  0  0  0  0  0  0  0
    5.1441   -0.0255    0.8030 C   0  0  0  0  0  0  0  0  0  0  0  0
    6.6151   -1.8853    1.1510 C   0  0  0  0  0  0  0  0  0  0  0  0
   -1.0062   -1.3380    0.5995 H   0  0  0  0  0  0  0  0  0  0  0  0
   -2.2518   -0.2225   -2.0081 H   0  0  0  0  0  0  0  0  0  0  0  0
   -3.2092   -2.6602   -1.0507 H   0  0  0  0  0  0  0  0  0  0  0  0
   -3.6042   -1.2866    1.6375 H   0  0  0  0  0  0  0  0  0  0  0  0
   -4.5132   -0.1705   -1.1068 H   0  0  0  0  0  0  0  0  0  0  0  0
   -0.3166    0.7141    0.9380 H   0  0  0  0  0  0  0  0  0  0  0  0
   -1.1541   -2.2868   -2.0768 H   0  0  0  0  0  0  0  0  0  0  0  0
   -0.8689    0.9350   -3.1734 H   0  0  0  0  0  0  0  0  0  0  0  0
    1.5034    1.7670    2.0198 H   0  0  0  0  0  0  0  0  0  0  0  0
   -2.1700   -3.0379    1.5636 H   0  0  0  0  0  0  0  0  0  0  0  0
   -5.7689   -1.6173    1.1038 H   0  0  0  0  0  0  0  0  0  0  0  0
    3.9310    2.1287    2.0440 H   0  0  0  0  0  0  0  0  0  0  0  0
    3.9809    2.3952    0.3207 H   0  0  0  0  0  0  0  0  0  0  0  0
    2.4735    2.9906   -1.4372 H   0  0  0  0  0  0  0  0  0  0  0  0
    1.1654    2.3867   -3.4442 H   0  0  0  0  0  0  0  0  0  0  0  0
    3.1642    0.0162   -0.0487 H   0  0  0  0  0  0  0  0  0  0  0  0
    3.1835   -0.2305    1.6983 H   0  0  0  0  0  0  0  0  0  0  0  0
    5.6511    0.5790    0.0377 H   0  0  0  0  0  0  0  0  0  0  0  0
    5.5861    0.2694    1.7649 H   0  0  0  0  0  0  0  0  0  0  0  0
    2.3623    3.8503    2.1780 H   0  0  0  0  0  0  0  0  0  0  0  0
    6.6388   -1.6864    2.2291 H   0  0  0  0  0  0  0  0  0  0  0  0
    7.4703   -1.3777    0.6874 H   0  0  0  0  0  0  0  0  0  0  0  0
    6.7580   -2.9678    1.0400 H   0  0  0  0  0  0  0  0  0  0  0  0
  1 13  1  0  0  0  0
  1 16  1  0  0  0  0
  2 12  1  0  0  0  0
  2 34  1  0  0  0  0
  3 14  1  0  0  0  0
  3 37  1  0  0  0  0
  4 15  1  0  0  0  0
  4 38  1  0  0  0  0
  5 21  1  0  0  0  0
  5 47  1  0  0  0  0
  6 20  1  0  0  0  0
  7 20  2  0  0  0  0
  8 11  2  0  0  0  0
  9 13  1  0  0  0  0
  9 17  1  0  0  0  0
  9 19  2  0  0  0  0
 10 11  1  0  0  0  0
 10 26  1  0  0  0  0
 10 27  1  0  0  0  0
 12 13  1  0  0  0  0
 12 14  1  0  0  0  0
 12 28  1  0  0  0  0
 13 29  1  0  0  0  0
 14 15  1  0  0  0  0
 14 30  1  0  0  0  0
 15 16  1  0  0  0  0
 15 31  1  0  0  0  0
 16 20  1  0  0  0  0
 16 32  1  0  0  0  0
 17 18  2  0  0  0  0
 17 33  1  0  0  0  0
 18 21  1  0  0  0  0
 18 23  1  0  0  0  0
 19 24  1  0  0  0  0
 19 35  1  0  0  0  0
 21 22  1  0  0  0  0
 21 36  1  0  0  0  0
 22 25  1  0  0  0  0
 22 39  1  0  0  0  0
 22 40  1  0  0  0  0
 23 24  2  0  0  0  0
 23 41  1  0  0  0  0
 24 42  1  0  0  0  0
 25 26  1  0  0  0  0
 25 43  1  0  0  0  0
 25 44  1  0  0  0  0
 26 45  1  0  0  0  0
 26 46  1  0  0  0  0
 27 48  1  0  0  0  0
 27 49  1  0  0  0  0
 27 50  1  0  0  0  0
M  CHG  2   6  -1   9   1
M  END
> <PUBCHEM_COMPOUND_CID>
53297450

> <PUBCHEM_CONFORMER_RMSD>
1

> <PUBCHEM_CONFORMER_DIVERSEORDER>
5
15
129
92
88
29
67
150
55
153
6
41
112
95
32
118
123
135
35
154
137
113
77
156
102
96
61
76
138
133
127
119
111
21
70
73
148
38
104
103
121
78
63
34
98
57
142
20
47
42
141
68
128
151
65
130
108
60
48
30
44
18
120
74
56
36
66
132
45
125
79
81
97
160
157
144
11
49
139
147
10
117
71
101
52
23
59
69
72
8
14
89
91
84
155
1
145
152
109
39
126
99
93
75
131
90
114
116
37
158
80
58
161
87
9
64
2
28
40
106
94
86
33
25
17
12
82
50
115
16
13
140
136
19
51
146
24
7
26
54
27
143
122
105
4
31
107
100
159
124
22
85
46
110
83
3
62
43
149
53
134

> <PUBCHEM_MMFF94_PARTIAL_CHARGES>
33
1 -0.56
10 -0.36
11 -0.01
12 0.28
13 0.77
14 0.28
15 0.28
16 0.17
17 0.21
18 -0.14
19 0.21
2 -0.68
20 0.91
21 0.42
23 -0.15
24 -0.15
26 0.27
27 0.27
3 -0.68
33 0.15
34 0.4
35 0.15
37 0.4
38 0.4
4 -0.68
41 0.15
42 0.15
47 0.4
5 -0.68
6 -0.9
7 -0.9
8 -0.16
9 -0.21

> <PUBCHEM_EFFECTIVE_ROTOR_COUNT>
9.2

> <PUBCHEM_PHARMACOPHORE_FEATURES>
14
1 1 acceptor
1 2 acceptor
1 2 donor
1 3 acceptor
1 3 donor
1 4 acceptor
1 4 donor
1 5 acceptor
1 5 donor
1 6 acceptor
1 7 acceptor
3 6 7 20 anion
6 1 12 13 14 15 16 rings
6 9 17 18 19 23 24 rings

> <PUBCHEM_HEAVY_ATOM_COUNT>
27

> <PUBCHEM_ATOM_DEF_STEREO_COUNT>
5

> <PUBCHEM_ATOM_UDEF_STEREO_COUNT>
1

> <PUBCHEM_BOND_DEF_STEREO_COUNT>
0

> <PUBCHEM_BOND_UDEF_STEREO_COUNT>
0

> <PUBCHEM_ISOTOPIC_ATOM_COUNT>
0

> <PUBCHEM_COMPONENT_COUNT>
1

> <PUBCHEM_CACTVS_TAUTO_COUNT>
1

> <PUBCHEM_CONFORMER_ID>
032D412A00000005

> <PUBCHEM_MMFF94_ENERGY>
70.7686

> <PUBCHEM_FEATURE_SELFOVERLAP>
71.108

> <PUBCHEM_SHAPE_MULTIPOLES>
493.75
13.28
3.69
1.75
5.54
0.91
0.65
8.57
-6.03
2.18
-0.05
0.36
-1.12
0.33

> <PUBCHEM_SHAPE_SELFOVERLAP>
1019.957

> <PUBCHEM_SHAPE_VOLUME>
280.2

> <PUBCHEM_COORDINATE_TYPE>
2
5
10

$$$$

