442916
  -OEChem-07051213002D

 31 31  0     0  0  0  0  0  0999 V2000
    2.5369    0.0000    0.0000 O   0  0  0  0  0  0  0  0  0  0  0  0
    6.8671   -1.5000    0.0000 O   0  0  0  0  0  0  0  0  0  0  0  0
    4.2690    0.0000    0.0000 C   0  0  0  0  0  0  0  0  0  0  0  0
    4.2690    1.0000    0.0000 C   0  0  0  0  0  0  0  0  0  0  0  0
    5.1350   -0.5000    0.0000 C   0  0  0  0  0  0  0  0  0  0  0  0
    3.4030   -0.5000    0.0000 C   0  0  0  0  0  0  0  0  0  0  0  0
    5.1350   -1.5000    0.0000 C   0  0  0  0  0  0  0  0  0  0  0  0
    5.1350    1.5000    0.0000 C   0  0  0  0  0  0  0  0  0  0  0  0
    5.1350    2.5000    0.0000 C   0  0  0  0  0  0  0  0  0  0  0  0
    3.4030   -1.5000    0.0000 C   0  0  0  0  0  0  0  0  0  0  0  0
    4.2690   -2.0000    0.0000 C   0  0  0  0  0  0  0  0  0  0  0  0
    6.0010   -2.0000    0.0000 C   0  0  0  0  0  0  0  0  0  0  0  0
    6.0010    3.0000    0.0000 C   0  0  0  0  0  0  0  0  0  0  0  0
    4.2690    3.0000    0.0000 C   0  0  0  0  0  0  0  0  0  0  0  0
    6.0010   -3.0000    0.0000 C   0  0  0  0  0  0  0  0  0  0  0  0
    4.0569    1.5826    0.0000 H   0  0  0  0  0  0  0  0  0  0  0  0
    3.6584    0.8923    0.0000 H   0  0  0  0  0  0  0  0  0  0  0  0
    5.6720   -0.1900    0.0000 H   0  0  0  0  0  0  0  0  0  0  0  0
    5.6720    1.1900    0.0000 H   0  0  0  0  0  0  0  0  0  0  0  0
    2.8660   -1.8100    0.0000 H   0  0  0  0  0  0  0  0  0  0  0  0
    4.2690   -2.6200    0.0000 H   0  0  0  0  0  0  0  0  0  0  0  0
    6.3110    2.4631    0.0000 H   0  0  0  0  0  0  0  0  0  0  0  0
    6.5380    3.3100    0.0000 H   0  0  0  0  0  0  0  0  0  0  0  0
    4.5790    3.5369    0.0000 H   0  0  0  0  0  0  0  0  0  0  0  0
    3.7320    3.3100    0.0000 H   0  0  0  0  0  0  0  0  0  0  0  0
    3.9590    2.4631    0.0000 H   0  0  0  0  0  0  0  0  0  0  0  0
    5.6910    3.5369    0.0000 H   0  0  0  0  0  0  0  0  0  0  0  0
    5.3810   -3.0000    0.0000 H   0  0  0  0  0  0  0  0  0  0  0  0
    6.0010   -3.6200    0.0000 H   0  0  0  0  0  0  0  0  0  0  0  0
    6.6210   -3.0000    0.0000 H   0  0  0  0  0  0  0  0  0  0  0  0
    2.0000   -0.3100    0.0000 H   0  0  0  0  0  0  0  0  0  0  0  0
  1  6  1  0  0  0  0
  1 31  1  0  0  0  0
  2 12  2  0  0  0  0
  3  4  1  0  0  0  0
  3  5  1  0  0  0  0
  3  6  2  0  0  0  0
  4  8  1  0  0  0  0
  4 16  1  0  0  0  0
  4 17  1  0  0  0  0
  5  7  2  0  0  0  0
  5 18  1  0  0  0  0
  6 10  1  0  0  0  0
  7 11  1  0  0  0  0
  7 12  1  0  0  0  0
  8  9  2  0  0  0  0
  8 19  1  0  0  0  0
  9 13  1  0  0  0  0
  9 14  1  0  0  0  0
 10 11  2  0  0  0  0
 10 20  1  0  0  0  0
 11 21  1  0  0  0  0
 12 15  1  0  0  0  0
 13 22  1  0  0  0  0
 13 23  1  0  0  0  0
 13 27  1  0  0  0  0
 14 24  1  0  0  0  0
 14 25  1  0  0  0  0
 14 26  1  0  0  0  0
 15 28  1  0  0  0  0
 15 29  1  0  0  0  0
 15 30  1  0  0  0  0
M  END
> <PUBCHEM_COMPOUND_CID>
442916

> <PUBCHEM_COMPOUND_CANONICALIZED>
1

> <PUBCHEM_CACTVS_COMPLEXITY>
251

> <PUBCHEM_CACTVS_HBOND_ACCEPTOR>
2

> <PUBCHEM_CACTVS_HBOND_DONOR>
1

> <PUBCHEM_CACTVS_ROTATABLE_BOND>
3

> <PUBCHEM_CACTVS_SUBSKEYS>
AAADceBwMAAAAAAAAAAAAAAAAAAAAAAAAAAwAAAAAAAAAAABAAAAGgAACAAADASAmAAyBoAAAgCIAqBSAAACAAAkIAAIiAEGCMgIJjKCFRKAcQAkwBEImYeIzODOIAACAAAIAABAAAQAABAAAAAAAAAAAA==

> <PUBCHEM_IUPAC_OPENEYE_NAME>
1-[4-hydroxy-3-(3-methylbut-2-enyl)phenyl]ethanone

> <PUBCHEM_IUPAC_CAS_NAME>
1-[4-hydroxy-3-(3-methylbut-2-enyl)phenyl]ethanone

> <PUBCHEM_IUPAC_NAME>
1-[4-hydroxy-3-(3-methylbut-2-enyl)phenyl]ethanone

> <PUBCHEM_IUPAC_SYSTEMATIC_NAME>
1-[3-(3-methylbut-2-enyl)-4-oxidanyl-phenyl]ethanone

> <PUBCHEM_IUPAC_TRADITIONAL_NAME>
1-[4-hydroxy-3-(3-methylbut-2-enyl)phenyl]ethanone

> <PUBCHEM_IUPAC_INCHI>
InChI=1S/C13H16O2/c1-9(2)4-5-12-8-11(10(3)14)6-7-13(12)15/h4,6-8,15H,5H2,1-3H3

> <PUBCHEM_IUPAC_INCHIKEY>
QJAPFSSVKIZTMR-UHFFFAOYSA-N

> <PUBCHEM_XLOGP3_AA>
3.2

> <PUBCHEM_EXACT_MASS>
204.11503

> <PUBCHEM_MOLECULAR_FORMULA>
C13H16O2

> <PUBCHEM_MOLECULAR_WEIGHT>
204.26494

> <PUBCHEM_OPENEYE_CAN_SMILES>
CC(=CCC1=C(C=CC(=C1)C(=O)C)O)C

> <PUBCHEM_OPENEYE_ISO_SMILES>
CC(=CCC1=C(C=CC(=C1)C(=O)C)O)C

> <PUBCHEM_CACTVS_TPSA>
37.3

> <PUBCHEM_MONOISOTOPIC_WEIGHT>
204.11503

> <PUBCHEM_TOTAL_CHARGE>
0

> <PUBCHEM_HEAVY_ATOM_COUNT>
15

> <PUBCHEM_ATOM_DEF_STEREO_COUNT>
0

> <PUBCHEM_ATOM_UDEF_STEREO_COUNT>
0

> <PUBCHEM_BOND_DEF_STEREO_COUNT>
0

> <PUBCHEM_BOND_UDEF_STEREO_COUNT>
0

> <PUBCHEM_ISOTOPIC_ATOM_COUNT>
0

> <PUBCHEM_COMPONENT_COUNT>
1

> <PUBCHEM_CACTVS_TAUTO_COUNT>
9

> <PUBCHEM_COORDINATE_TYPE>
1
5
255

> <PUBCHEM_BONDANNOTATIONS>
10  11  8
3  5  8
3  6  8
5  7  8
6  10  8
7  11  8

$$$$

