54694369
  -OEChem-07051213113D

 26 26  0     1  0  0  0  0  0999 V2000
   -0.7037   -1.1907    0.7203 O   0  0  0  0  0  0  0  0  0  0  0  0
   -1.6110    0.2443   -1.4559 O   0  0  0  0  0  0  0  0  0  0  0  0
    2.4865    0.4201    0.2986 O   0  0  0  0  0  0  0  0  0  0  0  0
    0.2259    2.2779    0.8551 O   0  0  0  0  0  0  0  0  0  0  0  0
   -4.3392    0.0051   -1.0149 O   0  0  0  0  0  0  0  0  0  0  0  0
    1.2828   -2.2743    0.2777 O   0  0  0  0  0  0  0  0  0  0  0  0
   -1.1087    0.1831    0.8888 C   0  0  2  0  0  0  0  0  0  0  0  0
   -2.1540    0.5151   -0.1642 C   0  0  2  0  0  0  0  0  0  0  0  0
    0.1595    0.9215    0.7297 C   0  0  0  0  0  0  0  0  0  0  0  0
    1.1801    0.1047    0.4888 C   0  0  0  0  0  0  0  0  0  0  0  0
   -3.4110   -0.3278    0.0119 C   0  0  0  0  0  0  0  0  0  0  0  0
    0.6414   -1.2570    0.4727 C   0  0  0  0  0  0  0  0  0  0  0  0
    2.9468   -0.0009   -0.9798 C   0  0  0  0  0  0  0  0  0  0  0  0
    4.4046    0.3789   -1.1287 C   0  0  0  0  0  0  0  0  0  0  0  0
   -1.5089    0.3036    1.9017 H   0  0  0  0  0  0  0  0  0  0  0  0
   -2.4172    1.5785   -0.1451 H   0  0  0  0  0  0  0  0  0  0  0  0
   -3.1958   -1.3972   -0.0821 H   0  0  0  0  0  0  0  0  0  0  0  0
   -3.8792   -0.1378    0.9827 H   0  0  0  0  0  0  0  0  0  0  0  0
   -1.4017   -0.7044   -1.5006 H   0  0  0  0  0  0  0  0  0  0  0  0
    2.8671   -1.0858   -1.1004 H   0  0  0  0  0  0  0  0  0  0  0  0
    2.3609    0.4881   -1.7681 H   0  0  0  0  0  0  0  0  0  0  0  0
   -0.6647    2.5953    1.0832 H   0  0  0  0  0  0  0  0  0  0  0  0
   -5.1297   -0.5432   -0.8731 H   0  0  0  0  0  0  0  0  0  0  0  0
    4.5343    1.4607   -1.0186 H   0  0  0  0  0  0  0  0  0  0  0  0
    5.0084   -0.0951   -0.3478 H   0  0  0  0  0  0  0  0  0  0  0  0
    4.7906    0.0756   -2.1059 H   0  0  0  0  0  0  0  0  0  0  0  0
  1  7  1  0  0  0  0
  1 12  1  0  0  0  0
  2  8  1  0  0  0  0
  2 19  1  0  0  0  0
  3 10  1  0  0  0  0
  3 13  1  0  0  0  0
  4  9  1  0  0  0  0
  4 22  1  0  0  0  0
  5 11  1  0  0  0  0
  5 23  1  0  0  0  0
  6 12  2  0  0  0  0
  7  8  1  0  0  0  0
  7  9  1  0  0  0  0
  7 15  1  0  0  0  0
  8 11  1  0  0  0  0
  8 16  1  0  0  0  0
  9 10  2  0  0  0  0
 10 12  1  0  0  0  0
 11 17  1  0  0  0  0
 11 18  1  0  0  0  0
 13 14  1  0  0  0  0
 13 20  1  0  0  0  0
 13 21  1  0  0  0  0
 14 24  1  0  0  0  0
 14 25  1  0  0  0  0
 14 26  1  0  0  0  0
M  END
> <PUBCHEM_COMPOUND_CID>
54694369

> <PUBCHEM_CONFORMER_RMSD>
0.6

> <PUBCHEM_CONFORMER_DIVERSEORDER>
1
8
38
21
4
13
19
34
11
9
32
26
31
17
28
33
30
12
15
14
36
24
23
2
37
22
7
3
27
35
29
18
25
20
16
5
6
10

> <PUBCHEM_MMFF94_PARTIAL_CHARGES>
16
1 -0.43
10 0.09
11 0.28
12 0.71
13 0.28
19 0.4
2 -0.68
22 0.45
23 0.4
3 -0.36
4 -0.53
5 -0.68
6 -0.57
7 0.42
8 0.28
9 -0.06

> <PUBCHEM_EFFECTIVE_ROTOR_COUNT>
4.4

> <PUBCHEM_PHARMACOPHORE_FEATURES>
8
1 2 acceptor
1 2 donor
1 3 acceptor
1 4 donor
1 5 acceptor
1 5 donor
1 6 acceptor
5 1 7 9 10 12 rings

> <PUBCHEM_HEAVY_ATOM_COUNT>
14

> <PUBCHEM_ATOM_DEF_STEREO_COUNT>
2

> <PUBCHEM_ATOM_UDEF_STEREO_COUNT>
0

> <PUBCHEM_BOND_DEF_STEREO_COUNT>
0

> <PUBCHEM_BOND_UDEF_STEREO_COUNT>
0

> <PUBCHEM_ISOTOPIC_ATOM_COUNT>
0

> <PUBCHEM_COMPONENT_COUNT>
1

> <PUBCHEM_CACTVS_TAUTO_COUNT>
5

> <PUBCHEM_CONFORMER_ID>
034291E100000001

> <PUBCHEM_MMFF94_ENERGY>
23.8499

> <PUBCHEM_FEATURE_SELFOVERLAP>
40.605

> <PUBCHEM_SHAPE_FINGERPRINT>
11031198 65 18343304781654058895
11769659 78 15502375633899718924
12138202 97 17704067365792283283
12251169 10 8790880787558190989
12423570 1 17118317698601855777
14911166 2 18409445860520198916
14943859 89 16917064426299743060
14993402 34 17894351081556877493
15775835 57 17418086586325528516
16945 1 18409735045216322907
18186145 218 18409731729201286025
18534176 82 17489013873493231107
187816 3 18408595955628554796
20344682 1 17775002367063718167
20645476 183 17703221802938410738
20653085 51 17059477548985361476
21293036 1 18411132520137039484
21501502 16 18125724732046754553
21637258 2 15791737433265071860
228727 97 18261102019712483848
23114952 82 17914902173318784167
23402539 116 18261666065251967164
23402655 69 18340495559968772437
23552423 10 18053382390077269011
23557571 272 16629944582545675619
25 1 18342457053862323993
2748010 2 17978510836630366241
3060560 45 18335435538337409023
3250762 1 17615687336919113512
449060 23 17385721408899393365

> <PUBCHEM_SHAPE_MULTIPOLES>
252.9
6.17
1.52
1.16
0.45
0.22
0.26
-0.41
3.55
0.43
-0.5
-0.05
-0.16
-0.07

> <PUBCHEM_SHAPE_SELFOVERLAP>
515.553

> <PUBCHEM_SHAPE_VOLUME>
147

> <PUBCHEM_COORDINATE_TYPE>
2
5
10

$$$$

