583155
  -OEChem-06241222443D

 49 50  0     1  0  0  0  0  0999 V2000
    1.0531    0.1368   -0.4730 C   0  0  1  0  0  0  0  0  0  0  0  0
   -1.8030   -0.2338    0.4192 C   0  0  1  0  0  0  0  0  0  0  0  0
    0.5072   -1.1650    0.1307 C   0  0  0  0  0  0  0  0  0  0  0  0
   -0.9576   -1.3408   -0.2265 C   0  0  0  0  0  0  0  0  0  0  0  0
    0.1376    1.3258   -0.2069 C   0  0  0  0  0  0  0  0  0  0  0  0
   -1.2068    1.1515    0.2000 C   0  0  0  0  0  0  0  0  0  0  0  0
    2.4899    0.3312    0.0331 C   0  0  0  0  0  0  0  0  0  0  0  0
   -3.2456   -0.3782   -0.0876 C   0  0  0  0  0  0  0  0  0  0  0  0
    3.3542   -0.8777   -0.3005 C   0  0  0  0  0  0  0  0  0  0  0  0
   -3.7874   -1.7726    0.1988 C   0  0  0  0  0  0  0  0  0  0  0  0
    0.6142    2.6331   -0.4283 C   0  0  0  0  0  0  0  0  0  0  0  0
   -1.9871    2.2940    0.4666 C   0  0  0  0  0  0  0  0  0  0  0  0
    4.7914   -0.6673    0.1785 C   0  0  0  0  0  0  0  0  0  0  0  0
   -5.2331   -1.9025   -0.2798 C   0  0  0  0  0  0  0  0  0  0  0  0
   -0.1869    3.7486   -0.1888 C   0  0  0  0  0  0  0  0  0  0  0  0
   -1.4839    3.5791    0.2714 C   0  0  0  0  0  0  0  0  0  0  0  0
    5.6617   -1.8878   -0.1203 C   0  0  0  0  0  0  0  0  0  0  0  0
   -5.8008   -3.2787    0.0291 C   0  0  0  0  0  0  0  0  0  0  0  0
    7.0829   -1.6956    0.3843 C   0  0  0  0  0  0  0  0  0  0  0  0
    1.0817    0.0169   -1.5657 H   0  0  0  0  0  0  0  0  0  0  0  0
   -1.7978   -0.3955    1.5068 H   0  0  0  0  0  0  0  0  0  0  0  0
    1.0314   -2.0376   -0.2719 H   0  0  0  0  0  0  0  0  0  0  0  0
    0.6280   -1.1769    1.2217 H   0  0  0  0  0  0  0  0  0  0  0  0
   -1.2510   -2.3284    0.1433 H   0  0  0  0  0  0  0  0  0  0  0  0
   -1.0765   -1.3443   -1.3178 H   0  0  0  0  0  0  0  0  0  0  0  0
    2.4897    0.5082    1.1165 H   0  0  0  0  0  0  0  0  0  0  0  0
    2.9514    1.2110   -0.4279 H   0  0  0  0  0  0  0  0  0  0  0  0
   -3.2924   -0.1688   -1.1642 H   0  0  0  0  0  0  0  0  0  0  0  0
   -3.9061    0.3458    0.4013 H   0  0  0  0  0  0  0  0  0  0  0  0
    2.9898   -1.7801    0.1989 H   0  0  0  0  0  0  0  0  0  0  0  0
    3.3457   -1.0647   -1.3809 H   0  0  0  0  0  0  0  0  0  0  0  0
   -3.7300   -1.9864    1.2728 H   0  0  0  0  0  0  0  0  0  0  0  0
   -3.2163   -2.5433   -0.3269 H   0  0  0  0  0  0  0  0  0  0  0  0
    1.6193    2.8085   -0.8006 H   0  0  0  0  0  0  0  0  0  0  0  0
   -3.0029    2.2050    0.8407 H   0  0  0  0  0  0  0  0  0  0  0  0
    5.2185    0.2163   -0.3112 H   0  0  0  0  0  0  0  0  0  0  0  0
    4.7945   -0.4714    1.2579 H   0  0  0  0  0  0  0  0  0  0  0  0
   -5.8571   -1.1430    0.2057 H   0  0  0  0  0  0  0  0  0  0  0  0
   -5.2870   -1.7243   -1.3602 H   0  0  0  0  0  0  0  0  0  0  0  0
    0.2060    4.7466   -0.3582 H   0  0  0  0  0  0  0  0  0  0  0  0
   -2.1079    4.4441    0.4752 H   0  0  0  0  0  0  0  0  0  0  0  0
    5.6841   -2.0734   -1.2004 H   0  0  0  0  0  0  0  0  0  0  0  0
    5.2319   -2.7783    0.3532 H   0  0  0  0  0  0  0  0  0  0  0  0
   -6.8359   -3.3486   -0.3197 H   0  0  0  0  0  0  0  0  0  0  0  0
   -5.2215   -4.0633   -0.4682 H   0  0  0  0  0  0  0  0  0  0  0  0
   -5.7913   -3.4746    1.1061 H   0  0  0  0  0  0  0  0  0  0  0  0
    7.5546   -0.8302   -0.0921 H   0  0  0  0  0  0  0  0  0  0  0  0
    7.6879   -2.5794    0.1587 H   0  0  0  0  0  0  0  0  0  0  0  0
    7.0971   -1.5418    1.4681 H   0  0  0  0  0  0  0  0  0  0  0  0
  1  3  1  0  0  0  0
  1  5  1  0  0  0  0
  1  7  1  0  0  0  0
  1 20  1  0  0  0  0
  2  4  1  0  0  0  0
  2  6  1  0  0  0  0
  2  8  1  0  0  0  0
  2 21  1  0  0  0  0
  3  4  1  0  0  0  0
  3 22  1  0  0  0  0
  3 23  1  0  0  0  0
  4 24  1  0  0  0  0
  4 25  1  0  0  0  0
  5  6  1  0  0  0  0
  5 11  2  0  0  0  0
  6 12  2  0  0  0  0
  7  9  1  0  0  0  0
  7 26  1  0  0  0  0
  7 27  1  0  0  0  0
  8 10  1  0  0  0  0
  8 28  1  0  0  0  0
  8 29  1  0  0  0  0
  9 13  1  0  0  0  0
  9 30  1  0  0  0  0
  9 31  1  0  0  0  0
 10 14  1  0  0  0  0
 10 32  1  0  0  0  0
 10 33  1  0  0  0  0
 11 15  1  0  0  0  0
 11 34  1  0  0  0  0
 12 16  1  0  0  0  0
 12 35  1  0  0  0  0
 13 17  1  0  0  0  0
 13 36  1  0  0  0  0
 13 37  1  0  0  0  0
 14 18  1  0  0  0  0
 14 38  1  0  0  0  0
 14 39  1  0  0  0  0
 15 16  2  0  0  0  0
 15 40  1  0  0  0  0
 16 41  1  0  0  0  0
 17 19  1  0  0  0  0
 17 42  1  0  0  0  0
 17 43  1  0  0  0  0
 18 44  1  0  0  0  0
 18 45  1  0  0  0  0
 18 46  1  0  0  0  0
 19 47  1  0  0  0  0
 19 48  1  0  0  0  0
 19 49  1  0  0  0  0
M  END
> <PUBCHEM_COMPOUND_CID>
583155

> <PUBCHEM_CONFORMER_RMSD>
0.8

> <PUBCHEM_CONFORMER_DIVERSEORDER>
1
57
157
51
6
181
167
55
32
64
4
44
117
171
96
93
7
128
82
110
177
56
38
58
48
125
162
45
161
9
111
20
67
68
136
28
175
87
41
101
95
33
50
8
158
39
21
106
98
152
137
70
43
149
79
36
60
124
141
42
120
15
23
30
81
40
116
118
130
18
104
115
22
145
16
86
46
154
91
107
159
31
72
176
155
90
179
49
10
139
109
147
59
102
83
5
131
170
144
61
172
29
165
66
173
121
78
88
99
13
19
178
54
156
127
74
97
69
160
85
180
11
89
126
2
108
166
134
12
140
174
3
25
151
103
119
65
84
112
62
146
76
35
14
27
47
75
73
168
100
34
24
80
133
150
123
169
148
163
94
113
63
37
142
26
114
138
105
153
129
52
53
164
17
143
132
122
92
135
77
71

> <PUBCHEM_MMFF94_PARTIAL_CHARGES>
12
1 0.14
11 -0.15
12 -0.15
15 -0.15
16 -0.15
2 0.14
34 0.15
35 0.15
40 0.15
41 0.15
5 -0.14
6 -0.14

> <PUBCHEM_EFFECTIVE_ROTOR_COUNT>
7.8

> <PUBCHEM_PHARMACOPHORE_FEATURES>
5
1 18 hydrophobe
1 19 hydrophobe
4 7 9 13 17 hydrophobe
6 1 2 3 4 5 6 rings
6 5 6 11 12 15 16 rings

> <PUBCHEM_HEAVY_ATOM_COUNT>
19

> <PUBCHEM_ATOM_DEF_STEREO_COUNT>
0

> <PUBCHEM_ATOM_UDEF_STEREO_COUNT>
2

> <PUBCHEM_BOND_DEF_STEREO_COUNT>
0

> <PUBCHEM_BOND_UDEF_STEREO_COUNT>
0

> <PUBCHEM_ISOTOPIC_ATOM_COUNT>
0

> <PUBCHEM_COMPONENT_COUNT>
1

> <PUBCHEM_CACTVS_TAUTO_COUNT>
1

> <PUBCHEM_CONFORMER_ID>
0008E5F300000001

> <PUBCHEM_MMFF94_ENERGY>
34.1457

> <PUBCHEM_FEATURE_SELFOVERLAP>
25.392

> <PUBCHEM_SHAPE_FINGERPRINT>
10319926 262 18120392084474823570
10411042 1 18410573951076711779
11265709 11 18411135818682478867
11315181 36 18201718514110420390
12107183 9 18335124386054749971
12166972 35 17917710167128597638
12403259 226 18335143111436959416
12760667 363 18343016688127918891
13004483 165 18336272253822427870
13140716 1 18335697260754861161
13257819 101 5111460710188335515
13540713 5 18268408218413177420
13631057 29 18412828023408359170
13862211 1 18410573955166548439
13955234 65 17687178700107685225
14508225 48 18412271635468855037
15042514 8 18337388343749477861
16087824 20 18195246840415654229
17539 30 18338241573790328533
1813 80 18188757375645698503
20645477 70 18052824642141613051
20832881 197 18342736265950705291
21236236 1 18263927799092723852
21267235 1 18411413990618952883
21426921 1 18338234998147606944
21478907 32 18411136952490593399
221490 88 17908981007552229531
2297311 6 18335413613120212974
23402539 116 18408325505479673039
23557571 272 18116149051163334140
23559900 14 18340774719298721008
23622692 118 18412824698971634332
25147074 1 18268972280836708572
2748010 2 17331940125120394957
283562 15 18342176721389508562
335352 9 18411419536249452773
3421961 26 18192712250488637033
4214541 1 18266458905467921776
5924683 9 18339081622259094202
7364860 26 17977101263056210605
7471813 234 18188774925462253333
77188 2 18338234860540387653
7970288 3 18410857629114104871

> <PUBCHEM_SHAPE_MULTIPOLES>
391.01
12.31
4.34
0.69
13.41
3.6
0
-18.05
0.78
-4.13
0.02
0.02
0.04
-0.46

> <PUBCHEM_SHAPE_SELFOVERLAP>
785.869

> <PUBCHEM_SHAPE_VOLUME>
224.1

> <PUBCHEM_COORDINATE_TYPE>
2
5
10

$$$$

