65188
  -OEChem-07051212573D

 29 31  0     0  0  0  0  0  0999 V2000
   -2.1483    1.1425   -0.0051 O   0  0  0  0  0  0  0  0  0  0  0  0
    2.5923    1.2486   -0.0016 O   0  0  0  0  0  0  0  0  0  0  0  0
    4.8817    1.3211    0.0017 O   0  0  0  0  0  0  0  0  0  0  0  0
   -3.4148    0.4496    0.0013 C   0  0  0  0  0  0  0  0  0  0  0  0
   -0.9901    0.4175   -0.0029 C   0  0  0  0  0  0  0  0  0  0  0  0
   -0.9514   -0.9804   -0.0017 C   0  0  0  0  0  0  0  0  0  0  0  0
   -3.3438   -1.0591   -0.0006 C   0  0  0  0  0  0  0  0  0  0  0  0
   -4.1564    0.9190    1.2586 C   0  0  0  0  0  0  0  0  0  0  0  0
   -4.1712    0.9218   -1.2462 C   0  0  0  0  0  0  0  0  0  0  0  0
   -2.1931   -1.7350   -0.0021 C   0  0  0  0  0  0  0  0  0  0  0  0
    0.2852   -1.6442   -0.0002 C   0  0  0  0  0  0  0  0  0  0  0  0
    0.1962    1.1529   -0.0032 C   0  0  0  0  0  0  0  0  0  0  0  0
    1.4766   -0.9135   -0.0002 C   0  0  0  0  0  0  0  0  0  0  0  0
    1.4133    0.4758   -0.0018 C   0  0  0  0  0  0  0  0  0  0  0  0
    2.7800   -1.5556    0.0015 C   0  0  0  0  0  0  0  0  0  0  0  0
    3.8928   -0.8175    0.0019 C   0  0  0  0  0  0  0  0  0  0  0  0
    3.8511    0.6566    0.0007 C   0  0  0  0  0  0  0  0  0  0  0  0
   -4.2778   -1.6159    0.0000 H   0  0  0  0  0  0  0  0  0  0  0  0
   -5.1675    0.5013    1.3197 H   0  0  0  0  0  0  0  0  0  0  0  0
   -4.2337    2.0124    1.2813 H   0  0  0  0  0  0  0  0  0  0  0  0
   -3.6098    0.6304    2.1645 H   0  0  0  0  0  0  0  0  0  0  0  0
   -3.6352    0.6352   -2.1591 H   0  0  0  0  0  0  0  0  0  0  0  0
   -4.2486    2.0153   -1.2657 H   0  0  0  0  0  0  0  0  0  0  0  0
   -5.1829    0.5043   -1.2964 H   0  0  0  0  0  0  0  0  0  0  0  0
   -2.1715   -2.8182   -0.0029 H   0  0  0  0  0  0  0  0  0  0  0  0
    0.3175   -2.7323    0.0009 H   0  0  0  0  0  0  0  0  0  0  0  0
    0.1723    2.2391   -0.0044 H   0  0  0  0  0  0  0  0  0  0  0  0
    2.8337   -2.6386    0.0026 H   0  0  0  0  0  0  0  0  0  0  0  0
    4.8693   -1.2896    0.0034 H   0  0  0  0  0  0  0  0  0  0  0  0
  1  4  1  0  0  0  0
  1  5  1  0  0  0  0
  2 14  1  0  0  0  0
  2 17  1  0  0  0  0
  3 17  2  0  0  0  0
  4  7  1  0  0  0  0
  4  8  1  0  0  0  0
  4  9  1  0  0  0  0
  5  6  2  0  0  0  0
  5 12  1  0  0  0  0
  6 10  1  0  0  0  0
  6 11  1  0  0  0  0
  7 10  2  0  0  0  0
  7 18  1  0  0  0  0
  8 19  1  0  0  0  0
  8 20  1  0  0  0  0
  8 21  1  0  0  0  0
  9 22  1  0  0  0  0
  9 23  1  0  0  0  0
  9 24  1  0  0  0  0
 10 25  1  0  0  0  0
 11 13  2  0  0  0  0
 11 26  1  0  0  0  0
 12 14  2  0  0  0  0
 12 27  1  0  0  0  0
 13 14  1  0  0  0  0
 13 15  1  0  0  0  0
 15 16  2  0  0  0  0
 15 28  1  0  0  0  0
 16 17  1  0  0  0  0
 16 29  1  0  0  0  0
M  END
> <PUBCHEM_COMPOUND_CID>
65188

> <PUBCHEM_CONFORMER_RMSD>
0.4

> <PUBCHEM_CONFORMER_DIVERSEORDER>
1

> <PUBCHEM_MMFF94_PARTIAL_CHARGES>
21
1 -0.36
10 -0.18
11 -0.15
12 -0.15
13 0.03
14 0.08
15 -0.18
16 -0.14
17 0.71
18 0.15
2 -0.23
25 0.15
26 0.15
27 0.15
28 0.15
29 0.15
3 -0.57
4 0.42
5 0.08
6 0.03
7 -0.29

> <PUBCHEM_EFFECTIVE_ROTOR_COUNT>
0.4

> <PUBCHEM_PHARMACOPHORE_FEATURES>
6
1 1 acceptor
1 3 acceptor
3 4 8 9 hydrophobe
6 1 4 5 6 7 10 rings
6 2 13 14 15 16 17 rings
6 5 6 11 12 13 14 rings

> <PUBCHEM_HEAVY_ATOM_COUNT>
17

> <PUBCHEM_ATOM_DEF_STEREO_COUNT>
0

> <PUBCHEM_ATOM_UDEF_STEREO_COUNT>
0

> <PUBCHEM_BOND_DEF_STEREO_COUNT>
0

> <PUBCHEM_BOND_UDEF_STEREO_COUNT>
0

> <PUBCHEM_ISOTOPIC_ATOM_COUNT>
0

> <PUBCHEM_COMPONENT_COUNT>
1

> <PUBCHEM_CACTVS_TAUTO_COUNT>
1

> <PUBCHEM_CONFORMER_ID>
0000FEA400000001

> <PUBCHEM_MMFF94_ENERGY>
57.4439

> <PUBCHEM_FEATURE_SELFOVERLAP>
30.503

> <PUBCHEM_SHAPE_FINGERPRINT>
10014705 185 18272376373431346661
10608611 8 18411985753834202956
10967382 1 18410574032607341318
11132069 177 18413113857069681464
11471102 20 18409735079644678294
11543360 7 15792022138062547668
12236239 1 17894632595684341129
12403814 3 17989769999292749381
13140716 1 18410853269753227315
13221675 6 18411139151318754578
13380535 76 18409730668370776630
13583140 156 16774087262733865609
13675066 3 17847055610141493507
13760787 5 18335422412806413437
14144814 61 18409728477916031939
14289901 80 16343409683309644211
14897335 6 18410015433339674934
14943859 89 18342739623955513803
15196674 1 18410855460165364390
15219456 202 18412544318604942039
15309172 13 18410851096926945739
15375358 24 18411421721622928038
15442244 35 18193275423764702394
15536298 74 18335137605299240318
16945 1 18266459987151009251
18186145 218 18410851096541758934
200 152 17603589629390176831
20645477 56 18273498966023733605
20645477 70 18336550520184534870
21267235 1 18410283709818919170
21501502 16 18409450258530033623
231179 274 17918002701688020213
23402539 116 17603307072039697916
23402655 69 18334298677473495348
23463225 33 18412825793824200318
23559900 14 18335138709443523438
2748010 2 18410852127328797559
296302 2 18411418405849997350
335352 9 18266740371037319550
34934 24 18341339945579462806
350125 39 18266735788797467523
3545911 37 18411135827129904206
4028521 119 18343028817362936949
474 4 17703223993440206044
4990 188 17895182312669197294
5104073 3 18411138026274785274
53812653 166 18334860489550727048
633830 44 18041834125014042327
69090 78 18335707152027094239
7364860 26 18263925600164940110
77779 3 18410008836370147986
9709674 26 18410288086628113662

> <PUBCHEM_SHAPE_MULTIPOLES>
332.24
8.73
1.77
0.79
1.95
0.39
0
-2.56
-0.01
0.25
0
-0.82
-0.15
0

> <PUBCHEM_SHAPE_SELFOVERLAP>
734.288

> <PUBCHEM_SHAPE_VOLUME>
179.3

> <PUBCHEM_COORDINATE_TYPE>
2
5
10

$$$$

