3415
  -OEChem-07051212513D

 10  9  0     0  0  0  0  0  0999 V2000
   -0.7096   -0.0151   -0.0918 P   0  0  0  0  0  0  0  0  0  0  0  0
   -1.1603   -1.2916    0.7990 O   0  0  0  0  0  0  0  0  0  0  0  0
   -1.2736    1.2210    0.7918 O   0  0  0  0  0  0  0  0  0  0  0  0
   -1.2538   -0.0439   -1.4925 O   0  0  0  0  0  0  0  0  0  0  0  0
    1.7499   -1.1031    0.0053 O   0  0  0  0  0  0  0  0  0  0  0  0
    1.5859    1.1683    0.0045 O   0  0  0  0  0  0  0  0  0  0  0  0
    1.0615    0.0644   -0.0164 C   0  0  0  0  0  0  0  0  0  0  0  0
   -2.1074   -1.5462    0.8149 H   0  0  0  0  0  0  0  0  0  0  0  0
   -2.2399    1.3893    0.8063 H   0  0  0  0  0  0  0  0  0  0  0  0
    2.7191   -0.9561    0.0434 H   0  0  0  0  0  0  0  0  0  0  0  0
  1  2  1  0  0  0  0
  1  3  1  0  0  0  0
  1  4  2  0  0  0  0
  1  7  1  0  0  0  0
  2  8  1  0  0  0  0
  3  9  1  0  0  0  0
  5  7  1  0  0  0  0
  5 10  1  0  0  0  0
  6  7  2  0  0  0  0
M  END
> <PUBCHEM_COMPOUND_CID>
3415

> <PUBCHEM_CONFORMER_RMSD>
0.4

> <PUBCHEM_CONFORMER_DIVERSEORDER>
1

> <PUBCHEM_MMFF94_PARTIAL_CHARGES>
10
1 1.35
10 0.5
2 -0.77
3 -0.77
4 -0.7
5 -0.65
6 -0.57
7 0.61
8 0.5
9 0.5

> <PUBCHEM_EFFECTIVE_ROTOR_COUNT>
1

> <PUBCHEM_PHARMACOPHORE_FEATURES>
7
1 2 acceptor
1 3 acceptor
1 4 acceptor
1 5 acceptor
1 6 acceptor
3 5 6 7 anion
4 1 2 3 4 anion

> <PUBCHEM_HEAVY_ATOM_COUNT>
7

> <PUBCHEM_ATOM_DEF_STEREO_COUNT>
0

> <PUBCHEM_ATOM_UDEF_STEREO_COUNT>
0

> <PUBCHEM_BOND_DEF_STEREO_COUNT>
0

> <PUBCHEM_BOND_UDEF_STEREO_COUNT>
0

> <PUBCHEM_ISOTOPIC_ATOM_COUNT>
0

> <PUBCHEM_COMPONENT_COUNT>
1

> <PUBCHEM_CACTVS_TAUTO_COUNT>
1

> <PUBCHEM_CONFORMER_ID>
00000D5700000001

> <PUBCHEM_MMFF94_ENERGY>
-27.7449

> <PUBCHEM_FEATURE_SELFOVERLAP>
35.634

> <PUBCHEM_SHAPE_FINGERPRINT>
137420 1 6039383540680062239
20096714 4 18261946465853805528
24536 1 18411426093968012336
29004967 10 18120935005908637403
5943 1 16085302399680482951

> <PUBCHEM_SHAPE_MULTIPOLES>
118.56
2.11
1.27
0.99
0.61
0.01
0.28
0.03
0
0.06
-0.32
-0.54
0.02
-0.01

> <PUBCHEM_SHAPE_SELFOVERLAP>
206.977

> <PUBCHEM_SHAPE_VOLUME>
78.2

> <PUBCHEM_COORDINATE_TYPE>
2
5
10

$$$$

