235090
  -OEChem-07051213073D

 57 60  0     1  0  0  0  0  0999 V2000
    3.4869    2.9633    0.0730 F   0  0  0  0  0  0  0  0  0  0  0  0
   -4.2314   -0.5951    0.0984 O   0  0  0  0  0  0  0  0  0  0  0  0
    6.5352   -0.5908   -1.2861 O   0  0  0  0  0  0  0  0  0  0  0  0
   -5.5974    0.6626   -1.2715 O   0  0  0  0  0  0  0  0  0  0  0  0
   -0.8835    0.8553   -0.1509 C   0  0  2  0  0  0  0  0  0  0  0  0
   -1.7700   -0.3273    0.2870 C   0  0  2  0  0  0  0  0  0  0  0  0
    0.5372    0.7699    0.4146 C   0  0  1  0  0  0  0  0  0  0  0  0
    1.2004   -0.5506   -0.0891 C   0  0  1  0  0  0  0  0  0  0  0  0
    2.6910   -0.7140    0.4029 C   0  0  2  0  0  0  0  0  0  0  0  0
   -1.1530   -1.6147   -0.2739 C   0  0  0  0  0  0  0  0  0  0  0  0
    0.3053   -1.7908    0.1877 C   0  0  0  0  0  0  0  0  0  0  0  0
   -3.0942    0.0962   -0.3809 C   0  0  2  0  0  0  0  0  0  0  0  0
   -1.7393    2.0793    0.1661 C   0  0  0  0  0  0  0  0  0  0  0  0
    1.3818    1.9751   -0.0092 C   0  0  0  0  0  0  0  0  0  0  0  0
   -3.1788    1.6138   -0.1210 C   0  0  0  0  0  0  0  0  0  0  0  0
    3.4728    0.5771    0.1163 C   0  0  0  0  0  0  0  0  0  0  0  0
   -1.9483   -0.4650    1.8199 C   0  0  0  0  0  0  0  0  0  0  0  0
    2.8031    1.8701    0.5230 C   0  0  1  0  0  0  0  0  0  0  0  0
    3.3294   -1.9070   -0.3668 C   0  0  0  0  0  0  0  0  0  0  0  0
    2.7703   -0.9981    1.9202 C   0  0  0  0  0  0  0  0  0  0  0  0
    4.8461   -1.9510   -0.2738 C   0  0  0  0  0  0  0  0  0  0  0  0
    4.6955    0.6009   -0.4408 C   0  0  0  0  0  0  0  0  0  0  0  0
    5.4360   -0.6467   -0.7384 C   0  0  0  0  0  0  0  0  0  0  0  0
   -5.4393   -0.2135   -0.4324 C   0  0  0  0  0  0  0  0  0  0  0  0
   -6.5437   -1.0430    0.1793 C   0  0  0  0  0  0  0  0  0  0  0  0
   -7.9120   -0.6557   -0.3538 C   0  0  0  0  0  0  0  0  0  0  0  0
   -0.7878    0.8302   -1.2497 H   0  0  0  0  0  0  0  0  0  0  0  0
    0.4893    0.7665    1.5090 H   0  0  0  0  0  0  0  0  0  0  0  0
    1.2453   -0.4622   -1.1871 H   0  0  0  0  0  0  0  0  0  0  0  0
   -1.1695   -1.5938   -1.3714 H   0  0  0  0  0  0  0  0  0  0  0  0
   -1.7432   -2.4890    0.0261 H   0  0  0  0  0  0  0  0  0  0  0  0
    0.3135   -2.0341    1.2547 H   0  0  0  0  0  0  0  0  0  0  0  0
    0.7109   -2.6672   -0.3298 H   0  0  0  0  0  0  0  0  0  0  0  0
   -3.0207   -0.0777   -1.4642 H   0  0  0  0  0  0  0  0  0  0  0  0
   -1.4687    2.9405   -0.4533 H   0  0  0  0  0  0  0  0  0  0  0  0
   -1.6368    2.3799    1.2147 H   0  0  0  0  0  0  0  0  0  0  0  0
    0.9376    2.9068    0.3610 H   0  0  0  0  0  0  0  0  0  0  0  0
    1.4039    2.0672   -1.1030 H   0  0  0  0  0  0  0  0  0  0  0  0
   -3.8359    1.8594    0.7209 H   0  0  0  0  0  0  0  0  0  0  0  0
   -3.5678    2.1371   -1.0015 H   0  0  0  0  0  0  0  0  0  0  0  0
   -2.4275    0.4132    2.2638 H   0  0  0  0  0  0  0  0  0  0  0  0
   -2.5821   -1.3280    2.0555 H   0  0  0  0  0  0  0  0  0  0  0  0
   -1.0023   -0.6112    2.3473 H   0  0  0  0  0  0  0  0  0  0  0  0
    2.7950    1.9398    1.6166 H   0  0  0  0  0  0  0  0  0  0  0  0
    3.0569   -1.8441   -1.4297 H   0  0  0  0  0  0  0  0  0  0  0  0
    2.9325   -2.8616   -0.0010 H   0  0  0  0  0  0  0  0  0  0  0  0
    2.2138   -0.2632    2.5100 H   0  0  0  0  0  0  0  0  0  0  0  0
    2.3706   -1.9873    2.1670 H   0  0  0  0  0  0  0  0  0  0  0  0
    3.8055   -0.9746    2.2804 H   0  0  0  0  0  0  0  0  0  0  0  0
    5.2221   -2.7524   -0.9195 H   0  0  0  0  0  0  0  0  0  0  0  0
    5.1868   -2.1483    0.7473 H   0  0  0  0  0  0  0  0  0  0  0  0
    5.2183    1.5297   -0.6425 H   0  0  0  0  0  0  0  0  0  0  0  0
   -6.3502   -2.0968   -0.0467 H   0  0  0  0  0  0  0  0  0  0  0  0
   -6.5235   -0.8990    1.2647 H   0  0  0  0  0  0  0  0  0  0  0  0
   -7.9649   -0.7943   -1.4388 H   0  0  0  0  0  0  0  0  0  0  0  0
   -8.6896   -1.2716    0.1083 H   0  0  0  0  0  0  0  0  0  0  0  0
   -8.1345    0.3949   -0.1394 H   0  0  0  0  0  0  0  0  0  0  0  0
  1 18  1  0  0  0  0
  2 12  1  0  0  0  0
  2 24  1  0  0  0  0
  3 23  2  0  0  0  0
  4 24  2  0  0  0  0
  5  6  1  0  0  0  0
  5  7  1  0  0  0  0
  5 13  1  0  0  0  0
  5 27  1  0  0  0  0
  6 10  1  0  0  0  0
  6 12  1  0  0  0  0
  6 17  1  0  0  0  0
  7  8  1  0  0  0  0
  7 14  1  0  0  0  0
  7 28  1  0  0  0  0
  8  9  1  0  0  0  0
  8 11  1  0  0  0  0
  8 29  1  0  0  0  0
  9 16  1  0  0  0  0
  9 19  1  0  0  0  0
  9 20  1  0  0  0  0
 10 11  1  0  0  0  0
 10 30  1  0  0  0  0
 10 31  1  0  0  0  0
 11 32  1  0  0  0  0
 11 33  1  0  0  0  0
 12 15  1  0  0  0  0
 12 34  1  0  0  0  0
 13 15  1  0  0  0  0
 13 35  1  0  0  0  0
 13 36  1  0  0  0  0
 14 18  1  0  0  0  0
 14 37  1  0  0  0  0
 14 38  1  0  0  0  0
 15 39  1  0  0  0  0
 15 40  1  0  0  0  0
 16 18  1  0  0  0  0
 16 22  2  0  0  0  0
 17 41  1  0  0  0  0
 17 42  1  0  0  0  0
 17 43  1  0  0  0  0
 18 44  1  0  0  0  0
 19 21  1  0  0  0  0
 19 45  1  0  0  0  0
 19 46  1  0  0  0  0
 20 47  1  0  0  0  0
 20 48  1  0  0  0  0
 20 49  1  0  0  0  0
 21 23  1  0  0  0  0
 21 50  1  0  0  0  0
 21 51  1  0  0  0  0
 22 23  1  0  0  0  0
 22 52  1  0  0  0  0
 24 25  1  0  0  0  0
 25 26  1  0  0  0  0
 25 53  1  0  0  0  0
 25 54  1  0  0  0  0
 26 55  1  0  0  0  0
 26 56  1  0  0  0  0
 26 57  1  0  0  0  0
M  END
> <PUBCHEM_COMPOUND_CID>
235090

> <PUBCHEM_CONFORMER_RMSD>
0.8

> <PUBCHEM_CONFORMER_DIVERSEORDER>
1
2
5
4
3

> <PUBCHEM_MMFF94_PARTIAL_CHARGES>
14
1 -0.34
12 0.28
16 -0.28
18 0.48
2 -0.43
21 0.06
22 -0.14
23 0.49
24 0.66
25 0.06
3 -0.57
4 -0.57
52 0.15
9 0.14

> <PUBCHEM_EFFECTIVE_ROTOR_COUNT>
4.8

> <PUBCHEM_PHARMACOPHORE_FEATURES>
7
1 26 hydrophobe
1 3 acceptor
1 4 acceptor
5 5 6 12 13 15 rings
6 5 6 7 8 10 11 rings
6 7 8 9 14 16 18 rings
6 9 16 19 21 22 23 rings

> <PUBCHEM_HEAVY_ATOM_COUNT>
26

> <PUBCHEM_ATOM_DEF_STEREO_COUNT>
7

> <PUBCHEM_ATOM_UDEF_STEREO_COUNT>
0

> <PUBCHEM_BOND_DEF_STEREO_COUNT>
0

> <PUBCHEM_BOND_UDEF_STEREO_COUNT>
0

> <PUBCHEM_ISOTOPIC_ATOM_COUNT>
0

> <PUBCHEM_COMPONENT_COUNT>
1

> <PUBCHEM_CACTVS_TAUTO_COUNT>
2

> <PUBCHEM_CONFORMER_ID>
0003965200000001

> <PUBCHEM_MMFF94_ENERGY>
71.9618

> <PUBCHEM_FEATURE_SELFOVERLAP>
35.616

> <PUBCHEM_SHAPE_FINGERPRINT>
10366900 7 17917706924602206328
10411042 1 18193557990233169046
11963148 33 18410019819040569391
12011746 2 18343017800492273662
12166972 35 17822009813192209016
12236239 1 17846780749346048295
12403259 415 18202573877837231821
12788726 201 18341054120049152553
13533116 47 18040998405945975272
13685833 64 18187363242367857886
13862211 1 18409731802342324066
14170010 4 18333734598444809008
14294032 229 16734928259543345793
14931854 50 18342449392184156134
15142383 8 5256409370632182923
15183329 4 18411138065330156825
15196674 1 18338236067241068248
15475509 35 14418686048221895702
17349148 13 17458061573135863117
17844677 252 18409163333893932557
18681886 176 18334581239456824448
200 152 18040718082468554945
20028762 73 18186523215437511831
2026 5 17170098495345666110
20645477 70 18411421696101083020
21150785 3 16056875819693701855
21267235 1 18335697247869173047
21279426 13 18340777030730013949
21792961 116 18129366233771533278
221357 26 18409729577654629868
22149856 69 18335690604361959755
22393880 68 18272097152980338893
23522609 53 18118934032312561649
23559900 14 18337957792110042760
239999 70 18411983555069494754
2871803 45 18272652355039546496
29717793 49 17894909628900067925
300161 21 11743836958768577041
3004659 81 18342742909832419849
335352 9 18410007715979705150
34797466 226 17530680996926913636
350125 39 18409728499718253681
3545911 37 18272370850055950503
3633792 109 18333170574496661545
4073 2 18059573517464049699
4325135 7 18186801388000420927
46194498 28 18335135397680769532
465052 167 18259701198664298279
484989 97 18269546161555725387
5104073 3 18262244425089163257
53794403 172 17986668173542917580
9709674 26 18341331093709849290

> <PUBCHEM_SHAPE_MULTIPOLES>
510.19
15.33
2.22
1.07
17.45
0.91
-0.38
-4.51
4.78
-1.73
-0.04
-0.34
-0.21
0.43

> <PUBCHEM_SHAPE_SELFOVERLAP>
1087.251

> <PUBCHEM_SHAPE_VOLUME>
285

> <PUBCHEM_COORDINATE_TYPE>
2
5
10

$$$$

