376
  -OEChem-07051213082D

 20 19  0     1  0  0  0  0  0999 V2000
    4.5981   -0.5950    0.0000 O   0  0  0  0  0  0  0  0  0  0  0  0
    2.8660   -0.5950    0.0000 O   0  0  0  0  0  0  0  0  0  0  0  0
    7.1962    0.9050    0.0000 O   0  0  0  0  0  0  0  0  0  0  0  0
    6.3301   -0.5950    0.0000 O   0  0  0  0  0  0  0  0  0  0  0  0
    4.5981    0.4050    0.0000 C   0  0  3  0  0  0  0  0  0  0  0  0
    3.7320    0.9050    0.0000 C   0  0  0  0  0  0  0  0  0  0  0  0
    5.4641    0.9050    0.0000 C   0  0  0  0  0  0  0  0  0  0  0  0
    2.8660    0.4050    0.0000 C   0  0  0  0  0  0  0  0  0  0  0  0
    6.3301    0.4050    0.0000 C   0  0  0  0  0  0  0  0  0  0  0  0
    2.0000    0.9050    0.0000 C   0  0  0  0  0  0  0  0  0  0  0  0
    5.3342   -0.0200    0.0000 H   0  0  0  0  0  0  0  0  0  0  0  0
    4.1306    1.3800    0.0000 H   0  0  0  0  0  0  0  0  0  0  0  0
    3.3335    1.3800    0.0000 H   0  0  0  0  0  0  0  0  0  0  0  0
    5.8626    1.3800    0.0000 H   0  0  0  0  0  0  0  0  0  0  0  0
    5.0656    1.3800    0.0000 H   0  0  0  0  0  0  0  0  0  0  0  0
    4.0611   -0.9050    0.0000 H   0  0  0  0  0  0  0  0  0  0  0  0
    2.3100    1.4419    0.0000 H   0  0  0  0  0  0  0  0  0  0  0  0
    1.4631    1.2150    0.0000 H   0  0  0  0  0  0  0  0  0  0  0  0
    1.6900    0.3681    0.0000 H   0  0  0  0  0  0  0  0  0  0  0  0
    7.7331    0.5950    0.0000 H   0  0  0  0  0  0  0  0  0  0  0  0
  1  5  1  0  0  0  0
  1 16  1  0  0  0  0
  2  8  2  0  0  0  0
  3  9  1  0  0  0  0
  3 20  1  0  0  0  0
  4  9  2  0  0  0  0
  5  6  1  0  0  0  0
  5  7  1  0  0  0  0
  5 11  1  0  0  0  0
  6  8  1  0  0  0  0
  6 12  1  0  0  0  0
  6 13  1  0  0  0  0
  7  9  1  0  0  0  0
  7 14  1  0  0  0  0
  7 15  1  0  0  0  0
  8 10  1  0  0  0  0
 10 17  1  0  0  0  0
 10 18  1  0  0  0  0
 10 19  1  0  0  0  0
M  END
> <PUBCHEM_COMPOUND_CID>
376

> <PUBCHEM_COMPOUND_CANONICALIZED>
1

> <PUBCHEM_CACTVS_COMPLEXITY>
141

> <PUBCHEM_CACTVS_HBOND_ACCEPTOR>
4

> <PUBCHEM_CACTVS_HBOND_DONOR>
2

> <PUBCHEM_CACTVS_ROTATABLE_BOND>
4

> <PUBCHEM_CACTVS_SUBSKEYS>
AAADccBgOAAAAAAAAAAAAAAAAAAAAAAAAAAAAAAAAAAAAAAAAAAAGgAACAAACBSggAICCAAAAgAIAICQCAAAAAAAAAAAAAEAAAAAEBYAAAAAQAAFIAAAAAGITgAgAAAAAAAAAAAAAAAAAAAAAAAAAAAAAA==

> <PUBCHEM_IUPAC_OPENEYE_NAME>
3-hydroxy-5-oxo-hexanoic acid

> <PUBCHEM_IUPAC_CAS_NAME>
3-hydroxy-5-oxohexanoic acid

> <PUBCHEM_IUPAC_NAME>
3-hydroxy-5-oxohexanoic acid

> <PUBCHEM_IUPAC_SYSTEMATIC_NAME>
3-oxidanyl-5-oxidanylidene-hexanoic acid

> <PUBCHEM_IUPAC_TRADITIONAL_NAME>
3-hydroxy-5-keto-hexanoic acid

> <PUBCHEM_IUPAC_INCHI>
InChI=1S/C6H10O4/c1-4(7)2-5(8)3-6(9)10/h5,8H,2-3H2,1H3,(H,9,10)

> <PUBCHEM_IUPAC_INCHIKEY>
APWDZEIBFNZVND-UHFFFAOYSA-N

> <PUBCHEM_XLOGP3_AA>
-1.2

> <PUBCHEM_EXACT_MASS>
146.057909

> <PUBCHEM_MOLECULAR_FORMULA>
C6H10O4

> <PUBCHEM_MOLECULAR_WEIGHT>
146.1412

> <PUBCHEM_OPENEYE_CAN_SMILES>
CC(=O)CC(CC(=O)O)O

> <PUBCHEM_OPENEYE_ISO_SMILES>
CC(=O)CC(CC(=O)O)O

> <PUBCHEM_CACTVS_TPSA>
74.6

> <PUBCHEM_MONOISOTOPIC_WEIGHT>
146.057909

> <PUBCHEM_TOTAL_CHARGE>
0

> <PUBCHEM_HEAVY_ATOM_COUNT>
10

> <PUBCHEM_ATOM_DEF_STEREO_COUNT>
0

> <PUBCHEM_ATOM_UDEF_STEREO_COUNT>
1

> <PUBCHEM_BOND_DEF_STEREO_COUNT>
0

> <PUBCHEM_BOND_UDEF_STEREO_COUNT>
0

> <PUBCHEM_ISOTOPIC_ATOM_COUNT>
0

> <PUBCHEM_COMPONENT_COUNT>
1

> <PUBCHEM_CACTVS_TAUTO_COUNT>
3

> <PUBCHEM_COORDINATE_TYPE>
1
5
255

> <PUBCHEM_BONDANNOTATIONS>
5  11  3

$$$$

