276202
  -OEChem-07051212593D

 25 25  0     0  0  0  0  0  0999 V2000
    0.7324    2.5885    0.0320 O   0  0  0  0  0  0  0  0  0  0  0  0
    2.5082   -2.4273   -0.1065 O   0  0  0  0  0  0  0  0  0  0  0  0
   -0.9990    0.6589    1.1767 C   0  0  0  0  0  0  0  0  0  0  0  0
    0.3199    0.3102    0.5738 C   0  0  0  0  0  0  0  0  0  0  0  0
   -2.0900    0.7242    0.1481 C   0  0  0  0  0  0  0  0  0  0  0  0
   -2.9348   -0.2568   -0.2241 C   0  0  0  0  0  0  0  0  0  0  0  0
    1.1260    1.4265    0.0090 C   0  0  0  0  0  0  0  0  0  0  0  0
    0.7863   -0.9438    0.5277 C   0  0  0  0  0  0  0  0  0  0  0  0
   -4.0099   -0.1249   -1.2654 C   0  0  0  0  0  0  0  0  0  0  0  0
   -2.8579   -1.6151    0.4212 C   0  0  0  0  0  0  0  0  0  0  0  0
    2.0956   -1.2732   -0.0727 C   0  0  0  0  0  0  0  0  0  0  0  0
    2.4355    1.0933   -0.5905 C   0  0  0  0  0  0  0  0  0  0  0  0
    2.8877   -0.1606   -0.6293 C   0  0  0  0  0  0  0  0  0  0  0  0
   -1.2479   -0.0311    1.9902 H   0  0  0  0  0  0  0  0  0  0  0  0
   -0.9424    1.6319    1.6823 H   0  0  0  0  0  0  0  0  0  0  0  0
   -2.1855    1.6854   -0.3559 H   0  0  0  0  0  0  0  0  0  0  0  0
    0.2218   -1.7747    0.9369 H   0  0  0  0  0  0  0  0  0  0  0  0
   -3.8466   -0.8430   -2.0753 H   0  0  0  0  0  0  0  0  0  0  0  0
   -4.0236    0.8779   -1.7050 H   0  0  0  0  0  0  0  0  0  0  0  0
   -4.9945   -0.3107   -0.8246 H   0  0  0  0  0  0  0  0  0  0  0  0
   -2.1409   -1.7097    1.2360 H   0  0  0  0  0  0  0  0  0  0  0  0
   -3.8369   -1.8819    0.8352 H   0  0  0  0  0  0  0  0  0  0  0  0
   -2.5945   -2.3662   -0.3317 H   0  0  0  0  0  0  0  0  0  0  0  0
    3.0215    1.9081   -1.0012 H   0  0  0  0  0  0  0  0  0  0  0  0
    3.8494   -0.3950   -1.0712 H   0  0  0  0  0  0  0  0  0  0  0  0
  1  7  2  0  0  0  0
  2 11  2  0  0  0  0
  3  4  1  0  0  0  0
  3  5  1  0  0  0  0
  3 14  1  0  0  0  0
  3 15  1  0  0  0  0
  4  7  1  0  0  0  0
  4  8  2  0  0  0  0
  5  6  2  0  0  0  0
  5 16  1  0  0  0  0
  6  9  1  0  0  0  0
  6 10  1  0  0  0  0
  7 12  1  0  0  0  0
  8 11  1  0  0  0  0
  8 17  1  0  0  0  0
  9 18  1  0  0  0  0
  9 19  1  0  0  0  0
  9 20  1  0  0  0  0
 10 21  1  0  0  0  0
 10 22  1  0  0  0  0
 10 23  1  0  0  0  0
 11 13  1  0  0  0  0
 12 13  2  0  0  0  0
 12 24  1  0  0  0  0
 13 25  1  0  0  0  0
M  END
> <PUBCHEM_COMPOUND_CID>
276202

> <PUBCHEM_CONFORMER_RMSD>
0.6

> <PUBCHEM_CONFORMER_DIVERSEORDER>
1
9
15
12
14
2
11
8
4
7
3
6
10
5
13

> <PUBCHEM_MMFF94_PARTIAL_CHARGES>
17
1 -0.57
10 0.14
11 0.54
12 -0.14
13 -0.14
16 0.15
17 0.15
2 -0.57
24 0.15
25 0.15
3 0.28
4 -0.12
5 -0.29
6 -0.28
7 0.54
8 -0.14
9 0.14

> <PUBCHEM_EFFECTIVE_ROTOR_COUNT>
2

> <PUBCHEM_PHARMACOPHORE_FEATURES>
4
1 1 acceptor
1 2 acceptor
3 6 9 10 hydrophobe
6 4 7 8 11 12 13 rings

> <PUBCHEM_HEAVY_ATOM_COUNT>
13

> <PUBCHEM_ATOM_DEF_STEREO_COUNT>
0

> <PUBCHEM_ATOM_UDEF_STEREO_COUNT>
0

> <PUBCHEM_BOND_DEF_STEREO_COUNT>
0

> <PUBCHEM_BOND_UDEF_STEREO_COUNT>
0

> <PUBCHEM_ISOTOPIC_ATOM_COUNT>
0

> <PUBCHEM_COMPONENT_COUNT>
1

> <PUBCHEM_CACTVS_TAUTO_COUNT>
3

> <PUBCHEM_CONFORMER_ID>
000436EA00000001

> <PUBCHEM_MMFF94_ENERGY>
21.017

> <PUBCHEM_FEATURE_SELFOVERLAP>
20.297

> <PUBCHEM_SHAPE_FINGERPRINT>
11769659 78 18041283269609346383
12138202 97 17417237724330364954
12897270 3 18341896230139396561
13705890 14 18342457015070474666
14128692 85 18187642526552473648
14576447 43 18334298647356230246
15477762 27 18409450267225248959
15757776 16 18407759248633269542
16945 1 18337946792593088336
18186145 218 17489583510868844611
18619055 16 18410577292593059535
20201158 50 18412545396768366355
20361792 2 16950568749016592425
20645477 70 18186801336191580367
20671657 53 18336548304191893367
22802520 49 18272652307947744065
23402655 69 18412828001606371205
23419403 2 17482881983572217968
6338986 31 18125167283978341410
7364860 26 18261680263722842288
8030462 33 18187081741616042857
93112 12 18413111641335977391

> <PUBCHEM_SHAPE_MULTIPOLES>
255.8
5.73
2.09
0.97
4.06
0.09
-0.03
1.61
-2.12
-1.32
0.08
0.49
-0.06
0.01

> <PUBCHEM_SHAPE_SELFOVERLAP>
522.239

> <PUBCHEM_SHAPE_VOLUME>
147.5

> <PUBCHEM_COORDINATE_TYPE>
2
5
10

$$$$

