5281529
  -OEChem-07051212583D

 78 82  0     1  0  0  0  0  0999 V2000
   -2.7760   -2.4157   -2.2115 O   0  0  0  0  0  0  0  0  0  0  0  0
   -4.2259   -1.9750    0.3274 O   0  0  0  0  0  0  0  0  0  0  0  0
    0.1534   -2.5154    0.8753 O   0  0  0  0  0  0  0  0  0  0  0  0
   -1.0850    1.8851    0.0724 O   0  0  0  0  0  0  0  0  0  0  0  0
    1.4689   -0.7816    1.6516 O   0  0  0  0  0  0  0  0  0  0  0  0
   -1.2701    3.6799    1.5150 O   0  0  0  0  0  0  0  0  0  0  0  0
    0.7120    4.9703    0.1724 O   0  0  0  0  0  0  0  0  0  0  0  0
    3.5227    0.6828   -0.8130 O   0  0  0  0  0  0  0  0  0  0  0  0
    5.4794   -0.1136   -2.6556 O   0  0  0  0  0  0  0  0  0  0  0  0
   -1.5541   -1.1571   -0.3569 C   0  0  1  0  0  0  0  0  0  0  0  0
   -2.2564   -2.3931   -0.8891 C   0  0  1  0  0  0  0  0  0  0  0  0
   -2.6783   -0.0169   -0.1064 C   0  0  2  0  0  0  0  0  0  0  0  0
   -3.1192   -2.8697    0.2159 C   0  0  1  0  0  0  0  0  0  0  0  0
   -1.0777   -1.7647    1.0236 C   0  0  1  0  0  0  0  0  0  0  0  0
   -1.7211   -3.3515   -1.9319 C   0  0  0  0  0  0  0  0  0  0  0  0
   -2.1696   -2.7995    1.4249 C   0  0  0  0  0  0  0  0  0  0  0  0
   -3.8975   -0.6258    0.6907 C   0  0  1  0  0  0  0  0  0  0  0  0
   -0.3866   -0.7095   -1.2448 C   0  0  0  0  0  0  0  0  0  0  0  0
   -3.2104    0.5527   -1.4599 C   0  0  0  0  0  0  0  0  0  0  0  0
   -2.1392    1.1867    0.7470 C   0  0  0  0  0  0  0  0  0  0  0  0
   -5.1809    0.1552    0.5717 C   0  0  0  0  0  0  0  0  0  0  0  0
   -4.3542    1.5636   -1.3087 C   0  0  0  0  0  0  0  0  0  0  0  0
   -5.3947    1.1488   -0.3060 C   0  0  0  0  0  0  0  0  0  0  0  0
    1.3200   -1.9241    1.2523 C   0  0  0  0  0  0  0  0  0  0  0  0
   -6.6843    1.9144   -0.3374 C   0  0  0  0  0  0  0  0  0  0  0  0
   -0.7203    3.0944    0.5922 C   0  0  0  0  0  0  0  0  0  0  0  0
    2.3865   -2.9461    1.1145 C   0  0  0  0  0  0  0  0  0  0  0  0
    0.4983    3.6077   -0.1528 C   0  0  2  0  0  0  0  0  0  0  0  0
    1.7453    2.7680    0.2026 C   0  0  1  0  0  0  0  0  0  0  0  0
    3.6864   -2.7467    1.3732 C   0  0  0  0  0  0  0  0  0  0  0  0
    2.8544    2.9906   -0.8496 C   0  0  0  0  0  0  0  0  0  0  0  0
    2.2555    3.0652    1.6191 C   0  0  0  0  0  0  0  0  0  0  0  0
    4.3351   -1.5229    1.7745 C   0  0  0  0  0  0  0  0  0  0  0  0
    4.0262    2.0141   -0.7267 C   0  0  0  0  0  0  0  0  0  0  0  0
    4.6522   -0.4888    0.9795 C   0  0  0  0  0  0  0  0  0  0  0  0
    4.4333   -0.3788   -0.5097 C   0  0  2  0  0  0  0  0  0  0  0  0
    5.7547   -0.2748   -1.2698 C   0  0  1  0  0  0  0  0  0  0  0  0
    6.6168   -1.5082   -1.0659 C   0  0  0  0  0  0  0  0  0  0  0  0
   -3.5120   -3.8804    0.0701 H   0  0  0  0  0  0  0  0  0  0  0  0
   -0.9517   -1.0269    1.8179 H   0  0  0  0  0  0  0  0  0  0  0  0
   -0.7678   -3.1744   -2.4082 H   0  0  0  0  0  0  0  0  0  0  0  0
   -1.9925   -4.3977   -1.8628 H   0  0  0  0  0  0  0  0  0  0  0  0
   -1.7141   -3.7816    1.6003 H   0  0  0  0  0  0  0  0  0  0  0  0
   -2.6910   -2.5045    2.3404 H   0  0  0  0  0  0  0  0  0  0  0  0
   -3.6519   -0.6282    1.7601 H   0  0  0  0  0  0  0  0  0  0  0  0
    0.3228   -1.5213   -1.4358 H   0  0  0  0  0  0  0  0  0  0  0  0
   -0.7275   -0.3732   -2.2283 H   0  0  0  0  0  0  0  0  0  0  0  0
    0.1919    0.0923   -0.7874 H   0  0  0  0  0  0  0  0  0  0  0  0
   -3.5912   -0.2554   -2.0896 H   0  0  0  0  0  0  0  0  0  0  0  0
   -2.4077    1.0338   -2.0294 H   0  0  0  0  0  0  0  0  0  0  0  0
   -2.9453    1.8940    0.9718 H   0  0  0  0  0  0  0  0  0  0  0  0
   -1.7547    0.8487    1.7133 H   0  0  0  0  0  0  0  0  0  0  0  0
   -5.9698   -0.1161    1.2700 H   0  0  0  0  0  0  0  0  0  0  0  0
   -4.8236    1.6932   -2.2920 H   0  0  0  0  0  0  0  0  0  0  0  0
   -3.9539    2.5442   -1.0245 H   0  0  0  0  0  0  0  0  0  0  0  0
   -6.4965    2.9795   -0.1670 H   0  0  0  0  0  0  0  0  0  0  0  0
   -7.3870    1.5733    0.4300 H   0  0  0  0  0  0  0  0  0  0  0  0
   -7.1716    1.7983   -1.3108 H   0  0  0  0  0  0  0  0  0  0  0  0
    2.0691   -3.9440    0.8208 H   0  0  0  0  0  0  0  0  0  0  0  0
    0.2785    3.5539   -1.2258 H   0  0  0  0  0  0  0  0  0  0  0  0
    1.4632    1.7102    0.1767 H   0  0  0  0  0  0  0  0  0  0  0  0
    4.3543   -3.6033    1.3044 H   0  0  0  0  0  0  0  0  0  0  0  0
   -0.0531    5.4735   -0.1549 H   0  0  0  0  0  0  0  0  0  0  0  0
    3.2302    4.0192   -0.7969 H   0  0  0  0  0  0  0  0  0  0  0  0
    2.4139    2.8576   -1.8463 H   0  0  0  0  0  0  0  0  0  0  0  0
    3.0366    2.3570    1.9125 H   0  0  0  0  0  0  0  0  0  0  0  0
    2.6729    4.0747    1.6941 H   0  0  0  0  0  0  0  0  0  0  0  0
    1.4509    2.9737    2.3558 H   0  0  0  0  0  0  0  0  0  0  0  0
    4.6254   -1.4788    2.8215 H   0  0  0  0  0  0  0  0  0  0  0  0
    4.7188    2.2015   -1.5535 H   0  0  0  0  0  0  0  0  0  0  0  0
    4.5601    2.1763    0.2136 H   0  0  0  0  0  0  0  0  0  0  0  0
    5.1623    0.3485    1.4528 H   0  0  0  0  0  0  0  0  0  0  0  0
    3.9140   -1.2736   -0.8720 H   0  0  0  0  0  0  0  0  0  0  0  0
    6.3236    0.6081   -0.9581 H   0  0  0  0  0  0  0  0  0  0  0  0
    7.5058   -1.4559   -1.7045 H   0  0  0  0  0  0  0  0  0  0  0  0
    6.9523   -1.6150   -0.0304 H   0  0  0  0  0  0  0  0  0  0  0  0
    6.0816   -2.4188   -1.3580 H   0  0  0  0  0  0  0  0  0  0  0  0
    4.9942   -0.8999   -2.9586 H   0  0  0  0  0  0  0  0  0  0  0  0
  1 11  1  0  0  0  0
  1 15  1  0  0  0  0
  2 13  1  0  0  0  0
  2 17  1  0  0  0  0
  3 14  1  0  0  0  0
  3 24  1  0  0  0  0
  4 20  1  0  0  0  0
  4 26  1  0  0  0  0
  5 24  2  0  0  0  0
  6 26  2  0  0  0  0
  7 28  1  0  0  0  0
  7 63  1  0  0  0  0
  8 34  1  0  0  0  0
  8 36  1  0  0  0  0
  9 37  1  0  0  0  0
  9 78  1  0  0  0  0
 10 11  1  0  0  0  0
 10 12  1  0  0  0  0
 10 14  1  0  0  0  0
 10 18  1  0  0  0  0
 11 13  1  0  0  0  0
 11 15  1  0  0  0  0
 12 17  1  0  0  0  0
 12 19  1  0  0  0  0
 12 20  1  0  0  0  0
 13 16  1  0  0  0  0
 13 39  1  0  0  0  0
 14 16  1  0  0  0  0
 14 40  1  0  0  0  0
 15 41  1  0  0  0  0
 15 42  1  0  0  0  0
 16 43  1  0  0  0  0
 16 44  1  0  0  0  0
 17 21  1  0  0  0  0
 17 45  1  0  0  0  0
 18 46  1  0  0  0  0
 18 47  1  0  0  0  0
 18 48  1  0  0  0  0
 19 22  1  0  0  0  0
 19 49  1  0  0  0  0
 19 50  1  0  0  0  0
 20 51  1  0  0  0  0
 20 52  1  0  0  0  0
 21 23  2  0  0  0  0
 21 53  1  0  0  0  0
 22 23  1  0  0  0  0
 22 54  1  0  0  0  0
 22 55  1  0  0  0  0
 23 25  1  0  0  0  0
 24 27  1  0  0  0  0
 25 56  1  0  0  0  0
 25 57  1  0  0  0  0
 25 58  1  0  0  0  0
 26 28  1  0  0  0  0
 27 30  2  0  0  0  0
 27 59  1  0  0  0  0
 28 29  1  0  0  0  0
 28 60  1  0  0  0  0
 29 31  1  0  0  0  0
 29 32  1  0  0  0  0
 29 61  1  0  0  0  0
 30 33  1  0  0  0  0
 30 62  1  0  0  0  0
 31 34  1  0  0  0  0
 31 64  1  0  0  0  0
 31 65  1  0  0  0  0
 32 66  1  0  0  0  0
 32 67  1  0  0  0  0
 32 68  1  0  0  0  0
 33 35  2  0  0  0  0
 33 69  1  0  0  0  0
 34 70  1  0  0  0  0
 34 71  1  0  0  0  0
 35 36  1  0  0  0  0
 35 72  1  0  0  0  0
 36 37  1  0  0  0  0
 36 73  1  0  0  0  0
 37 38  1  0  0  0  0
 37 74  1  0  0  0  0
 38 75  1  0  0  0  0
 38 76  1  0  0  0  0
 38 77  1  0  0  0  0
M  END
> <PUBCHEM_COMPOUND_CID>
5281529

> <PUBCHEM_CONFORMER_RMSD>
0.8

> <PUBCHEM_CONFORMER_DIVERSEORDER>
1

> <PUBCHEM_MMFF94_PARTIAL_CHARGES>
39
1 -0.3
10 0.09
11 -0.04
13 0.38
14 0.28
15 -0.05
17 0.42
2 -0.56
20 0.28
21 -0.29
22 0.14
23 -0.28
24 0.71
25 0.14
26 0.66
27 -0.14
28 0.34
3 -0.43
30 -0.15
33 -0.15
34 0.28
35 -0.29
36 0.42
37 0.28
4 -0.43
41 0.1
42 0.1
5 -0.57
53 0.15
59 0.15
6 -0.57
62 0.15
63 0.4
69 0.15
7 -0.68
72 0.15
78 0.4
8 -0.56
9 -0.68

> <PUBCHEM_EFFECTIVE_ROTOR_COUNT>
4

> <PUBCHEM_PHARMACOPHORE_FEATURES>
11
1 1 acceptor
1 2 acceptor
1 5 acceptor
1 6 acceptor
1 7 acceptor
1 7 donor
1 8 acceptor
1 9 acceptor
1 9 donor
6 12 17 19 21 22 23 rings
8 2 10 11 12 13 14 16 17 rings

> <PUBCHEM_HEAVY_ATOM_COUNT>
38

> <PUBCHEM_ATOM_DEF_STEREO_COUNT>
10

> <PUBCHEM_ATOM_UDEF_STEREO_COUNT>
0

> <PUBCHEM_BOND_DEF_STEREO_COUNT>
2

> <PUBCHEM_BOND_UDEF_STEREO_COUNT>
0

> <PUBCHEM_ISOTOPIC_ATOM_COUNT>
0

> <PUBCHEM_COMPONENT_COUNT>
1

> <PUBCHEM_CACTVS_TAUTO_COUNT>
1

> <PUBCHEM_CONFORMER_ID>
005096F900000001

> <PUBCHEM_MMFF94_ENERGY>
122.6006

> <PUBCHEM_FEATURE_SELFOVERLAP>
55.837

> <PUBCHEM_SHAPE_FINGERPRINT>
10006869 2 17764331809012411267
10190108 129 17841412762603844907
10670039 82 18194395813740181026
10906281 52 18120366816944538529
1100329 8 18412834594365125465
11513181 2 17901109620677029494
12788726 201 18267019634548815296
13761468 95 18054788648807246638
14117953 113 18262237849615539029
14279260 333 18270961379972960854
14394314 77 18412829079612124648
14705955 166 16444187702371395416
14790565 3 18195530518024421913
14931854 50 18270671082668330628
15001296 14 18342741797525957480
15264996 142 17478591860952077130
15274700 259 17416146065010764669
15297060 5 17606963072798349056
15351339 4 18271529685042946032
16067689 134 18049150370318805529
16090146 7 17676480653907195059
19319366 153 17988367094990688475
19930381 70 17764874589145308858
20642791 35 18409452491997398016
20764821 26 18269568160615040232
23559900 14 18337390439952559292
24893992 56 18412260650102859449
3298306 158 18342463617015866589
3383291 50 18187363250947373287
354706 35 16538216407480303756
3729539 64 18271250529417386861
463206 1 18412831265581211896
508706 21 18057609771730709176
5265222 85 17768798772052431772
5776283 40 17624115119759841828
6086070 43 18410303488723176743

> <PUBCHEM_SHAPE_MULTIPOLES>
729.2
12.64
5.31
1.84
4.43
3.47
-0.47
-0.65
-3.8
0.18
1
1.27
-0.78
-0.94

> <PUBCHEM_SHAPE_SELFOVERLAP>
1538.216

> <PUBCHEM_SHAPE_VOLUME>
401

> <PUBCHEM_COORDINATE_TYPE>
2
5
10

$$$$

