242340
  -OEChem-07051213062D

 58 61  0     1  0  0  0  0  0999 V2000
    9.9816    1.5913    0.0000 O   0  0  0  0  0  0  0  0  0  0  0  0
    3.7320   -2.0310    0.0000 O   0  0  0  0  0  0  0  0  0  0  0  0
    2.8602   -0.5344    0.0000 O   0  0  0  0  0  0  0  0  0  0  0  0
    6.3961   -0.5069    0.0000 C   0  0  2  0  0  0  0  0  0  0  0  0
    7.2622   -0.0069    0.0000 C   0  0  2  0  0  0  0  0  0  0  0  0
    8.1282   -0.5069    0.0000 C   0  0  2  0  0  0  0  0  0  0  0  0
    6.3961   -1.5069    0.0000 C   0  0  1  0  0  0  0  0  0  0  0  0
    9.0382    0.0000    0.0000 C   0  0  1  0  0  0  0  0  0  0  0  0
    9.0462    1.0416    0.0000 C   0  0  2  0  0  0  0  0  0  0  0  0
    8.1282   -1.5069    0.0000 C   0  0  0  0  0  0  0  0  0  0  0  0
    7.2461    1.0346    0.0000 C   0  0  0  0  0  0  0  0  0  0  0  0
    7.2622   -2.0069    0.0000 C   0  0  0  0  0  0  0  0  0  0  0  0
    5.5022    0.0278    0.0000 C   0  0  0  0  0  0  0  0  0  0  0  0
    8.1441    1.5624    0.0000 C   0  0  0  0  0  0  0  0  0  0  0  0
    5.5022   -2.0415    0.0000 C   0  0  0  0  0  0  0  0  0  0  0  0
    6.3961    0.4931    0.0000 C   0  0  0  0  0  0  0  0  0  0  0  0
    9.9650   -0.5641    0.0000 C   0  0  0  0  0  0  0  0  0  0  0  0
    4.5961   -0.4861    0.0000 C   0  0  0  0  0  0  0  0  0  0  0  0
    4.5961   -1.5277    0.0000 C   0  0  2  0  0  0  0  0  0  0  0  0
    9.0539    2.0415    0.0000 C   0  0  0  0  0  0  0  0  0  0  0  0
   10.9129   -0.0362    0.0000 C   0  0  0  0  0  0  0  0  0  0  0  0
   10.9213    1.0488    0.0000 C   0  0  0  0  0  0  0  0  0  0  0  0
    2.8641   -1.5344    0.0000 C   0  0  0  0  0  0  0  0  0  0  0  0
    2.0000   -2.0377    0.0000 C   0  0  0  0  0  0  0  0  0  0  0  0
    7.9950    0.4238    0.0000 H   0  0  0  0  0  0  0  0  0  0  0  0
    8.8610   -0.9375    0.0000 H   0  0  0  0  0  0  0  0  0  0  0  0
    6.4027   -2.3568    0.0000 H   0  0  0  0  0  0  0  0  0  0  0  0
    9.0218   -0.8499    0.0000 H   0  0  0  0  0  0  0  0  0  0  0  0
    8.3402   -2.0895    0.0000 H   0  0  0  0  0  0  0  0  0  0  0  0
    8.7388   -1.3992    0.0000 H   0  0  0  0  0  0  0  0  0  0  0  0
    7.0281    1.6150    0.0000 H   0  0  0  0  0  0  0  0  0  0  0  0
    6.6370    0.9191    0.0000 H   0  0  0  0  0  0  0  0  0  0  0  0
    6.8636   -2.4818    0.0000 H   0  0  0  0  0  0  0  0  0  0  0  0
    7.6607   -2.4818    0.0000 H   0  0  0  0  0  0  0  0  0  0  0  0
    5.9068    0.4976    0.0000 H   0  0  0  0  0  0  0  0  0  0  0  0
    5.1086    0.5068    0.0000 H   0  0  0  0  0  0  0  0  0  0  0  0
    8.5414    2.0384    0.0000 H   0  0  0  0  0  0  0  0  0  0  0  0
    7.7432    2.0353    0.0000 H   0  0  0  0  0  0  0  0  0  0  0  0
    5.1086   -2.5206    0.0000 H   0  0  0  0  0  0  0  0  0  0  0  0
    5.9068   -2.5113    0.0000 H   0  0  0  0  0  0  0  0  0  0  0  0
    7.0161    0.4931    0.0000 H   0  0  0  0  0  0  0  0  0  0  0  0
    6.3961    1.1131    0.0000 H   0  0  0  0  0  0  0  0  0  0  0  0
    5.7761    0.4931    0.0000 H   0  0  0  0  0  0  0  0  0  0  0  0
    9.5568   -1.0308    0.0000 H   0  0  0  0  0  0  0  0  0  0  0  0
   10.3549   -1.0462    0.0000 H   0  0  0  0  0  0  0  0  0  0  0  0
    4.3871    0.0976    0.0000 H   0  0  0  0  0  0  0  0  0  0  0  0
    3.9853   -0.5922    0.0000 H   0  0  0  0  0  0  0  0  0  0  0  0
    4.5997   -2.1477    0.0000 H   0  0  0  0  0  0  0  0  0  0  0  0
    9.6739    2.0368    0.0000 H   0  0  0  0  0  0  0  0  0  0  0  0
    9.0587    2.6615    0.0000 H   0  0  0  0  0  0  0  0  0  0  0  0
    8.4340    2.0463    0.0000 H   0  0  0  0  0  0  0  0  0  0  0  0
   11.1175   -0.6215    0.0000 H   0  0  0  0  0  0  0  0  0  0  0  0
   11.5246    0.0652    0.0000 H   0  0  0  0  0  0  0  0  0  0  0  0
   11.5313    0.9380    0.0000 H   0  0  0  0  0  0  0  0  0  0  0  0
   11.1348    1.6309    0.0000 H   0  0  0  0  0  0  0  0  0  0  0  0
    1.6879   -1.5020    0.0000 H   0  0  0  0  0  0  0  0  0  0  0  0
    1.4643   -2.3498    0.0000 H   0  0  0  0  0  0  0  0  0  0  0  0
    2.3121   -2.5734    0.0000 H   0  0  0  0  0  0  0  0  0  0  0  0
  1  9  1  0  0  0  0
  1 22  1  0  0  0  0
 19  2  1  1  0  0  0
  2 23  1  0  0  0  0
  3 23  2  0  0  0  0
  4  5  1  0  0  0  0
  4  7  1  0  0  0  0
  4 13  1  0  0  0  0
  4 16  1  1  0  0  0
  5  6  1  0  0  0  0
  5 11  1  0  0  0  0
  5 25  1  6  0  0  0
  6  8  1  0  0  0  0
  6 10  1  0  0  0  0
  6 26  1  1  0  0  0
  7 12  1  0  0  0  0
  7 15  1  0  0  0  0
  7 27  1  6  0  0  0
  8  9  1  0  0  0  0
  8 17  1  0  0  0  0
  8 28  1  6  0  0  0
  9 14  1  0  0  0  0
  9 20  1  1  0  0  0
 10 12  1  0  0  0  0
 10 29  1  0  0  0  0
 10 30  1  0  0  0  0
 11 14  1  0  0  0  0
 11 31  1  0  0  0  0
 11 32  1  0  0  0  0
 12 33  1  0  0  0  0
 12 34  1  0  0  0  0
 13 18  1  0  0  0  0
 13 35  1  0  0  0  0
 13 36  1  0  0  0  0
 14 37  1  0  0  0  0
 14 38  1  0  0  0  0
 15 19  1  0  0  0  0
 15 39  1  0  0  0  0
 15 40  1  0  0  0  0
 16 41  1  0  0  0  0
 16 42  1  0  0  0  0
 16 43  1  0  0  0  0
 17 21  1  0  0  0  0
 17 44  1  0  0  0  0
 17 45  1  0  0  0  0
 18 19  1  0  0  0  0
 18 46  1  0  0  0  0
 18 47  1  0  0  0  0
 19 48  1  0  0  0  0
 20 49  1  0  0  0  0
 20 50  1  0  0  0  0
 20 51  1  0  0  0  0
 21 22  1  0  0  0  0
 21 52  1  0  0  0  0
 21 53  1  0  0  0  0
 22 54  1  0  0  0  0
 22 55  1  0  0  0  0
 23 24  1  0  0  0  0
 24 56  1  0  0  0  0
 24 57  1  0  0  0  0
 24 58  1  0  0  0  0
M  END
> <PUBCHEM_COMPOUND_CID>
242340

> <PUBCHEM_COMPOUND_CANONICALIZED>
1

> <PUBCHEM_CACTVS_COMPLEXITY>
503

> <PUBCHEM_CACTVS_HBOND_ACCEPTOR>
3

> <PUBCHEM_CACTVS_HBOND_DONOR>
0

> <PUBCHEM_CACTVS_ROTATABLE_BOND>
2

> <PUBCHEM_CACTVS_SUBSKEYS>
AAADcfB4MAAAAAAAAAAAAAAAAAAAAAAAAAA0YMEAAAAAAADQAAAAGgAAAAAAD1SggAICCAAABAAIAACQCAAAAAAAAAAAAAAAAAAAAAIAAAACAAAEAAAAAAGAwPAPgAAAAAAAAADAAAYAADAAAAAAAAAAAA==

> <PUBCHEM_IUPAC_OPENEYE_NAME>
[(4aS,4bR,6aS,8S,10aS,10bS,12aS)-10a,12a-dimethyl-3,4,4a,4b,5,6,6a,7,8,9,10,10b,11,12-tetradecahydro-2H-naphtho[2,1-f]chromen-8-yl] acetate

> <PUBCHEM_IUPAC_CAS_NAME>
acetic acid [(4aS,4bR,6aS,8S,10aS,10bS,12aS)-10a,12a-dimethyl-3,4,4a,4b,5,6,6a,7,8,9,10,10b,11,12-tetradecahydro-2H-naphtho[2,1-f][1]benzopyran-8-yl] ester

> <PUBCHEM_IUPAC_NAME>
[(4aS,4bR,6aS,8S,10aS,10bS,12aS)-10a,12a-dimethyl-3,4,4a,4b,5,6,6a,7,8,9,10,10b,11,12-tetradecahydro-2H-naphtho[2,1-f]chromen-8-yl] acetate

> <PUBCHEM_IUPAC_SYSTEMATIC_NAME>
[(4aS,4bR,6aS,8S,10aS,10bS,12aS)-10a,12a-dimethyl-3,4,4a,4b,5,6,6a,7,8,9,10,10b,11,12-tetradecahydro-2H-naphtho[2,1-f]chromen-8-yl] ethanoate

> <PUBCHEM_IUPAC_TRADITIONAL_NAME>
acetic acid [(4aS,4bR,6aS,8S,10aS,10bS,12aS)-10a,12a-dimethyl-3,4,4a,4b,5,6,6a,7,8,9,10,10b,11,12-tetradecahydro-2H-naphtho[2,1-f]chromen-8-yl] ester

> <PUBCHEM_IUPAC_INCHI>
InChI=1S/C21H34O3/c1-14(22)24-16-8-10-20(2)15(13-16)6-7-17-18(20)9-11-21(3)19(17)5-4-12-23-21/h15-19H,4-13H2,1-3H3/t15-,16-,17+,18-,19-,20-,21-/m0/s1

> <PUBCHEM_IUPAC_INCHIKEY>
WIXLMLSHJRVECU-YQUGOWONSA-N

> <PUBCHEM_XLOGP3_AA>
4.6

> <PUBCHEM_EXACT_MASS>
334.250795

> <PUBCHEM_MOLECULAR_FORMULA>
C21H34O3

> <PUBCHEM_MOLECULAR_WEIGHT>
334.49286

> <PUBCHEM_OPENEYE_CAN_SMILES>
CC(=O)OC1CCC2(C(C1)CCC3C2CCC4(C3CCCO4)C)C

> <PUBCHEM_OPENEYE_ISO_SMILES>
CC(=O)O[C@H]1CC[C@]2([C@H](C1)CC[C@@H]3[C@@H]2CC[C@]4([C@H]3CCCO4)C)C

> <PUBCHEM_CACTVS_TPSA>
35.5

> <PUBCHEM_MONOISOTOPIC_WEIGHT>
334.250795

> <PUBCHEM_TOTAL_CHARGE>
0

> <PUBCHEM_HEAVY_ATOM_COUNT>
24

> <PUBCHEM_ATOM_DEF_STEREO_COUNT>
7

> <PUBCHEM_ATOM_UDEF_STEREO_COUNT>
0

> <PUBCHEM_BOND_DEF_STEREO_COUNT>
0

> <PUBCHEM_BOND_UDEF_STEREO_COUNT>
0

> <PUBCHEM_ISOTOPIC_ATOM_COUNT>
0

> <PUBCHEM_COMPONENT_COUNT>
1

> <PUBCHEM_CACTVS_TAUTO_COUNT>
1

> <PUBCHEM_COORDINATE_TYPE>
1
5
255

> <PUBCHEM_BONDANNOTATIONS>
19  2  5
4  16  5
5  25  6
6  26  5
7  27  6
8  28  6
9  20  5

$$$$

