9066
  -OEChem-06261203222D

 42 42  0     1  0  0  0  0  0999 V2000
    3.0680    0.0000    0.0000 Cl  0  0  0  0  0  0  0  0  0  0  0  0
    4.0010    6.0369    0.0000 N   0  0  3  0  0  0  0  0  0  0  0  0
    4.8671    3.5369    0.0000 N   0  0  0  0  0  0  0  0  0  0  0  0
    5.7331    6.0369    0.0000 N   0  0  0  0  0  0  0  0  0  0  0  0
    4.0010    5.0369    0.0000 C   0  0  0  0  0  0  0  0  0  0  0  0
    4.8671    4.5369    0.0000 C   0  0  0  0  0  0  0  0  0  0  0  0
    3.1350    6.5369    0.0000 C   0  0  0  0  0  0  0  0  0  0  0  0
    4.8671    6.5369    0.0000 C   0  0  0  0  0  0  0  0  0  0  0  0
    2.2690    6.0369    0.0000 C   0  0  0  0  0  0  0  0  0  0  0  0
    5.7331    3.0369    0.0000 C   0  0  0  0  0  0  0  0  0  0  0  0
    4.0010    3.0369    0.0000 C   0  0  0  0  0  0  0  0  0  0  0  0
    2.2690    5.0369    0.0000 C   0  0  0  0  0  0  0  0  0  0  0  0
    1.4030    6.5369    0.0000 C   0  0  0  0  0  0  0  0  0  0  0  0
    4.8671    7.5369    0.0000 C   0  0  0  0  0  0  0  0  0  0  0  0
    1.4030    4.5369    0.0000 C   0  0  0  0  0  0  0  0  0  0  0  0
    0.5369    6.0369    0.0000 C   0  0  0  0  0  0  0  0  0  0  0  0
    5.7331    8.0369    0.0000 C   0  0  0  0  0  0  0  0  0  0  0  0
    0.5369    5.0369    0.0000 C   0  0  0  0  0  0  0  0  0  0  0  0
    6.5991    6.5369    0.0000 C   0  0  0  0  0  0  0  0  0  0  0  0
    6.5991    7.5369    0.0000 C   0  0  0  0  0  0  0  0  0  0  0  0
    3.3905    5.1446    0.0000 H   0  0  0  0  0  0  0  0  0  0  0  0
    3.7890    4.4543    0.0000 H   0  0  0  0  0  0  0  0  0  0  0  0
    5.4776    4.4293    0.0000 H   0  0  0  0  0  0  0  0  0  0  0  0
    5.0791    5.1195    0.0000 H   0  0  0  0  0  0  0  0  0  0  0  0
    3.5335    7.0119    0.0000 H   0  0  0  0  0  0  0  0  0  0  0  0
    2.7365    7.0119    0.0000 H   0  0  0  0  0  0  0  0  0  0  0  0
    5.4231    2.5000    0.0000 H   0  0  0  0  0  0  0  0  0  0  0  0
    3.6910    3.5739    0.0000 H   0  0  0  0  0  0  0  0  0  0  0  0
    3.4641    2.7269    0.0000 H   0  0  0  0  0  0  0  0  0  0  0  0
    4.3110    2.5000    0.0000 H   0  0  0  0  0  0  0  0  0  0  0  0
    6.2700    2.7269    0.0000 H   0  0  0  0  0  0  0  0  0  0  0  0
    6.0431    3.5739    0.0000 H   0  0  0  0  0  0  0  0  0  0  0  0
    2.8059    4.7269    0.0000 H   0  0  0  0  0  0  0  0  0  0  0  0
    1.4030    7.1569    0.0000 H   0  0  0  0  0  0  0  0  0  0  0  0
    4.3301    7.8469    0.0000 H   0  0  0  0  0  0  0  0  0  0  0  0
    1.4030    3.9169    0.0000 H   0  0  0  0  0  0  0  0  0  0  0  0
    0.0000    6.3469    0.0000 H   0  0  0  0  0  0  0  0  0  0  0  0
    5.7331    8.6569    0.0000 H   0  0  0  0  0  0  0  0  0  0  0  0
    0.0000    4.7269    0.0000 H   0  0  0  0  0  0  0  0  0  0  0  0
    7.1360    6.2269    0.0000 H   0  0  0  0  0  0  0  0  0  0  0  0
    7.1360    7.8469    0.0000 H   0  0  0  0  0  0  0  0  0  0  0  0
    4.0680    0.0000    0.0000 H   0  0  0  0  0  0  0  0  0  0  0  0
  1 42  1  0  0  0  0
  2  5  1  0  0  0  0
  2  7  1  0  0  0  0
  2  8  1  0  0  0  0
  3  6  1  0  0  0  0
  3 10  1  0  0  0  0
  3 11  1  0  0  0  0
  4  8  1  0  0  0  0
  4 19  2  0  0  0  0
  5  6  1  0  0  0  0
  5 21  1  0  0  0  0
  5 22  1  0  0  0  0
  6 23  1  0  0  0  0
  6 24  1  0  0  0  0
  7  9  1  0  0  0  0
  7 25  1  0  0  0  0
  7 26  1  0  0  0  0
  8 14  2  0  0  0  0
  9 12  2  0  0  0  0
  9 13  1  0  0  0  0
 10 27  1  0  0  0  0
 10 31  1  0  0  0  0
 10 32  1  0  0  0  0
 11 28  1  0  0  0  0
 11 29  1  0  0  0  0
 11 30  1  0  0  0  0
 12 15  1  0  0  0  0
 12 33  1  0  0  0  0
 13 16  2  0  0  0  0
 13 34  1  0  0  0  0
 14 17  1  0  0  0  0
 14 35  1  0  0  0  0
 15 18  2  0  0  0  0
 15 36  1  0  0  0  0
 16 18  1  0  0  0  0
 16 37  1  0  0  0  0
 17 20  2  0  0  0  0
 17 38  1  0  0  0  0
 18 39  1  0  0  0  0
 19 20  1  0  0  0  0
 19 40  1  0  0  0  0
 20 41  1  0  0  0  0
M  END
> <PUBCHEM_COMPOUND_CID>
9066

> <PUBCHEM_COMPOUND_CANONICALIZED>
1

> <PUBCHEM_CACTVS_COMPLEXITY>
236

> <PUBCHEM_CACTVS_HBOND_ACCEPTOR>
3

> <PUBCHEM_CACTVS_HBOND_DONOR>
1

> <PUBCHEM_CACTVS_ROTATABLE_BOND>
6

> <PUBCHEM_CACTVS_SUBSKEYS>
AAADceB7AAAEAAAAAAAAAAAAAAAAAAAAAAA8QAAAAAAAAAABwAAAHAAAAAAADADBGgQ/sJMIEACgAjJnZACCgCkxAiAJ2CA4ZJiIYOLAmZGUIAhogALIyCcQgAAOAAAAAAAAAAAAAAAAAAAAAAAAAAAAAA==

> <PUBCHEM_IUPAC_OPENEYE_NAME>
N'-benzyl-N,N-dimethyl-N'-(2-pyridyl)ethane-1,2-diamine hydrochloride

> <PUBCHEM_IUPAC_CAS_NAME>
N,N-dimethyl-N'-(phenylmethyl)-N'-(2-pyridinyl)ethane-1,2-diamine hydrochloride

> <PUBCHEM_IUPAC_NAME>
N'-benzyl-N,N-dimethyl-N'-pyridin-2-ylethane-1,2-diamine hydrochloride

> <PUBCHEM_IUPAC_SYSTEMATIC_NAME>
N,N-dimethyl-N'-(phenylmethyl)-N'-pyridin-2-yl-ethane-1,2-diamine hydrochloride

> <PUBCHEM_IUPAC_TRADITIONAL_NAME>
benzyl-[2-(dimethylamino)ethyl]-(2-pyridyl)amine hydrochloride

> <PUBCHEM_IUPAC_INCHI>
InChI=1S/C16H21N3.ClH/c1-18(2)12-13-19(16-10-6-7-11-17-16)14-15-8-4-3-5-9-15;/h3-11H,12-14H2,1-2H3;1H

> <PUBCHEM_IUPAC_INCHIKEY>
FSSICIQKZGUEAE-UHFFFAOYSA-N

> <PUBCHEM_EXACT_MASS>
291.150225

> <PUBCHEM_MOLECULAR_FORMULA>
C16H22ClN3

> <PUBCHEM_MOLECULAR_WEIGHT>
291.81898

> <PUBCHEM_OPENEYE_CAN_SMILES>
CN(C)CCN(CC1=CC=CC=C1)C2=CC=CC=N2.Cl

> <PUBCHEM_OPENEYE_ISO_SMILES>
CN(C)CCN(CC1=CC=CC=C1)C2=CC=CC=N2.Cl

> <PUBCHEM_CACTVS_TPSA>
19.4

> <PUBCHEM_MONOISOTOPIC_WEIGHT>
291.150225

> <PUBCHEM_TOTAL_CHARGE>
0

> <PUBCHEM_HEAVY_ATOM_COUNT>
20

> <PUBCHEM_ATOM_DEF_STEREO_COUNT>
0

> <PUBCHEM_ATOM_UDEF_STEREO_COUNT>
0

> <PUBCHEM_BOND_DEF_STEREO_COUNT>
0

> <PUBCHEM_BOND_UDEF_STEREO_COUNT>
0

> <PUBCHEM_ISOTOPIC_ATOM_COUNT>
0

> <PUBCHEM_COMPONENT_COUNT>
2

> <PUBCHEM_CACTVS_TAUTO_COUNT>
1

> <PUBCHEM_COORDINATE_TYPE>
1
3

> <PUBCHEM_BONDANNOTATIONS>
12  15  8
13  16  8
14  17  8
15  18  8
16  18  8
17  20  8
19  20  8
4  19  8
4  8  8
8  14  8
9  12  8
9  13  8

$$$$

