97762
  -OEChem-07051213043D

 44 45  0     1  0  0  0  0  0999 V2000
    2.8903    2.2991    1.7155 O   0  0  0  0  0  0  0  0  0  0  0  0
   -2.8868    2.3097   -1.7075 O   0  0  0  0  0  0  0  0  0  0  0  0
    3.6938    2.7593   -0.9048 O   0  0  0  0  0  0  0  0  0  0  0  0
   -3.6891    2.7571    0.9153 O   0  0  0  0  0  0  0  0  0  0  0  0
    0.6913   -1.8455    0.3702 C   0  0  1  0  0  0  0  0  0  0  0  0
   -0.6903   -1.8432   -0.3842 C   0  0  1  0  0  0  0  0  0  0  0  0
    1.5152   -3.1311    0.1041 C   0  0  0  0  0  0  0  0  0  0  0  0
   -1.5148   -3.1297   -0.1245 C   0  0  0  0  0  0  0  0  0  0  0  0
    1.5047   -0.5970    0.0280 C   0  0  0  0  0  0  0  0  0  0  0  0
   -1.5027   -0.5959   -0.0354 C   0  0  0  0  0  0  0  0  0  0  0  0
    2.8149   -3.2042    0.9014 C   0  0  0  0  0  0  0  0  0  0  0  0
   -2.8419   -3.1718   -0.8773 C   0  0  0  0  0  0  0  0  0  0  0  0
    1.8233    0.2805    1.0396 C   0  0  0  0  0  0  0  0  0  0  0  0
   -1.8210    0.2869   -1.0423 C   0  0  0  0  0  0  0  0  0  0  0  0
    1.8878   -0.3967   -1.2788 C   0  0  0  0  0  0  0  0  0  0  0  0
   -1.8851   -0.4019    1.2726 C   0  0  0  0  0  0  0  0  0  0  0  0
    2.5649    1.4199    0.7274 C   0  0  0  0  0  0  0  0  0  0  0  0
   -2.5618    1.4253   -0.7240 C   0  0  0  0  0  0  0  0  0  0  0  0
    2.6293    0.7426   -1.5910 C   0  0  0  0  0  0  0  0  0  0  0  0
   -2.6259    0.7362    1.5909 C   0  0  0  0  0  0  0  0  0  0  0  0
    2.9681    1.6508   -0.5880 C   0  0  0  0  0  0  0  0  0  0  0  0
   -2.9642    1.6497    0.5926 C   0  0  0  0  0  0  0  0  0  0  0  0
    0.4859   -1.8407    1.4499 H   0  0  0  0  0  0  0  0  0  0  0  0
   -0.4862   -1.8330   -1.4641 H   0  0  0  0  0  0  0  0  0  0  0  0
    1.7380   -3.2427   -0.9635 H   0  0  0  0  0  0  0  0  0  0  0  0
    0.9343   -4.0106    0.3990 H   0  0  0  0  0  0  0  0  0  0  0  0
   -0.9490   -4.0045   -0.4605 H   0  0  0  0  0  0  0  0  0  0  0  0
   -1.7029   -3.2658    0.9470 H   0  0  0  0  0  0  0  0  0  0  0  0
    3.5270   -2.4355    0.5874 H   0  0  0  0  0  0  0  0  0  0  0  0
    2.6250   -3.0858    1.9730 H   0  0  0  0  0  0  0  0  0  0  0  0
    3.2928   -4.1773    0.7488 H   0  0  0  0  0  0  0  0  0  0  0  0
   -2.6894   -3.0185   -1.9504 H   0  0  0  0  0  0  0  0  0  0  0  0
   -3.3175   -4.1486   -0.7404 H   0  0  0  0  0  0  0  0  0  0  0  0
   -3.5409   -2.4135   -0.5128 H   0  0  0  0  0  0  0  0  0  0  0  0
    1.5120    0.1042    2.0649 H   0  0  0  0  0  0  0  0  0  0  0  0
   -1.5101    0.1157   -2.0686 H   0  0  0  0  0  0  0  0  0  0  0  0
    1.6370   -1.0940   -2.0713 H   0  0  0  0  0  0  0  0  0  0  0  0
   -1.6348   -1.1040    2.0612 H   0  0  0  0  0  0  0  0  0  0  0  0
    2.9411    0.9164   -2.6173 H   0  0  0  0  0  0  0  0  0  0  0  0
   -2.9339    0.8983    2.6203 H   0  0  0  0  0  0  0  0  0  0  0  0
    3.0771    3.1702    1.3298 H   0  0  0  0  0  0  0  0  0  0  0  0
   -3.3986    3.0353   -1.3095 H   0  0  0  0  0  0  0  0  0  0  0  0
    4.1415    3.0950   -0.1116 H   0  0  0  0  0  0  0  0  0  0  0  0
   -3.8772    2.7454    1.8695 H   0  0  0  0  0  0  0  0  0  0  0  0
  1 17  1  0  0  0  0
  1 41  1  0  0  0  0
  2 18  1  0  0  0  0
  2 42  1  0  0  0  0
  3 21  1  0  0  0  0
  3 43  1  0  0  0  0
  4 22  1  0  0  0  0
  4 44  1  0  0  0  0
  5  6  1  0  0  0  0
  5  7  1  0  0  0  0
  5  9  1  0  0  0  0
  5 23  1  0  0  0  0
  6  8  1  0  0  0  0
  6 10  1  0  0  0  0
  6 24  1  0  0  0  0
  7 11  1  0  0  0  0
  7 25  1  0  0  0  0
  7 26  1  0  0  0  0
  8 12  1  0  0  0  0
  8 27  1  0  0  0  0
  8 28  1  0  0  0  0
  9 13  2  0  0  0  0
  9 15  1  0  0  0  0
 10 14  2  0  0  0  0
 10 16  1  0  0  0  0
 11 29  1  0  0  0  0
 11 30  1  0  0  0  0
 11 31  1  0  0  0  0
 12 32  1  0  0  0  0
 12 33  1  0  0  0  0
 12 34  1  0  0  0  0
 13 17  1  0  0  0  0
 13 35  1  0  0  0  0
 14 18  1  0  0  0  0
 14 36  1  0  0  0  0
 15 19  2  0  0  0  0
 15 37  1  0  0  0  0
 16 20  2  0  0  0  0
 16 38  1  0  0  0  0
 17 21  2  0  0  0  0
 18 22  2  0  0  0  0
 19 21  1  0  0  0  0
 19 39  1  0  0  0  0
 20 22  1  0  0  0  0
 20 40  1  0  0  0  0
M  END
> <PUBCHEM_COMPOUND_CID>
97762

> <PUBCHEM_CONFORMER_RMSD>
0.8

> <PUBCHEM_CONFORMER_DIVERSEORDER>
3
19
14
6
11
20
21
17
7
1
9
16
4
18
5
15
10
8
13
12
2

> <PUBCHEM_MMFF94_PARTIAL_CHARGES>
28
1 -0.53
10 -0.14
13 -0.15
14 -0.15
15 -0.15
16 -0.15
17 0.08
18 0.08
19 -0.15
2 -0.53
20 -0.15
21 0.08
22 0.08
3 -0.53
35 0.15
36 0.15
37 0.15
38 0.15
39 0.15
4 -0.53
40 0.15
41 0.45
42 0.45
43 0.45
44 0.45
5 0.14
6 0.14
9 -0.14

> <PUBCHEM_EFFECTIVE_ROTOR_COUNT>
5

> <PUBCHEM_PHARMACOPHORE_FEATURES>
9
1 1 donor
1 11 hydrophobe
1 12 hydrophobe
1 2 donor
1 3 donor
1 4 donor
4 5 6 7 8 hydrophobe
6 10 14 16 18 20 22 rings
6 9 13 15 17 19 21 rings

> <PUBCHEM_HEAVY_ATOM_COUNT>
22

> <PUBCHEM_ATOM_DEF_STEREO_COUNT>
0

> <PUBCHEM_ATOM_UDEF_STEREO_COUNT>
2

> <PUBCHEM_BOND_DEF_STEREO_COUNT>
0

> <PUBCHEM_BOND_UDEF_STEREO_COUNT>
0

> <PUBCHEM_ISOTOPIC_ATOM_COUNT>
0

> <PUBCHEM_COMPONENT_COUNT>
1

> <PUBCHEM_CACTVS_TAUTO_COUNT>
407

> <PUBCHEM_CONFORMER_ID>
00017DE200000003

> <PUBCHEM_MMFF94_ENERGY>
59.6882

> <PUBCHEM_FEATURE_SELFOVERLAP>
45.679

> <PUBCHEM_SHAPE_FINGERPRINT>
10006869 2 18335699413066232731
10165383 225 18122872482698848309
10498660 4 18195246615952864925
10871710 139 17982719784500989381
12156800 1 15466998722891098573
12173636 292 18261107491796445209
12788726 201 17979074881716012551
128993 33 18338500997951033153
13132413 78 18050005799054252710
13134695 92 17766848599127428958
13140716 1 18267583696698416747
13294875 104 18334857260009484114
133893 2 17702965685480595386
14178342 30 18337677408081275648
14386348 128 18338503196979602432
14713325 29 17054384551281089846
14955137 171 17976246164784656419
15238133 3 17473804604056072681
17357779 13 17609501527614721991
17980427 23 17388849605517094058
18785283 64 18124859403600463993
18981168 100 18410291410663119208
20510252 161 17977947886740287006
20671657 1 18340202006984934006
21524375 3 18410284809319906502
23175994 123 17693927905515095523
23402539 116 17687186387830463862
23557571 272 17975409122870975846
23558518 356 18412552032746767515
23559900 14 17058911442299360769
238 59 18125453148638254845
283562 15 18122624946564344582
350125 39 18411133636612862811
469060 322 17983288232223539691
495365 180 18124326149257097165
5252454 2 18338499902739881281
6442390 28 18122877907369222075
74978 22 18261957456601477203
7808743 9 18266444426374382196
81228 2 17905875994577207403

> <PUBCHEM_SHAPE_MULTIPOLES>
429.27
6.15
4.27
1.53
0.01
2.26
0.01
-4.02
0.01
-0.02
0.01
-0.01
-0.69
-0.87

> <PUBCHEM_SHAPE_SELFOVERLAP>
909.868

> <PUBCHEM_SHAPE_VOLUME>
240.6

> <PUBCHEM_COORDINATE_TYPE>
2
5
10

$$$$

