95708
  -OEChem-07051213003D

 36 38  0     0  0  0  0  0  0999 V2000
   -2.9149    2.4112   -0.1884 O   0  0  0  0  0  0  0  0  0  0  0  0
   -1.9542   -2.0727    0.4797 O   0  0  0  0  0  0  0  0  0  0  0  0
    0.5310   -2.8264    0.4852 O   0  0  0  0  0  0  0  0  0  0  0  0
    2.0463    2.3894   -0.4113 O   0  0  0  0  0  0  0  0  0  0  0  0
    3.9175    0.3939   -0.1810 O   0  0  0  0  0  0  0  0  0  0  0  0
   -0.5992    1.8503   -0.2045 N   0  0  0  0  0  0  0  0  0  0  0  0
   -0.1214   -0.5069    0.1476 C   0  0  0  0  0  0  0  0  0  0  0  0
    0.2677    0.8339   -0.0828 C   0  0  0  0  0  0  0  0  0  0  0  0
   -1.4878   -0.8082    0.2581 C   0  0  0  0  0  0  0  0  0  0  0  0
   -2.4069    0.2401    0.1336 C   0  0  0  0  0  0  0  0  0  0  0  0
    0.8477   -1.5169    0.2635 C   0  0  0  0  0  0  0  0  0  0  0  0
    1.6281    1.1044   -0.1880 C   0  0  0  0  0  0  0  0  0  0  0  0
   -1.8941    1.5110   -0.0916 C   0  0  0  0  0  0  0  0  0  0  0  0
    2.5918    0.0990   -0.0728 C   0  0  0  0  0  0  0  0  0  0  0  0
    2.2014   -1.2139    0.1532 C   0  0  0  0  0  0  0  0  0  0  0  0
   -3.8160    0.3824    0.1756 C   0  0  0  0  0  0  0  0  0  0  0  0
   -4.0719    1.7186   -0.0255 C   0  0  0  0  0  0  0  0  0  0  0  0
   -2.8201   -2.6227   -0.5089 C   0  0  0  0  0  0  0  0  0  0  0  0
    0.3244   -3.6434   -0.6636 C   0  0  0  0  0  0  0  0  0  0  0  0
    2.8958    2.9670    0.5731 C   0  0  0  0  0  0  0  0  0  0  0  0
    4.8351   -0.6903   -0.0512 C   0  0  0  0  0  0  0  0  0  0  0  0
    2.8964   -2.0406    0.2540 H   0  0  0  0  0  0  0  0  0  0  0  0
   -4.5643   -0.3782    0.3425 H   0  0  0  0  0  0  0  0  0  0  0  0
   -4.9774    2.3057   -0.0743 H   0  0  0  0  0  0  0  0  0  0  0  0
   -2.6540   -3.7032   -0.5455 H   0  0  0  0  0  0  0  0  0  0  0  0
   -2.6272   -2.2119   -1.5060 H   0  0  0  0  0  0  0  0  0  0  0  0
   -3.8636   -2.4631   -0.2264 H   0  0  0  0  0  0  0  0  0  0  0  0
    1.2900   -4.0188   -1.0169 H   0  0  0  0  0  0  0  0  0  0  0  0
   -0.1677   -3.1002   -1.4766 H   0  0  0  0  0  0  0  0  0  0  0  0
   -0.2924   -4.4987   -0.3755 H   0  0  0  0  0  0  0  0  0  0  0  0
    2.7650    2.5093    1.5602 H   0  0  0  0  0  0  0  0  0  0  0  0
    2.6416    4.0280    0.6564 H   0  0  0  0  0  0  0  0  0  0  0  0
    3.9401    2.8964    0.2561 H   0  0  0  0  0  0  0  0  0  0  0  0
    4.7049   -1.4277   -0.8506 H   0  0  0  0  0  0  0  0  0  0  0  0
    4.7883   -1.1418    0.9456 H   0  0  0  0  0  0  0  0  0  0  0  0
    5.8418   -0.2747   -0.1640 H   0  0  0  0  0  0  0  0  0  0  0  0
  1 13  1  0  0  0  0
  1 17  1  0  0  0  0
  2  9  1  0  0  0  0
  2 18  1  0  0  0  0
  3 11  1  0  0  0  0
  3 19  1  0  0  0  0
  4 12  1  0  0  0  0
  4 20  1  0  0  0  0
  5 14  1  0  0  0  0
  5 21  1  0  0  0  0
  6  8  1  0  0  0  0
  6 13  2  0  0  0  0
  7  8  2  0  0  0  0
  7  9  1  0  0  0  0
  7 11  1  0  0  0  0
  8 12  1  0  0  0  0
  9 10  2  0  0  0  0
 10 13  1  0  0  0  0
 10 16  1  0  0  0  0
 11 15  2  0  0  0  0
 12 14  2  0  0  0  0
 14 15  1  0  0  0  0
 15 22  1  0  0  0  0
 16 17  2  0  0  0  0
 16 23  1  0  0  0  0
 17 24  1  0  0  0  0
 18 25  1  0  0  0  0
 18 26  1  0  0  0  0
 18 27  1  0  0  0  0
 19 28  1  0  0  0  0
 19 29  1  0  0  0  0
 19 30  1  0  0  0  0
 20 31  1  0  0  0  0
 20 32  1  0  0  0  0
 20 33  1  0  0  0  0
 21 34  1  0  0  0  0
 21 35  1  0  0  0  0
 21 36  1  0  0  0  0
M  END
> <PUBCHEM_COMPOUND_CID>
95708

> <PUBCHEM_CONFORMER_RMSD>
0.6

> <PUBCHEM_CONFORMER_DIVERSEORDER>
7
5
6
4
1
3
2

> <PUBCHEM_MMFF94_PARTIAL_CHARGES>
22
1 -0.28
11 0.08
12 0.08
13 0.4
14 0.08
15 -0.15
16 -0.15
17 -0.01
18 0.28
19 0.28
2 -0.36
20 0.28
21 0.28
22 0.15
23 0.15
24 0.15
3 -0.36
4 -0.36
5 -0.36
6 -0.57
8 0.31
9 0.08

> <PUBCHEM_EFFECTIVE_ROTOR_COUNT>
4

> <PUBCHEM_PHARMACOPHORE_FEATURES>
7
1 2 acceptor
1 3 acceptor
1 4 acceptor
1 5 acceptor
5 1 10 13 16 17 rings
6 6 7 8 9 10 13 rings
6 7 8 11 12 14 15 rings

> <PUBCHEM_HEAVY_ATOM_COUNT>
21

> <PUBCHEM_ATOM_DEF_STEREO_COUNT>
0

> <PUBCHEM_ATOM_UDEF_STEREO_COUNT>
0

> <PUBCHEM_BOND_DEF_STEREO_COUNT>
0

> <PUBCHEM_BOND_UDEF_STEREO_COUNT>
0

> <PUBCHEM_ISOTOPIC_ATOM_COUNT>
0

> <PUBCHEM_COMPONENT_COUNT>
1

> <PUBCHEM_CACTVS_TAUTO_COUNT>
1

> <PUBCHEM_CONFORMER_ID>
000175DC00000007

> <PUBCHEM_MMFF94_ENERGY>
98.0347

> <PUBCHEM_FEATURE_SELFOVERLAP>
35.689

> <PUBCHEM_SHAPE_FINGERPRINT>
10062212 137 18343308071651995714
10411042 1 16681753261530958866
10608611 8 18410856525306912264
10616163 171 18411135827378272215
10967382 1 18267584800103922491
1100329 8 18409449189093512344
11471102 20 18268433606059153413
11578080 2 17242185556356749179
11680986 33 18196641015930374267
12035759 4 18190486925048823127
12173636 292 18338237051015478221
12403260 363 18339091371624041346
13140716 1 18411694357599076913
13380535 76 18341330093061869795
138480 1 17618503628537729355
14790565 3 18267009734523396380
15196674 1 18411980226633266608
15442244 35 18339925909766057898
15536298 74 18336264540140460832
16945 1 18339082699931882033
17804303 29 18412257354997780132
19591789 44 18410853218213450499
20510252 161 18118962495012586569
20645477 70 18052824938489003997
20905425 154 17903348217755971990
21267235 1 18412254017892580651
21501502 16 18339922593603152860
21524375 3 18343862238149162338
2334 1 18267862770487591873
23558518 356 18127971906175387306
23559900 14 18333450946294388032
238 59 17625018127826957781
2748010 2 18341043000220216277
335352 9 18339923822063890220
34934 24 18341617082686865738
350125 39 18339354167545174345
352729 6 18410849945680284641
5104073 3 18411980226369705360
6138700 20 18194678405429949078
7364860 26 18193555803155500310
7832392 63 18410858788886117258
81228 2 17766846030589098248
9709674 26 18335698355802235879

> <PUBCHEM_SHAPE_MULTIPOLES>
397.84
6.84
3.76
0.68
1.64
1.54
0
-2.43
0.08
-0.22
0.25
0.01
0.09
0.09

> <PUBCHEM_SHAPE_SELFOVERLAP>
882.379

> <PUBCHEM_SHAPE_VOLUME>
214.4

> <PUBCHEM_COORDINATE_TYPE>
2
5
10

$$$$

