5281412
  -OEChem-07051212573D

 60 67  0     1  0  0  0  0  0999 V2000
    0.5080   -2.5874   -0.2041 O   0  0  0  0  0  0  0  0  0  0  0  0
   -0.5080    2.5875   -0.2040 O   0  0  0  0  0  0  0  0  0  0  0  0
    3.9361   -4.1080    1.4723 O   0  0  0  0  0  0  0  0  0  0  0  0
   -3.9360    4.1081    1.4723 O   0  0  0  0  0  0  0  0  0  0  0  0
    3.5540   -1.9937    2.2333 O   0  0  0  0  0  0  0  0  0  0  0  0
   -3.5541    1.9936    2.2334 O   0  0  0  0  0  0  0  0  0  0  0  0
    2.5535   -1.3828   -0.2107 N   0  0  0  0  0  0  0  0  0  0  0  0
   -2.5535    1.3828   -0.2107 N   0  0  0  0  0  0  0  0  0  0  0  0
    4.7412    1.5601   -0.1082 N   0  0  0  0  0  0  0  0  0  0  0  0
   -4.7411   -1.5601   -0.1082 N   0  0  0  0  0  0  0  0  0  0  0  0
    3.5758   -2.4394   -0.1456 C   0  0  1  0  0  0  0  0  0  0  0  0
   -3.5758    2.4394   -0.1456 C   0  0  1  0  0  0  0  0  0  0  0  0
    2.8726   -0.0322   -0.2124 C   0  0  0  0  0  0  0  0  0  0  0  0
   -2.8726    0.0323   -0.2123 C   0  0  0  0  0  0  0  0  0  0  0  0
    4.9690   -2.0336   -0.7023 C   0  0  0  0  0  0  0  0  0  0  0  0
   -4.9691    2.0336   -0.7023 C   0  0  0  0  0  0  0  0  0  0  0  0
    5.2559   -0.5816   -0.4690 C   0  0  0  0  0  0  0  0  0  0  0  0
   -5.2559    0.5817   -0.4690 C   0  0  0  0  0  0  0  0  0  0  0  0
    4.2263    0.3097   -0.2618 C   0  0  0  0  0  0  0  0  0  0  0  0
   -4.2263   -0.3097   -0.2618 C   0  0  0  0  0  0  0  0  0  0  0  0
    0.6479   -0.1565   -0.2088 C   0  0  0  0  0  0  0  0  0  0  0  0
   -0.6480    0.1565   -0.2088 C   0  0  0  0  0  0  0  0  0  0  0  0
    1.1673   -1.5654   -0.2120 C   0  0  0  0  0  0  0  0  0  0  0  0
   -1.1673    1.5653   -0.2120 C   0  0  0  0  0  0  0  0  0  0  0  0
    1.7830    0.7396   -0.2088 C   0  0  0  0  0  0  0  0  0  0  0  0
   -1.7831   -0.7396   -0.2088 C   0  0  0  0  0  0  0  0  0  0  0  0
    6.4678    0.1581   -0.4345 C   0  0  0  0  0  0  0  0  0  0  0  0
   -6.4678   -0.1581   -0.4345 C   0  0  0  0  0  0  0  0  0  0  0  0
    6.1186    1.4967   -0.2055 C   0  0  0  0  0  0  0  0  0  0  0  0
   -6.1186   -1.4968   -0.2054 C   0  0  0  0  0  0  0  0  0  0  0  0
    3.6796   -2.7868    1.3122 C   0  0  0  0  0  0  0  0  0  0  0  0
   -3.6796    2.7868    1.3122 C   0  0  0  0  0  0  0  0  0  0  0  0
    7.8301   -0.1712   -0.5799 C   0  0  0  0  0  0  0  0  0  0  0  0
   -7.8300    0.1712   -0.5798 C   0  0  0  0  0  0  0  0  0  0  0  0
    7.0728    2.5164   -0.1113 C   0  0  0  0  0  0  0  0  0  0  0  0
   -7.0727   -2.5164   -0.1113 C   0  0  0  0  0  0  0  0  0  0  0  0
    8.7921    0.8409   -0.4871 C   0  0  0  0  0  0  0  0  0  0  0  0
   -8.7921   -0.8409   -0.4872 C   0  0  0  0  0  0  0  0  0  0  0  0
    8.4173    2.1628   -0.2559 C   0  0  0  0  0  0  0  0  0  0  0  0
   -8.4173   -2.1628   -0.2560 C   0  0  0  0  0  0  0  0  0  0  0  0
    3.1822   -3.3133   -0.6788 H   0  0  0  0  0  0  0  0  0  0  0  0
   -3.1821    3.3133   -0.6788 H   0  0  0  0  0  0  0  0  0  0  0  0
    4.9737   -2.2010   -1.7870 H   0  0  0  0  0  0  0  0  0  0  0  0
    5.7604   -2.6563   -0.2699 H   0  0  0  0  0  0  0  0  0  0  0  0
   -4.9738    2.2011   -1.7870 H   0  0  0  0  0  0  0  0  0  0  0  0
   -5.7605    2.6563   -0.2698 H   0  0  0  0  0  0  0  0  0  0  0  0
    1.7682    1.8155   -0.2257 H   0  0  0  0  0  0  0  0  0  0  0  0
   -1.7683   -1.8154   -0.2257 H   0  0  0  0  0  0  0  0  0  0  0  0
    4.2131    2.4063    0.0585 H   0  0  0  0  0  0  0  0  0  0  0  0
   -4.2131   -2.4064    0.0585 H   0  0  0  0  0  0  0  0  0  0  0  0
    8.1380   -1.1970   -0.7609 H   0  0  0  0  0  0  0  0  0  0  0  0
   -8.1381    1.1971   -0.7609 H   0  0  0  0  0  0  0  0  0  0  0  0
    6.7835    3.5468    0.0665 H   0  0  0  0  0  0  0  0  0  0  0  0
   -6.7834   -3.5468    0.0665 H   0  0  0  0  0  0  0  0  0  0  0  0
    9.8440    0.5912   -0.5974 H   0  0  0  0  0  0  0  0  0  0  0  0
   -9.8440   -0.5912   -0.5975 H   0  0  0  0  0  0  0  0  0  0  0  0
    9.1817    2.9327   -0.1880 H   0  0  0  0  0  0  0  0  0  0  0  0
   -9.1818   -2.9327   -0.1882 H   0  0  0  0  0  0  0  0  0  0  0  0
    4.0093   -4.3549    2.4189 H   0  0  0  0  0  0  0  0  0  0  0  0
   -4.0093    4.3549    2.4189 H   0  0  0  0  0  0  0  0  0  0  0  0
  1 23  2  0  0  0  0
  2 24  2  0  0  0  0
  3 31  1  0  0  0  0
  3 59  1  0  0  0  0
  4 32  1  0  0  0  0
  4 60  1  0  0  0  0
  5 31  2  0  0  0  0
  6 32  2  0  0  0  0
  7 11  1  0  0  0  0
  7 13  1  0  0  0  0
  7 23  1  0  0  0  0
  8 12  1  0  0  0  0
  8 14  1  0  0  0  0
  8 24  1  0  0  0  0
  9 19  1  0  0  0  0
  9 29  1  0  0  0  0
  9 49  1  0  0  0  0
 10 20  1  0  0  0  0
 10 30  1  0  0  0  0
 10 50  1  0  0  0  0
 11 15  1  0  0  0  0
 11 31  1  0  0  0  0
 11 41  1  0  0  0  0
 12 16  1  0  0  0  0
 12 32  1  0  0  0  0
 12 42  1  0  0  0  0
 13 19  1  0  0  0  0
 13 25  2  0  0  0  0
 14 20  1  0  0  0  0
 14 26  2  0  0  0  0
 15 17  1  0  0  0  0
 15 43  1  0  0  0  0
 15 44  1  0  0  0  0
 16 18  1  0  0  0  0
 16 45  1  0  0  0  0
 16 46  1  0  0  0  0
 17 19  2  0  0  0  0
 17 27  1  0  0  0  0
 18 20  2  0  0  0  0
 18 28  1  0  0  0  0
 21 22  2  0  0  0  0
 21 23  1  0  0  0  0
 21 25  1  0  0  0  0
 22 24  1  0  0  0  0
 22 26  1  0  0  0  0
 25 47  1  0  0  0  0
 26 48  1  0  0  0  0
 27 29  1  0  0  0  0
 27 33  2  0  0  0  0
 28 30  1  0  0  0  0
 28 34  2  0  0  0  0
 29 35  2  0  0  0  0
 30 36  2  0  0  0  0
 33 37  1  0  0  0  0
 33 51  1  0  0  0  0
 34 38  1  0  0  0  0
 34 52  1  0  0  0  0
 35 39  1  0  0  0  0
 35 53  1  0  0  0  0
 36 40  1  0  0  0  0
 36 54  1  0  0  0  0
 37 39  2  0  0  0  0
 37 55  1  0  0  0  0
 38 40  2  0  0  0  0
 38 56  1  0  0  0  0
 39 57  1  0  0  0  0
 40 58  1  0  0  0  0
M  END
> <PUBCHEM_COMPOUND_CID>
5281412

> <PUBCHEM_CONFORMER_RMSD>
0.8

> <PUBCHEM_CONFORMER_DIVERSEORDER>
1

> <PUBCHEM_MMFF94_PARTIAL_CHARGES>
52
1 -0.57
10 0.03
11 0.36
12 0.36
13 0.15
14 0.15
15 0.18
16 0.18
17 -0.18
18 -0.18
19 -0.2
2 -0.57
20 -0.2
21 0.01
22 0.01
23 0.62
24 0.62
25 -0.15
26 -0.15
29 -0.15
3 -0.65
30 -0.15
31 0.66
32 0.66
33 -0.15
34 -0.15
35 -0.15
36 -0.15
37 -0.15
38 -0.15
39 -0.15
4 -0.65
40 -0.15
47 0.15
48 0.15
49 0.27
5 -0.57
50 0.27
51 0.15
52 0.15
53 0.15
54 0.15
55 0.15
56 0.15
57 0.15
58 0.15
59 0.5
6 -0.57
60 0.5
7 -0.47
8 -0.47
9 0.03

> <PUBCHEM_EFFECTIVE_ROTOR_COUNT>
2.8

> <PUBCHEM_PHARMACOPHORE_FEATURES>
20
1 1 acceptor
1 10 cation
1 10 donor
1 2 acceptor
1 3 acceptor
1 4 acceptor
1 5 acceptor
1 6 acceptor
1 9 cation
1 9 donor
3 3 5 31 anion
3 4 6 32 anion
5 10 18 20 28 30 rings
5 7 13 21 23 25 rings
5 8 14 22 24 26 rings
5 9 17 19 27 29 rings
6 27 29 33 35 37 39 rings
6 28 30 34 36 38 40 rings
6 7 11 13 15 17 19 rings
6 8 12 14 16 18 20 rings

> <PUBCHEM_HEAVY_ATOM_COUNT>
40

> <PUBCHEM_ATOM_DEF_STEREO_COUNT>
2

> <PUBCHEM_ATOM_UDEF_STEREO_COUNT>
0

> <PUBCHEM_BOND_DEF_STEREO_COUNT>
1

> <PUBCHEM_BOND_UDEF_STEREO_COUNT>
0

> <PUBCHEM_ISOTOPIC_ATOM_COUNT>
0

> <PUBCHEM_COMPONENT_COUNT>
1

> <PUBCHEM_CACTVS_TAUTO_COUNT>
3

> <PUBCHEM_CONFORMER_ID>
0050968400000001

> <PUBCHEM_MMFF94_ENERGY>
118.5143

> <PUBCHEM_FEATURE_SELFOVERLAP>
102.143

> <PUBCHEM_SHAPE_FINGERPRINT>
10050765 1 18267585899626054548
10595046 47 18410856593999534505
10939801 23 18409732833140081455
11007060 377 18272925042407616403
11315181 36 18407757033079107977
11497681 19 18409450280236868775
12013929 94 18336544894616283479
12082328 90 17967529107650019532
12144603 126 18335135398181669057
12373685 5 15769781234035628417
1361 4 18412829105545497355
13631057 29 18335421262419965689
13692114 37 18201445757886510962
13811026 1 18272650121292406143
14068700 675 18334857191654497781
14118638 360 18410856585420149399
14394314 77 18410851105638972537
1454969 45 18410293592596391022
14856354 85 14634869717898653373
15064986 266 18261385694245271261
15289351 153 18335424600063164064
15347591 1 18198067069367897245
15728490 51 18335421223396216319
1577012 14 18338517555630240473
15840311 113 18131349667022568060
15890870 6 18269834234588750340
16067689 302 18333446525944651407
17686467 74 18342176627164004349
18335252 98 18408319969161268606
18365409 1 18198058080540365758
18608769 82 18335985268138899935
19611394 137 18057593274845916875
19841028 212 18060144279451818867
20105231 36 17821722815093466174
21130935 74 18262519329362268978
21223535 225 15195296369591032423
23559900 14 18339088099592269217
24771293 8 18131628993677146436
335507 130 17967534567149058364
3552219 110 17676757692177161537
3986486 107 18189311586759990732
4073 2 18202559562252408690
4461854 278 17968649416137827407
45266715 3 17131836481770304562
45377200 153 16805887273629487751
497634 4 18339924922076924877
5104073 3 18338799047206240952
5109719 28 18339074883661720064
6057620 51 18412260614915114840
613672 6 15625931092739433583
6523845 18 15574432119830731966
6691757 9 13901907834825276325
99344 41 18342739623918928660

> <PUBCHEM_SHAPE_MULTIPOLES>
768.04
26.9
3.71
1.06
0
0
0.64
0
-4.74
0
1.57
0
0
-2.24

> <PUBCHEM_SHAPE_SELFOVERLAP>
1787.626

> <PUBCHEM_SHAPE_VOLUME>
386.8

> <PUBCHEM_COORDINATE_TYPE>
2
5
10

$$$$

