60663
  -OEChem-07051212532D

 74 77  0     1  0  0  0  0  0999 V2000
   13.4601    3.9276    0.0000 F   0  0  0  0  0  0  0  0  0  0  0  0
    8.0640    2.4035    0.0000 O   0  0  0  0  0  0  0  0  0  0  0  0
    8.0640    4.1355    0.0000 O   0  0  0  0  0  0  0  0  0  0  0  0
    6.0640    4.1355    0.0000 O   0  0  0  0  0  0  0  0  0  0  0  0
    7.0640    0.6714    0.0000 N   0  0  3  0  0  0  0  0  0  0  0  0
    4.4691   -1.9684    0.0000 N   0  0  0  0  0  0  0  0  0  0  0  0
    3.0752   -1.1637    0.0000 N   0  0  0  0  0  0  0  0  0  0  0  0
    9.0640    2.4035    0.0000 C   0  0  1  0  0  0  0  0  0  0  0  0
    9.9300    1.9035    0.0000 C   0  0  1  0  0  0  0  0  0  0  0  0
    9.0640    3.4035    0.0000 C   0  0  0  0  0  0  0  0  0  0  0  0
    9.9300    0.9035    0.0000 C   0  0  0  0  0  0  0  0  0  0  0  0
    8.5640    1.5374    0.0000 C   0  0  0  0  0  0  0  0  0  0  0  0
   10.7960    2.4035    0.0000 C   0  0  0  0  0  0  0  0  0  0  0  0
    9.9300    3.9035    0.0000 C   0  0  0  0  0  0  0  0  0  0  0  0
   10.7960    3.4035    0.0000 C   0  0  0  0  0  0  0  0  0  0  0  0
    7.5640    1.5374    0.0000 C   0  0  0  0  0  0  0  0  0  0  0  0
   10.7960    0.4035    0.0000 C   0  0  0  0  0  0  0  0  0  0  0  0
    9.0640    0.4035    0.0000 C   0  0  0  0  0  0  0  0  0  0  0  0
   11.6899    1.8688    0.0000 C   0  0  0  0  0  0  0  0  0  0  0  0
   11.6899    3.9381    0.0000 C   0  0  0  0  0  0  0  0  0  0  0  0
   12.5960    2.3826    0.0000 C   0  0  0  0  0  0  0  0  0  0  0  0
    7.5640    3.2695    0.0000 C   0  0  0  0  0  0  0  0  0  0  0  0
   12.5960    3.4243    0.0000 C   0  0  0  0  0  0  0  0  0  0  0  0
    6.0640    0.6714    0.0000 C   0  0  0  0  0  0  0  0  0  0  0  0
    7.5640   -0.1946    0.0000 C   0  0  0  0  0  0  0  0  0  0  0  0
    5.5640   -0.1946    0.0000 C   0  0  0  0  0  0  0  0  0  0  0  0
    6.5640    3.2695    0.0000 C   0  0  0  0  0  0  0  0  0  0  0  0
    4.5640   -0.1946    0.0000 C   0  0  0  0  0  0  0  0  0  0  0  0
    4.0640   -1.0606    0.0000 C   0  0  0  0  0  0  0  0  0  0  0  0
    5.0640    4.1355    0.0000 C   0  0  0  0  0  0  0  0  0  0  0  0
    3.7320   -2.6355    0.0000 C   0  0  0  0  0  0  0  0  0  0  0  0
    2.8660   -2.1355    0.0000 C   0  0  0  0  0  0  0  0  0  0  0  0
    3.7320   -3.6355    0.0000 C   0  0  0  0  0  0  0  0  0  0  0  0
    2.0000   -2.6355    0.0000 C   0  0  0  0  0  0  0  0  0  0  0  0
    2.8660   -4.1355    0.0000 C   0  0  0  0  0  0  0  0  0  0  0  0
    2.0000   -3.6355    0.0000 C   0  0  0  0  0  0  0  0  0  0  0  0
   10.4669    1.5935    0.0000 H   0  0  0  0  0  0  0  0  0  0  0  0
    8.8519    3.9861    0.0000 H   0  0  0  0  0  0  0  0  0  0  0  0
    8.4534    3.2958    0.0000 H   0  0  0  0  0  0  0  0  0  0  0  0
   10.4669    1.2135    0.0000 H   0  0  0  0  0  0  0  0  0  0  0  0
    8.4563    0.9269    0.0000 H   0  0  0  0  0  0  0  0  0  0  0  0
    9.1466    1.3254    0.0000 H   0  0  0  0  0  0  0  0  0  0  0  0
   10.3285    4.3784    0.0000 H   0  0  0  0  0  0  0  0  0  0  0  0
    9.5314    4.3784    0.0000 H   0  0  0  0  0  0  0  0  0  0  0  0
    7.6716    2.1480    0.0000 H   0  0  0  0  0  0  0  0  0  0  0  0
    6.9813    1.7495    0.0000 H   0  0  0  0  0  0  0  0  0  0  0  0
   10.4860   -0.1335    0.0000 H   0  0  0  0  0  0  0  0  0  0  0  0
   11.3329    0.0935    0.0000 H   0  0  0  0  0  0  0  0  0  0  0  0
   11.1060    0.9404    0.0000 H   0  0  0  0  0  0  0  0  0  0  0  0
    8.7540    0.9404    0.0000 H   0  0  0  0  0  0  0  0  0  0  0  0
    8.5270    0.0935    0.0000 H   0  0  0  0  0  0  0  0  0  0  0  0
    9.3740   -0.1335    0.0000 H   0  0  0  0  0  0  0  0  0  0  0  0
   11.6828    1.2488    0.0000 H   0  0  0  0  0  0  0  0  0  0  0  0
   11.6828    4.5581    0.0000 H   0  0  0  0  0  0  0  0  0  0  0  0
   13.1317    2.0706    0.0000 H   0  0  0  0  0  0  0  0  0  0  0  0
    6.1716    1.2820    0.0000 H   0  0  0  0  0  0  0  0  0  0  0  0
    5.4813    0.8835    0.0000 H   0  0  0  0  0  0  0  0  0  0  0  0
    7.0270   -0.5046    0.0000 H   0  0  0  0  0  0  0  0  0  0  0  0
    7.8740   -0.7316    0.0000 H   0  0  0  0  0  0  0  0  0  0  0  0
    8.1009    0.1154    0.0000 H   0  0  0  0  0  0  0  0  0  0  0  0
    5.4563   -0.8052    0.0000 H   0  0  0  0  0  0  0  0  0  0  0  0
    6.1466   -0.4067    0.0000 H   0  0  0  0  0  0  0  0  0  0  0  0
    5.9813    3.0574    0.0000 H   0  0  0  0  0  0  0  0  0  0  0  0
    6.6716    2.6589    0.0000 H   0  0  0  0  0  0  0  0  0  0  0  0
    4.6716    0.4160    0.0000 H   0  0  0  0  0  0  0  0  0  0  0  0
    3.9813    0.0174    0.0000 H   0  0  0  0  0  0  0  0  0  0  0  0
    5.0757   -2.0963    0.0000 H   0  0  0  0  0  0  0  0  0  0  0  0
    5.0640    4.7555    0.0000 H   0  0  0  0  0  0  0  0  0  0  0  0
    4.4440    4.1355    0.0000 H   0  0  0  0  0  0  0  0  0  0  0  0
    5.0640    3.5155    0.0000 H   0  0  0  0  0  0  0  0  0  0  0  0
    4.2690   -3.9455    0.0000 H   0  0  0  0  0  0  0  0  0  0  0  0
    1.4631   -2.3255    0.0000 H   0  0  0  0  0  0  0  0  0  0  0  0
    2.8660   -4.7555    0.0000 H   0  0  0  0  0  0  0  0  0  0  0  0
    1.4631   -3.9455    0.0000 H   0  0  0  0  0  0  0  0  0  0  0  0
  1 23  1  0  0  0  0
  8  2  1  6  0  0  0
  2 22  1  0  0  0  0
  3 22  2  0  0  0  0
  4 27  1  0  0  0  0
  4 30  1  0  0  0  0
  5 16  1  0  0  0  0
  5 24  1  0  0  0  0
  5 25  1  0  0  0  0
  6 29  1  0  0  0  0
  6 31  1  0  0  0  0
  6 67  1  0  0  0  0
  7 29  2  0  0  0  0
  7 32  1  0  0  0  0
  8  9  1  0  0  0  0
  8 10  1  0  0  0  0
  8 12  1  0  0  0  0
  9 11  1  6  0  0  0
  9 13  1  0  0  0  0
  9 37  1  0  0  0  0
 10 14  1  0  0  0  0
 10 38  1  0  0  0  0
 10 39  1  0  0  0  0
 11 17  1  0  0  0  0
 11 18  1  0  0  0  0
 11 40  1  0  0  0  0
 12 16  1  0  0  0  0
 12 41  1  0  0  0  0
 12 42  1  0  0  0  0
 13 15  2  0  0  0  0
 13 19  1  0  0  0  0
 14 15  1  0  0  0  0
 14 43  1  0  0  0  0
 14 44  1  0  0  0  0
 15 20  1  0  0  0  0
 16 45  1  0  0  0  0
 16 46  1  0  0  0  0
 17 47  1  0  0  0  0
 17 48  1  0  0  0  0
 17 49  1  0  0  0  0
 18 50  1  0  0  0  0
 18 51  1  0  0  0  0
 18 52  1  0  0  0  0
 19 21  2  0  0  0  0
 19 53  1  0  0  0  0
 20 23  2  0  0  0  0
 20 54  1  0  0  0  0
 21 23  1  0  0  0  0
 21 55  1  0  0  0  0
 22 27  1  0  0  0  0
 24 26  1  0  0  0  0
 24 56  1  0  0  0  0
 24 57  1  0  0  0  0
 25 58  1  0  0  0  0
 25 59  1  0  0  0  0
 25 60  1  0  0  0  0
 26 28  1  0  0  0  0
 26 61  1  0  0  0  0
 26 62  1  0  0  0  0
 27 63  1  0  0  0  0
 27 64  1  0  0  0  0
 28 29  1  0  0  0  0
 28 65  1  0  0  0  0
 28 66  1  0  0  0  0
 30 68  1  0  0  0  0
 30 69  1  0  0  0  0
 30 70  1  0  0  0  0
 31 32  1  0  0  0  0
 31 33  2  0  0  0  0
 32 34  2  0  0  0  0
 33 35  1  0  0  0  0
 33 71  1  0  0  0  0
 34 36  1  0  0  0  0
 34 72  1  0  0  0  0
 35 36  2  0  0  0  0
 35 73  1  0  0  0  0
 36 74  1  0  0  0  0
M  END
> <PUBCHEM_COMPOUND_CID>
60663

> <PUBCHEM_COMPOUND_CANONICALIZED>
1

> <PUBCHEM_CACTVS_COMPLEXITY>
709

> <PUBCHEM_CACTVS_HBOND_ACCEPTOR>
6

> <PUBCHEM_CACTVS_HBOND_DONOR>
1

> <PUBCHEM_CACTVS_ROTATABLE_BOND>
12

> <PUBCHEM_CACTVS_SUBSKEYS>
AAADcfB7MQAAAAAAAAAAAAAAAAAAAWAAAAAwYMAAAAAAAFjB9AAAHwAQAAAADUzhnw4z2LfJlACoAybybAKCgC2hEqAJmSB4dJiJaKLAmZWWIAhu0APKyCeQwPAOgAAAAAAQACDAAAYAADAAQAAAAAAAAA==

> <PUBCHEM_IUPAC_OPENEYE_NAME>
[(1S,2S)-2-[2-[3-(1H-benzimidazol-2-yl)propyl-methyl-amino]ethyl]-6-fluoro-1-isopropyl-tetralin-2-yl] 2-methoxyacetate

> <PUBCHEM_IUPAC_CAS_NAME>
2-methoxyacetic acid [(1S,2S)-2-[2-[3-(1H-benzimidazol-2-yl)propyl-methylamino]ethyl]-6-fluoro-1-propan-2-yl-3,4-dihydro-1H-naphthalen-2-yl] ester

> <PUBCHEM_IUPAC_NAME>
[(1S,2S)-2-[2-[3-(1H-benzimidazol-2-yl)propyl-methylamino]ethyl]-6-fluoro-1-propan-2-yl-3,4-dihydro-1H-naphthalen-2-yl] 2-methoxyacetate

> <PUBCHEM_IUPAC_SYSTEMATIC_NAME>
[(1S,2S)-2-[2-[3-(1H-benzimidazol-2-yl)propyl-methyl-amino]ethyl]-6-fluoranyl-1-propan-2-yl-3,4-dihydro-1H-naphthalen-2-yl] 2-methoxyethanoate

> <PUBCHEM_IUPAC_TRADITIONAL_NAME>
2-methoxyacetic acid [(1S,2S)-2-[2-[3-(1H-benzimidazol-2-yl)propyl-methyl-amino]ethyl]-6-fluoro-1-isopropyl-tetralin-2-yl] ester

> <PUBCHEM_IUPAC_INCHI>
InChI=1S/C29H38FN3O3/c1-20(2)28-23-12-11-22(30)18-21(23)13-14-29(28,36-27(34)19-35-4)15-17-33(3)16-7-10-26-31-24-8-5-6-9-25(24)32-26/h5-6,8-9,11-12,18,20,28H,7,10,13-17,19H2,1-4H3,(H,31,32)/t28-,29-/m0/s1

> <PUBCHEM_IUPAC_INCHIKEY>
HBNPJJILLOYFJU-VMPREFPWSA-N

> <PUBCHEM_XLOGP3_AA>
5.8

> <PUBCHEM_EXACT_MASS>
495.28972

> <PUBCHEM_MOLECULAR_FORMULA>
C29H38FN3O3

> <PUBCHEM_MOLECULAR_WEIGHT>
495.628723

> <PUBCHEM_OPENEYE_CAN_SMILES>
CC(C)C1C2=C(CCC1(CCN(C)CCCC3=NC4=CC=CC=C4N3)OC(=O)COC)C=C(C=C2)F

> <PUBCHEM_OPENEYE_ISO_SMILES>
CC(C)[C@H]1C2=C(CC[C@@]1(CCN(C)CCCC3=NC4=CC=CC=C4N3)OC(=O)COC)C=C(C=C2)F

> <PUBCHEM_CACTVS_TPSA>
67.4

> <PUBCHEM_MONOISOTOPIC_WEIGHT>
495.28972

> <PUBCHEM_TOTAL_CHARGE>
0

> <PUBCHEM_HEAVY_ATOM_COUNT>
36

> <PUBCHEM_ATOM_DEF_STEREO_COUNT>
2

> <PUBCHEM_ATOM_UDEF_STEREO_COUNT>
0

> <PUBCHEM_BOND_DEF_STEREO_COUNT>
0

> <PUBCHEM_BOND_UDEF_STEREO_COUNT>
0

> <PUBCHEM_ISOTOPIC_ATOM_COUNT>
0

> <PUBCHEM_COMPONENT_COUNT>
1

> <PUBCHEM_CACTVS_TAUTO_COUNT>
2

> <PUBCHEM_COORDINATE_TYPE>
1
5
255

> <PUBCHEM_BONDANNOTATIONS>
13  15  8
13  19  8
15  20  8
19  21  8
8  2  6
20  23  8
21  23  8
31  32  8
31  33  8
32  34  8
33  35  8
34  36  8
35  36  8
6  29  8
6  31  8
7  29  8
7  32  8
9  11  6

$$$$

