442387
  -OEChem-07051212582D

 47 49  0     1  0  0  0  0  0999 V2000
    3.3021    3.2012    0.0000 O   0  0  0  0  0  0  0  0  0  0  0  0
    3.0616    0.9991    0.0000 O   0  0  0  0  0  0  0  0  0  0  0  0
    5.0446   -1.7960    0.0000 O   0  0  0  0  0  0  0  0  0  0  0  0
    6.7679   -1.6216    0.0000 O   0  0  0  0  0  0  0  0  0  0  0  0
    3.8021    1.6623    0.0000 C   0  0  2  0  0  0  0  0  0  0  0  0
    4.6111    2.2501    0.0000 C   0  0  1  0  0  0  0  0  0  0  0  0
    2.9931    2.2501    0.0000 C   0  0  1  0  0  0  0  0  0  0  0  0
    3.8950    0.6248    0.0000 C   0  0  0  0  0  0  0  0  0  0  0  0
    4.8433    0.1938    0.0000 C   0  0  1  0  0  0  0  0  0  0  0  0
    5.5691    1.8412    0.0000 C   0  0  0  0  0  0  0  0  0  0  0  0
    4.3021    3.2012    0.0000 C   0  0  0  0  0  0  0  0  0  0  0  0
    5.6860    0.8061    0.0000 C   0  0  0  0  0  0  0  0  0  0  0  0
    5.4201    2.8379    0.0000 C   0  0  0  0  0  0  0  0  0  0  0  0
    4.9440   -0.8011    0.0000 C   0  0  0  0  0  0  0  0  0  0  0  0
    2.0047    2.1436    0.0000 C   0  0  0  0  0  0  0  0  0  0  0  0
    2.1840    2.8379    0.0000 C   0  0  0  0  0  0  0  0  0  0  0  0
    2.0000    1.3340    0.0000 C   0  0  0  0  0  0  0  0  0  0  0  0
    5.9389   -0.7004    0.0000 C   0  0  0  0  0  0  0  0  0  0  0  0
    3.9490   -0.9018    0.0000 C   0  0  0  0  0  0  0  0  0  0  0  0
    5.9566   -2.2062    0.0000 C   0  0  0  0  0  0  0  0  0  0  0  0
    6.0573   -3.2012    0.0000 C   0  0  0  0  0  0  0  0  0  0  0  0
    3.2771    0.6760    0.0000 H   0  0  0  0  0  0  0  0  0  0  0  0
    3.7388    0.0248    0.0000 H   0  0  0  0  0  0  0  0  0  0  0  0
    5.6191   -0.1534    0.0000 H   0  0  0  0  0  0  0  0  0  0  0  0
    6.1880    1.8043    0.0000 H   0  0  0  0  0  0  0  0  0  0  0  0
    5.7113    2.4446    0.0000 H   0  0  0  0  0  0  0  0  0  0  0  0
    4.9085    3.3301    0.0000 H   0  0  0  0  0  0  0  0  0  0  0  0
    4.2373    3.8178    0.0000 H   0  0  0  0  0  0  0  0  0  0  0  0
    5.9592    0.2496    0.0000 H   0  0  0  0  0  0  0  0  0  0  0  0
    6.2810    0.9801    0.0000 H   0  0  0  0  0  0  0  0  0  0  0  0
    5.7845    2.3363    0.0000 H   0  0  0  0  0  0  0  0  0  0  0  0
    5.9217    3.2023    0.0000 H   0  0  0  0  0  0  0  0  0  0  0  0
    5.0557    3.3395    0.0000 H   0  0  0  0  0  0  0  0  0  0  0  0
    1.5446    2.5592    0.0000 H   0  0  0  0  0  0  0  0  0  0  0  0
    2.5485    3.3395    0.0000 H   0  0  0  0  0  0  0  0  0  0  0  0
    1.6824    3.2023    0.0000 H   0  0  0  0  0  0  0  0  0  0  0  0
    1.8196    2.3363    0.0000 H   0  0  0  0  0  0  0  0  0  0  0  0
    1.4989    0.9689    0.0000 H   0  0  0  0  0  0  0  0  0  0  0  0
    6.0013   -1.3172    0.0000 H   0  0  0  0  0  0  0  0  0  0  0  0
    6.5557   -0.6379    0.0000 H   0  0  0  0  0  0  0  0  0  0  0  0
    5.8764   -0.0835    0.0000 H   0  0  0  0  0  0  0  0  0  0  0  0
    3.8866   -0.2849    0.0000 H   0  0  0  0  0  0  0  0  0  0  0  0
    3.3322   -0.9642    0.0000 H   0  0  0  0  0  0  0  0  0  0  0  0
    4.0115   -1.5186    0.0000 H   0  0  0  0  0  0  0  0  0  0  0  0
    5.4405   -3.2636    0.0000 H   0  0  0  0  0  0  0  0  0  0  0  0
    6.1197   -3.8180    0.0000 H   0  0  0  0  0  0  0  0  0  0  0  0
    6.6742   -3.1387    0.0000 H   0  0  0  0  0  0  0  0  0  0  0  0
  1  7  1  0  0  0  0
  1 11  1  0  0  0  0
  5  2  1  1  0  0  0
  2 17  1  0  0  0  0
  3 14  1  0  0  0  0
  3 20  1  0  0  0  0
  4 20  2  0  0  0  0
  5  6  1  0  0  0  0
  5  7  1  0  0  0  0
  5  8  1  0  0  0  0
  6 10  1  0  0  0  0
  6 11  1  0  0  0  0
  6 13  1  1  0  0  0
  7 15  1  0  0  0  0
  7 16  1  6  0  0  0
  8  9  1  0  0  0  0
  8 22  1  0  0  0  0
  8 23  1  0  0  0  0
  9 12  1  0  0  0  0
  9 14  1  0  0  0  0
  9 24  1  6  0  0  0
 10 12  1  0  0  0  0
 10 25  1  0  0  0  0
 10 26  1  0  0  0  0
 11 27  1  0  0  0  0
 11 28  1  0  0  0  0
 12 29  1  0  0  0  0
 12 30  1  0  0  0  0
 13 31  1  0  0  0  0
 13 32  1  0  0  0  0
 13 33  1  0  0  0  0
 14 18  1  0  0  0  0
 14 19  1  0  0  0  0
 15 17  2  0  0  0  0
 15 34  1  0  0  0  0
 16 35  1  0  0  0  0
 16 36  1  0  0  0  0
 16 37  1  0  0  0  0
 17 38  1  0  0  0  0
 18 39  1  0  0  0  0
 18 40  1  0  0  0  0
 18 41  1  0  0  0  0
 19 42  1  0  0  0  0
 19 43  1  0  0  0  0
 19 44  1  0  0  0  0
 20 21  1  0  0  0  0
 21 45  1  0  0  0  0
 21 46  1  0  0  0  0
 21 47  1  0  0  0  0
M  END
> <PUBCHEM_COMPOUND_CID>
442387

> <PUBCHEM_COMPOUND_CANONICALIZED>
1

> <PUBCHEM_CACTVS_COMPLEXITY>
497

> <PUBCHEM_CACTVS_HBOND_ACCEPTOR>
4

> <PUBCHEM_CACTVS_HBOND_DONOR>
0

> <PUBCHEM_CACTVS_ROTATABLE_BOND>
3

> <PUBCHEM_CACTVS_SUBSKEYS>
AAADceB4OAAAAAAAAAAAAAAAAAAAASIAAAAwAAAAAAAQAEgAAAAAGgAAAAAAD0SggAICCAAABACIACDSCAAACAAgIAAIAAAAAAgBBAIAIAACAAAFwAACIAHA4PwPgAAAAAAAAACAAAYAADAAAAAAAAAAAA==

> <PUBCHEM_IUPAC_OPENEYE_NAME>
[1-[(3aR,5aS,8R,9aR)-3a,5a-dimethyl-6,7,8,9-tetrahydro-5H-furo[2,3-i]isobenzofuran-8-yl]-1-methyl-ethyl] acetate

> <PUBCHEM_IUPAC_CAS_NAME>
acetic acid 2-[(3aR,5aS,8R,9aR)-3a,5a-dimethyl-6,7,8,9-tetrahydro-5H-furo[2,3-i]isobenzofuran-8-yl]propan-2-yl ester

> <PUBCHEM_IUPAC_NAME>
2-[(3aR,5aS,8R,9aR)-3a,5a-dimethyl-6,7,8,9-tetrahydro-5H-furo[2,3-i][2]benzofuran-8-yl]propan-2-yl acetate

> <PUBCHEM_IUPAC_SYSTEMATIC_NAME>
2-[(3aR,5aS,8R,9aR)-3a,5a-dimethyl-6,7,8,9-tetrahydro-5H-furo[2,3-i][2]benzofuran-8-yl]propan-2-yl ethanoate

> <PUBCHEM_IUPAC_TRADITIONAL_NAME>
acetic acid [1-[(3aR,5aS,8R,9aR)-3a,5a-dimethyl-6,7,8,9-tetrahydro-5H-fur[2,3-i]isobenzofuran-8-yl]-1-methyl-ethyl] ester

> <PUBCHEM_IUPAC_INCHI>
InChI=1S/C17H26O4/c1-12(18)21-14(2,3)13-6-7-15(4)11-20-16(5)8-9-19-17(15,16)10-13/h8-9,13H,6-7,10-11H2,1-5H3/t13-,15+,16-,17-/m1/s1

> <PUBCHEM_IUPAC_INCHIKEY>
YARAJYKHRCCDLG-XLNGHYISSA-N

> <PUBCHEM_XLOGP3_AA>
2.3

> <PUBCHEM_EXACT_MASS>
294.183109

> <PUBCHEM_MOLECULAR_FORMULA>
C17H26O4

> <PUBCHEM_MOLECULAR_WEIGHT>
294.38594

> <PUBCHEM_OPENEYE_CAN_SMILES>
CC(=O)OC(C)(C)C1CCC2(COC3(C2(C1)OC=C3)C)C

> <PUBCHEM_OPENEYE_ISO_SMILES>
CC(=O)OC(C)(C)[C@@H]1CC[C@]2(CO[C@]3([C@]2(C1)OC=C3)C)C

> <PUBCHEM_CACTVS_TPSA>
44.8

> <PUBCHEM_MONOISOTOPIC_WEIGHT>
294.183109

> <PUBCHEM_TOTAL_CHARGE>
0

> <PUBCHEM_HEAVY_ATOM_COUNT>
21

> <PUBCHEM_ATOM_DEF_STEREO_COUNT>
4

> <PUBCHEM_ATOM_UDEF_STEREO_COUNT>
0

> <PUBCHEM_BOND_DEF_STEREO_COUNT>
0

> <PUBCHEM_BOND_UDEF_STEREO_COUNT>
0

> <PUBCHEM_ISOTOPIC_ATOM_COUNT>
0

> <PUBCHEM_COMPONENT_COUNT>
1

> <PUBCHEM_CACTVS_TAUTO_COUNT>
1

> <PUBCHEM_COORDINATE_TYPE>
1
5
255

> <PUBCHEM_BONDANNOTATIONS>
5  2  5
6  13  5
7  16  6
9  24  6

$$$$

