6096868
  -OEChem-07051212552D

 65 68  0     1  0  0  0  0  0999 V2000
    4.2690   -0.0716    0.0000 O   0  0  0  0  0  0  0  0  0  0  0  0
    5.1350   -1.5716    0.0000 O   0  0  0  0  0  0  0  0  0  0  0  0
    6.8671    1.4284    0.0000 O   0  0  0  0  0  0  0  0  0  0  0  0
    5.1350    2.4285    0.0000 O   0  0  0  0  0  0  0  0  0  0  0  0
    6.8671   -0.5716    0.0000 O   0  0  0  0  0  0  0  0  0  0  0  0
    2.5369    0.9284    0.0000 O   0  0  0  0  0  0  0  0  0  0  0  0
    5.1350   -3.5716    0.0000 O   0  0  0  0  0  0  0  0  0  0  0  0
   10.7629   -3.4376    0.0000 O   0  5  0  0  0  0  0  0  0  0  0  0
   10.7629   -1.7055    0.0000 O   0  0  0  0  0  0  0  0  0  0  0  0
    9.5648    3.7301    0.0000 O   0  0  0  0  0  0  0  0  0  0  0  0
    8.2756    2.5734    0.0000 O   0  0  0  0  0  0  0  0  0  0  0  0
   13.2147    0.9591    0.0000 O   0  0  0  0  0  0  0  0  0  0  0  0
   12.8575    2.6539    0.0000 O   0  0  0  0  0  0  0  0  0  0  0  0
    8.6793   -1.7668    0.0000 N   0  3  0  0  0  0  0  0  0  0  0  0
   10.9005    2.2415    0.0000 N   0  0  0  0  0  0  0  0  0  0  0  0
    6.0010    0.9284    0.0000 C   0  0  1  0  0  0  0  0  0  0  0  0
    5.1350    1.4284    0.0000 C   0  0  1  0  0  0  0  0  0  0  0  0
    6.0010   -0.0716    0.0000 C   0  0  2  0  0  0  0  0  0  0  0  0
    4.2690    0.9284    0.0000 C   0  0  1  0  0  0  0  0  0  0  0  0
    5.1350   -0.5716    0.0000 C   0  0  1  0  0  0  0  0  0  0  0  0
    9.2629   -2.5715    0.0000 C   0  0  1  0  0  0  0  0  0  0  0  0
    8.6793   -3.3763    0.0000 C   0  0  0  0  0  0  0  0  0  0  0  0
    7.7331   -2.0715    0.0000 C   0  0  0  0  0  0  0  0  0  0  0  0
    7.7331   -3.0715    0.0000 C   0  0  0  0  0  0  0  0  0  0  0  0
    3.4030    1.4284    0.0000 C   0  0  0  0  0  0  0  0  0  0  0  0
    6.0010   -2.0715    0.0000 C   0  0  0  0  0  0  0  0  0  0  0  0
    6.8671   -1.5716    0.0000 C   0  0  0  0  0  0  0  0  0  0  0  0
    6.8671   -3.5716    0.0000 C   0  0  0  0  0  0  0  0  0  0  0  0
    6.0010   -3.0715    0.0000 C   0  0  0  0  0  0  0  0  0  0  0  0
    8.9900   -0.8163    0.0000 C   0  0  0  0  0  0  0  0  0  0  0  0
   10.2629   -2.5715    0.0000 C   0  0  0  0  0  0  0  0  0  0  0  0
    9.9685   -0.6101    0.0000 C   0  0  0  0  0  0  0  0  0  0  0  0
   10.2791    0.3404    0.0000 C   0  0  0  0  0  0  0  0  0  0  0  0
    9.6113    1.0847    0.0000 C   0  0  0  0  0  0  0  0  0  0  0  0
    9.9220    2.0353    0.0000 C   0  0  1  0  0  0  0  0  0  0  0  0
   11.2576    0.5467    0.0000 C   0  0  0  0  0  0  0  0  0  0  0  0
   11.5683    1.4972    0.0000 C   0  0  0  0  0  0  0  0  0  0  0  0
    9.2541    2.7796    0.0000 C   0  0  0  0  0  0  0  0  0  0  0  0
   12.5468    1.7034    0.0000 C   0  0  0  0  0  0  0  0  0  0  0  0
    6.5380    0.6184    0.0000 H   0  0  0  0  0  0  0  0  0  0  0  0
    5.6720    1.7384    0.0000 H   0  0  0  0  0  0  0  0  0  0  0  0
    6.5380    0.2384    0.0000 H   0  0  0  0  0  0  0  0  0  0  0  0
    3.7320    0.6184    0.0000 H   0  0  0  0  0  0  0  0  0  0  0  0
    5.6720   -0.8816    0.0000 H   0  0  0  0  0  0  0  0  0  0  0  0
    9.5446   -2.0192    0.0000 H   0  0  0  0  0  0  0  0  0  0  0  0
    8.4283   -3.9432    0.0000 H   0  0  0  0  0  0  0  0  0  0  0  0
    9.2167   -3.6855    0.0000 H   0  0  0  0  0  0  0  0  0  0  0  0
    3.8015    1.9034    0.0000 H   0  0  0  0  0  0  0  0  0  0  0  0
    3.0044    1.9034    0.0000 H   0  0  0  0  0  0  0  0  0  0  0  0
    6.8671   -0.9516    0.0000 H   0  0  0  0  0  0  0  0  0  0  0  0
    6.8671   -4.1916    0.0000 H   0  0  0  0  0  0  0  0  0  0  0  0
    6.8671    2.0484    0.0000 H   0  0  0  0  0  0  0  0  0  0  0  0
    4.5981    2.7384    0.0000 H   0  0  0  0  0  0  0  0  0  0  0  0
    7.4040   -0.2616    0.0000 H   0  0  0  0  0  0  0  0  0  0  0  0
    8.5759   -0.3548    0.0000 H   0  0  0  0  0  0  0  0  0  0  0  0
   10.3825   -1.0716    0.0000 H   0  0  0  0  0  0  0  0  0  0  0  0
    2.0000    1.2384    0.0000 H   0  0  0  0  0  0  0  0  0  0  0  0
    9.0644    1.3768    0.0000 H   0  0  0  0  0  0  0  0  0  0  0  0
    9.2287    0.5968    0.0000 H   0  0  0  0  0  0  0  0  0  0  0  0
   10.1146    2.6246    0.0000 H   0  0  0  0  0  0  0  0  0  0  0  0
   11.6717    0.0852    0.0000 H   0  0  0  0  0  0  0  0  0  0  0  0
    5.1350   -4.1916    0.0000 H   0  0  0  0  0  0  0  0  0  0  0  0
   11.0931    2.8308    0.0000 H   0  0  0  0  0  0  0  0  0  0  0  0
    9.1507    4.1916    0.0000 H   0  0  0  0  0  0  0  0  0  0  0  0
   13.8213    1.0870    0.0000 H   0  0  0  0  0  0  0  0  0  0  0  0
  1 19  1  0  0  0  0
  1 20  1  0  0  0  0
 20  2  1  6  0  0  0
  2 26  1  0  0  0  0
 16  3  1  6  0  0  0
  3 52  1  0  0  0  0
 17  4  1  1  0  0  0
  4 53  1  0  0  0  0
 18  5  1  1  0  0  0
  5 54  1  0  0  0  0
  6 25  1  0  0  0  0
  6 57  1  0  0  0  0
  7 29  1  0  0  0  0
  7 62  1  0  0  0  0
  8 31  1  0  0  0  0
  9 31  2  0  0  0  0
 10 38  1  0  0  0  0
 10 64  1  0  0  0  0
 11 38  2  0  0  0  0
 12 39  1  0  0  0  0
 12 65  1  0  0  0  0
 13 39  2  0  0  0  0
 14 21  1  0  0  0  0
 14 23  1  0  0  0  0
 14 30  2  0  0  0  0
 15 35  1  0  0  0  0
 15 37  1  0  0  0  0
 15 63  1  0  0  0  0
 16 17  1  0  0  0  0
 16 18  1  0  0  0  0
 16 40  1  0  0  0  0
 17 19  1  0  0  0  0
 17 41  1  0  0  0  0
 18 20  1  0  0  0  0
 18 42  1  0  0  0  0
 19 25  1  6  0  0  0
 19 43  1  0  0  0  0
 20 44  1  0  0  0  0
 21 22  1  0  0  0  0
 21 31  1  6  0  0  0
 21 45  1  0  0  0  0
 22 24  1  0  0  0  0
 22 46  1  0  0  0  0
 22 47  1  0  0  0  0
 23 24  1  0  0  0  0
 23 27  2  0  0  0  0
 24 28  2  0  0  0  0
 25 48  1  0  0  0  0
 25 49  1  0  0  0  0
 26 27  1  0  0  0  0
 26 29  2  0  0  0  0
 27 50  1  0  0  0  0
 28 29  1  0  0  0  0
 28 51  1  0  0  0  0
 30 32  1  0  0  0  0
 30 55  1  0  0  0  0
 32 33  2  0  0  0  0
 32 56  1  0  0  0  0
 33 34  1  0  0  0  0
 33 36  1  0  0  0  0
 34 35  1  0  0  0  0
 34 58  1  0  0  0  0
 34 59  1  0  0  0  0
 35 38  1  1  0  0  0
 35 60  1  0  0  0  0
 36 37  2  0  0  0  0
 36 61  1  0  0  0  0
 37 39  1  0  0  0  0
M  CHG  2   8  -1  14   1
M  END
> <PUBCHEM_COMPOUND_CID>
6096868

> <PUBCHEM_COMPOUND_CANONICALIZED>
1

> <PUBCHEM_CACTVS_COMPLEXITY>
1070

> <PUBCHEM_CACTVS_HBOND_ACCEPTOR>
14

> <PUBCHEM_CACTVS_HBOND_DONOR>
8

> <PUBCHEM_CACTVS_ROTATABLE_BOND>
6

> <PUBCHEM_CACTVS_SUBSKEYS>
AAADceB7PAAAAAAAAAAAAAAAAAAAAWAAAAA0QIAAAAAAAFgBAAAAHgAQCAAADDzxmAcwzoPABgCoAjTzTACCCAAhIgAAiIGe7NgfNjLGsbumeCvn0Bnf+Yf4+b+eIEABAgACQABAgAIEAASAAAAAAAAAAA==

> <PUBCHEM_IUPAC_OPENEYE_NAME>
(2S)-1-[(2E)-2-[(2S)-2,6-dicarboxy-2,3-dihydro-1H-pyridin-4-ylidene]ethylidene]-5-hydroxy-6-[(2S,3R,4S,5S,6R)-3,4,5-trihydroxy-6-(hydroxymethyl)tetrahydropyran-2-yl]oxy-indolin-1-ium-2-carboxylate

> <PUBCHEM_IUPAC_CAS_NAME>
(2S)-1-[(2E)-2-[(2S)-2,6-dicarboxy-2,3-dihydro-1H-pyridin-4-ylidene]ethylidene]-5-hydroxy-6-[[(2S,3R,4S,5S,6R)-3,4,5-trihydroxy-6-(hydroxymethyl)-2-oxanyl]oxy]-2,3-dihydroindol-1-ium-2-carboxylate

> <PUBCHEM_IUPAC_NAME>
(2S)-1-[(2E)-2-[(2S)-2,6-dicarboxy-2,3-dihydro-1H-pyridin-4-ylidene]ethylidene]-5-hydroxy-6-[(2S,3R,4S,5S,6R)-3,4,5-trihydroxy-6-(hydroxymethyl)oxan-2-yl]oxy-2,3-dihydroindol-1-ium-2-carboxylate

> <PUBCHEM_IUPAC_SYSTEMATIC_NAME>
(2S)-1-[(2E)-2-[(2S)-2,6-dicarboxy-2,3-dihydro-1H-pyridin-4-ylidene]ethylidene]-6-[(2S,3R,4S,5S,6R)-6-(hydroxymethyl)-3,4,5-tris(oxidanyl)oxan-2-yl]oxy-5-oxidanyl-2,3-dihydroindol-1-ium-2-carboxylate

> <PUBCHEM_IUPAC_TRADITIONAL_NAME>
(2S)-1-[(2E)-2-[(2S)-2,6-dicarboxy-2,3-dihydro-1H-pyridin-4-ylidene]ethylidene]-5-hydroxy-6-[(2S,3R,4S,5S,6R)-3,4,5-trihydroxy-6-methylol-tetrahydropyran-2-yl]oxy-indolin-1-ium-2-carboxylate

> <PUBCHEM_IUPAC_INCHI>
InChI=1S/C24H26N2O13/c27-8-17-18(29)19(30)20(31)24(39-17)38-16-7-13-10(6-15(16)28)5-14(23(36)37)26(13)2-1-9-3-11(21(32)33)25-12(4-9)22(34)35/h1-3,6-7,12,14,17-20,24,27,29-31H,4-5,8H2,(H4,28,32,33,34,35,36,37)/t12-,14-,17+,18+,19-,20+,24+/m0/s1

> <PUBCHEM_IUPAC_INCHIKEY>
YUDKHXMQDKVDGU-FMOSSLLZSA-N

> <PUBCHEM_XLOGP3_AA>
-0.9

> <PUBCHEM_EXACT_MASS>
550.143489

> <PUBCHEM_MOLECULAR_FORMULA>
C24H26N2O13

> <PUBCHEM_MOLECULAR_WEIGHT>
550.46884

> <PUBCHEM_OPENEYE_CAN_SMILES>
C1C(NC(=CC1=CC=[N+]2C(CC3=CC(=C(C=C32)OC4C(C(C(C(O4)CO)O)O)O)O)C(=O)[O-])C(=O)O)C(=O)O

> <PUBCHEM_OPENEYE_ISO_SMILES>
C\1[C@H](NC(=C/C1=C/C=[N+]2[C@@H](CC3=CC(=C(C=C32)O[C@H]4[C@@H]([C@H]([C@@H]([C@H](O4)CO)O)O)O)O)C(=O)[O-])C(=O)O)C(=O)O

> <PUBCHEM_CACTVS_TPSA>
249

> <PUBCHEM_MONOISOTOPIC_WEIGHT>
550.143489

> <PUBCHEM_TOTAL_CHARGE>
0

> <PUBCHEM_HEAVY_ATOM_COUNT>
39

> <PUBCHEM_ATOM_DEF_STEREO_COUNT>
7

> <PUBCHEM_ATOM_UDEF_STEREO_COUNT>
0

> <PUBCHEM_BOND_DEF_STEREO_COUNT>
1

> <PUBCHEM_BOND_UDEF_STEREO_COUNT>
0

> <PUBCHEM_ISOTOPIC_ATOM_COUNT>
0

> <PUBCHEM_COMPONENT_COUNT>
1

> <PUBCHEM_CACTVS_TAUTO_COUNT>
6

> <PUBCHEM_COORDINATE_TYPE>
1
5
255

> <PUBCHEM_BONDANNOTATIONS>
19  25  6
20  2  6
21  31  6
23  24  8
23  27  8
24  28  8
26  27  8
26  29  8
28  29  8
16  3  6
35  38  5
17  4  5
18  5  5

$$$$

