442104
  -OEChem-07051212573D

 32 34  0     1  0  0  0  0  0999 V2000
    2.0285    1.2376   -0.1989 O   0  0  0  0  0  0  0  0  0  0  0  0
    3.3846   -0.5183    1.5032 O   0  0  0  0  0  0  0  0  0  0  0  0
   -1.9278   -1.3002   -0.0805 O   0  0  0  0  0  0  0  0  0  0  0  0
   -3.8453   -2.5500   -0.0125 O   0  0  0  0  0  0  0  0  0  0  0  0
    2.2949   -0.1356   -0.5887 C   0  0  1  0  0  0  0  0  0  0  0  0
    3.5709   -0.6023    0.0927 C   0  0  0  0  0  0  0  0  0  0  0  0
    1.0795   -1.0001   -0.2192 C   0  0  0  0  0  0  0  0  0  0  0  0
    0.0489    0.0583   -0.1525 C   0  0  0  0  0  0  0  0  0  0  0  0
    0.6609    1.3001   -0.1198 C   0  0  0  0  0  0  0  0  0  0  0  0
    4.7458    0.2849   -0.3044 C   0  0  0  0  0  0  0  0  0  0  0  0
    3.8513   -2.0601   -0.2532 C   0  0  0  0  0  0  0  0  0  0  0  0
   -1.3264   -0.0316   -0.0625 C   0  0  0  0  0  0  0  0  0  0  0  0
   -0.0628    2.4724    0.0035 C   0  0  0  0  0  0  0  0  0  0  0  0
   -2.0936    1.1275    0.0505 C   0  0  0  0  0  0  0  0  0  0  0  0
   -1.4565    2.3808    0.0840 C   0  0  0  0  0  0  0  0  0  0  0  0
   -3.5387    0.9965    0.1386 C   0  0  0  0  0  0  0  0  0  0  0  0
   -3.3083   -1.4478    0.0039 C   0  0  0  0  0  0  0  0  0  0  0  0
   -4.1060   -0.2121    0.1159 C   0  0  0  0  0  0  0  0  0  0  0  0
    2.4256   -0.1348   -1.6810 H   0  0  0  0  0  0  0  0  0  0  0  0
    1.1627   -1.4837    0.7591 H   0  0  0  0  0  0  0  0  0  0  0  0
    0.8733   -1.7515   -0.9869 H   0  0  0  0  0  0  0  0  0  0  0  0
    5.6701   -0.0558    0.1769 H   0  0  0  0  0  0  0  0  0  0  0  0
    4.9059    0.2848   -1.3876 H   0  0  0  0  0  0  0  0  0  0  0  0
    4.5990    1.3187    0.0274 H   0  0  0  0  0  0  0  0  0  0  0  0
    3.0875   -2.7357    0.1462 H   0  0  0  0  0  0  0  0  0  0  0  0
    4.7967   -2.3878    0.1958 H   0  0  0  0  0  0  0  0  0  0  0  0
    3.9227   -2.2122   -1.3354 H   0  0  0  0  0  0  0  0  0  0  0  0
    0.4298    3.4380    0.0341 H   0  0  0  0  0  0  0  0  0  0  0  0
    4.2053   -0.8125    1.9340 H   0  0  0  0  0  0  0  0  0  0  0  0
   -2.0399    3.2940    0.1767 H   0  0  0  0  0  0  0  0  0  0  0  0
   -4.1445    1.8918    0.2228 H   0  0  0  0  0  0  0  0  0  0  0  0
   -5.1834   -0.3180    0.1814 H   0  0  0  0  0  0  0  0  0  0  0  0
  1  5  1  0  0  0  0
  1  9  1  0  0  0  0
  2  6  1  0  0  0  0
  2 29  1  0  0  0  0
  3 12  1  0  0  0  0
  3 17  1  0  0  0  0
  4 17  2  0  0  0  0
  5  6  1  0  0  0  0
  5  7  1  0  0  0  0
  5 19  1  0  0  0  0
  6 10  1  0  0  0  0
  6 11  1  0  0  0  0
  7  8  1  0  0  0  0
  7 20  1  0  0  0  0
  7 21  1  0  0  0  0
  8  9  2  0  0  0  0
  8 12  1  0  0  0  0
  9 13  1  0  0  0  0
 10 22  1  0  0  0  0
 10 23  1  0  0  0  0
 10 24  1  0  0  0  0
 11 25  1  0  0  0  0
 11 26  1  0  0  0  0
 11 27  1  0  0  0  0
 12 14  2  0  0  0  0
 13 15  2  0  0  0  0
 13 28  1  0  0  0  0
 14 15  1  0  0  0  0
 14 16  1  0  0  0  0
 15 30  1  0  0  0  0
 16 18  2  0  0  0  0
 16 31  1  0  0  0  0
 17 18  1  0  0  0  0
 18 32  1  0  0  0  0
M  END
> <PUBCHEM_COMPOUND_CID>
442104

> <PUBCHEM_CONFORMER_RMSD>
0.6

> <PUBCHEM_CONFORMER_DIVERSEORDER>
1
2
3

> <PUBCHEM_MMFF94_PARTIAL_CHARGES>
21
1 -0.36
12 0.08
13 -0.15
14 0.03
15 -0.15
16 -0.18
17 0.71
18 -0.14
2 -0.68
28 0.15
29 0.4
3 -0.23
30 0.15
31 0.15
32 0.15
4 -0.57
5 0.28
6 0.28
7 0.14
8 -0.14
9 0.08

> <PUBCHEM_EFFECTIVE_ROTOR_COUNT>
1.6

> <PUBCHEM_PHARMACOPHORE_FEATURES>
8
1 1 acceptor
1 2 acceptor
1 2 donor
1 4 acceptor
3 6 10 11 hydrophobe
5 1 5 7 8 9 rings
6 3 12 14 16 17 18 rings
6 8 9 12 13 14 15 rings

> <PUBCHEM_HEAVY_ATOM_COUNT>
18

> <PUBCHEM_ATOM_DEF_STEREO_COUNT>
1

> <PUBCHEM_ATOM_UDEF_STEREO_COUNT>
0

> <PUBCHEM_BOND_DEF_STEREO_COUNT>
0

> <PUBCHEM_BOND_UDEF_STEREO_COUNT>
0

> <PUBCHEM_ISOTOPIC_ATOM_COUNT>
0

> <PUBCHEM_COMPONENT_COUNT>
1

> <PUBCHEM_CACTVS_TAUTO_COUNT>
1

> <PUBCHEM_CONFORMER_ID>
0006BEF800000001

> <PUBCHEM_MMFF94_ENERGY>
62.5829

> <PUBCHEM_FEATURE_SELFOVERLAP>
40.726

> <PUBCHEM_SHAPE_FINGERPRINT>
10062212 137 18343303673737073987
10319926 262 18119833519487527514
10616163 171 18337388348229581294
10618630 7 18411416237091940558
10967382 1 17977664212814219333
11046707 91 18410855460260076101
11132069 177 18409168848083093633
11543360 7 15625933201647542175
11769659 78 18341613681288915189
11806522 49 18341894052501131388
12032990 46 18409726266007783495
12236239 1 17846494868307521644
12553582 1 18264211318036531063
13140716 1 18335978684439422905
13214271 11 18260833708588969981
13288520 33 18409443717748236870
14115302 16 17917418826828077623
14787075 74 18200311014203369144
15042514 8 18339353175982722417
15196674 1 18410572915715157022
15352361 1 18410292484711288175
15375462 189 18131635603304370779
15442244 35 18409725141138081337
15536298 74 18334857160872288960
16945 1 18337948021001461005
17492 89 18412260670707777522
17804303 29 18334292080446114857
1813 80 17632285804722197719
19141452 34 18334009510827529263
200 152 17775565347092329992
20261772 1 17894633617095559742
20281475 54 18410571807824649684
20510252 161 18189334739620459624
20871998 184 18186522141410000141
21267235 1 18411125927467930071
21501502 16 18339353055512855869
21501925 9 18409736127384654768
221490 88 18125714600356053323
2297311 6 18261659450775250836
232386 152 18411412904155101581
23366157 5 17986110708215259965
23402539 116 18410580590811263118
23463225 33 18411416206779353604
23557571 272 18042115608702253580
23559900 14 18263645229094499270
2748010 2 18337115549313440989
3091708 16 9424599720338506537
335352 9 18410571834064192605
34934 24 18340209695308521251
4214541 1 18338515373691648772
474 4 17273962568240517844
5104073 3 18335421313516384514
5493415 88 18336829693469964889
5902787 121 18411983524856835729
7364860 26 18119810209671733360
81228 2 18193539276263848153
8809292 202 18342734100938904939
8863177 126 17627778727095412819
9709674 26 18117555347778312654

> <PUBCHEM_SHAPE_MULTIPOLES>
346.95
8.31
2.41
0.73
3.07
0.1
0.13
-3.81
0.36
-1.41
-0.05
0.42
-0.03
-0.11

> <PUBCHEM_SHAPE_SELFOVERLAP>
764.936

> <PUBCHEM_SHAPE_VOLUME>
187.8

> <PUBCHEM_COORDINATE_TYPE>
2
5
10

$$$$

