442211
  -OEChem-07051212573D

 45 48  0     1  0  0  0  0  0999 V2000
    0.2747    0.9895   -1.0054 O   0  0  0  0  0  0  0  0  0  0  0  0
    1.1635    3.1506    0.4367 O   0  0  0  0  0  0  0  0  0  0  0  0
   -4.3820   -1.4897    0.6485 O   0  0  0  0  0  0  0  0  0  0  0  0
   -4.3189    1.2186    0.0268 O   0  0  0  0  0  0  0  0  0  0  0  0
    2.6089   -2.5897   -1.2190 N   0  0  0  0  0  0  0  0  0  0  0  0
    1.6230   -1.5048   -1.0415 C   0  0  2  0  0  0  0  0  0  0  0  0
    2.1532   -0.3210   -0.2667 C   0  0  0  0  0  0  0  0  0  0  0  0
    0.3414   -2.0365   -0.3738 C   0  0  0  0  0  0  0  0  0  0  0  0
    3.3445   -0.3983    0.4720 C   0  0  0  0  0  0  0  0  0  0  0  0
    4.1670   -1.6589    0.4516 C   0  0  0  0  0  0  0  0  0  0  0  0
    3.3488   -2.8728    0.0127 C   0  0  0  0  0  0  0  0  0  0  0  0
    1.4156    0.8671   -0.2503 C   0  0  0  0  0  0  0  0  0  0  0  0
   -0.8428   -1.0934   -0.2856 C   0  0  0  0  0  0  0  0  0  0  0  0
   -0.8236    0.2829   -0.5659 C   0  0  0  0  0  0  0  0  0  0  0  0
    3.7931    0.7237    1.1821 C   0  0  0  0  0  0  0  0  0  0  0  0
    1.8668    1.9851    0.4501 C   0  0  0  0  0  0  0  0  0  0  0  0
    3.0553    1.9084    1.1721 C   0  0  0  0  0  0  0  0  0  0  0  0
   -2.0626   -1.6614    0.1338 C   0  0  0  0  0  0  0  0  0  0  0  0
   -1.9988    1.0444   -0.4741 C   0  0  0  0  0  0  0  0  0  0  0  0
   -3.2250   -0.8963    0.2436 C   0  0  0  0  0  0  0  0  0  0  0  0
   -3.1937    0.4577   -0.0657 C   0  0  0  0  0  0  0  0  0  0  0  0
    1.4770    4.0861   -0.5939 C   0  0  0  0  0  0  0  0  0  0  0  0
   -4.6481   -1.5027    2.0498 C   0  0  0  0  0  0  0  0  0  0  0  0
   -5.1370    1.3115   -1.1381 C   0  0  0  0  0  0  0  0  0  0  0  0
    1.3711   -1.1659   -2.0556 H   0  0  0  0  0  0  0  0  0  0  0  0
    0.5596   -2.3654    0.6514 H   0  0  0  0  0  0  0  0  0  0  0  0
    0.0121   -2.9233   -0.9336 H   0  0  0  0  0  0  0  0  0  0  0  0
    5.0082   -1.5097   -0.2370 H   0  0  0  0  0  0  0  0  0  0  0  0
    4.5804   -1.8525    1.4485 H   0  0  0  0  0  0  0  0  0  0  0  0
    3.2764   -2.3076   -1.9380 H   0  0  0  0  0  0  0  0  0  0  0  0
    4.0229   -3.7186   -0.1632 H   0  0  0  0  0  0  0  0  0  0  0  0
    2.6652   -3.1882    0.8094 H   0  0  0  0  0  0  0  0  0  0  0  0
    4.7232    0.6813    1.7432 H   0  0  0  0  0  0  0  0  0  0  0  0
    3.4188    2.7701    1.7256 H   0  0  0  0  0  0  0  0  0  0  0  0
   -2.1058   -2.7229    0.3730 H   0  0  0  0  0  0  0  0  0  0  0  0
   -1.9756    2.1051   -0.7158 H   0  0  0  0  0  0  0  0  0  0  0  0
    1.2994    3.6472   -1.5807 H   0  0  0  0  0  0  0  0  0  0  0  0
    2.5179    4.4139   -0.5098 H   0  0  0  0  0  0  0  0  0  0  0  0
    0.8255    4.9562   -0.4760 H   0  0  0  0  0  0  0  0  0  0  0  0
   -3.8681   -2.0555    2.5829 H   0  0  0  0  0  0  0  0  0  0  0  0
   -5.6059   -2.0047    2.2119 H   0  0  0  0  0  0  0  0  0  0  0  0
   -4.7179   -0.4818    2.4383 H   0  0  0  0  0  0  0  0  0  0  0  0
   -5.5021    0.3225   -1.4324 H   0  0  0  0  0  0  0  0  0  0  0  0
   -4.5796    1.7675   -1.9625 H   0  0  0  0  0  0  0  0  0  0  0  0
   -5.9962    1.9459   -0.9035 H   0  0  0  0  0  0  0  0  0  0  0  0
  1 12  1  0  0  0  0
  1 14  1  0  0  0  0
  2 16  1  0  0  0  0
  2 22  1  0  0  0  0
  3 20  1  0  0  0  0
  3 23  1  0  0  0  0
  4 21  1  0  0  0  0
  4 24  1  0  0  0  0
  5  6  1  0  0  0  0
  5 11  1  0  0  0  0
  5 30  1  0  0  0  0
  6  7  1  0  0  0  0
  6  8  1  0  0  0  0
  6 25  1  0  0  0  0
  7  9  2  0  0  0  0
  7 12  1  0  0  0  0
  8 13  1  0  0  0  0
  8 26  1  0  0  0  0
  8 27  1  0  0  0  0
  9 10  1  0  0  0  0
  9 15  1  0  0  0  0
 10 11  1  0  0  0  0
 10 28  1  0  0  0  0
 10 29  1  0  0  0  0
 11 31  1  0  0  0  0
 11 32  1  0  0  0  0
 12 16  2  0  0  0  0
 13 14  1  0  0  0  0
 13 18  2  0  0  0  0
 14 19  2  0  0  0  0
 15 17  2  0  0  0  0
 15 33  1  0  0  0  0
 16 17  1  0  0  0  0
 17 34  1  0  0  0  0
 18 20  1  0  0  0  0
 18 35  1  0  0  0  0
 19 21  1  0  0  0  0
 19 36  1  0  0  0  0
 20 21  2  0  0  0  0
 22 37  1  0  0  0  0
 22 38  1  0  0  0  0
 22 39  1  0  0  0  0
 23 40  1  0  0  0  0
 23 41  1  0  0  0  0
 23 42  1  0  0  0  0
 24 43  1  0  0  0  0
 24 44  1  0  0  0  0
 24 45  1  0  0  0  0
M  END
> <PUBCHEM_COMPOUND_CID>
442211

> <PUBCHEM_CONFORMER_RMSD>
0.8

> <PUBCHEM_CONFORMER_DIVERSEORDER>
1
4
6
2
3
5

> <PUBCHEM_MMFF94_PARTIAL_CHARGES>
29
1 -0.17
10 0.14
11 0.27
12 0.08
13 -0.14
14 0.08
15 -0.15
16 0.08
17 -0.15
18 -0.15
19 -0.15
2 -0.36
20 0.08
21 0.08
22 0.28
23 0.28
24 0.28
3 -0.36
30 0.36
33 0.15
34 0.15
35 0.15
36 0.15
4 -0.36
5 -0.9
6 0.41
7 -0.14
8 0.14
9 -0.14

> <PUBCHEM_EFFECTIVE_ROTOR_COUNT>
4

> <PUBCHEM_PHARMACOPHORE_FEATURES>
10
1 1 acceptor
1 2 acceptor
1 3 acceptor
1 4 acceptor
1 5 cation
1 5 donor
6 13 14 18 19 20 21 rings
6 5 6 7 9 10 11 rings
6 7 9 12 15 16 17 rings
7 1 6 7 8 12 13 14 rings

> <PUBCHEM_HEAVY_ATOM_COUNT>
24

> <PUBCHEM_ATOM_DEF_STEREO_COUNT>
1

> <PUBCHEM_ATOM_UDEF_STEREO_COUNT>
0

> <PUBCHEM_BOND_DEF_STEREO_COUNT>
0

> <PUBCHEM_BOND_UDEF_STEREO_COUNT>
0

> <PUBCHEM_ISOTOPIC_ATOM_COUNT>
0

> <PUBCHEM_COMPONENT_COUNT>
1

> <PUBCHEM_CACTVS_TAUTO_COUNT>
1

> <PUBCHEM_CONFORMER_ID>
0006BF6300000001

> <PUBCHEM_MMFF94_ENERGY>
108.7991

> <PUBCHEM_FEATURE_SELFOVERLAP>
50.813

> <PUBCHEM_SHAPE_FINGERPRINT>
10493431 412 18046358427122686536
108634 29 17470455491764325124
10967382 1 18335990830596152412
11640471 11 16950569826631221766
11680986 33 18409730685803444237
12011746 2 18261674869897883878
12403259 226 18341617027279507005
12422481 6 18119278171473012072
12507560 40 18411982442794115451
12633257 1 18199489747483579586
12788726 201 17980755262545003402
13140716 1 18193275415100752362
13402501 40 18268159827748519341
13583140 156 18273221889362708659
13675066 3 18342455933150387099
14178342 30 17902535700380780538
14223421 5 18268427923870077323
14790565 3 17979356361753503980
14866123 147 17256524647945072930
14955137 171 18339358544871547792
15196674 1 18411421717291069943
15420108 30 17896908498802023374
1601671 61 18410292472258935428
16945 1 18194695765349532262
17492 89 18336832983331225815
17804303 29 18341889714389185087
18785283 64 18268140972804841464
20681677 76 18411139126087118487
20739085 24 18410295787989629264
21065198 57 18411983551022193905
21065199 12 18412265000012881689
23184049 59 18260556640549385086
23558518 356 18195821673387958151
23559900 14 18410015446134769557
2748010 2 18264501731314334260
3886686 26 16469550352117789690
49207404 50 18339355250056398107
495365 180 17968395497042448218
508706 21 17916316085886243813
5104073 3 18411134762331709787
6443956 14 18411419552790959772
7097593 13 18335988562484128902
7364860 26 18336543807508872932
81228 2 17685477046606864172
9709674 26 18412263900696796183

> <PUBCHEM_SHAPE_MULTIPOLES>
465.45
9
3.64
1.2
8.82
2.21
-0.31
-1.83
-2.36
-2.88
0.32
0.51
-0.19
1.87

> <PUBCHEM_SHAPE_SELFOVERLAP>
1020.701

> <PUBCHEM_SHAPE_VOLUME>
249.4

> <PUBCHEM_COORDINATE_TYPE>
2
5
10

$$$$

