442013
  -OEChem-07051212563D

 85 89  0     1  0  0  0  0  0999 V2000
    1.4992   -1.2765   -0.8338 O   0  0  0  0  0  0  0  0  0  0  0  0
    2.3022    1.3512   -0.1494 O   0  0  0  0  0  0  0  0  0  0  0  0
   -0.6935   -3.1105   -0.9469 O   0  0  0  0  0  0  0  0  0  0  0  0
   -3.5767    2.1419    0.3804 O   0  0  0  0  0  0  0  0  0  0  0  0
    0.6540    2.8832    1.5550 O   0  0  0  0  0  0  0  0  0  0  0  0
    0.7510   -2.4156    1.2329 O   0  0  0  0  0  0  0  0  0  0  0  0
   -5.0412    3.9811   -0.0234 O   0  0  0  0  0  0  0  0  0  0  0  0
    3.6140   -0.1878    0.9530 O   0  0  0  0  0  0  0  0  0  0  0  0
   -1.4166   -3.3996   -3.1218 O   0  0  0  0  0  0  0  0  0  0  0  0
    5.8223    0.7145   -0.1912 O   0  0  0  0  0  0  0  0  0  0  0  0
    0.7121   -3.2525    3.3861 O   0  0  0  0  0  0  0  0  0  0  0  0
    7.1026    2.1528   -1.4676 O   0  0  0  0  0  0  0  0  0  0  0  0
   -0.7869   -0.9326    0.1642 C   0  0  1  0  0  0  0  0  0  0  0  0
    0.5285   -0.3081   -0.3947 C   0  0  1  0  0  0  0  0  0  0  0  0
   -1.8042    0.2488    0.4012 C   0  0  1  0  0  0  0  0  0  0  0  0
   -3.2465   -0.1923    0.9039 C   0  0  1  0  0  0  0  0  0  0  0  0
    1.1353    0.7898    0.4576 C   0  0  2  0  0  0  0  0  0  0  0  0
    0.9522   -0.4377   -1.8564 C   0  0  0  0  0  0  0  0  0  0  0  0
   -1.1807    1.3862    1.2463 C   0  0  0  0  0  0  0  0  0  0  0  0
   -1.4630   -1.9113   -0.8431 C   0  0  2  0  0  0  0  0  0  0  0  0
    0.1236    1.9138    0.6522 C   0  0  1  0  0  0  0  0  0  0  0  0
   -0.4357   -1.6969    1.4696 C   0  0  0  0  0  0  0  0  0  0  0  0
   -4.2286    0.8652    0.4386 C   0  0  2  0  0  0  0  0  0  0  0  0
   -3.6759   -1.5458    0.3096 C   0  0  0  0  0  0  0  0  0  0  0  0
   -2.8684   -2.2804   -0.4753 C   0  0  0  0  0  0  0  0  0  0  0  0
   -3.3433   -0.2458    2.4470 C   0  0  0  0  0  0  0  0  0  0  0  0
   -4.7587    0.6245   -0.9647 C   0  0  0  0  0  0  0  0  0  0  0  0
   -5.1542    2.0109   -1.4242 C   0  0  2  0  0  0  0  0  0  0  0  0
   -5.0660   -2.0643    0.5962 C   0  0  0  0  0  0  0  0  0  0  0  0
   -4.2382    2.9392   -0.6198 C   0  0  2  0  0  0  0  0  0  0  0  0
    3.4873    0.7610    0.1885 C   0  0  0  0  0  0  0  0  0  0  0  0
   -6.4922    2.4798   -0.9871 C   0  0  0  0  0  0  0  0  0  0  0  0
   -0.7653   -3.7534   -2.1483 C   0  0  0  0  0  0  0  0  0  0  0  0
    1.2296   -3.1641    2.2809 C   0  0  0  0  0  0  0  0  0  0  0  0
   -6.3358    3.5680   -0.2443 C   0  0  0  0  0  0  0  0  0  0  0  0
    4.6477    1.4531   -0.5221 C   0  0  1  0  0  0  0  0  0  0  0  0
    0.0868   -4.9857   -2.1115 C   0  0  0  0  0  0  0  0  0  0  0  0
    4.7926    2.9011   -0.0213 C   0  0  0  0  0  0  0  0  0  0  0  0
    2.4907   -3.8710    1.8857 C   0  0  0  0  0  0  0  0  0  0  0  0
    4.4636    1.3532   -2.0351 C   0  0  0  0  0  0  0  0  0  0  0  0
    5.0638    3.0226    1.4734 C   0  0  0  0  0  0  0  0  0  0  0  0
    6.9850    1.1790   -0.7361 C   0  0  0  0  0  0  0  0  0  0  0  0
    8.1277    0.3108   -0.3042 C   0  0  0  0  0  0  0  0  0  0  0  0
   -1.9319    0.6795   -0.6059 H   0  0  0  0  0  0  0  0  0  0  0  0
    1.3985    0.4008    1.4494 H   0  0  0  0  0  0  0  0  0  0  0  0
    0.3163   -0.9038   -2.5940 H   0  0  0  0  0  0  0  0  0  0  0  0
    1.5935    0.3154   -2.2945 H   0  0  0  0  0  0  0  0  0  0  0  0
   -1.8163    2.2460    1.4524 H   0  0  0  0  0  0  0  0  0  0  0  0
   -0.9571    1.0131    2.2542 H   0  0  0  0  0  0  0  0  0  0  0  0
   -1.5343   -1.4190   -1.8205 H   0  0  0  0  0  0  0  0  0  0  0  0
   -0.0663    2.4245   -0.2999 H   0  0  0  0  0  0  0  0  0  0  0  0
   -0.2573   -1.0095    2.3012 H   0  0  0  0  0  0  0  0  0  0  0  0
   -1.2327   -2.3874    1.7654 H   0  0  0  0  0  0  0  0  0  0  0  0
   -5.0766    0.9666    1.1295 H   0  0  0  0  0  0  0  0  0  0  0  0
   -3.2545   -3.2084   -0.8924 H   0  0  0  0  0  0  0  0  0  0  0  0
   -2.6307   -0.9523    2.8795 H   0  0  0  0  0  0  0  0  0  0  0  0
   -3.1654    0.7335    2.9041 H   0  0  0  0  0  0  0  0  0  0  0  0
   -4.3394   -0.5611    2.7804 H   0  0  0  0  0  0  0  0  0  0  0  0
   -3.9694    0.2747   -1.6415 H   0  0  0  0  0  0  0  0  0  0  0  0
   -5.5985   -0.0708   -1.0325 H   0  0  0  0  0  0  0  0  0  0  0  0
   -5.0474    2.1415   -2.5059 H   0  0  0  0  0  0  0  0  0  0  0  0
   -5.7973   -1.2722    0.7713 H   0  0  0  0  0  0  0  0  0  0  0  0
   -5.4463   -2.6818   -0.2250 H   0  0  0  0  0  0  0  0  0  0  0  0
   -5.0425   -2.6813    1.5013 H   0  0  0  0  0  0  0  0  0  0  0  0
   -3.4678    3.4055   -1.2432 H   0  0  0  0  0  0  0  0  0  0  0  0
    0.0088    3.6077    1.6220 H   0  0  0  0  0  0  0  0  0  0  0  0
   -7.4366    2.0361   -1.2615 H   0  0  0  0  0  0  0  0  0  0  0  0
   -7.0931    4.1849    0.2051 H   0  0  0  0  0  0  0  0  0  0  0  0
    1.1265   -4.7106   -1.9164 H   0  0  0  0  0  0  0  0  0  0  0  0
    0.0359   -5.4915   -3.0798 H   0  0  0  0  0  0  0  0  0  0  0  0
   -0.2819   -5.6677   -1.3412 H   0  0  0  0  0  0  0  0  0  0  0  0
    3.8592    3.4416   -0.2303 H   0  0  0  0  0  0  0  0  0  0  0  0
    5.5606    3.4688   -0.5518 H   0  0  0  0  0  0  0  0  0  0  0  0
    3.2598   -3.1383    1.6293 H   0  0  0  0  0  0  0  0  0  0  0  0
    2.8475   -4.4747    2.7248 H   0  0  0  0  0  0  0  0  0  0  0  0
    2.2925   -4.5329    1.0389 H   0  0  0  0  0  0  0  0  0  0  0  0
    3.4864    1.7430   -2.3409 H   0  0  0  0  0  0  0  0  0  0  0  0
    5.1936    1.9149   -2.6214 H   0  0  0  0  0  0  0  0  0  0  0  0
    4.5196    0.3093   -2.3666 H   0  0  0  0  0  0  0  0  0  0  0  0
    6.0044    2.5379    1.7514 H   0  0  0  0  0  0  0  0  0  0  0  0
    5.1379    4.0784    1.7540 H   0  0  0  0  0  0  0  0  0  0  0  0
    4.2578    2.5805    2.0669 H   0  0  0  0  0  0  0  0  0  0  0  0
    7.9670   -0.7128   -0.6516 H   0  0  0  0  0  0  0  0  0  0  0  0
    9.0555    0.6869   -0.7446 H   0  0  0  0  0  0  0  0  0  0  0  0
    8.2224    0.3384    0.7842 H   0  0  0  0  0  0  0  0  0  0  0  0
  1 14  1  0  0  0  0
  1 18  1  0  0  0  0
  2 17  1  0  0  0  0
  2 31  1  0  0  0  0
  3 20  1  0  0  0  0
  3 33  1  0  0  0  0
  4 23  1  0  0  0  0
  4 30  1  0  0  0  0
  5 21  1  0  0  0  0
  5 66  1  0  0  0  0
  6 22  1  0  0  0  0
  6 34  1  0  0  0  0
  7 30  1  0  0  0  0
  7 35  1  0  0  0  0
  8 31  2  0  0  0  0
  9 33  2  0  0  0  0
 10 36  1  0  0  0  0
 10 42  1  0  0  0  0
 11 34  2  0  0  0  0
 12 42  2  0  0  0  0
 13 14  1  0  0  0  0
 13 15  1  0  0  0  0
 13 20  1  0  0  0  0
 13 22  1  0  0  0  0
 14 17  1  0  0  0  0
 14 18  1  0  0  0  0
 15 16  1  0  0  0  0
 15 19  1  0  0  0  0
 15 44  1  0  0  0  0
 16 23  1  0  0  0  0
 16 24  1  0  0  0  0
 16 26  1  0  0  0  0
 17 21  1  0  0  0  0
 17 45  1  0  0  0  0
 18 46  1  0  0  0  0
 18 47  1  0  0  0  0
 19 21  1  0  0  0  0
 19 48  1  0  0  0  0
 19 49  1  0  0  0  0
 20 25  1  0  0  0  0
 20 50  1  0  0  0  0
 21 51  1  0  0  0  0
 22 52  1  0  0  0  0
 22 53  1  0  0  0  0
 23 27  1  0  0  0  0
 23 54  1  0  0  0  0
 24 25  2  0  0  0  0
 24 29  1  0  0  0  0
 25 55  1  0  0  0  0
 26 56  1  0  0  0  0
 26 57  1  0  0  0  0
 26 58  1  0  0  0  0
 27 28  1  0  0  0  0
 27 59  1  0  0  0  0
 27 60  1  0  0  0  0
 28 30  1  0  0  0  0
 28 32  1  0  0  0  0
 28 61  1  0  0  0  0
 29 62  1  0  0  0  0
 29 63  1  0  0  0  0
 29 64  1  0  0  0  0
 30 65  1  0  0  0  0
 31 36  1  0  0  0  0
 32 35  2  0  0  0  0
 32 67  1  0  0  0  0
 33 37  1  0  0  0  0
 34 39  1  0  0  0  0
 35 68  1  0  0  0  0
 36 38  1  0  0  0  0
 36 40  1  0  0  0  0
 37 69  1  0  0  0  0
 37 70  1  0  0  0  0
 37 71  1  0  0  0  0
 38 41  1  0  0  0  0
 38 72  1  0  0  0  0
 38 73  1  0  0  0  0
 39 74  1  0  0  0  0
 39 75  1  0  0  0  0
 39 76  1  0  0  0  0
 40 77  1  0  0  0  0
 40 78  1  0  0  0  0
 40 79  1  0  0  0  0
 41 80  1  0  0  0  0
 41 81  1  0  0  0  0
 41 82  1  0  0  0  0
 42 43  1  0  0  0  0
 43 83  1  0  0  0  0
 43 84  1  0  0  0  0
 43 85  1  0  0  0  0
M  END
> <PUBCHEM_COMPOUND_CID>
442013

> <PUBCHEM_CONFORMER_RMSD>
1.4

> <PUBCHEM_CONFORMER_DIVERSEORDER>
1
8
12
9
6
11
5
10
3
7
4
2

> <PUBCHEM_MMFF94_PARTIAL_CHARGES>
42
1 -0.3
10 -0.43
11 -0.57
12 -0.57
13 0.09
14 -0.04
16 0.14
17 0.38
18 -0.05
2 -0.43
20 0.42
21 0.28
22 0.28
23 0.28
24 -0.28
25 -0.29
28 0.14
29 0.14
3 -0.43
30 0.56
31 0.66
32 -0.29
33 0.66
34 0.66
35 -0.07
36 0.34
37 0.06
39 0.06
4 -0.56
42 0.66
43 0.06
46 0.1
47 0.1
5 -0.68
55 0.15
6 -0.43
66 0.4
67 0.15
68 0.15
7 -0.36
8 -0.57
9 -0.57

> <PUBCHEM_EFFECTIVE_ROTOR_COUNT>
14.2

> <PUBCHEM_PHARMACOPHORE_FEATURES>
14
1 1 acceptor
1 11 acceptor
1 12 acceptor
1 4 acceptor
1 41 hydrophobe
1 5 acceptor
1 5 donor
1 7 acceptor
1 8 acceptor
1 9 acceptor
5 4 23 27 28 30 rings
5 7 28 30 32 35 rings
6 13 14 15 17 19 21 rings
6 13 15 16 20 24 25 rings

> <PUBCHEM_HEAVY_ATOM_COUNT>
43

> <PUBCHEM_ATOM_DEF_STEREO_COUNT>
11

> <PUBCHEM_ATOM_UDEF_STEREO_COUNT>
0

> <PUBCHEM_BOND_DEF_STEREO_COUNT>
0

> <PUBCHEM_BOND_UDEF_STEREO_COUNT>
0

> <PUBCHEM_ISOTOPIC_ATOM_COUNT>
0

> <PUBCHEM_COMPONENT_COUNT>
1

> <PUBCHEM_CACTVS_TAUTO_COUNT>
1

> <PUBCHEM_CONFORMER_ID>
0006BE9D00000001

> <PUBCHEM_MMFF94_ENERGY>
138.3657

> <PUBCHEM_FEATURE_SELFOVERLAP>
71.7

> <PUBCHEM_SHAPE_FINGERPRINT>
10258939 38 17103991118443519210
10290309 65 18187638073056659222
10675989 125 17760929945875110113
10906281 52 18118121601136311729
11007060 377 18268426837375454608
11093857 51 17678465383389559607
11578080 2 17274002266317422447
12422481 6 16558761151622892084
12660671 118 18053103114657070306
13150687 139 18335698390193460852
13726171 33 18335128839545445809
13911987 19 18187082879946296221
14068700 675 15049465736747878393
14659021 117 17759816844774682570
14856354 85 17131828712422073114
15439362 3 18048311438788313341
17980427 23 16845281718542565893
21033648 144 18201164364281505061
21033648 29 18187656768738673113
21859007 373 18335990835150543916
23559900 14 18045220693953195631
23569943 247 5975898960087499412
3411729 13 18199750408790505523
376196 1 18339357569417969331
4015057 19 16008749052925976016
4058900 60 17917992789188390098
4173938 306 17530976786976763860
44802255 64 18335410232411174486
5080951 261 16950851288797189662
5265222 85 18127963127652968532
6371380 46 18342739599177818304
9896288 288 18271519806697903531

> <PUBCHEM_SHAPE_MULTIPOLES>
814.49
15.17
5.64
2.29
15.72
3.7
-0.24
-18.23
4.04
-2.76
0.85
0.34
2.58
-0.45

> <PUBCHEM_SHAPE_SELFOVERLAP>
1739.589

> <PUBCHEM_SHAPE_VOLUME>
445.8

> <PUBCHEM_COORDINATE_TYPE>
2
5
10

$$$$

