5281824
  -OEChem-07051212592D

 44 47  0     1  0  0  0  0  0999 V2000
    6.0290   -0.4202    0.0000 O   0  0  0  0  0  0  0  0  0  0  0  0
    2.5369   -0.3856    0.0000 O   0  0  0  0  0  0  0  0  0  0  0  0
    4.2690    2.6144    0.0000 O   0  0  0  0  0  0  0  0  0  0  0  0
    6.0174    2.6490    0.0000 O   0  0  0  0  0  0  0  0  0  0  0  0
    3.4600   -1.9734    0.0000 N   0  0  3  0  0  0  0  0  0  0  0  0
    4.2690   -1.3856    0.0000 C   0  0  3  0  0  0  0  0  0  0  0  0
    5.0780   -1.9734    0.0000 C   0  0  0  0  0  0  0  0  0  0  0  0
    4.7690   -2.9244    0.0000 C   0  0  0  0  0  0  0  0  0  0  0  0
    3.7690   -2.9244    0.0000 C   0  0  0  0  0  0  0  0  0  0  0  0
    4.2690   -0.3856    0.0000 C   0  0  0  0  0  0  0  0  0  0  0  0
    2.5089   -1.6644    0.0000 C   0  0  0  0  0  0  0  0  0  0  0  0
    5.1350    0.1144    0.0000 C   0  0  0  0  0  0  0  0  0  0  0  0
    3.4030    0.1144    0.0000 C   0  0  0  0  0  0  0  0  0  0  0  0
    5.1350    1.1144    0.0000 C   0  0  0  0  0  0  0  0  0  0  0  0
    3.4030    1.1144    0.0000 C   0  0  0  0  0  0  0  0  0  0  0  0
    4.2690    1.6144    0.0000 C   0  0  0  0  0  0  0  0  0  0  0  0
    6.0290    1.6491    0.0000 C   0  0  0  0  0  0  0  0  0  0  0  0
    6.9350    0.0936    0.0000 C   0  0  0  0  0  0  0  0  0  0  0  0
    6.9350    1.1352    0.0000 C   0  0  0  0  0  0  0  0  0  0  0  0
    7.7991   -0.4097    0.0000 C   0  0  0  0  0  0  0  0  0  0  0  0
    7.7953   -1.4097    0.0000 C   0  0  0  0  0  0  0  0  0  0  0  0
    8.6671    0.0869    0.0000 C   0  0  0  0  0  0  0  0  0  0  0  0
    8.6594   -1.9131    0.0000 C   0  0  0  0  0  0  0  0  0  0  0  0
    9.5312   -0.4164    0.0000 C   0  0  0  0  0  0  0  0  0  0  0  0
    9.5273   -1.4164    0.0000 C   0  0  0  0  0  0  0  0  0  0  0  0
    4.8214   -1.1041    0.0000 H   0  0  0  0  0  0  0  0  0  0  0  0
    5.6444   -2.2255    0.0000 H   0  0  0  0  0  0  0  0  0  0  0  0
    5.3880   -1.4364    0.0000 H   0  0  0  0  0  0  0  0  0  0  0  0
    4.7042   -3.5410    0.0000 H   0  0  0  0  0  0  0  0  0  0  0  0
    5.3754   -3.0533    0.0000 H   0  0  0  0  0  0  0  0  0  0  0  0
    3.1625   -3.0533    0.0000 H   0  0  0  0  0  0  0  0  0  0  0  0
    3.8338   -3.5410    0.0000 H   0  0  0  0  0  0  0  0  0  0  0  0
    2.7005   -1.0747    0.0000 H   0  0  0  0  0  0  0  0  0  0  0  0
    1.9193   -1.4728    0.0000 H   0  0  0  0  0  0  0  0  0  0  0  0
    2.3173   -2.2540    0.0000 H   0  0  0  0  0  0  0  0  0  0  0  0
    2.8660    1.4244    0.0000 H   0  0  0  0  0  0  0  0  0  0  0  0
    7.4708    1.4473    0.0000 H   0  0  0  0  0  0  0  0  0  0  0  0
    2.0000   -0.0756    0.0000 H   0  0  0  0  0  0  0  0  0  0  0  0
    3.7320    2.9244    0.0000 H   0  0  0  0  0  0  0  0  0  0  0  0
    7.2571   -1.7176    0.0000 H   0  0  0  0  0  0  0  0  0  0  0  0
    8.6694    0.7069    0.0000 H   0  0  0  0  0  0  0  0  0  0  0  0
    8.6570   -2.5330    0.0000 H   0  0  0  0  0  0  0  0  0  0  0  0
   10.0693   -0.1085    0.0000 H   0  0  0  0  0  0  0  0  0  0  0  0
   10.0630   -1.7285    0.0000 H   0  0  0  0  0  0  0  0  0  0  0  0
  1 12  1  0  0  0  0
  1 18  1  0  0  0  0
  2 13  1  0  0  0  0
  2 38  1  0  0  0  0
  3 16  1  0  0  0  0
  3 39  1  0  0  0  0
  4 17  2  0  0  0  0
  5  6  1  0  0  0  0
  5  9  1  0  0  0  0
  5 11  1  0  0  0  0
  6  7  1  0  0  0  0
  6 10  1  0  0  0  0
  6 26  1  0  0  0  0
  7  8  1  0  0  0  0
  7 27  1  0  0  0  0
  7 28  1  0  0  0  0
  8  9  1  0  0  0  0
  8 29  1  0  0  0  0
  8 30  1  0  0  0  0
  9 31  1  0  0  0  0
  9 32  1  0  0  0  0
 10 12  1  0  0  0  0
 10 13  2  0  0  0  0
 11 33  1  0  0  0  0
 11 34  1  0  0  0  0
 11 35  1  0  0  0  0
 12 14  2  0  0  0  0
 13 15  1  0  0  0  0
 14 16  1  0  0  0  0
 14 17  1  0  0  0  0
 15 16  2  0  0  0  0
 15 36  1  0  0  0  0
 17 19  1  0  0  0  0
 18 19  2  0  0  0  0
 18 20  1  0  0  0  0
 19 37  1  0  0  0  0
 20 21  2  0  0  0  0
 20 22  1  0  0  0  0
 21 23  1  0  0  0  0
 21 40  1  0  0  0  0
 22 24  2  0  0  0  0
 22 41  1  0  0  0  0
 23 25  2  0  0  0  0
 23 42  1  0  0  0  0
 24 25  1  0  0  0  0
 24 43  1  0  0  0  0
 25 44  1  0  0  0  0
M  END
> <PUBCHEM_COMPOUND_CID>
5281824

> <PUBCHEM_COMPOUND_CANONICALIZED>
1

> <PUBCHEM_CACTVS_COMPLEXITY>
542

> <PUBCHEM_CACTVS_HBOND_ACCEPTOR>
5

> <PUBCHEM_CACTVS_HBOND_DONOR>
2

> <PUBCHEM_CACTVS_ROTATABLE_BOND>
2

> <PUBCHEM_CACTVS_SUBSKEYS>
AAADceB6OAAAAAAAAAAAAAAAAAAAAWAAAAAwYIAAAAAAAACBQAAAHgAACAAADCzBmAQyBoMABgCIAqBSAACCCAAkIAAIiAEODMgMJzaGtRuGeWjn4BWIuQeY/e/eIAACCAAIAABAAAQQABAAAAAAAAAAAA==

> <PUBCHEM_IUPAC_OPENEYE_NAME>
5,7-dihydroxy-8-(1-methylpyrrolidin-2-yl)-2-phenyl-chromen-4-one

> <PUBCHEM_IUPAC_CAS_NAME>
5,7-dihydroxy-8-(1-methyl-2-pyrrolidinyl)-2-phenyl-1-benzopyran-4-one

> <PUBCHEM_IUPAC_NAME>
5,7-dihydroxy-8-(1-methylpyrrolidin-2-yl)-2-phenylchromen-4-one

> <PUBCHEM_IUPAC_SYSTEMATIC_NAME>
8-(1-methylpyrrolidin-2-yl)-5,7-bis(oxidanyl)-2-phenyl-chromen-4-one

> <PUBCHEM_IUPAC_TRADITIONAL_NAME>
5,7-dihydroxy-8-(1-methylpyrrolidin-2-yl)-2-phenyl-chromone

> <PUBCHEM_IUPAC_INCHI>
InChI=1S/C20H19NO4/c1-21-9-5-8-13(21)18-14(22)10-15(23)19-16(24)11-17(25-20(18)19)12-6-3-2-4-7-12/h2-4,6-7,10-11,13,22-23H,5,8-9H2,1H3

> <PUBCHEM_IUPAC_INCHIKEY>
YTRPTVLTUWVLKO-UHFFFAOYSA-N

> <PUBCHEM_XLOGP3_AA>
3.4

> <PUBCHEM_EXACT_MASS>
337.131408

> <PUBCHEM_MOLECULAR_FORMULA>
C20H19NO4

> <PUBCHEM_MOLECULAR_WEIGHT>
337.36916

> <PUBCHEM_OPENEYE_CAN_SMILES>
CN1CCCC1C2=C(C=C(C3=C2OC(=CC3=O)C4=CC=CC=C4)O)O

> <PUBCHEM_OPENEYE_ISO_SMILES>
CN1CCCC1C2=C(C=C(C3=C2OC(=CC3=O)C4=CC=CC=C4)O)O

> <PUBCHEM_CACTVS_TPSA>
70

> <PUBCHEM_MONOISOTOPIC_WEIGHT>
337.131408

> <PUBCHEM_TOTAL_CHARGE>
0

> <PUBCHEM_HEAVY_ATOM_COUNT>
25

> <PUBCHEM_ATOM_DEF_STEREO_COUNT>
0

> <PUBCHEM_ATOM_UDEF_STEREO_COUNT>
1

> <PUBCHEM_BOND_DEF_STEREO_COUNT>
0

> <PUBCHEM_BOND_UDEF_STEREO_COUNT>
0

> <PUBCHEM_ISOTOPIC_ATOM_COUNT>
0

> <PUBCHEM_COMPONENT_COUNT>
1

> <PUBCHEM_CACTVS_TAUTO_COUNT>
12

> <PUBCHEM_COORDINATE_TYPE>
1
5
255

> <PUBCHEM_BONDANNOTATIONS>
1  12  8
1  18  8
10  12  8
10  13  8
12  14  8
13  15  8
14  16  8
14  17  8
15  16  8
17  19  8
18  19  8
20  21  8
20  22  8
21  23  8
22  24  8
23  25  8
24  25  8
6  10  3

$$$$

