656694
  -OEChem-07051213032D

 33 34  0     0  0  0  0  0  0999 V2000
    4.5000    0.8660    0.0000 O   0  0  0  0  0  0  0  0  0  0  0  0
    4.5000   -0.8660    0.0000 O   0  0  0  0  0  0  0  0  0  0  0  0
    3.0000    4.0000    0.0000 O   0  0  0  0  0  0  0  0  0  0  0  0
    3.0000   -4.0000    0.0000 O   0  0  0  0  0  0  0  0  0  0  0  0
    3.0000    0.0000    0.0000 C   0  0  0  0  0  0  0  0  0  0  0  0
    3.0000   -1.0000    0.0000 C   0  0  0  0  0  0  0  0  0  0  0  0
    3.0000    1.0000    0.0000 C   0  0  0  0  0  0  0  0  0  0  0  0
    2.0000    0.0000    0.0000 C   0  0  0  0  0  0  0  0  0  0  0  0
    4.0000    0.0000    0.0000 C   0  0  0  0  0  0  0  0  0  0  0  0
    3.8660    1.5000    0.0000 C   0  0  0  0  0  0  0  0  0  0  0  0
    2.1340   -1.5000    0.0000 C   0  0  0  0  0  0  0  0  0  0  0  0
    2.1340    1.5000    0.0000 C   0  0  0  0  0  0  0  0  0  0  0  0
    3.8660   -1.5000    0.0000 C   0  0  0  0  0  0  0  0  0  0  0  0
    2.1340   -2.5000    0.0000 C   0  0  0  0  0  0  0  0  0  0  0  0
    3.8660    2.5000    0.0000 C   0  0  0  0  0  0  0  0  0  0  0  0
    3.8660   -2.5000    0.0000 C   0  0  0  0  0  0  0  0  0  0  0  0
    2.1340    2.5000    0.0000 C   0  0  0  0  0  0  0  0  0  0  0  0
    3.0000   -3.0000    0.0000 C   0  0  0  0  0  0  0  0  0  0  0  0
    3.0000    3.0000    0.0000 C   0  0  0  0  0  0  0  0  0  0  0  0
    2.0000    0.6200    0.0000 H   0  0  0  0  0  0  0  0  0  0  0  0
    1.3800    0.0000    0.0000 H   0  0  0  0  0  0  0  0  0  0  0  0
    2.0000   -0.6200    0.0000 H   0  0  0  0  0  0  0  0  0  0  0  0
    1.5970   -1.1900    0.0000 H   0  0  0  0  0  0  0  0  0  0  0  0
    4.4030    1.1900    0.0000 H   0  0  0  0  0  0  0  0  0  0  0  0
    4.4030   -1.1900    0.0000 H   0  0  0  0  0  0  0  0  0  0  0  0
    1.5970    1.1900    0.0000 H   0  0  0  0  0  0  0  0  0  0  0  0
    1.5970   -2.8100    0.0000 H   0  0  0  0  0  0  0  0  0  0  0  0
    4.4030    2.8100    0.0000 H   0  0  0  0  0  0  0  0  0  0  0  0
    4.4030   -2.8100    0.0000 H   0  0  0  0  0  0  0  0  0  0  0  0
    1.5970    2.8100    0.0000 H   0  0  0  0  0  0  0  0  0  0  0  0
    5.1200    0.8660    0.0000 H   0  0  0  0  0  0  0  0  0  0  0  0
    2.4631   -4.3100    0.0000 H   0  0  0  0  0  0  0  0  0  0  0  0
    2.4631    4.3100    0.0000 H   0  0  0  0  0  0  0  0  0  0  0  0
  1  9  1  0  0  0  0
  1 31  1  0  0  0  0
  2  9  2  0  0  0  0
  3 19  1  0  0  0  0
  3 33  1  0  0  0  0
  4 18  1  0  0  0  0
  4 32  1  0  0  0  0
  5  6  1  0  0  0  0
  5  7  1  0  0  0  0
  5  8  1  0  0  0  0
  5  9  1  0  0  0  0
  6 11  2  0  0  0  0
  6 13  1  0  0  0  0
  7 10  2  0  0  0  0
  7 12  1  0  0  0  0
  8 20  1  0  0  0  0
  8 21  1  0  0  0  0
  8 22  1  0  0  0  0
 10 15  1  0  0  0  0
 10 24  1  0  0  0  0
 11 14  1  0  0  0  0
 11 23  1  0  0  0  0
 12 17  2  0  0  0  0
 12 26  1  0  0  0  0
 13 16  2  0  0  0  0
 13 25  1  0  0  0  0
 14 18  2  0  0  0  0
 14 27  1  0  0  0  0
 15 19  2  0  0  0  0
 15 28  1  0  0  0  0
 16 18  1  0  0  0  0
 16 29  1  0  0  0  0
 17 19  1  0  0  0  0
 17 30  1  0  0  0  0
M  END
> <PUBCHEM_COMPOUND_CID>
656694

> <PUBCHEM_COMPOUND_CANONICALIZED>
1

> <PUBCHEM_CACTVS_COMPLEXITY>
290

> <PUBCHEM_CACTVS_HBOND_ACCEPTOR>
4

> <PUBCHEM_CACTVS_HBOND_DONOR>
3

> <PUBCHEM_CACTVS_ROTATABLE_BOND>
3

> <PUBCHEM_CACTVS_SUBSKEYS>
AAADccBwOAAAAAAAAAAAAAAAAAAAAAAAAAAwYAAAAAAAAAABQAAAGgAACAAADgSAmAAyDoAAAgCIAiDSCAACAAAgIAAIiAEGCIgIJjKCFRKAcAAkwBEImAeIyPCPoAAAAAAAAABAAAAAAAAAAAAAAAAAAA==

> <PUBCHEM_IUPAC_OPENEYE_NAME>
2,2-bis(4-hydroxyphenyl)propanoic acid

> <PUBCHEM_IUPAC_CAS_NAME>
2,2-bis(4-hydroxyphenyl)propanoic acid

> <PUBCHEM_IUPAC_NAME>
2,2-bis(4-hydroxyphenyl)propanoic acid

> <PUBCHEM_IUPAC_SYSTEMATIC_NAME>
2,2-bis(4-hydroxyphenyl)propanoic acid

> <PUBCHEM_IUPAC_TRADITIONAL_NAME>
2,2-bis(4-hydroxyphenyl)propionic acid

> <PUBCHEM_IUPAC_INCHI>
InChI=1S/C15H14O4/c1-15(14(18)19,10-2-6-12(16)7-3-10)11-4-8-13(17)9-5-11/h2-9,16-17H,1H3,(H,18,19)

> <PUBCHEM_IUPAC_INCHIKEY>
YWXSOBSAHZIXED-UHFFFAOYSA-N

> <PUBCHEM_XLOGP3>
2

> <PUBCHEM_EXACT_MASS>
258.089209

> <PUBCHEM_MOLECULAR_FORMULA>
C15H14O4

> <PUBCHEM_MOLECULAR_WEIGHT>
258.26926

> <PUBCHEM_OPENEYE_CAN_SMILES>
CC(C1=CC=C(C=C1)O)(C2=CC=C(C=C2)O)C(=O)O

> <PUBCHEM_OPENEYE_ISO_SMILES>
CC(C1=CC=C(C=C1)O)(C2=CC=C(C=C2)O)C(=O)O

> <PUBCHEM_CACTVS_TPSA>
77.8

> <PUBCHEM_MONOISOTOPIC_WEIGHT>
258.089209

> <PUBCHEM_TOTAL_CHARGE>
0

> <PUBCHEM_HEAVY_ATOM_COUNT>
19

> <PUBCHEM_ATOM_DEF_STEREO_COUNT>
0

> <PUBCHEM_ATOM_UDEF_STEREO_COUNT>
0

> <PUBCHEM_BOND_DEF_STEREO_COUNT>
0

> <PUBCHEM_BOND_UDEF_STEREO_COUNT>
0

> <PUBCHEM_ISOTOPIC_ATOM_COUNT>
0

> <PUBCHEM_COMPONENT_COUNT>
1

> <PUBCHEM_CACTVS_TAUTO_COUNT>
3

> <PUBCHEM_COORDINATE_TYPE>
1
5
255

> <PUBCHEM_BONDANNOTATIONS>
10  15  8
11  14  8
12  17  8
13  16  8
14  18  8
15  19  8
16  18  8
17  19  8
6  11  8
6  13  8
7  10  8
7  12  8

$$$$

