443420
  -OEChem-07051213023D

 67 71  0     1  0  0  0  0  0999 V2000
    2.0582   -0.2339    1.4223 O   0  0  0  0  0  0  0  0  0  0  0  0
    2.7605    0.1356   -0.7969 O   0  0  0  0  0  0  0  0  0  0  0  0
    4.7321    1.0104    0.0928 O   0  0  0  0  0  0  0  0  0  0  0  0
   -0.8205   -3.2706    1.6130 O   0  0  0  0  0  0  0  0  0  0  0  0
    4.2513   -1.9537   -1.9886 O   0  0  0  0  0  0  0  0  0  0  0  0
    7.0303   -1.1455   -2.5410 O   0  0  0  0  0  0  0  0  0  0  0  0
    8.2410   -0.0034   -0.1777 O   0  0  0  0  0  0  0  0  0  0  0  0
   -8.0773    0.8805   -0.8103 O   0  0  0  0  0  0  0  0  0  0  0  0
   -6.2389    2.9254   -0.4151 O   0  0  0  0  0  0  0  0  0  0  0  0
    5.7422    2.4280    2.2204 O   0  0  0  0  0  0  0  0  0  0  0  0
   -2.4182   -1.7287    0.8933 N   0  0  0  0  0  0  0  0  0  0  0  0
   -0.2815   -0.2385   -0.3636 C   0  0  1  0  0  0  0  0  0  0  0  0
   -2.6769   -0.3236    0.5136 C   0  0  1  0  0  0  0  0  0  0  0  0
   -1.7660    0.0314   -0.6704 C   0  0  0  0  0  0  0  0  0  0  0  0
    0.5693    1.0386   -0.1514 C   0  0  2  0  0  0  0  0  0  0  0  0
   -0.0652   -1.1867    0.7798 C   0  0  0  0  0  0  0  0  0  0  0  0
    2.0001    0.6546    0.2961 C   0  0  1  0  0  0  0  0  0  0  0  0
   -4.1282   -0.0154    0.1856 C   0  0  0  0  0  0  0  0  0  0  0  0
   -3.5550   -2.5823    1.2278 C   0  0  0  0  0  0  0  0  0  0  0  0
   -1.1183   -2.1740    1.1450 C   0  0  0  0  0  0  0  0  0  0  0  0
   -4.6480   -2.4772    0.1746 C   0  0  0  0  0  0  0  0  0  0  0  0
   -5.0708   -1.0439    0.0131 C   0  0  0  0  0  0  0  0  0  0  0  0
    1.0293   -1.1275    1.5500 C   0  0  0  0  0  0  0  0  0  0  0  0
    4.0973   -0.1676   -0.3989 C   0  0  2  0  0  0  0  0  0  0  0  0
   -0.0351    2.0086    0.8270 C   0  0  0  0  0  0  0  0  0  0  0  0
    4.8411   -0.7072   -1.6205 C   0  0  1  0  0  0  0  0  0  0  0  0
    6.3254   -0.9171   -1.3199 C   0  0  2  0  0  0  0  0  0  0  0  0
    6.9329    0.3135   -0.6462 C   0  0  1  0  0  0  0  0  0  0  0  0
   -4.5441    1.3185    0.0471 C   0  0  0  0  0  0  0  0  0  0  0  0
    6.0698    0.7690    0.5328 C   0  0  1  0  0  0  0  0  0  0  0  0
   -6.3917   -0.7315   -0.3347 C   0  0  0  0  0  0  0  0  0  0  0  0
   -5.8649    1.6221   -0.2830 C   0  0  0  0  0  0  0  0  0  0  0  0
   -6.7866    0.5976   -0.4794 C   0  0  0  0  0  0  0  0  0  0  0  0
    6.5922    2.0633    1.1482 C   0  0  0  0  0  0  0  0  0  0  0  0
   -0.4012    3.2563    0.5146 C   0  0  0  0  0  0  0  0  0  0  0  0
   -8.3845    0.9752   -2.1998 C   0  0  0  0  0  0  0  0  0  0  0  0
    0.1286   -0.7359   -1.2559 H   0  0  0  0  0  0  0  0  0  0  0  0
   -2.4055    0.2760    1.3929 H   0  0  0  0  0  0  0  0  0  0  0  0
   -2.0525   -0.5965   -1.5276 H   0  0  0  0  0  0  0  0  0  0  0  0
   -1.9154    1.0624   -1.0111 H   0  0  0  0  0  0  0  0  0  0  0  0
    0.6489    1.5337   -1.1303 H   0  0  0  0  0  0  0  0  0  0  0  0
    2.4895    1.5827    0.6191 H   0  0  0  0  0  0  0  0  0  0  0  0
   -3.9209   -2.2604    2.2109 H   0  0  0  0  0  0  0  0  0  0  0  0
   -3.2298   -3.6235    1.3253 H   0  0  0  0  0  0  0  0  0  0  0  0
   -5.4988   -3.0971    0.4800 H   0  0  0  0  0  0  0  0  0  0  0  0
   -4.2871   -2.8477   -0.7924 H   0  0  0  0  0  0  0  0  0  0  0  0
    1.2082   -1.7649    2.4060 H   0  0  0  0  0  0  0  0  0  0  0  0
    4.0754   -0.9408    0.3803 H   0  0  0  0  0  0  0  0  0  0  0  0
   -0.1799    1.6769    1.8523 H   0  0  0  0  0  0  0  0  0  0  0  0
    4.7118   -0.0276   -2.4720 H   0  0  0  0  0  0  0  0  0  0  0  0
    6.4744   -1.8146   -0.7080 H   0  0  0  0  0  0  0  0  0  0  0  0
    7.0354    1.1224   -1.3799 H   0  0  0  0  0  0  0  0  0  0  0  0
    6.0450    0.0021    1.3191 H   0  0  0  0  0  0  0  0  0  0  0  0
   -3.8311    2.1269    0.1933 H   0  0  0  0  0  0  0  0  0  0  0  0
   -7.1169   -1.5279   -0.4854 H   0  0  0  0  0  0  0  0  0  0  0  0
    7.6133    1.9589    1.5271 H   0  0  0  0  0  0  0  0  0  0  0  0
    6.5677    2.8814    0.4213 H   0  0  0  0  0  0  0  0  0  0  0  0
   -0.8311    3.9071    1.2682 H   0  0  0  0  0  0  0  0  0  0  0  0
   -0.2827    3.6490   -0.4890 H   0  0  0  0  0  0  0  0  0  0  0  0
    4.7478   -2.2952   -2.7519 H   0  0  0  0  0  0  0  0  0  0  0  0
    6.8968   -0.3730   -3.1163 H   0  0  0  0  0  0  0  0  0  0  0  0
    8.1598   -0.7117    0.4837 H   0  0  0  0  0  0  0  0  0  0  0  0
   -7.1918    2.9556   -0.6078 H   0  0  0  0  0  0  0  0  0  0  0  0
    5.7827    1.7186    2.8842 H   0  0  0  0  0  0  0  0  0  0  0  0
   -9.4403    1.2416   -2.2998 H   0  0  0  0  0  0  0  0  0  0  0  0
   -7.7807    1.7519   -2.6796 H   0  0  0  0  0  0  0  0  0  0  0  0
   -8.2182    0.0126   -2.6936 H   0  0  0  0  0  0  0  0  0  0  0  0
  1 17  1  0  0  0  0
  1 23  1  0  0  0  0
  2 17  1  0  0  0  0
  2 24  1  0  0  0  0
  3 24  1  0  0  0  0
  3 30  1  0  0  0  0
  4 20  2  0  0  0  0
  5 26  1  0  0  0  0
  5 60  1  0  0  0  0
  6 27  1  0  0  0  0
  6 61  1  0  0  0  0
  7 28  1  0  0  0  0
  7 62  1  0  0  0  0
  8 33  1  0  0  0  0
  8 36  1  0  0  0  0
  9 32  1  0  0  0  0
  9 63  1  0  0  0  0
 10 34  1  0  0  0  0
 10 64  1  0  0  0  0
 11 13  1  0  0  0  0
 11 19  1  0  0  0  0
 11 20  1  0  0  0  0
 12 14  1  0  0  0  0
 12 15  1  0  0  0  0
 12 16  1  0  0  0  0
 12 37  1  0  0  0  0
 13 14  1  0  0  0  0
 13 18  1  0  0  0  0
 13 38  1  0  0  0  0
 14 39  1  0  0  0  0
 14 40  1  0  0  0  0
 15 17  1  0  0  0  0
 15 25  1  0  0  0  0
 15 41  1  0  0  0  0
 16 20  1  0  0  0  0
 16 23  2  0  0  0  0
 17 42  1  0  0  0  0
 18 22  1  0  0  0  0
 18 29  2  0  0  0  0
 19 21  1  0  0  0  0
 19 43  1  0  0  0  0
 19 44  1  0  0  0  0
 21 22  1  0  0  0  0
 21 45  1  0  0  0  0
 21 46  1  0  0  0  0
 22 31  2  0  0  0  0
 23 47  1  0  0  0  0
 24 26  1  0  0  0  0
 24 48  1  0  0  0  0
 25 35  2  0  0  0  0
 25 49  1  0  0  0  0
 26 27  1  0  0  0  0
 26 50  1  0  0  0  0
 27 28  1  0  0  0  0
 27 51  1  0  0  0  0
 28 30  1  0  0  0  0
 28 52  1  0  0  0  0
 29 32  1  0  0  0  0
 29 54  1  0  0  0  0
 30 34  1  0  0  0  0
 30 53  1  0  0  0  0
 31 33  1  0  0  0  0
 31 55  1  0  0  0  0
 32 33  2  0  0  0  0
 34 56  1  0  0  0  0
 34 57  1  0  0  0  0
 35 58  1  0  0  0  0
 35 59  1  0  0  0  0
 36 65  1  0  0  0  0
 36 66  1  0  0  0  0
 36 67  1  0  0  0  0
M  END
> <PUBCHEM_COMPOUND_CID>
443420

> <PUBCHEM_CONFORMER_RMSD>
1

> <PUBCHEM_CONFORMER_DIVERSEORDER>
1
61
49
55
54
24
7
21
16
29
59
37
28
11
2
56
23
4
48
53
42
32
6
22
43
34
44
33
8
19
17
13
45
60
51
52
5
46
40
25
58
47
36
9
35
18
3
12
63
39
26
50
38
20
10
31
41
27
14
30
15
57
62

> <PUBCHEM_MMFF94_PARTIAL_CHARGES>
46
1 -0.36
10 -0.68
11 -0.66
12 0.14
13 0.44
15 0.14
16 -0.12
17 0.56
18 -0.14
19 0.3
2 -0.56
20 0.62
21 0.14
22 -0.14
23 -0.07
24 0.56
25 -0.29
26 0.28
27 0.28
28 0.28
29 -0.15
3 -0.56
30 0.28
31 -0.15
32 0.08
33 0.08
34 0.28
35 -0.3
36 0.28
4 -0.57
47 0.15
49 0.15
5 -0.68
54 0.15
55 0.15
58 0.15
59 0.15
6 -0.68
60 0.4
61 0.4
62 0.4
63 0.45
64 0.4
7 -0.68
8 -0.36
9 -0.53

> <PUBCHEM_EFFECTIVE_ROTOR_COUNT>
7.4

> <PUBCHEM_PHARMACOPHORE_FEATURES>
20
1 1 acceptor
1 10 acceptor
1 10 donor
1 2 acceptor
1 3 acceptor
1 35 hydrophobe
1 4 acceptor
1 5 acceptor
1 5 donor
1 6 acceptor
1 6 donor
1 7 acceptor
1 7 donor
1 8 acceptor
1 9 donor
6 1 12 15 16 17 23 rings
6 11 12 13 14 16 20 rings
6 11 13 18 19 21 22 rings
6 18 22 29 31 32 33 rings
6 3 24 26 27 28 30 rings

> <PUBCHEM_HEAVY_ATOM_COUNT>
36

> <PUBCHEM_ATOM_DEF_STEREO_COUNT>
9

> <PUBCHEM_ATOM_UDEF_STEREO_COUNT>
0

> <PUBCHEM_BOND_DEF_STEREO_COUNT>
0

> <PUBCHEM_BOND_UDEF_STEREO_COUNT>
0

> <PUBCHEM_ISOTOPIC_ATOM_COUNT>
0

> <PUBCHEM_COMPONENT_COUNT>
1

> <PUBCHEM_CACTVS_TAUTO_COUNT>
3

> <PUBCHEM_CONFORMER_ID>
0006C41C00000001

> <PUBCHEM_MMFF94_ENERGY>
111.1278

> <PUBCHEM_FEATURE_SELFOVERLAP>
101.674

> <PUBCHEM_SHAPE_FINGERPRINT>
10165383 225 18060421339881896757
10190206 1 18338789138859814792
10835480 77 18261673680097263664
10951579 204 18268978964154202564
11007060 377 18410852188112643401
11456790 92 12031519757224474532
12838862 33 18058751155886554973
13811026 1 18335701611809192423
14294032 229 17417535829652905652
14856354 85 16056307346312384563
14931854 50 18338243760535174669
150020 25 18333725824048078740
15082195 135 18338498769913105164
15131766 46 14260196793780103390
15183329 4 17989203750287376079
15198563 99 18337383967258139988
15351339 4 18268438000053524921
1577012 14 16558747884695832750
15849732 13 18040436577211029701
21150785 3 17167867456706782997
21279426 13 18411416185510297393
21792965 106 17344645952937459437
23559900 14 18335425613163938073
23576562 1 17773866511607339389
249057 3 18131628972307668317
3004659 81 18059849520631118196
335352 9 18343024376735998469
3383291 50 18199743657508774411
3633792 109 17531241781393904579
4073 2 18272084946973499034
437815 12 18186796976462554113
44880568 143 18040990778248035921
6009941 240 18272086076254472579

> <PUBCHEM_SHAPE_MULTIPOLES>
677.19
23.03
2.88
1.67
5.06
0.12
-0.44
7.15
-10.34
-2.13
1.17
1.88
-0.35
3.88

> <PUBCHEM_SHAPE_SELFOVERLAP>
1460.049

> <PUBCHEM_SHAPE_VOLUME>
363.4

> <PUBCHEM_COORDINATE_TYPE>
2
5
10

$$$$

