6436082
  -OEChem-07051213093D

 49 49  0     0  0  0  0  0  0999 V2000
   -8.0325    1.1479    0.3753 O   0  0  0  0  0  0  0  0  0  0  0  0
    4.2465   -0.0926    0.6241 C   0  0  0  0  0  0  0  0  0  0  0  0
    5.2268    1.0922    0.4053 C   0  0  0  0  0  0  0  0  0  0  0  0
    4.5170    2.4342    0.4125 C   0  0  0  0  0  0  0  0  0  0  0  0
    2.9630    0.0663   -0.2247 C   0  0  0  0  0  0  0  0  0  0  0  0
    3.4851    2.4841   -0.7041 C   0  0  0  0  0  0  0  0  0  0  0  0
    2.6435    1.2314   -0.8425 C   0  0  0  0  0  0  0  0  0  0  0  0
    3.8700   -0.1636    2.1219 C   0  0  0  0  0  0  0  0  0  0  0  0
    5.0352   -1.3725    0.2538 C   0  0  0  0  0  0  0  0  0  0  0  0
    2.1072   -1.1068   -0.2962 C   0  0  0  0  0  0  0  0  0  0  0  0
    1.4425    1.4588   -1.7312 C   0  0  0  0  0  0  0  0  0  0  0  0
    0.7674   -1.0442   -0.2286 C   0  0  0  0  0  0  0  0  0  0  0  0
   -0.1566   -2.1771   -0.2920 C   0  0  0  0  0  0  0  0  0  0  0  0
    0.4436   -3.5560   -0.4473 C   0  0  0  0  0  0  0  0  0  0  0  0
   -1.5008   -2.0650   -0.2196 C   0  0  0  0  0  0  0  0  0  0  0  0
   -2.3015   -0.8622   -0.0728 C   0  0  0  0  0  0  0  0  0  0  0  0
   -3.6452   -0.8896   -0.0131 C   0  0  0  0  0  0  0  0  0  0  0  0
   -4.5303    0.2657    0.1321 C   0  0  0  0  0  0  0  0  0  0  0  0
   -3.8865    1.6301    0.2259 C   0  0  0  0  0  0  0  0  0  0  0  0
   -5.8749    0.1937    0.1878 C   0  0  0  0  0  0  0  0  0  0  0  0
   -6.8196    1.3254    0.3336 C   0  0  0  0  0  0  0  0  0  0  0  0
    5.7446    0.9775   -0.5575 H   0  0  0  0  0  0  0  0  0  0  0  0
    6.0089    1.0902    1.1750 H   0  0  0  0  0  0  0  0  0  0  0  0
    5.2437    3.2436    0.2766 H   0  0  0  0  0  0  0  0  0  0  0  0
    4.0335    2.6087    1.3805 H   0  0  0  0  0  0  0  0  0  0  0  0
    3.9964    2.6605   -1.6594 H   0  0  0  0  0  0  0  0  0  0  0  0
    2.8340    3.3492   -0.5269 H   0  0  0  0  0  0  0  0  0  0  0  0
    3.2772   -1.0587    2.3442 H   0  0  0  0  0  0  0  0  0  0  0  0
    4.7650   -0.2040    2.7532 H   0  0  0  0  0  0  0  0  0  0  0  0
    3.2784    0.7032    2.4356 H   0  0  0  0  0  0  0  0  0  0  0  0
    5.2060   -1.4372   -0.8271 H   0  0  0  0  0  0  0  0  0  0  0  0
    6.0158   -1.3827    0.7451 H   0  0  0  0  0  0  0  0  0  0  0  0
    4.5210   -2.2854    0.5733 H   0  0  0  0  0  0  0  0  0  0  0  0
    2.6002   -2.0588   -0.4543 H   0  0  0  0  0  0  0  0  0  0  0  0
    1.7086    2.1387   -2.5498 H   0  0  0  0  0  0  0  0  0  0  0  0
    0.6277    1.9255   -1.1688 H   0  0  0  0  0  0  0  0  0  0  0  0
    1.0844    0.5520   -2.2249 H   0  0  0  0  0  0  0  0  0  0  0  0
    0.3063   -0.0832   -0.0287 H   0  0  0  0  0  0  0  0  0  0  0  0
   -0.3195   -4.3419   -0.4772 H   0  0  0  0  0  0  0  0  0  0  0  0
    1.1063   -3.7879    0.3937 H   0  0  0  0  0  0  0  0  0  0  0  0
    1.0123   -3.6286   -1.3808 H   0  0  0  0  0  0  0  0  0  0  0  0
   -2.0865   -2.9830   -0.2774 H   0  0  0  0  0  0  0  0  0  0  0  0
   -1.7784    0.0845   -0.0157 H   0  0  0  0  0  0  0  0  0  0  0  0
   -4.1548   -1.8505   -0.0750 H   0  0  0  0  0  0  0  0  0  0  0  0
   -3.3072    1.8302   -0.6837 H   0  0  0  0  0  0  0  0  0  0  0  0
   -3.1994    1.6583    1.0805 H   0  0  0  0  0  0  0  0  0  0  0  0
   -4.5422    2.4877    0.3531 H   0  0  0  0  0  0  0  0  0  0  0  0
   -6.3571   -0.7797    0.1226 H   0  0  0  0  0  0  0  0  0  0  0  0
   -6.4176    2.3409    0.4027 H   0  0  0  0  0  0  0  0  0  0  0  0
  1 21  2  0  0  0  0
  2  3  1  0  0  0  0
  2  5  1  0  0  0  0
  2  8  1  0  0  0  0
  2  9  1  0  0  0  0
  3  4  1  0  0  0  0
  3 22  1  0  0  0  0
  3 23  1  0  0  0  0
  4  6  1  0  0  0  0
  4 24  1  0  0  0  0
  4 25  1  0  0  0  0
  5  7  2  0  0  0  0
  5 10  1  0  0  0  0
  6  7  1  0  0  0  0
  6 26  1  0  0  0  0
  6 27  1  0  0  0  0
  7 11  1  0  0  0  0
  8 28  1  0  0  0  0
  8 29  1  0  0  0  0
  8 30  1  0  0  0  0
  9 31  1  0  0  0  0
  9 32  1  0  0  0  0
  9 33  1  0  0  0  0
 10 12  2  0  0  0  0
 10 34  1  0  0  0  0
 11 35  1  0  0  0  0
 11 36  1  0  0  0  0
 11 37  1  0  0  0  0
 12 13  1  0  0  0  0
 12 38  1  0  0  0  0
 13 14  1  0  0  0  0
 13 15  2  0  0  0  0
 14 39  1  0  0  0  0
 14 40  1  0  0  0  0
 14 41  1  0  0  0  0
 15 16  1  0  0  0  0
 15 42  1  0  0  0  0
 16 17  2  0  0  0  0
 16 43  1  0  0  0  0
 17 18  1  0  0  0  0
 17 44  1  0  0  0  0
 18 19  1  0  0  0  0
 18 20  2  0  0  0  0
 19 45  1  0  0  0  0
 19 46  1  0  0  0  0
 19 47  1  0  0  0  0
 20 21  1  0  0  0  0
 20 48  1  0  0  0  0
 21 49  1  0  0  0  0
M  END
> <PUBCHEM_COMPOUND_CID>
6436082

> <PUBCHEM_CONFORMER_RMSD>
0.8

> <PUBCHEM_CONFORMER_DIVERSEORDER>
5
13
9
28
10
23
2
27
14
19
22
11
26
4
15
6
25
1
16
24
17
20
3
8
12
29
21
7
18

> <PUBCHEM_MMFF94_PARTIAL_CHARGES>
24
1 -0.57
10 -0.15
11 0.14
12 -0.15
13 -0.14
14 0.14
15 -0.15
16 -0.15
17 -0.15
18 -0.14
19 0.14
2 0.14
20 -0.14
21 0.5
34 0.15
38 0.15
42 0.15
43 0.15
44 0.15
48 0.15
49 0.06
5 -0.14
6 0.14
7 -0.28

> <PUBCHEM_EFFECTIVE_ROTOR_COUNT>
5.8

> <PUBCHEM_PHARMACOPHORE_FEATURES>
5
1 1 acceptor
1 14 hydrophobe
1 19 hydrophobe
3 2 8 9 hydrophobe
6 2 3 4 5 6 7 rings

> <PUBCHEM_HEAVY_ATOM_COUNT>
21

> <PUBCHEM_ATOM_DEF_STEREO_COUNT>
0

> <PUBCHEM_ATOM_UDEF_STEREO_COUNT>
0

> <PUBCHEM_BOND_DEF_STEREO_COUNT>
4

> <PUBCHEM_BOND_UDEF_STEREO_COUNT>
0

> <PUBCHEM_ISOTOPIC_ATOM_COUNT>
0

> <PUBCHEM_COMPONENT_COUNT>
1

> <PUBCHEM_CACTVS_TAUTO_COUNT>
1

> <PUBCHEM_CONFORMER_ID>
006234F200000005

> <PUBCHEM_MMFF94_ENERGY>
52.6772

> <PUBCHEM_FEATURE_SELFOVERLAP>
25.371

> <PUBCHEM_SHAPE_FINGERPRINT>
10411042 1 17761209221517575806
12107183 9 18340215175866867106
12516196 113 10663817473161633407
12596602 18 17917993837044365809
12633257 1 16271644486250059707
13167372 99 18409448115773843753
13685833 64 9655569717554462607
13785724 45 18050572043306619506
13965767 371 18200606795726582030
14251764 30 13758085120572341264
14294032 229 17970340426482451303
14461889 52 18341886386813437235
15188451 53 15697428911685850811
15342816 4 9943535141147314058
15475509 35 16200164239270476722
17810953 82 18411978057294948236
1979834 28 18271514377937732557
20157964 124 18335699477189671967
20715895 44 18409728473974511993
21033648 29 18188503375870270602
21315764 268 18342462551489664877
21421861 104 17845392011317025416
21774942 28 16878498072228778265
22950370 63 9871477525481386807
23016692 55 9871749109454200995
235170 7 14923936869089854593
23559900 14 18041273301871545542
245318 6 17843384216510829245
270888 7 18335984164385136633
2748736 6 18335707165566351185
2838139 119 18410864286987607925
312425 54 16774078454040454153
3472631 163 18040996207323393133
3680242 22 18411694409313017633
474 4 18411133654056359147
5104073 3 18130231436830115474
5385378 56 18336828705364204075
6328613 192 18269828741098426676
653340 110 18194122043334205221
7970288 3 10231764374769335145
8509985 295 18409453574466332464
960060 61 6916260749837545251

> <PUBCHEM_SHAPE_MULTIPOLES>
426.3
16.29
3.02
1.11
29.34
1.23
0.18
-10.5
4.61
-1.4
-0.61
-1.27
-0.25
-0.83

> <PUBCHEM_SHAPE_SELFOVERLAP>
852.791

> <PUBCHEM_SHAPE_VOLUME>
251.5

> <PUBCHEM_COORDINATE_TYPE>
2
5
10

$$$$

