13153
  -OEChem-06261207492D

  8  7  0     0  0  0  0  0  0999 V2000
    3.7320   -1.2500    0.0000 Cl  0  0  0  0  0  0  0  0  0  0  0  0
    5.4641   -0.2500    0.0000 Cl  0  0  0  0  0  0  0  0  0  0  0  0
    4.5981    1.2500    0.0000 Cl  0  0  0  0  0  0  0  0  0  0  0  0
    2.0000   -0.2500    0.0000 Cl  0  0  0  0  0  0  0  0  0  0  0  0
    2.8660    1.2500    0.0000 O   0  0  0  0  0  0  0  0  0  0  0  0
    3.7320   -0.2500    0.0000 C   0  0  0  0  0  0  0  0  0  0  0  0
    4.5981    0.2500    0.0000 C   0  0  0  0  0  0  0  0  0  0  0  0
    2.8660    0.2500    0.0000 C   0  0  0  0  0  0  0  0  0  0  0  0
  1  6  1  0  0  0  0
  2  7  1  0  0  0  0
  3  7  1  0  0  0  0
  4  8  1  0  0  0  0
  5  8  2  0  0  0  0
  6  7  2  0  0  0  0
  6  8  1  0  0  0  0
M  END
> <PUBCHEM_COMPOUND_CID>
13153

> <PUBCHEM_COMPOUND_CANONICALIZED>
1

> <PUBCHEM_CACTVS_COMPLEXITY>
134

> <PUBCHEM_CACTVS_HBOND_ACCEPTOR>
1

> <PUBCHEM_CACTVS_HBOND_DONOR>
0

> <PUBCHEM_CACTVS_ROTATABLE_BOND>
1

> <PUBCHEM_CACTVS_SUBSKEYS>
AAADcQBAIAAHAAAAAAAAAAAAAAAAAAAAAAAAAAAAAAAAAAAAAAAACgIAAAAACAIAgIAAAAAAAACIAEBYAAAAAAAAAAAAAEAAAEBAAAAAAAAAAAAAAAAAAAAAAAAAAAAAAAAAAAAAAAAAAAAAAAAAAAAAAA==

> <PUBCHEM_IUPAC_OPENEYE_NAME>
2,3,3-trichloroprop-2-enoyl chloride

> <PUBCHEM_IUPAC_CAS_NAME>
2,3,3-trichloro-2-propenoyl chloride

> <PUBCHEM_IUPAC_NAME>
2,3,3-trichloroprop-2-enoyl chloride

> <PUBCHEM_IUPAC_SYSTEMATIC_NAME>
2,3,3-tris(chloranyl)prop-2-enoyl chloride

> <PUBCHEM_IUPAC_TRADITIONAL_NAME>
2,3,3-trichloroacryloyl chloride

> <PUBCHEM_IUPAC_INCHI>
InChI=1S/C3Cl4O/c4-1(2(5)6)3(7)8

> <PUBCHEM_IUPAC_INCHIKEY>
BCOSEZGCLGPUSL-UHFFFAOYSA-N

> <PUBCHEM_XLOGP3_AA>
3.3

> <PUBCHEM_EXACT_MASS>
193.867375

> <PUBCHEM_MOLECULAR_FORMULA>
C3Cl4O

> <PUBCHEM_MOLECULAR_WEIGHT>
193.8435

> <PUBCHEM_OPENEYE_CAN_SMILES>
C(=C(Cl)Cl)(C(=O)Cl)Cl

> <PUBCHEM_OPENEYE_ISO_SMILES>
C(=C(Cl)Cl)(C(=O)Cl)Cl

> <PUBCHEM_CACTVS_TPSA>
17.1

> <PUBCHEM_MONOISOTOPIC_WEIGHT>
191.870325

> <PUBCHEM_TOTAL_CHARGE>
0

> <PUBCHEM_HEAVY_ATOM_COUNT>
8

> <PUBCHEM_ATOM_DEF_STEREO_COUNT>
0

> <PUBCHEM_ATOM_UDEF_STEREO_COUNT>
0

> <PUBCHEM_BOND_DEF_STEREO_COUNT>
0

> <PUBCHEM_BOND_UDEF_STEREO_COUNT>
0

> <PUBCHEM_ISOTOPIC_ATOM_COUNT>
0

> <PUBCHEM_COMPONENT_COUNT>
1

> <PUBCHEM_CACTVS_TAUTO_COUNT>
1

> <PUBCHEM_COORDINATE_TYPE>
1
5
255

$$$$

