638124
  -OEChem-07051212513D

  9  8  0     0  0  0  0  0  0999 V2000
   -2.9353   -0.1712    0.0004 Cl  0  0  0  0  0  0  0  0  0  0  0  0
    2.0165   -0.9591    0.0006 O   0  0  0  0  0  0  0  0  0  0  0  0
    1.3944    1.2280    0.0001 O   0  0  0  0  0  0  0  0  0  0  0  0
   -0.2743   -0.4944   -0.0009 C   0  0  0  0  0  0  0  0  0  0  0  0
    1.1021    0.0419   -0.0003 C   0  0  0  0  0  0  0  0  0  0  0  0
   -1.3034    0.3549    0.0001 C   0  0  0  0  0  0  0  0  0  0  0  0
   -0.4115   -1.5699   -0.0017 H   0  0  0  0  0  0  0  0  0  0  0  0
   -1.2238    1.4337    0.0012 H   0  0  0  0  0  0  0  0  0  0  0  0
    2.9355   -0.6162    0.0013 H   0  0  0  0  0  0  0  0  0  0  0  0
  1  6  1  0  0  0  0
  2  5  1  0  0  0  0
  2  9  1  0  0  0  0
  3  5  2  0  0  0  0
  4  5  1  0  0  0  0
  4  6  2  0  0  0  0
  4  7  1  0  0  0  0
  6  8  1  0  0  0  0
M  END
> <PUBCHEM_COMPOUND_CID>
638124

> <PUBCHEM_CONFORMER_RMSD>
0.4

> <PUBCHEM_CONFORMER_DIVERSEORDER>
1

> <PUBCHEM_MMFF94_PARTIAL_CHARGES>
9
1 -0.14
2 -0.65
3 -0.57
4 -0.14
5 0.71
6 -0.01
7 0.15
8 0.15
9 0.5

> <PUBCHEM_EFFECTIVE_ROTOR_COUNT>
1

> <PUBCHEM_PHARMACOPHORE_FEATURES>
3
1 2 acceptor
1 3 acceptor
3 2 3 5 anion

> <PUBCHEM_HEAVY_ATOM_COUNT>
6

> <PUBCHEM_ATOM_DEF_STEREO_COUNT>
0

> <PUBCHEM_ATOM_UDEF_STEREO_COUNT>
0

> <PUBCHEM_BOND_DEF_STEREO_COUNT>
1

> <PUBCHEM_BOND_UDEF_STEREO_COUNT>
0

> <PUBCHEM_ISOTOPIC_ATOM_COUNT>
0

> <PUBCHEM_COMPONENT_COUNT>
1

> <PUBCHEM_CACTVS_TAUTO_COUNT>
1

> <PUBCHEM_CONFORMER_ID>
0009BCAC00000001

> <PUBCHEM_MMFF94_ENERGY>
7.0288

> <PUBCHEM_FEATURE_SELFOVERLAP>
15.28

> <PUBCHEM_SHAPE_FINGERPRINT>
139733 1 9222931682711660578
14390081 3 18188209788969837577
20096714 4 18337108964732716296
21040471 1 18266740177642172676
29004967 10 18410292557556699842
5460574 1 9295289443439776135

> <PUBCHEM_SHAPE_MULTIPOLES>
113.61
3.56
0.98
0.59
1.98
0.1
0
-0.31
0
-0.46
0
0.08
-0.01
0

> <PUBCHEM_SHAPE_SELFOVERLAP>
202.191

> <PUBCHEM_SHAPE_VOLUME>
74.6

> <PUBCHEM_COORDINATE_TYPE>
2
5
10

$$$$

