45480545
  -OEChem-07051212452D

 40 40  0     1  0  0  0  0  0999 V2000
    5.1350    0.3450    0.0000 P   0  0  3  0  0  0  0  0  0  0  0  0
    4.2690   -0.1550    0.0000 O   0  0  0  0  0  0  0  0  0  0  0  0
    2.5369   -1.1550    0.0000 O   0  0  0  0  0  0  0  0  0  0  0  0
    6.0010   -1.1550    0.0000 O   0  0  0  0  0  0  0  0  0  0  0  0
    2.5369   -3.1550    0.0000 O   0  0  0  0  0  0  0  0  0  0  0  0
    6.0010   -3.1550    0.0000 O   0  0  0  0  0  0  0  0  0  0  0  0
    4.2690   -4.1550    0.0000 O   0  0  0  0  0  0  0  0  0  0  0  0
    6.0010    0.8450    0.0000 O   0  0  0  0  0  0  0  0  0  0  0  0
    4.6350    1.2110    0.0000 O   0  0  0  0  0  0  0  0  0  0  0  0
    5.6350   -0.5210    0.0000 O   0  0  0  0  0  0  0  0  0  0  0  0
    7.7331    1.8450    0.0000 O   0  0  0  0  0  0  0  0  0  0  0  0
    7.7331    3.8450    0.0000 O   0  0  0  0  0  0  0  0  0  0  0  0
    4.2690   -1.1550    0.0000 C   0  0  0  0  0  0  0  0  0  0  0  0
    3.4030   -1.6550    0.0000 C   0  0  1  0  0  0  0  0  0  0  0  0
    5.1350   -1.6550    0.0000 C   0  0  1  0  0  0  0  0  0  0  0  0
    3.4030   -2.6550    0.0000 C   0  0  2  0  0  0  0  0  0  0  0  0
    5.1350   -2.6550    0.0000 C   0  0  1  0  0  0  0  0  0  0  0  0
    4.2690   -3.1550    0.0000 C   0  0  0  0  0  0  0  0  0  0  0  0
    6.0010    1.8450    0.0000 C   0  0  0  0  0  0  0  0  0  0  0  0
    6.8671    2.3450    0.0000 C   0  0  1  0  0  0  0  0  0  0  0  0
    6.8671    3.3450    0.0000 C   0  0  0  0  0  0  0  0  0  0  0  0
    4.8059   -0.8450    0.0000 H   0  0  0  0  0  0  0  0  0  0  0  0
    3.4030   -1.0350    0.0000 H   0  0  0  0  0  0  0  0  0  0  0  0
    5.1350   -1.0350    0.0000 H   0  0  0  0  0  0  0  0  0  0  0  0
    3.4030   -3.2750    0.0000 H   0  0  0  0  0  0  0  0  0  0  0  0
    5.1350   -3.2750    0.0000 H   0  0  0  0  0  0  0  0  0  0  0  0
    4.8059   -3.4650    0.0000 H   0  0  0  0  0  0  0  0  0  0  0  0
    2.0000   -1.4650    0.0000 H   0  0  0  0  0  0  0  0  0  0  0  0
    6.5380   -1.4650    0.0000 H   0  0  0  0  0  0  0  0  0  0  0  0
    2.5369   -3.7750    0.0000 H   0  0  0  0  0  0  0  0  0  0  0  0
    6.0010   -3.7750    0.0000 H   0  0  0  0  0  0  0  0  0  0  0  0
    3.7320   -4.4650    0.0000 H   0  0  0  0  0  0  0  0  0  0  0  0
    5.7890    2.4276    0.0000 H   0  0  0  0  0  0  0  0  0  0  0  0
    5.3905    1.7373    0.0000 H   0  0  0  0  0  0  0  0  0  0  0  0
    7.4040    2.6550    0.0000 H   0  0  0  0  0  0  0  0  0  0  0  0
    4.0150    1.2110    0.0000 H   0  0  0  0  0  0  0  0  0  0  0  0
    6.6550    3.9276    0.0000 H   0  0  0  0  0  0  0  0  0  0  0  0
    6.2565    3.2373    0.0000 H   0  0  0  0  0  0  0  0  0  0  0  0
    8.2700    2.1550    0.0000 H   0  0  0  0  0  0  0  0  0  0  0  0
    7.7331    4.4650    0.0000 H   0  0  0  0  0  0  0  0  0  0  0  0
  1  2  1  0  0  0  0
  1  8  1  0  0  0  0
  1  9  1  0  0  0  0
  1 10  2  0  0  0  0
  2 13  1  0  0  0  0
 14  3  1  1  0  0  0
  3 28  1  0  0  0  0
 15  4  1  6  0  0  0
  4 29  1  0  0  0  0
 16  5  1  6  0  0  0
  5 30  1  0  0  0  0
 17  6  1  6  0  0  0
  6 31  1  0  0  0  0
  7 18  1  0  0  0  0
  7 32  1  0  0  0  0
  8 19  1  0  0  0  0
  9 36  1  0  0  0  0
 20 11  1  1  0  0  0
 11 39  1  0  0  0  0
 12 21  1  0  0  0  0
 12 40  1  0  0  0  0
 13 14  1  0  0  0  0
 13 15  1  0  0  0  0
 13 22  1  0  0  0  0
 14 16  1  0  0  0  0
 14 23  1  0  0  0  0
 15 17  1  0  0  0  0
 15 24  1  0  0  0  0
 16 18  1  0  0  0  0
 16 25  1  0  0  0  0
 17 18  1  0  0  0  0
 17 26  1  0  0  0  0
 18 27  1  0  0  0  0
 19 20  1  0  0  0  0
 19 33  1  0  0  0  0
 19 34  1  0  0  0  0
 20 21  1  0  0  0  0
 20 35  1  0  0  0  0
 21 37  1  0  0  0  0
 21 38  1  0  0  0  0
M  END
> <PUBCHEM_COMPOUND_CID>
45480545

> <PUBCHEM_COMPOUND_CANONICALIZED>
1

> <PUBCHEM_CACTVS_COMPLEXITY>
363

> <PUBCHEM_CACTVS_HBOND_ACCEPTOR>
11

> <PUBCHEM_CACTVS_HBOND_DONOR>
8

> <PUBCHEM_CACTVS_ROTATABLE_BOND>
6

> <PUBCHEM_CACTVS_SUBSKEYS>
AAADceBwPAIAAAAAAAAAAAAAAAAAAAAAAAAwAAAAAAAAAAAAAAAAGgAACCAACBSggAIAAAAAAxAAQAAAAIAAAAAAAAAAAAAAAAABEAIAAAAAQAAFAAABAAHAYAQAAAAAAAAAAAACAAAQAACAAAAAAAAAAA==

> <PUBCHEM_IUPAC_OPENEYE_NAME>
[(2R)-2,3-dihydroxypropyl] [(2R,3S,5R,6R)-2,3,4,5,6-pentahydroxycyclohexyl] hydrogen phosphate

> <PUBCHEM_IUPAC_CAS_NAME>
[(2R)-2,3-dihydroxypropyl] [(2R,3S,5R,6R)-2,3,4,5,6-pentahydroxycyclohexyl] hydrogen phosphate

> <PUBCHEM_IUPAC_NAME>
[(2R)-2,3-dihydroxypropyl] [(2R,3S,5R,6R)-2,3,4,5,6-pentahydroxycyclohexyl] hydrogen phosphate

> <PUBCHEM_IUPAC_SYSTEMATIC_NAME>
[(2R)-2,3-bis(oxidanyl)propyl] [(2R,3S,5R,6R)-2,3,4,5,6-pentakis(oxidanyl)cyclohexyl] hydrogen phosphate

> <PUBCHEM_IUPAC_TRADITIONAL_NAME>
[(2R)-2,3-dihydroxypropyl] [(2R,3S,5R,6R)-2,3,4,5,6-pentahydroxycyclohexyl] hydrogen phosphate

> <PUBCHEM_IUPAC_INCHI>
InChI=1S/C9H19O11P/c10-1-3(11)2-19-21(17,18)20-9-7(15)5(13)4(12)6(14)8(9)16/h3-16H,1-2H2,(H,17,18)/t3-,4?,5-,6+,7-,8-,9?/m1/s1

> <PUBCHEM_IUPAC_INCHIKEY>
BMVUIWJCUQSHLZ-YFZGBAIXSA-N

> <PUBCHEM_XLOGP3_AA>
-5.6

> <PUBCHEM_EXACT_MASS>
334.066498

> <PUBCHEM_MOLECULAR_FORMULA>
C9H19O11P

> <PUBCHEM_MOLECULAR_WEIGHT>
334.214322

> <PUBCHEM_OPENEYE_CAN_SMILES>
C(C(COP(=O)(O)OC1C(C(C(C(C1O)O)O)O)O)O)O

> <PUBCHEM_OPENEYE_ISO_SMILES>
C([C@H](COP(=O)(O)OC1[C@@H]([C@H](C([C@H]([C@H]1O)O)O)O)O)O)O

> <PUBCHEM_CACTVS_TPSA>
197

> <PUBCHEM_MONOISOTOPIC_WEIGHT>
334.066498

> <PUBCHEM_TOTAL_CHARGE>
0

> <PUBCHEM_HEAVY_ATOM_COUNT>
21

> <PUBCHEM_ATOM_DEF_STEREO_COUNT>
5

> <PUBCHEM_ATOM_UDEF_STEREO_COUNT>
0

> <PUBCHEM_BOND_DEF_STEREO_COUNT>
0

> <PUBCHEM_BOND_UDEF_STEREO_COUNT>
0

> <PUBCHEM_ISOTOPIC_ATOM_COUNT>
0

> <PUBCHEM_COMPONENT_COUNT>
1

> <PUBCHEM_CACTVS_TAUTO_COUNT>
1

> <PUBCHEM_COORDINATE_TYPE>
1
5
255

> <PUBCHEM_BONDANNOTATIONS>
20  11  5
14  3  5
15  4  6
16  5  6
17  6  6

$$$$

