92514
  -OEChem-07051213133D

 55 55  0     1  0  0  0  0  0999 V2000
   -2.3497    0.2468   -0.0087 N   0  3  0  0  0  0  0  0  0  0  0  0
   -2.1754    1.4128   -0.9887 C   0  0  0  0  0  0  0  0  0  0  0  0
   -3.0072    0.7248    1.2909 C   0  0  0  0  0  0  0  0  0  0  0  0
   -0.9571   -0.2979    0.3350 C   0  0  0  0  0  0  0  0  0  0  0  0
   -3.4896    2.1395   -1.2454 C   0  0  0  0  0  0  0  0  0  0  0  0
   -4.3195    1.4527    1.0283 C   0  0  0  0  0  0  0  0  0  0  0  0
   -3.1404   -0.8973   -0.6427 C   0  0  0  0  0  0  0  0  0  0  0  0
   -4.1439    2.6042    0.0482 C   0  0  0  0  0  0  0  0  0  0  0  0
   -0.2454   -0.7956   -0.9195 C   0  0  0  0  0  0  0  0  0  0  0  0
    1.1953   -1.3234   -0.7265 C   0  0  1  0  0  0  0  0  0  0  0  0
    2.0770   -0.1771   -0.1806 C   0  0  0  0  0  0  0  0  0  0  0  0
   -3.2495   -2.0903    0.2488 C   0  0  0  0  0  0  0  0  0  0  0  0
    1.2284   -2.5475    0.1928 C   0  0  0  0  0  0  0  0  0  0  0  0
    3.5665   -0.5301   -0.0937 C   0  0  0  0  0  0  0  0  0  0  0  0
    4.3904    0.6719    0.3822 C   0  0  0  0  0  0  0  0  0  0  0  0
    5.9014    0.3862    0.4641 C   0  0  0  0  0  0  0  0  0  0  0  0
   -4.4091   -2.5818    0.6990 C   0  0  0  0  0  0  0  0  0  0  0  0
    6.4943   -0.0149   -0.8874 C   0  0  0  0  0  0  0  0  0  0  0  0
    6.6336    1.6173    1.0041 C   0  0  0  0  0  0  0  0  0  0  0  0
   -1.4328    2.0976   -0.5629 H   0  0  0  0  0  0  0  0  0  0  0  0
   -1.8183    1.0269   -1.9465 H   0  0  0  0  0  0  0  0  0  0  0  0
   -3.1455   -0.1293    1.9611 H   0  0  0  0  0  0  0  0  0  0  0  0
   -2.2975    1.4122    1.7684 H   0  0  0  0  0  0  0  0  0  0  0  0
   -0.4093    0.5400    0.7803 H   0  0  0  0  0  0  0  0  0  0  0  0
   -1.0486   -1.0631    1.1109 H   0  0  0  0  0  0  0  0  0  0  0  0
   -3.2993    3.0092   -1.8854 H   0  0  0  0  0  0  0  0  0  0  0  0
   -4.1825    1.4985   -1.8020 H   0  0  0  0  0  0  0  0  0  0  0  0
   -5.0806    0.7587    0.6558 H   0  0  0  0  0  0  0  0  0  0  0  0
   -4.7052    1.8454    1.9765 H   0  0  0  0  0  0  0  0  0  0  0  0
   -4.1387   -0.5120   -0.8738 H   0  0  0  0  0  0  0  0  0  0  0  0
   -2.7046   -1.1543   -1.6118 H   0  0  0  0  0  0  0  0  0  0  0  0
   -3.5254    3.3842    0.5093 H   0  0  0  0  0  0  0  0  0  0  0  0
   -5.1171    3.0582   -0.1698 H   0  0  0  0  0  0  0  0  0  0  0  0
   -0.7897   -1.6220   -1.3851 H   0  0  0  0  0  0  0  0  0  0  0  0
   -0.1657   -0.0093   -1.6748 H   0  0  0  0  0  0  0  0  0  0  0  0
    1.5766   -1.6245   -1.7109 H   0  0  0  0  0  0  0  0  0  0  0  0
    1.9602    0.7026   -0.8265 H   0  0  0  0  0  0  0  0  0  0  0  0
    1.7413    0.1154    0.8213 H   0  0  0  0  0  0  0  0  0  0  0  0
   -2.3502   -2.6530    0.4819 H   0  0  0  0  0  0  0  0  0  0  0  0
    2.2115   -3.0280    0.1720 H   0  0  0  0  0  0  0  0  0  0  0  0
    1.0060   -2.2819    1.2312 H   0  0  0  0  0  0  0  0  0  0  0  0
    0.4969   -3.2955   -0.1313 H   0  0  0  0  0  0  0  0  0  0  0  0
    3.7231   -1.3640    0.5989 H   0  0  0  0  0  0  0  0  0  0  0  0
    3.9008   -0.8555   -1.0842 H   0  0  0  0  0  0  0  0  0  0  0  0
    4.0292    0.9802    1.3717 H   0  0  0  0  0  0  0  0  0  0  0  0
    4.2166    1.5194   -0.2935 H   0  0  0  0  0  0  0  0  0  0  0  0
    6.0648   -0.4393    1.1684 H   0  0  0  0  0  0  0  0  0  0  0  0
   -4.4261   -3.4785    1.3088 H   0  0  0  0  0  0  0  0  0  0  0  0
   -5.3552   -2.1027    0.4729 H   0  0  0  0  0  0  0  0  0  0  0  0
    6.1100   -0.9827   -1.2227 H   0  0  0  0  0  0  0  0  0  0  0  0
    7.5836   -0.1106   -0.8198 H   0  0  0  0  0  0  0  0  0  0  0  0
    6.2690    0.7306   -1.6575 H   0  0  0  0  0  0  0  0  0  0  0  0
    7.7048    1.4169    1.1130 H   0  0  0  0  0  0  0  0  0  0  0  0
    6.2464    1.8992    1.9890 H   0  0  0  0  0  0  0  0  0  0  0  0
    6.5156    2.4760    0.3344 H   0  0  0  0  0  0  0  0  0  0  0  0
  1  2  1  0  0  0  0
  1  3  1  0  0  0  0
  1  4  1  0  0  0  0
  1  7  1  0  0  0  0
  2  5  1  0  0  0  0
  2 20  1  0  0  0  0
  2 21  1  0  0  0  0
  3  6  1  0  0  0  0
  3 22  1  0  0  0  0
  3 23  1  0  0  0  0
  4  9  1  0  0  0  0
  4 24  1  0  0  0  0
  4 25  1  0  0  0  0
  5  8  1  0  0  0  0
  5 26  1  0  0  0  0
  5 27  1  0  0  0  0
  6  8  1  0  0  0  0
  6 28  1  0  0  0  0
  6 29  1  0  0  0  0
  7 12  1  0  0  0  0
  7 30  1  0  0  0  0
  7 31  1  0  0  0  0
  8 32  1  0  0  0  0
  8 33  1  0  0  0  0
  9 10  1  0  0  0  0
  9 34  1  0  0  0  0
  9 35  1  0  0  0  0
 10 11  1  0  0  0  0
 10 13  1  0  0  0  0
 10 36  1  0  0  0  0
 11 14  1  0  0  0  0
 11 37  1  0  0  0  0
 11 38  1  0  0  0  0
 12 17  2  0  0  0  0
 12 39  1  0  0  0  0
 13 40  1  0  0  0  0
 13 41  1  0  0  0  0
 13 42  1  0  0  0  0
 14 15  1  0  0  0  0
 14 43  1  0  0  0  0
 14 44  1  0  0  0  0
 15 16  1  0  0  0  0
 15 45  1  0  0  0  0
 15 46  1  0  0  0  0
 16 18  1  0  0  0  0
 16 19  1  0  0  0  0
 16 47  1  0  0  0  0
 17 48  1  0  0  0  0
 17 49  1  0  0  0  0
 18 50  1  0  0  0  0
 18 51  1  0  0  0  0
 18 52  1  0  0  0  0
 19 53  1  0  0  0  0
 19 54  1  0  0  0  0
 19 55  1  0  0  0  0
M  CHG  1   1   1
M  END
> <PUBCHEM_COMPOUND_CID>
92514

> <PUBCHEM_CONFORMER_RMSD>
1

> <PUBCHEM_CONFORMER_DIVERSEORDER>
2
30
3
31
16
39
89
53
71
100
74
95
45
94
50
101
82
23
75
99
19
67
37
97
36
80
52
70
46
90
77
84
1
25
44
72
7
64
83
93
13
68
22
38
5
28
41
92
58
20
48
12
34
54
78
17
62
85
79
4
63
91
55
65
40
73
35
98
9
15
87
59
24
26
29
60
18
32
57
27
88
66
56
10
11
14
49
21
47
33
8
81
43
6
61
42
76
51
69
86
96

> <PUBCHEM_MMFF94_PARTIAL_CHARGES>
10
1 -1.01
12 -0.29
17 -0.3
2 0.5
3 0.5
39 0.15
4 0.5
48 0.15
49 0.15
7 0.64

> <PUBCHEM_EFFECTIVE_ROTOR_COUNT>
10.2

> <PUBCHEM_PHARMACOPHORE_FEATURES>
7
1 1 cation
1 13 hydrophobe
1 17 hydrophobe
3 14 15 16 hydrophobe
3 16 18 19 hydrophobe
3 9 10 11 hydrophobe
6 1 2 3 5 6 8 rings

> <PUBCHEM_HEAVY_ATOM_COUNT>
19

> <PUBCHEM_ATOM_DEF_STEREO_COUNT>
0

> <PUBCHEM_ATOM_UDEF_STEREO_COUNT>
1

> <PUBCHEM_BOND_DEF_STEREO_COUNT>
0

> <PUBCHEM_BOND_UDEF_STEREO_COUNT>
0

> <PUBCHEM_ISOTOPIC_ATOM_COUNT>
0

> <PUBCHEM_COMPONENT_COUNT>
1

> <PUBCHEM_CACTVS_TAUTO_COUNT>
1

> <PUBCHEM_CONFORMER_ID>
0001696200000002

> <PUBCHEM_MMFF94_ENERGY>
37.4618

> <PUBCHEM_FEATURE_SELFOVERLAP>
36.141

> <PUBCHEM_SHAPE_FINGERPRINT>
10912923 1 17561367262572197960
11101153 10 18126843794323919060
11315181 36 17632298934875077558
11796584 16 9367078752883870156
12390115 104 18335411379204403950
12403259 118 18273215270860193308
12403259 415 18113901525074080704
12596602 18 18343309141715797608
12633257 1 16774070774470291964
12916748 109 18337671911214168042
12930653 34 18411980277941389343
13073987 5 18412832365767975562
13631057 29 18337677404150772735
14123255 352 18335425685935704212
14178342 30 18130777975998640015
14848160 23 11600008743749745108
15183329 4 16732977653212137460
15778101 99 18336260231992649472
17780758 139 14117800249340939652
17844677 252 18337386050980759724
17980427 23 17561073696598152062
1813 80 11743550055280466562
19377110 9 17775279456783952050
19489759 90 18130793334764286674
19784866 170 18201154464044121316
20281389 69 18410857685559843024
20645477 56 18341891956646924261
21033648 29 18041574554961417672
21236236 1 18410575067509862839
21279426 13 18260260893955668630
22956985 138 17044574545023710963
23081809 10 5400803869690859204
23402539 116 17703794691060980999
23557571 272 18335975428463562551
283562 15 18411704253811070219
2838139 119 18040722519312612104
2916195 48 18187369788367411680
350125 39 18264486195985374025
3545911 37 18334852857029831964
441001 317 18335423477800151196
5104073 3 18340490053647022346
5969126 39 18262526880014872735

> <PUBCHEM_SHAPE_MULTIPOLES>
386.03
14.85
2.76
1.14
26.49
0.42
0.01
-6.12
-2.64
-4.02
-0.16
-0.36
-0.32
1.29

> <PUBCHEM_SHAPE_SELFOVERLAP>
730.269

> <PUBCHEM_SHAPE_VOLUME>
238.6

> <PUBCHEM_COORDINATE_TYPE>
2
5
10

$$$$

