53297418
  -OEChem-07051213133D

 38 40  0     0  0  0  0  0  0999 V2000
    0.1566    1.8658   -0.0668 S   0  0  0  0  0  0  0  0  0  0  0  0
    1.9134    3.4006    1.0422 F   0  0  0  0  0  0  0  0  0  0  0  0
    3.8330    3.6092    0.0257 F   0  0  0  0  0  0  0  0  0  0  0  0
    1.9875    3.4112   -1.1386 F   0  0  0  0  0  0  0  0  0  0  0  0
   -2.4444    2.5350   -0.9263 F   0  0  0  0  0  0  0  0  0  0  0  0
   -4.0951    1.8249    0.3118 F   0  0  0  0  0  0  0  0  0  0  0  0
   -2.2551    2.5596    1.2473 F   0  0  0  0  0  0  0  0  0  0  0  0
    1.3141   -0.4214   -0.0328 N   0  0  0  0  0  0  0  0  0  0  0  0
   -0.6755   -1.8401   -0.1633 N   0  0  0  0  0  0  0  0  0  0  0  0
    2.7728    1.5364   -0.0028 N   0  0  0  0  0  0  0  0  0  0  0  0
   -2.1810    0.5086    0.1467 N   0  0  0  0  0  0  0  0  0  0  0  0
   -0.0415   -0.7212   -0.0523 C   0  0  0  0  0  0  0  0  0  0  0  0
    2.3243   -1.4283    0.0187 C   0  0  0  0  0  0  0  0  0  0  0  0
    1.6428    0.9191   -0.0379 C   0  0  0  0  0  0  0  0  0  0  0  0
   -0.9032    0.5003    0.0306 C   0  0  0  0  0  0  0  0  0  0  0  0
    2.3696   -2.3166    1.0933 C   0  0  0  0  0  0  0  0  0  0  0  0
    3.2665   -1.5240   -1.0053 C   0  0  0  0  0  0  0  0  0  0  0  0
   -2.0714   -1.7570   -0.1627 C   0  0  0  0  0  0  0  0  0  0  0  0
    3.3571   -3.3006    1.1437 C   0  0  0  0  0  0  0  0  0  0  0  0
    4.2539   -2.5078   -0.9550 C   0  0  0  0  0  0  0  0  0  0  0  0
    4.2993   -3.3962    0.1195 C   0  0  0  0  0  0  0  0  0  0  0  0
   -2.7611   -1.5999   -1.3649 C   0  0  0  0  0  0  0  0  0  0  0  0
   -2.7741   -1.8317    1.0398 C   0  0  0  0  0  0  0  0  0  0  0  0
    2.6328    2.9833   -0.0272 C   0  0  0  0  0  0  0  0  0  0  0  0
   -4.1535   -1.5174   -1.3646 C   0  0  0  0  0  0  0  0  0  0  0  0
   -4.1665   -1.7492    1.0402 C   0  0  0  0  0  0  0  0  0  0  0  0
   -2.7451    1.8497    0.2031 C   0  0  0  0  0  0  0  0  0  0  0  0
   -4.8563   -1.5921   -0.1620 C   0  0  0  0  0  0  0  0  0  0  0  0
    1.6451   -2.2508    1.9009 H   0  0  0  0  0  0  0  0  0  0  0  0
    3.2400   -0.8433   -1.8524 H   0  0  0  0  0  0  0  0  0  0  0  0
    3.3931   -3.9916    1.9808 H   0  0  0  0  0  0  0  0  0  0  0  0
    4.9866   -2.5833   -1.7531 H   0  0  0  0  0  0  0  0  0  0  0  0
    5.0681   -4.1623    0.1587 H   0  0  0  0  0  0  0  0  0  0  0  0
   -2.2232   -1.5429   -2.3078 H   0  0  0  0  0  0  0  0  0  0  0  0
   -2.2466   -1.9579    1.9820 H   0  0  0  0  0  0  0  0  0  0  0  0
   -4.6904   -1.3947   -2.3006 H   0  0  0  0  0  0  0  0  0  0  0  0
   -4.7136   -1.8073    1.9765 H   0  0  0  0  0  0  0  0  0  0  0  0
   -5.9404   -1.5272   -0.1616 H   0  0  0  0  0  0  0  0  0  0  0  0
  1 14  1  0  0  0  0
  1 15  1  0  0  0  0
  2 24  1  0  0  0  0
  3 24  1  0  0  0  0
  4 24  1  0  0  0  0
  5 27  1  0  0  0  0
  6 27  1  0  0  0  0
  7 27  1  0  0  0  0
  8 12  1  0  0  0  0
  8 13  1  0  0  0  0
  8 14  1  0  0  0  0
  9 12  2  0  0  0  0
  9 18  1  0  0  0  0
 10 14  2  0  0  0  0
 10 24  1  0  0  0  0
 11 15  2  0  0  0  0
 11 27  1  0  0  0  0
 12 15  1  0  0  0  0
 13 16  2  0  0  0  0
 13 17  1  0  0  0  0
 16 19  1  0  0  0  0
 16 29  1  0  0  0  0
 17 20  2  0  0  0  0
 17 30  1  0  0  0  0
 18 22  2  0  0  0  0
 18 23  1  0  0  0  0
 19 21  2  0  0  0  0
 19 31  1  0  0  0  0
 20 21  1  0  0  0  0
 20 32  1  0  0  0  0
 21 33  1  0  0  0  0
 22 25  1  0  0  0  0
 22 34  1  0  0  0  0
 23 26  2  0  0  0  0
 23 35  1  0  0  0  0
 25 28  2  0  0  0  0
 25 36  1  0  0  0  0
 26 28  1  0  0  0  0
 26 37  1  0  0  0  0
 28 38  1  0  0  0  0
M  END
> <PUBCHEM_COMPOUND_CID>
53297418

> <PUBCHEM_CONFORMER_RMSD>
0.8

> <PUBCHEM_CONFORMER_DIVERSEORDER>
1

> <PUBCHEM_MMFF94_PARTIAL_CHARGES>
38
1 -0.28
10 -0.7
11 -0.7
12 0.5
13 0.1
14 0.64
15 0.59
16 -0.15
17 -0.15
18 0.18
19 -0.15
2 -0.34
20 -0.15
21 -0.15
22 -0.15
23 -0.15
24 1.27
25 -0.15
26 -0.15
27 1.27
28 -0.15
29 0.15
3 -0.34
30 0.15
31 0.15
32 0.15
33 0.15
34 0.15
35 0.15
36 0.15
37 0.15
38 0.15
4 -0.34
5 -0.34
6 -0.34
7 -0.34
8 -0.2
9 -0.63

> <PUBCHEM_EFFECTIVE_ROTOR_COUNT>
4.4

> <PUBCHEM_PHARMACOPHORE_FEATURES>
6
1 11 acceptor
3 8 10 14 cation
3 8 9 12 cation
5 1 8 12 14 15 rings
6 13 16 17 19 20 21 rings
6 18 22 23 25 26 28 rings

> <PUBCHEM_HEAVY_ATOM_COUNT>
28

> <PUBCHEM_ATOM_DEF_STEREO_COUNT>
0

> <PUBCHEM_ATOM_UDEF_STEREO_COUNT>
0

> <PUBCHEM_BOND_DEF_STEREO_COUNT>
2

> <PUBCHEM_BOND_UDEF_STEREO_COUNT>
0

> <PUBCHEM_ISOTOPIC_ATOM_COUNT>
0

> <PUBCHEM_COMPONENT_COUNT>
1

> <PUBCHEM_CACTVS_TAUTO_COUNT>
1

> <PUBCHEM_CONFORMER_ID>
032D410A00000001

> <PUBCHEM_MMFF94_ENERGY>
127.5645

> <PUBCHEM_FEATURE_SELFOVERLAP>
30.479

> <PUBCHEM_SHAPE_FINGERPRINT>
10006869 2 18188193361374019593
10090160 65 18052545365380867797
1100329 8 18265894851122635529
11578080 2 17604450538705426707
12553582 1 18124320668688728274
12633257 1 18190446354771667105
13140716 1 18337110193066853106
13583140 156 17986937734685758009
13757389 114 17684632613261156908
13911987 19 17622726414702861933
14022347 108 17831281063042118214
14223421 5 18341331093778531249
14955137 171 18050264153689330803
15042514 8 17978508968446757770
16752209 62 18338808938833369547
17492 89 18410013221722174463
1813 80 18188202199810592190
20028762 73 16821634255428978214
20101258 96 18269821159520851706
20600515 1 17826790632021691432
20775438 99 17765483916582614229
21421861 104 18340206297630915370
21703447 108 18339652156729348987
221490 88 18411975858303405946
23366157 5 18272931601049439308
23558518 356 18413100663325800227
23559900 14 18337964466615528955
23566358 2 18410017610819613565
23566358 27 18341321223927964917
25222932 49 17756709624878587351
283562 15 17975693883498135481
3091708 16 8997303096636689666
312423 11 18409440388937890991
3178227 256 17979341282223451161
335352 9 18266177425906139357
350125 39 18410004429628252717
4409770 3 17408251720950252308
5104073 3 18337113492098193786
5486654 36 18269545199424834059
7364860 26 18336263436491893982
7471813 234 18262257558920065711
9709674 26 18411702062865533043
9981440 41 18052545365618323064

> <PUBCHEM_SHAPE_MULTIPOLES>
516.51
8.91
4.99
1.13
1.88
3.66
0.05
-5.54
0.47
-4.69
-0.46
0.27
-0.4
-0.51

> <PUBCHEM_SHAPE_SELFOVERLAP>
1130.281

> <PUBCHEM_SHAPE_VOLUME>
282.3

> <PUBCHEM_COORDINATE_TYPE>
2
5
10

$$$$

