12677
  -OEChem-06261207142D

 33 32  0     0  0  0  0  0  0999 V2000
    2.0000   -1.0000    0.0000 F   0  0  0  0  0  0  0  0  0  0  0  0
    2.6924   -1.4848    0.0000 F   0  0  0  0  0  0  0  0  0  0  0  0
    2.3660    0.3660    0.0000 F   0  0  0  0  0  0  0  0  0  0  0  0
    2.7320    1.7320    0.0000 F   0  0  0  0  0  0  0  0  0  0  0  0
    3.7320    1.7320    0.0000 F   0  0  0  0  0  0  0  0  0  0  0  0
    2.2473    1.0397    0.0000 F   0  0  0  0  0  0  0  0  0  0  0  0
    4.2320   -0.8660    0.0000 O   0  0  0  0  0  0  0  0  0  0  0  0
    6.2320   -0.8660    0.0000 O   0  0  0  0  0  0  0  0  0  0  0  0
    6.2320    0.8660    0.0000 O   0  0  0  0  0  0  0  0  0  0  0  0
    4.7320   -1.7320    0.0000 O   0  0  0  0  0  0  0  0  0  0  0  0
    4.7320    1.7320    0.0000 O   0  0  0  0  0  0  0  0  0  0  0  0
    3.7320    0.0000    0.0000 C   0  0  0  0  0  0  0  0  0  0  0  0
    4.7320    0.0000    0.0000 C   0  0  0  0  0  0  0  0  0  0  0  0
    2.8660   -0.5000    0.0000 C   0  0  0  0  0  0  0  0  0  0  0  0
    3.2320    0.8660    0.0000 C   0  0  0  0  0  0  0  0  0  0  0  0
    5.2320   -0.8660    0.0000 C   0  0  0  0  0  0  0  0  0  0  0  0
    5.2320    0.8660    0.0000 C   0  0  0  0  0  0  0  0  0  0  0  0
    6.7320   -1.7320    0.0000 C   0  0  0  0  0  0  0  0  0  0  0  0
    6.7320    1.7320    0.0000 C   0  0  0  0  0  0  0  0  0  0  0  0
    7.7320   -1.7320    0.0000 C   0  0  0  0  0  0  0  0  0  0  0  0
    7.7320    1.7320    0.0000 C   0  0  0  0  0  0  0  0  0  0  0  0
    4.4220   -0.5369    0.0000 H   0  0  0  0  0  0  0  0  0  0  0  0
    3.9220   -1.4030    0.0000 H   0  0  0  0  0  0  0  0  0  0  0  0
    6.1494   -1.9441    0.0000 H   0  0  0  0  0  0  0  0  0  0  0  0
    6.8397   -2.3426    0.0000 H   0  0  0  0  0  0  0  0  0  0  0  0
    6.8397    2.3426    0.0000 H   0  0  0  0  0  0  0  0  0  0  0  0
    6.1494    1.9441    0.0000 H   0  0  0  0  0  0  0  0  0  0  0  0
    7.7320    1.1120    0.0000 H   0  0  0  0  0  0  0  0  0  0  0  0
    8.3520    1.7320    0.0000 H   0  0  0  0  0  0  0  0  0  0  0  0
    7.7320    2.3521    0.0000 H   0  0  0  0  0  0  0  0  0  0  0  0
    7.7320   -2.3521    0.0000 H   0  0  0  0  0  0  0  0  0  0  0  0
    8.3520   -1.7320    0.0000 H   0  0  0  0  0  0  0  0  0  0  0  0
    7.7320   -1.1120    0.0000 H   0  0  0  0  0  0  0  0  0  0  0  0
  1 14  1  0  0  0  0
  2 14  1  0  0  0  0
  3 14  1  0  0  0  0
  4 15  1  0  0  0  0
  5 15  1  0  0  0  0
  6 15  1  0  0  0  0
  7 12  1  0  0  0  0
  7 23  1  0  0  0  0
  8 16  1  0  0  0  0
  8 18  1  0  0  0  0
  9 17  1  0  0  0  0
  9 19  1  0  0  0  0
 10 16  2  0  0  0  0
 11 17  2  0  0  0  0
 12 13  1  0  0  0  0
 12 14  1  0  0  0  0
 12 15  1  0  0  0  0
 13 16  1  0  0  0  0
 13 17  1  0  0  0  0
 13 22  1  0  0  0  0
 18 20  1  0  0  0  0
 18 24  1  0  0  0  0
 18 25  1  0  0  0  0
 19 21  1  0  0  0  0
 19 26  1  0  0  0  0
 19 27  1  0  0  0  0
 20 31  1  0  0  0  0
 20 32  1  0  0  0  0
 20 33  1  0  0  0  0
 21 28  1  0  0  0  0
 21 29  1  0  0  0  0
 21 30  1  0  0  0  0
M  END
> <PUBCHEM_COMPOUND_CID>
12677

> <PUBCHEM_COMPOUND_CANONICALIZED>
1

> <PUBCHEM_CACTVS_COMPLEXITY>
356

> <PUBCHEM_CACTVS_HBOND_ACCEPTOR>
11

> <PUBCHEM_CACTVS_HBOND_DONOR>
1

> <PUBCHEM_CACTVS_ROTATABLE_BOND>
7

> <PUBCHEM_CACTVS_SUBSKEYS>
AAADccBwOcAAAAAAAAAAAAAAAAAAAAAAAAAAAAAAAAAAAAAAAAAAGwAACAAADUSggBICCAAABgAIAACQCAAAAAAAAAAAAAEAAAAAABQIAAACQAAFIAAAAAAAAAAIgAAAAAAAAAAAAAAAAAAAAAAAAAAAAA==

> <PUBCHEM_IUPAC_OPENEYE_NAME>
diethyl 2-[2,2,2-trifluoro-1-hydroxy-1-(trifluoromethyl)ethyl]propanedioate

> <PUBCHEM_IUPAC_CAS_NAME>
2-(1,1,1,3,3,3-hexafluoro-2-hydroxypropan-2-yl)propanedioic acid diethyl ester

> <PUBCHEM_IUPAC_NAME>
diethyl 2-(1,1,1,3,3,3-hexafluoro-2-hydroxypropan-2-yl)propanedioate

> <PUBCHEM_IUPAC_SYSTEMATIC_NAME>
diethyl 2-[1,1,1,3,3,3-hexakis(fluoranyl)-2-oxidanyl-propan-2-yl]propanedioate

> <PUBCHEM_IUPAC_TRADITIONAL_NAME>
2-[2,2,2-trifluoro-1-hydroxy-1-(trifluoromethyl)ethyl]malonic acid diethyl ester

> <PUBCHEM_IUPAC_INCHI>
InChI=1S/C10H12F6O5/c1-3-20-6(17)5(7(18)21-4-2)8(19,9(11,12)13)10(14,15)16/h5,19H,3-4H2,1-2H3

> <PUBCHEM_IUPAC_INCHIKEY>
HXVWSPYWLBVECZ-UHFFFAOYSA-N

> <PUBCHEM_XLOGP3_AA>
2.3

> <PUBCHEM_EXACT_MASS>
326.058893

> <PUBCHEM_MOLECULAR_FORMULA>
C10H12F6O5

> <PUBCHEM_MOLECULAR_WEIGHT>
326.189699

> <PUBCHEM_OPENEYE_CAN_SMILES>
CCOC(=O)C(C(=O)OCC)C(C(F)(F)F)(C(F)(F)F)O

> <PUBCHEM_OPENEYE_ISO_SMILES>
CCOC(=O)C(C(=O)OCC)C(C(F)(F)F)(C(F)(F)F)O

> <PUBCHEM_CACTVS_TPSA>
72.8

> <PUBCHEM_MONOISOTOPIC_WEIGHT>
326.058893

> <PUBCHEM_TOTAL_CHARGE>
0

> <PUBCHEM_HEAVY_ATOM_COUNT>
21

> <PUBCHEM_ATOM_DEF_STEREO_COUNT>
0

> <PUBCHEM_ATOM_UDEF_STEREO_COUNT>
0

> <PUBCHEM_BOND_DEF_STEREO_COUNT>
0

> <PUBCHEM_BOND_UDEF_STEREO_COUNT>
0

> <PUBCHEM_ISOTOPIC_ATOM_COUNT>
0

> <PUBCHEM_COMPONENT_COUNT>
1

> <PUBCHEM_CACTVS_TAUTO_COUNT>
1

> <PUBCHEM_COORDINATE_TYPE>
1
5
255

$$$$

