9497
  -OEChem-06261203453D

 19 19  0     0  0  0  0  0  0999 V2000
    3.8320   -0.1620    0.0496 F   0  0  0  0  0  0  0  0  0  0  0  0
   -3.8377   -0.6165    0.2377 O   0  0  0  0  0  0  0  0  0  0  0  0
   -2.4660   -0.8706    0.2940 N   0  0  0  0  0  0  0  0  0  0  0  0
   -0.2890    0.0829   -0.0320 C   0  0  0  0  0  0  0  0  0  0  0  0
   -1.7405    0.1691   -0.0608 C   0  0  0  0  0  0  0  0  0  0  0  0
    0.4723    1.2225    0.2273 C   0  0  0  0  0  0  0  0  0  0  0  0
    0.3416   -1.1395   -0.2636 C   0  0  0  0  0  0  0  0  0  0  0  0
    1.8644    1.1396    0.2549 C   0  0  0  0  0  0  0  0  0  0  0  0
    1.7338   -1.2225   -0.2359 C   0  0  0  0  0  0  0  0  0  0  0  0
    2.4953   -0.0828    0.0234 C   0  0  0  0  0  0  0  0  0  0  0  0
   -2.4062    1.4798   -0.4945 C   0  0  0  0  0  0  0  0  0  0  0  0
    0.0118    2.1840    0.4357 H   0  0  0  0  0  0  0  0  0  0  0  0
   -0.2297   -2.0396   -0.4753 H   0  0  0  0  0  0  0  0  0  0  0  0
    2.4578    2.0254    0.4620 H   0  0  0  0  0  0  0  0  0  0  0  0
    2.2255   -2.1735   -0.4178 H   0  0  0  0  0  0  0  0  0  0  0  0
   -3.2331    1.2714   -1.1803 H   0  0  0  0  0  0  0  0  0  0  0  0
   -2.7888    1.9977    0.3894 H   0  0  0  0  0  0  0  0  0  0  0  0
   -1.7116    2.1334   -1.0277 H   0  0  0  0  0  0  0  0  0  0  0  0
   -4.2062   -1.4693    0.5238 H   0  0  0  0  0  0  0  0  0  0  0  0
  1 10  1  0  0  0  0
  2  3  1  0  0  0  0
  2 19  1  0  0  0  0
  3  5  2  0  0  0  0
  4  5  1  0  0  0  0
  4  6  2  0  0  0  0
  4  7  1  0  0  0  0
  5 11  1  0  0  0  0
  6  8  1  0  0  0  0
  6 12  1  0  0  0  0
  7  9  2  0  0  0  0
  7 13  1  0  0  0  0
  8 10  2  0  0  0  0
  8 14  1  0  0  0  0
  9 10  1  0  0  0  0
  9 15  1  0  0  0  0
 11 16  1  0  0  0  0
 11 17  1  0  0  0  0
 11 18  1  0  0  0  0
M  END
> <PUBCHEM_COMPOUND_CID>
9497

> <PUBCHEM_CONFORMER_RMSD>
0.4

> <PUBCHEM_CONFORMER_DIVERSEORDER>
1

> <PUBCHEM_MMFF94_PARTIAL_CHARGES>
16
1 -0.19
10 0.19
11 0.06
12 0.15
13 0.15
14 0.15
15 0.15
19 0.4
2 -0.34
3 -0.51
4 0.09
5 0.3
6 -0.15
7 -0.15
8 -0.15
9 -0.15

> <PUBCHEM_EFFECTIVE_ROTOR_COUNT>
1

> <PUBCHEM_PHARMACOPHORE_FEATURES>
3
1 2 anion
1 3 acceptor
6 4 6 7 8 9 10 rings

> <PUBCHEM_HEAVY_ATOM_COUNT>
11

> <PUBCHEM_ATOM_DEF_STEREO_COUNT>
0

> <PUBCHEM_ATOM_UDEF_STEREO_COUNT>
0

> <PUBCHEM_BOND_DEF_STEREO_COUNT>
0

> <PUBCHEM_BOND_UDEF_STEREO_COUNT>
1

> <PUBCHEM_ISOTOPIC_ATOM_COUNT>
0

> <PUBCHEM_COMPONENT_COUNT>
1

> <PUBCHEM_CACTVS_TAUTO_COUNT>
2

> <PUBCHEM_CONFORMER_ID>
0000251900000001

> <PUBCHEM_MMFF94_ENERGY>
30.5223

> <PUBCHEM_FEATURE_SELFOVERLAP>
15.223

> <PUBCHEM_SHAPE_FINGERPRINT>
10219947 1 18259982660850902742
10608611 8 18411706499545858669
10857977 72 18411427201884925976
11062470 55 12319742453199245463
12032990 46 18334851758003689374
12897270 3 18410295834516500373
12932764 1 17531258256893642149
14325111 11 18410857663636490092
16945 1 18336273366044695798
17844478 74 18342733005722153425
19973954 147 18411699915345039741
20201158 50 18411417315097304163
21040471 1 18336270024850270268
23402539 116 18202012005888816663
23402655 69 18118702126022497093
23552423 10 18273210940941990190
2748010 2 18263644141929774726
29004967 10 18334857246670966410
5084963 1 18410009905642899041
528886 8 18336272343821445312
8809292 202 18200870678132678691

> <PUBCHEM_SHAPE_MULTIPOLES>
208.25
5.19
1.44
0.65
1.09
0.17
0.02
-0.49
-0.22
0.17
0.06
0.07
0.03
0.4

> <PUBCHEM_SHAPE_SELFOVERLAP>
431.211

> <PUBCHEM_SHAPE_VOLUME>
120.8

> <PUBCHEM_COORDINATE_TYPE>
2
5
10

$$$$

