60149
  -OEChem-07051212533D

 57 61  0     0  0  0  0  0  0999 V2000
    3.2285   -5.5689    0.1795 Cl  0  0  0  0  0  0  0  0  0  0  0  0
    6.9974    4.2057    0.1866 F   0  0  0  0  0  0  0  0  0  0  0  0
   -7.2205    2.4999   -0.7070 O   0  0  0  0  0  0  0  0  0  0  0  0
   -3.0964    0.0797   -0.4966 N   0  0  0  0  0  0  0  0  0  0  0  0
    3.1439    0.2697   -0.0067 N   0  0  0  0  0  0  0  0  0  0  0  0
   -6.6691    0.5198    0.4518 N   0  0  0  0  0  0  0  0  0  0  0  0
   -8.8323    0.9276   -0.0647 N   0  0  0  0  0  0  0  0  0  0  0  0
   -0.3400   -0.8930   -0.2470 C   0  0  0  0  0  0  0  0  0  0  0  0
   -1.1105   -0.2834    0.9355 C   0  0  0  0  0  0  0  0  0  0  0  0
   -0.9109   -0.3606   -1.5714 C   0  0  0  0  0  0  0  0  0  0  0  0
   -2.6200   -0.4807    0.7753 C   0  0  0  0  0  0  0  0  0  0  0  0
   -2.4276   -0.5554   -1.6402 C   0  0  0  0  0  0  0  0  0  0  0  0
    1.1549   -0.6954   -0.1342 C   0  0  0  0  0  0  0  0  0  0  0  0
   -4.5477   -0.0657   -0.6078 C   0  0  0  0  0  0  0  0  0  0  0  0
    2.1328   -1.7188   -0.0260 C   0  0  0  0  0  0  0  0  0  0  0  0
   -5.2394    0.6271    0.5570 C   0  0  0  0  0  0  0  0  0  0  0  0
    1.8017    0.5151   -0.1200 C   0  0  0  0  0  0  0  0  0  0  0  0
    3.3752   -1.0862    0.0531 C   0  0  0  0  0  0  0  0  0  0  0  0
   -7.3976   -0.6464    0.9203 C   0  0  0  0  0  0  0  0  0  0  0  0
    2.0849   -3.1266    0.0128 C   0  0  0  0  0  0  0  0  0  0  0  0
   -8.8604   -0.3095    0.6732 C   0  0  0  0  0  0  0  0  0  0  0  0
    4.5770   -1.7937    0.1696 C   0  0  0  0  0  0  0  0  0  0  0  0
    4.1207    1.2680    0.0422 C   0  0  0  0  0  0  0  0  0  0  0  0
   -7.5306    1.4445   -0.1704 C   0  0  0  0  0  0  0  0  0  0  0  0
    3.2790   -3.8473    0.1291 C   0  0  0  0  0  0  0  0  0  0  0  0
    4.5047   -3.1891    0.2063 C   0  0  0  0  0  0  0  0  0  0  0  0
    3.8068    2.5043    0.5880 C   0  0  0  0  0  0  0  0  0  0  0  0
    5.3890    1.0065   -0.4562 C   0  0  0  0  0  0  0  0  0  0  0  0
    4.7820    3.5005    0.6365 C   0  0  0  0  0  0  0  0  0  0  0  0
    6.3641    2.0026   -0.4076 C   0  0  0  0  0  0  0  0  0  0  0  0
    6.0606    3.2497    0.1387 C   0  0  0  0  0  0  0  0  0  0  0  0
   -0.5370   -1.9740   -0.2293 H   0  0  0  0  0  0  0  0  0  0  0  0
   -0.8923    0.7898    1.0197 H   0  0  0  0  0  0  0  0  0  0  0  0
   -0.7791   -0.7435    1.8749 H   0  0  0  0  0  0  0  0  0  0  0  0
   -0.4383   -0.8749   -2.4175 H   0  0  0  0  0  0  0  0  0  0  0  0
   -0.6786    0.7066   -1.6857 H   0  0  0  0  0  0  0  0  0  0  0  0
   -3.0515    0.0291    1.6400 H   0  0  0  0  0  0  0  0  0  0  0  0
   -2.8675   -1.5472    0.8563 H   0  0  0  0  0  0  0  0  0  0  0  0
   -2.6591   -1.6279   -1.6838 H   0  0  0  0  0  0  0  0  0  0  0  0
   -2.7854   -0.1075   -2.5752 H   0  0  0  0  0  0  0  0  0  0  0  0
   -4.8359   -1.1247   -0.6430 H   0  0  0  0  0  0  0  0  0  0  0  0
   -4.8937    0.3876   -1.5457 H   0  0  0  0  0  0  0  0  0  0  0  0
   -4.9943    0.2083    1.5353 H   0  0  0  0  0  0  0  0  0  0  0  0
   -4.9780    1.6920    0.5624 H   0  0  0  0  0  0  0  0  0  0  0  0
    1.3970    1.5154   -0.2054 H   0  0  0  0  0  0  0  0  0  0  0  0
   -7.1888   -0.8187    1.9803 H   0  0  0  0  0  0  0  0  0  0  0  0
   -7.0836   -1.5191    0.3394 H   0  0  0  0  0  0  0  0  0  0  0  0
    1.1320   -3.6455   -0.0465 H   0  0  0  0  0  0  0  0  0  0  0  0
   -9.3760   -1.0747    0.0868 H   0  0  0  0  0  0  0  0  0  0  0  0
   -9.4048   -0.1407    1.6070 H   0  0  0  0  0  0  0  0  0  0  0  0
    5.5469   -1.3427    0.3296 H   0  0  0  0  0  0  0  0  0  0  0  0
   -9.6567    1.3977   -0.4250 H   0  0  0  0  0  0  0  0  0  0  0  0
    5.4267   -3.7559    0.3179 H   0  0  0  0  0  0  0  0  0  0  0  0
    2.8310    2.7301    1.0080 H   0  0  0  0  0  0  0  0  0  0  0  0
    5.6475    0.1174   -1.0185 H   0  0  0  0  0  0  0  0  0  0  0  0
    4.5483    4.4699    1.0669 H   0  0  0  0  0  0  0  0  0  0  0  0
    7.3510    1.8190   -0.8223 H   0  0  0  0  0  0  0  0  0  0  0  0
  1 25  1  0  0  0  0
  2 31  1  0  0  0  0
  3 24  2  0  0  0  0
  4 11  1  0  0  0  0
  4 12  1  0  0  0  0
  4 14  1  0  0  0  0
  5 17  1  0  0  0  0
  5 18  1  0  0  0  0
  5 23  1  0  0  0  0
  6 16  1  0  0  0  0
  6 19  1  0  0  0  0
  6 24  1  0  0  0  0
  7 21  1  0  0  0  0
  7 24  1  0  0  0  0
  7 52  1  0  0  0  0
  8  9  1  0  0  0  0
  8 10  1  0  0  0  0
  8 13  1  0  0  0  0
  8 32  1  0  0  0  0
  9 11  1  0  0  0  0
  9 33  1  0  0  0  0
  9 34  1  0  0  0  0
 10 12  1  0  0  0  0
 10 35  1  0  0  0  0
 10 36  1  0  0  0  0
 11 37  1  0  0  0  0
 11 38  1  0  0  0  0
 12 39  1  0  0  0  0
 12 40  1  0  0  0  0
 13 15  1  0  0  0  0
 13 17  2  0  0  0  0
 14 16  1  0  0  0  0
 14 41  1  0  0  0  0
 14 42  1  0  0  0  0
 15 18  2  0  0  0  0
 15 20  1  0  0  0  0
 16 43  1  0  0  0  0
 16 44  1  0  0  0  0
 17 45  1  0  0  0  0
 18 22  1  0  0  0  0
 19 21  1  0  0  0  0
 19 46  1  0  0  0  0
 19 47  1  0  0  0  0
 20 25  2  0  0  0  0
 20 48  1  0  0  0  0
 21 49  1  0  0  0  0
 21 50  1  0  0  0  0
 22 26  2  0  0  0  0
 22 51  1  0  0  0  0
 23 27  2  0  0  0  0
 23 28  1  0  0  0  0
 25 26  1  0  0  0  0
 26 53  1  0  0  0  0
 27 29  1  0  0  0  0
 27 54  1  0  0  0  0
 28 30  2  0  0  0  0
 28 55  1  0  0  0  0
 29 31  2  0  0  0  0
 29 56  1  0  0  0  0
 30 31  1  0  0  0  0
 30 57  1  0  0  0  0
M  END
> <PUBCHEM_COMPOUND_CID>
60149

> <PUBCHEM_CONFORMER_RMSD>
1

> <PUBCHEM_CONFORMER_DIVERSEORDER>
1
44
4
70
9
21
60
56
14
23
55
11
63
8
50
15
3
72
24
58
71
12
68
42
45
51
22
29
48
26
49
62
66
35
37
52
17
13
32
2
59
20
27
7
38
34
25
39
5
67
46
28
43
53
6
41
65
57
30
10
16
31
33
61
40
69
64
36
18
54
47
19

> <PUBCHEM_MMFF94_PARTIAL_CHARGES>
37
1 -0.18
11 0.27
12 0.27
13 -0.18
14 0.27
16 0.3
17 -0.3
18 -0.15
19 0.3
2 -0.19
20 -0.15
21 0.3
22 -0.15
23 -0.02
24 0.69
25 0.18
26 -0.15
27 -0.15
28 -0.15
29 -0.15
3 -0.57
30 -0.15
31 0.19
4 -0.81
45 0.15
48 0.15
5 0.33
51 0.15
52 0.37
53 0.15
54 0.15
55 0.15
56 0.15
57 0.15
6 -0.66
7 -0.73
8 0.18

> <PUBCHEM_EFFECTIVE_ROTOR_COUNT>
7

> <PUBCHEM_PHARMACOPHORE_FEATURES>
9
1 3 acceptor
1 4 cation
1 5 cation
1 7 donor
5 5 13 15 17 18 rings
5 6 7 19 21 24 rings
6 15 18 20 22 25 26 rings
6 23 27 28 29 30 31 rings
6 4 8 9 10 11 12 rings

> <PUBCHEM_HEAVY_ATOM_COUNT>
31

> <PUBCHEM_ATOM_DEF_STEREO_COUNT>
0

> <PUBCHEM_ATOM_UDEF_STEREO_COUNT>
0

> <PUBCHEM_BOND_DEF_STEREO_COUNT>
0

> <PUBCHEM_BOND_UDEF_STEREO_COUNT>
0

> <PUBCHEM_ISOTOPIC_ATOM_COUNT>
0

> <PUBCHEM_COMPONENT_COUNT>
1

> <PUBCHEM_CACTVS_TAUTO_COUNT>
2

> <PUBCHEM_CONFORMER_ID>
0000EAF500000001

> <PUBCHEM_MMFF94_ENERGY>
75.595

> <PUBCHEM_FEATURE_SELFOVERLAP>
45.761

> <PUBCHEM_SHAPE_FINGERPRINT>
10 15 18202284672035471649
10165383 225 18272082765836793388
10411042 1 17906171003982986898
10554248 39 17895485837950068397
10595046 47 18334577945575545883
10835480 77 18413107252085207265
11181472 205 17970054742653613697
11297750 10 17772198763216955326
12730499 353 18413668007078445798
13248334 5 18338516447935405698
13533116 47 18339921618840937427
13540713 4 17701835477293664181
13878862 14 18266197152042531709
13955234 65 18340492257076202938
14347424 109 18341897445573021339
14400156 413 18339653320930022805
14461889 52 18059568041159162451
14565420 104 18412829053894373234
15131766 46 18261966128357050725
15152005 77 12318644028494648136
15183329 4 17313103051816875465
15276724 80 18337389452648372201
15419008 91 17774734138520665957
15439362 3 18336263437203894724
15475509 35 16629696174902447106
1577012 14 18040722446440067253
15890870 6 18337950074782416192
16120349 18 18410578396467953629
19315958 150 18341325640009173467
19427546 62 18411980235302907250
1979834 28 18059855043700708836
20157964 124 18409727374083050186
20505436 4 18041563537990729398
20691028 202 17978230461810030420
21049683 271 18128528448892678502
21130935 74 18341888637354967131
21344244 78 18116445923819588218
21814621 53 18059284483555706481
23522609 53 17677033734141536161
23523787 8 15358249382780037092
23845131 108 18341046299330853578
24771293 8 18060138692105074317
249057 25 17823133596355089721
255183 451 17826505858716599510
3178227 256 18341620343590767770
397830 11 18272644620315149651
4073 2 18342736274477719779
4093350 32 18342177777819328234
4144715 1 18272923952182235721
44555599 121 18115582798702413841
4516262 110 18337399252961655100
5080951 261 16557914391111857395
5385378 56 18412267216622279008
5912855 24 18261402087935773199
6697151 62 17694531494475848455
9962374 69 18338807821878251859

> <PUBCHEM_SHAPE_MULTIPOLES>
606.77
23.59
5.13
0.96
56.15
3.59
-0.21
-17.43
2.74
-15.04
0.71
0.77
0
0.66

> <PUBCHEM_SHAPE_SELFOVERLAP>
1315.523

> <PUBCHEM_SHAPE_VOLUME>
335.8

> <PUBCHEM_COORDINATE_TYPE>
2
5
10

$$$$

