440282
  -OEChem-07051212492D

 16 16  0     1  0  0  0  0  0999 V2000
    5.6454   -1.6194    0.0000 O   0  0  0  0  0  0  0  0  0  0  0  0
    2.5896    1.4278    0.0000 O   0  0  0  0  0  0  0  0  0  0  0  0
    2.0544   -0.2195    0.0000 O   0  0  0  0  0  0  0  0  0  0  0  0
    4.5576    0.7284    0.0000 N   0  0  0  0  0  0  0  0  0  0  0  0
    5.0576   -0.8104    0.0000 C   0  0  3  0  0  0  0  0  0  0  0  0
    4.0576   -0.8104    0.0000 C   0  0  0  0  0  0  0  0  0  0  0  0
    5.3667    0.1407    0.0000 C   0  0  0  0  0  0  0  0  0  0  0  0
    3.7486    0.1407    0.0000 C   0  0  0  0  0  0  0  0  0  0  0  0
    2.7976    0.4497    0.0000 C   0  0  0  0  0  0  0  0  0  0  0  0
    4.7762   -1.3628    0.0000 H   0  0  0  0  0  0  0  0  0  0  0  0
    3.4512   -0.9393    0.0000 H   0  0  0  0  0  0  0  0  0  0  0  0
    4.1224   -1.4270    0.0000 H   0  0  0  0  0  0  0  0  0  0  0  0
    5.9331   -0.1115    0.0000 H   0  0  0  0  0  0  0  0  0  0  0  0
    5.6767    0.6776    0.0000 H   0  0  0  0  0  0  0  0  0  0  0  0
    6.2620   -1.5546    0.0000 H   0  0  0  0  0  0  0  0  0  0  0  0
    2.0000    1.6194    0.0000 H   0  0  0  0  0  0  0  0  0  0  0  0
  1  5  1  0  0  0  0
  1 15  1  0  0  0  0
  2  9  1  0  0  0  0
  2 16  1  0  0  0  0
  3  9  2  0  0  0  0
  4  7  1  0  0  0  0
  4  8  2  0  0  0  0
  5  6  1  0  0  0  0
  5  7  1  0  0  0  0
  5 10  1  0  0  0  0
  6  8  1  0  0  0  0
  6 11  1  0  0  0  0
  6 12  1  0  0  0  0
  7 13  1  0  0  0  0
  7 14  1  0  0  0  0
  8  9  1  0  0  0  0
M  END
> <PUBCHEM_COMPOUND_CID>
440282

> <PUBCHEM_COMPOUND_CANONICALIZED>
1

> <PUBCHEM_CACTVS_COMPLEXITY>
164

> <PUBCHEM_CACTVS_HBOND_ACCEPTOR>
4

> <PUBCHEM_CACTVS_HBOND_DONOR>
2

> <PUBCHEM_CACTVS_ROTATABLE_BOND>
1

> <PUBCHEM_CACTVS_SUBSKEYS>
AAADcYBiMAAAAAAAAAAAAAAAAAAAAQAAAAAAAAAAAAAAAAAAAAAAHgAACAAACBzhgAYACAIAAgAoAQCwDAQAAAAAAAAAAAEwAAACEBIAgAAAQAAEAAAAAADaEQAAAAAAAAAAAAAAAAAAAAAAAAAAAAAAAA==

> <PUBCHEM_IUPAC_OPENEYE_NAME>
3-hydroxy-3,4-dihydro-2H-pyrrole-5-carboxylic acid

> <PUBCHEM_IUPAC_CAS_NAME>
3-hydroxy-3,4-dihydro-2H-pyrrole-5-carboxylic acid

> <PUBCHEM_IUPAC_NAME>
3-hydroxy-3,4-dihydro-2H-pyrrole-5-carboxylic acid

> <PUBCHEM_IUPAC_SYSTEMATIC_NAME>
3-oxidanyl-3,4-dihydro-2H-pyrrole-5-carboxylic acid

> <PUBCHEM_IUPAC_TRADITIONAL_NAME>
4-hydroxy-1-pyrroline-2-carboxylic acid

> <PUBCHEM_IUPAC_INCHI>
InChI=1S/C5H7NO3/c7-3-1-4(5(8)9)6-2-3/h3,7H,1-2H2,(H,8,9)

> <PUBCHEM_IUPAC_INCHIKEY>
AOMLMYXPXUTBQH-UHFFFAOYSA-N

> <PUBCHEM_XLOGP3_AA>
-1.3

> <PUBCHEM_EXACT_MASS>
129.042593

> <PUBCHEM_MOLECULAR_FORMULA>
C5H7NO3

> <PUBCHEM_MOLECULAR_WEIGHT>
129.11398

> <PUBCHEM_OPENEYE_CAN_SMILES>
C1C(CN=C1C(=O)O)O

> <PUBCHEM_OPENEYE_ISO_SMILES>
C1C(CN=C1C(=O)O)O

> <PUBCHEM_CACTVS_TPSA>
69.9

> <PUBCHEM_MONOISOTOPIC_WEIGHT>
129.042593

> <PUBCHEM_TOTAL_CHARGE>
0

> <PUBCHEM_HEAVY_ATOM_COUNT>
9

> <PUBCHEM_ATOM_DEF_STEREO_COUNT>
0

> <PUBCHEM_ATOM_UDEF_STEREO_COUNT>
1

> <PUBCHEM_BOND_DEF_STEREO_COUNT>
0

> <PUBCHEM_BOND_UDEF_STEREO_COUNT>
0

> <PUBCHEM_ISOTOPIC_ATOM_COUNT>
0

> <PUBCHEM_COMPONENT_COUNT>
1

> <PUBCHEM_CACTVS_TAUTO_COUNT>
1

> <PUBCHEM_COORDINATE_TYPE>
1
5
255

> <PUBCHEM_BONDANNOTATIONS>
5  1  3

$$$$

