103008
  -OEChem-07051213033D

 30 31  0     1  0  0  0  0  0999 V2000
    1.9369   -0.8005    0.0338 O   0  0  0  0  0  0  0  0  0  0  0  0
    2.8066    1.3161   -0.2839 O   0  0  0  0  0  0  0  0  0  0  0  0
   -1.9731   -0.2241    0.8840 N   0  0  0  0  0  0  0  0  0  0  0  0
   -1.3290    1.0447    0.4945 C   0  0  2  0  0  0  0  0  0  0  0  0
   -1.8083   -1.0559   -0.3231 C   0  0  1  0  0  0  0  0  0  0  0  0
   -1.7992    1.2875   -0.9438 C   0  0  0  0  0  0  0  0  0  0  0  0
   -2.1177   -0.1077   -1.4870 C   0  0  0  0  0  0  0  0  0  0  0  0
    0.1909    0.7991    0.5687 C   0  0  0  0  0  0  0  0  0  0  0  0
   -0.3376   -1.5177   -0.3332 C   0  0  0  0  0  0  0  0  0  0  0  0
    0.6479   -0.3407   -0.3540 C   0  0  0  0  0  0  0  0  0  0  0  0
   -3.3724   -0.0540    1.2672 C   0  0  0  0  0  0  0  0  0  0  0  0
    2.9307    0.1384    0.0241 C   0  0  0  0  0  0  0  0  0  0  0  0
    4.2244   -0.4851    0.4527 C   0  0  0  0  0  0  0  0  0  0  0  0
   -1.5899    1.8755    1.1599 H   0  0  0  0  0  0  0  0  0  0  0  0
   -2.4588   -1.9376   -0.3249 H   0  0  0  0  0  0  0  0  0  0  0  0
   -1.0495    1.8015   -1.5541 H   0  0  0  0  0  0  0  0  0  0  0  0
   -2.7088    1.8998   -0.9552 H   0  0  0  0  0  0  0  0  0  0  0  0
   -3.1791   -0.1605   -1.7569 H   0  0  0  0  0  0  0  0  0  0  0  0
   -1.5379   -0.3376   -2.3869 H   0  0  0  0  0  0  0  0  0  0  0  0
    0.6790    1.7441    0.3123 H   0  0  0  0  0  0  0  0  0  0  0  0
    0.4794    0.5797    1.6058 H   0  0  0  0  0  0  0  0  0  0  0  0
   -0.1424   -2.1470    0.5461 H   0  0  0  0  0  0  0  0  0  0  0  0
   -0.1483   -2.1608   -1.2018 H   0  0  0  0  0  0  0  0  0  0  0  0
    0.7176    0.0276   -1.3861 H   0  0  0  0  0  0  0  0  0  0  0  0
   -3.4426    0.5788    2.1588 H   0  0  0  0  0  0  0  0  0  0  0  0
   -3.8079   -1.0228    1.5352 H   0  0  0  0  0  0  0  0  0  0  0  0
   -3.9961    0.3925    0.4860 H   0  0  0  0  0  0  0  0  0  0  0  0
    4.4981   -1.2841   -0.2409 H   0  0  0  0  0  0  0  0  0  0  0  0
    4.1291   -0.8733    1.4698 H   0  0  0  0  0  0  0  0  0  0  0  0
    5.0135    0.2721    0.4410 H   0  0  0  0  0  0  0  0  0  0  0  0
  1 10  1  0  0  0  0
  1 12  1  0  0  0  0
  2 12  2  0  0  0  0
  3  4  1  0  0  0  0
  3  5  1  0  0  0  0
  3 11  1  0  0  0  0
  4  6  1  0  0  0  0
  4  8  1  0  0  0  0
  4 14  1  0  0  0  0
  5  7  1  0  0  0  0
  5  9  1  0  0  0  0
  5 15  1  0  0  0  0
  6  7  1  0  0  0  0
  6 16  1  0  0  0  0
  6 17  1  0  0  0  0
  7 18  1  0  0  0  0
  7 19  1  0  0  0  0
  8 10  1  0  0  0  0
  8 20  1  0  0  0  0
  8 21  1  0  0  0  0
  9 10  1  0  0  0  0
  9 22  1  0  0  0  0
  9 23  1  0  0  0  0
 10 24  1  0  0  0  0
 11 25  1  0  0  0  0
 11 26  1  0  0  0  0
 11 27  1  0  0  0  0
 12 13  1  0  0  0  0
 13 28  1  0  0  0  0
 13 29  1  0  0  0  0
 13 30  1  0  0  0  0
M  END
> <PUBCHEM_COMPOUND_CID>
103008

> <PUBCHEM_CONFORMER_RMSD>
0.6

> <PUBCHEM_CONFORMER_DIVERSEORDER>
1
9
5
8
2
3
7
6
4

> <PUBCHEM_MMFF94_PARTIAL_CHARGES>
9
1 -0.43
10 0.28
11 0.27
12 0.66
13 0.06
2 -0.57
3 -0.81
4 0.27
5 0.27

> <PUBCHEM_EFFECTIVE_ROTOR_COUNT>
3.2

> <PUBCHEM_PHARMACOPHORE_FEATURES>
3
1 2 acceptor
1 3 cation
8 3 4 5 6 7 8 9 10 rings

> <PUBCHEM_HEAVY_ATOM_COUNT>
13

> <PUBCHEM_ATOM_DEF_STEREO_COUNT>
0

> <PUBCHEM_ATOM_UDEF_STEREO_COUNT>
2

> <PUBCHEM_BOND_DEF_STEREO_COUNT>
0

> <PUBCHEM_BOND_UDEF_STEREO_COUNT>
0

> <PUBCHEM_ISOTOPIC_ATOM_COUNT>
0

> <PUBCHEM_COMPONENT_COUNT>
1

> <PUBCHEM_CACTVS_TAUTO_COUNT>
1

> <PUBCHEM_CONFORMER_ID>
0001926000000001

> <PUBCHEM_MMFF94_ENERGY>
26.7951

> <PUBCHEM_FEATURE_SELFOVERLAP>
15.223

> <PUBCHEM_SHAPE_FINGERPRINT>
11132069 177 17967812747337356050
12423570 1 5008637058423069847
124424 183 17774737462350260726
12932764 1 18273497858101226730
13024252 1 16056882442248234287
13296908 3 17632861923499048068
14144814 61 18411423929768816234
14943859 89 15936404567830878683
15309172 13 18334290972291863435
15775835 57 17313103081227258818
16945 1 18408323284870544758
17844478 74 18131061628301730041
18186145 218 18334013874535362036
200 152 18260844682335951807
20645464 45 17822005428083184350
2306618 200 18337963375488380200
23402539 116 18041010552139504917
2748010 2 17974842075481661860
3248919 1 17821449045509181670
369184 2 17704355471976510617
5084963 1 18188785967100439310

> <PUBCHEM_SHAPE_MULTIPOLES>
250.81
5.71
1.33
1.12
5.51
0.01
0.08
-0.04
-1.11
-0.13
0.15
-1.01
-0.08
-0.09

> <PUBCHEM_SHAPE_SELFOVERLAP>
516.597

> <PUBCHEM_SHAPE_VOLUME>
145.7

> <PUBCHEM_COORDINATE_TYPE>
2
5
10

$$$$

