23422948
  -OEChem-07051213113D

 33 32  0     1  0  0  0  0  0999 V2000
   -1.7576    1.7723    0.7303 O   0  0  0  0  0  0  0  0  0  0  0  0
    4.5756    0.8348    0.4189 O   0  0  0  0  0  0  0  0  0  0  0  0
    2.8121    1.3310   -0.9266 O   0  0  0  0  0  0  0  0  0  0  0  0
   -1.0898   -0.3957   -0.0610 C   0  0  0  0  0  0  0  0  0  0  0  0
    0.3226   -0.2315    0.5080 C   0  0  0  0  0  0  0  0  0  0  0  0
   -2.1589    0.4001    0.7056 C   0  0  2  0  0  0  0  0  0  0  0  0
    1.3969   -1.0146   -0.2786 C   0  0  1  0  0  0  0  0  0  0  0  0
   -3.5920    0.3083    0.1335 C   0  0  0  0  0  0  0  0  0  0  0  0
    2.7959   -0.7500    0.3025 C   0  0  0  0  0  0  0  0  0  0  0  0
    1.1244   -2.5219   -0.2676 C   0  0  0  0  0  0  0  0  0  0  0  0
   -4.0997   -1.1383    0.1805 C   0  0  0  0  0  0  0  0  0  0  0  0
   -3.6994    0.8326   -1.3015 C   0  0  0  0  0  0  0  0  0  0  0  0
    3.3697    0.5729   -0.1439 C   0  0  0  0  0  0  0  0  0  0  0  0
   -1.3687   -1.4527   -0.0545 H   0  0  0  0  0  0  0  0  0  0  0  0
   -1.0622   -0.0657   -1.1058 H   0  0  0  0  0  0  0  0  0  0  0  0
    0.5884    0.8318    0.5132 H   0  0  0  0  0  0  0  0  0  0  0  0
    0.3244   -0.5589    1.5557 H   0  0  0  0  0  0  0  0  0  0  0  0
   -2.1682    0.0551    1.7471 H   0  0  0  0  0  0  0  0  0  0  0  0
    1.3693   -0.6888   -1.3265 H   0  0  0  0  0  0  0  0  0  0  0  0
   -4.2476    0.9290    0.7582 H   0  0  0  0  0  0  0  0  0  0  0  0
    3.4976   -1.5189   -0.0426 H   0  0  0  0  0  0  0  0  0  0  0  0
    2.7690   -0.7721    1.3978 H   0  0  0  0  0  0  0  0  0  0  0  0
    0.2034   -2.7691   -0.8035 H   0  0  0  0  0  0  0  0  0  0  0  0
    1.9329   -3.0685   -0.7656 H   0  0  0  0  0  0  0  0  0  0  0  0
    1.0402   -2.9022    0.7559 H   0  0  0  0  0  0  0  0  0  0  0  0
   -3.5628   -1.7874   -0.5184 H   0  0  0  0  0  0  0  0  0  0  0  0
   -3.9976   -1.5555    1.1878 H   0  0  0  0  0  0  0  0  0  0  0  0
   -5.1614   -1.1764   -0.0874 H   0  0  0  0  0  0  0  0  0  0  0  0
   -3.1382    0.2132   -2.0082 H   0  0  0  0  0  0  0  0  0  0  0  0
   -4.7454    0.8354   -1.6277 H   0  0  0  0  0  0  0  0  0  0  0  0
   -3.3293    1.8600   -1.3771 H   0  0  0  0  0  0  0  0  0  0  0  0
   -2.4077    2.2583    1.2656 H   0  0  0  0  0  0  0  0  0  0  0  0
    4.9385    1.6967    0.1226 H   0  0  0  0  0  0  0  0  0  0  0  0
  1  6  1  0  0  0  0
  1 32  1  0  0  0  0
  2 13  1  0  0  0  0
  2 33  1  0  0  0  0
  3 13  2  0  0  0  0
  4  5  1  0  0  0  0
  4  6  1  0  0  0  0
  4 14  1  0  0  0  0
  4 15  1  0  0  0  0
  5  7  1  0  0  0  0
  5 16  1  0  0  0  0
  5 17  1  0  0  0  0
  6  8  1  0  0  0  0
  6 18  1  0  0  0  0
  7  9  1  0  0  0  0
  7 10  1  0  0  0  0
  7 19  1  0  0  0  0
  8 11  1  0  0  0  0
  8 12  1  0  0  0  0
  8 20  1  0  0  0  0
  9 13  1  0  0  0  0
  9 21  1  0  0  0  0
  9 22  1  0  0  0  0
 10 23  1  0  0  0  0
 10 24  1  0  0  0  0
 10 25  1  0  0  0  0
 11 26  1  0  0  0  0
 11 27  1  0  0  0  0
 11 28  1  0  0  0  0
 12 29  1  0  0  0  0
 12 30  1  0  0  0  0
 12 31  1  0  0  0  0
M  END
> <PUBCHEM_COMPOUND_CID>
23422948

> <PUBCHEM_CONFORMER_RMSD>
0.8

> <PUBCHEM_CONFORMER_DIVERSEORDER>
2
200
33
169
81
144
155
47
112
26
67
109
197
69
72
74
165
131
143
209
233
45
153
53
184
43
171
127
110
147
188
208
150
226
35
13
93
135
51
236
10
215
203
90
105
92
1
88
190
58
207
225
185
218
176
22
116
25
180
89
102
235
223
146
149
202
120
100
175
18
213
221
137
179
118
167
82
65
206
164
125
24
238
37
158
191
107
96
231
76
228
84
178
111
123
79
32
181
6
104
148
232
71
60
21
87
106
237
94
210
160
166
55
174
136
97
138
205
57
217
38
140
198
201
29
117
34
216
156
80
41
204
66
139
73
12
49
115
189
108
59
9
173
4
86
220
121
124
31
187
70
193
114
48
99
194
68
101
196
151
152
128
27
192
15
46
214
227
103
63
195
5
119
159
211
142
157
132
154
212
91
168
61
129
145
50
182
20
64
199
75
130
126
134
183
85
8
77
98
239
170
7
36
234
161
17
3
30
222
113
229
219
62
83
16
186
78
224
56
163
141
11
44
28
177
14
54
230
95
133
23
172
52
19
39
40
162
42
122

> <PUBCHEM_MMFF94_PARTIAL_CHARGES>
8
1 -0.68
13 0.66
2 -0.65
3 -0.57
32 0.4
33 0.5
6 0.28
9 0.06

> <PUBCHEM_EFFECTIVE_ROTOR_COUNT>
6

> <PUBCHEM_PHARMACOPHORE_FEATURES>
8
1 1 acceptor
1 1 donor
1 10 hydrophobe
1 2 acceptor
1 3 acceptor
3 2 3 13 anion
3 8 11 12 hydrophobe
4 4 5 7 9 hydrophobe

> <PUBCHEM_HEAVY_ATOM_COUNT>
13

> <PUBCHEM_ATOM_DEF_STEREO_COUNT>
0

> <PUBCHEM_ATOM_UDEF_STEREO_COUNT>
2

> <PUBCHEM_BOND_DEF_STEREO_COUNT>
0

> <PUBCHEM_BOND_UDEF_STEREO_COUNT>
0

> <PUBCHEM_ISOTOPIC_ATOM_COUNT>
0

> <PUBCHEM_COMPONENT_COUNT>
1

> <PUBCHEM_CACTVS_TAUTO_COUNT>
1

> <PUBCHEM_CONFORMER_ID>
016567E400000002

> <PUBCHEM_MMFF94_ENERGY>
17.8255

> <PUBCHEM_FEATURE_SELFOVERLAP>
40.853

> <PUBCHEM_SHAPE_FINGERPRINT>
10130415 120 12103839068598415847
10751810 167 7493010682035826811
10799339 124 9151174242558276263
12119455 92 18201447973487514134
12162725 195 18339920519154827208
12346177 29 13254508722173671897
124424 183 9439409016888491307
12932764 1 17559665334167525563
13380535 76 18412822469472443370
13675066 3 9799687095341005031
14251717 144 18411418405860507996
14415576 193 18341048605205317742
14897335 6 18409450276052813646
15775835 57 18113337501046473744
170605 34 18341893013056106090
18186145 218 18270109240157334891
18511873 20 10735875067093741359
19050596 39 18261108633856611771
20606313 2 18342738524728891500
20645477 70 18262521532274316751
21499 59 18408888421189329062
21524375 3 18411417285338475162
22959321 105 18342460331296988607
23402539 116 18059584571918376998
23402655 69 18261677064167300965
23557571 272 17846493764400713085
23559900 14 18266465488751330362
25610 137 18335134302448128435
265663 24 17846786182616665690
3248919 1 18263648531597464683
351380 180 17418382380259227148
42 15 8214141871935121373
53428517 58 18410011026666150123
548570 60 17704078403768400701
603831 33 17895486915707309975
6333272 397 18411415081782830042
7364860 26 18189330350374950886
81539 233 18343020012643465886

> <PUBCHEM_SHAPE_MULTIPOLES>
249.93
8.37
1.8
0.91
0.16
0.72
0.15
-2.05
0.54
0.54
0.15
-0.43
-0.22
0.1

> <PUBCHEM_SHAPE_SELFOVERLAP>
464.952

> <PUBCHEM_SHAPE_VOLUME>
157.3

> <PUBCHEM_COORDINATE_TYPE>
2
5
10

$$$$

