93542
  -OEChem-07051213003D

 40 42  0     0  0  0  0  0  0999 V2000
    4.8297   -1.5981    0.8555 Cl  0  0  0  0  0  0  0  0  0  0  0  0
   -0.8280    0.5399    0.8305 S   0  0  0  0  0  0  0  0  0  0  0  0
    3.8054   -0.0817   -1.8890 S   0  0  0  0  0  0  0  0  0  0  0  0
    0.0440   -2.9222    1.6939 F   0  0  0  0  0  0  0  0  0  0  0  0
   -2.4427    2.4425    1.6429 O   0  0  0  0  0  0  0  0  0  0  0  0
    2.0972    3.0229   -0.2962 O   0  0  0  0  0  0  0  0  0  0  0  0
    3.9663    1.8898    0.4330 O   0  0  0  0  0  0  0  0  0  0  0  0
   -2.9612   -0.4608   -0.2727 N   0  0  0  0  0  0  0  0  0  0  0  0
   -3.3462    0.7547    0.3013 N   0  0  0  0  0  0  0  0  0  0  0  0
   -0.9067   -1.6745   -0.5947 N   0  0  0  0  0  0  0  0  0  0  0  0
   -5.2635   -0.8877   -1.0352 C   0  0  0  0  0  0  0  0  0  0  0  0
   -5.5914    0.5665   -0.7292 C   0  0  0  0  0  0  0  0  0  0  0  0
   -3.7766   -1.0336   -1.3314 C   0  0  0  0  0  0  0  0  0  0  0  0
   -4.7604    1.0412    0.4515 C   0  0  0  0  0  0  0  0  0  0  0  0
   -1.6173   -0.7055   -0.1234 C   0  0  0  0  0  0  0  0  0  0  0  0
   -2.3460    1.4160    0.9853 C   0  0  0  0  0  0  0  0  0  0  0  0
    0.4591   -1.6464   -0.2645 C   0  0  0  0  0  0  0  0  0  0  0  0
    1.3558   -0.9829   -1.0962 C   0  0  0  0  0  0  0  0  0  0  0  0
    0.9049   -2.2821    0.8903 C   0  0  0  0  0  0  0  0  0  0  0  0
    2.7118   -0.9549   -0.7700 C   0  0  0  0  0  0  0  0  0  0  0  0
    2.2608   -2.2539    1.2165 C   0  0  0  0  0  0  0  0  0  0  0  0
    3.1642   -1.5904    0.3864 C   0  0  0  0  0  0  0  0  0  0  0  0
    3.1133    1.5933   -1.8338 C   0  0  0  0  0  0  0  0  0  0  0  0
    3.1465    2.1554   -0.4350 C   0  0  0  0  0  0  0  0  0  0  0  0
    1.9812    3.6527    0.9841 C   0  0  0  0  0  0  0  0  0  0  0  0
   -5.5364   -1.5157   -0.1781 H   0  0  0  0  0  0  0  0  0  0  0  0
   -5.8504   -1.2339   -1.8929 H   0  0  0  0  0  0  0  0  0  0  0  0
   -5.3737    1.1846   -1.6089 H   0  0  0  0  0  0  0  0  0  0  0  0
   -6.6581    0.6780   -0.5071 H   0  0  0  0  0  0  0  0  0  0  0  0
   -3.5420   -2.0974   -1.4531 H   0  0  0  0  0  0  0  0  0  0  0  0
   -3.5344   -0.5378   -2.2794 H   0  0  0  0  0  0  0  0  0  0  0  0
   -4.8895    2.1186    0.6031 H   0  0  0  0  0  0  0  0  0  0  0  0
   -5.0898    0.5498    1.3752 H   0  0  0  0  0  0  0  0  0  0  0  0
    0.9848   -0.5077   -2.0017 H   0  0  0  0  0  0  0  0  0  0  0  0
    2.5948   -2.7544    2.1217 H   0  0  0  0  0  0  0  0  0  0  0  0
    3.7082    2.2470   -2.4783 H   0  0  0  0  0  0  0  0  0  0  0  0
    2.0884    1.5757   -2.2157 H   0  0  0  0  0  0  0  0  0  0  0  0
    2.8566    4.2803    1.1757 H   0  0  0  0  0  0  0  0  0  0  0  0
    1.8654    2.8995    1.7693 H   0  0  0  0  0  0  0  0  0  0  0  0
    1.0899    4.2856    0.9718 H   0  0  0  0  0  0  0  0  0  0  0  0
  1 22  1  0  0  0  0
  2 15  1  0  0  0  0
  2 16  1  0  0  0  0
  3 20  1  0  0  0  0
  3 23  1  0  0  0  0
  4 19  1  0  0  0  0
  5 16  2  0  0  0  0
  6 24  1  0  0  0  0
  6 25  1  0  0  0  0
  7 24  2  0  0  0  0
  8  9  1  0  0  0  0
  8 13  1  0  0  0  0
  8 15  1  0  0  0  0
  9 14  1  0  0  0  0
  9 16  1  0  0  0  0
 10 15  2  0  0  0  0
 10 17  1  0  0  0  0
 11 12  1  0  0  0  0
 11 13  1  0  0  0  0
 11 26  1  0  0  0  0
 11 27  1  0  0  0  0
 12 14  1  0  0  0  0
 12 28  1  0  0  0  0
 12 29  1  0  0  0  0
 13 30  1  0  0  0  0
 13 31  1  0  0  0  0
 14 32  1  0  0  0  0
 14 33  1  0  0  0  0
 17 18  2  0  0  0  0
 17 19  1  0  0  0  0
 18 20  1  0  0  0  0
 18 34  1  0  0  0  0
 19 21  2  0  0  0  0
 20 22  2  0  0  0  0
 21 22  1  0  0  0  0
 21 35  1  0  0  0  0
 23 24  1  0  0  0  0
 23 36  1  0  0  0  0
 23 37  1  0  0  0  0
 25 38  1  0  0  0  0
 25 39  1  0  0  0  0
 25 40  1  0  0  0  0
M  END
> <PUBCHEM_COMPOUND_CID>
93542

> <PUBCHEM_CONFORMER_RMSD>
0.8

> <PUBCHEM_CONFORMER_DIVERSEORDER>
1
17
8
6
34
40
35
37
7
38
22
21
20
19
18
24
39
16
27
36
26
33
41
28
29
44
25
31
15
10
30
3
23
13
42
12
2
32
14
43
4
5
11
9

> <PUBCHEM_MMFF94_PARTIAL_CHARGES>
25
1 -0.18
10 -0.63
13 0.37
14 0.3
15 0.64
16 0.77
17 0.18
18 -0.15
19 0.19
2 -0.28
20 0.1
21 -0.15
22 0.18
23 0.29
24 0.66
25 0.28
3 -0.33
34 0.15
35 0.15
4 -0.19
5 -0.57
6 -0.43
7 -0.57
8 -0.44
9 -0.34

> <PUBCHEM_EFFECTIVE_ROTOR_COUNT>
5.8

> <PUBCHEM_PHARMACOPHORE_FEATURES>
5
1 7 acceptor
3 8 10 15 cation
5 2 8 9 15 16 rings
6 17 18 19 20 21 22 rings
6 8 9 11 12 13 14 rings

> <PUBCHEM_HEAVY_ATOM_COUNT>
25

> <PUBCHEM_ATOM_DEF_STEREO_COUNT>
0

> <PUBCHEM_ATOM_UDEF_STEREO_COUNT>
0

> <PUBCHEM_BOND_DEF_STEREO_COUNT>
0

> <PUBCHEM_BOND_UDEF_STEREO_COUNT>
0

> <PUBCHEM_ISOTOPIC_ATOM_COUNT>
0

> <PUBCHEM_COMPONENT_COUNT>
1

> <PUBCHEM_CACTVS_TAUTO_COUNT>
1

> <PUBCHEM_CONFORMER_ID>
00016D6600000001

> <PUBCHEM_MMFF94_ENERGY>
55.0711

> <PUBCHEM_FEATURE_SELFOVERLAP>
25.442

> <PUBCHEM_SHAPE_FINGERPRINT>
10366900 7 17488731414932209378
12156800 1 5108028283857910456
12166972 35 18200880681343300966
12236239 1 18339647857435839607
12403259 327 13973686079087540759
12616971 3 18409164450548363351
13583140 156 17986663978002849745
13965767 371 17179952446526268432
14787075 74 17907297650723087079
14790565 3 18041829715042939473
14848178 96 18200871764558743380
14931854 50 18262506027373943228
17980427 23 18115896060552434686
18681886 176 18334304192460131090
19026451 147 18334304162194152923
192875 21 18408887360321688402
20691752 17 18272081708394136288
21033648 29 16845302656603014631
21344244 78 17982471569513759506
22393880 68 18409443717595594285
23557571 272 16878229761052535667
23559900 14 17605550166297754663
238 59 18263632992310861816
25147074 1 18113621184369838129
345986 75 17628657524553329906
35225 105 16627134076380532928
474 4 18272650112876486526
495365 180 17489592281102762403
513532 50 18040714754333027052
5895379 119 17677320749014095600
6034566 193 17199365019846505565
7471813 234 18268434718645366166
84936 182 18341891887779591910
9981440 41 17832997048769268872

> <PUBCHEM_SHAPE_MULTIPOLES>
484.23
10.4
3.5
1.6
9.9
2.27
0.23
0.97
2.45
-3.22
-1.44
-0.69
-0.02
-1.76

> <PUBCHEM_SHAPE_SELFOVERLAP>
993.391

> <PUBCHEM_SHAPE_VOLUME>
283.9

> <PUBCHEM_COORDINATE_TYPE>
2
5
10

$$$$

