442833
  -OEChem-07051212593D

 67 72  0     1  0  0  0  0  0999 V2000
   -3.9306   -0.9616    0.8244 O   0  0  0  0  0  0  0  0  0  0  0  0
   -2.3687    0.2594   -0.4742 O   0  0  0  0  0  0  0  0  0  0  0  0
   -4.7435    1.5539   -1.5934 O   0  0  0  0  0  0  0  0  0  0  0  0
   -6.6978   -0.0948    0.9944 O   0  0  0  0  0  0  0  0  0  0  0  0
   -4.5995    1.6065    2.0547 O   0  0  0  0  0  0  0  0  0  0  0  0
    0.2276    3.7198   -0.1543 O   0  0  0  0  0  0  0  0  0  0  0  0
   -0.6961   -4.5188   -0.2548 O   0  0  0  0  0  0  0  0  0  0  0  0
    2.4965    3.4454    0.1333 O   0  0  0  0  0  0  0  0  0  0  0  0
    2.0513   -4.3480    0.0921 O   0  0  0  0  0  0  0  0  0  0  0  0
    6.3627    0.8976   -1.6252 O   0  0  0  0  0  0  0  0  0  0  0  0
    7.2775    1.0208    0.6010 O   0  0  0  0  0  0  0  0  0  0  0  0
   -5.2369    1.3705   -0.2683 C   0  0  2  0  0  0  0  0  0  0  0  0
   -4.0793    1.4763    0.7333 C   0  0  2  0  0  0  0  0  0  0  0  0
   -5.9244    0.0051   -0.1989 C   0  0  1  0  0  0  0  0  0  0  0  0
   -3.1699    0.2432    0.7028 C   0  0  1  0  0  0  0  0  0  0  0  0
   -4.9080   -1.1324   -0.2026 C   0  0  0  0  0  0  0  0  0  0  0  0
   -1.0178    0.2973   -0.3031 C   0  0  0  0  0  0  0  0  0  0  0  0
   -0.3824    1.5229   -0.2254 C   0  0  0  0  0  0  0  0  0  0  0  0
   -0.2489   -0.8772   -0.2039 C   0  0  0  0  0  0  0  0  0  0  0  0
    0.9818    1.5927   -0.0534 C   0  0  0  0  0  0  0  0  0  0  0  0
    1.7809    0.4690    0.0498 C   0  0  0  0  0  0  0  0  0  0  0  0
    1.1632   -0.7898   -0.0257 C   0  0  0  0  0  0  0  0  0  0  0  0
   -0.9468    2.8824   -0.2997 C   0  0  0  0  0  0  0  0  0  0  0  0
    3.2155    0.6143    0.2304 C   0  0  0  0  0  0  0  0  0  0  0  0
    1.3785    2.9911   -0.0067 C   0  0  0  0  0  0  0  0  0  0  0  0
   -0.8505   -2.1429   -0.2776 C   0  0  0  0  0  0  0  0  0  0  0  0
    1.9154   -1.9706    0.0711 C   0  0  0  0  0  0  0  0  0  0  0  0
   -5.7950    1.5116   -2.5447 C   0  0  0  0  0  0  0  0  0  0  0  0
   -7.6718    0.9364    1.0705 C   0  0  0  0  0  0  0  0  0  0  0  0
   -0.0830   -3.3041   -0.1788 C   0  0  0  0  0  0  0  0  0  0  0  0
    1.2955   -3.2182   -0.0050 C   0  0  0  0  0  0  0  0  0  0  0  0
    4.0458    0.6804   -0.8874 C   0  0  0  0  0  0  0  0  0  0  0  0
    3.7434    0.6854    1.5284 C   0  0  0  0  0  0  0  0  0  0  0  0
    5.4007    0.8177   -0.6658 C   0  0  0  0  0  0  0  0  0  0  0  0
    5.9232    0.8880    0.6054 C   0  0  0  0  0  0  0  0  0  0  0  0
    5.1195    0.8246    1.7251 C   0  0  0  0  0  0  0  0  0  0  0  0
    7.5491    1.0266   -0.8153 C   0  0  0  0  0  0  0  0  0  0  0  0
   -0.8284   -5.0975   -1.5514 C   0  0  0  0  0  0  0  0  0  0  0  0
    2.2515   -4.8830    1.3987 C   0  0  0  0  0  0  0  0  0  0  0  0
   -5.9194    2.2019   -0.0670 H   0  0  0  0  0  0  0  0  0  0  0  0
   -3.5176    2.3831    0.5131 H   0  0  0  0  0  0  0  0  0  0  0  0
   -6.6181   -0.1835   -1.0225 H   0  0  0  0  0  0  0  0  0  0  0  0
   -2.5303    0.2675    1.5956 H   0  0  0  0  0  0  0  0  0  0  0  0
   -5.4095   -2.0851   -0.0015 H   0  0  0  0  0  0  0  0  0  0  0  0
   -4.4054   -1.2189   -1.1723 H   0  0  0  0  0  0  0  0  0  0  0  0
   -1.5990    3.1145    0.5418 H   0  0  0  0  0  0  0  0  0  0  0  0
   -1.4228    3.0994   -1.2589 H   0  0  0  0  0  0  0  0  0  0  0  0
   -5.0386    0.7711    2.2888 H   0  0  0  0  0  0  0  0  0  0  0  0
   -1.9224   -2.2476   -0.4253 H   0  0  0  0  0  0  0  0  0  0  0  0
    2.9944   -1.9562    0.2060 H   0  0  0  0  0  0  0  0  0  0  0  0
   -6.7185    1.9722   -2.1784 H   0  0  0  0  0  0  0  0  0  0  0  0
   -5.4671    2.0802   -3.4206 H   0  0  0  0  0  0  0  0  0  0  0  0
   -5.9699    0.4875   -2.8864 H   0  0  0  0  0  0  0  0  0  0  0  0
   -8.4605    0.5921    1.7467 H   0  0  0  0  0  0  0  0  0  0  0  0
   -7.2551    1.8448    1.5131 H   0  0  0  0  0  0  0  0  0  0  0  0
   -8.1347    1.1451    0.1004 H   0  0  0  0  0  0  0  0  0  0  0  0
    3.6528    0.6267   -1.8975 H   0  0  0  0  0  0  0  0  0  0  0  0
    3.0906    0.6333    2.3970 H   0  0  0  0  0  0  0  0  0  0  0  0
    5.5350    0.8800    2.7247 H   0  0  0  0  0  0  0  0  0  0  0  0
    8.0491    1.9674   -1.0729 H   0  0  0  0  0  0  0  0  0  0  0  0
    8.2241    0.1945   -1.0467 H   0  0  0  0  0  0  0  0  0  0  0  0
   -1.3281   -6.0642   -1.4457 H   0  0  0  0  0  0  0  0  0  0  0  0
   -1.4380   -4.4569   -2.1965 H   0  0  0  0  0  0  0  0  0  0  0  0
    0.1551   -5.2595   -2.0037 H   0  0  0  0  0  0  0  0  0  0  0  0
    2.7768   -4.1611    2.0321 H   0  0  0  0  0  0  0  0  0  0  0  0
    2.8662   -5.7828    1.3101 H   0  0  0  0  0  0  0  0  0  0  0  0
    1.2945   -5.1564    1.8543 H   0  0  0  0  0  0  0  0  0  0  0  0
  1 15  1  0  0  0  0
  1 16  1  0  0  0  0
  2 15  1  0  0  0  0
  2 17  1  0  0  0  0
  3 12  1  0  0  0  0
  3 28  1  0  0  0  0
  4 14  1  0  0  0  0
  4 29  1  0  0  0  0
  5 13  1  0  0  0  0
  5 48  1  0  0  0  0
  6 23  1  0  0  0  0
  6 25  1  0  0  0  0
  7 30  1  0  0  0  0
  7 38  1  0  0  0  0
  8 25  2  0  0  0  0
  9 31  1  0  0  0  0
  9 39  1  0  0  0  0
 10 34  1  0  0  0  0
 10 37  1  0  0  0  0
 11 35  1  0  0  0  0
 11 37  1  0  0  0  0
 12 13  1  0  0  0  0
 12 14  1  0  0  0  0
 12 40  1  0  0  0  0
 13 15  1  0  0  0  0
 13 41  1  0  0  0  0
 14 16  1  0  0  0  0
 14 42  1  0  0  0  0
 15 43  1  0  0  0  0
 16 44  1  0  0  0  0
 16 45  1  0  0  0  0
 17 18  2  0  0  0  0
 17 19  1  0  0  0  0
 18 20  1  0  0  0  0
 18 23  1  0  0  0  0
 19 22  1  0  0  0  0
 19 26  2  0  0  0  0
 20 21  2  0  0  0  0
 20 25  1  0  0  0  0
 21 22  1  0  0  0  0
 21 24  1  0  0  0  0
 22 27  2  0  0  0  0
 23 46  1  0  0  0  0
 23 47  1  0  0  0  0
 24 32  2  0  0  0  0
 24 33  1  0  0  0  0
 26 30  1  0  0  0  0
 26 49  1  0  0  0  0
 27 31  1  0  0  0  0
 27 50  1  0  0  0  0
 28 51  1  0  0  0  0
 28 52  1  0  0  0  0
 28 53  1  0  0  0  0
 29 54  1  0  0  0  0
 29 55  1  0  0  0  0
 29 56  1  0  0  0  0
 30 31  2  0  0  0  0
 32 34  1  0  0  0  0
 32 57  1  0  0  0  0
 33 36  2  0  0  0  0
 33 58  1  0  0  0  0
 34 35  2  0  0  0  0
 35 36  1  0  0  0  0
 36 59  1  0  0  0  0
 37 60  1  0  0  0  0
 37 61  1  0  0  0  0
 38 62  1  0  0  0  0
 38 63  1  0  0  0  0
 38 64  1  0  0  0  0
 39 65  1  0  0  0  0
 39 66  1  0  0  0  0
 39 67  1  0  0  0  0
M  END
> <PUBCHEM_COMPOUND_CID>
442833

> <PUBCHEM_CONFORMER_RMSD>
1

> <PUBCHEM_CONFORMER_DIVERSEORDER>
12
58
62
49
18
53
43
45
64
25
63
60
11
51
55
32
54
7
46
30
31
15
27
61
41
33
50
57
24
56
22
17
39
29
10
44
48
40
13
47
14
59
34
38
6
3
20
35
26
36
23
5
37
4
16
42
52
21
28
2
8
19
1
9

> <PUBCHEM_MMFF94_PARTIAL_CHARGES>
41
1 -0.56
10 -0.36
11 -0.36
12 0.28
13 0.28
14 0.28
15 0.56
16 0.28
17 0.08
18 -0.14
2 -0.36
20 0.09
23 0.42
25 0.63
26 -0.15
27 -0.15
28 0.28
29 0.28
3 -0.56
30 0.08
31 0.08
32 -0.15
33 -0.15
34 0.08
35 0.08
36 -0.15
37 0.56
38 0.28
39 0.28
4 -0.56
48 0.4
49 0.15
5 -0.68
50 0.15
57 0.15
58 0.15
59 0.15
6 -0.43
7 -0.36
8 -0.57
9 -0.36

> <PUBCHEM_EFFECTIVE_ROTOR_COUNT>
9.2

> <PUBCHEM_PHARMACOPHORE_FEATURES>
17
1 1 acceptor
1 10 acceptor
1 11 acceptor
1 2 acceptor
1 3 acceptor
1 4 acceptor
1 5 acceptor
1 5 donor
1 7 acceptor
1 8 acceptor
1 9 acceptor
5 10 11 34 35 37 rings
5 6 18 20 23 25 rings
6 1 12 13 14 15 16 rings
6 17 18 19 20 21 22 rings
6 19 22 26 27 30 31 rings
6 24 32 33 34 35 36 rings

> <PUBCHEM_HEAVY_ATOM_COUNT>
39

> <PUBCHEM_ATOM_DEF_STEREO_COUNT>
3

> <PUBCHEM_ATOM_UDEF_STEREO_COUNT>
1

> <PUBCHEM_BOND_DEF_STEREO_COUNT>
0

> <PUBCHEM_BOND_UDEF_STEREO_COUNT>
0

> <PUBCHEM_ISOTOPIC_ATOM_COUNT>
0

> <PUBCHEM_COMPONENT_COUNT>
1

> <PUBCHEM_CACTVS_TAUTO_COUNT>
1

> <PUBCHEM_CONFORMER_ID>
0006C1D10000000C

> <PUBCHEM_MMFF94_ENERGY>
168.8415

> <PUBCHEM_FEATURE_SELFOVERLAP>
86.588

> <PUBCHEM_SHAPE_FINGERPRINT>
10050765 1 18051973919972026956
102385 1 17761773270486141857
10258939 38 17775005751419313369
10906281 52 18201705288867347440
10940486 97 18124593085800990868
1100329 8 18265616481365029696
11135926 11 18410858793666530965
11136131 41 18200322155328216058
11445158 3 17774721956959576397
11719270 70 18341619238992602434
12058002 1 17389061687050354164
12236239 1 17704356559516255828
13140716 1 18194407693071180264
13617811 41 18342725330953719508
13692114 37 18042128652607875335
13911987 19 18341339950017336381
14790565 3 18411410683784415340
14856354 85 17274818017654826577
14866123 147 18265897947820981658
15420108 30 18260831518361948707
15775530 1 17768821110239979204
15781502 461 17988656236815877189
15927050 60 18335704918724137734
16090146 7 18189594117264414408
16728300 4 17629225937689106690
18365409 1 18188492350953453183
18681886 176 18338520733621333289
19319366 153 17632305553905004114
20028762 73 18188492367626530111
20505436 4 17531242916256820391
20771845 171 17988914600710853990
21033648 144 18341613750589037103
21033648 29 18041289763716027984
21781051 124 18272639161258923834
22311459 1 18411418405892598068
22956985 138 17912088558193664378
23559900 14 17834972140450112315
23569943 247 17605822841060906614
23576562 1 17985830328486540956
24771293 8 18115601339886462632
3178227 256 18340476794877088601
335352 9 18337952290314998084
3383291 50 18334575694200442690
3411729 13 18342738563041154226
4017518 198 18113610167520768454
4093350 32 17313656157425374287
5265222 85 18198616641036489172
5385378 56 18410287055862083299
5758199 1 18334008397982672025
6669772 16 18187358861528272782
6679774 75 18131078082801658850

> <PUBCHEM_SHAPE_MULTIPOLES>
738.04
16.43
5.29
1.41
3.02
8.59
-0.16
-10.77
0.46
-1.77
-0.5
0.79
-0.15
-0.41

> <PUBCHEM_SHAPE_SELFOVERLAP>
1647.914

> <PUBCHEM_SHAPE_VOLUME>
394.4

> <PUBCHEM_COORDINATE_TYPE>
2
5
10

$$$$

