441988
  -OEChem-07051212563D

 53 58  0     1  0  0  0  0  0999 V2000
    2.3343   -2.9556    0.6222 O   0  0  0  0  0  0  0  0  0  0  0  0
    0.3244   -2.3271    1.5718 O   0  0  0  0  0  0  0  0  0  0  0  0
   -1.3323   -3.3682   -1.3029 O   0  0  0  0  0  0  0  0  0  0  0  0
    1.6465    1.8153    0.9896 N   0  0  2  0  0  0  0  0  0  0  0  0
   -1.6189   -1.2438   -0.3878 N   0  0  0  0  0  0  0  0  0  0  0  0
   -0.2766    0.6387    0.2880 C   0  0  2  0  0  0  0  0  0  0  0  0
   -0.3017   -0.6176   -0.6577 C   0  0  1  0  0  0  0  0  0  0  0  0
    0.8143    1.6004   -0.1931 C   0  0  2  0  0  0  0  0  0  0  0  0
    1.7350    0.9404   -1.2501 C   0  0  1  0  0  0  0  0  0  0  0  0
    1.0007   -1.4426   -0.5637 C   0  0  1  0  0  0  0  0  0  0  0  0
    2.2062   -0.4763   -0.7562 C   0  0  0  0  0  0  0  0  0  0  0  0
   -0.3322   -0.1321   -2.1668 C   0  0  0  0  0  0  0  0  0  0  0  0
    0.8963    0.7101   -2.5156 C   0  0  0  0  0  0  0  0  0  0  0  0
    0.0303    0.4919    1.8091 C   0  0  0  0  0  0  0  0  0  0  0  0
    2.9192    1.8949   -1.5341 C   0  0  0  0  0  0  0  0  0  0  0  0
   -1.7515    0.9830    0.2344 C   0  0  0  0  0  0  0  0  0  0  0  0
    0.7970    1.7730    2.1505 C   0  0  0  0  0  0  0  0  0  0  0  0
    2.6076    2.8776    0.8209 C   0  0  0  0  0  0  0  0  0  0  0  0
    3.6028    2.4137   -0.2558 C   0  0  0  0  0  0  0  0  0  0  0  0
   -2.4937   -0.1913   -0.0117 C   0  0  0  0  0  0  0  0  0  0  0  0
    1.1518   -2.2788    0.6717 C   0  0  0  0  0  0  0  0  0  0  0  0
   -2.3864    2.1837    0.5046 C   0  0  0  0  0  0  0  0  0  0  0  0
   -2.0035   -2.5208   -0.7234 C   0  0  0  0  0  0  0  0  0  0  0  0
   -3.8773   -0.1889    0.0432 C   0  0  0  0  0  0  0  0  0  0  0  0
   -3.7819    2.1969    0.5426 C   0  0  0  0  0  0  0  0  0  0  0  0
   -4.5189    1.0208    0.3240 C   0  0  0  0  0  0  0  0  0  0  0  0
    2.6085   -3.7975    1.7465 C   0  0  0  0  0  0  0  0  0  0  0  0
    0.3796    2.5400   -0.5602 H   0  0  0  0  0  0  0  0  0  0  0  0
    1.0065   -2.1695   -1.3890 H   0  0  0  0  0  0  0  0  0  0  0  0
    2.7914   -0.3902    0.1669 H   0  0  0  0  0  0  0  0  0  0  0  0
    2.8882   -0.9111   -1.4993 H   0  0  0  0  0  0  0  0  0  0  0  0
   -1.2331    0.4560   -2.3845 H   0  0  0  0  0  0  0  0  0  0  0  0
   -0.3907   -0.9967   -2.8414 H   0  0  0  0  0  0  0  0  0  0  0  0
    1.4908    0.2029   -3.2855 H   0  0  0  0  0  0  0  0  0  0  0  0
    0.5728    1.6634   -2.9519 H   0  0  0  0  0  0  0  0  0  0  0  0
    0.7350   -0.3000    2.0411 H   0  0  0  0  0  0  0  0  0  0  0  0
   -0.8442    0.3641    2.4563 H   0  0  0  0  0  0  0  0  0  0  0  0
    2.5513    2.7664   -2.0920 H   0  0  0  0  0  0  0  0  0  0  0  0
    3.6618    1.4063   -2.1761 H   0  0  0  0  0  0  0  0  0  0  0  0
    0.1367    2.6435    2.2234 H   0  0  0  0  0  0  0  0  0  0  0  0
    1.3583    1.6646    3.0835 H   0  0  0  0  0  0  0  0  0  0  0  0
    3.1583    3.0587    1.7509 H   0  0  0  0  0  0  0  0  0  0  0  0
    2.1271    3.8193    0.5309 H   0  0  0  0  0  0  0  0  0  0  0  0
    4.2299    1.6128    0.1573 H   0  0  0  0  0  0  0  0  0  0  0  0
    4.2792    3.2377   -0.5108 H   0  0  0  0  0  0  0  0  0  0  0  0
   -1.8244    3.0876    0.7103 H   0  0  0  0  0  0  0  0  0  0  0  0
   -3.0404   -2.7453   -0.4314 H   0  0  0  0  0  0  0  0  0  0  0  0
   -4.4689   -1.0754   -0.1525 H   0  0  0  0  0  0  0  0  0  0  0  0
   -4.3058    3.1243    0.7585 H   0  0  0  0  0  0  0  0  0  0  0  0
   -5.6046    1.0561    0.3635 H   0  0  0  0  0  0  0  0  0  0  0  0
    3.5775   -4.2769    1.5840 H   0  0  0  0  0  0  0  0  0  0  0  0
    1.8424   -4.5738    1.8337 H   0  0  0  0  0  0  0  0  0  0  0  0
    2.6607   -3.2007    2.6621 H   0  0  0  0  0  0  0  0  0  0  0  0
  1 21  1  0  0  0  0
  1 27  1  0  0  0  0
  2 21  2  0  0  0  0
  3 23  2  0  0  0  0
  4  8  1  0  0  0  0
  4 17  1  0  0  0  0
  4 18  1  0  0  0  0
  5  7  1  0  0  0  0
  5 20  1  0  0  0  0
  5 23  1  0  0  0  0
  6  7  1  0  0  0  0
  6  8  1  0  0  0  0
  6 14  1  0  0  0  0
  6 16  1  0  0  0  0
  7 10  1  0  0  0  0
  7 12  1  0  0  0  0
  8  9  1  0  0  0  0
  8 28  1  0  0  0  0
  9 11  1  0  0  0  0
  9 13  1  0  0  0  0
  9 15  1  0  0  0  0
 10 11  1  0  0  0  0
 10 21  1  0  0  0  0
 10 29  1  0  0  0  0
 11 30  1  0  0  0  0
 11 31  1  0  0  0  0
 12 13  1  0  0  0  0
 12 32  1  0  0  0  0
 12 33  1  0  0  0  0
 13 34  1  0  0  0  0
 13 35  1  0  0  0  0
 14 17  1  0  0  0  0
 14 36  1  0  0  0  0
 14 37  1  0  0  0  0
 15 19  1  0  0  0  0
 15 38  1  0  0  0  0
 15 39  1  0  0  0  0
 16 20  1  0  0  0  0
 16 22  2  0  0  0  0
 17 40  1  0  0  0  0
 17 41  1  0  0  0  0
 18 19  1  0  0  0  0
 18 42  1  0  0  0  0
 18 43  1  0  0  0  0
 19 44  1  0  0  0  0
 19 45  1  0  0  0  0
 20 24  2  0  0  0  0
 22 25  1  0  0  0  0
 22 46  1  0  0  0  0
 23 47  1  0  0  0  0
 24 26  1  0  0  0  0
 24 48  1  0  0  0  0
 25 26  2  0  0  0  0
 25 49  1  0  0  0  0
 26 50  1  0  0  0  0
 27 51  1  0  0  0  0
 27 52  1  0  0  0  0
 27 53  1  0  0  0  0
M  END
> <PUBCHEM_COMPOUND_CID>
441988

> <PUBCHEM_CONFORMER_RMSD>
0.8

> <PUBCHEM_CONFORMER_DIVERSEORDER>
1
2

> <PUBCHEM_MMFF94_PARTIAL_CHARGES>
25
1 -0.43
10 0.06
16 -0.14
17 0.27
18 0.27
2 -0.57
20 0.12
21 0.66
22 -0.15
23 0.57
24 -0.15
25 -0.15
26 -0.15
27 0.28
3 -0.57
4 -0.81
46 0.15
47 0.06
48 0.15
49 0.15
5 -0.48
50 0.15
6 0.14
7 0.3
8 0.27

> <PUBCHEM_EFFECTIVE_ROTOR_COUNT>
5

> <PUBCHEM_PHARMACOPHORE_FEATURES>
8
1 2 acceptor
1 3 acceptor
1 4 cation
5 4 6 8 14 17 rings
5 5 6 7 16 20 rings
6 16 20 22 24 25 26 rings
6 4 8 9 15 18 19 rings
8 6 7 8 9 10 11 12 13 rings

> <PUBCHEM_HEAVY_ATOM_COUNT>
27

> <PUBCHEM_ATOM_DEF_STEREO_COUNT>
5

> <PUBCHEM_ATOM_UDEF_STEREO_COUNT>
0

> <PUBCHEM_BOND_DEF_STEREO_COUNT>
0

> <PUBCHEM_BOND_UDEF_STEREO_COUNT>
0

> <PUBCHEM_ISOTOPIC_ATOM_COUNT>
0

> <PUBCHEM_COMPONENT_COUNT>
1

> <PUBCHEM_CACTVS_TAUTO_COUNT>
1

> <PUBCHEM_CONFORMER_ID>
0006BE8400000001

> <PUBCHEM_MMFF94_ENERGY>
117.1406

> <PUBCHEM_FEATURE_SELFOVERLAP>
40.961

> <PUBCHEM_SHAPE_FINGERPRINT>
10863032 1 18263079925040239228
10948715 1 18336821983734851124
1100329 8 18409729590761311770
11578080 2 17772764985144360636
121448 382 18121491354555431408
12592029 89 18411975858409070416
12788726 201 17618220603061779764
13132413 78 17903361750971341065
13134695 92 17842830298693873501
13140716 1 18341051813720006554
133893 2 18055949612289315166
14181834 199 18126829723941861807
14955137 171 17904184168700265923
16945 1 18114730543292091509
17980427 23 17827096291706109805
1813 80 17767396151475725918
20600515 1 17609221499725212640
20691752 17 17761207722435741363
20905425 154 17969504810054710079
21421861 104 17832116683358008449
229495 10 17772756202294819342
23419403 2 17698463335377069052
23559900 14 17823691052681615270
2748010 2 17317042438274489445
3052486 1 18051134683831425807
3380486 77 17973721677686459835
350125 39 18338230596049091925
394222 165 18340188782827972784
5104073 3 18267006428031153361
5895379 119 16808967237658672633
81228 2 17470157060161459113

> <PUBCHEM_SHAPE_MULTIPOLES>
528.08
5.5
4.01
1.92
4.25
3.09
-0.23
-2.65
0.41
-2.58
1.37
-1.06
0.11
-1.59

> <PUBCHEM_SHAPE_SELFOVERLAP>
1191.515

> <PUBCHEM_SHAPE_VOLUME>
277.4

> <PUBCHEM_COORDINATE_TYPE>
2
5
10

$$$$

