21514919
  -OEChem-07051213083D

 29 31  0     0  0  0  0  0  0999 V2000
    2.3422    1.8474    0.3454 O   0  0  0  0  0  0  0  0  0  0  0  0
    4.3620   -0.0002    0.1961 O   0  0  0  0  0  0  0  0  0  0  0  0
    0.6844    0.1136    0.1065 C   0  0  0  0  0  0  0  0  0  0  0  0
    0.3937   -1.2590   -0.0543 C   0  0  0  0  0  0  0  0  0  0  0  0
   -1.7123    0.6223    0.0974 C   0  0  0  0  0  0  0  0  0  0  0  0
   -2.0030   -0.7502   -0.0632 C   0  0  0  0  0  0  0  0  0  0  0  0
   -0.3723    1.0363    0.1803 C   0  0  0  0  0  0  0  0  0  0  0  0
   -0.9462   -1.6730   -0.1369 C   0  0  0  0  0  0  0  0  0  0  0  0
    2.0246    0.5267    0.1891 C   0  0  0  0  0  0  0  0  0  0  0  0
    1.4509   -2.1810   -0.1281 C   0  0  0  0  0  0  0  0  0  0  0  0
    3.0629   -0.4020    0.1141 C   0  0  0  0  0  0  0  0  0  0  0  0
   -2.7696    1.5444    0.1709 C   0  0  0  0  0  0  0  0  0  0  0  0
   -3.3431   -1.1634   -0.1459 C   0  0  0  0  0  0  0  0  0  0  0  0
    2.7764   -1.7541   -0.0443 C   0  0  0  0  0  0  0  0  0  0  0  0
   -4.0950    1.1174    0.0871 C   0  0  0  0  0  0  0  0  0  0  0  0
   -4.3814   -0.2348   -0.0710 C   0  0  0  0  0  0  0  0  0  0  0  0
    2.5260    2.6096   -0.8433 C   0  0  0  0  0  0  0  0  0  0  0  0
   -0.1646    2.0976    0.3112 H   0  0  0  0  0  0  0  0  0  0  0  0
   -1.1707   -2.7325   -0.2610 H   0  0  0  0  0  0  0  0  0  0  0  0
    1.2500   -3.2432   -0.2518 H   0  0  0  0  0  0  0  0  0  0  0  0
   -2.5692    2.6068    0.2945 H   0  0  0  0  0  0  0  0  0  0  0  0
   -3.5903   -2.2158   -0.2697 H   0  0  0  0  0  0  0  0  0  0  0  0
    3.5745   -2.4892   -0.1041 H   0  0  0  0  0  0  0  0  0  0  0  0
   -4.9028    1.8410    0.1454 H   0  0  0  0  0  0  0  0  0  0  0  0
   -5.4130   -0.5679   -0.1363 H   0  0  0  0  0  0  0  0  0  0  0  0
    4.9404   -0.7788    0.1243 H   0  0  0  0  0  0  0  0  0  0  0  0
    2.6909    3.6526   -0.5590 H   0  0  0  0  0  0  0  0  0  0  0  0
    1.6417    2.5600   -1.4864 H   0  0  0  0  0  0  0  0  0  0  0  0
    3.4046    2.2559   -1.3919 H   0  0  0  0  0  0  0  0  0  0  0  0
  1  9  1  0  0  0  0
  1 17  1  0  0  0  0
  2 11  1  0  0  0  0
  2 26  1  0  0  0  0
  3  4  1  0  0  0  0
  3  7  2  0  0  0  0
  3  9  1  0  0  0  0
  4  8  2  0  0  0  0
  4 10  1  0  0  0  0
  5  6  1  0  0  0  0
  5  7  1  0  0  0  0
  5 12  2  0  0  0  0
  6  8  1  0  0  0  0
  6 13  2  0  0  0  0
  7 18  1  0  0  0  0
  8 19  1  0  0  0  0
  9 11  2  0  0  0  0
 10 14  2  0  0  0  0
 10 20  1  0  0  0  0
 11 14  1  0  0  0  0
 12 15  1  0  0  0  0
 12 21  1  0  0  0  0
 13 16  1  0  0  0  0
 13 22  1  0  0  0  0
 14 23  1  0  0  0  0
 15 16  2  0  0  0  0
 15 24  1  0  0  0  0
 16 25  1  0  0  0  0
 17 27  1  0  0  0  0
 17 28  1  0  0  0  0
 17 29  1  0  0  0  0
M  END
> <PUBCHEM_COMPOUND_CID>
21514919

> <PUBCHEM_CONFORMER_RMSD>
0.6

> <PUBCHEM_CONFORMER_DIVERSEORDER>
1

> <PUBCHEM_MMFF94_PARTIAL_CHARGES>
22
1 -0.36
10 -0.15
11 0.08
12 -0.15
13 -0.15
14 -0.15
15 -0.15
16 -0.15
17 0.28
18 0.15
19 0.15
2 -0.53
20 0.15
21 0.15
22 0.15
23 0.15
24 0.15
25 0.15
26 0.45
7 -0.15
8 -0.15
9 0.08

> <PUBCHEM_EFFECTIVE_ROTOR_COUNT>
1

> <PUBCHEM_PHARMACOPHORE_FEATURES>
5
1 1 acceptor
1 2 donor
6 3 4 5 6 7 8 rings
6 3 4 9 10 11 14 rings
6 5 6 12 13 15 16 rings

> <PUBCHEM_HEAVY_ATOM_COUNT>
17

> <PUBCHEM_ATOM_DEF_STEREO_COUNT>
0

> <PUBCHEM_ATOM_UDEF_STEREO_COUNT>
0

> <PUBCHEM_BOND_DEF_STEREO_COUNT>
0

> <PUBCHEM_BOND_UDEF_STEREO_COUNT>
0

> <PUBCHEM_ISOTOPIC_ATOM_COUNT>
0

> <PUBCHEM_COMPONENT_COUNT>
1

> <PUBCHEM_CACTVS_TAUTO_COUNT>
3

> <PUBCHEM_CONFORMER_ID>
01484AA700000001

> <PUBCHEM_MMFF94_ENERGY>
63.8832

> <PUBCHEM_FEATURE_SELFOVERLAP>
25.423

> <PUBCHEM_SHAPE_FINGERPRINT>
10411042 1 15526859950845308791
10608611 8 18411703209748252149
10616163 171 18335701594440016831
10967382 1 18409730664027914258
11132069 177 18335990826037402131
11471102 20 18409735100755751743
12251169 10 18411702101272026507
13140716 1 18339085874039243266
13221675 6 18410012160585268227
13380535 76 18410293614055649875
13583140 156 17275117128073229419
14144814 61 18336828696810608067
14415576 193 18411698764071979093
15196674 1 18336828692346971979
15219456 202 18409449228033197227
15442244 35 18192712473489391283
15536298 74 18260830440145393526
16945 1 18410568504852595058
17492 89 18409168813982825087
17802600 8 18411143540896611429
18186145 218 18336262444116902933
19591789 44 16396044048145428083
200 152 18040445403790484391
20645477 70 18335704970394847575
21267235 1 18409158914087832831
21501502 16 18408886217986994639
221490 88 18411973650600843987
2255824 54 18343299275648501178
22854114 111 18412262830716767277
2334 1 18265895756933155001
23402539 116 18260277351373392199
23402655 69 18261961855122384909
23463225 33 18410575110548953227
23559900 14 18335143149817390698
2748010 2 18122057607328251146
335352 9 18121217846774658143
350125 39 18410853243951813585
474 4 18059292050438995732
5104073 3 18336828692468363699
69090 78 18333737931249954759
7364860 26 18335138696067816236
7832392 63 18192992853312718873
9709674 26 18409725162444522063
9981440 41 17765157168424629840

> <PUBCHEM_SHAPE_MULTIPOLES>
338.11
7.33
2.37
0.67
2.61
0.47
0.04
0.99
-0.04
-1.34
0.33
-0.09
0.11
-0.35

> <PUBCHEM_SHAPE_SELFOVERLAP>
760.167

> <PUBCHEM_SHAPE_VOLUME>
179.6

> <PUBCHEM_COORDINATE_TYPE>
2
5
10

$$$$

