439776
  -OEChem-07051212473D

 19 19  0     0  0  0  0  0  0999 V2000
    2.3266    0.0071    0.3770 O   0  0  0  0  0  0  0  0  0  0  0  0
    0.7467   -2.1438    0.0042 O   0  0  0  0  0  0  0  0  0  0  0  0
   -1.9564   -1.9343    0.2122 O   0  0  0  0  0  0  0  0  0  0  0  0
    0.9500    0.1733    0.2923 C   0  0  0  0  0  0  0  0  0  0  0  0
    0.1516   -0.8891    0.1003 C   0  0  0  0  0  0  0  0  0  0  0  0
    0.5756    1.5464    0.5201 C   0  0  0  0  0  0  0  0  0  0  0  0
   -1.3362   -0.8917   -0.0021 C   0  0  0  0  0  0  0  0  0  0  0  0
   -0.5793    2.1522    0.2308 C   0  0  0  0  0  0  0  0  0  0  0  0
   -2.0877    0.2956   -0.4670 C   0  0  0  0  0  0  0  0  0  0  0  0
   -1.7388    1.5816   -0.3918 C   0  0  0  0  0  0  0  0  0  0  0  0
    2.9478    0.1026   -0.8761 C   0  0  0  0  0  0  0  0  0  0  0  0
    1.3446    2.1631    0.9854 H   0  0  0  0  0  0  0  0  0  0  0  0
   -0.6693    3.2103    0.4700 H   0  0  0  0  0  0  0  0  0  0  0  0
   -3.0575    0.0622   -0.9033 H   0  0  0  0  0  0  0  0  0  0  0  0
   -2.4416    2.3149   -0.7841 H   0  0  0  0  0  0  0  0  0  0  0  0
    4.0242   -0.0391   -0.7394 H   0  0  0  0  0  0  0  0  0  0  0  0
    2.7970    1.0903   -1.3260 H   0  0  0  0  0  0  0  0  0  0  0  0
    2.5951   -0.6740   -1.5640 H   0  0  0  0  0  0  0  0  0  0  0  0
    0.0379   -2.7969   -0.1276 H   0  0  0  0  0  0  0  0  0  0  0  0
  1  4  1  0  0  0  0
  1 11  1  0  0  0  0
  2  5  1  0  0  0  0
  2 19  1  0  0  0  0
  3  7  2  0  0  0  0
  4  5  2  0  0  0  0
  4  6  1  0  0  0  0
  5  7  1  0  0  0  0
  6  8  2  0  0  0  0
  6 12  1  0  0  0  0
  7  9  1  0  0  0  0
  8 10  1  0  0  0  0
  8 13  1  0  0  0  0
  9 10  2  0  0  0  0
  9 14  1  0  0  0  0
 10 15  1  0  0  0  0
 11 16  1  0  0  0  0
 11 17  1  0  0  0  0
 11 18  1  0  0  0  0
M  END
> <PUBCHEM_COMPOUND_CID>
439776

> <PUBCHEM_CONFORMER_RMSD>
0.4

> <PUBCHEM_CONFORMER_DIVERSEORDER>
1
4
2
3

> <PUBCHEM_MMFF94_PARTIAL_CHARGES>
16
1 -0.36
10 -0.15
11 0.28
12 0.15
13 0.15
14 0.15
15 0.15
19 0.45
2 -0.53
3 -0.57
4 0.08
5 0.09
6 -0.15
7 0.54
8 -0.15
9 -0.14

> <PUBCHEM_EFFECTIVE_ROTOR_COUNT>
1

> <PUBCHEM_PHARMACOPHORE_FEATURES>
4
1 1 acceptor
1 2 donor
1 3 acceptor
7 4 5 6 7 8 9 10 rings

> <PUBCHEM_HEAVY_ATOM_COUNT>
11

> <PUBCHEM_ATOM_DEF_STEREO_COUNT>
0

> <PUBCHEM_ATOM_UDEF_STEREO_COUNT>
0

> <PUBCHEM_BOND_DEF_STEREO_COUNT>
0

> <PUBCHEM_BOND_UDEF_STEREO_COUNT>
0

> <PUBCHEM_ISOTOPIC_ATOM_COUNT>
0

> <PUBCHEM_COMPONENT_COUNT>
1

> <PUBCHEM_CACTVS_TAUTO_COUNT>
5

> <PUBCHEM_CONFORMER_ID>
0006B5E000000001

> <PUBCHEM_MMFF94_ENERGY>
41.2763

> <PUBCHEM_FEATURE_SELFOVERLAP>
20.297

> <PUBCHEM_SHAPE_FINGERPRINT>
11206711 2 18340212903411728015
12423570 1 10972994817016590889
12524768 44 17545889226217426347
12716758 59 18336545035837825478
12897270 3 18410013264486724572
161256 15 17977946778496468689
16945 1 18410860996425681761
18185500 45 16391560918121109305
20588541 1 18410854373912977015
21040471 1 18194691585818949392
22802520 49 18115011035058778166
23552423 10 17691410028361459477
23559900 14 18261393416944583734
241688 4 15167705593400785041
2748010 2 18122637062920066845
2897 32 17401489745597592404
5084963 1 17969782964831972203
66348 1 18410022026161908049

> <PUBCHEM_SHAPE_MULTIPOLES>
208.77
3.2
2.27
0.76
1.59
0.23
0.07
0
0.79
-0.88
-0.23
0.17
-0.11
0.13

> <PUBCHEM_SHAPE_SELFOVERLAP>
430.306

> <PUBCHEM_SHAPE_VOLUME>
117.1

> <PUBCHEM_COORDINATE_TYPE>
2
5
10

$$$$

