5280976
  -OEChem-07051212522D

 32 32  0     1  0  0  0  0  0999 V2000
    2.0000    1.3450    0.0000 Cl  0  0  0  0  0  0  0  0  0  0  0  0
    3.3660    1.7110    0.0000 Cl  0  0  0  0  0  0  0  0  0  0  0  0
    2.3660   -0.0210    0.0000 Cl  0  0  0  0  0  0  0  0  0  0  0  0
    3.7320   -3.6550    0.0000 Cl  0  0  0  0  0  0  0  0  0  0  0  0
    6.3301    0.8450    0.0000 Cl  0  0  0  0  0  0  0  0  0  0  0  0
    5.4641    0.3450    0.0000 O   0  0  0  0  0  0  0  0  0  0  0  0
    7.1962    3.3450    0.0000 O   0  0  0  0  0  0  0  0  0  0  0  0
    8.9282    2.3450    0.0000 O   0  0  0  0  0  0  0  0  0  0  0  0
    8.0622    0.8450    0.0000 O   0  0  0  0  0  0  0  0  0  0  0  0
    3.7320    0.3450    0.0000 C   0  0  3  0  0  0  0  0  0  0  0  0
    3.7320   -0.6550    0.0000 C   0  0  0  0  0  0  0  0  0  0  0  0
    2.8660    0.8450    0.0000 C   0  0  0  0  0  0  0  0  0  0  0  0
    4.5981    0.8450    0.0000 C   0  0  0  0  0  0  0  0  0  0  0  0
    2.8660   -1.1550    0.0000 C   0  0  0  0  0  0  0  0  0  0  0  0
    4.5981   -1.1550    0.0000 C   0  0  0  0  0  0  0  0  0  0  0  0
    2.8660   -2.1550    0.0000 C   0  0  0  0  0  0  0  0  0  0  0  0
    4.5981   -2.1550    0.0000 C   0  0  0  0  0  0  0  0  0  0  0  0
    4.5981    1.8450    0.0000 C   0  0  0  0  0  0  0  0  0  0  0  0
    3.7320   -2.6550    0.0000 C   0  0  0  0  0  0  0  0  0  0  0  0
    5.4641    2.3450    0.0000 C   0  0  0  0  0  0  0  0  0  0  0  0
    6.3301    1.8450    0.0000 C   0  0  0  0  0  0  0  0  0  0  0  0
    7.1962    2.3450    0.0000 C   0  0  0  0  0  0  0  0  0  0  0  0
    8.0622    1.8450    0.0000 C   0  0  0  0  0  0  0  0  0  0  0  0
    3.7320    1.1950    0.0000 H   0  0  0  0  0  0  0  0  0  0  0  0
    2.3291   -0.8450    0.0000 H   0  0  0  0  0  0  0  0  0  0  0  0
    5.1350   -0.8450    0.0000 H   0  0  0  0  0  0  0  0  0  0  0  0
    2.3291   -2.4650    0.0000 H   0  0  0  0  0  0  0  0  0  0  0  0
    5.1350   -2.4650    0.0000 H   0  0  0  0  0  0  0  0  0  0  0  0
    4.0611    2.1550    0.0000 H   0  0  0  0  0  0  0  0  0  0  0  0
    5.4641    2.9650    0.0000 H   0  0  0  0  0  0  0  0  0  0  0  0
    7.7331    3.6550    0.0000 H   0  0  0  0  0  0  0  0  0  0  0  0
    9.4651    2.0350    0.0000 H   0  0  0  0  0  0  0  0  0  0  0  0
  1 12  1  0  0  0  0
  2 12  1  0  0  0  0
  3 12  1  0  0  0  0
  4 19  1  0  0  0  0
  5 21  1  0  0  0  0
  6 13  2  0  0  0  0
  7 22  1  0  0  0  0
  7 31  1  0  0  0  0
  8 23  1  0  0  0  0
  8 32  1  0  0  0  0
  9 23  2  0  0  0  0
 10 11  1  0  0  0  0
 10 12  1  0  0  0  0
 10 13  1  0  0  0  0
 10 24  1  0  0  0  0
 11 14  2  0  0  0  0
 11 15  1  0  0  0  0
 13 18  1  0  0  0  0
 14 16  1  0  0  0  0
 14 25  1  0  0  0  0
 15 17  2  0  0  0  0
 15 26  1  0  0  0  0
 16 19  2  0  0  0  0
 16 27  1  0  0  0  0
 17 19  1  0  0  0  0
 17 28  1  0  0  0  0
 18 20  2  0  0  0  0
 18 29  1  0  0  0  0
 20 21  1  0  0  0  0
 20 30  1  0  0  0  0
 21 22  2  0  0  0  0
 22 23  1  0  0  0  0
M  END
> <PUBCHEM_COMPOUND_CID>
5280976

> <PUBCHEM_COMPOUND_CANONICALIZED>
1

> <PUBCHEM_CACTVS_COMPLEXITY>
516

> <PUBCHEM_CACTVS_HBOND_ACCEPTOR>
4

> <PUBCHEM_CACTVS_HBOND_DONOR>
2

> <PUBCHEM_CACTVS_ROTATABLE_BOND>
5

> <PUBCHEM_CACTVS_SUBSKEYS>
AAADccBwOAAHAAAAAAAAAAAAAAAAAAAAAAAwAAAAAAAAAAABAAAAGgIACAAADQaAmKAwCIAAAgCIAqDSCAICAAAgJQAIiAFAAsgJJDKBFxCAMAAggAAJmYcIiMCOhAAAAAAAAAAIAAAAAAAAAAAAAAAAAA==

> <PUBCHEM_IUPAC_OPENEYE_NAME>
(2E,4Z)-3,8,8,8-tetrachloro-7-(4-chlorophenyl)-2-hydroxy-6-oxo-octa-2,4-dienoic acid

> <PUBCHEM_IUPAC_CAS_NAME>
(2E,4Z)-3,8,8,8-tetrachloro-7-(4-chlorophenyl)-2-hydroxy-6-oxoocta-2,4-dienoic acid

> <PUBCHEM_IUPAC_NAME>
(2E,4Z)-3,8,8,8-tetrachloro-7-(4-chlorophenyl)-2-hydroxy-6-oxoocta-2,4-dienoic acid

> <PUBCHEM_IUPAC_SYSTEMATIC_NAME>
(2E,4Z)-3,8,8,8-tetrakis(chloranyl)-7-(4-chlorophenyl)-2-oxidanyl-6-oxidanylidene-octa-2,4-dienoic acid

> <PUBCHEM_IUPAC_TRADITIONAL_NAME>
(2E,4Z)-3,8,8,8-tetrachloro-7-(4-chlorophenyl)-2-hydroxy-6-keto-octa-2,4-dienoic acid

> <PUBCHEM_IUPAC_INCHI>
InChI=1S/C14H9Cl5O4/c15-8-3-1-7(2-4-8)11(14(17,18)19)10(20)6-5-9(16)12(21)13(22)23/h1-6,11,21H,(H,22,23)/b6-5-,12-9+

> <PUBCHEM_IUPAC_INCHIKEY>
HXBWHTRCTIAYBX-ZCRLHDOISA-N

> <PUBCHEM_XLOGP3_AA>
4.7

> <PUBCHEM_EXACT_MASS>
417.891397

> <PUBCHEM_MOLECULAR_FORMULA>
C14H9Cl5O4

> <PUBCHEM_MOLECULAR_WEIGHT>
418.48386

> <PUBCHEM_OPENEYE_CAN_SMILES>
C1=CC(=CC=C1C(C(=O)C=CC(=C(C(=O)O)O)Cl)C(Cl)(Cl)Cl)Cl

> <PUBCHEM_OPENEYE_ISO_SMILES>
C1=CC(=CC=C1C(C(=O)/C=C\C(=C(\C(=O)O)/O)\Cl)C(Cl)(Cl)Cl)Cl

> <PUBCHEM_CACTVS_TPSA>
74.6

> <PUBCHEM_MONOISOTOPIC_WEIGHT>
415.894347

> <PUBCHEM_TOTAL_CHARGE>
0

> <PUBCHEM_HEAVY_ATOM_COUNT>
23

> <PUBCHEM_ATOM_DEF_STEREO_COUNT>
0

> <PUBCHEM_ATOM_UDEF_STEREO_COUNT>
1

> <PUBCHEM_BOND_DEF_STEREO_COUNT>
2

> <PUBCHEM_BOND_UDEF_STEREO_COUNT>
0

> <PUBCHEM_ISOTOPIC_ATOM_COUNT>
0

> <PUBCHEM_COMPONENT_COUNT>
1

> <PUBCHEM_CACTVS_TAUTO_COUNT>
7

> <PUBCHEM_COORDINATE_TYPE>
1
5
255

> <PUBCHEM_BONDANNOTATIONS>
10  24  3
11  14  8
11  15  8
14  16  8
15  17  8
16  19  8
17  19  8

$$$$

