9543349
  -OEChem-07051213113D

 36 40  0     1  0  0  0  0  0999 V2000
    3.9789   -2.0459   -0.0850 O   0  0  0  0  0  0  0  0  0  0  0  0
    4.4901    0.2128   -1.5410 O   0  0  0  0  0  0  0  0  0  0  0  0
   -0.7142   -0.1507    0.0992 C   0  0  0  0  0  0  0  0  0  0  0  0
    2.0720   -0.5724    0.3038 C   0  0  0  0  0  0  0  0  0  0  0  0
    1.5607    0.7474    0.2843 C   0  0  0  0  0  0  0  0  0  0  0  0
    0.1547    0.9709    0.1699 C   0  0  0  0  0  0  0  0  0  0  0  0
    3.5639   -0.8045    0.4785 C   0  0  2  0  0  0  0  0  0  0  0  0
   -2.1227    0.0224   -0.0132 C   0  0  0  0  0  0  0  0  0  0  0  0
   -0.1906   -1.4635    0.1433 C   0  0  0  0  0  0  0  0  0  0  0  0
    4.4120    0.3281   -0.1209 C   0  0  2  0  0  0  0  0  0  0  0  0
    1.1895   -1.6571    0.2505 C   0  0  0  0  0  0  0  0  0  0  0  0
   -2.6779    1.3196   -0.0618 C   0  0  0  0  0  0  0  0  0  0  0  0
   -2.9824   -1.1015   -0.0767 C   0  0  0  0  0  0  0  0  0  0  0  0
    2.5291    1.8598    0.4044 C   0  0  0  0  0  0  0  0  0  0  0  0
   -0.4447    2.2505    0.1118 C   0  0  0  0  0  0  0  0  0  0  0  0
    3.8391    1.6721    0.1930 C   0  0  0  0  0  0  0  0  0  0  0  0
   -1.0561   -2.5637    0.0813 C   0  0  0  0  0  0  0  0  0  0  0  0
   -1.8266    2.4225    0.0001 C   0  0  0  0  0  0  0  0  0  0  0  0
   -2.4338   -2.3861   -0.0275 C   0  0  0  0  0  0  0  0  0  0  0  0
   -4.0672    1.4807   -0.1725 C   0  0  0  0  0  0  0  0  0  0  0  0
   -4.3677   -0.9123   -0.1870 C   0  0  0  0  0  0  0  0  0  0  0  0
   -4.9060    0.3710   -0.2345 C   0  0  0  0  0  0  0  0  0  0  0  0
    3.7445   -0.8589    1.5605 H   0  0  0  0  0  0  0  0  0  0  0  0
    5.4358    0.2568    0.2636 H   0  0  0  0  0  0  0  0  0  0  0  0
    1.5824   -2.6714    0.3012 H   0  0  0  0  0  0  0  0  0  0  0  0
    2.1781    2.8553    0.6458 H   0  0  0  0  0  0  0  0  0  0  0  0
    0.1547    3.1566    0.1456 H   0  0  0  0  0  0  0  0  0  0  0  0
    4.5170    2.5187    0.2496 H   0  0  0  0  0  0  0  0  0  0  0  0
   -0.6648   -3.5788    0.1158 H   0  0  0  0  0  0  0  0  0  0  0  0
   -2.2248    3.4344   -0.0393 H   0  0  0  0  0  0  0  0  0  0  0  0
   -3.0728   -3.2655   -0.0739 H   0  0  0  0  0  0  0  0  0  0  0  0
   -4.5087    2.4744   -0.2114 H   0  0  0  0  0  0  0  0  0  0  0  0
   -5.0416   -1.7651   -0.2368 H   0  0  0  0  0  0  0  0  0  0  0  0
    4.9250   -2.1547    0.1120 H   0  0  0  0  0  0  0  0  0  0  0  0
   -5.9802    0.5065   -0.3200 H   0  0  0  0  0  0  0  0  0  0  0  0
    4.8212   -0.6790   -1.7425 H   0  0  0  0  0  0  0  0  0  0  0  0
  1  7  1  0  0  0  0
  1 34  1  0  0  0  0
  2 10  1  0  0  0  0
  2 36  1  0  0  0  0
  3  6  2  0  0  0  0
  3  8  1  0  0  0  0
  3  9  1  0  0  0  0
  4  5  2  0  0  0  0
  4  7  1  0  0  0  0
  4 11  1  0  0  0  0
  5  6  1  0  0  0  0
  5 14  1  0  0  0  0
  6 15  1  0  0  0  0
  7 10  1  0  0  0  0
  7 23  1  0  0  0  0
  8 12  1  0  0  0  0
  8 13  2  0  0  0  0
  9 11  2  0  0  0  0
  9 17  1  0  0  0  0
 10 16  1  0  0  0  0
 10 24  1  0  0  0  0
 11 25  1  0  0  0  0
 12 18  1  0  0  0  0
 12 20  2  0  0  0  0
 13 19  1  0  0  0  0
 13 21  1  0  0  0  0
 14 16  2  0  0  0  0
 14 26  1  0  0  0  0
 15 18  2  0  0  0  0
 15 27  1  0  0  0  0
 16 28  1  0  0  0  0
 17 19  2  0  0  0  0
 17 29  1  0  0  0  0
 18 30  1  0  0  0  0
 19 31  1  0  0  0  0
 20 22  1  0  0  0  0
 20 32  1  0  0  0  0
 21 22  2  0  0  0  0
 21 33  1  0  0  0  0
 22 35  1  0  0  0  0
M  END
> <PUBCHEM_COMPOUND_CID>
9543349

> <PUBCHEM_CONFORMER_RMSD>
0.6

> <PUBCHEM_CONFORMER_DIVERSEORDER>
1
2

> <PUBCHEM_MMFF94_PARTIAL_CHARGES>
28
1 -0.68
10 0.42
11 -0.15
14 -0.18
15 -0.15
16 -0.29
17 -0.15
18 -0.15
19 -0.15
2 -0.68
20 -0.15
21 -0.15
22 -0.15
25 0.15
26 0.15
27 0.15
28 0.15
29 0.15
30 0.15
31 0.15
32 0.15
33 0.15
34 0.4
35 0.15
36 0.4
4 -0.14
5 0.03
7 0.42

> <PUBCHEM_EFFECTIVE_ROTOR_COUNT>
0.4

> <PUBCHEM_PHARMACOPHORE_FEATURES>
9
1 1 acceptor
1 1 donor
1 2 acceptor
1 2 donor
6 3 4 5 6 9 11 rings
6 3 6 8 12 15 18 rings
6 3 8 9 13 17 19 rings
6 4 5 7 10 14 16 rings
6 8 12 13 20 21 22 rings

> <PUBCHEM_HEAVY_ATOM_COUNT>
22

> <PUBCHEM_ATOM_DEF_STEREO_COUNT>
2

> <PUBCHEM_ATOM_UDEF_STEREO_COUNT>
0

> <PUBCHEM_BOND_DEF_STEREO_COUNT>
0

> <PUBCHEM_BOND_UDEF_STEREO_COUNT>
0

> <PUBCHEM_ISOTOPIC_ATOM_COUNT>
0

> <PUBCHEM_COMPONENT_COUNT>
1

> <PUBCHEM_CACTVS_TAUTO_COUNT>
1

> <PUBCHEM_CONFORMER_ID>
00919EB500000001

> <PUBCHEM_MMFF94_ENERGY>
75.5959

> <PUBCHEM_FEATURE_SELFOVERLAP>
45.83

> <PUBCHEM_SHAPE_FINGERPRINT>
10498660 4 18412830191659935789
10616163 171 18337671906196592270
10693767 8 18042992925088505735
10759866 29 18131350834388489082
10863032 1 18409732841592157651
10906281 52 18337939187034078005
10967382 1 18410859866970433385
1100329 8 17328020387388346489
11112241 14 16446464537143468633
11458722 379 18411135839972614541
11578080 2 16879929421493138339
12011746 2 18410579474757985205
12173636 292 18339650030662469757
12236239 1 17775288257562149576
12403259 226 18338805623044315768
12403814 3 17489594467488711565
12788726 201 17968651730618277752
12954195 1 18115852157301737492
13140716 1 18339653260456803450
13224815 77 18409451366800297232
13583140 156 14129046028394487846
138480 1 17257656045890173547
13862211 1 18410301281041635163
14790565 3 18265046024041383889
14866123 147 17178265791636995746
15196674 1 18410858763369443145
15442244 35 18339647844919754810
15536298 74 18335143072449684368
16752209 62 18410864290638964361
16945 1 18338525255952428571
17492 89 18411983550711977594
17804303 29 18335701615888070177
1813 80 17275108314283698444
19591789 44 18339081600272554819
200 152 17894354371575763529
20510252 161 18334015012258902593
20775438 99 16527274175773605231
21267235 1 18410849954434015891
21279426 13 18337392767761069341
23227448 37 18336550408546559463
2334 1 18338803286460358851
23366157 5 17841991388354569587
23402539 116 18335430044847267095
23559900 14 18335143072987877992
238 59 16331921126924809925
2748010 2 18193281784273404283
2871803 45 18412552019634252053
3004659 81 18271241725167070094
335352 9 18338519767005394910
34934 24 18338806606412043362
350125 39 18339643459378408768
3680242 22 18268995469238071939
4214541 1 18410576192764745313
4280585 95 17396974034812307870
4409770 3 15683098306130677726
474 4 17418086582093851716
495365 180 17386018221652587832
5104073 3 18411140242271908883
6034566 193 15837015120824567860
69090 78 18409453583013783043
7097593 13 17842298126708574666
9709674 26 18408319977972911454

> <PUBCHEM_SHAPE_MULTIPOLES>
441.01
8.93
2.76
0.73
1.84
0.26
0.11
-0.57
1.32
-0.59
-0.13
0.42
-0.02
0.07

> <PUBCHEM_SHAPE_SELFOVERLAP>
1025.882

> <PUBCHEM_SHAPE_VOLUME>
224.3

> <PUBCHEM_COORDINATE_TYPE>
2
5
10

$$$$

