442873
  -OEChem-07051213003D

 45 49  0     1  0  0  0  0  0999 V2000
   -0.0002   -0.0760    0.0028 O   0  0  0  0  0  0  0  0  0  0  0  0
    4.5753   -1.5293   -1.6998 O   0  0  0  0  0  0  0  0  0  0  0  0
   -4.5785   -1.5228    1.7032 O   0  0  0  0  0  0  0  0  0  0  0  0
    6.1130   -1.2863    0.1399 O   0  0  0  0  0  0  0  0  0  0  0  0
   -6.1131   -1.2862   -0.1398 O   0  0  0  0  0  0  0  0  0  0  0  0
    0.7422    2.1803    0.1743 C   0  0  2  0  0  0  0  0  0  0  0  0
   -0.7416    2.1798   -0.1780 C   0  0  2  0  0  0  0  0  0  0  0  0
    0.9176    0.7641    0.7325 C   0  0  2  0  0  0  0  0  0  0  0  0
   -0.9166    0.7615   -0.7314 C   0  0  2  0  0  0  0  0  0  0  0  0
    1.1469    3.2700    1.1572 C   0  0  0  0  0  0  0  0  0  0  0  0
   -1.1459    3.2657   -1.1655 C   0  0  0  0  0  0  0  0  0  0  0  0
    2.3211    0.2254    0.6077 C   0  0  0  0  0  0  0  0  0  0  0  0
   -2.3204    0.2234   -0.6069 C   0  0  0  0  0  0  0  0  0  0  0  0
    2.7217   -0.4104   -0.5722 C   0  0  0  0  0  0  0  0  0  0  0  0
   -2.7229   -0.4080    0.5745 C   0  0  0  0  0  0  0  0  0  0  0  0
    3.2218    0.3657    1.6807 C   0  0  0  0  0  0  0  0  0  0  0  0
   -3.2194    0.3599   -1.6818 C   0  0  0  0  0  0  0  0  0  0  0  0
    4.0150   -0.8865   -0.6391 C   0  0  0  0  0  0  0  0  0  0  0  0
   -4.0164   -0.8839    0.6412 C   0  0  0  0  0  0  0  0  0  0  0  0
    4.5262   -0.1256    1.5868 C   0  0  0  0  0  0  0  0  0  0  0  0
   -4.5239   -0.1307   -1.5884 C   0  0  0  0  0  0  0  0  0  0  0  0
    4.8931   -0.7479    0.4113 C   0  0  0  0  0  0  0  0  0  0  0  0
   -4.8927   -0.7489   -0.4113 C   0  0  0  0  0  0  0  0  0  0  0  0
    5.9048   -1.7790   -1.1994 C   0  0  0  0  0  0  0  0  0  0  0  0
   -5.9071   -1.7743    1.2014 C   0  0  0  0  0  0  0  0  0  0  0  0
    1.3318    2.3010   -0.7454 H   0  0  0  0  0  0  0  0  0  0  0  0
   -1.3314    2.3037    0.7410 H   0  0  0  0  0  0  0  0  0  0  0  0
    0.5966    0.7124    1.7811 H   0  0  0  0  0  0  0  0  0  0  0  0
   -0.5941    0.7059   -1.7793 H   0  0  0  0  0  0  0  0  0  0  0  0
    2.2145    3.2115    1.3903 H   0  0  0  0  0  0  0  0  0  0  0  0
    0.9549    4.2632    0.7397 H   0  0  0  0  0  0  0  0  0  0  0  0
    0.5908    3.1875    2.0971 H   0  0  0  0  0  0  0  0  0  0  0  0
   -0.9538    4.2606   -0.7517 H   0  0  0  0  0  0  0  0  0  0  0  0
   -0.5896    3.1795   -2.1049 H   0  0  0  0  0  0  0  0  0  0  0  0
   -2.2135    3.2065   -1.3984 H   0  0  0  0  0  0  0  0  0  0  0  0
    2.0539   -0.5249   -1.4193 H   0  0  0  0  0  0  0  0  0  0  0  0
   -2.0566   -0.5195    1.4230 H   0  0  0  0  0  0  0  0  0  0  0  0
    2.9087    0.8600    2.5971 H   0  0  0  0  0  0  0  0  0  0  0  0
   -2.9046    0.8510   -2.5995 H   0  0  0  0  0  0  0  0  0  0  0  0
    5.2208   -0.0185    2.4121 H   0  0  0  0  0  0  0  0  0  0  0  0
   -5.2172   -0.0267   -2.4152 H   0  0  0  0  0  0  0  0  0  0  0  0
    6.6275   -1.2963   -1.8673 H   0  0  0  0  0  0  0  0  0  0  0  0
    6.0855   -2.8600   -1.2077 H   0  0  0  0  0  0  0  0  0  0  0  0
   -6.6309   -1.2893    1.8665 H   0  0  0  0  0  0  0  0  0  0  0  0
   -6.0878   -2.8553    1.2132 H   0  0  0  0  0  0  0  0  0  0  0  0
  1  8  1  0  0  0  0
  1  9  1  0  0  0  0
  2 18  1  0  0  0  0
  2 24  1  0  0  0  0
  3 19  1  0  0  0  0
  3 25  1  0  0  0  0
  4 22  1  0  0  0  0
  4 24  1  0  0  0  0
  5 23  1  0  0  0  0
  5 25  1  0  0  0  0
  6  7  1  0  0  0  0
  6  8  1  0  0  0  0
  6 10  1  0  0  0  0
  6 26  1  0  0  0  0
  7  9  1  0  0  0  0
  7 11  1  0  0  0  0
  7 27  1  0  0  0  0
  8 12  1  0  0  0  0
  8 28  1  0  0  0  0
  9 13  1  0  0  0  0
  9 29  1  0  0  0  0
 10 30  1  0  0  0  0
 10 31  1  0  0  0  0
 10 32  1  0  0  0  0
 11 33  1  0  0  0  0
 11 34  1  0  0  0  0
 11 35  1  0  0  0  0
 12 14  2  0  0  0  0
 12 16  1  0  0  0  0
 13 15  2  0  0  0  0
 13 17  1  0  0  0  0
 14 18  1  0  0  0  0
 14 36  1  0  0  0  0
 15 19  1  0  0  0  0
 15 37  1  0  0  0  0
 16 20  2  0  0  0  0
 16 38  1  0  0  0  0
 17 21  2  0  0  0  0
 17 39  1  0  0  0  0
 18 22  2  0  0  0  0
 19 23  2  0  0  0  0
 20 22  1  0  0  0  0
 20 40  1  0  0  0  0
 21 23  1  0  0  0  0
 21 41  1  0  0  0  0
 24 42  1  0  0  0  0
 24 43  1  0  0  0  0
 25 44  1  0  0  0  0
 25 45  1  0  0  0  0
M  END
> <PUBCHEM_COMPOUND_CID>
442873

> <PUBCHEM_CONFORMER_RMSD>
0.8

> <PUBCHEM_CONFORMER_DIVERSEORDER>
1
17
13
16
3
9
10
11
14
7
15
12
2
8
6
5
4

> <PUBCHEM_MMFF94_PARTIAL_CHARGES>
27
1 -0.56
12 -0.14
13 -0.14
14 -0.15
15 -0.15
16 -0.15
17 -0.15
18 0.08
19 0.08
2 -0.36
20 -0.15
21 -0.15
22 0.08
23 0.08
24 0.56
25 0.56
3 -0.36
36 0.15
37 0.15
38 0.15
39 0.15
4 -0.36
40 0.15
41 0.15
5 -0.36
8 0.42
9 0.42

> <PUBCHEM_EFFECTIVE_ROTOR_COUNT>
4.2

> <PUBCHEM_PHARMACOPHORE_FEATURES>
10
1 1 acceptor
1 2 acceptor
1 3 acceptor
1 4 acceptor
1 5 acceptor
5 1 6 7 8 9 rings
5 2 4 18 22 24 rings
5 3 5 19 23 25 rings
6 12 14 16 18 20 22 rings
6 13 15 17 19 21 23 rings

> <PUBCHEM_HEAVY_ATOM_COUNT>
25

> <PUBCHEM_ATOM_DEF_STEREO_COUNT>
4

> <PUBCHEM_ATOM_UDEF_STEREO_COUNT>
0

> <PUBCHEM_BOND_DEF_STEREO_COUNT>
0

> <PUBCHEM_BOND_UDEF_STEREO_COUNT>
0

> <PUBCHEM_ISOTOPIC_ATOM_COUNT>
0

> <PUBCHEM_COMPONENT_COUNT>
1

> <PUBCHEM_CACTVS_TAUTO_COUNT>
1

> <PUBCHEM_CONFORMER_ID>
0006C1F900000001

> <PUBCHEM_MMFF94_ENERGY>
67.4706

> <PUBCHEM_FEATURE_SELFOVERLAP>
51.054

> <PUBCHEM_SHAPE_FINGERPRINT>
10319926 262 4967618294847359092
10369192 42 17340973283147346700
10595046 47 15698001846625968206
10692045 39 7709195490633410300
11128504 68 14405189464832297667
11796584 16 17846224370803346827
11991303 11 17906722957986596317
12107183 9 15432258785307074722
12236239 1 16732988600661950455
12403259 118 5689585117646492019
12596602 18 16515409534365124267
12633257 1 15719112452598839995
13103583 49 15864074264622795806
13135754 10 18189607409956638577
13402501 40 18410569587111117742
13533116 47 18116151074356583921
13540713 4 18266763361818705565
13544653 18 18113341916051652296
13673619 4 18410570686622069921
13685833 64 18408038498585130427
13690498 29 17418092079926764807
13782708 43 18189335839770592358
13914758 101 17240766220717256473
14123256 34 18412537708645206579
14251757 5 16987987306894622611
14251764 30 18410571786133964039
14341114 328 15140962833281891106
14528608 73 15267339622147991630
14849402 71 15792597162229621818
14950920 106 15647349514818894287
15183329 4 15913332402980666031
17138139 8 17059779909982104914
1813 80 17968082132055326108
18222031 100 18408606941690596203
19141452 34 17676778586528379039
19301676 85 16242076806046034462
193927 3 18410854360622029641
20028762 73 18115592526582221791
21065198 48 15647344000033225003
21859007 373 16806988048457397105
22182313 1 18116459062019336608
2297311 6 18272931643745898319
23016692 55 18131632279279245163
23175994 123 18412267216485336885
23559900 14 17273981246952619437
23845131 108 16886365228044286009
2838139 119 12967132726570375902
2916195 48 10087636000937690863
3004659 81 17561083592239672526
314173 85 18409732867583793393
314194 84 18260833670013333510
329604 57 18201997729248628836
3737641 26 17823688862317320798
437815 12 18409730656081726777
465052 167 18336540530106233623
5104073 3 17750524047622618530
5758199 1 16443643281576541978
6823239 73 17774730740584401505
7495541 125 17917715660323053845
7918774 8 18410847763547170115
7970288 3 18410854364912417251
8863177 126 17986385599560825419

> <PUBCHEM_SHAPE_MULTIPOLES>
485.14
14.43
2.61
1.62
0.01
2.61
0
-13.25
-0.01
-0.01
0
0.01
-0.17
2.55

> <PUBCHEM_SHAPE_SELFOVERLAP>
1084.277

> <PUBCHEM_SHAPE_VOLUME>
260.3

> <PUBCHEM_COORDINATE_TYPE>
2
5
10

$$$$

