8052
  -OEChem-07051213033D

 20 19  0     0  0  0  0  0  0999 V2000
   -1.5830   -0.8268   -0.1196 O   0  0  0  0  0  0  0  0  0  0  0  0
   -2.8823    1.0655    0.1822 O   0  0  0  0  0  0  0  0  0  0  0  0
    2.1605   -0.2586   -0.0627 C   0  0  0  0  0  0  0  0  0  0  0  0
    0.8064   -0.9777   -0.1739 C   0  0  0  0  0  0  0  0  0  0  0  0
    2.2575    0.8347   -1.1294 C   0  0  0  0  0  0  0  0  0  0  0  0
    2.3850    0.3498    1.3222 C   0  0  0  0  0  0  0  0  0  0  0  0
   -0.3945   -0.0523   -0.0188 C   0  0  0  0  0  0  0  0  0  0  0  0
   -2.7496   -0.1346   -0.0001 C   0  0  0  0  0  0  0  0  0  0  0  0
    2.9497   -0.9979   -0.2471 H   0  0  0  0  0  0  0  0  0  0  0  0
    0.7484   -1.7742    0.5793 H   0  0  0  0  0  0  0  0  0  0  0  0
    0.7387   -1.4909   -1.1422 H   0  0  0  0  0  0  0  0  0  0  0  0
    3.2795    1.2284   -1.1702 H   0  0  0  0  0  0  0  0  0  0  0  0
    1.5963    1.6821   -0.9225 H   0  0  0  0  0  0  0  0  0  0  0  0
    2.0180    0.4402   -2.1225 H   0  0  0  0  0  0  0  0  0  0  0  0
    1.6937    1.1720    1.5315 H   0  0  0  0  0  0  0  0  0  0  0  0
    3.4021    0.7490    1.4015 H   0  0  0  0  0  0  0  0  0  0  0  0
    2.2633   -0.4077    2.1034 H   0  0  0  0  0  0  0  0  0  0  0  0
   -0.3797    0.4426    0.9578 H   0  0  0  0  0  0  0  0  0  0  0  0
   -0.4094    0.7053   -0.8088 H   0  0  0  0  0  0  0  0  0  0  0  0
   -3.5872   -0.8426   -0.0955 H   0  0  0  0  0  0  0  0  0  0  0  0
  1  7  1  0  0  0  0
  1  8  1  0  0  0  0
  2  8  2  0  0  0  0
  3  4  1  0  0  0  0
  3  5  1  0  0  0  0
  3  6  1  0  0  0  0
  3  9  1  0  0  0  0
  4  7  1  0  0  0  0
  4 10  1  0  0  0  0
  4 11  1  0  0  0  0
  5 12  1  0  0  0  0
  5 13  1  0  0  0  0
  5 14  1  0  0  0  0
  6 15  1  0  0  0  0
  6 16  1  0  0  0  0
  6 17  1  0  0  0  0
  7 18  1  0  0  0  0
  7 19  1  0  0  0  0
  8 20  1  0  0  0  0
M  END
> <PUBCHEM_COMPOUND_CID>
8052

> <PUBCHEM_CONFORMER_RMSD>
0.6

> <PUBCHEM_CONFORMER_DIVERSEORDER>
1
9
7
5
8
3
6
4
2

> <PUBCHEM_MMFF94_PARTIAL_CHARGES>
5
1 -0.43
2 -0.57
20 0.06
7 0.28
8 0.66

> <PUBCHEM_EFFECTIVE_ROTOR_COUNT>
4

> <PUBCHEM_PHARMACOPHORE_FEATURES>
2
1 2 acceptor
3 3 5 6 hydrophobe

> <PUBCHEM_HEAVY_ATOM_COUNT>
8

> <PUBCHEM_ATOM_DEF_STEREO_COUNT>
0

> <PUBCHEM_ATOM_UDEF_STEREO_COUNT>
0

> <PUBCHEM_BOND_DEF_STEREO_COUNT>
0

> <PUBCHEM_BOND_UDEF_STEREO_COUNT>
0

> <PUBCHEM_ISOTOPIC_ATOM_COUNT>
0

> <PUBCHEM_COMPONENT_COUNT>
1

> <PUBCHEM_CACTVS_TAUTO_COUNT>
1

> <PUBCHEM_CONFORMER_ID>
00001F7400000001

> <PUBCHEM_MMFF94_ENERGY>
8.6151

> <PUBCHEM_FEATURE_SELFOVERLAP>
10.148

> <PUBCHEM_SHAPE_FINGERPRINT>
12897270 3 16660359285761618887
12932741 1 17168138996981000294
12932764 1 17821444651531044327
14390081 3 18040157322721549305
21040471 1 18335421223201030534
29004967 10 13758358864523477214
3248919 1 18272655636283823143
5460574 1 9871750191464193047

> <PUBCHEM_SHAPE_MULTIPOLES>
152.9
4.81
1.03
1
2.63
0.26
-0.23
0.77
-0.93
-0.42
0.08
-0.4
-0.08
-0.55

> <PUBCHEM_SHAPE_SELFOVERLAP>
274.368

> <PUBCHEM_SHAPE_VOLUME>
98.9

> <PUBCHEM_COORDINATE_TYPE>
2
5
10

$$$$

