7075
  -OEChem-06261201443D

 24 25  0     0  0  0  0  0  0999 V2000
    3.0564   -1.9870   -0.0013 O   0  0  0  0  0  0  0  0  0  0  0  0
    4.2499    0.5234    0.0013 O   0  0  0  0  0  0  0  0  0  0  0  0
    0.1123    0.1797   -0.0009 C   0  0  0  0  0  0  0  0  0  0  0  0
   -1.3300    0.0646   -0.0006 C   0  0  0  0  0  0  0  0  0  0  0  0
    0.9036   -0.9690   -0.0015 C   0  0  0  0  0  0  0  0  0  0  0  0
    0.7112    1.4393    0.0003 C   0  0  0  0  0  0  0  0  0  0  0  0
   -2.0243    0.0074    1.2078 C   0  0  0  0  0  0  0  0  0  0  0  0
   -2.0260    0.0104   -1.2082 C   0  0  0  0  0  0  0  0  0  0  0  0
    2.2940   -0.8579   -0.0008 C   0  0  0  0  0  0  0  0  0  0  0  0
    2.1017    1.5504    0.0012 C   0  0  0  0  0  0  0  0  0  0  0  0
    2.8931    0.4017    0.0006 C   0  0  0  0  0  0  0  0  0  0  0  0
   -3.4148   -0.1040    1.2086 C   0  0  0  0  0  0  0  0  0  0  0  0
   -3.4164   -0.1009   -1.2074 C   0  0  0  0  0  0  0  0  0  0  0  0
   -4.1108   -0.1581    0.0010 C   0  0  0  0  0  0  0  0  0  0  0  0
    0.4463   -1.9563   -0.0023 H   0  0  0  0  0  0  0  0  0  0  0  0
    0.1090    2.3448    0.0010 H   0  0  0  0  0  0  0  0  0  0  0  0
   -1.4973    0.0482    2.1582 H   0  0  0  0  0  0  0  0  0  0  0  0
   -1.5003    0.0537   -2.1593 H   0  0  0  0  0  0  0  0  0  0  0  0
    2.5553    2.5379    0.0022 H   0  0  0  0  0  0  0  0  0  0  0  0
   -3.9556   -0.1486    2.1494 H   0  0  0  0  0  0  0  0  0  0  0  0
   -3.9585   -0.1431   -2.1475 H   0  0  0  0  0  0  0  0  0  0  0  0
   -5.1935   -0.2448    0.0016 H   0  0  0  0  0  0  0  0  0  0  0  0
    3.9930   -1.7236   -0.0007 H   0  0  0  0  0  0  0  0  0  0  0  0
    4.4833    1.4676    0.0022 H   0  0  0  0  0  0  0  0  0  0  0  0
  1  9  1  0  0  0  0
  1 23  1  0  0  0  0
  2 11  1  0  0  0  0
  2 24  1  0  0  0  0
  3  4  1  0  0  0  0
  3  5  2  0  0  0  0
  3  6  1  0  0  0  0
  4  7  2  0  0  0  0
  4  8  1  0  0  0  0
  5  9  1  0  0  0  0
  5 15  1  0  0  0  0
  6 10  2  0  0  0  0
  6 16  1  0  0  0  0
  7 12  1  0  0  0  0
  7 17  1  0  0  0  0
  8 13  2  0  0  0  0
  8 18  1  0  0  0  0
  9 11  2  0  0  0  0
 10 11  1  0  0  0  0
 10 19  1  0  0  0  0
 12 14  2  0  0  0  0
 12 20  1  0  0  0  0
 13 14  1  0  0  0  0
 13 21  1  0  0  0  0
 14 22  1  0  0  0  0
M  END
> <PUBCHEM_COMPOUND_CID>
7075

> <PUBCHEM_CONFORMER_RMSD>
0.4

> <PUBCHEM_CONFORMER_DIVERSEORDER>
1
2

> <PUBCHEM_MMFF94_PARTIAL_CHARGES>
22
1 -0.53
10 -0.15
11 0.08
12 -0.15
13 -0.15
14 -0.15
15 0.15
16 0.15
17 0.15
18 0.15
19 0.15
2 -0.53
20 0.15
21 0.15
22 0.15
23 0.45
24 0.45
5 -0.15
6 -0.15
7 -0.15
8 -0.15
9 0.08

> <PUBCHEM_EFFECTIVE_ROTOR_COUNT>
1

> <PUBCHEM_PHARMACOPHORE_FEATURES>
4
1 1 donor
1 2 donor
6 3 5 6 9 10 11 rings
6 4 7 8 12 13 14 rings

> <PUBCHEM_HEAVY_ATOM_COUNT>
14

> <PUBCHEM_ATOM_DEF_STEREO_COUNT>
0

> <PUBCHEM_ATOM_UDEF_STEREO_COUNT>
0

> <PUBCHEM_BOND_DEF_STEREO_COUNT>
0

> <PUBCHEM_BOND_UDEF_STEREO_COUNT>
0

> <PUBCHEM_ISOTOPIC_ATOM_COUNT>
0

> <PUBCHEM_COMPONENT_COUNT>
1

> <PUBCHEM_CACTVS_TAUTO_COUNT>
10

> <PUBCHEM_CONFORMER_ID>
00001BA300000001

> <PUBCHEM_MMFF94_ENERGY>
42.4909

> <PUBCHEM_FEATURE_SELFOVERLAP>
20.302

> <PUBCHEM_SHAPE_FINGERPRINT>
10219947 1 18408039623839921918
10608611 8 17918280831080789029
11471102 20 18411982455578816524
12236239 1 17676486138163076777
124424 183 17560812021457566024
12932764 1 17749113291850826809
13296908 3 17988924495935442259
13538477 17 17385731257570600607
13581323 91 15195293001508593473
14144814 61 17967249801837053543
14251717 144 18409452483391619326
14576447 43 18115039489001070415
14993402 34 17967534557957853524
15219456 202 17988925574061754893
15309172 13 18409164394286605087
15375462 189 17967812743031794032
15653759 3 17203610371838225377
15669948 3 16443353031258893645
15775835 57 17530960280789723993
16945 1 18410575059289089412
17844478 74 17989485225564929437
18175812 5 17632295627486522037
18186145 218 18335417967415132815
19049666 15 17702675495687517749
19422 9 17749388178426833199
200 152 18261398832302089085
20201158 50 18130787858306373027
20279233 1 17775566433566172587
204376 136 18194967344785208152
20645477 70 18339932617962155815
20715346 28 17775002358463084393
20871998 22 18044650043518980246
21639500 275 18265060145334358989
21730867 7 18272087184345257962
2255824 54 18260829255061363556
23402539 116 16128667318542215319
23402655 69 18408891758510877909
23557571 272 16917352545137193612
23559900 14 16988570147194622498
2748010 2 18194692690195250348
474 4 17752499663353386680
581208 293 18409733937146467192
77492 1 17676487237616669285

> <PUBCHEM_SHAPE_MULTIPOLES>
276.37
7.22
1.3
1.04
0.53
0.12
0
0.55
0
-1.47
0
1.17
0.01
0

> <PUBCHEM_SHAPE_SELFOVERLAP>
604.23

> <PUBCHEM_SHAPE_VOLUME>
151

> <PUBCHEM_COORDINATE_TYPE>
2
5
10

$$$$

