17395870
  -OEChem-06241222522D

 45 47  0     1  0  0  0  0  0999 V2000
   10.6020    1.6076    0.0000 F   0  0  0  0  0  0  0  0  0  0  0  0
   10.3808    0.2108    0.0000 F   0  0  0  0  0  0  0  0  0  0  0  0
    9.2052    1.8288    0.0000 F   0  0  0  0  0  0  0  0  0  0  0  0
    4.2788    1.3300    0.0000 O   0  0  0  0  0  0  0  0  0  0  0  0
    6.3479   -1.5179    0.0000 O   0  0  0  0  0  0  0  0  0  0  0  0
    5.5388    0.0699    0.0000 N   0  0  0  0  0  0  0  0  0  0  0  0
    4.5878   -1.2391    0.0000 N   0  0  0  0  0  0  0  0  0  0  0  0
    7.2614    0.2509    0.0000 N   0  0  3  0  0  0  0  0  0  0  0  0
    4.0000   -0.4301    0.0000 C   0  0  0  0  0  0  0  0  0  0  0  0
    3.5000   -1.2961    0.0000 C   0  0  0  0  0  0  0  0  0  0  0  0
    3.5000    0.4359    0.0000 C   0  0  0  0  0  0  0  0  0  0  0  0
    2.5000    0.4359    0.0000 C   0  0  0  0  0  0  0  0  0  0  0  0
    2.5000   -1.2961    0.0000 C   0  0  0  0  0  0  0  0  0  0  0  0
    4.5878    0.3789    0.0000 C   0  0  0  0  0  0  0  0  0  0  0  0
    2.0000   -0.4301    0.0000 C   0  0  0  0  0  0  0  0  0  0  0  0
    8.9840    0.4320    0.0000 C   0  0  3  0  0  0  0  0  0  0  0  0
    6.3479    0.6577    0.0000 C   0  0  0  0  0  0  0  0  0  0  0  0
    8.0704    0.8387    0.0000 C   0  0  0  0  0  0  0  0  0  0  0  0
    7.3659   -0.7436    0.0000 C   0  0  0  0  0  0  0  0  0  0  0  0
    9.0885   -0.5625    0.0000 C   0  0  0  0  0  0  0  0  0  0  0  0
    8.2795   -1.1503    0.0000 C   0  0  0  0  0  0  0  0  0  0  0  0
    5.5388   -0.9301    0.0000 C   0  0  0  0  0  0  0  0  0  0  0  0
    9.7930    1.0198    0.0000 C   0  0  0  0  0  0  0  0  0  0  0  0
    4.0826    0.6480    0.0000 H   0  0  0  0  0  0  0  0  0  0  0  0
    3.3923    1.0465    0.0000 H   0  0  0  0  0  0  0  0  0  0  0  0
    3.3923   -1.9067    0.0000 H   0  0  0  0  0  0  0  0  0  0  0  0
    4.0826   -1.5082    0.0000 H   0  0  0  0  0  0  0  0  0  0  0  0
    2.6077    1.0465    0.0000 H   0  0  0  0  0  0  0  0  0  0  0  0
    1.9174    0.6480    0.0000 H   0  0  0  0  0  0  0  0  0  0  0  0
    1.9174   -1.5082    0.0000 H   0  0  0  0  0  0  0  0  0  0  0  0
    2.6077   -1.9067    0.0000 H   0  0  0  0  0  0  0  0  0  0  0  0
    1.5250   -0.0316    0.0000 H   0  0  0  0  0  0  0  0  0  0  0  0
    1.5250   -0.8286    0.0000 H   0  0  0  0  0  0  0  0  0  0  0  0
    4.3962   -1.8288    0.0000 H   0  0  0  0  0  0  0  0  0  0  0  0
    9.5504    0.1798    0.0000 H   0  0  0  0  0  0  0  0  0  0  0  0
    6.6946    1.1717    0.0000 H   0  0  0  0  0  0  0  0  0  0  0  0
    5.9019    1.0884    0.0000 H   0  0  0  0  0  0  0  0  0  0  0  0
    8.4171    1.3527    0.0000 H   0  0  0  0  0  0  0  0  0  0  0  0
    7.6244    1.2694    0.0000 H   0  0  0  0  0  0  0  0  0  0  0  0
    6.7474   -0.7003    0.0000 H   0  0  0  0  0  0  0  0  0  0  0  0
    7.2159   -1.3452    0.0000 H   0  0  0  0  0  0  0  0  0  0  0  0
    9.3603   -1.1198    0.0000 H   0  0  0  0  0  0  0  0  0  0  0  0
    9.6845   -0.3916    0.0000 H   0  0  0  0  0  0  0  0  0  0  0  0
    7.9328   -1.6643    0.0000 H   0  0  0  0  0  0  0  0  0  0  0  0
    8.7255   -1.5810    0.0000 H   0  0  0  0  0  0  0  0  0  0  0  0
  1 23  1  0  0  0  0
  2 23  1  0  0  0  0
  3 23  1  0  0  0  0
  4 14  2  0  0  0  0
  5 22  2  0  0  0  0
  6 14  1  0  0  0  0
  6 17  1  0  0  0  0
  6 22  1  0  0  0  0
  7  9  1  0  0  0  0
  7 22  1  0  0  0  0
  7 34  1  0  0  0  0
  8 17  1  0  0  0  0
  8 18  1  0  0  0  0
  8 19  1  0  0  0  0
  9 10  1  0  0  0  0
  9 11  1  0  0  0  0
  9 14  1  0  0  0  0
 10 13  1  0  0  0  0
 10 26  1  0  0  0  0
 10 27  1  0  0  0  0
 11 12  1  0  0  0  0
 11 24  1  0  0  0  0
 11 25  1  0  0  0  0
 12 15  1  0  0  0  0
 12 28  1  0  0  0  0
 12 29  1  0  0  0  0
 13 15  1  0  0  0  0
 13 30  1  0  0  0  0
 13 31  1  0  0  0  0
 15 32  1  0  0  0  0
 15 33  1  0  0  0  0
 16 18  1  0  0  0  0
 16 20  1  0  0  0  0
 16 23  1  0  0  0  0
 16 35  1  0  0  0  0
 17 36  1  0  0  0  0
 17 37  1  0  0  0  0
 18 38  1  0  0  0  0
 18 39  1  0  0  0  0
 19 21  1  0  0  0  0
 19 40  1  0  0  0  0
 19 41  1  0  0  0  0
 20 21  1  0  0  0  0
 20 42  1  0  0  0  0
 20 43  1  0  0  0  0
 21 44  1  0  0  0  0
 21 45  1  0  0  0  0
M  END
> <PUBCHEM_COMPOUND_CID>
17395870

> <PUBCHEM_COMPOUND_CANONICALIZED>
1

> <PUBCHEM_CACTVS_COMPLEXITY>
489

> <PUBCHEM_CACTVS_HBOND_ACCEPTOR>
6

> <PUBCHEM_CACTVS_HBOND_DONOR>
1

> <PUBCHEM_CACTVS_ROTATABLE_BOND>
2

> <PUBCHEM_CACTVS_SUBSKEYS>
AAADceBzMYAAAAAAAAAAAAAAAAAAAWAAAAA8QAAAAAAAAAAAAAAAHwAQAAAADYjBgBQBAAPAAAAIAAEQEAAAAAAAAAAAAAGIAACAQBIAgCAUAAAIFyKAAAEYiACOAAAAAAAAAAAAAAAAAAAAAAAAAAAAAA==

> <PUBCHEM_IUPAC_OPENEYE_NAME>
3-[[3-(trifluoromethyl)-1-piperidyl]methyl]-1,3-diazaspiro[4.5]decane-2,4-dione

> <PUBCHEM_IUPAC_CAS_NAME>
3-[[3-(trifluoromethyl)-1-piperidinyl]methyl]-1,3-diazaspiro[4.5]decane-2,4-dione

> <PUBCHEM_IUPAC_NAME>
3-[[3-(trifluoromethyl)piperidin-1-yl]methyl]-1,3-diazaspiro[4.5]decane-2,4-dione

> <PUBCHEM_IUPAC_SYSTEMATIC_NAME>
3-[[3-(trifluoromethyl)piperidin-1-yl]methyl]-1,3-diazaspiro[4.5]decane-2,4-dione

> <PUBCHEM_IUPAC_TRADITIONAL_NAME>
3-[[3-(trifluoromethyl)piperidino]methyl]-1,3-diazaspiro[4.5]decane-2,4-quinone

> <PUBCHEM_IUPAC_INCHI>
InChI=1S/C15H22F3N3O2/c16-15(17,18)11-5-4-8-20(9-11)10-21-12(22)14(19-13(21)23)6-2-1-3-7-14/h11H,1-10H2,(H,19,23)

> <PUBCHEM_IUPAC_INCHIKEY>
NTIMSIZZGCLFCT-UHFFFAOYSA-N

> <PUBCHEM_XLOGP3_AA>
2.7

> <PUBCHEM_EXACT_MASS>
333.166412

> <PUBCHEM_MOLECULAR_FORMULA>
C15H22F3N3O2

> <PUBCHEM_MOLECULAR_WEIGHT>
333.34929

> <PUBCHEM_OPENEYE_CAN_SMILES>
C1CCC2(CC1)C(=O)N(C(=O)N2)CN3CCCC(C3)C(F)(F)F

> <PUBCHEM_OPENEYE_ISO_SMILES>
C1CCC2(CC1)C(=O)N(C(=O)N2)CN3CCCC(C3)C(F)(F)F

> <PUBCHEM_CACTVS_TPSA>
52.6

> <PUBCHEM_MONOISOTOPIC_WEIGHT>
333.166412

> <PUBCHEM_TOTAL_CHARGE>
0

> <PUBCHEM_HEAVY_ATOM_COUNT>
23

> <PUBCHEM_ATOM_DEF_STEREO_COUNT>
0

> <PUBCHEM_ATOM_UDEF_STEREO_COUNT>
1

> <PUBCHEM_BOND_DEF_STEREO_COUNT>
0

> <PUBCHEM_BOND_UDEF_STEREO_COUNT>
0

> <PUBCHEM_ISOTOPIC_ATOM_COUNT>
0

> <PUBCHEM_COMPONENT_COUNT>
1

> <PUBCHEM_CACTVS_TAUTO_COUNT>
2

> <PUBCHEM_COORDINATE_TYPE>
1
5
255

> <PUBCHEM_BONDANNOTATIONS>
16  23  3

$$$$

