51090967
  -OEChem-06241223013D

 40 41  0     1  0  0  0  0  0999 V2000
    2.4817    0.1922    0.1504 O   0  0  0  0  0  0  0  0  0  0  0  0
   -2.0283    2.6899   -0.2472 O   0  0  0  0  0  0  0  0  0  0  0  0
   -4.0326   -1.8090   -0.5068 O   0  0  0  0  0  0  0  0  0  0  0  0
   -2.5146    0.6043   -1.1531 N   0  0  0  0  0  0  0  0  0  0  0  0
   -5.6127   -1.2906    1.1146 N   0  0  0  0  0  0  0  0  0  0  0  0
    4.4150   -2.0159   -0.7554 C   0  0  1  0  0  0  0  0  0  0  0  0
    4.7081   -1.0488    0.3539 C   0  0  1  0  0  0  0  0  0  0  0  0
    5.5979   -1.0980   -0.8534 C   0  0  0  0  0  0  0  0  0  0  0  0
    4.6426   -3.4649   -0.5317 C   0  0  0  0  0  0  0  0  0  0  0  0
    3.7846    0.1582    0.5351 C   0  0  0  0  0  0  0  0  0  0  0  0
    4.1514    1.3550    1.1055 C   0  0  0  0  0  0  0  0  0  0  0  0
    2.9998    2.1769    1.0694 C   0  0  0  0  0  0  0  0  0  0  0  0
    2.0114    1.4239    0.4791 C   0  0  0  0  0  0  0  0  0  0  0  0
    0.6204    1.8294    0.2103 C   0  0  0  0  0  0  0  0  0  0  0  0
   -0.3078    1.0396   -0.3495 C   0  0  0  0  0  0  0  0  0  0  0  0
   -1.6901    1.5543   -0.5649 C   0  0  0  0  0  0  0  0  0  0  0  0
   -3.8974    0.8452   -1.4674 C   0  0  0  0  0  0  0  0  0  0  0  0
   -4.8230    0.4740   -0.3169 C   0  0  0  0  0  0  0  0  0  0  0  0
   -4.7551   -0.9965    0.0642 C   0  0  0  0  0  0  0  0  0  0  0  0
   -5.7514   -2.6194    1.6638 C   0  0  0  0  0  0  0  0  0  0  0  0
    3.5782   -1.8297   -1.4170 H   0  0  0  0  0  0  0  0  0  0  0  0
    5.1107   -1.4510    1.2777 H   0  0  0  0  0  0  0  0  0  0  0  0
    6.5909   -1.5137   -0.7293 H   0  0  0  0  0  0  0  0  0  0  0  0
    5.5472   -0.2911   -1.5751 H   0  0  0  0  0  0  0  0  0  0  0  0
    3.7574   -3.9185   -0.0748 H   0  0  0  0  0  0  0  0  0  0  0  0
    4.8269   -3.9694   -1.4855 H   0  0  0  0  0  0  0  0  0  0  0  0
    5.4982   -3.6590    0.1240 H   0  0  0  0  0  0  0  0  0  0  0  0
    5.1254    1.6085    1.4996 H   0  0  0  0  0  0  0  0  0  0  0  0
    2.9103    3.1918    1.4311 H   0  0  0  0  0  0  0  0  0  0  0  0
    0.3676    2.8448    0.5061 H   0  0  0  0  0  0  0  0  0  0  0  0
   -0.0805    0.0223   -0.6508 H   0  0  0  0  0  0  0  0  0  0  0  0
   -4.1330    0.2517   -2.3573 H   0  0  0  0  0  0  0  0  0  0  0  0
   -4.0285    1.9028   -1.7206 H   0  0  0  0  0  0  0  0  0  0  0  0
   -4.5733    1.0661    0.5720 H   0  0  0  0  0  0  0  0  0  0  0  0
   -5.8575    0.7062   -0.5960 H   0  0  0  0  0  0  0  0  0  0  0  0
   -2.1415   -0.3145   -1.3741 H   0  0  0  0  0  0  0  0  0  0  0  0
   -6.1963   -0.5549    1.5019 H   0  0  0  0  0  0  0  0  0  0  0  0
   -4.8651   -3.2232    1.4541 H   0  0  0  0  0  0  0  0  0  0  0  0
   -5.8977   -2.5328    2.7430 H   0  0  0  0  0  0  0  0  0  0  0  0
   -6.6302   -3.0862    1.2120 H   0  0  0  0  0  0  0  0  0  0  0  0
  1 10  1  0  0  0  0
  1 13  1  0  0  0  0
  2 16  2  0  0  0  0
  3 19  2  0  0  0  0
  4 16  1  0  0  0  0
  4 17  1  0  0  0  0
  4 36  1  0  0  0  0
  5 19  1  0  0  0  0
  5 20  1  0  0  0  0
  5 37  1  0  0  0  0
  6  7  1  0  0  0  0
  6  8  1  0  0  0  0
  6  9  1  0  0  0  0
  6 21  1  0  0  0  0
  7  8  1  0  0  0  0
  7 10  1  0  0  0  0
  7 22  1  0  0  0  0
  8 23  1  0  0  0  0
  8 24  1  0  0  0  0
  9 25  1  0  0  0  0
  9 26  1  0  0  0  0
  9 27  1  0  0  0  0
 10 11  2  0  0  0  0
 11 12  1  0  0  0  0
 11 28  1  0  0  0  0
 12 13  2  0  0  0  0
 12 29  1  0  0  0  0
 13 14  1  0  0  0  0
 14 15  2  0  0  0  0
 14 30  1  0  0  0  0
 15 16  1  0  0  0  0
 15 31  1  0  0  0  0
 17 18  1  0  0  0  0
 17 32  1  0  0  0  0
 17 33  1  0  0  0  0
 18 19  1  0  0  0  0
 18 34  1  0  0  0  0
 18 35  1  0  0  0  0
 20 38  1  0  0  0  0
 20 39  1  0  0  0  0
 20 40  1  0  0  0  0
M  END
> <PUBCHEM_COMPOUND_CID>
51090967

> <PUBCHEM_CONFORMER_RMSD>
1

> <PUBCHEM_CONFORMER_DIVERSEORDER>
1
99
128
90
43
113
107
118
74
79
102
62
35
123
70
117
95
11
34
41
75
53
92
59
98
80
64
7
52
68
97
55
60
25
126
103
24
36
8
100
51
5
28
46
73
48
58
38
89
39
49
47
71
78
84
77
116
112
63
12
2
67
105
106
26
33
115
114
120
72
76
87
31
16
17
125
111
66
124
104
14
4
88
82
19
81
121
91
61
15
86
20
110
6
9
27
13
85
119
30
3
83
96
18
57
42
22
129
10
40
109
50
21
54
44
45
69
23
29
122
131
93
127
37
130
56
94
65
32
101
108

> <PUBCHEM_MMFF94_PARTIAL_CHARGES>
30
1 -0.28
10 0.05
11 -0.15
12 -0.15
13 0.09
14 -0.11
15 -0.14
16 0.62
17 0.3
18 0.06
19 0.57
2 -0.57
20 0.3
21 0.1
22 0.1
23 0.1
24 0.1
28 0.15
29 0.15
3 -0.57
30 0.15
31 0.15
36 0.37
37 0.37
4 -0.73
5 -0.73
6 -0.19
7 -0.01
8 -0.2
9 0.09

> <PUBCHEM_EFFECTIVE_ROTOR_COUNT>
8.6

> <PUBCHEM_PHARMACOPHORE_FEATURES>
6
1 1 acceptor
1 2 acceptor
1 3 acceptor
1 4 donor
1 5 donor
5 1 10 11 12 13 rings

> <PUBCHEM_HEAVY_ATOM_COUNT>
20

> <PUBCHEM_ATOM_DEF_STEREO_COUNT>
0

> <PUBCHEM_ATOM_UDEF_STEREO_COUNT>
2

> <PUBCHEM_BOND_DEF_STEREO_COUNT>
1

> <PUBCHEM_BOND_UDEF_STEREO_COUNT>
0

> <PUBCHEM_ISOTOPIC_ATOM_COUNT>
0

> <PUBCHEM_COMPONENT_COUNT>
1

> <PUBCHEM_CACTVS_TAUTO_COUNT>
4

> <PUBCHEM_CONFORMER_ID>
030B961700000001

> <PUBCHEM_MMFF94_ENERGY>
22.871

> <PUBCHEM_FEATURE_SELFOVERLAP>
30.446

> <PUBCHEM_SHAPE_FINGERPRINT>
10981352 41 18266455409127991211
11089746 13 9295297135826962840
11552529 35 17098631059203160655
11796584 16 18129675212711076648
12596602 18 15068921732182279990
12633257 1 16588028982965389205
13103583 49 16225770696433614357
13402501 40 18411978065848576475
13533116 47 18040437663637132864
13551218 46 18337108961197709639
13911882 115 18340771438191711344
13955234 65 18042134180716101672
14123256 34 17969216901876717734
14216079 64 18272371915899443307
14251732 14 17704064084210103606
14251740 57 18272366413043666461
14251757 5 15410028679054297577
14251764 30 18411975832966339979
14455015 7 18408042922280054613
14556957 393 13973696035502884255
14950920 106 17385720254091462731
193927 3 18335985345664666940
20621476 21 18272081678503503635
20645477 70 18410019840603952616
21065201 7 18199484305502292772
21095086 4 18340193155005394987
212916 134 4823215034988828461
21315759 148 18411138000610515065
21315763 76 11887951056175973886
21623969 137 18335987493343299002
221490 88 18334864948017170732
22765269 38 9511461100071746303
23424784 1240 18410853265611487522
23559900 14 18339374036001140797
239999 70 18272379646423584952
25122255 55 18272084985775728819
3089732 80 18412542115371543947
312423 11 18334570257104817728
314194 84 18114756948830388924
316301 35 18338243764450294762
33382 64 18333448746706480848
3421961 26 18187654621908522272
4073 2 18411985784031109312
4435113 14 18269817818168989363
46194498 28 18202003227355829660
465052 167 18041278850858067718
5104073 3 18041287668136276544
5365585 94 18341047505725585211
5486654 36 18189049974492941944
56633871 153 18266171722432994555
7918774 8 18201425957511587315
8863177 126 18410291389331168794
88748 71 18263082279035777870
999808 66 18334572486345403262

> <PUBCHEM_SHAPE_MULTIPOLES>
384.02
15.8
3.36
1.25
8.68
1.81
0.14
12.85
1.73
-1.29
0.38
0.96
0.23
3.85

> <PUBCHEM_SHAPE_SELFOVERLAP>
781.865

> <PUBCHEM_SHAPE_VOLUME>
224

> <PUBCHEM_COORDINATE_TYPE>
2
5
10

$$$$

