200480
  -OEChem-07051212573D

 44 47  0     1  0  0  0  0  0999 V2000
    1.4028    2.0727    0.1041 O   0  0  0  0  0  0  0  0  0  0  0  0
   -0.7964    3.7397   -0.1466 O   0  0  0  0  0  0  0  0  0  0  0  0
    5.0848   -1.1182   -0.1552 O   0  0  0  0  0  0  0  0  0  0  0  0
   -2.6282   -2.3323    0.3610 N   0  0  1  0  0  0  0  0  0  0  0  0
   -1.3724   -1.8234   -0.2029 C   0  0  2  0  0  0  0  0  0  0  0  0
    0.9346   -0.9644    0.1959 C   0  0  0  0  0  0  0  0  0  0  0  0
   -0.0686   -2.1162    0.5726 C   0  0  0  0  0  0  0  0  0  0  0  0
   -1.3401   -0.3270   -0.1551 C   0  0  0  0  0  0  0  0  0  0  0  0
   -0.0483    0.1750    0.0040 C   0  0  0  0  0  0  0  0  0  0  0  0
   -2.4622    0.4785   -0.2430 C   0  0  0  0  0  0  0  0  0  0  0  0
   -3.7617   -1.7155   -0.3700 C   0  0  0  0  0  0  0  0  0  0  0  0
   -3.8147   -0.1752   -0.2086 C   0  0  0  0  0  0  0  0  0  0  0  0
    1.6584   -1.2783   -1.0955 C   0  0  0  0  0  0  0  0  0  0  0  0
    1.8848   -0.7236    1.3448 C   0  0  0  0  0  0  0  0  0  0  0  0
    0.1557    1.5446   -0.0090 C   0  0  0  0  0  0  0  0  0  0  0  0
   -2.2617    1.8582   -0.2386 C   0  0  0  0  0  0  0  0  0  0  0  0
   -2.6941   -3.7902    0.2689 C   0  0  0  0  0  0  0  0  0  0  0  0
   -0.9595    2.3844   -0.1396 C   0  0  0  0  0  0  0  0  0  0  0  0
    2.9896   -1.3291   -1.2178 C   0  0  0  0  0  0  0  0  0  0  0  0
    3.2178   -0.7707    1.2436 C   0  0  0  0  0  0  0  0  0  0  0  0
    3.8634   -1.0756   -0.0517 C   0  0  0  0  0  0  0  0  0  0  0  0
    1.8669    2.8841   -0.9750 C   0  0  0  0  0  0  0  0  0  0  0  0
   -0.8507    4.4026    1.1137 C   0  0  0  0  0  0  0  0  0  0  0  0
   -1.2585   -2.1390   -1.2499 H   0  0  0  0  0  0  0  0  0  0  0  0
   -0.2766   -2.1037    1.6538 H   0  0  0  0  0  0  0  0  0  0  0  0
    0.3261   -3.1126    0.3389 H   0  0  0  0  0  0  0  0  0  0  0  0
   -4.7131   -2.1246   -0.0076 H   0  0  0  0  0  0  0  0  0  0  0  0
   -3.6967   -1.9616   -1.4392 H   0  0  0  0  0  0  0  0  0  0  0  0
   -4.2732    0.0583    0.7608 H   0  0  0  0  0  0  0  0  0  0  0  0
   -4.4525    0.2468   -0.9937 H   0  0  0  0  0  0  0  0  0  0  0  0
    1.0607   -1.4730   -1.9837 H   0  0  0  0  0  0  0  0  0  0  0  0
    1.4562   -0.4913    2.3180 H   0  0  0  0  0  0  0  0  0  0  0  0
   -3.1138    2.5311   -0.2963 H   0  0  0  0  0  0  0  0  0  0  0  0
   -3.6323   -4.1586    0.6987 H   0  0  0  0  0  0  0  0  0  0  0  0
   -1.8865   -4.2539    0.8451 H   0  0  0  0  0  0  0  0  0  0  0  0
   -2.6282   -4.1444   -0.7662 H   0  0  0  0  0  0  0  0  0  0  0  0
    3.4604   -1.5566   -2.1672 H   0  0  0  0  0  0  0  0  0  0  0  0
    3.8555   -0.5864    2.1002 H   0  0  0  0  0  0  0  0  0  0  0  0
    2.9451    2.7273   -1.0728 H   0  0  0  0  0  0  0  0  0  0  0  0
    1.6968    3.9404   -0.7494 H   0  0  0  0  0  0  0  0  0  0  0  0
    1.3949    2.6153   -1.9265 H   0  0  0  0  0  0  0  0  0  0  0  0
   -0.0694    4.0272    1.7822 H   0  0  0  0  0  0  0  0  0  0  0  0
   -1.8347    4.2706    1.5747 H   0  0  0  0  0  0  0  0  0  0  0  0
   -0.6836    5.4703    0.9468 H   0  0  0  0  0  0  0  0  0  0  0  0
  1 15  1  0  0  0  0
  1 22  1  0  0  0  0
  2 18  1  0  0  0  0
  2 23  1  0  0  0  0
  3 21  2  0  0  0  0
  4  5  1  0  0  0  0
  4 11  1  0  0  0  0
  4 17  1  0  0  0  0
  5  7  1  0  0  0  0
  5  8  1  0  0  0  0
  5 24  1  0  0  0  0
  6  7  1  0  0  0  0
  6  9  1  0  0  0  0
  6 13  1  0  0  0  0
  6 14  1  0  0  0  0
  7 25  1  0  0  0  0
  7 26  1  0  0  0  0
  8  9  2  0  0  0  0
  8 10  1  0  0  0  0
  9 15  1  0  0  0  0
 10 12  1  0  0  0  0
 10 16  2  0  0  0  0
 11 12  1  0  0  0  0
 11 27  1  0  0  0  0
 11 28  1  0  0  0  0
 12 29  1  0  0  0  0
 12 30  1  0  0  0  0
 13 19  2  0  0  0  0
 13 31  1  0  0  0  0
 14 20  2  0  0  0  0
 14 32  1  0  0  0  0
 15 18  2  0  0  0  0
 16 18  1  0  0  0  0
 16 33  1  0  0  0  0
 17 34  1  0  0  0  0
 17 35  1  0  0  0  0
 17 36  1  0  0  0  0
 19 21  1  0  0  0  0
 19 37  1  0  0  0  0
 20 21  1  0  0  0  0
 20 38  1  0  0  0  0
 22 39  1  0  0  0  0
 22 40  1  0  0  0  0
 22 41  1  0  0  0  0
 23 42  1  0  0  0  0
 23 43  1  0  0  0  0
 23 44  1  0  0  0  0
M  END
> <PUBCHEM_COMPOUND_CID>
200480

> <PUBCHEM_CONFORMER_RMSD>
0.6

> <PUBCHEM_CONFORMER_DIVERSEORDER>
1
3
2

> <PUBCHEM_MMFF94_PARTIAL_CHARGES>
27
1 -0.36
10 -0.14
11 0.27
12 0.14
13 -0.29
14 -0.29
15 0.08
16 -0.15
17 0.27
18 0.08
19 -0.14
2 -0.36
20 -0.14
21 0.54
22 0.28
23 0.28
3 -0.57
31 0.15
32 0.15
33 0.15
37 0.15
38 0.15
4 -0.81
5 0.41
6 0.42
8 -0.14
9 -0.14

> <PUBCHEM_EFFECTIVE_ROTOR_COUNT>
2.8

> <PUBCHEM_PHARMACOPHORE_FEATURES>
8
1 1 acceptor
1 2 acceptor
1 3 acceptor
1 4 cation
5 5 6 7 8 9 rings
6 4 5 8 10 11 12 rings
6 6 13 14 19 20 21 rings
6 8 9 10 15 16 18 rings

> <PUBCHEM_HEAVY_ATOM_COUNT>
23

> <PUBCHEM_ATOM_DEF_STEREO_COUNT>
1

> <PUBCHEM_ATOM_UDEF_STEREO_COUNT>
0

> <PUBCHEM_BOND_DEF_STEREO_COUNT>
0

> <PUBCHEM_BOND_UDEF_STEREO_COUNT>
0

> <PUBCHEM_ISOTOPIC_ATOM_COUNT>
0

> <PUBCHEM_COMPONENT_COUNT>
1

> <PUBCHEM_CACTVS_TAUTO_COUNT>
1

> <PUBCHEM_CONFORMER_ID>
00030F2000000001

> <PUBCHEM_MMFF94_ENERGY>
85.0007

> <PUBCHEM_FEATURE_SELFOVERLAP>
40.796

> <PUBCHEM_SHAPE_FINGERPRINT>
10165383 225 17111546347879381972
10319926 262 18120400859003390810
10411042 1 18338797788950485083
10493431 412 17903068181346210737
10498660 4 18196095675110628108
10967382 1 17619630181363522807
1100329 8 18411133662883553721
11578080 2 16985504601001320166
11680986 33 18194128421544333747
116883 192 18408038532839029652
12173636 292 17978229692345200765
12236239 1 17561364023919528090
12553582 1 18412833499127794531
12788726 201 18342458187660188258
13140716 1 18410851036596716339
13149001 5 18053979236497932279
138480 1 15455931558478808041
14081887 123 18264505038080560050
14178342 30 17833840738680088481
14223421 5 17765154965064091403
14787075 74 17843125801445060506
14790565 3 18049712216164749869
15042514 8 18340201985668749451
16945 1 18340207500427447079
17357779 13 18261128386263467599
20028762 73 18259983800104147295
20510252 161 18191026917974571009
20600515 1 18125752090856509688
20691752 17 17202215018721244275
20905425 154 18194957444373693420
21029758 11 18409456886086246367
21041028 32 18337941317037228697
23184049 29 18340772541829520503
2334 1 18267868272530491663
23366157 5 17843687659959778484
23402539 116 18338525247816551550
23419403 2 17408287626581454375
23557571 272 18261390113603160174
23559900 14 18191869131761910798
23566358 2 18269559329676911637
238 59 17473584289772113671
2748010 2 18266753397794193879
283562 15 18192436500893476329
3178227 256 18341882036090024801
335352 9 18411983568360559423
43471831 8 17259063987724863899
6138700 20 17979910511345095572
6442390 28 17686886620397966497
7364860 26 18049161064422128305
77492 1 17489021682050002738
81228 2 18338229495998984931
9709674 26 18052261687693232075

> <PUBCHEM_SHAPE_MULTIPOLES>
450.74
6.21
4.68
1.02
3.26
4.26
0.08
-4.49
-0.45
-2.66
0.65
0.65
0.04
-0.11

> <PUBCHEM_SHAPE_SELFOVERLAP>
992.421

> <PUBCHEM_SHAPE_VOLUME>
245.8

> <PUBCHEM_COORDINATE_TYPE>
2
5
10

$$$$

