195863
  -OEChem-07051213153D

 46 47  0     1  0  0  0  0  0999 V2000
    0.3062   -0.7745    0.0397 O   0  0  0  0  0  0  0  0  0  0  0  0
    1.6669    0.8070   -1.0767 O   0  0  0  0  0  0  0  0  0  0  0  0
   -1.1742    1.2564    1.2501 O   0  0  0  0  0  0  0  0  0  0  0  0
   -1.7149   -2.7875    0.0107 O   0  0  0  0  0  0  0  0  0  0  0  0
   -3.1180    2.6191   -0.2486 O   0  0  0  0  0  0  0  0  0  0  0  0
   -4.2715   -1.8559    1.0030 O   0  0  0  0  0  0  0  0  0  0  0  0
   -5.1080    0.5669   -0.2887 O   0  0  0  0  0  0  0  0  0  0  0  0
    4.4971   -1.8441    0.3543 O   0  0  0  0  0  0  0  0  0  0  0  0
    4.2014    0.7317    1.5965 O   0  0  0  0  0  0  0  0  0  0  0  0
    1.4834    3.4236   -0.3205 O   0  0  0  0  0  0  0  0  0  0  0  0
    2.0395   -2.8792   -0.8081 N   0  0  0  0  0  0  0  0  0  0  0  0
   -1.0310   -0.5077   -0.3810 C   0  0  0  0  0  0  0  0  0  0  0  0
   -1.3610    0.9658   -0.1384 C   0  0  1  0  0  0  0  0  0  0  0  0
   -1.9813   -1.4326    0.3859 C   0  0  1  0  0  0  0  0  0  0  0  0
   -2.8115    1.2542   -0.5303 C   0  0  1  0  0  0  0  0  0  0  0  0
   -3.4528   -1.1215    0.0883 C   0  0  2  0  0  0  0  0  0  0  0  0
   -3.7929    0.3639    0.2376 C   0  0  0  0  0  0  0  0  0  0  0  0
    1.2369   -0.5565   -1.0185 C   0  0  1  0  0  0  0  0  0  0  0  0
    2.4546   -1.4773   -0.8727 C   0  0  1  0  0  0  0  0  0  0  0  0
    3.2763   -1.1018    0.3652 C   0  0  2  0  0  0  0  0  0  0  0  0
    3.6111    0.3939    0.3436 C   0  0  1  0  0  0  0  0  0  0  0  0
    2.3552    1.2398    0.1017 C   0  0  1  0  0  0  0  0  0  0  0  0
    2.6886    2.7164   -0.0931 C   0  0  0  0  0  0  0  0  0  0  0  0
   -1.1503   -0.7424   -1.4476 H   0  0  0  0  0  0  0  0  0  0  0  0
   -0.6928    1.6326   -0.6882 H   0  0  0  0  0  0  0  0  0  0  0  0
   -1.7794   -1.3760    1.4627 H   0  0  0  0  0  0  0  0  0  0  0  0
   -2.9475    1.1184   -1.6096 H   0  0  0  0  0  0  0  0  0  0  0  0
   -3.7236   -1.4798   -0.9123 H   0  0  0  0  0  0  0  0  0  0  0  0
   -3.8389    0.6572    1.2935 H   0  0  0  0  0  0  0  0  0  0  0  0
    0.7824   -0.7825   -1.9914 H   0  0  0  0  0  0  0  0  0  0  0  0
    3.0945   -1.3606   -1.7572 H   0  0  0  0  0  0  0  0  0  0  0  0
    2.7517   -1.3597    1.2934 H   0  0  0  0  0  0  0  0  0  0  0  0
    4.3555    0.5951   -0.4373 H   0  0  0  0  0  0  0  0  0  0  0  0
    1.6796    1.1650    0.9606 H   0  0  0  0  0  0  0  0  0  0  0  0
    3.3374    2.8706   -0.9618 H   0  0  0  0  0  0  0  0  0  0  0  0
    3.1771    3.1379    0.7901 H   0  0  0  0  0  0  0  0  0  0  0  0
    1.4311   -3.0186   -0.0018 H   0  0  0  0  0  0  0  0  0  0  0  0
    1.4748   -3.1054   -1.6261 H   0  0  0  0  0  0  0  0  0  0  0  0
   -0.3199    0.8835    1.5220 H   0  0  0  0  0  0  0  0  0  0  0  0
   -2.3381   -3.3518    0.4997 H   0  0  0  0  0  0  0  0  0  0  0  0
   -2.9549    2.7706    0.6981 H   0  0  0  0  0  0  0  0  0  0  0  0
   -4.0468   -1.5687    1.9045 H   0  0  0  0  0  0  0  0  0  0  0  0
   -5.7116   -0.0132    0.2062 H   0  0  0  0  0  0  0  0  0  0  0  0
    4.9789   -1.6222   -0.4606 H   0  0  0  0  0  0  0  0  0  0  0  0
    4.9859    0.1685    1.7107 H   0  0  0  0  0  0  0  0  0  0  0  0
    1.0913    3.0771   -1.1401 H   0  0  0  0  0  0  0  0  0  0  0  0
  1 12  1  0  0  0  0
  1 18  1  0  0  0  0
  2 18  1  0  0  0  0
  2 22  1  0  0  0  0
  3 13  1  0  0  0  0
  3 39  1  0  0  0  0
  4 14  1  0  0  0  0
  4 40  1  0  0  0  0
  5 15  1  0  0  0  0
  5 41  1  0  0  0  0
  6 16  1  0  0  0  0
  6 42  1  0  0  0  0
  7 17  1  0  0  0  0
  7 43  1  0  0  0  0
  8 20  1  0  0  0  0
  8 44  1  0  0  0  0
  9 21  1  0  0  0  0
  9 45  1  0  0  0  0
 10 23  1  0  0  0  0
 10 46  1  0  0  0  0
 11 19  1  0  0  0  0
 11 37  1  0  0  0  0
 11 38  1  0  0  0  0
 12 13  1  0  0  0  0
 12 14  1  0  0  0  0
 12 24  1  0  0  0  0
 13 15  1  0  0  0  0
 13 25  1  0  0  0  0
 14 16  1  0  0  0  0
 14 26  1  0  0  0  0
 15 17  1  0  0  0  0
 15 27  1  0  0  0  0
 16 17  1  0  0  0  0
 16 28  1  0  0  0  0
 17 29  1  0  0  0  0
 18 19  1  0  0  0  0
 18 30  1  0  0  0  0
 19 20  1  0  0  0  0
 19 31  1  0  0  0  0
 20 21  1  0  0  0  0
 20 32  1  0  0  0  0
 21 22  1  0  0  0  0
 21 33  1  0  0  0  0
 22 23  1  0  0  0  0
 22 34  1  0  0  0  0
 23 35  1  0  0  0  0
 23 36  1  0  0  0  0
M  END
> <PUBCHEM_COMPOUND_CID>
195863

> <PUBCHEM_CONFORMER_RMSD>
0.8

> <PUBCHEM_CONFORMER_DIVERSEORDER>
1
9
10
12
13
6
5
8
2
14
15
4
7
11
3

> <PUBCHEM_MMFF94_PARTIAL_CHARGES>
33
1 -0.56
10 -0.68
11 -0.99
12 0.28
13 0.28
14 0.28
15 0.28
16 0.28
17 0.28
18 0.56
19 0.27
2 -0.56
20 0.28
21 0.28
22 0.28
23 0.28
3 -0.68
37 0.36
38 0.36
39 0.4
4 -0.68
40 0.4
41 0.4
42 0.4
43 0.4
44 0.4
45 0.4
46 0.4
5 -0.68
6 -0.68
7 -0.68
8 -0.68
9 -0.68

> <PUBCHEM_EFFECTIVE_ROTOR_COUNT>
5.4

> <PUBCHEM_PHARMACOPHORE_FEATURES>
22
1 1 acceptor
1 10 acceptor
1 10 donor
1 11 cation
1 11 donor
1 2 acceptor
1 3 acceptor
1 3 donor
1 4 acceptor
1 4 donor
1 5 acceptor
1 5 donor
1 6 acceptor
1 6 donor
1 7 acceptor
1 7 donor
1 8 acceptor
1 8 donor
1 9 acceptor
1 9 donor
6 12 13 14 15 16 17 rings
6 2 18 19 20 21 22 rings

> <PUBCHEM_HEAVY_ATOM_COUNT>
23

> <PUBCHEM_ATOM_DEF_STEREO_COUNT>
9

> <PUBCHEM_ATOM_UDEF_STEREO_COUNT>
0

> <PUBCHEM_BOND_DEF_STEREO_COUNT>
0

> <PUBCHEM_BOND_UDEF_STEREO_COUNT>
0

> <PUBCHEM_ISOTOPIC_ATOM_COUNT>
0

> <PUBCHEM_COMPONENT_COUNT>
1

> <PUBCHEM_CACTVS_TAUTO_COUNT>
1

> <PUBCHEM_CONFORMER_ID>
0002FD1700000001

> <PUBCHEM_MMFF94_ENERGY>
62.1121

> <PUBCHEM_FEATURE_SELFOVERLAP>
111.719

> <PUBCHEM_SHAPE_FINGERPRINT>
10366900 7 18129369411176491674
10608611 8 18410854360817098213
10616163 171 18194960734218311070
10646746 165 18341050808476152126
10759866 29 18270111293573858172
1100329 8 15744725967021155894
11370993 70 18410300241306069751
12251169 10 18412549782140764292
12403259 226 18342460348139481661
12403260 363 18409736179214399861
12507560 40 18335426772593922746
12633257 1 18410847798117775265
13140716 1 17903637384623529379
13224815 77 17531245041347837579
14026960 21 18337669698467052341
14223421 5 18339637832849645878
14341114 176 18408882923958185874
14866123 147 16392393248191935215
15196674 1 18411418397201968963
16945 1 18338226077373731503
17349148 13 18260557748260492341
17492 89 18342175510066592058
18186145 218 18189042252394600335
19591789 44 16246864092610174900
200 152 17967538995054800039
20559304 39 18338791230872378284
20681677 76 18412829062273200733
20715895 44 18339930441152338253
21033648 29 17677632988915219210
21065199 12 18410858763195551866
21756936 100 17755589240052344492
21859007 373 17559134253093455173
221490 88 18341041947974405746
23402539 116 18190191259040879335
23558518 356 18272926099127787313
23559900 14 18408885152545091414
3286 77 18201720647801818494
350125 39 18412254026065511140
351380 180 18410862070541798893
5104073 3 18411696586739858043
69090 78 18409171030264337111
7097593 13 18272384074292202482
7364860 26 18409724033015218820
9709674 26 18410288103765771903
9981440 41 17766277570641568592

> <PUBCHEM_SHAPE_MULTIPOLES>
409.66
8.64
3.16
0.97
2.8
0.77
-0.1
-0.59
-1.69
-0.97
0.29
-0.41
-0.04
0.72

> <PUBCHEM_SHAPE_SELFOVERLAP>
841.459

> <PUBCHEM_SHAPE_VOLUME>
231.8

> <PUBCHEM_COORDINATE_TYPE>
2
5
10

$$$$

