12340
  -OEChem-06261206503D

 18 17  0     0  0  0  0  0  0999 V2000
    0.6312   -0.3112    0.0005 O   0  0  0  0  0  0  0  0  0  0  0  0
   -1.7512   -0.5425    0.0042 C   0  0  0  0  0  0  0  0  0  0  0  0
   -0.5813    0.4295    0.0047 C   0  0  0  0  0  0  0  0  0  0  0  0
    1.7659    0.5448    0.0008 C   0  0  0  0  0  0  0  0  0  0  0  0
   -3.0861    0.1804   -0.0064 C   0  0  0  0  0  0  0  0  0  0  0  0
    3.0215   -0.3009   -0.0038 C   0  0  0  0  0  0  0  0  0  0  0  0
   -1.6798   -1.2039   -0.8676 H   0  0  0  0  0  0  0  0  0  0  0  0
   -1.6878   -1.1950    0.8833 H   0  0  0  0  0  0  0  0  0  0  0  0
   -0.6234    1.0684   -0.8853 H   0  0  0  0  0  0  0  0  0  0  0  0
   -0.6209    1.0645    0.8976 H   0  0  0  0  0  0  0  0  0  0  0  0
    1.7485    1.1837   -0.8891 H   0  0  0  0  0  0  0  0  0  0  0  0
    1.7517    1.1788    0.8944 H   0  0  0  0  0  0  0  0  0  0  0  0
   -3.1856    0.8077   -0.8980 H   0  0  0  0  0  0  0  0  0  0  0  0
   -3.9085   -0.5417   -0.0060 H   0  0  0  0  0  0  0  0  0  0  0  0
   -3.1939    0.8183    0.8766 H   0  0  0  0  0  0  0  0  0  0  0  0
    3.9164    0.3277   -0.0037 H   0  0  0  0  0  0  0  0  0  0  0  0
    3.0491   -0.9550    0.8740 H   0  0  0  0  0  0  0  0  0  0  0  0
    3.0459   -0.9502   -0.8852 H   0  0  0  0  0  0  0  0  0  0  0  0
  1  3  1  0  0  0  0
  1  4  1  0  0  0  0
  2  3  1  0  0  0  0
  2  5  1  0  0  0  0
  2  7  1  0  0  0  0
  2  8  1  0  0  0  0
  3  9  1  0  0  0  0
  3 10  1  0  0  0  0
  4  6  1  0  0  0  0
  4 11  1  0  0  0  0
  4 12  1  0  0  0  0
  5 13  1  0  0  0  0
  5 14  1  0  0  0  0
  5 15  1  0  0  0  0
  6 16  1  0  0  0  0
  6 17  1  0  0  0  0
  6 18  1  0  0  0  0
M  END
> <PUBCHEM_COMPOUND_CID>
12340

> <PUBCHEM_CONFORMER_RMSD>
0.4

> <PUBCHEM_CONFORMER_DIVERSEORDER>
1
6
16
11
7
14
17
3
4
15
12
5
2
9
10
8
13

> <PUBCHEM_MMFF94_PARTIAL_CHARGES>
3
1 -0.56
3 0.28
4 0.28

> <PUBCHEM_EFFECTIVE_ROTOR_COUNT>
3

> <PUBCHEM_PHARMACOPHORE_FEATURES>
2
1 1 acceptor
1 5 hydrophobe

> <PUBCHEM_HEAVY_ATOM_COUNT>
6

> <PUBCHEM_ATOM_DEF_STEREO_COUNT>
0

> <PUBCHEM_ATOM_UDEF_STEREO_COUNT>
0

> <PUBCHEM_BOND_DEF_STEREO_COUNT>
0

> <PUBCHEM_BOND_UDEF_STEREO_COUNT>
0

> <PUBCHEM_ISOTOPIC_ATOM_COUNT>
0

> <PUBCHEM_COMPONENT_COUNT>
1

> <PUBCHEM_CACTVS_TAUTO_COUNT>
1

> <PUBCHEM_CONFORMER_ID>
0000303400000001

> <PUBCHEM_MMFF94_ENERGY>
1.3465

> <PUBCHEM_FEATURE_SELFOVERLAP>
10.148

> <PUBCHEM_SHAPE_FINGERPRINT>
11062470 55 15864070979167993129
14325111 11 18410855438653396771
14390081 3 18333454226947801721
16714656 1 18342177765076675477
29004967 10 15936403429638086934
5460574 1 9295291637899026049

> <PUBCHEM_SHAPE_MULTIPOLES>
117.61
5.06
0.77
0.6
0.09
0.01
0
-0.23
-0.01
0.02
0
-0.01
0.01
0

> <PUBCHEM_SHAPE_SELFOVERLAP>
197.647

> <PUBCHEM_SHAPE_VOLUME>
81.1

> <PUBCHEM_COORDINATE_TYPE>
2
5
10

$$$$

