65
  -OEChem-07051212513D

 14 14  0     0  0  0  0  0  0999 V2000
    2.8434   -1.2839    0.0003 Cl  0  0  0  0  0  0  0  0  0  0  0  0
   -2.8435    1.2832    0.0008 Cl  0  0  0  0  0  0  0  0  0  0  0  0
    2.2073    1.6537    0.0008 O   0  0  0  0  0  0  0  0  0  0  0  0
   -2.2074   -1.6532    0.0008 O   0  0  0  0  0  0  0  0  0  0  0  0
    1.1251    0.8245   -0.0003 C   0  0  0  0  0  0  0  0  0  0  0  0
   -1.1250   -0.8245   -0.0006 C   0  0  0  0  0  0  0  0  0  0  0  0
    1.2766   -0.5620   -0.0001 C   0  0  0  0  0  0  0  0  0  0  0  0
   -1.2765    0.5621   -0.0008 C   0  0  0  0  0  0  0  0  0  0  0  0
   -0.1515    1.3867   -0.0006 C   0  0  0  0  0  0  0  0  0  0  0  0
    0.1517   -1.3865   -0.0002 C   0  0  0  0  0  0  0  0  0  0  0  0
   -0.2691    2.4681   -0.0003 H   0  0  0  0  0  0  0  0  0  0  0  0
    0.2691   -2.4679    0.0002 H   0  0  0  0  0  0  0  0  0  0  0  0
    1.9026    2.5772    0.0006 H   0  0  0  0  0  0  0  0  0  0  0  0
   -1.9030   -2.5769    0.0010 H   0  0  0  0  0  0  0  0  0  0  0  0
  1  7  1  0  0  0  0
  2  8  1  0  0  0  0
  3  5  1  0  0  0  0
  3 13  1  0  0  0  0
  4  6  1  0  0  0  0
  4 14  1  0  0  0  0
  5  7  2  0  0  0  0
  5  9  1  0  0  0  0
  6  8  1  0  0  0  0
  6 10  2  0  0  0  0
  7 10  1  0  0  0  0
  8  9  2  0  0  0  0
  9 11  1  0  0  0  0
 10 12  1  0  0  0  0
M  END
> <PUBCHEM_COMPOUND_CID>
65

> <PUBCHEM_CONFORMER_RMSD>
0.4

> <PUBCHEM_CONFORMER_DIVERSEORDER>
1

> <PUBCHEM_MMFF94_PARTIAL_CHARGES>
14
1 -0.18
10 -0.15
11 0.15
12 0.15
13 0.45
14 0.45
2 -0.18
3 -0.53
4 -0.53
5 0.08
6 0.08
7 0.18
8 0.18
9 -0.15

> <PUBCHEM_EFFECTIVE_ROTOR_COUNT>
0

> <PUBCHEM_PHARMACOPHORE_FEATURES>
3
1 3 donor
1 4 donor
6 5 6 7 8 9 10 rings

> <PUBCHEM_HEAVY_ATOM_COUNT>
10

> <PUBCHEM_ATOM_DEF_STEREO_COUNT>
0

> <PUBCHEM_ATOM_UDEF_STEREO_COUNT>
0

> <PUBCHEM_BOND_DEF_STEREO_COUNT>
0

> <PUBCHEM_BOND_UDEF_STEREO_COUNT>
0

> <PUBCHEM_ISOTOPIC_ATOM_COUNT>
0

> <PUBCHEM_COMPONENT_COUNT>
1

> <PUBCHEM_CACTVS_TAUTO_COUNT>
4

> <PUBCHEM_CONFORMER_ID>
0000004100000001

> <PUBCHEM_MMFF94_ENERGY>
20.6219

> <PUBCHEM_FEATURE_SELFOVERLAP>
15.223

> <PUBCHEM_SHAPE_FINGERPRINT>
13380535 21 18339629071116556860
14911166 2 18266458900154810775
16945 1 18266741474643148806
193761 8 18338798918357221383
19973954 147 18411138000262043105
21040471 1 18410856546829013541
21501502 16 18410573959386922175
23235685 24 18192438690783218385
23402655 69 17689735464259644893
23552423 10 18272087167276191110
241688 4 18413390942574043576
2748010 2 18410575058893275279
5084963 1 18260551138327033379

> <PUBCHEM_SHAPE_MULTIPOLES>
197.8
3.82
1.95
0.61
0
0
0
0
0
0
0
0
0
0

> <PUBCHEM_SHAPE_SELFOVERLAP>
398.056

> <PUBCHEM_SHAPE_VOLUME>
117.4

> <PUBCHEM_COORDINATE_TYPE>
2
5
10

$$$$

