10520
  -OEChem-06261204383D

 57 58  0     0  0  0  0  0  0999 V2000
    1.8093   -0.1227    2.1377 O   0  0  0  0  0  0  0  0  0  0  0  0
   -0.0239   -1.7647    0.0104 O   0  0  0  0  0  0  0  0  0  0  0  0
   -4.3861   -0.3672   -0.1677 N   0  3  0  0  0  0  0  0  0  0  0  0
   -0.8832    0.0465    1.1845 N   0  0  0  0  0  0  0  0  0  0  0  0
   -2.9586    0.1584   -0.1200 C   0  0  0  0  0  0  0  0  0  0  0  0
   -4.3651   -1.8872   -0.2404 C   0  0  0  0  0  0  0  0  0  0  0  0
   -5.0907    0.1898   -1.3963 C   0  0  0  0  0  0  0  0  0  0  0  0
   -5.1300    0.0704    1.0858 C   0  0  0  0  0  0  0  0  0  0  0  0
   -2.2547   -0.3782    1.1124 C   0  0  0  0  0  0  0  0  0  0  0  0
   -5.7865   -2.4035   -0.2877 C   0  0  0  0  0  0  0  0  0  0  0  0
   -5.1085    1.7007   -1.3183 C   0  0  0  0  0  0  0  0  0  0  0  0
    1.6248   -0.1475    0.7120 C   0  0  0  0  0  0  0  0  0  0  0  0
    0.1776   -0.6995    0.6096 C   0  0  0  0  0  0  0  0  0  0  0  0
   -0.6632    1.3127    1.8993 C   0  0  0  0  0  0  0  0  0  0  0  0
    1.7566    1.2837    0.1478 C   0  0  0  0  0  0  0  0  0  0  0  0
    2.6890   -1.0336    0.0575 C   0  0  0  0  0  0  0  0  0  0  0  0
    1.0367    1.6041   -0.9721 C   0  0  0  0  0  0  0  0  0  0  0  0
    2.6711   -1.1811   -1.3097 C   0  0  0  0  0  0  0  0  0  0  0  0
    2.5860    2.1590    0.7968 C   0  0  0  0  0  0  0  0  0  0  0  0
    3.6205   -1.6461    0.8628 C   0  0  0  0  0  0  0  0  0  0  0  0
    1.1555    2.8970   -1.4819 C   0  0  0  0  0  0  0  0  0  0  0  0
    3.6403   -1.9878   -1.9059 C   0  0  0  0  0  0  0  0  0  0  0  0
    2.7046    3.4520    0.2871 C   0  0  0  0  0  0  0  0  0  0  0  0
    4.5897   -2.4528    0.2664 C   0  0  0  0  0  0  0  0  0  0  0  0
    1.9892    3.8210   -0.8522 C   0  0  0  0  0  0  0  0  0  0  0  0
    4.5996   -2.6235   -1.1179 C   0  0  0  0  0  0  0  0  0  0  0  0
   -2.9717    1.2501   -0.0667 H   0  0  0  0  0  0  0  0  0  0  0  0
   -2.4539   -0.1467   -1.0444 H   0  0  0  0  0  0  0  0  0  0  0  0
   -3.8997   -2.2966    0.6579 H   0  0  0  0  0  0  0  0  0  0  0  0
   -3.7939   -2.1853   -1.1262 H   0  0  0  0  0  0  0  0  0  0  0  0
   -6.1246   -0.1636   -1.4157 H   0  0  0  0  0  0  0  0  0  0  0  0
   -4.5621   -0.1634   -2.2885 H   0  0  0  0  0  0  0  0  0  0  0  0
   -4.8073    1.0766    1.3716 H   0  0  0  0  0  0  0  0  0  0  0  0
   -6.2073    0.0765    0.8922 H   0  0  0  0  0  0  0  0  0  0  0  0
   -4.9098   -0.6239    1.9030 H   0  0  0  0  0  0  0  0  0  0  0  0
   -2.7515   -0.0954    2.0452 H   0  0  0  0  0  0  0  0  0  0  0  0
   -2.2098   -1.4686    1.1021 H   0  0  0  0  0  0  0  0  0  0  0  0
   -5.7570   -3.4979   -0.2138 H   0  0  0  0  0  0  0  0  0  0  0  0
   -6.4184   -2.0660    0.5368 H   0  0  0  0  0  0  0  0  0  0  0  0
   -6.2875   -2.1949   -1.2367 H   0  0  0  0  0  0  0  0  0  0  0  0
   -5.5442    2.1029   -0.4010 H   0  0  0  0  0  0  0  0  0  0  0  0
   -5.7337    2.0785   -2.1370 H   0  0  0  0  0  0  0  0  0  0  0  0
   -4.1254    2.1506   -1.4803 H   0  0  0  0  0  0  0  0  0  0  0  0
   -1.3003    1.3268    2.7905 H   0  0  0  0  0  0  0  0  0  0  0  0
    0.3423    1.5002    2.2534 H   0  0  0  0  0  0  0  0  0  0  0  0
   -0.9758    2.1325    1.2453 H   0  0  0  0  0  0  0  0  0  0  0  0
    1.6240   -1.0099    2.4920 H   0  0  0  0  0  0  0  0  0  0  0  0
    0.3756    0.9074   -1.4759 H   0  0  0  0  0  0  0  0  0  0  0  0
    1.9241   -0.7268   -1.9486 H   0  0  0  0  0  0  0  0  0  0  0  0
    3.1599    1.8873    1.6762 H   0  0  0  0  0  0  0  0  0  0  0  0
    3.6560   -1.5345    1.9404 H   0  0  0  0  0  0  0  0  0  0  0  0
    0.5971    3.1850   -2.3678 H   0  0  0  0  0  0  0  0  0  0  0  0
    3.6443   -2.1266   -2.9832 H   0  0  0  0  0  0  0  0  0  0  0  0
    3.3559    4.1709    0.7756 H   0  0  0  0  0  0  0  0  0  0  0  0
    5.3381   -2.9468    0.8792 H   0  0  0  0  0  0  0  0  0  0  0  0
    2.0817    4.8277   -1.2491 H   0  0  0  0  0  0  0  0  0  0  0  0
    5.3536   -3.2525   -1.5821 H   0  0  0  0  0  0  0  0  0  0  0  0
  1 12  1  0  0  0  0
  1 47  1  0  0  0  0
  2 13  2  0  0  0  0
  3  5  1  0  0  0  0
  3  6  1  0  0  0  0
  3  7  1  0  0  0  0
  3  8  1  0  0  0  0
  4  9  1  0  0  0  0
  4 13  1  0  0  0  0
  4 14  1  0  0  0  0
  5  9  1  0  0  0  0
  5 27  1  0  0  0  0
  5 28  1  0  0  0  0
  6 10  1  0  0  0  0
  6 29  1  0  0  0  0
  6 30  1  0  0  0  0
  7 11  1  0  0  0  0
  7 31  1  0  0  0  0
  7 32  1  0  0  0  0
  8 33  1  0  0  0  0
  8 34  1  0  0  0  0
  8 35  1  0  0  0  0
  9 36  1  0  0  0  0
  9 37  1  0  0  0  0
 10 38  1  0  0  0  0
 10 39  1  0  0  0  0
 10 40  1  0  0  0  0
 11 41  1  0  0  0  0
 11 42  1  0  0  0  0
 11 43  1  0  0  0  0
 12 13  1  0  0  0  0
 12 15  1  0  0  0  0
 12 16  1  0  0  0  0
 14 44  1  0  0  0  0
 14 45  1  0  0  0  0
 14 46  1  0  0  0  0
 15 17  2  0  0  0  0
 15 19  1  0  0  0  0
 16 18  2  0  0  0  0
 16 20  1  0  0  0  0
 17 21  1  0  0  0  0
 17 48  1  0  0  0  0
 18 22  1  0  0  0  0
 18 49  1  0  0  0  0
 19 23  2  0  0  0  0
 19 50  1  0  0  0  0
 20 24  2  0  0  0  0
 20 51  1  0  0  0  0
 21 25  2  0  0  0  0
 21 52  1  0  0  0  0
 22 26  2  0  0  0  0
 22 53  1  0  0  0  0
 23 25  1  0  0  0  0
 23 54  1  0  0  0  0
 24 26  1  0  0  0  0
 24 55  1  0  0  0  0
 25 56  1  0  0  0  0
 26 57  1  0  0  0  0
M  CHG  1   3   1
M  END
> <PUBCHEM_COMPOUND_CID>
10520

> <PUBCHEM_CONFORMER_RMSD>
1

> <PUBCHEM_CONFORMER_DIVERSEORDER>
1
22
5
14
29
41
40
36
24
8
25
38
3
27
32
12
31
17
43
20
26
4
2
37
15
21
30
16
7
11
28
6
13
34
35
9
33
23
18
19
10
39
42

> <PUBCHEM_MMFF94_PARTIAL_CHARGES>
35
1 -0.68
12 0.63
13 0.57
14 0.3
15 -0.14
16 -0.14
17 -0.15
18 -0.15
19 -0.15
2 -0.57
20 -0.15
21 -0.15
22 -0.15
23 -0.15
24 -0.15
25 -0.15
26 -0.15
3 -1.01
4 -0.66
47 0.4
48 0.15
49 0.15
5 0.5
50 0.15
51 0.15
52 0.15
53 0.15
54 0.15
55 0.15
56 0.15
57 0.15
6 0.5
7 0.5
8 0.5
9 0.3

> <PUBCHEM_EFFECTIVE_ROTOR_COUNT>
9

> <PUBCHEM_PHARMACOPHORE_FEATURES>
6
1 1 acceptor
1 1 donor
1 2 acceptor
1 3 cation
6 15 17 19 21 23 25 rings
6 16 18 20 22 24 26 rings

> <PUBCHEM_HEAVY_ATOM_COUNT>
26

> <PUBCHEM_ATOM_DEF_STEREO_COUNT>
0

> <PUBCHEM_ATOM_UDEF_STEREO_COUNT>
0

> <PUBCHEM_BOND_DEF_STEREO_COUNT>
0

> <PUBCHEM_BOND_UDEF_STEREO_COUNT>
0

> <PUBCHEM_ISOTOPIC_ATOM_COUNT>
0

> <PUBCHEM_COMPONENT_COUNT>
1

> <PUBCHEM_CACTVS_TAUTO_COUNT>
1

> <PUBCHEM_CONFORMER_ID>
0000291800000001

> <PUBCHEM_MMFF94_ENERGY>
102.2317

> <PUBCHEM_FEATURE_SELFOVERLAP>
30.446

> <PUBCHEM_SHAPE_FINGERPRINT>
10930396 42 18198366069040680866
11405975 8 18410291420028481587
12422481 6 18122939506254411720
12616971 3 18113607998545920147
12788726 201 17770500043310913538
13009979 54 17968642921539659200
13134695 92 18342727542513313964
133893 2 18123156114160663408
13899415 180 18340497762938803310
14347329 18 15840439274969241853
14739800 52 12319175040738179999
14863182 85 17895760578328452394
15163728 17 17413011103118205732
15210252 30 16486965228525612900
15238133 3 16845300487333345160
15775530 1 17627766661745768570
17357779 13 18264777738560501548
17492 89 18339927017915599759
17844677 252 18413671305934894187
17980427 23 17895747512690038192
1813 80 18263356040119323614
18186145 218 18273213093353621595
18222031 100 18263076768724846002
20645477 70 18335416833617801651
20775438 99 18055078657615838163
21304303 282 16889507147546180708
21709351 56 18411143554330360607
22149856 69 17972867078718133435
22393880 68 18201728366343560239
23419403 2 17825980223354032616
23559900 14 18335708243001574155
249057 3 18338234998627849797
3004659 81 18259698987183525283
312423 11 18114447999348312481
340366 18 18408325488605876223
376196 1 17839749162165438288
4017518 198 17901092038062887996
4280585 95 18339646762493063514
44802255 64 17049333274662577820
46194498 28 18341894039779929055
5081480 168 18199728358623885717
5281201 14 18343021065084143469
6823239 73 18272661172444082773
7471813 234 18113619018598824584
9709674 26 18201157642483255617
9841814 1 18272375282514870138

> <PUBCHEM_SHAPE_MULTIPOLES>
513.37
11.5
3.92
1.69
16.51
2.68
-0.05
-7.45
3.11
-4.41
1.31
-0.28
0.2
0.86

> <PUBCHEM_SHAPE_SELFOVERLAP>
1069.543

> <PUBCHEM_SHAPE_VOLUME>
292

> <PUBCHEM_COORDINATE_TYPE>
2
5
10

$$$$

