3743
  -OEChem-06251223383D

 56 56  0     1  0  0  0  0  0999 V2000
   -2.2954    1.3499    0.8995 I   0  0  0  0  0  0  0  0  0  0  0  0
    3.7801    1.3370    0.3133 I   0  0  0  0  0  0  0  0  0  0  0  0
    0.7224   -3.9444    0.5155 I   0  0  0  0  0  0  0  0  0  0  0  0
   -1.2845    4.3315   -0.1354 O   0  0  0  0  0  0  0  0  0  0  0  0
   -2.0761    4.5003   -2.7971 O   0  0  0  0  0  0  0  0  0  0  0  0
   -4.8197   -0.9318   -1.4779 O   0  0  0  0  0  0  0  0  0  0  0  0
    0.9481    4.3652    1.8751 O   0  0  0  0  0  0  0  0  0  0  0  0
   -2.1698   -2.1726    1.8979 O   0  0  0  0  0  0  0  0  0  0  0  0
    3.8324   -2.1865    1.3197 O   0  0  0  0  0  0  0  0  0  0  0  0
   -7.2565   -1.6101   -0.3192 O   0  0  0  0  0  0  0  0  0  0  0  0
    5.7608   -1.1080   -2.5552 O   0  0  0  0  0  0  0  0  0  0  0  0
    0.7461    2.3765    0.6224 N   0  0  0  0  0  0  0  0  0  0  0  0
   -2.4118   -2.1164   -0.4082 N   0  0  0  0  0  0  0  0  0  0  0  0
    3.6010   -2.1654   -0.9874 N   0  0  0  0  0  0  0  0  0  0  0  0
    0.7222    3.1040   -0.6803 C   0  0  0  0  0  0  0  0  0  0  0  0
    0.7408    0.9741    0.5981 C   0  0  0  0  0  0  0  0  0  0  0  0
   -0.6893    3.4870   -1.1212 C   0  0  2  0  0  0  0  0  0  0  0  0
   -0.4644    0.2794    0.7013 C   0  0  0  0  0  0  0  0  0  0  0  0
   -0.4698   -1.1152    0.6772 C   0  0  0  0  0  0  0  0  0  0  0  0
    1.9406    0.2741    0.4707 C   0  0  0  0  0  0  0  0  0  0  0  0
    1.9352   -1.1205    0.4464 C   0  0  0  0  0  0  0  0  0  0  0  0
    0.7300   -1.8151    0.5498 C   0  0  0  0  0  0  0  0  0  0  0  0
   -0.7219    4.2119   -2.4629 C   0  0  0  0  0  0  0  0  0  0  0  0
    0.8639    3.1352    1.8333 C   0  0  0  0  0  0  0  0  0  0  0  0
   -3.6757   -2.8011   -0.4642 C   0  0  0  0  0  0  0  0  0  0  0  0
   -1.7534   -1.8549    0.7870 C   0  0  0  0  0  0  0  0  0  0  0  0
   -4.8698   -1.8516   -0.3867 C   0  0  2  0  0  0  0  0  0  0  0  0
    3.1944   -1.8546    0.3109 C   0  0  0  0  0  0  0  0  0  0  0  0
    0.8478    2.3834    3.1445 C   0  0  0  0  0  0  0  0  0  0  0  0
   -6.2128   -2.5737   -0.4238 C   0  0  0  0  0  0  0  0  0  0  0  0
    4.8066   -2.9053   -1.2835 C   0  0  0  0  0  0  0  0  0  0  0  0
    5.9985   -1.9822   -1.4596 C   0  0  0  0  0  0  0  0  0  0  0  0
    1.1987    2.4833   -1.4480 H   0  0  0  0  0  0  0  0  0  0  0  0
    1.3267    4.0112   -0.5619 H   0  0  0  0  0  0  0  0  0  0  0  0
   -1.3096    2.6072   -1.2746 H   0  0  0  0  0  0  0  0  0  0  0  0
   -0.2857    3.5972   -3.2563 H   0  0  0  0  0  0  0  0  0  0  0  0
   -0.1850    5.1644   -2.4033 H   0  0  0  0  0  0  0  0  0  0  0  0
   -3.6864   -3.3406   -1.4179 H   0  0  0  0  0  0  0  0  0  0  0  0
   -3.7216   -3.5367    0.3463 H   0  0  0  0  0  0  0  0  0  0  0  0
   -4.8171   -1.2487    0.5276 H   0  0  0  0  0  0  0  0  0  0  0  0
   -1.9960   -1.8045   -1.2814 H   0  0  0  0  0  0  0  0  0  0  0  0
    1.0728    3.0751    3.9624 H   0  0  0  0  0  0  0  0  0  0  0  0
   -0.1376    1.9499    3.3240 H   0  0  0  0  0  0  0  0  0  0  0  0
    1.6067    1.5981    3.1538 H   0  0  0  0  0  0  0  0  0  0  0  0
   -1.4020    3.8001    0.6698 H   0  0  0  0  0  0  0  0  0  0  0  0
   -6.3031   -3.2817    0.4056 H   0  0  0  0  0  0  0  0  0  0  0  0
   -6.3441   -3.1038   -1.3728 H   0  0  0  0  0  0  0  0  0  0  0  0
    3.0279   -1.8591   -1.7686 H   0  0  0  0  0  0  0  0  0  0  0  0
    4.9978   -3.6235   -0.4798 H   0  0  0  0  0  0  0  0  0  0  0  0
    4.6118   -3.4564   -2.2094 H   0  0  0  0  0  0  0  0  0  0  0  0
   -2.0654    4.9620   -3.6529 H   0  0  0  0  0  0  0  0  0  0  0  0
   -3.9647   -0.4709   -1.4305 H   0  0  0  0  0  0  0  0  0  0  0  0
    6.1686   -1.3779   -0.5630 H   0  0  0  0  0  0  0  0  0  0  0  0
    6.9004   -2.5648   -1.6709 H   0  0  0  0  0  0  0  0  0  0  0  0
   -8.0973   -2.0977   -0.3463 H   0  0  0  0  0  0  0  0  0  0  0  0
    6.5440   -0.5378   -2.6400 H   0  0  0  0  0  0  0  0  0  0  0  0
  1 18  1  0  0  0  0
  2 20  1  0  0  0  0
  3 22  1  0  0  0  0
  4 17  1  0  0  0  0
  4 45  1  0  0  0  0
  5 23  1  0  0  0  0
  5 51  1  0  0  0  0
  6 27  1  0  0  0  0
  6 52  1  0  0  0  0
  7 24  2  0  0  0  0
  8 26  2  0  0  0  0
  9 28  2  0  0  0  0
 10 30  1  0  0  0  0
 10 55  1  0  0  0  0
 11 32  1  0  0  0  0
 11 56  1  0  0  0  0
 12 15  1  0  0  0  0
 12 16  1  0  0  0  0
 12 24  1  0  0  0  0
 13 25  1  0  0  0  0
 13 26  1  0  0  0  0
 13 41  1  0  0  0  0
 14 28  1  0  0  0  0
 14 31  1  0  0  0  0
 14 48  1  0  0  0  0
 15 17  1  0  0  0  0
 15 33  1  0  0  0  0
 15 34  1  0  0  0  0
 16 18  1  0  0  0  0
 16 20  2  0  0  0  0
 17 23  1  0  0  0  0
 17 35  1  0  0  0  0
 18 19  2  0  0  0  0
 19 22  1  0  0  0  0
 19 26  1  0  0  0  0
 20 21  1  0  0  0  0
 21 22  2  0  0  0  0
 21 28  1  0  0  0  0
 23 36  1  0  0  0  0
 23 37  1  0  0  0  0
 24 29  1  0  0  0  0
 25 27  1  0  0  0  0
 25 38  1  0  0  0  0
 25 39  1  0  0  0  0
 27 30  1  0  0  0  0
 27 40  1  0  0  0  0
 29 42  1  0  0  0  0
 29 43  1  0  0  0  0
 29 44  1  0  0  0  0
 30 46  1  0  0  0  0
 30 47  1  0  0  0  0
 31 32  1  0  0  0  0
 31 49  1  0  0  0  0
 31 50  1  0  0  0  0
 32 53  1  0  0  0  0
 32 54  1  0  0  0  0
M  END
> <PUBCHEM_COMPOUND_CID>
3743

> <PUBCHEM_CONFORMER_RMSD>
1.2

> <PUBCHEM_CONFORMER_DIVERSEORDER>
1
13
36
21
28
17
67
58
47
23
45
30
63
19
53
38
64
24
4
52
55
46
32
9
60
22
8
20
34
54
56
65
16
25
5
62
33
66
3
41
50
26
51
42
10
14
37
40
57
49
6
29
11
48
18
12
43
2
31
61
15
44
35
39
27
7
59

> <PUBCHEM_MMFF94_PARTIAL_CHARGES>
39
1 -0.08
10 -0.68
11 -0.68
12 -0.48
13 -0.73
14 -0.73
15 0.3
16 0.12
17 0.28
18 0.08
19 0.09
2 -0.08
20 0.08
21 0.09
22 0.08
23 0.28
24 0.57
25 0.3
26 0.54
27 0.28
28 0.54
29 0.06
3 -0.08
30 0.28
31 0.3
32 0.28
4 -0.68
41 0.37
45 0.4
48 0.37
5 -0.68
51 0.4
52 0.4
55 0.4
56 0.4
6 -0.68
7 -0.57
8 -0.57
9 -0.57

> <PUBCHEM_EFFECTIVE_ROTOR_COUNT>
14

> <PUBCHEM_PHARMACOPHORE_FEATURES>
19
1 1 hydrophobe
1 10 acceptor
1 10 donor
1 11 acceptor
1 11 donor
1 13 donor
1 14 donor
1 2 hydrophobe
1 3 hydrophobe
1 4 acceptor
1 4 donor
1 5 acceptor
1 5 donor
1 6 acceptor
1 6 donor
1 7 acceptor
1 8 acceptor
1 9 acceptor
6 16 18 19 20 21 22 rings

> <PUBCHEM_HEAVY_ATOM_COUNT>
32

> <PUBCHEM_ATOM_DEF_STEREO_COUNT>
0

> <PUBCHEM_ATOM_UDEF_STEREO_COUNT>
2

> <PUBCHEM_BOND_DEF_STEREO_COUNT>
0

> <PUBCHEM_BOND_UDEF_STEREO_COUNT>
0

> <PUBCHEM_ISOTOPIC_ATOM_COUNT>
0

> <PUBCHEM_COMPONENT_COUNT>
1

> <PUBCHEM_CACTVS_TAUTO_COUNT>
4

> <PUBCHEM_CONFORMER_ID>
00000E9F00000001

> <PUBCHEM_MMFF94_ENERGY>
115.8696

> <PUBCHEM_FEATURE_SELFOVERLAP>
96.437

> <PUBCHEM_SHAPE_FINGERPRINT>
10483366 6 17913762822044414956
12160290 23 18051962920845417810
12788726 201 18269272525073846962
13140716 1 18337664317353429866
13911987 19 17478315892339755940
14068700 675 17676481757159921939
14289585 56 18336283309343101103
15439362 3 18120091676400900689
16988056 13 18269841904729895461
17980427 26 16301509326568434744
19319366 153 16681793445187127645
20642791 105 17983036710259262506
21033648 29 17180827155334907209
21049683 271 18338228276360239278
21641784 216 18200014248953382702
22149856 69 17617368486832678451
23559900 14 18051982411570166827
283562 15 18265323079607562418
4017518 198 17395579390506939008
4066623 53 18342177747997118332
4394409 98 17121952736158495700
6287921 2 17981616966238947423
6691757 9 17398399010703857834

> <PUBCHEM_SHAPE_MULTIPOLES>
632.45
10.48
6.87
2.22
7.33
6.29
0.27
-13.81
6.42
0.91
1.71
-0.95
2.47
2.23

> <PUBCHEM_SHAPE_SELFOVERLAP>
1228.303

> <PUBCHEM_SHAPE_VOLUME>
389.7

> <PUBCHEM_COORDINATE_TYPE>
2
5
10

$$$$

