5462261
  -OEChem-07051212493D

 24 23  0     1  0  0  0  0  0999 V2000
   -0.6959    0.7864   -1.7483 O   0  0  0  0  0  0  0  0  0  0  0  0
    0.1282   -2.1691    0.9827 O   0  0  0  0  0  0  0  0  0  0  0  0
    0.3300   -1.8077   -1.2477 O   0  0  0  0  0  0  0  0  0  0  0  0
   -2.0405    0.6695    1.6461 O   0  0  0  0  0  0  0  0  0  0  0  0
   -2.9528    0.0272   -0.3246 O   0  0  0  0  0  0  0  0  0  0  0  0
    0.5067    0.0976    0.2458 C   0  0  1  0  0  0  0  0  0  0  0  0
    1.9281    0.5839   -0.1526 C   0  0  0  0  0  0  0  0  0  0  0  0
   -0.6864    0.8925   -0.3377 C   0  0  2  0  0  0  0  0  0  0  0  0
    2.1552    2.0616    0.1816 C   0  0  0  0  0  0  0  0  0  0  0  0
    3.0137   -0.2456    0.5506 C   0  0  0  0  0  0  0  0  0  0  0  0
    0.3173   -1.3759   -0.1010 C   0  0  0  0  0  0  0  0  0  0  0  0
   -2.0037    0.4794    0.3051 C   0  0  0  0  0  0  0  0  0  0  0  0
    0.4481    0.1720    1.3415 H   0  0  0  0  0  0  0  0  0  0  0  0
    2.0603    0.4543   -1.2345 H   0  0  0  0  0  0  0  0  0  0  0  0
   -0.5715    1.9569   -0.1041 H   0  0  0  0  0  0  0  0  0  0  0  0
    1.9571    2.2645    1.2394 H   0  0  0  0  0  0  0  0  0  0  0  0
    1.5088    2.7080   -0.4194 H   0  0  0  0  0  0  0  0  0  0  0  0
    3.1884    2.3565   -0.0321 H   0  0  0  0  0  0  0  0  0  0  0  0
    2.9157   -0.1847    1.6399 H   0  0  0  0  0  0  0  0  0  0  0  0
    2.9624   -1.3001    0.2618 H   0  0  0  0  0  0  0  0  0  0  0  0
    4.0127    0.1139    0.2809 H   0  0  0  0  0  0  0  0  0  0  0  0
   -1.3862    1.3844   -2.0822 H   0  0  0  0  0  0  0  0  0  0  0  0
    0.0080   -3.1096    0.7312 H   0  0  0  0  0  0  0  0  0  0  0  0
   -2.9013    0.3996    2.0312 H   0  0  0  0  0  0  0  0  0  0  0  0
  1  8  1  0  0  0  0
  1 22  1  0  0  0  0
  2 11  1  0  0  0  0
  2 23  1  0  0  0  0
  3 11  2  0  0  0  0
  4 12  1  0  0  0  0
  4 24  1  0  0  0  0
  5 12  2  0  0  0  0
  6  7  1  0  0  0  0
  6  8  1  0  0  0  0
  6 11  1  0  0  0  0
  6 13  1  0  0  0  0
  7  9  1  0  0  0  0
  7 10  1  0  0  0  0
  7 14  1  0  0  0  0
  8 12  1  0  0  0  0
  8 15  1  0  0  0  0
  9 16  1  0  0  0  0
  9 17  1  0  0  0  0
  9 18  1  0  0  0  0
 10 19  1  0  0  0  0
 10 20  1  0  0  0  0
 10 21  1  0  0  0  0
M  END
> <PUBCHEM_COMPOUND_CID>
5462261

> <PUBCHEM_CONFORMER_RMSD>
0.6

> <PUBCHEM_CONFORMER_DIVERSEORDER>
1
11
18
7
19
10
20
14
12
16
3
15
17
5
13
6
2
4
9
8

> <PUBCHEM_MMFF94_PARTIAL_CHARGES>
12
1 -0.68
11 0.66
12 0.66
2 -0.65
22 0.4
23 0.5
24 0.5
3 -0.57
4 -0.65
5 -0.57
6 0.06
8 0.34

> <PUBCHEM_EFFECTIVE_ROTOR_COUNT>
4

> <PUBCHEM_PHARMACOPHORE_FEATURES>
9
1 1 acceptor
1 1 donor
1 2 acceptor
1 3 acceptor
1 4 acceptor
1 5 acceptor
3 2 3 11 anion
3 4 5 12 anion
3 7 9 10 hydrophobe

> <PUBCHEM_HEAVY_ATOM_COUNT>
12

> <PUBCHEM_ATOM_DEF_STEREO_COUNT>
2

> <PUBCHEM_ATOM_UDEF_STEREO_COUNT>
0

> <PUBCHEM_BOND_DEF_STEREO_COUNT>
0

> <PUBCHEM_BOND_UDEF_STEREO_COUNT>
0

> <PUBCHEM_ISOTOPIC_ATOM_COUNT>
0

> <PUBCHEM_COMPONENT_COUNT>
1

> <PUBCHEM_CACTVS_TAUTO_COUNT>
1

> <PUBCHEM_CONFORMER_ID>
005358F500000001

> <PUBCHEM_MMFF94_ENERGY>
16.2055

> <PUBCHEM_FEATURE_SELFOVERLAP>
45.796

> <PUBCHEM_SHAPE_FINGERPRINT>
10219947 1 18131347492851185157
12423570 1 8886999058770952996
13024252 1 14403812824671417548
13380535 21 18198048180734939836
15775835 57 18341054029828328588
16945 1 18410284839410681090
17834069 17 18268413664399371752
18175812 5 17989487407260596621
20653085 51 15936953164014263480
21028194 46 18334577923425599672
21061003 4 18124591144248542562
21922407 69 17823134695613541827
23235685 24 18334017189997069400
23419403 2 4846679703756994148
430814 3 17822008739460842905
5084963 1 18409741655028663816
528862 383 18263934400009246822

> <PUBCHEM_SHAPE_MULTIPOLES>
217.61
3.58
1.9
1.2
0.15
0.64
0.11
-1.18
-0.73
0.67
-0.02
-0.49
0.03
-0.09

> <PUBCHEM_SHAPE_SELFOVERLAP>
419.989

> <PUBCHEM_SHAPE_VOLUME>
132.5

> <PUBCHEM_COORDINATE_TYPE>
2
5
10

$$$$

