442373
  -OEChem-07051212572D

 39 40  0     1  0  0  0  0  0999 V2000
    5.5606    2.6527    0.0000 O   0  0  0  0  0  0  0  0  0  0  0  0
    9.8612   -0.8208    0.0000 O   0  0  0  0  0  0  0  0  0  0  0  0
    6.0384   -1.0279    0.0000 C   0  0  3  0  0  0  0  0  0  0  0  0
    6.2972   -0.0619    0.0000 C   0  0  3  0  0  0  0  0  0  0  0  0
    5.5606    0.9207    0.0000 C   0  0  3  0  0  0  0  0  0  0  0  0
    3.6942   -0.8698    0.0000 C   0  0  3  0  0  0  0  0  0  0  0  0
    4.5032   -2.2710    0.0000 C   0  0  0  0  0  0  0  0  0  0  0  0
    3.5897   -1.8643    0.0000 C   0  0  0  0  0  0  0  0  0  0  0  0
    7.8703   -1.7867    0.0000 C   0  0  0  0  0  0  0  0  0  0  0  0
    8.1291   -0.8208    0.0000 C   0  0  0  0  0  0  0  0  0  0  0  0
    2.9511   -0.2006    0.0000 C   0  0  0  0  0  0  0  0  0  0  0  0
    5.7796   -1.9938    0.0000 C   0  0  0  0  0  0  0  0  0  0  0  0
    5.0606    1.7867    0.0000 C   0  0  0  0  0  0  0  0  0  0  0  0
    8.3703   -2.6527    0.0000 C   0  0  0  0  0  0  0  0  0  0  0  0
    2.0000   -0.5096    0.0000 C   0  0  0  0  0  0  0  0  0  0  0  0
    3.1590    0.7775    0.0000 C   0  0  0  0  0  0  0  0  0  0  0  0
    8.9952   -0.3208    0.0000 C   0  0  0  0  0  0  0  0  0  0  0  0
    6.2688   -0.6813    0.0000 H   0  0  0  0  0  0  0  0  0  0  0  0
    6.0780    1.2622    0.0000 H   0  0  0  0  0  0  0  0  0  0  0  0
    3.1154   -1.0920    0.0000 H   0  0  0  0  0  0  0  0  0  0  0  0
    4.1655   -2.7910    0.0000 H   0  0  0  0  0  0  0  0  0  0  0  0
    4.9640   -2.6859    0.0000 H   0  0  0  0  0  0  0  0  0  0  0  0
    2.9832   -1.7354    0.0000 H   0  0  0  0  0  0  0  0  0  0  0  0
    3.3981   -2.4539    0.0000 H   0  0  0  0  0  0  0  0  0  0  0  0
    2.4903    0.2142    0.0000 H   0  0  0  0  0  0  0  0  0  0  0  0
    5.1807   -1.8333    0.0000 H   0  0  0  0  0  0  0  0  0  0  0  0
    5.6191   -2.5927    0.0000 H   0  0  0  0  0  0  0  0  0  0  0  0
    6.3784   -2.1543    0.0000 H   0  0  0  0  0  0  0  0  0  0  0  0
    4.4406    1.7867    0.0000 H   0  0  0  0  0  0  0  0  0  0  0  0
    7.8334   -2.9627    0.0000 H   0  0  0  0  0  0  0  0  0  0  0  0
    8.6803   -3.1896    0.0000 H   0  0  0  0  0  0  0  0  0  0  0  0
    8.9073   -2.3427    0.0000 H   0  0  0  0  0  0  0  0  0  0  0  0
    3.7654    0.6486    0.0000 H   0  0  0  0  0  0  0  0  0  0  0  0
    3.2879    1.3840    0.0000 H   0  0  0  0  0  0  0  0  0  0  0  0
    2.5525    0.9064    0.0000 H   0  0  0  0  0  0  0  0  0  0  0  0
    1.8084    0.0800    0.0000 H   0  0  0  0  0  0  0  0  0  0  0  0
    1.4103   -0.7012    0.0000 H   0  0  0  0  0  0  0  0  0  0  0  0
    2.1916   -1.0993    0.0000 H   0  0  0  0  0  0  0  0  0  0  0  0
    8.9952    0.2992    0.0000 H   0  0  0  0  0  0  0  0  0  0  0  0
  1 13  2  0  0  0  0
  2 17  2  0  0  0  0
  3  5  1  0  0  0  0
  3  7  1  0  0  0  0
  3  9  1  0  0  0  0
  3 12  1  0  0  0  0
  4  5  1  0  0  0  0
  4  6  1  0  0  0  0
  4 10  1  0  0  0  0
  4 18  1  0  0  0  0
  5 13  1  0  0  0  0
  5 19  1  0  0  0  0
  6  8  1  0  0  0  0
  6 11  1  0  0  0  0
  6 20  1  0  0  0  0
  7  8  1  0  0  0  0
  7 21  1  0  0  0  0
  7 22  1  0  0  0  0
  8 23  1  0  0  0  0
  8 24  1  0  0  0  0
  9 10  2  0  0  0  0
  9 14  1  0  0  0  0
 10 17  1  0  0  0  0
 11 15  1  0  0  0  0
 11 16  1  0  0  0  0
 11 25  1  0  0  0  0
 12 26  1  0  0  0  0
 12 27  1  0  0  0  0
 12 28  1  0  0  0  0
 13 29  1  0  0  0  0
 14 30  1  0  0  0  0
 14 31  1  0  0  0  0
 14 32  1  0  0  0  0
 15 36  1  0  0  0  0
 15 37  1  0  0  0  0
 15 38  1  0  0  0  0
 16 33  1  0  0  0  0
 16 34  1  0  0  0  0
 16 35  1  0  0  0  0
 17 39  1  0  0  0  0
M  END
> <PUBCHEM_COMPOUND_CID>
442373

> <PUBCHEM_COMPOUND_CANONICALIZED>
1

> <PUBCHEM_CACTVS_COMPLEXITY>
380

> <PUBCHEM_CACTVS_HBOND_ACCEPTOR>
2

> <PUBCHEM_CACTVS_HBOND_DONOR>
0

> <PUBCHEM_CACTVS_ROTATABLE_BOND>
3

> <PUBCHEM_CACTVS_SUBSKEYS>
AAADceBwMAAAAAAAAAAAAAAAAAAAAQAAAAAwAAAABAAAAAAAAAAAGgAAAAAADwCggAICAAAAAACIAghQgAAAAAAgAAAACAEAAEgAABIAAAAAAAAAgAAIAQMIisCPgAAAAAAAAACAAAQAACAAAAAAAAAAAA==

> <PUBCHEM_IUPAC_OPENEYE_NAME>
2-isopropyl-5,6-dimethyl-bicyclo[3.2.1]oct-6-ene-7,8-dicarbaldehyde

> <PUBCHEM_IUPAC_CAS_NAME>
5,6-dimethyl-2-propan-2-ylbicyclo[3.2.1]oct-6-ene-7,8-dicarboxaldehyde

> <PUBCHEM_IUPAC_NAME>
5,6-dimethyl-2-propan-2-ylbicyclo[3.2.1]oct-6-ene-7,8-dicarbaldehyde

> <PUBCHEM_IUPAC_SYSTEMATIC_NAME>
5,6-dimethyl-2-propan-2-yl-bicyclo[3.2.1]oct-6-ene-7,8-dicarbaldehyde

> <PUBCHEM_IUPAC_TRADITIONAL_NAME>
2-isopropyl-5,6-dimethyl-bicyclo[3.2.1]oct-6-ene-7,8-dicarbaldehyde

> <PUBCHEM_IUPAC_INCHI>
InChI=1S/C15H22O2/c1-9(2)11-5-6-15(4)10(3)12(7-16)14(11)13(15)8-17/h7-9,11,13-14H,5-6H2,1-4H3

> <PUBCHEM_IUPAC_INCHIKEY>
VQXZGZPEZBQXFZ-UHFFFAOYSA-N

> <PUBCHEM_XLOGP3_AA>
2.5

> <PUBCHEM_EXACT_MASS>
234.16198

> <PUBCHEM_MOLECULAR_FORMULA>
C15H22O2

> <PUBCHEM_MOLECULAR_WEIGHT>
234.33398

> <PUBCHEM_OPENEYE_CAN_SMILES>
CC1=C(C2C(CCC1(C2C=O)C)C(C)C)C=O

> <PUBCHEM_OPENEYE_ISO_SMILES>
CC1=C(C2C(CCC1(C2C=O)C)C(C)C)C=O

> <PUBCHEM_CACTVS_TPSA>
34.1

> <PUBCHEM_MONOISOTOPIC_WEIGHT>
234.16198

> <PUBCHEM_TOTAL_CHARGE>
0

> <PUBCHEM_HEAVY_ATOM_COUNT>
17

> <PUBCHEM_ATOM_DEF_STEREO_COUNT>
0

> <PUBCHEM_ATOM_UDEF_STEREO_COUNT>
4

> <PUBCHEM_BOND_DEF_STEREO_COUNT>
0

> <PUBCHEM_BOND_UDEF_STEREO_COUNT>
0

> <PUBCHEM_ISOTOPIC_ATOM_COUNT>
0

> <PUBCHEM_COMPONENT_COUNT>
1

> <PUBCHEM_CACTVS_TAUTO_COUNT>
2

> <PUBCHEM_COORDINATE_TYPE>
1
5
255

> <PUBCHEM_BONDANNOTATIONS>
3  12  3
4  10  3
5  13  3
6  11  3

$$$$

