243752
  -OEChem-07051213062D

 51 54  0     1  0  0  0  0  0999 V2000
    5.0182    0.6236    0.0000 F   0  0  0  0  0  0  0  0  0  0  0  0
    8.6500    2.1128    0.0000 O   0  0  0  0  0  0  0  0  0  0  0  0
    4.7950    1.3575    0.0000 O   0  0  0  0  0  0  0  0  0  0  0  0
    2.0000   -2.1948    0.0000 O   0  0  0  0  0  0  0  0  0  0  0  0
    7.3931   -0.1425    0.0000 C   0  0  2  0  0  0  0  0  0  0  0  0
    7.3931    0.8575    0.0000 C   0  0  1  0  0  0  0  0  0  0  0  0
    6.5271   -0.6425    0.0000 C   0  0  1  0  0  0  0  0  0  0  0  0
    5.6610   -0.1425    0.0000 C   0  0  1  0  0  0  0  0  0  0  0  0
    8.3393    1.1623    0.0000 C   0  0  2  0  0  0  0  0  0  0  0  0
    6.5271    1.3575    0.0000 C   0  0  0  0  0  0  0  0  0  0  0  0
    8.3393   -0.4472    0.0000 C   0  0  0  0  0  0  0  0  0  0  0  0
    5.6610    0.8575    0.0000 C   0  0  2  0  0  0  0  0  0  0  0  0
    8.9229    0.3575    0.0000 C   0  0  1  0  0  0  0  0  0  0  0  0
    4.7510   -0.6493    0.0000 C   0  0  1  0  0  0  0  0  0  0  0  0
    6.5431   -1.6840    0.0000 C   0  0  0  0  0  0  0  0  0  0  0  0
    7.3931    1.8575    0.0000 C   0  0  0  0  0  0  0  0  0  0  0  0
    5.6451   -2.2117    0.0000 C   0  0  0  0  0  0  0  0  0  0  0  0
    4.7430   -1.6909    0.0000 C   0  0  0  0  0  0  0  0  0  0  0  0
    9.9229    0.3575    0.0000 C   0  0  0  0  0  0  0  0  0  0  0  0
    4.4163    0.2930    0.0000 C   0  0  0  0  0  0  0  0  0  0  0  0
    3.8242   -0.0852    0.0000 C   0  0  0  0  0  0  0  0  0  0  0  0
    3.8076   -2.2406    0.0000 C   0  0  0  0  0  0  0  0  0  0  0  0
    2.8763   -0.6132    0.0000 C   0  0  0  0  0  0  0  0  0  0  0  0
    2.8680   -1.6981    0.0000 C   0  0  0  0  0  0  0  0  0  0  0  0
    7.4830   -0.9877    0.0000 H   0  0  0  0  0  0  0  0  0  0  0  0
    7.2664   -1.0618    0.0000 H   0  0  0  0  0  0  0  0  0  0  0  0
    7.9018    1.6016    0.0000 H   0  0  0  0  0  0  0  0  0  0  0  0
    6.9256    1.8325    0.0000 H   0  0  0  0  0  0  0  0  0  0  0  0
    6.1285    1.8325    0.0000 H   0  0  0  0  0  0  0  0  0  0  0  0
    8.0883   -1.0141    0.0000 H   0  0  0  0  0  0  0  0  0  0  0  0
    8.8767   -0.7564    0.0000 H   0  0  0  0  0  0  0  0  0  0  0  0
    5.1241    0.5475    0.0000 H   0  0  0  0  0  0  0  0  0  0  0  0
    9.2046    0.9098    0.0000 H   0  0  0  0  0  0  0  0  0  0  0  0
    6.7612   -2.2644    0.0000 H   0  0  0  0  0  0  0  0  0  0  0  0
    7.1523   -1.5685    0.0000 H   0  0  0  0  0  0  0  0  0  0  0  0
    8.0131    1.8575    0.0000 H   0  0  0  0  0  0  0  0  0  0  0  0
    7.3931    2.4775    0.0000 H   0  0  0  0  0  0  0  0  0  0  0  0
    6.7731    1.8575    0.0000 H   0  0  0  0  0  0  0  0  0  0  0  0
    5.2478   -2.6877    0.0000 H   0  0  0  0  0  0  0  0  0  0  0  0
    6.0460   -2.6846    0.0000 H   0  0  0  0  0  0  0  0  0  0  0  0
    9.9229   -0.2625    0.0000 H   0  0  0  0  0  0  0  0  0  0  0  0
   10.5429    0.3575    0.0000 H   0  0  0  0  0  0  0  0  0  0  0  0
    9.9229    0.9775    0.0000 H   0  0  0  0  0  0  0  0  0  0  0  0
    5.0005    0.5005    0.0000 H   0  0  0  0  0  0  0  0  0  0  0  0
    4.2087    0.8772    0.0000 H   0  0  0  0  0  0  0  0  0  0  0  0
    3.8320    0.0854    0.0000 H   0  0  0  0  0  0  0  0  0  0  0  0
    3.8361    0.5347    0.0000 H   0  0  0  0  0  0  0  0  0  0  0  0
    9.2566    2.2406    0.0000 H   0  0  0  0  0  0  0  0  0  0  0  0
    4.7950    1.9775    0.0000 H   0  0  0  0  0  0  0  0  0  0  0  0
    3.8100   -2.8606    0.0000 H   0  0  0  0  0  0  0  0  0  0  0  0
    2.3430   -0.2970    0.0000 H   0  0  0  0  0  0  0  0  0  0  0  0
  8  1  1  6  0  0  0
  9  2  1  1  0  0  0
  2 48  1  0  0  0  0
 12  3  1  1  0  0  0
  3 49  1  0  0  0  0
  4 24  2  0  0  0  0
  5  6  1  0  0  0  0
  5  7  1  0  0  0  0
  5 11  1  0  0  0  0
  5 25  1  6  0  0  0
  6  9  1  0  0  0  0
  6 10  1  0  0  0  0
  6 16  1  1  0  0  0
  7  8  1  0  0  0  0
  7 15  1  0  0  0  0
  7 26  1  1  0  0  0
  8 12  1  0  0  0  0
  8 14  1  0  0  0  0
  9 13  1  0  0  0  0
  9 27  1  0  0  0  0
 10 12  1  0  0  0  0
 10 28  1  0  0  0  0
 10 29  1  0  0  0  0
 11 13  1  0  0  0  0
 11 30  1  0  0  0  0
 11 31  1  0  0  0  0
 12 32  1  0  0  0  0
 13 19  1  6  0  0  0
 13 33  1  0  0  0  0
 14 18  1  0  0  0  0
 14 20  1  1  0  0  0
 14 21  1  0  0  0  0
 15 17  1  0  0  0  0
 15 34  1  0  0  0  0
 15 35  1  0  0  0  0
 16 36  1  0  0  0  0
 16 37  1  0  0  0  0
 16 38  1  0  0  0  0
 17 18  1  0  0  0  0
 17 39  1  0  0  0  0
 17 40  1  0  0  0  0
 18 22  2  0  0  0  0
 19 41  1  0  0  0  0
 19 42  1  0  0  0  0
 19 43  1  0  0  0  0
 20 44  1  0  0  0  0
 20 45  1  0  0  0  0
 20 46  1  0  0  0  0
 21 23  2  0  0  0  0
 21 47  1  0  0  0  0
 22 24  1  0  0  0  0
 22 50  1  0  0  0  0
 23 24  1  0  0  0  0
 23 51  1  0  0  0  0
M  END
> <PUBCHEM_COMPOUND_CID>
243752

> <PUBCHEM_COMPOUND_CANONICALIZED>
1

> <PUBCHEM_CACTVS_COMPLEXITY>
655

> <PUBCHEM_CACTVS_HBOND_ACCEPTOR>
4

> <PUBCHEM_CACTVS_HBOND_DONOR>
2

> <PUBCHEM_CACTVS_ROTATABLE_BOND>
0

> <PUBCHEM_CACTVS_SUBSKEYS>
AAADceB4MQAAAAAAAAAAAAAAAAAAAYAAAAAwYIAAAAAAAGDAAAAAGwAACAAADxSggAICAAAAAgCIAqBSAAAAAAAgAAAICAAAAEgAEAIAAQAAQAAEgAAIAYPAwPAPgAAAAAAAAADAAAYAADAAAYAADAAAAA==

> <PUBCHEM_IUPAC_OPENEYE_NAME>
(8S,9R,10S,11S,13S,14S,16R,17S)-9-fluoro-11,17-dihydroxy-10,13,16-trimethyl-7,8,11,12,14,15,16,17-octahydro-6H-cyclopenta[a]phenanthren-3-one

> <PUBCHEM_IUPAC_CAS_NAME>
(8S,9R,10S,11S,13S,14S,16R,17S)-9-fluoro-11,17-dihydroxy-10,13,16-trimethyl-7,8,11,12,14,15,16,17-octahydro-6H-cyclopenta[a]phenanthren-3-one

> <PUBCHEM_IUPAC_NAME>
(8S,9R,10S,11S,13S,14S,16R,17S)-9-fluoro-11,17-dihydroxy-10,13,16-trimethyl-7,8,11,12,14,15,16,17-octahydro-6H-cyclopenta[a]phenanthren-3-one

> <PUBCHEM_IUPAC_SYSTEMATIC_NAME>
(8S,9R,10S,11S,13S,14S,16R,17S)-9-fluoranyl-10,13,16-trimethyl-11,17-bis(oxidanyl)-7,8,11,12,14,15,16,17-octahydro-6H-cyclopenta[a]phenanthren-3-one

> <PUBCHEM_IUPAC_TRADITIONAL_NAME>
(8S,9R,10S,11S,13S,14S,16R,17S)-9-fluoro-11,17-dihydroxy-10,13,16-trimethyl-7,8,11,12,14,15,16,17-octahydro-6H-cyclopenta[a]phenanthren-3-one

> <PUBCHEM_IUPAC_INCHI>
InChI=1S/C20H27FO3/c1-11-8-15-14-5-4-12-9-13(22)6-7-19(12,3)20(14,21)16(23)10-18(15,2)17(11)24/h6-7,9,11,14-17,23-24H,4-5,8,10H2,1-3H3/t11-,14+,15+,16+,17+,18+,19+,20+/m1/s1

> <PUBCHEM_IUPAC_INCHIKEY>
KRJYQZVCFICBNU-NBLXTBOZSA-N

> <PUBCHEM_XLOGP3>
2.8

> <PUBCHEM_EXACT_MASS>
334.194423

> <PUBCHEM_MOLECULAR_FORMULA>
C20H27FO3

> <PUBCHEM_MOLECULAR_WEIGHT>
334.424983

> <PUBCHEM_OPENEYE_CAN_SMILES>
CC1CC2C3CCC4=CC(=O)C=CC4(C3(C(CC2(C1O)C)O)F)C

> <PUBCHEM_OPENEYE_ISO_SMILES>
C[C@@H]1C[C@H]2[C@@H]3CCC4=CC(=O)C=C[C@@]4([C@]3([C@H](C[C@@]2([C@H]1O)C)O)F)C

> <PUBCHEM_CACTVS_TPSA>
57.5

> <PUBCHEM_MONOISOTOPIC_WEIGHT>
334.194423

> <PUBCHEM_TOTAL_CHARGE>
0

> <PUBCHEM_HEAVY_ATOM_COUNT>
24

> <PUBCHEM_ATOM_DEF_STEREO_COUNT>
8

> <PUBCHEM_ATOM_UDEF_STEREO_COUNT>
0

> <PUBCHEM_BOND_DEF_STEREO_COUNT>
0

> <PUBCHEM_BOND_UDEF_STEREO_COUNT>
0

> <PUBCHEM_ISOTOPIC_ATOM_COUNT>
0

> <PUBCHEM_COMPONENT_COUNT>
1

> <PUBCHEM_CACTVS_TAUTO_COUNT>
3

> <PUBCHEM_COORDINATE_TYPE>
1
5
255

> <PUBCHEM_BONDANNOTATIONS>
8  1  6
13  19  6
14  20  5
9  2  5
12  3  5
5  25  6
6  16  5
7  26  5

$$$$

