102225
  -OEChem-07051213053D

 40 43  0     1  0  0  0  0  0999 V2000
    4.9427    1.0770   -0.4341 O   0  0  0  0  0  0  0  0  0  0  0  0
   -5.8496    0.0815    0.3096 O   0  0  0  0  0  0  0  0  0  0  0  0
    1.9690   -0.7090   -0.2057 C   0  0  2  0  0  0  0  0  0  0  0  0
    2.6535    0.6042    0.2405 C   0  0  2  0  0  0  0  0  0  0  0  0
    0.4993   -0.7373    0.2228 C   0  0  1  0  0  0  0  0  0  0  0  0
   -0.2246    0.4484   -0.5013 C   0  0  2  0  0  0  0  0  0  0  0  0
    1.9949    1.7630   -0.5025 C   0  0  0  0  0  0  0  0  0  0  0  0
    2.9298   -1.7993    0.2605 C   0  0  0  0  0  0  0  0  0  0  0  0
    0.4776    1.8033   -0.2385 C   0  0  0  0  0  0  0  0  0  0  0  0
    4.0750    0.2576   -0.1630 C   0  0  0  0  0  0  0  0  0  0  0  0
    4.3009   -1.2445   -0.1547 C   0  0  0  0  0  0  0  0  0  0  0  0
    2.6841    0.8688    1.7581 C   0  0  0  0  0  0  0  0  0  0  0  0
   -1.7224    0.3982   -0.2214 C   0  0  0  0  0  0  0  0  0  0  0  0
   -0.2035   -2.0389   -0.0779 C   0  0  0  0  0  0  0  0  0  0  0  0
   -2.3411   -0.8717   -0.1472 C   0  0  0  0  0  0  0  0  0  0  0  0
   -1.5315   -2.0924   -0.2551 C   0  0  0  0  0  0  0  0  0  0  0  0
   -2.5216    1.5448   -0.1181 C   0  0  0  0  0  0  0  0  0  0  0  0
   -3.7275   -0.9705    0.0250 C   0  0  0  0  0  0  0  0  0  0  0  0
   -3.9016    1.4352    0.0669 C   0  0  0  0  0  0  0  0  0  0  0  0
   -4.5034    0.1816    0.1361 C   0  0  0  0  0  0  0  0  0  0  0  0
    1.9825   -0.7579   -1.3088 H   0  0  0  0  0  0  0  0  0  0  0  0
    0.4351   -0.6050    1.3107 H   0  0  0  0  0  0  0  0  0  0  0  0
   -0.1402    0.2783   -1.5874 H   0  0  0  0  0  0  0  0  0  0  0  0
    2.1704    1.6664   -1.5821 H   0  0  0  0  0  0  0  0  0  0  0  0
    2.4454    2.7192   -0.2098 H   0  0  0  0  0  0  0  0  0  0  0  0
    2.8767   -1.9503    1.3441 H   0  0  0  0  0  0  0  0  0  0  0  0
    2.7406   -2.7644   -0.2193 H   0  0  0  0  0  0  0  0  0  0  0  0
    0.2906    2.1246    0.7934 H   0  0  0  0  0  0  0  0  0  0  0  0
    0.0483    2.5786   -0.8848 H   0  0  0  0  0  0  0  0  0  0  0  0
    4.5662   -1.5673   -1.1656 H   0  0  0  0  0  0  0  0  0  0  0  0
    5.0795   -1.5205    0.5596 H   0  0  0  0  0  0  0  0  0  0  0  0
    3.1987    0.0762    2.3115 H   0  0  0  0  0  0  0  0  0  0  0  0
    3.2312    1.7958    1.9692 H   0  0  0  0  0  0  0  0  0  0  0  0
    1.6863    0.9765    2.1911 H   0  0  0  0  0  0  0  0  0  0  0  0
    0.3656   -2.9625   -0.1021 H   0  0  0  0  0  0  0  0  0  0  0  0
   -2.0298   -3.0386   -0.4350 H   0  0  0  0  0  0  0  0  0  0  0  0
   -2.0933    2.5399   -0.1869 H   0  0  0  0  0  0  0  0  0  0  0  0
   -4.2019   -1.9482    0.0793 H   0  0  0  0  0  0  0  0  0  0  0  0
   -4.5036    2.3366    0.1473 H   0  0  0  0  0  0  0  0  0  0  0  0
   -6.0959   -0.8591    0.3343 H   0  0  0  0  0  0  0  0  0  0  0  0
  1 10  2  0  0  0  0
  2 20  1  0  0  0  0
  2 40  1  0  0  0  0
  3  4  1  0  0  0  0
  3  5  1  0  0  0  0
  3  8  1  0  0  0  0
  3 21  1  0  0  0  0
  4  7  1  0  0  0  0
  4 10  1  0  0  0  0
  4 12  1  0  0  0  0
  5  6  1  0  0  0  0
  5 14  1  0  0  0  0
  5 22  1  0  0  0  0
  6  9  1  0  0  0  0
  6 13  1  0  0  0  0
  6 23  1  0  0  0  0
  7  9  1  0  0  0  0
  7 24  1  0  0  0  0
  7 25  1  0  0  0  0
  8 11  1  0  0  0  0
  8 26  1  0  0  0  0
  8 27  1  0  0  0  0
  9 28  1  0  0  0  0
  9 29  1  0  0  0  0
 10 11  1  0  0  0  0
 11 30  1  0  0  0  0
 11 31  1  0  0  0  0
 12 32  1  0  0  0  0
 12 33  1  0  0  0  0
 12 34  1  0  0  0  0
 13 15  2  0  0  0  0
 13 17  1  0  0  0  0
 14 16  2  0  0  0  0
 14 35  1  0  0  0  0
 15 16  1  0  0  0  0
 15 18  1  0  0  0  0
 16 36  1  0  0  0  0
 17 19  2  0  0  0  0
 17 37  1  0  0  0  0
 18 20  2  0  0  0  0
 18 38  1  0  0  0  0
 19 20  1  0  0  0  0
 19 39  1  0  0  0  0
M  END
> <PUBCHEM_COMPOUND_CID>
102225

> <PUBCHEM_CONFORMER_RMSD>
0.6

> <PUBCHEM_CONFORMER_DIVERSEORDER>
1

> <PUBCHEM_MMFF94_PARTIAL_CHARGES>
21
1 -0.57
10 0.45
11 0.06
13 -0.14
14 -0.29
15 0.03
16 -0.18
17 -0.15
18 -0.15
19 -0.15
2 -0.53
20 0.08
35 0.15
36 0.15
37 0.15
38 0.15
39 0.15
4 0.06
40 0.45
5 0.14
6 0.14

> <PUBCHEM_EFFECTIVE_ROTOR_COUNT>
0.8

> <PUBCHEM_PHARMACOPHORE_FEATURES>
6
1 1 acceptor
1 2 donor
5 3 4 8 10 11 rings
6 13 15 17 18 19 20 rings
6 3 4 5 6 7 9 rings
6 5 6 13 14 15 16 rings

> <PUBCHEM_HEAVY_ATOM_COUNT>
20

> <PUBCHEM_ATOM_DEF_STEREO_COUNT>
4

> <PUBCHEM_ATOM_UDEF_STEREO_COUNT>
0

> <PUBCHEM_BOND_DEF_STEREO_COUNT>
0

> <PUBCHEM_BOND_UDEF_STEREO_COUNT>
0

> <PUBCHEM_ISOTOPIC_ATOM_COUNT>
0

> <PUBCHEM_COMPONENT_COUNT>
1

> <PUBCHEM_CACTVS_TAUTO_COUNT>
6

> <PUBCHEM_CONFORMER_ID>
00018F5100000001

> <PUBCHEM_MMFF94_ENERGY>
63.7718

> <PUBCHEM_FEATURE_SELFOVERLAP>
30.549

> <PUBCHEM_SHAPE_FINGERPRINT>
10616163 171 18337951169217900254
10967382 1 18411419531094486206
11132069 177 18411708677172898801
11578080 2 17097785560077537363
12011746 2 18410853278295377262
12107183 9 17690278630901766377
12236239 1 17775566429207888677
12251169 10 18412826867529055693
12403259 415 18335146405576836929
12403814 3 17632582651561122381
12500047 106 18334018254953721494
12553582 1 18342470222322055644
12592029 89 18341048613948642667
12788726 201 17749379421089010328
128620 24 10879993557899175729
13140716 1 18196940963255145192
13533116 47 17894629300753582031
13675066 3 18335141968685202883
14178342 30 18121239588157963082
14341114 176 18341323457632582267
14790565 3 18412255164248221028
14866123 147 16528335723747444814
15042514 8 18267298738962560891
15196674 1 18411699919465511495
15256400 18 18337390542968035613
15442244 35 18411139164435674118
15536298 74 18335422374072696886
1601671 61 18413388726729855260
16945 1 18266468598291321566
17804303 29 18408321094421412524
1813 80 17132112463599647492
18186145 218 18335708264333693295
19591789 44 18195809789181515718
200 152 18259709999790616413
20028762 73 18259991448908814439
20261772 1 18410573976973064195
20510252 161 18334012838973899585
20645477 70 18335700598086589150
21033648 29 18334871531980717345
21267235 1 18339916112803601214
21279426 13 18120652689065492078
21421861 104 17916317198261797946
22892500 29 17313111817538846856
23184049 59 18412262848076082111
23402539 116 18259991461681913373
23463225 33 18413389855931395887
23557571 272 17969216737982287831
23558518 356 17625822669484991514
23559900 14 18187650163542610512
2748010 2 18268440207223193678
3004659 81 18341888645828759654
335352 9 18338797917645893543
34934 24 18410577241359244726
350125 39 18411133658704747813
3545911 37 18409446977158922396
4214541 1 18410855494799383429
465052 167 17917704704315045811
474 4 17059485207065284812
495365 180 17240777150839416770
5104073 3 18411138056091376602
69090 78 18333735706325033207
7364860 26 18265333907035206612
7495541 125 15357994308755725311
77779 3 18411135852799539638
7832392 63 18336270028939632710
9709674 26 18409443657170905935
9981440 41 17333649371490483384
9999458 23 17988921163088287070

> <PUBCHEM_SHAPE_MULTIPOLES>
399.85
9.61
2.11
0.83
4
0.34
0.25
-0.88
0.5
-0.26
-0.13
-0.48
-0.17
-0.03

> <PUBCHEM_SHAPE_SELFOVERLAP>
883.236

> <PUBCHEM_SHAPE_VOLUME>
214.7

> <PUBCHEM_COORDINATE_TYPE>
2
5
10

$$$$

