443565
  -OEChem-07051213022D

 80 82  0     1  0  0  0  0  0999 V2000
    5.8301   -4.1160    0.0000 O   0  0  0  0  0  0  0  0  0  0  0  0
    5.4641    1.2500    0.0000 O   0  0  0  0  0  0  0  0  0  0  0  0
    5.9881   -2.1897    0.0000 O   0  0  0  0  0  0  0  0  0  0  0  0
    5.4641   -1.7500    0.0000 O   0  0  0  0  0  0  0  0  0  0  0  0
    2.8660   -0.2500    0.0000 O   0  0  0  0  0  0  0  0  0  0  0  0
    2.8660   -3.2500    0.0000 O   0  0  0  0  0  0  0  0  0  0  0  0
    6.3301    2.7500    0.0000 O   0  0  0  0  0  0  0  0  0  0  0  0
    8.9282    1.2500    0.0000 O   0  0  0  0  0  0  0  0  0  0  0  0
    3.7320    1.2500    0.0000 O   0  0  0  0  0  0  0  0  0  0  0  0
    8.9282    3.2500    0.0000 O   0  0  0  0  0  0  0  0  0  0  0  0
    6.3301   -3.2500    0.0000 C   0  0  2  0  0  0  0  0  0  0  0  0
    7.1962   -2.7500    0.0000 C   0  0  0  0  0  0  0  0  0  0  0  0
    7.1962   -1.7500    0.0000 C   0  0  1  0  0  0  0  0  0  0  0  0
    6.8301   -4.1160    0.0000 C   0  0  0  0  0  0  0  0  0  0  0  0
    6.3301   -1.2500    0.0000 C   0  0  1  0  0  0  0  0  0  0  0  0
    6.3301   -0.2500    0.0000 C   0  0  2  0  0  0  0  0  0  0  0  0
    5.4641   -2.7500    0.0000 C   0  0  0  0  0  0  0  0  0  0  0  0
    4.5981   -3.2500    0.0000 C   0  0  1  0  0  0  0  0  0  0  0  0
    5.4641    0.2500    0.0000 C   0  0  1  0  0  0  0  0  0  0  0  0
    3.7320   -2.7500    0.0000 C   0  0  2  0  0  0  0  0  0  0  0  0
    8.0622   -1.2500    0.0000 C   0  0  0  0  0  0  0  0  0  0  0  0
    4.5981   -0.2500    0.0000 C   0  0  2  0  0  0  0  0  0  0  0  0
    3.7320   -1.7500    0.0000 C   0  0  2  0  0  0  0  0  0  0  0  0
    7.1962    0.2500    0.0000 C   0  0  0  0  0  0  0  0  0  0  0  0
    4.5981   -4.2500    0.0000 C   0  0  0  0  0  0  0  0  0  0  0  0
    2.8660   -1.2500    0.0000 C   0  0  1  0  0  0  0  0  0  0  0  0
    6.3301    1.7500    0.0000 C   0  0  2  0  0  0  0  0  0  0  0  0
    3.7320    0.2500    0.0000 C   0  0  0  0  0  0  0  0  0  0  0  0
    7.1962    1.2500    0.0000 C   0  0  0  0  0  0  0  0  0  0  0  0
    4.5981   -1.2500    0.0000 C   0  0  0  0  0  0  0  0  0  0  0  0
    3.7320   -0.7500    0.0000 C   0  0  0  0  0  0  0  0  0  0  0  0
    8.0622    1.7500    0.0000 C   0  0  1  0  0  0  0  0  0  0  0  0
    8.0622    2.7500    0.0000 C   0  0  2  0  0  0  0  0  0  0  0  0
    7.1962    3.2500    0.0000 C   0  0  2  0  0  0  0  0  0  0  0  0
    2.0000   -1.7500    0.0000 C   0  0  0  0  0  0  0  0  0  0  0  0
    7.1962    4.2500    0.0000 C   0  0  0  0  0  0  0  0  0  0  0  0
    7.4082   -3.3326    0.0000 H   0  0  0  0  0  0  0  0  0  0  0  0
    7.8067   -2.6423    0.0000 H   0  0  0  0  0  0  0  0  0  0  0  0
    7.7331   -2.0600    0.0000 H   0  0  0  0  0  0  0  0  0  0  0  0
    6.9378   -4.7266    0.0000 H   0  0  0  0  0  0  0  0  0  0  0  0
    7.4127   -3.9040    0.0000 H   0  0  0  0  0  0  0  0  0  0  0  0
    5.7196   -1.1423    0.0000 H   0  0  0  0  0  0  0  0  0  0  0  0
    6.8671   -0.5600    0.0000 H   0  0  0  0  0  0  0  0  0  0  0  0
    5.1350   -3.5600    0.0000 H   0  0  0  0  0  0  0  0  0  0  0  0
    6.0010    0.5600    0.0000 H   0  0  0  0  0  0  0  0  0  0  0  0
    3.7320   -3.3700    0.0000 H   0  0  0  0  0  0  0  0  0  0  0  0
    8.3722   -1.7869    0.0000 H   0  0  0  0  0  0  0  0  0  0  0  0
    8.5991   -0.9400    0.0000 H   0  0  0  0  0  0  0  0  0  0  0  0
    7.7522   -0.7131    0.0000 H   0  0  0  0  0  0  0  0  0  0  0  0
    5.1350   -0.5600    0.0000 H   0  0  0  0  0  0  0  0  0  0  0  0
    4.3520   -1.7500    0.0000 H   0  0  0  0  0  0  0  0  0  0  0  0
    7.5062   -0.2869    0.0000 H   0  0  0  0  0  0  0  0  0  0  0  0
    7.7331    0.5600    0.0000 H   0  0  0  0  0  0  0  0  0  0  0  0
    6.8862    0.7869    0.0000 H   0  0  0  0  0  0  0  0  0  0  0  0
    3.9781   -4.2500    0.0000 H   0  0  0  0  0  0  0  0  0  0  0  0
    4.5981   -4.8700    0.0000 H   0  0  0  0  0  0  0  0  0  0  0  0
    5.2181   -4.2500    0.0000 H   0  0  0  0  0  0  0  0  0  0  0  0
    2.3291   -0.9400    0.0000 H   0  0  0  0  0  0  0  0  0  0  0  0
    5.7932    2.0600    0.0000 H   0  0  0  0  0  0  0  0  0  0  0  0
    6.5707   -2.4017    0.0000 H   0  0  0  0  0  0  0  0  0  0  0  0
    6.7976    0.7751    0.0000 H   0  0  0  0  0  0  0  0  0  0  0  0
    7.5947    0.7751    0.0000 H   0  0  0  0  0  0  0  0  0  0  0  0
    3.9781   -1.2500    0.0000 H   0  0  0  0  0  0  0  0  0  0  0  0
    4.5981   -1.8700    0.0000 H   0  0  0  0  0  0  0  0  0  0  0  0
    5.2181   -1.2500    0.0000 H   0  0  0  0  0  0  0  0  0  0  0  0
    4.3520   -0.7500    0.0000 H   0  0  0  0  0  0  0  0  0  0  0  0
    3.7320   -0.1300    0.0000 H   0  0  0  0  0  0  0  0  0  0  0  0
    3.1120   -0.7500    0.0000 H   0  0  0  0  0  0  0  0  0  0  0  0
    8.0622    1.1300    0.0000 H   0  0  0  0  0  0  0  0  0  0  0  0
    8.0622    3.3700    0.0000 H   0  0  0  0  0  0  0  0  0  0  0  0
    6.6592    3.5600    0.0000 H   0  0  0  0  0  0  0  0  0  0  0  0
    2.8660   -3.8700    0.0000 H   0  0  0  0  0  0  0  0  0  0  0  0
    1.6900   -1.2131    0.0000 H   0  0  0  0  0  0  0  0  0  0  0  0
    1.4631   -2.0600    0.0000 H   0  0  0  0  0  0  0  0  0  0  0  0
    2.3100   -2.2869    0.0000 H   0  0  0  0  0  0  0  0  0  0  0  0
    7.8162    4.2500    0.0000 H   0  0  0  0  0  0  0  0  0  0  0  0
    7.1962    4.8700    0.0000 H   0  0  0  0  0  0  0  0  0  0  0  0
    6.5762    4.2500    0.0000 H   0  0  0  0  0  0  0  0  0  0  0  0
    9.4651    1.5600    0.0000 H   0  0  0  0  0  0  0  0  0  0  0  0
    8.9282    3.8700    0.0000 H   0  0  0  0  0  0  0  0  0  0  0  0
 11  1  1  6  0  0  0
  1 14  1  0  0  0  0
 19  2  1  1  0  0  0
 27  2  1  6  0  0  0
 15  3  1  6  0  0  0
  3 60  1  0  0  0  0
  4 17  2  0  0  0  0
  5 26  1  0  0  0  0
  5 28  1  0  0  0  0
 20  6  1  1  0  0  0
  6 72  1  0  0  0  0
  7 27  1  0  0  0  0
  7 34  1  0  0  0  0
 32  8  1  1  0  0  0
  8 79  1  0  0  0  0
  9 28  2  0  0  0  0
 33 10  1  6  0  0  0
 10 80  1  0  0  0  0
 11 12  1  0  0  0  0
 11 14  1  0  0  0  0
 11 17  1  0  0  0  0
 12 13  1  0  0  0  0
 12 37  1  0  0  0  0
 12 38  1  0  0  0  0
 13 15  1  0  0  0  0
 13 21  1  1  0  0  0
 13 39  1  0  0  0  0
 14 40  1  0  0  0  0
 14 41  1  0  0  0  0
 15 16  1  0  0  0  0
 15 42  1  0  0  0  0
 16 19  1  0  0  0  0
 16 24  1  6  0  0  0
 16 43  1  0  0  0  0
 17 18  1  0  0  0  0
 18 20  1  0  0  0  0
 18 25  1  6  0  0  0
 18 44  1  0  0  0  0
 19 22  1  0  0  0  0
 19 45  1  0  0  0  0
 20 23  1  0  0  0  0
 20 46  1  0  0  0  0
 21 47  1  0  0  0  0
 21 48  1  0  0  0  0
 21 49  1  0  0  0  0
 22 28  1  0  0  0  0
 22 30  1  1  0  0  0
 22 50  1  0  0  0  0
 23 26  1  0  0  0  0
 23 31  1  6  0  0  0
 23 51  1  0  0  0  0
 24 52  1  0  0  0  0
 24 53  1  0  0  0  0
 24 54  1  0  0  0  0
 25 55  1  0  0  0  0
 25 56  1  0  0  0  0
 25 57  1  0  0  0  0
 26 35  1  1  0  0  0
 26 58  1  0  0  0  0
 27 29  1  0  0  0  0
 27 59  1  0  0  0  0
 29 32  1  0  0  0  0
 29 61  1  0  0  0  0
 29 62  1  0  0  0  0
 30 63  1  0  0  0  0
 30 64  1  0  0  0  0
 30 65  1  0  0  0  0
 31 66  1  0  0  0  0
 31 67  1  0  0  0  0
 31 68  1  0  0  0  0
 32 33  1  0  0  0  0
 32 69  1  0  0  0  0
 33 34  1  0  0  0  0
 33 70  1  0  0  0  0
 34 36  1  1  0  0  0
 34 71  1  0  0  0  0
 35 73  1  0  0  0  0
 35 74  1  0  0  0  0
 35 75  1  0  0  0  0
 36 76  1  0  0  0  0
 36 77  1  0  0  0  0
 36 78  1  0  0  0  0
M  END
> <PUBCHEM_COMPOUND_CID>
443565

> <PUBCHEM_COMPOUND_CANONICALIZED>
1

> <PUBCHEM_CACTVS_COMPLEXITY>
791

> <PUBCHEM_CACTVS_HBOND_ACCEPTOR>
10

> <PUBCHEM_CACTVS_HBOND_DONOR>
4

> <PUBCHEM_CACTVS_ROTATABLE_BOND>
2

> <PUBCHEM_CACTVS_SUBSKEYS>
AAADcfB4PAAAAAAAAAAAAAAAEgAAAAAAAAAkAAAAAAAAAAAAAAAAGgAACAAADVSwgAMCCAAABgAIAICQCAIAAAAAAAAAAAFAAAAREBYAAAQiQAAFIAAHAAHI7PzOAAAAAAAAAAAAAAAAAAAAAAAAAAAAAA==

> <PUBCHEM_IUPAC_OPENEYE_NAME>
(14R,15R,16S,17R,18R,21R,22S,23R,24S,25S)-22-[(2R,4S,5R,6S)-4,5-dihydroxy-6-methyl-tetrahydropyran-2-yl]oxy-16,24-dihydroxy-15,17,18,21,23,25-hexamethyl-1,19-dioxaspiro[2.13]hexadecane-14,20-dione

> <PUBCHEM_IUPAC_CAS_NAME>
(14R,15R,16S,17R,18R,21R,22S,23R,24S,25S)-22-[[(2R,4S,5R,6S)-4,5-dihydroxy-6-methyl-2-oxanyl]oxy]-16,24-dihydroxy-15,17,18,21,23,25-hexamethyl-1,19-dioxaspiro[2.13]hexadecane-14,20-dione

> <PUBCHEM_IUPAC_NAME>
(14R,15R,16S,17R,18R,21R,22S,23R,24S,25S)-22-[(2R,4S,5R,6S)-4,5-dihydroxy-6-methyloxan-2-yl]oxy-16,24-dihydroxy-15,17,18,21,23,25-hexamethyl-1,19-dioxaspiro[2.13]hexadecane-14,20-dione

> <PUBCHEM_IUPAC_SYSTEMATIC_NAME>
(14R,15R,16S,17R,18R,21R,22S,23R,24S,25S)-15,17,18,21,23,25-hexamethyl-22-[(2R,4S,5R,6S)-6-methyl-4,5-bis(oxidanyl)oxan-2-yl]oxy-16,24-bis(oxidanyl)-1,19-dioxaspiro[2.13]hexadecane-14,20-dione

> <PUBCHEM_IUPAC_TRADITIONAL_NAME>
(14R,15R,16S,17R,18R,21R,22S,23R,24S,25S)-22-[(2R,4S,5R,6S)-4,5-dihydroxy-6-methyl-tetrahydropyran-2-yl]oxy-16,24-dihydroxy-15,17,18,21,23,25-hexamethyl-1,19-dioxaspiro[2.13]hexadecane-14,20-quinone

> <PUBCHEM_IUPAC_INCHI>
InChI=1S/C26H44O10/c1-11-9-26(10-33-26)24(31)14(4)21(29)12(2)16(6)35-25(32)15(5)23(13(3)20(11)28)36-19-8-18(27)22(30)17(7)34-19/h11-23,27-30H,8-10H2,1-7H3/t11-,12-,13+,14+,15+,16+,17-,18-,19-,20-,21-,22-,23-,26+/m0/s1

> <PUBCHEM_IUPAC_INCHIKEY>
SBBLTTCUMKGRJI-GYHYDPCPSA-N

> <PUBCHEM_XLOGP3_AA>
1.4

> <PUBCHEM_EXACT_MASS>
516.293448

> <PUBCHEM_MOLECULAR_FORMULA>
C26H44O10

> <PUBCHEM_MOLECULAR_WEIGHT>
516.62156

> <PUBCHEM_OPENEYE_CAN_SMILES>
CC1CC2(CO2)C(=O)C(C(C(C(OC(=O)C(C(C(C1O)C)OC3CC(C(C(O3)C)O)O)C)C)C)O)C

> <PUBCHEM_OPENEYE_ISO_SMILES>
C[C@H]1C[C@@]2(CO2)C(=O)[C@@H]([C@H]([C@H]([C@H](OC(=O)[C@@H]([C@H]([C@@H]([C@H]1O)C)O[C@H]3C[C@@H]([C@H]([C@@H](O3)C)O)O)C)C)C)O)C

> <PUBCHEM_CACTVS_TPSA>
155

> <PUBCHEM_MONOISOTOPIC_WEIGHT>
516.293448

> <PUBCHEM_TOTAL_CHARGE>
0

> <PUBCHEM_HEAVY_ATOM_COUNT>
36

> <PUBCHEM_ATOM_DEF_STEREO_COUNT>
14

> <PUBCHEM_ATOM_UDEF_STEREO_COUNT>
0

> <PUBCHEM_BOND_DEF_STEREO_COUNT>
0

> <PUBCHEM_BOND_UDEF_STEREO_COUNT>
0

> <PUBCHEM_ISOTOPIC_ATOM_COUNT>
0

> <PUBCHEM_COMPONENT_COUNT>
1

> <PUBCHEM_CACTVS_TAUTO_COUNT>
4

> <PUBCHEM_COORDINATE_TYPE>
1
5
255

> <PUBCHEM_BONDANNOTATIONS>
11  1  6
33  10  6
13  21  5
16  24  6
18  25  6
19  2  5
27  2  6
22  30  5
23  31  6
26  35  5
15  3  6
34  36  5
20  6  5
32  8  5

$$$$

