70143
  -OEChem-07051212523D

 25 25  0     0  0  0  0  0  0999 V2000
   -3.5318   -0.2556   -0.7646 O   0  0  0  0  0  0  0  0  0  0  0  0
   -1.7485   -0.1664    0.7305 N   0  0  0  0  0  0  0  0  0  0  0  0
   -0.1568   -1.4521   -0.6519 C   0  0  0  0  0  0  0  0  0  0  0  0
   -1.2025   -1.4713    0.4698 C   0  0  0  0  0  0  0  0  0  0  0  0
    1.0228   -0.5897   -0.3527 C   0  0  0  0  0  0  0  0  0  0  0  0
    1.0138    0.7560   -0.7194 C   0  0  0  0  0  0  0  0  0  0  0  0
    2.1349   -1.1291    0.2936 C   0  0  0  0  0  0  0  0  0  0  0  0
    2.1171    1.5624   -0.4398 C   0  0  0  0  0  0  0  0  0  0  0  0
    3.2381   -0.3226    0.5733 C   0  0  0  0  0  0  0  0  0  0  0  0
   -2.8727    0.3336    0.0881 C   0  0  0  0  0  0  0  0  0  0  0  0
    3.2293    1.0231    0.2067 C   0  0  0  0  0  0  0  0  0  0  0  0
   -3.2436    1.7118    0.5663 C   0  0  0  0  0  0  0  0  0  0  0  0
    0.1782   -2.4795   -0.8440 H   0  0  0  0  0  0  0  0  0  0  0  0
   -0.6249   -1.1181   -1.5874 H   0  0  0  0  0  0  0  0  0  0  0  0
   -2.0168   -2.1522    0.1990 H   0  0  0  0  0  0  0  0  0  0  0  0
   -0.7588   -1.8290    1.4054 H   0  0  0  0  0  0  0  0  0  0  0  0
   -1.2819    0.4102    1.4248 H   0  0  0  0  0  0  0  0  0  0  0  0
    0.1554    1.1895   -1.2256 H   0  0  0  0  0  0  0  0  0  0  0  0
    2.1534   -2.1755    0.5864 H   0  0  0  0  0  0  0  0  0  0  0  0
    2.1104    2.6102   -0.7256 H   0  0  0  0  0  0  0  0  0  0  0  0
    4.1039   -0.7424    1.0771 H   0  0  0  0  0  0  0  0  0  0  0  0
    4.0882    1.6510    0.4246 H   0  0  0  0  0  0  0  0  0  0  0  0
   -3.9852    2.1486   -0.1082 H   0  0  0  0  0  0  0  0  0  0  0  0
   -3.6654    1.6468    1.5729 H   0  0  0  0  0  0  0  0  0  0  0  0
   -2.3612    2.3581    0.5815 H   0  0  0  0  0  0  0  0  0  0  0  0
  1 10  2  0  0  0  0
  2  4  1  0  0  0  0
  2 10  1  0  0  0  0
  2 17  1  0  0  0  0
  3  4  1  0  0  0  0
  3  5  1  0  0  0  0
  3 13  1  0  0  0  0
  3 14  1  0  0  0  0
  4 15  1  0  0  0  0
  4 16  1  0  0  0  0
  5  6  2  0  0  0  0
  5  7  1  0  0  0  0
  6  8  1  0  0  0  0
  6 18  1  0  0  0  0
  7  9  2  0  0  0  0
  7 19  1  0  0  0  0
  8 11  2  0  0  0  0
  8 20  1  0  0  0  0
  9 11  1  0  0  0  0
  9 21  1  0  0  0  0
 10 12  1  0  0  0  0
 11 22  1  0  0  0  0
 12 23  1  0  0  0  0
 12 24  1  0  0  0  0
 12 25  1  0  0  0  0
M  END
> <PUBCHEM_COMPOUND_CID>
70143

> <PUBCHEM_CONFORMER_RMSD>
0.6

> <PUBCHEM_CONFORMER_DIVERSEORDER>
1
4
14
7
6
12
3
5
2
13
8
9
11
10

> <PUBCHEM_MMFF94_PARTIAL_CHARGES>
18
1 -0.57
10 0.57
11 -0.15
12 0.06
17 0.37
18 0.15
19 0.15
2 -0.73
20 0.15
21 0.15
22 0.15
3 0.14
4 0.3
5 -0.14
6 -0.15
7 -0.15
8 -0.15
9 -0.15

> <PUBCHEM_EFFECTIVE_ROTOR_COUNT>
4

> <PUBCHEM_PHARMACOPHORE_FEATURES>
3
1 1 acceptor
1 2 donor
6 5 6 7 8 9 11 rings

> <PUBCHEM_HEAVY_ATOM_COUNT>
12

> <PUBCHEM_ATOM_DEF_STEREO_COUNT>
0

> <PUBCHEM_ATOM_UDEF_STEREO_COUNT>
0

> <PUBCHEM_BOND_DEF_STEREO_COUNT>
0

> <PUBCHEM_BOND_UDEF_STEREO_COUNT>
0

> <PUBCHEM_ISOTOPIC_ATOM_COUNT>
0

> <PUBCHEM_COMPONENT_COUNT>
1

> <PUBCHEM_CACTVS_TAUTO_COUNT>
2

> <PUBCHEM_CONFORMER_ID>
000111FF00000001

> <PUBCHEM_MMFF94_ENERGY>
20.4254

> <PUBCHEM_FEATURE_SELFOVERLAP>
15.223

> <PUBCHEM_SHAPE_FINGERPRINT>
10149128 76 18409161121505428409
11769659 78 8790613580462805088
12162725 195 18410012139268401513
12251169 10 18272931596337669162
124424 183 17632583768162837666
12897270 3 6627753275059303338
13618510 140 18341045225008189292
14128692 85 9223240636920844526
14144814 61 18342737420568706137
14325111 11 18409166619047743017
14897335 6 18337395945952510998
15442244 35 18339364183593674290
15775835 57 18259701207475752617
17834069 15 18059861709020323244
18186145 218 18336824307448840629
18511873 20 18343585161540709898
18522851 12 9943523054956199609
19107657 47 17917721209626470141
21524375 3 18408887338926155063
22485316 2 10087638191439466555
230 275 18408876330745386998
23402539 116 18336838507001319407
23557571 272 16805325504896845545
305870 269 18269556207578831795
94968 8 9294704477521263217

> <PUBCHEM_SHAPE_MULTIPOLES>
236.1
6.12
1.75
0.87
2.54
0.18
0.03
2.15
-0.74
0.11
-0.02
0.08
-0.02
-0.44

> <PUBCHEM_SHAPE_SELFOVERLAP>
476.242

> <PUBCHEM_SHAPE_VOLUME>
137.9

> <PUBCHEM_COORDINATE_TYPE>
2
5
10

$$$$

