442166
  -OEChem-07051212572D

 53 55  0     1  0  0  0  0  0999 V2000
    6.4044    3.5544    0.0000 O   0  0  0  0  0  0  0  0  0  0  0  0
    4.6497   -3.5461    0.0000 O   0  0  0  0  0  0  0  0  0  0  0  0
    2.8680   -0.4874    0.0000 O   0  0  0  0  0  0  0  0  0  0  0  0
    2.8680   -2.5357    0.0000 O   0  0  0  0  0  0  0  0  0  0  0  0
    7.2641   -1.0115    0.0000 N   0  0  3  0  0  0  0  0  0  0  0  0
    7.2800    1.0577    0.0000 C   0  0  2  0  0  0  0  0  0  0  0  0
    8.1821    0.5369    0.0000 C   0  0  2  0  0  0  0  0  0  0  0  0
    6.3981   -0.5115    0.0000 C   0  0  1  0  0  0  0  0  0  0  0  0
    6.3820    0.5300    0.0000 C   0  0  0  0  0  0  0  0  0  0  0  0
    8.1741   -0.5047    0.0000 C   0  0  0  0  0  0  0  0  0  0  0  0
    7.2641   -2.0115    0.0000 C   0  0  0  0  0  0  0  0  0  0  0  0
    5.5320   -1.0115    0.0000 C   0  0  0  0  0  0  0  0  0  0  0  0
    7.2762    2.0577    0.0000 C   0  0  0  0  0  0  0  0  0  0  0  0
    9.0501    1.0336    0.0000 C   0  0  0  0  0  0  0  0  0  0  0  0
    6.3981   -2.5115    0.0000 C   0  0  0  0  0  0  0  0  0  0  0  0
    5.5320   -2.0115    0.0000 C   0  0  0  0  0  0  0  0  0  0  0  0
    6.4082    2.5544    0.0000 C   0  0  0  0  0  0  0  0  0  0  0  0
    4.6381   -0.4769    0.0000 C   0  0  0  0  0  0  0  0  0  0  0  0
    9.9142    0.5302    0.0000 C   0  0  0  0  0  0  0  0  0  0  0  0
    4.6381   -2.5462    0.0000 C   0  0  0  0  0  0  0  0  0  0  0  0
    3.7320   -0.9907    0.0000 C   0  0  0  0  0  0  0  0  0  0  0  0
    3.7320   -2.0323    0.0000 C   0  0  0  0  0  0  0  0  0  0  0  0
    2.8718    0.5126    0.0000 C   0  0  0  0  0  0  0  0  0  0  0  0
    2.0000   -2.0390    0.0000 C   0  0  0  0  0  0  0  0  0  0  0  0
    6.7413    1.3646    0.0000 H   0  0  0  0  0  0  0  0  0  0  0  0
    8.7173    0.2238    0.0000 H   0  0  0  0  0  0  0  0  0  0  0  0
    7.1309   -0.0809    0.0000 H   0  0  0  0  0  0  0  0  0  0  0  0
    6.1640    1.1104    0.0000 H   0  0  0  0  0  0  0  0  0  0  0  0
    5.7729    0.4145    0.0000 H   0  0  0  0  0  0  0  0  0  0  0  0
    8.3786   -1.0900    0.0000 H   0  0  0  0  0  0  0  0  0  0  0  0
    8.7858   -0.4033    0.0000 H   0  0  0  0  0  0  0  0  0  0  0  0
    7.4762   -2.5941    0.0000 H   0  0  0  0  0  0  0  0  0  0  0  0
    7.8747   -1.9039    0.0000 H   0  0  0  0  0  0  0  0  0  0  0  0
    7.8872    1.9524    0.0000 H   0  0  0  0  0  0  0  0  0  0  0  0
    7.4860    2.6412    0.0000 H   0  0  0  0  0  0  0  0  0  0  0  0
    9.4504    1.5070    0.0000 H   0  0  0  0  0  0  0  0  0  0  0  0
    8.6534    1.5101    0.0000 H   0  0  0  0  0  0  0  0  0  0  0  0
    5.9995   -2.9865    0.0000 H   0  0  0  0  0  0  0  0  0  0  0  0
    6.7966   -2.9865    0.0000 H   0  0  0  0  0  0  0  0  0  0  0  0
    5.7973    2.6597    0.0000 H   0  0  0  0  0  0  0  0  0  0  0  0
    6.1984    1.9710    0.0000 H   0  0  0  0  0  0  0  0  0  0  0  0
    4.6453    0.1431    0.0000 H   0  0  0  0  0  0  0  0  0  0  0  0
    9.6021   -0.0055    0.0000 H   0  0  0  0  0  0  0  0  0  0  0  0
   10.4499    0.2182    0.0000 H   0  0  0  0  0  0  0  0  0  0  0  0
   10.2262    1.0660    0.0000 H   0  0  0  0  0  0  0  0  0  0  0  0
    5.8663    3.8623    0.0000 H   0  0  0  0  0  0  0  0  0  0  0  0
    4.1164   -3.8623    0.0000 H   0  0  0  0  0  0  0  0  0  0  0  0
    3.4918    0.5102    0.0000 H   0  0  0  0  0  0  0  0  0  0  0  0
    2.8742    1.1326    0.0000 H   0  0  0  0  0  0  0  0  0  0  0  0
    2.2518    0.5150    0.0000 H   0  0  0  0  0  0  0  0  0  0  0  0
    2.3079   -1.5009    0.0000 H   0  0  0  0  0  0  0  0  0  0  0  0
    1.4619   -1.7311    0.0000 H   0  0  0  0  0  0  0  0  0  0  0  0
    1.6921   -2.5771    0.0000 H   0  0  0  0  0  0  0  0  0  0  0  0
  1 17  1  0  0  0  0
  1 46  1  0  0  0  0
  2 20  1  0  0  0  0
  2 47  1  0  0  0  0
  3 21  1  0  0  0  0
  3 23  1  0  0  0  0
  4 22  1  0  0  0  0
  4 24  1  0  0  0  0
  5  8  1  0  0  0  0
  5 10  1  0  0  0  0
  5 11  1  0  0  0  0
  6  7  1  0  0  0  0
  6  9  1  0  0  0  0
  6 13  1  6  0  0  0
  6 25  1  0  0  0  0
  7 10  1  0  0  0  0
  7 14  1  1  0  0  0
  7 26  1  0  0  0  0
  8  9  1  0  0  0  0
  8 12  1  0  0  0  0
  8 27  1  1  0  0  0
  9 28  1  0  0  0  0
  9 29  1  0  0  0  0
 10 30  1  0  0  0  0
 10 31  1  0  0  0  0
 11 15  1  0  0  0  0
 11 32  1  0  0  0  0
 11 33  1  0  0  0  0
 12 16  1  0  0  0  0
 12 18  2  0  0  0  0
 13 17  1  0  0  0  0
 13 34  1  0  0  0  0
 13 35  1  0  0  0  0
 14 19  1  0  0  0  0
 14 36  1  0  0  0  0
 14 37  1  0  0  0  0
 15 16  1  0  0  0  0
 15 38  1  0  0  0  0
 15 39  1  0  0  0  0
 16 20  2  0  0  0  0
 17 40  1  0  0  0  0
 17 41  1  0  0  0  0
 18 21  1  0  0  0  0
 18 42  1  0  0  0  0
 19 43  1  0  0  0  0
 19 44  1  0  0  0  0
 19 45  1  0  0  0  0
 20 22  1  0  0  0  0
 21 22  2  0  0  0  0
 23 48  1  0  0  0  0
 23 49  1  0  0  0  0
 23 50  1  0  0  0  0
 24 51  1  0  0  0  0
 24 52  1  0  0  0  0
 24 53  1  0  0  0  0
M  END
> <PUBCHEM_COMPOUND_CID>
442166

> <PUBCHEM_COMPOUND_CANONICALIZED>
1

> <PUBCHEM_CACTVS_COMPLEXITY>
407

> <PUBCHEM_CACTVS_HBOND_ACCEPTOR>
5

> <PUBCHEM_CACTVS_HBOND_DONOR>
2

> <PUBCHEM_CACTVS_ROTATABLE_BOND>
5

> <PUBCHEM_CACTVS_SUBSKEYS>
AAADceB6OAAAAAAAAAAAAAAAAAAAAAAAAAA8WIAAAAAAAACxAAAAHgAACAAADSzhmAYyBoMABgCAAiBCAACCCAAgIAAAiAAOjIgNNyKGsRuEcCtlwBWLuAew8P8OoAABCAAYQABAAAIQADCAAAAAAAAAAA==

> <PUBCHEM_IUPAC_OPENEYE_NAME>
(2R,3R,11bS)-3-ethyl-2-(2-hydroxyethyl)-9,10-dimethoxy-2,3,4,6,7,11b-hexahydro-1H-benzo[a]quinolizin-8-ol

> <PUBCHEM_IUPAC_CAS_NAME>
(2R,3R,11bS)-3-ethyl-2-(2-hydroxyethyl)-9,10-dimethoxy-2,3,4,6,7,11b-hexahydro-1H-benzo[a]quinolizin-8-ol

> <PUBCHEM_IUPAC_NAME>
(2R,3R,11bS)-3-ethyl-2-(2-hydroxyethyl)-9,10-dimethoxy-2,3,4,6,7,11b-hexahydro-1H-benzo[a]quinolizin-8-ol

> <PUBCHEM_IUPAC_SYSTEMATIC_NAME>
(2R,3R,11bS)-3-ethyl-2-(2-hydroxyethyl)-9,10-dimethoxy-2,3,4,6,7,11b-hexahydro-1H-benzo[a]quinolizin-8-ol

> <PUBCHEM_IUPAC_TRADITIONAL_NAME>
(2R,3R,11bS)-3-ethyl-2-(2-hydroxyethyl)-9,10-dimethoxy-2,3,4,6,7,11b-hexahydro-1H-benzo[a]quinolizin-8-ol

> <PUBCHEM_IUPAC_INCHI>
InChI=1S/C19H29NO4/c1-4-12-11-20-7-5-14-15(16(20)9-13(12)6-8-21)10-17(23-2)19(24-3)18(14)22/h10,12-13,16,21-22H,4-9,11H2,1-3H3/t12-,13-,16-/m0/s1

> <PUBCHEM_IUPAC_INCHIKEY>
UYQRWUWLBSTWCM-XEZPLFJOSA-N

> <PUBCHEM_XLOGP3_AA>
2.6

> <PUBCHEM_EXACT_MASS>
335.209658

> <PUBCHEM_MOLECULAR_FORMULA>
C19H29NO4

> <PUBCHEM_MOLECULAR_WEIGHT>
335.43786

> <PUBCHEM_OPENEYE_CAN_SMILES>
CCC1CN2CCC3=C(C(=C(C=C3C2CC1CCO)OC)OC)O

> <PUBCHEM_OPENEYE_ISO_SMILES>
CC[C@H]1CN2CCC3=C(C(=C(C=C3[C@@H]2C[C@@H]1CCO)OC)OC)O

> <PUBCHEM_CACTVS_TPSA>
62.2

> <PUBCHEM_MONOISOTOPIC_WEIGHT>
335.209658

> <PUBCHEM_TOTAL_CHARGE>
0

> <PUBCHEM_HEAVY_ATOM_COUNT>
24

> <PUBCHEM_ATOM_DEF_STEREO_COUNT>
3

> <PUBCHEM_ATOM_UDEF_STEREO_COUNT>
0

> <PUBCHEM_BOND_DEF_STEREO_COUNT>
0

> <PUBCHEM_BOND_UDEF_STEREO_COUNT>
0

> <PUBCHEM_ISOTOPIC_ATOM_COUNT>
0

> <PUBCHEM_COMPONENT_COUNT>
1

> <PUBCHEM_CACTVS_TAUTO_COUNT>
2

> <PUBCHEM_COORDINATE_TYPE>
1
5
255

> <PUBCHEM_BONDANNOTATIONS>
12  16  8
12  18  8
16  20  8
18  21  8
20  22  8
21  22  8
6  13  6
7  14  5
8  27  5

$$$$

