47205561
  -OEChem-06241222592D

 39 40  0     0  0  0  0  0  0999 V2000
    5.9236   -0.2196    0.0000 O   0  0  0  0  0  0  0  0  0  0  0  0
    5.3884    1.4277    0.0000 N   0  0  0  0  0  0  0  0  0  0  0  0
    8.3916    2.0186    0.0000 N   0  0  0  0  0  0  0  0  0  0  0  0
    4.4374    1.1187    0.0000 C   0  0  0  0  0  0  0  0  0  0  0  0
    3.6942    1.7878    0.0000 C   0  0  0  0  0  0  0  0  0  0  0  0
    2.7431    1.4788    0.0000 C   0  0  0  0  0  0  0  0  0  0  0  0
    7.0826    1.0676    0.0000 C   0  0  0  0  0  0  0  0  0  0  0  0
    6.1316    0.7586    0.0000 C   0  0  0  0  0  0  0  0  0  0  0  0
    7.8916    0.4798    0.0000 C   0  0  0  0  0  0  0  0  0  0  0  0
    5.5963    2.4058    0.0000 C   0  0  0  0  0  0  0  0  0  0  0  0
    7.8916   -0.5202    0.0000 C   0  0  0  0  0  0  0  0  0  0  0  0
    7.3916    2.0186    0.0000 C   0  0  0  0  0  0  0  0  0  0  0  0
    8.7006    1.0676    0.0000 C   0  0  0  0  0  0  0  0  0  0  0  0
    2.0000    2.1479    0.0000 C   0  0  0  0  0  0  0  0  0  0  0  0
    7.0256   -1.0202    0.0000 C   0  0  0  0  0  0  0  0  0  0  0  0
    8.7576   -1.0202    0.0000 C   0  0  0  0  0  0  0  0  0  0  0  0
    7.0256   -2.0202    0.0000 C   0  0  0  0  0  0  0  0  0  0  0  0
    8.7576   -2.0202    0.0000 C   0  0  0  0  0  0  0  0  0  0  0  0
    7.8916   -2.5202    0.0000 C   0  0  0  0  0  0  0  0  0  0  0  0
    3.9488    0.7370    0.0000 H   0  0  0  0  0  0  0  0  0  0  0  0
    4.7284    0.5712    0.0000 H   0  0  0  0  0  0  0  0  0  0  0  0
    4.1828    2.1695    0.0000 H   0  0  0  0  0  0  0  0  0  0  0  0
    3.4031    2.3352    0.0000 H   0  0  0  0  0  0  0  0  0  0  0  0
    2.2546    1.0971    0.0000 H   0  0  0  0  0  0  0  0  0  0  0  0
    3.0342    0.9314    0.0000 H   0  0  0  0  0  0  0  0  0  0  0  0
    6.2028    2.2769    0.0000 H   0  0  0  0  0  0  0  0  0  0  0  0
    5.7252    3.0123    0.0000 H   0  0  0  0  0  0  0  0  0  0  0  0
    4.9899    2.5347    0.0000 H   0  0  0  0  0  0  0  0  0  0  0  0
    7.0272    2.5202    0.0000 H   0  0  0  0  0  0  0  0  0  0  0  0
    9.2903    0.8760    0.0000 H   0  0  0  0  0  0  0  0  0  0  0  0
    2.4149    2.6087    0.0000 H   0  0  0  0  0  0  0  0  0  0  0  0
    1.5392    2.5628    0.0000 H   0  0  0  0  0  0  0  0  0  0  0  0
    1.5851    1.6872    0.0000 H   0  0  0  0  0  0  0  0  0  0  0  0
    8.7560    2.5202    0.0000 H   0  0  0  0  0  0  0  0  0  0  0  0
    6.4887   -0.7102    0.0000 H   0  0  0  0  0  0  0  0  0  0  0  0
    9.2946   -0.7102    0.0000 H   0  0  0  0  0  0  0  0  0  0  0  0
    6.4887   -2.3302    0.0000 H   0  0  0  0  0  0  0  0  0  0  0  0
    9.2946   -2.3302    0.0000 H   0  0  0  0  0  0  0  0  0  0  0  0
    7.8916   -3.1402    0.0000 H   0  0  0  0  0  0  0  0  0  0  0  0
  1  8  2  0  0  0  0
  2  4  1  0  0  0  0
  2  8  1  0  0  0  0
  2 10  1  0  0  0  0
  3 12  1  0  0  0  0
  3 13  1  0  0  0  0
  3 34  1  0  0  0  0
  4  5  1  0  0  0  0
  4 20  1  0  0  0  0
  4 21  1  0  0  0  0
  5  6  1  0  0  0  0
  5 22  1  0  0  0  0
  5 23  1  0  0  0  0
  6 14  1  0  0  0  0
  6 24  1  0  0  0  0
  6 25  1  0  0  0  0
  7  8  1  0  0  0  0
  7  9  1  0  0  0  0
  7 12  2  0  0  0  0
  9 11  1  0  0  0  0
  9 13  2  0  0  0  0
 10 26  1  0  0  0  0
 10 27  1  0  0  0  0
 10 28  1  0  0  0  0
 11 15  2  0  0  0  0
 11 16  1  0  0  0  0
 12 29  1  0  0  0  0
 13 30  1  0  0  0  0
 14 31  1  0  0  0  0
 14 32  1  0  0  0  0
 14 33  1  0  0  0  0
 15 17  1  0  0  0  0
 15 35  1  0  0  0  0
 16 18  2  0  0  0  0
 16 36  1  0  0  0  0
 17 19  2  0  0  0  0
 17 37  1  0  0  0  0
 18 19  1  0  0  0  0
 18 38  1  0  0  0  0
 19 39  1  0  0  0  0
M  END
> <PUBCHEM_COMPOUND_CID>
47205561

> <PUBCHEM_COMPOUND_CANONICALIZED>
1

> <PUBCHEM_CACTVS_COMPLEXITY>
287

> <PUBCHEM_CACTVS_HBOND_ACCEPTOR>
1

> <PUBCHEM_CACTVS_HBOND_DONOR>
1

> <PUBCHEM_CACTVS_ROTATABLE_BOND>
5

> <PUBCHEM_CACTVS_SUBSKEYS>
AAADceB7IAAAAAAAAAAAAAAAAAAAAWAAAAAwAAAAAAAAAAABwAAAHgAQAAAADADBmgQ+gJPJkACoAjF3VACCgCA1ACAI2aEoRNgIIHrA1ZGEIYhghgDIyccciMCOgAAAAAAAAAAAAAAAAAAAAAAAAAAAAA==

> <PUBCHEM_IUPAC_OPENEYE_NAME>
N-butyl-N-methyl-4-phenyl-1H-pyrrole-3-carboxamide

> <PUBCHEM_IUPAC_CAS_NAME>
N-butyl-N-methyl-4-phenyl-1H-pyrrole-3-carboxamide

> <PUBCHEM_IUPAC_NAME>
N-butyl-N-methyl-4-phenyl-1H-pyrrole-3-carboxamide

> <PUBCHEM_IUPAC_SYSTEMATIC_NAME>
N-butyl-N-methyl-4-phenyl-1H-pyrrole-3-carboxamide

> <PUBCHEM_IUPAC_TRADITIONAL_NAME>
N-butyl-N-methyl-4-phenyl-1H-pyrrole-3-carboxamide

> <PUBCHEM_IUPAC_INCHI>
InChI=1S/C16H20N2O/c1-3-4-10-18(2)16(19)15-12-17-11-14(15)13-8-6-5-7-9-13/h5-9,11-12,17H,3-4,10H2,1-2H3

> <PUBCHEM_IUPAC_INCHIKEY>
RMJFECPIVDNUBY-UHFFFAOYSA-N

> <PUBCHEM_XLOGP3_AA>
3

> <PUBCHEM_EXACT_MASS>
256.157563

> <PUBCHEM_MOLECULAR_FORMULA>
C16H20N2O

> <PUBCHEM_MOLECULAR_WEIGHT>
256.3428

> <PUBCHEM_OPENEYE_CAN_SMILES>
CCCCN(C)C(=O)C1=CNC=C1C2=CC=CC=C2

> <PUBCHEM_OPENEYE_ISO_SMILES>
CCCCN(C)C(=O)C1=CNC=C1C2=CC=CC=C2

> <PUBCHEM_CACTVS_TPSA>
36.1

> <PUBCHEM_MONOISOTOPIC_WEIGHT>
256.157563

> <PUBCHEM_TOTAL_CHARGE>
0

> <PUBCHEM_HEAVY_ATOM_COUNT>
19

> <PUBCHEM_ATOM_DEF_STEREO_COUNT>
0

> <PUBCHEM_ATOM_UDEF_STEREO_COUNT>
0

> <PUBCHEM_BOND_DEF_STEREO_COUNT>
0

> <PUBCHEM_BOND_UDEF_STEREO_COUNT>
0

> <PUBCHEM_ISOTOPIC_ATOM_COUNT>
0

> <PUBCHEM_COMPONENT_COUNT>
1

> <PUBCHEM_CACTVS_TAUTO_COUNT>
3

> <PUBCHEM_COORDINATE_TYPE>
1
5
255

> <PUBCHEM_BONDANNOTATIONS>
11  15  8
11  16  8
15  17  8
16  18  8
17  19  8
18  19  8
3  12  8
3  13  8
7  12  8
7  9  8
9  13  8

$$$$

