13188
  -OEChem-06261207523D

 23 22  0     0  0  0  0  0  0999 V2000
    4.5595   -1.2234    0.6200 Cl  0  0  0  0  0  0  0  0  0  0  0  0
   -4.4453    0.4862    0.2770 O   0  0  0  0  0  0  0  0  0  0  0  0
   -3.3157   -1.3681   -0.3886 O   0  0  0  0  0  0  0  0  0  0  0  0
    0.4414    0.7465    0.1120 C   0  0  0  0  0  0  0  0  0  0  0  0
    1.7237   -0.0063   -0.2501 C   0  0  0  0  0  0  0  0  0  0  0  0
   -0.7950   -0.1295   -0.0935 C   0  0  0  0  0  0  0  0  0  0  0  0
    2.9559    0.8884   -0.0859 C   0  0  0  0  0  0  0  0  0  0  0  0
   -2.0776    0.6324    0.2366 C   0  0  0  0  0  0  0  0  0  0  0  0
    4.2639    0.1824   -0.4286 C   0  0  0  0  0  0  0  0  0  0  0  0
   -3.3108   -0.2088    0.0010 C   0  0  0  0  0  0  0  0  0  0  0  0
    0.4898    1.0764    1.1569 H   0  0  0  0  0  0  0  0  0  0  0  0
    0.3585    1.6474   -0.5083 H   0  0  0  0  0  0  0  0  0  0  0  0
    1.7996   -0.8929    0.3887 H   0  0  0  0  0  0  0  0  0  0  0  0
    1.6659   -0.3581   -1.2872 H   0  0  0  0  0  0  0  0  0  0  0  0
   -0.7241   -1.0251    0.5363 H   0  0  0  0  0  0  0  0  0  0  0  0
   -0.8312   -0.4778   -1.1334 H   0  0  0  0  0  0  0  0  0  0  0  0
    2.8541    1.7668   -0.7348 H   0  0  0  0  0  0  0  0  0  0  0  0
    3.0034    1.2619    0.9447 H   0  0  0  0  0  0  0  0  0  0  0  0
   -2.0682    0.9379    1.2887 H   0  0  0  0  0  0  0  0  0  0  0  0
   -2.1513    1.5252   -0.3942 H   0  0  0  0  0  0  0  0  0  0  0  0
    4.2561   -0.1710   -1.4642 H   0  0  0  0  0  0  0  0  0  0  0  0
    5.1079    0.8679   -0.3069 H   0  0  0  0  0  0  0  0  0  0  0  0
   -5.2504   -0.0536    0.1258 H   0  0  0  0  0  0  0  0  0  0  0  0
  1  9  1  0  0  0  0
  2 10  1  0  0  0  0
  2 23  1  0  0  0  0
  3 10  2  0  0  0  0
  4  5  1  0  0  0  0
  4  6  1  0  0  0  0
  4 11  1  0  0  0  0
  4 12  1  0  0  0  0
  5  7  1  0  0  0  0
  5 13  1  0  0  0  0
  5 14  1  0  0  0  0
  6  8  1  0  0  0  0
  6 15  1  0  0  0  0
  6 16  1  0  0  0  0
  7  9  1  0  0  0  0
  7 17  1  0  0  0  0
  7 18  1  0  0  0  0
  8 10  1  0  0  0  0
  8 19  1  0  0  0  0
  8 20  1  0  0  0  0
  9 21  1  0  0  0  0
  9 22  1  0  0  0  0
M  END
> <PUBCHEM_COMPOUND_CID>
13188

> <PUBCHEM_CONFORMER_RMSD>
0.6

> <PUBCHEM_CONFORMER_DIVERSEORDER>
1
164
72
33
11
160
87
159
48
47
74
61
10
117
162
134
3
147
59
30
44
88
16
66
54
163
144
24
67
100
12
142
103
161
56
152
158
57
76
2
64
133
37
75
118
102
151
25
157
34
52
128
51
165
148
138
27
85
97
80
105
21
123
62
45
108
36
60
135
68
63
46
130
96
69
14
166
149
121
91
131
106
19
129
86
141
31
32
79
116
17
26
70
43
155
18
119
73
93
40
29
15
124
77
23
114
38
22
154
84
92
104
122
71
94
42
49
98
82
150
65
143
111
101
90
78
4
140
112
53
81
5
109
28
13
137
55
50
95
145
35
139
156
89
58
110
20
39
146
41
126
99
127
113
8
83
6
153
9
7
136
125
107
115
132
120

> <PUBCHEM_MMFF94_PARTIAL_CHARGES>
7
1 -0.29
10 0.66
2 -0.65
23 0.5
3 -0.57
8 0.06
9 0.29

> <PUBCHEM_EFFECTIVE_ROTOR_COUNT>
6

> <PUBCHEM_PHARMACOPHORE_FEATURES>
4
1 2 acceptor
1 3 acceptor
3 2 3 10 anion
5 4 5 6 7 8 hydrophobe

> <PUBCHEM_HEAVY_ATOM_COUNT>
10

> <PUBCHEM_ATOM_DEF_STEREO_COUNT>
0

> <PUBCHEM_ATOM_UDEF_STEREO_COUNT>
0

> <PUBCHEM_BOND_DEF_STEREO_COUNT>
0

> <PUBCHEM_BOND_UDEF_STEREO_COUNT>
0

> <PUBCHEM_ISOTOPIC_ATOM_COUNT>
0

> <PUBCHEM_COMPONENT_COUNT>
1

> <PUBCHEM_CACTVS_TAUTO_COUNT>
1

> <PUBCHEM_CONFORMER_ID>
0000338400000001

> <PUBCHEM_MMFF94_ENERGY>
1.8637

> <PUBCHEM_FEATURE_SELFOVERLAP>
20.355

> <PUBCHEM_SHAPE_FINGERPRINT>
11062470 55 18412542098175428253
11987891 27 18412267229148478334
11987891 38 18413106169400280370
12932764 1 14404911223855256025
13690532 89 18343584053470711338
14123238 8 8430312437439683032
14251717 144 18202004369511142346
14325111 11 18335700511812358797
177051 138 18409449215522653346
17834072 33 18413105040293178692
17834076 25 12751520686538119661
18186145 218 15697999608995382324
190213 19 16732697246780261612
20279233 1 16950275204991694365
20645477 70 17274822489259419458
20719005 15 18410572881344869069
20828058 44 18040435486041201782
22485316 2 18410295796109604012
23402539 116 18260272957658940557
42 15 18409450306222755002
573450 72 18334861648848960219

> <PUBCHEM_SHAPE_MULTIPOLES>
195.93
10.05
1.12
0.7
0.67
0.26
-0.01
2.21
-0.48
0.4
-0.03
0.21
0.04
-0.63

> <PUBCHEM_SHAPE_SELFOVERLAP>
347.334

> <PUBCHEM_SHAPE_VOLUME>
127.7

> <PUBCHEM_COORDINATE_TYPE>
2
5
10

$$$$

