47205035
  -OEChem-06241222572D

 36 37  0     0  0  0  0  0  0999 V2000
    3.7320   -0.4547    0.0000 O   0  0  0  0  0  0  0  0  0  0  0  0
    3.7320    1.5453    0.0000 O   0  0  0  0  0  0  0  0  0  0  0  0
    5.4641    1.5453    0.0000 N   0  0  0  0  0  0  0  0  0  0  0  0
    6.4347    4.0398    0.0000 N   0  0  0  0  0  0  0  0  0  0  0  0
    7.4128    4.2477    0.0000 N   0  0  0  0  0  0  0  0  0  0  0  0
    2.8660   -1.9547    0.0000 C   0  0  0  0  0  0  0  0  0  0  0  0
    3.7320   -1.4547    0.0000 C   0  0  0  0  0  0  0  0  0  0  0  0
    5.4641    2.5453    0.0000 C   0  0  0  0  0  0  0  0  0  0  0  0
    3.7320   -3.4547    0.0000 C   0  0  0  0  0  0  0  0  0  0  0  0
    2.8660   -2.9547    0.0000 C   0  0  0  0  0  0  0  0  0  0  0  0
    6.3301    3.0453    0.0000 C   0  0  0  0  0  0  0  0  0  0  0  0
    4.5981   -1.9547    0.0000 C   0  0  0  0  0  0  0  0  0  0  0  0
    4.5981    0.0453    0.0000 C   0  0  0  0  0  0  0  0  0  0  0  0
    4.5981   -2.9547    0.0000 C   0  0  0  0  0  0  0  0  0  0  0  0
    4.5981    1.0453    0.0000 C   0  0  0  0  0  0  0  0  0  0  0  0
    2.0000   -1.4547    0.0000 C   0  0  0  0  0  0  0  0  0  0  0  0
    3.7320   -4.4547    0.0000 C   0  0  0  0  0  0  0  0  0  0  0  0
    7.2437    2.6386    0.0000 C   0  0  0  0  0  0  0  0  0  0  0  0
    7.9128    3.3817    0.0000 C   0  0  0  0  0  0  0  0  0  0  0  0
    5.2520    3.1279    0.0000 H   0  0  0  0  0  0  0  0  0  0  0  0
    4.8535    2.4376    0.0000 H   0  0  0  0  0  0  0  0  0  0  0  0
    2.3291   -3.2647    0.0000 H   0  0  0  0  0  0  0  0  0  0  0  0
    5.1350   -1.6447    0.0000 H   0  0  0  0  0  0  0  0  0  0  0  0
    4.8101   -0.5373    0.0000 H   0  0  0  0  0  0  0  0  0  0  0  0
    5.2087    0.1530    0.0000 H   0  0  0  0  0  0  0  0  0  0  0  0
    5.1350   -3.2647    0.0000 H   0  0  0  0  0  0  0  0  0  0  0  0
    6.0010    1.2353    0.0000 H   0  0  0  0  0  0  0  0  0  0  0  0
    2.3100   -0.9178    0.0000 H   0  0  0  0  0  0  0  0  0  0  0  0
    1.4631   -1.1447    0.0000 H   0  0  0  0  0  0  0  0  0  0  0  0
    1.6900   -1.9916    0.0000 H   0  0  0  0  0  0  0  0  0  0  0  0
    3.1120   -4.4547    0.0000 H   0  0  0  0  0  0  0  0  0  0  0  0
    3.7320   -5.0747    0.0000 H   0  0  0  0  0  0  0  0  0  0  0  0
    4.3520   -4.4547    0.0000 H   0  0  0  0  0  0  0  0  0  0  0  0
    7.3726    2.0321    0.0000 H   0  0  0  0  0  0  0  0  0  0  0  0
    5.9739    4.4547    0.0000 H   0  0  0  0  0  0  0  0  0  0  0  0
    8.5294    3.3169    0.0000 H   0  0  0  0  0  0  0  0  0  0  0  0
  1  7  1  0  0  0  0
  1 13  1  0  0  0  0
  2 15  2  0  0  0  0
  3  8  1  0  0  0  0
  3 15  1  0  0  0  0
  3 27  1  0  0  0  0
  4  5  1  0  0  0  0
  4 11  1  0  0  0  0
  4 35  1  0  0  0  0
  5 19  2  0  0  0  0
  6  7  2  0  0  0  0
  6 10  1  0  0  0  0
  6 16  1  0  0  0  0
  7 12  1  0  0  0  0
  8 11  1  0  0  0  0
  8 20  1  0  0  0  0
  8 21  1  0  0  0  0
  9 10  2  0  0  0  0
  9 14  1  0  0  0  0
  9 17  1  0  0  0  0
 10 22  1  0  0  0  0
 11 18  2  0  0  0  0
 12 14  2  0  0  0  0
 12 23  1  0  0  0  0
 13 15  1  0  0  0  0
 13 24  1  0  0  0  0
 13 25  1  0  0  0  0
 14 26  1  0  0  0  0
 16 28  1  0  0  0  0
 16 29  1  0  0  0  0
 16 30  1  0  0  0  0
 17 31  1  0  0  0  0
 17 32  1  0  0  0  0
 17 33  1  0  0  0  0
 18 19  1  0  0  0  0
 18 34  1  0  0  0  0
 19 36  1  0  0  0  0
M  END
> <PUBCHEM_COMPOUND_CID>
47205035

> <PUBCHEM_COMPOUND_CANONICALIZED>
1

> <PUBCHEM_CACTVS_COMPLEXITY>
298

> <PUBCHEM_CACTVS_HBOND_ACCEPTOR>
3

> <PUBCHEM_CACTVS_HBOND_DONOR>
2

> <PUBCHEM_CACTVS_ROTATABLE_BOND>
5

> <PUBCHEM_CACTVS_SUBSKEYS>
AAADceBzMAAAAAAAAAAAAAAAAAAAAWAAAAAwAAAAAAAAAAABwAAAHgAYAAAADAzhngY+hpLjBACqAzV3UAKSDAAgogAYuaB+bJgOZqKE8d+XvCjk3hGY6AeAwGAOIAACAAAIAABAAAQAABAAAAAAAAAAAA==

> <PUBCHEM_IUPAC_OPENEYE_NAME>
2-(2,4-dimethylphenoxy)-N-(1H-pyrazol-5-ylmethyl)acetamide

> <PUBCHEM_IUPAC_CAS_NAME>
2-(2,4-dimethylphenoxy)-N-(1H-pyrazol-5-ylmethyl)acetamide

> <PUBCHEM_IUPAC_NAME>
2-(2,4-dimethylphenoxy)-N-(1H-pyrazol-5-ylmethyl)acetamide

> <PUBCHEM_IUPAC_SYSTEMATIC_NAME>
2-(2,4-dimethylphenoxy)-N-(1H-pyrazol-5-ylmethyl)ethanamide

> <PUBCHEM_IUPAC_TRADITIONAL_NAME>
2-(2,4-dimethylphenoxy)-N-(1H-pyrazol-5-ylmethyl)acetamide

> <PUBCHEM_IUPAC_INCHI>
InChI=1S/C14H17N3O2/c1-10-3-4-13(11(2)7-10)19-9-14(18)15-8-12-5-6-16-17-12/h3-7H,8-9H2,1-2H3,(H,15,18)(H,16,17)

> <PUBCHEM_IUPAC_INCHIKEY>
CKXOYYRXHNVEDC-UHFFFAOYSA-N

> <PUBCHEM_XLOGP3_AA>
1.8

> <PUBCHEM_EXACT_MASS>
259.132077

> <PUBCHEM_MOLECULAR_FORMULA>
C14H17N3O2

> <PUBCHEM_MOLECULAR_WEIGHT>
259.30368

> <PUBCHEM_OPENEYE_CAN_SMILES>
CC1=CC(=C(C=C1)OCC(=O)NCC2=CC=NN2)C

> <PUBCHEM_OPENEYE_ISO_SMILES>
CC1=CC(=C(C=C1)OCC(=O)NCC2=CC=NN2)C

> <PUBCHEM_CACTVS_TPSA>
67

> <PUBCHEM_MONOISOTOPIC_WEIGHT>
259.132077

> <PUBCHEM_TOTAL_CHARGE>
0

> <PUBCHEM_HEAVY_ATOM_COUNT>
19

> <PUBCHEM_ATOM_DEF_STEREO_COUNT>
0

> <PUBCHEM_ATOM_UDEF_STEREO_COUNT>
0

> <PUBCHEM_BOND_DEF_STEREO_COUNT>
0

> <PUBCHEM_BOND_UDEF_STEREO_COUNT>
0

> <PUBCHEM_ISOTOPIC_ATOM_COUNT>
0

> <PUBCHEM_COMPONENT_COUNT>
1

> <PUBCHEM_CACTVS_TAUTO_COUNT>
4

> <PUBCHEM_COORDINATE_TYPE>
1
5
255

> <PUBCHEM_BONDANNOTATIONS>
11  18  8
12  14  8
18  19  8
4  11  8
4  5  8
5  19  8
6  10  8
6  7  8
7  12  8
9  10  8
9  14  8

$$$$

