73317
  -OEChem-07051212502D

 35 37  0     1  0  0  0  0  0999 V2000
    5.8055    0.9869    0.0000 O   0  0  0  0  0  0  0  0  0  0  0  0
    8.1552    2.0706    0.0000 O   0  0  0  0  0  0  0  0  0  0  0  0
    6.7577    3.4884    0.0000 O   0  0  0  0  0  0  0  0  0  0  0  0
    4.2690   -3.5784    0.0000 O   0  0  0  0  0  0  0  0  0  0  0  0
    6.0812   -0.7737    0.0000 N   0  0  0  0  0  0  0  0  0  0  0  0
    6.0812   -2.3832    0.0000 N   0  0  0  0  0  0  0  0  0  0  0  0
    4.2690   -0.5784    0.0000 N   0  0  0  0  0  0  0  0  0  0  0  0
    3.4030   -2.0784    0.0000 N   0  0  0  0  0  0  0  0  0  0  0  0
    2.5369   -0.5784    0.0000 N   0  0  0  0  0  0  0  0  0  0  0  0
    6.3919    0.1768    0.0000 C   0  0  1  0  0  0  0  0  0  0  0  0
    7.3452    1.4842    0.0000 C   0  0  1  0  0  0  0  0  0  0  0  0
    7.3435    0.4842    0.0000 C   0  0  0  0  0  0  0  0  0  0  0  0
    6.3947    1.7949    0.0000 C   0  0  1  0  0  0  0  0  0  0  0  0
    6.0873    2.7464    0.0000 C   0  0  0  0  0  0  0  0  0  0  0  0
    5.1350   -1.0784    0.0000 C   0  0  0  0  0  0  0  0  0  0  0  0
    6.6648   -1.5784    0.0000 C   0  0  0  0  0  0  0  0  0  0  0  0
    5.1350   -2.0784    0.0000 C   0  0  0  0  0  0  0  0  0  0  0  0
    4.2690   -2.5784    0.0000 C   0  0  0  0  0  0  0  0  0  0  0  0
    3.4030   -1.0784    0.0000 C   0  0  0  0  0  0  0  0  0  0  0  0
    3.4030   -4.0784    0.0000 C   0  0  0  0  0  0  0  0  0  0  0  0
    5.7794    0.0809    0.0000 H   0  0  0  0  0  0  0  0  0  0  0  0
    7.2493    2.0967    0.0000 H   0  0  0  0  0  0  0  0  0  0  0  0
    7.4713   -0.1225    0.0000 H   0  0  0  0  0  0  0  0  0  0  0  0
    7.9602    0.5479    0.0000 H   0  0  0  0  0  0  0  0  0  0  0  0
    5.7825    1.8929    0.0000 H   0  0  0  0  0  0  0  0  0  0  0  0
    5.7065    3.2357    0.0000 H   0  0  0  0  0  0  0  0  0  0  0  0
    5.5394    2.4563    0.0000 H   0  0  0  0  0  0  0  0  0  0  0  0
    7.2848   -1.5784    0.0000 H   0  0  0  0  0  0  0  0  0  0  0  0
    8.7212    1.8174    0.0000 H   0  0  0  0  0  0  0  0  0  0  0  0
    6.5672    4.0784    0.0000 H   0  0  0  0  0  0  0  0  0  0  0  0
    2.0000   -0.8884    0.0000 H   0  0  0  0  0  0  0  0  0  0  0  0
    2.5369    0.0416    0.0000 H   0  0  0  0  0  0  0  0  0  0  0  0
    3.0930   -3.5415    0.0000 H   0  0  0  0  0  0  0  0  0  0  0  0
    2.8660   -4.3884    0.0000 H   0  0  0  0  0  0  0  0  0  0  0  0
    3.7130   -4.6154    0.0000 H   0  0  0  0  0  0  0  0  0  0  0  0
  1 10  1  0  0  0  0
  1 13  1  0  0  0  0
 11  2  1  1  0  0  0
  2 29  1  0  0  0  0
  3 14  1  0  0  0  0
  3 30  1  0  0  0  0
  4 18  1  0  0  0  0
  4 20  1  0  0  0  0
 10  5  1  6  0  0  0
  5 15  1  0  0  0  0
  5 16  1  0  0  0  0
  6 16  2  0  0  0  0
  6 17  1  0  0  0  0
  7 15  1  0  0  0  0
  7 19  2  0  0  0  0
  8 18  2  0  0  0  0
  8 19  1  0  0  0  0
  9 19  1  0  0  0  0
  9 31  1  0  0  0  0
  9 32  1  0  0  0  0
 10 12  1  0  0  0  0
 10 21  1  0  0  0  0
 11 12  1  0  0  0  0
 11 13  1  0  0  0  0
 11 22  1  0  0  0  0
 12 23  1  0  0  0  0
 12 24  1  0  0  0  0
 13 14  1  6  0  0  0
 13 25  1  0  0  0  0
 14 26  1  0  0  0  0
 14 27  1  0  0  0  0
 15 17  2  0  0  0  0
 16 28  1  0  0  0  0
 17 18  1  0  0  0  0
 20 33  1  0  0  0  0
 20 34  1  0  0  0  0
 20 35  1  0  0  0  0
M  END
> <PUBCHEM_COMPOUND_CID>
73317

> <PUBCHEM_COMPOUND_CANONICALIZED>
1

> <PUBCHEM_CACTVS_COMPLEXITY>
349

> <PUBCHEM_CACTVS_HBOND_ACCEPTOR>
8

> <PUBCHEM_CACTVS_HBOND_DONOR>
3

> <PUBCHEM_CACTVS_ROTATABLE_BOND>
3

> <PUBCHEM_CACTVS_SUBSKEYS>
AAADccBzuAAAAAAAAAAAAAAAAAAAAWJAAAAsAAAAAAAAAFgB+AAAHgAQCAAACBzhlwYH9L9MFgCgAQZhZASAiC0RcKABUCAtXBCHXAJE6EgfRCgPAArTICCwMAIAAAAAAAAAAAAAAAAAAAAAAAAAAAAAAA==

> <PUBCHEM_IUPAC_OPENEYE_NAME>
(2R,3S,5R)-5-(2-amino-6-methoxy-purin-9-yl)-2-(hydroxymethyl)tetrahydrofuran-3-ol

> <PUBCHEM_IUPAC_CAS_NAME>
(2R,3S,5R)-5-(2-amino-6-methoxy-9-purinyl)-2-(hydroxymethyl)-3-oxolanol

> <PUBCHEM_IUPAC_NAME>
(2R,3S,5R)-5-(2-amino-6-methoxypurin-9-yl)-2-(hydroxymethyl)oxolan-3-ol

> <PUBCHEM_IUPAC_SYSTEMATIC_NAME>
(2R,3S,5R)-5-(2-azanyl-6-methoxy-purin-9-yl)-2-(hydroxymethyl)oxolan-3-ol

> <PUBCHEM_IUPAC_TRADITIONAL_NAME>
(2R,3S,5R)-5-(2-amino-6-methoxy-purin-9-yl)-2-methylol-tetrahydrofuran-3-ol

> <PUBCHEM_IUPAC_INCHI>
InChI=1S/C11H15N5O4/c1-19-10-8-9(14-11(12)15-10)16(4-13-8)7-2-5(18)6(3-17)20-7/h4-7,17-18H,2-3H2,1H3,(H2,12,14,15)/t5-,6+,7+/m0/s1

> <PUBCHEM_IUPAC_INCHIKEY>
BCKDNMPYCIOBTA-RRKCRQDMSA-N

> <PUBCHEM_XLOGP3>
0.1

> <PUBCHEM_EXACT_MASS>
281.112404

> <PUBCHEM_MOLECULAR_FORMULA>
C11H15N5O4

> <PUBCHEM_MOLECULAR_WEIGHT>
281.2679

> <PUBCHEM_OPENEYE_CAN_SMILES>
COC1=NC(=NC2=C1N=CN2C3CC(C(O3)CO)O)N

> <PUBCHEM_OPENEYE_ISO_SMILES>
COC1=NC(=NC2=C1N=CN2[C@H]3C[C@@H]([C@H](O3)CO)O)N

> <PUBCHEM_CACTVS_TPSA>
129

> <PUBCHEM_MONOISOTOPIC_WEIGHT>
281.112404

> <PUBCHEM_TOTAL_CHARGE>
0

> <PUBCHEM_HEAVY_ATOM_COUNT>
20

> <PUBCHEM_ATOM_DEF_STEREO_COUNT>
3

> <PUBCHEM_ATOM_UDEF_STEREO_COUNT>
0

> <PUBCHEM_BOND_DEF_STEREO_COUNT>
0

> <PUBCHEM_BOND_UDEF_STEREO_COUNT>
0

> <PUBCHEM_ISOTOPIC_ATOM_COUNT>
0

> <PUBCHEM_COMPONENT_COUNT>
1

> <PUBCHEM_CACTVS_TAUTO_COUNT>
3

> <PUBCHEM_COORDINATE_TYPE>
1
5
255

> <PUBCHEM_BONDANNOTATIONS>
13  14  6
15  17  8
17  18  8
11  2  5
10  5  6
5  15  8
5  16  8
6  16  8
6  17  8
7  15  8
7  19  8
8  18  8
8  19  8

$$$$

