14255
  -OEChem-06241222423D

 29 28  0     0  0  0  0  0  0999 V2000
   -5.8083   -1.3253   -0.6718 Cl  0  0  0  0  0  0  0  0  0  0  0  0
    5.6957    0.4345   -0.2657 O   0  0  0  0  0  0  0  0  0  0  0  0
    4.5290   -1.3970    0.4050 O   0  0  0  0  0  0  0  0  0  0  0  0
   -0.4938   -0.1190    0.1496 C   0  0  0  0  0  0  0  0  0  0  0  0
   -1.7475    0.7323   -0.0593 C   0  0  0  0  0  0  0  0  0  0  0  0
    0.7771    0.6806   -0.1449 C   0  0  0  0  0  0  0  0  0  0  0  0
   -3.0173   -0.0576    0.2665 C   0  0  0  0  0  0  0  0  0  0  0  0
    2.0294   -0.1830    0.0325 C   0  0  0  0  0  0  0  0  0  0  0  0
   -4.2677    0.8110    0.0995 C   0  0  0  0  0  0  0  0  0  0  0  0
    3.3163    0.5948   -0.2260 C   0  0  0  0  0  0  0  0  0  0  0  0
   -5.5639    0.0680    0.4067 C   0  0  0  0  0  0  0  0  0  0  0  0
    4.5509   -0.2393    0.0077 C   0  0  0  0  0  0  0  0  0  0  0  0
   -0.4647   -0.4851    1.1830 H   0  0  0  0  0  0  0  0  0  0  0  0
   -0.5356   -0.9986   -0.5042 H   0  0  0  0  0  0  0  0  0  0  0  0
   -1.7873    1.0818   -1.0981 H   0  0  0  0  0  0  0  0  0  0  0  0
   -1.6956    1.6222    0.5799 H   0  0  0  0  0  0  0  0  0  0  0  0
    0.7425    1.0662   -1.1709 H   0  0  0  0  0  0  0  0  0  0  0  0
    0.8299    1.5469    0.5256 H   0  0  0  0  0  0  0  0  0  0  0  0
   -3.0616   -0.9328   -0.3908 H   0  0  0  0  0  0  0  0  0  0  0  0
   -2.9679   -0.4287    1.2975 H   0  0  0  0  0  0  0  0  0  0  0  0
    1.9804   -1.0449   -0.6450 H   0  0  0  0  0  0  0  0  0  0  0  0
    2.0463   -0.5890    1.0520 H   0  0  0  0  0  0  0  0  0  0  0  0
   -4.1972    1.6787    0.7668 H   0  0  0  0  0  0  0  0  0  0  0  0
   -4.3074    1.2035   -0.9244 H   0  0  0  0  0  0  0  0  0  0  0  0
    3.3659    1.4620    0.4418 H   0  0  0  0  0  0  0  0  0  0  0  0
    3.3323    0.9451   -1.2639 H   0  0  0  0  0  0  0  0  0  0  0  0
   -6.4219    0.7353    0.2829 H   0  0  0  0  0  0  0  0  0  0  0  0
   -5.5650   -0.3043    1.4358 H   0  0  0  0  0  0  0  0  0  0  0  0
    6.4917   -0.1168   -0.1080 H   0  0  0  0  0  0  0  0  0  0  0  0
  1 11  1  0  0  0  0
  2 12  1  0  0  0  0
  2 29  1  0  0  0  0
  3 12  2  0  0  0  0
  4  5  1  0  0  0  0
  4  6  1  0  0  0  0
  4 13  1  0  0  0  0
  4 14  1  0  0  0  0
  5  7  1  0  0  0  0
  5 15  1  0  0  0  0
  5 16  1  0  0  0  0
  6  8  1  0  0  0  0
  6 17  1  0  0  0  0
  6 18  1  0  0  0  0
  7  9  1  0  0  0  0
  7 19  1  0  0  0  0
  7 20  1  0  0  0  0
  8 10  1  0  0  0  0
  8 21  1  0  0  0  0
  8 22  1  0  0  0  0
  9 11  1  0  0  0  0
  9 23  1  0  0  0  0
  9 24  1  0  0  0  0
 10 12  1  0  0  0  0
 10 25  1  0  0  0  0
 10 26  1  0  0  0  0
 11 27  1  0  0  0  0
 11 28  1  0  0  0  0
M  END
> <PUBCHEM_COMPOUND_CID>
14255

> <PUBCHEM_CONFORMER_RMSD>
0.8

> <PUBCHEM_CONFORMER_DIVERSEORDER>
1
192
181
130
14
53
33
200
50
22
81
45
56
171
155
30
7
12
176
28
84
170
47
83
196
60
113
26
186
182
43
17
178
32
29
121
199
71
86
154
146
38
10
201
65
2
195
75
172
31
89
165
109
187
40
129
179
167
106
80
111
193
37
104
99
138
174
102
93
112
123
39
184
72
13
175
159
57
61
18
148
183
151
198
77
120
36
126
135
3
35
48
97
191
23
52
189
6
164
68
55
82
64
134
46
156
162
101
79
9
143
96
63
25
66
163
41
91
188
144
100
58
42
131
73
124
107
16
185
49
161
149
194
125
150
115
127
137
147
11
88
169
133
103
44
24
158
108
21
110
15
190
69
116
20
8
54
78
90
160
5
76
34
168
105
74
19
141
140
62
95
173
122
70
180
4
118
114
59
98
67
197
92
145
85
119
128
132
177
136
157
87
166
139
142
27
117
51
153
94
152

> <PUBCHEM_MMFF94_PARTIAL_CHARGES>
7
1 -0.29
10 0.06
11 0.29
12 0.66
2 -0.65
29 0.5
3 -0.57

> <PUBCHEM_EFFECTIVE_ROTOR_COUNT>
8

> <PUBCHEM_PHARMACOPHORE_FEATURES>
3
1 2 acceptor
1 3 acceptor
3 2 3 12 anion

> <PUBCHEM_HEAVY_ATOM_COUNT>
12

> <PUBCHEM_ATOM_DEF_STEREO_COUNT>
0

> <PUBCHEM_ATOM_UDEF_STEREO_COUNT>
0

> <PUBCHEM_BOND_DEF_STEREO_COUNT>
0

> <PUBCHEM_BOND_UDEF_STEREO_COUNT>
0

> <PUBCHEM_ISOTOPIC_ATOM_COUNT>
0

> <PUBCHEM_COMPONENT_COUNT>
1

> <PUBCHEM_CACTVS_TAUTO_COUNT>
1

> <PUBCHEM_CONFORMER_ID>
000037AF00000001

> <PUBCHEM_MMFF94_ENERGY>
1.7163

> <PUBCHEM_FEATURE_SELFOVERLAP>
15.281

> <PUBCHEM_SHAPE_FINGERPRINT>
10912923 1 18335697264790787569
11287383 113 17676207944346214633
12091667 2 18201998837629837281
13533116 47 18410294757123560514
14123238 8 18410572894229770949
1420 363 17774996891233435035
14251718 22 18408041797214601977
14251732 16 18042127574275210449
15242439 84 15554445189166678797
17834072 33 18409449167771604437
17834072 8 15626226801823234375
17834076 25 16153425056430190644
200 152 18410856568662422881
20621476 8 9295022266398638059
20645477 70 18272370936235332610
20719005 15 18412262843691430921
20767249 13 18412825785271143461
220451 1 18334851727712032363
22896161 15 18262238819982475469
23402539 116 18410858772291960141
42788 4 18413106169136399800
49783359 22 18260268542965329511
7062679 117 18410292476474748951
8209 1 18343863320834303277

> <PUBCHEM_SHAPE_MULTIPOLES>
237.09
15.5
1.09
0.69
0.81
0.27
-0.02
3.56
-0.58
0.49
-0.05
0.25
0.05
-0.74

> <PUBCHEM_SHAPE_SELFOVERLAP>
423.054

> <PUBCHEM_SHAPE_VOLUME>
153.5

> <PUBCHEM_COORDINATE_TYPE>
2
5
10

$$$$

