256418
  -OEChem-07051213063D

 52 54  0     0  0  0  0  0  0999 V2000
    1.6584    1.7996    0.5075 O   0  0  0  0  0  0  0  0  0  0  0  0
    5.8968   -0.2879    0.6530 O   0  0  0  0  0  0  0  0  0  0  0  0
   -6.0167    0.4988   -0.2271 O   0  0  0  0  0  0  0  0  0  0  0  0
    5.9946   -0.1816   -1.6835 O   0  0  0  0  0  0  0  0  0  0  0  0
   -6.0157   -1.8170    0.1143 O   0  0  0  0  0  0  0  0  0  0  0  0
    0.3248    1.7913   -0.0531 C   0  0  0  0  0  0  0  0  0  0  0  0
   -0.4054    0.4590    0.1392 C   0  0  0  0  0  0  0  0  0  0  0  0
    0.2590   -0.6984    0.3533 C   0  0  0  0  0  0  0  0  0  0  0  0
    1.7358   -0.6239    0.3963 C   0  0  0  0  0  0  0  0  0  0  0  0
   -0.3700    2.9651    0.6624 C   0  0  0  0  0  0  0  0  0  0  0  0
    0.4653    2.1383   -1.5463 C   0  0  0  0  0  0  0  0  0  0  0  0
    2.3563    0.6265    0.4753 C   0  0  0  0  0  0  0  0  0  0  0  0
   -1.8813    0.4693    0.0436 C   0  0  0  0  0  0  0  0  0  0  0  0
   -0.3830   -2.0518    0.5292 C   0  0  0  0  0  0  0  0  0  0  0  0
    2.5575   -1.7636    0.3924 C   0  0  0  0  0  0  0  0  0  0  0  0
    3.7471    0.7417    0.5746 C   0  0  0  0  0  0  0  0  0  0  0  0
   -0.5455   -2.7635   -0.7967 C   0  0  0  0  0  0  0  0  0  0  0  0
   -2.6478    0.6510    1.1907 C   0  0  0  0  0  0  0  0  0  0  0  0
   -2.4940    0.2974   -1.1943 C   0  0  0  0  0  0  0  0  0  0  0  0
    4.5436   -0.3986    0.5682 C   0  0  0  0  0  0  0  0  0  0  0  0
    3.9487   -1.6516    0.4736 C   0  0  0  0  0  0  0  0  0  0  0  0
   -4.0397    0.6607    1.0995 C   0  0  0  0  0  0  0  0  0  0  0  0
   -3.8858    0.3072   -1.2856 C   0  0  0  0  0  0  0  0  0  0  0  0
   -4.6588    0.4889   -0.1387 C   0  0  0  0  0  0  0  0  0  0  0  0
    6.5435   -0.1800   -0.5895 C   0  0  0  0  0  0  0  0  0  0  0  0
   -6.6110   -0.7651   -0.0779 C   0  0  0  0  0  0  0  0  0  0  0  0
    8.0256   -0.0634   -0.3897 C   0  0  0  0  0  0  0  0  0  0  0  0
   -8.1022   -0.6484   -0.1907 C   0  0  0  0  0  0  0  0  0  0  0  0
   -1.3592    3.1860    0.2484 H   0  0  0  0  0  0  0  0  0  0  0  0
   -0.4723    2.7646    1.7355 H   0  0  0  0  0  0  0  0  0  0  0  0
    0.2329    3.8783    0.5819 H   0  0  0  0  0  0  0  0  0  0  0  0
    0.9601    1.3300   -2.0975 H   0  0  0  0  0  0  0  0  0  0  0  0
   -0.5036    2.3294   -2.0187 H   0  0  0  0  0  0  0  0  0  0  0  0
    1.0902    3.0292   -1.6809 H   0  0  0  0  0  0  0  0  0  0  0  0
    0.1735   -2.6740    1.2392 H   0  0  0  0  0  0  0  0  0  0  0  0
   -1.3720   -1.9541    0.9923 H   0  0  0  0  0  0  0  0  0  0  0  0
    2.1498   -2.7678    0.3241 H   0  0  0  0  0  0  0  0  0  0  0  0
    4.2074    1.7241    0.6511 H   0  0  0  0  0  0  0  0  0  0  0  0
   -0.9967   -3.7486   -0.6367 H   0  0  0  0  0  0  0  0  0  0  0  0
    0.4119   -2.9197   -1.3034 H   0  0  0  0  0  0  0  0  0  0  0  0
   -1.1973   -2.2155   -1.4823 H   0  0  0  0  0  0  0  0  0  0  0  0
   -2.1802    0.7826    2.1632 H   0  0  0  0  0  0  0  0  0  0  0  0
   -1.9069    0.1545   -2.0978 H   0  0  0  0  0  0  0  0  0  0  0  0
    4.5593   -2.5506    0.4671 H   0  0  0  0  0  0  0  0  0  0  0  0
   -4.6357    0.8024    1.9969 H   0  0  0  0  0  0  0  0  0  0  0  0
   -4.3617    0.1733   -2.2533 H   0  0  0  0  0  0  0  0  0  0  0  0
    8.2493    0.8302    0.1980 H   0  0  0  0  0  0  0  0  0  0  0  0
    8.5170    0.0261   -1.3627 H   0  0  0  0  0  0  0  0  0  0  0  0
    8.4017   -0.9586    0.1113 H   0  0  0  0  0  0  0  0  0  0  0  0
   -8.4812    0.0092    0.5954 H   0  0  0  0  0  0  0  0  0  0  0  0
   -8.5539   -1.6368   -0.0676 H   0  0  0  0  0  0  0  0  0  0  0  0
   -8.3683   -0.2626   -1.1778 H   0  0  0  0  0  0  0  0  0  0  0  0
  1  6  1  0  0  0  0
  1 12  1  0  0  0  0
  2 20  1  0  0  0  0
  2 25  1  0  0  0  0
  3 24  1  0  0  0  0
  3 26  1  0  0  0  0
  4 25  2  0  0  0  0
  5 26  2  0  0  0  0
  6  7  1  0  0  0  0
  6 10  1  0  0  0  0
  6 11  1  0  0  0  0
  7  8  2  0  0  0  0
  7 13  1  0  0  0  0
  8  9  1  0  0  0  0
  8 14  1  0  0  0  0
  9 12  2  0  0  0  0
  9 15  1  0  0  0  0
 10 29  1  0  0  0  0
 10 30  1  0  0  0  0
 10 31  1  0  0  0  0
 11 32  1  0  0  0  0
 11 33  1  0  0  0  0
 11 34  1  0  0  0  0
 12 16  1  0  0  0  0
 13 18  2  0  0  0  0
 13 19  1  0  0  0  0
 14 17  1  0  0  0  0
 14 35  1  0  0  0  0
 14 36  1  0  0  0  0
 15 21  2  0  0  0  0
 15 37  1  0  0  0  0
 16 20  2  0  0  0  0
 16 38  1  0  0  0  0
 17 39  1  0  0  0  0
 17 40  1  0  0  0  0
 17 41  1  0  0  0  0
 18 22  1  0  0  0  0
 18 42  1  0  0  0  0
 19 23  2  0  0  0  0
 19 43  1  0  0  0  0
 20 21  1  0  0  0  0
 21 44  1  0  0  0  0
 22 24  2  0  0  0  0
 22 45  1  0  0  0  0
 23 24  1  0  0  0  0
 23 46  1  0  0  0  0
 25 27  1  0  0  0  0
 26 28  1  0  0  0  0
 27 47  1  0  0  0  0
 27 48  1  0  0  0  0
 27 49  1  0  0  0  0
 28 50  1  0  0  0  0
 28 51  1  0  0  0  0
 28 52  1  0  0  0  0
M  END
> <PUBCHEM_COMPOUND_CID>
256418

> <PUBCHEM_CONFORMER_RMSD>
0.8

> <PUBCHEM_CONFORMER_DIVERSEORDER>
1
19
8
32
12
13
24
33
20
23
30
11
17
21
18
31
16
27
9
14
6
29
2
25
26
15
28
5
4
22
10
3
7

> <PUBCHEM_MMFF94_PARTIAL_CHARGES>
32
1 -0.36
12 0.08
13 0.03
14 0.14
15 -0.15
16 -0.15
18 -0.15
19 -0.15
2 -0.23
20 0.08
21 -0.15
22 -0.15
23 -0.15
24 0.08
25 0.66
26 0.66
27 0.06
28 0.06
3 -0.23
37 0.15
38 0.15
4 -0.57
42 0.15
43 0.15
44 0.15
45 0.15
46 0.15
5 -0.57
6 0.42
7 -0.17
8 -0.17
9 0.03

> <PUBCHEM_EFFECTIVE_ROTOR_COUNT>
6.4

> <PUBCHEM_PHARMACOPHORE_FEATURES>
8
1 1 acceptor
1 17 hydrophobe
1 4 acceptor
1 5 acceptor
3 6 10 11 hydrophobe
6 1 6 7 8 9 12 rings
6 13 18 19 22 23 24 rings
6 9 12 15 16 20 21 rings

> <PUBCHEM_HEAVY_ATOM_COUNT>
28

> <PUBCHEM_ATOM_DEF_STEREO_COUNT>
0

> <PUBCHEM_ATOM_UDEF_STEREO_COUNT>
0

> <PUBCHEM_BOND_DEF_STEREO_COUNT>
0

> <PUBCHEM_BOND_UDEF_STEREO_COUNT>
0

> <PUBCHEM_ISOTOPIC_ATOM_COUNT>
0

> <PUBCHEM_COMPONENT_COUNT>
1

> <PUBCHEM_CACTVS_TAUTO_COUNT>
1

> <PUBCHEM_CONFORMER_ID>
0003E9A200000001

> <PUBCHEM_MMFF94_ENERGY>
98.8099

> <PUBCHEM_FEATURE_SELFOVERLAP>
40.624

> <PUBCHEM_SHAPE_FINGERPRINT>
10076449 9 18410289208014958756
10906281 52 18198888391938216297
11135609 99 18266458707942377999
11578080 2 17025456382657463610
11963148 33 18412834577007129290
12011746 2 18410855477677380664
12166972 35 18412545379916006097
12236239 1 17894352172758411897
12516196 113 18408608067014615760
12788726 201 18261959677684989320
13140716 1 18267591217449779472
13685833 64 18411139130102355145
13862211 1 18411703209763927362
13911987 19 18342749549609182534
14028597 1 5689328888572554591
14840074 17 18412259558352673196
14955137 171 18261393313089979977
15131766 46 15911615945893401462
15849732 13 18408323272080536767
15927050 60 17758400669223967332
16087824 20 18410575119967342225
16728300 4 6193460386346868476
1813 80 18339070592319322612
18608769 82 18340207397074295770
18681886 176 18335146358521613899
19319366 153 18059579113912451146
20028762 73 18114186302802417431
21049683 271 18201435848521213429
21150785 3 17989204837082919926
21267235 1 18333730208835349105
21344244 181 17748817545447456790
21641784 216 18058435668905942652
21792961 116 17846778546692230170
23522609 53 18126540505345857956
23559900 14 18188781539881136328
23569943 247 17607509530521290086
23576562 1 17915732089822705133
24771750 20 18055059970640103156
283562 15 18267302208462537368
3178227 256 18342449332118027963
335352 9 18410013208504326822
34797466 226 16805325474958779128
350125 39 18340488868309608679
4093350 32 16950566546109871904
4325135 7 17989487415771559615
484989 97 18198338456263612643
5486654 2 18413387648756328466
9896288 288 17459459121772729153

> <PUBCHEM_SHAPE_MULTIPOLES>
546.88
17.81
2.25
1.13
1.18
0.07
0.27
-4.87
2.6
0.24
0.01
-0.15
0.23
-0.26

> <PUBCHEM_SHAPE_SELFOVERLAP>
1178.949

> <PUBCHEM_SHAPE_VOLUME>
299.4

> <PUBCHEM_COORDINATE_TYPE>
2
5
10

$$$$

