582813
  -OEChem-06241222442D

 20 20  0     0  0  0  0  0  0999 V2000
    5.9623    1.5784    0.0000 F   0  0  0  0  0  0  0  0  0  0  0  0
    6.1835    0.1816    0.0000 F   0  0  0  0  0  0  0  0  0  0  0  0
    4.5655    1.3572    0.0000 F   0  0  0  0  0  0  0  0  0  0  0  0
    5.5957   -0.6274    0.0000 O   0  0  0  0  0  0  0  0  0  0  0  0
    3.9777   -0.6274    0.0000 O   0  0  0  0  0  0  0  0  0  0  0  0
    2.6166    1.4739    0.0000 O   0  0  0  0  0  0  0  0  0  0  0  0
    2.7976   -0.2487    0.0000 O   0  0  0  0  0  0  0  0  0  0  0  0
    4.7867   -0.0396    0.0000 C   0  0  0  0  0  0  0  0  0  0  0  0
    4.1989    0.7694    0.0000 C   0  0  0  0  0  0  0  0  0  0  0  0
    4.2867   -1.5784    0.0000 C   0  0  0  0  0  0  0  0  0  0  0  0
    5.2867   -1.5784    0.0000 C   0  0  0  0  0  0  0  0  0  0  0  0
    5.3745    0.7694    0.0000 C   0  0  0  0  0  0  0  0  0  0  0  0
    3.2044    0.6649    0.0000 C   0  0  0  0  0  0  0  0  0  0  0  0
    4.7562    1.0412    0.0000 H   0  0  0  0  0  0  0  0  0  0  0  0
    4.0280    1.3654    0.0000 H   0  0  0  0  0  0  0  0  0  0  0  0
    5.2219   -2.1950    0.0000 H   0  0  0  0  0  0  0  0  0  0  0  0
    5.8932   -1.7073    0.0000 H   0  0  0  0  0  0  0  0  0  0  0  0
    3.6802   -1.7073    0.0000 H   0  0  0  0  0  0  0  0  0  0  0  0
    4.3515   -2.1950    0.0000 H   0  0  0  0  0  0  0  0  0  0  0  0
    2.0000    1.4091    0.0000 H   0  0  0  0  0  0  0  0  0  0  0  0
  1 12  1  0  0  0  0
  2 12  1  0  0  0  0
  3 12  1  0  0  0  0
  4  8  1  0  0  0  0
  4 11  1  0  0  0  0
  5  8  1  0  0  0  0
  5 10  1  0  0  0  0
  6 13  1  0  0  0  0
  6 20  1  0  0  0  0
  7 13  2  0  0  0  0
  8  9  1  0  0  0  0
  8 12  1  0  0  0  0
  9 13  1  0  0  0  0
  9 14  1  0  0  0  0
  9 15  1  0  0  0  0
 10 11  1  0  0  0  0
 10 18  1  0  0  0  0
 10 19  1  0  0  0  0
 11 16  1  0  0  0  0
 11 17  1  0  0  0  0
M  END
> <PUBCHEM_COMPOUND_CID>
582813

> <PUBCHEM_COMPOUND_CANONICALIZED>
1

> <PUBCHEM_CACTVS_COMPLEXITY>
206

> <PUBCHEM_CACTVS_HBOND_ACCEPTOR>
7

> <PUBCHEM_CACTVS_HBOND_DONOR>
1

> <PUBCHEM_CACTVS_ROTATABLE_BOND>
2

> <PUBCHEM_CACTVS_SUBSKEYS>
AAADcYBgOYAAAAAAAAAAAAAAAAAAASAAAAAAAAAAAAAAAAAAAAAAGwAACAAACASggBIACAAABgAIAACQCAAAAAAAAAAAAAEAAAARABQAAAAiQAAFIAAGAAAAAAAAAAAAAAAAAAAAAAAAAAAAAAAAAAAAAA==

> <PUBCHEM_IUPAC_OPENEYE_NAME>
2-[2-(trifluoromethyl)-1,3-dioxolan-2-yl]acetic acid

> <PUBCHEM_IUPAC_CAS_NAME>
2-[2-(trifluoromethyl)-1,3-dioxolan-2-yl]acetic acid

> <PUBCHEM_IUPAC_NAME>
2-[2-(trifluoromethyl)-1,3-dioxolan-2-yl]acetic acid

> <PUBCHEM_IUPAC_SYSTEMATIC_NAME>
2-[2-(trifluoromethyl)-1,3-dioxolan-2-yl]ethanoic acid

> <PUBCHEM_IUPAC_TRADITIONAL_NAME>
2-[2-(trifluoromethyl)-1,3-dioxolan-2-yl]acetic acid

> <PUBCHEM_IUPAC_INCHI>
InChI=1S/C6H7F3O4/c7-6(8,9)5(3-4(10)11)12-1-2-13-5/h1-3H2,(H,10,11)

> <PUBCHEM_IUPAC_INCHIKEY>
MPZHFZZRKBOXNF-UHFFFAOYSA-N

> <PUBCHEM_XLOGP3_AA>
0.3

> <PUBCHEM_EXACT_MASS>
200.029643

> <PUBCHEM_MOLECULAR_FORMULA>
C6H7F3O4

> <PUBCHEM_MOLECULAR_WEIGHT>
200.11259

> <PUBCHEM_OPENEYE_CAN_SMILES>
C1COC(O1)(CC(=O)O)C(F)(F)F

> <PUBCHEM_OPENEYE_ISO_SMILES>
C1COC(O1)(CC(=O)O)C(F)(F)F

> <PUBCHEM_CACTVS_TPSA>
55.8

> <PUBCHEM_MONOISOTOPIC_WEIGHT>
200.029643

> <PUBCHEM_TOTAL_CHARGE>
0

> <PUBCHEM_HEAVY_ATOM_COUNT>
13

> <PUBCHEM_ATOM_DEF_STEREO_COUNT>
0

> <PUBCHEM_ATOM_UDEF_STEREO_COUNT>
0

> <PUBCHEM_BOND_DEF_STEREO_COUNT>
0

> <PUBCHEM_BOND_UDEF_STEREO_COUNT>
0

> <PUBCHEM_ISOTOPIC_ATOM_COUNT>
0

> <PUBCHEM_COMPONENT_COUNT>
1

> <PUBCHEM_CACTVS_TAUTO_COUNT>
1

> <PUBCHEM_COORDINATE_TYPE>
1
5
255

$$$$

