46173961
  -OEChem-07051213102D

 49 50  0     1  0  0  0  0  0999 V2000
    4.2690   -1.0950    0.0000 O   0  0  0  0  0  0  0  0  0  0  0  0
    6.0010   -1.0950    0.0000 O   0  0  0  0  0  0  0  0  0  0  0  0
    4.2690   -4.0950    0.0000 O   0  0  0  0  0  0  0  0  0  0  0  0
    2.5369   -3.0950    0.0000 O   0  0  0  0  0  0  0  0  0  0  0  0
    6.0010   -3.0950    0.0000 O   0  0  0  0  0  0  0  0  0  0  0  0
    2.5369   -0.0950    0.0000 O   0  0  0  0  0  0  0  0  0  0  0  0
    8.5991    1.4050    0.0000 O   0  0  0  0  0  0  0  0  0  0  0  0
    4.2690   -3.0950    0.0000 C   0  0  3  0  0  0  0  0  0  0  0  0
    3.4030   -2.5950    0.0000 C   0  0  3  0  0  0  0  0  0  0  0  0
    5.1350   -2.5950    0.0000 C   0  0  3  0  0  0  0  0  0  0  0  0
    3.4030   -1.5950    0.0000 C   0  0  3  0  0  0  0  0  0  0  0  0
    5.1350   -1.5950    0.0000 C   0  0  3  0  0  0  0  0  0  0  0  0
    6.8671    3.4050    0.0000 C   0  0  3  0  0  0  0  0  0  0  0  0
    6.0010    2.9050    0.0000 C   0  0  0  0  0  0  0  0  0  0  0  0
    6.0010    1.9050    0.0000 C   0  0  0  0  0  0  0  0  0  0  0  0
    7.7331    2.9050    0.0000 C   0  0  0  0  0  0  0  0  0  0  0  0
    6.8671    1.4050    0.0000 C   0  0  0  0  0  0  0  0  0  0  0  0
    2.5369   -1.0950    0.0000 C   0  0  0  0  0  0  0  0  0  0  0  0
    6.8671    0.4050    0.0000 C   0  0  0  0  0  0  0  0  0  0  0  0
    7.7331    1.9050    0.0000 C   0  0  0  0  0  0  0  0  0  0  0  0
    6.0010   -0.0950    0.0000 C   0  0  0  0  0  0  0  0  0  0  0  0
    6.8671    4.4050    0.0000 C   0  0  0  0  0  0  0  0  0  0  0  0
    7.7331   -0.0950    0.0000 C   0  0  0  0  0  0  0  0  0  0  0  0
    4.8059   -3.4050    0.0000 H   0  0  0  0  0  0  0  0  0  0  0  0
    3.4030   -3.2150    0.0000 H   0  0  0  0  0  0  0  0  0  0  0  0
    5.1350   -3.2150    0.0000 H   0  0  0  0  0  0  0  0  0  0  0  0
    3.4030   -0.9750    0.0000 H   0  0  0  0  0  0  0  0  0  0  0  0
    5.1350   -0.9750    0.0000 H   0  0  0  0  0  0  0  0  0  0  0  0
    6.3301    3.7150    0.0000 H   0  0  0  0  0  0  0  0  0  0  0  0
    5.7890    3.4876    0.0000 H   0  0  0  0  0  0  0  0  0  0  0  0
    5.3905    2.7973    0.0000 H   0  0  0  0  0  0  0  0  0  0  0  0
    5.3905    2.0127    0.0000 H   0  0  0  0  0  0  0  0  0  0  0  0
    5.7890    1.3224    0.0000 H   0  0  0  0  0  0  0  0  0  0  0  0
    8.3437    2.7973    0.0000 H   0  0  0  0  0  0  0  0  0  0  0  0
    7.9451    3.4876    0.0000 H   0  0  0  0  0  0  0  0  0  0  0  0
    1.9264   -0.9873    0.0000 H   0  0  0  0  0  0  0  0  0  0  0  0
    2.3249   -1.6776    0.0000 H   0  0  0  0  0  0  0  0  0  0  0  0
    5.7890    0.4876    0.0000 H   0  0  0  0  0  0  0  0  0  0  0  0
    5.3905   -0.2027    0.0000 H   0  0  0  0  0  0  0  0  0  0  0  0
    7.4871    4.4050    0.0000 H   0  0  0  0  0  0  0  0  0  0  0  0
    6.8671    5.0250    0.0000 H   0  0  0  0  0  0  0  0  0  0  0  0
    6.2471    4.4050    0.0000 H   0  0  0  0  0  0  0  0  0  0  0  0
    3.7320   -4.4050    0.0000 H   0  0  0  0  0  0  0  0  0  0  0  0
    2.0000   -2.7850    0.0000 H   0  0  0  0  0  0  0  0  0  0  0  0
    6.5380   -2.7850    0.0000 H   0  0  0  0  0  0  0  0  0  0  0  0
    7.4231   -0.6319    0.0000 H   0  0  0  0  0  0  0  0  0  0  0  0
    8.2700   -0.4050    0.0000 H   0  0  0  0  0  0  0  0  0  0  0  0
    8.0431    0.4419    0.0000 H   0  0  0  0  0  0  0  0  0  0  0  0
    2.0000    0.2150    0.0000 H   0  0  0  0  0  0  0  0  0  0  0  0
  1 11  1  0  0  0  0
  1 12  1  0  0  0  0
  2 12  1  0  0  0  0
  2 21  1  0  0  0  0
  3  8  1  0  0  0  0
  3 43  1  0  0  0  0
  4  9  1  0  0  0  0
  4 44  1  0  0  0  0
  5 10  1  0  0  0  0
  5 45  1  0  0  0  0
  6 18  1  0  0  0  0
  6 49  1  0  0  0  0
  7 20  2  0  0  0  0
  8  9  1  0  0  0  0
  8 10  1  0  0  0  0
  8 24  1  0  0  0  0
  9 11  1  0  0  0  0
  9 25  1  0  0  0  0
 10 12  1  0  0  0  0
 10 26  1  0  0  0  0
 11 18  1  0  0  0  0
 11 27  1  0  0  0  0
 12 28  1  0  0  0  0
 13 14  1  0  0  0  0
 13 16  1  0  0  0  0
 13 22  1  0  0  0  0
 13 29  1  0  0  0  0
 14 15  1  0  0  0  0
 14 30  1  0  0  0  0
 14 31  1  0  0  0  0
 15 17  1  0  0  0  0
 15 32  1  0  0  0  0
 15 33  1  0  0  0  0
 16 20  1  0  0  0  0
 16 34  1  0  0  0  0
 16 35  1  0  0  0  0
 17 19  2  0  0  0  0
 17 20  1  0  0  0  0
 18 36  1  0  0  0  0
 18 37  1  0  0  0  0
 19 21  1  0  0  0  0
 19 23  1  0  0  0  0
 21 38  1  0  0  0  0
 21 39  1  0  0  0  0
 22 40  1  0  0  0  0
 22 41  1  0  0  0  0
 22 42  1  0  0  0  0
 23 46  1  0  0  0  0
 23 47  1  0  0  0  0
 23 48  1  0  0  0  0
M  END
> <PUBCHEM_COMPOUND_CID>
46173961

> <PUBCHEM_COMPOUND_CANONICALIZED>
1

> <PUBCHEM_CACTVS_COMPLEXITY>
461

> <PUBCHEM_CACTVS_HBOND_ACCEPTOR>
7

> <PUBCHEM_CACTVS_HBOND_DONOR>
4

> <PUBCHEM_CACTVS_ROTATABLE_BOND>
4

> <PUBCHEM_CACTVS_SUBSKEYS>
AAADceB4OAAAAAAAAAAAAAAAAAAAAAAAAAA0QAAAAAAAAAAAAAAAGgAACAAADRSwgAMCCAAABgCIAoBQAAAAAAAgAAAACAEAAEgRFBIAIAAiUAAFgAAPIQPI6AwOAAAAAAAAAAAAAAAAAAAAAAAAAAAAAA==

> <PUBCHEM_IUPAC_OPENEYE_NAME>
(2E)-5-methyl-2-[1-methyl-2-[3,4,5-trihydroxy-6-(hydroxymethyl)tetrahydropyran-2-yl]oxy-ethylidene]cyclohexanone

> <PUBCHEM_IUPAC_CAS_NAME>
(2E)-5-methyl-2-[1-[[3,4,5-trihydroxy-6-(hydroxymethyl)-2-oxanyl]oxy]propan-2-ylidene]-1-cyclohexanone

> <PUBCHEM_IUPAC_NAME>
(2E)-5-methyl-2-[1-[3,4,5-trihydroxy-6-(hydroxymethyl)oxan-2-yl]oxypropan-2-ylidene]cyclohexan-1-one

> <PUBCHEM_IUPAC_SYSTEMATIC_NAME>
(2E)-2-[1-[6-(hydroxymethyl)-3,4,5-tris(oxidanyl)oxan-2-yl]oxypropan-2-ylidene]-5-methyl-cyclohexan-1-one

> <PUBCHEM_IUPAC_TRADITIONAL_NAME>
(2E)-5-methyl-2-[1-methyl-2-(3,4,5-trihydroxy-6-methylol-tetrahydropyran-2-yl)oxy-ethylidene]cyclohexanone

> <PUBCHEM_IUPAC_INCHI>
InChI=1S/C16H26O7/c1-8-3-4-10(11(18)5-8)9(2)7-22-16-15(21)14(20)13(19)12(6-17)23-16/h8,12-17,19-21H,3-7H2,1-2H3/b10-9+

> <PUBCHEM_IUPAC_INCHIKEY>
WDPNMVOXTFKLMJ-MDZDMXLPSA-N

> <PUBCHEM_XLOGP3_AA>
0

> <PUBCHEM_EXACT_MASS>
330.167853

> <PUBCHEM_MOLECULAR_FORMULA>
C16H26O7

> <PUBCHEM_MOLECULAR_WEIGHT>
330.37344

> <PUBCHEM_OPENEYE_CAN_SMILES>
CC1CCC(=C(C)COC2C(C(C(C(O2)CO)O)O)O)C(=O)C1

> <PUBCHEM_OPENEYE_ISO_SMILES>
CC1CC/C(=C(/C)\COC2C(C(C(C(O2)CO)O)O)O)/C(=O)C1

> <PUBCHEM_CACTVS_TPSA>
116

> <PUBCHEM_MONOISOTOPIC_WEIGHT>
330.167853

> <PUBCHEM_TOTAL_CHARGE>
0

> <PUBCHEM_HEAVY_ATOM_COUNT>
23

> <PUBCHEM_ATOM_DEF_STEREO_COUNT>
0

> <PUBCHEM_ATOM_UDEF_STEREO_COUNT>
6

> <PUBCHEM_BOND_DEF_STEREO_COUNT>
1

> <PUBCHEM_BOND_UDEF_STEREO_COUNT>
0

> <PUBCHEM_ISOTOPIC_ATOM_COUNT>
0

> <PUBCHEM_COMPONENT_COUNT>
1

> <PUBCHEM_CACTVS_TAUTO_COUNT>
5

> <PUBCHEM_COORDINATE_TYPE>
1
5
255

> <PUBCHEM_BONDANNOTATIONS>
11  18  3
13  22  3
12  2  3
8  3  3
9  4  3
10  5  3

$$$$

