441663
  -OEChem-07051212553D

 56 60  0     1  0  0  0  0  0999 V2000
   -1.2675    0.4491   -1.4996 O   0  0  0  0  0  0  0  0  0  0  0  0
   -2.6294    0.5658    1.0336 O   0  0  0  0  0  0  0  0  0  0  0  0
    3.4773   -0.6759    0.1904 O   0  0  0  0  0  0  0  0  0  0  0  0
   -2.6476   -0.4557   -3.6833 O   0  0  0  0  0  0  0  0  0  0  0  0
    5.7486    2.7304   -0.0734 O   0  0  0  0  0  0  0  0  0  0  0  0
   -6.9707   -2.2301    0.6524 O   0  0  0  0  0  0  0  0  0  0  0  0
    7.9084    1.2794   -0.1849 O   0  0  0  0  0  0  0  0  0  0  0  0
   -8.8047   -0.1452    0.5262 O   0  0  0  0  0  0  0  0  0  0  0  0
    7.3186   -3.4309   -0.1831 O   0  0  0  0  0  0  0  0  0  0  0  0
   -3.2821    0.8779   -0.2099 C   0  0  1  0  0  0  0  0  0  0  0  0
   -2.6468    0.0684   -1.3524 C   0  0  1  0  0  0  0  0  0  0  0  0
    3.0347    0.5499    0.7940 C   0  0  2  0  0  0  0  0  0  0  0  0
    1.5212    0.5422    0.8390 C   0  0  0  0  0  0  0  0  0  0  0  0
   -0.6059    0.4971   -0.3032 C   0  0  0  0  0  0  0  0  0  0  0  0
   -1.2660    0.5431    0.9242 C   0  0  0  0  0  0  0  0  0  0  0  0
    3.5565    1.7603    0.0219 C   0  0  0  0  0  0  0  0  0  0  0  0
   -4.7566    0.6011   -0.0122 C   0  0  0  0  0  0  0  0  0  0  0  0
    0.7886    0.5124   -0.3478 C   0  0  0  0  0  0  0  0  0  0  0  0
   -3.3089    0.3235   -2.7036 C   0  0  0  0  0  0  0  0  0  0  0  0
    0.8609    0.5597    2.0676 C   0  0  0  0  0  0  0  0  0  0  0  0
   -0.5334    0.5592    2.1116 C   0  0  0  0  0  0  0  0  0  0  0  0
    5.0624    1.7179    0.0003 C   0  0  0  0  0  0  0  0  0  0  0  0
    5.6712    0.3717    0.0001 C   0  0  0  0  0  0  0  0  0  0  0  0
    4.8412   -0.7508    0.0729 C   0  0  0  0  0  0  0  0  0  0  0  0
   -5.1950   -0.7001    0.2320 C   0  0  0  0  0  0  0  0  0  0  0  0
   -5.6767    1.6474   -0.0752 C   0  0  0  0  0  0  0  0  0  0  0  0
    7.0553    0.2198   -0.1149 C   0  0  0  0  0  0  0  0  0  0  0  0
    5.3953   -2.0293   -0.0037 C   0  0  0  0  0  0  0  0  0  0  0  0
   -6.5543   -0.9552    0.4134 C   0  0  0  0  0  0  0  0  0  0  0  0
   -7.0359    1.3924    0.1061 C   0  0  0  0  0  0  0  0  0  0  0  0
   -7.4747    0.0910    0.3504 C   0  0  0  0  0  0  0  0  0  0  0  0
    6.7771   -2.1834   -0.1199 C   0  0  0  0  0  0  0  0  0  0  0  0
    7.6052   -1.0615   -0.1704 C   0  0  0  0  0  0  0  0  0  0  0  0
   -5.9663   -3.2415    0.7012 C   0  0  0  0  0  0  0  0  0  0  0  0
   -3.1296    1.9520   -0.3897 H   0  0  0  0  0  0  0  0  0  0  0  0
   -2.6514   -1.0099   -1.1412 H   0  0  0  0  0  0  0  0  0  0  0  0
    3.4217    0.5732    1.8235 H   0  0  0  0  0  0  0  0  0  0  0  0
    3.2347    2.6891    0.5063 H   0  0  0  0  0  0  0  0  0  0  0  0
    3.2249    1.7715   -1.0224 H   0  0  0  0  0  0  0  0  0  0  0  0
    1.2920    0.4790   -1.3106 H   0  0  0  0  0  0  0  0  0  0  0  0
   -3.2077    1.3732   -2.9980 H   0  0  0  0  0  0  0  0  0  0  0  0
   -4.3692    0.0565   -2.7106 H   0  0  0  0  0  0  0  0  0  0  0  0
    1.4188    0.5790    2.9999 H   0  0  0  0  0  0  0  0  0  0  0  0
   -1.0404    0.5824    3.0724 H   0  0  0  0  0  0  0  0  0  0  0  0
   -4.4381   -1.4746    0.2820 H   0  0  0  0  0  0  0  0  0  0  0  0
   -5.3497    2.6661   -0.2654 H   0  0  0  0  0  0  0  0  0  0  0  0
    4.7478   -2.9019    0.0381 H   0  0  0  0  0  0  0  0  0  0  0  0
   -7.7422    2.2167    0.0543 H   0  0  0  0  0  0  0  0  0  0  0  0
   -2.7643   -1.3912   -3.4449 H   0  0  0  0  0  0  0  0  0  0  0  0
    8.6815   -1.1880   -0.2609 H   0  0  0  0  0  0  0  0  0  0  0  0
    7.4262    2.1124   -0.0697 H   0  0  0  0  0  0  0  0  0  0  0  0
   -9.2886    0.6950    0.4489 H   0  0  0  0  0  0  0  0  0  0  0  0
    6.6032   -4.0881   -0.1346 H   0  0  0  0  0  0  0  0  0  0  0  0
   -6.4753   -4.1912    0.8966 H   0  0  0  0  0  0  0  0  0  0  0  0
   -5.2695   -3.0790    1.5306 H   0  0  0  0  0  0  0  0  0  0  0  0
   -5.4537   -3.3490   -0.2609 H   0  0  0  0  0  0  0  0  0  0  0  0
  1 11  1  0  0  0  0
  1 14  1  0  0  0  0
  2 10  1  0  0  0  0
  2 15  1  0  0  0  0
  3 12  1  0  0  0  0
  3 24  1  0  0  0  0
  4 19  1  0  0  0  0
  4 49  1  0  0  0  0
  5 22  2  0  0  0  0
  6 29  1  0  0  0  0
  6 34  1  0  0  0  0
  7 27  1  0  0  0  0
  7 51  1  0  0  0  0
  8 31  1  0  0  0  0
  8 52  1  0  0  0  0
  9 32  1  0  0  0  0
  9 53  1  0  0  0  0
 10 11  1  0  0  0  0
 10 17  1  0  0  0  0
 10 35  1  0  0  0  0
 11 19  1  0  0  0  0
 11 36  1  0  0  0  0
 12 13  1  0  0  0  0
 12 16  1  0  0  0  0
 12 37  1  0  0  0  0
 13 18  2  0  0  0  0
 13 20  1  0  0  0  0
 14 15  2  0  0  0  0
 14 18  1  0  0  0  0
 15 21  1  0  0  0  0
 16 22  1  0  0  0  0
 16 38  1  0  0  0  0
 16 39  1  0  0  0  0
 17 25  2  0  0  0  0
 17 26  1  0  0  0  0
 18 40  1  0  0  0  0
 19 41  1  0  0  0  0
 19 42  1  0  0  0  0
 20 21  2  0  0  0  0
 20 43  1  0  0  0  0
 21 44  1  0  0  0  0
 22 23  1  0  0  0  0
 23 24  1  0  0  0  0
 23 27  2  0  0  0  0
 24 28  2  0  0  0  0
 25 29  1  0  0  0  0
 25 45  1  0  0  0  0
 26 30  2  0  0  0  0
 26 46  1  0  0  0  0
 27 33  1  0  0  0  0
 28 32  1  0  0  0  0
 28 47  1  0  0  0  0
 29 31  2  0  0  0  0
 30 31  1  0  0  0  0
 30 48  1  0  0  0  0
 32 33  2  0  0  0  0
 33 50  1  0  0  0  0
 34 54  1  0  0  0  0
 34 55  1  0  0  0  0
 34 56  1  0  0  0  0
M  END
> <PUBCHEM_COMPOUND_CID>
441663

> <PUBCHEM_CONFORMER_RMSD>
0.8

> <PUBCHEM_CONFORMER_DIVERSEORDER>
1
26
126
103
40
83
100
112
107
122
88
10
65
113
27
70
125
110
92
81
106
90
79
18
105
78
14
87
101
53
76
41
47
86
111
89
5
85
24
71
30
3
43
115
6
94
38
64
102
4
48
8
68
44
93
16
121
58
120
99
36
114
31
2
67
82
15
84
96
34
108
97
32
22
50
19
117
119
23
75
116
95
73
104
91
57
63
124
49
11
123
98
61
21
7
60
29
77
74
45
52
28
62
66
56
39
54
72
118
51
25
37
109
80
69
33
20
59
9
13
42
55
17
35
46
12

> <PUBCHEM_MMFF94_PARTIAL_CHARGES>
46
1 -0.36
10 0.42
11 0.28
12 0.42
13 -0.14
14 0.08
15 0.08
16 0.06
17 -0.14
18 -0.15
19 0.28
2 -0.36
20 -0.15
21 -0.15
22 0.42
23 0.09
24 0.08
25 -0.15
26 -0.15
27 0.08
28 -0.15
29 0.08
3 -0.36
30 -0.15
31 0.08
32 0.08
33 -0.15
34 0.28
4 -0.68
40 0.15
43 0.15
44 0.15
45 0.15
46 0.15
47 0.15
48 0.15
49 0.4
5 -0.57
50 0.15
51 0.45
52 0.45
53 0.45
6 -0.36
7 -0.53
8 -0.53
9 -0.53

> <PUBCHEM_EFFECTIVE_ROTOR_COUNT>
5.4

> <PUBCHEM_PHARMACOPHORE_FEATURES>
15
1 1 acceptor
1 2 acceptor
1 3 acceptor
1 4 acceptor
1 4 donor
1 5 acceptor
1 6 acceptor
1 7 donor
1 8 donor
1 9 donor
6 1 2 10 11 14 15 rings
6 13 14 15 18 20 21 rings
6 17 25 26 29 30 31 rings
6 23 24 27 28 32 33 rings
6 3 12 16 22 23 24 rings

> <PUBCHEM_HEAVY_ATOM_COUNT>
34

> <PUBCHEM_ATOM_DEF_STEREO_COUNT>
3

> <PUBCHEM_ATOM_UDEF_STEREO_COUNT>
0

> <PUBCHEM_BOND_DEF_STEREO_COUNT>
0

> <PUBCHEM_BOND_UDEF_STEREO_COUNT>
0

> <PUBCHEM_ISOTOPIC_ATOM_COUNT>
0

> <PUBCHEM_COMPONENT_COUNT>
1

> <PUBCHEM_CACTVS_TAUTO_COUNT>
63

> <PUBCHEM_CONFORMER_ID>
0006BD3F00000001

> <PUBCHEM_MMFF94_ENERGY>
116.6506

> <PUBCHEM_FEATURE_SELFOVERLAP>
76.193

> <PUBCHEM_SHAPE_FINGERPRINT>
10050765 1 16010460945428304897
102385 1 14976899364904998585
10258705 36 18341321232703698539
10299344 5 18260266351940963395
10670039 82 15051454972352431566
11103572 155 18409166610458835015
117089 54 17627782021430690411
11719270 70 17821728364386377974
12082328 90 18410294735442930293
12144603 126 17603866685642554000
12236239 1 17967249832566749056
13540713 5 15865782807425641633
13617811 41 15339116858037557270
13782708 43 18202005421292605930
13885169 127 18411980299779794025
13911987 19 14045748110760394531
14040222 275 17417231222251221060
14294032 229 15482395351987186301
14400156 162 18335975446440380923
1454969 45 14549016598178715005
14556957 393 14045740465360724015
14856354 85 18412263922635382137
14933364 13 18413108364007431225
150020 25 18131632296337860083
15131766 46 17973168326859591360
15320294 125 17313393365651211076
15328829 1 17749107812010406520
15336146 87 14405192750682616948
15352257 5 18412824681206676883
15419008 47 17275388707192888820
1577012 14 17603876581046373908
19301679 30 17532364460871756198
19841028 212 18337953515225209554
21781055 127 14129602334202067569
21792961 116 17821726173541528641
22311459 1 16081087086642564225
22956985 138 16446699043338661494
23516275 137 18265877220319764411
23522609 53 17532356591711669761
23576562 1 14116650074743325707
24771293 8 17131551631012992300
2747138 104 16486966289847030401
3178227 256 17312819364119396778
335352 9 16153432731695510805
34797466 226 17346875646717359012
4073 2 18130783395951644354
4098825 35 18341050799939185976
4149490 64 18410015421441451066
4258327 124 11455592314719697050
439807 62 18259983790574884738
44317340 157 18334299721578426792
4516262 110 11167644496768309514
4625314 4 18272090496266372149
5028188 123 17774999085903779079
5104073 3 15647633137242388306
54039377 194 18114178688014844286
6691757 9 14996285791207675479
9831232 110 18339639066112499926
999808 66 18334573534391354059

> <PUBCHEM_SHAPE_MULTIPOLES>
646.88
26.13
2.37
1.67
2.29
1.85
1.29
8.79
-0.64
2.03
-0.23
-2.02
-0.07
0.97

> <PUBCHEM_SHAPE_SELFOVERLAP>
1440.62

> <PUBCHEM_SHAPE_VOLUME>
341.9

> <PUBCHEM_COORDINATE_TYPE>
2
5
10

$$$$

