23724655
  -OEChem-07051213083D

 37 39  0     1  0  0  0  0  0999 V2000
   -1.8490   -1.3894   -1.2324 O   0  0  0  0  0  0  0  0  0  0  0  0
   -0.5385    0.7246    1.9998 O   0  0  0  0  0  0  0  0  0  0  0  0
    1.9760   -2.1096    1.5528 O   0  0  0  0  0  0  0  0  0  0  0  0
    5.6426    0.4195   -0.1424 O   0  0  0  0  0  0  0  0  0  0  0  0
   -6.2816    0.0807   -0.4605 O   0  0  0  0  0  0  0  0  0  0  0  0
    0.0655   -0.5772    0.0554 C   0  0  1  0  0  0  0  0  0  0  0  0
   -0.7261    0.6316    0.5878 C   0  0  1  0  0  0  0  0  0  0  0  0
   -0.4846   -0.9662   -1.3193 C   0  0  0  0  0  0  0  0  0  0  0  0
   -2.2000    0.4848    0.2949 C   0  0  0  0  0  0  0  0  0  0  0  0
    1.5614   -0.3208    0.0122 C   0  0  0  0  0  0  0  0  0  0  0  0
   -2.6688   -0.5006   -0.5855 C   0  0  0  0  0  0  0  0  0  0  0  0
   -3.1286    1.3563    0.8852 C   0  0  0  0  0  0  0  0  0  0  0  0
    2.4404   -1.1004    0.7639 C   0  0  0  0  0  0  0  0  0  0  0  0
    2.0539    0.7073   -0.7917 C   0  0  0  0  0  0  0  0  0  0  0  0
   -4.0383   -0.6452   -0.8258 C   0  0  0  0  0  0  0  0  0  0  0  0
   -4.4944    1.2210    0.6318 C   0  0  0  0  0  0  0  0  0  0  0  0
   -4.9493    0.2167   -0.2184 C   0  0  0  0  0  0  0  0  0  0  0  0
    3.8120   -0.8518    0.7119 C   0  0  0  0  0  0  0  0  0  0  0  0
    3.4253    0.9559   -0.8437 C   0  0  0  0  0  0  0  0  0  0  0  0
    4.3044    0.1763   -0.0920 C   0  0  0  0  0  0  0  0  0  0  0  0
    6.0776    1.4863   -0.9841 C   0  0  0  0  0  0  0  0  0  0  0  0
   -0.1387   -1.4199    0.7306 H   0  0  0  0  0  0  0  0  0  0  0  0
   -0.3859    1.5730    0.1423 H   0  0  0  0  0  0  0  0  0  0  0  0
   -0.4134   -0.1510   -2.0511 H   0  0  0  0  0  0  0  0  0  0  0  0
    0.0832   -1.8099   -1.7290 H   0  0  0  0  0  0  0  0  0  0  0  0
   -2.7933    2.1458    1.5535 H   0  0  0  0  0  0  0  0  0  0  0  0
    1.3889    1.3251   -1.3887 H   0  0  0  0  0  0  0  0  0  0  0  0
   -0.9873   -0.0304    2.4176 H   0  0  0  0  0  0  0  0  0  0  0  0
   -4.3880   -1.4266   -1.4966 H   0  0  0  0  0  0  0  0  0  0  0  0
   -5.1979    1.9015    1.1038 H   0  0  0  0  0  0  0  0  0  0  0  0
    4.5039   -1.4549    1.2946 H   0  0  0  0  0  0  0  0  0  0  0  0
    3.7399    1.7690   -1.4890 H   0  0  0  0  0  0  0  0  0  0  0  0
    2.7282   -2.5378    1.9964 H   0  0  0  0  0  0  0  0  0  0  0  0
   -6.4168   -0.6636   -1.0719 H   0  0  0  0  0  0  0  0  0  0  0  0
    7.1682    1.5382   -0.9025 H   0  0  0  0  0  0  0  0  0  0  0  0
    5.6855    2.4514   -0.6456 H   0  0  0  0  0  0  0  0  0  0  0  0
    5.8448    1.2894   -2.0361 H   0  0  0  0  0  0  0  0  0  0  0  0
  1  8  1  0  0  0  0
  1 11  1  0  0  0  0
  2  7  1  0  0  0  0
  2 28  1  0  0  0  0
  3 13  1  0  0  0  0
  3 33  1  0  0  0  0
  4 20  1  0  0  0  0
  4 21  1  0  0  0  0
  5 17  1  0  0  0  0
  5 34  1  0  0  0  0
  6  7  1  0  0  0  0
  6  8  1  0  0  0  0
  6 10  1  0  0  0  0
  6 22  1  0  0  0  0
  7  9  1  0  0  0  0
  7 23  1  0  0  0  0
  8 24  1  0  0  0  0
  8 25  1  0  0  0  0
  9 11  2  0  0  0  0
  9 12  1  0  0  0  0
 10 13  2  0  0  0  0
 10 14  1  0  0  0  0
 11 15  1  0  0  0  0
 12 16  2  0  0  0  0
 12 26  1  0  0  0  0
 13 18  1  0  0  0  0
 14 19  2  0  0  0  0
 14 27  1  0  0  0  0
 15 17  2  0  0  0  0
 15 29  1  0  0  0  0
 16 17  1  0  0  0  0
 16 30  1  0  0  0  0
 18 20  2  0  0  0  0
 18 31  1  0  0  0  0
 19 20  1  0  0  0  0
 19 32  1  0  0  0  0
 21 35  1  0  0  0  0
 21 36  1  0  0  0  0
 21 37  1  0  0  0  0
M  END
> <PUBCHEM_COMPOUND_CID>
23724655

> <PUBCHEM_CONFORMER_RMSD>
0.6

> <PUBCHEM_CONFORMER_DIVERSEORDER>
1
5
16
13
6
4
18
14
9
8
12
11
2
17
3
10
7
15

> <PUBCHEM_MMFF94_PARTIAL_CHARGES>
30
1 -0.36
10 -0.14
11 0.08
12 -0.15
13 0.08
14 -0.15
15 -0.15
16 -0.15
17 0.08
18 -0.15
19 -0.15
2 -0.68
20 0.08
21 0.28
26 0.15
27 0.15
28 0.4
29 0.15
3 -0.53
30 0.15
31 0.15
32 0.15
33 0.45
34 0.45
4 -0.36
5 -0.53
6 0.14
7 0.42
8 0.28
9 -0.14

> <PUBCHEM_EFFECTIVE_ROTOR_COUNT>
2.8

> <PUBCHEM_PHARMACOPHORE_FEATURES>
9
1 1 acceptor
1 2 acceptor
1 2 donor
1 3 donor
1 4 acceptor
1 5 donor
6 1 6 7 8 9 11 rings
6 10 13 14 18 19 20 rings
6 9 11 12 15 16 17 rings

> <PUBCHEM_HEAVY_ATOM_COUNT>
21

> <PUBCHEM_ATOM_DEF_STEREO_COUNT>
1

> <PUBCHEM_ATOM_UDEF_STEREO_COUNT>
1

> <PUBCHEM_BOND_DEF_STEREO_COUNT>
0

> <PUBCHEM_BOND_UDEF_STEREO_COUNT>
0

> <PUBCHEM_ISOTOPIC_ATOM_COUNT>
0

> <PUBCHEM_COMPONENT_COUNT>
1

> <PUBCHEM_CACTVS_TAUTO_COUNT>
8

> <PUBCHEM_CONFORMER_ID>
016A026F00000001

> <PUBCHEM_MMFF94_ENERGY>
74.2577

> <PUBCHEM_FEATURE_SELFOVERLAP>
45.698

> <PUBCHEM_SHAPE_FINGERPRINT>
10 15 15051733033263003004
10498660 4 17530963634969486232
10759866 29 18261955266183889690
11963148 33 17822585919464824519
12011746 2 16225765220350272941
12107183 9 17549268480974500897
12236239 1 18409730668565585206
12390115 104 16805872014053217833
12403259 415 16226055513137396795
12403814 3 18341614854242514917
12596602 18 18343300366570149139
12633257 1 15482384253818404484
12670546 56 18201159957175443237
12788726 201 17967810600006884449
13533116 47 18341619260277749482
13544592 145 15068344496940558038
13583140 156 18201993305616962817
13631057 29 18056758728763201603
13760787 19 18411986840756620287
14341114 328 18413673521410311115
14386348 63 15863788391641837037
15048467 5 18343866619458896629
15183329 4 17822841070622692158
15342168 16 17559945542366170300
15375358 24 15841549690938570362
1813 80 17908986848813617426
18681886 176 17821733792961094256
18785283 64 15840406104762696068
200 152 18273498978823998869
20279233 1 15626220242870135683
204376 136 17703505515751195162
20645477 70 17488753396611981394
21033648 29 16343434916089930773
21065198 48 18340207500400904641
21267235 1 17386011612383871047
221357 26 13984660377669470363
22224240 67 16916787345021653424
22854114 59 17275384309018990142
2297311 6 16805317791056649049
23402539 116 17313106358345464588
23557571 272 16660355995780110833
23559900 14 16805325474847944064
26918003 58 16702017578157251561
296302 2 18059855073269509627
300161 21 18413395331993644700
3004659 81 17895186762540646374
34797466 226 16805599223379391000
3545911 37 18131912650138039847
4340502 62 17918268757990926179
474 4 18131065996621229612
5104073 3 17631737037711117600
542803 24 18408040718993278860
543368 44 18337390444031105924
8272917 22 18201720712174021866

> <PUBCHEM_SHAPE_MULTIPOLES>
402.82
12.56
1.45
1.29
1.58
0.17
-0.24
-4.03
2.4
0.49
-0.18
0.17
0.15
-1.81

> <PUBCHEM_SHAPE_SELFOVERLAP>
881.261

> <PUBCHEM_SHAPE_VOLUME>
218.4

> <PUBCHEM_COORDINATE_TYPE>
2
5
10

$$$$

