150865
  -OEChem-07051212483D

 16 15  0     0  0  0  0  0  0999 V2000
   -1.7844   -0.0713   -0.0019 P   0  0  0  0  0  0  0  0  0  0  0  0
   -0.2230   -0.5090    0.0003 O   0  0  0  0  0  0  0  0  0  0  0  0
   -1.8989    0.9304   -1.2662 O   0  0  0  0  0  0  0  0  0  0  0  0
   -1.8874    0.9220    1.2701 O   0  0  0  0  0  0  0  0  0  0  0  0
   -2.7600   -1.2117    0.0038 O   0  0  0  0  0  0  0  0  0  0  0  0
    2.3381   -1.3209   -0.0063 O   0  0  0  0  0  0  0  0  0  0  0  0
    0.7632    0.5015   -0.0047 C   0  0  0  0  0  0  0  0  0  0  0  0
    2.1502   -0.1052   -0.0017 C   0  0  0  0  0  0  0  0  0  0  0  0
    3.3022    0.8643    0.0066 C   0  0  0  0  0  0  0  0  0  0  0  0
    0.6594    1.1145   -0.9044 H   0  0  0  0  0  0  0  0  0  0  0  0
    0.6593    1.1233    0.8889 H   0  0  0  0  0  0  0  0  0  0  0  0
    4.2473    0.3144    0.0069 H   0  0  0  0  0  0  0  0  0  0  0  0
    3.2590    1.4919   -0.8869 H   0  0  0  0  0  0  0  0  0  0  0  0
    3.2534    1.4834    0.9057 H   0  0  0  0  0  0  0  0  0  0  0  0
   -2.7815    1.2751   -1.5200 H   0  0  0  0  0  0  0  0  0  0  0  0
   -2.7689    1.2566    1.5406 H   0  0  0  0  0  0  0  0  0  0  0  0
  1  2  1  0  0  0  0
  1  3  1  0  0  0  0
  1  4  1  0  0  0  0
  1  5  2  0  0  0  0
  2  7  1  0  0  0  0
  3 15  1  0  0  0  0
  4 16  1  0  0  0  0
  6  8  2  0  0  0  0
  7  8  1  0  0  0  0
  7 10  1  0  0  0  0
  7 11  1  0  0  0  0
  8  9  1  0  0  0  0
  9 12  1  0  0  0  0
  9 13  1  0  0  0  0
  9 14  1  0  0  0  0
M  END
> <PUBCHEM_COMPOUND_CID>
150865

> <PUBCHEM_CONFORMER_RMSD>
0.6

> <PUBCHEM_CONFORMER_DIVERSEORDER>
1
5
4
3
7
8
2
6

> <PUBCHEM_MMFF94_PARTIAL_CHARGES>
11
1 1.51
15 0.5
16 0.5
2 -0.55
3 -0.77
4 -0.77
5 -0.7
6 -0.57
7 0.34
8 0.45
9 0.06

> <PUBCHEM_EFFECTIVE_ROTOR_COUNT>
3

> <PUBCHEM_PHARMACOPHORE_FEATURES>
5
1 3 acceptor
1 4 acceptor
1 5 acceptor
1 6 acceptor
4 1 3 4 5 anion

> <PUBCHEM_HEAVY_ATOM_COUNT>
9

> <PUBCHEM_ATOM_DEF_STEREO_COUNT>
0

> <PUBCHEM_ATOM_UDEF_STEREO_COUNT>
0

> <PUBCHEM_BOND_DEF_STEREO_COUNT>
0

> <PUBCHEM_BOND_UDEF_STEREO_COUNT>
0

> <PUBCHEM_ISOTOPIC_ATOM_COUNT>
0

> <PUBCHEM_COMPONENT_COUNT>
1

> <PUBCHEM_CACTVS_TAUTO_COUNT>
3

> <PUBCHEM_CONFORMER_ID>
00024D5100000001

> <PUBCHEM_MMFF94_ENERGY>
-24.5573

> <PUBCHEM_FEATURE_SELFOVERLAP>
25.408

> <PUBCHEM_SHAPE_FINGERPRINT>
12932764 1 18059569243454423610
14325111 11 18410575084884683462
14390081 3 17775011205932346452
15310529 11 18411143523663936462
20653085 51 18057329585576841205
23552423 10 18341891943588098234
29004967 10 17704346684795299888
3248919 1 18041566935267330326
5084963 1 18342458118855938219
5460574 1 9295296036161821474
8030462 33 17749114412916236744

> <PUBCHEM_SHAPE_MULTIPOLES>
159.72
4.99
1.17
0.87
1.62
0.17
0
0
0
-0.01
0
-0.55
-0.29
0.01

> <PUBCHEM_SHAPE_SELFOVERLAP>
283.587

> <PUBCHEM_SHAPE_VOLUME>
104.2

> <PUBCHEM_COORDINATE_TYPE>
2
5
10

$$$$

