440036
  -OEChem-07051212483D

 31 31  0     1  0  0  0  0  0999 V2000
   -1.1829   -1.2730    0.0962 O   0  0  0  0  0  0  0  0  0  0  0  0
    0.1125    2.6762    0.1230 O   0  0  0  0  0  0  0  0  0  0  0  0
   -2.5848    2.0553   -0.6376 O   0  0  0  0  0  0  0  0  0  0  0  0
   -0.9351   -0.8345    2.4151 O   0  0  0  0  0  0  0  0  0  0  0  0
   -3.6088   -2.0921   -0.8451 O   0  0  0  0  0  0  0  0  0  0  0  0
    3.2104   -0.4214    1.0418 O   0  0  0  0  0  0  0  0  0  0  0  0
    4.7665   -0.7124   -1.1354 O   0  0  0  0  0  0  0  0  0  0  0  0
    1.3737    0.2074   -0.2388 N   0  0  0  0  0  0  0  0  0  0  0  0
   -0.5758    1.4984    0.5366 C   0  0  2  0  0  0  0  0  0  0  0  0
    0.4359    0.3913    0.8493 C   0  0  1  0  0  0  0  0  0  0  0  0
   -1.5730    1.0564   -0.5361 C   0  0  1  0  0  0  0  0  0  0  0  0
   -2.1948   -0.2936   -0.1559 C   0  0  1  0  0  0  0  0  0  0  0  0
   -0.2814   -0.9277    1.1519 C   0  0  2  0  0  0  0  0  0  0  0  0
   -3.0842   -0.8464   -1.2662 C   0  0  0  0  0  0  0  0  0  0  0  0
    2.6869   -0.1855   -0.0437 C   0  0  0  0  0  0  0  0  0  0  0  0
    3.4348   -0.2982   -1.3551 C   0  0  0  0  0  0  0  0  0  0  0  0
   -1.1170    1.7627    1.4542 H   0  0  0  0  0  0  0  0  0  0  0  0
    1.0164    0.7014    1.7278 H   0  0  0  0  0  0  0  0  0  0  0  0
   -1.0765    1.0003   -1.5112 H   0  0  0  0  0  0  0  0  0  0  0  0
   -2.8120   -0.1957    0.7472 H   0  0  0  0  0  0  0  0  0  0  0  0
    0.4520   -1.7391    1.2260 H   0  0  0  0  0  0  0  0  0  0  0  0
   -2.5159   -1.0165   -2.1866 H   0  0  0  0  0  0  0  0  0  0  0  0
   -3.9186   -0.1743   -1.4861 H   0  0  0  0  0  0  0  0  0  0  0  0
    1.0347    0.3179   -1.1900 H   0  0  0  0  0  0  0  0  0  0  0  0
   -0.5598    3.3452   -0.0920 H   0  0  0  0  0  0  0  0  0  0  0  0
   -3.0557    2.0947    0.2123 H   0  0  0  0  0  0  0  0  0  0  0  0
   -1.0005   -1.7368    2.7711 H   0  0  0  0  0  0  0  0  0  0  0  0
   -2.8569   -2.6783   -0.6527 H   0  0  0  0  0  0  0  0  0  0  0  0
    2.9412   -1.0401   -1.9901 H   0  0  0  0  0  0  0  0  0  0  0  0
    3.4376    0.6677   -1.8694 H   0  0  0  0  0  0  0  0  0  0  0  0
    5.2165   -0.0031   -0.6454 H   0  0  0  0  0  0  0  0  0  0  0  0
  1 12  1  0  0  0  0
  1 13  1  0  0  0  0
  2  9  1  0  0  0  0
  2 25  1  0  0  0  0
  3 11  1  0  0  0  0
  3 26  1  0  0  0  0
  4 13  1  0  0  0  0
  4 27  1  0  0  0  0
  5 14  1  0  0  0  0
  5 28  1  0  0  0  0
  6 15  2  0  0  0  0
  7 16  1  0  0  0  0
  7 31  1  0  0  0  0
  8 10  1  0  0  0  0
  8 15  1  0  0  0  0
  8 24  1  0  0  0  0
  9 10  1  0  0  0  0
  9 11  1  0  0  0  0
  9 17  1  0  0  0  0
 10 13  1  0  0  0  0
 10 18  1  0  0  0  0
 11 12  1  0  0  0  0
 11 19  1  0  0  0  0
 12 14  1  0  0  0  0
 12 20  1  0  0  0  0
 13 21  1  0  0  0  0
 14 22  1  0  0  0  0
 14 23  1  0  0  0  0
 15 16  1  0  0  0  0
 16 29  1  0  0  0  0
 16 30  1  0  0  0  0
M  END
> <PUBCHEM_COMPOUND_CID>
440036

> <PUBCHEM_CONFORMER_RMSD>
0.6

> <PUBCHEM_CONFORMER_DIVERSEORDER>
1
20
31
59
21
24
46
56
13
53
49
30
17
57
15
47
34
26
44
23
38
27
11
52
43
40
45
32
55
22
28
36
2
51
9
35
60
4
14
61
6
41
58
29
10
50
54
16
5
19
39
8
7
18
3
33
48
42
12
37
25

> <PUBCHEM_MMFF94_PARTIAL_CHARGES>
22
1 -0.56
10 0.3
11 0.28
12 0.28
13 0.56
14 0.28
15 0.57
16 0.34
2 -0.68
24 0.37
25 0.4
26 0.4
27 0.4
28 0.4
3 -0.68
31 0.4
4 -0.68
5 -0.68
6 -0.57
7 -0.68
8 -0.73
9 0.28

> <PUBCHEM_EFFECTIVE_ROTOR_COUNT>
5.2

> <PUBCHEM_PHARMACOPHORE_FEATURES>
14
1 1 acceptor
1 2 acceptor
1 2 donor
1 3 acceptor
1 3 donor
1 4 acceptor
1 4 donor
1 5 acceptor
1 5 donor
1 6 acceptor
1 7 acceptor
1 7 donor
1 8 donor
6 1 9 10 11 12 13 rings

> <PUBCHEM_HEAVY_ATOM_COUNT>
16

> <PUBCHEM_ATOM_DEF_STEREO_COUNT>
5

> <PUBCHEM_ATOM_UDEF_STEREO_COUNT>
0

> <PUBCHEM_BOND_DEF_STEREO_COUNT>
0

> <PUBCHEM_BOND_UDEF_STEREO_COUNT>
0

> <PUBCHEM_ISOTOPIC_ATOM_COUNT>
0

> <PUBCHEM_COMPONENT_COUNT>
1

> <PUBCHEM_CACTVS_TAUTO_COUNT>
2

> <PUBCHEM_CONFORMER_ID>
0006B6E400000001

> <PUBCHEM_MMFF94_ENERGY>
26.8047

> <PUBCHEM_FEATURE_SELFOVERLAP>
71.1

> <PUBCHEM_SHAPE_FINGERPRINT>
10062212 137 18057340576076372579
10353120 184 18199765682147682709
10465860 71 18410297986305600373
11127187 94 18261109715993237117
11206711 2 18272665544905120701
11357001 24 14635416260328073618
12251169 10 7493287750434205006
13024252 1 17702927219293991361
13296908 3 17531251660082286430
14817 1 9823467358580758185
15775835 57 17488736917017385484
16945 1 18271818890834130067
18186145 218 17917715681861213612
18534176 82 17489294253195375722
19765921 60 17630892800978928385
20645476 183 17631721781164127840
20645477 70 17903095347610164959
20653085 51 14908184144317935114
20871999 31 18410011043793421549
21061003 4 15936416632198853802
21524375 3 17623002812975831408
22620623 9 18114754810332029005
228727 97 18131641101036413777
23382010 3 17274548611409695135
23402539 116 18342458183860696708
23419403 2 17484778456108772105
23500284 214 11959733771916632454
23557571 272 18187942654930964168
23559900 14 18188781677361774234
27216 239 12678593310536792814
2748010 2 17697599888110402315
8030462 33 18131628998187936242

> <PUBCHEM_SHAPE_MULTIPOLES>
283.21
6.17
1.93
1.5
5.5
0.98
0.6
-2.9
-3.43
-1.69
-0.24
0.09
-0.47
0.08

> <PUBCHEM_SHAPE_SELFOVERLAP>
565.823

> <PUBCHEM_SHAPE_VOLUME>
163.5

> <PUBCHEM_COORDINATE_TYPE>
2
5
10

$$$$

