5460411
  -OEChem-07051212493D

 20 20  0     0  0  0  0  0  0999 V2000
    3.8286    0.5307    0.6405 O   0  0  0  0  0  0  0  0  0  0  0  0
   -4.1280    0.5924    1.0906 O   0  0  0  0  0  0  0  0  0  0  0  0
   -3.3667    0.4797   -0.0754 N   0  0  0  0  0  0  0  0  0  0  0  0
   -0.0450   -0.3910   -0.5324 C   0  0  0  0  0  0  0  0  0  0  0  0
   -1.4368   -0.7214   -0.9535 C   0  0  0  0  0  0  0  0  0  0  0  0
    0.4791    0.8758   -0.7898 C   0  0  0  0  0  0  0  0  0  0  0  0
    0.7327   -1.3481    0.1196 C   0  0  0  0  0  0  0  0  0  0  0  0
    1.7807    1.1855   -0.3953 C   0  0  0  0  0  0  0  0  0  0  0  0
    2.0343   -1.0383    0.5140 C   0  0  0  0  0  0  0  0  0  0  0  0
    2.5583    0.2284    0.2564 C   0  0  0  0  0  0  0  0  0  0  0  0
   -2.4372   -0.3937    0.1252 C   0  0  0  0  0  0  0  0  0  0  0  0
   -1.5232   -1.7921   -1.1732 H   0  0  0  0  0  0  0  0  0  0  0  0
   -1.6980   -0.1895   -1.8760 H   0  0  0  0  0  0  0  0  0  0  0  0
   -0.1174    1.6306   -1.2953 H   0  0  0  0  0  0  0  0  0  0  0  0
    0.3358   -2.3382    0.3278 H   0  0  0  0  0  0  0  0  0  0  0  0
    2.1770    2.1761   -0.6014 H   0  0  0  0  0  0  0  0  0  0  0  0
    2.6351   -1.7879    1.0218 H   0  0  0  0  0  0  0  0  0  0  0  0
   -2.3388   -0.9339    1.0845 H   0  0  0  0  0  0  0  0  0  0  0  0
    4.0258    1.4477    0.3830 H   0  0  0  0  0  0  0  0  0  0  0  0
   -4.7836    1.2620    0.8319 H   0  0  0  0  0  0  0  0  0  0  0  0
  1 10  1  0  0  0  0
  1 19  1  0  0  0  0
  2  3  1  0  0  0  0
  2 20  1  0  0  0  0
  3 11  2  0  0  0  0
  4  5  1  0  0  0  0
  4  6  2  0  0  0  0
  4  7  1  0  0  0  0
  5 11  1  0  0  0  0
  5 12  1  0  0  0  0
  5 13  1  0  0  0  0
  6  8  1  0  0  0  0
  6 14  1  0  0  0  0
  7  9  2  0  0  0  0
  7 15  1  0  0  0  0
  8 10  2  0  0  0  0
  8 16  1  0  0  0  0
  9 10  1  0  0  0  0
  9 17  1  0  0  0  0
 11 18  1  0  0  0  0
M  END
> <PUBCHEM_COMPOUND_CID>
5460411

> <PUBCHEM_CONFORMER_RMSD>
0.4

> <PUBCHEM_CONFORMER_DIVERSEORDER>
1
5
3
4
8
2
7
6

> <PUBCHEM_MMFF94_PARTIAL_CHARGES>
18
1 -0.53
10 0.08
11 0.33
14 0.15
15 0.15
16 0.15
17 0.15
18 0.06
19 0.45
2 -0.34
20 0.4
3 -0.51
4 -0.14
5 0.2
6 -0.15
7 -0.15
8 -0.15
9 -0.15

> <PUBCHEM_EFFECTIVE_ROTOR_COUNT>
2

> <PUBCHEM_PHARMACOPHORE_FEATURES>
4
1 1 donor
1 2 anion
1 3 acceptor
6 4 6 7 8 9 10 rings

> <PUBCHEM_HEAVY_ATOM_COUNT>
11

> <PUBCHEM_ATOM_DEF_STEREO_COUNT>
0

> <PUBCHEM_ATOM_UDEF_STEREO_COUNT>
0

> <PUBCHEM_BOND_DEF_STEREO_COUNT>
1

> <PUBCHEM_BOND_UDEF_STEREO_COUNT>
0

> <PUBCHEM_ISOTOPIC_ATOM_COUNT>
0

> <PUBCHEM_COMPONENT_COUNT>
1

> <PUBCHEM_CACTVS_TAUTO_COUNT>
4

> <PUBCHEM_CONFORMER_ID>
005351BB00000001

> <PUBCHEM_MMFF94_ENERGY>
22.332

> <PUBCHEM_FEATURE_SELFOVERLAP>
20.297

> <PUBCHEM_SHAPE_FINGERPRINT>
10219947 1 18202570574553427438
11471102 22 17917988386567349297
11769659 78 12319193818524932608
12138202 97 14707215370275081229
12251169 10 18202561761554874987
15775835 57 18040715866038576961
16945 1 18059872635823319278
17844478 74 17274830172185486301
20281407 28 15626224645438454227
20871998 22 18050853509518841198
21119208 17 8718828678420249585
21293036 1 7565343158560346618
23380061 451 16486985028261224856
23402539 116 15791737424743883896
2748010 2 17911825736016527910
29004967 10 17703519847640148582

> <PUBCHEM_SHAPE_MULTIPOLES>
209.66
5.87
1.24
0.93
3.65
0.1
-0.01
-1.35
2.4
-0.46
-0.05
0.36
-0.04
-0.36

> <PUBCHEM_SHAPE_SELFOVERLAP>
429.726

> <PUBCHEM_SHAPE_VOLUME>
121.5

> <PUBCHEM_COORDINATE_TYPE>
2
5
10

$$$$

