8762
  -OEChem-06261203042D

  8  5  0     0  0  0  0  0  0999 V2000
    0.0000    2.2500    0.0000 Ce  0  0  0  0  0  0  0  0  0  0  0  0
    3.5490    0.0000    0.0000 Ce  0  0  0  0  0  0  0  0  0  0  0  0
    2.5000    4.0000    0.0000 O   0  5  0  0  0  0  0  0  0  0  0  0
    5.0981    3.5000    0.0000 O   0  5  0  0  0  0  0  0  0  0  0  0
    3.3660    2.5000    0.0000 O   0  0  0  0  0  0  0  0  0  0  0  0
    4.2320    5.0000    0.0000 O   0  0  0  0  0  0  0  0  0  0  0  0
    3.3660    3.5000    0.0000 C   0  0  0  0  0  0  0  0  0  0  0  0
    4.2320    4.0000    0.0000 C   0  0  0  0  0  0  0  0  0  0  0  0
  3  7  1  0  0  0  0
  4  8  1  0  0  0  0
  5  7  2  0  0  0  0
  6  8  2  0  0  0  0
  7  8  1  0  0  0  0
M  CHG  2   3  -1   4  -1
M  END
> <PUBCHEM_COMPOUND_CID>
8762

> <PUBCHEM_COMPOUND_CANONICALIZED>
1

> <PUBCHEM_CACTVS_COMPLEXITY>
60.5

> <PUBCHEM_CACTVS_HBOND_ACCEPTOR>
4

> <PUBCHEM_CACTVS_HBOND_DONOR>
0

> <PUBCHEM_CACTVS_ROTATABLE_BOND>
0

> <PUBCHEM_CACTVS_SUBSKEYS>
AAADcQBAOAAAAAAAAAAAAAgAAAAAAAAAAAAAAAAAAAAAAAAAAAAACgAAAAAAAAAAgAAACAAAAAAIAACQCAIAAAAAAAAAAABAAAABAAAAAAAAAAAAAAAAAAAAAAAAAAAAAAAAAAAAAAAAAAAAAAAAAAAAAA==

> <PUBCHEM_IUPAC_OPENEYE_NAME>
cerium; oxalate

> <PUBCHEM_IUPAC_CAS_NAME>
cerium; oxalate

> <PUBCHEM_IUPAC_NAME>
cerium; oxalate

> <PUBCHEM_IUPAC_SYSTEMATIC_NAME>
cerium; ethanedioate

> <PUBCHEM_IUPAC_TRADITIONAL_NAME>
cerium; oxalate

> <PUBCHEM_IUPAC_INCHI>
InChI=1S/C2H2O4.2Ce/c3-1(4)2(5)6;;/h(H,3,4)(H,5,6);;/p-2

> <PUBCHEM_IUPAC_INCHIKEY>
VMQRILJWEHBRPV-UHFFFAOYSA-L

> <PUBCHEM_EXACT_MASS>
367.790536

> <PUBCHEM_MOLECULAR_FORMULA>
C2Ce2O4-2

> <PUBCHEM_MOLECULAR_WEIGHT>
368.251

> <PUBCHEM_OPENEYE_CAN_SMILES>
C(=O)(C(=O)[O-])[O-].[Ce].[Ce]

> <PUBCHEM_OPENEYE_ISO_SMILES>
C(=O)(C(=O)[O-])[O-].[Ce].[Ce]

> <PUBCHEM_CACTVS_TPSA>
80.3

> <PUBCHEM_MONOISOTOPIC_WEIGHT>
367.790536

> <PUBCHEM_TOTAL_CHARGE>
-2

> <PUBCHEM_HEAVY_ATOM_COUNT>
8

> <PUBCHEM_ATOM_DEF_STEREO_COUNT>
0

> <PUBCHEM_ATOM_UDEF_STEREO_COUNT>
0

> <PUBCHEM_BOND_DEF_STEREO_COUNT>
0

> <PUBCHEM_BOND_UDEF_STEREO_COUNT>
0

> <PUBCHEM_ISOTOPIC_ATOM_COUNT>
0

> <PUBCHEM_COMPONENT_COUNT>
3

> <PUBCHEM_CACTVS_TAUTO_COUNT>
1

> <PUBCHEM_COORDINATE_TYPE>
1
5
255

$$$$

