14349
  -OEChem-07051212483D

 26 26  0     0  0  0  0  0  0999 V2000
   -0.0269   -0.3569   -0.0969 O   0  0  0  0  0  0  0  0  0  0  0  0
   -1.6369   -1.2334    1.2868 O   0  0  0  0  0  0  0  0  0  0  0  0
   -3.5885    1.5764    0.1483 O   0  0  0  0  0  0  0  0  0  0  0  0
   -5.5811    0.5213   -0.1040 O   0  0  0  0  0  0  0  0  0  0  0  0
   -2.1551   -0.3862   -0.8098 N   0  0  0  0  0  0  0  0  0  0  0  0
    2.3070   -0.1907    0.3831 C   0  0  0  0  0  0  0  0  0  0  0  0
    0.9683   -0.6355    0.8945 C   0  0  0  0  0  0  0  0  0  0  0  0
    3.0984   -1.0785   -0.3371 C   0  0  0  0  0  0  0  0  0  0  0  0
    2.7438    1.1054    0.6335 C   0  0  0  0  0  0  0  0  0  0  0  0
    4.3428   -0.6651   -0.8128 C   0  0  0  0  0  0  0  0  0  0  0  0
    3.9883    1.5186    0.1577 C   0  0  0  0  0  0  0  0  0  0  0  0
    4.7877    0.6334   -0.5654 C   0  0  0  0  0  0  0  0  0  0  0  0
   -3.5793   -0.6280   -0.7864 C   0  0  0  0  0  0  0  0  0  0  0  0
   -1.3066   -0.7093    0.2281 C   0  0  0  0  0  0  0  0  0  0  0  0
   -4.3617    0.5284   -0.2195 C   0  0  0  0  0  0  0  0  0  0  0  0
    0.9835   -1.7109    1.1116 H   0  0  0  0  0  0  0  0  0  0  0  0
    0.7227   -0.1068    1.8240 H   0  0  0  0  0  0  0  0  0  0  0  0
    2.7608   -2.0917   -0.5375 H   0  0  0  0  0  0  0  0  0  0  0  0
    2.1283    1.8039    1.1938 H   0  0  0  0  0  0  0  0  0  0  0  0
    4.9650   -1.3542   -1.3764 H   0  0  0  0  0  0  0  0  0  0  0  0
    4.3346    2.5300    0.3497 H   0  0  0  0  0  0  0  0  0  0  0  0
    5.7564    0.9554   -0.9361 H   0  0  0  0  0  0  0  0  0  0  0  0
   -3.7819   -1.5157   -0.1799 H   0  0  0  0  0  0  0  0  0  0  0  0
   -3.8974   -0.7934   -1.8194 H   0  0  0  0  0  0  0  0  0  0  0  0
   -1.7573    0.0600   -1.6308 H   0  0  0  0  0  0  0  0  0  0  0  0
   -4.1206    2.3154    0.5131 H   0  0  0  0  0  0  0  0  0  0  0  0
  1  7  1  0  0  0  0
  1 14  1  0  0  0  0
  2 14  2  0  0  0  0
  3 15  1  0  0  0  0
  3 26  1  0  0  0  0
  4 15  2  0  0  0  0
  5 13  1  0  0  0  0
  5 14  1  0  0  0  0
  5 25  1  0  0  0  0
  6  7  1  0  0  0  0
  6  8  2  0  0  0  0
  6  9  1  0  0  0  0
  7 16  1  0  0  0  0
  7 17  1  0  0  0  0
  8 10  1  0  0  0  0
  8 18  1  0  0  0  0
  9 11  2  0  0  0  0
  9 19  1  0  0  0  0
 10 12  2  0  0  0  0
 10 20  1  0  0  0  0
 11 12  1  0  0  0  0
 11 21  1  0  0  0  0
 12 22  1  0  0  0  0
 13 15  1  0  0  0  0
 13 23  1  0  0  0  0
 13 24  1  0  0  0  0
M  END
> <PUBCHEM_COMPOUND_CID>
14349

> <PUBCHEM_CONFORMER_RMSD>
0.8

> <PUBCHEM_CONFORMER_DIVERSEORDER>
1
24
25
35
16
7
26
33
4
27
23
8
22
14
32
31
2
40
39
21
15
29
11
41
38
3
36
12
10
13
6
19
9
5
37
28
18
20
17
34
30

> <PUBCHEM_MMFF94_PARTIAL_CHARGES>
22
1 -0.43
10 -0.15
11 -0.15
12 -0.15
13 0.36
14 0.78
15 0.66
18 0.15
19 0.15
2 -0.57
20 0.15
21 0.15
22 0.15
25 0.37
26 0.5
3 -0.65
4 -0.57
5 -0.73
6 -0.14
7 0.42
8 -0.15
9 -0.15

> <PUBCHEM_EFFECTIVE_ROTOR_COUNT>
6

> <PUBCHEM_PHARMACOPHORE_FEATURES>
6
1 2 acceptor
1 3 acceptor
1 4 acceptor
1 5 donor
3 3 4 15 anion
6 6 8 9 10 11 12 rings

> <PUBCHEM_HEAVY_ATOM_COUNT>
15

> <PUBCHEM_ATOM_DEF_STEREO_COUNT>
0

> <PUBCHEM_ATOM_UDEF_STEREO_COUNT>
0

> <PUBCHEM_BOND_DEF_STEREO_COUNT>
0

> <PUBCHEM_BOND_UDEF_STEREO_COUNT>
0

> <PUBCHEM_ISOTOPIC_ATOM_COUNT>
0

> <PUBCHEM_COMPONENT_COUNT>
1

> <PUBCHEM_CACTVS_TAUTO_COUNT>
2

> <PUBCHEM_CONFORMER_ID>
0000380D00000001

> <PUBCHEM_MMFF94_ENERGY>
25.7631

> <PUBCHEM_FEATURE_SELFOVERLAP>
30.505

> <PUBCHEM_SHAPE_FINGERPRINT>
100836 57 17989484104673319756
11471102 20 18261107466173957714
11543360 7 18041004985835716671
12251169 10 12247677167064749154
12730499 353 18342167877851574403
12916748 109 18342173380073445249
13081056 2 18410857676600584821
14123238 8 15339119035269400039
1420 369 7709453948669176645
14252887 29 9871478633883408476
16752209 62 15140674821475881519
17834072 33 18260832574844217287
17959699 21 18409448085329472472
18186145 218 18343030994531586639
19050596 39 12607398879996704026
200 152 14056720162314727187
20369508 70 15430044261973097786
20432913 95 9079119976813969764
20645477 56 17988641874155042715
20645477 70 18113613525915927806
20671657 53 15068627075782016331
20871999 31 18042131963964246599
21119208 17 17530684303292017830
212847 35 18131918173982934272
21354914 88 6916260741205393035
21652331 79 18341898515099265701
221357 26 18186805798541872369
22289505 5 18334579061929816076
22646028 1 6555415318530676774
23402655 69 18187363208208449740
23500284 214 17918274242526733603
23557571 272 18199457779768169186
23559900 14 15140973815972313498
29717793 49 16009018498021082524
3060560 45 18040713658968881534
32948 21 17385442150131095265
4028521 119 18341337772663972037
4047638 21 18131633383291490538
522135 26 18260831514240522078
5281201 14 18334009501878983348
5374978 207 12679461997262393495
633830 44 18412269432087114039
77779 3 18333452032050559031
8272917 22 18187361081941688942

> <PUBCHEM_SHAPE_MULTIPOLES>
280.23
11.64
1.35
0.94
6.99
0.33
-0.1
3.28
2.74
-0.41
-0.09
-0.08
-0.19
0.29

> <PUBCHEM_SHAPE_SELFOVERLAP>
573.321

> <PUBCHEM_SHAPE_VOLUME>
160.6

> <PUBCHEM_COORDINATE_TYPE>
2
5
10

$$$$

