26597
  -OEChem-07051213132D

 31 33  0     0  0  0  0  0  0999 V2000
    2.0000   -1.1756    0.0000 Cl  0  0  0  0  0  0  0  0  0  0  0  0
    2.0000   -3.1756    0.0000 Cl  0  0  0  0  0  0  0  0  0  0  0  0
    8.1279   -2.1756    0.0000 F   0  0  0  0  0  0  0  0  0  0  0  0
    7.1279   -3.1756    0.0000 F   0  0  0  0  0  0  0  0  0  0  0  0
    7.1279   -1.1756    0.0000 F   0  0  0  0  0  0  0  0  0  0  0  0
    5.1871    0.3240    0.0000 O   0  0  0  0  0  0  0  0  0  0  0  0
    6.8335   -0.2141    0.0000 O   0  0  0  0  0  0  0  0  0  0  0  0
    5.5443   -1.3708    0.0000 N   0  0  0  0  0  0  0  0  0  0  0  0
    5.5443   -2.9803    0.0000 N   0  0  0  0  0  0  0  0  0  0  0  0
    4.5981   -1.6756    0.0000 C   0  0  0  0  0  0  0  0  0  0  0  0
    4.5981   -2.6756    0.0000 C   0  0  0  0  0  0  0  0  0  0  0  0
    6.1279   -2.1756    0.0000 C   0  0  0  0  0  0  0  0  0  0  0  0
    3.7320   -1.1756    0.0000 C   0  0  0  0  0  0  0  0  0  0  0  0
    3.7320   -3.1756    0.0000 C   0  0  0  0  0  0  0  0  0  0  0  0
    5.8550   -0.4203    0.0000 C   0  0  0  0  0  0  0  0  0  0  0  0
    7.1279   -2.1756    0.0000 C   0  0  0  0  0  0  0  0  0  0  0  0
    2.8660   -1.6756    0.0000 C   0  0  0  0  0  0  0  0  0  0  0  0
    2.8660   -2.6756    0.0000 C   0  0  0  0  0  0  0  0  0  0  0  0
    5.4978    1.2745    0.0000 C   0  0  0  0  0  0  0  0  0  0  0  0
    6.4763    1.4807    0.0000 C   0  0  0  0  0  0  0  0  0  0  0  0
    4.8299    2.0188    0.0000 C   0  0  0  0  0  0  0  0  0  0  0  0
    6.7870    2.4313    0.0000 C   0  0  0  0  0  0  0  0  0  0  0  0
    5.1406    2.9693    0.0000 C   0  0  0  0  0  0  0  0  0  0  0  0
    6.1191    3.1756    0.0000 C   0  0  0  0  0  0  0  0  0  0  0  0
    3.7320   -0.5556    0.0000 H   0  0  0  0  0  0  0  0  0  0  0  0
    3.7320   -3.7956    0.0000 H   0  0  0  0  0  0  0  0  0  0  0  0
    6.8904    1.0193    0.0000 H   0  0  0  0  0  0  0  0  0  0  0  0
    4.2233    1.8910    0.0000 H   0  0  0  0  0  0  0  0  0  0  0  0
    7.3936    2.5591    0.0000 H   0  0  0  0  0  0  0  0  0  0  0  0
    4.7265    3.4308    0.0000 H   0  0  0  0  0  0  0  0  0  0  0  0
    6.3117    3.7649    0.0000 H   0  0  0  0  0  0  0  0  0  0  0  0
  1 17  1  0  0  0  0
  2 18  1  0  0  0  0
  3 16  1  0  0  0  0
  4 16  1  0  0  0  0
  5 16  1  0  0  0  0
  6 15  1  0  0  0  0
  6 19  1  0  0  0  0
  7 15  2  0  0  0  0
  8 10  1  0  0  0  0
  8 12  1  0  0  0  0
  8 15  1  0  0  0  0
  9 11  1  0  0  0  0
  9 12  2  0  0  0  0
 10 11  1  0  0  0  0
 10 13  2  0  0  0  0
 11 14  2  0  0  0  0
 12 16  1  0  0  0  0
 13 17  1  0  0  0  0
 13 25  1  0  0  0  0
 14 18  1  0  0  0  0
 14 26  1  0  0  0  0
 17 18  2  0  0  0  0
 19 20  2  0  0  0  0
 19 21  1  0  0  0  0
 20 22  1  0  0  0  0
 20 27  1  0  0  0  0
 21 23  2  0  0  0  0
 21 28  1  0  0  0  0
 22 24  2  0  0  0  0
 22 29  1  0  0  0  0
 23 24  1  0  0  0  0
 23 30  1  0  0  0  0
 24 31  1  0  0  0  0
M  END
> <PUBCHEM_COMPOUND_CID>
26597

> <PUBCHEM_COMPOUND_CANONICALIZED>
1

> <PUBCHEM_CACTVS_COMPLEXITY>
474

> <PUBCHEM_CACTVS_HBOND_ACCEPTOR>
6

> <PUBCHEM_CACTVS_HBOND_DONOR>
0

> <PUBCHEM_CACTVS_ROTATABLE_BOND>
2

> <PUBCHEM_CACTVS_SUBSKEYS>
AAADcYBzMYAGAAAAAAAAAAAAAAAAAWAAAAAwYAAAAAAAAFgB9AAAHwIAAAAACA6BlzAx3rcMFACoASZifACCiC0hN6AJmmA2fpiMbqLFu5ucMihsxRPI6CeQQAAAAABAAAIAACQAAIAABAAASAAAAAAAAA==

> <PUBCHEM_IUPAC_OPENEYE_NAME>
phenyl 5,6-dichloro-2-(trifluoromethyl)benzimidazole-1-carboxylate

> <PUBCHEM_IUPAC_CAS_NAME>
5,6-dichloro-2-(trifluoromethyl)-1-benzimidazolecarboxylic acid phenyl ester

> <PUBCHEM_IUPAC_NAME>
phenyl 5,6-dichloro-2-(trifluoromethyl)benzimidazole-1-carboxylate

> <PUBCHEM_IUPAC_SYSTEMATIC_NAME>
phenyl 5,6-bis(chloranyl)-2-(trifluoromethyl)benzimidazole-1-carboxylate

> <PUBCHEM_IUPAC_TRADITIONAL_NAME>
5,6-dichloro-2-(trifluoromethyl)benzimidazole-1-carboxylic acid phenyl ester

> <PUBCHEM_IUPAC_INCHI>
InChI=1S/C15H7Cl2F3N2O2/c16-9-6-11-12(7-10(9)17)22(13(21-11)15(18,19)20)14(23)24-8-4-2-1-3-5-8/h1-7H

> <PUBCHEM_IUPAC_INCHIKEY>
ISVQSVPUDBVFFU-UHFFFAOYSA-N

> <PUBCHEM_XLOGP3_AA>
5.5

> <PUBCHEM_EXACT_MASS>
373.983667

> <PUBCHEM_MOLECULAR_FORMULA>
C15H7Cl2F3N2O2

> <PUBCHEM_MOLECULAR_WEIGHT>
375.12949

> <PUBCHEM_OPENEYE_CAN_SMILES>
C1=CC=C(C=C1)OC(=O)N2C3=CC(=C(C=C3N=C2C(F)(F)F)Cl)Cl

> <PUBCHEM_OPENEYE_ISO_SMILES>
C1=CC=C(C=C1)OC(=O)N2C3=CC(=C(C=C3N=C2C(F)(F)F)Cl)Cl

> <PUBCHEM_CACTVS_TPSA>
44.1

> <PUBCHEM_MONOISOTOPIC_WEIGHT>
373.983667

> <PUBCHEM_TOTAL_CHARGE>
0

> <PUBCHEM_HEAVY_ATOM_COUNT>
24

> <PUBCHEM_ATOM_DEF_STEREO_COUNT>
0

> <PUBCHEM_ATOM_UDEF_STEREO_COUNT>
0

> <PUBCHEM_BOND_DEF_STEREO_COUNT>
0

> <PUBCHEM_BOND_UDEF_STEREO_COUNT>
0

> <PUBCHEM_ISOTOPIC_ATOM_COUNT>
0

> <PUBCHEM_COMPONENT_COUNT>
1

> <PUBCHEM_CACTVS_TAUTO_COUNT>
1

> <PUBCHEM_COORDINATE_TYPE>
1
5
255

> <PUBCHEM_BONDANNOTATIONS>
10  11  8
10  13  8
11  14  8
13  17  8
14  18  8
17  18  8
19  20  8
19  21  8
20  22  8
21  23  8
22  24  8
23  24  8
8  10  8
8  12  8
9  11  8
9  12  8

$$$$

