10402
  -OEChem-07051213083D

 30 29  0     1  0  0  0  0  0999 V2000
    2.2379   -1.8931    0.6964 O   0  0  0  0  0  0  0  0  0  0  0  0
    3.4048   -0.9662   -1.0166 O   0  0  0  0  0  0  0  0  0  0  0  0
    1.3645    1.2570    0.3137 C   0  0  1  0  0  0  0  0  0  0  0  0
    0.0703    0.4767    0.6194 C   0  0  0  0  0  0  0  0  0  0  0  0
   -1.2032    1.2852    0.3519 C   0  0  0  0  0  0  0  0  0  0  0  0
    2.6073    0.4682    0.7592 C   0  0  0  0  0  0  0  0  0  0  0  0
    1.4626    1.6729   -1.1570 C   0  0  0  0  0  0  0  0  0  0  0  0
   -2.4317    0.4879    0.6923 C   0  0  0  0  0  0  0  0  0  0  0  0
    2.7986   -0.8472    0.0404 C   0  0  0  0  0  0  0  0  0  0  0  0
   -3.1368   -0.3207   -0.1212 C   0  0  0  0  0  0  0  0  0  0  0  0
   -4.3308   -1.0752    0.3991 C   0  0  0  0  0  0  0  0  0  0  0  0
   -2.8436   -0.5456   -1.5776 C   0  0  0  0  0  0  0  0  0  0  0  0
    1.3488    2.1790    0.9106 H   0  0  0  0  0  0  0  0  0  0  0  0
    0.0413   -0.4405    0.0176 H   0  0  0  0  0  0  0  0  0  0  0  0
    0.0814    0.1633    1.6718 H   0  0  0  0  0  0  0  0  0  0  0  0
   -1.2504    1.6200   -0.6884 H   0  0  0  0  0  0  0  0  0  0  0  0
   -1.2008    2.1970    0.9615 H   0  0  0  0  0  0  0  0  0  0  0  0
    2.5673    0.2710    1.8378 H   0  0  0  0  0  0  0  0  0  0  0  0
    3.5153    1.0640    0.6039 H   0  0  0  0  0  0  0  0  0  0  0  0
    2.4408    2.1171   -1.3708 H   0  0  0  0  0  0  0  0  0  0  0  0
    0.7087    2.4254   -1.4076 H   0  0  0  0  0  0  0  0  0  0  0  0
    1.3229    0.8186   -1.8272 H   0  0  0  0  0  0  0  0  0  0  0  0
   -2.7412    0.5665    1.7336 H   0  0  0  0  0  0  0  0  0  0  0  0
   -4.5203   -0.8773    1.4594 H   0  0  0  0  0  0  0  0  0  0  0  0
   -4.1766   -2.1533    0.2852 H   0  0  0  0  0  0  0  0  0  0  0  0
   -5.2301   -0.7915   -0.1573 H   0  0  0  0  0  0  0  0  0  0  0  0
   -2.7176   -1.6158   -1.7742 H   0  0  0  0  0  0  0  0  0  0  0  0
   -1.9315   -0.0487   -1.9172 H   0  0  0  0  0  0  0  0  0  0  0  0
   -3.6729   -0.1777   -2.1905 H   0  0  0  0  0  0  0  0  0  0  0  0
    2.3739   -2.7396    0.2199 H   0  0  0  0  0  0  0  0  0  0  0  0
  1  9  1  0  0  0  0
  1 30  1  0  0  0  0
  2  9  2  0  0  0  0
  3  4  1  0  0  0  0
  3  6  1  0  0  0  0
  3  7  1  0  0  0  0
  3 13  1  0  0  0  0
  4  5  1  0  0  0  0
  4 14  1  0  0  0  0
  4 15  1  0  0  0  0
  5  8  1  0  0  0  0
  5 16  1  0  0  0  0
  5 17  1  0  0  0  0
  6  9  1  0  0  0  0
  6 18  1  0  0  0  0
  6 19  1  0  0  0  0
  7 20  1  0  0  0  0
  7 21  1  0  0  0  0
  7 22  1  0  0  0  0
  8 10  2  0  0  0  0
  8 23  1  0  0  0  0
 10 11  1  0  0  0  0
 10 12  1  0  0  0  0
 11 24  1  0  0  0  0
 11 25  1  0  0  0  0
 11 26  1  0  0  0  0
 12 27  1  0  0  0  0
 12 28  1  0  0  0  0
 12 29  1  0  0  0  0
M  END
> <PUBCHEM_COMPOUND_CID>
10402

> <PUBCHEM_CONFORMER_RMSD>
0.6

> <PUBCHEM_CONFORMER_DIVERSEORDER>
19
49
134
143
92
35
132
89
139
61
152
115
46
106
153
128
77
117
98
146
119
113
120
17
40
129
2
79
149
114
8
121
145
66
91
4
150
124
148
22
127
18
103
70
95
30
84
43
142
74
24
58
62
110
83
138
68
108
104
9
97
107
57
131
140
48
126
28
101
109
34
80
141
136
94
125
100
64
55
130
76
10
116
85
31
26
56
137
13
86
87
123
53
73
15
50
32
112
38
25
69
122
37
105
60
5
67
147
23
111
41
42
65
135
71
33
133
11
151
29
3
20
63
144
44
59
54
14
90
1
102
78
21
88
118
51
99
72
96
45
39
52
47
16
36
93
7
27
75
12
6
81
82

> <PUBCHEM_MMFF94_PARTIAL_CHARGES>
11
1 -0.65
10 -0.28
11 0.14
12 0.14
2 -0.57
23 0.15
30 0.5
5 0.14
6 0.06
8 -0.29
9 0.66

> <PUBCHEM_EFFECTIVE_ROTOR_COUNT>
5

> <PUBCHEM_PHARMACOPHORE_FEATURES>
6
1 1 acceptor
1 2 acceptor
1 7 hydrophobe
3 1 2 9 anion
3 10 11 12 hydrophobe
5 3 4 5 6 8 hydrophobe

> <PUBCHEM_HEAVY_ATOM_COUNT>
12

> <PUBCHEM_ATOM_DEF_STEREO_COUNT>
0

> <PUBCHEM_ATOM_UDEF_STEREO_COUNT>
1

> <PUBCHEM_BOND_DEF_STEREO_COUNT>
0

> <PUBCHEM_BOND_UDEF_STEREO_COUNT>
0

> <PUBCHEM_ISOTOPIC_ATOM_COUNT>
0

> <PUBCHEM_COMPONENT_COUNT>
1

> <PUBCHEM_CACTVS_TAUTO_COUNT>
1

> <PUBCHEM_CONFORMER_ID>
000028A200000013

> <PUBCHEM_MMFF94_ENERGY>
11.3749

> <PUBCHEM_FEATURE_SELFOVERLAP>
30.542

> <PUBCHEM_SHAPE_FINGERPRINT>
10618630 7 18408887330304351217
10857977 72 15068622647929254961
11769659 78 18334300906545697648
11806522 49 18409164407551204768
12162725 195 12679193720973442777
12932764 1 17822010861507256569
13705890 14 17917997174138963264
14123255 352 11527365079712500390
14251710 61 18260541247070318999
14251717 144 18342736287098298996
14252887 29 17894627059017757706
14350558 41 18408601439890361089
15239191 94 18186801387435989719
15375462 189 17822858576292244361
15477762 27 18272368650742590144
15757776 16 18272370914586117554
177051 138 18114179735369224481
17834074 16 18200590277293469955
18186145 218 17561090185415495977
18522851 268 17703239390781748863
19422 9 18336537236472764697
20442098 301 17676494963951780534
20645477 70 18261681393747328743
20671657 53 18060423525129044368
20711983 171 14548750542113478535
22169311 14 14490192717291845751
22485316 2 17968383351434240761
232386 152 17749107781391838397
23402539 116 17845653793620692034
23557571 272 16916513541030899309
23598291 2 18265309829095266789
581208 293 18409736127611579824
7364860 26 18261952925801500168
94968 8 18411695495902670546

> <PUBCHEM_SHAPE_MULTIPOLES>
235.22
7.11
1.66
1.19
3.86
0.12
-0.43
3.28
-0.35
-1.02
-0.04
0.15
-0.01
-0.26

> <PUBCHEM_SHAPE_SELFOVERLAP>
438.489

> <PUBCHEM_SHAPE_VOLUME>
147.6

> <PUBCHEM_COORDINATE_TYPE>
2
5
10

$$$$

