17395982
  -OEChem-06241222533D

 46 48  0     1  0  0  0  0  0999 V2000
    1.4521    0.3488   -1.9536 O   0  0  0  0  0  0  0  0  0  0  0  0
    3.2831    2.3390    1.7730 O   0  0  0  0  0  0  0  0  0  0  0  0
    2.5165   -2.4038    0.2277 O   0  0  0  0  0  0  0  0  0  0  0  0
   -4.6964   -0.5387    1.5837 O   0  5  0  0  0  0  0  0  0  0  0  0
   -5.5451    0.6660   -0.0434 O   0  0  0  0  0  0  0  0  0  0  0  0
    2.6887    1.1157   -0.1299 N   0  0  0  0  0  0  0  0  0  0  0  0
    1.3367    2.7495    0.5567 N   0  0  0  0  0  0  0  0  0  0  0  0
   -4.5658    0.2725    0.6354 N   0  3  0  0  0  0  0  0  0  0  0  0
    0.6643    2.2467   -0.6305 C   0  0  1  0  0  0  0  0  0  0  0  0
    1.6269    1.1107   -1.0102 C   0  0  0  0  0  0  0  0  0  0  0  0
   -0.7245    1.7213   -0.2954 C   0  0  0  0  0  0  0  0  0  0  0  0
    0.7456    3.3062   -1.7369 C   0  0  0  0  0  0  0  0  0  0  0  0
    3.8018    0.1894   -0.1855 C   0  0  0  0  0  0  0  0  0  0  0  0
    2.5353    2.0901    0.8363 C   0  0  0  0  0  0  0  0  0  0  0  0
    3.9197   -0.6574    1.0749 C   0  0  0  0  0  0  0  0  0  0  0  0
   -0.8938    0.8179    0.7538 C   0  0  0  0  0  0  0  0  0  0  0  0
   -1.8279    2.1444   -1.0363 C   0  0  0  0  0  0  0  0  0  0  0  0
    2.6871   -1.5176    1.3259 C   0  0  0  0  0  0  0  0  0  0  0  0
   -2.1665    0.3374    1.0621 C   0  0  0  0  0  0  0  0  0  0  0  0
   -3.1007    1.6640   -0.7282 C   0  0  0  0  0  0  0  0  0  0  0  0
   -3.2700    0.7605    0.3209 C   0  0  0  0  0  0  0  0  0  0  0  0
    1.2306   -2.7618   -0.0835 C   0  0  0  0  0  0  0  0  0  0  0  0
    0.2619   -2.8234    0.9182 C   0  0  0  0  0  0  0  0  0  0  0  0
    0.8909   -3.0655   -1.4018 C   0  0  0  0  0  0  0  0  0  0  0  0
   -1.0466   -3.1887    0.6016 C   0  0  0  0  0  0  0  0  0  0  0  0
   -0.4175   -3.4307   -1.7185 C   0  0  0  0  0  0  0  0  0  0  0  0
   -1.3862   -3.4923   -0.7167 C   0  0  0  0  0  0  0  0  0  0  0  0
    0.9777    3.5102    1.1256 H   0  0  0  0  0  0  0  0  0  0  0  0
    1.7826    3.6224   -1.9083 H   0  0  0  0  0  0  0  0  0  0  0  0
    0.3726    2.9264   -2.6951 H   0  0  0  0  0  0  0  0  0  0  0  0
    0.1793    4.2068   -1.4723 H   0  0  0  0  0  0  0  0  0  0  0  0
    4.7132    0.7897   -0.2887 H   0  0  0  0  0  0  0  0  0  0  0  0
    3.7165   -0.4403   -1.0773 H   0  0  0  0  0  0  0  0  0  0  0  0
    4.1096   -0.0347    1.9551 H   0  0  0  0  0  0  0  0  0  0  0  0
    4.7919   -1.3123    0.9564 H   0  0  0  0  0  0  0  0  0  0  0  0
   -0.0523    0.4808    1.3501 H   0  0  0  0  0  0  0  0  0  0  0  0
   -1.7438    2.8451   -1.8601 H   0  0  0  0  0  0  0  0  0  0  0  0
    1.8255   -0.8600    1.4793 H   0  0  0  0  0  0  0  0  0  0  0  0
    2.8404   -2.1110    2.2347 H   0  0  0  0  0  0  0  0  0  0  0  0
   -2.2615   -0.3620    1.8887 H   0  0  0  0  0  0  0  0  0  0  0  0
   -3.9376    2.0152   -1.3266 H   0  0  0  0  0  0  0  0  0  0  0  0
    0.4905   -2.6238    1.9608 H   0  0  0  0  0  0  0  0  0  0  0  0
    1.6413   -3.0178   -2.1861 H   0  0  0  0  0  0  0  0  0  0  0  0
   -1.8000   -3.2423    1.3821 H   0  0  0  0  0  0  0  0  0  0  0  0
   -0.6822   -3.6665   -2.7450 H   0  0  0  0  0  0  0  0  0  0  0  0
   -2.4050   -3.7769   -0.9631 H   0  0  0  0  0  0  0  0  0  0  0  0
  1 10  2  0  0  0  0
  2 14  2  0  0  0  0
  3 18  1  0  0  0  0
  3 22  1  0  0  0  0
  4  8  1  0  0  0  0
  5  8  2  0  0  0  0
  6 10  1  0  0  0  0
  6 13  1  0  0  0  0
  6 14  1  0  0  0  0
  7  9  1  0  0  0  0
  7 14  1  0  0  0  0
  7 28  1  0  0  0  0
  8 21  1  0  0  0  0
  9 10  1  0  0  0  0
  9 11  1  0  0  0  0
  9 12  1  0  0  0  0
 11 16  2  0  0  0  0
 11 17  1  0  0  0  0
 12 29  1  0  0  0  0
 12 30  1  0  0  0  0
 12 31  1  0  0  0  0
 13 15  1  0  0  0  0
 13 32  1  0  0  0  0
 13 33  1  0  0  0  0
 15 18  1  0  0  0  0
 15 34  1  0  0  0  0
 15 35  1  0  0  0  0
 16 19  1  0  0  0  0
 16 36  1  0  0  0  0
 17 20  2  0  0  0  0
 17 37  1  0  0  0  0
 18 38  1  0  0  0  0
 18 39  1  0  0  0  0
 19 21  2  0  0  0  0
 19 40  1  0  0  0  0
 20 21  1  0  0  0  0
 20 41  1  0  0  0  0
 22 23  2  0  0  0  0
 22 24  1  0  0  0  0
 23 25  1  0  0  0  0
 23 42  1  0  0  0  0
 24 26  2  0  0  0  0
 24 43  1  0  0  0  0
 25 27  2  0  0  0  0
 25 44  1  0  0  0  0
 26 27  1  0  0  0  0
 26 45  1  0  0  0  0
 27 46  1  0  0  0  0
M  CHG  2   4  -1   8   1
M  END
> <PUBCHEM_COMPOUND_CID>
17395982

> <PUBCHEM_CONFORMER_RMSD>
0.8

> <PUBCHEM_CONFORMER_DIVERSEORDER>
1
31
191
36
146
29
41
100
80
87
72
95
157
79
168
68
163
59
48
28
169
155
26
51
161
206
109
106
5
32
6
210
85
21
189
162
17
3
133
44
193
49
53
130
160
181
172
10
194
16
11
24
81
171
200
196
18
134
86
177
129
219
4
104
167
156
39
173
122
147
64
45
7
37
212
207
69
182
2
187
78
118
125
126
144
152
20
84
151
113
82
67
63
34
195
123
198
47
38
35
101
88
102
60
142
180
46
50
136
183
15
61
150
205
124
192
105
97
197
43
116
52
166
57
132
76
139
215
209
89
135
19
211
83
170
218
14
165
186
204
91
9
201
175
96
154
114
119
22
8
42
75
65
30
174
149
99
23
108
115
213
110
58
111
92
221
121
120
164
93
77
66
103
112
25
214
40
62
54
73
176
158
148
56
217
27
117
208
107
138
184
178
74
202
159
71
199
145
131
33
137
141
153
185
94
179
12
188
190
55
203
90
13
70
140
98
220
143
128
127
216

> <PUBCHEM_MMFF94_PARTIAL_CHARGES>
35
1 -0.57
10 0.57
11 -0.14
13 0.3
14 0.69
16 -0.15
17 -0.15
18 0.28
19 -0.15
2 -0.57
20 -0.15
21 0.13
22 0.08
23 -0.15
24 -0.15
25 -0.15
26 -0.15
27 -0.15
28 0.37
3 -0.36
36 0.15
37 0.15
4 -0.52
40 0.15
41 0.15
42 0.15
43 0.15
44 0.15
45 0.15
46 0.15
5 -0.52
6 -0.42
7 -0.73
8 0.91
9 0.5

> <PUBCHEM_EFFECTIVE_ROTOR_COUNT>
7.6

> <PUBCHEM_PHARMACOPHORE_FEATURES>
10
1 1 acceptor
1 2 acceptor
1 3 acceptor
1 4 acceptor
1 4 anion
1 5 acceptor
1 7 donor
5 6 7 9 10 14 rings
6 11 16 17 19 20 21 rings
6 22 23 24 25 26 27 rings

> <PUBCHEM_HEAVY_ATOM_COUNT>
27

> <PUBCHEM_ATOM_DEF_STEREO_COUNT>
0

> <PUBCHEM_ATOM_UDEF_STEREO_COUNT>
1

> <PUBCHEM_BOND_DEF_STEREO_COUNT>
0

> <PUBCHEM_BOND_UDEF_STEREO_COUNT>
0

> <PUBCHEM_ISOTOPIC_ATOM_COUNT>
0

> <PUBCHEM_COMPONENT_COUNT>
1

> <PUBCHEM_CACTVS_TAUTO_COUNT>
2

> <PUBCHEM_CONFORMER_ID>
0109710E00000001

> <PUBCHEM_MMFF94_ENERGY>
74.0297

> <PUBCHEM_FEATURE_SELFOVERLAP>
50.825

> <PUBCHEM_SHAPE_FINGERPRINT>
104564 63 17977950077511315502
10675989 125 17114112062947946839
11112662 9 17821739333331750070
11513181 2 17895474696462816734
11578080 2 17461447923353088410
12156800 1 16821153936508678507
12422481 6 18051102849814079331
12788726 201 17257644526597643805
13122387 1 18339084894512763182
13140716 1 18266739073861932138
13402501 40 18270961365942625923
15338160 23 17470473737250408608
17138139 8 17319059007250973487
17492 54 18055038151878886430
19311894 1 15890508363165717116
1979834 28 18336817676356965547
20905425 154 17841155768212103458
21197605 99 18266452110682765835
21315764 371 17098376152862364239
21421861 104 17972859617784634649
23557571 272 16897094326853199443
23559900 14 18201718496234855821
238 59 17979666689528296420
3052486 1 17982167821321785340
338550 245 18197497325214186735
35225 105 18187932711965564118
463206 1 18410298004139603695
469060 322 16894049654707448391
5282274 181 18409736123247982186
5309563 4 18120658195319118543
6287921 2 17751913860010890519
6438718 38 18115311047056783870
6443956 14 18049437342451805937

> <PUBCHEM_SHAPE_MULTIPOLES>
511.36
6.89
5.03
1.62
6.44
3.18
-0.26
-1.79
2.95
-1.2
-1.58
-0.31
0.05
0.39

> <PUBCHEM_SHAPE_SELFOVERLAP>
1102.193

> <PUBCHEM_SHAPE_VOLUME>
282.6

> <PUBCHEM_COORDINATE_TYPE>
2
5
10

$$$$

