642290
  -OEChem-07051212553D

 25 24  0     0  0  0  0  0  0999 V2000
   -4.5389    1.2782   -0.0058 O   0  0  0  0  0  0  0  0  0  0  0  0
   -4.5995   -1.0315    0.0119 O   0  0  0  0  0  0  0  0  0  0  0  0
    5.3755    1.0330    0.0033 C   0  0  0  0  0  0  0  0  0  0  0  0
    4.8996   -0.4195   -0.0062 C   0  0  0  0  0  0  0  0  0  0  0  0
    6.8929    1.1629    0.0105 C   0  0  0  0  0  0  0  0  0  0  0  0
    3.4339   -0.5257   -0.0062 C   0  0  0  0  0  0  0  0  0  0  0  0
    2.2366   -0.6150   -0.0055 C   0  0  0  0  0  0  0  0  0  0  0  0
   -2.5255    0.1812   -0.0027 C   0  0  0  0  0  0  0  0  0  0  0  0
   -3.9971    0.0304    0.0023 C   0  0  0  0  0  0  0  0  0  0  0  0
   -1.7468   -0.9073    0.0039 C   0  0  0  0  0  0  0  0  0  0  0  0
   -5.9696    1.3275   -0.0024 C   0  0  0  0  0  0  0  0  0  0  0  0
    0.8682   -0.7144   -0.0029 C   0  0  0  0  0  0  0  0  0  0  0  0
   -0.3294   -0.7998   -0.0001 C   0  0  0  0  0  0  0  0  0  0  0  0
    4.9784    1.5578   -0.8747 H   0  0  0  0  0  0  0  0  0  0  0  0
    4.9713    1.5487    0.8834 H   0  0  0  0  0  0  0  0  0  0  0  0
    5.3002   -0.9301   -0.8899 H   0  0  0  0  0  0  0  0  0  0  0  0
    5.3005   -0.9417    0.8706 H   0  0  0  0  0  0  0  0  0  0  0  0
    7.3211    0.6852    0.8973 H   0  0  0  0  0  0  0  0  0  0  0  0
    7.1837    2.2179    0.0170 H   0  0  0  0  0  0  0  0  0  0  0  0
    7.3287    0.6940   -0.8775 H   0  0  0  0  0  0  0  0  0  0  0  0
   -2.1085    1.1835   -0.0115 H   0  0  0  0  0  0  0  0  0  0  0  0
   -2.1704   -1.9064    0.0128 H   0  0  0  0  0  0  0  0  0  0  0  0
   -6.3626    0.8540    0.9024 H   0  0  0  0  0  0  0  0  0  0  0  0
   -6.3672    0.8403   -0.8979 H   0  0  0  0  0  0  0  0  0  0  0  0
   -6.2737    2.3775   -0.0096 H   0  0  0  0  0  0  0  0  0  0  0  0
  1  9  1  0  0  0  0
  1 11  1  0  0  0  0
  2  9  2  0  0  0  0
  3  4  1  0  0  0  0
  3  5  1  0  0  0  0
  3 14  1  0  0  0  0
  3 15  1  0  0  0  0
  4  6  1  0  0  0  0
  4 16  1  0  0  0  0
  4 17  1  0  0  0  0
  5 18  1  0  0  0  0
  5 19  1  0  0  0  0
  5 20  1  0  0  0  0
  6  7  3  0  0  0  0
  7 12  1  0  0  0  0
  8  9  1  0  0  0  0
  8 10  2  0  0  0  0
  8 21  1  0  0  0  0
 10 13  1  0  0  0  0
 10 22  1  0  0  0  0
 11 23  1  0  0  0  0
 11 24  1  0  0  0  0
 11 25  1  0  0  0  0
 12 13  3  0  0  0  0
M  END
> <PUBCHEM_COMPOUND_CID>
642290

> <PUBCHEM_CONFORMER_RMSD>
0.6

> <PUBCHEM_CONFORMER_DIVERSEORDER>
1
5
3
6
2
4

> <PUBCHEM_MMFF94_PARTIAL_CHARGES>
11
1 -0.43
10 -0.09
11 0.28
13 -0.06
2 -0.57
21 0.15
22 0.15
4 0.2
6 -0.2
8 -0.14
9 0.71

> <PUBCHEM_EFFECTIVE_ROTOR_COUNT>
3

> <PUBCHEM_PHARMACOPHORE_FEATURES>
2
1 2 acceptor
1 5 hydrophobe

> <PUBCHEM_HEAVY_ATOM_COUNT>
13

> <PUBCHEM_ATOM_DEF_STEREO_COUNT>
0

> <PUBCHEM_ATOM_UDEF_STEREO_COUNT>
0

> <PUBCHEM_BOND_DEF_STEREO_COUNT>
1

> <PUBCHEM_BOND_UDEF_STEREO_COUNT>
0

> <PUBCHEM_ISOTOPIC_ATOM_COUNT>
0

> <PUBCHEM_COMPONENT_COUNT>
1

> <PUBCHEM_CACTVS_TAUTO_COUNT>
1

> <PUBCHEM_CONFORMER_ID>
0009CCF200000001

> <PUBCHEM_MMFF94_ENERGY>
8.2344

> <PUBCHEM_FEATURE_SELFOVERLAP>
10.148

> <PUBCHEM_SHAPE_FINGERPRINT>
100836 57 18410290324046942824
10354089 29 17632574951227916740
117890 112 18412262835570916744
12091667 2 18408603634629452067
12714333 28 18040154011586561616
13167372 99 18412545448851455296
13288520 33 8718825388717991227
13533116 47 17417539120246408418
13690532 89 8862941680331520690
13964095 4 6338963231068703627
14123238 8 18411702071450088918
14251718 22 18260548896407053638
14455015 7 10087642606813474892
14729087 3 18334862706112807744
15048467 5 18411138035080879788
15501527 16 18410008853882170763
15716309 27 11671776070379865889
17834072 33 18113621149292668446
17834072 8 15430039850677460396
17834076 25 18334858299476069478
20281389 69 18202002174402818333
20526848 3 18410852170473870088
20605781 2 18409729577411770366
20645477 56 18408324371518583998
20645477 70 17531517789679497470
20767249 213 18410856563940038113
21130983 4 18410570695217298872
21150785 3 16950288386125168853
212847 35 18335144198400944706
23272321 79 18341331106610581766
23402539 116 18334863822403261255
23402655 69 17894632581965963535
2916195 48 18412266108098652144
300161 21 17917435349767887571
351380 3 8862944961792153316
42788 4 18410573985515655886
49783359 22 11024103244217007385
7062679 6 18411414037879229140

> <PUBCHEM_SHAPE_MULTIPOLES>
255.8
17.37
1.32
0.6
7.26
0.3
0
9.28
0.03
-0.34
0
0.07
0
0.02

> <PUBCHEM_SHAPE_SELFOVERLAP>
487.899

> <PUBCHEM_SHAPE_VOLUME>
155.6

> <PUBCHEM_COORDINATE_TYPE>
2
5
10

$$$$

