2762722
  -OEChem-07051212452D

 52 56  0     0  0  0  0  0  0999 V2000
    8.4530    2.1952    0.0000 O   0  0  0  0  0  0  0  0  0  0  0  0
    2.0000    2.9400    0.0000 O   0  0  0  0  0  0  0  0  0  0  0  0
    7.1962    0.9400    0.0000 N   0  0  0  0  0  0  0  0  0  0  0  0
    5.4641   -0.0600    0.0000 N   0  0  0  0  0  0  0  0  0  0  0  0
    8.1424   -0.3647    0.0000 N   0  0  0  0  0  0  0  0  0  0  0  0
    7.1962   -0.0600    0.0000 C   0  0  0  0  0  0  0  0  0  0  0  0
    6.3301   -0.5600    0.0000 C   0  0  0  0  0  0  0  0  0  0  0  0
    6.3301   -1.5600    0.0000 C   0  0  0  0  0  0  0  0  0  0  0  0
    5.4641    0.9400    0.0000 C   0  0  0  0  0  0  0  0  0  0  0  0
    8.7260    0.4400    0.0000 C   0  0  0  0  0  0  0  0  0  0  0  0
    6.3301    1.4400    0.0000 C   0  0  0  0  0  0  0  0  0  0  0  0
    8.1424    1.2447    0.0000 C   0  0  0  0  0  0  0  0  0  0  0  0
    9.7260    0.4400    0.0000 C   0  0  0  0  0  0  0  0  0  0  0  0
    5.4641   -2.0600    0.0000 C   0  0  0  0  0  0  0  0  0  0  0  0
    4.5981    1.4400    0.0000 C   0  0  0  0  0  0  0  0  0  0  0  0
   10.2260   -0.4260    0.0000 C   0  0  0  0  0  0  0  0  0  0  0  0
    4.5981   -1.5600    0.0000 C   0  0  0  0  0  0  0  0  0  0  0  0
    5.4641   -3.0600    0.0000 C   0  0  0  0  0  0  0  0  0  0  0  0
    4.5981    2.4400    0.0000 C   0  0  0  0  0  0  0  0  0  0  0  0
    3.7320    0.9400    0.0000 C   0  0  0  0  0  0  0  0  0  0  0  0
    9.7260   -1.2920    0.0000 C   0  0  0  0  0  0  0  0  0  0  0  0
   11.2260   -0.4260    0.0000 C   0  0  0  0  0  0  0  0  0  0  0  0
    3.7320    2.9400    0.0000 C   0  0  0  0  0  0  0  0  0  0  0  0
    2.8660    1.4400    0.0000 C   0  0  0  0  0  0  0  0  0  0  0  0
    3.7320   -2.0600    0.0000 C   0  0  0  0  0  0  0  0  0  0  0  0
    4.5981   -3.5600    0.0000 C   0  0  0  0  0  0  0  0  0  0  0  0
    2.8660    2.4400    0.0000 C   0  0  0  0  0  0  0  0  0  0  0  0
    3.7320   -3.0600    0.0000 C   0  0  0  0  0  0  0  0  0  0  0  0
   10.2260   -2.1581    0.0000 C   0  0  0  0  0  0  0  0  0  0  0  0
   11.7260   -1.2920    0.0000 C   0  0  0  0  0  0  0  0  0  0  0  0
   11.2260   -2.1581    0.0000 C   0  0  0  0  0  0  0  0  0  0  0  0
    6.5422   -2.1426    0.0000 H   0  0  0  0  0  0  0  0  0  0  0  0
    6.9407   -1.4523    0.0000 H   0  0  0  0  0  0  0  0  0  0  0  0
    4.9272   -0.3700    0.0000 H   0  0  0  0  0  0  0  0  0  0  0  0
    6.3301    2.0600    0.0000 H   0  0  0  0  0  0  0  0  0  0  0  0
   10.3086    0.6521    0.0000 H   0  0  0  0  0  0  0  0  0  0  0  0
    9.6183    1.0506    0.0000 H   0  0  0  0  0  0  0  0  0  0  0  0
    4.5981   -0.9400    0.0000 H   0  0  0  0  0  0  0  0  0  0  0  0
    6.0010   -3.3700    0.0000 H   0  0  0  0  0  0  0  0  0  0  0  0
    5.1350    2.7500    0.0000 H   0  0  0  0  0  0  0  0  0  0  0  0
    3.7320    0.3200    0.0000 H   0  0  0  0  0  0  0  0  0  0  0  0
    9.1060   -1.2920    0.0000 H   0  0  0  0  0  0  0  0  0  0  0  0
   11.5360    0.1109    0.0000 H   0  0  0  0  0  0  0  0  0  0  0  0
    3.7320    3.5600    0.0000 H   0  0  0  0  0  0  0  0  0  0  0  0
    2.3291    1.1300    0.0000 H   0  0  0  0  0  0  0  0  0  0  0  0
    3.1951   -1.7500    0.0000 H   0  0  0  0  0  0  0  0  0  0  0  0
    4.5981   -4.1800    0.0000 H   0  0  0  0  0  0  0  0  0  0  0  0
    3.1951   -3.3700    0.0000 H   0  0  0  0  0  0  0  0  0  0  0  0
    9.9160   -2.6950    0.0000 H   0  0  0  0  0  0  0  0  0  0  0  0
   12.3460   -1.2920    0.0000 H   0  0  0  0  0  0  0  0  0  0  0  0
   11.5360   -2.6950    0.0000 H   0  0  0  0  0  0  0  0  0  0  0  0
    2.0000    3.5600    0.0000 H   0  0  0  0  0  0  0  0  0  0  0  0
  1 12  2  0  0  0  0
  2 27  1  0  0  0  0
  2 52  1  0  0  0  0
  3  6  1  0  0  0  0
  3 11  1  0  0  0  0
  3 12  1  0  0  0  0
  4  7  1  0  0  0  0
  4  9  1  0  0  0  0
  4 34  1  0  0  0  0
  5  6  1  0  0  0  0
  5 10  2  0  0  0  0
  6  7  2  0  0  0  0
  7  8  1  0  0  0  0
  8 14  1  0  0  0  0
  8 32  1  0  0  0  0
  8 33  1  0  0  0  0
  9 11  2  0  0  0  0
  9 15  1  0  0  0  0
 10 12  1  0  0  0  0
 10 13  1  0  0  0  0
 11 35  1  0  0  0  0
 13 16  1  0  0  0  0
 13 36  1  0  0  0  0
 13 37  1  0  0  0  0
 14 17  2  0  0  0  0
 14 18  1  0  0  0  0
 15 19  2  0  0  0  0
 15 20  1  0  0  0  0
 16 21  2  0  0  0  0
 16 22  1  0  0  0  0
 17 25  1  0  0  0  0
 17 38  1  0  0  0  0
 18 26  2  0  0  0  0
 18 39  1  0  0  0  0
 19 23  1  0  0  0  0
 19 40  1  0  0  0  0
 20 24  2  0  0  0  0
 20 41  1  0  0  0  0
 21 29  1  0  0  0  0
 21 42  1  0  0  0  0
 22 30  2  0  0  0  0
 22 43  1  0  0  0  0
 23 27  2  0  0  0  0
 23 44  1  0  0  0  0
 24 27  1  0  0  0  0
 24 45  1  0  0  0  0
 25 28  2  0  0  0  0
 25 46  1  0  0  0  0
 26 28  1  0  0  0  0
 26 47  1  0  0  0  0
 28 48  1  0  0  0  0
 29 31  2  0  0  0  0
 29 49  1  0  0  0  0
 30 31  1  0  0  0  0
 30 50  1  0  0  0  0
 31 51  1  0  0  0  0
M  END
> <PUBCHEM_COMPOUND_CID>
2762722

> <PUBCHEM_COMPOUND_CANONICALIZED>
1

> <PUBCHEM_CACTVS_COMPLEXITY>
764

> <PUBCHEM_CACTVS_HBOND_ACCEPTOR>
4

> <PUBCHEM_CACTVS_HBOND_DONOR>
2

> <PUBCHEM_CACTVS_ROTATABLE_BOND>
5

> <PUBCHEM_CACTVS_SUBSKEYS>
AAADceB7MAAAAAAAAAAAAAAAAAAAAQAAAAAwYMEAAAAAAEABUAAAHgAQCAAADAzBmAQxBoPAAgCoAyV2VACCAAAgIgAIiAE+DIiIJjKCkROEcAhk0xOImAeY2IKOIAAAAAAAAABAAAAAAAAAAAAAAAAAAA==

> <PUBCHEM_IUPAC_OPENEYE_NAME>
2,8-dibenzyl-6-(4-hydroxyphenyl)-7H-imidazo[1,2-a]pyrazin-3-one

> <PUBCHEM_IUPAC_CAS_NAME>
6-(4-hydroxyphenyl)-2,8-bis(phenylmethyl)-7H-imidazo[1,2-a]pyrazin-3-one

> <PUBCHEM_IUPAC_NAME>
2,8-dibenzyl-6-(4-hydroxyphenyl)-7H-imidazo[1,2-a]pyrazin-3-one

> <PUBCHEM_IUPAC_SYSTEMATIC_NAME>
6-(4-hydroxyphenyl)-2,8-bis(phenylmethyl)-7H-imidazo[1,2-a]pyrazin-3-one

> <PUBCHEM_IUPAC_TRADITIONAL_NAME>
2,8-dibenzyl-6-(4-hydroxyphenyl)-7H-imidazo[1,2-a]pyrazin-3-one

> <PUBCHEM_IUPAC_INCHI>
InChI=1S/C26H21N3O2/c30-21-13-11-20(12-14-21)24-17-29-25(22(27-24)15-18-7-3-1-4-8-18)28-23(26(29)31)16-19-9-5-2-6-10-19/h1-14,17,27,30H,15-16H2

> <PUBCHEM_IUPAC_INCHIKEY>
KAEGGIFPLJZUOZ-UHFFFAOYSA-N

> <PUBCHEM_XLOGP3_AA>
4.8

> <PUBCHEM_EXACT_MASS>
407.163377

> <PUBCHEM_MOLECULAR_FORMULA>
C26H21N3O2

> <PUBCHEM_MOLECULAR_WEIGHT>
407.46384

> <PUBCHEM_OPENEYE_CAN_SMILES>
C1=CC=C(C=C1)CC2=C3N=C(C(=O)N3C=C(N2)C4=CC=C(C=C4)O)CC5=CC=CC=C5

> <PUBCHEM_OPENEYE_ISO_SMILES>
C1=CC=C(C=C1)CC2=C3N=C(C(=O)N3C=C(N2)C4=CC=C(C=C4)O)CC5=CC=CC=C5

> <PUBCHEM_CACTVS_TPSA>
64.9

> <PUBCHEM_MONOISOTOPIC_WEIGHT>
407.163377

> <PUBCHEM_TOTAL_CHARGE>
0

> <PUBCHEM_HEAVY_ATOM_COUNT>
31

> <PUBCHEM_ATOM_DEF_STEREO_COUNT>
0

> <PUBCHEM_ATOM_UDEF_STEREO_COUNT>
0

> <PUBCHEM_BOND_DEF_STEREO_COUNT>
0

> <PUBCHEM_BOND_UDEF_STEREO_COUNT>
0

> <PUBCHEM_ISOTOPIC_ATOM_COUNT>
0

> <PUBCHEM_COMPONENT_COUNT>
1

> <PUBCHEM_CACTVS_TAUTO_COUNT>
10

> <PUBCHEM_COORDINATE_TYPE>
1
5
255

> <PUBCHEM_BONDANNOTATIONS>
10  12  8
14  17  8
14  18  8
15  19  8
15  20  8
16  21  8
16  22  8
17  25  8
18  26  8
19  23  8
20  24  8
21  29  8
22  30  8
23  27  8
24  27  8
25  28  8
26  28  8
29  31  8
3  11  8
3  12  8
30  31  8
4  7  8
4  9  8
5  10  8
5  6  8
6  7  8
9  11  8

$$$$

