9543292
  -OEChem-07051213112D

 31 34  0     0  0  0  0  0  0999 V2000
    2.0074    2.3290    0.0000 O   0  0  0  0  0  0  0  0  0  0  0  0
    5.4501   -2.7093    0.0000 O   0  0  0  0  0  0  0  0  0  0  0  0
    3.7444    0.3438    0.0000 C   0  0  0  0  0  0  0  0  0  0  0  0
    3.7444   -0.6562    0.0000 C   0  0  0  0  0  0  0  0  0  0  0  0
    2.8784    0.8438    0.0000 C   0  0  0  0  0  0  0  0  0  0  0  0
    4.6383    0.8784    0.0000 C   0  0  0  0  0  0  0  0  0  0  0  0
    4.6383   -1.1909    0.0000 C   0  0  0  0  0  0  0  0  0  0  0  0
    2.8784   -1.1562    0.0000 C   0  0  0  0  0  0  0  0  0  0  0  0
    2.0123    0.3438    0.0000 C   0  0  0  0  0  0  0  0  0  0  0  0
    2.0123   -0.6562    0.0000 C   0  0  0  0  0  0  0  0  0  0  0  0
    5.5444    0.3646    0.0000 C   0  0  0  0  0  0  0  0  0  0  0  0
    2.8771    1.8355    0.0000 C   0  0  0  0  0  0  0  0  0  0  0  0
    5.5444   -0.6771    0.0000 C   0  0  0  0  0  0  0  0  0  0  0  0
    4.6005   -2.1819    0.0000 C   0  0  0  0  0  0  0  0  0  0  0  0
    4.6005    1.8694    0.0000 C   0  0  0  0  0  0  0  0  0  0  0  0
    2.8771   -2.1479    0.0000 C   0  0  0  0  0  0  0  0  0  0  0  0
    3.7292    2.3429    0.0000 C   0  0  0  0  0  0  0  0  0  0  0  0
    3.7292   -2.6554    0.0000 C   0  0  0  0  0  0  0  0  0  0  0  0
    2.0000    3.3290    0.0000 C   0  0  0  0  0  0  0  0  0  0  0  0
    1.4754    0.6538    0.0000 H   0  0  0  0  0  0  0  0  0  0  0  0
    1.4754   -0.9662    0.0000 H   0  0  0  0  0  0  0  0  0  0  0  0
    6.0801    0.6766    0.0000 H   0  0  0  0  0  0  0  0  0  0  0  0
    6.0801   -0.9891    0.0000 H   0  0  0  0  0  0  0  0  0  0  0  0
    5.1273    2.1964    0.0000 H   0  0  0  0  0  0  0  0  0  0  0  0
    2.3379   -2.4540    0.0000 H   0  0  0  0  0  0  0  0  0  0  0  0
    3.7169    2.9628    0.0000 H   0  0  0  0  0  0  0  0  0  0  0  0
    3.7169   -3.2753    0.0000 H   0  0  0  0  0  0  0  0  0  0  0  0
    5.4303   -3.3290    0.0000 H   0  0  0  0  0  0  0  0  0  0  0  0
    2.6200    3.3336    0.0000 H   0  0  0  0  0  0  0  0  0  0  0  0
    1.9954    3.9490    0.0000 H   0  0  0  0  0  0  0  0  0  0  0  0
    1.3800    3.3244    0.0000 H   0  0  0  0  0  0  0  0  0  0  0  0
  1 12  1  0  0  0  0
  1 19  1  0  0  0  0
  2 14  1  0  0  0  0
  2 28  1  0  0  0  0
  3  4  1  0  0  0  0
  3  5  1  0  0  0  0
  3  6  2  0  0  0  0
  4  7  1  0  0  0  0
  4  8  2  0  0  0  0
  5  9  1  0  0  0  0
  5 12  2  0  0  0  0
  6 11  1  0  0  0  0
  6 15  1  0  0  0  0
  7 13  1  0  0  0  0
  7 14  2  0  0  0  0
  8 10  1  0  0  0  0
  8 16  1  0  0  0  0
  9 10  2  0  0  0  0
  9 20  1  0  0  0  0
 10 21  1  0  0  0  0
 11 13  2  0  0  0  0
 11 22  1  0  0  0  0
 12 17  1  0  0  0  0
 13 23  1  0  0  0  0
 14 18  1  0  0  0  0
 15 17  2  0  0  0  0
 15 24  1  0  0  0  0
 16 18  2  0  0  0  0
 16 25  1  0  0  0  0
 17 26  1  0  0  0  0
 18 27  1  0  0  0  0
 19 29  1  0  0  0  0
 19 30  1  0  0  0  0
 19 31  1  0  0  0  0
M  END
> <PUBCHEM_COMPOUND_CID>
9543292

> <PUBCHEM_COMPOUND_CANONICALIZED>
1

> <PUBCHEM_CACTVS_COMPLEXITY>
342

> <PUBCHEM_CACTVS_HBOND_ACCEPTOR>
2

> <PUBCHEM_CACTVS_HBOND_DONOR>
1

> <PUBCHEM_CACTVS_ROTATABLE_BOND>
1

> <PUBCHEM_CACTVS_SUBSKEYS>
AAADccB4MAAAAAAAAAAAAAAAAAAAAAAAAAAwYMGAAAAAAADBVAAAGgAACAAADASAmAIyBsAABgCAAiBCAAACCAAgIAAIiAAGCIgMJiKGMRqAcCAkwBEIuAeAwPAO4AADAAAYAADAAAYAADAAAAAAAAAAAA==

> <PUBCHEM_IUPAC_OPENEYE_NAME>
6-methoxypyren-1-ol

> <PUBCHEM_IUPAC_CAS_NAME>
6-methoxy-1-pyrenol

> <PUBCHEM_IUPAC_NAME>
6-methoxypyren-1-ol

> <PUBCHEM_IUPAC_SYSTEMATIC_NAME>
6-methoxypyren-1-ol

> <PUBCHEM_IUPAC_TRADITIONAL_NAME>
6-methoxypyren-1-ol

> <PUBCHEM_IUPAC_INCHI>
InChI=1S/C17H12O2/c1-19-15-9-5-11-2-6-12-14(18)8-4-10-3-7-13(15)17(11)16(10)12/h2-9,18H,1H3

> <PUBCHEM_IUPAC_INCHIKEY>
BVDKRJLKWHAGMW-UHFFFAOYSA-N

> <PUBCHEM_XLOGP3_AA>
4.6

> <PUBCHEM_EXACT_MASS>
248.08373

> <PUBCHEM_MOLECULAR_FORMULA>
C17H12O2

> <PUBCHEM_MOLECULAR_WEIGHT>
248.27598

> <PUBCHEM_OPENEYE_CAN_SMILES>
COC1=C2C=CC3=C4C2=C(C=CC4=C(C=C3)O)C=C1

> <PUBCHEM_OPENEYE_ISO_SMILES>
COC1=C2C=CC3=C4C2=C(C=CC4=C(C=C3)O)C=C1

> <PUBCHEM_CACTVS_TPSA>
29.5

> <PUBCHEM_MONOISOTOPIC_WEIGHT>
248.08373

> <PUBCHEM_TOTAL_CHARGE>
0

> <PUBCHEM_HEAVY_ATOM_COUNT>
19

> <PUBCHEM_ATOM_DEF_STEREO_COUNT>
0

> <PUBCHEM_ATOM_UDEF_STEREO_COUNT>
0

> <PUBCHEM_BOND_DEF_STEREO_COUNT>
0

> <PUBCHEM_BOND_UDEF_STEREO_COUNT>
0

> <PUBCHEM_ISOTOPIC_ATOM_COUNT>
0

> <PUBCHEM_COMPONENT_COUNT>
1

> <PUBCHEM_CACTVS_TAUTO_COUNT>
2

> <PUBCHEM_COORDINATE_TYPE>
1
5
255

> <PUBCHEM_BONDANNOTATIONS>
11  13  8
12  17  8
14  18  8
15  17  8
16  18  8
3  4  8
3  5  8
3  6  8
4  7  8
4  8  8
5  12  8
5  9  8
6  11  8
6  15  8
7  13  8
7  14  8
8  10  8
8  16  8
9  10  8

$$$$

