441449
  -OEChem-07051212553D

 52 51  0     1  0  0  0  0  0999 V2000
   -3.6894    3.8092   -0.7037 O   0  0  0  0  0  0  0  0  0  0  0  0
   -7.2329   -4.5645    0.0922 O   0  0  0  0  0  0  0  0  0  0  0  0
    8.6355   -1.9377    0.7123 O   0  0  0  0  0  0  0  0  0  0  0  0
    7.8704   -1.3112   -1.3367 O   0  0  0  0  0  0  0  0  0  0  0  0
   -2.8220    3.1451    0.2169 C   0  0  2  0  0  0  0  0  0  0  0  0
   -1.5338    2.7534   -0.5182 C   0  0  0  0  0  0  0  0  0  0  0  0
   -0.4800    2.1149    0.3883 C   0  0  0  0  0  0  0  0  0  0  0  0
   -3.5998    1.9887    0.8617 C   0  0  0  0  0  0  0  0  0  0  0  0
    0.7686    1.7253   -0.4073 C   0  0  0  0  0  0  0  0  0  0  0  0
   -4.0147    0.8867   -0.1204 C   0  0  0  0  0  0  0  0  0  0  0  0
    1.8745    1.1122    0.4563 C   0  0  0  0  0  0  0  0  0  0  0  0
   -4.8698   -0.2106    0.5240 C   0  0  0  0  0  0  0  0  0  0  0  0
    3.0930    0.6554   -0.3487 C   0  0  0  0  0  0  0  0  0  0  0  0
    4.1700    0.0639    0.5645 C   0  0  0  0  0  0  0  0  0  0  0  0
   -5.2422   -1.3895   -0.3809 C   0  0  0  0  0  0  0  0  0  0  0  0
    5.4034   -0.3644   -0.2369 C   0  0  0  0  0  0  0  0  0  0  0  0
   -6.0789   -2.4598    0.3267 C   0  0  0  0  0  0  0  0  0  0  0  0
    6.4864   -0.9854    0.6452 C   0  0  0  0  0  0  0  0  0  0  0  0
   -6.4437   -3.6109   -0.6040 C   0  0  0  0  0  0  0  0  0  0  0  0
    7.7054   -1.4209   -0.1311 C   0  0  0  0  0  0  0  0  0  0  0  0
   -2.5797    3.8710    1.0025 H   0  0  0  0  0  0  0  0  0  0  0  0
   -1.1087    3.6538   -0.9817 H   0  0  0  0  0  0  0  0  0  0  0  0
   -1.7686    2.0895   -1.3593 H   0  0  0  0  0  0  0  0  0  0  0  0
   -0.8845    1.2169    0.8678 H   0  0  0  0  0  0  0  0  0  0  0  0
   -0.2071    2.8161    1.1857 H   0  0  0  0  0  0  0  0  0  0  0  0
   -4.5123    2.3987    1.3140 H   0  0  0  0  0  0  0  0  0  0  0  0
   -3.0134    1.5512    1.6773 H   0  0  0  0  0  0  0  0  0  0  0  0
    0.4865    1.0091   -1.1893 H   0  0  0  0  0  0  0  0  0  0  0  0
    1.1663    2.6110   -0.9182 H   0  0  0  0  0  0  0  0  0  0  0  0
   -4.5734    1.3222   -0.9571 H   0  0  0  0  0  0  0  0  0  0  0  0
   -3.1193    0.4178   -0.5442 H   0  0  0  0  0  0  0  0  0  0  0  0
    2.1887    1.8473    1.2076 H   0  0  0  0  0  0  0  0  0  0  0  0
    1.4655    0.2546    1.0048 H   0  0  0  0  0  0  0  0  0  0  0  0
   -4.3329   -0.6019    1.3977 H   0  0  0  0  0  0  0  0  0  0  0  0
   -5.7920    0.2441    0.9077 H   0  0  0  0  0  0  0  0  0  0  0  0
    3.5052    1.5083   -0.9014 H   0  0  0  0  0  0  0  0  0  0  0  0
    2.7848   -0.0923   -1.0893 H   0  0  0  0  0  0  0  0  0  0  0  0
    3.7624   -0.8010    1.1014 H   0  0  0  0  0  0  0  0  0  0  0  0
    4.4642    0.8045    1.3180 H   0  0  0  0  0  0  0  0  0  0  0  0
   -4.3232   -1.8470   -0.7673 H   0  0  0  0  0  0  0  0  0  0  0  0
   -5.7964   -1.0101   -1.2481 H   0  0  0  0  0  0  0  0  0  0  0  0
    5.8170    0.5036   -0.7657 H   0  0  0  0  0  0  0  0  0  0  0  0
    5.1062   -1.0858   -1.0086 H   0  0  0  0  0  0  0  0  0  0  0  0
   -6.9973   -2.0140    0.7283 H   0  0  0  0  0  0  0  0  0  0  0  0
   -5.5334   -2.8527    1.1936 H   0  0  0  0  0  0  0  0  0  0  0  0
   -3.2128    4.5817   -1.0524 H   0  0  0  0  0  0  0  0  0  0  0  0
    6.8063   -0.2550    1.3970 H   0  0  0  0  0  0  0  0  0  0  0  0
    6.0806   -1.8651    1.1575 H   0  0  0  0  0  0  0  0  0  0  0  0
   -5.5415   -4.1100   -0.9720 H   0  0  0  0  0  0  0  0  0  0  0  0
   -7.0192   -3.2464   -1.4611 H   0  0  0  0  0  0  0  0  0  0  0  0
   -7.4409   -5.2766   -0.5365 H   0  0  0  0  0  0  0  0  0  0  0  0
    9.4462   -2.2172    0.2358 H   0  0  0  0  0  0  0  0  0  0  0  0
  1  5  1  0  0  0  0
  1 46  1  0  0  0  0
  2 19  1  0  0  0  0
  2 51  1  0  0  0  0
  3 20  1  0  0  0  0
  3 52  1  0  0  0  0
  4 20  2  0  0  0  0
  5  6  1  0  0  0  0
  5  8  1  0  0  0  0
  5 21  1  0  0  0  0
  6  7  1  0  0  0  0
  6 22  1  0  0  0  0
  6 23  1  0  0  0  0
  7  9  1  0  0  0  0
  7 24  1  0  0  0  0
  7 25  1  0  0  0  0
  8 10  1  0  0  0  0
  8 26  1  0  0  0  0
  8 27  1  0  0  0  0
  9 11  1  0  0  0  0
  9 28  1  0  0  0  0
  9 29  1  0  0  0  0
 10 12  1  0  0  0  0
 10 30  1  0  0  0  0
 10 31  1  0  0  0  0
 11 13  1  0  0  0  0
 11 32  1  0  0  0  0
 11 33  1  0  0  0  0
 12 15  1  0  0  0  0
 12 34  1  0  0  0  0
 12 35  1  0  0  0  0
 13 14  1  0  0  0  0
 13 36  1  0  0  0  0
 13 37  1  0  0  0  0
 14 16  1  0  0  0  0
 14 38  1  0  0  0  0
 14 39  1  0  0  0  0
 15 17  1  0  0  0  0
 15 40  1  0  0  0  0
 15 41  1  0  0  0  0
 16 18  1  0  0  0  0
 16 42  1  0  0  0  0
 16 43  1  0  0  0  0
 17 19  1  0  0  0  0
 17 44  1  0  0  0  0
 17 45  1  0  0  0  0
 18 20  1  0  0  0  0
 18 47  1  0  0  0  0
 18 48  1  0  0  0  0
 19 49  1  0  0  0  0
 19 50  1  0  0  0  0
M  END
> <PUBCHEM_COMPOUND_CID>
441449

> <PUBCHEM_CONFORMER_RMSD>
1.4

> <PUBCHEM_CONFORMER_DIVERSEORDER>
1
9
31
41
11
3
37
16
19
51
55
22
15
67
14
35
6
72
10
25
73
59
56
18
17
61
34
42
53
27
49
66
29
46
12
50
64
60
4
26
65
48
47
68
32
28
44
38
8
45
30
39
13
36
57
52
2
33
62
7
63
54
21
70
40
58
23
24
43
20
71
69
5

> <PUBCHEM_MMFF94_PARTIAL_CHARGES>
11
1 -0.68
18 0.06
19 0.28
2 -0.68
20 0.66
3 -0.65
4 -0.57
46 0.4
5 0.28
51 0.4
52 0.5

> <PUBCHEM_EFFECTIVE_ROTOR_COUNT>
15

> <PUBCHEM_PHARMACOPHORE_FEATURES>
8
1 1 acceptor
1 1 donor
1 2 acceptor
1 2 donor
1 3 acceptor
1 4 acceptor
3 3 4 20 anion
5 8 10 12 15 17 hydrophobe

> <PUBCHEM_HEAVY_ATOM_COUNT>
20

> <PUBCHEM_ATOM_DEF_STEREO_COUNT>
0

> <PUBCHEM_ATOM_UDEF_STEREO_COUNT>
1

> <PUBCHEM_BOND_DEF_STEREO_COUNT>
0

> <PUBCHEM_BOND_UDEF_STEREO_COUNT>
0

> <PUBCHEM_ISOTOPIC_ATOM_COUNT>
0

> <PUBCHEM_COMPONENT_COUNT>
1

> <PUBCHEM_CACTVS_TAUTO_COUNT>
1

> <PUBCHEM_CONFORMER_ID>
0006BC6900000001

> <PUBCHEM_MMFF94_ENERGY>
8.8404

> <PUBCHEM_FEATURE_SELFOVERLAP>
40.652

> <PUBCHEM_SHAPE_FINGERPRINT>
11273773 46 18340212900235625295
11463208 1 18043238240693788622
11497681 19 18341611469613360460
11761917 116 18338510851212886574
11761917 87 15792279532349828814
11963148 33 18198908192281347962
12091667 2 17059200618142832128
14344974 204 18335417971969472750
14671636 106 18409446965186695518
14931854 50 17703238325783223675
15152005 1 18264489473568713055
21054139 6 18131067182248195610
21307412 95 18340220618201925845
23424782 7 18335421249783256744
270888 7 9222966863247640129
393628 194 9079119955904519563
397830 11 18260561013348826128
406291 66 18338798910221753459
5718773 13 18337111168383423995
636775 8 18261102011887421126
6712543 237 16081356416232705327
7970288 3 18266462010534585163

> <PUBCHEM_SHAPE_MULTIPOLES>
388.11
25.82
5.08
0.88
38.02
1.94
0.04
35.36
0.48
-13.82
0.54
0.47
-0.01
-0.29

> <PUBCHEM_SHAPE_SELFOVERLAP>
713.293

> <PUBCHEM_SHAPE_VOLUME>
244.9

> <PUBCHEM_COORDINATE_TYPE>
2
5
10

$$$$

