8982
  -OEChem-07051212533D

 51 54  0     1  0  0  0  0  0999 V2000
    2.2171    1.3192    1.6253 S   0  0  0  0  0  0  0  0  0  0  0  0
    1.9425   -0.7338   -2.2392 O   0  0  0  0  0  0  0  0  0  0  0  0
    6.3138   -0.2082    0.1178 O   0  0  0  0  0  0  0  0  0  0  0  0
    5.3783    1.8650   -0.0319 O   0  0  0  0  0  0  0  0  0  0  0  0
   -1.0746   -0.0053   -2.2441 O   0  0  0  0  0  0  0  0  0  0  0  0
   -1.0929   -2.3036    0.1222 O   0  0  0  0  0  0  0  0  0  0  0  0
    3.0975    0.7044   -0.7686 N   0  0  0  0  0  0  0  0  0  0  0  0
   -0.0644    0.8860   -0.3578 N   0  0  0  0  0  0  0  0  0  0  0  0
    2.3341    1.7852   -0.1432 C   0  0  1  0  0  0  0  0  0  0  0  0
    3.2793   -0.1981    1.4412 C   0  0  0  0  0  0  0  0  0  0  0  0
    3.9681   -0.0959    0.0618 C   0  0  2  0  0  0  0  0  0  0  0  0
    1.1490    1.3695   -1.0302 C   0  0  1  0  0  0  0  0  0  0  0  0
    2.0720    0.2466   -1.5422 C   0  0  0  0  0  0  0  0  0  0  0  0
    4.2571   -0.2713    2.6184 C   0  0  0  0  0  0  0  0  0  0  0  0
    2.3462   -1.4197    1.4926 C   0  0  0  0  0  0  0  0  0  0  0  0
    5.2676    0.6504    0.0429 C   0  0  0  0  0  0  0  0  0  0  0  0
   -1.0900    0.2278   -1.0382 C   0  0  0  0  0  0  0  0  0  0  0  0
   -2.2457   -0.2233   -0.2224 C   0  0  0  0  0  0  0  0  0  0  0  0
   -3.3453    0.6084   -0.0235 C   0  0  0  0  0  0  0  0  0  0  0  0
   -2.1735   -1.4957    0.3197 C   0  0  0  0  0  0  0  0  0  0  0  0
   -4.4214    0.1291    0.7610 C   0  0  0  0  0  0  0  0  0  0  0  0
   -3.2315   -1.9670    1.0910 C   0  0  0  0  0  0  0  0  0  0  0  0
   -3.4179    1.8985   -0.5737 C   0  0  0  0  0  0  0  0  0  0  0  0
   -4.3489   -1.1610    1.3111 C   0  0  0  0  0  0  0  0  0  0  0  0
   -5.5382    0.9539    0.9721 C   0  0  0  0  0  0  0  0  0  0  0  0
   -4.5351    2.7044   -0.3537 C   0  0  0  0  0  0  0  0  0  0  0  0
   -5.5933    2.2331    0.4177 C   0  0  0  0  0  0  0  0  0  0  0  0
   -1.3287   -3.5528   -0.5230 C   0  0  0  0  0  0  0  0  0  0  0  0
   -0.1214   -3.9458   -1.3030 C   0  0  0  0  0  0  0  0  0  0  0  0
    2.7456    2.7789   -0.3416 H   0  0  0  0  0  0  0  0  0  0  0  0
    4.0976   -1.0767   -0.4108 H   0  0  0  0  0  0  0  0  0  0  0  0
    0.9078    2.1040   -1.8079 H   0  0  0  0  0  0  0  0  0  0  0  0
    3.7286   -0.3814    3.5730 H   0  0  0  0  0  0  0  0  0  0  0  0
    4.9222   -1.1364    2.5157 H   0  0  0  0  0  0  0  0  0  0  0  0
    4.8848    0.6235    2.6954 H   0  0  0  0  0  0  0  0  0  0  0  0
    2.9232   -2.3465    1.3899 H   0  0  0  0  0  0  0  0  0  0  0  0
    1.8069   -1.4784    2.4455 H   0  0  0  0  0  0  0  0  0  0  0  0
    1.6029   -1.4147    0.6894 H   0  0  0  0  0  0  0  0  0  0  0  0
   -0.1747    1.0257    0.6439 H   0  0  0  0  0  0  0  0  0  0  0  0
    7.1748    0.2617    0.1074 H   0  0  0  0  0  0  0  0  0  0  0  0
   -3.1994   -2.9573    1.5373 H   0  0  0  0  0  0  0  0  0  0  0  0
   -2.6153    2.3063   -1.1833 H   0  0  0  0  0  0  0  0  0  0  0  0
   -5.1636   -1.5492    1.9190 H   0  0  0  0  0  0  0  0  0  0  0  0
   -6.3769    0.6062    1.5717 H   0  0  0  0  0  0  0  0  0  0  0  0
   -4.5791    3.7003   -0.7850 H   0  0  0  0  0  0  0  0  0  0  0  0
   -6.4629    2.8610    0.5884 H   0  0  0  0  0  0  0  0  0  0  0  0
   -1.5428   -4.3075    0.2417 H   0  0  0  0  0  0  0  0  0  0  0  0
   -2.1915   -3.4879   -1.1980 H   0  0  0  0  0  0  0  0  0  0  0  0
   -0.2646   -4.9115   -1.7961 H   0  0  0  0  0  0  0  0  0  0  0  0
    0.1097   -3.1957   -2.0670 H   0  0  0  0  0  0  0  0  0  0  0  0
    0.7587   -4.0124   -0.6544 H   0  0  0  0  0  0  0  0  0  0  0  0
  1  9  1  0  0  0  0
  1 10  1  0  0  0  0
  2 13  2  0  0  0  0
  3 16  1  0  0  0  0
  3 40  1  0  0  0  0
  4 16  2  0  0  0  0
  5 17  2  0  0  0  0
  6 20  1  0  0  0  0
  6 28  1  0  0  0  0
  7  9  1  0  0  0  0
  7 11  1  0  0  0  0
  7 13  1  0  0  0  0
  8 12  1  0  0  0  0
  8 17  1  0  0  0  0
  8 39  1  0  0  0  0
  9 12  1  0  0  0  0
  9 30  1  0  0  0  0
 10 11  1  0  0  0  0
 10 14  1  0  0  0  0
 10 15  1  0  0  0  0
 11 16  1  0  0  0  0
 11 31  1  0  0  0  0
 12 13  1  0  0  0  0
 12 32  1  0  0  0  0
 14 33  1  0  0  0  0
 14 34  1  0  0  0  0
 14 35  1  0  0  0  0
 15 36  1  0  0  0  0
 15 37  1  0  0  0  0
 15 38  1  0  0  0  0
 17 18  1  0  0  0  0
 18 19  1  0  0  0  0
 18 20  2  0  0  0  0
 19 21  1  0  0  0  0
 19 23  2  0  0  0  0
 20 22  1  0  0  0  0
 21 24  1  0  0  0  0
 21 25  2  0  0  0  0
 22 24  2  0  0  0  0
 22 41  1  0  0  0  0
 23 26  1  0  0  0  0
 23 42  1  0  0  0  0
 24 43  1  0  0  0  0
 25 27  1  0  0  0  0
 25 44  1  0  0  0  0
 26 27  2  0  0  0  0
 26 45  1  0  0  0  0
 27 46  1  0  0  0  0
 28 29  1  0  0  0  0
 28 47  1  0  0  0  0
 28 48  1  0  0  0  0
 29 49  1  0  0  0  0
 29 50  1  0  0  0  0
 29 51  1  0  0  0  0
M  END
> <PUBCHEM_COMPOUND_CID>
8982

> <PUBCHEM_CONFORMER_RMSD>
0.8

> <PUBCHEM_CONFORMER_DIVERSEORDER>
2
25
12
15
6
20
16
4
18
23
24
3
10
14
22
27
21
8
7
19
1
13
26
9
17
5
11

> <PUBCHEM_MMFF94_PARTIAL_CHARGES>
32
1 -0.45
10 0.23
11 0.36
12 0.28
13 0.58
16 0.66
17 0.54
18 0.09
2 -0.57
20 0.08
22 -0.15
23 -0.15
24 -0.15
25 -0.15
26 -0.15
27 -0.15
28 0.28
3 -0.65
39 0.37
4 -0.57
40 0.5
41 0.15
42 0.15
43 0.15
44 0.15
45 0.15
46 0.15
5 -0.57
6 -0.36
7 -0.59
8 -0.65
9 0.44

> <PUBCHEM_EFFECTIVE_ROTOR_COUNT>
6.8

> <PUBCHEM_PHARMACOPHORE_FEATURES>
12
1 2 acceptor
1 3 acceptor
1 4 acceptor
1 5 acceptor
1 6 acceptor
1 8 donor
3 10 14 15 hydrophobe
3 3 4 16 anion
4 7 9 12 13 rings
6 18 19 20 21 22 24 rings
6 19 21 23 25 26 27 rings
7 1 7 9 10 11 12 13 rings

> <PUBCHEM_HEAVY_ATOM_COUNT>
29

> <PUBCHEM_ATOM_DEF_STEREO_COUNT>
3

> <PUBCHEM_ATOM_UDEF_STEREO_COUNT>
0

> <PUBCHEM_BOND_DEF_STEREO_COUNT>
0

> <PUBCHEM_BOND_UDEF_STEREO_COUNT>
0

> <PUBCHEM_ISOTOPIC_ATOM_COUNT>
0

> <PUBCHEM_COMPONENT_COUNT>
1

> <PUBCHEM_CACTVS_TAUTO_COUNT>
2

> <PUBCHEM_CONFORMER_ID>
0000231600000002

> <PUBCHEM_MMFF94_ENERGY>
97.5443

> <PUBCHEM_FEATURE_SELFOVERLAP>
64.94

> <PUBCHEM_SHAPE_FINGERPRINT>
10366900 7 16660637458304170192
10674148 151 18272644672276743434
11089746 13 14851608791102306744
11135609 12 17986125221732322962
11725454 13 17821729464076931495
12107183 9 17628367274404753193
12166972 35 6483351123360331698
12236239 1 17704348866327774620
12422481 6 17987804153821853859
12553582 1 17203059486611488332
12596602 18 18341608196473767064
12633257 1 18335701594133489889
12788726 201 17978503131781420583
13583140 156 17894631427068108343
13726171 33 18052222199157511468
14420673 8 18058729250746386538
14466204 15 18337951298515500369
15064986 96 18337667645579083195
15238133 3 18335130999434323964
15537594 2 17203327827641316752
16110190 28 18131079263817496474
1813 80 15482665818725327303
20511986 3 17917723374374825264
20554085 129 18189346808990153985
21033648 29 18113908151586496792
212916 134 18261398866466661651
23559900 14 18195787764889656095
2838139 119 15864069896646519393
329604 57 7853561431589553761
3298306 158 18335697299699268863
3737641 26 16701468999496472352
474 4 14779264206811459933
495365 180 17968938724891512759
508706 21 18334288730593566903
5104073 3 18060146422824739232
5265222 85 18267286661508717886
5385378 56 18190730033282748571
7064713 232 18342468048867962227
7226269 152 18259984911551533513
9862522 239 18342744035583265639
9981440 41 18339350955722059587

> <PUBCHEM_SHAPE_MULTIPOLES>
561.35
12.41
3.18
1.83
2.36
2.92
-0.15
-6.78
-4.4
-2.78
0.8
1.34
0.39
0.18

> <PUBCHEM_SHAPE_SELFOVERLAP>
1209.872

> <PUBCHEM_SHAPE_VOLUME>
311.5

> <PUBCHEM_COORDINATE_TYPE>
2
5
10

$$$$

