47205711
  -OEChem-06241223002D

 39 39  0     0  0  0  0  0  0999 V2000
    2.0000   -3.9050    0.0000 Cl  0  0  0  0  0  0  0  0  0  0  0  0
    3.7320   -0.9050    0.0000 O   0  0  0  0  0  0  0  0  0  0  0  0
    3.7320    1.0950    0.0000 O   0  0  0  0  0  0  0  0  0  0  0  0
    7.1962    2.0950    0.0000 O   0  0  0  0  0  0  0  0  0  0  0  0
    5.4641    1.0950    0.0000 N   0  0  0  0  0  0  0  0  0  0  0  0
    6.3301    3.5950    0.0000 N   0  0  0  0  0  0  0  0  0  0  0  0
    6.3301    0.5950    0.0000 C   0  0  0  0  0  0  0  0  0  0  0  0
    7.1962    1.0950    0.0000 C   0  0  0  0  0  0  0  0  0  0  0  0
    8.0622    0.5950    0.0000 C   0  0  0  0  0  0  0  0  0  0  0  0
    5.4641    2.0950    0.0000 C   0  0  0  0  0  0  0  0  0  0  0  0
    4.5981    0.5950    0.0000 C   0  0  0  0  0  0  0  0  0  0  0  0
    8.9282    1.0950    0.0000 C   0  0  0  0  0  0  0  0  0  0  0  0
    4.5981   -0.4050    0.0000 C   0  0  0  0  0  0  0  0  0  0  0  0
    6.3301    2.5950    0.0000 C   0  0  0  0  0  0  0  0  0  0  0  0
    3.7320   -1.9050    0.0000 C   0  0  0  0  0  0  0  0  0  0  0  0
    2.8660   -2.4050    0.0000 C   0  0  0  0  0  0  0  0  0  0  0  0
    4.5981   -2.4050    0.0000 C   0  0  0  0  0  0  0  0  0  0  0  0
    2.8660   -3.4050    0.0000 C   0  0  0  0  0  0  0  0  0  0  0  0
    4.5981   -3.4050    0.0000 C   0  0  0  0  0  0  0  0  0  0  0  0
    3.7320   -3.9050    0.0000 C   0  0  0  0  0  0  0  0  0  0  0  0
    5.9316    0.1201    0.0000 H   0  0  0  0  0  0  0  0  0  0  0  0
    6.7287    0.1201    0.0000 H   0  0  0  0  0  0  0  0  0  0  0  0
    7.5947    1.5700    0.0000 H   0  0  0  0  0  0  0  0  0  0  0  0
    6.7976    1.5700    0.0000 H   0  0  0  0  0  0  0  0  0  0  0  0
    7.6636    0.1201    0.0000 H   0  0  0  0  0  0  0  0  0  0  0  0
    8.4607    0.1201    0.0000 H   0  0  0  0  0  0  0  0  0  0  0  0
    5.2520    2.6776    0.0000 H   0  0  0  0  0  0  0  0  0  0  0  0
    4.8535    1.9873    0.0000 H   0  0  0  0  0  0  0  0  0  0  0  0
    9.2382    0.5581    0.0000 H   0  0  0  0  0  0  0  0  0  0  0  0
    9.4651    1.4050    0.0000 H   0  0  0  0  0  0  0  0  0  0  0  0
    8.6182    1.6319    0.0000 H   0  0  0  0  0  0  0  0  0  0  0  0
    4.8101   -0.9876    0.0000 H   0  0  0  0  0  0  0  0  0  0  0  0
    5.2087   -0.2973    0.0000 H   0  0  0  0  0  0  0  0  0  0  0  0
    6.8671    3.9050    0.0000 H   0  0  0  0  0  0  0  0  0  0  0  0
    5.7932    3.9050    0.0000 H   0  0  0  0  0  0  0  0  0  0  0  0
    2.3291   -2.0950    0.0000 H   0  0  0  0  0  0  0  0  0  0  0  0
    5.1350   -2.0950    0.0000 H   0  0  0  0  0  0  0  0  0  0  0  0
    5.1350   -3.7150    0.0000 H   0  0  0  0  0  0  0  0  0  0  0  0
    3.7320   -4.5250    0.0000 H   0  0  0  0  0  0  0  0  0  0  0  0
  1 18  1  0  0  0  0
  2 13  1  0  0  0  0
  2 15  1  0  0  0  0
  3 11  2  0  0  0  0
  4 14  2  0  0  0  0
  5  7  1  0  0  0  0
  5 10  1  0  0  0  0
  5 11  1  0  0  0  0
  6 14  1  0  0  0  0
  6 34  1  0  0  0  0
  6 35  1  0  0  0  0
  7  8  1  0  0  0  0
  7 21  1  0  0  0  0
  7 22  1  0  0  0  0
  8  9  1  0  0  0  0
  8 23  1  0  0  0  0
  8 24  1  0  0  0  0
  9 12  1  0  0  0  0
  9 25  1  0  0  0  0
  9 26  1  0  0  0  0
 10 14  1  0  0  0  0
 10 27  1  0  0  0  0
 10 28  1  0  0  0  0
 11 13  1  0  0  0  0
 12 29  1  0  0  0  0
 12 30  1  0  0  0  0
 12 31  1  0  0  0  0
 13 32  1  0  0  0  0
 13 33  1  0  0  0  0
 15 16  2  0  0  0  0
 15 17  1  0  0  0  0
 16 18  1  0  0  0  0
 16 36  1  0  0  0  0
 17 19  2  0  0  0  0
 17 37  1  0  0  0  0
 18 20  2  0  0  0  0
 19 20  1  0  0  0  0
 19 38  1  0  0  0  0
 20 39  1  0  0  0  0
M  END
> <PUBCHEM_COMPOUND_CID>
47205711

> <PUBCHEM_COMPOUND_CANONICALIZED>
1

> <PUBCHEM_CACTVS_COMPLEXITY>
326

> <PUBCHEM_CACTVS_HBOND_ACCEPTOR>
3

> <PUBCHEM_CACTVS_HBOND_DONOR>
1

> <PUBCHEM_CACTVS_ROTATABLE_BOND>
8

> <PUBCHEM_CACTVS_SUBSKEYS>
AAADceBzMAAEAAAAAAAAAAAAAAAAAAAAAAAwAAAAAAAAAAABAAAAHgIQAAAACAbhkCYyBoNABACIACFSEAICCAAgJQAIiADOCogOZiKFsz6XOCCk1hGYqAeAQAAAAAAAAQAAAAAAAAACAAAAAAAAAAAAAA==

> <PUBCHEM_IUPAC_OPENEYE_NAME>
2-[butyl-[2-(3-chlorophenoxy)acetyl]amino]acetamide

> <PUBCHEM_IUPAC_CAS_NAME>
2-[butyl-[2-(3-chlorophenoxy)-1-oxoethyl]amino]acetamide

> <PUBCHEM_IUPAC_NAME>
2-[butyl-[2-(3-chlorophenoxy)acetyl]amino]acetamide

> <PUBCHEM_IUPAC_SYSTEMATIC_NAME>
2-[butyl-[2-(3-chloranylphenoxy)ethanoyl]amino]ethanamide

> <PUBCHEM_IUPAC_TRADITIONAL_NAME>
2-[butyl-[2-(3-chlorophenoxy)acetyl]amino]acetamide

> <PUBCHEM_IUPAC_INCHI>
InChI=1S/C14H19ClN2O3/c1-2-3-7-17(9-13(16)18)14(19)10-20-12-6-4-5-11(15)8-12/h4-6,8H,2-3,7,9-10H2,1H3,(H2,16,18)

> <PUBCHEM_IUPAC_INCHIKEY>
NELSTDTVIJSXFQ-UHFFFAOYSA-N

> <PUBCHEM_XLOGP3_AA>
2.2

> <PUBCHEM_EXACT_MASS>
298.10842

> <PUBCHEM_MOLECULAR_FORMULA>
C14H19ClN2O3

> <PUBCHEM_MOLECULAR_WEIGHT>
298.76526

> <PUBCHEM_OPENEYE_CAN_SMILES>
CCCCN(CC(=O)N)C(=O)COC1=CC(=CC=C1)Cl

> <PUBCHEM_OPENEYE_ISO_SMILES>
CCCCN(CC(=O)N)C(=O)COC1=CC(=CC=C1)Cl

> <PUBCHEM_CACTVS_TPSA>
72.6

> <PUBCHEM_MONOISOTOPIC_WEIGHT>
298.10842

> <PUBCHEM_TOTAL_CHARGE>
0

> <PUBCHEM_HEAVY_ATOM_COUNT>
20

> <PUBCHEM_ATOM_DEF_STEREO_COUNT>
0

> <PUBCHEM_ATOM_UDEF_STEREO_COUNT>
0

> <PUBCHEM_BOND_DEF_STEREO_COUNT>
0

> <PUBCHEM_BOND_UDEF_STEREO_COUNT>
0

> <PUBCHEM_ISOTOPIC_ATOM_COUNT>
0

> <PUBCHEM_COMPONENT_COUNT>
1

> <PUBCHEM_CACTVS_TAUTO_COUNT>
3

> <PUBCHEM_COORDINATE_TYPE>
1
5
255

> <PUBCHEM_BONDANNOTATIONS>
15  16  8
15  17  8
16  18  8
17  19  8
18  20  8
19  20  8

$$$$

