109865
  -OEChem-07051213132D

 25 25  0     0  0  0  0  0  0999 V2000
    6.8671    2.0000    0.0000 Cl  0  0  0  0  0  0  0  0  0  0  0  0
    2.5369   -0.5000    0.0000 O   0  0  0  0  0  0  0  0  0  0  0  0
    3.4030   -2.0000    0.0000 O   0  0  0  0  0  0  0  0  0  0  0  0
    8.5991   -1.0000    0.0000 N   0  0  0  0  0  0  0  0  0  0  0  0
    5.1350   -1.0000    0.0000 N   0  0  0  0  0  0  0  0  0  0  0  0
    6.8671   -1.0000    0.0000 N   0  0  0  0  0  0  0  0  0  0  0  0
    7.7331    0.5000    0.0000 N   0  0  0  0  0  0  0  0  0  0  0  0
    6.0010    0.5000    0.0000 N   0  0  0  0  0  0  0  0  0  0  0  0
    9.4651   -0.5000    0.0000 C   0  0  0  0  0  0  0  0  0  0  0  0
    7.7331   -0.5000    0.0000 C   0  0  0  0  0  0  0  0  0  0  0  0
    6.0010   -0.5000    0.0000 C   0  0  0  0  0  0  0  0  0  0  0  0
    4.2690   -0.5000    0.0000 C   0  0  0  0  0  0  0  0  0  0  0  0
   10.3312   -1.0000    0.0000 C   0  0  0  0  0  0  0  0  0  0  0  0
    6.8671    1.0000    0.0000 C   0  0  0  0  0  0  0  0  0  0  0  0
    3.4030   -1.0000    0.0000 C   0  0  0  0  0  0  0  0  0  0  0  0
    9.8637   -0.0251    0.0000 H   0  0  0  0  0  0  0  0  0  0  0  0
    9.0666   -0.0251    0.0000 H   0  0  0  0  0  0  0  0  0  0  0  0
    8.5991   -1.6200    0.0000 H   0  0  0  0  0  0  0  0  0  0  0  0
    4.6675   -0.0251    0.0000 H   0  0  0  0  0  0  0  0  0  0  0  0
    3.8705   -0.0251    0.0000 H   0  0  0  0  0  0  0  0  0  0  0  0
    5.1350   -1.6200    0.0000 H   0  0  0  0  0  0  0  0  0  0  0  0
   10.0212   -1.5369    0.0000 H   0  0  0  0  0  0  0  0  0  0  0  0
   10.8681   -1.3100    0.0000 H   0  0  0  0  0  0  0  0  0  0  0  0
   10.6412   -0.4631    0.0000 H   0  0  0  0  0  0  0  0  0  0  0  0
    2.0000   -0.8100    0.0000 H   0  0  0  0  0  0  0  0  0  0  0  0
  1 14  1  0  0  0  0
  2 15  1  0  0  0  0
  2 25  1  0  0  0  0
  3 15  2  0  0  0  0
  4  9  1  0  0  0  0
  4 10  1  0  0  0  0
  4 18  1  0  0  0  0
  5 11  1  0  0  0  0
  5 12  1  0  0  0  0
  5 21  1  0  0  0  0
  6 10  2  0  0  0  0
  6 11  1  0  0  0  0
  7 10  1  0  0  0  0
  7 14  2  0  0  0  0
  8 11  2  0  0  0  0
  8 14  1  0  0  0  0
  9 13  1  0  0  0  0
  9 16  1  0  0  0  0
  9 17  1  0  0  0  0
 12 15  1  0  0  0  0
 12 19  1  0  0  0  0
 12 20  1  0  0  0  0
 13 22  1  0  0  0  0
 13 23  1  0  0  0  0
 13 24  1  0  0  0  0
M  END
> <PUBCHEM_COMPOUND_CID>
109865

> <PUBCHEM_COMPOUND_CANONICALIZED>
1

> <PUBCHEM_CACTVS_COMPLEXITY>
218

> <PUBCHEM_CACTVS_HBOND_ACCEPTOR>
7

> <PUBCHEM_CACTVS_HBOND_DONOR>
3

> <PUBCHEM_CACTVS_ROTATABLE_BOND>
5

> <PUBCHEM_CACTVS_SUBSKEYS>
AAADccBjsAAEAAAAAAAAAAAAAAAAAAAAAAAsAAAAAAAAAAABgAAAHgIQCAAAAADBgAQDGAbIEgAoAACQLAAAAAkAAIABAICIAACCCAAACCAAAAAIEAIQAAAAAAAAAAAAAAAAAAAAAAAAAAAAAAAAAAAAAA==

> <PUBCHEM_IUPAC_OPENEYE_NAME>
2-[[4-chloro-6-(ethylamino)-1,3,5-triazin-2-yl]amino]acetic acid

> <PUBCHEM_IUPAC_CAS_NAME>
2-[[4-chloro-6-(ethylamino)-1,3,5-triazin-2-yl]amino]acetic acid

> <PUBCHEM_IUPAC_NAME>
2-[[4-chloro-6-(ethylamino)-1,3,5-triazin-2-yl]amino]acetic acid

> <PUBCHEM_IUPAC_SYSTEMATIC_NAME>
2-[[4-chloranyl-6-(ethylamino)-1,3,5-triazin-2-yl]amino]ethanoic acid

> <PUBCHEM_IUPAC_TRADITIONAL_NAME>
2-[[4-chloro-6-(ethylamino)-s-triazin-2-yl]amino]acetic acid

> <PUBCHEM_IUPAC_INCHI>
InChI=1S/C7H10ClN5O2/c1-2-9-6-11-5(8)12-7(13-6)10-3-4(14)15/h2-3H2,1H3,(H,14,15)(H2,9,10,11,12,13)

> <PUBCHEM_IUPAC_INCHIKEY>
IAUFMJOLSFEAIJ-UHFFFAOYSA-N

> <PUBCHEM_XLOGP3_AA>
1.5

> <PUBCHEM_EXACT_MASS>
231.052302

> <PUBCHEM_MOLECULAR_FORMULA>
C7H10ClN5O2

> <PUBCHEM_MOLECULAR_WEIGHT>
231.6396

> <PUBCHEM_OPENEYE_CAN_SMILES>
CCNC1=NC(=NC(=N1)NCC(=O)O)Cl

> <PUBCHEM_OPENEYE_ISO_SMILES>
CCNC1=NC(=NC(=N1)NCC(=O)O)Cl

> <PUBCHEM_CACTVS_TPSA>
100

> <PUBCHEM_MONOISOTOPIC_WEIGHT>
231.052302

> <PUBCHEM_TOTAL_CHARGE>
0

> <PUBCHEM_HEAVY_ATOM_COUNT>
15

> <PUBCHEM_ATOM_DEF_STEREO_COUNT>
0

> <PUBCHEM_ATOM_UDEF_STEREO_COUNT>
0

> <PUBCHEM_BOND_DEF_STEREO_COUNT>
0

> <PUBCHEM_BOND_UDEF_STEREO_COUNT>
0

> <PUBCHEM_ISOTOPIC_ATOM_COUNT>
0

> <PUBCHEM_COMPONENT_COUNT>
1

> <PUBCHEM_CACTVS_TAUTO_COUNT>
9

> <PUBCHEM_COORDINATE_TYPE>
1
5
255

> <PUBCHEM_BONDANNOTATIONS>
6  10  8
6  11  8
7  10  8
7  14  8
8  11  8
8  14  8

$$$$

