12107
  -OEChem-06261206323D

 22 22  0     0  0  0  0  0  0999 V2000
    1.8576   -1.2960   -0.0078 O   0  0  0  0  0  0  0  0  0  0  0  0
    0.7027    0.7547   -0.0042 N   0  0  0  0  0  0  0  0  0  0  0  0
   -0.6395    0.3737   -0.0009 C   0  0  0  0  0  0  0  0  0  0  0  0
    3.1174    0.7562   -0.0104 C   0  0  0  0  0  0  0  0  0  0  0  0
    1.8395   -0.0696   -0.0073 C   0  0  0  0  0  0  0  0  0  0  0  0
   -1.6404    1.3451    0.0014 C   0  0  0  0  0  0  0  0  0  0  0  0
   -0.9802   -0.9788   -0.0008 C   0  0  0  0  0  0  0  0  0  0  0  0
    4.3701   -0.1008    0.0209 C   0  0  0  0  0  0  0  0  0  0  0  0
   -2.9823    0.9640    0.0038 C   0  0  0  0  0  0  0  0  0  0  0  0
   -2.3220   -1.3600    0.0015 C   0  0  0  0  0  0  0  0  0  0  0  0
   -3.3230   -0.3886    0.0038 C   0  0  0  0  0  0  0  0  0  0  0  0
    3.1223    1.3815   -0.9104 H   0  0  0  0  0  0  0  0  0  0  0  0
    3.1049    1.4183    0.8629 H   0  0  0  0  0  0  0  0  0  0  0  0
    0.8678    1.7593   -0.0048 H   0  0  0  0  0  0  0  0  0  0  0  0
   -1.3895    2.4028    0.0012 H   0  0  0  0  0  0  0  0  0  0  0  0
   -0.2639   -1.7882   -0.0026 H   0  0  0  0  0  0  0  0  0  0  0  0
    4.3950   -0.7280    0.9181 H   0  0  0  0  0  0  0  0  0  0  0  0
    5.2639    0.5306    0.0201 H   0  0  0  0  0  0  0  0  0  0  0  0
    4.4170   -0.7609   -0.8515 H   0  0  0  0  0  0  0  0  0  0  0  0
   -3.7618    1.7203    0.0056 H   0  0  0  0  0  0  0  0  0  0  0  0
   -2.5888   -2.4129    0.0015 H   0  0  0  0  0  0  0  0  0  0  0  0
   -4.3678   -0.6854    0.0056 H   0  0  0  0  0  0  0  0  0  0  0  0
  1  5  2  0  0  0  0
  2  3  1  0  0  0  0
  2  5  1  0  0  0  0
  2 14  1  0  0  0  0
  3  6  2  0  0  0  0
  3  7  1  0  0  0  0
  4  5  1  0  0  0  0
  4  8  1  0  0  0  0
  4 12  1  0  0  0  0
  4 13  1  0  0  0  0
  6  9  1  0  0  0  0
  6 15  1  0  0  0  0
  7 10  2  0  0  0  0
  7 16  1  0  0  0  0
  8 17  1  0  0  0  0
  8 18  1  0  0  0  0
  8 19  1  0  0  0  0
  9 11  2  0  0  0  0
  9 20  1  0  0  0  0
 10 11  1  0  0  0  0
 10 21  1  0  0  0  0
 11 22  1  0  0  0  0
M  END
> <PUBCHEM_COMPOUND_CID>
12107

> <PUBCHEM_CONFORMER_RMSD>
0.6

> <PUBCHEM_CONFORMER_DIVERSEORDER>
1
4
3
2

> <PUBCHEM_MMFF94_PARTIAL_CHARGES>
16
1 -0.57
10 -0.15
11 -0.15
14 0.37
15 0.15
16 0.15
2 -0.55
20 0.15
21 0.15
22 0.15
3 0.12
4 0.06
5 0.57
6 -0.15
7 -0.15
9 -0.15

> <PUBCHEM_EFFECTIVE_ROTOR_COUNT>
3

> <PUBCHEM_PHARMACOPHORE_FEATURES>
4
1 1 acceptor
1 2 donor
1 8 hydrophobe
6 3 6 7 9 10 11 rings

> <PUBCHEM_HEAVY_ATOM_COUNT>
11

> <PUBCHEM_ATOM_DEF_STEREO_COUNT>
0

> <PUBCHEM_ATOM_UDEF_STEREO_COUNT>
0

> <PUBCHEM_BOND_DEF_STEREO_COUNT>
0

> <PUBCHEM_BOND_UDEF_STEREO_COUNT>
0

> <PUBCHEM_ISOTOPIC_ATOM_COUNT>
0

> <PUBCHEM_COMPONENT_COUNT>
1

> <PUBCHEM_CACTVS_TAUTO_COUNT>
2

> <PUBCHEM_CONFORMER_ID>
00002F4B00000001

> <PUBCHEM_MMFF94_ENERGY>
26.1088

> <PUBCHEM_FEATURE_SELFOVERLAP>
20.297

> <PUBCHEM_SHAPE_FINGERPRINT>
10608611 8 18408609158094655296
11062470 55 18410856555350110028
12932764 1 17240776080922905378
13024252 1 15626224615684893465
13380535 76 18410856572683401766
14144814 61 18412265055625916776
14325111 11 18410855490219423557
15219456 202 18041551550473027806
15775835 57 18342173409821620793
20201158 50 18335138695730336070
20279233 1 17894907438540340214
20528008 55 18335709325159103141
20645464 45 18040991847699290471
20871998 184 18187641350180184927
23402539 116 18187372021750412221
23402655 69 18263096564440019445
23463225 33 18342460369793458090
23552423 10 18272651199624596575
23559900 14 18334016129488086024
3312278 4 18410291406526485619
369184 2 18334013904309956793
6333449 129 18408325484120640565
7364860 26 18191869131318785878
75552 356 18411417289216496695

> <PUBCHEM_SHAPE_MULTIPOLES>
215.52
6.75
1.37
0.6
5.32
0.09
0
-0.03
-0.03
-0.66
0
-0.02
-0.01
0

> <PUBCHEM_SHAPE_SELFOVERLAP>
437.846

> <PUBCHEM_SHAPE_VOLUME>
125.2

> <PUBCHEM_COORDINATE_TYPE>
2
5
10

$$$$

