636458
  -OEChem-07051213093D

 36 37  0     0  0  0  0  0  0999 V2000
   -2.1480    1.4129    0.7204 O   0  0  0  0  0  0  0  0  0  0  0  0
   -1.4402   -0.6117    0.0019 C   0  0  0  0  0  0  0  0  0  0  0  0
   -1.0567    0.6072    0.5564 C   0  0  0  0  0  0  0  0  0  0  0  0
    0.2418    1.2175    0.9923 C   0  0  0  0  0  0  0  0  0  0  0  0
   -0.6180   -1.8187   -0.3500 C   0  0  0  0  0  0  0  0  0  0  0  0
    3.1539   -0.8806   -0.4897 C   0  0  0  0  0  0  0  0  0  0  0  0
    3.2303    0.4976    0.1903 C   0  0  0  0  0  0  0  0  0  0  0  0
    1.0660    1.8659   -0.1067 C   0  0  0  0  0  0  0  0  0  0  0  0
    1.9053   -1.6218   -0.0614 C   0  0  0  0  0  0  0  0  0  0  0  0
   -2.8536   -0.5157   -0.1717 C   0  0  0  0  0  0  0  0  0  0  0  0
    0.7722   -1.4524   -0.7688 C   0  0  0  0  0  0  0  0  0  0  0  0
    2.3296    1.5288   -0.4410 C   0  0  0  0  0  0  0  0  0  0  0  0
   -3.2268    0.7263    0.2762 C   0  0  0  0  0  0  0  0  0  0  0  0
    0.3765    2.9833   -0.8518 C   0  0  0  0  0  0  0  0  0  0  0  0
    2.0264   -2.3935    1.2235 C   0  0  0  0  0  0  0  0  0  0  0  0
   -3.7586   -1.5451   -0.7199 C   0  0  0  0  0  0  0  0  0  0  0  0
    0.0289    1.9902    1.7441 H   0  0  0  0  0  0  0  0  0  0  0  0
    0.8144    0.4593    1.5341 H   0  0  0  0  0  0  0  0  0  0  0  0
   -0.6379   -2.5050    0.5008 H   0  0  0  0  0  0  0  0  0  0  0  0
   -1.0822   -2.3568   -1.1855 H   0  0  0  0  0  0  0  0  0  0  0  0
    4.0366   -1.4724   -0.2177 H   0  0  0  0  0  0  0  0  0  0  0  0
    3.1914   -0.7705   -1.5813 H   0  0  0  0  0  0  0  0  0  0  0  0
    4.2595    0.8691    0.1004 H   0  0  0  0  0  0  0  0  0  0  0  0
    3.0445    0.4230    1.2676 H   0  0  0  0  0  0  0  0  0  0  0  0
    0.8254   -0.8756   -1.6923 H   0  0  0  0  0  0  0  0  0  0  0  0
    2.7968    2.0657   -1.2662 H   0  0  0  0  0  0  0  0  0  0  0  0
   -4.1718    1.2455    0.3454 H   0  0  0  0  0  0  0  0  0  0  0  0
    0.0108    3.7383   -0.1480 H   0  0  0  0  0  0  0  0  0  0  0  0
   -0.4726    2.5991   -1.4258 H   0  0  0  0  0  0  0  0  0  0  0  0
    1.0456    3.4905   -1.5552 H   0  0  0  0  0  0  0  0  0  0  0  0
    2.8531   -3.1084    1.1515 H   0  0  0  0  0  0  0  0  0  0  0  0
    1.1344   -2.9724    1.4703 H   0  0  0  0  0  0  0  0  0  0  0  0
    2.2289   -1.7189    2.0609 H   0  0  0  0  0  0  0  0  0  0  0  0
   -3.6338   -2.4937   -0.1877 H   0  0  0  0  0  0  0  0  0  0  0  0
   -4.8084   -1.2472   -0.6281 H   0  0  0  0  0  0  0  0  0  0  0  0
   -3.5491   -1.7142   -1.7810 H   0  0  0  0  0  0  0  0  0  0  0  0
  1  3  1  0  0  0  0
  1 13  1  0  0  0  0
  2  3  2  0  0  0  0
  2  5  1  0  0  0  0
  2 10  1  0  0  0  0
  3  4  1  0  0  0  0
  4  8  1  0  0  0  0
  4 17  1  0  0  0  0
  4 18  1  0  0  0  0
  5 11  1  0  0  0  0
  5 19  1  0  0  0  0
  5 20  1  0  0  0  0
  6  7  1  0  0  0  0
  6  9  1  0  0  0  0
  6 21  1  0  0  0  0
  6 22  1  0  0  0  0
  7 12  1  0  0  0  0
  7 23  1  0  0  0  0
  7 24  1  0  0  0  0
  8 12  2  0  0  0  0
  8 14  1  0  0  0  0
  9 11  2  0  0  0  0
  9 15  1  0  0  0  0
 10 13  2  0  0  0  0
 10 16  1  0  0  0  0
 11 25  1  0  0  0  0
 12 26  1  0  0  0  0
 13 27  1  0  0  0  0
 14 28  1  0  0  0  0
 14 29  1  0  0  0  0
 14 30  1  0  0  0  0
 15 31  1  0  0  0  0
 15 32  1  0  0  0  0
 15 33  1  0  0  0  0
 16 34  1  0  0  0  0
 16 35  1  0  0  0  0
 16 36  1  0  0  0  0
M  END
> <PUBCHEM_COMPOUND_CID>
636458

> <PUBCHEM_CONFORMER_RMSD>
0.4

> <PUBCHEM_CONFORMER_DIVERSEORDER>
1
2
3
4

> <PUBCHEM_MMFF94_PARTIAL_CHARGES>
19
1 -0.28
10 -0.18
11 -0.29
12 -0.29
13 -0.01
14 0.14
15 0.14
16 0.18
2 -0.18
25 0.15
26 0.15
27 0.15
3 -0.04
4 0.32
5 0.32
6 0.14
7 0.14
8 -0.28
9 -0.28

> <PUBCHEM_EFFECTIVE_ROTOR_COUNT>
0.8

> <PUBCHEM_PHARMACOPHORE_FEATURES>
2
1 1 acceptor
5 1 2 3 10 13 rings

> <PUBCHEM_HEAVY_ATOM_COUNT>
16

> <PUBCHEM_ATOM_DEF_STEREO_COUNT>
0

> <PUBCHEM_ATOM_UDEF_STEREO_COUNT>
0

> <PUBCHEM_BOND_DEF_STEREO_COUNT>
2

> <PUBCHEM_BOND_UDEF_STEREO_COUNT>
0

> <PUBCHEM_ISOTOPIC_ATOM_COUNT>
0

> <PUBCHEM_COMPONENT_COUNT>
1

> <PUBCHEM_CACTVS_TAUTO_COUNT>
1

> <PUBCHEM_CONFORMER_ID>
0009B62A00000001

> <PUBCHEM_MMFF94_ENERGY>
18.9305

> <PUBCHEM_FEATURE_SELFOVERLAP>
10.148

> <PUBCHEM_SHAPE_FINGERPRINT>
10062212 137 18259990370702411967
10967382 1 18265331707473367700
10980938 120 18411418414629998406
11132069 177 18188495807921590658
11321824 6 17190110847245298626
13140716 1 18265049322111400691
14251711 518 18410293657205691898
14251717 144 18338802216960858623
15196674 1 18334856117242273574
15536298 74 18186236230148745190
15757776 16 18412546518028942274
15775835 57 18410001126998738876
15881359 60 17756734157393170932
16945 1 18266448815582161899
20645476 183 17551506648282602028
20645477 70 18335704880369261495
20905425 154 18334010614059189628
21249577 28 18334576810965714455
21501502 16 18407758132158043747
2334 1 18408882957864178411
23388829 49 18335138700099130405
23402539 116 18261679276408190262
23419403 2 15225210712763455639
23463225 33 18409728490779763208
23552423 10 18338516331400757993
23559900 14 17823982432148471454
257057 1 18124890194136690706
2748010 2 18336541728364861055
2897 32 18193272988428470764
528862 383 18411141311692520779
7364860 26 18116435847209197560
7832392 63 18335696212718965497
81228 2 17687459478893394819
90316 7 17908995648541431714

> <PUBCHEM_SHAPE_MULTIPOLES>
323.4
5.39
2.92
0.97
2.32
0.69
-0.1
-1.35
0.42
-1.09
0.2
-0.11
-0.07
-0.81

> <PUBCHEM_SHAPE_SELFOVERLAP>
667.918

> <PUBCHEM_SHAPE_VOLUME>
185.7

> <PUBCHEM_COORDINATE_TYPE>
2
5
10

$$$$

