252291
  -OEChem-07051213072D

 51 54  0     1  0  0  0  0  0999 V2000
    9.9106    2.4920    0.0000 F   0  0  0  0  0  0  0  0  0  0  0  0
   11.7363    1.6754    0.0000 F   0  0  0  0  0  0  0  0  0  0  0  0
   11.0291    0.0943    0.0000 F   0  0  0  0  0  0  0  0  0  0  0  0
    8.8960    1.8625    0.0000 O   0  0  0  0  0  0  0  0  0  0  0  0
    2.8641   -2.4462    0.0000 O   0  0  0  0  0  0  0  0  0  0  0  0
    8.2572    0.6062    0.0000 C   0  0  1  0  0  0  0  0  0  0  0  0
    8.2572   -0.3938    0.0000 C   0  0  2  0  0  0  0  0  0  0  0  0
    7.3912   -0.8938    0.0000 C   0  0  1  0  0  0  0  0  0  0  0  0
    9.2034    0.9109    0.0000 C   0  0  2  0  0  0  0  0  0  0  0  0
    6.5251   -0.3938    0.0000 C   0  0  2  0  0  0  0  0  0  0  0  0
    7.3912    1.1062    0.0000 C   0  0  0  0  0  0  0  0  0  0  0  0
    9.2034   -0.6986    0.0000 C   0  0  0  0  0  0  0  0  0  0  0  0
    9.7870    0.1062    0.0000 C   0  0  0  0  0  0  0  0  0  0  0  0
    6.5251    0.6062    0.0000 C   0  0  0  0  0  0  0  0  0  0  0  0
    7.4072   -1.9353    0.0000 C   0  0  0  0  0  0  0  0  0  0  0  0
    8.2572    1.6062    0.0000 C   0  0  0  0  0  0  0  0  0  0  0  0
    5.6151   -0.9007    0.0000 C   0  0  0  0  0  0  0  0  0  0  0  0
    6.5092   -2.4631    0.0000 C   0  0  0  0  0  0  0  0  0  0  0  0
   10.0134    1.4973    0.0000 C   0  0  0  0  0  0  0  0  0  0  0  0
    5.6071   -1.9423    0.0000 C   0  0  0  0  0  0  0  0  0  0  0  0
    4.6883   -0.3366    0.0000 C   0  0  0  0  0  0  0  0  0  0  0  0
    4.6717   -2.4920    0.0000 C   0  0  0  0  0  0  0  0  0  0  0  0
   10.9263    1.0890    0.0000 C   0  0  0  0  0  0  0  0  0  0  0  0
    3.7404   -0.8645    0.0000 C   0  0  0  0  0  0  0  0  0  0  0  0
    3.7320   -1.9495    0.0000 C   0  0  0  0  0  0  0  0  0  0  0  0
    2.0000   -1.9428    0.0000 C   0  0  0  0  0  0  0  0  0  0  0  0
    8.3471   -1.2390    0.0000 H   0  0  0  0  0  0  0  0  0  0  0  0
    8.1305   -1.3131    0.0000 H   0  0  0  0  0  0  0  0  0  0  0  0
    7.2612    0.0312    0.0000 H   0  0  0  0  0  0  0  0  0  0  0  0
    7.7897    1.5811    0.0000 H   0  0  0  0  0  0  0  0  0  0  0  0
    6.9926    1.5811    0.0000 H   0  0  0  0  0  0  0  0  0  0  0  0
    8.9524   -1.2655    0.0000 H   0  0  0  0  0  0  0  0  0  0  0  0
    9.7408   -1.0078    0.0000 H   0  0  0  0  0  0  0  0  0  0  0  0
   10.2479   -0.3086    0.0000 H   0  0  0  0  0  0  0  0  0  0  0  0
   10.2479    0.5209    0.0000 H   0  0  0  0  0  0  0  0  0  0  0  0
    6.3131    1.1888    0.0000 H   0  0  0  0  0  0  0  0  0  0  0  0
    5.9145    0.4985    0.0000 H   0  0  0  0  0  0  0  0  0  0  0  0
    7.6252   -2.5157    0.0000 H   0  0  0  0  0  0  0  0  0  0  0  0
    8.0164   -1.8198    0.0000 H   0  0  0  0  0  0  0  0  0  0  0  0
    8.8772    1.6062    0.0000 H   0  0  0  0  0  0  0  0  0  0  0  0
    8.2572    2.2262    0.0000 H   0  0  0  0  0  0  0  0  0  0  0  0
    7.6372    1.6062    0.0000 H   0  0  0  0  0  0  0  0  0  0  0  0
    6.1119   -2.9390    0.0000 H   0  0  0  0  0  0  0  0  0  0  0  0
    6.9101   -2.9360    0.0000 H   0  0  0  0  0  0  0  0  0  0  0  0
    9.3117    2.3225    0.0000 H   0  0  0  0  0  0  0  0  0  0  0  0
    4.7002    0.2833    0.0000 H   0  0  0  0  0  0  0  0  0  0  0  0
    4.6741   -3.1120    0.0000 H   0  0  0  0  0  0  0  0  0  0  0  0
    3.2071   -0.5483    0.0000 H   0  0  0  0  0  0  0  0  0  0  0  0
    2.3121   -1.4071    0.0000 H   0  0  0  0  0  0  0  0  0  0  0  0
    1.4643   -1.6308    0.0000 H   0  0  0  0  0  0  0  0  0  0  0  0
    1.6879   -2.4786    0.0000 H   0  0  0  0  0  0  0  0  0  0  0  0
  1 19  1  0  0  0  0
  2 23  1  0  0  0  0
  3 23  1  0  0  0  0
  9  4  1  1  0  0  0
  4 45  1  0  0  0  0
  5 25  1  0  0  0  0
  5 26  1  0  0  0  0
  6  7  1  0  0  0  0
  6  9  1  0  0  0  0
  6 11  1  0  0  0  0
  6 16  1  1  0  0  0
  7  8  1  0  0  0  0
  7 12  1  0  0  0  0
  7 27  1  6  0  0  0
  8 10  1  0  0  0  0
  8 15  1  0  0  0  0
  8 28  1  1  0  0  0
  9 13  1  0  0  0  0
  9 19  1  0  0  0  0
 10 14  1  0  0  0  0
 10 17  1  0  0  0  0
 10 29  1  6  0  0  0
 11 14  1  0  0  0  0
 11 30  1  0  0  0  0
 11 31  1  0  0  0  0
 12 13  1  0  0  0  0
 12 32  1  0  0  0  0
 12 33  1  0  0  0  0
 13 34  1  0  0  0  0
 13 35  1  0  0  0  0
 14 36  1  0  0  0  0
 14 37  1  0  0  0  0
 15 18  1  0  0  0  0
 15 38  1  0  0  0  0
 15 39  1  0  0  0  0
 16 40  1  0  0  0  0
 16 41  1  0  0  0  0
 16 42  1  0  0  0  0
 17 20  2  0  0  0  0
 17 21  1  0  0  0  0
 18 20  1  0  0  0  0
 18 43  1  0  0  0  0
 18 44  1  0  0  0  0
 19 23  2  0  0  0  0
 20 22  1  0  0  0  0
 21 24  2  0  0  0  0
 21 46  1  0  0  0  0
 22 25  2  0  0  0  0
 22 47  1  0  0  0  0
 24 25  1  0  0  0  0
 24 48  1  0  0  0  0
 26 49  1  0  0  0  0
 26 50  1  0  0  0  0
 26 51  1  0  0  0  0
M  END
> <PUBCHEM_COMPOUND_CID>
252291

> <PUBCHEM_COMPOUND_CANONICALIZED>
1

> <PUBCHEM_CACTVS_COMPLEXITY>
590

> <PUBCHEM_CACTVS_HBOND_ACCEPTOR>
5

> <PUBCHEM_CACTVS_HBOND_DONOR>
1

> <PUBCHEM_CACTVS_ROTATABLE_BOND>
2

> <PUBCHEM_CACTVS_SUBSKEYS>
AAADceB4MYAAAAAAAAAAAAAAAAAAAYAAAAAwYMAAAAAAAGDBAAAAGwAACAAAD0SAmBIyBoAABgCAAiBCAAACCAAgIAAIiAAGCIgMJiKEMRqAcCAkwBEIuAeAwPAPoAABAAAQAADAAAYAACAAAYAADAAAAA==

> <PUBCHEM_IUPAC_OPENEYE_NAME>
(8R,9S,13S,14S,17S)-3-methoxy-13-methyl-17-(1,2,2-trifluorovinyl)-7,8,9,11,12,14,15,16-octahydro-6H-cyclopenta[a]phenanthren-17-ol

> <PUBCHEM_IUPAC_CAS_NAME>
(8R,9S,13S,14S,17S)-3-methoxy-13-methyl-17-(1,2,2-trifluoroethenyl)-7,8,9,11,12,14,15,16-octahydro-6H-cyclopenta[a]phenanthren-17-ol

> <PUBCHEM_IUPAC_NAME>
(8R,9S,13S,14S,17S)-3-methoxy-13-methyl-17-(1,2,2-trifluoroethenyl)-7,8,9,11,12,14,15,16-octahydro-6H-cyclopenta[a]phenanthren-17-ol

> <PUBCHEM_IUPAC_SYSTEMATIC_NAME>
(8R,9S,13S,14S,17S)-3-methoxy-13-methyl-17-[1,2,2-tris(fluoranyl)ethenyl]-7,8,9,11,12,14,15,16-octahydro-6H-cyclopenta[a]phenanthren-17-ol

> <PUBCHEM_IUPAC_TRADITIONAL_NAME>
(8R,9S,13S,14S,17S)-3-methoxy-13-methyl-17-(1,2,2-trifluorovinyl)-7,8,9,11,12,14,15,16-octahydro-6H-cyclopenta[a]phenanthren-17-ol

> <PUBCHEM_IUPAC_INCHI>
InChI=1S/C21H25F3O2/c1-20-9-7-15-14-6-4-13(26-2)11-12(14)3-5-16(15)17(20)8-10-21(20,25)18(22)19(23)24/h4,6,11,15-17,25H,3,5,7-10H2,1-2H3/t15-,16-,17+,20+,21-/m1/s1

> <PUBCHEM_IUPAC_INCHIKEY>
AWUGBSODAQALNP-JPDLMGPVSA-N

> <PUBCHEM_XLOGP3>
4.5

> <PUBCHEM_EXACT_MASS>
366.180665

> <PUBCHEM_MOLECULAR_FORMULA>
C21H25F3O2

> <PUBCHEM_MOLECULAR_WEIGHT>
366.41721

> <PUBCHEM_OPENEYE_CAN_SMILES>
CC12CCC3C(C1CCC2(C(=C(F)F)F)O)CCC4=C3C=CC(=C4)OC

> <PUBCHEM_OPENEYE_ISO_SMILES>
C[C@]12CC[C@H]3[C@H]([C@@H]1CC[C@]2(C(=C(F)F)F)O)CCC4=C3C=CC(=C4)OC

> <PUBCHEM_CACTVS_TPSA>
29.5

> <PUBCHEM_MONOISOTOPIC_WEIGHT>
366.180665

> <PUBCHEM_TOTAL_CHARGE>
0

> <PUBCHEM_HEAVY_ATOM_COUNT>
26

> <PUBCHEM_ATOM_DEF_STEREO_COUNT>
5

> <PUBCHEM_ATOM_UDEF_STEREO_COUNT>
0

> <PUBCHEM_BOND_DEF_STEREO_COUNT>
0

> <PUBCHEM_BOND_UDEF_STEREO_COUNT>
0

> <PUBCHEM_ISOTOPIC_ATOM_COUNT>
0

> <PUBCHEM_COMPONENT_COUNT>
1

> <PUBCHEM_CACTVS_TAUTO_COUNT>
1

> <PUBCHEM_COORDINATE_TYPE>
1
5
255

> <PUBCHEM_BONDANNOTATIONS>
10  29  6
17  20  8
17  21  8
20  22  8
21  24  8
22  25  8
24  25  8
9  4  5
6  16  5
7  27  6
8  28  5

$$$$

