442431
  -OEChem-07051212582D

 73 77  0     1  0  0  0  0  0999 V2000
   12.1292   -0.3159    0.0000 O   0  0  0  0  0  0  0  0  0  0  0  0
   13.8574    0.6908    0.0000 O   0  0  0  0  0  0  0  0  0  0  0  0
   14.7176    2.1941    0.0000 O   0  0  0  0  0  0  0  0  0  0  0  0
   13.8690   -2.3092    0.0000 O   0  0  0  0  0  0  0  0  0  0  0  0
   10.3972   -0.3225    0.0000 O   0  0  0  0  0  0  0  0  0  0  0  0
   12.1408   -3.3158    0.0000 O   0  0  0  0  0  0  0  0  0  0  0  0
   10.4049   -2.3225    0.0000 O   0  0  0  0  0  0  0  0  0  0  0  0
   15.5933   -0.3025    0.0000 O   0  0  0  0  0  0  0  0  0  0  0  0
   17.3215    0.7042    0.0000 O   0  0  0  0  0  0  0  0  0  0  0  0
   17.3138    2.7042    0.0000 O   0  0  0  0  0  0  0  0  0  0  0  0
    6.8671   -0.3467    0.0000 O   0  0  0  0  0  0  0  0  0  0  0  0
    8.6155   -3.3813    0.0000 O   0  0  0  0  0  0  0  0  0  0  0  0
    6.8671   -3.3467    0.0000 O   0  0  0  0  0  0  0  0  0  0  0  0
    2.5369    1.1533    0.0000 O   0  0  0  0  0  0  0  0  0  0  0  0
   12.9972   -0.8125    0.0000 C   0  0  1  0  0  0  0  0  0  0  0  0
   13.0010   -1.8125    0.0000 C   0  0  2  0  0  0  0  0  0  0  0  0
   12.1369   -2.3158    0.0000 C   0  0  1  0  0  0  0  0  0  0  0  0
   11.2690   -1.8192    0.0000 C   0  0  2  0  0  0  0  0  0  0  0  0
   15.5894    0.6975    0.0000 C   0  0  1  0  0  0  0  0  0  0  0  0
   14.7215    1.1942    0.0000 C   0  0  2  0  0  0  0  0  0  0  0  0
   16.4535    1.2008    0.0000 C   0  0  1  0  0  0  0  0  0  0  0  0
   16.4497    2.2008    0.0000 C   0  0  2  0  0  0  0  0  0  0  0  0
   11.2651   -0.8192    0.0000 C   0  0  1  0  0  0  0  0  0  0  0  0
   13.8613   -0.3092    0.0000 C   0  0  0  0  0  0  0  0  0  0  0  0
   15.5817    2.6975    0.0000 C   0  0  2  0  0  0  0  0  0  0  0  0
   15.5779    3.6975    0.0000 C   0  0  0  0  0  0  0  0  0  0  0  0
    9.5331   -0.8259    0.0000 C   0  0  0  0  0  0  0  0  0  0  0  0
    8.6270   -0.3120    0.0000 C   0  0  0  0  0  0  0  0  0  0  0  0
    7.7331   -0.8467    0.0000 C   0  0  0  0  0  0  0  0  0  0  0  0
    9.5331   -1.8675    0.0000 C   0  0  0  0  0  0  0  0  0  0  0  0
    7.7331   -1.8467    0.0000 C   0  0  0  0  0  0  0  0  0  0  0  0
    6.0010   -0.8467    0.0000 C   0  0  1  0  0  0  0  0  0  0  0  0
    6.0010   -1.8467    0.0000 C   0  0  0  0  0  0  0  0  0  0  0  0
    8.6270   -2.3813    0.0000 C   0  0  0  0  0  0  0  0  0  0  0  0
    6.8671   -2.3467    0.0000 C   0  0  0  0  0  0  0  0  0  0  0  0
    5.1350   -0.3467    0.0000 C   0  0  0  0  0  0  0  0  0  0  0  0
    5.1350    0.6533    0.0000 C   0  0  0  0  0  0  0  0  0  0  0  0
    4.2690   -0.8467    0.0000 C   0  0  0  0  0  0  0  0  0  0  0  0
    4.2690    1.1533    0.0000 C   0  0  0  0  0  0  0  0  0  0  0  0
    3.4030   -0.3467    0.0000 C   0  0  0  0  0  0  0  0  0  0  0  0
    3.4030    0.6533    0.0000 C   0  0  0  0  0  0  0  0  0  0  0  0
   12.9948   -0.1925    0.0000 H   0  0  0  0  0  0  0  0  0  0  0  0
   13.0034   -2.4325    0.0000 H   0  0  0  0  0  0  0  0  0  0  0  0
   11.6012   -2.6279    0.0000 H   0  0  0  0  0  0  0  0  0  0  0  0
   11.2714   -2.4392    0.0000 H   0  0  0  0  0  0  0  0  0  0  0  0
   16.1276    0.3896    0.0000 H   0  0  0  0  0  0  0  0  0  0  0  0
   14.1834    1.5021    0.0000 H   0  0  0  0  0  0  0  0  0  0  0  0
   16.4559    0.5808    0.0000 H   0  0  0  0  0  0  0  0  0  0  0  0
   16.9878    1.8929    0.0000 H   0  0  0  0  0  0  0  0  0  0  0  0
   10.7294   -1.1313    0.0000 H   0  0  0  0  0  0  0  0  0  0  0  0
   14.0756   -0.8910    0.0000 H   0  0  0  0  0  0  0  0  0  0  0  0
   14.4714   -0.1992    0.0000 H   0  0  0  0  0  0  0  0  0  0  0  0
   15.0436    3.0054    0.0000 H   0  0  0  0  0  0  0  0  0  0  0  0
   16.1979    3.6999    0.0000 H   0  0  0  0  0  0  0  0  0  0  0  0
   15.5755    4.3175    0.0000 H   0  0  0  0  0  0  0  0  0  0  0  0
   14.9579    3.6951    0.0000 H   0  0  0  0  0  0  0  0  0  0  0  0
   14.4047   -1.9971    0.0000 H   0  0  0  0  0  0  0  0  0  0  0  0
   12.6789   -3.6238    0.0000 H   0  0  0  0  0  0  0  0  0  0  0  0
   10.4073   -2.9425    0.0000 H   0  0  0  0  0  0  0  0  0  0  0  0
   16.1314   -0.6104    0.0000 H   0  0  0  0  0  0  0  0  0  0  0  0
   17.8572    1.0162    0.0000 H   0  0  0  0  0  0  0  0  0  0  0  0
   17.3114    3.3241    0.0000 H   0  0  0  0  0  0  0  0  0  0  0  0
    8.6199    0.3079    0.0000 H   0  0  0  0  0  0  0  0  0  0  0  0
   10.0688   -2.1796    0.0000 H   0  0  0  0  0  0  0  0  0  0  0  0
    5.4641   -1.1567    0.0000 H   0  0  0  0  0  0  0  0  0  0  0  0
    5.3905   -1.7390    0.0000 H   0  0  0  0  0  0  0  0  0  0  0  0
    5.7890   -2.4293    0.0000 H   0  0  0  0  0  0  0  0  0  0  0  0
    5.6720    0.9633    0.0000 H   0  0  0  0  0  0  0  0  0  0  0  0
    4.2690   -1.4667    0.0000 H   0  0  0  0  0  0  0  0  0  0  0  0
    9.1488   -3.6975    0.0000 H   0  0  0  0  0  0  0  0  0  0  0  0
    4.2690    1.7733    0.0000 H   0  0  0  0  0  0  0  0  0  0  0  0
    2.8660   -0.6567    0.0000 H   0  0  0  0  0  0  0  0  0  0  0  0
    2.0000    0.8433    0.0000 H   0  0  0  0  0  0  0  0  0  0  0  0
  1 15  1  0  0  0  0
  1 23  1  0  0  0  0
 20  2  1  6  0  0  0
  2 24  1  0  0  0  0
  3 20  1  0  0  0  0
  3 25  1  0  0  0  0
 16  4  1  1  0  0  0
  4 57  1  0  0  0  0
 23  5  1  6  0  0  0
  5 27  1  0  0  0  0
 17  6  1  6  0  0  0
  6 58  1  0  0  0  0
 18  7  1  1  0  0  0
  7 59  1  0  0  0  0
 19  8  1  1  0  0  0
  8 60  1  0  0  0  0
 21  9  1  1  0  0  0
  9 61  1  0  0  0  0
 22 10  1  6  0  0  0
 10 62  1  0  0  0  0
 11 29  1  0  0  0  0
 11 32  1  0  0  0  0
 12 34  1  0  0  0  0
 12 70  1  0  0  0  0
 13 35  2  0  0  0  0
 14 41  1  0  0  0  0
 14 73  1  0  0  0  0
 15 16  1  0  0  0  0
 15 24  1  6  0  0  0
 15 42  1  0  0  0  0
 16 17  1  0  0  0  0
 16 43  1  0  0  0  0
 17 18  1  0  0  0  0
 17 44  1  0  0  0  0
 18 23  1  0  0  0  0
 18 45  1  0  0  0  0
 19 20  1  0  0  0  0
 19 21  1  0  0  0  0
 19 46  1  0  0  0  0
 20 47  1  0  0  0  0
 21 22  1  0  0  0  0
 21 48  1  0  0  0  0
 22 25  1  0  0  0  0
 22 49  1  0  0  0  0
 23 50  1  0  0  0  0
 24 51  1  0  0  0  0
 24 52  1  0  0  0  0
 25 26  1  1  0  0  0
 25 53  1  0  0  0  0
 26 54  1  0  0  0  0
 26 55  1  0  0  0  0
 26 56  1  0  0  0  0
 27 28  1  0  0  0  0
 27 30  2  0  0  0  0
 28 29  2  0  0  0  0
 28 63  1  0  0  0  0
 29 31  1  0  0  0  0
 30 34  1  0  0  0  0
 30 64  1  0  0  0  0
 31 34  2  0  0  0  0
 31 35  1  0  0  0  0
 32 33  1  0  0  0  0
 32 36  1  1  0  0  0
 32 65  1  0  0  0  0
 33 35  1  0  0  0  0
 33 66  1  0  0  0  0
 33 67  1  0  0  0  0
 36 37  2  0  0  0  0
 36 38  1  0  0  0  0
 37 39  1  0  0  0  0
 37 68  1  0  0  0  0
 38 40  2  0  0  0  0
 38 69  1  0  0  0  0
 39 41  2  0  0  0  0
 39 71  1  0  0  0  0
 40 41  1  0  0  0  0
 40 72  1  0  0  0  0
M  END
> <PUBCHEM_COMPOUND_CID>
442431

> <PUBCHEM_COMPOUND_CANONICALIZED>
1

> <PUBCHEM_CACTVS_COMPLEXITY>
884

> <PUBCHEM_CACTVS_HBOND_ACCEPTOR>
14

> <PUBCHEM_CACTVS_HBOND_DONOR>
8

> <PUBCHEM_CACTVS_ROTATABLE_BOND>
6

> <PUBCHEM_CACTVS_SUBSKEYS>
AAADcfB4PAAAAAAAAAAAAAAAAAAAAAAAAAA0aJECAAAAAACRQAAAGgAACAAADBSwmAMyDoAABgCIAqBSAAACCAAkIAAIiAEGCMgdNzaGNRqieWCl4BUPuQfI7OzOIAAACAAIAABAAAAQABAAAAAAAAAAAA==

> <PUBCHEM_IUPAC_OPENEYE_NAME>
(2S)-5-hydroxy-2-(4-hydroxyphenyl)-7-[(2S,3R,4S,5S,6R)-3,4,5-trihydroxy-6-[[(2R,3R,4R,5R,6S)-3,4,5-trihydroxy-6-methyl-tetrahydropyran-2-yl]oxymethyl]tetrahydropyran-2-yl]oxy-chroman-4-one

> <PUBCHEM_IUPAC_CAS_NAME>
(2S)-5-hydroxy-2-(4-hydroxyphenyl)-7-[[(2S,3R,4S,5S,6R)-3,4,5-trihydroxy-6-[[(2R,3R,4R,5R,6S)-3,4,5-trihydroxy-6-methyl-2-oxanyl]oxymethyl]-2-oxanyl]oxy]-3,4-dihydro-2H-1-benzopyran-4-one

> <PUBCHEM_IUPAC_NAME>
(2S)-5-hydroxy-2-(4-hydroxyphenyl)-7-[(2S,3R,4S,5S,6R)-3,4,5-trihydroxy-6-[[(2R,3R,4R,5R,6S)-3,4,5-trihydroxy-6-methyloxan-2-yl]oxymethyl]oxan-2-yl]oxy-2,3-dihydrochromen-4-one

> <PUBCHEM_IUPAC_SYSTEMATIC_NAME>
(2S)-2-(4-hydroxyphenyl)-7-[(2S,3R,4S,5S,6R)-6-[[(2R,3R,4R,5R,6S)-6-methyl-3,4,5-tris(oxidanyl)oxan-2-yl]oxymethyl]-3,4,5-tris(oxidanyl)oxan-2-yl]oxy-5-oxidanyl-2,3-dihydrochromen-4-one

> <PUBCHEM_IUPAC_TRADITIONAL_NAME>
(2S)-5-hydroxy-2-(4-hydroxyphenyl)-7-[(2S,3R,4S,5S,6R)-3,4,5-trihydroxy-6-[[(2R,3R,4R,5R,6S)-3,4,5-trihydroxy-6-methyl-tetrahydropyran-2-yl]oxymethyl]tetrahydropyran-2-yl]oxy-chroman-4-one

> <PUBCHEM_IUPAC_INCHI>
InChI=1S/C27H32O14/c1-10-20(31)22(33)24(35)26(38-10)37-9-18-21(32)23(34)25(36)27(41-18)39-13-6-14(29)19-15(30)8-16(40-17(19)7-13)11-2-4-12(28)5-3-11/h2-7,10,16,18,20-29,31-36H,8-9H2,1H3/t10-,16-,18+,20-,21+,22+,23-,24+,25+,26+,27+/m0/s1

> <PUBCHEM_IUPAC_INCHIKEY>
HXTFHSYLYXVTHC-AJHDJQPGSA-N

> <PUBCHEM_XLOGP3_AA>
-1.1

> <PUBCHEM_EXACT_MASS>
580.179206

> <PUBCHEM_MOLECULAR_FORMULA>
C27H32O14

> <PUBCHEM_MOLECULAR_WEIGHT>
580.53458

> <PUBCHEM_OPENEYE_CAN_SMILES>
CC1C(C(C(C(O1)OCC2C(C(C(C(O2)OC3=CC(=C4C(=O)CC(OC4=C3)C5=CC=C(C=C5)O)O)O)O)O)O)O)O

> <PUBCHEM_OPENEYE_ISO_SMILES>
C[C@H]1[C@@H]([C@H]([C@H]([C@@H](O1)OC[C@@H]2[C@H]([C@@H]([C@H]([C@@H](O2)OC3=CC(=C4C(=O)C[C@H](OC4=C3)C5=CC=C(C=C5)O)O)O)O)O)O)O)O

> <PUBCHEM_CACTVS_TPSA>
225

> <PUBCHEM_MONOISOTOPIC_WEIGHT>
580.179206

> <PUBCHEM_TOTAL_CHARGE>
0

> <PUBCHEM_HEAVY_ATOM_COUNT>
41

> <PUBCHEM_ATOM_DEF_STEREO_COUNT>
11

> <PUBCHEM_ATOM_UDEF_STEREO_COUNT>
0

> <PUBCHEM_BOND_DEF_STEREO_COUNT>
0

> <PUBCHEM_BOND_UDEF_STEREO_COUNT>
0

> <PUBCHEM_ISOTOPIC_ATOM_COUNT>
0

> <PUBCHEM_COMPONENT_COUNT>
1

> <PUBCHEM_CACTVS_TAUTO_COUNT>
18

> <PUBCHEM_COORDINATE_TYPE>
1
5
255

> <PUBCHEM_BONDANNOTATIONS>
22  10  6
15  24  6
20  2  6
25  26  5
27  28  8
27  30  8
28  29  8
29  31  8
30  34  8
31  34  8
32  36  5
36  37  8
36  38  8
37  39  8
38  40  8
39  41  8
16  4  5
40  41  8
23  5  6
17  6  6
18  7  5
19  8  5
21  9  5

$$$$

