158899
  -OEChem-07051212493D

 30 31  0     0  0  0  0  0  0999 V2000
    3.7177   -2.8961   -0.1284 O   0  0  0  0  0  0  0  0  0  0  0  0
   -0.8653   -2.1824   -0.1233 O   0  0  0  0  0  0  0  0  0  0  0  0
    2.5073    3.2158   -0.3775 O   0  0  0  0  0  0  0  0  0  0  0  0
    0.5757    2.6381    0.6720 O   0  0  0  0  0  0  0  0  0  0  0  0
   -0.0794    0.0271   -0.0203 N   0  0  0  0  0  0  0  0  0  0  0  0
    1.3110   -0.1475    0.0000 C   0  0  0  0  0  0  0  0  0  0  0  0
    2.1667    0.9476    0.0934 C   0  0  0  0  0  0  0  0  0  0  0  0
    1.8285   -1.4387   -0.0733 C   0  0  0  0  0  0  0  0  0  0  0  0
   -2.4454   -0.4770   -0.0584 C   0  0  0  0  0  0  0  0  0  0  0  0
    3.5474    0.7506    0.1133 C   0  0  0  0  0  0  0  0  0  0  0  0
   -1.0736   -0.9590   -0.0790 C   0  0  0  0  0  0  0  0  0  0  0  0
    3.2091   -1.6359   -0.0535 C   0  0  0  0  0  0  0  0  0  0  0  0
    4.0685   -0.5412    0.0398 C   0  0  0  0  0  0  0  0  0  0  0  0
   -3.4629   -1.2897    0.4413 C   0  0  0  0  0  0  0  0  0  0  0  0
   -2.7437    0.7979   -0.5388 C   0  0  0  0  0  0  0  0  0  0  0  0
    1.6541    2.3100    0.1714 C   0  0  0  0  0  0  0  0  0  0  0  0
   -4.7789   -0.8274    0.4606 C   0  0  0  0  0  0  0  0  0  0  0  0
   -4.0596    1.2604   -0.5194 C   0  0  0  0  0  0  0  0  0  0  0  0
   -5.0771    0.4476   -0.0197 C   0  0  0  0  0  0  0  0  0  0  0  0
   -0.3805    0.9914    0.0713 H   0  0  0  0  0  0  0  0  0  0  0  0
    1.2374   -2.3382   -0.1548 H   0  0  0  0  0  0  0  0  0  0  0  0
    4.2437    1.5807    0.1988 H   0  0  0  0  0  0  0  0  0  0  0  0
    5.1460   -0.6819    0.0587 H   0  0  0  0  0  0  0  0  0  0  0  0
   -3.2523   -2.2845    0.8254 H   0  0  0  0  0  0  0  0  0  0  0  0
   -1.9950    1.4520   -0.9754 H   0  0  0  0  0  0  0  0  0  0  0  0
   -5.5712   -1.4598    0.8504 H   0  0  0  0  0  0  0  0  0  0  0  0
   -4.2941    2.2495   -0.9020 H   0  0  0  0  0  0  0  0  0  0  0  0
   -6.1019    0.8069   -0.0065 H   0  0  0  0  0  0  0  0  0  0  0  0
    4.6887   -2.8460   -0.1024 H   0  0  0  0  0  0  0  0  0  0  0  0
    2.1557    4.1299   -0.3205 H   0  0  0  0  0  0  0  0  0  0  0  0
  1 12  1  0  0  0  0
  1 29  1  0  0  0  0
  2 11  2  0  0  0  0
  3 16  1  0  0  0  0
  3 30  1  0  0  0  0
  4 16  2  0  0  0  0
  5  6  1  0  0  0  0
  5 11  1  0  0  0  0
  5 20  1  0  0  0  0
  6  7  2  0  0  0  0
  6  8  1  0  0  0  0
  7 10  1  0  0  0  0
  7 16  1  0  0  0  0
  8 12  2  0  0  0  0
  8 21  1  0  0  0  0
  9 11  1  0  0  0  0
  9 14  2  0  0  0  0
  9 15  1  0  0  0  0
 10 13  2  0  0  0  0
 10 22  1  0  0  0  0
 12 13  1  0  0  0  0
 13 23  1  0  0  0  0
 14 17  1  0  0  0  0
 14 24  1  0  0  0  0
 15 18  2  0  0  0  0
 15 25  1  0  0  0  0
 17 19  2  0  0  0  0
 17 26  1  0  0  0  0
 18 19  1  0  0  0  0
 18 27  1  0  0  0  0
 19 28  1  0  0  0  0
M  END
> <PUBCHEM_COMPOUND_CID>
158899

> <PUBCHEM_CONFORMER_RMSD>
0.6

> <PUBCHEM_CONFORMER_DIVERSEORDER>
1
5
7
3
9
8
2
6
4

> <PUBCHEM_MMFF94_PARTIAL_CHARGES>
30
1 -0.53
10 -0.15
11 0.54
12 0.08
13 -0.15
14 -0.15
15 -0.15
16 0.63
17 -0.15
18 -0.15
19 -0.15
2 -0.57
20 0.37
21 0.15
22 0.15
23 0.15
24 0.15
25 0.15
26 0.15
27 0.15
28 0.15
29 0.45
3 -0.65
30 0.5
4 -0.57
5 -0.55
6 0.12
7 0.09
8 -0.15
9 0.09

> <PUBCHEM_EFFECTIVE_ROTOR_COUNT>
4

> <PUBCHEM_PHARMACOPHORE_FEATURES>
8
1 1 donor
1 2 acceptor
1 3 acceptor
1 4 acceptor
1 5 donor
3 3 4 16 anion
6 6 7 8 10 12 13 rings
6 9 14 15 17 18 19 rings

> <PUBCHEM_HEAVY_ATOM_COUNT>
19

> <PUBCHEM_ATOM_DEF_STEREO_COUNT>
0

> <PUBCHEM_ATOM_UDEF_STEREO_COUNT>
0

> <PUBCHEM_BOND_DEF_STEREO_COUNT>
0

> <PUBCHEM_BOND_UDEF_STEREO_COUNT>
0

> <PUBCHEM_ISOTOPIC_ATOM_COUNT>
0

> <PUBCHEM_COMPONENT_COUNT>
1

> <PUBCHEM_CACTVS_TAUTO_COUNT>
17

> <PUBCHEM_CONFORMER_ID>
00026CB300000001

> <PUBCHEM_MMFF94_ENERGY>
65.2675

> <PUBCHEM_FEATURE_SELFOVERLAP>
40.652

> <PUBCHEM_SHAPE_FINGERPRINT>
10608611 8 18341052917547648541
10967382 1 18409731751081966498
11471102 20 18409732863098714102
116883 192 18045779246155043926
12293681 160 17681253492075967672
12403259 226 18413111679985564181
12507557 5 18408887343300029513
13134695 92 17822023028964970416
13140716 1 18120663431195612520
138480 1 18410575067605347536
14178342 30 17974311840780022050
14341114 176 18411410731260378185
14790565 3 17907857310927134708
14866123 147 17183904108333255898
15003188 100 18199767937433236709
15042514 8 17690000454871590042
15196674 1 18411138065040071389
15442244 35 18336545018304736401
1601671 61 18411418397856272244
17492 89 18337955584734878951
17804303 29 18343297102505806399
18186145 218 18260258651381275187
18785283 64 18199468766653351412
200 152 18040159526509406879
20645477 70 18334857263756559374
20681677 76 18340771438503070723
21065198 57 18412543206741162283
21065199 12 18342455890216337187
21267235 1 18337101363057561158
21279426 13 18124318465444092589
21478907 32 17906171012055469658
221357 26 18411704326582174205
221490 88 18341324496724757987
22289505 5 18410859892729850276
23402539 116 18114472239748364807
23559900 14 18410015446129637898
3004659 81 18058724849206942846
34934 24 18335147471008002222
351380 180 18411141338111047663
4214541 1 18412262852803637427
5104073 3 18411981364789096955
5281201 14 18413106169283898253
6443956 14 18339637966373836590
7364860 26 18337390440041684380
77779 3 18413106160873512803
7832392 63 18335146336841315046
81228 2 17902782291522109370
9709674 26 18341327799739621115
9971528 1 18260554450152974394
9981440 41 17761783862038888528

> <PUBCHEM_SHAPE_MULTIPOLES>
362.55
9.6
2.84
0.68
7.12
1.06
-0.01
-1.35
-0.09
-2.85
0
0.18
0.07
0.51

> <PUBCHEM_SHAPE_SELFOVERLAP>
788.688

> <PUBCHEM_SHAPE_VOLUME>
196.3

> <PUBCHEM_COORDINATE_TYPE>
2
5
10

$$$$

