17396044
  -OEChem-06241222542D

 48 50  0     0  0  0  0  0  0999 V2000
    6.3301    1.3988    0.0000 O   0  0  0  0  0  0  0  0  0  0  0  0
    2.0000   -3.1012    0.0000 O   0  5  0  0  0  0  0  0  0  0  0  0
    2.8660   -1.6012    0.0000 O   0  0  0  0  0  0  0  0  0  0  0  0
    4.5981    0.3988    0.0000 N   0  0  0  0  0  0  0  0  0  0  0  0
    5.4641    2.8988    0.0000 N   0  0  0  0  0  0  0  0  0  0  0  0
    4.5981   -1.6012    0.0000 N   0  0  0  0  0  0  0  0  0  0  0  0
    2.8660   -2.6012    0.0000 N   0  3  0  0  0  0  0  0  0  0  0  0
    6.3301    3.3988    0.0000 C   0  0  0  0  0  0  0  0  0  0  0  0
    7.2437    2.9920    0.0000 C   0  0  0  0  0  0  0  0  0  0  0  0
    6.4347    4.3933    0.0000 C   0  0  0  0  0  0  0  0  0  0  0  0
    7.4128    4.6012    0.0000 C   0  0  0  0  0  0  0  0  0  0  0  0
    7.9128    3.7352    0.0000 C   0  0  0  0  0  0  0  0  0  0  0  0
    5.4641   -0.1012    0.0000 C   0  0  0  0  0  0  0  0  0  0  0  0
    3.7320   -0.1012    0.0000 C   0  0  0  0  0  0  0  0  0  0  0  0
    5.4641   -1.1012    0.0000 C   0  0  0  0  0  0  0  0  0  0  0  0
    3.7320   -1.1012    0.0000 C   0  0  0  0  0  0  0  0  0  0  0  0
    4.5981    1.3988    0.0000 C   0  0  0  0  0  0  0  0  0  0  0  0
    5.4641    1.8988    0.0000 C   0  0  0  0  0  0  0  0  0  0  0  0
    4.5981   -2.6012    0.0000 C   0  0  0  0  0  0  0  0  0  0  0  0
    3.7320   -3.1012    0.0000 C   0  0  0  0  0  0  0  0  0  0  0  0
    5.4641   -3.1012    0.0000 C   0  0  0  0  0  0  0  0  0  0  0  0
    3.7320   -4.1012    0.0000 C   0  0  0  0  0  0  0  0  0  0  0  0
    5.4641   -4.1012    0.0000 C   0  0  0  0  0  0  0  0  0  0  0  0
    4.5981   -4.6012    0.0000 C   0  0  0  0  0  0  0  0  0  0  0  0
    5.8102    3.7365    0.0000 H   0  0  0  0  0  0  0  0  0  0  0  0
    6.9337    2.4551    0.0000 H   0  0  0  0  0  0  0  0  0  0  0  0
    7.7453    2.6276    0.0000 H   0  0  0  0  0  0  0  0  0  0  0  0
    6.3698    5.0099    0.0000 H   0  0  0  0  0  0  0  0  0  0  0  0
    5.8147    4.3933    0.0000 H   0  0  0  0  0  0  0  0  0  0  0  0
    7.9792    4.8534    0.0000 H   0  0  0  0  0  0  0  0  0  0  0  0
    7.2212    5.1909    0.0000 H   0  0  0  0  0  0  0  0  0  0  0  0
    8.3277    3.2744    0.0000 H   0  0  0  0  0  0  0  0  0  0  0  0
    8.4144    4.0996    0.0000 H   0  0  0  0  0  0  0  0  0  0  0  0
    3.5200    0.4814    0.0000 H   0  0  0  0  0  0  0  0  0  0  0  0
    3.1215   -0.2089    0.0000 H   0  0  0  0  0  0  0  0  0  0  0  0
    6.0747   -0.2089    0.0000 H   0  0  0  0  0  0  0  0  0  0  0  0
    5.6762    0.4814    0.0000 H   0  0  0  0  0  0  0  0  0  0  0  0
    4.9272    3.2088    0.0000 H   0  0  0  0  0  0  0  0  0  0  0  0
    5.6762   -1.6838    0.0000 H   0  0  0  0  0  0  0  0  0  0  0  0
    6.0747   -0.9936    0.0000 H   0  0  0  0  0  0  0  0  0  0  0  0
    3.1215   -0.9936    0.0000 H   0  0  0  0  0  0  0  0  0  0  0  0
    3.5200   -1.6838    0.0000 H   0  0  0  0  0  0  0  0  0  0  0  0
    4.3860    1.9814    0.0000 H   0  0  0  0  0  0  0  0  0  0  0  0
    3.9875    1.2911    0.0000 H   0  0  0  0  0  0  0  0  0  0  0  0
    6.0010   -2.7912    0.0000 H   0  0  0  0  0  0  0  0  0  0  0  0
    3.1951   -4.4112    0.0000 H   0  0  0  0  0  0  0  0  0  0  0  0
    6.0010   -4.4112    0.0000 H   0  0  0  0  0  0  0  0  0  0  0  0
    4.5981   -5.2212    0.0000 H   0  0  0  0  0  0  0  0  0  0  0  0
  1 18  2  0  0  0  0
  2  7  1  0  0  0  0
  3  7  2  0  0  0  0
  4 13  1  0  0  0  0
  4 14  1  0  0  0  0
  4 17  1  0  0  0  0
  5  8  1  0  0  0  0
  5 18  1  0  0  0  0
  5 38  1  0  0  0  0
  6 15  1  0  0  0  0
  6 16  1  0  0  0  0
  6 19  1  0  0  0  0
  7 20  1  0  0  0  0
  8  9  1  0  0  0  0
  8 10  1  0  0  0  0
  8 25  1  0  0  0  0
  9 12  1  0  0  0  0
  9 26  1  0  0  0  0
  9 27  1  0  0  0  0
 10 11  1  0  0  0  0
 10 28  1  0  0  0  0
 10 29  1  0  0  0  0
 11 12  1  0  0  0  0
 11 30  1  0  0  0  0
 11 31  1  0  0  0  0
 12 32  1  0  0  0  0
 12 33  1  0  0  0  0
 13 15  1  0  0  0  0
 13 36  1  0  0  0  0
 13 37  1  0  0  0  0
 14 16  1  0  0  0  0
 14 34  1  0  0  0  0
 14 35  1  0  0  0  0
 15 39  1  0  0  0  0
 15 40  1  0  0  0  0
 16 41  1  0  0  0  0
 16 42  1  0  0  0  0
 17 18  1  0  0  0  0
 17 43  1  0  0  0  0
 17 44  1  0  0  0  0
 19 20  1  0  0  0  0
 19 21  2  0  0  0  0
 20 22  2  0  0  0  0
 21 23  1  0  0  0  0
 21 45  1  0  0  0  0
 22 24  1  0  0  0  0
 22 46  1  0  0  0  0
 23 24  2  0  0  0  0
 23 47  1  0  0  0  0
 24 48  1  0  0  0  0
M  CHG  2   2  -1   7   1
M  END
> <PUBCHEM_COMPOUND_CID>
17396044

> <PUBCHEM_COMPOUND_CANONICALIZED>
1

> <PUBCHEM_CACTVS_COMPLEXITY>
440

> <PUBCHEM_CACTVS_HBOND_ACCEPTOR>
5

> <PUBCHEM_CACTVS_HBOND_DONOR>
1

> <PUBCHEM_CACTVS_ROTATABLE_BOND>
4

> <PUBCHEM_CACTVS_SUBSKEYS>
AAADceB7sAAAAAAAAAAAAAAAAAAAAYAAAAA8QAAAAAAAAAABAAAAHgAUAAAACCjBkAQwwIPQQACJACVSUwCCAAAhAgAoiICIdIoIYCLAkbGUIAhgloDIyAcQAAAAAAAAAAAAACAAAAAAAAAAQAAAAAAAAA==

> <PUBCHEM_IUPAC_OPENEYE_NAME>
N-cyclopentyl-2-[4-(2-nitrophenyl)piperazin-1-yl]acetamide

> <PUBCHEM_IUPAC_CAS_NAME>
N-cyclopentyl-2-[4-(2-nitrophenyl)-1-piperazinyl]acetamide

> <PUBCHEM_IUPAC_NAME>
N-cyclopentyl-2-[4-(2-nitrophenyl)piperazin-1-yl]acetamide

> <PUBCHEM_IUPAC_SYSTEMATIC_NAME>
N-cyclopentyl-2-[4-(2-nitrophenyl)piperazin-1-yl]ethanamide

> <PUBCHEM_IUPAC_TRADITIONAL_NAME>
N-cyclopentyl-2-[4-(2-nitrophenyl)piperazino]acetamide

> <PUBCHEM_IUPAC_INCHI>
InChI=1S/C17H24N4O3/c22-17(18-14-5-1-2-6-14)13-19-9-11-20(12-10-19)15-7-3-4-8-16(15)21(23)24/h3-4,7-8,14H,1-2,5-6,9-13H2,(H,18,22)

> <PUBCHEM_IUPAC_INCHIKEY>
OGEJYGKYMRXFQB-UHFFFAOYSA-N

> <PUBCHEM_XLOGP3_AA>
2.3

> <PUBCHEM_EXACT_MASS>
332.184841

> <PUBCHEM_MOLECULAR_FORMULA>
C17H24N4O3

> <PUBCHEM_MOLECULAR_WEIGHT>
332.39746

> <PUBCHEM_OPENEYE_CAN_SMILES>
C1CCC(C1)NC(=O)CN2CCN(CC2)C3=CC=CC=C3[N+](=O)[O-]

> <PUBCHEM_OPENEYE_ISO_SMILES>
C1CCC(C1)NC(=O)CN2CCN(CC2)C3=CC=CC=C3[N+](=O)[O-]

> <PUBCHEM_CACTVS_TPSA>
81.4

> <PUBCHEM_MONOISOTOPIC_WEIGHT>
332.184841

> <PUBCHEM_TOTAL_CHARGE>
0

> <PUBCHEM_HEAVY_ATOM_COUNT>
24

> <PUBCHEM_ATOM_DEF_STEREO_COUNT>
0

> <PUBCHEM_ATOM_UDEF_STEREO_COUNT>
0

> <PUBCHEM_BOND_DEF_STEREO_COUNT>
0

> <PUBCHEM_BOND_UDEF_STEREO_COUNT>
0

> <PUBCHEM_ISOTOPIC_ATOM_COUNT>
0

> <PUBCHEM_COMPONENT_COUNT>
1

> <PUBCHEM_CACTVS_TAUTO_COUNT>
2

> <PUBCHEM_COORDINATE_TYPE>
1
5
255

> <PUBCHEM_BONDANNOTATIONS>
19  20  8
19  21  8
20  22  8
21  23  8
22  24  8
23  24  8

$$$$

