442083
  -OEChem-07051212562D

 70 73  0     1  0  0  0  0  0999 V2000
    7.3832    1.5382    0.0000 O   0  0  0  0  0  0  0  0  0  0  0  0
    5.2414    2.5085    0.0000 O   0  0  0  0  0  0  0  0  0  0  0  0
    3.6718   -0.4810    0.0000 O   0  0  0  0  0  0  0  0  0  0  0  0
    8.0616   -1.4575    0.0000 O   0  0  0  0  0  0  0  0  0  0  0  0
    4.5559   -1.4590    0.0000 O   0  0  0  0  0  0  0  0  0  0  0  0
    2.0502    1.9365    0.0000 O   0  0  0  0  0  0  0  0  0  0  0  0
    9.1029    1.3314    0.0000 O   0  0  0  0  0  0  0  0  0  0  0  0
    6.2873   -1.4119    0.0000 O   0  0  0  0  0  0  0  0  0  0  0  0
    6.2530   -0.0666    0.0000 C   0  0  1  0  0  0  0  0  0  0  0  0
    6.2480    0.9334    0.0000 C   0  0  2  0  0  0  0  0  0  0  0  0
    7.2638    0.5453    0.0000 C   0  0  1  0  0  0  0  0  0  0  0  0
    5.4741    1.5359    0.0000 C   0  0  2  0  0  0  0  0  0  0  0  0
    4.5199    1.3090    0.0000 C   0  0  1  0  0  0  0  0  0  0  0  0
    4.0999    0.4227    0.0000 C   0  0  1  0  0  0  0  0  0  0  0  0
    8.4411    0.4444    0.0000 C   0  0  2  0  0  0  0  0  0  0  0  0
    7.0379   -0.6861    0.0000 C   0  0  0  0  0  0  0  0  0  0  0  0
    5.4851   -0.6767    0.0000 C   0  0  0  0  0  0  0  0  0  0  0  0
    8.0117   -0.4588    0.0000 C   0  0  1  0  0  0  0  0  0  0  0  0
    4.5287   -0.4594    0.0000 C   0  0  1  0  0  0  0  0  0  0  0  0
    7.0267    1.5608    0.0000 C   0  0  0  0  0  0  0  0  0  0  0  0
    3.1333    0.5500    0.0000 C   0  0  0  0  0  0  0  0  0  0  0  0
    8.0027    1.3432    0.0000 C   0  0  0  0  0  0  0  0  0  0  0  0
    3.8092    1.9765    0.0000 C   0  0  0  0  0  0  0  0  0  0  0  0
    2.9539    1.5083    0.0000 C   0  0  2  0  0  0  0  0  0  0  0  0
    6.0894    2.3242    0.0000 C   0  0  0  0  0  0  0  0  0  0  0  0
    8.9770   -0.7200    0.0000 C   0  0  0  0  0  0  0  0  0  0  0  0
    2.1502    0.3669    0.0000 C   0  0  0  0  0  0  0  0  0  0  0  0
    3.0036   -0.4416    0.0000 C   0  0  0  0  0  0  0  0  0  0  0  0
    8.3027    1.9312    0.0000 C   0  0  0  0  0  0  0  0  0  0  0  0
    5.4353   -1.9352    0.0000 C   0  0  0  0  0  0  0  0  0  0  0  0
    8.4221    2.9240    0.0000 C   0  0  0  0  0  0  0  0  0  0  0  0
    5.4625   -2.9349    0.0000 C   0  0  0  0  0  0  0  0  0  0  0  0
    6.2438    1.7834    0.0000 H   0  0  0  0  0  0  0  0  0  0  0  0
    6.7429    0.8815    0.0000 H   0  0  0  0  0  0  0  0  0  0  0  0
    4.7386    2.1304    0.0000 H   0  0  0  0  0  0  0  0  0  0  0  0
    9.2688    0.6376    0.0000 H   0  0  0  0  0  0  0  0  0  0  0  0
    6.5551   -1.0751    0.0000 H   0  0  0  0  0  0  0  0  0  0  0  0
    7.3097   -1.2434    0.0000 H   0  0  0  0  0  0  0  0  0  0  0  0
    5.2161   -1.2354    0.0000 H   0  0  0  0  0  0  0  0  0  0  0  0
    5.9695   -1.0637    0.0000 H   0  0  0  0  0  0  0  0  0  0  0  0
    3.9264   -0.6067    0.0000 H   0  0  0  0  0  0  0  0  0  0  0  0
    7.2929    2.1207    0.0000 H   0  0  0  0  0  0  0  0  0  0  0  0
    6.5400    1.9450    0.0000 H   0  0  0  0  0  0  0  0  0  0  0  0
    8.6065    1.4841    0.0000 H   0  0  0  0  0  0  0  0  0  0  0  0
    7.9996    1.9631    0.0000 H   0  0  0  0  0  0  0  0  0  0  0  0
    4.2788    2.3813    0.0000 H   0  0  0  0  0  0  0  0  0  0  0  0
    3.4559    2.4860    0.0000 H   0  0  0  0  0  0  0  0  0  0  0  0
    2.4629    1.1298    0.0000 H   0  0  0  0  0  0  0  0  0  0  0  0
    6.5781    1.9426    0.0000 H   0  0  0  0  0  0  0  0  0  0  0  0
    6.4709    2.8129    0.0000 H   0  0  0  0  0  0  0  0  0  0  0  0
    5.6007    2.7057    0.0000 H   0  0  0  0  0  0  0  0  0  0  0  0
    8.8150   -1.3185    0.0000 H   0  0  0  0  0  0  0  0  0  0  0  0
    9.5755   -0.8820    0.0000 H   0  0  0  0  0  0  0  0  0  0  0  0
    9.1390   -0.1215    0.0000 H   0  0  0  0  0  0  0  0  0  0  0  0
    2.0367    0.9764    0.0000 H   0  0  0  0  0  0  0  0  0  0  0  0
    1.5407    0.2534    0.0000 H   0  0  0  0  0  0  0  0  0  0  0  0
    2.2637   -0.2426    0.0000 H   0  0  0  0  0  0  0  0  0  0  0  0
    2.3888   -0.3612    0.0000 H   0  0  0  0  0  0  0  0  0  0  0  0
    2.9232   -1.0563    0.0000 H   0  0  0  0  0  0  0  0  0  0  0  0
    3.6184   -0.5220    0.0000 H   0  0  0  0  0  0  0  0  0  0  0  0
    5.6915    2.9349    0.0000 H   0  0  0  0  0  0  0  0  0  0  0  0
    3.6139   -1.0983    0.0000 H   0  0  0  0  0  0  0  0  0  0  0  0
    8.6133   -1.7404    0.0000 H   0  0  0  0  0  0  0  0  0  0  0  0
    2.0000    2.5544    0.0000 H   0  0  0  0  0  0  0  0  0  0  0  0
    9.0377    2.8500    0.0000 H   0  0  0  0  0  0  0  0  0  0  0  0
    8.4962    3.5396    0.0000 H   0  0  0  0  0  0  0  0  0  0  0  0
    7.8066    2.9981    0.0000 H   0  0  0  0  0  0  0  0  0  0  0  0
    4.8427   -2.9518    0.0000 H   0  0  0  0  0  0  0  0  0  0  0  0
    5.4794   -3.5546    0.0000 H   0  0  0  0  0  0  0  0  0  0  0  0
    6.0823   -2.9180    0.0000 H   0  0  0  0  0  0  0  0  0  0  0  0
 11  1  1  6  0  0  0
  1 29  1  0  0  0  0
 12  2  1  6  0  0  0
  2 61  1  0  0  0  0
 14  3  1  1  0  0  0
  3 62  1  0  0  0  0
 18  4  1  6  0  0  0
  4 63  1  0  0  0  0
 19  5  1  1  0  0  0
  5 30  1  0  0  0  0
 24  6  1  1  0  0  0
  6 64  1  0  0  0  0
  7 29  2  0  0  0  0
  8 30  2  0  0  0  0
  9 10  1  0  0  0  0
  9 11  1  0  0  0  0
  9 16  1  0  0  0  0
  9 17  1  6  0  0  0
 10 12  1  0  0  0  0
 10 20  1  0  0  0  0
 10 33  1  1  0  0  0
 11 15  1  0  0  0  0
 11 34  1  0  0  0  0
 12 13  1  0  0  0  0
 12 25  1  0  0  0  0
 13 14  1  0  0  0  0
 13 23  1  0  0  0  0
 13 35  1  6  0  0  0
 14 19  1  0  0  0  0
 14 21  1  0  0  0  0
 15 18  1  0  0  0  0
 15 22  1  0  0  0  0
 15 36  1  6  0  0  0
 16 18  1  0  0  0  0
 16 37  1  0  0  0  0
 16 38  1  0  0  0  0
 17 19  1  0  0  0  0
 17 39  1  0  0  0  0
 17 40  1  0  0  0  0
 18 26  1  0  0  0  0
 19 41  1  0  0  0  0
 20 22  1  0  0  0  0
 20 42  1  0  0  0  0
 20 43  1  0  0  0  0
 21 24  1  0  0  0  0
 21 27  1  0  0  0  0
 21 28  1  0  0  0  0
 22 44  1  0  0  0  0
 22 45  1  0  0  0  0
 23 24  1  0  0  0  0
 23 46  1  0  0  0  0
 23 47  1  0  0  0  0
 24 48  1  0  0  0  0
 25 49  1  0  0  0  0
 25 50  1  0  0  0  0
 25 51  1  0  0  0  0
 26 52  1  0  0  0  0
 26 53  1  0  0  0  0
 26 54  1  0  0  0  0
 27 55  1  0  0  0  0
 27 56  1  0  0  0  0
 27 57  1  0  0  0  0
 28 58  1  0  0  0  0
 28 59  1  0  0  0  0
 28 60  1  0  0  0  0
 29 31  1  0  0  0  0
 30 32  1  0  0  0  0
 31 65  1  0  0  0  0
 31 66  1  0  0  0  0
 31 67  1  0  0  0  0
 32 68  1  0  0  0  0
 32 69  1  0  0  0  0
 32 70  1  0  0  0  0
M  END
> <PUBCHEM_COMPOUND_CID>
442083

> <PUBCHEM_COMPOUND_CANONICALIZED>
1

> <PUBCHEM_CACTVS_COMPLEXITY>
827

> <PUBCHEM_CACTVS_HBOND_ACCEPTOR>
8

> <PUBCHEM_CACTVS_HBOND_DONOR>
4

> <PUBCHEM_CACTVS_ROTATABLE_BOND>
4

> <PUBCHEM_CACTVS_SUBSKEYS>
AAADcfB4PAAAAAAAAAAAAAAAAAAAAYMAAAAwAAAABgwAAADAAAAAGgAACAAAD1SggAICCAAABgAIAACQCAAAAAAAAAAAAAAAAAABEAIAAAACQAAFAAADAAHA4PwPgAAAAAAAAACAAAYAADAAAYQADAAAAA==

> <PUBCHEM_IUPAC_INCHI>
InChI=1S/C24H38O8/c1-12(25)31-18-10-23-11-21(5,28)14(19(23)32-13(2)26)7-8-15(23)22(6,29)16-9-17(27)20(3,4)24(16,18)30/h14-19,27-30H,7-11H2,1-6H3/t14-,15+,16+,17+,18-,19-,21-,22-,23+,24+/m1/s1

> <PUBCHEM_IUPAC_INCHIKEY>
CLACQPZPBZLUQK-ZQSAPXNLSA-N

> <PUBCHEM_XLOGP3>
1.4

> <PUBCHEM_EXACT_MASS>
454.256668

> <PUBCHEM_MOLECULAR_FORMULA>
C24H38O8

> <PUBCHEM_MOLECULAR_WEIGHT>
454.55372

> <PUBCHEM_OPENEYE_CAN_SMILES>
CC(=O)OC1CC23CC(C(C2OC(=O)C)CCC3C(C4C1(C(C(C4)O)(C)C)O)(C)O)(C)O

> <PUBCHEM_OPENEYE_ISO_SMILES>
CC(=O)O[C@@H]1C[C@@]23C[C@@]([C@@H]([C@H]2OC(=O)C)CC[C@H]3[C@@]([C@H]4[C@]1(C([C@H](C4)O)(C)C)O)(C)O)(C)O

> <PUBCHEM_CACTVS_TPSA>
134

> <PUBCHEM_MONOISOTOPIC_WEIGHT>
454.256668

> <PUBCHEM_TOTAL_CHARGE>
0

> <PUBCHEM_HEAVY_ATOM_COUNT>
32

> <PUBCHEM_ATOM_DEF_STEREO_COUNT>
10

> <PUBCHEM_ATOM_UDEF_STEREO_COUNT>
0

> <PUBCHEM_BOND_DEF_STEREO_COUNT>
0

> <PUBCHEM_BOND_UDEF_STEREO_COUNT>
0

> <PUBCHEM_ISOTOPIC_ATOM_COUNT>
0

> <PUBCHEM_COMPONENT_COUNT>
1

> <PUBCHEM_CACTVS_TAUTO_COUNT>
1

> <PUBCHEM_COORDINATE_TYPE>
1
5
255

> <PUBCHEM_BONDANNOTATIONS>
11  1  6
10  33  5
13  35  6
15  36  6
12  2  6
14  3  5
18  4  6
19  5  5
24  6  5
9  17  6

$$$$

