4505
  -OEChem-06261200112D

 85 89  0     1  0  0  0  0  0999 V2000
    6.0010    1.5666    0.0000 O   0  0  0  0  0  0  0  0  0  0  0  0
    6.8324   -0.9182    0.0000 O   0  0  0  0  0  0  0  0  0  0  0  0
    7.7331    5.5666    0.0000 O   0  0  0  0  0  0  0  0  0  0  0  0
   11.2774    4.3713    0.0000 O   0  0  0  0  0  0  0  0  0  0  0  0
   11.2774    2.7619    0.0000 O   0  0  0  0  0  0  0  0  0  0  0  0
    2.5369    4.5666    0.0000 O   0  0  0  0  0  0  0  0  0  0  0  0
    2.5369    1.5666    0.0000 O   0  0  0  0  0  0  0  0  0  0  0  0
    7.0638   -5.4949    0.0000 O   0  0  0  0  0  0  0  0  0  0  0  0
    4.6996   -3.6479    0.0000 O   0  0  0  0  0  0  0  0  0  0  0  0
    4.2690    4.5666    0.0000 O   0  0  0  0  0  0  0  0  0  0  0  0
    3.4030    0.0666    0.0000 O   0  0  0  0  0  0  0  0  0  0  0  0
    8.1301   -4.1300    0.0000 O   0  0  0  0  0  0  0  0  0  0  0  0
    4.0509   -2.0420    0.0000 O   0  0  0  0  0  0  0  0  0  0  0  0
    4.2690    2.5666    0.0000 N   0  0  0  0  0  0  0  0  0  0  0  0
    6.5541   -2.8987    0.0000 N   0  0  0  0  0  0  0  0  0  0  0  0
    6.8671    1.0666    0.0000 C   0  0  3  0  0  0  0  0  0  0  0  0
    6.9716    0.0721    0.0000 C   0  0  3  0  0  0  0  0  0  0  0  0
    7.7806    1.4734    0.0000 C   0  0  0  0  0  0  0  0  0  0  0  0
    7.9497   -0.1358    0.0000 C   0  0  0  0  0  0  0  0  0  0  0  0
    8.4497    0.7302    0.0000 C   0  0  0  0  0  0  0  0  0  0  0  0
    6.0010    2.5666    0.0000 C   0  0  0  0  0  0  0  0  0  0  0  0
    7.6205   -1.5338    0.0000 C   0  0  0  0  0  0  0  0  0  0  0  0
    5.1350    3.0666    0.0000 C   0  0  0  0  0  0  0  0  0  0  0  0
    7.4813   -2.5241    0.0000 C   0  0  0  0  0  0  0  0  0  0  0  0
    6.8671    3.0666    0.0000 C   0  0  0  0  0  0  0  0  0  0  0  0
    8.5476   -1.1592    0.0000 C   0  0  0  0  0  0  0  0  0  0  0  0
    6.8671    4.0666    0.0000 C   0  0  0  0  0  0  0  0  0  0  0  0
    5.1350    4.0666    0.0000 C   0  0  0  0  0  0  0  0  0  0  0  0
    6.0010    4.5666    0.0000 C   0  0  0  0  0  0  0  0  0  0  0  0
    9.3356   -1.7749    0.0000 C   0  0  0  0  0  0  0  0  0  0  0  0
    8.2693   -3.1397    0.0000 C   0  0  0  0  0  0  0  0  0  0  0  0
    7.7331    4.5666    0.0000 C   0  0  3  0  0  0  0  0  0  0  0  0
    9.1965   -2.7651    0.0000 C   0  0  0  0  0  0  0  0  0  0  0  0
    3.4030    3.0666    0.0000 C   0  0  0  0  0  0  0  0  0  0  0  0
    4.2690    1.5666    0.0000 C   0  0  0  0  0  0  0  0  0  0  0  0
    6.4149   -3.8890    0.0000 C   0  0  0  0  0  0  0  0  0  0  0  0
    5.7660   -2.2830    0.0000 C   0  0  0  0  0  0  0  0  0  0  0  0
    8.5991    4.0666    0.0000 C   0  0  0  0  0  0  0  0  0  0  0  0
   10.2628   -1.4003    0.0000 C   0  0  0  0  0  0  0  0  0  0  0  0
    9.4651    4.5666    0.0000 C   0  0  0  0  0  0  0  0  0  0  0  0
    8.5991    3.0666    0.0000 C   0  0  0  0  0  0  0  0  0  0  0  0
    3.4030    4.0666    0.0000 C   0  0  0  0  0  0  0  0  0  0  0  0
    3.4030    1.0666    0.0000 C   0  0  0  0  0  0  0  0  0  0  0  0
    7.2029   -4.5046    0.0000 C   0  0  0  0  0  0  0  0  0  0  0  0
    4.8388   -2.6576    0.0000 C   0  0  0  0  0  0  0  0  0  0  0  0
   10.3312    4.0666    0.0000 C   0  0  0  0  0  0  0  0  0  0  0  0
   10.3312    3.0666    0.0000 C   0  0  0  0  0  0  0  0  0  0  0  0
    9.4651    2.5666    0.0000 C   0  0  0  0  0  0  0  0  0  0  0  0
   11.8610    3.5666    0.0000 C   0  0  0  0  0  0  0  0  0  0  0  0
    6.3471    0.7289    0.0000 H   0  0  0  0  0  0  0  0  0  0  0  0
    6.3517    0.0829    0.0000 H   0  0  0  0  0  0  0  0  0  0  0  0
    8.2822    1.8378    0.0000 H   0  0  0  0  0  0  0  0  0  0  0  0
    7.4706    2.0103    0.0000 H   0  0  0  0  0  0  0  0  0  0  0  0
    7.7582   -0.7255    0.0000 H   0  0  0  0  0  0  0  0  0  0  0  0
    8.5161   -0.3880    0.0000 H   0  0  0  0  0  0  0  0  0  0  0  0
    8.9513    0.3658    0.0000 H   0  0  0  0  0  0  0  0  0  0  0  0
    8.8646    1.1910    0.0000 H   0  0  0  0  0  0  0  0  0  0  0  0
    7.4040    2.7566    0.0000 H   0  0  0  0  0  0  0  0  0  0  0  0
    8.6339   -0.5453    0.0000 H   0  0  0  0  0  0  0  0  0  0  0  0
    4.5981    4.3766    0.0000 H   0  0  0  0  0  0  0  0  0  0  0  0
    6.0010    5.1866    0.0000 H   0  0  0  0  0  0  0  0  0  0  0  0
    8.2700    4.8766    0.0000 H   0  0  0  0  0  0  0  0  0  0  0  0
    8.1830   -3.7537    0.0000 H   0  0  0  0  0  0  0  0  0  0  0  0
    9.6851   -3.1468    0.0000 H   0  0  0  0  0  0  0  0  0  0  0  0
    4.4810    0.9840    0.0000 H   0  0  0  0  0  0  0  0  0  0  0  0
    4.8796    1.6743    0.0000 H   0  0  0  0  0  0  0  0  0  0  0  0
    2.7924    3.1743    0.0000 H   0  0  0  0  0  0  0  0  0  0  0  0
    3.1909    2.4840    0.0000 H   0  0  0  0  0  0  0  0  0  0  0  0
    6.2268   -1.8682    0.0000 H   0  0  0  0  0  0  0  0  0  0  0  0
    5.4375   -1.7572    0.0000 H   0  0  0  0  0  0  0  0  0  0  0  0
    5.8252   -3.6974    0.0000 H   0  0  0  0  0  0  0  0  0  0  0  0
    6.1238   -4.4364    0.0000 H   0  0  0  0  0  0  0  0  0  0  0  0
   10.4951   -1.9751    0.0000 H   0  0  0  0  0  0  0  0  0  0  0  0
   10.8377   -1.1680    0.0000 H   0  0  0  0  0  0  0  0  0  0  0  0
   10.0306   -0.8254    0.0000 H   0  0  0  0  0  0  0  0  0  0  0  0
    9.4651    5.1866    0.0000 H   0  0  0  0  0  0  0  0  0  0  0  0
    7.1962    5.8766    0.0000 H   0  0  0  0  0  0  0  0  0  0  0  0
    8.0622    2.7566    0.0000 H   0  0  0  0  0  0  0  0  0  0  0  0
    9.4651    1.9466    0.0000 H   0  0  0  0  0  0  0  0  0  0  0  0
   12.3219    3.1519    0.0000 H   0  0  0  0  0  0  0  0  0  0  0  0
   12.3219    3.9813    0.0000 H   0  0  0  0  0  0  0  0  0  0  0  0
    2.0000    1.2566    0.0000 H   0  0  0  0  0  0  0  0  0  0  0  0
    2.5369    5.1866    0.0000 H   0  0  0  0  0  0  0  0  0  0  0  0
    4.1248   -3.8801    0.0000 H   0  0  0  0  0  0  0  0  0  0  0  0
    7.5523   -5.8766    0.0000 H   0  0  0  0  0  0  0  0  0  0  0  0
  1 16  1  0  0  0  0
  1 21  1  0  0  0  0
  2 17  1  0  0  0  0
  2 22  1  0  0  0  0
  3 32  1  0  0  0  0
  3 77  1  0  0  0  0
  4 46  1  0  0  0  0
  4 49  1  0  0  0  0
  5 47  1  0  0  0  0
  5 49  1  0  0  0  0
  6 42  1  0  0  0  0
  6 83  1  0  0  0  0
  7 43  1  0  0  0  0
  7 82  1  0  0  0  0
  8 44  1  0  0  0  0
  8 85  1  0  0  0  0
  9 45  1  0  0  0  0
  9 84  1  0  0  0  0
 10 42  2  0  0  0  0
 11 43  2  0  0  0  0
 12 44  2  0  0  0  0
 13 45  2  0  0  0  0
 14 23  1  0  0  0  0
 14 34  1  0  0  0  0
 14 35  1  0  0  0  0
 15 24  1  0  0  0  0
 15 36  1  0  0  0  0
 15 37  1  0  0  0  0
 16 17  1  0  0  0  0
 16 18  1  0  0  0  0
 16 50  1  0  0  0  0
 17 19  1  0  0  0  0
 17 51  1  0  0  0  0
 18 20  1  0  0  0  0
 18 52  1  0  0  0  0
 18 53  1  0  0  0  0
 19 20  1  0  0  0  0
 19 54  1  0  0  0  0
 19 55  1  0  0  0  0
 20 56  1  0  0  0  0
 20 57  1  0  0  0  0
 21 23  2  0  0  0  0
 21 25  1  0  0  0  0
 22 24  2  0  0  0  0
 22 26  1  0  0  0  0
 23 28  1  0  0  0  0
 24 31  1  0  0  0  0
 25 27  2  0  0  0  0
 25 58  1  0  0  0  0
 26 30  2  0  0  0  0
 26 59  1  0  0  0  0
 27 29  1  0  0  0  0
 27 32  1  0  0  0  0
 28 29  2  0  0  0  0
 28 60  1  0  0  0  0
 29 61  1  0  0  0  0
 30 33  1  0  0  0  0
 30 39  1  0  0  0  0
 31 33  2  0  0  0  0
 31 63  1  0  0  0  0
 32 38  1  0  0  0  0
 32 62  1  0  0  0  0
 33 64  1  0  0  0  0
 34 42  1  0  0  0  0
 34 67  1  0  0  0  0
 34 68  1  0  0  0  0
 35 43  1  0  0  0  0
 35 65  1  0  0  0  0
 35 66  1  0  0  0  0
 36 44  1  0  0  0  0
 36 71  1  0  0  0  0
 36 72  1  0  0  0  0
 37 45  1  0  0  0  0
 37 69  1  0  0  0  0
 37 70  1  0  0  0  0
 38 40  2  0  0  0  0
 38 41  1  0  0  0  0
 39 73  1  0  0  0  0
 39 74  1  0  0  0  0
 39 75  1  0  0  0  0
 40 46  1  0  0  0  0
 40 76  1  0  0  0  0
 41 48  2  0  0  0  0
 41 78  1  0  0  0  0
 46 47  2  0  0  0  0
 47 48  1  0  0  0  0
 48 79  1  0  0  0  0
 49 80  1  0  0  0  0
 49 81  1  0  0  0  0
M  END
> <PUBCHEM_COMPOUND_CID>
4505

> <PUBCHEM_COMPOUND_CANONICALIZED>
1

> <PUBCHEM_CACTVS_COMPLEXITY>
1130

> <PUBCHEM_CACTVS_HBOND_ACCEPTOR>
15

> <PUBCHEM_CACTVS_HBOND_DONOR>
5

> <PUBCHEM_CACTVS_ROTATABLE_BOND>
16

> <PUBCHEM_CACTVS_SUBSKEYS>
AAADcfB/PAAAAAAAAAAAAAAAAAAAAaIAAAAwYMAAAAAAAEgBUAAAHgAACAAADBzhmAcyzoMABgCIAiTSSACCCAAhIgAIiACP7IgfNiLEsbuneCrkwBHe+AfQ8P8OKAABAAAAUABQAAIAAACgAAAAACAAAA==

> <PUBCHEM_IUPAC_OPENEYE_NAME>
2-[2-[2-[5-[1,3-benzodioxol-5-yl(hydroxy)methyl]-2-[bis(carboxymethyl)amino]phenoxy]cyclopentoxy]-N-(carboxymethyl)-4-methyl-anilino]acetic acid

> <PUBCHEM_IUPAC_CAS_NAME>
2-[2-[2-[5-[1,3-benzodioxol-5-yl(hydroxy)methyl]-2-[bis(carboxymethyl)amino]phenoxy]cyclopentyl]oxy-N-(carboxymethyl)-4-methylanilino]acetic acid

> <PUBCHEM_IUPAC_NAME>
2-[2-[2-[5-[1,3-benzodioxol-5-yl(hydroxy)methyl]-2-[bis(carboxymethyl)amino]phenoxy]cyclopentyl]oxy-N-(carboxymethyl)-4-methylanilino]acetic acid

> <PUBCHEM_IUPAC_SYSTEMATIC_NAME>
2-[[2-[2-[5-[1,3-benzodioxol-5-yl(oxidanyl)methyl]-2-[bis(2-hydroxy-2-oxoethyl)amino]phenoxy]cyclopentyl]oxy-4-methyl-phenyl]-(2-hydroxy-2-oxoethyl)amino]ethanoic acid

> <PUBCHEM_IUPAC_TRADITIONAL_NAME>
2-[2-[2-[5-[1,3-benzodioxol-5-yl(hydroxy)methyl]-2-[bis(carboxymethyl)amino]phenoxy]cyclopentoxy]-N-(carboxymethyl)-4-methyl-anilino]acetic acid

> <PUBCHEM_IUPAC_INCHI>
InChI=1S/C34H36N2O13/c1-19-5-8-22(35(14-30(37)38)15-31(39)40)27(11-19)48-25-3-2-4-26(25)49-28-12-20(6-9-23(28)36(16-32(41)42)17-33(43)44)34(45)21-7-10-24-29(13-21)47-18-46-24/h5-13,25-26,34,45H,2-4,14-18H2,1H3,(H,37,38)(H,39,40)(H,41,42)(H,43,44)

> <PUBCHEM_IUPAC_INCHIKEY>
UOLDCNXNUZFYDR-UHFFFAOYSA-N

> <PUBCHEM_XLOGP3_AA>
4.1

> <PUBCHEM_EXACT_MASS>
680.221739

> <PUBCHEM_MOLECULAR_FORMULA>
C34H36N2O13

> <PUBCHEM_MOLECULAR_WEIGHT>
680.65524

> <PUBCHEM_OPENEYE_CAN_SMILES>
CC1=CC(=C(C=C1)N(CC(=O)O)CC(=O)O)OC2CCCC2OC3=C(C=CC(=C3)C(C4=CC5=C(C=C4)OCO5)O)N(CC(=O)O)CC(=O)O

> <PUBCHEM_OPENEYE_ISO_SMILES>
CC1=CC(=C(C=C1)N(CC(=O)O)CC(=O)O)OC2CCCC2OC3=C(C=CC(=C3)C(C4=CC5=C(C=C4)OCO5)O)N(CC(=O)O)CC(=O)O

> <PUBCHEM_CACTVS_TPSA>
213

> <PUBCHEM_MONOISOTOPIC_WEIGHT>
680.221739

> <PUBCHEM_TOTAL_CHARGE>
0

> <PUBCHEM_HEAVY_ATOM_COUNT>
49

> <PUBCHEM_ATOM_DEF_STEREO_COUNT>
0

> <PUBCHEM_ATOM_UDEF_STEREO_COUNT>
3

> <PUBCHEM_BOND_DEF_STEREO_COUNT>
0

> <PUBCHEM_BOND_UDEF_STEREO_COUNT>
0

> <PUBCHEM_ISOTOPIC_ATOM_COUNT>
0

> <PUBCHEM_COMPONENT_COUNT>
1

> <PUBCHEM_CACTVS_TAUTO_COUNT>
1

> <PUBCHEM_COORDINATE_TYPE>
1
5
255

> <PUBCHEM_BONDANNOTATIONS>
16  1  3
17  2  3
21  23  8
21  25  8
22  24  8
22  26  8
23  28  8
24  31  8
25  27  8
26  30  8
27  29  8
28  29  8
32  3  3
30  33  8
31  33  8
38  40  8
38  41  8
40  46  8
41  48  8
46  47  8
47  48  8

$$$$

