25246219
  -OEChem-07051212542D

 27 28  0     0  0  0  0  0  0999 V2000
    6.2619   -1.6228    0.0000 O   0  0  0  0  0  0  0  0  0  0  0  0
    5.6103    2.0335    0.0000 O   0  0  0  0  0  0  0  0  0  0  0  0
    7.5673    2.4459    0.0000 O   0  0  0  0  0  0  0  0  0  0  0  0
    7.9244    0.7511    0.0000 O   0  0  0  0  0  0  0  0  0  0  0  0
    3.7320   -2.1228    0.0000 C   0  0  0  0  0  0  0  0  0  0  0  0
    3.7320   -1.1228    0.0000 C   0  0  0  0  0  0  0  0  0  0  0  0
    4.6783   -2.4275    0.0000 C   0  0  0  0  0  0  0  0  0  0  0  0
    4.6783   -0.8181    0.0000 C   0  0  0  0  0  0  0  0  0  0  0  0
    5.2619   -1.6228    0.0000 C   0  0  0  0  0  0  0  0  0  0  0  0
    2.8660   -2.6228    0.0000 C   0  0  0  0  0  0  0  0  0  0  0  0
    2.8660   -0.6228    0.0000 C   0  0  0  0  0  0  0  0  0  0  0  0
    4.9889    0.1324    0.0000 C   0  0  0  0  0  0  0  0  0  0  0  0
    2.0000   -2.1228    0.0000 C   0  0  0  0  0  0  0  0  0  0  0  0
    2.0000   -1.1228    0.0000 C   0  0  0  0  0  0  0  0  0  0  0  0
    5.9674    0.3387    0.0000 C   0  0  0  0  0  0  0  0  0  0  0  0
    6.2781    1.2892    0.0000 C   0  0  0  0  0  0  0  0  0  0  0  0
    7.2566    1.4954    0.0000 C   0  0  0  0  0  0  0  0  0  0  0  0
    4.4272   -2.9944    0.0000 H   0  0  0  0  0  0  0  0  0  0  0  0
    5.2156   -2.7368    0.0000 H   0  0  0  0  0  0  0  0  0  0  0  0
    2.8660   -3.2428    0.0000 H   0  0  0  0  0  0  0  0  0  0  0  0
    2.8660   -0.0028    0.0000 H   0  0  0  0  0  0  0  0  0  0  0  0
    4.5749    0.5939    0.0000 H   0  0  0  0  0  0  0  0  0  0  0  0
    1.4631   -2.4328    0.0000 H   0  0  0  0  0  0  0  0  0  0  0  0
    1.4631   -0.8128    0.0000 H   0  0  0  0  0  0  0  0  0  0  0  0
    6.3815   -0.1228    0.0000 H   0  0  0  0  0  0  0  0  0  0  0  0
    5.8029    2.6228    0.0000 H   0  0  0  0  0  0  0  0  0  0  0  0
    8.1739    2.5738    0.0000 H   0  0  0  0  0  0  0  0  0  0  0  0
  1  9  2  0  0  0  0
  2 16  1  0  0  0  0
  2 26  1  0  0  0  0
  3 17  1  0  0  0  0
  3 27  1  0  0  0  0
  4 17  2  0  0  0  0
  5  6  1  0  0  0  0
  5  7  1  0  0  0  0
  5 10  2  0  0  0  0
  6  8  1  0  0  0  0
  6 11  2  0  0  0  0
  7  9  1  0  0  0  0
  7 18  1  0  0  0  0
  7 19  1  0  0  0  0
  8  9  1  0  0  0  0
  8 12  2  0  0  0  0
 10 13  1  0  0  0  0
 10 20  1  0  0  0  0
 11 14  1  0  0  0  0
 11 21  1  0  0  0  0
 12 15  1  0  0  0  0
 12 22  1  0  0  0  0
 13 14  2  0  0  0  0
 13 23  1  0  0  0  0
 14 24  1  0  0  0  0
 15 16  2  0  0  0  0
 15 25  1  0  0  0  0
 16 17  1  0  0  0  0
M  END
> <PUBCHEM_COMPOUND_CID>
25246219

> <PUBCHEM_COMPOUND_CANONICALIZED>
1

> <PUBCHEM_CACTVS_COMPLEXITY>
406

> <PUBCHEM_CACTVS_HBOND_ACCEPTOR>
4

> <PUBCHEM_CACTVS_HBOND_DONOR>
2

> <PUBCHEM_CACTVS_ROTATABLE_BOND>
2

> <PUBCHEM_CACTVS_SUBSKEYS>
AAADccBwOAAAAAAAAAAAAAAAAAAAAYAAAAAwAAAAAAAAAGABAAAAGgAACAAADASAmAAwCIAAAgCIAqDSCAICAAAgIAAIiAFAAMgJJDKAFRCAMAAggAAJmYcIiICOgAAAAAAQAAAAAAAAACAAAAAACAAAAA==

> <PUBCHEM_IUPAC_OPENEYE_NAME>
(Z,4Z)-2-hydroxy-4-(2-oxoindan-1-ylidene)but-2-enoic acid

> <PUBCHEM_IUPAC_CAS_NAME>
(Z,4Z)-2-hydroxy-4-(2-oxo-3H-inden-1-ylidene)-2-butenoic acid

> <PUBCHEM_IUPAC_NAME>
(Z,4Z)-2-hydroxy-4-(2-oxo-3H-inden-1-ylidene)but-2-enoic acid

> <PUBCHEM_IUPAC_SYSTEMATIC_NAME>
(Z,4Z)-2-oxidanyl-4-(2-oxidanylidene-3H-inden-1-ylidene)but-2-enoic acid

> <PUBCHEM_IUPAC_TRADITIONAL_NAME>
(Z,4Z)-2-hydroxy-4-(2-ketoindan-1-ylidene)but-2-enoic acid

> <PUBCHEM_IUPAC_INCHI>
InChI=1S/C13H10O4/c14-11(13(16)17)6-5-10-9-4-2-1-3-8(9)7-12(10)15/h1-6,14H,7H2,(H,16,17)/b10-5-,11-6-

> <PUBCHEM_IUPAC_INCHIKEY>
XWPYRLHJCKHRRG-IEESQIRDSA-N

> <PUBCHEM_XLOGP3_AA>
1.6

> <PUBCHEM_EXACT_MASS>
230.057909

> <PUBCHEM_MOLECULAR_FORMULA>
C13H10O4

> <PUBCHEM_MOLECULAR_WEIGHT>
230.2161

> <PUBCHEM_OPENEYE_CAN_SMILES>
C1C2=CC=CC=C2C(=CC=C(C(=O)O)O)C1=O

> <PUBCHEM_OPENEYE_ISO_SMILES>
C1C2=CC=CC=C2/C(=C/C=C(/C(=O)O)\O)/C1=O

> <PUBCHEM_CACTVS_TPSA>
74.6

> <PUBCHEM_MONOISOTOPIC_WEIGHT>
230.057909

> <PUBCHEM_TOTAL_CHARGE>
0

> <PUBCHEM_HEAVY_ATOM_COUNT>
17

> <PUBCHEM_ATOM_DEF_STEREO_COUNT>
0

> <PUBCHEM_ATOM_UDEF_STEREO_COUNT>
0

> <PUBCHEM_BOND_DEF_STEREO_COUNT>
2

> <PUBCHEM_BOND_UDEF_STEREO_COUNT>
0

> <PUBCHEM_ISOTOPIC_ATOM_COUNT>
0

> <PUBCHEM_COMPONENT_COUNT>
1

> <PUBCHEM_CACTVS_TAUTO_COUNT>
7

> <PUBCHEM_COORDINATE_TYPE>
1
5
255

> <PUBCHEM_BONDANNOTATIONS>
10  13  8
11  14  8
13  14  8
5  10  8
5  6  8
6  11  8

$$$$

