442956
  -OEChem-07051213003D

 42 45  0     1  0  0  0  0  0999 V2000
    3.5056   -2.0654    0.6079 O   0  0  0  0  0  0  0  0  0  0  0  0
   -2.2208    0.8038   -0.2558 N   0  0  2  0  0  0  0  0  0  0  0  0
    1.8743   -0.5699   -0.1204 N   0  0  0  0  0  0  0  0  0  0  0  0
   -0.6284   -1.2289   -0.7857 C   0  0  1  0  0  0  0  0  0  0  0  0
    0.1208    0.9320   -0.6679 C   0  0  1  0  0  0  0  0  0  0  0  0
   -1.8171   -0.6189    0.1217 C   0  0  2  0  0  0  0  0  0  0  0  0
   -0.2479   -0.1213   -1.7284 C   0  0  0  0  0  0  0  0  0  0  0  0
    1.6133    0.8746   -0.5278 C   0  0  1  0  0  0  0  0  0  0  0  0
   -1.0871    1.7923   -0.4218 C   0  0  0  0  0  0  0  0  0  0  0  0
    0.7306   -1.5860   -0.0322 C   0  0  0  0  0  0  0  0  0  0  0  0
   -3.0550   -1.5254    0.0190 C   0  0  0  0  0  0  0  0  0  0  0  0
    2.2039    1.8117    0.5212 C   0  0  0  0  0  0  0  0  0  0  0  0
   -3.2758    1.3312    0.6085 C   0  0  0  0  0  0  0  0  0  0  0  0
   -4.1986   -1.0061    0.8863 C   0  0  0  0  0  0  0  0  0  0  0  0
   -4.5202    0.4458    0.5511 C   0  0  0  0  0  0  0  0  0  0  0  0
    3.6688    1.4731    0.8225 C   0  0  0  0  0  0  0  0  0  0  0  0
    3.1662   -0.9383    0.2537 C   0  0  0  0  0  0  0  0  0  0  0  0
    4.1673    0.1958    0.1480 C   0  0  0  0  0  0  0  0  0  0  0  0
   -0.9802   -2.1126   -1.3294 H   0  0  0  0  0  0  0  0  0  0  0  0
    0.0324    0.5618    0.3703 H   0  0  0  0  0  0  0  0  0  0  0  0
   -1.4935   -0.6262    1.1727 H   0  0  0  0  0  0  0  0  0  0  0  0
    0.5783   -0.4049   -2.3920 H   0  0  0  0  0  0  0  0  0  0  0  0
   -1.0690    0.1802   -2.3899 H   0  0  0  0  0  0  0  0  0  0  0  0
    2.1142    1.0445   -1.4893 H   0  0  0  0  0  0  0  0  0  0  0  0
   -0.9555    2.4040    0.4799 H   0  0  0  0  0  0  0  0  0  0  0  0
   -1.2979    2.4589   -1.2640 H   0  0  0  0  0  0  0  0  0  0  0  0
    0.5474   -1.7752    1.0316 H   0  0  0  0  0  0  0  0  0  0  0  0
    1.1266   -2.5185   -0.4526 H   0  0  0  0  0  0  0  0  0  0  0  0
   -2.7987   -2.5437    0.3350 H   0  0  0  0  0  0  0  0  0  0  0  0
   -3.3890   -1.5874   -1.0249 H   0  0  0  0  0  0  0  0  0  0  0  0
    1.6377    1.7379    1.4590 H   0  0  0  0  0  0  0  0  0  0  0  0
    2.1160    2.8533    0.1913 H   0  0  0  0  0  0  0  0  0  0  0  0
   -3.5591    2.3389    0.2810 H   0  0  0  0  0  0  0  0  0  0  0  0
   -2.9208    1.4114    1.6436 H   0  0  0  0  0  0  0  0  0  0  0  0
   -3.9205   -1.0847    1.9445 H   0  0  0  0  0  0  0  0  0  0  0  0
   -5.0887   -1.6282    0.7413 H   0  0  0  0  0  0  0  0  0  0  0  0
   -4.9596    0.4973   -0.4534 H   0  0  0  0  0  0  0  0  0  0  0  0
   -5.2756    0.8260    1.2482 H   0  0  0  0  0  0  0  0  0  0  0  0
    3.7866    1.3763    1.9093 H   0  0  0  0  0  0  0  0  0  0  0  0
    4.3101    2.3101    0.5218 H   0  0  0  0  0  0  0  0  0  0  0  0
    5.1110   -0.1181    0.6076 H   0  0  0  0  0  0  0  0  0  0  0  0
    4.3676    0.3746   -0.9150 H   0  0  0  0  0  0  0  0  0  0  0  0
  1 17  2  0  0  0  0
  2  6  1  0  0  0  0
  2  9  1  0  0  0  0
  2 13  1  0  0  0  0
  3  8  1  0  0  0  0
  3 10  1  0  0  0  0
  3 17  1  0  0  0  0
  4  6  1  0  0  0  0
  4  7  1  0  0  0  0
  4 10  1  0  0  0  0
  4 19  1  0  0  0  0
  5  7  1  0  0  0  0
  5  8  1  0  0  0  0
  5  9  1  0  0  0  0
  5 20  1  0  0  0  0
  6 11  1  0  0  0  0
  6 21  1  0  0  0  0
  7 22  1  0  0  0  0
  7 23  1  0  0  0  0
  8 12  1  0  0  0  0
  8 24  1  0  0  0  0
  9 25  1  0  0  0  0
  9 26  1  0  0  0  0
 10 27  1  0  0  0  0
 10 28  1  0  0  0  0
 11 14  1  0  0  0  0
 11 29  1  0  0  0  0
 11 30  1  0  0  0  0
 12 16  1  0  0  0  0
 12 31  1  0  0  0  0
 12 32  1  0  0  0  0
 13 15  1  0  0  0  0
 13 33  1  0  0  0  0
 13 34  1  0  0  0  0
 14 15  1  0  0  0  0
 14 35  1  0  0  0  0
 14 36  1  0  0  0  0
 15 37  1  0  0  0  0
 15 38  1  0  0  0  0
 16 18  1  0  0  0  0
 16 39  1  0  0  0  0
 16 40  1  0  0  0  0
 17 18  1  0  0  0  0
 18 41  1  0  0  0  0
 18 42  1  0  0  0  0
M  END
> <PUBCHEM_COMPOUND_CID>
442956

> <PUBCHEM_CONFORMER_RMSD>
0.6

> <PUBCHEM_CONFORMER_DIVERSEORDER>
1
3
2

> <PUBCHEM_MMFF94_PARTIAL_CHARGES>
10
1 -0.57
10 0.3
13 0.27
17 0.57
18 0.06
2 -0.81
3 -0.66
6 0.27
8 0.3
9 0.27

> <PUBCHEM_EFFECTIVE_ROTOR_COUNT>
2

> <PUBCHEM_PHARMACOPHORE_FEATURES>
6
1 1 acceptor
1 2 cation
6 2 4 5 6 7 9 rings
6 2 6 11 13 14 15 rings
6 3 4 5 7 8 10 rings
6 3 8 12 16 17 18 rings

> <PUBCHEM_HEAVY_ATOM_COUNT>
18

> <PUBCHEM_ATOM_DEF_STEREO_COUNT>
4

> <PUBCHEM_ATOM_UDEF_STEREO_COUNT>
0

> <PUBCHEM_BOND_DEF_STEREO_COUNT>
0

> <PUBCHEM_BOND_UDEF_STEREO_COUNT>
0

> <PUBCHEM_ISOTOPIC_ATOM_COUNT>
0

> <PUBCHEM_COMPONENT_COUNT>
1

> <PUBCHEM_CACTVS_TAUTO_COUNT>
1

> <PUBCHEM_CONFORMER_ID>
0006C24C00000001

> <PUBCHEM_MMFF94_ENERGY>
113.0834

> <PUBCHEM_FEATURE_SELFOVERLAP>
31.165

> <PUBCHEM_SHAPE_FINGERPRINT>
10863032 1 18408041797024737129
10980938 120 18334858290564310086
1100329 8 14736477377657644721
11132069 177 18413107247410418573
11543360 7 9583515412886489963
11796584 16 16629965392232353371
12011746 2 18411416236859786695
12119455 92 17240480303858177661
12251169 10 18408884027353233149
12382932 28 18335696178596506521
12507560 40 18411703200873565437
12633257 1 18263920119459038673
12670546 177 9223234035476898825
12670546 56 18187090503122492711
12892183 10 18410009892926678913
13140716 1 18410293652688808393
13581323 91 18272087201398585197
13675066 3 18131347505952137521
13705890 14 11167944645238923638
14178342 30 17976836285133241226
14223421 5 18339080509303349918
14289901 80 18337673009950167305
14341114 176 18409157827091452377
14790565 3 18052811447686290012
14943859 89 15285353998728677133
15196674 1 18411136943731736923
15209289 33 18059855099271714674
15209294 21 18187647946880458896
15375462 189 18342746247243535738
15375462 478 18408039606923725509
15536298 74 18408319982119860810
15653759 3 18272369788803467433
15775835 57 18113898221574433824
16945 1 18265053715725696877
17804303 29 18339355383036795406
17959699 21 7709459424383142555
1813 80 16845289436371683558
200 152 18261404325792231295
20361792 2 15913609449756021279
20671657 53 14405183954357517991
21065199 12 18411136930968284465
21267235 1 18411971451556372339
21501925 9 18272649013533644279
22445834 79 18411423890655181094
22854114 59 18408885126754045753
231179 274 4823218260435122115
23184049 59 18408603656051222903
23402539 116 18261117370516248685
23463225 33 18413385423667740133
23559900 14 18271526489365627246
24859131 72 18411417332487897023
2748010 2 18268447870009378260
3286 77 18342740745137254258
42 15 18342737416273680377
4280585 95 11021064258946391984
5104073 3 18411133654235188435
5262128 65 11383287386510812152
7097593 13 18410015416265222822
7364860 26 18187919650775156678
84936 31 16299221496215918839
90316 7 18201997768014662957

> <PUBCHEM_SHAPE_MULTIPOLES>
354.6
7.98
2.03
1.03
1.35
0.05
-0.25
0.15
3.2
-0.54
0.23
0.11
-0.02
0.07

> <PUBCHEM_SHAPE_SELFOVERLAP>
747.31

> <PUBCHEM_SHAPE_VOLUME>
196.1

> <PUBCHEM_COORDINATE_TYPE>
2
5
10

$$$$

