50367
  -OEChem-07051213003D

 44 45  0     0  0  0  0  0  0999 V2000
   -0.9449    1.6192    0.2017 S   0  0  0  0  0  0  0  0  0  0  0  0
    1.2095   -2.1559    0.0446 O   0  0  0  0  0  0  0  0  0  0  0  0
   -0.8322   -1.0564   -0.1733 N   0  0  0  0  0  0  0  0  0  0  0  0
    1.2489    0.1607   -0.2666 N   0  0  0  0  0  0  0  0  0  0  0  0
   -2.9672   -0.0282    0.0502 N   0  0  0  0  0  0  0  0  0  0  0  0
   -1.4906   -2.3586   -0.2875 C   0  0  0  0  0  0  0  0  0  0  0  0
   -3.6452    1.2446    0.2452 C   0  0  0  0  0  0  0  0  0  0  0  0
   -1.6783    0.0554    0.0066 C   0  0  0  0  0  0  0  0  0  0  0  0
    0.6018   -1.0916   -0.1181 C   0  0  0  0  0  0  0  0  0  0  0  0
    0.5168    1.3055   -0.7954 C   0  0  0  0  0  0  0  0  0  0  0  0
   -2.4051   -2.3845   -1.5053 C   0  0  0  0  0  0  0  0  0  0  0  0
   -2.2597   -2.6827    0.9873 C   0  0  0  0  0  0  0  0  0  0  0  0
   -3.2818    2.1678   -0.9171 C   0  0  0  0  0  0  0  0  0  0  0  0
   -5.1495    0.9755    0.2684 C   0  0  0  0  0  0  0  0  0  0  0  0
   -3.1842    1.8381    1.5761 C   0  0  0  0  0  0  0  0  0  0  0  0
    2.6726    0.2822   -0.0727 C   0  0  0  0  0  0  0  0  0  0  0  0
    3.3222   -0.5670    0.8173 C   0  0  0  0  0  0  0  0  0  0  0  0
    3.3852    1.2469   -0.7775 C   0  0  0  0  0  0  0  0  0  0  0  0
    4.6995   -0.4500    1.0049 C   0  0  0  0  0  0  0  0  0  0  0  0
    4.7624    1.3638   -0.5900 C   0  0  0  0  0  0  0  0  0  0  0  0
    5.4196    0.5153    0.3012 C   0  0  0  0  0  0  0  0  0  0  0  0
   -0.7433   -3.1454   -0.4360 H   0  0  0  0  0  0  0  0  0  0  0  0
    1.0869    2.2341   -0.7530 H   0  0  0  0  0  0  0  0  0  0  0  0
    0.2328    1.0968   -1.8323 H   0  0  0  0  0  0  0  0  0  0  0  0
   -2.6837   -3.4211   -1.7300 H   0  0  0  0  0  0  0  0  0  0  0  0
   -3.3463   -1.8437   -1.3842 H   0  0  0  0  0  0  0  0  0  0  0  0
   -1.8955   -1.9859   -2.3898 H   0  0  0  0  0  0  0  0  0  0  0  0
   -1.6346   -2.5245    1.8733 H   0  0  0  0  0  0  0  0  0  0  0  0
   -2.5523   -3.7394    0.9793 H   0  0  0  0  0  0  0  0  0  0  0  0
   -3.1835   -2.1157    1.1220 H   0  0  0  0  0  0  0  0  0  0  0  0
   -2.8462    3.1367   -0.6429 H   0  0  0  0  0  0  0  0  0  0  0  0
   -4.2151    2.4856   -1.4083 H   0  0  0  0  0  0  0  0  0  0  0  0
   -2.7376    1.6992   -1.7480 H   0  0  0  0  0  0  0  0  0  0  0  0
   -5.4139    0.2829    1.0762 H   0  0  0  0  0  0  0  0  0  0  0  0
   -5.4820    0.5137   -0.6687 H   0  0  0  0  0  0  0  0  0  0  0  0
   -5.7214    1.8988    0.4128 H   0  0  0  0  0  0  0  0  0  0  0  0
   -2.5866    1.1743    2.2153 H   0  0  0  0  0  0  0  0  0  0  0  0
   -4.0751    2.0084    2.2012 H   0  0  0  0  0  0  0  0  0  0  0  0
   -2.7633    2.8505    1.5317 H   0  0  0  0  0  0  0  0  0  0  0  0
    2.8000   -1.2882    1.4368 H   0  0  0  0  0  0  0  0  0  0  0  0
    2.9331    1.8972   -1.5189 H   0  0  0  0  0  0  0  0  0  0  0  0
    5.2095   -1.1005    1.7095 H   0  0  0  0  0  0  0  0  0  0  0  0
    5.3257    2.1079   -1.1456 H   0  0  0  0  0  0  0  0  0  0  0  0
    6.4918    0.6070    0.4478 H   0  0  0  0  0  0  0  0  0  0  0  0
  1  8  1  0  0  0  0
  1 10  1  0  0  0  0
  2  9  2  0  0  0  0
  3  6  1  0  0  0  0
  3  8  1  0  0  0  0
  3  9  1  0  0  0  0
  4  9  1  0  0  0  0
  4 10  1  0  0  0  0
  4 16  1  0  0  0  0
  5  7  1  0  0  0  0
  5  8  2  0  0  0  0
  6 11  1  0  0  0  0
  6 12  1  0  0  0  0
  6 22  1  0  0  0  0
  7 13  1  0  0  0  0
  7 14  1  0  0  0  0
  7 15  1  0  0  0  0
 10 23  1  0  0  0  0
 10 24  1  0  0  0  0
 11 25  1  0  0  0  0
 11 26  1  0  0  0  0
 11 27  1  0  0  0  0
 12 28  1  0  0  0  0
 12 29  1  0  0  0  0
 12 30  1  0  0  0  0
 13 31  1  0  0  0  0
 13 32  1  0  0  0  0
 13 33  1  0  0  0  0
 14 34  1  0  0  0  0
 14 35  1  0  0  0  0
 14 36  1  0  0  0  0
 15 37  1  0  0  0  0
 15 38  1  0  0  0  0
 15 39  1  0  0  0  0
 16 17  2  0  0  0  0
 16 18  1  0  0  0  0
 17 19  1  0  0  0  0
 17 40  1  0  0  0  0
 18 20  2  0  0  0  0
 18 41  1  0  0  0  0
 19 21  2  0  0  0  0
 19 42  1  0  0  0  0
 20 21  1  0  0  0  0
 20 43  1  0  0  0  0
 21 44  1  0  0  0  0
M  END
> <PUBCHEM_COMPOUND_CID>
50367

> <PUBCHEM_CONFORMER_RMSD>
0.6

> <PUBCHEM_CONFORMER_DIVERSEORDER>
1
4
2
3

> <PUBCHEM_MMFF94_PARTIAL_CHARGES>
21
1 -0.37
10 0.53
16 0.12
17 -0.15
18 -0.15
19 -0.15
2 -0.57
20 -0.15
21 -0.15
3 -0.42
4 -0.48
40 0.15
41 0.15
42 0.15
43 0.15
44 0.15
5 -0.7
6 0.3
7 0.25
8 0.65
9 0.69

> <PUBCHEM_EFFECTIVE_ROTOR_COUNT>
3.8

> <PUBCHEM_PHARMACOPHORE_FEATURES>
5
1 2 acceptor
3 6 11 12 hydrophobe
4 7 13 14 15 hydrophobe
6 1 3 4 8 9 10 rings
6 16 17 18 19 20 21 rings

> <PUBCHEM_HEAVY_ATOM_COUNT>
21

> <PUBCHEM_ATOM_DEF_STEREO_COUNT>
0

> <PUBCHEM_ATOM_UDEF_STEREO_COUNT>
0

> <PUBCHEM_BOND_DEF_STEREO_COUNT>
0

> <PUBCHEM_BOND_UDEF_STEREO_COUNT>
0

> <PUBCHEM_ISOTOPIC_ATOM_COUNT>
0

> <PUBCHEM_COMPONENT_COUNT>
1

> <PUBCHEM_CACTVS_TAUTO_COUNT>
1

> <PUBCHEM_CONFORMER_ID>
0000C4BF00000001

> <PUBCHEM_MMFF94_ENERGY>
128.8282

> <PUBCHEM_FEATURE_SELFOVERLAP>
25.371

> <PUBCHEM_SHAPE_FINGERPRINT>
10062212 137 18341336591442295118
10366900 7 17603309266968570040
10411042 1 17761492482968332519
10493431 412 18408879663972629961
10616163 171 18411980222296400126
1100329 8 18336544915479183681
11132069 177 18411140251299841796
11680986 33 18266163092951990911
12107183 9 18055646263587186682
12236239 1 18201720635370694384
12251169 10 18272371996854494456
12403814 3 17917996091997472669
12616971 3 17632863006268793044
12633257 1 18409733967348810568
12788726 201 18192713336788990855
13140716 1 18338796697880702777
13583140 156 16845579737633053901
13675066 3 17489585692759950452
14787075 74 18335145306354820233
15042514 8 18341045229756798275
15196674 1 18341049623639996412
15209294 21 18187363285127893401
16752209 62 18263092024174381358
1741750 31 18260543450430577467
18222031 100 11599707451330012633
19050596 39 18272375248424241064
20261772 1 18272650164648540388
204376 136 18410290358691595793
20600515 1 18187914084872632748
20602899 9 15936410044067402991
20645477 56 18334010588189061349
21033648 29 18267883815738600712
21236236 1 18336829688805622134
21524375 3 18336547217792170051
22182313 1 18043504231795775927
22224240 67 18336255817789643145
23227448 37 18413107242883407997
23402539 116 18187373120914010277
23419403 2 16011020575493442827
23503953 91 18341058458382677168
23557571 272 17895186650011491030
23558518 356 17911514303215802232
23559900 14 18113890581761226228
23598288 3 18192142698949267415
23728640 28 18336546027981058883
25147074 1 18198899223671572740
2748010 2 17837770388995195949
335352 9 18340206392763806518
34934 24 18342460365229381171
350125 39 18338794495057981705
3545911 37 18408882958381130084
4214541 1 18411419484213914172
474 4 18343300396550511154
474229 33 18410574003075092855
5104073 3 18270688567675625008
5486654 2 18187645830042070897
56633871 153 17910418382877668394
633830 44 17752480134273929581
6438718 38 18187364285960710175
69090 78 18411702114478746713
7064713 232 18408891762921876712
7471813 234 17828500067301561599
9709674 26 18408318891520337022
9862522 239 18271536406366421565

> <PUBCHEM_SHAPE_MULTIPOLES>
415.21
10.1
2.76
1.11
7.88
1.51
-0.05
-4.27
-1.39
-2.76
0.21
-0.37
0.02
-0.98

> <PUBCHEM_SHAPE_SELFOVERLAP>
856.923

> <PUBCHEM_SHAPE_VOLUME>
241.5

> <PUBCHEM_COORDINATE_TYPE>
2
5
10

$$$$

