43594
  -OEChem-07051212523D

 53 56  0     1  0  0  0  0  0999 V2000
    1.7335   -0.2496    1.5496 S   0  0  0  0  0  0  0  0  0  0  0  0
   -2.9511    0.2877    0.6294 S   0  0  0  0  0  0  0  0  0  0  0  0
   -5.7569    1.8437   -1.8938 S   0  0  0  0  0  0  0  0  0  0  0  0
    1.6141   -3.3139   -1.9445 O   0  0  0  0  0  0  0  0  0  0  0  0
   -1.1826   -4.0695   -0.6480 O   0  0  0  0  0  0  0  0  0  0  0  0
    5.6942   -1.3935    0.4365 O   0  0  0  0  0  0  0  0  0  0  0  0
   -2.0515   -2.1123   -1.4508 O   0  0  0  0  0  0  0  0  0  0  0  0
    6.8641    0.2507   -1.4414 O   0  0  0  0  0  0  0  0  0  0  0  0
   -5.6969    3.3510   -2.5117 O   0  0  0  0  0  0  0  0  0  0  0  0
   -4.6354    1.0854   -2.4085 O   0  0  0  0  0  0  0  0  0  0  0  0
   -7.1188    1.3584   -1.9861 O   0  0  0  0  0  0  0  0  0  0  0  0
    0.9304   -2.3060    0.0748 N   0  0  0  0  0  0  0  0  0  0  0  0
    3.6671   -1.1293   -0.6640 N   0  0  0  0  0  0  0  0  0  0  0  0
   -5.5576    1.2090    0.7400 N   0  0  0  0  0  0  0  0  0  0  0  0
   -5.2091   -0.4950    2.0352 N   0  0  0  0  0  0  0  0  0  0  0  0
   -6.7360    0.9695    1.3322 N   0  0  0  0  0  0  0  0  0  0  0  0
   -6.5167   -0.0740    2.1228 N   0  0  0  0  0  0  0  0  0  0  0  0
    1.9405   -1.9782    1.0644 C   0  0  1  0  0  0  0  0  0  0  0  0
    2.9794   -2.2608   -0.0429 C   0  0  1  0  0  0  0  0  0  0  0  0
    1.7700   -2.7831   -0.8697 C   0  0  0  0  0  0  0  0  0  0  0  0
   -0.3999   -2.1053    0.2589 C   0  0  0  0  0  0  0  0  0  0  0  0
   -0.8646   -1.3169    1.2572 C   0  0  0  0  0  0  0  0  0  0  0  0
    0.0439   -0.5146    2.1861 C   0  0  0  0  0  0  0  0  0  0  0  0
   -2.3258   -1.1100    1.5764 C   0  0  0  0  0  0  0  0  0  0  0  0
    4.9861   -0.7884   -0.3656 C   0  0  0  0  0  0  0  0  0  0  0  0
   -1.3095   -2.7295   -0.7134 C   0  0  0  0  0  0  0  0  0  0  0  0
    5.4824    0.4131   -1.1576 C   0  0  1  0  0  0  0  0  0  0  0  0
    5.2892    1.7025   -0.3946 C   0  0  0  0  0  0  0  0  0  0  0  0
   -4.6340    0.3123    1.1739 C   0  0  0  0  0  0  0  0  0  0  0  0
    4.1043    2.4251   -0.5348 C   0  0  0  0  0  0  0  0  0  0  0  0
    6.2955    2.1703    0.4507 C   0  0  0  0  0  0  0  0  0  0  0  0
   -5.4224    2.2919   -0.2010 C   0  0  0  0  0  0  0  0  0  0  0  0
    3.9256    3.6154    0.1699 C   0  0  0  0  0  0  0  0  0  0  0  0
    6.1167    3.3607    1.1554 C   0  0  0  0  0  0  0  0  0  0  0  0
    4.9317    4.0832    1.0150 C   0  0  0  0  0  0  0  0  0  0  0  0
    1.9722   -2.6926    1.8955 H   0  0  0  0  0  0  0  0  0  0  0  0
    3.6728   -3.0721    0.2115 H   0  0  0  0  0  0  0  0  0  0  0  0
    0.1067   -1.0201    3.1561 H   0  0  0  0  0  0  0  0  0  0  0  0
   -0.3733    0.4828    2.3587 H   0  0  0  0  0  0  0  0  0  0  0  0
    3.1695   -0.5513   -1.3373 H   0  0  0  0  0  0  0  0  0  0  0  0
   -2.4610   -0.9373    2.6503 H   0  0  0  0  0  0  0  0  0  0  0  0
   -2.9046   -2.0075    1.3305 H   0  0  0  0  0  0  0  0  0  0  0  0
    4.9669    0.4743   -2.1234 H   0  0  0  0  0  0  0  0  0  0  0  0
   -1.7739   -4.5278   -1.2825 H   0  0  0  0  0  0  0  0  0  0  0  0
    6.9530   -0.5179   -2.0308 H   0  0  0  0  0  0  0  0  0  0  0  0
    3.3124    2.0708   -1.1893 H   0  0  0  0  0  0  0  0  0  0  0  0
    7.2225    1.6209    0.5891 H   0  0  0  0  0  0  0  0  0  0  0  0
   -6.1368    3.0720    0.0830 H   0  0  0  0  0  0  0  0  0  0  0  0
   -4.4130    2.7063   -0.1411 H   0  0  0  0  0  0  0  0  0  0  0  0
    3.0026    4.1775    0.0613 H   0  0  0  0  0  0  0  0  0  0  0  0
    6.8985    3.7237    1.8162 H   0  0  0  0  0  0  0  0  0  0  0  0
    4.7922    5.0095    1.5647 H   0  0  0  0  0  0  0  0  0  0  0  0
   -4.8005    3.7608   -2.5445 H   0  0  0  0  0  0  0  0  0  0  0  0
  1 18  1  0  0  0  0
  1 23  1  0  0  0  0
  2 24  1  0  0  0  0
  2 29  1  0  0  0  0
  3  9  1  0  0  0  0
  3 10  2  0  0  0  0
  3 11  2  0  0  0  0
  3 32  1  0  0  0  0
  4 20  2  0  0  0  0
  5 26  1  0  0  0  0
  5 44  1  0  0  0  0
  6 25  2  0  0  0  0
  7 26  2  0  0  0  0
  8 27  1  0  0  0  0
  8 45  1  0  0  0  0
  9 53  1  0  0  0  0
 12 18  1  0  0  0  0
 12 20  1  0  0  0  0
 12 21  1  0  0  0  0
 13 19  1  0  0  0  0
 13 25  1  0  0  0  0
 13 40  1  0  0  0  0
 14 16  1  0  0  0  0
 14 29  1  0  0  0  0
 14 32  1  0  0  0  0
 15 17  1  0  0  0  0
 15 29  2  0  0  0  0
 16 17  2  0  0  0  0
 18 19  1  0  0  0  0
 18 36  1  0  0  0  0
 19 20  1  0  0  0  0
 19 37  1  0  0  0  0
 21 22  2  0  0  0  0
 21 26  1  0  0  0  0
 22 23  1  0  0  0  0
 22 24  1  0  0  0  0
 23 38  1  0  0  0  0
 23 39  1  0  0  0  0
 24 41  1  0  0  0  0
 24 42  1  0  0  0  0
 25 27  1  0  0  0  0
 27 28  1  0  0  0  0
 27 43  1  0  0  0  0
 28 30  2  0  0  0  0
 28 31  1  0  0  0  0
 30 33  1  0  0  0  0
 30 46  1  0  0  0  0
 31 34  2  0  0  0  0
 31 47  1  0  0  0  0
 32 48  1  0  0  0  0
 32 49  1  0  0  0  0
 33 35  2  0  0  0  0
 33 50  1  0  0  0  0
 34 35  1  0  0  0  0
 34 51  1  0  0  0  0
 35 52  1  0  0  0  0
M  END
> <PUBCHEM_COMPOUND_CID>
43594

> <PUBCHEM_CONFORMER_RMSD>
1

> <PUBCHEM_CONFORMER_DIVERSEORDER>
1
102
40
74
96
111
39
25
71
146
59
155
121
107
160
19
148
86
54
45
84
55
104
9
31
125
136
81
69
89
151
162
154
109
152
165
33
16
133
88
77
66
43
26
83
65
94
118
61
8
147
91
120
129
72
47
10
113
23
29
79
50
144
124
60
11
41
142
108
149
145
6
106
123
27
37
52
92
159
138
51
56
30
127
76
101
93
110
22
158
34
161
13
99
119
58
156
134
73
67
90
36
18
68
78
97
140
103
157
80
105
48
7
139
64
115
57
87
4
35
21
112
63
117
49
53
85
14
150
3
116
143
163
131
126
17
137
114
132
130
100
95
24
12
28
5
135
46
153
15
82
32
141
122
38
75
42
128
2
98
164
44
20
70
62

> <PUBCHEM_MMFF94_PARTIAL_CHARGES>
43
1 -0.45
10 -0.65
11 -0.65
12 -0.39
13 -0.65
14 0.31
15 -0.34
16 -0.42
18 0.44
19 0.28
2 -0.29
20 0.58
21 0.12
22 -0.28
23 0.37
24 0.37
25 0.57
26 0.71
27 0.48
28 -0.14
29 0.24
3 1.38
30 -0.15
31 -0.15
32 0.36
33 -0.15
34 -0.15
35 -0.15
4 -0.57
40 0.37
44 0.5
45 0.4
46 0.15
47 0.15
5 -0.65
50 0.15
51 0.15
52 0.15
53 0.5
6 -0.57
7 -0.57
8 -0.68
9 -0.68

> <PUBCHEM_EFFECTIVE_ROTOR_COUNT>
10.6

> <PUBCHEM_PHARMACOPHORE_FEATURES>
17
1 10 acceptor
1 11 acceptor
1 13 donor
1 4 acceptor
1 5 acceptor
1 6 acceptor
1 7 acceptor
1 8 acceptor
1 8 donor
1 9 acceptor
3 14 15 29 cation
3 5 7 26 anion
4 12 18 19 20 rings
4 3 9 10 11 anion
5 14 15 16 17 29 rings
6 1 12 18 21 22 23 rings
6 28 30 31 33 34 35 rings

> <PUBCHEM_HEAVY_ATOM_COUNT>
35

> <PUBCHEM_ATOM_DEF_STEREO_COUNT>
3

> <PUBCHEM_ATOM_UDEF_STEREO_COUNT>
0

> <PUBCHEM_BOND_DEF_STEREO_COUNT>
0

> <PUBCHEM_BOND_UDEF_STEREO_COUNT>
0

> <PUBCHEM_ISOTOPIC_ATOM_COUNT>
0

> <PUBCHEM_COMPONENT_COUNT>
1

> <PUBCHEM_CACTVS_TAUTO_COUNT>
2

> <PUBCHEM_CONFORMER_ID>
0000AA4A00000001

> <PUBCHEM_MMFF94_ENERGY>
74.1797

> <PUBCHEM_FEATURE_SELFOVERLAP>
86.639

> <PUBCHEM_SHAPE_FINGERPRINT>
10673678 19 18188196650474942850
11456790 92 18060144258814999026
11479125 193 18338246967879173893
11621639 179 18412821388216715148
11796584 16 5978106791423285403
12422481 6 17775004557455003764
12857493 111 17475798031358907354
13878862 14 18341621438458671062
13947947 63 15769788986937342117
14117953 113 18187352265138220862
14556957 393 16951109785640955305
14739800 52 17559965483746292761
15082195 135 18191312782476774353
17686467 74 18201148851434677483
18335252 114 18335979861624432862
20511986 3 17822853057950313576
20715895 44 18260540096852209002
21033648 29 17489871535385870978
22121540 332 17987811824512405005
23569914 2 17770540561674246677
249057 3 18187915197838309598
25269216 80 15502660343493511013
2838139 119 18412548721036149702
6036956 94 17184468712324275136

> <PUBCHEM_SHAPE_MULTIPOLES>
654.99
19.53
4.92
2.19
9.73
0.94
0.37
20.75
2.72
-3.91
1.44
3.56
0.44
3.72

> <PUBCHEM_SHAPE_SELFOVERLAP>
1362.413

> <PUBCHEM_SHAPE_VOLUME>
373.2

> <PUBCHEM_COORDINATE_TYPE>
2
5
10

$$$$

