443026
  -OEChem-07051213003D

 55 57  0     1  0  0  0  0  0999 V2000
    0.0191    1.4866    1.3921 O   0  0  0  0  0  0  0  0  0  0  0  0
   -2.7937   -2.4473    1.0781 O   0  0  0  0  0  0  0  0  0  0  0  0
    2.0388   -2.3124   -1.1260 O   0  0  0  0  0  0  0  0  0  0  0  0
   -5.1314   -1.7130   -0.2329 O   0  0  0  0  0  0  0  0  0  0  0  0
    4.7606   -2.1632   -0.5848 O   0  0  0  0  0  0  0  0  0  0  0  0
   -0.2775    2.6711   -0.6419 C   0  0  1  0  0  0  0  0  0  0  0  0
    1.0257    3.1387    0.0010 C   0  0  1  0  0  0  0  0  0  0  0  0
   -1.0089    2.0894    0.5752 C   0  0  1  0  0  0  0  0  0  0  0  0
    1.3063    2.0294    1.0262 C   0  0  2  0  0  0  0  0  0  0  0  0
   -1.0552    3.7800   -1.3387 C   0  0  0  0  0  0  0  0  0  0  0  0
    2.1417    3.4589   -0.9825 C   0  0  0  0  0  0  0  0  0  0  0  0
   -2.1065    1.0731    0.3612 C   0  0  0  0  0  0  0  0  0  0  0  0
    2.2266    0.9075    0.5944 C   0  0  0  0  0  0  0  0  0  0  0  0
   -1.9485   -0.2360    0.8212 C   0  0  0  0  0  0  0  0  0  0  0  0
    1.7085   -0.2014   -0.0749 C   0  0  0  0  0  0  0  0  0  0  0  0
   -3.2822    1.4394   -0.2976 C   0  0  0  0  0  0  0  0  0  0  0  0
    3.5930    0.9821    0.8662 C   0  0  0  0  0  0  0  0  0  0  0  0
   -2.9614   -1.1744    0.6233 C   0  0  0  0  0  0  0  0  0  0  0  0
    2.5564   -1.2353   -0.4723 C   0  0  0  0  0  0  0  0  0  0  0  0
   -4.2950    0.5011   -0.4956 C   0  0  0  0  0  0  0  0  0  0  0  0
    4.4408   -0.0516    0.4688 C   0  0  0  0  0  0  0  0  0  0  0  0
   -4.1347   -0.8057   -0.0350 C   0  0  0  0  0  0  0  0  0  0  0  0
    3.9226   -1.1603   -0.2005 C   0  0  0  0  0  0  0  0  0  0  0  0
   -2.1936   -3.3819    0.1832 C   0  0  0  0  0  0  0  0  0  0  0  0
    1.6033   -3.4091   -0.3248 C   0  0  0  0  0  0  0  0  0  0  0  0
   -6.2980   -1.2560   -0.9143 C   0  0  0  0  0  0  0  0  0  0  0  0
    6.1430   -2.0095   -0.2690 C   0  0  0  0  0  0  0  0  0  0  0  0
   -0.0662    1.8785   -1.3713 H   0  0  0  0  0  0  0  0  0  0  0  0
    0.8115    4.0578    0.5665 H   0  0  0  0  0  0  0  0  0  0  0  0
   -1.4288    2.9002    1.1866 H   0  0  0  0  0  0  0  0  0  0  0  0
    1.7183    2.4750    1.9404 H   0  0  0  0  0  0  0  0  0  0  0  0
   -1.4215    4.5263   -0.6261 H   0  0  0  0  0  0  0  0  0  0  0  0
   -0.4262    4.2976   -2.0699 H   0  0  0  0  0  0  0  0  0  0  0  0
   -1.9093    3.3814   -1.8913 H   0  0  0  0  0  0  0  0  0  0  0  0
    3.0655    3.7121   -0.4526 H   0  0  0  0  0  0  0  0  0  0  0  0
    2.3466    2.6202   -1.6557 H   0  0  0  0  0  0  0  0  0  0  0  0
    1.8765    4.3200   -1.6042 H   0  0  0  0  0  0  0  0  0  0  0  0
   -1.0562   -0.5617    1.3474 H   0  0  0  0  0  0  0  0  0  0  0  0
    0.6560   -0.2739   -0.3227 H   0  0  0  0  0  0  0  0  0  0  0  0
   -3.4440    2.4580   -0.6338 H   0  0  0  0  0  0  0  0  0  0  0  0
    4.0080    1.8417    1.3859 H   0  0  0  0  0  0  0  0  0  0  0  0
   -5.1812    0.8599   -1.0076 H   0  0  0  0  0  0  0  0  0  0  0  0
    5.4900    0.0745    0.7129 H   0  0  0  0  0  0  0  0  0  0  0  0
   -1.8191   -4.2271    0.7669 H   0  0  0  0  0  0  0  0  0  0  0  0
   -1.3594   -2.9314   -0.3631 H   0  0  0  0  0  0  0  0  0  0  0  0
   -2.9433   -3.7473   -0.5250 H   0  0  0  0  0  0  0  0  0  0  0  0
    0.9522   -3.0694    0.4869 H   0  0  0  0  0  0  0  0  0  0  0  0
    2.4679   -3.9371    0.0894 H   0  0  0  0  0  0  0  0  0  0  0  0
    1.0432   -4.0993   -0.9614 H   0  0  0  0  0  0  0  0  0  0  0  0
   -6.9835   -2.1069   -0.9859 H   0  0  0  0  0  0  0  0  0  0  0  0
   -6.0707   -0.9440   -1.9393 H   0  0  0  0  0  0  0  0  0  0  0  0
   -6.8175   -0.4765   -0.3466 H   0  0  0  0  0  0  0  0  0  0  0  0
    6.5802   -1.1452   -0.7806 H   0  0  0  0  0  0  0  0  0  0  0  0
    6.6604   -2.8975   -0.6469 H   0  0  0  0  0  0  0  0  0  0  0  0
    6.3089   -1.9815    0.8133 H   0  0  0  0  0  0  0  0  0  0  0  0
  1  8  1  0  0  0  0
  1  9  1  0  0  0  0
  2 18  1  0  0  0  0
  2 24  1  0  0  0  0
  3 19  1  0  0  0  0
  3 25  1  0  0  0  0
  4 22  1  0  0  0  0
  4 26  1  0  0  0  0
  5 23  1  0  0  0  0
  5 27  1  0  0  0  0
  6  7  1  0  0  0  0
  6  8  1  0  0  0  0
  6 10  1  0  0  0  0
  6 28  1  0  0  0  0
  7  9  1  0  0  0  0
  7 11  1  0  0  0  0
  7 29  1  0  0  0  0
  8 12  1  0  0  0  0
  8 30  1  0  0  0  0
  9 13  1  0  0  0  0
  9 31  1  0  0  0  0
 10 32  1  0  0  0  0
 10 33  1  0  0  0  0
 10 34  1  0  0  0  0
 11 35  1  0  0  0  0
 11 36  1  0  0  0  0
 11 37  1  0  0  0  0
 12 14  2  0  0  0  0
 12 16  1  0  0  0  0
 13 15  2  0  0  0  0
 13 17  1  0  0  0  0
 14 18  1  0  0  0  0
 14 38  1  0  0  0  0
 15 19  1  0  0  0  0
 15 39  1  0  0  0  0
 16 20  2  0  0  0  0
 16 40  1  0  0  0  0
 17 21  2  0  0  0  0
 17 41  1  0  0  0  0
 18 22  2  0  0  0  0
 19 23  2  0  0  0  0
 20 22  1  0  0  0  0
 20 42  1  0  0  0  0
 21 23  1  0  0  0  0
 21 43  1  0  0  0  0
 24 44  1  0  0  0  0
 24 45  1  0  0  0  0
 24 46  1  0  0  0  0
 25 47  1  0  0  0  0
 25 48  1  0  0  0  0
 25 49  1  0  0  0  0
 26 50  1  0  0  0  0
 26 51  1  0  0  0  0
 26 52  1  0  0  0  0
 27 53  1  0  0  0  0
 27 54  1  0  0  0  0
 27 55  1  0  0  0  0
M  END
> <PUBCHEM_COMPOUND_CID>
443026

> <PUBCHEM_CONFORMER_RMSD>
0.8

> <PUBCHEM_CONFORMER_DIVERSEORDER>
22
73
55
44
25
1
24
48
39
57
74
51
60
29
79
30
23
15
19
53
20
58
26
3
13
2
33
35
61
27
50
78
69
38
67
17
43
16
59
21
76
47
4
36
75
64
54
56
14
72
49
10
37
71
45
8
68
65
32
34
77
31
41
40
12
18
46
62
5
6
42
70
11
66
7
28
52
9
63

> <PUBCHEM_MMFF94_PARTIAL_CHARGES>
29
1 -0.56
12 -0.14
13 -0.14
14 -0.15
15 -0.15
16 -0.15
17 -0.15
18 0.08
19 0.08
2 -0.36
20 -0.15
21 -0.15
22 0.08
23 0.08
24 0.28
25 0.28
26 0.28
27 0.28
3 -0.36
38 0.15
39 0.15
4 -0.36
40 0.15
41 0.15
42 0.15
43 0.15
5 -0.36
8 0.42
9 0.42

> <PUBCHEM_EFFECTIVE_ROTOR_COUNT>
7

> <PUBCHEM_PHARMACOPHORE_FEATURES>
8
1 1 acceptor
1 2 acceptor
1 3 acceptor
1 4 acceptor
1 5 acceptor
5 1 6 7 8 9 rings
6 12 14 16 18 20 22 rings
6 13 15 17 19 21 23 rings

> <PUBCHEM_HEAVY_ATOM_COUNT>
27

> <PUBCHEM_ATOM_DEF_STEREO_COUNT>
4

> <PUBCHEM_ATOM_UDEF_STEREO_COUNT>
0

> <PUBCHEM_BOND_DEF_STEREO_COUNT>
0

> <PUBCHEM_BOND_UDEF_STEREO_COUNT>
0

> <PUBCHEM_ISOTOPIC_ATOM_COUNT>
0

> <PUBCHEM_COMPONENT_COUNT>
1

> <PUBCHEM_CACTVS_TAUTO_COUNT>
1

> <PUBCHEM_CONFORMER_ID>
0006C29200000016

> <PUBCHEM_MMFF94_ENERGY>
119.995

> <PUBCHEM_FEATURE_SELFOVERLAP>
40.604

> <PUBCHEM_SHAPE_FINGERPRINT>
10616163 171 17692810385663999145
10693767 8 17899438415239575295
11578080 2 14331684853895275646
116883 192 18342462542899892429
12553582 1 18266998678775513624
12596602 18 15213312875943167779
12645989 146 18259983812161693030
13402501 40 18409169926104378951
13533116 47 18116433649008504545
13544653 18 18259702306797632448
13631057 29 18336826519858476234
14117953 113 18335138708974292095
14790565 3 17329710921483146840
14866123 147 18192146212791730177
14931854 50 18341895254960878831
15352361 1 18409166627447773563
17357779 13 18337402624537167628
17492 54 18129365017910699524
17492 89 18123749755977028443
19141452 34 18191581067714738825
19930381 70 18337392759577848951
20028762 73 17967255303965454462
20645477 70 18269561537759905153
20775530 9 18409168843672127411
21033650 10 17131274691542740741
21285901 2 18343029904069063597
21307412 95 18192998333939155997
23559900 14 18338242553179495747
3004659 81 18343868822333871240
338550 245 17974859363274187303
4280585 95 18343024423717030864
4403749 210 17040090745011368137
46194498 28 17987806194184845717
463206 1 17970637285889169135
5207 123 18410014334234365549
5309563 4 18335704965719682229
9709674 26 18339362955417416721

> <PUBCHEM_SHAPE_MULTIPOLES>
526.3
10.91
4.73
1.07
2.07
0.98
-0.02
-9.18
1.87
-0.93
1.22
0.03
0.35
0.93

> <PUBCHEM_SHAPE_SELFOVERLAP>
1117.374

> <PUBCHEM_SHAPE_VOLUME>
298.2

> <PUBCHEM_COORDINATE_TYPE>
2
5
10

$$$$

