15558498
  -OEChem-07051213093D

 36 40  0     1  0  0  0  0  0999 V2000
   -3.2842   -1.4287   -0.4439 O   0  0  0  0  0  0  0  0  0  0  0  0
   -4.6932    0.1003    0.7266 O   0  0  0  0  0  0  0  0  0  0  0  0
   -2.6362    1.7967   -1.4525 O   0  0  0  0  0  0  0  0  0  0  0  0
    0.2477    1.6730   -0.1096 O   0  0  0  0  0  0  0  0  0  0  0  0
    1.1793   -3.1182   -0.2183 O   0  0  0  0  0  0  0  0  0  0  0  0
    4.6646    1.9747    0.1898 O   0  0  0  0  0  0  0  0  0  0  0  0
    1.9410    3.2152    0.0540 O   0  0  0  0  0  0  0  0  0  0  0  0
   -2.6757    0.9439   -0.3269 C   0  0  2  0  0  0  0  0  0  0  0  0
   -1.5049    0.0404   -0.2793 C   0  0  0  0  0  0  0  0  0  0  0  0
   -3.8269   -0.0832   -0.4208 C   0  0  1  0  0  0  0  0  0  0  0  0
   -0.1525    0.3205   -0.1817 C   0  0  0  0  0  0  0  0  0  0  0  0
   -1.9259   -1.2761   -0.3544 C   0  0  0  0  0  0  0  0  0  0  0  0
    0.7861   -0.7193   -0.1575 C   0  0  0  0  0  0  0  0  0  0  0  0
    2.1914   -0.3558   -0.0533 C   0  0  0  0  0  0  0  0  0  0  0  0
   -3.0083    1.6612    0.9227 C   0  0  0  0  0  0  0  0  0  0  0  0
    3.3288   -1.3229   -0.0131 C   0  0  0  0  0  0  0  0  0  0  0  0
    2.5344    0.9313    0.0139 C   0  0  0  0  0  0  0  0  0  0  0  0
    0.3332   -2.0484   -0.2347 C   0  0  0  0  0  0  0  0  0  0  0  0
   -1.0333   -2.3333   -0.3342 C   0  0  0  0  0  0  0  0  0  0  0  0
    4.5705   -0.4392    0.0930 C   0  0  0  0  0  0  0  0  0  0  0  0
   -4.1225    1.1418    1.4238 C   0  0  0  0  0  0  0  0  0  0  0  0
    4.0012    0.9522    0.1089 C   0  0  0  0  0  0  0  0  0  0  0  0
    1.5877    2.0447   -0.0091 C   0  0  0  0  0  0  0  0  0  0  0  0
    1.4979   -3.6708    1.0564 C   0  0  0  0  0  0  0  0  0  0  0  0
   -4.4352    0.0485   -1.3245 H   0  0  0  0  0  0  0  0  0  0  0  0
   -2.4499    2.4780    1.3537 H   0  0  0  0  0  0  0  0  0  0  0  0
    3.3061   -1.9559    0.8740 H   0  0  0  0  0  0  0  0  0  0  0  0
    3.3823   -1.9457   -0.9116 H   0  0  0  0  0  0  0  0  0  0  0  0
   -1.3874   -3.3577   -0.3941 H   0  0  0  0  0  0  0  0  0  0  0  0
    5.2252   -0.5645   -0.7742 H   0  0  0  0  0  0  0  0  0  0  0  0
    5.1239   -0.6289    1.0173 H   0  0  0  0  0  0  0  0  0  0  0  0
   -4.6454    1.4265    2.3193 H   0  0  0  0  0  0  0  0  0  0  0  0
   -3.4742    2.2888   -1.4927 H   0  0  0  0  0  0  0  0  0  0  0  0
    0.7462   -4.4229    1.3162 H   0  0  0  0  0  0  0  0  0  0  0  0
    1.5277   -2.9122    1.8460 H   0  0  0  0  0  0  0  0  0  0  0  0
    2.4699   -4.1674    0.9906 H   0  0  0  0  0  0  0  0  0  0  0  0
  1 10  1  0  0  0  0
  1 12  1  0  0  0  0
  2 10  1  0  0  0  0
  2 21  1  0  0  0  0
  3  8  1  0  0  0  0
  3 33  1  0  0  0  0
  4 11  1  0  0  0  0
  4 23  1  0  0  0  0
  5 18  1  0  0  0  0
  5 24  1  0  0  0  0
  6 22  2  0  0  0  0
  7 23  2  0  0  0  0
  8  9  1  0  0  0  0
  8 10  1  0  0  0  0
  8 15  1  0  0  0  0
  9 11  2  0  0  0  0
  9 12  1  0  0  0  0
 10 25  1  0  0  0  0
 11 13  1  0  0  0  0
 12 19  2  0  0  0  0
 13 14  1  0  0  0  0
 13 18  2  0  0  0  0
 14 16  1  0  0  0  0
 14 17  2  0  0  0  0
 15 21  2  0  0  0  0
 15 26  1  0  0  0  0
 16 20  1  0  0  0  0
 16 27  1  0  0  0  0
 16 28  1  0  0  0  0
 17 22  1  0  0  0  0
 17 23  1  0  0  0  0
 18 19  1  0  0  0  0
 19 29  1  0  0  0  0
 20 22  1  0  0  0  0
 20 30  1  0  0  0  0
 20 31  1  0  0  0  0
 21 32  1  0  0  0  0
 24 34  1  0  0  0  0
 24 35  1  0  0  0  0
 24 36  1  0  0  0  0
M  END
> <PUBCHEM_COMPOUND_CID>
15558498

> <PUBCHEM_CONFORMER_RMSD>
0.6

> <PUBCHEM_CONFORMER_DIVERSEORDER>
1

> <PUBCHEM_MMFF94_PARTIAL_CHARGES>
28
1 -0.36
10 0.56
11 0.08
12 0.08
13 0.03
14 -0.17
15 -0.29
16 0.14
17 0.03
18 0.08
19 -0.15
2 -0.36
20 0.06
21 -0.07
22 0.49
23 0.71
24 0.28
26 0.15
29 0.15
3 -0.68
32 0.15
33 0.4
4 -0.23
5 -0.36
6 -0.57
7 -0.57
8 0.56
9 -0.14

> <PUBCHEM_EFFECTIVE_ROTOR_COUNT>
1.8

> <PUBCHEM_PHARMACOPHORE_FEATURES>
13
1 1 acceptor
1 17 anion
1 2 acceptor
1 3 acceptor
1 3 donor
1 5 acceptor
1 6 acceptor
1 7 acceptor
5 1 8 9 10 12 rings
5 14 16 17 20 22 rings
5 2 8 10 15 21 rings
6 4 11 13 14 17 23 rings
6 9 11 12 13 18 19 rings

> <PUBCHEM_HEAVY_ATOM_COUNT>
24

> <PUBCHEM_ATOM_DEF_STEREO_COUNT>
2

> <PUBCHEM_ATOM_UDEF_STEREO_COUNT>
0

> <PUBCHEM_BOND_DEF_STEREO_COUNT>
0

> <PUBCHEM_BOND_UDEF_STEREO_COUNT>
0

> <PUBCHEM_ISOTOPIC_ATOM_COUNT>
0

> <PUBCHEM_COMPONENT_COUNT>
1

> <PUBCHEM_CACTVS_TAUTO_COUNT>
10

> <PUBCHEM_CONFORMER_ID>
00ED676200000001

> <PUBCHEM_MMFF94_ENERGY>
87.7171

> <PUBCHEM_FEATURE_SELFOVERLAP>
66.71

> <PUBCHEM_SHAPE_FINGERPRINT>
10366900 7 18060125566394737195
10382601 240 18266446779767826330
10411042 1 16825871761269816678
10493431 412 18336826403424776488
10906281 52 18336813214307918300
10967382 1 18410577326968466334
1100329 8 18337390444516110416
11578080 2 17057811994558447199
12035759 4 18043840631067443303
12236239 1 17822012030133791941
12390115 104 18191569879551259568
12403814 3 18202565077407011637
12422481 6 17979943792977789250
12553582 1 18194687196731800290
12592029 89 18412822516521755674
12644460 14 18270113659700054858
12788726 201 17691697688424107218
13140716 1 18338794507573657585
13583140 156 16916803880340093108
138480 1 18050288364715747398
14022349 108 18339078323276181867
14178342 30 18190760664610007234
14223421 5 18342455984716413819
14466204 15 18410866468757089392
14790565 3 18339350895229143772
14955137 171 18267846415394508152
15196674 1 18408886213544347366
15209289 33 18336264561303710149
15309172 13 18412543193518630781
15442244 35 18408324367566378076
15475509 35 16914233355773165379
16945 1 18339087097888651093
18186145 218 18335138713205578588
18219364 16 18342182197557161445
19591789 44 18410856603001205118
200 152 18114474383622666053
20028762 73 18116434739314032959
20510252 161 17903919959370532011
20739085 24 17904177567060868137
20905425 154 17976540830006320702
21267235 1 18409160026463153142
21421861 104 17983574397209475274
21524375 3 18409449141886029159
23184049 59 18412541015848970380
2334 1 18194404385640153804
23558518 356 18051697637937642910
23559900 14 18259704502601755550
238 59 17837534977748463885
335352 9 18408885174515638054
350125 39 18265893562474067473
352729 6 18051413968006063678
392239 28 18267570322503028067
474 4 18410572868644642121
5104073 3 18410015395164920546
6138700 20 18337668741650084398
633830 44 18187362147129968964
7364860 26 18336827618700398982
81228 2 17546179505898179899
9709674 26 18263359196862523862

> <PUBCHEM_SHAPE_MULTIPOLES>
452.82
8.2
3.36
0.9
0.42
1.48
0.11
-3.05
1.32
-2.03
0.4
0.74
-0.04
-0.53

> <PUBCHEM_SHAPE_SELFOVERLAP>
1043.192

> <PUBCHEM_SHAPE_VOLUME>
234.2

> <PUBCHEM_COORDINATE_TYPE>
2
5
10

$$$$

