101253
  -OEChem-07051213002D

 43 45  0     0  0  0  0  0  0999 V2000
    6.4144    2.0346    0.0000 O   0  0  0  0  0  0  0  0  0  0  0  0
    6.4144   -2.0346    0.0000 O   0  0  0  0  0  0  0  0  0  0  0  0
    8.1962    1.0241    0.0000 O   0  0  0  0  0  0  0  0  0  0  0  0
    8.1962   -1.0241    0.0000 O   0  0  0  0  0  0  0  0  0  0  0  0
    4.6660   -2.0000    0.0000 O   0  0  0  0  0  0  0  0  0  0  0  0
    4.6660    1.0000    0.0000 N   0  0  0  0  0  0  0  0  0  0  0  0
    5.5321    0.5000    0.0000 C   0  0  0  0  0  0  0  0  0  0  0  0
    5.5321   -0.5000    0.0000 C   0  0  0  0  0  0  0  0  0  0  0  0
    3.8000    0.5000    0.0000 C   0  0  0  0  0  0  0  0  0  0  0  0
    3.8000   -0.5000    0.0000 C   0  0  0  0  0  0  0  0  0  0  0  0
    4.6660   -1.0000    0.0000 C   0  0  0  0  0  0  0  0  0  0  0  0
    6.4260    1.0347    0.0000 C   0  0  0  0  0  0  0  0  0  0  0  0
    6.4260   -1.0347    0.0000 C   0  0  0  0  0  0  0  0  0  0  0  0
    7.3321    0.5208    0.0000 C   0  0  0  0  0  0  0  0  0  0  0  0
    7.3321   -0.5208    0.0000 C   0  0  0  0  0  0  0  0  0  0  0  0
    4.6660    2.0000    0.0000 C   0  0  0  0  0  0  0  0  0  0  0  0
    2.9061    1.0347    0.0000 C   0  0  0  0  0  0  0  0  0  0  0  0
    2.9061   -1.0347    0.0000 C   0  0  0  0  0  0  0  0  0  0  0  0
    2.0000    0.5208    0.0000 C   0  0  0  0  0  0  0  0  0  0  0  0
    2.0000   -0.5208    0.0000 C   0  0  0  0  0  0  0  0  0  0  0  0
    7.2746    2.5446    0.0000 C   0  0  0  0  0  0  0  0  0  0  0  0
    7.2746   -2.5446    0.0000 C   0  0  0  0  0  0  0  0  0  0  0  0
    9.0641    0.5275    0.0000 C   0  0  0  0  0  0  0  0  0  0  0  0
    9.0641   -0.5275    0.0000 C   0  0  0  0  0  0  0  0  0  0  0  0
    5.2860    2.0000    0.0000 H   0  0  0  0  0  0  0  0  0  0  0  0
    4.6660    2.6200    0.0000 H   0  0  0  0  0  0  0  0  0  0  0  0
    4.0460    2.0000    0.0000 H   0  0  0  0  0  0  0  0  0  0  0  0
    2.9132    1.6546    0.0000 H   0  0  0  0  0  0  0  0  0  0  0  0
    2.9132   -1.6546    0.0000 H   0  0  0  0  0  0  0  0  0  0  0  0
    1.4643    0.8329    0.0000 H   0  0  0  0  0  0  0  0  0  0  0  0
    1.4643   -0.8329    0.0000 H   0  0  0  0  0  0  0  0  0  0  0  0
    7.5908    2.0113    0.0000 H   0  0  0  0  0  0  0  0  0  0  0  0
    7.8079    2.8608    0.0000 H   0  0  0  0  0  0  0  0  0  0  0  0
    6.9584    3.0779    0.0000 H   0  0  0  0  0  0  0  0  0  0  0  0
    6.9584   -3.0779    0.0000 H   0  0  0  0  0  0  0  0  0  0  0  0
    7.8079   -2.8608    0.0000 H   0  0  0  0  0  0  0  0  0  0  0  0
    7.5908   -2.0113    0.0000 H   0  0  0  0  0  0  0  0  0  0  0  0
    8.7562   -0.0106    0.0000 H   0  0  0  0  0  0  0  0  0  0  0  0
    9.6022    0.2196    0.0000 H   0  0  0  0  0  0  0  0  0  0  0  0
    9.3720    1.0656    0.0000 H   0  0  0  0  0  0  0  0  0  0  0  0
    9.3720   -1.0656    0.0000 H   0  0  0  0  0  0  0  0  0  0  0  0
    9.6022   -0.2196    0.0000 H   0  0  0  0  0  0  0  0  0  0  0  0
    8.7562    0.0106    0.0000 H   0  0  0  0  0  0  0  0  0  0  0  0
  1 12  1  0  0  0  0
  1 21  1  0  0  0  0
  2 13  1  0  0  0  0
  2 22  1  0  0  0  0
  3 14  1  0  0  0  0
  3 23  1  0  0  0  0
  4 15  1  0  0  0  0
  4 24  1  0  0  0  0
  5 11  2  0  0  0  0
  6  7  1  0  0  0  0
  6  9  1  0  0  0  0
  6 16  1  0  0  0  0
  7  8  2  0  0  0  0
  7 12  1  0  0  0  0
  8 11  1  0  0  0  0
  8 13  1  0  0  0  0
  9 10  1  0  0  0  0
  9 17  2  0  0  0  0
 10 11  1  0  0  0  0
 10 18  2  0  0  0  0
 12 14  2  0  0  0  0
 13 15  2  0  0  0  0
 14 15  1  0  0  0  0
 16 25  1  0  0  0  0
 16 26  1  0  0  0  0
 16 27  1  0  0  0  0
 17 19  1  0  0  0  0
 17 28  1  0  0  0  0
 18 20  1  0  0  0  0
 18 29  1  0  0  0  0
 19 20  2  0  0  0  0
 19 30  1  0  0  0  0
 20 31  1  0  0  0  0
 21 32  1  0  0  0  0
 21 33  1  0  0  0  0
 21 34  1  0  0  0  0
 22 35  1  0  0  0  0
 22 36  1  0  0  0  0
 22 37  1  0  0  0  0
 23 38  1  0  0  0  0
 23 39  1  0  0  0  0
 23 40  1  0  0  0  0
 24 41  1  0  0  0  0
 24 42  1  0  0  0  0
 24 43  1  0  0  0  0
M  END
> <PUBCHEM_COMPOUND_CID>
101253

> <PUBCHEM_COMPOUND_CANONICALIZED>
1

> <PUBCHEM_CACTVS_COMPLEXITY>
459

> <PUBCHEM_CACTVS_HBOND_ACCEPTOR>
6

> <PUBCHEM_CACTVS_HBOND_DONOR>
0

> <PUBCHEM_CACTVS_ROTATABLE_BOND>
4

> <PUBCHEM_CACTVS_SUBSKEYS>
AAADceB6OAAAAAAAAAAAAAAAAAAAAAAAAAA8YIAAAAAAAACxQAAAHgAAAAAADAyBmAYyxoMABACIAqRSQACCCAAlIgAIiAEN7MgPJ37EtZuFMepn4B3a6cf6/P/OIUABCgAKUABCgAIUABSgAAAAAAAAAA==

> <PUBCHEM_IUPAC_OPENEYE_NAME>
1,2,3,4-tetramethoxy-10-methyl-acridin-9-one

> <PUBCHEM_IUPAC_CAS_NAME>
1,2,3,4-tetramethoxy-10-methyl-9-acridinone

> <PUBCHEM_IUPAC_NAME>
1,2,3,4-tetramethoxy-10-methylacridin-9-one

> <PUBCHEM_IUPAC_SYSTEMATIC_NAME>
1,2,3,4-tetramethoxy-10-methyl-acridin-9-one

> <PUBCHEM_IUPAC_TRADITIONAL_NAME>
1,2,3,4-tetramethoxy-10-methyl-acridin-9-one

> <PUBCHEM_IUPAC_INCHI>
InChI=1S/C18H19NO5/c1-19-11-9-7-6-8-10(11)14(20)12-13(19)16(22-3)18(24-5)17(23-4)15(12)21-2/h6-9H,1-5H3

> <PUBCHEM_IUPAC_INCHIKEY>
URPVDDXMEZAEJY-UHFFFAOYSA-N

> <PUBCHEM_XLOGP3_AA>
3

> <PUBCHEM_EXACT_MASS>
329.126323

> <PUBCHEM_MOLECULAR_FORMULA>
C18H19NO5

> <PUBCHEM_MOLECULAR_WEIGHT>
329.34716

> <PUBCHEM_OPENEYE_CAN_SMILES>
CN1C2=CC=CC=C2C(=O)C3=C1C(=C(C(=C3OC)OC)OC)OC

> <PUBCHEM_OPENEYE_ISO_SMILES>
CN1C2=CC=CC=C2C(=O)C3=C1C(=C(C(=C3OC)OC)OC)OC

> <PUBCHEM_CACTVS_TPSA>
57.2

> <PUBCHEM_MONOISOTOPIC_WEIGHT>
329.126323

> <PUBCHEM_TOTAL_CHARGE>
0

> <PUBCHEM_HEAVY_ATOM_COUNT>
24

> <PUBCHEM_ATOM_DEF_STEREO_COUNT>
0

> <PUBCHEM_ATOM_UDEF_STEREO_COUNT>
0

> <PUBCHEM_BOND_DEF_STEREO_COUNT>
0

> <PUBCHEM_BOND_UDEF_STEREO_COUNT>
0

> <PUBCHEM_ISOTOPIC_ATOM_COUNT>
0

> <PUBCHEM_COMPONENT_COUNT>
1

> <PUBCHEM_CACTVS_TAUTO_COUNT>
1

> <PUBCHEM_COORDINATE_TYPE>
1
5
255

> <PUBCHEM_BONDANNOTATIONS>
10  11  8
10  18  8
12  14  8
13  15  8
14  15  8
17  19  8
18  20  8
19  20  8
6  7  8
6  9  8
7  12  8
7  8  8
8  11  8
8  13  8
9  10  8
9  17  8

$$$$

