51091010
  -OEChem-06241223013D

 39 41  0     0  0  0  0  0  0999 V2000
   -1.5457    2.7948   -0.0852 S   0  0  0  0  0  0  0  0  0  0  0  0
    3.9712   -1.0692   -1.3099 O   0  0  0  0  0  0  0  0  0  0  0  0
   -2.4699    0.2228    0.1517 N   0  0  0  0  0  0  0  0  0  0  0  0
   -2.3214    0.9865   -1.9377 N   0  0  0  0  0  0  0  0  0  0  0  0
    2.3252   -2.2832   -0.1782 N   0  0  0  0  0  0  0  0  0  0  0  0
    1.1407    2.1272   -0.1452 C   0  0  0  0  0  0  0  0  0  0  0  0
    0.0967    2.9308   -0.8705 C   0  0  0  0  0  0  0  0  0  0  0  0
   -2.8962   -0.8041   -0.6769 C   0  0  0  0  0  0  0  0  0  0  0  0
   -2.1379    1.2727   -0.6665 C   0  0  0  0  0  0  0  0  0  0  0  0
    2.5436    0.1656    0.0014 C   0  0  0  0  0  0  0  0  0  0  0  0
    1.5746    0.9102   -0.6711 C   0  0  0  0  0  0  0  0  0  0  0  0
    1.6761    2.5997    1.0531 C   0  0  0  0  0  0  0  0  0  0  0  0
   -2.4221    0.1170    1.5384 C   0  0  0  0  0  0  0  0  0  0  0  0
   -2.7930   -0.3035   -1.9530 C   0  0  0  0  0  0  0  0  0  0  0  0
    3.0790    0.6380    1.1998 C   0  0  0  0  0  0  0  0  0  0  0  0
   -3.3028   -2.0224   -0.0696 C   0  0  0  0  0  0  0  0  0  0  0  0
    2.9965   -1.1030   -0.5469 C   0  0  0  0  0  0  0  0  0  0  0  0
    2.6454    1.8551    1.7255 C   0  0  0  0  0  0  0  0  0  0  0  0
   -2.8064   -1.0344    2.1146 C   0  0  0  0  0  0  0  0  0  0  0  0
   -3.2597   -2.1332    1.2730 C   0  0  0  0  0  0  0  0  0  0  0  0
    1.1776   -2.2755    0.7265 C   0  0  0  0  0  0  0  0  0  0  0  0
    2.7289   -3.5919   -0.6732 C   0  0  0  0  0  0  0  0  0  0  0  0
    0.3885    3.9874   -0.8660 H   0  0  0  0  0  0  0  0  0  0  0  0
    0.0299    2.6385   -1.9246 H   0  0  0  0  0  0  0  0  0  0  0  0
    1.1573    0.5386   -1.6043 H   0  0  0  0  0  0  0  0  0  0  0  0
    1.3488    3.5473    1.4727 H   0  0  0  0  0  0  0  0  0  0  0  0
   -2.0762    0.9610    2.1216 H   0  0  0  0  0  0  0  0  0  0  0  0
   -3.0320   -0.8007   -2.8821 H   0  0  0  0  0  0  0  0  0  0  0  0
    3.8344    0.0660    1.7324 H   0  0  0  0  0  0  0  0  0  0  0  0
   -3.6416   -2.8474   -0.6863 H   0  0  0  0  0  0  0  0  0  0  0  0
    3.0625    2.2232    2.6583 H   0  0  0  0  0  0  0  0  0  0  0  0
   -2.7880   -1.1706    3.1890 H   0  0  0  0  0  0  0  0  0  0  0  0
   -3.5633   -3.0514    1.7641 H   0  0  0  0  0  0  0  0  0  0  0  0
    1.4196   -2.8946    1.5958 H   0  0  0  0  0  0  0  0  0  0  0  0
    0.8928   -1.2842    1.0779 H   0  0  0  0  0  0  0  0  0  0  0  0
    1.8930   -4.0364   -1.2207 H   0  0  0  0  0  0  0  0  0  0  0  0
    3.5908   -3.5104   -1.3402 H   0  0  0  0  0  0  0  0  0  0  0  0
    2.9930   -4.2262    0.1776 H   0  0  0  0  0  0  0  0  0  0  0  0
    0.3226   -2.7134    0.2020 H   0  0  0  0  0  0  0  0  0  0  0  0
  1  7  1  0  0  0  0
  1  9  1  0  0  0  0
  2 17  2  0  0  0  0
  3  8  1  0  0  0  0
  3  9  1  0  0  0  0
  3 13  1  0  0  0  0
  4  9  2  0  0  0  0
  4 14  1  0  0  0  0
  5 17  1  0  0  0  0
  5 21  1  0  0  0  0
  5 22  1  0  0  0  0
  6  7  1  0  0  0  0
  6 11  2  0  0  0  0
  6 12  1  0  0  0  0
  7 23  1  0  0  0  0
  7 24  1  0  0  0  0
  8 14  2  0  0  0  0
  8 16  1  0  0  0  0
 10 11  1  0  0  0  0
 10 15  2  0  0  0  0
 10 17  1  0  0  0  0
 11 25  1  0  0  0  0
 12 18  2  0  0  0  0
 12 26  1  0  0  0  0
 13 19  2  0  0  0  0
 13 27  1  0  0  0  0
 14 28  1  0  0  0  0
 15 18  1  0  0  0  0
 15 29  1  0  0  0  0
 16 20  2  0  0  0  0
 16 30  1  0  0  0  0
 18 31  1  0  0  0  0
 19 20  1  0  0  0  0
 19 32  1  0  0  0  0
 20 33  1  0  0  0  0
 21 34  1  0  0  0  0
 21 35  1  0  0  0  0
 21 39  1  0  0  0  0
 22 36  1  0  0  0  0
 22 37  1  0  0  0  0
 22 38  1  0  0  0  0
M  END
> <PUBCHEM_COMPOUND_CID>
51091010

> <PUBCHEM_CONFORMER_RMSD>
0.8

> <PUBCHEM_CONFORMER_DIVERSEORDER>
1
96
180
223
200
61
108
62
83
146
202
57
78
164
222
116
145
97
93
173
188
70
43
142
47
187
109
129
48
89
185
216
162
7
82
100
31
169
133
53
115
4
160
195
72
77
214
87
118
182
3
219
193
41
141
64
10
26
102
67
140
63
153
56
107
174
112
172
221
2
79
148
201
198
176
58
40
179
149
106
38
121
217
42
20
69
194
36
12
13
74
44
158
122
114
60
113
178
137
208
126
150
32
155
154
28
16
27
168
192
119
8
46
110
186
24
11
166
135
76
183
22
175
210
101
85
181
34
105
59
213
190
33
189
66
35
132
75
151
14
170
159
71
30
215
88
136
125
92
98
205
21
123
120
197
51
52
167
220
206
19
147
6
224
128
49
207
203
5
117
156
54
95
90
84
218
68
209
127
50
152
131
144
204
171
177
81
9
143
29
184
17
86
91
45
99
139
163
65
211
225
15
39
212
165
104
25
111
94
191
196
23
138
161
124
37
199
157
18
80
73
134
55
130
103

> <PUBCHEM_MMFF94_PARTIAL_CHARGES>
31
1 -0.29
10 0.09
11 -0.15
12 -0.15
13 -0.18
14 0.08
15 -0.15
16 -0.11
17 0.54
18 -0.15
19 -0.15
2 -0.57
20 -0.15
21 0.3
22 0.3
25 0.15
26 0.15
27 0.15
28 0.15
29 0.15
3 0.33
30 0.15
31 0.15
32 0.15
33 0.15
4 -0.57
5 -0.66
6 -0.14
7 0.37
8 -0.2
9 0.24

> <PUBCHEM_EFFECTIVE_ROTOR_COUNT>
5

> <PUBCHEM_PHARMACOPHORE_FEATURES>
5
1 2 acceptor
3 3 4 9 cation
5 3 4 8 9 14 rings
6 3 8 13 16 19 20 rings
6 6 10 11 12 15 18 rings

> <PUBCHEM_HEAVY_ATOM_COUNT>
22

> <PUBCHEM_ATOM_DEF_STEREO_COUNT>
0

> <PUBCHEM_ATOM_UDEF_STEREO_COUNT>
0

> <PUBCHEM_BOND_DEF_STEREO_COUNT>
0

> <PUBCHEM_BOND_UDEF_STEREO_COUNT>
0

> <PUBCHEM_ISOTOPIC_ATOM_COUNT>
0

> <PUBCHEM_COMPONENT_COUNT>
1

> <PUBCHEM_CACTVS_TAUTO_COUNT>
1

> <PUBCHEM_CONFORMER_ID>
030B964200000001

> <PUBCHEM_MMFF94_ENERGY>
57.1844

> <PUBCHEM_FEATURE_SELFOVERLAP>
25.472

> <PUBCHEM_SHAPE_FINGERPRINT>
10366900 7 18343300357769588143
11578080 2 17241917382999756009
11582403 64 15747632573455107565
12156800 1 15815289118461401875
12363563 72 17774172171297194329
12539773 59 17458065971599573599
12553582 1 18266178512005344228
12596599 1 17675924291784434806
12712778 12 17625276577648135338
12788726 201 17253432817432632986
13583140 156 17605268485505290857
14114207 22 15187753796379636523
14223421 5 18335428958247181012
14251705 54 18341895126063646215
14251757 5 17615951645102174150
14957384 54 16443885220683233401
15422964 175 18340202995027982533
15635459 17 18340779151842152831
15664445 248 15766661765620077037
17974551 9 18047716478253218553
19734167 9 17322393692531101378
19930381 70 18410866468741869023
20603629 256 17531253837884101648
21285901 2 17701556008763253023
21315764 371 17102827834877861123
238 59 17837519374084732791
25222932 49 15907691659243120163
3737641 26 18189875661066395454
3797600 57 15504644867123152784
5262128 65 17560232518726832549
6287921 2 18046045082697517387
81228 2 18198920281860074597
9709674 26 18338814367566056141

> <PUBCHEM_SHAPE_MULTIPOLES>
435.79
6.76
3.94
1.8
0.26
0.69
0.24
3.48
0.25
-1.93
-0.23
0.93
-0.04
1.97

> <PUBCHEM_SHAPE_SELFOVERLAP>
926.213

> <PUBCHEM_SHAPE_VOLUME>
246.1

> <PUBCHEM_COORDINATE_TYPE>
2
5
10

$$$$

