92395
  -OEChem-07051213123D

 37 38  0     0  0  0  0  0  0999 V2000
   -2.6868   -2.3167   -2.5514 Cl  0  0  0  0  0  0  0  0  0  0  0  0
   -4.9435    1.9328    1.6057 F   0  0  0  0  0  0  0  0  0  0  0  0
   -4.8057    2.3319   -0.5217 F   0  0  0  0  0  0  0  0  0  0  0  0
   -6.2083    0.8416    0.2134 F   0  0  0  0  0  0  0  0  0  0  0  0
   -1.0060   -2.6985   -0.0877 O   0  0  0  0  0  0  0  0  0  0  0  0
    2.3946    1.5241   -0.2787 O   0  0  0  0  0  0  0  0  0  0  0  0
    3.0589    0.4294   -2.1916 O   0  0  0  0  0  0  0  0  0  0  0  0
    5.0311   -1.8979    1.3470 O   0  5  0  0  0  0  0  0  0  0  0  0
    4.7376   -0.1500    0.0445 O   0  0  0  0  0  0  0  0  0  0  0  0
    2.9776    5.0675   -0.3637 O   0  0  0  0  0  0  0  0  0  0  0  0
    2.0371    3.7573    1.2446 O   0  0  0  0  0  0  0  0  0  0  0  0
    4.3105   -1.1802    0.6156 N   0  3  0  0  0  0  0  0  0  0  0  0
    0.2912   -2.3217    0.0805 C   0  0  0  0  0  0  0  0  0  0  0  0
    2.1019   -0.7898   -0.3798 C   0  0  0  0  0  0  0  0  0  0  0  0
   -1.9785   -1.7173    0.0062 C   0  0  0  0  0  0  0  0  0  0  0  0
    0.7724   -1.1752   -0.5516 C   0  0  0  0  0  0  0  0  0  0  0  0
    2.9503   -1.5509    0.4245 C   0  0  0  0  0  0  0  0  0  0  0  0
   -3.9041    0.2562    0.2523 C   0  0  0  0  0  0  0  0  0  0  0  0
    1.1395   -3.0828    0.8848 C   0  0  0  0  0  0  0  0  0  0  0  0
    2.4689   -2.6974    1.0568 C   0  0  0  0  0  0  0  0  0  0  0  0
   -2.8135   -1.4508   -1.0646 C   0  0  0  0  0  0  0  0  0  0  0  0
   -2.0836   -1.0200    1.1979 C   0  0  0  0  0  0  0  0  0  0  0  0
   -3.7840   -0.4566   -0.9407 C   0  0  0  0  0  0  0  0  0  0  0  0
   -3.0539   -0.0255    1.3217 C   0  0  0  0  0  0  0  0  0  0  0  0
   -4.9414    1.3195    0.3851 C   0  0  0  0  0  0  0  0  0  0  0  0
    2.5688    0.4141   -1.0570 C   0  0  0  0  0  0  0  0  0  0  0  0
    2.8152    2.7739   -0.8365 C   0  0  0  0  0  0  0  0  0  0  0  0
    2.5538    3.8829    0.1445 C   0  0  0  0  0  0  0  0  0  0  0  0
    0.1297   -0.5808   -1.1968 H   0  0  0  0  0  0  0  0  0  0  0  0
    0.7696   -3.9766    1.3797 H   0  0  0  0  0  0  0  0  0  0  0  0
    3.0966   -3.3176    1.6914 H   0  0  0  0  0  0  0  0  0  0  0  0
   -1.4364   -1.2363    2.0429 H   0  0  0  0  0  0  0  0  0  0  0  0
   -4.4499   -0.2322   -1.7710 H   0  0  0  0  0  0  0  0  0  0  0  0
   -3.1335    0.5170    2.2596 H   0  0  0  0  0  0  0  0  0  0  0  0
    3.8900    2.7323   -1.0416 H   0  0  0  0  0  0  0  0  0  0  0  0
    2.2445    2.9716   -1.7497 H   0  0  0  0  0  0  0  0  0  0  0  0
    2.8192    5.8100    0.2575 H   0  0  0  0  0  0  0  0  0  0  0  0
  1 21  1  0  0  0  0
  2 25  1  0  0  0  0
  3 25  1  0  0  0  0
  4 25  1  0  0  0  0
  5 13  1  0  0  0  0
  5 15  1  0  0  0  0
  6 26  1  0  0  0  0
  6 27  1  0  0  0  0
  7 26  2  0  0  0  0
  8 12  1  0  0  0  0
  9 12  2  0  0  0  0
 10 28  1  0  0  0  0
 10 37  1  0  0  0  0
 11 28  2  0  0  0  0
 12 17  1  0  0  0  0
 13 16  2  0  0  0  0
 13 19  1  0  0  0  0
 14 16  1  0  0  0  0
 14 17  2  0  0  0  0
 14 26  1  0  0  0  0
 15 21  2  0  0  0  0
 15 22  1  0  0  0  0
 16 29  1  0  0  0  0
 17 20  1  0  0  0  0
 18 23  2  0  0  0  0
 18 24  1  0  0  0  0
 18 25  1  0  0  0  0
 19 20  2  0  0  0  0
 19 30  1  0  0  0  0
 20 31  1  0  0  0  0
 21 23  1  0  0  0  0
 22 24  2  0  0  0  0
 22 32  1  0  0  0  0
 23 33  1  0  0  0  0
 24 34  1  0  0  0  0
 27 28  1  0  0  0  0
 27 35  1  0  0  0  0
 27 36  1  0  0  0  0
M  CHG  2   8  -1  12   1
M  END
> <PUBCHEM_COMPOUND_CID>
92395

> <PUBCHEM_CONFORMER_RMSD>
1

> <PUBCHEM_CONFORMER_DIVERSEORDER>
1
20
18
47
25
60
37
42
53
41
55
58
52
43
33
7
11
61
30
38
57
14
29
23
22
51
56
49
35
31
26
21
6
62
12
34
10
36
16
2
3
8
45
24
27
54
9
44
4
50
48
32
28
13
15
19
39
59
5
40
46
17

> <PUBCHEM_MMFF94_PARTIAL_CHARGES>
35
1 -0.18
10 -0.65
11 -0.57
12 0.91
13 0.08
14 0.09
15 0.08
16 -0.15
17 0.13
18 -0.14
19 -0.15
2 -0.34
20 -0.15
21 0.18
22 -0.15
23 -0.15
24 -0.15
25 1.16
26 0.63
27 0.34
28 0.66
29 0.15
3 -0.34
30 0.15
31 0.15
32 0.15
33 0.15
34 0.15
37 0.5
4 -0.34
5 -0.17
6 -0.43
7 -0.57
8 -0.52
9 -0.52

> <PUBCHEM_EFFECTIVE_ROTOR_COUNT>
8

> <PUBCHEM_PHARMACOPHORE_FEATURES>
10
1 10 acceptor
1 11 acceptor
1 5 acceptor
1 7 acceptor
1 8 acceptor
1 8 anion
1 9 acceptor
3 10 11 28 anion
6 13 14 16 17 19 20 rings
6 15 18 21 22 23 24 rings

> <PUBCHEM_HEAVY_ATOM_COUNT>
28

> <PUBCHEM_ATOM_DEF_STEREO_COUNT>
0

> <PUBCHEM_ATOM_UDEF_STEREO_COUNT>
0

> <PUBCHEM_BOND_DEF_STEREO_COUNT>
0

> <PUBCHEM_BOND_UDEF_STEREO_COUNT>
0

> <PUBCHEM_ISOTOPIC_ATOM_COUNT>
0

> <PUBCHEM_COMPONENT_COUNT>
1

> <PUBCHEM_CACTVS_TAUTO_COUNT>
1

> <PUBCHEM_CONFORMER_ID>
000168EB00000001

> <PUBCHEM_MMFF94_ENERGY>
83.842

> <PUBCHEM_FEATURE_SELFOVERLAP>
50.883

> <PUBCHEM_SHAPE_FINGERPRINT>
10439779 11 18265903625334834545
11640471 11 18334010627250592039
12166972 35 18334018323525752491
12633257 1 18411983580575359847
13134695 92 18343031012355436714
13140716 1 18272931574910844658
13583140 156 18271795853009739635
13878862 14 18059030470330887293
13965767 371 17916597414448996036
14251764 38 18192153685512396856
14466204 15 18340774857059401968
14848178 96 18268712705760973404
14849402 71 18270961246237624276
14955137 171 18341325712549130074
15081414 286 18265327498410952194
15238133 3 18057594559051804326
15295992 7 18202558467109503835
15475509 8 18263914588264400046
15475509 84 17838631307195863282
17980427 23 18189072957369435782
20764821 26 18339939133433065476
21033648 29 16630541634661130247
21285901 2 5400515732719135459
21304253 13 18410583886132490392
21344244 181 8066703839525275715
21860390 5 18261107483127110646
21864079 5 18336819784748239575
22122407 14 18267851947961784609
312425 83 17678157322627758996
3388396 114 17831033333565683845
345986 75 17485668240594953058
4280585 95 7851649325340471980
469060 322 17194312678328862091
474 4 18341049713565960139
5252454 2 18129932369551101556
5895379 119 17894620479022332600
84936 182 18193278481928915304
9981440 41 17620204135292325474

> <PUBCHEM_SHAPE_MULTIPOLES>
510.21
10.84
4.95
1.59
7.68
5.95
0.64
5.36
-1.31
-4.99
-0.55
0.57
-0.51
-2.45

> <PUBCHEM_SHAPE_SELFOVERLAP>
1096.178

> <PUBCHEM_SHAPE_VOLUME>
282.7

> <PUBCHEM_COORDINATE_TYPE>
2
5
10

$$$$

