5459979
  -OEChem-07051212483D

 42 42  0     1  0  0  0  0  0999 V2000
   -3.0996   -0.6306    2.2703 O   0  0  0  0  0  0  0  0  0  0  0  0
   -4.3094    1.7262    1.7381 O   0  0  0  0  0  0  0  0  0  0  0  0
   -1.0030   -0.5073    0.3325 O   0  0  0  0  0  0  0  0  0  0  0  0
   -3.8892    3.2204   -0.4474 O   0  0  0  0  0  0  0  0  0  0  0  0
   -3.0136   -3.2067   -0.5785 O   0  0  0  0  0  0  0  0  0  0  0  0
   -4.9383    0.2898   -2.0226 O   0  0  0  0  0  0  0  0  0  0  0  0
   -1.5798   -3.0867    1.1812 O   0  0  0  0  0  0  0  0  0  0  0  0
   -6.1669    1.7652   -0.8209 O   0  0  0  0  0  0  0  0  0  0  0  0
   -0.0389   -1.9795   -1.1645 O   0  0  0  0  0  0  0  0  0  0  0  0
    7.0827    0.1278   -1.6096 O   0  0  0  0  0  0  0  0  0  0  0  0
    7.4054    1.5539    0.7535 O   0  0  0  0  0  0  0  0  0  0  0  0
   -3.3429   -0.3012    0.8954 C   0  0  1  0  0  0  0  0  0  0  0  0
   -3.3722    1.2341    0.7664 C   0  0  1  0  0  0  0  0  0  0  0  0
   -2.2886   -1.0415    0.0594 C   0  0  2  0  0  0  0  0  0  0  0  0
   -3.7440    1.8069   -0.6070 C   0  0  1  0  0  0  0  0  0  0  0  0
   -2.2421   -2.5358    0.3132 C   0  0  0  0  0  0  0  0  0  0  0  0
   -5.0762    1.3066   -1.1366 C   0  0  0  0  0  0  0  0  0  0  0  0
    0.0359   -1.0716   -0.3519 C   0  0  0  0  0  0  0  0  0  0  0  0
    1.2834   -0.3906    0.0629 C   0  0  0  0  0  0  0  0  0  0  0  0
    3.7546   -0.1543   -0.1599 C   0  0  0  0  0  0  0  0  0  0  0  0
    2.4509   -0.7611   -0.4820 C   0  0  0  0  0  0  0  0  0  0  0  0
    4.8091   -0.3024   -1.0461 C   0  0  0  0  0  0  0  0  0  0  0  0
    3.9001    0.5524    1.0227 C   0  0  0  0  0  0  0  0  0  0  0  0
    6.0430    0.2723   -0.7415 C   0  0  0  0  0  0  0  0  0  0  0  0
    5.1342    1.1268    1.3274 C   0  0  0  0  0  0  0  0  0  0  0  0
    6.2056    0.9869    0.4454 C   0  0  0  0  0  0  0  0  0  0  0  0
   -4.3360   -0.7103    0.6777 H   0  0  0  0  0  0  0  0  0  0  0  0
   -2.4065    1.6551    1.0725 H   0  0  0  0  0  0  0  0  0  0  0  0
   -2.4955   -0.8713   -1.0049 H   0  0  0  0  0  0  0  0  0  0  0  0
   -2.9549    1.6238   -1.3435 H   0  0  0  0  0  0  0  0  0  0  0  0
   -2.2143   -0.2988    2.4993 H   0  0  0  0  0  0  0  0  0  0  0  0
   -4.0315    1.3902    2.6075 H   0  0  0  0  0  0  0  0  0  0  0  0
   -3.9960    3.6038   -1.3349 H   0  0  0  0  0  0  0  0  0  0  0  0
    1.1875    0.4094    0.7876 H   0  0  0  0  0  0  0  0  0  0  0  0
   -2.9803   -4.1765   -0.4345 H   0  0  0  0  0  0  0  0  0  0  0  0
   -5.8048   -0.0217   -2.3606 H   0  0  0  0  0  0  0  0  0  0  0  0
    2.4785   -1.5545   -1.2256 H   0  0  0  0  0  0  0  0  0  0  0  0
    4.6913   -0.8568   -1.9741 H   0  0  0  0  0  0  0  0  0  0  0  0
    3.1011    0.6686    1.7481 H   0  0  0  0  0  0  0  0  0  0  0  0
    5.2488    1.6772    2.2575 H   0  0  0  0  0  0  0  0  0  0  0  0
    7.8564    0.5876   -1.2396 H   0  0  0  0  0  0  0  0  0  0  0  0
    7.3305    2.0075    1.6106 H   0  0  0  0  0  0  0  0  0  0  0  0
  1 12  1  0  0  0  0
  1 31  1  0  0  0  0
  2 13  1  0  0  0  0
  2 32  1  0  0  0  0
  3 14  1  0  0  0  0
  3 18  1  0  0  0  0
  4 15  1  0  0  0  0
  4 33  1  0  0  0  0
  5 16  1  0  0  0  0
  5 35  1  0  0  0  0
  6 17  1  0  0  0  0
  6 36  1  0  0  0  0
  7 16  2  0  0  0  0
  8 17  2  0  0  0  0
  9 18  2  0  0  0  0
 10 24  1  0  0  0  0
 10 41  1  0  0  0  0
 11 26  1  0  0  0  0
 11 42  1  0  0  0  0
 12 13  1  0  0  0  0
 12 14  1  0  0  0  0
 12 27  1  0  0  0  0
 13 15  1  0  0  0  0
 13 28  1  0  0  0  0
 14 16  1  0  0  0  0
 14 29  1  0  0  0  0
 15 17  1  0  0  0  0
 15 30  1  0  0  0  0
 18 19  1  0  0  0  0
 19 21  2  0  0  0  0
 19 34  1  0  0  0  0
 20 21  1  0  0  0  0
 20 22  2  0  0  0  0
 20 23  1  0  0  0  0
 21 37  1  0  0  0  0
 22 24  1  0  0  0  0
 22 38  1  0  0  0  0
 23 25  2  0  0  0  0
 23 39  1  0  0  0  0
 24 26  2  0  0  0  0
 25 26  1  0  0  0  0
 25 40  1  0  0  0  0
M  END
> <PUBCHEM_COMPOUND_CID>
5459979

> <PUBCHEM_CONFORMER_RMSD>
1

> <PUBCHEM_CONFORMER_DIVERSEORDER>
1
53
168
94
106
66
68
20
116
147
159
167
119
135
13
99
91
163
77
67
149
25
122
64
132
73
104
131
121
111
76
45
133
87
6
19
126
166
114
65
96
155
141
33
40
18
143
41
93
115
117
49
151
150
42
78
89
142
79
82
169
83
37
98
7
35
112
36
71
62
14
120
165
92
90
86
158
51
31
27
48
39
75
134
137
60
153
146
55
4
109
170
95
136
44
108
128
11
172
160
70
16
57
81
110
32
43
144
174
88
138
139
63
129
24
171
105
10
85
162
157
5
80
28
101
23
97
74
12
38
161
173
124
29
152
123
107
102
156
22
15
52
118
9
130
34
145
26
127
50
46
125
8
84
30
148
164
58
154
3
54
113
59
21
2
17
47
140
69
61
72
56
100
103

> <PUBCHEM_MMFF94_PARTIAL_CHARGES>
38
1 -0.68
10 -0.53
11 -0.53
12 0.28
13 0.28
14 0.34
15 0.34
16 0.66
17 0.66
18 0.71
19 -0.14
2 -0.68
20 0.03
21 -0.18
22 -0.15
23 -0.15
24 0.08
25 -0.15
26 0.08
3 -0.43
31 0.4
32 0.4
33 0.4
34 0.15
35 0.5
36 0.5
37 0.15
38 0.15
39 0.15
4 -0.68
40 0.15
41 0.45
42 0.45
5 -0.65
6 -0.65
7 -0.57
8 -0.57
9 -0.57

> <PUBCHEM_EFFECTIVE_ROTOR_COUNT>
9

> <PUBCHEM_PHARMACOPHORE_FEATURES>
16
1 1 acceptor
1 1 donor
1 10 donor
1 11 donor
1 2 acceptor
1 2 donor
1 4 acceptor
1 4 donor
1 5 acceptor
1 6 acceptor
1 7 acceptor
1 8 acceptor
1 9 acceptor
3 5 7 16 anion
3 6 8 17 anion
6 20 22 23 24 25 26 rings

> <PUBCHEM_HEAVY_ATOM_COUNT>
26

> <PUBCHEM_ATOM_DEF_STEREO_COUNT>
4

> <PUBCHEM_ATOM_UDEF_STEREO_COUNT>
0

> <PUBCHEM_BOND_DEF_STEREO_COUNT>
1

> <PUBCHEM_BOND_UDEF_STEREO_COUNT>
0

> <PUBCHEM_ISOTOPIC_ATOM_COUNT>
0

> <PUBCHEM_COMPONENT_COUNT>
1

> <PUBCHEM_CACTVS_TAUTO_COUNT>
10

> <PUBCHEM_CONFORMER_ID>
0053500B00000001

> <PUBCHEM_MMFF94_ENERGY>
60.675

> <PUBCHEM_FEATURE_SELFOVERLAP>
81.35

> <PUBCHEM_SHAPE_FINGERPRINT>
10291535 26 18410296891658658431
105312 117 18409166636180243679
10554248 39 17530676620645539252
11089746 13 17967818271329897890
12166972 35 14129065794282111322
12616971 3 16773794771656404566
13941219 33 12895077340055875937
14211702 104 9078852761989252404
14251764 30 5327874401381596205
14950920 106 16056301839673596072
15003188 100 17821739303683976336
15183329 4 17167860898581697188
15513586 35 17628045937720737845
16120349 189 17916311700482113069
17093844 174 18411420575515376842
17780758 139 12895068535573399133
17844677 252 18263637365183356200
20281389 69 18342457049963125440
20645477 56 18335691754622209139
21033648 144 18186798101748968246
21033648 29 18270672181742387233
21150785 3 5184059367337580016
21279426 13 18114452427966470806
21403212 168 12391521931927253981
23081809 10 14779255420273645470
23198884 109 17240484727774862133
2838139 119 18336552727834433592
4015057 19 17022905618791516530
508706 21 18335146366563292352
5104073 3 18411133637383068226
6086070 43 18113627768206666970
6327066 14 18270969050230124773
90127 26 18189608359734826250
9981440 41 18130505357655327451

> <PUBCHEM_SHAPE_MULTIPOLES>
470.51
17.77
2.75
1.54
22.12
1.02
-0.18
-11.5
2.81
-4.72
-0.09
-0.73
-0.14
1.61

> <PUBCHEM_SHAPE_SELFOVERLAP>
982.196

> <PUBCHEM_SHAPE_VOLUME>
263.7

> <PUBCHEM_COORDINATE_TYPE>
2
5
10

$$$$

