243747
  -OEChem-07051213073D

 59 62  0     1  0  0  0  0  0999 V2000
   -0.0189    2.5348    0.9130 O   0  0  0  0  0  0  0  0  0  0  0  0
    3.0110   -0.7023   -1.9416 O   0  0  0  0  0  0  0  0  0  0  0  0
   -4.7082   -0.8070   -2.6433 O   0  0  0  0  0  0  0  0  0  0  0  0
    4.5308    1.4969   -0.0137 O   0  0  0  0  0  0  0  0  0  0  0  0
   -1.0371    0.3872    0.1300 C   0  0  1  0  0  0  0  0  0  0  0  0
   -0.2603   -0.6887    0.9596 C   0  0  2  0  0  0  0  0  0  0  0  0
    1.0723   -0.9864    0.2543 C   0  0  1  0  0  0  0  0  0  0  0  0
    1.9861    0.2509    0.1093 C   0  0  2  0  0  0  0  0  0  0  0  0
   -2.4737    0.6729    0.7267 C   0  0  2  0  0  0  0  0  0  0  0  0
   -3.2608   -0.6771    0.8448 C   0  0  2  0  0  0  0  0  0  0  0  0
   -0.1637    1.6420   -0.1798 C   0  0  2  0  0  0  0  0  0  0  0  0
    1.2299    1.2876   -0.7461 C   0  0  0  0  0  0  0  0  0  0  0  0
    3.2167   -0.4199   -0.5605 C   0  0  1  0  0  0  0  0  0  0  0  0
   -1.0806   -1.9788    1.1186 C   0  0  0  0  0  0  0  0  0  0  0  0
    1.9998   -2.0446    0.8461 C   0  0  0  0  0  0  0  0  0  0  0  0
   -2.4839   -1.7253    1.6558 C   0  0  0  0  0  0  0  0  0  0  0  0
    3.3633   -1.7696    0.1786 C   0  0  0  0  0  0  0  0  0  0  0  0
   -3.2975    1.6439   -0.1681 C   0  0  0  0  0  0  0  0  0  0  0  0
   -3.6791   -1.2504   -0.5249 C   0  0  0  0  0  0  0  0  0  0  0  0
    2.4276    0.8577    1.4702 C   0  0  0  0  0  0  0  0  0  0  0  0
   -2.4228    1.3246    2.1335 C   0  0  0  0  0  0  0  0  0  0  0  0
   -3.6814    1.0626   -1.5235 C   0  0  0  0  0  0  0  0  0  0  0  0
   -4.4559   -0.2388   -1.3625 C   0  0  1  0  0  0  0  0  0  0  0  0
    4.4856    0.3800   -0.5269 C   0  0  0  0  0  0  0  0  0  0  0  0
    5.7009   -0.2522   -1.1496 C   0  0  0  0  0  0  0  0  0  0  0  0
   -1.1936   -0.0736   -0.8557 H   0  0  0  0  0  0  0  0  0  0  0  0
   -0.0665   -0.3053    1.9652 H   0  0  0  0  0  0  0  0  0  0  0  0
    0.8107   -1.3454   -0.7552 H   0  0  0  0  0  0  0  0  0  0  0  0
   -4.1959   -0.4826    1.3903 H   0  0  0  0  0  0  0  0  0  0  0  0
   -0.6738    2.2167   -0.9620 H   0  0  0  0  0  0  0  0  0  0  0  0
    1.0834    0.8929   -1.7594 H   0  0  0  0  0  0  0  0  0  0  0  0
    1.8381    2.1945   -0.8488 H   0  0  0  0  0  0  0  0  0  0  0  0
   -0.5655   -2.6626    1.8042 H   0  0  0  0  0  0  0  0  0  0  0  0
   -1.1451   -2.5032    0.1577 H   0  0  0  0  0  0  0  0  0  0  0  0
    1.6533   -3.0610    0.6329 H   0  0  0  0  0  0  0  0  0  0  0  0
    2.0803   -1.9418    1.9342 H   0  0  0  0  0  0  0  0  0  0  0  0
   -3.0394   -2.6711    1.6727 H   0  0  0  0  0  0  0  0  0  0  0  0
   -2.4130   -1.4034    2.7017 H   0  0  0  0  0  0  0  0  0  0  0  0
    4.1379   -1.7385    0.9539 H   0  0  0  0  0  0  0  0  0  0  0  0
    3.6120   -2.5934   -0.5003 H   0  0  0  0  0  0  0  0  0  0  0  0
   -2.7630    2.5889   -0.3155 H   0  0  0  0  0  0  0  0  0  0  0  0
   -4.2261    1.9127    0.3552 H   0  0  0  0  0  0  0  0  0  0  0  0
   -2.8135   -1.6025   -1.0977 H   0  0  0  0  0  0  0  0  0  0  0  0
   -4.3011   -2.1431   -0.3765 H   0  0  0  0  0  0  0  0  0  0  0  0
    3.2148    0.2827    1.9686 H   0  0  0  0  0  0  0  0  0  0  0  0
    2.7691    1.8929    1.3678 H   0  0  0  0  0  0  0  0  0  0  0  0
    1.5994    0.9085    2.1818 H   0  0  0  0  0  0  0  0  0  0  0  0
   -1.7454    0.8075    2.8173 H   0  0  0  0  0  0  0  0  0  0  0  0
   -2.1100    2.3718    2.0855 H   0  0  0  0  0  0  0  0  0  0  0  0
   -3.4149    1.3247    2.6011 H   0  0  0  0  0  0  0  0  0  0  0  0
   -4.2960    1.7843   -2.0758 H   0  0  0  0  0  0  0  0  0  0  0  0
   -2.7941    0.9037   -2.1476 H   0  0  0  0  0  0  0  0  0  0  0  0
   -5.4253   -0.0319   -0.8934 H   0  0  0  0  0  0  0  0  0  0  0  0
    0.4835    3.3075    0.6037 H   0  0  0  0  0  0  0  0  0  0  0  0
    3.6508   -1.3725   -2.2343 H   0  0  0  0  0  0  0  0  0  0  0  0
    5.8469   -1.2698   -0.7821 H   0  0  0  0  0  0  0  0  0  0  0  0
    5.6103   -0.2507   -2.2383 H   0  0  0  0  0  0  0  0  0  0  0  0
    6.5857    0.3313   -0.8771 H   0  0  0  0  0  0  0  0  0  0  0  0
   -5.2184   -1.6235   -2.5075 H   0  0  0  0  0  0  0  0  0  0  0  0
  1 11  1  0  0  0  0
  1 54  1  0  0  0  0
  2 13  1  0  0  0  0
  2 55  1  0  0  0  0
  3 23  1  0  0  0  0
  3 59  1  0  0  0  0
  4 24  2  0  0  0  0
  5  6  1  0  0  0  0
  5  9  1  0  0  0  0
  5 11  1  0  0  0  0
  5 26  1  0  0  0  0
  6  7  1  0  0  0  0
  6 14  1  0  0  0  0
  6 27  1  0  0  0  0
  7  8  1  0  0  0  0
  7 15  1  0  0  0  0
  7 28  1  0  0  0  0
  8 12  1  0  0  0  0
  8 13  1  0  0  0  0
  8 20  1  0  0  0  0
  9 10  1  0  0  0  0
  9 18  1  0  0  0  0
  9 21  1  0  0  0  0
 10 16  1  0  0  0  0
 10 19  1  0  0  0  0
 10 29  1  0  0  0  0
 11 12  1  0  0  0  0
 11 30  1  0  0  0  0
 12 31  1  0  0  0  0
 12 32  1  0  0  0  0
 13 17  1  0  0  0  0
 13 24  1  0  0  0  0
 14 16  1  0  0  0  0
 14 33  1  0  0  0  0
 14 34  1  0  0  0  0
 15 17  1  0  0  0  0
 15 35  1  0  0  0  0
 15 36  1  0  0  0  0
 16 37  1  0  0  0  0
 16 38  1  0  0  0  0
 17 39  1  0  0  0  0
 17 40  1  0  0  0  0
 18 22  1  0  0  0  0
 18 41  1  0  0  0  0
 18 42  1  0  0  0  0
 19 23  1  0  0  0  0
 19 43  1  0  0  0  0
 19 44  1  0  0  0  0
 20 45  1  0  0  0  0
 20 46  1  0  0  0  0
 20 47  1  0  0  0  0
 21 48  1  0  0  0  0
 21 49  1  0  0  0  0
 21 50  1  0  0  0  0
 22 23  1  0  0  0  0
 22 51  1  0  0  0  0
 22 52  1  0  0  0  0
 23 53  1  0  0  0  0
 24 25  1  0  0  0  0
 25 56  1  0  0  0  0
 25 57  1  0  0  0  0
 25 58  1  0  0  0  0
M  END
> <PUBCHEM_COMPOUND_CID>
243747

> <PUBCHEM_CONFORMER_RMSD>
0.6

> <PUBCHEM_CONFORMER_DIVERSEORDER>
1
2

> <PUBCHEM_MMFF94_PARTIAL_CHARGES>
12
1 -0.68
11 0.28
13 0.34
2 -0.68
23 0.28
24 0.45
25 0.06
3 -0.68
4 -0.57
54 0.4
55 0.4
59 0.4

> <PUBCHEM_EFFECTIVE_ROTOR_COUNT>
3.2

> <PUBCHEM_PHARMACOPHORE_FEATURES>
11
1 1 acceptor
1 1 donor
1 2 acceptor
1 2 donor
1 3 acceptor
1 3 donor
1 4 acceptor
5 7 8 13 15 17 rings
6 5 6 7 8 11 12 rings
6 5 6 9 10 14 16 rings
6 9 10 18 19 22 23 rings

> <PUBCHEM_HEAVY_ATOM_COUNT>
25

> <PUBCHEM_ATOM_DEF_STEREO_COUNT>
9

> <PUBCHEM_ATOM_UDEF_STEREO_COUNT>
0

> <PUBCHEM_BOND_DEF_STEREO_COUNT>
0

> <PUBCHEM_BOND_UDEF_STEREO_COUNT>
0

> <PUBCHEM_ISOTOPIC_ATOM_COUNT>
0

> <PUBCHEM_COMPONENT_COUNT>
1

> <PUBCHEM_CACTVS_TAUTO_COUNT>
2

> <PUBCHEM_CONFORMER_ID>
0003B82300000001

> <PUBCHEM_MMFF94_ENERGY>
96.9417

> <PUBCHEM_FEATURE_SELFOVERLAP>
55.944

> <PUBCHEM_SHAPE_FINGERPRINT>
10366900 7 18335139791390063056
10498660 4 18202843257900914064
10863032 1 18272646883182581274
11370993 144 11455627494538212527
11370993 70 17918277540903672894
11543360 7 17313104159311399400
11578080 2 17273423768107519276
11961588 58 16630259043177337103
12236239 1 18187361060899031065
12403814 3 16987698174275584817
12553582 1 18341603849971774328
12670546 177 18408045121366432196
12788726 201 17971469847692647929
12916754 54 16515688818749693465
12969540 114 17918278670532663527
13103583 49 5472016050872366647
13140716 1 17984115098958009624
13224815 77 18409726274697977434
14289901 80 16950556727054783042
14787075 74 18188769436294050272
14790565 3 17910389816733722701
15196674 1 18272645783533907386
15238133 3 13182742593022158526
15375358 24 18273498957465194016
15420108 30 16250556248466612680
15788980 27 16271924904965482944
16752209 62 18058458762258712185
16945 1 18059846255722737161
17349148 13 18413392038006962304
17357779 13 18409165480739140777
17492 54 18059027145989328367
1813 80 14129061378675851265
18186145 218 18270385187769410146
18608769 82 18059571348669036883
18769570 83 15626235606057870364
19862831 5 18272374199945993995
200 152 18186803560963553139
20715895 44 17059230287385737429
20775438 99 17032796662556309559
20775530 9 16736106712559596535
20871999 31 18342740728004838357
21709351 56 16988551382540450990
22182313 1 18197777687335354352
22393880 68 18335148604314690957
22907989 373 17346024573051362535
23379529 103 17679593242170611607
23402539 116 18410005572558896108
23493267 7 16917061170302966184
23559900 14 18343579668826118818
2748010 2 17695057808721458763
296302 2 16774078483551388408
34934 24 18060415845953969904
350125 39 17987501651049038065
4028521 119 18202283602008229691
469060 322 17273954888580198595
5104073 3 18201430411429395882
7495541 125 14779269683411701042
9709674 26 18337942506653784542

> <PUBCHEM_SHAPE_MULTIPOLES>
491.01
9.69
2.14
1.8
4.64
0.37
0.36
-0.59
5.07
-0.31
-0.6
-1.65
-0.19
0.24

> <PUBCHEM_SHAPE_SELFOVERLAP>
1046.264

> <PUBCHEM_SHAPE_VOLUME>
269.6

> <PUBCHEM_COORDINATE_TYPE>
2
5
10

$$$$

