443957
  -OEChem-07051213032D

 80 85  0     1  0  0  0  0  0999 V2000
   11.3876   -2.5043    0.0000 O   0  0  0  0  0  0  0  0  0  0  0  0
    5.9945   -3.5566    0.0000 O   0  0  0  0  0  0  0  0  0  0  0  0
   12.2873    2.4458    0.0000 O   0  0  0  0  0  0  0  0  0  0  0  0
    4.2625   -3.5500    0.0000 O   0  0  0  0  0  0  0  0  0  0  0  0
   13.5764    3.6025    0.0000 O   0  0  0  0  0  0  0  0  0  0  0  0
    6.0022   -1.5567    0.0000 O   0  0  0  0  0  0  0  0  0  0  0  0
    4.2740   -0.5500    0.0000 O   0  0  0  0  0  0  0  0  0  0  0  0
    2.5381   -1.5433    0.0000 O   0  0  0  0  0  0  0  0  0  0  0  0
   11.3876   -1.5043    0.0000 C   0  0  2  0  0  0  0  0  0  0  0  0
   11.3876   -0.5043    0.0000 C   0  0  1  0  0  0  0  0  0  0  0  0
   10.5216   -2.0043    0.0000 C   0  0  1  0  0  0  0  0  0  0  0  0
    9.6555   -1.5043    0.0000 C   0  0  1  0  0  0  0  0  0  0  0  0
    8.7455   -2.0112    0.0000 C   0  0  2  0  0  0  0  0  0  0  0  0
   12.3338   -0.1996    0.0000 C   0  0  2  0  0  0  0  0  0  0  0  0
   10.5216   -0.0043    0.0000 C   0  0  0  0  0  0  0  0  0  0  0  0
    9.6555   -0.5043    0.0000 C   0  0  0  0  0  0  0  0  0  0  0  0
   12.3338   -1.8090    0.0000 C   0  0  0  0  0  0  0  0  0  0  0  0
   10.5376   -3.0458    0.0000 C   0  0  0  0  0  0  0  0  0  0  0  0
   12.9174   -1.0043    0.0000 C   0  0  0  0  0  0  0  0  0  0  0  0
    8.7375   -3.0528    0.0000 C   0  0  0  0  0  0  0  0  0  0  0  0
   11.3876    0.4957    0.0000 C   0  0  0  0  0  0  0  0  0  0  0  0
    9.6396   -3.5736    0.0000 C   0  0  0  0  0  0  0  0  0  0  0  0
    7.8187   -1.4471    0.0000 C   0  0  0  0  0  0  0  0  0  0  0  0
    8.7532   -1.0112    0.0000 C   0  0  0  0  0  0  0  0  0  0  0  0
   12.6445    0.7509    0.0000 C   0  0  0  0  0  0  0  0  0  0  0  0
    6.8708   -1.9750    0.0000 C   0  0  0  0  0  0  0  0  0  0  0  0
    7.8021   -3.6025    0.0000 C   0  0  0  0  0  0  0  0  0  0  0  0
    6.8624   -3.0600    0.0000 C   0  0  1  0  0  0  0  0  0  0  0  0
   13.6230    0.9572    0.0000 C   0  0  0  0  0  0  0  0  0  0  0  0
   11.9766    1.4952    0.0000 C   0  0  0  0  0  0  0  0  0  0  0  0
   13.9336    1.9077    0.0000 C   0  0  0  0  0  0  0  0  0  0  0  0
    5.1304   -3.0533    0.0000 C   0  0  3  0  0  0  0  0  0  0  0  0
   13.2658    2.6520    0.0000 C   0  0  0  0  0  0  0  0  0  0  0  0
    5.1343   -2.0533    0.0000 C   0  0  1  0  0  0  0  0  0  0  0  0
    4.2702   -1.5500    0.0000 C   0  0  1  0  0  0  0  0  0  0  0  0
    3.3984   -3.0466    0.0000 C   0  0  2  0  0  0  0  0  0  0  0  0
    3.4022   -2.0466    0.0000 C   0  0  2  0  0  0  0  0  0  0  0  0
    2.5304   -3.5433    0.0000 C   0  0  0  0  0  0  0  0  0  0  0  0
   11.2609   -2.4236    0.0000 H   0  0  0  0  0  0  0  0  0  0  0  0
   10.3916   -1.0793    0.0000 H   0  0  0  0  0  0  0  0  0  0  0  0
   12.9463   -0.1034    0.0000 H   0  0  0  0  0  0  0  0  0  0  0  0
   10.9201    0.4706    0.0000 H   0  0  0  0  0  0  0  0  0  0  0  0
   10.1230    0.4706    0.0000 H   0  0  0  0  0  0  0  0  0  0  0  0
    9.4435    0.0783    0.0000 H   0  0  0  0  0  0  0  0  0  0  0  0
    9.0450   -0.6120    0.0000 H   0  0  0  0  0  0  0  0  0  0  0  0
   12.0828   -2.3760    0.0000 H   0  0  0  0  0  0  0  0  0  0  0  0
   12.8712   -2.1183    0.0000 H   0  0  0  0  0  0  0  0  0  0  0  0
   10.7556   -3.6262    0.0000 H   0  0  0  0  0  0  0  0  0  0  0  0
   11.1468   -2.9303    0.0000 H   0  0  0  0  0  0  0  0  0  0  0  0
   13.3783   -1.4190    0.0000 H   0  0  0  0  0  0  0  0  0  0  0  0
   13.3783   -0.5896    0.0000 H   0  0  0  0  0  0  0  0  0  0  0  0
   12.0076    0.4957    0.0000 H   0  0  0  0  0  0  0  0  0  0  0  0
   11.3876    1.1157    0.0000 H   0  0  0  0  0  0  0  0  0  0  0  0
   10.7676    0.4957    0.0000 H   0  0  0  0  0  0  0  0  0  0  0  0
    9.2423   -4.0496    0.0000 H   0  0  0  0  0  0  0  0  0  0  0  0
   10.0405   -4.0465    0.0000 H   0  0  0  0  0  0  0  0  0  0  0  0
    8.2269   -0.9804    0.0000 H   0  0  0  0  0  0  0  0  0  0  0  0
    7.4288   -0.9650    0.0000 H   0  0  0  0  0  0  0  0  0  0  0  0
   11.9245   -2.8143    0.0000 H   0  0  0  0  0  0  0  0  0  0  0  0
    9.3732   -1.0160    0.0000 H   0  0  0  0  0  0  0  0  0  0  0  0
    8.7580   -0.3912    0.0000 H   0  0  0  0  0  0  0  0  0  0  0  0
    8.1332   -1.0064    0.0000 H   0  0  0  0  0  0  0  0  0  0  0  0
    6.6662   -1.3898    0.0000 H   0  0  0  0  0  0  0  0  0  0  0  0
    6.2592   -2.0764    0.0000 H   0  0  0  0  0  0  0  0  0  0  0  0
    7.8045   -4.2225    0.0000 H   0  0  0  0  0  0  0  0  0  0  0  0
    6.8612   -3.6800    0.0000 H   0  0  0  0  0  0  0  0  0  0  0  0
   14.0370    0.4957    0.0000 H   0  0  0  0  0  0  0  0  0  0  0  0
   11.3699    1.3674    0.0000 H   0  0  0  0  0  0  0  0  0  0  0  0
   14.5403    2.0355    0.0000 H   0  0  0  0  0  0  0  0  0  0  0  0
    5.1271   -3.9033    0.0000 H   0  0  0  0  0  0  0  0  0  0  0  0
    5.6700   -2.3654    0.0000 H   0  0  0  0  0  0  0  0  0  0  0  0
    3.7344   -1.2379    0.0000 H   0  0  0  0  0  0  0  0  0  0  0  0
    3.3960   -3.6666    0.0000 H   0  0  0  0  0  0  0  0  0  0  0  0
    2.8641   -2.3546    0.0000 H   0  0  0  0  0  0  0  0  0  0  0  0
    6.0046   -0.9367    0.0000 H   0  0  0  0  0  0  0  0  0  0  0  0
    2.2225   -3.0052    0.0000 H   0  0  0  0  0  0  0  0  0  0  0  0
    1.9923   -3.8512    0.0000 H   0  0  0  0  0  0  0  0  0  0  0  0
    2.8384   -4.0814    0.0000 H   0  0  0  0  0  0  0  0  0  0  0  0
    3.7383   -0.2379    0.0000 H   0  0  0  0  0  0  0  0  0  0  0  0
    2.0000   -1.8512    0.0000 H   0  0  0  0  0  0  0  0  0  0  0  0
  9  1  1  1  0  0  0
  1 59  1  0  0  0  0
 28  2  1  1  0  0  0
  2 32  1  0  0  0  0
  3 30  1  0  0  0  0
  3 33  1  0  0  0  0
  4 32  1  0  0  0  0
  4 36  1  0  0  0  0
  5 33  2  0  0  0  0
 34  6  1  1  0  0  0
  6 75  1  0  0  0  0
 35  7  1  1  0  0  0
  7 79  1  0  0  0  0
 37  8  1  6  0  0  0
  8 80  1  0  0  0  0
  9 10  1  0  0  0  0
  9 11  1  0  0  0  0
  9 17  1  0  0  0  0
 10 14  1  0  0  0  0
 10 15  1  0  0  0  0
 10 21  1  1  0  0  0
 11 12  1  0  0  0  0
 11 18  1  0  0  0  0
 11 39  1  1  0  0  0
 12 13  1  0  0  0  0
 12 16  1  0  0  0  0
 12 40  1  6  0  0  0
 13 20  1  0  0  0  0
 13 23  1  0  0  0  0
 13 24  1  1  0  0  0
 14 19  1  0  0  0  0
 14 25  1  1  0  0  0
 14 41  1  0  0  0  0
 15 16  1  0  0  0  0
 15 42  1  0  0  0  0
 15 43  1  0  0  0  0
 16 44  1  0  0  0  0
 16 45  1  0  0  0  0
 17 19  1  0  0  0  0
 17 46  1  0  0  0  0
 17 47  1  0  0  0  0
 18 22  1  0  0  0  0
 18 48  1  0  0  0  0
 18 49  1  0  0  0  0
 19 50  1  0  0  0  0
 19 51  1  0  0  0  0
 20 22  1  0  0  0  0
 20 27  2  0  0  0  0
 21 52  1  0  0  0  0
 21 53  1  0  0  0  0
 21 54  1  0  0  0  0
 22 55  1  0  0  0  0
 22 56  1  0  0  0  0
 23 26  1  0  0  0  0
 23 57  1  0  0  0  0
 23 58  1  0  0  0  0
 24 60  1  0  0  0  0
 24 61  1  0  0  0  0
 24 62  1  0  0  0  0
 25 29  1  0  0  0  0
 25 30  2  0  0  0  0
 26 28  1  0  0  0  0
 26 63  1  0  0  0  0
 26 64  1  0  0  0  0
 27 28  1  0  0  0  0
 27 65  1  0  0  0  0
 28 66  1  0  0  0  0
 29 31  2  0  0  0  0
 29 67  1  0  0  0  0
 30 68  1  0  0  0  0
 31 33  1  0  0  0  0
 31 69  1  0  0  0  0
 32 34  1  0  0  0  0
 32 70  1  0  0  0  0
 34 35  1  0  0  0  0
 34 71  1  0  0  0  0
 35 37  1  0  0  0  0
 35 72  1  0  0  0  0
 36 37  1  0  0  0  0
 36 38  1  1  0  0  0
 36 73  1  0  0  0  0
 37 74  1  0  0  0  0
 38 76  1  0  0  0  0
 38 77  1  0  0  0  0
 38 78  1  0  0  0  0
M  END
> <PUBCHEM_COMPOUND_CID>
443957

> <PUBCHEM_COMPOUND_CANONICALIZED>
1

> <PUBCHEM_CACTVS_COMPLEXITY>
1070

> <PUBCHEM_CACTVS_HBOND_ACCEPTOR>
8

> <PUBCHEM_CACTVS_HBOND_DONOR>
4

> <PUBCHEM_CACTVS_ROTATABLE_BOND>
3

> <PUBCHEM_CACTVS_SUBSKEYS>
AAADcfB4PAAAAAAAAAAAAAAAAAAAAYAAAAA0YIECAAAAAGDAAAAAGgAACAAAD1SwgAMCCAAABgCIAiDSCAAACAAgIAAICAAAAEgZFAIAIQAiUAAFgAAPoYPA4PwPgAAAAAAAAACAAAYAADAAAYAADAAAAA==

> <PUBCHEM_IUPAC_OPENEYE_NAME>
5-[(3S,8R,9S,10R,13R,14S,17R)-14-hydroxy-10,13-dimethyl-3-[(3R,4R,5R,6S)-3,4,5-trihydroxy-6-methyl-tetrahydropyran-2-yl]oxy-1,2,3,6,7,8,9,11,12,15,16,17-dodecahydrocyclopenta[a]phenanthren-17-yl]pyran-2-one

> <PUBCHEM_IUPAC_CAS_NAME>
5-[(3S,8R,9S,10R,13R,14S,17R)-14-hydroxy-10,13-dimethyl-3-[[(3R,4R,5R,6S)-3,4,5-trihydroxy-6-methyl-2-oxanyl]oxy]-1,2,3,6,7,8,9,11,12,15,16,17-dodecahydrocyclopenta[a]phenanthren-17-yl]-2-pyranone

> <PUBCHEM_IUPAC_NAME>
5-[(3S,8R,9S,10R,13R,14S,17R)-14-hydroxy-10,13-dimethyl-3-[(3R,4R,5R,6S)-3,4,5-trihydroxy-6-methyloxan-2-yl]oxy-1,2,3,6,7,8,9,11,12,15,16,17-dodecahydrocyclopenta[a]phenanthren-17-yl]pyran-2-one

> <PUBCHEM_IUPAC_SYSTEMATIC_NAME>
5-[(3S,8R,9S,10R,13R,14S,17R)-10,13-dimethyl-3-[(3R,4R,5R,6S)-6-methyl-3,4,5-tris(oxidanyl)oxan-2-yl]oxy-14-oxidanyl-1,2,3,6,7,8,9,11,12,15,16,17-dodecahydrocyclopenta[a]phenanthren-17-yl]pyran-2-one

> <PUBCHEM_IUPAC_TRADITIONAL_NAME>
5-[(3S,8R,9S,10R,13R,14S,17R)-14-hydroxy-10,13-dimethyl-3-[(3R,4R,5R,6S)-3,4,5-trihydroxy-6-methyl-tetrahydropyran-2-yl]oxy-1,2,3,6,7,8,9,11,12,15,16,17-dodecahydrocyclopenta[a]phenanthren-17-yl]pyran-2-one

> <PUBCHEM_IUPAC_INCHI>
InChI=1S/C30H42O8/c1-16-24(32)25(33)26(34)27(37-16)38-19-8-11-28(2)18(14-19)5-6-22-21(28)9-12-29(3)20(10-13-30(22,29)35)17-4-7-23(31)36-15-17/h4,7,14-16,19-22,24-27,32-35H,5-6,8-13H2,1-3H3/t16-,19-,20+,21-,22+,24-,25+,26+,27?,28-,29+,30-/m0/s1

> <PUBCHEM_IUPAC_INCHIKEY>
MYEJFUXQJGHEQK-KFPNEZBTSA-N

> <PUBCHEM_XLOGP3_AA>
1.9

> <PUBCHEM_EXACT_MASS>
530.287968

> <PUBCHEM_MOLECULAR_FORMULA>
C30H42O8

> <PUBCHEM_MOLECULAR_WEIGHT>
530.64968

> <PUBCHEM_OPENEYE_CAN_SMILES>
CC1C(C(C(C(O1)OC2CCC3(C4CCC5(C(CCC5(C4CCC3=C2)O)C6=COC(=O)C=C6)C)C)O)O)O

> <PUBCHEM_OPENEYE_ISO_SMILES>
C[C@H]1[C@@H]([C@H]([C@H](C(O1)O[C@H]2CC[C@@]3([C@H]4CC[C@@]5([C@H](CC[C@@]5([C@@H]4CCC3=C2)O)C6=COC(=O)C=C6)C)C)O)O)O

> <PUBCHEM_CACTVS_TPSA>
126

> <PUBCHEM_MONOISOTOPIC_WEIGHT>
530.287968

> <PUBCHEM_TOTAL_CHARGE>
0

> <PUBCHEM_HEAVY_ATOM_COUNT>
38

> <PUBCHEM_ATOM_DEF_STEREO_COUNT>
11

> <PUBCHEM_ATOM_UDEF_STEREO_COUNT>
1

> <PUBCHEM_BOND_DEF_STEREO_COUNT>
0

> <PUBCHEM_BOND_UDEF_STEREO_COUNT>
0

> <PUBCHEM_ISOTOPIC_ATOM_COUNT>
0

> <PUBCHEM_COMPONENT_COUNT>
1

> <PUBCHEM_CACTVS_TAUTO_COUNT>
1

> <PUBCHEM_COORDINATE_TYPE>
1
5
255

> <PUBCHEM_BONDANNOTATIONS>
9  1  5
10  21  5
11  39  5
12  40  6
13  24  5
14  25  5
28  2  5
25  29  8
25  30  8
29  31  8
3  30  8
3  33  8
31  33  8
32  70  3
36  38  5
34  6  5
35  7  5
37  8  6

$$$$

