6508048
  -OEChem-07051213063D

 25 26  0     0  0  0  0  0  0999 V2000
   -5.4316   -0.3165   -0.0012 O   0  0  0  0  0  0  0  0  0  0  0  0
    3.1990   -1.3393    0.0001 N   0  0  0  0  0  0  0  0  0  0  0  0
    3.9589    1.3614   -0.0001 N   0  0  0  0  0  0  0  0  0  0  0  0
   -1.4090    0.2811    0.0003 C   0  0  0  0  0  0  0  0  0  0  0  0
    2.1993   -0.4008    0.0008 C   0  0  0  0  0  0  0  0  0  0  0  0
   -0.0804    0.4785    0.0006 C   0  0  0  0  0  0  0  0  0  0  0  0
    0.8761   -0.5981    0.0006 C   0  0  0  0  0  0  0  0  0  0  0  0
   -2.3184    1.4164    0.0002 C   0  0  0  0  0  0  0  0  0  0  0  0
   -1.9491   -1.0694    0.0009 C   0  0  0  0  0  0  0  0  0  0  0  0
   -3.6458    1.2370   -0.0003 C   0  0  0  0  0  0  0  0  0  0  0  0
   -3.2713   -1.2835    0.0003 C   0  0  0  0  0  0  0  0  0  0  0  0
    2.7042    1.0120    0.0008 C   0  0  0  0  0  0  0  0  0  0  0  0
   -4.2185   -0.1362   -0.0007 C   0  0  0  0  0  0  0  0  0  0  0  0
    4.5148   -0.9682   -0.0011 C   0  0  0  0  0  0  0  0  0  0  0  0
    4.8717    0.3256   -0.0013 C   0  0  0  0  0  0  0  0  0  0  0  0
    0.2271    1.5137    0.0001 H   0  0  0  0  0  0  0  0  0  0  0  0
    0.5656   -1.6347    0.0001 H   0  0  0  0  0  0  0  0  0  0  0  0
   -1.9144    2.4243    0.0006 H   0  0  0  0  0  0  0  0  0  0  0  0
   -1.3326   -1.9571    0.0020 H   0  0  0  0  0  0  0  0  0  0  0  0
    2.9621   -2.3232   -0.0007 H   0  0  0  0  0  0  0  0  0  0  0  0
   -4.3321    2.0757   -0.0004 H   0  0  0  0  0  0  0  0  0  0  0  0
   -3.6858   -2.2850    0.0007 H   0  0  0  0  0  0  0  0  0  0  0  0
    2.0097    1.8537    0.0025 H   0  0  0  0  0  0  0  0  0  0  0  0
    5.2243   -1.7849   -0.0020 H   0  0  0  0  0  0  0  0  0  0  0  0
    5.9175    0.6110   -0.0024 H   0  0  0  0  0  0  0  0  0  0  0  0
  1 13  2  0  0  0  0
  2  5  1  0  0  0  0
  2 14  1  0  0  0  0
  2 20  1  0  0  0  0
  3 12  2  0  0  0  0
  3 15  1  0  0  0  0
  4  6  2  0  0  0  0
  4  8  1  0  0  0  0
  4  9  1  0  0  0  0
  5  7  2  0  0  0  0
  5 12  1  0  0  0  0
  6  7  1  0  0  0  0
  6 16  1  0  0  0  0
  7 17  1  0  0  0  0
  8 10  2  0  0  0  0
  8 18  1  0  0  0  0
  9 11  2  0  0  0  0
  9 19  1  0  0  0  0
 10 13  1  0  0  0  0
 10 21  1  0  0  0  0
 11 13  1  0  0  0  0
 11 22  1  0  0  0  0
 12 23  1  0  0  0  0
 14 15  2  0  0  0  0
 14 24  1  0  0  0  0
 15 25  1  0  0  0  0
M  END
> <PUBCHEM_COMPOUND_CID>
6508048

> <PUBCHEM_CONFORMER_RMSD>
0.6

> <PUBCHEM_CONFORMER_DIVERSEORDER>
1

> <PUBCHEM_MMFF94_PARTIAL_CHARGES>
24
1 -0.57
10 -0.14
11 -0.14
12 0.38
13 0.54
14 -0.05
15 0.02
16 0.15
17 0.15
18 0.15
19 0.15
2 -0.6
20 0.4
21 0.15
22 0.15
23 0.06
24 0.15
25 0.15
3 -0.62
5 0.11
6 -0.15
7 -0.15
8 -0.15
9 -0.15

> <PUBCHEM_EFFECTIVE_ROTOR_COUNT>
1.2

> <PUBCHEM_PHARMACOPHORE_FEATURES>
6
1 1 acceptor
1 2 cation
1 2 donor
1 3 acceptor
6 2 3 5 12 14 15 rings
6 4 8 9 10 11 13 rings

> <PUBCHEM_HEAVY_ATOM_COUNT>
15

> <PUBCHEM_ATOM_DEF_STEREO_COUNT>
0

> <PUBCHEM_ATOM_UDEF_STEREO_COUNT>
0

> <PUBCHEM_BOND_DEF_STEREO_COUNT>
1

> <PUBCHEM_BOND_UDEF_STEREO_COUNT>
0

> <PUBCHEM_ISOTOPIC_ATOM_COUNT>
0

> <PUBCHEM_COMPONENT_COUNT>
1

> <PUBCHEM_CACTVS_TAUTO_COUNT>
2

> <PUBCHEM_CONFORMER_ID>
00634E1000000001

> <PUBCHEM_MMFF94_ENERGY>
50.307

> <PUBCHEM_FEATURE_SELFOVERLAP>
30.446

> <PUBCHEM_SHAPE_FINGERPRINT>
10014705 185 18201723981013263061
10616163 171 18336264552656552510
11615757 297 17530961367379494304
12107183 9 17690562313333346690
13081056 2 18409730659991728124
13167823 11 18411984675924200594
13533116 47 17489317428754594011
14123238 8 18410573989446418445
1420 363 18202557372214382275
15196674 1 18410575110480621797
15242433 33 18409729547363057471
15536298 74 18409448085661417892
17834072 33 18408324367191760406
18186145 218 17918279757280630562
18522853 276 18408322185374962088
19050596 39 18411139130118049354
200 152 18041000643829255363
20279233 1 18187075161367592239
20645477 56 18200311164643698005
20645477 70 18334574698311693270
21267235 1 18410847772158028326
21652331 79 18411138026048047964
22485316 2 18408887325761684790
2297311 6 18187916300695183044
23402539 116 18334864922326189829
23402655 69 18408603660894770860
23557571 272 18335977653204348620
23559900 14 18409735032173360200
26918003 58 18272933803908771898
3545911 37 18410291406721664260
42 15 18413669127764008870
4214541 1 18410574023885544421
42788 4 18410856568240280167
4463277 17 18410855465404421433
474 4 17560512890239794180
5104073 3 18410574010937145096
5374978 207 18409453578761059496
69090 78 18410294709314391375
7495541 125 17603873247429006946
77779 3 18410291419453507360
9709674 26 18409441501144880486

> <PUBCHEM_SHAPE_MULTIPOLES>
292.86
11.19
1.45
0.6
1.44
0.09
0
-0.3
-0.01
-0.02
0
-0.01
0
0

> <PUBCHEM_SHAPE_SELFOVERLAP>
626.86

> <PUBCHEM_SHAPE_VOLUME>
160.6

> <PUBCHEM_COORDINATE_TYPE>
2
5
10

$$$$

