441940
  -OEChem-07051212562D

122128  0     1  0  0  0  0  0999 V2000
    7.9506   -5.4255    0.0000 O   0  0  0  0  0  0  0  0  0  0  0  0
   11.5367   -0.2496    0.0000 O   0  0  0  0  0  0  0  0  0  0  0  0
    4.3472   -6.4922    0.0000 O   0  0  0  0  0  0  0  0  0  0  0  0
    2.5357   -5.4463    0.0000 O   0  0  0  0  0  0  0  0  0  0  0  0
    6.1332   -6.4491    0.0000 O   0  0  0  0  0  0  0  0  0  0  0  0
   10.6649    1.2470    0.0000 O   0  0  0  0  0  0  0  0  0  0  0  0
   13.2649    0.7570    0.0000 O   0  0  0  0  0  0  0  0  0  0  0  0
   13.2572    2.7570    0.0000 O   0  0  0  0  0  0  0  0  0  0  0  0
   11.5213    3.7503    0.0000 O   0  0  0  0  0  0  0  0  0  0  0  0
   13.2533    3.7570    0.0000 O   0  0  0  0  0  0  0  0  0  0  0  0
   11.5136    5.7503    0.0000 O   0  0  0  0  0  0  0  0  0  0  0  0
   13.2418    6.7570    0.0000 O   0  0  0  0  0  0  0  0  0  0  0  0
   14.9777    5.7637    0.0000 O   0  0  0  0  0  0  0  0  0  0  0  0
    7.9288   -3.3940    0.0000 C   0  0  2  0  0  0  0  0  0  0  0  0
    7.9288   -2.3940    0.0000 C   0  0  1  0  0  0  0  0  0  0  0  0
    8.8228   -1.8594    0.0000 C   0  0  2  0  0  0  0  0  0  0  0  0
    7.0628   -3.8940    0.0000 C   0  0  1  0  0  0  0  0  0  0  0  0
    9.7288   -2.3732    0.0000 C   0  0  1  0  0  0  0  0  0  0  0  0
    8.8228   -3.9287    0.0000 C   0  0  0  0  0  0  0  0  0  0  0  0
    6.1968   -3.3940    0.0000 C   0  0  0  0  0  0  0  0  0  0  0  0
    5.2868   -3.9008    0.0000 C   0  0  1  0  0  0  0  0  0  0  0  0
    5.2787   -4.9424    0.0000 C   0  0  1  0  0  0  0  0  0  0  0  0
    9.7288   -3.4148    0.0000 C   0  0  0  0  0  0  0  0  0  0  0  0
   10.6726   -1.8380    0.0000 C   0  0  0  0  0  0  0  0  0  0  0  0
    7.0789   -4.9355    0.0000 C   0  0  2  0  0  0  0  0  0  0  0  0
    7.0628   -1.8940    0.0000 C   0  0  0  0  0  0  0  0  0  0  0  0
    8.7977   -0.7746    0.0000 C   0  0  0  0  0  0  0  0  0  0  0  0
    6.1808   -5.4633    0.0000 C   0  0  0  0  0  0  0  0  0  0  0  0
    8.2709   -4.3337    0.0000 C   0  0  0  0  0  0  0  0  0  0  0  0
   10.6726   -0.7530    0.0000 C   0  0  2  0  0  0  0  0  0  0  0  0
    6.1968   -2.3940    0.0000 C   0  0  0  0  0  0  0  0  0  0  0  0
    7.9529   -1.3660    0.0000 C   0  0  0  0  0  0  0  0  0  0  0  0
    7.7056   -4.6600    0.0000 C   0  0  0  0  0  0  0  0  0  0  0  0
    9.7288   -0.2177    0.0000 C   0  0  0  0  0  0  0  0  0  0  0  0
    4.3599   -3.3368    0.0000 C   0  0  0  0  0  0  0  0  0  0  0  0
    4.3433   -5.4922    0.0000 C   0  0  2  0  0  0  0  0  0  0  0  0
    3.4120   -3.8647    0.0000 C   0  0  0  0  0  0  0  0  0  0  0  0
    3.4037   -4.9497    0.0000 C   0  0  1  0  0  0  0  0  0  0  0  0
    5.2710   -5.9424    0.0000 C   0  0  0  0  0  0  0  0  0  0  0  0
   11.6726   -1.8418    0.0000 C   0  0  0  0  0  0  0  0  0  0  0  0
   11.1693   -2.7059    0.0000 C   0  0  0  0  0  0  0  0  0  0  0  0
    2.4121   -3.8532    0.0000 C   0  0  0  0  0  0  0  0  0  0  0  0
    2.9221   -2.9930    0.0000 C   0  0  0  0  0  0  0  0  0  0  0  0
   11.5329    0.7504    0.0000 C   0  0  2  0  0  0  0  0  0  0  0  0
   12.3969    1.2537    0.0000 C   0  0  1  0  0  0  0  0  0  0  0  0
   12.3931    2.2537    0.0000 C   0  0  1  0  0  0  0  0  0  0  0  0
   10.6611    2.2470    0.0000 C   0  0  2  0  0  0  0  0  0  0  0  0
   11.5251    2.7504    0.0000 C   0  0  2  0  0  0  0  0  0  0  0  0
    9.7931    2.7437    0.0000 C   0  0  0  0  0  0  0  0  0  0  0  0
   12.3854    4.2537    0.0000 C   0  0  2  0  0  0  0  0  0  0  0  0
   12.3815    5.2537    0.0000 C   0  0  1  0  0  0  0  0  0  0  0  0
   13.2456    5.7570    0.0000 C   0  0  2  0  0  0  0  0  0  0  0  0
   14.1174    4.2604    0.0000 C   0  0  0  0  0  0  0  0  0  0  0  0
   14.1136    5.2604    0.0000 C   0  0  2  0  0  0  0  0  0  0  0  0
    7.9223   -1.5440    0.0000 H   0  0  0  0  0  0  0  0  0  0  0  0
   10.4633   -2.8010    0.0000 H   0  0  0  0  0  0  0  0  0  0  0  0
    8.4182   -4.3985    0.0000 H   0  0  0  0  0  0  0  0  0  0  0  0
    9.2164   -4.4077    0.0000 H   0  0  0  0  0  0  0  0  0  0  0  0
    5.3031   -3.0510    0.0000 H   0  0  0  0  0  0  0  0  0  0  0  0
    9.9379   -3.9985    0.0000 H   0  0  0  0  0  0  0  0  0  0  0  0
   10.3397   -3.3087    0.0000 H   0  0  0  0  0  0  0  0  0  0  0  0
    7.6116   -4.6183    0.0000 H   0  0  0  0  0  0  0  0  0  0  0  0
    7.4613   -1.4191    0.0000 H   0  0  0  0  0  0  0  0  0  0  0  0
    6.6643   -1.4191    0.0000 H   0  0  0  0  0  0  0  0  0  0  0  0
    8.5752   -0.1959    0.0000 H   0  0  0  0  0  0  0  0  0  0  0  0
    8.1894   -0.8948    0.0000 H   0  0  0  0  0  0  0  0  0  0  0  0
    5.7835   -5.9392    0.0000 H   0  0  0  0  0  0  0  0  0  0  0  0
    6.5818   -5.9362    0.0000 H   0  0  0  0  0  0  0  0  0  0  0  0
    7.6884   -4.5458    0.0000 H   0  0  0  0  0  0  0  0  0  0  0  0
    8.4830   -4.9162    0.0000 H   0  0  0  0  0  0  0  0  0  0  0  0
    8.8535   -4.1216    0.0000 H   0  0  0  0  0  0  0  0  0  0  0  0
   11.2101   -1.0619    0.0000 H   0  0  0  0  0  0  0  0  0  0  0  0
    5.6598   -2.0840    0.0000 H   0  0  0  0  0  0  0  0  0  0  0  0
    8.2588   -0.8267    0.0000 H   0  0  0  0  0  0  0  0  0  0  0  0
    7.4136   -1.0602    0.0000 H   0  0  0  0  0  0  0  0  0  0  0  0
    7.6471   -1.9054    0.0000 H   0  0  0  0  0  0  0  0  0  0  0  0
    7.2306   -5.0586    0.0000 H   0  0  0  0  0  0  0  0  0  0  0  0
    8.1041   -5.1350    0.0000 H   0  0  0  0  0  0  0  0  0  0  0  0
    8.1805   -4.2615    0.0000 H   0  0  0  0  0  0  0  0  0  0  0  0
   10.1225    0.2613    0.0000 H   0  0  0  0  0  0  0  0  0  0  0  0
    9.3242    0.2521    0.0000 H   0  0  0  0  0  0  0  0  0  0  0  0
    4.7681   -2.8701    0.0000 H   0  0  0  0  0  0  0  0  0  0  0  0
    3.9700   -2.8547    0.0000 H   0  0  0  0  0  0  0  0  0  0  0  0
    3.8070   -5.8032    0.0000 H   0  0  0  0  0  0  0  0  0  0  0  0
    3.4025   -5.5697    0.0000 H   0  0  0  0  0  0  0  0  0  0  0  0
    4.6613   -5.8301    0.0000 H   0  0  0  0  0  0  0  0  0  0  0  0
    5.0545   -6.5234    0.0000 H   0  0  0  0  0  0  0  0  0  0  0  0
   11.6702   -2.4618    0.0000 H   0  0  0  0  0  0  0  0  0  0  0  0
   12.2926   -1.8442    0.0000 H   0  0  0  0  0  0  0  0  0  0  0  0
   11.6750   -1.2218    0.0000 H   0  0  0  0  0  0  0  0  0  0  0  0
   10.6311   -3.0138    0.0000 H   0  0  0  0  0  0  0  0  0  0  0  0
   11.4772   -3.2440    0.0000 H   0  0  0  0  0  0  0  0  0  0  0  0
   11.7074   -2.3980    0.0000 H   0  0  0  0  0  0  0  0  0  0  0  0
    7.9578   -6.0454    0.0000 H   0  0  0  0  0  0  0  0  0  0  0  0
    2.4193   -3.2332    0.0000 H   0  0  0  0  0  0  0  0  0  0  0  0
    3.4626   -2.6892    0.0000 H   0  0  0  0  0  0  0  0  0  0  0  0
    2.6183   -2.4525    0.0000 H   0  0  0  0  0  0  0  0  0  0  0  0
    2.3816   -3.2967    0.0000 H   0  0  0  0  0  0  0  0  0  0  0  0
    1.7922   -3.8460    0.0000 H   0  0  0  0  0  0  0  0  0  0  0  0
    2.4049   -4.4731    0.0000 H   0  0  0  0  0  0  0  0  0  0  0  0
    3.8114   -6.8042    0.0000 H   0  0  0  0  0  0  0  0  0  0  0  0
    2.0000   -5.1343    0.0000 H   0  0  0  0  0  0  0  0  0  0  0  0
    6.1284   -7.0691    0.0000 H   0  0  0  0  0  0  0  0  0  0  0  0
   10.9971    0.4383    0.0000 H   0  0  0  0  0  0  0  0  0  0  0  0
   12.3993    0.6337    0.0000 H   0  0  0  0  0  0  0  0  0  0  0  0
   12.9312    1.9458    0.0000 H   0  0  0  0  0  0  0  0  0  0  0  0
   10.1253    1.9350    0.0000 H   0  0  0  0  0  0  0  0  0  0  0  0
   12.0609    3.0624    0.0000 H   0  0  0  0  0  0  0  0  0  0  0  0
   13.2673    0.1370    0.0000 H   0  0  0  0  0  0  0  0  0  0  0  0
   10.1010    3.2818    0.0000 H   0  0  0  0  0  0  0  0  0  0  0  0
    9.2550    3.0516    0.0000 H   0  0  0  0  0  0  0  0  0  0  0  0
    9.4852    2.2056    0.0000 H   0  0  0  0  0  0  0  0  0  0  0  0
   13.7953    2.4491    0.0000 H   0  0  0  0  0  0  0  0  0  0  0  0
   12.3878    3.6337    0.0000 H   0  0  0  0  0  0  0  0  0  0  0  0
   11.8458    4.9416    0.0000 H   0  0  0  0  0  0  0  0  0  0  0  0
   13.7814    6.0691    0.0000 H   0  0  0  0  0  0  0  0  0  0  0  0
   14.3317    3.6786    0.0000 H   0  0  0  0  0  0  0  0  0  0  0  0
   14.7276    4.3704    0.0000 H   0  0  0  0  0  0  0  0  0  0  0  0
   14.6517    4.9524    0.0000 H   0  0  0  0  0  0  0  0  0  0  0  0
   11.5112    6.3703    0.0000 H   0  0  0  0  0  0  0  0  0  0  0  0
   13.7775    7.0691    0.0000 H   0  0  0  0  0  0  0  0  0  0  0  0
   15.5158    5.4558    0.0000 H   0  0  0  0  0  0  0  0  0  0  0  0
 25  1  1  1  0  0  0
  1 94  1  0  0  0  0
 30  2  1  6  0  0  0
 44  2  1  6  0  0  0
 36  3  1  1  0  0  0
  3101  1  0  0  0  0
 38  4  1  6  0  0  0
  4102  1  0  0  0  0
  5 39  1  0  0  0  0
  5103  1  0  0  0  0
  6 44  1  0  0  0  0
  6 47  1  0  0  0  0
 45  7  1  1  0  0  0
  7109  1  0  0  0  0
 46  8  1  1  0  0  0
  8113  1  0  0  0  0
 48  9  1  6  0  0  0
 50  9  1  1  0  0  0
 10 50  1  0  0  0  0
 10 53  1  0  0  0  0
 51 11  1  6  0  0  0
 11120  1  0  0  0  0
 52 12  1  1  0  0  0
 12121  1  0  0  0  0
 54 13  1  1  0  0  0
 13122  1  0  0  0  0
 14 15  1  0  0  0  0
 14 17  1  0  0  0  0
 14 19  1  0  0  0  0
 14 29  1  6  0  0  0
 15 16  1  0  0  0  0
 15 26  1  0  0  0  0
 15 55  1  1  0  0  0
 16 18  1  0  0  0  0
 16 27  1  0  0  0  0
 16 32  1  6  0  0  0
 17 20  1  0  0  0  0
 17 25  1  0  0  0  0
 17 33  1  1  0  0  0
 18 23  1  0  0  0  0
 18 24  1  0  0  0  0
 18 56  1  1  0  0  0
 19 23  1  0  0  0  0
 19 57  1  0  0  0  0
 19 58  1  0  0  0  0
 20 21  1  0  0  0  0
 20 31  2  0  0  0  0
 21 22  1  0  0  0  0
 21 35  1  0  0  0  0
 21 59  1  6  0  0  0
 22 28  1  0  0  0  0
 22 36  1  0  0  0  0
 22 39  1  6  0  0  0
 23 60  1  0  0  0  0
 23 61  1  0  0  0  0
 24 30  1  0  0  0  0
 24 40  1  0  0  0  0
 24 41  1  0  0  0  0
 25 28  1  0  0  0  0
 25 62  1  0  0  0  0
 26 31  1  0  0  0  0
 26 63  1  0  0  0  0
 26 64  1  0  0  0  0
 27 34  1  0  0  0  0
 27 65  1  0  0  0  0
 27 66  1  0  0  0  0
 28 67  1  0  0  0  0
 28 68  1  0  0  0  0
 29 69  1  0  0  0  0
 29 70  1  0  0  0  0
 29 71  1  0  0  0  0
 30 34  1  0  0  0  0
 30 72  1  0  0  0  0
 31 73  1  0  0  0  0
 32 74  1  0  0  0  0
 32 75  1  0  0  0  0
 32 76  1  0  0  0  0
 33 77  1  0  0  0  0
 33 78  1  0  0  0  0
 33 79  1  0  0  0  0
 34 80  1  0  0  0  0
 34 81  1  0  0  0  0
 35 37  1  0  0  0  0
 35 82  1  0  0  0  0
 35 83  1  0  0  0  0
 36 38  1  0  0  0  0
 36 84  1  0  0  0  0
 37 38  1  0  0  0  0
 37 42  1  0  0  0  0
 37 43  1  0  0  0  0
 38 85  1  0  0  0  0
 39 86  1  0  0  0  0
 39 87  1  0  0  0  0
 40 88  1  0  0  0  0
 40 89  1  0  0  0  0
 40 90  1  0  0  0  0
 41 91  1  0  0  0  0
 41 92  1  0  0  0  0
 41 93  1  0  0  0  0
 42 95  1  0  0  0  0
 42 99  1  0  0  0  0
 42100  1  0  0  0  0
 43 96  1  0  0  0  0
 43 97  1  0  0  0  0
 43 98  1  0  0  0  0
 44 45  1  0  0  0  0
 44104  1  0  0  0  0
 45 46  1  0  0  0  0
 45105  1  0  0  0  0
 46 48  1  0  0  0  0
 46106  1  0  0  0  0
 47 48  1  0  0  0  0
 47 49  1  1  0  0  0
 47107  1  0  0  0  0
 48108  1  0  0  0  0
 49110  1  0  0  0  0
 49111  1  0  0  0  0
 49112  1  0  0  0  0
 50 51  1  0  0  0  0
 50114  1  0  0  0  0
 51 52  1  0  0  0  0
 51115  1  0  0  0  0
 52 54  1  0  0  0  0
 52116  1  0  0  0  0
 53 54  1  0  0  0  0
 53117  1  0  0  0  0
 53118  1  0  0  0  0
 54119  1  0  0  0  0
M  END
> <PUBCHEM_COMPOUND_CID>
441940

> <PUBCHEM_COMPOUND_CANONICALIZED>
1

> <PUBCHEM_CACTVS_COMPLEXITY>
1440

> <PUBCHEM_CACTVS_HBOND_ACCEPTOR>
13

> <PUBCHEM_CACTVS_HBOND_DONOR>
9

> <PUBCHEM_CACTVS_ROTATABLE_BOND>
5

> <PUBCHEM_CACTVS_SUBSKEYS>
AAADcfB8PAAAAAAAAAAAAAAAAAAAAAAAAAA0aMGCAAAAAADAAAAAGgAACAAADxSwgAMCCAAABgCAAiBCAAAAAAAgAAAACAAAAAgREAIAAQAiQAAFwAAPAAPA4PwPgAAAAAAAAADAAAYAADCAAAAAAAAAAA==

> <PUBCHEM_IUPAC_OPENEYE_NAME>
(2S,3R,4S,5S)-2-[(2S,3R,4S,5R,6R)-6-[[(3S,4aR,6aR,6bS,7S,8aR,9R,10R,12aS,14aR,14bR)-7,9,10-trihydroxy-8a-(hydroxymethyl)-4,4,6a,6b,11,11,14b-heptamethyl-1,2,3,4a,5,6,7,8,9,10,12,12a,14,14a-tetradecahydropicen-3-yl]oxy]-4,5-dihydroxy-2-methyl-tetrahydropyran-3-yl]oxytetrahydropyran-3,4,5-triol

> <PUBCHEM_IUPAC_CAS_NAME>
(2S,3R,4S,5S)-2-[[(2S,3R,4S,5R,6R)-6-[[(3S,4aR,6aR,6bS,7S,8aR,9R,10R,12aS,14aR,14bR)-7,9,10-trihydroxy-8a-(hydroxymethyl)-4,4,6a,6b,11,11,14b-heptamethyl-1,2,3,4a,5,6,7,8,9,10,12,12a,14,14a-tetradecahydropicen-3-yl]oxy]-4,5-dihydroxy-2-methyl-3-oxanyl]oxy]oxane-3,4,5-triol

> <PUBCHEM_IUPAC_NAME>
(2S,3R,4S,5S)-2-[(2S,3R,4S,5R,6R)-6-[[(3S,4aR,6aR,6bS,7S,8aR,9R,10R,12aS,14aR,14bR)-7,9,10-trihydroxy-8a-(hydroxymethyl)-4,4,6a,6b,11,11,14b-heptamethyl-1,2,3,4a,5,6,7,8,9,10,12,12a,14,14a-tetradecahydropicen-3-yl]oxy]-4,5-dihydroxy-2-methyloxan-3-yl]oxyoxane-3,4,5-triol

> <PUBCHEM_IUPAC_SYSTEMATIC_NAME>
(2S,3R,4S,5S)-2-[(2S,3R,4S,5R,6R)-6-[[(3S,4aR,6aR,6bS,7S,8aR,9R,10R,12aS,14aR,14bR)-8a-(hydroxymethyl)-4,4,6a,6b,11,11,14b-heptamethyl-7,9,10-tris(oxidanyl)-1,2,3,4a,5,6,7,8,9,10,12,12a,14,14a-tetradecahydropicen-3-yl]oxy]-2-methyl-4,5-bis(oxidanyl)oxan-3-yl]oxyoxane-3,4,5-triol

> <PUBCHEM_IUPAC_TRADITIONAL_NAME>
(2S,3R,4S,5S)-2-[(2S,3R,4S,5R,6R)-6-[[(3S,4aR,6aR,6bS,7S,8aR,9R,10R,12aS,14aR,14bR)-7,9,10-trihydroxy-4,4,6a,6b,11,11,14b-heptamethyl-8a-methylol-1,2,3,4a,5,6,7,8,9,10,12,12a,14,14a-tetradecahydropicen-3-yl]oxy]-4,5-dihydroxy-2-methyl-tetrahydropyran-3-yl]oxytetrahydropyran-3,4,5-triol

> <PUBCHEM_IUPAC_INCHI>
InChI=1S/C41H68O13/c1-19-31(54-34-29(47)27(45)22(43)17-51-34)28(46)30(48)35(52-19)53-26-12-13-38(6)23(37(26,4)5)11-14-39(7)24(38)10-9-20-21-15-36(2,3)32(49)33(50)41(21,18-42)16-25(44)40(20,39)8/h9,19,21-35,42-50H,10-18H2,1-8H3/t19-,21-,22-,23-,24+,25-,26-,27-,28-,29+,30+,31-,32-,33-,34-,35-,38-,39+,40-,41-/m0/s1

> <PUBCHEM_IUPAC_INCHIKEY>
XDUHPWUVLBIBFS-GLVVCSOHSA-N

> <PUBCHEM_XLOGP3_AA>
2

> <PUBCHEM_EXACT_MASS>
768.465992

> <PUBCHEM_MOLECULAR_FORMULA>
C41H68O13

> <PUBCHEM_MOLECULAR_WEIGHT>
768.97082

> <PUBCHEM_OPENEYE_CAN_SMILES>
CC1C(C(C(C(O1)OC2CCC3(C(C2(C)C)CCC4(C3CC=C5C4(C(CC6(C5CC(C(C6O)O)(C)C)CO)O)C)C)C)O)O)OC7C(C(C(CO7)O)O)O

> <PUBCHEM_OPENEYE_ISO_SMILES>
C[C@H]1[C@@H]([C@H]([C@H]([C@@H](O1)O[C@H]2CC[C@]3([C@H](C2(C)C)CC[C@@]4([C@@H]3CC=C5[C@]4([C@H](C[C@@]6([C@H]5CC([C@H]([C@@H]6O)O)(C)C)CO)O)C)C)C)O)O)O[C@H]7[C@@H]([C@H]([C@H](CO7)O)O)O

> <PUBCHEM_CACTVS_TPSA>
219

> <PUBCHEM_MONOISOTOPIC_WEIGHT>
768.465992

> <PUBCHEM_TOTAL_CHARGE>
0

> <PUBCHEM_HEAVY_ATOM_COUNT>
54

> <PUBCHEM_ATOM_DEF_STEREO_COUNT>
20

> <PUBCHEM_ATOM_UDEF_STEREO_COUNT>
0

> <PUBCHEM_BOND_DEF_STEREO_COUNT>
0

> <PUBCHEM_BOND_UDEF_STEREO_COUNT>
0

> <PUBCHEM_ISOTOPIC_ATOM_COUNT>
0

> <PUBCHEM_COMPONENT_COUNT>
1

> <PUBCHEM_CACTVS_TAUTO_COUNT>
1

> <PUBCHEM_COORDINATE_TYPE>
1
5
255

> <PUBCHEM_BONDANNOTATIONS>
25  1  5
51  11  6
52  12  5
54  13  5
14  29  6
15  55  5
16  32  6
17  33  5
18  56  5
30  2  6
44  2  6
21  59  6
22  39  6
36  3  5
38  4  6
47  49  5
45  7  5
46  8  5
48  9  6
50  9  5

$$$$

