9395
  -OEChem-07051212513D

 32 32  0     0  0  0  0  0  0999 V2000
    2.0511   -0.0145    0.7792 P   0  0  0  0  0  0  0  0  0  0  0  0
    0.9123   -1.0181    0.2260 O   0  0  0  0  0  0  0  0  0  0  0  0
    2.1189    1.1601   -0.3358 O   0  0  0  0  0  0  0  0  0  0  0  0
    3.4258   -0.8462    0.5583 O   0  0  0  0  0  0  0  0  0  0  0  0
    1.8530    0.4538    2.1933 O   0  0  0  0  0  0  0  0  0  0  0  0
   -4.9017    1.3453    0.1817 O   0  5  0  0  0  0  0  0  0  0  0  0
   -5.2942   -0.6579   -0.6259 O   0  0  0  0  0  0  0  0  0  0  0  0
   -4.5064    0.2099   -0.1780 N   0  3  0  0  0  0  0  0  0  0  0  0
   -0.4190   -0.7166    0.1267 C   0  0  0  0  0  0  0  0  0  0  0  0
    3.1383    2.1379   -0.2241 C   0  0  0  0  0  0  0  0  0  0  0  0
    3.7504   -1.3528   -0.7251 C   0  0  0  0  0  0  0  0  0  0  0  0
   -0.8729    0.5383    0.5203 C   0  0  0  0  0  0  0  0  0  0  0  0
   -1.3070   -1.6665   -0.3673 C   0  0  0  0  0  0  0  0  0  0  0  0
   -3.1250   -0.1021   -0.0753 C   0  0  0  0  0  0  0  0  0  0  0  0
   -2.2296    0.8461    0.4191 C   0  0  0  0  0  0  0  0  0  0  0  0
   -2.6638   -1.3585   -0.4685 C   0  0  0  0  0  0  0  0  0  0  0  0
    3.0163    3.1141   -1.3433 C   0  0  0  0  0  0  0  0  0  0  0  0
    5.0535   -2.0724   -0.6612 C   0  0  0  0  0  0  0  0  0  0  0  0
    3.0340    2.6489    0.7384 H   0  0  0  0  0  0  0  0  0  0  0  0
    4.1176    1.6507   -0.2498 H   0  0  0  0  0  0  0  0  0  0  0  0
    2.9604   -2.0362   -1.0519 H   0  0  0  0  0  0  0  0  0  0  0  0
    3.8100   -0.5285   -1.4417 H   0  0  0  0  0  0  0  0  0  0  0  0
   -0.2149    1.3082    0.9061 H   0  0  0  0  0  0  0  0  0  0  0  0
   -0.9515   -2.6460   -0.6746 H   0  0  0  0  0  0  0  0  0  0  0  0
   -2.5536    1.8350    0.7338 H   0  0  0  0  0  0  0  0  0  0  0  0
   -3.3320   -2.1221   -0.8582 H   0  0  0  0  0  0  0  0  0  0  0  0
    3.7884    3.8864   -1.2810 H   0  0  0  0  0  0  0  0  0  0  0  0
    3.1051    2.6102   -2.3116 H   0  0  0  0  0  0  0  0  0  0  0  0
    2.0350    3.6006   -1.3321 H   0  0  0  0  0  0  0  0  0  0  0  0
    5.3296   -2.4791   -1.6384 H   0  0  0  0  0  0  0  0  0  0  0  0
    5.8525   -1.4033   -0.3243 H   0  0  0  0  0  0  0  0  0  0  0  0
    5.0102   -2.8963    0.0591 H   0  0  0  0  0  0  0  0  0  0  0  0
  1  2  1  0  0  0  0
  1  3  1  0  0  0  0
  1  4  1  0  0  0  0
  1  5  2  0  0  0  0
  2  9  1  0  0  0  0
  3 10  1  0  0  0  0
  4 11  1  0  0  0  0
  6  8  1  0  0  0  0
  7  8  2  0  0  0  0
  8 14  1  0  0  0  0
  9 12  2  0  0  0  0
  9 13  1  0  0  0  0
 10 17  1  0  0  0  0
 10 19  1  0  0  0  0
 10 20  1  0  0  0  0
 11 18  1  0  0  0  0
 11 21  1  0  0  0  0
 11 22  1  0  0  0  0
 12 15  1  0  0  0  0
 12 23  1  0  0  0  0
 13 16  2  0  0  0  0
 13 24  1  0  0  0  0
 14 15  2  0  0  0  0
 14 16  1  0  0  0  0
 15 25  1  0  0  0  0
 16 26  1  0  0  0  0
 17 27  1  0  0  0  0
 17 28  1  0  0  0  0
 17 29  1  0  0  0  0
 18 30  1  0  0  0  0
 18 31  1  0  0  0  0
 18 32  1  0  0  0  0
M  CHG  2   6  -1   8   1
M  END
> <PUBCHEM_COMPOUND_CID>
9395

> <PUBCHEM_CONFORMER_RMSD>
0.8

> <PUBCHEM_CONFORMER_DIVERSEORDER>
1
18
12
23
22
8
10
3
11
5
24
20
21
4
28
19
17
7
26
14
25
6
29
9
27
16
15
13
2

> <PUBCHEM_MMFF94_PARTIAL_CHARGES>
20
1 1.51
10 0.28
11 0.28
12 -0.15
13 -0.15
14 0.13
15 -0.15
16 -0.15
2 -0.35
23 0.15
24 0.15
25 0.15
26 0.15
3 -0.55
4 -0.55
5 -0.7
6 -0.52
7 -0.52
8 0.91
9 0.08

> <PUBCHEM_EFFECTIVE_ROTOR_COUNT>
7

> <PUBCHEM_PHARMACOPHORE_FEATURES>
5
1 5 acceptor
1 6 acceptor
1 6 anion
1 7 acceptor
6 9 12 13 14 15 16 rings

> <PUBCHEM_HEAVY_ATOM_COUNT>
18

> <PUBCHEM_ATOM_DEF_STEREO_COUNT>
0

> <PUBCHEM_ATOM_UDEF_STEREO_COUNT>
0

> <PUBCHEM_BOND_DEF_STEREO_COUNT>
0

> <PUBCHEM_BOND_UDEF_STEREO_COUNT>
0

> <PUBCHEM_ISOTOPIC_ATOM_COUNT>
0

> <PUBCHEM_COMPONENT_COUNT>
1

> <PUBCHEM_CACTVS_TAUTO_COUNT>
1

> <PUBCHEM_CONFORMER_ID>
000024B300000001

> <PUBCHEM_MMFF94_ENERGY>
35.254

> <PUBCHEM_FEATURE_SELFOVERLAP>
25.453

> <PUBCHEM_SHAPE_FINGERPRINT>
10366900 7 17131829906322787401
12617007 42 18411974802416437838
12932764 1 16988297411985872131
13760787 5 18408039594423880331
14115302 16 18113617889264771754
14863182 85 16515675685220017326
15342168 16 17559391349249945157
15536298 74 18411138009094837244
1813 80 18341053042608303842
18186145 218 17917721179514356223
19784866 240 17530958133406607878
200 152 16443353104141819323
20612939 158 18413103952870036708
20645477 70 18411700967553829654
21267235 1 18335134306933467343
21503847 285 18130788966492584576
21709351 56 18339085990214376493
22224240 67 9006475192739650734
2255824 54 18343305855770656874
23402539 116 17531537584803319359
23559900 14 18334299764227107418
3286 77 17385730209234635584
474 4 17702385052814312084
633830 44 18273220776834095747
7364860 26 18335701599161862104
90127 26 17989203746636214249
9971528 1 18335424595203655250
9981440 41 17763745391357879600
9999458 23 18201717370694649502

> <PUBCHEM_SHAPE_MULTIPOLES>
334.08
10.14
2.46
1.1
5.32
1.41
-0.37
-1.07
2.48
-3.46
1.07
-0.85
0.28
-0.6

> <PUBCHEM_SHAPE_SELFOVERLAP>
661.547

> <PUBCHEM_SHAPE_VOLUME>
199.8

> <PUBCHEM_COORDINATE_TYPE>
2
5
10

$$$$

