559
  -OEChem-07051212473D

 20 19  0     0  0  0  0  0  0999 V2000
    3.8617    0.0402   -0.5441 O   0  0  0  0  0  0  0  0  0  0  0  0
   -1.0755    0.2539   -0.2062 N   0  0  0  0  0  0  0  0  0  0  0  0
   -3.1418    1.3041   -0.2118 N   0  0  0  0  0  0  0  0  0  0  0  0
   -3.1124   -0.9193    0.2887 N   0  0  0  0  0  0  0  0  0  0  0  0
    1.1582   -0.7373   -0.2898 C   0  0  0  0  0  0  0  0  0  0  0  0
   -0.3197   -0.9841   -0.0108 C   0  0  0  0  0  0  0  0  0  0  0  0
    1.7652    0.2987    0.6537 C   0  0  0  0  0  0  0  0  0  0  0  0
    3.2247    0.5589    0.3664 C   0  0  0  0  0  0  0  0  0  0  0  0
   -2.3605    0.1849   -0.0462 C   0  0  0  0  0  0  0  0  0  0  0  0
    1.7045   -1.6840   -0.1977 H   0  0  0  0  0  0  0  0  0  0  0  0
    1.2822   -0.4025   -1.3276 H   0  0  0  0  0  0  0  0  0  0  0  0
   -0.4381   -1.3480    1.0170 H   0  0  0  0  0  0  0  0  0  0  0  0
   -0.6748   -1.7608   -0.6988 H   0  0  0  0  0  0  0  0  0  0  0  0
    1.2474    1.2599    0.5705 H   0  0  0  0  0  0  0  0  0  0  0  0
    1.6887   -0.0421    1.6919 H   0  0  0  0  0  0  0  0  0  0  0  0
    3.7102    1.2801    1.0464 H   0  0  0  0  0  0  0  0  0  0  0  0
   -2.7308    2.1975   -0.4598 H   0  0  0  0  0  0  0  0  0  0  0  0
   -4.1480    1.2713   -0.0902 H   0  0  0  0  0  0  0  0  0  0  0  0
   -4.1199   -0.8550    0.3869 H   0  0  0  0  0  0  0  0  0  0  0  0
   -2.6954   -1.8291    0.4505 H   0  0  0  0  0  0  0  0  0  0  0  0
  1  8  2  0  0  0  0
  2  6  1  0  0  0  0
  2  9  2  0  0  0  0
  3  9  1  0  0  0  0
  3 17  1  0  0  0  0
  3 18  1  0  0  0  0
  4  9  1  0  0  0  0
  4 19  1  0  0  0  0
  4 20  1  0  0  0  0
  5  6  1  0  0  0  0
  5  7  1  0  0  0  0
  5 10  1  0  0  0  0
  5 11  1  0  0  0  0
  6 12  1  0  0  0  0
  6 13  1  0  0  0  0
  7  8  1  0  0  0  0
  7 14  1  0  0  0  0
  7 15  1  0  0  0  0
  8 16  1  0  0  0  0
M  END
> <PUBCHEM_COMPOUND_CID>
559

> <PUBCHEM_CONFORMER_RMSD>
0.6

> <PUBCHEM_CONFORMER_DIVERSEORDER>
1
33
11
5
34
3
31
18
29
6
2
25
7
27
23
30
26
28
36
24
14
20
10
16
32
17
21
4
19
15
13
22
9
12
8
35

> <PUBCHEM_MMFF94_PARTIAL_CHARGES>
13
1 -0.57
16 0.06
17 0.4
18 0.4
19 0.4
2 -0.7
20 0.4
3 -0.85
4 -0.85
6 0.25
7 0.06
8 0.45
9 0.55

> <PUBCHEM_EFFECTIVE_ROTOR_COUNT>
4

> <PUBCHEM_PHARMACOPHORE_FEATURES>
4
1 1 acceptor
1 3 donor
1 4 donor
4 2 3 4 9 cation

> <PUBCHEM_HEAVY_ATOM_COUNT>
9

> <PUBCHEM_ATOM_DEF_STEREO_COUNT>
0

> <PUBCHEM_ATOM_UDEF_STEREO_COUNT>
0

> <PUBCHEM_BOND_DEF_STEREO_COUNT>
0

> <PUBCHEM_BOND_UDEF_STEREO_COUNT>
0

> <PUBCHEM_ISOTOPIC_ATOM_COUNT>
0

> <PUBCHEM_COMPONENT_COUNT>
1

> <PUBCHEM_CACTVS_TAUTO_COUNT>
4

> <PUBCHEM_CONFORMER_ID>
0000022F00000001

> <PUBCHEM_MMFF94_ENERGY>
15.0436

> <PUBCHEM_FEATURE_SELFOVERLAP>
20.353

> <PUBCHEM_SHAPE_FINGERPRINT>
10219947 1 14549022078588594258
10857977 72 18343306929295806683
11062470 55 11887962042211686474
12932764 1 17822302270368607386
14325111 11 18411139142892265866
14390081 3 18334862740002820161
21028194 46 18334011666410482034

> <PUBCHEM_SHAPE_MULTIPOLES>
164.4
6.44
1.07
0.7
1.31
0.02
0.03
1.38
-0.25
-0.58
-0.01
0.21
0.01
0.34

> <PUBCHEM_SHAPE_SELFOVERLAP>
302.579

> <PUBCHEM_SHAPE_VOLUME>
102

> <PUBCHEM_COORDINATE_TYPE>
2
5
10

$$$$

