92150
  -OEChem-07051212513D

 31 30  0     1  0  0  0  0  0999 V2000
    3.4364    0.9816   -0.0282 P   0  0  0  0  0  0  0  0  0  0  0  0
   -4.7507    0.1316   -1.3796 O   0  0  0  0  0  0  0  0  0  0  0  0
   -4.6719   -0.5863    0.7713 O   0  0  0  0  0  0  0  0  0  0  0  0
    3.1832    1.1344   -1.6285 O   0  0  0  0  0  0  0  0  0  0  0  0
    5.0211    1.3444    0.0437 O   0  0  0  0  0  0  0  0  0  0  0  0
    2.6203    1.9846    0.7475 O   0  0  0  0  0  0  0  0  0  0  0  0
   -3.3038    1.9805    0.9863 N   0  0  0  0  0  0  0  0  0  0  0  0
    1.0204   -0.8396   -0.0856 N   0  0  0  0  0  0  0  0  0  0  0  0
    3.3207   -0.6359    0.3121 N   0  0  0  0  0  0  0  0  0  0  0  0
    2.3926   -2.7129    0.5106 N   0  0  0  0  0  0  0  0  0  0  0  0
   -1.7257    0.1928    0.4090 C   0  0  0  0  0  0  0  0  0  0  0  0
   -1.3750   -0.9288   -0.5796 C   0  0  0  0  0  0  0  0  0  0  0  0
   -2.9763    0.9745   -0.0209 C   0  0  1  0  0  0  0  0  0  0  0  0
   -0.1460   -1.7219   -0.1471 C   0  0  0  0  0  0  0  0  0  0  0  0
   -4.2006    0.0851   -0.1374 C   0  0  0  0  0  0  0  0  0  0  0  0
    2.1553   -1.3844    0.2265 C   0  0  0  0  0  0  0  0  0  0  0  0
   -0.8818    0.8879    0.5005 H   0  0  0  0  0  0  0  0  0  0  0  0
   -1.8836   -0.2512    1.4010 H   0  0  0  0  0  0  0  0  0  0  0  0
   -2.2155   -1.6251   -0.6768 H   0  0  0  0  0  0  0  0  0  0  0  0
   -1.1989   -0.4927   -1.5707 H   0  0  0  0  0  0  0  0  0  0  0  0
   -2.7890    1.4707   -0.9802 H   0  0  0  0  0  0  0  0  0  0  0  0
   -0.3352   -2.1769    0.8326 H   0  0  0  0  0  0  0  0  0  0  0  0
    0.0203   -2.5228   -0.8777 H   0  0  0  0  0  0  0  0  0  0  0  0
   -4.0700    2.5642    0.6520 H   0  0  0  0  0  0  0  0  0  0  0  0
   -2.5092    2.6056    1.1172 H   0  0  0  0  0  0  0  0  0  0  0  0
    4.1512   -1.1586    0.5816 H   0  0  0  0  0  0  0  0  0  0  0  0
   -5.5478   -0.4361   -1.4474 H   0  0  0  0  0  0  0  0  0  0  0  0
    3.3230   -3.0426    0.7443 H   0  0  0  0  0  0  0  0  0  0  0  0
    1.6547   -3.4079    0.4994 H   0  0  0  0  0  0  0  0  0  0  0  0
    3.1671    2.0350   -2.0172 H   0  0  0  0  0  0  0  0  0  0  0  0
    5.2950    2.2779   -0.0819 H   0  0  0  0  0  0  0  0  0  0  0  0
  1  4  1  0  0  0  0
  1  5  1  0  0  0  0
  1  6  2  0  0  0  0
  1  9  1  0  0  0  0
  2 15  1  0  0  0  0
  2 27  1  0  0  0  0
  3 15  2  0  0  0  0
  4 30  1  0  0  0  0
  5 31  1  0  0  0  0
  7 13  1  0  0  0  0
  7 24  1  0  0  0  0
  7 25  1  0  0  0  0
  8 14  1  0  0  0  0
  8 16  2  0  0  0  0
  9 16  1  0  0  0  0
  9 26  1  0  0  0  0
 10 16  1  0  0  0  0
 10 28  1  0  0  0  0
 10 29  1  0  0  0  0
 11 12  1  0  0  0  0
 11 13  1  0  0  0  0
 11 17  1  0  0  0  0
 11 18  1  0  0  0  0
 12 14  1  0  0  0  0
 12 19  1  0  0  0  0
 12 20  1  0  0  0  0
 13 15  1  0  0  0  0
 13 21  1  0  0  0  0
 14 22  1  0  0  0  0
 14 23  1  0  0  0  0
M  END
> <PUBCHEM_COMPOUND_CID>
92150

> <PUBCHEM_CONFORMER_RMSD>
0.8

> <PUBCHEM_CONFORMER_DIVERSEORDER>
1
90
44
146
138
129
32
122
34
116
108
106
23
110
111
33
148
84
118
126
75
9
41
66
104
78
142
73
3
83
131
92
49
133
91
40
95
93
139
51
113
120
6
125
28
101
89
64
25
27
18
13
48
97
43
47
132
10
127
137
82
140
26
128
88
115
81
105
70
7
65
117
38
39
31
20
71
86
17
62
72
98
58
16
2
68
22
63
24
12
107
119
147
112
76
69
35
103
144
130
77
56
46
55
11
60
94
57
42
4
134
29
102
143
74
114
124
87
135
19
145
30
52
121
59
37
99
141
36
79
45
8
136
50
53
14
96
109
100
5
85
61
21
54
67
123
80
15

> <PUBCHEM_MMFF94_PARTIAL_CHARGES>
22
1 1.52
10 -0.85
13 0.33
14 0.25
15 0.66
16 0.55
2 -0.65
24 0.36
25 0.36
26 0.4
27 0.5
28 0.4
29 0.4
3 -0.57
30 0.5
31 0.5
4 -0.77
5 -0.77
6 -0.7
7 -0.99
8 -0.7
9 -0.73

> <PUBCHEM_EFFECTIVE_ROTOR_COUNT>
7

> <PUBCHEM_PHARMACOPHORE_FEATURES>
12
1 10 donor
1 2 acceptor
1 3 acceptor
1 4 acceptor
1 5 acceptor
1 6 acceptor
1 7 cation
1 7 donor
1 9 donor
3 2 3 15 anion
4 1 4 5 6 anion
4 8 9 10 16 cation

> <PUBCHEM_HEAVY_ATOM_COUNT>
16

> <PUBCHEM_ATOM_DEF_STEREO_COUNT>
1

> <PUBCHEM_ATOM_UDEF_STEREO_COUNT>
0

> <PUBCHEM_BOND_DEF_STEREO_COUNT>
0

> <PUBCHEM_BOND_UDEF_STEREO_COUNT>
0

> <PUBCHEM_ISOTOPIC_ATOM_COUNT>
0

> <PUBCHEM_COMPONENT_COUNT>
1

> <PUBCHEM_CACTVS_TAUTO_COUNT>
5

> <PUBCHEM_CONFORMER_ID>
000167F600000001

> <PUBCHEM_MMFF94_ENERGY>
-13.9829

> <PUBCHEM_FEATURE_SELFOVERLAP>
61.052

> <PUBCHEM_SHAPE_FINGERPRINT>
10980938 120 18413387665751288860
14123255 52 18337110077461464434
14251764 38 17703518799758462749
14897335 6 18410577266686131742
15775835 57 18409165485477167716
17834072 8 18334002892646793558
18186145 218 18130219488410451931
20671657 1 18408605889782603698
21524375 3 18411418410277171246
21652331 79 18408604755858431561
22959321 54 18408887330030083592
23559900 14 17774723172488152139
449060 50 18272367564184669831
449060 62 18410573985346733910
474 4 18130787824257831942
6333272 397 18412544310131214531
633830 44 18189048871161159039

> <PUBCHEM_SHAPE_MULTIPOLES>
283.85
10.26
2.2
0.98
3.31
0.43
-0.27
-3.87
-0.49
-1.84
0.44
0.25
-0.24
-0.65

> <PUBCHEM_SHAPE_SELFOVERLAP>
530.497

> <PUBCHEM_SHAPE_VOLUME>
176.9

> <PUBCHEM_COORDINATE_TYPE>
2
5
10

$$$$

