5459811
  -OEChem-07051212453D

 81 81  0     1  0  0  0  0  0999 V2000
    4.9344    1.4231   -0.2864 O   0  0  0  0  0  0  0  0  0  0  0  0
    4.8102    0.5356    0.8322 C   0  0  0  0  0  0  0  0  0  0  0  0
    4.0612    0.2977   -0.4468 C   0  0  2  0  0  0  0  0  0  0  0  0
    4.5092   -0.7050   -1.4672 C   0  0  0  0  0  0  0  0  0  0  0  0
    6.0489   -0.2093    1.1618 C   0  0  0  0  0  0  0  0  0  0  0  0
    4.1185    1.1306    2.0008 C   0  0  0  0  0  0  0  0  0  0  0  0
    4.0586   -2.1340   -1.1456 C   0  0  0  0  0  0  0  0  0  0  0  0
    2.5533   -2.3097   -1.0584 C   0  0  0  0  0  0  0  0  0  0  0  0
    1.9950   -2.7704    0.0781 C   0  0  0  0  0  0  0  0  0  0  0  0
    1.7838   -1.8963   -2.2824 C   0  0  0  0  0  0  0  0  0  0  0  0
    0.5355   -2.9720    0.3804 C   0  0  0  0  0  0  0  0  0  0  0  0
    0.0751   -2.1580    1.5949 C   0  0  0  0  0  0  0  0  0  0  0  0
   -1.4014   -2.3083    1.9107 C   0  0  0  0  0  0  0  0  0  0  0  0
   -2.2097   -1.2314    1.8657 C   0  0  0  0  0  0  0  0  0  0  0  0
   -1.8311   -3.6905    2.3170 C   0  0  0  0  0  0  0  0  0  0  0  0
   -3.6793   -1.1562    2.1717 C   0  0  0  0  0  0  0  0  0  0  0  0
   -4.5484   -1.5315    0.9635 C   0  0  0  0  0  0  0  0  0  0  0  0
   -3.8654    0.2967   -2.4891 C   0  0  0  0  0  0  0  0  0  0  0  0
   -4.4233   -0.5392   -0.1609 C   0  0  0  0  0  0  0  0  0  0  0  0
   -4.0133   -0.7693   -1.4237 C   0  0  0  0  0  0  0  0  0  0  0  0
   -2.4422    0.5019   -3.0272 C   0  0  0  0  0  0  0  0  0  0  0  0
   -0.6340    1.9282   -1.9000 C   0  0  0  0  0  0  0  0  0  0  0  0
   -1.4304    0.8436   -1.9687 C   0  0  0  0  0  0  0  0  0  0  0  0
    0.3810    2.1872   -0.8073 C   0  0  0  0  0  0  0  0  0  0  0  0
   -3.6132   -2.1603   -1.8441 C   0  0  0  0  0  0  0  0  0  0  0  0
    0.1909    3.5339   -0.0949 C   0  0  0  0  0  0  0  0  0  0  0  0
   -0.7010    2.9800   -2.9773 C   0  0  0  0  0  0  0  0  0  0  0  0
   -1.0972    3.6045    0.6787 C   0  0  0  0  0  0  0  0  0  0  0  0
   -1.3216    3.2468    1.9575 C   0  0  0  0  0  0  0  0  0  0  0  0
   -2.6404    3.3449    2.6703 C   0  0  0  0  0  0  0  0  0  0  0  0
   -0.2039    2.6865    2.7968 C   0  0  0  0  0  0  0  0  0  0  0  0
    2.9978    0.4909   -0.4750 H   0  0  0  0  0  0  0  0  0  0  0  0
    4.1173   -0.3985   -2.4447 H   0  0  0  0  0  0  0  0  0  0  0  0
    5.5991   -0.6969   -1.5811 H   0  0  0  0  0  0  0  0  0  0  0  0
    5.8035   -1.1796    1.6055 H   0  0  0  0  0  0  0  0  0  0  0  0
    6.6557    0.3449    1.8866 H   0  0  0  0  0  0  0  0  0  0  0  0
    6.6886   -0.3871    0.2923 H   0  0  0  0  0  0  0  0  0  0  0  0
    3.7920    0.3476    2.6932 H   0  0  0  0  0  0  0  0  0  0  0  0
    3.2306    1.6997    1.7039 H   0  0  0  0  0  0  0  0  0  0  0  0
    4.7804    1.8136    2.5437 H   0  0  0  0  0  0  0  0  0  0  0  0
    4.4366   -2.8056   -1.9270 H   0  0  0  0  0  0  0  0  0  0  0  0
    4.5386   -2.4563   -0.2133 H   0  0  0  0  0  0  0  0  0  0  0  0
    2.6580   -3.0344    0.9015 H   0  0  0  0  0  0  0  0  0  0  0  0
    2.2836   -2.2662   -3.1844 H   0  0  0  0  0  0  0  0  0  0  0  0
    0.7684   -2.2974   -2.3102 H   0  0  0  0  0  0  0  0  0  0  0  0
    1.7166   -0.8061   -2.3471 H   0  0  0  0  0  0  0  0  0  0  0  0
    0.3881   -4.0420    0.5704 H   0  0  0  0  0  0  0  0  0  0  0  0
   -0.0997   -2.7208   -0.4736 H   0  0  0  0  0  0  0  0  0  0  0  0
    0.6501   -2.4592    2.4809 H   0  0  0  0  0  0  0  0  0  0  0  0
    0.3239   -1.1013    1.4261 H   0  0  0  0  0  0  0  0  0  0  0  0
   -1.7740   -0.2793    1.5642 H   0  0  0  0  0  0  0  0  0  0  0  0
   -1.7477   -4.3826    1.4735 H   0  0  0  0  0  0  0  0  0  0  0  0
   -2.8673   -3.7291    2.6626 H   0  0  0  0  0  0  0  0  0  0  0  0
   -1.2028   -4.0590    3.1345 H   0  0  0  0  0  0  0  0  0  0  0  0
   -3.9261   -1.8119    3.0143 H   0  0  0  0  0  0  0  0  0  0  0  0
   -3.9168   -0.1400    2.5111 H   0  0  0  0  0  0  0  0  0  0  0  0
   -5.5982   -1.5393    1.2819 H   0  0  0  0  0  0  0  0  0  0  0  0
   -4.3161   -2.5556    0.6599 H   0  0  0  0  0  0  0  0  0  0  0  0
   -4.5270    0.0419   -3.3270 H   0  0  0  0  0  0  0  0  0  0  0  0
   -4.2318    1.2567   -2.1010 H   0  0  0  0  0  0  0  0  0  0  0  0
   -4.6950    0.4827    0.1011 H   0  0  0  0  0  0  0  0  0  0  0  0
   -2.1045   -0.4139   -3.5282 H   0  0  0  0  0  0  0  0  0  0  0  0
   -2.5015    1.2638   -3.8087 H   0  0  0  0  0  0  0  0  0  0  0  0
   -1.3161    0.1004   -1.1809 H   0  0  0  0  0  0  0  0  0  0  0  0
    1.3795    2.1726   -1.2619 H   0  0  0  0  0  0  0  0  0  0  0  0
    0.3672    1.3721   -0.0725 H   0  0  0  0  0  0  0  0  0  0  0  0
   -2.5586   -2.3424   -1.6149 H   0  0  0  0  0  0  0  0  0  0  0  0
   -3.7499   -2.2865   -2.9243 H   0  0  0  0  0  0  0  0  0  0  0  0
   -4.2235   -2.9399   -1.3811 H   0  0  0  0  0  0  0  0  0  0  0  0
    0.2110    4.3644   -0.8108 H   0  0  0  0  0  0  0  0  0  0  0  0
    1.0480    3.7168    0.5630 H   0  0  0  0  0  0  0  0  0  0  0  0
   -1.4478    3.7396   -2.7261 H   0  0  0  0  0  0  0  0  0  0  0  0
    0.2688    3.4793   -3.0856 H   0  0  0  0  0  0  0  0  0  0  0  0
   -0.9228    2.5720   -3.9667 H   0  0  0  0  0  0  0  0  0  0  0  0
   -1.9440    3.9906    0.1124 H   0  0  0  0  0  0  0  0  0  0  0  0
   -2.5528    3.9938    3.5475 H   0  0  0  0  0  0  0  0  0  0  0  0
   -3.4180    3.7610    2.0215 H   0  0  0  0  0  0  0  0  0  0  0  0
   -2.9729    2.3547    2.9976 H   0  0  0  0  0  0  0  0  0  0  0  0
    0.7082    2.4541    2.2435 H   0  0  0  0  0  0  0  0  0  0  0  0
   -0.5258    1.7495    3.2655 H   0  0  0  0  0  0  0  0  0  0  0  0
    0.0557    3.3927    3.5924 H   0  0  0  0  0  0  0  0  0  0  0  0
  1  2  1  0  0  0  0
  1  3  1  0  0  0  0
  2  3  1  0  0  0  0
  2  5  1  0  0  0  0
  2  6  1  0  0  0  0
  3  4  1  0  0  0  0
  3 32  1  0  0  0  0
  4  7  1  0  0  0  0
  4 33  1  0  0  0  0
  4 34  1  0  0  0  0
  5 35  1  0  0  0  0
  5 36  1  0  0  0  0
  5 37  1  0  0  0  0
  6 38  1  0  0  0  0
  6 39  1  0  0  0  0
  6 40  1  0  0  0  0
  7  8  1  0  0  0  0
  7 41  1  0  0  0  0
  7 42  1  0  0  0  0
  8  9  2  0  0  0  0
  8 10  1  0  0  0  0
  9 11  1  0  0  0  0
  9 43  1  0  0  0  0
 10 44  1  0  0  0  0
 10 45  1  0  0  0  0
 10 46  1  0  0  0  0
 11 12  1  0  0  0  0
 11 47  1  0  0  0  0
 11 48  1  0  0  0  0
 12 13  1  0  0  0  0
 12 49  1  0  0  0  0
 12 50  1  0  0  0  0
 13 14  2  0  0  0  0
 13 15  1  0  0  0  0
 14 16  1  0  0  0  0
 14 51  1  0  0  0  0
 15 52  1  0  0  0  0
 15 53  1  0  0  0  0
 15 54  1  0  0  0  0
 16 17  1  0  0  0  0
 16 55  1  0  0  0  0
 16 56  1  0  0  0  0
 17 19  1  0  0  0  0
 17 57  1  0  0  0  0
 17 58  1  0  0  0  0
 18 20  1  0  0  0  0
 18 21  1  0  0  0  0
 18 59  1  0  0  0  0
 18 60  1  0  0  0  0
 19 20  2  0  0  0  0
 19 61  1  0  0  0  0
 20 25  1  0  0  0  0
 21 23  1  0  0  0  0
 21 62  1  0  0  0  0
 21 63  1  0  0  0  0
 22 23  2  0  0  0  0
 22 24  1  0  0  0  0
 22 27  1  0  0  0  0
 23 64  1  0  0  0  0
 24 26  1  0  0  0  0
 24 65  1  0  0  0  0
 24 66  1  0  0  0  0
 25 67  1  0  0  0  0
 25 68  1  0  0  0  0
 25 69  1  0  0  0  0
 26 28  1  0  0  0  0
 26 70  1  0  0  0  0
 26 71  1  0  0  0  0
 27 72  1  0  0  0  0
 27 73  1  0  0  0  0
 27 74  1  0  0  0  0
 28 29  2  0  0  0  0
 28 75  1  0  0  0  0
 29 30  1  0  0  0  0
 29 31  1  0  0  0  0
 30 76  1  0  0  0  0
 30 77  1  0  0  0  0
 30 78  1  0  0  0  0
 31 79  1  0  0  0  0
 31 80  1  0  0  0  0
 31 81  1  0  0  0  0
M  END
> <PUBCHEM_COMPOUND_CID>
5459811

> <PUBCHEM_CONFORMER_RMSD>
1.8

> <PUBCHEM_CONFORMER_DIVERSEORDER>
1
73
158
106
39
180
111
32
161
93
165
208
145
192
186
44
89
202
69
104
12
194
131
65
121
59
61
23
127
36
148
142
41
91
177
144
179
209
210
102
2
85
114
188
94
169
199
198
218
189
75
9
34
206
16
18
90
98
183
55
213
184
54
47
45
135
214
178
108
201
74
4
53
147
191
84
190
136
204
3
76
24
112
193
35
81
78
14
197
105
212
28
164
15
185
119
168
207
33
100
99
95
118
137
79
139
200
133
187
146
134
64
57
97
211
160
157
140
86
132
62
67
166
163
171
13
17
63
110
182
181
156
125
40
141
60
52
130
195
42
113
154
129
29
88
205
196
58
51
101
153
109
117
38
175
107
170
72
46
50
87
128
68
103
82
174
6
96
149
25
71
162
151
116
92
152
143
159
21
26
150
27
49
167
30
126
155
217
124
37
70
215
56
123
19
5
172
138
203
176
66
173
48
120
83
10
11
43
115
216
122
80
31
77
22
20
8
7

> <PUBCHEM_MMFF94_PARTIAL_CHARGES>
37
1 -0.3
10 0.14
11 0.14
12 0.14
13 -0.28
14 -0.29
15 0.14
16 0.14
17 0.14
18 0.14
19 -0.29
2 -0.04
20 -0.28
21 0.14
22 -0.28
23 -0.29
24 0.14
25 0.14
26 0.14
27 0.14
28 -0.29
29 -0.28
3 -0.05
30 0.14
31 0.14
32 0.1
4 0.09
43 0.15
5 0.09
51 0.15
6 0.09
61 0.15
64 0.15
7 0.14
75 0.15
8 -0.28
9 -0.29

> <PUBCHEM_EFFECTIVE_ROTOR_COUNT>
15.6

> <PUBCHEM_PHARMACOPHORE_FEATURES>
11
1 1 acceptor
1 10 hydrophobe
1 15 hydrophobe
1 25 hydrophobe
1 27 hydrophobe
3 2 5 6 hydrophobe
3 29 30 31 hydrophobe
4 14 16 17 19 hydrophobe
4 18 20 21 23 hydrophobe
4 22 24 26 28 hydrophobe
4 9 11 12 13 hydrophobe

> <PUBCHEM_HEAVY_ATOM_COUNT>
31

> <PUBCHEM_ATOM_DEF_STEREO_COUNT>
1

> <PUBCHEM_ATOM_UDEF_STEREO_COUNT>
0

> <PUBCHEM_BOND_DEF_STEREO_COUNT>
4

> <PUBCHEM_BOND_UDEF_STEREO_COUNT>
0

> <PUBCHEM_ISOTOPIC_ATOM_COUNT>
0

> <PUBCHEM_COMPONENT_COUNT>
1

> <PUBCHEM_CACTVS_TAUTO_COUNT>
1

> <PUBCHEM_CONFORMER_ID>
00534F6300000001

> <PUBCHEM_MMFF94_ENERGY>
32.1345

> <PUBCHEM_FEATURE_SELFOVERLAP>
55.865

> <PUBCHEM_SHAPE_FINGERPRINT>
10838868 49 17056441810118534688
11170278 61 17097491995300385169
12156800 1 17324029036147772253
12467345 10 15864351294577607810
13402501 40 18059581252088167935
13615921 28 18048559743737364711
14251757 17 17846780672115485381
14932701 244 18188502383648298634
150020 26 17765137381140570715
15721738 202 17533799117124544951
161222 619 18120102688971809020
19315092 285 17100323177797236143
20600515 1 18059002895918016609
20764821 26 18056740234712294960
21795232 40 17832429700495679072
3027735 51 18271535306791399025
35225 105 17178293271059372769
392239 28 18188223017674487302
469060 322 17603878779853591816
4742675 86 18335424590734627784
50150288 127 17606103224551051321

> <PUBCHEM_SHAPE_MULTIPOLES>
632.1
10.01
5.2
3.67
10.64
2.18
-0.39
-3.1
-0.02
-1.93
2.4
-2.97
1.19
1.26

> <PUBCHEM_SHAPE_SELFOVERLAP>
1218.111

> <PUBCHEM_SHAPE_VOLUME>
386.4

> <PUBCHEM_COORDINATE_TYPE>
2
5
10

$$$$

