11954115
  -OEChem-07051213063D

 53 57  0     1  0  0  0  0  0999 V2000
   -5.4265   -1.2022    0.2106 O   0  0  0  0  0  0  0  0  0  0  0  0
    5.4346    0.3760   -0.5999 O   0  0  0  0  0  0  0  0  0  0  0  0
    5.9293   -0.9222   -0.5687 N   0  0  0  0  0  0  0  0  0  0  0  0
   -3.0468   -0.5686    0.2199 C   0  0  1  0  0  0  0  0  0  0  0  0
   -2.3502    0.6935   -0.3327 C   0  0  2  0  0  0  0  0  0  0  0  0
   -0.9704    0.9436    0.2922 C   0  0  1  0  0  0  0  0  0  0  0  0
   -0.0558   -0.2889    0.0115 C   0  0  1  0  0  0  0  0  0  0  0  0
   -4.4272   -0.4751   -0.5011 C   0  0  2  0  0  0  0  0  0  0  0  0
   -2.1622   -1.7789   -0.1225 C   0  0  0  0  0  0  0  0  0  0  0  0
    1.4070   -0.1180    0.5745 C   0  0  2  0  0  0  0  0  0  0  0  0
   -3.4169    1.7756   -0.1994 C   0  0  0  0  0  0  0  0  0  0  0  0
   -0.7358   -1.6204    0.4351 C   0  0  0  0  0  0  0  0  0  0  0  0
   -4.7472    1.0435   -0.4570 C   0  0  0  0  0  0  0  0  0  0  0  0
   -0.3275    2.2174   -0.2725 C   0  0  0  0  0  0  0  0  0  0  0  0
   -3.2660   -0.5298    1.7611 C   0  0  0  0  0  0  0  0  0  0  0  0
    1.9653    1.2758    0.1562 C   0  0  0  0  0  0  0  0  0  0  0  0
    1.0464    2.4595    0.3375 C   0  0  0  0  0  0  0  0  0  0  0  0
    2.2821   -1.3227    0.0390 C   0  0  0  0  0  0  0  0  0  0  0  0
   -4.4516   -0.9923   -1.9450 C   0  0  0  0  0  0  0  0  0  0  0  0
    1.4400   -0.1665    2.1222 C   0  0  0  0  0  0  0  0  0  0  0  0
    3.2243    1.4774   -0.2877 C   0  0  0  0  0  0  0  0  0  0  0  0
    3.6964   -0.9440   -0.1875 C   0  0  0  0  0  0  0  0  0  0  0  0
    4.0883    0.3647   -0.3627 C   0  0  0  0  0  0  0  0  0  0  0  0
    4.8703   -1.6974   -0.3231 C   0  0  0  0  0  0  0  0  0  0  0  0
   -2.1784    0.5612   -1.4119 H   0  0  0  0  0  0  0  0  0  0  0  0
   -1.0829    1.0820    1.3729 H   0  0  0  0  0  0  0  0  0  0  0  0
    0.0431   -0.3436   -1.0851 H   0  0  0  0  0  0  0  0  0  0  0  0
   -2.0778   -1.9032   -1.2085 H   0  0  0  0  0  0  0  0  0  0  0  0
   -2.6090   -2.7029    0.2635 H   0  0  0  0  0  0  0  0  0  0  0  0
   -3.2675    2.5874   -0.9187 H   0  0  0  0  0  0  0  0  0  0  0  0
   -3.4147    2.2189    0.8027 H   0  0  0  0  0  0  0  0  0  0  0  0
   -0.7658   -1.7054    1.5253 H   0  0  0  0  0  0  0  0  0  0  0  0
   -0.1443   -2.4724    0.0816 H   0  0  0  0  0  0  0  0  0  0  0  0
   -5.4695    1.2969    0.3276 H   0  0  0  0  0  0  0  0  0  0  0  0
   -5.1857    1.3858   -1.4017 H   0  0  0  0  0  0  0  0  0  0  0  0
   -0.9614    3.0864   -0.0612 H   0  0  0  0  0  0  0  0  0  0  0  0
   -0.2405    2.1456   -1.3645 H   0  0  0  0  0  0  0  0  0  0  0  0
   -3.9219    0.2895    2.0722 H   0  0  0  0  0  0  0  0  0  0  0  0
   -3.7200   -1.4644    2.1109 H   0  0  0  0  0  0  0  0  0  0  0  0
   -2.3354   -0.4086    2.3213 H   0  0  0  0  0  0  0  0  0  0  0  0
    0.9401    2.6680    1.4091 H   0  0  0  0  0  0  0  0  0  0  0  0
    1.4737    3.3650   -0.1107 H   0  0  0  0  0  0  0  0  0  0  0  0
    1.8917   -1.6659   -0.9286 H   0  0  0  0  0  0  0  0  0  0  0  0
    2.2260   -2.1803    0.7203 H   0  0  0  0  0  0  0  0  0  0  0  0
   -3.7211   -0.4960   -2.5893 H   0  0  0  0  0  0  0  0  0  0  0  0
   -4.2744   -2.0730   -1.9769 H   0  0  0  0  0  0  0  0  0  0  0  0
   -5.4450   -0.8417   -2.3849 H   0  0  0  0  0  0  0  0  0  0  0  0
    0.7773    0.5762    2.5769 H   0  0  0  0  0  0  0  0  0  0  0  0
    1.1419   -1.1476    2.5058 H   0  0  0  0  0  0  0  0  0  0  0  0
    2.4510    0.0265    2.5016 H   0  0  0  0  0  0  0  0  0  0  0  0
   -5.6660   -0.7157    1.0163 H   0  0  0  0  0  0  0  0  0  0  0  0
    3.6003    2.4631   -0.5372 H   0  0  0  0  0  0  0  0  0  0  0  0
    5.0047   -2.7674   -0.2639 H   0  0  0  0  0  0  0  0  0  0  0  0
  1  8  1  0  0  0  0
  1 51  1  0  0  0  0
  2  3  1  0  0  0  0
  2 23  1  0  0  0  0
  3 24  2  0  0  0  0
  4  5  1  0  0  0  0
  4  8  1  0  0  0  0
  4  9  1  0  0  0  0
  4 15  1  0  0  0  0
  5  6  1  0  0  0  0
  5 11  1  0  0  0  0
  5 25  1  0  0  0  0
  6  7  1  0  0  0  0
  6 14  1  0  0  0  0
  6 26  1  0  0  0  0
  7 10  1  0  0  0  0
  7 12  1  0  0  0  0
  7 27  1  0  0  0  0
  8 13  1  0  0  0  0
  8 19  1  0  0  0  0
  9 12  1  0  0  0  0
  9 28  1  0  0  0  0
  9 29  1  0  0  0  0
 10 16  1  0  0  0  0
 10 18  1  0  0  0  0
 10 20  1  0  0  0  0
 11 13  1  0  0  0  0
 11 30  1  0  0  0  0
 11 31  1  0  0  0  0
 12 32  1  0  0  0  0
 12 33  1  0  0  0  0
 13 34  1  0  0  0  0
 13 35  1  0  0  0  0
 14 17  1  0  0  0  0
 14 36  1  0  0  0  0
 14 37  1  0  0  0  0
 15 38  1  0  0  0  0
 15 39  1  0  0  0  0
 15 40  1  0  0  0  0
 16 17  1  0  0  0  0
 16 21  2  0  0  0  0
 17 41  1  0  0  0  0
 17 42  1  0  0  0  0
 18 22  1  0  0  0  0
 18 43  1  0  0  0  0
 18 44  1  0  0  0  0
 19 45  1  0  0  0  0
 19 46  1  0  0  0  0
 19 47  1  0  0  0  0
 20 48  1  0  0  0  0
 20 49  1  0  0  0  0
 20 50  1  0  0  0  0
 21 23  1  0  0  0  0
 21 52  1  0  0  0  0
 22 23  2  0  0  0  0
 22 24  1  0  0  0  0
 24 53  1  0  0  0  0
M  END
> <PUBCHEM_COMPOUND_CID>
11954115

> <PUBCHEM_CONFORMER_RMSD>
0.6

> <PUBCHEM_CONFORMER_DIVERSEORDER>
1

> <PUBCHEM_MMFF94_PARTIAL_CHARGES>
15
1 -0.68
10 0.14
16 -0.28
17 0.14
18 0.18
2 -0.02
21 -0.11
22 -0.18
23 0.09
24 0.14
3 -0.41
51 0.4
52 0.15
53 0.15
8 0.28

> <PUBCHEM_EFFECTIVE_ROTOR_COUNT>
1.6

> <PUBCHEM_PHARMACOPHORE_FEATURES>
8
1 1 acceptor
1 1 donor
1 3 acceptor
5 2 3 22 23 24 rings
5 4 5 8 11 13 rings
6 10 16 18 21 22 23 rings
6 4 5 6 7 9 12 rings
6 6 7 10 14 16 17 rings

> <PUBCHEM_HEAVY_ATOM_COUNT>
24

> <PUBCHEM_ATOM_DEF_STEREO_COUNT>
6

> <PUBCHEM_ATOM_UDEF_STEREO_COUNT>
0

> <PUBCHEM_BOND_DEF_STEREO_COUNT>
0

> <PUBCHEM_BOND_UDEF_STEREO_COUNT>
0

> <PUBCHEM_ISOTOPIC_ATOM_COUNT>
0

> <PUBCHEM_COMPONENT_COUNT>
1

> <PUBCHEM_CACTVS_TAUTO_COUNT>
1

> <PUBCHEM_CONFORMER_ID>
00B667C300000001

> <PUBCHEM_MMFF94_ENERGY>
84.4691

> <PUBCHEM_FEATURE_SELFOVERLAP>
40.779

> <PUBCHEM_SHAPE_FINGERPRINT>
10366900 7 17417817223188260689
10498660 4 17060349517271698605
11315181 36 17385442124614408122
11578080 2 17025166107297862666
11796584 16 17240481420380785311
12011746 2 18272094898565379861
12236239 1 17822006485193615979
12516196 113 18113620079988295008
12553582 1 18340497715493722331
12596602 18 16226053262464081866
12633257 1 14707213184326566093
12788726 201 18194407924910224545
13224815 77 17775008972628382793
13288520 33 18334010613985226069
13402501 40 18411417323454993887
13583140 156 14634870906855260939
13685833 64 18409726240586412179
13862211 1 18410576210498723250
14790565 3 17472696309173353065
15099037 51 18410855473092418894
15163728 17 15839890606029927887
15183329 4 18342176708620430070
15188451 53 15430615965296605477
15196674 1 18411418414445382084
15209294 21 10879992484220726847
15238133 3 17631190712679481921
15788980 27 18408602569603819078
16752209 62 18341625844573104537
17349148 13 17675922084165820111
17357779 13 18342749506860092925
17492 89 18047196254556017815
1813 80 17968361412462003964
18186145 218 17489592250916392713
18222031 100 18188221943426331891
18681886 176 18408889521296802368
19862831 5 18060703887761583186
200 152 18259703401961174897
20645477 70 18341899528305125188
20775438 99 17105697577670191111
20871999 31 18342459269891420749
21033648 29 18060150803744063125
21267235 1 18411129234270923127
21279426 13 18340487884271390468
221357 26 18411705378764739597
221490 88 18268986484356184386
22393880 68 18200889421638632813
23402539 116 18335985349848572276
23522609 53 18044062757764376025
23559900 14 18334585602753596857
2838139 119 15697143021482565348
2871803 45 18272089418155461324
296302 2 11240001156976864953
3004659 81 18272649082844166134
3286 77 16950290576352599091
335352 9 18410012165565992717
350125 39 18410853287719157657
4214541 1 18410855486093397853
465052 167 18187077321730906591
474 4 17131543934795035700
4921388 177 16486960770396668185
5104073 3 18410292527581684768
542803 24 13326856642778257974
633830 44 17561083553785316436
7495541 125 17313109609614309656
9709674 26 18267869376416286059

> <PUBCHEM_SHAPE_MULTIPOLES>
477.19
11.51
2.14
1.2
3.79
0.7
0.33
-3.36
-3.51
0.11
-0.13
-0.73
-0.27
0.1

> <PUBCHEM_SHAPE_SELFOVERLAP>
1045.389

> <PUBCHEM_SHAPE_VOLUME>
258.3

> <PUBCHEM_COORDINATE_TYPE>
2
5
10

$$$$

