238388
  -OEChem-07051213063D

 46 49  0     1  0  0  0  0  0999 V2000
    5.3214    0.9774    0.3414 O   0  0  0  0  0  0  0  0  0  0  0  0
   -5.6372    0.5414    0.3614 O   0  0  0  0  0  0  0  0  0  0  0  0
   -4.2574   -1.8678    0.4478 N   0  0  0  0  0  0  0  0  0  0  0  0
    2.9008    0.5364    0.1756 C   0  0  1  0  0  0  0  0  0  0  0  0
    2.1645   -0.6865   -0.4073 C   0  0  2  0  0  0  0  0  0  0  0  0
    0.6884   -0.7137   -0.0119 C   0  0  1  0  0  0  0  0  0  0  0  0
   -0.0043    0.5612   -0.5822 C   0  0  2  0  0  0  0  0  0  0  0  0
    4.3235    0.2364   -0.3336 C   0  0  2  0  0  0  0  0  0  0  0  0
    2.2603    1.8017   -0.4079 C   0  0  0  0  0  0  0  0  0  0  0  0
    3.0633   -1.8585   -0.0233 C   0  0  0  0  0  0  0  0  0  0  0  0
    0.7429    1.8498   -0.1447 C   0  0  0  0  0  0  0  0  0  0  0  0
    4.4875   -1.2798   -0.1099 C   0  0  0  0  0  0  0  0  0  0  0  0
   -0.0385   -1.9523   -0.5388 C   0  0  0  0  0  0  0  0  0  0  0  0
    2.8903    0.6247    1.7234 C   0  0  0  0  0  0  0  0  0  0  0  0
   -1.5030    0.5525   -0.2933 C   0  0  0  0  0  0  0  0  0  0  0  0
   -1.4620   -1.9893    0.0090 C   0  0  0  0  0  0  0  0  0  0  0  0
   -2.1810   -0.6639   -0.0586 C   0  0  0  0  0  0  0  0  0  0  0  0
   -2.2601    1.7364   -0.3416 C   0  0  0  0  0  0  0  0  0  0  0  0
   -3.5680   -0.6596    0.1722 C   0  0  0  0  0  0  0  0  0  0  0  0
   -3.6389    1.7253   -0.1197 C   0  0  0  0  0  0  0  0  0  0  0  0
   -4.2926    0.5282    0.1420 C   0  0  0  0  0  0  0  0  0  0  0  0
    2.1991   -0.6253   -1.5081 H   0  0  0  0  0  0  0  0  0  0  0  0
    0.6018   -0.7217    1.0823 H   0  0  0  0  0  0  0  0  0  0  0  0
    0.0730    0.5181   -1.6798 H   0  0  0  0  0  0  0  0  0  0  0  0
    4.4044    0.4593   -1.4051 H   0  0  0  0  0  0  0  0  0  0  0  0
    2.4234    1.8367   -1.4931 H   0  0  0  0  0  0  0  0  0  0  0  0
    2.7342    2.7013    0.0029 H   0  0  0  0  0  0  0  0  0  0  0  0
    2.9391   -2.7099   -0.7001 H   0  0  0  0  0  0  0  0  0  0  0  0
    2.8542   -2.2096    0.9933 H   0  0  0  0  0  0  0  0  0  0  0  0
    0.5533    2.0458    0.9175 H   0  0  0  0  0  0  0  0  0  0  0  0
    0.3517    2.7174   -0.6887 H   0  0  0  0  0  0  0  0  0  0  0  0
    5.0546   -1.5035    0.8007 H   0  0  0  0  0  0  0  0  0  0  0  0
    5.0390   -1.7247   -0.9456 H   0  0  0  0  0  0  0  0  0  0  0  0
    0.4782   -2.8723   -0.2431 H   0  0  0  0  0  0  0  0  0  0  0  0
   -0.0597   -1.9370   -1.6363 H   0  0  0  0  0  0  0  0  0  0  0  0
    3.4341    1.5143    2.0623 H   0  0  0  0  0  0  0  0  0  0  0  0
    1.8807    0.6973    2.1362 H   0  0  0  0  0  0  0  0  0  0  0  0
    3.3656   -0.2409    2.1953 H   0  0  0  0  0  0  0  0  0  0  0  0
   -1.4310   -2.3114    1.0578 H   0  0  0  0  0  0  0  0  0  0  0  0
   -2.0022   -2.7502   -0.5665 H   0  0  0  0  0  0  0  0  0  0  0  0
    6.1844    0.6642    0.0209 H   0  0  0  0  0  0  0  0  0  0  0  0
   -1.7948    2.6927   -0.5604 H   0  0  0  0  0  0  0  0  0  0  0  0
   -4.1876    2.6627   -0.1590 H   0  0  0  0  0  0  0  0  0  0  0  0
   -3.7689   -2.7436    0.5633 H   0  0  0  0  0  0  0  0  0  0  0  0
   -5.2553   -1.8362    0.6131 H   0  0  0  0  0  0  0  0  0  0  0  0
   -5.9613    1.4563    0.2995 H   0  0  0  0  0  0  0  0  0  0  0  0
  1  8  1  0  0  0  0
  1 41  1  0  0  0  0
  2 21  1  0  0  0  0
  2 46  1  0  0  0  0
  3 19  1  0  0  0  0
  3 44  1  0  0  0  0
  3 45  1  0  0  0  0
  4  5  1  0  0  0  0
  4  8  1  0  0  0  0
  4  9  1  0  0  0  0
  4 14  1  0  0  0  0
  5  6  1  0  0  0  0
  5 10  1  0  0  0  0
  5 22  1  0  0  0  0
  6  7  1  0  0  0  0
  6 13  1  0  0  0  0
  6 23  1  0  0  0  0
  7 11  1  0  0  0  0
  7 15  1  0  0  0  0
  7 24  1  0  0  0  0
  8 12  1  0  0  0  0
  8 25  1  0  0  0  0
  9 11  1  0  0  0  0
  9 26  1  0  0  0  0
  9 27  1  0  0  0  0
 10 12  1  0  0  0  0
 10 28  1  0  0  0  0
 10 29  1  0  0  0  0
 11 30  1  0  0  0  0
 11 31  1  0  0  0  0
 12 32  1  0  0  0  0
 12 33  1  0  0  0  0
 13 16  1  0  0  0  0
 13 34  1  0  0  0  0
 13 35  1  0  0  0  0
 14 36  1  0  0  0  0
 14 37  1  0  0  0  0
 14 38  1  0  0  0  0
 15 17  2  0  0  0  0
 15 18  1  0  0  0  0
 16 17  1  0  0  0  0
 16 39  1  0  0  0  0
 16 40  1  0  0  0  0
 17 19  1  0  0  0  0
 18 20  2  0  0  0  0
 18 42  1  0  0  0  0
 19 21  2  0  0  0  0
 20 21  1  0  0  0  0
 20 43  1  0  0  0  0
M  END
> <PUBCHEM_COMPOUND_CID>
238388

> <PUBCHEM_CONFORMER_RMSD>
0.6

> <PUBCHEM_CONFORMER_DIVERSEORDER>
1

> <PUBCHEM_MMFF94_PARTIAL_CHARGES>
18
1 -0.68
15 -0.14
16 0.14
17 -0.14
18 -0.15
19 0.1
2 -0.53
20 -0.15
21 0.08
3 -0.9
41 0.4
42 0.15
43 0.15
44 0.4
45 0.4
46 0.45
7 0.14
8 0.28

> <PUBCHEM_EFFECTIVE_ROTOR_COUNT>
1.4

> <PUBCHEM_PHARMACOPHORE_FEATURES>
9
1 1 acceptor
1 1 donor
1 2 donor
1 3 cation
1 3 donor
5 4 5 8 10 12 rings
6 15 17 18 19 20 21 rings
6 4 5 6 7 9 11 rings
6 6 7 13 15 16 17 rings

> <PUBCHEM_HEAVY_ATOM_COUNT>
21

> <PUBCHEM_ATOM_DEF_STEREO_COUNT>
5

> <PUBCHEM_ATOM_UDEF_STEREO_COUNT>
0

> <PUBCHEM_BOND_DEF_STEREO_COUNT>
0

> <PUBCHEM_BOND_UDEF_STEREO_COUNT>
0

> <PUBCHEM_ISOTOPIC_ATOM_COUNT>
0

> <PUBCHEM_COMPONENT_COUNT>
1

> <PUBCHEM_CACTVS_TAUTO_COUNT>
14

> <PUBCHEM_CONFORMER_ID>
0003A33400000001

> <PUBCHEM_MMFF94_ENERGY>
84.6471

> <PUBCHEM_FEATURE_SELFOVERLAP>
45.771

> <PUBCHEM_SHAPE_FINGERPRINT>
10 15 18339370656753130560
10616163 171 18339075986697967215
10646746 165 18408885165361239613
10967382 1 18410855503114810174
11132069 177 18412266142584977877
11578080 2 4749503697995149712
11595378 159 17560533883723445120
12011746 2 18410290341311247390
12107183 9 17692534828561457193
12236239 1 17418092126374469188
12251169 10 18413389821582330453
12403259 226 18337394846815604913
12403259 415 18336833081898740901
128620 24 11455889161152114776
13140716 1 17979074877474033290
13224815 77 18342181067785245751
13675066 3 18260551108235758472
14178342 30 18120394068106181026
14341114 176 18410848889060398561
14790565 3 17764020264843710172
14866123 147 16964911096137197842
15042514 8 18268423552200421235
15196674 1 18411136948095425390
15256400 18 18410009974478413757
15295992 7 17821736009005704067
15536298 74 18335420187913224798
15788980 27 16702306775363633359
1601671 61 18411980261035372060
16945 1 18266186036724762950
17349148 13 18409174320230125085
17492 89 18269833125542968107
17804303 29 18410570669584554253
1813 80 17060615620491833356
18186145 218 18186795911299712389
19141452 34 18408603647894012919
19591789 44 18339643450762399246
200 152 18040159517861326749
20261772 1 18261954046671705479
20510252 161 18334857246607955401
21033648 29 17895489084391728761
21267235 1 18339632425522970846
21279426 13 18120934172611070804
21421861 104 17916597577990193098
221490 88 18342167826284969192
22854114 59 18334012787280869249
23402539 116 18335426746739723239
23558518 356 17769093445531383002
23559900 14 18409449228054211934
2748010 2 18338239382913395790
3004659 81 18271802484702988374
335352 9 18339359772667471511
34934 24 18409733937441983270
350125 39 18411133611006368517
351380 180 18410856560061828255
3545911 37 18409446998639131092
4214541 1 18411980290804639989
495365 180 17240778267583680682
5104073 3 18410575106190728762
542803 24 17385722508368875009
69090 78 18334298664762861615
77779 3 18411417327939722150
9709674 26 18411975832518135231

> <PUBCHEM_SHAPE_MULTIPOLES>
415.45
10.07
2.21
0.84
1.98
0.31
0.22
-0.53
1.37
0.3
-0.15
-0.42
-0.1
0.42

> <PUBCHEM_SHAPE_SELFOVERLAP>
906.914

> <PUBCHEM_SHAPE_VOLUME>
225

> <PUBCHEM_COORDINATE_TYPE>
2
5
10

$$$$

