9757
  -OEChem-06261204012D

 21 20  0     0  0  0  0  0  0999 V2000
    2.0000    0.0600    0.0000 F   0  0  0  0  0  0  0  0  0  0  0  0
    7.1962    1.0600    0.0000 O   0  0  0  0  0  0  0  0  0  0  0  0
    6.3301   -0.4400    0.0000 N   0  0  0  0  0  0  0  0  0  0  0  0
    4.5981   -0.4400    0.0000 C   0  0  0  0  0  0  0  0  0  0  0  0
    3.7320    0.0600    0.0000 C   0  0  0  0  0  0  0  0  0  0  0  0
    5.4641    0.0600    0.0000 C   0  0  0  0  0  0  0  0  0  0  0  0
    2.8660   -0.4400    0.0000 C   0  0  0  0  0  0  0  0  0  0  0  0
    7.1962    0.0600    0.0000 C   0  0  0  0  0  0  0  0  0  0  0  0
    8.0622   -0.4400    0.0000 C   0  0  0  0  0  0  0  0  0  0  0  0
    4.1996   -0.9149    0.0000 H   0  0  0  0  0  0  0  0  0  0  0  0
    4.9966   -0.9149    0.0000 H   0  0  0  0  0  0  0  0  0  0  0  0
    4.1306    0.5349    0.0000 H   0  0  0  0  0  0  0  0  0  0  0  0
    3.3335    0.5349    0.0000 H   0  0  0  0  0  0  0  0  0  0  0  0
    5.8626    0.5349    0.0000 H   0  0  0  0  0  0  0  0  0  0  0  0
    5.0656    0.5349    0.0000 H   0  0  0  0  0  0  0  0  0  0  0  0
    2.4675   -0.9149    0.0000 H   0  0  0  0  0  0  0  0  0  0  0  0
    3.2646   -0.9149    0.0000 H   0  0  0  0  0  0  0  0  0  0  0  0
    6.3301   -1.0600    0.0000 H   0  0  0  0  0  0  0  0  0  0  0  0
    7.7522   -0.9769    0.0000 H   0  0  0  0  0  0  0  0  0  0  0  0
    8.5991   -0.7500    0.0000 H   0  0  0  0  0  0  0  0  0  0  0  0
    8.3722    0.0969    0.0000 H   0  0  0  0  0  0  0  0  0  0  0  0
  1  7  1  0  0  0  0
  2  8  2  0  0  0  0
  3  6  1  0  0  0  0
  3  8  1  0  0  0  0
  3 18  1  0  0  0  0
  4  5  1  0  0  0  0
  4  6  1  0  0  0  0
  4 10  1  0  0  0  0
  4 11  1  0  0  0  0
  5  7  1  0  0  0  0
  5 12  1  0  0  0  0
  5 13  1  0  0  0  0
  6 14  1  0  0  0  0
  6 15  1  0  0  0  0
  7 16  1  0  0  0  0
  7 17  1  0  0  0  0
  8  9  1  0  0  0  0
  9 19  1  0  0  0  0
  9 20  1  0  0  0  0
  9 21  1  0  0  0  0
M  END
> <PUBCHEM_COMPOUND_CID>
9757

> <PUBCHEM_COMPOUND_CANONICALIZED>
1

> <PUBCHEM_CACTVS_COMPLEXITY>
85.1

> <PUBCHEM_CACTVS_HBOND_ACCEPTOR>
2

> <PUBCHEM_CACTVS_HBOND_DONOR>
1

> <PUBCHEM_CACTVS_ROTATABLE_BOND>
4

> <PUBCHEM_CACTVS_SUBSKEYS>
AAADccBiIQAAAAAAAAAAAAAAAAAAAAAAAAAAAAAAAAAAAAAAAAAAHwAQAAAACADBgAQCAALAAAAIAAEQEAAAAAAAAAAAAIAIAAAAAAAAgAAEAAAAFgCAAAAAAAAAAAAAAAAAAAAAAAAAAAAAAAAAAAAAAA==

> <PUBCHEM_IUPAC_OPENEYE_NAME>
N-(4-fluorobutyl)acetamide

> <PUBCHEM_IUPAC_CAS_NAME>
N-(4-fluorobutyl)acetamide

> <PUBCHEM_IUPAC_NAME>
N-(4-fluorobutyl)acetamide

> <PUBCHEM_IUPAC_SYSTEMATIC_NAME>
N-(4-fluoranylbutyl)ethanamide

> <PUBCHEM_IUPAC_TRADITIONAL_NAME>
N-(4-fluorobutyl)acetamide

> <PUBCHEM_IUPAC_INCHI>
InChI=1S/C6H12FNO/c1-6(9)8-5-3-2-4-7/h2-5H2,1H3,(H,8,9)

> <PUBCHEM_IUPAC_INCHIKEY>
OSYIGZSQARXLDX-UHFFFAOYSA-N

> <PUBCHEM_XLOGP3_AA>
0.6

> <PUBCHEM_EXACT_MASS>
133.090292

> <PUBCHEM_MOLECULAR_FORMULA>
C6H12FNO

> <PUBCHEM_MOLECULAR_WEIGHT>
133.163983

> <PUBCHEM_OPENEYE_CAN_SMILES>
CC(=O)NCCCCF

> <PUBCHEM_OPENEYE_ISO_SMILES>
CC(=O)NCCCCF

> <PUBCHEM_CACTVS_TPSA>
29.1

> <PUBCHEM_MONOISOTOPIC_WEIGHT>
133.090292

> <PUBCHEM_TOTAL_CHARGE>
0

> <PUBCHEM_HEAVY_ATOM_COUNT>
9

> <PUBCHEM_ATOM_DEF_STEREO_COUNT>
0

> <PUBCHEM_ATOM_UDEF_STEREO_COUNT>
0

> <PUBCHEM_BOND_DEF_STEREO_COUNT>
0

> <PUBCHEM_BOND_UDEF_STEREO_COUNT>
0

> <PUBCHEM_ISOTOPIC_ATOM_COUNT>
0

> <PUBCHEM_COMPONENT_COUNT>
1

> <PUBCHEM_CACTVS_TAUTO_COUNT>
2

> <PUBCHEM_COORDINATE_TYPE>
1
5
255

$$$$

