251633
  -OEChem-07051213073D

 58 62  0     1  0  0  0  0  0999 V2000
    6.4224   -1.3275   -1.1424 F   0  0  0  0  0  0  0  0  0  0  0  0
    4.6070   -0.3650   -1.9834 F   0  0  0  0  0  0  0  0  0  0  0  0
   -4.7763   -0.8257    0.1224 O   0  0  0  0  0  0  0  0  0  0  0  0
   -6.2382    0.0131   -1.4577 O   0  0  0  0  0  0  0  0  0  0  0  0
    2.0868   -0.1782    0.6012 C   0  0  2  0  0  0  0  0  0  0  0  0
    0.6151   -0.2640    0.0408 C   0  0  2  0  0  0  0  0  0  0  0  0
    4.3745   -1.3035    0.3243 C   0  0  1  0  0  0  0  0  0  0  0  0
    2.7688    1.0908   -0.0112 C   0  0  2  0  0  0  0  0  0  0  0  0
    5.0392    0.0425    0.4426 C   0  0  1  0  0  0  0  0  0  0  0  0
   -0.1922    1.0470    0.2985 C   0  0  2  0  0  0  0  0  0  0  0  0
    2.8896   -1.4287    0.1400 C   0  0  0  0  0  0  0  0  0  0  0  0
   -1.5904    0.8919   -0.3094 C   0  0  1  0  0  0  0  0  0  0  0  0
    5.2111   -0.7647   -0.8124 C   0  0  0  0  0  0  0  0  0  0  0  0
    4.2166    1.2904    0.4690 C   0  0  0  0  0  0  0  0  0  0  0  0
   -2.3746   -0.2919    0.2901 C   0  0  2  0  0  0  0  0  0  0  0  0
    1.9636    2.3759    0.2307 C   0  0  0  0  0  0  0  0  0  0  0  0
   -0.1660   -1.5313    0.4861 C   0  0  0  0  0  0  0  0  0  0  0  0
    0.5376    2.2589   -0.2926 C   0  0  0  0  0  0  0  0  0  0  0  0
   -1.6117   -1.5808   -0.0402 C   0  0  0  0  0  0  0  0  0  0  0  0
    2.0927   -0.1371    2.1499 C   0  0  0  0  0  0  0  0  0  0  0  0
   -2.5754    2.0553   -0.2180 C   0  0  0  0  0  0  0  0  0  0  0  0
   -3.7043   -0.1189   -0.4716 C   0  0  2  0  0  0  0  0  0  0  0  0
   -3.9488    1.4034   -0.4620 C   0  0  0  0  0  0  0  0  0  0  0  0
   -2.6110   -0.2041    1.8186 C   0  0  0  0  0  0  0  0  0  0  0  0
   -6.0015   -0.6728   -0.4725 C   0  0  0  0  0  0  0  0  0  0  0  0
   -7.0345   -1.4750    0.2594 C   0  0  0  0  0  0  0  0  0  0  0  0
    0.7086   -0.3537   -1.0537 H   0  0  0  0  0  0  0  0  0  0  0  0
    4.7901   -2.1226    0.8988 H   0  0  0  0  0  0  0  0  0  0  0  0
    2.8036    0.9465   -1.1009 H   0  0  0  0  0  0  0  0  0  0  0  0
    5.9083    0.1241    1.0857 H   0  0  0  0  0  0  0  0  0  0  0  0
   -0.2886    1.2145    1.3765 H   0  0  0  0  0  0  0  0  0  0  0  0
    2.6839   -1.6381   -0.9177 H   0  0  0  0  0  0  0  0  0  0  0  0
    2.5532   -2.3148    0.6923 H   0  0  0  0  0  0  0  0  0  0  0  0
   -1.4463    0.7024   -1.3867 H   0  0  0  0  0  0  0  0  0  0  0  0
    4.7076    2.0524   -0.1489 H   0  0  0  0  0  0  0  0  0  0  0  0
    4.2190    1.6836    1.4931 H   0  0  0  0  0  0  0  0  0  0  0  0
    2.4548    3.2187   -0.2714 H   0  0  0  0  0  0  0  0  0  0  0  0
    1.9430    2.6228    1.2989 H   0  0  0  0  0  0  0  0  0  0  0  0
   -0.1864   -1.6046    1.5773 H   0  0  0  0  0  0  0  0  0  0  0  0
    0.3478   -2.4302    0.1275 H   0  0  0  0  0  0  0  0  0  0  0  0
   -0.0033    3.1810   -0.0500 H   0  0  0  0  0  0  0  0  0  0  0  0
    0.5603    2.1850   -1.3875 H   0  0  0  0  0  0  0  0  0  0  0  0
   -1.5809   -1.7331   -1.1269 H   0  0  0  0  0  0  0  0  0  0  0  0
   -2.1272   -2.4535    0.3784 H   0  0  0  0  0  0  0  0  0  0  0  0
    1.6587   -1.0463    2.5776 H   0  0  0  0  0  0  0  0  0  0  0  0
    3.1065   -0.0679    2.5565 H   0  0  0  0  0  0  0  0  0  0  0  0
    1.5305    0.7123    2.5464 H   0  0  0  0  0  0  0  0  0  0  0  0
   -2.3649    2.8305   -0.9619 H   0  0  0  0  0  0  0  0  0  0  0  0
   -2.5471    2.5275    0.7704 H   0  0  0  0  0  0  0  0  0  0  0  0
   -3.5842   -0.4657   -1.5077 H   0  0  0  0  0  0  0  0  0  0  0  0
   -4.6613    1.7120    0.3114 H   0  0  0  0  0  0  0  0  0  0  0  0
   -4.3508    1.7352   -1.4258 H   0  0  0  0  0  0  0  0  0  0  0  0
   -1.6796   -0.1575    2.3890 H   0  0  0  0  0  0  0  0  0  0  0  0
   -3.1996    0.6748    2.1001 H   0  0  0  0  0  0  0  0  0  0  0  0
   -3.1585   -1.0845    2.1747 H   0  0  0  0  0  0  0  0  0  0  0  0
   -7.1076   -1.1282    1.2932 H   0  0  0  0  0  0  0  0  0  0  0  0
   -6.7712   -2.5351    0.2263 H   0  0  0  0  0  0  0  0  0  0  0  0
   -8.0069   -1.3413   -0.2230 H   0  0  0  0  0  0  0  0  0  0  0  0
  1 13  1  0  0  0  0
  2 13  1  0  0  0  0
  3 22  1  0  0  0  0
  3 25  1  0  0  0  0
  4 25  2  0  0  0  0
  5  6  1  0  0  0  0
  5  8  1  0  0  0  0
  5 11  1  0  0  0  0
  5 20  1  0  0  0  0
  6 10  1  0  0  0  0
  6 17  1  0  0  0  0
  6 27  1  0  0  0  0
  7  9  1  0  0  0  0
  7 11  1  0  0  0  0
  7 13  1  0  0  0  0
  7 28  1  0  0  0  0
  8 14  1  0  0  0  0
  8 16  1  0  0  0  0
  8 29  1  0  0  0  0
  9 13  1  0  0  0  0
  9 14  1  0  0  0  0
  9 30  1  0  0  0  0
 10 12  1  0  0  0  0
 10 18  1  0  0  0  0
 10 31  1  0  0  0  0
 11 32  1  0  0  0  0
 11 33  1  0  0  0  0
 12 15  1  0  0  0  0
 12 21  1  0  0  0  0
 12 34  1  0  0  0  0
 14 35  1  0  0  0  0
 14 36  1  0  0  0  0
 15 19  1  0  0  0  0
 15 22  1  0  0  0  0
 15 24  1  0  0  0  0
 16 18  1  0  0  0  0
 16 37  1  0  0  0  0
 16 38  1  0  0  0  0
 17 19  1  0  0  0  0
 17 39  1  0  0  0  0
 17 40  1  0  0  0  0
 18 41  1  0  0  0  0
 18 42  1  0  0  0  0
 19 43  1  0  0  0  0
 19 44  1  0  0  0  0
 20 45  1  0  0  0  0
 20 46  1  0  0  0  0
 20 47  1  0  0  0  0
 21 23  1  0  0  0  0
 21 48  1  0  0  0  0
 21 49  1  0  0  0  0
 22 23  1  0  0  0  0
 22 50  1  0  0  0  0
 23 51  1  0  0  0  0
 23 52  1  0  0  0  0
 24 53  1  0  0  0  0
 24 54  1  0  0  0  0
 24 55  1  0  0  0  0
 25 26  1  0  0  0  0
 26 56  1  0  0  0  0
 26 57  1  0  0  0  0
 26 58  1  0  0  0  0
M  END
> <PUBCHEM_COMPOUND_CID>
251633

> <PUBCHEM_CONFORMER_RMSD>
0.8

> <PUBCHEM_CONFORMER_DIVERSEORDER>
1
2

> <PUBCHEM_MMFF94_PARTIAL_CHARGES>
14
1 -0.23
11 0.09
13 0.46
14 0.09
2 -0.23
22 0.28
25 0.66
26 0.06
28 0.1
3 -0.43
30 0.1
4 -0.57
7 -0.19
9 -0.19

> <PUBCHEM_EFFECTIVE_ROTOR_COUNT>
4

> <PUBCHEM_PHARMACOPHORE_FEATURES>
5
1 4 acceptor
5 12 15 21 22 23 rings
6 5 6 8 10 16 18 rings
6 6 10 12 15 17 19 rings
7 5 7 8 9 11 13 14 rings

> <PUBCHEM_HEAVY_ATOM_COUNT>
26

> <PUBCHEM_ATOM_DEF_STEREO_COUNT>
9

> <PUBCHEM_ATOM_UDEF_STEREO_COUNT>
0

> <PUBCHEM_BOND_DEF_STEREO_COUNT>
0

> <PUBCHEM_BOND_UDEF_STEREO_COUNT>
0

> <PUBCHEM_ISOTOPIC_ATOM_COUNT>
0

> <PUBCHEM_COMPONENT_COUNT>
1

> <PUBCHEM_CACTVS_TAUTO_COUNT>
1

> <PUBCHEM_CONFORMER_ID>
0003D6F100000001

> <PUBCHEM_MMFF94_ENERGY>
87.5066

> <PUBCHEM_FEATURE_SELFOVERLAP>
25.452

> <PUBCHEM_SHAPE_FINGERPRINT>
10366900 7 17632295683374052585
10670039 82 18059573645991256764
11089746 13 13110962015948080079
11961588 58 16702014254015886984
11963148 33 18412551989908318811
12011746 2 18273497875091211375
12166972 35 18040715848795748977
12236239 1 17676486129784145481
12403259 415 18114475512777227617
12516196 113 18259706692228266936
12596602 18 17095242518531276234
12616971 3 13840274667052572865
12788726 201 17917157203232887929
12916748 109 18411984654596738976
13533116 47 17676770885788959256
13668630 136 17822006523368689822
13685833 64 18261109673069911466
13782708 43 17749114387342034415
13862211 1 18412267258997062570
14341114 176 18335984186139359561
14790565 3 17329427757909458257
14931854 50 18131067181963800550
15142383 8 14490185038222571827
15183329 4 18412829114197929989
15196674 1 18412267258991956585
16752209 62 18342463685276310160
17349148 13 17676202468231289565
17844677 252 18334010605380012936
1813 80 17968364728435258172
18222031 100 18334579048891478778
18681886 176 18412270505844729777
19784866 240 18113896057306496993
200 152 18187088347544814921
20028762 73 18186806842366891759
20645477 70 18341336600011371044
21033648 29 17677071116967012217
21150785 3 17846775191747895518
21236236 1 18409450328109470417
21267235 1 18410007740963401539
21285901 2 18335978774633463686
21682296 61 18188482583501287951
21781051 124 17845639349651529019
21792961 116 17917701440520027290
221357 26 18411140242229943748
2215653 11 18341337729819417463
22393880 68 18270972335410730901
23522609 53 18195495234620554965
23559900 14 18339647728818552689
23569914 152 17327766379218371575
23569943 247 18044928223834593530
29717793 49 18186803573685230309
3004659 81 18273496780275575052
335352 9 18412266134432789671
34797466 226 18187359901083865804
350125 39 18411983576945439617
3886686 26 6478067837071475932
4058900 60 17202771539483027467
4340502 62 13767922416498485957
46194498 28 18334292059319412540
465052 167 18260827077122580703
484989 97 18058721391557628075
5104073 3 18336554901235735225
542803 24 14117804621728000549
9709674 26 18268711610527955826

> <PUBCHEM_SHAPE_MULTIPOLES>
508.78
14.45
2.03
1.23
9.15
0.82
-0.2
-5.78
4.36
-0.19
0.06
-0.62
-0.19
0.8

> <PUBCHEM_SHAPE_SELFOVERLAP>
1091.914

> <PUBCHEM_SHAPE_VOLUME>
280.6

> <PUBCHEM_COORDINATE_TYPE>
2
5
10

$$$$

