72396
  -OEChem-07051212453D

 70 72  0     1  0  0  0  0  0999 V2000
   -0.7899   -0.5547    0.1988 O   0  0  0  0  0  0  0  0  0  0  0  0
    2.0374   -0.1747    0.0996 O   0  0  0  0  0  0  0  0  0  0  0  0
   -2.6798    0.0576    1.4481 O   0  0  0  0  0  0  0  0  0  0  0  0
    1.0714   -3.0784    2.0604 O   0  0  0  0  0  0  0  0  0  0  0  0
    4.0623    0.7946    0.8294 O   0  0  0  0  0  0  0  0  0  0  0  0
   -1.7852    1.8627   -0.6883 O   0  0  0  0  0  0  0  0  0  0  0  0
   -6.0047    1.3002    0.4799 O   0  0  0  0  0  0  0  0  0  0  0  0
   -0.4284   -4.1926   -0.3084 N   0  0  0  0  0  0  0  0  0  0  0  0
    2.5925   -3.7895   -0.4170 N   0  0  0  0  0  0  0  0  0  0  0  0
   -4.7853   -0.0679   -1.5636 N   0  0  0  0  0  0  0  0  0  0  0  0
    0.5592    1.9480    1.3217 N   0  0  0  0  0  0  0  0  0  0  0  0
    6.3005    2.0857   -1.7962 N   0  0  0  0  0  0  0  0  0  0  0  0
   -0.4518   -1.8884    0.5865 C   0  0  2  0  0  0  0  0  0  0  0  0
    2.0895   -1.5465    0.4976 C   0  0  1  0  0  0  0  0  0  0  0  0
    0.8658   -1.8445    1.3800 C   0  0  2  0  0  0  0  0  0  0  0  0
   -0.3901   -2.7752   -0.6718 C   0  0  1  0  0  0  0  0  0  0  0  0
    2.1777   -2.4295   -0.7619 C   0  0  2  0  0  0  0  0  0  0  0  0
    0.8437   -2.4379   -1.5303 C   0  0  0  0  0  0  0  0  0  0  0  0
   -2.2026   -0.3680    0.1712 C   0  0  1  0  0  0  0  0  0  0  0  0
   -4.0372    1.0249   -0.9221 C   0  0  2  0  0  0  0  0  0  0  0  0
   -2.5382    0.6689   -0.9103 C   0  0  1  0  0  0  0  0  0  0  0  0
   -4.5732    1.2873    0.5133 C   0  0  2  0  0  0  0  0  0  0  0  0
    2.6549    0.6628    1.0629 C   0  0  1  0  0  0  0  0  0  0  0  0
    1.9968    2.0501    1.0808 C   0  0  1  0  0  0  0  0  0  0  0  0
   -4.1009    0.1891    1.4766 C   0  0  0  0  0  0  0  0  0  0  0  0
    2.2811    2.8013   -0.2223 C   0  0  0  0  0  0  0  0  0  0  0  0
    4.3781    1.4241   -0.4179 C   0  0  1  0  0  0  0  0  0  0  0  0
    3.7851    2.8331   -0.4817 C   0  0  0  0  0  0  0  0  0  0  0  0
   -4.1413    2.6668    1.0369 C   0  0  0  0  0  0  0  0  0  0  0  0
    5.8954    1.4651   -0.5426 C   0  0  0  0  0  0  0  0  0  0  0  0
   -4.6830    0.0254   -3.0094 C   0  0  0  0  0  0  0  0  0  0  0  0
   -1.2233   -2.2766    1.2682 H   0  0  0  0  0  0  0  0  0  0  0  0
    3.0116   -1.7183    1.0725 H   0  0  0  0  0  0  0  0  0  0  0  0
    0.7613   -1.0723    2.1505 H   0  0  0  0  0  0  0  0  0  0  0  0
   -1.2695   -2.5834   -1.2984 H   0  0  0  0  0  0  0  0  0  0  0  0
    2.9389   -2.0093   -1.4319 H   0  0  0  0  0  0  0  0  0  0  0  0
    0.6940   -1.4415   -1.9688 H   0  0  0  0  0  0  0  0  0  0  0  0
    0.9057   -3.1245   -2.3854 H   0  0  0  0  0  0  0  0  0  0  0  0
   -2.7052   -1.3091   -0.0898 H   0  0  0  0  0  0  0  0  0  0  0  0
   -4.2050    1.9472   -1.4957 H   0  0  0  0  0  0  0  0  0  0  0  0
   -2.1859    0.2922   -1.8759 H   0  0  0  0  0  0  0  0  0  0  0  0
    2.5522    0.2417    2.0712 H   0  0  0  0  0  0  0  0  0  0  0  0
    2.4438    2.6293    1.8997 H   0  0  0  0  0  0  0  0  0  0  0  0
   -4.5693   -0.7770    1.2494 H   0  0  0  0  0  0  0  0  0  0  0  0
   -4.3964    0.4285    2.5048 H   0  0  0  0  0  0  0  0  0  0  0  0
   -0.4301   -4.7632   -1.1527 H   0  0  0  0  0  0  0  0  0  0  0  0
   -1.2983   -4.3983    0.1810 H   0  0  0  0  0  0  0  0  0  0  0  0
    2.6912   -4.3441   -1.2661 H   0  0  0  0  0  0  0  0  0  0  0  0
    3.5121   -3.7678    0.0217 H   0  0  0  0  0  0  0  0  0  0  0  0
    1.7751    2.3141   -1.0660 H   0  0  0  0  0  0  0  0  0  0  0  0
    1.8957    3.8266   -0.1671 H   0  0  0  0  0  0  0  0  0  0  0  0
    1.8784   -2.9894    2.5953 H   0  0  0  0  0  0  0  0  0  0  0  0
    3.9703    0.8099   -1.2316 H   0  0  0  0  0  0  0  0  0  0  0  0
    4.2528    3.4663    0.2835 H   0  0  0  0  0  0  0  0  0  0  0  0
    3.9693    3.3023   -1.4541 H   0  0  0  0  0  0  0  0  0  0  0  0
   -4.4358    3.4576    0.3377 H   0  0  0  0  0  0  0  0  0  0  0  0
   -4.6464    2.8949    1.9833 H   0  0  0  0  0  0  0  0  0  0  0  0
   -3.0656    2.7405    1.2139 H   0  0  0  0  0  0  0  0  0  0  0  0
   -5.7693    0.0044   -1.3043 H   0  0  0  0  0  0  0  0  0  0  0  0
   -1.9834    2.4750   -1.4173 H   0  0  0  0  0  0  0  0  0  0  0  0
   -6.3265    1.4005    1.3921 H   0  0  0  0  0  0  0  0  0  0  0  0
    6.2994    0.4475   -0.4843 H   0  0  0  0  0  0  0  0  0  0  0  0
    6.3324    2.0153    0.2991 H   0  0  0  0  0  0  0  0  0  0  0  0
    0.1533    2.8806    1.3843 H   0  0  0  0  0  0  0  0  0  0  0  0
    0.3919    1.4981    2.2206 H   0  0  0  0  0  0  0  0  0  0  0  0
   -3.6616   -0.1130   -3.3734 H   0  0  0  0  0  0  0  0  0  0  0  0
   -5.0716    0.9777   -3.3859 H   0  0  0  0  0  0  0  0  0  0  0  0
   -5.2854   -0.7706   -3.4597 H   0  0  0  0  0  0  0  0  0  0  0  0
    5.9278    1.5519   -2.5803 H   0  0  0  0  0  0  0  0  0  0  0  0
    7.3153    2.0470   -1.8808 H   0  0  0  0  0  0  0  0  0  0  0  0
  1 13  1  0  0  0  0
  1 19  1  0  0  0  0
  2 14  1  0  0  0  0
  2 23  1  0  0  0  0
  3 19  1  0  0  0  0
  3 25  1  0  0  0  0
  4 15  1  0  0  0  0
  4 52  1  0  0  0  0
  5 23  1  0  0  0  0
  5 27  1  0  0  0  0
  6 21  1  0  0  0  0
  6 60  1  0  0  0  0
  7 22  1  0  0  0  0
  7 61  1  0  0  0  0
  8 16  1  0  0  0  0
  8 46  1  0  0  0  0
  8 47  1  0  0  0  0
  9 17  1  0  0  0  0
  9 48  1  0  0  0  0
  9 49  1  0  0  0  0
 10 20  1  0  0  0  0
 10 31  1  0  0  0  0
 10 59  1  0  0  0  0
 11 24  1  0  0  0  0
 11 64  1  0  0  0  0
 11 65  1  0  0  0  0
 12 30  1  0  0  0  0
 12 69  1  0  0  0  0
 12 70  1  0  0  0  0
 13 15  1  0  0  0  0
 13 16  1  0  0  0  0
 13 32  1  0  0  0  0
 14 15  1  0  0  0  0
 14 17  1  0  0  0  0
 14 33  1  0  0  0  0
 15 34  1  0  0  0  0
 16 18  1  0  0  0  0
 16 35  1  0  0  0  0
 17 18  1  0  0  0  0
 17 36  1  0  0  0  0
 18 37  1  0  0  0  0
 18 38  1  0  0  0  0
 19 21  1  0  0  0  0
 19 39  1  0  0  0  0
 20 21  1  0  0  0  0
 20 22  1  0  0  0  0
 20 40  1  0  0  0  0
 21 41  1  0  0  0  0
 22 25  1  0  0  0  0
 22 29  1  0  0  0  0
 23 24  1  0  0  0  0
 23 42  1  0  0  0  0
 24 26  1  0  0  0  0
 24 43  1  0  0  0  0
 25 44  1  0  0  0  0
 25 45  1  0  0  0  0
 26 28  1  0  0  0  0
 26 50  1  0  0  0  0
 26 51  1  0  0  0  0
 27 28  1  0  0  0  0
 27 30  1  0  0  0  0
 27 53  1  0  0  0  0
 28 54  1  0  0  0  0
 28 55  1  0  0  0  0
 29 56  1  0  0  0  0
 29 57  1  0  0  0  0
 29 58  1  0  0  0  0
 30 62  1  0  0  0  0
 30 63  1  0  0  0  0
 31 66  1  0  0  0  0
 31 67  1  0  0  0  0
 31 68  1  0  0  0  0
M  END
> <PUBCHEM_COMPOUND_CID>
72396

> <PUBCHEM_CONFORMER_RMSD>
1

> <PUBCHEM_CONFORMER_DIVERSEORDER>
1
21
49
37
18
52
35
48
29
39
11
19
44
43
38
55
33
40
22
46
45
36
54
41
5
34
8
23
14
13
53
25
20
10
50
6
16
15
30
17
2
42
32
4
9
47
7
31
26
12
28
24
3
51
27

> <PUBCHEM_MMFF94_PARTIAL_CHARGES>
39
1 -0.56
10 -0.9
11 -0.99
12 -0.99
13 0.28
14 0.28
15 0.28
16 0.27
17 0.27
19 0.56
2 -0.56
20 0.27
21 0.28
22 0.28
23 0.56
24 0.27
25 0.28
27 0.28
3 -0.56
30 0.27
31 0.27
4 -0.68
46 0.36
47 0.36
48 0.36
49 0.36
5 -0.56
52 0.4
59 0.36
6 -0.68
60 0.4
61 0.4
64 0.36
65 0.36
69 0.36
7 -0.68
70 0.36
8 -0.99
9 -0.99

> <PUBCHEM_EFFECTIVE_ROTOR_COUNT>
9.6

> <PUBCHEM_PHARMACOPHORE_FEATURES>
23
1 1 acceptor
1 10 cation
1 10 donor
1 11 cation
1 11 donor
1 12 cation
1 12 donor
1 2 acceptor
1 3 acceptor
1 4 acceptor
1 4 donor
1 5 acceptor
1 6 acceptor
1 6 donor
1 7 acceptor
1 7 donor
1 8 cation
1 8 donor
1 9 cation
1 9 donor
6 13 14 15 16 17 18 rings
6 3 19 20 21 22 25 rings
6 5 23 24 26 27 28 rings

> <PUBCHEM_HEAVY_ATOM_COUNT>
31

> <PUBCHEM_ATOM_DEF_STEREO_COUNT>
12

> <PUBCHEM_ATOM_UDEF_STEREO_COUNT>
0

> <PUBCHEM_BOND_DEF_STEREO_COUNT>
0

> <PUBCHEM_BOND_UDEF_STEREO_COUNT>
0

> <PUBCHEM_ISOTOPIC_ATOM_COUNT>
0

> <PUBCHEM_COMPONENT_COUNT>
1

> <PUBCHEM_CACTVS_TAUTO_COUNT>
1

> <PUBCHEM_CONFORMER_ID>
00011ACC00000001

> <PUBCHEM_MMFF94_ENERGY>
67.9799

> <PUBCHEM_FEATURE_SELFOVERLAP>
116.811

> <PUBCHEM_SHAPE_FINGERPRINT>
10165383 225 18411409588224551600
10483366 6 18191849306329503174
105312 117 18337381644064616078
107951 10 17988072280515111930
11513181 2 18114741667246761260
12422481 6 17904797653560373410
12788726 201 17404035725122815890
13583140 156 17774172334854286603
14251751 93 18194964037501712450
14713325 29 18122616163741502242
14790565 3 18409438203053219392
17492 54 18338811030233633109
21033648 144 18202005451773952455
22393880 68 17386013857649823289
22907989 373 17762342413918943957
238 59 18339944669903671053
2838139 119 18333733507491603656
3298306 158 18410853252815937836
3411729 13 18341044224301915081
350125 39 18193268594508342946
4058900 60 18342163514138109768
474 4 18336267933227610059
513532 50 17313111856409719516
5265222 85 17979333297984548164
6287921 2 18042974361806529543
633830 44 18266458896545872835

> <PUBCHEM_SHAPE_MULTIPOLES>
571.98
11.44
4.38
1.82
0.92
3.44
-0.65
-10.64
-3.98
-3.32
0
1.42
0.17
-1.28

> <PUBCHEM_SHAPE_SELFOVERLAP>
1169.979

> <PUBCHEM_SHAPE_VOLUME>
325.7

> <PUBCHEM_COORDINATE_TYPE>
2
5
10

$$$$

