5353897
  -OEChem-07051212543D

 33 33  0     0  0  0  0  0  0999 V2000
   -5.6938   -1.7340   -0.2356 Cl  0  0  0  0  0  0  0  0  0  0  0  0
    2.9430   -0.6455    0.2458 N   0  0  0  0  0  0  0  0  0  0  0  0
   -0.7749    1.4907    0.4459 N   0  0  0  0  0  0  0  0  0  0  0  0
    0.9261    0.0738   -0.4469 N   0  0  0  0  0  0  0  0  0  0  0  0
    2.7469    0.3069   -1.9426 N   0  0  0  0  0  0  0  0  0  0  0  0
    1.3774    2.2214    0.4975 N   0  0  0  0  0  0  0  0  0  0  0  0
    4.3670   -0.8606    0.0258 C   0  0  0  0  0  0  0  0  0  0  0  0
    5.1289    0.3767    0.4769 C   0  0  0  0  0  0  0  0  0  0  0  0
    4.8030   -2.1013    0.7907 C   0  0  0  0  0  0  0  0  0  0  0  0
   -1.9474    0.7220    0.2836 C   0  0  0  0  0  0  0  0  0  0  0  0
    2.2700   -0.0936   -0.7134 C   0  0  0  0  0  0  0  0  0  0  0  0
   -3.1752    1.3557    0.0966 C   0  0  0  0  0  0  0  0  0  0  0  0
   -1.8767   -0.6702    0.3100 C   0  0  0  0  0  0  0  0  0  0  0  0
    0.5393    1.1885    0.1182 C   0  0  0  0  0  0  0  0  0  0  0  0
   -4.3341    0.5961   -0.0641 C   0  0  0  0  0  0  0  0  0  0  0  0
   -3.0354   -1.4299    0.1493 C   0  0  0  0  0  0  0  0  0  0  0  0
   -4.2641   -0.7967   -0.0377 C   0  0  0  0  0  0  0  0  0  0  0  0
    4.6038   -1.0683   -1.0236 H   0  0  0  0  0  0  0  0  0  0  0  0
    6.2079    0.2368    0.3532 H   0  0  0  0  0  0  0  0  0  0  0  0
    4.8366    1.2582   -0.1031 H   0  0  0  0  0  0  0  0  0  0  0  0
    4.9345    0.5990    1.5322 H   0  0  0  0  0  0  0  0  0  0  0  0
    5.8711   -2.2958    0.6488 H   0  0  0  0  0  0  0  0  0  0  0  0
    4.2481   -2.9819    0.4490 H   0  0  0  0  0  0  0  0  0  0  0  0
    4.6161   -1.9917    1.8648 H   0  0  0  0  0  0  0  0  0  0  0  0
   -0.9628    2.4510    0.7226 H   0  0  0  0  0  0  0  0  0  0  0  0
   -3.2432    2.4404    0.0729 H   0  0  0  0  0  0  0  0  0  0  0  0
   -0.9479   -1.2008    0.4912 H   0  0  0  0  0  0  0  0  0  0  0  0
   -5.2846    1.1030   -0.2093 H   0  0  0  0  0  0  0  0  0  0  0  0
   -2.9676   -2.5144    0.1803 H   0  0  0  0  0  0  0  0  0  0  0  0
    2.1177    0.7173   -2.6248 H   0  0  0  0  0  0  0  0  0  0  0  0
    3.7235    0.2588   -2.2058 H   0  0  0  0  0  0  0  0  0  0  0  0
    1.0142    3.0570    0.9433 H   0  0  0  0  0  0  0  0  0  0  0  0
    2.3795    2.1816    0.3482 H   0  0  0  0  0  0  0  0  0  0  0  0
  1 17  1  0  0  0  0
  2  7  1  0  0  0  0
  2 11  2  0  0  0  0
  3 10  1  0  0  0  0
  3 14  1  0  0  0  0
  3 25  1  0  0  0  0
  4 11  1  0  0  0  0
  4 14  2  0  0  0  0
  5 11  1  0  0  0  0
  5 30  1  0  0  0  0
  5 31  1  0  0  0  0
  6 14  1  0  0  0  0
  6 32  1  0  0  0  0
  6 33  1  0  0  0  0
  7  8  1  0  0  0  0
  7  9  1  0  0  0  0
  7 18  1  0  0  0  0
  8 19  1  0  0  0  0
  8 20  1  0  0  0  0
  8 21  1  0  0  0  0
  9 22  1  0  0  0  0
  9 23  1  0  0  0  0
  9 24  1  0  0  0  0
 10 12  2  0  0  0  0
 10 13  1  0  0  0  0
 12 15  1  0  0  0  0
 12 26  1  0  0  0  0
 13 16  2  0  0  0  0
 13 27  1  0  0  0  0
 15 17  2  0  0  0  0
 15 28  1  0  0  0  0
 16 17  1  0  0  0  0
 16 29  1  0  0  0  0
M  END
> <PUBCHEM_COMPOUND_CID>
5353897

> <PUBCHEM_CONFORMER_RMSD>
0.6

> <PUBCHEM_CONFORMER_DIVERSEORDER>
2
41
37
40
25
23
27
31
16
30
22
18
13
28
6
32
9
12
35
39
33
46
29
36
8
34
19
21
38
15
47
17
26
3
20
24
11
45
4
10
44
43
7
1
48
5
42
14

> <PUBCHEM_MMFF94_PARTIAL_CHARGES>
24
1 -0.18
10 0.1
11 0.71
12 -0.15
13 -0.15
14 0.55
15 -0.15
16 -0.15
17 0.18
2 -0.7
25 0.4
26 0.15
27 0.15
28 0.15
29 0.15
3 -0.55
30 0.4
31 0.4
32 0.4
33 0.4
4 -0.66
5 -0.85
6 -0.85
7 0.25

> <PUBCHEM_EFFECTIVE_ROTOR_COUNT>
4

> <PUBCHEM_PHARMACOPHORE_FEATURES>
7
1 3 donor
1 5 donor
1 6 donor
3 7 8 9 hydrophobe
4 2 4 5 11 cation
4 3 4 6 14 cation
6 10 12 13 15 16 17 rings

> <PUBCHEM_HEAVY_ATOM_COUNT>
17

> <PUBCHEM_ATOM_DEF_STEREO_COUNT>
0

> <PUBCHEM_ATOM_UDEF_STEREO_COUNT>
0

> <PUBCHEM_BOND_DEF_STEREO_COUNT>
1

> <PUBCHEM_BOND_UDEF_STEREO_COUNT>
0

> <PUBCHEM_ISOTOPIC_ATOM_COUNT>
0

> <PUBCHEM_COMPONENT_COUNT>
1

> <PUBCHEM_CACTVS_TAUTO_COUNT>
8

> <PUBCHEM_CONFORMER_ID>
0051B1A900000002

> <PUBCHEM_MMFF94_ENERGY>
55.7661

> <PUBCHEM_FEATURE_SELFOVERLAP>
35.622

> <PUBCHEM_SHAPE_FINGERPRINT>
100836 57 9655578530268340663
10354089 29 5545198337150396370
10447042 23 18410302401759100422
10465860 250 18334579083066821632
12236239 1 18131070454264409466
12815109 37 18408605863680178744
13167823 11 18342459274508375418
13288520 33 18409730673119008751
13862211 1 18335702690363552503
13955234 65 18047189653022401169
14115302 16 17989198231391634966
14178342 30 17751063911356559993
1420 369 18410290345764950570
14251752 14 17917157190811644509
14251764 18 18187077331301691537
14252887 29 17168135767534670620
14341114 328 6194839259199281887
15196674 1 18410856585446770098
15352361 1 18410012143368469411
15375358 24 17821728385460034269
17834072 14 18259702319650515256
17834072 32 9079110064071966707
18186145 218 14476951272920248492
200 152 18259988163067869355
20279233 1 17822005436614973423
20281475 54 18412258458472026781
20374829 77 18408886218393098679
20645477 70 18188203200479228773
20671657 53 18409163303365093881
21250096 35 18411983585139410762
21267235 1 18410004421360182011
21501925 9 18260547809906895800
22079108 93 13912615939179777438
22485316 2 18412826910552601088
22854114 59 15647060390948261770
23402539 116 18411705417498586133
23403322 49 18411419527179430947
23557571 272 17750789046888931796
23559900 14 18338245868873584537
3004659 81 18201999958510942878
3286 77 18411703158113666893
4214541 1 18411419552659305217
4921388 177 15984810494519339675
5104073 3 18115018616108462417
559249 180 18271812384080307651
573450 72 18340770445869539097
633830 44 11527658636025675210
76465 3 18410296899979587063
9709674 26 18195810657339526363
9971528 1 17560798858020912550

> <PUBCHEM_SHAPE_MULTIPOLES>
326.82
12.39
1.95
0.91
1.3
0.07
0.34
6.69
-0.57
-0.17
-0.38
0.77
-0.02
-0.59

> <PUBCHEM_SHAPE_SELFOVERLAP>
656.633

> <PUBCHEM_SHAPE_VOLUME>
192.3

> <PUBCHEM_COORDINATE_TYPE>
2
5
10

$$$$

