443024
  -OEChem-07051213003D

 77 81  0     1  0  0  0  0  0999 V2000
   -1.7053   -2.1771   -0.5709 O   0  0  0  0  0  0  0  0  0  0  0  0
   -3.4097    1.1880   -1.1972 O   0  0  0  0  0  0  0  0  0  0  0  0
    4.5402   -1.1891   -0.6320 O   0  0  0  0  0  0  0  0  0  0  0  0
    5.4893    0.9364   -0.4729 O   0  0  0  0  0  0  0  0  0  0  0  0
    2.9816   -2.6913    1.1003 O   0  0  0  0  0  0  0  0  0  0  0  0
    3.3129    0.4534   -2.4971 O   0  0  0  0  0  0  0  0  0  0  0  0
   -8.5361   -1.6167    0.0933 O   0  0  0  0  0  0  0  0  0  0  0  0
   -7.3744    2.8544    1.3581 O   0  0  0  0  0  0  0  0  0  0  0  0
    6.1016   -2.0276    1.5741 O   0  0  0  0  0  0  0  0  0  0  0  0
    8.5987   -0.4809    1.8053 O   0  0  0  0  0  0  0  0  0  0  0  0
    8.0428    2.3549    1.7365 O   0  0  0  0  0  0  0  0  0  0  0  0
   -9.2553    0.8298    1.1756 O   0  0  0  0  0  0  0  0  0  0  0  0
    4.9908    3.6031   -0.9157 O   0  0  0  0  0  0  0  0  0  0  0  0
   -1.7071    0.1313    0.0625 C   0  0  1  0  0  0  0  0  0  0  0  0
   -3.0165   -0.4962    0.4575 C   0  0  1  0  0  0  0  0  0  0  0  0
   -1.1140   -0.9039   -0.9027 C   0  0  1  0  0  0  0  0  0  0  0  0
   -3.9648   -0.0278   -0.6544 C   0  0  1  0  0  0  0  0  0  0  0  0
   -2.7074   -1.9766    0.4354 C   0  0  0  0  0  0  0  0  0  0  0  0
   -2.1318    1.4272   -0.5916 C   0  0  0  0  0  0  0  0  0  0  0  0
    0.3924   -0.9797   -0.8303 C   0  0  0  0  0  0  0  0  0  0  0  0
   -5.3756    0.2009   -0.1668 C   0  0  0  0  0  0  0  0  0  0  0  0
    1.1718   -0.2217   -1.7042 C   0  0  0  0  0  0  0  0  0  0  0  0
    1.0047   -1.8079    0.1103 C   0  0  0  0  0  0  0  0  0  0  0  0
   -5.7341    1.4341    0.3776 C   0  0  0  0  0  0  0  0  0  0  0  0
   -6.3201   -0.8211   -0.2604 C   0  0  0  0  0  0  0  0  0  0  0  0
    2.3963   -1.8782    0.1770 C   0  0  0  0  0  0  0  0  0  0  0  0
    2.5633   -0.2919   -1.6376 C   0  0  0  0  0  0  0  0  0  0  0  0
    3.1755   -1.1201   -0.6969 C   0  0  0  0  0  0  0  0  0  0  0  0
   -7.6232   -0.6101    0.1904 C   0  0  0  0  0  0  0  0  0  0  0  0
   -7.0371    1.6453    0.8283 C   0  0  0  0  0  0  0  0  0  0  0  0
    5.1860   -0.2611    0.2390 C   0  0  2  0  0  0  0  0  0  0  0  0
    6.4667   -0.9152    0.7575 C   0  0  1  0  0  0  0  0  0  0  0  0
    7.2989    0.0676    1.5813 C   0  0  2  0  0  0  0  0  0  0  0  0
    7.4673    1.3991    0.8495 C   0  0  1  0  0  0  0  0  0  0  0  0
    6.1169    1.9200    0.3517 C   0  0  1  0  0  0  0  0  0  0  0  0
   -7.9817    0.6232    0.7346 C   0  0  0  0  0  0  0  0  0  0  0  0
    6.2733    3.1875   -0.4825 C   0  0  0  0  0  0  0  0  0  0  0  0
    3.2517   -4.0340    0.7028 C   0  0  0  0  0  0  0  0  0  0  0  0
    2.6086    1.2734   -3.4274 C   0  0  0  0  0  0  0  0  0  0  0  0
   -8.0876   -2.8454   -0.4753 C   0  0  0  0  0  0  0  0  0  0  0  0
   -6.3495    3.8444    1.4172 C   0  0  0  0  0  0  0  0  0  0  0  0
   -1.0493    0.3045    0.9217 H   0  0  0  0  0  0  0  0  0  0  0  0
   -3.3586   -0.1656    1.4448 H   0  0  0  0  0  0  0  0  0  0  0  0
   -1.4105   -0.7043   -1.9405 H   0  0  0  0  0  0  0  0  0  0  0  0
   -3.9884   -0.7384   -1.4905 H   0  0  0  0  0  0  0  0  0  0  0  0
   -3.5773   -2.6024    0.2176 H   0  0  0  0  0  0  0  0  0  0  0  0
   -2.2798   -2.2993    1.3909 H   0  0  0  0  0  0  0  0  0  0  0  0
   -1.4285    1.7872   -1.3476 H   0  0  0  0  0  0  0  0  0  0  0  0
   -2.2674    2.2150    0.1574 H   0  0  0  0  0  0  0  0  0  0  0  0
    0.6402    0.4048   -2.4124 H   0  0  0  0  0  0  0  0  0  0  0  0
    0.4127   -2.3970    0.8060 H   0  0  0  0  0  0  0  0  0  0  0  0
   -4.9628    2.1926    0.4430 H   0  0  0  0  0  0  0  0  0  0  0  0
   -5.9829   -1.7580   -0.6907 H   0  0  0  0  0  0  0  0  0  0  0  0
    4.5187   -0.0244    1.0805 H   0  0  0  0  0  0  0  0  0  0  0  0
    7.0574   -1.3149   -0.0752 H   0  0  0  0  0  0  0  0  0  0  0  0
    6.8568    0.2197    2.5730 H   0  0  0  0  0  0  0  0  0  0  0  0
    8.1615    1.2729    0.0096 H   0  0  0  0  0  0  0  0  0  0  0  0
    5.4478    2.1483    1.1925 H   0  0  0  0  0  0  0  0  0  0  0  0
    6.8797    2.9952   -1.3739 H   0  0  0  0  0  0  0  0  0  0  0  0
    6.7276    3.9966    0.0971 H   0  0  0  0  0  0  0  0  0  0  0  0
    5.5650   -1.6956    2.3140 H   0  0  0  0  0  0  0  0  0  0  0  0
    9.0113   -0.6443    0.9401 H   0  0  0  0  0  0  0  0  0  0  0  0
    7.4279    2.4843    2.4786 H   0  0  0  0  0  0  0  0  0  0  0  0
   -9.7660    0.0143    1.0310 H   0  0  0  0  0  0  0  0  0  0  0  0
    3.7241   -4.5511    1.5424 H   0  0  0  0  0  0  0  0  0  0  0  0
    2.3220   -4.5534    0.4496 H   0  0  0  0  0  0  0  0  0  0  0  0
    3.9376   -4.0528   -0.1500 H   0  0  0  0  0  0  0  0  0  0  0  0
    2.0192    2.0448   -2.9201 H   0  0  0  0  0  0  0  0  0  0  0  0
    3.3603    1.7945   -4.0296 H   0  0  0  0  0  0  0  0  0  0  0  0
    2.0069    0.6745   -4.1196 H   0  0  0  0  0  0  0  0  0  0  0  0
   -7.7830   -2.7199   -1.5200 H   0  0  0  0  0  0  0  0  0  0  0  0
   -7.3064   -3.3117    0.1349 H   0  0  0  0  0  0  0  0  0  0  0  0
   -8.9416   -3.5309   -0.4745 H   0  0  0  0  0  0  0  0  0  0  0  0
   -5.5293    3.5383    2.0754 H   0  0  0  0  0  0  0  0  0  0  0  0
   -6.0014    4.1267    0.4176 H   0  0  0  0  0  0  0  0  0  0  0  0
   -6.7941    4.7409    1.8619 H   0  0  0  0  0  0  0  0  0  0  0  0
    5.1144    4.4063   -1.4496 H   0  0  0  0  0  0  0  0  0  0  0  0
  1 16  1  0  0  0  0
  1 18  1  0  0  0  0
  2 17  1  0  0  0  0
  2 19  1  0  0  0  0
  3 28  1  0  0  0  0
  3 31  1  0  0  0  0
  4 31  1  0  0  0  0
  4 35  1  0  0  0  0
  5 26  1  0  0  0  0
  5 38  1  0  0  0  0
  6 27  1  0  0  0  0
  6 39  1  0  0  0  0
  7 29  1  0  0  0  0
  7 40  1  0  0  0  0
  8 30  1  0  0  0  0
  8 41  1  0  0  0  0
  9 32  1  0  0  0  0
  9 61  1  0  0  0  0
 10 33  1  0  0  0  0
 10 62  1  0  0  0  0
 11 34  1  0  0  0  0
 11 63  1  0  0  0  0
 12 36  1  0  0  0  0
 12 64  1  0  0  0  0
 13 37  1  0  0  0  0
 13 77  1  0  0  0  0
 14 15  1  0  0  0  0
 14 16  1  0  0  0  0
 14 19  1  0  0  0  0
 14 42  1  0  0  0  0
 15 17  1  0  0  0  0
 15 18  1  0  0  0  0
 15 43  1  0  0  0  0
 16 20  1  0  0  0  0
 16 44  1  0  0  0  0
 17 21  1  0  0  0  0
 17 45  1  0  0  0  0
 18 46  1  0  0  0  0
 18 47  1  0  0  0  0
 19 48  1  0  0  0  0
 19 49  1  0  0  0  0
 20 22  2  0  0  0  0
 20 23  1  0  0  0  0
 21 24  2  0  0  0  0
 21 25  1  0  0  0  0
 22 27  1  0  0  0  0
 22 50  1  0  0  0  0
 23 26  2  0  0  0  0
 23 51  1  0  0  0  0
 24 30  1  0  0  0  0
 24 52  1  0  0  0  0
 25 29  2  0  0  0  0
 25 53  1  0  0  0  0
 26 28  1  0  0  0  0
 27 28  2  0  0  0  0
 29 36  1  0  0  0  0
 30 36  2  0  0  0  0
 31 32  1  0  0  0  0
 31 54  1  0  0  0  0
 32 33  1  0  0  0  0
 32 55  1  0  0  0  0
 33 34  1  0  0  0  0
 33 56  1  0  0  0  0
 34 35  1  0  0  0  0
 34 57  1  0  0  0  0
 35 37  1  0  0  0  0
 35 58  1  0  0  0  0
 37 59  1  0  0  0  0
 37 60  1  0  0  0  0
 38 65  1  0  0  0  0
 38 66  1  0  0  0  0
 38 67  1  0  0  0  0
 39 68  1  0  0  0  0
 39 69  1  0  0  0  0
 39 70  1  0  0  0  0
 40 71  1  0  0  0  0
 40 72  1  0  0  0  0
 40 73  1  0  0  0  0
 41 74  1  0  0  0  0
 41 75  1  0  0  0  0
 41 76  1  0  0  0  0
M  END
> <PUBCHEM_COMPOUND_CID>
443024

> <PUBCHEM_CONFORMER_RMSD>
1.2

> <PUBCHEM_CONFORMER_DIVERSEORDER>
2
6
13
14
5
17
8
7
10
12
4
16
9
1
15
3
11

> <PUBCHEM_MMFF94_PARTIAL_CHARGES>
48
1 -0.56
10 -0.68
11 -0.68
12 -0.53
13 -0.68
16 0.42
17 0.42
18 0.28
19 0.28
2 -0.56
20 -0.14
21 -0.14
22 -0.15
23 -0.15
24 -0.15
25 -0.15
26 0.08
27 0.08
28 0.08
29 0.08
3 -0.36
30 0.08
31 0.56
32 0.28
33 0.28
34 0.28
35 0.28
36 0.08
37 0.28
38 0.28
39 0.28
4 -0.56
40 0.28
41 0.28
5 -0.36
50 0.15
51 0.15
52 0.15
53 0.15
6 -0.36
61 0.4
62 0.4
63 0.4
64 0.45
7 -0.36
77 0.4
8 -0.36
9 -0.68

> <PUBCHEM_EFFECTIVE_ROTOR_COUNT>
11.4

> <PUBCHEM_PHARMACOPHORE_FEATURES>
22
1 1 acceptor
1 10 acceptor
1 10 donor
1 11 acceptor
1 11 donor
1 12 donor
1 13 acceptor
1 13 donor
1 2 acceptor
1 3 acceptor
1 4 acceptor
1 5 acceptor
1 6 acceptor
1 7 acceptor
1 8 acceptor
1 9 acceptor
1 9 donor
5 1 14 15 16 18 rings
5 2 14 15 17 19 rings
6 20 22 23 26 27 28 rings
6 21 24 25 29 30 36 rings
6 4 31 32 33 34 35 rings

> <PUBCHEM_HEAVY_ATOM_COUNT>
41

> <PUBCHEM_ATOM_DEF_STEREO_COUNT>
9

> <PUBCHEM_ATOM_UDEF_STEREO_COUNT>
0

> <PUBCHEM_BOND_DEF_STEREO_COUNT>
0

> <PUBCHEM_BOND_UDEF_STEREO_COUNT>
0

> <PUBCHEM_ISOTOPIC_ATOM_COUNT>
0

> <PUBCHEM_COMPONENT_COUNT>
1

> <PUBCHEM_CACTVS_TAUTO_COUNT>
2

> <PUBCHEM_CONFORMER_ID>
0006C29000000002

> <PUBCHEM_MMFF94_ENERGY>
170.2243

> <PUBCHEM_FEATURE_SELFOVERLAP>
112.19

> <PUBCHEM_SHAPE_FINGERPRINT>
10 15 18201440255594767954
10162869 55 17988927726431851031
10693767 8 8286209331908905332
11456790 92 18413107264379824464
12539765 74 17603865628553124470
13692114 37 18131633357644020002
13811026 1 18201728374706655037
13947934 56 18272370911140177463
14190465 44 18271800164560727399
14394314 77 18338513144841765617
14849402 71 18335700512482856705
15840311 113 18411135836342539046
17686467 74 18411982422036599977
19302320 297 18343021065401206660
19304144 158 18040996289328691885
20105231 36 6483356664015902045
2026 5 12751227109241122265
21130935 74 18337951307126735235
21792934 111 17775567559517894461
23576562 1 5977517518105735937
24771293 8 18407755933267131533
3044373 193 17967243209632038686
3383291 50 16415476065093390065
3418910 222 17530955883445314585
3663271 9 18338796818941523507
4093350 32 17385438843396667892
4149490 64 17059199360249515003
4616759 239 18413100646741985467
504579 68 6699800965593476915
5104073 3 17559942256183340835
5109719 28 18338224986573480960
5265222 85 17967251980056113751
5372103 7 15936982808812464632
6204607 403 18041269977087525833
9962374 69 16773791459667316151

> <PUBCHEM_SHAPE_MULTIPOLES>
767.46
29.35
3.69
1.8
18.47
0.91
1.06
11.34
-14.65
-0.54
-1.06
-2.69
0.7
-3.07

> <PUBCHEM_SHAPE_SELFOVERLAP>
1654.107

> <PUBCHEM_SHAPE_VOLUME>
423.6

> <PUBCHEM_COORDINATE_TYPE>
2
5
10

$$$$

