11083
  -OEChem-06261205182D

 23 23  0     1  0  0  0  0  0999 V2000
    2.6723   -2.1407    0.0000 O   0  0  0  0  0  0  0  0  0  0  0  0
    5.5202   -0.0716    0.0000 O   0  0  0  0  0  0  0  0  0  0  0  0
    3.2601   -1.3317    0.0000 C   0  0  3  0  0  0  0  0  0  0  0  0
    2.9511   -0.3807    0.0000 C   0  0  0  0  0  0  0  0  0  0  0  0
    4.2601   -1.3317    0.0000 C   0  0  0  0  0  0  0  0  0  0  0  0
    3.7601    0.2071    0.0000 C   0  0  0  0  0  0  0  0  0  0  0  0
    4.5691   -0.3807    0.0000 C   0  0  0  0  0  0  0  0  0  0  0  0
    3.7601    1.2071    0.0000 C   0  0  0  0  0  0  0  0  0  0  0  0
    2.0000   -0.0716    0.0000 C   0  0  0  0  0  0  0  0  0  0  0  0
    4.6261    1.7071    0.0000 C   0  0  0  0  0  0  0  0  0  0  0  0
    4.6261    2.7071    0.0000 C   0  0  0  0  0  0  0  0  0  0  0  0
    2.6477   -1.2347    0.0000 H   0  0  0  0  0  0  0  0  0  0  0  0
    4.1953   -1.9483    0.0000 H   0  0  0  0  0  0  0  0  0  0  0  0
    4.8665   -1.4606    0.0000 H   0  0  0  0  0  0  0  0  0  0  0  0
    3.5480    1.7897    0.0000 H   0  0  0  0  0  0  0  0  0  0  0  0
    3.1495    1.0995    0.0000 H   0  0  0  0  0  0  0  0  0  0  0  0
    2.1916    0.5180    0.0000 H   0  0  0  0  0  0  0  0  0  0  0  0
    1.4103    0.1200    0.0000 H   0  0  0  0  0  0  0  0  0  0  0  0
    1.8084   -0.6613    0.0000 H   0  0  0  0  0  0  0  0  0  0  0  0
    2.9245   -2.7071    0.0000 H   0  0  0  0  0  0  0  0  0  0  0  0
    5.1630    1.3971    0.0000 H   0  0  0  0  0  0  0  0  0  0  0  0
    5.1630    3.0171    0.0000 H   0  0  0  0  0  0  0  0  0  0  0  0
    4.0892    3.0171    0.0000 H   0  0  0  0  0  0  0  0  0  0  0  0
  1  3  1  0  0  0  0
  1 20  1  0  0  0  0
  2  7  2  0  0  0  0
  3  4  1  0  0  0  0
  3  5  1  0  0  0  0
  3 12  1  0  0  0  0
  4  6  2  0  0  0  0
  4  9  1  0  0  0  0
  5  7  1  0  0  0  0
  5 13  1  0  0  0  0
  5 14  1  0  0  0  0
  6  7  1  0  0  0  0
  6  8  1  0  0  0  0
  8 10  1  0  0  0  0
  8 15  1  0  0  0  0
  8 16  1  0  0  0  0
  9 17  1  0  0  0  0
  9 18  1  0  0  0  0
  9 19  1  0  0  0  0
 10 11  2  0  0  0  0
 10 21  1  0  0  0  0
 11 22  1  0  0  0  0
 11 23  1  0  0  0  0
M  END
> <PUBCHEM_COMPOUND_CID>
11083

> <PUBCHEM_COMPOUND_CANONICALIZED>
1

> <PUBCHEM_CACTVS_COMPLEXITY>
226

> <PUBCHEM_CACTVS_HBOND_ACCEPTOR>
2

> <PUBCHEM_CACTVS_HBOND_DONOR>
1

> <PUBCHEM_CACTVS_ROTATABLE_BOND>
2

> <PUBCHEM_CACTVS_SUBSKEYS>
AAADccBwMAAAAAAAAAAAAAAAAAAAAQAAAAAAAAAAAAAAAAAAAAAAGgAACAAADBSggAICAAAAAgCIAqBSAAAAAAAgAAAICAEAAEgAFBYAAQAAUAAEoAAIEQOIwIAAAAAAAAAAAAAAAAAAAAAAAAAAAAAAAA==

> <PUBCHEM_IUPAC_OPENEYE_NAME>
2-allyl-4-hydroxy-3-methyl-cyclopent-2-en-1-one

> <PUBCHEM_IUPAC_CAS_NAME>
4-hydroxy-3-methyl-2-prop-2-enyl-1-cyclopent-2-enone

> <PUBCHEM_IUPAC_NAME>
4-hydroxy-3-methyl-2-prop-2-enylcyclopent-2-en-1-one

> <PUBCHEM_IUPAC_SYSTEMATIC_NAME>
3-methyl-4-oxidanyl-2-prop-2-enyl-cyclopent-2-en-1-one

> <PUBCHEM_IUPAC_TRADITIONAL_NAME>
2-allyl-4-hydroxy-3-methyl-cyclopent-2-en-1-one

> <PUBCHEM_IUPAC_INCHI>
InChI=1S/C9H12O2/c1-3-4-7-6(2)8(10)5-9(7)11/h3,8,10H,1,4-5H2,2H3

> <PUBCHEM_IUPAC_INCHIKEY>
KZYVOZABVXLALY-UHFFFAOYSA-N

> <PUBCHEM_XLOGP3_AA>
0.4

> <PUBCHEM_EXACT_MASS>
152.08373

> <PUBCHEM_MOLECULAR_FORMULA>
C9H12O2

> <PUBCHEM_MOLECULAR_WEIGHT>
152.19038

> <PUBCHEM_OPENEYE_CAN_SMILES>
CC1=C(C(=O)CC1O)CC=C

> <PUBCHEM_OPENEYE_ISO_SMILES>
CC1=C(C(=O)CC1O)CC=C

> <PUBCHEM_CACTVS_TPSA>
37.3

> <PUBCHEM_MONOISOTOPIC_WEIGHT>
152.08373

> <PUBCHEM_TOTAL_CHARGE>
0

> <PUBCHEM_HEAVY_ATOM_COUNT>
11

> <PUBCHEM_ATOM_DEF_STEREO_COUNT>
0

> <PUBCHEM_ATOM_UDEF_STEREO_COUNT>
1

> <PUBCHEM_BOND_DEF_STEREO_COUNT>
0

> <PUBCHEM_BOND_UDEF_STEREO_COUNT>
0

> <PUBCHEM_ISOTOPIC_ATOM_COUNT>
0

> <PUBCHEM_COMPONENT_COUNT>
1

> <PUBCHEM_CACTVS_TAUTO_COUNT>
5

> <PUBCHEM_COORDINATE_TYPE>
1
5
255

> <PUBCHEM_BONDANNOTATIONS>
3  1  3

$$$$

