442941
  -OEChem-07051213003D

 56 61  0     1  0  0  0  0  0999 V2000
   -0.1525    1.9966    0.8607 O   0  0  0  0  0  0  0  0  0  0  0  0
    6.3503   -1.0587   -2.2269 O   0  0  0  0  0  0  0  0  0  0  0  0
   -6.8827   -1.1971    1.4360 O   0  0  0  0  0  0  0  0  0  0  0  0
    1.1253    0.0865    0.9511 N   0  0  0  0  0  0  0  0  0  0  0  0
   -1.0256    0.1391   -0.1767 N   0  0  0  0  0  0  0  0  0  0  0  0
    4.9993   -0.3685   -0.4544 N   0  0  0  0  0  0  0  0  0  0  0  0
   -5.1263   -0.3780    0.1369 N   0  0  0  0  0  0  0  0  0  0  0  0
    2.9843   -1.7839    0.4976 C   0  0  1  0  0  0  0  0  0  0  0  0
   -2.9230   -1.7358   -0.3829 C   0  0  1  0  0  0  0  0  0  0  0  0
    3.5241    0.3229    1.3124 C   0  0  1  0  0  0  0  0  0  0  0  0
   -3.2512    0.4409   -1.1243 C   0  0  1  0  0  0  0  0  0  0  0  0
    3.5701   -1.1496    1.7297 C   0  0  0  0  0  0  0  0  0  0  0  0
   -3.1763   -0.9899   -1.6646 C   0  0  0  0  0  0  0  0  0  0  0  0
    1.4780   -1.3059    0.4468 C   0  0  0  0  0  0  0  0  0  0  0  0
   -1.4844   -1.2866    0.0951 C   0  0  0  0  0  0  0  0  0  0  0  0
    2.1708    0.8541    1.7435 C   0  0  0  0  0  0  0  0  0  0  0  0
   -1.8364    0.9865   -1.1435 C   0  0  0  0  0  0  0  0  0  0  0  0
    3.9156   -1.4011   -0.7229 C   0  0  0  0  0  0  0  0  0  0  0  0
   -4.1401   -1.4451    0.5855 C   0  0  0  0  0  0  0  0  0  0  0  0
    4.8008    0.5668    0.5928 C   0  0  0  0  0  0  0  0  0  0  0  0
   -4.6722    0.6406   -0.7390 C   0  0  0  0  0  0  0  0  0  0  0  0
   -0.0241    0.8007    0.5602 C   0  0  0  0  0  0  0  0  0  0  0  0
    5.6938    1.5263    0.8562 C   0  0  0  0  0  0  0  0  0  0  0  0
   -5.4750    1.6319   -1.1395 C   0  0  0  0  0  0  0  0  0  0  0  0
    6.1272   -0.3084   -1.2784 C   0  0  0  0  0  0  0  0  0  0  0  0
   -6.4290   -0.3721    0.6448 C   0  0  0  0  0  0  0  0  0  0  0  0
    6.8867    1.6151    0.0567 C   0  0  0  0  0  0  0  0  0  0  0  0
   -6.8344    1.6690   -0.6697 C   0  0  0  0  0  0  0  0  0  0  0  0
    7.1151    0.7648   -0.9519 C   0  0  0  0  0  0  0  0  0  0  0  0
   -7.3082    0.7390    0.1687 C   0  0  0  0  0  0  0  0  0  0  0  0
    2.9766   -2.8778    0.5757 H   0  0  0  0  0  0  0  0  0  0  0  0
   -2.8889   -2.8191   -0.5518 H   0  0  0  0  0  0  0  0  0  0  0  0
    3.9569    0.7368    2.2512 H   0  0  0  0  0  0  0  0  0  0  0  0
   -3.4302    0.9402   -2.1034 H   0  0  0  0  0  0  0  0  0  0  0  0
    4.5815   -1.5255    1.9363 H   0  0  0  0  0  0  0  0  0  0  0  0
    2.9747   -1.3724    2.6245 H   0  0  0  0  0  0  0  0  0  0  0  0
   -4.0975   -1.3318   -2.1562 H   0  0  0  0  0  0  0  0  0  0  0  0
   -2.3691   -1.1442   -2.3924 H   0  0  0  0  0  0  0  0  0  0  0  0
    1.1408   -1.3874   -0.5894 H   0  0  0  0  0  0  0  0  0  0  0  0
    0.9021   -1.9919    1.0770 H   0  0  0  0  0  0  0  0  0  0  0  0
   -1.3497   -1.4974    1.1609 H   0  0  0  0  0  0  0  0  0  0  0  0
   -0.8033   -1.9255   -0.4721 H   0  0  0  0  0  0  0  0  0  0  0  0
    1.9371    0.6816    2.8015 H   0  0  0  0  0  0  0  0  0  0  0  0
    2.0890    1.9256    1.5366 H   0  0  0  0  0  0  0  0  0  0  0  0
   -1.3362    0.8936   -2.1158 H   0  0  0  0  0  0  0  0  0  0  0  0
   -1.8073    2.0375   -0.8405 H   0  0  0  0  0  0  0  0  0  0  0  0
    4.4218   -2.3075   -1.0765 H   0  0  0  0  0  0  0  0  0  0  0  0
    3.3193   -1.0236   -1.5617 H   0  0  0  0  0  0  0  0  0  0  0  0
   -4.7127   -2.3709    0.7192 H   0  0  0  0  0  0  0  0  0  0  0  0
   -3.7807   -1.1481    1.5776 H   0  0  0  0  0  0  0  0  0  0  0  0
    5.5548    2.2501    1.6510 H   0  0  0  0  0  0  0  0  0  0  0  0
   -5.1417    2.4189   -1.8061 H   0  0  0  0  0  0  0  0  0  0  0  0
    7.6006    2.3962    0.2938 H   0  0  0  0  0  0  0  0  0  0  0  0
   -7.4693    2.4776   -1.0143 H   0  0  0  0  0  0  0  0  0  0  0  0
    8.0113    0.8316   -1.5578 H   0  0  0  0  0  0  0  0  0  0  0  0
   -8.3309    0.7666    0.5266 H   0  0  0  0  0  0  0  0  0  0  0  0
  1 22  2  0  0  0  0
  2 25  2  0  0  0  0
  3 26  2  0  0  0  0
  4 14  1  0  0  0  0
  4 16  1  0  0  0  0
  4 22  1  0  0  0  0
  5 15  1  0  0  0  0
  5 17  1  0  0  0  0
  5 22  1  0  0  0  0
  6 18  1  0  0  0  0
  6 20  1  0  0  0  0
  6 25  1  0  0  0  0
  7 19  1  0  0  0  0
  7 21  1  0  0  0  0
  7 26  1  0  0  0  0
  8 12  1  0  0  0  0
  8 14  1  0  0  0  0
  8 18  1  0  0  0  0
  8 31  1  0  0  0  0
  9 13  1  0  0  0  0
  9 15  1  0  0  0  0
  9 19  1  0  0  0  0
  9 32  1  0  0  0  0
 10 12  1  0  0  0  0
 10 16  1  0  0  0  0
 10 20  1  0  0  0  0
 10 33  1  0  0  0  0
 11 13  1  0  0  0  0
 11 17  1  0  0  0  0
 11 21  1  0  0  0  0
 11 34  1  0  0  0  0
 12 35  1  0  0  0  0
 12 36  1  0  0  0  0
 13 37  1  0  0  0  0
 13 38  1  0  0  0  0
 14 39  1  0  0  0  0
 14 40  1  0  0  0  0
 15 41  1  0  0  0  0
 15 42  1  0  0  0  0
 16 43  1  0  0  0  0
 16 44  1  0  0  0  0
 17 45  1  0  0  0  0
 17 46  1  0  0  0  0
 18 47  1  0  0  0  0
 18 48  1  0  0  0  0
 19 49  1  0  0  0  0
 19 50  1  0  0  0  0
 20 23  2  0  0  0  0
 21 24  2  0  0  0  0
 23 27  1  0  0  0  0
 23 51  1  0  0  0  0
 24 28  1  0  0  0  0
 24 52  1  0  0  0  0
 25 29  1  0  0  0  0
 26 30  1  0  0  0  0
 27 29  2  0  0  0  0
 27 53  1  0  0  0  0
 28 30  2  0  0  0  0
 28 54  1  0  0  0  0
 29 55  1  0  0  0  0
 30 56  1  0  0  0  0
M  END
> <PUBCHEM_COMPOUND_CID>
442941

> <PUBCHEM_CONFORMER_RMSD>
0.8

> <PUBCHEM_CONFORMER_DIVERSEORDER>
1
3
2
4
5
6
7

> <PUBCHEM_MMFF94_PARTIAL_CHARGES>
32
1 -0.57
10 0.14
11 0.14
14 0.3
15 0.3
16 0.3
17 0.3
18 0.3
19 0.3
2 -0.57
20 -0.03
21 -0.03
22 0.69
23 -0.15
24 -0.15
25 0.62
26 0.62
27 -0.15
28 -0.15
29 -0.14
3 -0.57
30 -0.14
4 -0.66
5 -0.66
51 0.15
52 0.15
53 0.15
54 0.15
55 0.15
56 0.15
6 -0.47
7 -0.47

> <PUBCHEM_EFFECTIVE_ROTOR_COUNT>
4

> <PUBCHEM_PHARMACOPHORE_FEATURES>
9
1 1 acceptor
1 2 acceptor
1 3 acceptor
6 4 8 10 12 14 16 rings
6 5 9 11 13 15 17 rings
6 6 20 23 25 27 29 rings
6 6 8 10 12 18 20 rings
6 7 21 24 26 28 30 rings
6 7 9 11 13 19 21 rings

> <PUBCHEM_HEAVY_ATOM_COUNT>
30

> <PUBCHEM_ATOM_DEF_STEREO_COUNT>
4

> <PUBCHEM_ATOM_UDEF_STEREO_COUNT>
0

> <PUBCHEM_BOND_DEF_STEREO_COUNT>
0

> <PUBCHEM_BOND_UDEF_STEREO_COUNT>
0

> <PUBCHEM_ISOTOPIC_ATOM_COUNT>
0

> <PUBCHEM_COMPONENT_COUNT>
1

> <PUBCHEM_CACTVS_TAUTO_COUNT>
1

> <PUBCHEM_CONFORMER_ID>
0006C23D00000001

> <PUBCHEM_MMFF94_ENERGY>
200.6832

> <PUBCHEM_FEATURE_SELFOVERLAP>
47.19

> <PUBCHEM_SHAPE_FINGERPRINT>
10 15 18131635591094507067
10066227 112 18334580135544987521
10290309 65 17988091113873241115
10554248 39 17913798220937716175
11646440 116 13110964236514724718
11719270 70 9223234056883825992
11724838 91 15267340704548023058
12166972 35 12751242532151527358
12236239 1 16630530660813693559
12596602 18 16486980626025267185
12730499 353 18411700998162127650
12788726 201 18041001798985879513
13914758 101 5184351798300978907
14251764 18 18202004326888042467
14617045 38 18408887342952181411
14840074 17 17603865593944893863
14849402 71 16128364927285881180
14856354 85 17417806211193216251
14933364 13 18342739619713410801
15064981 113 15140964019563887393
15131766 46 6192830516122977898
15183329 4 16370725937242029053
15188451 53 7781513720002049582
15276724 80 18261390113018078297
15361156 5 17894915083545346901
15537594 2 18334584541917773615
16994733 274 17060622221651520837
17349148 13 7132428081848807755
17857418 61 4750875948883607894
18335252 98 17703785925296448467
18608769 82 18342454795079376315
19377110 9 15698287724001932593
19489759 90 6411296845342974507
20105231 36 18335411361919435991
20567600 234 13398629438220382566
21033648 29 18262812761232071746
21792961 116 18261390096402191778
221357 26 17748825233448854760
22149856 69 14547887490348592381
2215653 11 17385448725757582964
23559900 14 17095815316907880883
23569943 247 16661483077061852431
23576562 1 18189911833618793773
34797466 226 18412258411992167580
4073 2 17632574937626091171
4098825 35 17846502581810732018
4325135 7 16343984697678578207
4340502 62 16630814317902959626
437795 51 18408884010120584226
439807 62 17749383806941163598
44317340 157 18335140869780412004
5265222 85 18411981321617916127
53794403 172 17844241814622856444
6081469 158 5545195017974036105
6328613 192 18259421923006463113
6394761 36 15213295344087196993
9689198 14 18412259536513781183

> <PUBCHEM_SHAPE_MULTIPOLES>
579.85
21.75
1.87
1.57
3.04
0.03
-0.19
-5.65
-3.05
0.41
0.07
-1.39
0.13
1.42

> <PUBCHEM_SHAPE_SELFOVERLAP>
1267.076

> <PUBCHEM_SHAPE_VOLUME>
304.1

> <PUBCHEM_COORDINATE_TYPE>
2
5
10

$$$$

