105137
  -OEChem-07051212563D

 77 83  0     1  0  0  0  0  0999 V2000
   -2.4079    0.8269   -1.2678 O   0  0  0  0  0  0  0  0  0  0  0  0
   -2.7150    1.1458    1.0414 O   0  0  0  0  0  0  0  0  0  0  0  0
   -7.0161    0.4947    1.6456 O   0  0  0  0  0  0  0  0  0  0  0  0
   -3.4424   -2.5257   -1.0047 O   0  0  0  0  0  0  0  0  0  0  0  0
    0.5855    0.4283   -2.0020 O   0  0  0  0  0  0  0  0  0  0  0  0
   -3.9623   -0.4054   -0.1496 N   0  0  0  0  0  0  0  0  0  0  0  0
   -5.5710    1.7684    0.3893 N   0  0  0  0  0  0  0  0  0  0  0  0
   -0.8977   -0.9172   -0.8130 N   0  0  0  0  0  0  0  0  0  0  0  0
    3.2945   -2.5348   -0.1545 N   0  0  1  0  0  0  0  0  0  0  0  0
    8.1159    0.8405    1.0105 N   0  0  0  0  0  0  0  0  0  0  0  0
   -4.4570    1.8914   -0.5395 C   0  0  2  0  0  0  0  0  0  0  0  0
   -3.3596    0.8987   -0.2007 C   0  0  2  0  0  0  0  0  0  0  0  0
   -5.1705   -0.6715    0.6250 C   0  0  2  0  0  0  0  0  0  0  0  0
   -4.1212    3.3821   -0.5121 C   0  0  0  0  0  0  0  0  0  0  0  0
   -6.1847    3.0607    0.6532 C   0  0  0  0  0  0  0  0  0  0  0  0
   -5.4994    4.0145   -0.3183 C   0  0  0  0  0  0  0  0  0  0  0  0
   -2.1009   -0.5532   -1.5086 C   0  0  1  0  0  0  0  0  0  0  0  0
   -6.0097    0.5796    0.9371 C   0  0  0  0  0  0  0  0  0  0  0  0
   -3.2473   -1.3253   -0.8950 C   0  0  0  0  0  0  0  0  0  0  0  0
   -4.8233   -1.3924    1.9273 C   0  0  0  0  0  0  0  0  0  0  0  0
   -4.0497   -2.7018    1.7112 C   0  0  0  0  0  0  0  0  0  0  0  0
   -1.9803   -0.7917   -3.0022 C   0  0  0  0  0  0  0  0  0  0  0  0
    1.4302   -0.9228   -0.2249 C   0  0  1  0  0  0  0  0  0  0  0  0
    4.3232   -1.4664   -0.2994 C   0  0  1  0  0  0  0  0  0  0  0  0
    0.3508   -0.3933   -1.1196 C   0  0  0  0  0  0  0  0  0  0  0  0
    2.0549   -2.1697   -0.8556 C   0  0  0  0  0  0  0  0  0  0  0  0
    3.7459   -0.0327   -0.0998 C   0  0  0  0  0  0  0  0  0  0  0  0
   -4.8089   -3.6905    0.8253 C   0  0  0  0  0  0  0  0  0  0  0  0
   -2.6839   -2.3958    1.0921 C   0  0  0  0  0  0  0  0  0  0  0  0
    2.4207    0.1841   -0.0335 C   0  0  0  0  0  0  0  0  0  0  0  0
    5.5365   -1.7800    0.6529 C   0  0  0  0  0  0  0  0  0  0  0  0
    4.7097    1.0818    0.0398 C   0  0  0  0  0  0  0  0  0  0  0  0
    6.4599   -0.6176    0.7413 C   0  0  0  0  0  0  0  0  0  0  0  0
    5.9875    0.6772    0.4435 C   0  0  0  0  0  0  0  0  0  0  0  0
    3.7673   -3.8319   -0.6494 C   0  0  0  0  0  0  0  0  0  0  0  0
    7.0224    1.5812    0.6167 C   0  0  0  0  0  0  0  0  0  0  0  0
    7.7839   -0.4947    1.0915 C   0  0  0  0  0  0  0  0  0  0  0  0
    4.5130    2.4498   -0.1850 C   0  0  0  0  0  0  0  0  0  0  0  0
    6.8431    2.9478    0.3981 C   0  0  0  0  0  0  0  0  0  0  0  0
    5.5640    3.3609   -0.0067 C   0  0  0  0  0  0  0  0  0  0  0  0
   -4.8649    1.6537   -1.5335 H   0  0  0  0  0  0  0  0  0  0  0  0
   -5.8153   -1.2960   -0.0017 H   0  0  0  0  0  0  0  0  0  0  0  0
   -3.6300    3.7173   -1.4301 H   0  0  0  0  0  0  0  0  0  0  0  0
   -3.4852    3.6531    0.3363 H   0  0  0  0  0  0  0  0  0  0  0  0
   -5.9734    3.3237    1.6952 H   0  0  0  0  0  0  0  0  0  0  0  0
   -7.2684    3.0092    0.5139 H   0  0  0  0  0  0  0  0  0  0  0  0
   -5.4507    5.0387    0.0612 H   0  0  0  0  0  0  0  0  0  0  0  0
   -6.0379    4.0279   -1.2737 H   0  0  0  0  0  0  0  0  0  0  0  0
   -4.2418   -0.7300    2.5824 H   0  0  0  0  0  0  0  0  0  0  0  0
   -5.7458   -1.6225    2.4761 H   0  0  0  0  0  0  0  0  0  0  0  0
   -2.4973    2.0887    1.0980 H   0  0  0  0  0  0  0  0  0  0  0  0
   -3.9046   -3.1740    2.6923 H   0  0  0  0  0  0  0  0  0  0  0  0
   -0.8962   -1.7142   -0.1909 H   0  0  0  0  0  0  0  0  0  0  0  0
   -2.9544   -0.6599   -3.4888 H   0  0  0  0  0  0  0  0  0  0  0  0
   -1.3061   -0.0791   -3.4870 H   0  0  0  0  0  0  0  0  0  0  0  0
   -1.6348   -1.8073   -3.2243 H   0  0  0  0  0  0  0  0  0  0  0  0
    1.0111   -1.1670    0.7602 H   0  0  0  0  0  0  0  0  0  0  0  0
    4.7020   -1.4817   -1.3340 H   0  0  0  0  0  0  0  0  0  0  0  0
    1.3249   -2.9868   -0.7813 H   0  0  0  0  0  0  0  0  0  0  0  0
    2.2435   -2.0199   -1.9285 H   0  0  0  0  0  0  0  0  0  0  0  0
   -5.3000   -3.2855   -0.0592 H   0  0  0  0  0  0  0  0  0  0  0  0
   -5.6232   -4.1261    1.4191 H   0  0  0  0  0  0  0  0  0  0  0  0
   -4.1707   -4.5295    0.5258 H   0  0  0  0  0  0  0  0  0  0  0  0
   -2.3227   -1.3702    1.1741 H   0  0  0  0  0  0  0  0  0  0  0  0
   -2.2142   -3.1449    0.4410 H   0  0  0  0  0  0  0  0  0  0  0  0
   -2.0417   -2.7097    1.9468 H   0  0  0  0  0  0  0  0  0  0  0  0
    2.0278    1.1761    0.1760 H   0  0  0  0  0  0  0  0  0  0  0  0
    6.0952   -2.6492    0.2884 H   0  0  0  0  0  0  0  0  0  0  0  0
    5.1708   -2.0139    1.6612 H   0  0  0  0  0  0  0  0  0  0  0  0
    4.6028   -4.2092   -0.0528 H   0  0  0  0  0  0  0  0  0  0  0  0
    4.0780   -3.7844   -1.6992 H   0  0  0  0  0  0  0  0  0  0  0  0
    2.9784   -4.5881   -0.5614 H   0  0  0  0  0  0  0  0  0  0  0  0
    8.5219   -1.2243    1.3935 H   0  0  0  0  0  0  0  0  0  0  0  0
    3.5476    2.8277   -0.5113 H   0  0  0  0  0  0  0  0  0  0  0  0
    9.0293    1.2209    1.2156 H   0  0  0  0  0  0  0  0  0  0  0  0
    7.6493    3.6600    0.5320 H   0  0  0  0  0  0  0  0  0  0  0  0
    5.3847    4.4181   -0.1902 H   0  0  0  0  0  0  0  0  0  0  0  0
  1 12  1  0  0  0  0
  1 17  1  0  0  0  0
  2 12  1  0  0  0  0
  2 51  1  0  0  0  0
  3 18  2  0  0  0  0
  4 19  2  0  0  0  0
  5 25  2  0  0  0  0
  6 12  1  0  0  0  0
  6 13  1  0  0  0  0
  6 19  1  0  0  0  0
  7 11  1  0  0  0  0
  7 15  1  0  0  0  0
  7 18  1  0  0  0  0
  8 17  1  0  0  0  0
  8 25  1  0  0  0  0
  8 53  1  0  0  0  0
  9 24  1  0  0  0  0
  9 26  1  0  0  0  0
  9 35  1  0  0  0  0
 10 36  1  0  0  0  0
 10 37  1  0  0  0  0
 10 75  1  0  0  0  0
 11 12  1  0  0  0  0
 11 14  1  0  0  0  0
 11 41  1  0  0  0  0
 13 18  1  0  0  0  0
 13 20  1  0  0  0  0
 13 42  1  0  0  0  0
 14 16  1  0  0  0  0
 14 43  1  0  0  0  0
 14 44  1  0  0  0  0
 15 16  1  0  0  0  0
 15 45  1  0  0  0  0
 15 46  1  0  0  0  0
 16 47  1  0  0  0  0
 16 48  1  0  0  0  0
 17 19  1  0  0  0  0
 17 22  1  0  0  0  0
 20 21  1  0  0  0  0
 20 49  1  0  0  0  0
 20 50  1  0  0  0  0
 21 28  1  0  0  0  0
 21 29  1  0  0  0  0
 21 52  1  0  0  0  0
 22 54  1  0  0  0  0
 22 55  1  0  0  0  0
 22 56  1  0  0  0  0
 23 25  1  0  0  0  0
 23 26  1  0  0  0  0
 23 30  1  0  0  0  0
 23 57  1  0  0  0  0
 24 27  1  0  0  0  0
 24 31  1  0  0  0  0
 24 58  1  0  0  0  0
 26 59  1  0  0  0  0
 26 60  1  0  0  0  0
 27 30  2  0  0  0  0
 27 32  1  0  0  0  0
 28 61  1  0  0  0  0
 28 62  1  0  0  0  0
 28 63  1  0  0  0  0
 29 64  1  0  0  0  0
 29 65  1  0  0  0  0
 29 66  1  0  0  0  0
 30 67  1  0  0  0  0
 31 33  1  0  0  0  0
 31 68  1  0  0  0  0
 31 69  1  0  0  0  0
 32 34  2  0  0  0  0
 32 38  1  0  0  0  0
 33 34  1  0  0  0  0
 33 37  2  0  0  0  0
 34 36  1  0  0  0  0
 35 70  1  0  0  0  0
 35 71  1  0  0  0  0
 35 72  1  0  0  0  0
 36 39  2  0  0  0  0
 37 73  1  0  0  0  0
 38 40  2  0  0  0  0
 38 74  1  0  0  0  0
 39 40  1  0  0  0  0
 39 76  1  0  0  0  0
 40 77  1  0  0  0  0
M  END
> <PUBCHEM_COMPOUND_CID>
105137

> <PUBCHEM_CONFORMER_RMSD>
1

> <PUBCHEM_CONFORMER_DIVERSEORDER>
1
3
2
5
7
8
6
9
4

> <PUBCHEM_MMFF94_PARTIAL_CHARGES>
40
1 -0.56
10 0.03
11 0.3
12 0.86
13 0.36
15 0.3
17 0.64
18 0.57
19 0.57
2 -0.68
23 0.2
24 0.41
25 0.57
26 0.27
27 -0.17
3 -0.57
30 -0.29
31 0.18
32 0.03
33 -0.18
35 0.27
36 -0.15
37 -0.3
38 -0.15
39 -0.15
4 -0.57
40 -0.15
5 -0.57
51 0.4
53 0.37
6 -0.66
67 0.15
7 -0.66
73 0.15
74 0.15
75 0.27
76 0.15
77 0.15
8 -0.73
9 -0.81

> <PUBCHEM_EFFECTIVE_ROTOR_COUNT>
7

> <PUBCHEM_PHARMACOPHORE_FEATURES>
18
1 1 acceptor
1 10 cation
1 10 donor
1 2 acceptor
1 2 donor
1 3 acceptor
1 4 acceptor
1 5 acceptor
1 8 donor
1 9 cation
3 21 28 29 hydrophobe
5 1 6 12 17 19 rings
5 10 33 34 36 37 rings
5 7 11 14 15 16 rings
6 24 27 31 32 33 34 rings
6 32 34 36 38 39 40 rings
6 6 7 11 12 13 18 rings
6 9 23 24 26 27 30 rings

> <PUBCHEM_HEAVY_ATOM_COUNT>
40

> <PUBCHEM_ATOM_DEF_STEREO_COUNT>
6

> <PUBCHEM_ATOM_UDEF_STEREO_COUNT>
0

> <PUBCHEM_BOND_DEF_STEREO_COUNT>
0

> <PUBCHEM_BOND_UDEF_STEREO_COUNT>
0

> <PUBCHEM_ISOTOPIC_ATOM_COUNT>
0

> <PUBCHEM_COMPONENT_COUNT>
1

> <PUBCHEM_CACTVS_TAUTO_COUNT>
2

> <PUBCHEM_CONFORMER_ID>
00019AB100000001

> <PUBCHEM_MMFF94_ENERGY>
170.4895

> <PUBCHEM_FEATURE_SELFOVERLAP>
91.807

> <PUBCHEM_SHAPE_FINGERPRINT>
10 15 18411698785705090496
10554248 39 15936683869949764276
10835480 77 18338239370023602040
10930396 42 18272088276242800289
11093857 5 18129361774979062034
11456790 92 18341906221056182776
11479125 193 18048880685259107064
12128747 34 18338514261052422167
12758862 56 17908142427920295362
12925494 130 18409738356510208776
13383668 362 18058150749528295353
13560911 23 18270696306663223712
13782708 43 17917716777906575482
13811026 1 18412544323279918769
13911987 19 17022903480319957893
14790565 3 18263932042973963380
14849402 71 18270680836793163636
14856354 85 18117839902167687358
15183329 4 8286208240517382148
15336146 87 17750535999804472131
15348495 7 18342455950108534890
15513586 35 17607808296824629737
1577012 14 18260834753147276604
16110190 28 18408886243461815341
16991971 28 11743840313918614600
19302320 297 18411697690990337032
19315958 150 18410287051957265619
21033648 29 18190168161366261573
22122407 14 18186240619289310992
24771293 8 18115890516519964400
312425 54 17988924496125301170
3178227 256 18341899585437393338
3383291 50 17631998790303851419
3552219 110 16808138992413747983
3663271 9 18342741789093836906
397830 11 18412538821126028299
4073 2 18343018900320769938
4098825 35 18412545392715960384
4144715 1 18341039791821598080
4756326 101 17701832201463719573
484985 159 12247679392528072661
504843 32 17240493498266951799
5104073 3 18273220806999106842
5364581 5 18340765940491303305
6009941 240 18340770428779386192
6086070 43 16661225688087027056

> <PUBCHEM_SHAPE_MULTIPOLES>
768.93
22.35
4.47
1.59
20.27
1.01
-0.57
11.08
10.07
-2.78
0.3
-1.78
-0.69
1.47

> <PUBCHEM_SHAPE_SELFOVERLAP>
1714.107

> <PUBCHEM_SHAPE_VOLUME>
405.4

> <PUBCHEM_COORDINATE_TYPE>
2
5
10

$$$$

