443787
  -OEChem-07051213033D

 43 46  0     0  0  0  0  0  0999 V2000
   -0.5752    2.2716   -0.1308 O   0  0  0  0  0  0  0  0  0  0  0  0
    1.9008    2.4467   -0.0770 O   0  0  0  0  0  0  0  0  0  0  0  0
    2.4587   -2.8641    0.0807 O   0  0  0  0  0  0  0  0  0  0  0  0
   -4.9461   -2.3862   -0.1158 O   0  0  0  0  0  0  0  0  0  0  0  0
    4.4256    2.8070   -0.0272 O   0  0  0  0  0  0  0  0  0  0  0  0
   -5.8443    0.6148    1.0544 O   0  0  0  0  0  0  0  0  0  0  0  0
    7.1638   -1.0531    0.1471 O   0  0  0  0  0  0  0  0  0  0  0  0
   -5.9678    0.6315   -1.2442 O   0  0  0  0  0  0  0  0  0  0  0  0
   -1.5918    0.0944   -0.0981 C   0  0  0  0  0  0  0  0  0  0  0  0
    0.8328    0.3465   -0.0447 C   0  0  0  0  0  0  0  0  0  0  0  0
    0.9817   -1.0385   -0.0037 C   0  0  0  0  0  0  0  0  0  0  0  0
   -1.4406   -1.3107   -0.0564 C   0  0  0  0  0  0  0  0  0  0  0  0
   -0.4484    0.9107   -0.0916 C   0  0  0  0  0  0  0  0  0  0  0  0
   -2.8833    0.6447   -0.1454 C   0  0  0  0  0  0  0  0  0  0  0  0
   -0.1500   -1.8637   -0.0094 C   0  0  0  0  0  0  0  0  0  0  0  0
    3.3639    0.6216    0.0095 C   0  0  0  0  0  0  0  0  0  0  0  0
    3.5130   -0.7660    0.0513 C   0  0  0  0  0  0  0  0  0  0  0  0
    2.0183    1.2288   -0.0399 C   0  0  0  0  0  0  0  0  0  0  0  0
    2.3275   -1.6469    0.0458 C   0  0  0  0  0  0  0  0  0  0  0  0
   -4.0094   -0.1786   -0.1517 C   0  0  0  0  0  0  0  0  0  0  0  0
   -2.5855   -2.1247   -0.0634 C   0  0  0  0  0  0  0  0  0  0  0  0
   -3.8608   -1.5613   -0.1106 C   0  0  0  0  0  0  0  0  0  0  0  0
    4.4955    1.4460    0.0137 C   0  0  0  0  0  0  0  0  0  0  0  0
   -3.1455    2.1231   -0.1917 C   0  0  0  0  0  0  0  0  0  0  0  0
    4.7937   -1.3295    0.0982 C   0  0  0  0  0  0  0  0  0  0  0  0
    5.9188   -0.5045    0.1025 C   0  0  0  0  0  0  0  0  0  0  0  0
    5.7699    0.8803    0.0601 C   0  0  0  0  0  0  0  0  0  0  0  0
   -5.3545    0.3890   -0.2005 C   0  0  0  0  0  0  0  0  0  0  0  0
   -7.1608    1.1710    1.1387 C   0  0  0  0  0  0  0  0  0  0  0  0
   -0.0371   -2.9459    0.0225 H   0  0  0  0  0  0  0  0  0  0  0  0
   -2.4858   -3.2084   -0.0318 H   0  0  0  0  0  0  0  0  0  0  0  0
   -2.7088    2.5621   -1.0955 H   0  0  0  0  0  0  0  0  0  0  0  0
   -4.1989    2.4112   -0.2292 H   0  0  0  0  0  0  0  0  0  0  0  0
   -2.7584    2.6098    0.7102 H   0  0  0  0  0  0  0  0  0  0  0  0
    4.9227   -2.4085    0.1310 H   0  0  0  0  0  0  0  0  0  0  0  0
    6.6562    1.5105    0.0635 H   0  0  0  0  0  0  0  0  0  0  0  0
    0.2159    2.6757   -0.5190 H   0  0  0  0  0  0  0  0  0  0  0  0
   -5.7689   -1.8724   -0.1461 H   0  0  0  0  0  0  0  0  0  0  0  0
    5.3228    3.1818   -0.0160 H   0  0  0  0  0  0  0  0  0  0  0  0
    7.0816   -2.0220    0.1721 H   0  0  0  0  0  0  0  0  0  0  0  0
   -7.4119    1.2929    2.1956 H   0  0  0  0  0  0  0  0  0  0  0  0
   -7.8865    0.4931    0.6796 H   0  0  0  0  0  0  0  0  0  0  0  0
   -7.1874    2.1516    0.6544 H   0  0  0  0  0  0  0  0  0  0  0  0
  1 13  1  0  0  0  0
  1 37  1  0  0  0  0
  2 18  2  0  0  0  0
  3 19  2  0  0  0  0
  4 22  1  0  0  0  0
  4 38  1  0  0  0  0
  5 23  1  0  0  0  0
  5 39  1  0  0  0  0
  6 28  1  0  0  0  0
  6 29  1  0  0  0  0
  7 26  1  0  0  0  0
  7 40  1  0  0  0  0
  8 28  2  0  0  0  0
  9 12  1  0  0  0  0
  9 13  2  0  0  0  0
  9 14  1  0  0  0  0
 10 11  2  0  0  0  0
 10 13  1  0  0  0  0
 10 18  1  0  0  0  0
 11 15  1  0  0  0  0
 11 19  1  0  0  0  0
 12 15  2  0  0  0  0
 12 21  1  0  0  0  0
 14 20  2  0  0  0  0
 14 24  1  0  0  0  0
 15 30  1  0  0  0  0
 16 17  2  0  0  0  0
 16 18  1  0  0  0  0
 16 23  1  0  0  0  0
 17 19  1  0  0  0  0
 17 25  1  0  0  0  0
 20 22  1  0  0  0  0
 20 28  1  0  0  0  0
 21 22  2  0  0  0  0
 21 31  1  0  0  0  0
 23 27  2  0  0  0  0
 24 32  1  0  0  0  0
 24 33  1  0  0  0  0
 24 34  1  0  0  0  0
 25 26  2  0  0  0  0
 25 35  1  0  0  0  0
 26 27  1  0  0  0  0
 27 36  1  0  0  0  0
 29 41  1  0  0  0  0
 29 42  1  0  0  0  0
 29 43  1  0  0  0  0
M  END
> <PUBCHEM_COMPOUND_CID>
443787

> <PUBCHEM_CONFORMER_RMSD>
0.6

> <PUBCHEM_CONFORMER_DIVERSEORDER>
1
2

> <PUBCHEM_MMFF94_PARTIAL_CHARGES>
35
1 -0.53
10 0.09
11 0.09
13 0.08
14 -0.14
15 -0.15
16 0.09
17 0.09
18 0.4
19 0.4
2 -0.57
20 0.09
21 -0.15
22 0.08
23 0.08
24 0.14
25 -0.15
26 0.08
27 -0.15
28 0.63
29 0.28
3 -0.57
30 0.15
31 0.15
35 0.15
36 0.15
37 0.45
38 0.45
39 0.45
4 -0.53
40 0.45
5 -0.53
6 -0.43
7 -0.53
8 -0.57

> <PUBCHEM_EFFECTIVE_ROTOR_COUNT>
2

> <PUBCHEM_PHARMACOPHORE_FEATURES>
11
1 1 donor
1 2 acceptor
1 3 acceptor
1 4 donor
1 5 donor
1 7 donor
1 8 acceptor
6 10 11 16 17 18 19 rings
6 16 17 23 25 26 27 rings
6 9 10 11 12 13 15 rings
6 9 12 14 20 21 22 rings

> <PUBCHEM_HEAVY_ATOM_COUNT>
29

> <PUBCHEM_ATOM_DEF_STEREO_COUNT>
0

> <PUBCHEM_ATOM_UDEF_STEREO_COUNT>
0

> <PUBCHEM_BOND_DEF_STEREO_COUNT>
0

> <PUBCHEM_BOND_UDEF_STEREO_COUNT>
0

> <PUBCHEM_ISOTOPIC_ATOM_COUNT>
0

> <PUBCHEM_COMPONENT_COUNT>
1

> <PUBCHEM_CACTVS_TAUTO_COUNT>
861

> <PUBCHEM_CONFORMER_ID>
0006C58B00000001

> <PUBCHEM_MMFF94_ENERGY>
110.9591

> <PUBCHEM_FEATURE_SELFOVERLAP>
55.885

> <PUBCHEM_SHAPE_FINGERPRINT>
10 15 18131630071407670281
10906281 52 18339062839855665678
11089746 13 17385727984583949001
11578080 2 17097512903332927330
12236239 1 18040435477551429006
12788726 201 17385996334552359241
12838862 33 18338818765928824736
13140716 1 18338795602668849336
13402501 40 18412827984083344102
14251764 18 18335137575566720139
14341114 176 18412541024549720261
14790565 3 18338514144903792684
15183329 4 18411986866394165447
15196674 1 18411139091273556542
15927050 60 17614001790369183380
16087824 20 18267303308681481741
1813 80 17060340712414694724
18608769 82 18342735183740396083
18681886 176 18336552634204723610
20028762 73 18261115141281477582
21033648 29 17676786300622017178
21130935 74 18334014960993945770
21236236 1 18337110073583631335
21267235 1 18411412917330322334
21279426 13 18411420609379256054
21421861 104 18130235955378557386
23402539 116 18335145262862003991
23522609 53 18197750298292809405
23559900 14 18337117760789185777
24771293 8 18189910725469738656
3004659 81 18272373062375590520
335352 9 18410856559713695022
34934 24 18410296899779536327
350125 39 18410855460223393176
3545911 37 18411982476784562703
3633792 109 18338807809989693933
3680242 22 18271815644018534114
4073 2 18131064892704021138
4093350 32 17095798931534150775
4214541 1 18411139142950385612
4340502 62 16917065581324316386
5104073 3 18340208492311705219
6086070 43 17313394400859797649

> <PUBCHEM_SHAPE_MULTIPOLES>
549.85
16.02
2.67
0.72
2.91
0.04
0.03
-1.99
1.84
-0.54
-0.03
0.77
-0.09
-0.43

> <PUBCHEM_SHAPE_SELFOVERLAP>
1256.301

> <PUBCHEM_SHAPE_VOLUME>
285

> <PUBCHEM_COORDINATE_TYPE>
2
5
10

$$$$

