7506
  -OEChem-07051212463D

 12 12  0     0  0  0  0  0  0999 V2000
    2.2532   -0.0001   -0.0003 N   0  0  0  0  0  0  0  0  0  0  0  0
   -3.1330    0.0000   -0.0003 N   0  0  0  0  0  0  0  0  0  0  0  0
   -0.5421    0.0001    0.0004 C   0  0  0  0  0  0  0  0  0  0  0  0
    0.1558   -1.2026    0.0003 C   0  0  0  0  0  0  0  0  0  0  0  0
    0.1559    1.2026    0.0002 C   0  0  0  0  0  0  0  0  0  0  0  0
    1.5404   -1.1488   -0.0002 C   0  0  0  0  0  0  0  0  0  0  0  0
    1.5405    1.1488   -0.0001 C   0  0  0  0  0  0  0  0  0  0  0  0
   -1.9706    0.0000   -0.0001 C   0  0  0  0  0  0  0  0  0  0  0  0
   -0.3541   -2.1605    0.0003 H   0  0  0  0  0  0  0  0  0  0  0  0
   -0.3539    2.1607    0.0002 H   0  0  0  0  0  0  0  0  0  0  0  0
    2.1315   -2.0587   -0.0003 H   0  0  0  0  0  0  0  0  0  0  0  0
    2.1317    2.0586   -0.0002 H   0  0  0  0  0  0  0  0  0  0  0  0
  1  6  2  0  0  0  0
  1  7  1  0  0  0  0
  2  8  3  0  0  0  0
  3  4  2  0  0  0  0
  3  5  1  0  0  0  0
  3  8  1  0  0  0  0
  4  6  1  0  0  0  0
  4  9  1  0  0  0  0
  5  7  2  0  0  0  0
  5 10  1  0  0  0  0
  6 11  1  0  0  0  0
  7 12  1  0  0  0  0
M  END
> <PUBCHEM_COMPOUND_CID>
7506

> <PUBCHEM_CONFORMER_RMSD>
0.4

> <PUBCHEM_CONFORMER_DIVERSEORDER>
1

> <PUBCHEM_MMFF94_PARTIAL_CHARGES>
12
1 -0.62
10 0.15
11 0.15
12 0.15
2 -0.56
3 0.07
4 -0.15
5 -0.15
6 0.16
7 0.16
8 0.48
9 0.15

> <PUBCHEM_EFFECTIVE_ROTOR_COUNT>
0

> <PUBCHEM_PHARMACOPHORE_FEATURES>
3
1 1 acceptor
1 2 acceptor
6 1 3 4 5 6 7 rings

> <PUBCHEM_HEAVY_ATOM_COUNT>
8

> <PUBCHEM_ATOM_DEF_STEREO_COUNT>
0

> <PUBCHEM_ATOM_UDEF_STEREO_COUNT>
0

> <PUBCHEM_BOND_DEF_STEREO_COUNT>
0

> <PUBCHEM_BOND_UDEF_STEREO_COUNT>
0

> <PUBCHEM_ISOTOPIC_ATOM_COUNT>
0

> <PUBCHEM_COMPONENT_COUNT>
1

> <PUBCHEM_CACTVS_TAUTO_COUNT>
1

> <PUBCHEM_CONFORMER_ID>
00001D5200000001

> <PUBCHEM_MMFF94_ENERGY>
14.6973

> <PUBCHEM_FEATURE_SELFOVERLAP>
15.223

> <PUBCHEM_SHAPE_FINGERPRINT>
14325111 11 18410855413252832129
21040471 1 18194683666041569828
23402655 69 18265632042543506485
23552423 10 18055906847415830950
29004967 10 18342735234483028609

> <PUBCHEM_SHAPE_MULTIPOLES>
154.67
3.29
1.33
0.6
2.21
0
0
0
0
-0.59
0
-0.01
0
0

> <PUBCHEM_SHAPE_SELFOVERLAP>
321.374

> <PUBCHEM_SHAPE_VOLUME>
85.4

> <PUBCHEM_COORDINATE_TYPE>
2
5
10

$$$$

