13124860
  -OEChem-07051213122D

 28 28  0     0  0  0  0  0  0999 V2000
    3.7320   -0.5000    0.0000 S   0  0  0  0  0  0  0  0  0  0  0  0
    4.5981   -2.0000    0.0000 Na  0  3  0  0  0  0  0  0  0  0  0  0
    2.7320   -0.5000    0.0000 O   0  0  0  0  0  0  0  0  0  0  0  0
    3.2320   -1.3660    0.0000 O   0  0  0  0  0  0  0  0  0  0  0  0
    4.5981    2.0000    0.0000 O   0  0  0  0  0  0  0  0  0  0  0  0
    3.7320    0.5000    0.0000 N   0  0  0  0  0  0  0  0  0  0  0  0
    4.5981   -1.0000    0.0000 N   0  5  0  0  0  0  0  0  0  0  0  0
    2.8660    1.0000    0.0000 C   0  0  0  0  0  0  0  0  0  0  0  0
    4.5981    1.0000    0.0000 C   0  0  0  0  0  0  0  0  0  0  0  0
    5.4641    0.5000    0.0000 C   0  0  0  0  0  0  0  0  0  0  0  0
    5.4641   -0.5000    0.0000 C   0  0  0  0  0  0  0  0  0  0  0  0
    2.8660    2.0000    0.0000 C   0  0  0  0  0  0  0  0  0  0  0  0
    2.0000    0.5000    0.0000 C   0  0  0  0  0  0  0  0  0  0  0  0
    6.3580    1.0347    0.0000 C   0  0  0  0  0  0  0  0  0  0  0  0
    6.3580   -1.0347    0.0000 C   0  0  0  0  0  0  0  0  0  0  0  0
    7.2641    0.5208    0.0000 C   0  0  0  0  0  0  0  0  0  0  0  0
    7.2641   -0.5208    0.0000 C   0  0  0  0  0  0  0  0  0  0  0  0
    2.8660    0.3800    0.0000 H   0  0  0  0  0  0  0  0  0  0  0  0
    1.6900    1.0369    0.0000 H   0  0  0  0  0  0  0  0  0  0  0  0
    1.4631    0.1900    0.0000 H   0  0  0  0  0  0  0  0  0  0  0  0
    3.4860    2.0000    0.0000 H   0  0  0  0  0  0  0  0  0  0  0  0
    2.8660    2.6200    0.0000 H   0  0  0  0  0  0  0  0  0  0  0  0
    2.2460    2.0000    0.0000 H   0  0  0  0  0  0  0  0  0  0  0  0
    2.3100   -0.0369    0.0000 H   0  0  0  0  0  0  0  0  0  0  0  0
    6.3509    1.6546    0.0000 H   0  0  0  0  0  0  0  0  0  0  0  0
    6.3509   -1.6546    0.0000 H   0  0  0  0  0  0  0  0  0  0  0  0
    7.7998    0.8329    0.0000 H   0  0  0  0  0  0  0  0  0  0  0  0
    7.7998   -0.8329    0.0000 H   0  0  0  0  0  0  0  0  0  0  0  0
  1  3  2  0  0  0  0
  1  4  2  0  0  0  0
  1  6  1  0  0  0  0
  1  7  1  0  0  0  0
  5  9  2  0  0  0  0
  6  8  1  0  0  0  0
  6  9  1  0  0  0  0
  7 11  1  0  0  0  0
  8 12  1  0  0  0  0
  8 13  1  0  0  0  0
  8 18  1  0  0  0  0
  9 10  1  0  0  0  0
 10 11  1  0  0  0  0
 10 14  2  0  0  0  0
 11 15  2  0  0  0  0
 12 21  1  0  0  0  0
 12 22  1  0  0  0  0
 12 23  1  0  0  0  0
 13 19  1  0  0  0  0
 13 20  1  0  0  0  0
 13 24  1  0  0  0  0
 14 16  1  0  0  0  0
 14 25  1  0  0  0  0
 15 17  1  0  0  0  0
 15 26  1  0  0  0  0
 16 17  2  0  0  0  0
 16 27  1  0  0  0  0
 17 28  1  0  0  0  0
M  CHG  2   2   1   7  -1
M  END
> <PUBCHEM_COMPOUND_CID>
13124860

> <PUBCHEM_COMPOUND_CANONICALIZED>
1

> <PUBCHEM_CACTVS_COMPLEXITY>
391

> <PUBCHEM_CACTVS_HBOND_ACCEPTOR>
4

> <PUBCHEM_CACTVS_HBOND_DONOR>
0

> <PUBCHEM_CACTVS_ROTATABLE_BOND>
1

> <PUBCHEM_CACTVS_SUBSKEYS>
AAADccBzMCBAAAAAAAAAAAAAAAAAAAAAAAA8QAAAAAAAAACxAAAAHgAAQAAADCjBmAQywIIAAACIAiVSUDCCAAAkAgAIiAEIZMgIIDqA1ZGEIYhghgCIyccYiACOAAAAAAACAAAAAAAAAAQAAAAAAAAAAA==

> <PUBCHEM_IUPAC_OPENEYE_NAME>
sodium 3-isopropyl-2,2-dioxo-2$l^{6},1,3-benzothiadiazin-1-id-4-one

> <PUBCHEM_IUPAC_CAS_NAME>
sodium 2,2-dioxo-3-propan-2-yl-2$l^{6},1,3-benzothiadiazin-1-id-4-one

> <PUBCHEM_IUPAC_NAME>
sodium 2,2-dioxo-3-propan-2-yl-2$l^{6},1,3-benzothiadiazin-1-id-4-one

> <PUBCHEM_IUPAC_SYSTEMATIC_NAME>
sodium 2,2-bis(oxidanylidene)-3-propan-2-yl-2$l^{6},1,3-benzothiadiazin-1-id-4-one

> <PUBCHEM_IUPAC_TRADITIONAL_NAME>
sodium 3-isopropyl-2,2-diketo-2$l^{6},1,3-benzothiadiazin-1-id-4-one

> <PUBCHEM_IUPAC_INCHI>
InChI=1S/C10H12N2O3S.Na/c1-7(2)12-10(13)8-5-3-4-6-9(8)11-16(12,14)15;/h3-7H,1-2H3,(H,11,13);/q;+1/p-1

> <PUBCHEM_IUPAC_INCHIKEY>
NCLRGQCNIDLTDW-UHFFFAOYSA-M

> <PUBCHEM_EXACT_MASS>
262.038808

> <PUBCHEM_MOLECULAR_FORMULA>
C10H11N2NaO3S

> <PUBCHEM_MOLECULAR_WEIGHT>
262.260709

> <PUBCHEM_OPENEYE_CAN_SMILES>
CC(C)N1C(=O)C2=CC=CC=C2[N-]S1(=O)=O.[Na+]

> <PUBCHEM_OPENEYE_ISO_SMILES>
CC(C)N1C(=O)C2=CC=CC=C2[N-]S1(=O)=O.[Na+]

> <PUBCHEM_CACTVS_TPSA>
63.8

> <PUBCHEM_MONOISOTOPIC_WEIGHT>
262.038808

> <PUBCHEM_TOTAL_CHARGE>
0

> <PUBCHEM_HEAVY_ATOM_COUNT>
17

> <PUBCHEM_ATOM_DEF_STEREO_COUNT>
0

> <PUBCHEM_ATOM_UDEF_STEREO_COUNT>
0

> <PUBCHEM_BOND_DEF_STEREO_COUNT>
0

> <PUBCHEM_BOND_UDEF_STEREO_COUNT>
0

> <PUBCHEM_ISOTOPIC_ATOM_COUNT>
0

> <PUBCHEM_COMPONENT_COUNT>
2

> <PUBCHEM_CACTVS_TAUTO_COUNT>
1

> <PUBCHEM_NONSTANDARDBOND>
2  7  7

> <PUBCHEM_COORDINATE_TYPE>
1
5
255

> <PUBCHEM_BONDANNOTATIONS>
10  11  8
10  14  8
11  15  8
14  16  8
15  17  8
16  17  8

$$$$

