5281369
  -OEChem-07051212562D

 90 95  0     1  0  0  0  0  0999 V2000
   13.3640    3.6492    0.0000 O   0  0  0  0  0  0  0  0  0  0  0  0
   13.0220    1.8603    0.0000 O   0  0  0  0  0  0  0  0  0  0  0  0
   12.1359    1.3758    0.0000 O   0  0  0  0  0  0  0  0  0  0  0  0
   12.2418   -0.2007    0.0000 O   0  0  0  0  0  0  0  0  0  0  0  0
   16.1992    3.6929    0.0000 O   0  0  0  0  0  0  0  0  0  0  0  0
   15.7871    4.4008    0.0000 O   0  0  0  0  0  0  0  0  0  0  0  0
   14.6114    5.2125    0.0000 O   0  0  0  0  0  0  0  0  0  0  0  0
   17.4814    3.6621    0.0000 O   0  0  0  0  0  0  0  0  0  0  0  0
   13.9523    1.7430    0.0000 C   0  0  1  0  0  0  0  0  0  0  0  0
   14.8532    1.3092    0.0000 C   0  0  2  0  0  0  0  0  0  0  0  0
   13.7297    2.7180    0.0000 C   0  0  1  0  0  0  0  0  0  0  0  0
   14.3532    3.4998    0.0000 C   0  0  1  0  0  0  0  0  0  0  0  0
   13.0827    1.1696    0.0000 C   0  0  2  0  0  0  0  0  0  0  0  0
   15.7542    1.7430    0.0000 C   0  0  1  0  0  0  0  0  0  0  0  0
   14.9471    0.2718    0.0000 C   0  0  1  0  0  0  0  0  0  0  0  0
   13.1525    0.1303    0.0000 C   0  0  2  0  0  0  0  0  0  0  0  0
   15.9767    2.7180    0.0000 C   0  0  1  0  0  0  0  0  0  0  0  0
   15.3532    3.4998    0.0000 C   0  0  2  0  0  0  0  0  0  0  0  0
   14.0910   -0.3216    0.0000 C   0  0  0  0  0  0  0  0  0  0  0  0
   11.6292    0.5500    0.0000 C   0  0  3  0  0  0  0  0  0  0  0  0
   14.9767    4.2816    0.0000 C   0  0  0  0  0  0  0  0  0  0  0  0
   16.6089    1.2354    0.0000 C   0  0  0  0  0  0  0  0  0  0  0  0
   16.9670    2.8045    0.0000 C   0  0  0  0  0  0  0  0  0  0  0  0
   15.8530   -0.1517    0.0000 C   0  0  0  0  0  0  0  0  0  0  0  0
   13.1025   -0.8684    0.0000 C   0  0  0  0  0  0  0  0  0  0  0  0
   17.3569    1.8901    0.0000 C   0  0  0  0  0  0  0  0  0  0  0  0
   10.6314    0.4829    0.0000 C   0  0  0  0  0  0  0  0  0  0  0  0
   12.2125   -1.3244    0.0000 C   0  0  0  0  0  0  0  0  0  0  0  0
   18.3319    1.6676    0.0000 C   0  0  0  0  0  0  0  0  0  0  0  0
   13.9424   -1.4111    0.0000 C   0  0  0  0  0  0  0  0  0  0  0  0
   10.1906   -0.4147    0.0000 C   0  0  0  0  0  0  0  0  0  0  0  0
    9.1928   -0.4817    0.0000 C   0  0  0  0  0  0  0  0  0  0  0  0
    8.7520   -1.3793    0.0000 C   0  0  0  0  0  0  0  0  0  0  0  0
    7.7543   -1.4464    0.0000 C   0  0  0  0  0  0  0  0  0  0  0  0
    7.3134   -2.3440    0.0000 C   0  0  0  0  0  0  0  0  0  0  0  0
    6.3157   -2.4110    0.0000 C   0  0  0  0  0  0  0  0  0  0  0  0
    5.8749   -3.3086    0.0000 C   0  0  0  0  0  0  0  0  0  0  0  0
    4.8771   -3.3756    0.0000 C   0  0  0  0  0  0  0  0  0  0  0  0
    4.4363   -4.2732    0.0000 C   0  0  0  0  0  0  0  0  0  0  0  0
    3.4386   -4.3403    0.0000 C   0  0  0  0  0  0  0  0  0  0  0  0
    2.9978   -5.2379    0.0000 C   0  0  0  0  0  0  0  0  0  0  0  0
    2.0000   -5.3049    0.0000 C   0  0  0  0  0  0  0  0  0  0  0  0
   13.4274    2.4117    0.0000 H   0  0  0  0  0  0  0  0  0  0  0  0
   12.9175    2.4673    0.0000 H   0  0  0  0  0  0  0  0  0  0  0  0
   12.3964    1.6711    0.0000 H   0  0  0  0  0  0  0  0  0  0  0  0
   15.7172    0.8938    0.0000 H   0  0  0  0  0  0  0  0  0  0  0  0
   14.9994   -0.3460    0.0000 H   0  0  0  0  0  0  0  0  0  0  0  0
   15.9693    3.5692    0.0000 H   0  0  0  0  0  0  0  0  0  0  0  0
   13.7304   -0.8260    0.0000 H   0  0  0  0  0  0  0  0  0  0  0  0
   14.5262   -0.7632    0.0000 H   0  0  0  0  0  0  0  0  0  0  0  0
   15.3870    3.8168    0.0000 H   0  0  0  0  0  0  0  0  0  0  0  0
   15.5058    4.6049    0.0000 H   0  0  0  0  0  0  0  0  0  0  0  0
   16.6655    0.6180    0.0000 H   0  0  0  0  0  0  0  0  0  0  0  0
   15.5905   -0.7133    0.0000 H   0  0  0  0  0  0  0  0  0  0  0  0
   16.4147   -0.4142    0.0000 H   0  0  0  0  0  0  0  0  0  0  0  0
   16.1155    0.4100    0.0000 H   0  0  0  0  0  0  0  0  0  0  0  0
   16.7917    3.8756    0.0000 H   0  0  0  0  0  0  0  0  0  0  0  0
   15.4379    4.9130    0.0000 H   0  0  0  0  0  0  0  0  0  0  0  0
   10.2861    0.9979    0.0000 H   0  0  0  0  0  0  0  0  0  0  0  0
   11.9298   -0.7727    0.0000 H   0  0  0  0  0  0  0  0  0  0  0  0
   11.6607   -1.6072    0.0000 H   0  0  0  0  0  0  0  0  0  0  0  0
   12.4952   -1.8762    0.0000 H   0  0  0  0  0  0  0  0  0  0  0  0
   13.9983    5.3049    0.0000 H   0  0  0  0  0  0  0  0  0  0  0  0
   18.1939    1.0631    0.0000 H   0  0  0  0  0  0  0  0  0  0  0  0
   18.9363    1.5296    0.0000 H   0  0  0  0  0  0  0  0  0  0  0  0
   18.4698    2.2720    0.0000 H   0  0  0  0  0  0  0  0  0  0  0  0
   13.9113   -2.0304    0.0000 H   0  0  0  0  0  0  0  0  0  0  0  0
   14.4942   -1.1284    0.0000 H   0  0  0  0  0  0  0  0  0  0  0  0
   10.5359   -0.9296    0.0000 H   0  0  0  0  0  0  0  0  0  0  0  0
    8.8475    0.0332    0.0000 H   0  0  0  0  0  0  0  0  0  0  0  0
    9.0973   -1.8943    0.0000 H   0  0  0  0  0  0  0  0  0  0  0  0
    7.8208   -0.8299    0.0000 H   0  0  0  0  0  0  0  0  0  0  0  0
    7.1588   -1.2738    0.0000 H   0  0  0  0  0  0  0  0  0  0  0  0
    7.2470   -2.9604    0.0000 H   0  0  0  0  0  0  0  0  0  0  0  0
    7.9090   -2.5165    0.0000 H   0  0  0  0  0  0  0  0  0  0  0  0
    6.3822   -1.7946    0.0000 H   0  0  0  0  0  0  0  0  0  0  0  0
    5.7202   -2.2385    0.0000 H   0  0  0  0  0  0  0  0  0  0  0  0
    5.8084   -3.9250    0.0000 H   0  0  0  0  0  0  0  0  0  0  0  0
    6.4704   -3.4811    0.0000 H   0  0  0  0  0  0  0  0  0  0  0  0
    4.9436   -2.7592    0.0000 H   0  0  0  0  0  0  0  0  0  0  0  0
    4.2816   -3.2031    0.0000 H   0  0  0  0  0  0  0  0  0  0  0  0
    4.3698   -4.8897    0.0000 H   0  0  0  0  0  0  0  0  0  0  0  0
    5.0318   -4.4458    0.0000 H   0  0  0  0  0  0  0  0  0  0  0  0
    3.5050   -3.7238    0.0000 H   0  0  0  0  0  0  0  0  0  0  0  0
    2.8430   -4.1678    0.0000 H   0  0  0  0  0  0  0  0  0  0  0  0
    2.9313   -5.8543    0.0000 H   0  0  0  0  0  0  0  0  0  0  0  0
    3.5933   -5.4104    0.0000 H   0  0  0  0  0  0  0  0  0  0  0  0
    1.9584   -4.6863    0.0000 H   0  0  0  0  0  0  0  0  0  0  0  0
    1.3814   -5.3465    0.0000 H   0  0  0  0  0  0  0  0  0  0  0  0
    2.0416   -5.9235    0.0000 H   0  0  0  0  0  0  0  0  0  0  0  0
  1 11  1  0  0  0  0
  1 12  1  0  0  0  0
 10  2  1  6  0  0  0
  2 20  1  0  0  0  0
  3 13  1  0  0  0  0
  3 20  1  0  0  0  0
  4 16  1  0  0  0  0
  4 20  1  0  0  0  0
 17  5  1  1  0  0  0
  5 57  1  0  0  0  0
 18  6  1  1  0  0  0
  6 58  1  0  0  0  0
  7 21  1  0  0  0  0
  7 63  1  0  0  0  0
  8 23  2  0  0  0  0
  9 10  1  0  0  0  0
  9 11  1  0  0  0  0
  9 13  1  0  0  0  0
  9 43  1  1  0  0  0
 10 14  1  0  0  0  0
 10 15  1  0  0  0  0
 11 12  1  0  0  0  0
 11 44  1  1  0  0  0
 12 18  1  0  0  0  0
 12 21  1  1  0  0  0
 13 16  1  0  0  0  0
 13 45  1  1  0  0  0
 14 17  1  0  0  0  0
 14 22  1  0  0  0  0
 14 46  1  6  0  0  0
 15 19  1  0  0  0  0
 15 24  1  6  0  0  0
 15 47  1  0  0  0  0
 16 19  1  0  0  0  0
 16 25  1  1  0  0  0
 17 18  1  0  0  0  0
 17 23  1  0  0  0  0
 18 48  1  0  0  0  0
 19 49  1  0  0  0  0
 19 50  1  0  0  0  0
 20 27  1  0  0  0  0
 21 51  1  0  0  0  0
 21 52  1  0  0  0  0
 22 26  2  0  0  0  0
 22 53  1  0  0  0  0
 23 26  1  0  0  0  0
 24 54  1  0  0  0  0
 24 55  1  0  0  0  0
 24 56  1  0  0  0  0
 25 28  1  0  0  0  0
 25 30  2  0  0  0  0
 26 29  1  0  0  0  0
 27 31  2  0  0  0  0
 27 59  1  0  0  0  0
 28 60  1  0  0  0  0
 28 61  1  0  0  0  0
 28 62  1  0  0  0  0
 29 64  1  0  0  0  0
 29 65  1  0  0  0  0
 29 66  1  0  0  0  0
 30 67  1  0  0  0  0
 30 68  1  0  0  0  0
 31 32  1  0  0  0  0
 31 69  1  0  0  0  0
 32 33  2  0  0  0  0
 32 70  1  0  0  0  0
 33 34  1  0  0  0  0
 33 71  1  0  0  0  0
 34 35  1  0  0  0  0
 34 72  1  0  0  0  0
 34 73  1  0  0  0  0
 35 36  1  0  0  0  0
 35 74  1  0  0  0  0
 35 75  1  0  0  0  0
 36 37  1  0  0  0  0
 36 76  1  0  0  0  0
 36 77  1  0  0  0  0
 37 38  1  0  0  0  0
 37 78  1  0  0  0  0
 37 79  1  0  0  0  0
 38 39  1  0  0  0  0
 38 80  1  0  0  0  0
 38 81  1  0  0  0  0
 39 40  1  0  0  0  0
 39 82  1  0  0  0  0
 39 83  1  0  0  0  0
 40 41  1  0  0  0  0
 40 84  1  0  0  0  0
 40 85  1  0  0  0  0
 41 42  1  0  0  0  0
 41 86  1  0  0  0  0
 41 87  1  0  0  0  0
 42 88  1  0  0  0  0
 42 89  1  0  0  0  0
 42 90  1  0  0  0  0
M  END
> <PUBCHEM_COMPOUND_CID>
5281369

> <PUBCHEM_COMPOUND_CANONICALIZED>
1

> <PUBCHEM_CACTVS_COMPLEXITY>
1210

> <PUBCHEM_CACTVS_HBOND_ACCEPTOR>
8

> <PUBCHEM_CACTVS_HBOND_DONOR>
3

> <PUBCHEM_CACTVS_ROTATABLE_BOND>
12

> <PUBCHEM_CACTVS_SUBSKEYS>
AAADcfB8PAAAAAAAAAAAAAAAEgAAASIAAAA0QAAABogSAACAAAAAGgAACAAADVSggAICCAAABgCIAqBSAAIAAAAgAAAICAFAAEgZFBYAIQAiUAAF4AAPoYPK7PzOgAAAAAAAAADCAAYQADCAAAAAAAAAAA==

> <PUBCHEM_IUPAC_INCHI>
InChI=1S/C34H48O8/c1-6-7-8-9-10-11-12-13-14-15-16-17-32-40-27-25-28-31(20-35,39-28)29(37)33(38)24(18-22(4)26(33)36)34(25,42-32)23(5)19-30(27,41-32)21(2)3/h14-18,23-25,27-29,35,37-38H,2,6-13,19-20H2,1,3-5H3/b15-14+,17-16+/t23-,24-,25-,27-,28+,29-,30-,31+,32?,33-,34+/m1/s1

> <PUBCHEM_IUPAC_INCHIKEY>
VWGORPXMXKBHER-GPLJIMSFSA-N

> <PUBCHEM_XLOGP3_AA>
5.7

> <PUBCHEM_EXACT_MASS>
584.334918

> <PUBCHEM_MOLECULAR_FORMULA>
C34H48O8

> <PUBCHEM_MOLECULAR_WEIGHT>
584.74012

> <PUBCHEM_OPENEYE_CAN_SMILES>
CCCCCCCCCC=CC=CC12OC3C4C5C(O5)(C(C6(C(C4(O1)C(CC3(O2)C(=C)C)C)C=C(C6=O)C)O)O)CO

> <PUBCHEM_OPENEYE_ISO_SMILES>
CCCCCCCCC/C=C/C=C/C12O[C@@H]3[C@@H]4[C@H]5[C@](O5)([C@H]([C@]6([C@H]([C@@]4(O1)[C@@H](C[C@@]3(O2)C(=C)C)C)C=C(C6=O)C)O)O)CO

> <PUBCHEM_CACTVS_TPSA>
118

> <PUBCHEM_MONOISOTOPIC_WEIGHT>
584.334918

> <PUBCHEM_TOTAL_CHARGE>
0

> <PUBCHEM_HEAVY_ATOM_COUNT>
42

> <PUBCHEM_ATOM_DEF_STEREO_COUNT>
10

> <PUBCHEM_ATOM_UDEF_STEREO_COUNT>
1

> <PUBCHEM_BOND_DEF_STEREO_COUNT>
2

> <PUBCHEM_BOND_UDEF_STEREO_COUNT>
0

> <PUBCHEM_ISOTOPIC_ATOM_COUNT>
0

> <PUBCHEM_COMPONENT_COUNT>
1

> <PUBCHEM_CACTVS_TAUTO_COUNT>
3

> <PUBCHEM_COORDINATE_TYPE>
1
5
255

> <PUBCHEM_BONDANNOTATIONS>
11  44  5
12  21  5
13  45  5
14  46  6
15  24  6
16  25  5
10  2  6
20  27  3
17  5  5
18  6  5
9  43  5

$$$$

