7847066
  -OEChem-06241222482D

 51 54  0     0  0  0  0  0  0999 V2000
    4.4691    0.5374    0.0000 O   0  0  0  0  0  0  0  0  0  0  0  0
    2.7370   -0.4626    0.0000 O   0  0  0  0  0  0  0  0  0  0  0  0
    6.2011    0.5374    0.0000 O   0  0  0  0  0  0  0  0  0  0  0  0
    5.3351    4.0374    0.0000 N   0  0  0  0  0  0  0  0  0  0  0  0
    2.4051   -5.0374    0.0000 C   0  0  0  0  0  0  0  0  0  0  0  0
    2.0000   -4.1296    0.0000 C   0  0  0  0  0  0  0  0  0  0  0  0
    3.3938   -4.9344    0.0000 C   0  0  0  0  0  0  0  0  0  0  0  0
    2.7370   -3.4626    0.0000 C   0  0  0  0  0  0  0  0  0  0  0  0
    3.6030   -3.9626    0.0000 C   0  0  0  0  0  0  0  0  0  0  0  0
    2.7370   -2.4626    0.0000 C   0  0  0  0  0  0  0  0  0  0  0  0
    4.4691   -3.4626    0.0000 C   0  0  0  0  0  0  0  0  0  0  0  0
    3.6030   -1.9626    0.0000 C   0  0  0  0  0  0  0  0  0  0  0  0
    4.4691   -2.4626    0.0000 C   0  0  0  0  0  0  0  0  0  0  0  0
    3.6030   -0.9626    0.0000 C   0  0  0  0  0  0  0  0  0  0  0  0
    5.3351    2.0374    0.0000 C   0  0  0  0  0  0  0  0  0  0  0  0
    4.4691    2.5374    0.0000 C   0  0  0  0  0  0  0  0  0  0  0  0
    6.2011    2.5374    0.0000 C   0  0  0  0  0  0  0  0  0  0  0  0
    4.4691    3.5374    0.0000 C   0  0  0  0  0  0  0  0  0  0  0  0
    4.4691   -0.4626    0.0000 C   0  0  0  0  0  0  0  0  0  0  0  0
    6.2011    3.5374    0.0000 C   0  0  0  0  0  0  0  0  0  0  0  0
    3.6030    4.0374    0.0000 C   0  0  0  0  0  0  0  0  0  0  0  0
    5.3351    1.0374    0.0000 C   0  0  0  0  0  0  0  0  0  0  0  0
    3.6030    2.0374    0.0000 C   0  0  0  0  0  0  0  0  0  0  0  0
    7.0951    2.0028    0.0000 C   0  0  0  0  0  0  0  0  0  0  0  0
    7.0951    4.0721    0.0000 C   0  0  0  0  0  0  0  0  0  0  0  0
    3.6030    5.0374    0.0000 C   0  0  0  0  0  0  0  0  0  0  0  0
    8.0011    2.5166    0.0000 C   0  0  0  0  0  0  0  0  0  0  0  0
    8.0011    3.5582    0.0000 C   0  0  0  0  0  0  0  0  0  0  0  0
    1.8155   -5.2292    0.0000 H   0  0  0  0  0  0  0  0  0  0  0  0
    2.5338   -5.6439    0.0000 H   0  0  0  0  0  0  0  0  0  0  0  0
    1.6346   -3.6288    0.0000 H   0  0  0  0  0  0  0  0  0  0  0  0
    1.4635   -4.4404    0.0000 H   0  0  0  0  0  0  0  0  0  0  0  0
    3.3929   -5.5544    0.0000 H   0  0  0  0  0  0  0  0  0  0  0  0
    4.0103   -5.0004    0.0000 H   0  0  0  0  0  0  0  0  0  0  0  0
    2.2001   -2.1526    0.0000 H   0  0  0  0  0  0  0  0  0  0  0  0
    5.0060   -3.7726    0.0000 H   0  0  0  0  0  0  0  0  0  0  0  0
    5.0060   -2.1526    0.0000 H   0  0  0  0  0  0  0  0  0  0  0  0
    4.6811   -1.0452    0.0000 H   0  0  0  0  0  0  0  0  0  0  0  0
    5.0796   -0.3549    0.0000 H   0  0  0  0  0  0  0  0  0  0  0  0
    2.9925    4.1451    0.0000 H   0  0  0  0  0  0  0  0  0  0  0  0
    3.3910    3.4548    0.0000 H   0  0  0  0  0  0  0  0  0  0  0  0
    3.2930    2.5744    0.0000 H   0  0  0  0  0  0  0  0  0  0  0  0
    3.0661    1.7274    0.0000 H   0  0  0  0  0  0  0  0  0  0  0  0
    3.9130    1.5005    0.0000 H   0  0  0  0  0  0  0  0  0  0  0  0
    7.0879    1.3828    0.0000 H   0  0  0  0  0  0  0  0  0  0  0  0
    7.0879    4.6921    0.0000 H   0  0  0  0  0  0  0  0  0  0  0  0
    4.2230    5.0374    0.0000 H   0  0  0  0  0  0  0  0  0  0  0  0
    3.6030    5.6574    0.0000 H   0  0  0  0  0  0  0  0  0  0  0  0
    2.9830    5.0374    0.0000 H   0  0  0  0  0  0  0  0  0  0  0  0
    8.5369    2.2045    0.0000 H   0  0  0  0  0  0  0  0  0  0  0  0
    8.5369    3.8703    0.0000 H   0  0  0  0  0  0  0  0  0  0  0  0
  1 19  1  0  0  0  0
  1 22  1  0  0  0  0
  2 14  2  0  0  0  0
  3 22  2  0  0  0  0
  4 18  2  0  0  0  0
  4 20  1  0  0  0  0
  5  6  1  0  0  0  0
  5  7  1  0  0  0  0
  5 29  1  0  0  0  0
  5 30  1  0  0  0  0
  6  8  1  0  0  0  0
  6 31  1  0  0  0  0
  6 32  1  0  0  0  0
  7  9  1  0  0  0  0
  7 33  1  0  0  0  0
  7 34  1  0  0  0  0
  8  9  2  0  0  0  0
  8 10  1  0  0  0  0
  9 11  1  0  0  0  0
 10 12  2  0  0  0  0
 10 35  1  0  0  0  0
 11 13  2  0  0  0  0
 11 36  1  0  0  0  0
 12 13  1  0  0  0  0
 12 14  1  0  0  0  0
 13 37  1  0  0  0  0
 14 19  1  0  0  0  0
 15 16  2  0  0  0  0
 15 17  1  0  0  0  0
 15 22  1  0  0  0  0
 16 18  1  0  0  0  0
 16 23  1  0  0  0  0
 17 20  1  0  0  0  0
 17 24  2  0  0  0  0
 18 21  1  0  0  0  0
 19 38  1  0  0  0  0
 19 39  1  0  0  0  0
 20 25  2  0  0  0  0
 21 26  1  0  0  0  0
 21 40  1  0  0  0  0
 21 41  1  0  0  0  0
 23 42  1  0  0  0  0
 23 43  1  0  0  0  0
 23 44  1  0  0  0  0
 24 27  1  0  0  0  0
 24 45  1  0  0  0  0
 25 28  1  0  0  0  0
 25 46  1  0  0  0  0
 26 47  1  0  0  0  0
 26 48  1  0  0  0  0
 26 49  1  0  0  0  0
 27 28  2  0  0  0  0
 27 50  1  0  0  0  0
 28 51  1  0  0  0  0
M  END
> <PUBCHEM_COMPOUND_CID>
7847066

> <PUBCHEM_COMPOUND_CANONICALIZED>
1

> <PUBCHEM_CACTVS_COMPLEXITY>
576

> <PUBCHEM_CACTVS_HBOND_ACCEPTOR>
4

> <PUBCHEM_CACTVS_HBOND_DONOR>
0

> <PUBCHEM_CACTVS_ROTATABLE_BOND>
6

> <PUBCHEM_CACTVS_SUBSKEYS>
AAADceB6MAAAAAAAAAAAAAAAAAAAAYAAAAA8YIAAAAAAAGCx9AAAHgAAAAAADAyhngIyyPIIFACoA6TyTAKCgCAlAiAImCFwbNgIJvLAtZ2GMQhkwAHI6Ye8yPCOwAACAAASAACAAAQAACQAAAAACAAAAA==

> <PUBCHEM_IUPAC_OPENEYE_NAME>
(2-indan-5-yl-2-oxo-ethyl) 2-ethyl-3-methyl-quinoline-4-carboxylate

> <PUBCHEM_IUPAC_CAS_NAME>
2-ethyl-3-methyl-4-quinolinecarboxylic acid [2-(2,3-dihydro-1H-inden-5-yl)-2-oxoethyl] ester

> <PUBCHEM_IUPAC_NAME>
[2-(2,3-dihydro-1H-inden-5-yl)-2-oxoethyl] 2-ethyl-3-methylquinoline-4-carboxylate

> <PUBCHEM_IUPAC_SYSTEMATIC_NAME>
[2-(2,3-dihydro-1H-inden-5-yl)-2-oxidanylidene-ethyl] 2-ethyl-3-methyl-quinoline-4-carboxylate

> <PUBCHEM_IUPAC_TRADITIONAL_NAME>
2-ethyl-3-methyl-cinchoninic acid (2-indan-5-yl-2-keto-ethyl) ester

> <PUBCHEM_IUPAC_INCHI>
InChI=1S/C24H23NO3/c1-3-20-15(2)23(19-9-4-5-10-21(19)25-20)24(27)28-14-22(26)18-12-11-16-7-6-8-17(16)13-18/h4-5,9-13H,3,6-8,14H2,1-2H3

> <PUBCHEM_IUPAC_INCHIKEY>
BHRVCXVXZICNHG-UHFFFAOYSA-N

> <PUBCHEM_XLOGP3_AA>
5.5

> <PUBCHEM_EXACT_MASS>
373.167794

> <PUBCHEM_MOLECULAR_FORMULA>
C24H23NO3

> <PUBCHEM_MOLECULAR_WEIGHT>
373.44432

> <PUBCHEM_OPENEYE_CAN_SMILES>
CCC1=NC2=CC=CC=C2C(=C1C)C(=O)OCC(=O)C3=CC4=C(CCC4)C=C3

> <PUBCHEM_OPENEYE_ISO_SMILES>
CCC1=NC2=CC=CC=C2C(=C1C)C(=O)OCC(=O)C3=CC4=C(CCC4)C=C3

> <PUBCHEM_CACTVS_TPSA>
56.3

> <PUBCHEM_MONOISOTOPIC_WEIGHT>
373.167794

> <PUBCHEM_TOTAL_CHARGE>
0

> <PUBCHEM_HEAVY_ATOM_COUNT>
28

> <PUBCHEM_ATOM_DEF_STEREO_COUNT>
0

> <PUBCHEM_ATOM_UDEF_STEREO_COUNT>
0

> <PUBCHEM_BOND_DEF_STEREO_COUNT>
0

> <PUBCHEM_BOND_UDEF_STEREO_COUNT>
0

> <PUBCHEM_ISOTOPIC_ATOM_COUNT>
0

> <PUBCHEM_COMPONENT_COUNT>
1

> <PUBCHEM_CACTVS_TAUTO_COUNT>
54

> <PUBCHEM_COORDINATE_TYPE>
1
5
255

> <PUBCHEM_BONDANNOTATIONS>
10  12  8
11  13  8
12  13  8
15  16  8
15  17  8
16  18  8
17  20  8
17  24  8
20  25  8
24  27  8
25  28  8
27  28  8
4  18  8
4  20  8
8  10  8
8  9  8
9  11  8

$$$$

