3978
  -OEChem-06251223483D

 38 42  0     1  0  0  0  0  0999 V2000
    2.9345    1.6756   -1.5941 O   0  0  0  0  0  0  0  0  0  0  0  0
    2.9243    2.9412    0.7831 O   0  0  0  0  0  0  0  0  0  0  0  0
   -3.5118    1.8091    0.3648 O   0  0  0  0  0  0  0  0  0  0  0  0
   -4.3331   -0.4522    0.4875 O   0  0  0  0  0  0  0  0  0  0  0  0
    1.3635   -2.2158   -0.5041 N   0  0  1  0  0  0  0  0  0  0  0  0
    1.9261   -0.8493   -0.5861 C   0  0  1  0  0  0  0  0  0  0  0  0
    1.0199    0.2862   -1.1440 C   0  0  2  0  0  0  0  0  0  0  0  0
    2.4346   -0.5626    0.8000 C   0  0  0  0  0  0  0  0  0  0  0  0
    1.7007    1.6495   -0.8614 C   0  0  1  0  0  0  0  0  0  0  0  0
    1.4844   -2.6571    0.8995 C   0  0  0  0  0  0  0  0  0  0  0  0
    2.6539   -1.8694    1.4796 C   0  0  0  0  0  0  0  0  0  0  0  0
   -0.4160    0.1153   -0.6736 C   0  0  0  0  0  0  0  0  0  0  0  0
    0.0028   -2.3412   -1.0281 C   0  0  0  0  0  0  0  0  0  0  0  0
    1.9882    1.8771    0.6368 C   0  0  1  0  0  0  0  0  0  0  0  0
   -0.9140   -1.2158   -0.6106 C   0  0  0  0  0  0  0  0  0  0  0  0
    2.4699    0.6519    1.3614 C   0  0  0  0  0  0  0  0  0  0  0  0
   -1.2681    1.1839   -0.3643 C   0  0  0  0  0  0  0  0  0  0  0  0
   -2.2363   -1.4739   -0.2252 C   0  0  0  0  0  0  0  0  0  0  0  0
   -2.5623    0.8947    0.0230 C   0  0  0  0  0  0  0  0  0  0  0  0
   -3.0320   -0.3951    0.0928 C   0  0  0  0  0  0  0  0  0  0  0  0
   -4.6292    0.9480    0.6630 C   0  0  0  0  0  0  0  0  0  0  0  0
    2.8079   -0.9258   -1.2378 H   0  0  0  0  0  0  0  0  0  0  0  0
    0.9828    0.1576   -2.2367 H   0  0  0  0  0  0  0  0  0  0  0  0
    1.1120    2.4874   -1.2507 H   0  0  0  0  0  0  0  0  0  0  0  0
    1.6627   -3.7358    0.9564 H   0  0  0  0  0  0  0  0  0  0  0  0
    0.5769   -2.4332    1.4764 H   0  0  0  0  0  0  0  0  0  0  0  0
    3.6148   -2.3010    1.1795 H   0  0  0  0  0  0  0  0  0  0  0  0
    2.6037   -1.8103    2.5704 H   0  0  0  0  0  0  0  0  0  0  0  0
   -0.4164   -3.3141   -0.7417 H   0  0  0  0  0  0  0  0  0  0  0  0
    0.0457   -2.3483   -2.1249 H   0  0  0  0  0  0  0  0  0  0  0  0
    1.0663    2.1949    1.1378 H   0  0  0  0  0  0  0  0  0  0  0  0
    2.7683    0.7599    2.4002 H   0  0  0  0  0  0  0  0  0  0  0  0
   -0.9439    2.2161   -0.4222 H   0  0  0  0  0  0  0  0  0  0  0  0
   -2.6249   -2.4855   -0.1829 H   0  0  0  0  0  0  0  0  0  0  0  0
    2.7163    1.5904   -2.5379 H   0  0  0  0  0  0  0  0  0  0  0  0
    2.5566    3.7189    0.3297 H   0  0  0  0  0  0  0  0  0  0  0  0
   -5.4638    1.2154    0.0047 H   0  0  0  0  0  0  0  0  0  0  0  0
   -4.9336    1.1150    1.7027 H   0  0  0  0  0  0  0  0  0  0  0  0
  1  9  1  0  0  0  0
  1 35  1  0  0  0  0
  2 14  1  0  0  0  0
  2 36  1  0  0  0  0
  3 19  1  0  0  0  0
  3 21  1  0  0  0  0
  4 20  1  0  0  0  0
  4 21  1  0  0  0  0
  5  6  1  0  0  0  0
  5 10  1  0  0  0  0
  5 13  1  0  0  0  0
  6  7  1  0  0  0  0
  6  8  1  0  0  0  0
  6 22  1  0  0  0  0
  7  9  1  0  0  0  0
  7 12  1  0  0  0  0
  7 23  1  0  0  0  0
  8 11  1  0  0  0  0
  8 16  2  0  0  0  0
  9 14  1  0  0  0  0
  9 24  1  0  0  0  0
 10 11  1  0  0  0  0
 10 25  1  0  0  0  0
 10 26  1  0  0  0  0
 11 27  1  0  0  0  0
 11 28  1  0  0  0  0
 12 15  1  0  0  0  0
 12 17  2  0  0  0  0
 13 15  1  0  0  0  0
 13 29  1  0  0  0  0
 13 30  1  0  0  0  0
 14 16  1  0  0  0  0
 14 31  1  0  0  0  0
 15 18  2  0  0  0  0
 16 32  1  0  0  0  0
 17 19  1  0  0  0  0
 17 33  1  0  0  0  0
 18 20  1  0  0  0  0
 18 34  1  0  0  0  0
 19 20  2  0  0  0  0
 21 37  1  0  0  0  0
 21 38  1  0  0  0  0
M  END
> <PUBCHEM_COMPOUND_CID>
3978

> <PUBCHEM_CONFORMER_RMSD>
0.6

> <PUBCHEM_CONFORMER_DIVERSEORDER>
4
6
10
1
5
11
3
8
2
7
9

> <PUBCHEM_MMFF94_PARTIAL_CHARGES>
26
1 -0.68
10 0.27
11 0.14
12 -0.14
13 0.41
14 0.42
15 -0.14
16 -0.29
17 -0.15
18 -0.15
19 0.08
2 -0.68
20 0.08
21 0.56
3 -0.36
32 0.15
33 0.15
34 0.15
35 0.4
36 0.4
4 -0.36
5 -0.81
6 0.41
7 0.14
8 -0.28
9 0.28

> <PUBCHEM_EFFECTIVE_ROTOR_COUNT>
1.6

> <PUBCHEM_PHARMACOPHORE_FEATURES>
12
1 1 acceptor
1 1 donor
1 2 acceptor
1 2 donor
1 3 acceptor
1 4 acceptor
1 5 cation
5 3 4 19 20 21 rings
5 5 6 8 10 11 rings
6 12 15 17 18 19 20 rings
6 5 6 7 12 13 15 rings
6 6 7 8 9 14 16 rings

> <PUBCHEM_HEAVY_ATOM_COUNT>
21

> <PUBCHEM_ATOM_DEF_STEREO_COUNT>
0

> <PUBCHEM_ATOM_UDEF_STEREO_COUNT>
4

> <PUBCHEM_BOND_DEF_STEREO_COUNT>
0

> <PUBCHEM_BOND_UDEF_STEREO_COUNT>
0

> <PUBCHEM_ISOTOPIC_ATOM_COUNT>
0

> <PUBCHEM_COMPONENT_COUNT>
1

> <PUBCHEM_CACTVS_TAUTO_COUNT>
1

> <PUBCHEM_CONFORMER_ID>
00000F8A00000004

> <PUBCHEM_MMFF94_ENERGY>
58.6824

> <PUBCHEM_FEATURE_SELFOVERLAP>
61.444

> <PUBCHEM_SHAPE_FINGERPRINT>
10382601 240 18059568088182217084
10948715 1 18191025608220477264
10980938 120 18409725166791593749
11086676 242 18128261275375905946
11578080 2 16629969956885725495
11640471 11 18114756935934606023
12011746 2 18265901447881133398
12251169 10 18411425046022606187
12633257 1 18200045039268011635
12644460 14 18129643305514936201
12696612 119 18340775939164612366
13140716 1 18411140216650109091
13224815 77 18333734611387713735
13533116 47 18343863338552334011
13583140 156 17988091092466430675
13965767 371 18341625801428752724
14178342 30 18198906903215294979
14223421 5 18413390925758157999
14787075 74 17186170764428164687
14790565 3 18342173316013575844
14955137 171 18336545027564824402
15163728 17 14346941642571502762
1601671 61 18263643029939615094
16945 1 18339094790159578830
17349148 13 18264789773586262335
18186145 218 15864063300114608047
18981168 100 14924512922814247343
20510252 161 17827351077734710249
20559304 39 18339356478174172095
20600515 1 17549544462688013846
20691752 17 17703792496279990783
20715895 44 17905051701087661545
20775530 9 14402684919109976521
21731228 192 18265906752423920962
21756936 100 17754468858967552312
2255824 54 18130496496483830014
22854114 111 18409448085540137577
23557571 272 15936704674613206839
23558518 356 17690562983765372116
23559900 14 18116707603165371967
2637199 183 18268131107433689980
276578 36 18340484457119622484
31174 14 18342181123667260839
427121 178 18190739743681773200
474 4 18059008367833212341
49207404 50 18340195320169221475
495365 180 18115039605397761985
5104073 3 18339630227570406401
5939293 188 18263927815834704160
7097593 13 18270129053021268019
7364860 26 18335134332196557390
7808743 9 17901669267622070616
81228 2 17474109795836475484

> <PUBCHEM_SHAPE_MULTIPOLES>
403.71
6.39
2.89
1.28
7.25
0.09
-0.01
-2.12
2.18
-2.16
0.19
-0.94
0.01
-0.67

> <PUBCHEM_SHAPE_SELFOVERLAP>
912.406

> <PUBCHEM_SHAPE_VOLUME>
211.3

> <PUBCHEM_COORDINATE_TYPE>
2
5
10

$$$$

