10525982
  -OEChem-07051213073D

 74 79  0     1  0  0  0  0  0999 V2000
    3.7655    1.9250   -0.8486 O   0  0  0  0  0  0  0  0  0  0  0  0
    7.8427    0.2759   -0.9530 O   0  0  0  0  0  0  0  0  0  0  0  0
   -6.6320    0.6785   -2.0302 O   0  0  0  0  0  0  0  0  0  0  0  0
    4.3131    0.9570    0.0600 C   0  0  2  0  0  0  0  0  0  0  0  0
    3.7030   -0.4425   -0.0347 C   0  0  1  0  0  0  0  0  0  0  0  0
    2.1393   -0.3423   -0.2550 C   0  0  2  0  0  0  0  0  0  0  0  0
    1.4654    0.5536    0.8363 C   0  0  2  0  0  0  0  0  0  0  0  0
    3.4644    2.1088    0.5470 C   0  0  2  0  0  0  0  0  0  0  0  0
   -0.0549    0.5517    0.6276 C   0  0  1  0  0  0  0  0  0  0  0  0
   -0.6795   -0.8568    0.6644 C   0  0  1  0  0  0  0  0  0  0  0  0
    1.9999    1.9968    0.8140 C   0  0  0  0  0  0  0  0  0  0  0  0
    1.4455   -1.7242   -0.4177 C   0  0  0  0  0  0  0  0  0  0  0  0
    5.8147    1.0447    0.1076 C   0  0  0  0  0  0  0  0  0  0  0  0
   -2.1703   -0.4739    0.4951 C   0  0  2  0  0  0  0  0  0  0  0  0
   -0.0875   -1.6525   -0.5053 C   0  0  0  0  0  0  0  0  0  0  0  0
    4.3709   -1.1656   -1.2408 C   0  0  0  0  0  0  0  0  0  0  0  0
   -0.9267    1.3579    1.5872 C   0  0  0  0  0  0  0  0  0  0  0  0
   -2.3358    0.7651    1.4054 C   0  0  0  0  0  0  0  0  0  0  0  0
    4.0288   -1.2158    1.2699 C   0  0  0  0  0  0  0  0  0  0  0  0
    6.4272    0.3223   -1.0925 C   0  0  2  0  0  0  0  0  0  0  0  0
    5.9028   -1.1074   -1.2220 C   0  0  0  0  0  0  0  0  0  0  0  0
   -0.4447   -1.6164    1.9935 C   0  0  0  0  0  0  0  0  0  0  0  0
   -3.1907   -1.5642    0.7884 C   0  0  1  0  0  0  0  0  0  0  0  0
   -4.6448   -1.0901    0.5895 C   0  0  0  0  0  0  0  0  0  0  0  0
   -2.9275   -2.7827   -0.1042 C   0  0  0  0  0  0  0  0  0  0  0  0
   -4.9604   -0.6825   -0.8519 C   0  0  0  0  0  0  0  0  0  0  0  0
   -6.3994   -0.2968   -1.0154 C   0  0  1  0  0  0  0  0  0  0  0  0
   -6.8946    1.0695   -0.6765 C   0  0  0  0  0  0  0  0  0  0  0  0
   -6.0018    2.1348   -0.1606 C   0  0  0  0  0  0  0  0  0  0  0  0
   -8.3325    1.2722   -0.3774 C   0  0  0  0  0  0  0  0  0  0  0  0
    1.9773    0.1709   -1.2159 H   0  0  0  0  0  0  0  0  0  0  0  0
    1.6858    0.1443    1.8270 H   0  0  0  0  0  0  0  0  0  0  0  0
    3.9274    2.9517    1.0414 H   0  0  0  0  0  0  0  0  0  0  0  0
   -0.2311    0.9789   -0.3744 H   0  0  0  0  0  0  0  0  0  0  0  0
    1.4693    2.5889    0.0571 H   0  0  0  0  0  0  0  0  0  0  0  0
    1.7792    2.4709    1.7783 H   0  0  0  0  0  0  0  0  0  0  0  0
    1.7132   -2.3906    0.4068 H   0  0  0  0  0  0  0  0  0  0  0  0
    1.8081   -2.2098   -1.3311 H   0  0  0  0  0  0  0  0  0  0  0  0
    6.1940    0.6280    1.0479 H   0  0  0  0  0  0  0  0  0  0  0  0
    6.1525    2.0894    0.1057 H   0  0  0  0  0  0  0  0  0  0  0  0
   -2.2977   -0.1337   -0.5417 H   0  0  0  0  0  0  0  0  0  0  0  0
   -0.3638   -1.1890   -1.4611 H   0  0  0  0  0  0  0  0  0  0  0  0
   -0.4403   -2.6832   -0.5434 H   0  0  0  0  0  0  0  0  0  0  0  0
    4.0252   -0.7055   -2.1761 H   0  0  0  0  0  0  0  0  0  0  0  0
    4.0683   -2.2185   -1.2755 H   0  0  0  0  0  0  0  0  0  0  0  0
   -0.9129    2.4274    1.3537 H   0  0  0  0  0  0  0  0  0  0  0  0
   -0.5946    1.2411    2.6249 H   0  0  0  0  0  0  0  0  0  0  0  0
   -2.7546    0.5085    2.3851 H   0  0  0  0  0  0  0  0  0  0  0  0
   -3.0067    1.4964    0.9422 H   0  0  0  0  0  0  0  0  0  0  0  0
    5.1055   -1.2888    1.4516 H   0  0  0  0  0  0  0  0  0  0  0  0
    3.6125   -0.7214    2.1524 H   0  0  0  0  0  0  0  0  0  0  0  0
    3.6546   -2.2428    1.2430 H   0  0  0  0  0  0  0  0  0  0  0  0
    6.2021    0.8753   -2.0119 H   0  0  0  0  0  0  0  0  0  0  0  0
    6.2987   -1.7313   -0.4115 H   0  0  0  0  0  0  0  0  0  0  0  0
    6.2974   -1.5554   -2.1428 H   0  0  0  0  0  0  0  0  0  0  0  0
    0.6159   -1.7062    2.2435 H   0  0  0  0  0  0  0  0  0  0  0  0
   -0.9246   -1.1236    2.8452 H   0  0  0  0  0  0  0  0  0  0  0  0
   -0.8355   -2.6373    1.9492 H   0  0  0  0  0  0  0  0  0  0  0  0
   -3.1137   -1.8856    1.8345 H   0  0  0  0  0  0  0  0  0  0  0  0
   -4.8630   -0.2578    1.2683 H   0  0  0  0  0  0  0  0  0  0  0  0
   -5.3274   -1.8965    0.8900 H   0  0  0  0  0  0  0  0  0  0  0  0
   -2.1381   -3.4165    0.3050 H   0  0  0  0  0  0  0  0  0  0  0  0
   -2.6851   -2.5092   -1.1358 H   0  0  0  0  0  0  0  0  0  0  0  0
   -3.8128   -3.4294   -0.1413 H   0  0  0  0  0  0  0  0  0  0  0  0
    8.0488   -0.2035   -0.1324 H   0  0  0  0  0  0  0  0  0  0  0  0
   -4.7762   -1.5206   -1.5330 H   0  0  0  0  0  0  0  0  0  0  0  0
   -4.3073    0.1288   -1.1844 H   0  0  0  0  0  0  0  0  0  0  0  0
   -7.0758   -1.1389   -0.9502 H   0  0  0  0  0  0  0  0  0  0  0  0
   -5.0130    2.1297   -0.6285 H   0  0  0  0  0  0  0  0  0  0  0  0
   -5.8657    2.0296    0.9206 H   0  0  0  0  0  0  0  0  0  0  0  0
   -6.4293    3.1263   -0.3477 H   0  0  0  0  0  0  0  0  0  0  0  0
   -8.6871    2.2252   -0.7843 H   0  0  0  0  0  0  0  0  0  0  0  0
   -8.5021    1.2790    0.7044 H   0  0  0  0  0  0  0  0  0  0  0  0
   -8.9575    0.4802   -0.8048 H   0  0  0  0  0  0  0  0  0  0  0  0
  1  4  1  0  0  0  0
  1  8  1  0  0  0  0
  2 20  1  0  0  0  0
  2 65  1  0  0  0  0
  3 27  1  0  0  0  0
  3 28  1  0  0  0  0
  4  5  1  0  0  0  0
  4  8  1  0  0  0  0
  4 13  1  0  0  0  0
  5  6  1  0  0  0  0
  5 16  1  0  0  0  0
  5 19  1  0  0  0  0
  6  7  1  0  0  0  0
  6 12  1  0  0  0  0
  6 31  1  0  0  0  0
  7  9  1  0  0  0  0
  7 11  1  0  0  0  0
  7 32  1  0  0  0  0
  8 11  1  0  0  0  0
  8 33  1  0  0  0  0
  9 10  1  0  0  0  0
  9 17  1  0  0  0  0
  9 34  1  0  0  0  0
 10 14  1  0  0  0  0
 10 15  1  0  0  0  0
 10 22  1  0  0  0  0
 11 35  1  0  0  0  0
 11 36  1  0  0  0  0
 12 15  1  0  0  0  0
 12 37  1  0  0  0  0
 12 38  1  0  0  0  0
 13 20  1  0  0  0  0
 13 39  1  0  0  0  0
 13 40  1  0  0  0  0
 14 18  1  0  0  0  0
 14 23  1  0  0  0  0
 14 41  1  0  0  0  0
 15 42  1  0  0  0  0
 15 43  1  0  0  0  0
 16 21  1  0  0  0  0
 16 44  1  0  0  0  0
 16 45  1  0  0  0  0
 17 18  1  0  0  0  0
 17 46  1  0  0  0  0
 17 47  1  0  0  0  0
 18 48  1  0  0  0  0
 18 49  1  0  0  0  0
 19 50  1  0  0  0  0
 19 51  1  0  0  0  0
 19 52  1  0  0  0  0
 20 21  1  0  0  0  0
 20 53  1  0  0  0  0
 21 54  1  0  0  0  0
 21 55  1  0  0  0  0
 22 56  1  0  0  0  0
 22 57  1  0  0  0  0
 22 58  1  0  0  0  0
 23 24  1  0  0  0  0
 23 25  1  0  0  0  0
 23 59  1  0  0  0  0
 24 26  1  0  0  0  0
 24 60  1  0  0  0  0
 24 61  1  0  0  0  0
 25 62  1  0  0  0  0
 25 63  1  0  0  0  0
 25 64  1  0  0  0  0
 26 27  1  0  0  0  0
 26 66  1  0  0  0  0
 26 67  1  0  0  0  0
 27 28  1  0  0  0  0
 27 68  1  0  0  0  0
 28 29  1  0  0  0  0
 28 30  1  0  0  0  0
 29 69  1  0  0  0  0
 29 70  1  0  0  0  0
 29 71  1  0  0  0  0
 30 72  1  0  0  0  0
 30 73  1  0  0  0  0
 30 74  1  0  0  0  0
M  END
> <PUBCHEM_COMPOUND_CID>
10525982

> <PUBCHEM_CONFORMER_RMSD>
0.8

> <PUBCHEM_CONFORMER_DIVERSEORDER>
3
8
10
5
6
4
9
2
7
1

> <PUBCHEM_MMFF94_PARTIAL_CHARGES>
17
1 -0.3
11 0.09
13 0.09
2 -0.68
20 0.28
26 0.09
27 -0.05
28 -0.04
29 0.09
3 -0.3
30 0.09
33 0.1
4 -0.04
5 0.09
65 0.4
68 0.1
8 -0.05

> <PUBCHEM_EFFECTIVE_ROTOR_COUNT>
6.8

> <PUBCHEM_PHARMACOPHORE_FEATURES>
10
1 1 acceptor
1 2 acceptor
1 2 donor
1 25 hydrophobe
1 3 acceptor
3 28 29 30 hydrophobe
5 9 10 14 17 18 rings
6 4 5 13 16 20 21 rings
6 6 7 9 10 12 15 rings
7 1 4 5 6 7 8 11 rings

> <PUBCHEM_HEAVY_ATOM_COUNT>
30

> <PUBCHEM_ATOM_DEF_STEREO_COUNT>
11

> <PUBCHEM_ATOM_UDEF_STEREO_COUNT>
0

> <PUBCHEM_BOND_DEF_STEREO_COUNT>
0

> <PUBCHEM_BOND_UDEF_STEREO_COUNT>
0

> <PUBCHEM_ISOTOPIC_ATOM_COUNT>
0

> <PUBCHEM_COMPONENT_COUNT>
1

> <PUBCHEM_CACTVS_TAUTO_COUNT>
1

> <PUBCHEM_CONFORMER_ID>
00A09D1E00000003

> <PUBCHEM_MMFF94_ENERGY>
98.8222

> <PUBCHEM_FEATURE_SELFOVERLAP>
50.834

> <PUBCHEM_SHAPE_FINGERPRINT>
10 15 9871742486303452782
106641 1 11671777170382240517
10763959 59 18272087158607551308
10835480 77 18262522481092941000
10906281 52 18114169870457483035
11646440 116 13542464263209824334
11796584 16 18411702045638425258
12011746 2 18408880720639878354
12236239 1 16588014697993729394
12670543 26 18333450941556055641
12788726 201 17968096473446629723
12838862 33 18187090529905042392
13540713 4 17971763164342086403
13690498 29 18116160961709773759
13782708 43 5112017126842507660
13914758 101 18342740736536620826
14251764 18 12319731458357183483
14294032 229 17605826139606404649
14849402 71 13326272763613247607
14931854 50 18337095831519355870
15082195 135 18262514793365569560
15183329 4 18408888455992042553
15188451 53 5039950741444062561
15510800 12 6050156796829210021
16992727 255 18042681883752224809
18222031 100 15068620457479804745
18608769 82 18340205199411965419
20715895 44 18410858759048244991
21033648 29 17775006726328988008
21267235 1 18115852054523066298
21279426 13 18335136462595249115
21424621 283 17489590099723151585
21637258 2 14129059222876542259
21792961 116 18409161109043020227
21859007 373 18339658779769873040
221357 26 18261112984574450024
22224240 67 12535627181211461825
22393880 68 18337395933120765963
23522609 53 8789758324153680339
23559900 14 18261111816316498104
23569914 152 17321825700502430479
23576562 1 18264774251142016333
249057 3 18410009927392074605
2838139 119 18200887248722706853
29717793 49 17967529073553739140
3004659 81 18334860510724902624
3009799 131 18333733515638335643
335352 9 18333446538734548900
3633792 109 18040996237346018136
4058900 60 18130783481872453011
4340502 62 10735878378613863936
474113 269 18338237197899473502
484989 97 18187925011057859131
5283173 99 18410859841675337889
9953998 17 10663820789503906285

> <PUBCHEM_SHAPE_MULTIPOLES>
599.78
19.77
2.31
1.46
14.45
0.05
0.13
-6.53
-10.81
0.71
0.22
0.31
0.12
0.91

> <PUBCHEM_SHAPE_SELFOVERLAP>
1273.678

> <PUBCHEM_SHAPE_VOLUME>
335.8

> <PUBCHEM_COORDINATE_TYPE>
2
5
10

$$$$

