8004
  -OEChem-06261202323D

 15 14  0     0  0  0  0  0  0999 V2000
   -1.1475   -0.5166    0.0314 C   0  0  0  0  0  0  0  0  0  0  0  0
   -0.0240    0.4905   -0.2158 C   0  0  0  0  0  0  0  0  0  0  0  0
   -2.4950    0.1756    0.1656 C   0  0  0  0  0  0  0  0  0  0  0  0
    1.2994   -0.1978   -0.3743 C   0  0  0  0  0  0  0  0  0  0  0  0
    2.3672    0.0482    0.3931 C   0  0  0  0  0  0  0  0  0  0  0  0
   -0.9450   -1.0880    0.9455 H   0  0  0  0  0  0  0  0  0  0  0  0
   -1.1970   -1.2373   -0.7941 H   0  0  0  0  0  0  0  0  0  0  0  0
    0.0098    1.2155    0.6067 H   0  0  0  0  0  0  0  0  0  0  0  0
   -0.2309    1.0568   -1.1319 H   0  0  0  0  0  0  0  0  0  0  0  0
   -2.4933    0.8781    1.0052 H   0  0  0  0  0  0  0  0  0  0  0  0
   -3.2841   -0.5621    0.3418 H   0  0  0  0  0  0  0  0  0  0  0  0
   -2.7443    0.7288   -0.7455 H   0  0  0  0  0  0  0  0  0  0  0  0
    1.3915   -0.9272   -1.1750 H   0  0  0  0  0  0  0  0  0  0  0  0
    3.2997   -0.4783    0.2215 H   0  0  0  0  0  0  0  0  0  0  0  0
    2.3318    0.7719    1.1997 H   0  0  0  0  0  0  0  0  0  0  0  0
  1  2  1  0  0  0  0
  1  3  1  0  0  0  0
  1  6  1  0  0  0  0
  1  7  1  0  0  0  0
  2  4  1  0  0  0  0
  2  8  1  0  0  0  0
  2  9  1  0  0  0  0
  3 10  1  0  0  0  0
  3 11  1  0  0  0  0
  3 12  1  0  0  0  0
  4  5  2  0  0  0  0
  4 13  1  0  0  0  0
  5 14  1  0  0  0  0
  5 15  1  0  0  0  0
M  END
> <PUBCHEM_COMPOUND_CID>
8004

> <PUBCHEM_CONFORMER_RMSD>
0.4

> <PUBCHEM_CONFORMER_DIVERSEORDER>
1
7
8
5
6
3
4
2

> <PUBCHEM_MMFF94_PARTIAL_CHARGES>
6
13 0.15
14 0.15
15 0.15
2 0.14
4 -0.29
5 -0.3

> <PUBCHEM_EFFECTIVE_ROTOR_COUNT>
2

> <PUBCHEM_PHARMACOPHORE_FEATURES>
2
1 3 hydrophobe
1 5 hydrophobe

> <PUBCHEM_HEAVY_ATOM_COUNT>
5

> <PUBCHEM_ATOM_DEF_STEREO_COUNT>
0

> <PUBCHEM_ATOM_UDEF_STEREO_COUNT>
0

> <PUBCHEM_BOND_DEF_STEREO_COUNT>
0

> <PUBCHEM_BOND_UDEF_STEREO_COUNT>
0

> <PUBCHEM_ISOTOPIC_ATOM_COUNT>
0

> <PUBCHEM_COMPONENT_COUNT>
1

> <PUBCHEM_CACTVS_TAUTO_COUNT>
1

> <PUBCHEM_CONFORMER_ID>
00001F4400000001

> <PUBCHEM_MMFF94_ENERGY>
-2.0937

> <PUBCHEM_FEATURE_SELFOVERLAP>
10.149

> <PUBCHEM_SHAPE_FINGERPRINT>
139733 1 6050447011251607092
14390081 3 15647055966688868083
16714656 1 18060419131477350711
20096714 4 4895546407384837082
29004967 10 15913326896726766116
5460574 1 9655579608204690807

> <PUBCHEM_SHAPE_MULTIPOLES>
102.9
3.58
0.73
0.69
0.32
0
0
-0.07
0.53
0.07
-0.01
-0.1
0
0.02

> <PUBCHEM_SHAPE_SELFOVERLAP>
173.112

> <PUBCHEM_SHAPE_VOLUME>
70.4

> <PUBCHEM_COORDINATE_TYPE>
2
5
10

$$$$

