3824
  -OEChem-06251223422D

 42 44  0     0  0  0  0  0  0999 V2000
    2.5033   -0.7132    0.0000 O   0  0  0  0  0  0  0  0  0  0  0  0
    5.3511    1.3559    0.0000 O   0  0  0  0  0  0  0  0  0  0  0  0
    2.0000    2.9739    0.0000 O   0  0  0  0  0  0  0  0  0  0  0  0
    4.2634   -0.9920    0.0000 N   0  0  0  0  0  0  0  0  0  0  0  0
    5.0724   -0.4042    0.0000 N   0  0  0  0  0  0  0  0  0  0  0  0
    3.7634    0.5469    0.0000 C   0  0  0  0  0  0  0  0  0  0  0  0
    3.1756    1.3559    0.0000 C   0  0  0  0  0  0  0  0  0  0  0  0
    4.7634    0.5469    0.0000 C   0  0  0  0  0  0  0  0  0  0  0  0
    3.4543   -0.4042    0.0000 C   0  0  0  0  0  0  0  0  0  0  0  0
    3.5823    2.2694    0.0000 C   0  0  0  0  0  0  0  0  0  0  0  0
    4.2634   -1.9920    0.0000 C   0  0  0  0  0  0  0  0  0  0  0  0
    6.0234   -0.7132    0.0000 C   0  0  0  0  0  0  0  0  0  0  0  0
    2.9945    3.0784    0.0000 C   0  0  0  0  0  0  0  0  0  0  0  0
    3.3973   -2.4920    0.0000 C   0  0  0  0  0  0  0  0  0  0  0  0
    6.2313   -1.6914    0.0000 C   0  0  0  0  0  0  0  0  0  0  0  0
    5.1294   -2.4920    0.0000 C   0  0  0  0  0  0  0  0  0  0  0  0
    6.7666   -0.0441    0.0000 C   0  0  0  0  0  0  0  0  0  0  0  0
    3.4013    3.9920    0.0000 C   0  0  0  0  0  0  0  0  0  0  0  0
    3.3973   -3.4920    0.0000 C   0  0  0  0  0  0  0  0  0  0  0  0
    7.1824   -2.0004    0.0000 C   0  0  0  0  0  0  0  0  0  0  0  0
    5.1294   -3.4920    0.0000 C   0  0  0  0  0  0  0  0  0  0  0  0
    7.7176   -0.3531    0.0000 C   0  0  0  0  0  0  0  0  0  0  0  0
    4.2634   -3.9920    0.0000 C   0  0  0  0  0  0  0  0  0  0  0  0
    7.9255   -1.3312    0.0000 C   0  0  0  0  0  0  0  0  0  0  0  0
    4.0448    1.0993    0.0000 H   0  0  0  0  0  0  0  0  0  0  0  0
    2.6616    1.7026    0.0000 H   0  0  0  0  0  0  0  0  0  0  0  0
    2.7449    0.9099    0.0000 H   0  0  0  0  0  0  0  0  0  0  0  0
    4.0963    1.9227    0.0000 H   0  0  0  0  0  0  0  0  0  0  0  0
    4.0130    2.7154    0.0000 H   0  0  0  0  0  0  0  0  0  0  0  0
    2.8604   -2.1820    0.0000 H   0  0  0  0  0  0  0  0  0  0  0  0
    5.7706   -2.1062    0.0000 H   0  0  0  0  0  0  0  0  0  0  0  0
    5.6663   -2.1820    0.0000 H   0  0  0  0  0  0  0  0  0  0  0  0
    6.6377    0.5624    0.0000 H   0  0  0  0  0  0  0  0  0  0  0  0
    3.9677    3.7398    0.0000 H   0  0  0  0  0  0  0  0  0  0  0  0
    3.6534    4.5584    0.0000 H   0  0  0  0  0  0  0  0  0  0  0  0
    2.8349    4.2442    0.0000 H   0  0  0  0  0  0  0  0  0  0  0  0
    2.8604   -3.8020    0.0000 H   0  0  0  0  0  0  0  0  0  0  0  0
    7.3113   -2.6068    0.0000 H   0  0  0  0  0  0  0  0  0  0  0  0
    5.6663   -3.8020    0.0000 H   0  0  0  0  0  0  0  0  0  0  0  0
    8.1784    0.0618    0.0000 H   0  0  0  0  0  0  0  0  0  0  0  0
    4.2634   -4.6120    0.0000 H   0  0  0  0  0  0  0  0  0  0  0  0
    8.5152   -1.5228    0.0000 H   0  0  0  0  0  0  0  0  0  0  0  0
  1  9  2  0  0  0  0
  2  8  2  0  0  0  0
  3 13  2  0  0  0  0
  4  5  1  0  0  0  0
  4  9  1  0  0  0  0
  4 11  1  0  0  0  0
  5  8  1  0  0  0  0
  5 12  1  0  0  0  0
  6  7  1  0  0  0  0
  6  8  1  0  0  0  0
  6  9  1  0  0  0  0
  6 25  1  0  0  0  0
  7 10  1  0  0  0  0
  7 26  1  0  0  0  0
  7 27  1  0  0  0  0
 10 13  1  0  0  0  0
 10 28  1  0  0  0  0
 10 29  1  0  0  0  0
 11 14  2  0  0  0  0
 11 16  1  0  0  0  0
 12 15  2  0  0  0  0
 12 17  1  0  0  0  0
 13 18  1  0  0  0  0
 14 19  1  0  0  0  0
 14 30  1  0  0  0  0
 15 20  1  0  0  0  0
 15 31  1  0  0  0  0
 16 21  2  0  0  0  0
 16 32  1  0  0  0  0
 17 22  2  0  0  0  0
 17 33  1  0  0  0  0
 18 34  1  0  0  0  0
 18 35  1  0  0  0  0
 18 36  1  0  0  0  0
 19 23  2  0  0  0  0
 19 37  1  0  0  0  0
 20 24  2  0  0  0  0
 20 38  1  0  0  0  0
 21 23  1  0  0  0  0
 21 39  1  0  0  0  0
 22 24  1  0  0  0  0
 22 40  1  0  0  0  0
 23 41  1  0  0  0  0
 24 42  1  0  0  0  0
M  END
> <PUBCHEM_COMPOUND_CID>
3824

> <PUBCHEM_COMPOUND_CANONICALIZED>
1

> <PUBCHEM_CACTVS_COMPLEXITY>
457

> <PUBCHEM_CACTVS_HBOND_ACCEPTOR>
3

> <PUBCHEM_CACTVS_HBOND_DONOR>
0

> <PUBCHEM_CACTVS_ROTATABLE_BOND>
5

> <PUBCHEM_CACTVS_SUBSKEYS>
AAADceB7MAAAAAAAAAAAAAAAAAAAAWAAAAAwYAAAAAAAAAABQAAAHgAIAAAADQyBkAAywIIAAACIAKVSUACCBAAhAgAaiAEAZIgIIDrI0ZGEIAhghADIyAcYCwAsAAAAAAAAAAAAAAAAAAAAAAAAAAAAAA==

> <PUBCHEM_IUPAC_OPENEYE_NAME>
4-(3-oxobutyl)-1,2-diphenyl-pyrazolidine-3,5-dione

> <PUBCHEM_IUPAC_CAS_NAME>
4-(3-oxobutyl)-1,2-diphenylpyrazolidine-3,5-dione

> <PUBCHEM_IUPAC_NAME>
4-(3-oxobutyl)-1,2-diphenylpyrazolidine-3,5-dione

> <PUBCHEM_IUPAC_SYSTEMATIC_NAME>
4-(3-oxidanylidenebutyl)-1,2-diphenyl-pyrazolidine-3,5-dione

> <PUBCHEM_IUPAC_TRADITIONAL_NAME>
4-(3-ketobutyl)-1,2-diphenyl-pyrazolidine-3,5-quinone

> <PUBCHEM_IUPAC_INCHI>
InChI=1S/C19H18N2O3/c1-14(22)12-13-17-18(23)20(15-8-4-2-5-9-15)21(19(17)24)16-10-6-3-7-11-16/h2-11,17H,12-13H2,1H3

> <PUBCHEM_IUPAC_INCHIKEY>
LGYTZKPVOAIUKX-UHFFFAOYSA-N

> <PUBCHEM_XLOGP3>
1.2

> <PUBCHEM_EXACT_MASS>
322.131742

> <PUBCHEM_MOLECULAR_FORMULA>
C19H18N2O3

> <PUBCHEM_MOLECULAR_WEIGHT>
322.35782

> <PUBCHEM_OPENEYE_CAN_SMILES>
CC(=O)CCC1C(=O)N(N(C1=O)C2=CC=CC=C2)C3=CC=CC=C3

> <PUBCHEM_OPENEYE_ISO_SMILES>
CC(=O)CCC1C(=O)N(N(C1=O)C2=CC=CC=C2)C3=CC=CC=C3

> <PUBCHEM_CACTVS_TPSA>
57.7

> <PUBCHEM_MONOISOTOPIC_WEIGHT>
322.131742

> <PUBCHEM_TOTAL_CHARGE>
0

> <PUBCHEM_HEAVY_ATOM_COUNT>
24

> <PUBCHEM_ATOM_DEF_STEREO_COUNT>
0

> <PUBCHEM_ATOM_UDEF_STEREO_COUNT>
0

> <PUBCHEM_BOND_DEF_STEREO_COUNT>
0

> <PUBCHEM_BOND_UDEF_STEREO_COUNT>
0

> <PUBCHEM_ISOTOPIC_ATOM_COUNT>
0

> <PUBCHEM_COMPONENT_COUNT>
1

> <PUBCHEM_CACTVS_TAUTO_COUNT>
6

> <PUBCHEM_COORDINATE_TYPE>
1
5
255

> <PUBCHEM_BONDANNOTATIONS>
11  14  8
11  16  8
12  15  8
12  17  8
14  19  8
15  20  8
16  21  8
17  22  8
19  23  8
20  24  8
21  23  8
22  24  8

$$$$

