5284595
  -OEChem-07051213023D

 44 48  0     1  0  0  0  0  0999 V2000
   -2.3508   -0.1248    1.4191 O   0  0  0  0  0  0  0  0  0  0  0  0
   -3.6349   -2.0958    0.2851 O   0  0  0  0  0  0  0  0  0  0  0  0
   -3.6928    2.3791    0.8189 O   0  0  0  0  0  0  0  0  0  0  0  0
    2.6653   -0.5327   -0.0611 N   0  0  2  0  0  0  0  0  0  0  0  0
   -0.1544   -0.7689    0.5867 C   0  0  1  0  0  0  0  0  0  0  0  0
    0.5014   -1.5593   -0.5558 C   0  0  2  0  0  0  0  0  0  0  0  0
    1.6446   -0.6603   -1.1293 C   0  0  1  0  0  0  0  0  0  0  0  0
   -1.4992   -1.2916    1.1437 C   0  0  2  0  0  0  0  0  0  0  0  0
    0.8883   -0.5076    1.6914 C   0  0  0  0  0  0  0  0  0  0  0  0
   -0.6558    0.5254    0.0365 C   0  0  0  0  0  0  0  0  0  0  0  0
    1.1159    0.6995   -1.7025 C   0  0  0  0  0  0  0  0  0  0  0  0
    2.1780    0.1323    1.1515 C   0  0  0  0  0  0  0  0  0  0  0  0
   -0.0714    1.2685   -0.9733 C   0  0  0  0  0  0  0  0  0  0  0  0
   -2.2262   -2.3037    0.2201 C   0  0  2  0  0  0  0  0  0  0  0  0
   -0.5149   -2.0099   -1.5739 C   0  0  0  0  0  0  0  0  0  0  0  0
   -1.8701    0.8562    0.5945 C   0  0  0  0  0  0  0  0  0  0  0  0
   -1.7666   -2.3300   -1.2133 C   0  0  0  0  0  0  0  0  0  0  0  0
    3.9191    0.0537   -0.5231 C   0  0  0  0  0  0  0  0  0  0  0  0
   -0.7012    2.4615   -1.3319 C   0  0  0  0  0  0  0  0  0  0  0  0
   -2.5060    2.0324    0.2631 C   0  0  0  0  0  0  0  0  0  0  0  0
   -1.9006    2.8485   -0.7011 C   0  0  0  0  0  0  0  0  0  0  0  0
    4.9957   -0.0600    0.5120 C   0  0  0  0  0  0  0  0  0  0  0  0
    5.6365    0.9877    1.0428 C   0  0  0  0  0  0  0  0  0  0  0  0
    0.9555   -2.4797   -0.1582 H   0  0  0  0  0  0  0  0  0  0  0  0
    2.1143   -1.2064   -1.9592 H   0  0  0  0  0  0  0  0  0  0  0  0
   -1.3497   -1.7808    2.1150 H   0  0  0  0  0  0  0  0  0  0  0  0
    1.1435   -1.4644    2.1671 H   0  0  0  0  0  0  0  0  0  0  0  0
    0.4786    0.1344    2.4820 H   0  0  0  0  0  0  0  0  0  0  0  0
    0.7966    0.5136   -2.7371 H   0  0  0  0  0  0  0  0  0  0  0  0
    1.9070    1.4529   -1.7587 H   0  0  0  0  0  0  0  0  0  0  0  0
    2.0148    1.2027    0.9735 H   0  0  0  0  0  0  0  0  0  0  0  0
    2.9105    0.0644    1.9641 H   0  0  0  0  0  0  0  0  0  0  0  0
   -2.0442   -3.3141    0.6091 H   0  0  0  0  0  0  0  0  0  0  0  0
   -0.2118   -2.1161   -2.6108 H   0  0  0  0  0  0  0  0  0  0  0  0
   -2.4563   -2.6945   -1.9691 H   0  0  0  0  0  0  0  0  0  0  0  0
    3.7912    1.1021   -0.8159 H   0  0  0  0  0  0  0  0  0  0  0  0
    4.2718   -0.4832   -1.4125 H   0  0  0  0  0  0  0  0  0  0  0  0
   -0.2870    3.0867   -2.1183 H   0  0  0  0  0  0  0  0  0  0  0  0
   -2.3776    3.7791   -0.9998 H   0  0  0  0  0  0  0  0  0  0  0  0
   -3.8890   -2.1105    1.2237 H   0  0  0  0  0  0  0  0  0  0  0  0
    5.2763   -1.0588    0.8379 H   0  0  0  0  0  0  0  0  0  0  0  0
   -3.9497    1.6845    1.4500 H   0  0  0  0  0  0  0  0  0  0  0  0
    6.4122    0.8379    1.7856 H   0  0  0  0  0  0  0  0  0  0  0  0
    5.4007    2.0050    0.7508 H   0  0  0  0  0  0  0  0  0  0  0  0
  1  8  1  0  0  0  0
  1 16  1  0  0  0  0
  2 14  1  0  0  0  0
  2 40  1  0  0  0  0
  3 20  1  0  0  0  0
  3 42  1  0  0  0  0
  4  7  1  0  0  0  0
  4 12  1  0  0  0  0
  4 18  1  0  0  0  0
  5  6  1  0  0  0  0
  5  8  1  0  0  0  0
  5  9  1  0  0  0  0
  5 10  1  0  0  0  0
  6  7  1  0  0  0  0
  6 15  1  0  0  0  0
  6 24  1  0  0  0  0
  7 11  1  0  0  0  0
  7 25  1  0  0  0  0
  8 14  1  0  0  0  0
  8 26  1  0  0  0  0
  9 12  1  0  0  0  0
  9 27  1  0  0  0  0
  9 28  1  0  0  0  0
 10 13  2  0  0  0  0
 10 16  1  0  0  0  0
 11 13  1  0  0  0  0
 11 29  1  0  0  0  0
 11 30  1  0  0  0  0
 12 31  1  0  0  0  0
 12 32  1  0  0  0  0
 13 19  1  0  0  0  0
 14 17  1  0  0  0  0
 14 33  1  0  0  0  0
 15 17  2  0  0  0  0
 15 34  1  0  0  0  0
 16 20  2  0  0  0  0
 17 35  1  0  0  0  0
 18 22  1  0  0  0  0
 18 36  1  0  0  0  0
 18 37  1  0  0  0  0
 19 21  2  0  0  0  0
 19 38  1  0  0  0  0
 20 21  1  0  0  0  0
 21 39  1  0  0  0  0
 22 23  2  0  0  0  0
 22 41  1  0  0  0  0
 23 43  1  0  0  0  0
 23 44  1  0  0  0  0
M  END
> <PUBCHEM_COMPOUND_CID>
5284595

> <PUBCHEM_CONFORMER_RMSD>
0.6

> <PUBCHEM_CONFORMER_DIVERSEORDER>
1
3
2
4
5

> <PUBCHEM_MMFF94_PARTIAL_CHARGES>
31
1 -0.36
10 -0.14
11 0.14
12 0.27
13 -0.14
14 0.42
15 -0.29
16 0.08
17 -0.29
18 0.41
19 -0.15
2 -0.68
20 0.08
21 -0.15
22 -0.29
23 -0.3
3 -0.53
34 0.15
35 0.15
38 0.15
39 0.15
4 -0.81
40 0.4
41 0.15
42 0.45
43 0.15
44 0.15
5 0.14
6 0.14
7 0.27
8 0.28

> <PUBCHEM_EFFECTIVE_ROTOR_COUNT>
3.2

> <PUBCHEM_PHARMACOPHORE_FEATURES>
11
1 1 acceptor
1 2 acceptor
1 2 donor
1 23 hydrophobe
1 3 donor
1 4 cation
5 1 5 8 10 16 rings
6 10 13 16 19 20 21 rings
6 4 5 6 7 9 12 rings
6 5 6 7 10 11 13 rings
6 5 6 8 14 15 17 rings

> <PUBCHEM_HEAVY_ATOM_COUNT>
23

> <PUBCHEM_ATOM_DEF_STEREO_COUNT>
5

> <PUBCHEM_ATOM_UDEF_STEREO_COUNT>
0

> <PUBCHEM_BOND_DEF_STEREO_COUNT>
0

> <PUBCHEM_BOND_UDEF_STEREO_COUNT>
0

> <PUBCHEM_ISOTOPIC_ATOM_COUNT>
0

> <PUBCHEM_COMPONENT_COUNT>
1

> <PUBCHEM_CACTVS_TAUTO_COUNT>
3

> <PUBCHEM_CONFORMER_ID>
0050A2F300000001

> <PUBCHEM_MMFF94_ENERGY>
77.8979

> <PUBCHEM_FEATURE_SELFOVERLAP>
57.947

> <PUBCHEM_SHAPE_FINGERPRINT>
10165383 225 18188483708998945408
10369192 42 16590833704949730152
10863032 1 18262233455626565966
10948715 1 18118404179165223549
11578080 2 17969201465331348964
12403814 3 18262236608311909314
12422481 6 18192681571637637955
13004483 165 18192161386198874271
13140716 1 18129925811410879225
13583140 156 17824007626669236506
13681431 1 17546190513962650311
14142880 1 18411145739809181764
14251740 79 8286203863998942220
14817 1 16155928536979856359
16945 1 17986084483191663375
17357779 13 17896623699072051487
17492 54 17913241834057950117
17980427 23 18343294851663661125
18393751 57 17762355617635161104
18981168 100 17460339693005244888
200 152 17203342057031914290
22112679 90 18268976601494018031
22182313 1 18050537894004902015
23227448 37 18410860945329530140
23402539 116 18340211786609961015
23419403 2 16517966920974864531
23557571 272 18335685144799052030
23559900 14 18263910207386786510
238 59 17402629931030152205
2748010 2 17481119616587872077
34934 24 17988644146171740721
3729539 64 17540231565290114254
4340502 62 17896588669566717745
5104073 3 18339098038235880664
5845 1 8707951248451767743
7471813 234 18124598578826629415
81228 2 18340222807690779779
9862522 239 18057892526755783228
9925002 15 17683240265945907222

> <PUBCHEM_SHAPE_MULTIPOLES>
450.74
6.77
2.88
1.58
10.63
0.7
-0.13
1.42
2.51
-3.66
-0.78
0.07
-0.11
0.03

> <PUBCHEM_SHAPE_SELFOVERLAP>
1011.836

> <PUBCHEM_SHAPE_VOLUME>
234.9

> <PUBCHEM_COORDINATE_TYPE>
2
5
10

$$$$

