125791
  -OEChem-07051213032D

 67 68  0     0  0  0  0  0  0999 V2000
   13.2262    2.6788    0.0000 Cl  0  0  0  0  0  0  0  0  0  0  0  0
    9.6961    0.6546    0.0000 S   0  0  0  0  0  0  0  0  0  0  0  0
    9.0276   10.7516    0.0000 S   0  0  0  0  0  0  0  0  0  0  0  0
    1.4030    5.8943    0.0000 S   0  0  0  0  0  0  0  0  0  0  0  0
    2.2690    6.3943    0.0000 O   0  0  0  0  0  0  0  0  0  0  0  0
    9.8937   11.2516    0.0000 O   0  0  0  0  0  0  0  0  0  0  0  0
    0.9030    6.7603    0.0000 O   0  0  0  0  0  0  0  0  0  0  0  0
    1.9030    5.0282    0.0000 O   0  0  0  0  0  0  0  0  0  0  0  0
    8.5276   11.6176    0.0000 O   0  0  0  0  0  0  0  0  0  0  0  0
    9.5276    9.8856    0.0000 O   0  0  0  0  0  0  0  0  0  0  0  0
    7.9641    5.6546    0.0000 N   0  0  0  0  0  0  0  0  0  0  0  0
    6.2320    6.6546    0.0000 N   0  0  0  0  0  0  0  0  0  0  0  0
    9.6961    2.6546    0.0000 N   0  0  0  0  0  0  0  0  0  0  0  0
    7.9641    6.6546    0.0000 C   0  0  0  0  0  0  0  0  0  0  0  0
    7.0980    5.1546    0.0000 C   0  0  0  0  0  0  0  0  0  0  0  0
    8.8301    5.1546    0.0000 C   0  0  0  0  0  0  0  0  0  0  0  0
    7.0980    7.1546    0.0000 C   0  0  0  0  0  0  0  0  0  0  0  0
    6.2320    5.6546    0.0000 C   0  0  0  0  0  0  0  0  0  0  0  0
    8.8301    4.1546    0.0000 C   0  0  0  0  0  0  0  0  0  0  0  0
    9.6961    3.6546    0.0000 C   0  0  0  0  0  0  0  0  0  0  0  0
    5.3660    7.1546    0.0000 C   0  0  0  0  0  0  0  0  0  0  0  0
   10.5621    2.1546    0.0000 C   0  0  0  0  0  0  0  0  0  0  0  0
    8.8301    2.1546    0.0000 C   0  0  0  0  0  0  0  0  0  0  0  0
   10.5621    1.1546    0.0000 C   0  0  0  0  0  0  0  0  0  0  0  0
    8.8301    1.1546    0.0000 C   0  0  0  0  0  0  0  0  0  0  0  0
   11.4561    2.6893    0.0000 C   0  0  0  0  0  0  0  0  0  0  0  0
    7.9362    2.6893    0.0000 C   0  0  0  0  0  0  0  0  0  0  0  0
   11.4561    0.6200    0.0000 C   0  0  0  0  0  0  0  0  0  0  0  0
    7.9362    0.6200    0.0000 C   0  0  0  0  0  0  0  0  0  0  0  0
   12.3621    2.1754    0.0000 C   0  0  0  0  0  0  0  0  0  0  0  0
    7.0301    2.1754    0.0000 C   0  0  0  0  0  0  0  0  0  0  0  0
   12.3621    1.1338    0.0000 C   0  0  0  0  0  0  0  0  0  0  0  0
    7.0301    1.1338    0.0000 C   0  0  0  0  0  0  0  0  0  0  0  0
    8.1616   10.2516    0.0000 C   0  0  0  0  0  0  0  0  0  0  0  0
    0.5369    5.3943    0.0000 C   0  0  0  0  0  0  0  0  0  0  0  0
    6.6995    4.6797    0.0000 H   0  0  0  0  0  0  0  0  0  0  0  0
    7.4966    4.6797    0.0000 H   0  0  0  0  0  0  0  0  0  0  0  0
    8.5746    6.5470    0.0000 H   0  0  0  0  0  0  0  0  0  0  0  0
    8.1761    7.2372    0.0000 H   0  0  0  0  0  0  0  0  0  0  0  0
    9.4407    5.0470    0.0000 H   0  0  0  0  0  0  0  0  0  0  0  0
    9.0421    5.7372    0.0000 H   0  0  0  0  0  0  0  0  0  0  0  0
    5.6214    5.7623    0.0000 H   0  0  0  0  0  0  0  0  0  0  0  0
    6.0200    5.0720    0.0000 H   0  0  0  0  0  0  0  0  0  0  0  0
    7.4966    7.6296    0.0000 H   0  0  0  0  0  0  0  0  0  0  0  0
    6.6995    7.6296    0.0000 H   0  0  0  0  0  0  0  0  0  0  0  0
    8.2195    4.2623    0.0000 H   0  0  0  0  0  0  0  0  0  0  0  0
    8.6180    3.5720    0.0000 H   0  0  0  0  0  0  0  0  0  0  0  0
   10.3067    3.5470    0.0000 H   0  0  0  0  0  0  0  0  0  0  0  0
    9.9082    4.2372    0.0000 H   0  0  0  0  0  0  0  0  0  0  0  0
    5.6760    7.6916    0.0000 H   0  0  0  0  0  0  0  0  0  0  0  0
    4.8290    7.4646    0.0000 H   0  0  0  0  0  0  0  0  0  0  0  0
    5.0560    6.6177    0.0000 H   0  0  0  0  0  0  0  0  0  0  0  0
   11.4489    3.3092    0.0000 H   0  0  0  0  0  0  0  0  0  0  0  0
    7.9433    3.3092    0.0000 H   0  0  0  0  0  0  0  0  0  0  0  0
   11.4489    0.0000    0.0000 H   0  0  0  0  0  0  0  0  0  0  0  0
    7.9433    0.0000    0.0000 H   0  0  0  0  0  0  0  0  0  0  0  0
    6.4943    2.4875    0.0000 H   0  0  0  0  0  0  0  0  0  0  0  0
   12.8979    0.8217    0.0000 H   0  0  0  0  0  0  0  0  0  0  0  0
    6.4943    0.8217    0.0000 H   0  0  0  0  0  0  0  0  0  0  0  0
    0.2269    5.9312    0.0000 H   0  0  0  0  0  0  0  0  0  0  0  0
    0.0000    5.0843    0.0000 H   0  0  0  0  0  0  0  0  0  0  0  0
    0.8469    4.8573    0.0000 H   0  0  0  0  0  0  0  0  0  0  0  0
    7.8516   10.7886    0.0000 H   0  0  0  0  0  0  0  0  0  0  0  0
    7.6247    9.9416    0.0000 H   0  0  0  0  0  0  0  0  0  0  0  0
    8.4716    9.7147    0.0000 H   0  0  0  0  0  0  0  0  0  0  0  0
   10.4306   10.9416    0.0000 H   0  0  0  0  0  0  0  0  0  0  0  0
    2.8059    6.0843    0.0000 H   0  0  0  0  0  0  0  0  0  0  0  0
  1 30  1  0  0  0  0
  2 24  1  0  0  0  0
  2 25  1  0  0  0  0
  3  6  1  0  0  0  0
  3  9  2  0  0  0  0
  3 10  2  0  0  0  0
  3 34  1  0  0  0  0
  4  5  1  0  0  0  0
  4  7  2  0  0  0  0
  4  8  2  0  0  0  0
  4 35  1  0  0  0  0
  5 67  1  0  0  0  0
  6 66  1  0  0  0  0
 11 14  1  0  0  0  0
 11 15  1  0  0  0  0
 11 16  1  0  0  0  0
 12 17  1  0  0  0  0
 12 18  1  0  0  0  0
 12 21  1  0  0  0  0
 13 20  1  0  0  0  0
 13 22  1  0  0  0  0
 13 23  1  0  0  0  0
 14 17  1  0  0  0  0
 14 38  1  0  0  0  0
 14 39  1  0  0  0  0
 15 18  1  0  0  0  0
 15 36  1  0  0  0  0
 15 37  1  0  0  0  0
 16 19  1  0  0  0  0
 16 40  1  0  0  0  0
 16 41  1  0  0  0  0
 17 44  1  0  0  0  0
 17 45  1  0  0  0  0
 18 42  1  0  0  0  0
 18 43  1  0  0  0  0
 19 20  1  0  0  0  0
 19 46  1  0  0  0  0
 19 47  1  0  0  0  0
 20 48  1  0  0  0  0
 20 49  1  0  0  0  0
 21 50  1  0  0  0  0
 21 51  1  0  0  0  0
 21 52  1  0  0  0  0
 22 24  2  0  0  0  0
 22 26  1  0  0  0  0
 23 25  1  0  0  0  0
 23 27  2  0  0  0  0
 24 28  1  0  0  0  0
 25 29  2  0  0  0  0
 26 30  2  0  0  0  0
 26 53  1  0  0  0  0
 27 31  1  0  0  0  0
 27 54  1  0  0  0  0
 28 32  2  0  0  0  0
 28 55  1  0  0  0  0
 29 33  1  0  0  0  0
 29 56  1  0  0  0  0
 30 32  1  0  0  0  0
 31 33  2  0  0  0  0
 31 57  1  0  0  0  0
 32 58  1  0  0  0  0
 33 59  1  0  0  0  0
 34 63  1  0  0  0  0
 34 64  1  0  0  0  0
 34 65  1  0  0  0  0
 35 60  1  0  0  0  0
 35 61  1  0  0  0  0
 35 62  1  0  0  0  0
M  END
> <PUBCHEM_COMPOUND_CID>
125791

> <PUBCHEM_COMPOUND_CANONICALIZED>
1

> <PUBCHEM_CACTVS_COMPLEXITY>
522

> <PUBCHEM_CACTVS_HBOND_ACCEPTOR>
10

> <PUBCHEM_CACTVS_HBOND_DONOR>
2

> <PUBCHEM_CACTVS_ROTATABLE_BOND>
4

> <PUBCHEM_CACTVS_SUBSKEYS>
AAADcfB7OABkAAAAAAAAAAAAAAAAAAAAAAA8eIEAAAAAAACxQAAAHAYACAAACArBUCSywYMAAIqAACRCQHCCAAAhDxAIiBwIZogIYGLh05GUIAhggADoyAcQAAAAAAIAAAIAAQAABAAABAACAAAAAAAAAA==

> <PUBCHEM_IUPAC_OPENEYE_NAME>
2-chloro-10-[3-(4-methylpiperazin-1-yl)propyl]phenothiazine; methanesulfonic acid

> <PUBCHEM_IUPAC_CAS_NAME>
2-chloro-10-[3-(4-methyl-1-piperazinyl)propyl]phenothiazine; methanesulfonic acid

> <PUBCHEM_IUPAC_NAME>
2-chloro-10-[3-(4-methylpiperazin-1-yl)propyl]phenothiazine; methanesulfonic acid

> <PUBCHEM_IUPAC_SYSTEMATIC_NAME>
2-chloranyl-10-[3-(4-methylpiperazin-1-yl)propyl]phenothiazine; methanesulfonic acid

> <PUBCHEM_IUPAC_TRADITIONAL_NAME>
2-chloro-10-[3-(4-methylpiperazino)propyl]phenothiazine; mesylic acid

> <PUBCHEM_IUPAC_INCHI>
InChI=1S/C20H24ClN3S.2CH4O3S/c1-22-11-13-23(14-12-22)9-4-10-24-17-5-2-3-6-19(17)25-20-8-7-16(21)15-18(20)24;2*1-5(2,3)4/h2-3,5-8,15H,4,9-14H2,1H3;2*1H3,(H,2,3,4)

> <PUBCHEM_IUPAC_INCHIKEY>
BTOOUKJFDLARFG-UHFFFAOYSA-N

> <PUBCHEM_EXACT_MASS>
565.114176

> <PUBCHEM_MOLECULAR_FORMULA>
C22H32ClN3O6S3

> <PUBCHEM_MOLECULAR_WEIGHT>
566.15398

> <PUBCHEM_OPENEYE_CAN_SMILES>
CN1CCN(CC1)CCCN2C3=CC=CC=C3SC4=C2C=C(C=C4)Cl.CS(=O)(=O)O.CS(=O)(=O)O

> <PUBCHEM_OPENEYE_ISO_SMILES>
CN1CCN(CC1)CCCN2C3=CC=CC=C3SC4=C2C=C(C=C4)Cl.CS(=O)(=O)O.CS(=O)(=O)O

> <PUBCHEM_CACTVS_TPSA>
161

> <PUBCHEM_MONOISOTOPIC_WEIGHT>
565.114176

> <PUBCHEM_TOTAL_CHARGE>
0

> <PUBCHEM_HEAVY_ATOM_COUNT>
35

> <PUBCHEM_ATOM_DEF_STEREO_COUNT>
0

> <PUBCHEM_ATOM_UDEF_STEREO_COUNT>
0

> <PUBCHEM_BOND_DEF_STEREO_COUNT>
0

> <PUBCHEM_BOND_UDEF_STEREO_COUNT>
0

> <PUBCHEM_ISOTOPIC_ATOM_COUNT>
0

> <PUBCHEM_COMPONENT_COUNT>
3

> <PUBCHEM_CACTVS_TAUTO_COUNT>
1

> <PUBCHEM_COORDINATE_TYPE>
1
5
255

> <PUBCHEM_BONDANNOTATIONS>
22  24  8
22  26  8
23  25  8
23  27  8
24  28  8
25  29  8
26  30  8
27  31  8
28  32  8
29  33  8
30  32  8
31  33  8

$$$$

