188966
  -OEChem-07051212443D

 41 43  0     1  0  0  0  0  0999 V2000
    3.0331   -0.7445    0.9657 P   0  0  2  0  0  0  0  0  0  0  0  0
    3.6325    1.5761   -0.7399 P   0  0  0  0  0  0  0  0  0  0  0  0
   -1.0986   -1.9653    0.8914 O   0  0  0  0  0  0  0  0  0  0  0  0
   -1.6263   -4.6413   -0.5549 O   0  0  0  0  0  0  0  0  0  0  0  0
    1.6696   -1.6113    1.0589 O   0  0  0  0  0  0  0  0  0  0  0  0
    2.6924    0.4370   -0.0839 O   0  0  0  0  0  0  0  0  0  0  0  0
    4.0557   -1.6891    0.1415 O   0  0  0  0  0  0  0  0  0  0  0  0
    3.5629   -0.2617    2.2848 O   0  0  0  0  0  0  0  0  0  0  0  0
    2.6526    2.2888   -1.8094 O   0  0  0  0  0  0  0  0  0  0  0  0
    4.6523    0.7307   -1.6660 O   0  0  0  0  0  0  0  0  0  0  0  0
    4.2799    2.4997    0.2493 O   0  0  0  0  0  0  0  0  0  0  0  0
   -2.7487   -0.4732    0.0679 N   0  0  0  0  0  0  0  0  0  0  0  0
   -4.1721    1.2463    0.0094 N   0  0  0  0  0  0  0  0  0  0  0  0
   -0.6470    0.7369    0.2171 N   0  0  0  0  0  0  0  0  0  0  0  0
   -1.0092    3.1503    0.2361 N   0  0  0  0  0  0  0  0  0  0  0  0
   -3.1928    4.1227    0.1209 N   0  0  0  0  0  0  0  0  0  0  0  0
   -0.9098   -3.4720   -0.9454 C   0  0  2  0  0  0  0  0  0  0  0  0
   -0.1851   -2.8895    0.2634 C   0  0  1  0  0  0  0  0  0  0  0  0
   -2.2764   -1.8528    0.0739 C   0  0  1  0  0  0  0  0  0  0  0  0
   -1.9096   -2.3951   -1.3000 C   0  0  0  0  0  0  0  0  0  0  0  0
    1.0727   -2.1221   -0.1201 C   0  0  0  0  0  0  0  0  0  0  0  0
   -1.9837    0.6591    0.1340 C   0  0  0  0  0  0  0  0  0  0  0  0
   -4.0566   -0.0653   -0.0061 C   0  0  0  0  0  0  0  0  0  0  0  0
   -2.8841    1.7117    0.0969 C   0  0  0  0  0  0  0  0  0  0  0  0
   -2.3526    2.9964    0.1516 C   0  0  0  0  0  0  0  0  0  0  0  0
   -0.2510    2.0276    0.2632 C   0  0  0  0  0  0  0  0  0  0  0  0
   -0.2506   -3.7468   -1.7730 H   0  0  0  0  0  0  0  0  0  0  0  0
    0.0572   -3.6543    1.0101 H   0  0  0  0  0  0  0  0  0  0  0  0
   -3.0609   -2.4562    0.5466 H   0  0  0  0  0  0  0  0  0  0  0  0
   -1.4273   -1.6217   -1.9095 H   0  0  0  0  0  0  0  0  0  0  0  0
   -2.7896   -2.7624   -1.8370 H   0  0  0  0  0  0  0  0  0  0  0  0
    0.8407   -1.2878   -0.7882 H   0  0  0  0  0  0  0  0  0  0  0  0
    1.7822   -2.7873   -0.6224 H   0  0  0  0  0  0  0  0  0  0  0  0
   -2.1088   -4.4560    0.2679 H   0  0  0  0  0  0  0  0  0  0  0  0
   -4.8766   -0.7675   -0.0705 H   0  0  0  0  0  0  0  0  0  0  0  0
    0.8150    2.1958    0.3492 H   0  0  0  0  0  0  0  0  0  0  0  0
   -4.1956    4.0104    0.0575 H   0  0  0  0  0  0  0  0  0  0  0  0
   -2.7827    5.0457    0.1616 H   0  0  0  0  0  0  0  0  0  0  0  0
    4.5189   -2.4127    0.6148 H   0  0  0  0  0  0  0  0  0  0  0  0
    2.9691    3.0853   -2.2866 H   0  0  0  0  0  0  0  0  0  0  0  0
    5.3855    1.2011   -2.1169 H   0  0  0  0  0  0  0  0  0  0  0  0
  1  5  1  0  0  0  0
  1  6  1  0  0  0  0
  1  7  1  0  0  0  0
  1  8  2  0  0  0  0
  2  6  1  0  0  0  0
  2  9  1  0  0  0  0
  2 10  1  0  0  0  0
  2 11  2  0  0  0  0
  3 18  1  0  0  0  0
  3 19  1  0  0  0  0
  4 17  1  0  0  0  0
  4 34  1  0  0  0  0
  5 21  1  0  0  0  0
  7 39  1  0  0  0  0
  9 40  1  0  0  0  0
 10 41  1  0  0  0  0
 12 19  1  0  0  0  0
 12 22  1  0  0  0  0
 12 23  1  0  0  0  0
 13 23  2  0  0  0  0
 13 24  1  0  0  0  0
 14 22  2  0  0  0  0
 14 26  1  0  0  0  0
 15 25  1  0  0  0  0
 15 26  2  0  0  0  0
 16 25  1  0  0  0  0
 16 37  1  0  0  0  0
 16 38  1  0  0  0  0
 17 18  1  0  0  0  0
 17 20  1  0  0  0  0
 17 27  1  0  0  0  0
 18 21  1  0  0  0  0
 18 28  1  0  0  0  0
 19 20  1  0  0  0  0
 19 29  1  0  0  0  0
 20 30  1  0  0  0  0
 20 31  1  0  0  0  0
 21 32  1  0  0  0  0
 21 33  1  0  0  0  0
 22 24  1  0  0  0  0
 23 35  1  0  0  0  0
 24 25  2  0  0  0  0
 26 36  1  0  0  0  0
M  END
> <PUBCHEM_COMPOUND_CID>
188966

> <PUBCHEM_CONFORMER_RMSD>
0.8

> <PUBCHEM_CONFORMER_DIVERSEORDER>
1
94
84
124
283
204
144
246
187
213
130
184
243
105
179
48
191
236
180
61
148
104
227
97
75
113
297
296
13
135
98
70
251
273
28
262
146
175
62
59
207
25
63
64
289
116
216
58
219
41
259
170
168
52
188
95
253
85
237
245
15
239
226
263
195
65
50
278
264
295
93
275
301
142
102
55
161
30
162
10
169
152
32
258
53
194
44
271
311
126
208
101
109
100
260
73
26
136
128
134
209
241
140
47
121
242
257
127
49
83
92
20
16
223
203
244
57
87
224
118
270
4
108
261
24
247
143
107
68
156
279
149
293
154
3
111
99
233
290
120
281
250
248
131
43
256
89
166
9
176
165
229
159
167
215
265
56
90
103
71
157
110
218
132
145
39
186
33
42
171
268
266
153
225
282
2
35
12
88
172
96
173
6
234
46
274
23
160
205
27
272
69
74
40
292
119
202
86
8
252
147
294
287
67
306
14
286
151
267
193
29
122
80
217
112
114
11
221
125
288
79
307
299
199
72
220
181
291
123
137
38
228
150
183
91
189
78
190
141
284
138
269
22
178
34
17
197
309
185
37
5
177
240
129
139
232
115
18
308
51
66
158
155
304
77
82
21
214
133
174
310
164
211
182
302
36
192
163
305
19
298
235
276
200
230
231
7
117
81
206
212
210
54
285
201
280
76
106
249
255
277
254
31
238
196
60
45
222
300
303
198

> <PUBCHEM_MMFF94_PARTIAL_CHARGES>
33
1 1.51
10 -0.77
11 -0.7
12 0.05
13 -0.57
14 -0.57
15 -0.62
16 -0.9
17 0.28
18 0.28
19 0.54
2 1.51
21 0.28
22 0.11
23 0.04
24 0.23
25 0.41
26 0.47
3 -0.56
34 0.4
35 0.15
36 0.15
37 0.4
38 0.4
39 0.5
4 -0.68
40 0.5
41 0.5
5 -0.55
6 -0.54
7 -0.77
8 -0.7
9 -0.77

> <PUBCHEM_EFFECTIVE_ROTOR_COUNT>
7

> <PUBCHEM_PHARMACOPHORE_FEATURES>
17
1 10 acceptor
1 11 acceptor
1 16 cation
1 16 donor
1 3 acceptor
1 4 acceptor
1 4 donor
1 7 acceptor
1 8 acceptor
1 9 acceptor
3 12 13 23 cation
3 12 14 22 cation
3 14 15 26 cation
4 2 9 10 11 anion
5 12 13 22 23 24 rings
5 3 17 18 19 20 rings
6 14 15 22 24 25 26 rings

> <PUBCHEM_HEAVY_ATOM_COUNT>
26

> <PUBCHEM_ATOM_DEF_STEREO_COUNT>
3

> <PUBCHEM_ATOM_UDEF_STEREO_COUNT>
0

> <PUBCHEM_BOND_DEF_STEREO_COUNT>
0

> <PUBCHEM_BOND_UDEF_STEREO_COUNT>
0

> <PUBCHEM_ISOTOPIC_ATOM_COUNT>
0

> <PUBCHEM_COMPONENT_COUNT>
1

> <PUBCHEM_CACTVS_TAUTO_COUNT>
3

> <PUBCHEM_CONFORMER_ID>
0002E22600000001

> <PUBCHEM_MMFF94_ENERGY>
0.1793

> <PUBCHEM_FEATURE_SELFOVERLAP>
86.917

> <PUBCHEM_SHAPE_FINGERPRINT>
10498660 4 18337954476479510758
10616163 171 18412257311831686348
10670039 82 18411695487555128078
10871710 139 18122903135938351750
10906281 52 18339070601953190049
1100329 8 18050282566646632089
11513181 2 18261107521381487726
12173636 292 18335995258480607277
12553582 1 18121503449146543579
12788726 201 18340487746774323553
12978246 48 18340770454412267184
13140716 1 18267597805296719243
13583140 156 17131275795549204875
138480 1 17184748541921608143
14081887 123 18191035503899344296
14117953 113 17981616179658610652
14251757 17 17898540281320731790
14787075 74 18131068191560891627
14790565 3 18335975454856501641
16752209 62 18336267928574134849
17492 54 18340215094288407359
19591789 44 18408887347726871993
20642791 35 17616813228326185903
20715895 44 17912382110438894285
21864079 5 18271242725377452914
23557571 272 17968947357955106282
23559900 14 17832147490894216677
44154327 71 18411699910939029851
474 4 18053943137002572145
5048184 11 18340761628597553508
6287921 2 17974845382928349855
7064713 232 18266470978035857528
7364860 26 17252876455748176987

> <PUBCHEM_SHAPE_MULTIPOLES>
465.04
7.81
5.31
1.21
6.01
1.22
0.01
-4.5
0.43
-3.39
0.92
1.44
0.14
-1.52

> <PUBCHEM_SHAPE_SELFOVERLAP>
962.479

> <PUBCHEM_SHAPE_VOLUME>
267.5

> <PUBCHEM_COORDINATE_TYPE>
2
5
10

$$$$

