56928174
  -OEChem-07051213153D

 51 53  0     1  0  0  0  0  0999 V2000
    4.7160    0.1409    0.9460 O   0  0  0  0  0  0  0  0  0  0  0  0
    0.8934   -0.6725    0.5314 C   0  0  1  0  0  0  0  0  0  0  0  0
    1.4385    0.4927   -0.3646 C   0  0  2  0  0  0  0  0  0  0  0  0
   -0.6894   -0.6108    0.5731 C   0  0  1  0  0  0  0  0  0  0  0  0
    2.9681    0.4326   -0.6940 C   0  0  1  0  0  0  0  0  0  0  0  0
    1.3890   -2.0282   -0.0327 C   0  0  0  0  0  0  0  0  0  0  0  0
   -1.2285    0.8022    0.7176 C   0  0  0  0  0  0  0  0  0  0  0  0
    0.9721    1.8695    0.1641 C   0  0  0  0  0  0  0  0  0  0  0  0
   -1.4323   -1.2575   -0.6157 C   0  0  0  0  0  0  0  0  0  0  0  0
    3.3846   -0.9825   -1.1496 C   0  0  0  0  0  0  0  0  0  0  0  0
    2.9001   -2.0943   -0.2243 C   0  0  0  0  0  0  0  0  0  0  0  0
    1.3799   -0.5521    2.0048 C   0  0  0  0  0  0  0  0  0  0  0  0
   -3.5097    0.2265   -0.1713 C   0  0  2  0  0  0  0  0  0  0  0  0
   -2.7112    0.8868    0.9782 C   0  0  0  0  0  0  0  0  0  0  0  0
   -2.9609   -1.1955   -0.4414 C   0  0  0  0  0  0  0  0  0  0  0  0
   -0.4738    1.8999    0.5540 C   0  0  0  0  0  0  0  0  0  0  0  0
    3.3202    1.4164   -1.8305 C   0  0  0  0  0  0  0  0  0  0  0  0
    3.8343    0.8493    0.4717 C   0  0  0  0  0  0  0  0  0  0  0  0
   -3.4382    1.0818   -1.4509 C   0  0  0  0  0  0  0  0  0  0  0  0
   -4.9616    0.1275    0.2288 C   0  0  0  0  0  0  0  0  0  0  0  0
   -5.7908   -0.8325   -0.1946 C   0  0  0  0  0  0  0  0  0  0  0  0
    0.9377    0.3650   -1.3384 H   0  0  0  0  0  0  0  0  0  0  0  0
   -1.0026   -1.1707    1.4672 H   0  0  0  0  0  0  0  0  0  0  0  0
    0.9443   -2.2132   -1.0173 H   0  0  0  0  0  0  0  0  0  0  0  0
    1.0672   -2.8508    0.6177 H   0  0  0  0  0  0  0  0  0  0  0  0
    1.1198    2.6254   -0.6153 H   0  0  0  0  0  0  0  0  0  0  0  0
    1.5520    2.1909    1.0342 H   0  0  0  0  0  0  0  0  0  0  0  0
   -1.1446   -0.7802   -1.5597 H   0  0  0  0  0  0  0  0  0  0  0  0
   -1.1679   -2.3174   -0.6989 H   0  0  0  0  0  0  0  0  0  0  0  0
    4.4741   -1.0599   -1.2607 H   0  0  0  0  0  0  0  0  0  0  0  0
    2.9694   -1.1714   -2.1495 H   0  0  0  0  0  0  0  0  0  0  0  0
    3.1593   -3.0626   -0.6698 H   0  0  0  0  0  0  0  0  0  0  0  0
    3.4168   -2.0609    0.7393 H   0  0  0  0  0  0  0  0  0  0  0  0
    1.0403    0.3707    2.4844 H   0  0  0  0  0  0  0  0  0  0  0  0
    2.4650   -0.5868    2.1035 H   0  0  0  0  0  0  0  0  0  0  0  0
    0.9898   -1.3833    2.6051 H   0  0  0  0  0  0  0  0  0  0  0  0
   -2.9225    0.3830    1.9316 H   0  0  0  0  0  0  0  0  0  0  0  0
   -3.0292    1.9298    1.1097 H   0  0  0  0  0  0  0  0  0  0  0  0
   -3.4008   -1.6249   -1.3505 H   0  0  0  0  0  0  0  0  0  0  0  0
   -3.2242   -1.8655    0.3896 H   0  0  0  0  0  0  0  0  0  0  0  0
   -0.9220    2.8836    0.6680 H   0  0  0  0  0  0  0  0  0  0  0  0
    3.1801    2.4603   -1.5300 H   0  0  0  0  0  0  0  0  0  0  0  0
    4.3719    1.3158   -2.1260 H   0  0  0  0  0  0  0  0  0  0  0  0
    2.7064    1.2337   -2.7194 H   0  0  0  0  0  0  0  0  0  0  0  0
    3.6729    1.8629    0.8734 H   0  0  0  0  0  0  0  0  0  0  0  0
   -2.4118    1.2044   -1.8110 H   0  0  0  0  0  0  0  0  0  0  0  0
   -3.8447    2.0859   -1.2792 H   0  0  0  0  0  0  0  0  0  0  0  0
   -4.0140    0.6300   -2.2677 H   0  0  0  0  0  0  0  0  0  0  0  0
   -5.3695    0.9111    0.8635 H   0  0  0  0  0  0  0  0  0  0  0  0
   -6.8287   -0.8179    0.1240 H   0  0  0  0  0  0  0  0  0  0  0  0
   -5.5031   -1.6355   -0.8601 H   0  0  0  0  0  0  0  0  0  0  0  0
  1 18  2  0  0  0  0
  2  3  1  0  0  0  0
  2  4  1  0  0  0  0
  2  6  1  0  0  0  0
  2 12  1  0  0  0  0
  3  5  1  0  0  0  0
  3  8  1  0  0  0  0
  3 22  1  0  0  0  0
  4  7  1  0  0  0  0
  4  9  1  0  0  0  0
  4 23  1  0  0  0  0
  5 10  1  0  0  0  0
  5 17  1  0  0  0  0
  5 18  1  0  0  0  0
  6 11  1  0  0  0  0
  6 24  1  0  0  0  0
  6 25  1  0  0  0  0
  7 14  1  0  0  0  0
  7 16  2  0  0  0  0
  8 16  1  0  0  0  0
  8 26  1  0  0  0  0
  8 27  1  0  0  0  0
  9 15  1  0  0  0  0
  9 28  1  0  0  0  0
  9 29  1  0  0  0  0
 10 11  1  0  0  0  0
 10 30  1  0  0  0  0
 10 31  1  0  0  0  0
 11 32  1  0  0  0  0
 11 33  1  0  0  0  0
 12 34  1  0  0  0  0
 12 35  1  0  0  0  0
 12 36  1  0  0  0  0
 13 14  1  0  0  0  0
 13 15  1  0  0  0  0
 13 19  1  0  0  0  0
 13 20  1  0  0  0  0
 14 37  1  0  0  0  0
 14 38  1  0  0  0  0
 15 39  1  0  0  0  0
 15 40  1  0  0  0  0
 16 41  1  0  0  0  0
 17 42  1  0  0  0  0
 17 43  1  0  0  0  0
 17 44  1  0  0  0  0
 18 45  1  0  0  0  0
 19 46  1  0  0  0  0
 19 47  1  0  0  0  0
 19 48  1  0  0  0  0
 20 21  2  0  0  0  0
 20 49  1  0  0  0  0
 21 50  1  0  0  0  0
 21 51  1  0  0  0  0
M  END
> <PUBCHEM_COMPOUND_CID>
56928174

> <PUBCHEM_CONFORMER_RMSD>
0.6

> <PUBCHEM_CONFORMER_DIVERSEORDER>
1
6
2
5
4
3

> <PUBCHEM_MMFF94_PARTIAL_CHARGES>
16
1 -0.57
13 0.14
14 0.14
16 -0.29
18 0.45
20 -0.29
21 -0.3
4 0.14
41 0.15
45 0.06
49 0.15
5 0.06
50 0.15
51 0.15
7 -0.28
8 0.14

> <PUBCHEM_EFFECTIVE_ROTOR_COUNT>
3.8

> <PUBCHEM_PHARMACOPHORE_FEATURES>
5
1 1 acceptor
1 21 hydrophobe
6 2 3 4 7 8 16 rings
6 2 3 5 6 10 11 rings
6 4 7 9 13 14 15 rings

> <PUBCHEM_HEAVY_ATOM_COUNT>
21

> <PUBCHEM_ATOM_DEF_STEREO_COUNT>
4

> <PUBCHEM_ATOM_UDEF_STEREO_COUNT>
1

> <PUBCHEM_BOND_DEF_STEREO_COUNT>
0

> <PUBCHEM_BOND_UDEF_STEREO_COUNT>
0

> <PUBCHEM_ISOTOPIC_ATOM_COUNT>
0

> <PUBCHEM_COMPONENT_COUNT>
1

> <PUBCHEM_CACTVS_TAUTO_COUNT>
1

> <PUBCHEM_CONFORMER_ID>
0364A7AE00000001

> <PUBCHEM_MMFF94_ENERGY>
66.4262

> <PUBCHEM_FEATURE_SELFOVERLAP>
25.418

> <PUBCHEM_SHAPE_FINGERPRINT>
10062212 137 18341339889908678274
10366900 7 15985097543973170847
10863032 1 18186796989516014254
11578080 2 17679039320127553256
12236239 1 18343587343056951136
12403814 3 18060142033636752333
12592029 89 18060137647895134795
12616999 72 18413386527490198359
12633257 1 10519704441154059428
12670546 177 18201995504450255815
12788726 201 17095792309063715809
128620 24 18411139138729050437
13140716 1 18191309264703139825
13221675 6 18410008832222665945
13224815 77 18335140916312785435
13583140 156 16343410714070497752
15196674 1 18334293218949766089
15536298 74 18187643643544709230
15788980 27 17346883363887210264
16752209 62 18115033038477097537
16945 1 18337938035524108312
17349148 13 18272375291009878360
18186145 218 18130217263342988526
192875 21 18131066039608092188
19765921 60 17917428679388044154
19862831 5 18342174466510169591
200 152 18261111902110367941
20645477 70 18187640344936304630
20691752 17 17773579697717253736
21267235 1 18262226806911878630
231179 274 17704358779038025207
23402539 116 18261404304037826038
23557571 272 17895191155859361384
23558518 356 18124586745885877809
23559900 14 18114178606499843724
2748010 2 17905600013058698024
296302 2 15646774474500671813
3004659 81 18339641238774841271
3323516 105 18411417302322892711
34934 24 18114467773003267990
3545911 37 18409165506561834982
4340502 62 17458633289518637706
474 4 17988352681449077508
5104073 3 18261389009437928155
5281201 14 18131066086483013063
537710 114 18408599262415807913
633830 44 17774988124651516500
7164475 11 18339917246485264924
7364860 26 18113623339330480704
7495541 125 17988640732184183737
9981440 41 17402615143373940656

> <PUBCHEM_SHAPE_MULTIPOLES>
426.3
9.33
1.93
1.36
7.22
0.18
0
0.56
-1.53
-0.87
-0.19
-0.7
-0.22
-0.28

> <PUBCHEM_SHAPE_SELFOVERLAP>
894.384

> <PUBCHEM_SHAPE_VOLUME>
236.2

> <PUBCHEM_COORDINATE_TYPE>
2
5
10

$$$$

