108214
  -OEChem-07051213082D

 26 26  0     0  0  0  0  0  0999 V2000
    4.5981    2.0000    0.0000 O   0  0  0  0  0  0  0  0  0  0  0  0
    6.3301   -1.0000    0.0000 O   0  0  0  0  0  0  0  0  0  0  0  0
    3.7320    2.5000    0.0000 O   0  0  0  0  0  0  0  0  0  0  0  0
    2.0000   -2.5000    0.0000 O   0  0  0  0  0  0  0  0  0  0  0  0
    5.4641    0.5000    0.0000 N   0  0  0  0  0  0  0  0  0  0  0  0
    4.5981   -1.0000    0.0000 N   0  0  0  0  0  0  0  0  0  0  0  0
    2.8660    1.0000    0.0000 N   0  0  0  0  0  0  0  0  0  0  0  0
    2.8660   -1.0000    0.0000 N   0  0  0  0  0  0  0  0  0  0  0  0
    3.7320    0.5000    0.0000 C   0  0  0  0  0  0  0  0  0  0  0  0
    3.7320   -0.5000    0.0000 C   0  0  0  0  0  0  0  0  0  0  0  0
    4.5981    1.0000    0.0000 C   0  0  0  0  0  0  0  0  0  0  0  0
    5.4641   -0.5000    0.0000 C   0  0  0  0  0  0  0  0  0  0  0  0
    6.3301    1.0000    0.0000 C   0  0  0  0  0  0  0  0  0  0  0  0
    2.8660    2.0000    0.0000 C   0  0  0  0  0  0  0  0  0  0  0  0
    2.0000    2.5000    0.0000 C   0  0  0  0  0  0  0  0  0  0  0  0
    2.8660   -2.0000    0.0000 C   0  0  0  0  0  0  0  0  0  0  0  0
    4.5981   -1.6200    0.0000 H   0  0  0  0  0  0  0  0  0  0  0  0
    2.3291    0.6900    0.0000 H   0  0  0  0  0  0  0  0  0  0  0  0
    6.6401    0.4631    0.0000 H   0  0  0  0  0  0  0  0  0  0  0  0
    6.8671    1.3100    0.0000 H   0  0  0  0  0  0  0  0  0  0  0  0
    6.0201    1.5369    0.0000 H   0  0  0  0  0  0  0  0  0  0  0  0
    2.3291   -0.6900    0.0000 H   0  0  0  0  0  0  0  0  0  0  0  0
    2.3100    3.0369    0.0000 H   0  0  0  0  0  0  0  0  0  0  0  0
    1.4631    2.8100    0.0000 H   0  0  0  0  0  0  0  0  0  0  0  0
    1.6900    1.9631    0.0000 H   0  0  0  0  0  0  0  0  0  0  0  0
    3.4030   -2.3100    0.0000 H   0  0  0  0  0  0  0  0  0  0  0  0
  1 11  2  0  0  0  0
  2 12  2  0  0  0  0
  3 14  2  0  0  0  0
  4 16  2  0  0  0  0
  5 11  1  0  0  0  0
  5 12  1  0  0  0  0
  5 13  1  0  0  0  0
  6 10  1  0  0  0  0
  6 12  1  0  0  0  0
  6 17  1  0  0  0  0
  7  9  1  0  0  0  0
  7 14  1  0  0  0  0
  7 18  1  0  0  0  0
  8 10  1  0  0  0  0
  8 16  1  0  0  0  0
  8 22  1  0  0  0  0
  9 10  2  0  0  0  0
  9 11  1  0  0  0  0
 13 19  1  0  0  0  0
 13 20  1  0  0  0  0
 13 21  1  0  0  0  0
 14 15  1  0  0  0  0
 15 23  1  0  0  0  0
 15 24  1  0  0  0  0
 15 25  1  0  0  0  0
 16 26  1  0  0  0  0
M  END
> <PUBCHEM_COMPOUND_CID>
108214

> <PUBCHEM_COMPOUND_CANONICALIZED>
1

> <PUBCHEM_CACTVS_COMPLEXITY>
401

> <PUBCHEM_CACTVS_HBOND_ACCEPTOR>
4

> <PUBCHEM_CACTVS_HBOND_DONOR>
3

> <PUBCHEM_CACTVS_ROTATABLE_BOND>
2

> <PUBCHEM_CACTVS_SUBSKEYS>
AAADccBzuAAAAAAAAAAAAAAAAAAAAAAAAAAgAAAAAAAAAAAAAAAAHgAQAAAACAiBgAYDAAPAAACIAAVQ0ACAAAAAAAAAAICIAECAQAAAACAQAAAIFyKAAEAAAAAAAAAAAAAAAAAAAAAAAAAAAAAAAAAAAA==

> <PUBCHEM_IUPAC_OPENEYE_NAME>
N-(6-formamido-3-methyl-2,4-dioxo-1H-pyrimidin-5-yl)acetamide

> <PUBCHEM_IUPAC_CAS_NAME>
N-(6-formamido-3-methyl-2,4-dioxo-1H-pyrimidin-5-yl)acetamide

> <PUBCHEM_IUPAC_NAME>
N-(6-formamido-3-methyl-2,4-dioxo-1H-pyrimidin-5-yl)acetamide

> <PUBCHEM_IUPAC_SYSTEMATIC_NAME>
N-[6-formamido-3-methyl-2,4-bis(oxidanylidene)-1H-pyrimidin-5-yl]ethanamide

> <PUBCHEM_IUPAC_TRADITIONAL_NAME>
N-(6-formamido-2,4-diketo-3-methyl-1H-pyrimidin-5-yl)acetamide

> <PUBCHEM_IUPAC_INCHI>
InChI=1S/C8H10N4O4/c1-4(14)10-5-6(9-3-13)11-8(16)12(2)7(5)15/h3H,1-2H3,(H,9,13)(H,10,14)(H,11,16)

> <PUBCHEM_IUPAC_INCHIKEY>
RDZNZFGKEVDNPK-UHFFFAOYSA-N

> <PUBCHEM_XLOGP3_AA>
-2

> <PUBCHEM_EXACT_MASS>
226.070205

> <PUBCHEM_MOLECULAR_FORMULA>
C8H10N4O4

> <PUBCHEM_MOLECULAR_WEIGHT>
226.1894

> <PUBCHEM_OPENEYE_CAN_SMILES>
CC(=O)NC1=C(NC(=O)N(C1=O)C)NC=O

> <PUBCHEM_OPENEYE_ISO_SMILES>
CC(=O)NC1=C(NC(=O)N(C1=O)C)NC=O

> <PUBCHEM_CACTVS_TPSA>
108

> <PUBCHEM_MONOISOTOPIC_WEIGHT>
226.070205

> <PUBCHEM_TOTAL_CHARGE>
0

> <PUBCHEM_HEAVY_ATOM_COUNT>
16

> <PUBCHEM_ATOM_DEF_STEREO_COUNT>
0

> <PUBCHEM_ATOM_UDEF_STEREO_COUNT>
0

> <PUBCHEM_BOND_DEF_STEREO_COUNT>
0

> <PUBCHEM_BOND_UDEF_STEREO_COUNT>
0

> <PUBCHEM_ISOTOPIC_ATOM_COUNT>
0

> <PUBCHEM_COMPONENT_COUNT>
1

> <PUBCHEM_CACTVS_TAUTO_COUNT>
24

> <PUBCHEM_COORDINATE_TYPE>
1
5
255

> <PUBCHEM_BONDANNOTATIONS>
5  11  8
5  12  8
6  10  8
6  12  8
9  10  8
9  11  8

$$$$

