5280382
  -OEChem-07051212453D

 51 51  0     0  0  0  0  0  0999 V2000
   -2.7899   -2.9726    0.2832 O   0  0  0  0  0  0  0  0  0  0  0  0
    3.8673    0.6081    0.5051 C   0  0  0  0  0  0  0  0  0  0  0  0
    5.0526   -0.3856    0.3613 C   0  0  0  0  0  0  0  0  0  0  0  0
    4.6231   -1.8264    0.5720 C   0  0  0  0  0  0  0  0  0  0  0  0
    2.6065    0.1005   -0.2333 C   0  0  0  0  0  0  0  0  0  0  0  0
    3.5752   -2.2142   -0.4601 C   0  0  0  0  0  0  0  0  0  0  0  0
    2.4978   -1.1731   -0.6885 C   0  0  0  0  0  0  0  0  0  0  0  0
    4.3712    1.9576   -0.0629 C   0  0  0  0  0  0  0  0  0  0  0  0
    3.5477    0.7955    2.0060 C   0  0  0  0  0  0  0  0  0  0  0  0
    1.5347    1.0706   -0.3861 C   0  0  0  0  0  0  0  0  0  0  0  0
    1.3298   -1.7373   -1.4642 C   0  0  0  0  0  0  0  0  0  0  0  0
    0.2380    0.7631   -0.2249 C   0  0  0  0  0  0  0  0  0  0  0  0
   -0.9026    1.6760   -0.3595 C   0  0  0  0  0  0  0  0  0  0  0  0
   -0.5985    3.1099   -0.7157 C   0  0  0  0  0  0  0  0  0  0  0  0
   -2.1436    1.1817   -0.1586 C   0  0  0  0  0  0  0  0  0  0  0  0
   -3.4065    1.8920   -0.2385 C   0  0  0  0  0  0  0  0  0  0  0  0
   -4.5890    1.2916   -0.0167 C   0  0  0  0  0  0  0  0  0  0  0  0
   -4.8067   -0.1168    0.3281 C   0  0  0  0  0  0  0  0  0  0  0  0
   -5.8648   -0.4270    1.3546 C   0  0  0  0  0  0  0  0  0  0  0  0
   -4.0562   -1.0537   -0.2890 C   0  0  0  0  0  0  0  0  0  0  0  0
   -4.0861   -2.5398   -0.1123 C   0  0  0  0  0  0  0  0  0  0  0  0
    5.8507   -0.1363    1.0720 H   0  0  0  0  0  0  0  0  0  0  0  0
    5.4962   -0.2976   -0.6405 H   0  0  0  0  0  0  0  0  0  0  0  0
    4.2251   -1.9654    1.5836 H   0  0  0  0  0  0  0  0  0  0  0  0
    5.4890   -2.4928    0.4836 H   0  0  0  0  0  0  0  0  0  0  0  0
    3.1157   -3.1577   -0.1401 H   0  0  0  0  0  0  0  0  0  0  0  0
    4.0706   -2.4105   -1.4198 H   0  0  0  0  0  0  0  0  0  0  0  0
    4.4797    1.9160   -1.1530 H   0  0  0  0  0  0  0  0  0  0  0  0
    3.7011    2.7887    0.1821 H   0  0  0  0  0  0  0  0  0  0  0  0
    5.3505    2.2167    0.3575 H   0  0  0  0  0  0  0  0  0  0  0  0
    4.4428    1.0861    2.5677 H   0  0  0  0  0  0  0  0  0  0  0  0
    2.7995    1.5816    2.1613 H   0  0  0  0  0  0  0  0  0  0  0  0
    3.1530   -0.1214    2.4568 H   0  0  0  0  0  0  0  0  0  0  0  0
    1.8226    2.0722   -0.6833 H   0  0  0  0  0  0  0  0  0  0  0  0
    1.6912   -2.4524   -2.2134 H   0  0  0  0  0  0  0  0  0  0  0  0
    0.7796   -0.9860   -2.0363 H   0  0  0  0  0  0  0  0  0  0  0  0
    0.6472   -2.2756   -0.7992 H   0  0  0  0  0  0  0  0  0  0  0  0
   -0.0274   -0.2380    0.1090 H   0  0  0  0  0  0  0  0  0  0  0  0
   -1.4867    3.7407   -0.7914 H   0  0  0  0  0  0  0  0  0  0  0  0
    0.0445    3.5669    0.0450 H   0  0  0  0  0  0  0  0  0  0  0  0
   -0.0916    3.1654   -1.6856 H   0  0  0  0  0  0  0  0  0  0  0  0
   -2.1539    0.1667    0.2170 H   0  0  0  0  0  0  0  0  0  0  0  0
   -3.4098    2.9477   -0.4837 H   0  0  0  0  0  0  0  0  0  0  0  0
   -5.4909    1.8982   -0.0718 H   0  0  0  0  0  0  0  0  0  0  0  0
   -5.6453    0.1021    2.2887 H   0  0  0  0  0  0  0  0  0  0  0  0
   -5.9531   -1.4865    1.5994 H   0  0  0  0  0  0  0  0  0  0  0  0
   -6.8446   -0.0925    0.9961 H   0  0  0  0  0  0  0  0  0  0  0  0
   -3.4089   -0.7727   -1.1190 H   0  0  0  0  0  0  0  0  0  0  0  0
   -4.3338   -3.0163   -1.0663 H   0  0  0  0  0  0  0  0  0  0  0  0
   -4.8001   -2.8841    0.6366 H   0  0  0  0  0  0  0  0  0  0  0  0
   -2.8211   -3.9422    0.3513 H   0  0  0  0  0  0  0  0  0  0  0  0
  1 21  1  0  0  0  0
  1 51  1  0  0  0  0
  2  3  1  0  0  0  0
  2  5  1  0  0  0  0
  2  8  1  0  0  0  0
  2  9  1  0  0  0  0
  3  4  1  0  0  0  0
  3 22  1  0  0  0  0
  3 23  1  0  0  0  0
  4  6  1  0  0  0  0
  4 24  1  0  0  0  0
  4 25  1  0  0  0  0
  5  7  2  0  0  0  0
  5 10  1  0  0  0  0
  6  7  1  0  0  0  0
  6 26  1  0  0  0  0
  6 27  1  0  0  0  0
  7 11  1  0  0  0  0
  8 28  1  0  0  0  0
  8 29  1  0  0  0  0
  8 30  1  0  0  0  0
  9 31  1  0  0  0  0
  9 32  1  0  0  0  0
  9 33  1  0  0  0  0
 10 12  2  0  0  0  0
 10 34  1  0  0  0  0
 11 35  1  0  0  0  0
 11 36  1  0  0  0  0
 11 37  1  0  0  0  0
 12 13  1  0  0  0  0
 12 38  1  0  0  0  0
 13 14  1  0  0  0  0
 13 15  2  0  0  0  0
 14 39  1  0  0  0  0
 14 40  1  0  0  0  0
 14 41  1  0  0  0  0
 15 16  1  0  0  0  0
 15 42  1  0  0  0  0
 16 17  2  0  0  0  0
 16 43  1  0  0  0  0
 17 18  1  0  0  0  0
 17 44  1  0  0  0  0
 18 19  1  0  0  0  0
 18 20  2  0  0  0  0
 19 45  1  0  0  0  0
 19 46  1  0  0  0  0
 19 47  1  0  0  0  0
 20 21  1  0  0  0  0
 20 48  1  0  0  0  0
 21 49  1  0  0  0  0
 21 50  1  0  0  0  0
M  END
> <PUBCHEM_COMPOUND_CID>
5280382

> <PUBCHEM_CONFORMER_RMSD>
0.8

> <PUBCHEM_CONFORMER_DIVERSEORDER>
1
10
3
8
4
5
2
7
9
6

> <PUBCHEM_MMFF94_PARTIAL_CHARGES>
24
1 -0.68
10 -0.15
11 0.14
12 -0.15
13 -0.14
14 0.14
15 -0.15
16 -0.15
17 -0.15
18 -0.14
19 0.14
2 0.14
20 -0.29
21 0.42
34 0.15
38 0.15
42 0.15
43 0.15
44 0.15
48 0.15
5 -0.14
51 0.4
6 0.14
7 -0.28

> <PUBCHEM_EFFECTIVE_ROTOR_COUNT>
5.8

> <PUBCHEM_PHARMACOPHORE_FEATURES>
6
1 1 acceptor
1 1 donor
1 14 hydrophobe
1 19 hydrophobe
3 2 8 9 hydrophobe
6 2 3 4 5 6 7 rings

> <PUBCHEM_HEAVY_ATOM_COUNT>
21

> <PUBCHEM_ATOM_DEF_STEREO_COUNT>
0

> <PUBCHEM_ATOM_UDEF_STEREO_COUNT>
0

> <PUBCHEM_BOND_DEF_STEREO_COUNT>
4

> <PUBCHEM_BOND_UDEF_STEREO_COUNT>
0

> <PUBCHEM_ISOTOPIC_ATOM_COUNT>
0

> <PUBCHEM_COMPONENT_COUNT>
1

> <PUBCHEM_CACTVS_TAUTO_COUNT>
1

> <PUBCHEM_CONFORMER_ID>
0050927E00000001

> <PUBCHEM_MMFF94_ENERGY>
59.8622

> <PUBCHEM_FEATURE_SELFOVERLAP>
30.446

> <PUBCHEM_SHAPE_FINGERPRINT>
11014199 57 17396147841422163983
11045977 3 18187932823444757724
11370993 144 17749380525148292689
11552529 35 17677056724742664207
13167823 11 18201440302343711641
13402501 40 18408321116366013775
13551218 46 18410848863971369099
13911882 115 18186513311353021342
14341114 176 18335136527125221016
146900 427 17822010865797040416
14790565 3 17690838961231812916
15196674 1 18410292514781113223
15352361 1 18411982434257006399
16126227 98 17830461570999442480
17349148 13 16702018720481402568
17844677 252 18410288146530958353
1813 80 17489864934406499909
19141452 34 18410290337644261125
20261772 1 18041003903693856094
21315759 227 17416399866774883715
21403212 168 18263352751102861553
21673915 165 18410013208615258807
22122407 14 16008745806236383115
23559900 14 18337112375311406252
316301 35 18268716189602014010
338550 245 18272365377972476358
350125 39 18334860498731303780
351380 3 17775003496640117153
465052 167 18338517560225777734
5104073 3 18263083369498762976
5924683 9 18040723520293044199
6433294 58 18194122047439093046
7495541 125 18334300894278175768
9709674 26 18190178077701923486

> <PUBCHEM_SHAPE_MULTIPOLES>
426.3
13.08
3.15
1.13
6.64
0.56
0.33
3.63
4.04
0.98
-0.6
-0.47
0.04
0.83

> <PUBCHEM_SHAPE_SELFOVERLAP>
850.58

> <PUBCHEM_SHAPE_VOLUME>
252

> <PUBCHEM_COORDINATE_TYPE>
2
5
10

$$$$

