656406
  -OEChem-07051213012D

 66 68  0     1  0  0  0  0  0999 V2000
   15.1244    2.3100    0.0000 F   0  0  0  0  0  0  0  0  0  0  0  0
   16.1244    1.3100    0.0000 F   0  0  0  0  0  0  0  0  0  0  0  0
   15.1244    0.3100    0.0000 F   0  0  0  0  0  0  0  0  0  0  0  0
   10.6603   -0.6900    0.0000 O   0  0  0  0  0  0  0  0  0  0  0  0
   15.6244   -1.5560    0.0000 O   0  0  0  0  0  0  0  0  0  0  0  0
   11.5263    0.8100    0.0000 O   0  0  0  0  0  0  0  0  0  0  0  0
   15.9904   -0.1900    0.0000 O   0  0  0  0  0  0  0  0  0  0  0  0
    7.1962   -1.6900    0.0000 O   0  0  0  0  0  0  0  0  0  0  0  0
   13.2583   -2.1900    0.0000 N   0  0  0  0  0  0  0  0  0  0  0  0
    8.0622   -0.1900    0.0000 N   0  0  0  0  0  0  0  0  0  0  0  0
    3.7320    1.3100    0.0000 N   0  0  0  0  0  0  0  0  0  0  0  0
    2.8660    0.8100    0.0000 N   0  3  0  0  0  0  0  0  0  0  0  0
    2.0000    0.3100    0.0000 N   0  5  0  0  0  0  0  0  0  0  0  0
   13.2583   -0.1900    0.0000 C   0  0  3  0  0  0  0  0  0  0  0  0
   12.3923   -0.6900    0.0000 C   0  0  0  0  0  0  0  0  0  0  0  0
   14.1244   -0.6900    0.0000 C   0  0  0  0  0  0  0  0  0  0  0  0
   13.2583    0.8100    0.0000 C   0  0  0  0  0  0  0  0  0  0  0  0
   12.3923   -1.6900    0.0000 C   0  0  0  0  0  0  0  0  0  0  0  0
   14.1244   -1.6900    0.0000 C   0  0  0  0  0  0  0  0  0  0  0  0
   14.1244    1.3100    0.0000 C   0  0  0  0  0  0  0  0  0  0  0  0
   12.3923    1.3100    0.0000 C   0  0  0  0  0  0  0  0  0  0  0  0
   11.5263   -0.1900    0.0000 C   0  0  0  0  0  0  0  0  0  0  0  0
   15.1244   -0.6900    0.0000 C   0  0  0  0  0  0  0  0  0  0  0  0
   11.5263   -2.1900    0.0000 C   0  0  0  0  0  0  0  0  0  0  0  0
   14.9904   -2.1900    0.0000 C   0  0  0  0  0  0  0  0  0  0  0  0
   14.1244    2.3100    0.0000 C   0  0  0  0  0  0  0  0  0  0  0  0
   15.1244    1.3100    0.0000 C   0  0  0  0  0  0  0  0  0  0  0  0
   12.3923    2.3100    0.0000 C   0  0  0  0  0  0  0  0  0  0  0  0
   13.2583    2.8100    0.0000 C   0  0  0  0  0  0  0  0  0  0  0  0
    9.7942   -0.1900    0.0000 C   0  0  0  0  0  0  0  0  0  0  0  0
   16.6244   -1.5560    0.0000 C   0  0  0  0  0  0  0  0  0  0  0  0
    8.9282   -0.6900    0.0000 C   0  0  0  0  0  0  0  0  0  0  0  0
   17.1244   -2.4220    0.0000 C   0  0  0  0  0  0  0  0  0  0  0  0
    7.1962   -0.6900    0.0000 C   0  0  0  0  0  0  0  0  0  0  0  0
    6.3301   -0.1900    0.0000 C   0  0  0  0  0  0  0  0  0  0  0  0
    6.3301    0.8100    0.0000 C   0  0  0  0  0  0  0  0  0  0  0  0
    5.4641   -0.6900    0.0000 C   0  0  0  0  0  0  0  0  0  0  0  0
    5.4641    1.3100    0.0000 C   0  0  0  0  0  0  0  0  0  0  0  0
    4.5981   -0.1900    0.0000 C   0  0  0  0  0  0  0  0  0  0  0  0
    4.5981    0.8100    0.0000 C   0  0  0  0  0  0  0  0  0  0  0  0
   13.7953    0.1200    0.0000 H   0  0  0  0  0  0  0  0  0  0  0  0
   13.2583   -2.8100    0.0000 H   0  0  0  0  0  0  0  0  0  0  0  0
   11.8554    1.0000    0.0000 H   0  0  0  0  0  0  0  0  0  0  0  0
   11.2163   -1.6531    0.0000 H   0  0  0  0  0  0  0  0  0  0  0  0
   10.9893   -2.5000    0.0000 H   0  0  0  0  0  0  0  0  0  0  0  0
   11.8363   -2.7269    0.0000 H   0  0  0  0  0  0  0  0  0  0  0  0
   14.6804   -2.7269    0.0000 H   0  0  0  0  0  0  0  0  0  0  0  0
   15.5273   -2.5000    0.0000 H   0  0  0  0  0  0  0  0  0  0  0  0
   15.3004   -1.6531    0.0000 H   0  0  0  0  0  0  0  0  0  0  0  0
   14.6613    2.6200    0.0000 H   0  0  0  0  0  0  0  0  0  0  0  0
   11.8554    2.6200    0.0000 H   0  0  0  0  0  0  0  0  0  0  0  0
   13.2583    3.4300    0.0000 H   0  0  0  0  0  0  0  0  0  0  0  0
   10.1928    0.2849    0.0000 H   0  0  0  0  0  0  0  0  0  0  0  0
    9.3957    0.2849    0.0000 H   0  0  0  0  0  0  0  0  0  0  0  0
   17.2070   -1.3440    0.0000 H   0  0  0  0  0  0  0  0  0  0  0  0
   16.5167   -0.9454    0.0000 H   0  0  0  0  0  0  0  0  0  0  0  0
    8.5297   -1.1650    0.0000 H   0  0  0  0  0  0  0  0  0  0  0  0
    9.3267   -1.1650    0.0000 H   0  0  0  0  0  0  0  0  0  0  0  0
   16.5874   -2.7320    0.0000 H   0  0  0  0  0  0  0  0  0  0  0  0
   17.4344   -2.9590    0.0000 H   0  0  0  0  0  0  0  0  0  0  0  0
   17.6613   -2.1120    0.0000 H   0  0  0  0  0  0  0  0  0  0  0  0
    8.0622    0.4300    0.0000 H   0  0  0  0  0  0  0  0  0  0  0  0
    6.8671    1.1200    0.0000 H   0  0  0  0  0  0  0  0  0  0  0  0
    5.4641   -1.3100    0.0000 H   0  0  0  0  0  0  0  0  0  0  0  0
    5.4641    1.9300    0.0000 H   0  0  0  0  0  0  0  0  0  0  0  0
    4.0611   -0.5000    0.0000 H   0  0  0  0  0  0  0  0  0  0  0  0
  1 27  1  0  0  0  0
  2 27  1  0  0  0  0
  3 27  1  0  0  0  0
  4 22  1  0  0  0  0
  4 30  1  0  0  0  0
  5 23  1  0  0  0  0
  5 31  1  0  0  0  0
  6 22  2  0  0  0  0
  7 23  2  0  0  0  0
  8 34  2  0  0  0  0
  9 18  1  0  0  0  0
  9 19  1  0  0  0  0
  9 42  1  0  0  0  0
 10 32  1  0  0  0  0
 10 34  1  0  0  0  0
 10 62  1  0  0  0  0
 11 12  2  0  0  0  0
 11 40  1  0  0  0  0
 12 13  2  0  0  0  0
 14 15  1  0  0  0  0
 14 16  1  0  0  0  0
 14 17  1  0  0  0  0
 14 41  1  0  0  0  0
 15 18  2  0  0  0  0
 15 22  1  0  0  0  0
 16 19  2  0  0  0  0
 16 23  1  0  0  0  0
 17 20  1  0  0  0  0
 17 21  2  0  0  0  0
 18 24  1  0  0  0  0
 19 25  1  0  0  0  0
 20 26  2  0  0  0  0
 20 27  1  0  0  0  0
 21 28  1  0  0  0  0
 21 43  1  0  0  0  0
 24 44  1  0  0  0  0
 24 45  1  0  0  0  0
 24 46  1  0  0  0  0
 25 47  1  0  0  0  0
 25 48  1  0  0  0  0
 25 49  1  0  0  0  0
 26 29  1  0  0  0  0
 26 50  1  0  0  0  0
 28 29  2  0  0  0  0
 28 51  1  0  0  0  0
 29 52  1  0  0  0  0
 30 32  1  0  0  0  0
 30 53  1  0  0  0  0
 30 54  1  0  0  0  0
 31 33  1  0  0  0  0
 31 55  1  0  0  0  0
 31 56  1  0  0  0  0
 32 57  1  0  0  0  0
 32 58  1  0  0  0  0
 33 59  1  0  0  0  0
 33 60  1  0  0  0  0
 33 61  1  0  0  0  0
 34 35  1  0  0  0  0
 35 36  2  0  0  0  0
 35 37  1  0  0  0  0
 36 38  1  0  0  0  0
 36 63  1  0  0  0  0
 37 39  2  0  0  0  0
 37 64  1  0  0  0  0
 38 40  2  0  0  0  0
 38 65  1  0  0  0  0
 39 40  1  0  0  0  0
 39 66  1  0  0  0  0
M  CHG  2  12   1  13  -1
M  END
> <PUBCHEM_COMPOUND_CID>
656406

> <PUBCHEM_COMPOUND_CANONICALIZED>
1

> <PUBCHEM_CACTVS_COMPLEXITY>
1070

> <PUBCHEM_CACTVS_HBOND_ACCEPTOR>
11

> <PUBCHEM_CACTVS_HBOND_DONOR>
2

> <PUBCHEM_CACTVS_ROTATABLE_BOND>
11

> <PUBCHEM_CACTVS_SUBSKEYS>
AAADceB7uYAAAAAAAAAAAAAAAAAAAAAAAAAwYIAAAAAAAAABQAAAHwAYAAAADQjhmBYyyILABACKAiXSWACCAAAkAgAIiIEIZMgKJDKAtZGHMQhklgCY6ceY7/ieiAAAAAAQAAAQAAAAACAAAAAAAAAAAA==

> <PUBCHEM_IUPAC_OPENEYE_NAME>
O5-[2-[(4-azidobenzoyl)amino]ethyl] O3-ethyl 2,6-dimethyl-4-[2-(trifluoromethyl)phenyl]-1,4-dihydropyridine-3,5-dicarboxylate

> <PUBCHEM_IUPAC_CAS_NAME>
2,6-dimethyl-4-[2-(trifluoromethyl)phenyl]-1,4-dihydropyridine-3,5-dicarboxylic acid O5-[2-[[(4-azidophenyl)-oxomethyl]amino]ethyl] ester O3-ethyl ester

> <PUBCHEM_IUPAC_NAME>
5-O-[2-[(4-azidobenzoyl)amino]ethyl] 3-O-ethyl 2,6-dimethyl-4-[2-(trifluoromethyl)phenyl]-1,4-dihydropyridine-3,5-dicarboxylate

> <PUBCHEM_IUPAC_SYSTEMATIC_NAME>
O5-[2-[(4-azidophenyl)carbonylamino]ethyl] O3-ethyl 2,6-dimethyl-4-[2-(trifluoromethyl)phenyl]-1,4-dihydropyridine-3,5-dicarboxylate

> <PUBCHEM_IUPAC_TRADITIONAL_NAME>
2,6-dimethyl-4-[2-(trifluoromethyl)phenyl]-1,4-dihydropyridine-3,5-dicarboxylic acid O5-[2-[(4-azidobenzoyl)amino]ethyl] ester O3-ethyl ester

> <PUBCHEM_IUPAC_INCHI>
InChI=1S/C27H26F3N5O5/c1-4-39-25(37)21-15(2)33-16(3)22(23(21)19-7-5-6-8-20(19)27(28,29)30)26(38)40-14-13-32-24(36)17-9-11-18(12-10-17)34-35-31/h5-12,23,33H,4,13-14H2,1-3H3,(H,32,36)

> <PUBCHEM_IUPAC_INCHIKEY>
SWMHKFTXBOJETC-UHFFFAOYSA-N

> <PUBCHEM_XLOGP3_AA>
5.7

> <PUBCHEM_EXACT_MASS>
557.188604

> <PUBCHEM_MOLECULAR_FORMULA>
C27H26F3N5O5

> <PUBCHEM_MOLECULAR_WEIGHT>
557.52105

> <PUBCHEM_OPENEYE_CAN_SMILES>
CCOC(=O)C1=C(NC(=C(C1C2=CC=CC=C2C(F)(F)F)C(=O)OCCNC(=O)C3=CC=C(C=C3)N=[N+]=[N-])C)C

> <PUBCHEM_OPENEYE_ISO_SMILES>
CCOC(=O)C1=C(NC(=C(C1C2=CC=CC=C2C(F)(F)F)C(=O)OCCNC(=O)C3=CC=C(C=C3)N=[N+]=[N-])C)C

> <PUBCHEM_CACTVS_TPSA>
108

> <PUBCHEM_MONOISOTOPIC_WEIGHT>
557.188604

> <PUBCHEM_TOTAL_CHARGE>
0

> <PUBCHEM_HEAVY_ATOM_COUNT>
40

> <PUBCHEM_ATOM_DEF_STEREO_COUNT>
0

> <PUBCHEM_ATOM_UDEF_STEREO_COUNT>
1

> <PUBCHEM_BOND_DEF_STEREO_COUNT>
0

> <PUBCHEM_BOND_UDEF_STEREO_COUNT>
0

> <PUBCHEM_ISOTOPIC_ATOM_COUNT>
0

> <PUBCHEM_COMPONENT_COUNT>
1

> <PUBCHEM_CACTVS_TAUTO_COUNT>
10

> <PUBCHEM_COORDINATE_TYPE>
1
5
255

> <PUBCHEM_BONDANNOTATIONS>
14  17  3
17  20  8
17  21  8
20  26  8
21  28  8
26  29  8
28  29  8
35  36  8
35  37  8
36  38  8
37  39  8
38  40  8
39  40  8

$$$$

