442682
  -OEChem-07051212593D

 70 75  0     1  0  0  0  0  0999 V2000
   -1.1623    0.7727    1.6108 O   0  0  0  0  0  0  0  0  0  0  0  0
    1.3338   -0.4400   -0.7120 O   0  0  0  0  0  0  0  0  0  0  0  0
   -0.3576    3.2286   -1.0069 O   0  0  0  0  0  0  0  0  0  0  0  0
    3.1348   -2.6865   -0.6440 O   0  0  0  0  0  0  0  0  0  0  0  0
    3.2542    3.8856   -0.3496 O   0  0  0  0  0  0  0  0  0  0  0  0
    5.3083    0.7170   -3.2296 O   0  0  0  0  0  0  0  0  0  0  0  0
    3.5694    1.7206    2.0628 O   0  0  0  0  0  0  0  0  0  0  0  0
    1.3283   -1.0669    5.1874 O   0  0  0  0  0  0  0  0  0  0  0  0
   -4.5349   -0.2159   -2.1827 O   0  0  0  0  0  0  0  0  0  0  0  0
   -5.8059    3.7643    0.1579 O   0  0  0  0  0  0  0  0  0  0  0  0
   -6.4299    1.7188   -1.6018 O   0  0  0  0  0  0  0  0  0  0  0  0
   -0.8194   -3.6450    2.4401 O   0  0  0  0  0  0  0  0  0  0  0  0
   -2.4303   -4.9143   -1.8878 O   0  0  0  0  0  0  0  0  0  0  0  0
   -2.5313   -5.1531    0.8695 O   0  0  0  0  0  0  0  0  0  0  0  0
    1.2007    2.0773    0.4458 C   0  0  2  0  0  0  0  0  0  0  0  0
   -0.1800    2.0304   -0.2490 C   0  0  1  0  0  0  0  0  0  0  0  0
    2.2977    1.6957   -0.5440 C   0  0  0  0  0  0  0  0  0  0  0  0
   -1.3000    1.9453    0.7972 C   0  0  1  0  0  0  0  0  0  0  0  0
    1.2243    1.2544    1.7207 C   0  0  0  0  0  0  0  0  0  0  0  0
    2.3256    0.4187   -1.1103 C   0  0  0  0  0  0  0  0  0  0  0  0
    3.3459    0.0620   -2.0011 C   0  0  0  0  0  0  0  0  0  0  0  0
    2.4973   -2.2855   -1.8575 C   0  0  1  0  0  0  0  0  0  0  0  0
    1.1620   -1.5960   -1.5477 C   0  0  1  0  0  0  0  0  0  0  0  0
    3.4083   -1.3146   -2.6061 C   0  0  0  0  0  0  0  0  0  0  0  0
    0.0606    0.6518    2.2136 C   0  0  0  0  0  0  0  0  0  0  0  0
    3.2704    2.6335   -0.8869 C   0  0  0  0  0  0  0  0  0  0  0  0
   -2.6747    1.8841    0.1555 C   0  0  0  0  0  0  0  0  0  0  0  0
    2.4152    1.1042    2.4520 C   0  0  0  0  0  0  0  0  0  0  0  0
    4.3125    1.0162   -2.3468 C   0  0  0  0  0  0  0  0  0  0  0  0
    4.2750    2.2955   -1.7909 C   0  0  0  0  0  0  0  0  0  0  0  0
    0.1726   -2.5473   -0.9007 C   0  0  0  0  0  0  0  0  0  0  0  0
    0.0995   -0.1413    3.3643 C   0  0  0  0  0  0  0  0  0  0  0  0
    2.4500    0.3281    3.6117 C   0  0  0  0  0  0  0  0  0  0  0  0
   -3.6225    2.8609    0.4516 C   0  0  0  0  0  0  0  0  0  0  0  0
   -2.9822    0.8520   -0.7279 C   0  0  0  0  0  0  0  0  0  0  0  0
    1.2939   -0.3022    4.0625 C   0  0  0  0  0  0  0  0  0  0  0  0
   -0.6862   -3.3047   -1.6958 C   0  0  0  0  0  0  0  0  0  0  0  0
    0.1251   -2.6632    0.4876 C   0  0  0  0  0  0  0  0  0  0  0  0
   -4.2446    0.7965   -1.3185 C   0  0  0  0  0  0  0  0  0  0  0  0
   -4.8851    2.8052   -0.1388 C   0  0  0  0  0  0  0  0  0  0  0  0
   -5.1962    1.7729   -1.0238 C   0  0  0  0  0  0  0  0  0  0  0  0
   -0.7835   -3.5387    1.0822 C   0  0  0  0  0  0  0  0  0  0  0  0
   -1.5950   -4.1800   -1.1011 C   0  0  0  0  0  0  0  0  0  0  0  0
   -1.6436   -4.2970    0.2880 C   0  0  0  0  0  0  0  0  0  0  0  0
    1.3288    3.1082    0.7960 H   0  0  0  0  0  0  0  0  0  0  0  0
   -0.2591    1.2000   -0.9536 H   0  0  0  0  0  0  0  0  0  0  0  0
   -1.2637    2.8289    1.4513 H   0  0  0  0  0  0  0  0  0  0  0  0
    2.3565   -3.1870   -2.4654 H   0  0  0  0  0  0  0  0  0  0  0  0
    0.7071   -1.2389   -2.4834 H   0  0  0  0  0  0  0  0  0  0  0  0
    3.0875   -1.2422   -3.6524 H   0  0  0  0  0  0  0  0  0  0  0  0
    4.4388   -1.6878   -2.5772 H   0  0  0  0  0  0  0  0  0  0  0  0
    5.0276    3.0339   -2.0566 H   0  0  0  0  0  0  0  0  0  0  0  0
   -1.1468    3.1184   -1.5633 H   0  0  0  0  0  0  0  0  0  0  0  0
   -0.8067   -0.6227    3.7245 H   0  0  0  0  0  0  0  0  0  0  0  0
    3.3834    0.2200    4.1588 H   0  0  0  0  0  0  0  0  0  0  0  0
   -3.3814    3.6662    1.1409 H   0  0  0  0  0  0  0  0  0  0  0  0
   -2.2552    0.0772   -0.9567 H   0  0  0  0  0  0  0  0  0  0  0  0
    2.6523   -3.4551   -0.2960 H   0  0  0  0  0  0  0  0  0  0  0  0
   -0.6456   -3.2138   -2.7786 H   0  0  0  0  0  0  0  0  0  0  0  0
    0.8085   -2.0952    1.1116 H   0  0  0  0  0  0  0  0  0  0  0  0
    2.3464    4.2295   -0.3925 H   0  0  0  0  0  0  0  0  0  0  0  0
    5.8786    1.4963   -3.3445 H   0  0  0  0  0  0  0  0  0  0  0  0
    3.3441    2.5925    1.6987 H   0  0  0  0  0  0  0  0  0  0  0  0
    2.2343   -1.0671    5.5413 H   0  0  0  0  0  0  0  0  0  0  0  0
   -5.4487   -0.0984   -2.4956 H   0  0  0  0  0  0  0  0  0  0  0  0
   -5.4155    4.3956    0.7864 H   0  0  0  0  0  0  0  0  0  0  0  0
   -6.9526    2.4742   -1.2811 H   0  0  0  0  0  0  0  0  0  0  0  0
   -0.1405   -3.0630    2.8225 H   0  0  0  0  0  0  0  0  0  0  0  0
   -2.2552   -4.7024   -2.8207 H   0  0  0  0  0  0  0  0  0  0  0  0
   -2.4212   -5.1004    1.8348 H   0  0  0  0  0  0  0  0  0  0  0  0
  1 18  1  0  0  0  0
  1 25  1  0  0  0  0
  2 20  1  0  0  0  0
  2 23  1  0  0  0  0
  3 16  1  0  0  0  0
  3 53  1  0  0  0  0
  4 22  1  0  0  0  0
  4 58  1  0  0  0  0
  5 26  1  0  0  0  0
  5 61  1  0  0  0  0
  6 29  1  0  0  0  0
  6 62  1  0  0  0  0
  7 28  1  0  0  0  0
  7 63  1  0  0  0  0
  8 36  1  0  0  0  0
  8 64  1  0  0  0  0
  9 39  1  0  0  0  0
  9 65  1  0  0  0  0
 10 40  1  0  0  0  0
 10 66  1  0  0  0  0
 11 41  1  0  0  0  0
 11 67  1  0  0  0  0
 12 42  1  0  0  0  0
 12 68  1  0  0  0  0
 13 43  1  0  0  0  0
 13 69  1  0  0  0  0
 14 44  1  0  0  0  0
 14 70  1  0  0  0  0
 15 16  1  0  0  0  0
 15 17  1  0  0  0  0
 15 19  1  0  0  0  0
 15 45  1  0  0  0  0
 16 18  1  0  0  0  0
 16 46  1  0  0  0  0
 17 20  1  0  0  0  0
 17 26  2  0  0  0  0
 18 27  1  0  0  0  0
 18 47  1  0  0  0  0
 19 25  1  0  0  0  0
 19 28  2  0  0  0  0
 20 21  2  0  0  0  0
 21 24  1  0  0  0  0
 21 29  1  0  0  0  0
 22 23  1  0  0  0  0
 22 24  1  0  0  0  0
 22 48  1  0  0  0  0
 23 31  1  0  0  0  0
 23 49  1  0  0  0  0
 24 50  1  0  0  0  0
 24 51  1  0  0  0  0
 25 32  2  0  0  0  0
 26 30  1  0  0  0  0
 27 34  2  0  0  0  0
 27 35  1  0  0  0  0
 28 33  1  0  0  0  0
 29 30  2  0  0  0  0
 30 52  1  0  0  0  0
 31 37  2  0  0  0  0
 31 38  1  0  0  0  0
 32 36  1  0  0  0  0
 32 54  1  0  0  0  0
 33 36  2  0  0  0  0
 33 55  1  0  0  0  0
 34 40  1  0  0  0  0
 34 56  1  0  0  0  0
 35 39  2  0  0  0  0
 35 57  1  0  0  0  0
 37 43  1  0  0  0  0
 37 59  1  0  0  0  0
 38 42  2  0  0  0  0
 38 60  1  0  0  0  0
 39 41  1  0  0  0  0
 40 41  2  0  0  0  0
 42 44  1  0  0  0  0
 43 44  2  0  0  0  0
M  END
> <PUBCHEM_COMPOUND_CID>
442682

> <PUBCHEM_CONFORMER_RMSD>
1

> <PUBCHEM_CONFORMER_DIVERSEORDER>
1
4
10
5
13
12
2
8
9
11
6
7
3

> <PUBCHEM_MMFF94_PARTIAL_CHARGES>
63
1 -0.36
10 -0.53
11 -0.53
12 -0.53
13 -0.53
14 -0.53
15 0.29
16 0.28
17 -0.14
18 0.42
19 -0.14
2 -0.36
20 0.08
21 -0.14
22 0.28
23 0.42
24 0.14
25 0.08
26 0.08
27 -0.14
28 0.08
29 0.08
3 -0.68
30 -0.15
31 -0.14
32 -0.15
33 -0.15
34 -0.15
35 -0.15
36 0.08
37 -0.15
38 -0.15
39 0.08
4 -0.68
40 0.08
41 0.08
42 0.08
43 0.08
44 0.08
5 -0.53
52 0.15
53 0.4
54 0.15
55 0.15
56 0.15
57 0.15
58 0.4
59 0.15
6 -0.53
60 0.15
61 0.45
62 0.45
63 0.45
64 0.45
65 0.45
66 0.45
67 0.45
68 0.45
69 0.45
7 -0.53
70 0.45
8 -0.53
9 -0.53

> <PUBCHEM_EFFECTIVE_ROTOR_COUNT>
4.6

> <PUBCHEM_PHARMACOPHORE_FEATURES>
22
1 1 acceptor
1 10 donor
1 11 donor
1 12 donor
1 13 donor
1 14 donor
1 2 acceptor
1 3 acceptor
1 3 donor
1 4 acceptor
1 4 donor
1 5 donor
1 6 donor
1 7 donor
1 8 donor
1 9 donor
6 1 15 16 18 19 25 rings
6 17 20 21 26 29 30 rings
6 19 25 28 32 33 36 rings
6 2 20 21 22 23 24 rings
6 27 34 35 39 40 41 rings
6 31 37 38 42 43 44 rings

> <PUBCHEM_HEAVY_ATOM_COUNT>
44

> <PUBCHEM_ATOM_DEF_STEREO_COUNT>
5

> <PUBCHEM_ATOM_UDEF_STEREO_COUNT>
0

> <PUBCHEM_BOND_DEF_STEREO_COUNT>
0

> <PUBCHEM_BOND_UDEF_STEREO_COUNT>
0

> <PUBCHEM_ISOTOPIC_ATOM_COUNT>
0

> <PUBCHEM_COMPONENT_COUNT>
1

> <PUBCHEM_CACTVS_TAUTO_COUNT>
998

> <PUBCHEM_CONFORMER_ID>
0006C13A00000001

> <PUBCHEM_MMFF94_ENERGY>
140.7477

> <PUBCHEM_FEATURE_SELFOVERLAP>
111.717

> <PUBCHEM_SHAPE_FINGERPRINT>
10032420 55 18041842959688333141
10258939 38 17543914503988348072
11093857 51 18120384404413817719
11285246 1 17102800724923093662
11582403 64 17703497857349596616
12156800 1 18266476307979300626
12539747 72 18199190577490750288
12788726 201 17837788733191043235
13636023 20 17616816968936226510
13726171 33 17978793411551981113
14040222 75 17326376175766839655
14068700 675 17393036662092325710
14932702 115 18041549265566198812
15219462 58 17127874757504307680
15324884 4 17838578264572167492
15444296 8 17326366249707561274
15484559 13 18193265510879729837
15968369 26 18043839574415472909
16067690 210 17767413378778967211
16114785 44 15585197271038618410
16993438 75 18265602195998063151
17909252 39 17240205421756493591
17974551 9 15963233549059784431
20587220 17 15697183810697674959
20764821 26 18339659905552120099
20775438 99 17895495651602518127
21304303 282 17272846511913050560
23559900 14 17313679242886055441
238 59 18123166138265756910
27425 322 17059189493575818173
3380486 77 17905869720358268078
469060 322 17548089426900672478
563151 248 17988098733413977200
6376802 137 16806721983739032558
6669772 16 17274523430533565896

> <PUBCHEM_SHAPE_MULTIPOLES>
823.33
8.99
6.18
4.05
9.2
7.72
5.28
-9.06
-7.96
4.76
-1.1
-4.04
0.78
0.49

> <PUBCHEM_SHAPE_SELFOVERLAP>
1856.113

> <PUBCHEM_SHAPE_VOLUME>
427.1

> <PUBCHEM_COORDINATE_TYPE>
2
5
10

$$$$

