242864
  -OEChem-07051213063D

 57 60  0     1  0  0  0  0  0999 V2000
   -4.1268    1.9586   -0.4244 O   0  0  0  0  0  0  0  0  0  0  0  0
   -4.3169   -0.4232   -1.6636 O   0  0  0  0  0  0  0  0  0  0  0  0
    6.5798   -0.4739   -0.1565 O   0  0  0  0  0  0  0  0  0  0  0  0
   -1.8176    1.0559   -0.2981 C   0  0  1  0  0  0  0  0  0  0  0  0
   -1.3441   -0.3521    0.1144 C   0  0  2  0  0  0  0  0  0  0  0  0
    0.1279   -0.5847   -0.2265 C   0  0  1  0  0  0  0  0  0  0  0  0
   -3.3011    0.9428    0.1114 C   0  0  2  0  0  0  0  0  0  0  0  0
   -3.7261   -0.4739   -0.3657 C   0  0  2  0  0  0  0  0  0  0  0  0
   -2.4064   -1.2850   -0.4706 C   0  0  0  0  0  0  0  0  0  0  0  0
    0.9910    0.4393    0.5718 C   0  0  2  0  0  0  0  0  0  0  0  0
   -1.0101    2.0825    0.5093 C   0  0  0  0  0  0  0  0  0  0  0  0
    0.5088    1.8946    0.3279 C   0  0  0  0  0  0  0  0  0  0  0  0
    0.5949   -2.0010    0.1146 C   0  0  0  0  0  0  0  0  0  0  0  0
   -1.6773    1.3776   -1.8064 C   0  0  0  0  0  0  0  0  0  0  0  0
   -4.7348   -1.1166    0.5806 C   0  0  0  0  0  0  0  0  0  0  0  0
    2.4817    0.2054    0.3417 C   0  0  0  0  0  0  0  0  0  0  0  0
    2.0237   -2.2079   -0.3787 C   0  0  0  0  0  0  0  0  0  0  0  0
    2.9542   -1.0618   -0.0652 C   0  0  0  0  0  0  0  0  0  0  0  0
   -6.0336   -0.3179    0.6327 C   0  0  0  0  0  0  0  0  0  0  0  0
    3.4264    1.2113    0.6123 C   0  0  0  0  0  0  0  0  0  0  0  0
    4.3336   -1.2721   -0.2399 C   0  0  0  0  0  0  0  0  0  0  0  0
   -7.0289   -0.9438    1.5965 C   0  0  0  0  0  0  0  0  0  0  0  0
    4.7943    0.9862    0.4431 C   0  0  0  0  0  0  0  0  0  0  0  0
    5.2481   -0.2538    0.0126 C   0  0  0  0  0  0  0  0  0  0  0  0
    7.4595    0.6136    0.1266 C   0  0  0  0  0  0  0  0  0  0  0  0
   -1.4345   -0.4456    1.2099 H   0  0  0  0  0  0  0  0  0  0  0  0
    0.2824   -0.4367   -1.3032 H   0  0  0  0  0  0  0  0  0  0  0  0
   -3.3716    1.0074    1.2051 H   0  0  0  0  0  0  0  0  0  0  0  0
   -2.1718   -1.5431   -1.5100 H   0  0  0  0  0  0  0  0  0  0  0  0
   -2.4507   -2.2205    0.0978 H   0  0  0  0  0  0  0  0  0  0  0  0
    0.8353    0.2396    1.6435 H   0  0  0  0  0  0  0  0  0  0  0  0
   -1.2423    1.9841    1.5779 H   0  0  0  0  0  0  0  0  0  0  0  0
   -1.2913    3.1044    0.2275 H   0  0  0  0  0  0  0  0  0  0  0  0
    0.8092    2.2213   -0.6748 H   0  0  0  0  0  0  0  0  0  0  0  0
    1.0012    2.5782    1.0293 H   0  0  0  0  0  0  0  0  0  0  0  0
   -0.0508   -2.7553   -0.3486 H   0  0  0  0  0  0  0  0  0  0  0  0
    0.5467   -2.1622    1.1993 H   0  0  0  0  0  0  0  0  0  0  0  0
   -0.6358    1.3860   -2.1389 H   0  0  0  0  0  0  0  0  0  0  0  0
   -2.1974    0.6601   -2.4457 H   0  0  0  0  0  0  0  0  0  0  0  0
   -2.0844    2.3705   -2.0298 H   0  0  0  0  0  0  0  0  0  0  0  0
   -4.3084   -1.2064    1.5875 H   0  0  0  0  0  0  0  0  0  0  0  0
   -4.9664   -2.1334    0.2377 H   0  0  0  0  0  0  0  0  0  0  0  0
    2.0095   -2.3405   -1.4682 H   0  0  0  0  0  0  0  0  0  0  0  0
    2.4145   -3.1342    0.0598 H   0  0  0  0  0  0  0  0  0  0  0  0
   -4.2658    1.7704   -1.3677 H   0  0  0  0  0  0  0  0  0  0  0  0
   -4.5110   -1.3349   -1.9410 H   0  0  0  0  0  0  0  0  0  0  0  0
   -6.4945   -0.2600   -0.3597 H   0  0  0  0  0  0  0  0  0  0  0  0
   -5.8506    0.7071    0.9694 H   0  0  0  0  0  0  0  0  0  0  0  0
    3.1179    2.1898    0.9680 H   0  0  0  0  0  0  0  0  0  0  0  0
    4.6944   -2.2426   -0.5747 H   0  0  0  0  0  0  0  0  0  0  0  0
   -7.2831   -1.9637    1.2906 H   0  0  0  0  0  0  0  0  0  0  0  0
   -6.6225   -0.9804    2.6124 H   0  0  0  0  0  0  0  0  0  0  0  0
   -7.9528   -0.3573    1.6219 H   0  0  0  0  0  0  0  0  0  0  0  0
    5.4469    1.8224    0.6702 H   0  0  0  0  0  0  0  0  0  0  0  0
    8.4791    0.2624   -0.0631 H   0  0  0  0  0  0  0  0  0  0  0  0
    7.4124    0.9048    1.1814 H   0  0  0  0  0  0  0  0  0  0  0  0
    7.2822    1.4599   -0.5457 H   0  0  0  0  0  0  0  0  0  0  0  0
  1  7  1  0  0  0  0
  1 45  1  0  0  0  0
  2  8  1  0  0  0  0
  2 46  1  0  0  0  0
  3 24  1  0  0  0  0
  3 25  1  0  0  0  0
  4  5  1  0  0  0  0
  4  7  1  0  0  0  0
  4 11  1  0  0  0  0
  4 14  1  0  0  0  0
  5  6  1  0  0  0  0
  5  9  1  0  0  0  0
  5 26  1  0  0  0  0
  6 10  1  0  0  0  0
  6 13  1  0  0  0  0
  6 27  1  0  0  0  0
  7  8  1  0  0  0  0
  7 28  1  0  0  0  0
  8  9  1  0  0  0  0
  8 15  1  0  0  0  0
  9 29  1  0  0  0  0
  9 30  1  0  0  0  0
 10 12  1  0  0  0  0
 10 16  1  0  0  0  0
 10 31  1  0  0  0  0
 11 12  1  0  0  0  0
 11 32  1  0  0  0  0
 11 33  1  0  0  0  0
 12 34  1  0  0  0  0
 12 35  1  0  0  0  0
 13 17  1  0  0  0  0
 13 36  1  0  0  0  0
 13 37  1  0  0  0  0
 14 38  1  0  0  0  0
 14 39  1  0  0  0  0
 14 40  1  0  0  0  0
 15 19  1  0  0  0  0
 15 41  1  0  0  0  0
 15 42  1  0  0  0  0
 16 18  2  0  0  0  0
 16 20  1  0  0  0  0
 17 18  1  0  0  0  0
 17 43  1  0  0  0  0
 17 44  1  0  0  0  0
 18 21  1  0  0  0  0
 19 22  1  0  0  0  0
 19 47  1  0  0  0  0
 19 48  1  0  0  0  0
 20 23  2  0  0  0  0
 20 49  1  0  0  0  0
 21 24  2  0  0  0  0
 21 50  1  0  0  0  0
 22 51  1  0  0  0  0
 22 52  1  0  0  0  0
 22 53  1  0  0  0  0
 23 24  1  0  0  0  0
 23 54  1  0  0  0  0
 25 55  1  0  0  0  0
 25 56  1  0  0  0  0
 25 57  1  0  0  0  0
M  END
> <PUBCHEM_COMPOUND_CID>
242864

> <PUBCHEM_CONFORMER_RMSD>
0.8

> <PUBCHEM_CONFORMER_DIVERSEORDER>
1

> <PUBCHEM_MMFF94_PARTIAL_CHARGES>
19
1 -0.68
10 0.14
16 -0.14
17 0.14
18 -0.14
2 -0.68
20 -0.15
21 -0.15
23 -0.15
24 0.08
25 0.28
3 -0.36
45 0.4
46 0.4
49 0.15
50 0.15
54 0.15
7 0.28
8 0.28

> <PUBCHEM_EFFECTIVE_ROTOR_COUNT>
4.4

> <PUBCHEM_PHARMACOPHORE_FEATURES>
10
1 1 acceptor
1 1 donor
1 2 acceptor
1 2 donor
1 22 hydrophobe
1 3 acceptor
5 4 5 7 8 9 rings
6 16 18 20 21 23 24 rings
6 4 5 6 10 11 12 rings
6 6 10 13 16 17 18 rings

> <PUBCHEM_HEAVY_ATOM_COUNT>
25

> <PUBCHEM_ATOM_DEF_STEREO_COUNT>
6

> <PUBCHEM_ATOM_UDEF_STEREO_COUNT>
0

> <PUBCHEM_BOND_DEF_STEREO_COUNT>
0

> <PUBCHEM_BOND_UDEF_STEREO_COUNT>
0

> <PUBCHEM_ISOTOPIC_ATOM_COUNT>
0

> <PUBCHEM_COMPONENT_COUNT>
1

> <PUBCHEM_CACTVS_TAUTO_COUNT>
1

> <PUBCHEM_CONFORMER_ID>
0003B4B000000001

> <PUBCHEM_MMFF94_ENERGY>
98.2375

> <PUBCHEM_FEATURE_SELFOVERLAP>
50.854

> <PUBCHEM_SHAPE_FINGERPRINT>
10 15 18270968947646768952
10591671 39 18273205401251901750
106641 1 16917064417973461614
11488393 25 17242722328785941902
11578080 2 17343518974307237213
11646440 116 18113616772895119728
11963148 33 18130793317369322795
12166972 35 17847057775248304804
12236239 1 17918277576022696336
12403259 415 18334869298782177104
12730499 353 18408037429676519314
12838862 33 18263944218304264657
13073987 5 18271807977164209346
13140716 1 18121781625962625083
13288520 33 18409167705917321901
13402501 40 18411136926689297202
13533116 47 6699543662513886724
14341114 176 18408035209067111987
14617045 38 18408317783060019754
14787075 74 18411141311835010522
14955137 171 18340198584286571233
15131766 46 5110566940674742130
15142383 8 5184351785569136114
15196674 1 18336830891697067246
15537594 2 18113621191910292167
17492 89 18124316261984230778
17980427 23 13973683983217853615
1813 80 17632289082399578853
18335252 98 18272927220204137002
18608769 82 18339358565613187394
18681886 176 18336835208688092552
19141452 34 17967816003228872575
19489759 90 15195570112819546143
200 152 18040439901557589480
21033650 10 15337711797624665510
21150785 3 15769772429727256194
21267235 1 18409161117463688234
21279426 13 18264488571545277190
21521721 280 18040999493337124776
21623969 137 18411129230340193403
21781051 124 18128233645904584042
21792961 116 18272096044757340222
23402539 116 18334021596781162908
23522609 53 17897420849276641985
23557571 272 17989208182783536877
23559900 14 18260559900772876736
3178227 256 18408880716308020810
335352 9 18334859381106221439
34797466 226 18040988524207350772
350125 39 18409165515204530104
3545911 37 18408323285318970066
3633792 109 12247691473400377891
4093350 32 16153703177655096152
4325135 7 18343017783428429580
4340502 62 17275107228321818810
5104073 3 18338239387218984491
6086070 43 16806184236901617801

> <PUBCHEM_SHAPE_MULTIPOLES>
496.88
15.58
2.02
1.05
5.09
0.13
-0.21
-2
3.49
-0.13
-0.08
-1.37
0.1
1.02

> <PUBCHEM_SHAPE_SELFOVERLAP>
1064.013

> <PUBCHEM_SHAPE_VOLUME>
274.4

> <PUBCHEM_COORDINATE_TYPE>
2
5
10

$$$$

