44630447
  -OEChem-07051212442D

 66 68  0     1  0  0  0  0  0999 V2000
   10.3312   -0.5000    0.0000 O   0  0  0  0  0  0  0  0  0  0  0  0
    8.5991   -0.5000    0.0000 O   0  0  0  0  0  0  0  0  0  0  0  0
   11.1972    2.0000    0.0000 O   0  0  0  0  0  0  0  0  0  0  0  0
    6.0010   -1.0000    0.0000 O   0  0  0  0  0  0  0  0  0  0  0  0
    4.2690   -1.0000    0.0000 O   0  0  0  0  0  0  0  0  0  0  0  0
    6.8671   -2.5000    0.0000 O   0  0  0  0  0  0  0  0  0  0  0  0
   10.3312   -2.5000    0.0000 O   0  0  0  0  0  0  0  0  0  0  0  0
    8.5991   -3.5000    0.0000 O   0  0  0  0  0  0  0  0  0  0  0  0
    8.5991    0.5000    0.0000 O   0  0  0  0  0  0  0  0  0  0  0  0
    8.5991    2.5000    0.0000 O   0  0  0  0  0  0  0  0  0  0  0  0
    6.0010    1.0000    0.0000 O   0  0  0  0  0  0  0  0  0  0  0  0
    4.2690    2.0000    0.0000 O   0  0  0  0  0  0  0  0  0  0  0  0
   10.3312    3.5000    0.0000 O   0  0  0  0  0  0  0  0  0  0  0  0
    2.5369    1.0000    0.0000 O   0  0  0  0  0  0  0  0  0  0  0  0
   12.9292    1.0000    0.0000 O   0  0  0  0  0  0  0  0  0  0  0  0
    2.5369   -2.0000    0.0000 O   0  0  0  0  0  0  0  0  0  0  0  0
   10.3312    0.5000    0.0000 C   0  0  1  0  0  0  0  0  0  0  0  0
    7.7331   -1.0000    0.0000 C   0  0  1  0  0  0  0  0  0  0  0  0
    9.4651   -1.0000    0.0000 C   0  0  1  0  0  0  0  0  0  0  0  0
    7.7331   -2.0000    0.0000 C   0  0  2  0  0  0  0  0  0  0  0  0
    9.4651   -2.0000    0.0000 C   0  0  1  0  0  0  0  0  0  0  0  0
    8.5991   -2.5000    0.0000 C   0  0  1  0  0  0  0  0  0  0  0  0
    9.4651    1.0000    0.0000 C   0  0  1  0  0  0  0  0  0  0  0  0
   11.1972    1.0000    0.0000 C   0  0  1  0  0  0  0  0  0  0  0  0
    9.4651    2.0000    0.0000 C   0  0  2  0  0  0  0  0  0  0  0  0
    6.8671   -0.5000    0.0000 C   0  0  0  0  0  0  0  0  0  0  0  0
    5.1350   -0.5000    0.0000 C   0  0  1  0  0  0  0  0  0  0  0  0
    5.1350    0.5000    0.0000 C   0  0  1  0  0  0  0  0  0  0  0  0
    4.2690    1.0000    0.0000 C   0  0  2  0  0  0  0  0  0  0  0  0
   10.3312    2.5000    0.0000 C   0  0  3  0  0  0  0  0  0  0  0  0
    3.4030    0.5000    0.0000 C   0  0  1  0  0  0  0  0  0  0  0  0
    3.4030   -0.5000    0.0000 C   0  0  1  0  0  0  0  0  0  0  0  0
   12.0632    0.5000    0.0000 C   0  0  0  0  0  0  0  0  0  0  0  0
    2.5369   -1.0000    0.0000 C   0  0  0  0  0  0  0  0  0  0  0  0
   10.8681    0.1900    0.0000 H   0  0  0  0  0  0  0  0  0  0  0  0
    7.7331   -0.3800    0.0000 H   0  0  0  0  0  0  0  0  0  0  0  0
   10.0021   -1.3100    0.0000 H   0  0  0  0  0  0  0  0  0  0  0  0
    7.7331   -2.6200    0.0000 H   0  0  0  0  0  0  0  0  0  0  0  0
   10.0021   -1.6900    0.0000 H   0  0  0  0  0  0  0  0  0  0  0  0
    8.0622   -2.8100    0.0000 H   0  0  0  0  0  0  0  0  0  0  0  0
    9.4651    0.3800    0.0000 H   0  0  0  0  0  0  0  0  0  0  0  0
   11.7341    1.3100    0.0000 H   0  0  0  0  0  0  0  0  0  0  0  0
    9.4651    2.6200    0.0000 H   0  0  0  0  0  0  0  0  0  0  0  0
    7.2656   -0.0251    0.0000 H   0  0  0  0  0  0  0  0  0  0  0  0
    6.4685   -0.0251    0.0000 H   0  0  0  0  0  0  0  0  0  0  0  0
    5.1350   -1.1200    0.0000 H   0  0  0  0  0  0  0  0  0  0  0  0
    5.1350    1.1200    0.0000 H   0  0  0  0  0  0  0  0  0  0  0  0
    4.8059    1.3100    0.0000 H   0  0  0  0  0  0  0  0  0  0  0  0
    9.7942    2.8100    0.0000 H   0  0  0  0  0  0  0  0  0  0  0  0
    3.4030    1.1200    0.0000 H   0  0  0  0  0  0  0  0  0  0  0  0
    3.4030   -1.1200    0.0000 H   0  0  0  0  0  0  0  0  0  0  0  0
   11.6647    0.0251    0.0000 H   0  0  0  0  0  0  0  0  0  0  0  0
   12.4617    0.0251    0.0000 H   0  0  0  0  0  0  0  0  0  0  0  0
    6.8671   -3.1200    0.0000 H   0  0  0  0  0  0  0  0  0  0  0  0
   10.3312   -3.1200    0.0000 H   0  0  0  0  0  0  0  0  0  0  0  0
    8.0622   -3.8100    0.0000 H   0  0  0  0  0  0  0  0  0  0  0  0
    2.3249   -0.4174    0.0000 H   0  0  0  0  0  0  0  0  0  0  0  0
    1.9264   -1.1077    0.0000 H   0  0  0  0  0  0  0  0  0  0  0  0
    8.0622    0.8100    0.0000 H   0  0  0  0  0  0  0  0  0  0  0  0
    8.5991    3.1200    0.0000 H   0  0  0  0  0  0  0  0  0  0  0  0
    6.0010    1.6200    0.0000 H   0  0  0  0  0  0  0  0  0  0  0  0
    3.7320    2.3100    0.0000 H   0  0  0  0  0  0  0  0  0  0  0  0
   10.8681    3.8100    0.0000 H   0  0  0  0  0  0  0  0  0  0  0  0
    2.0000    0.6900    0.0000 H   0  0  0  0  0  0  0  0  0  0  0  0
   13.4662    0.6900    0.0000 H   0  0  0  0  0  0  0  0  0  0  0  0
    2.0000   -2.3100    0.0000 H   0  0  0  0  0  0  0  0  0  0  0  0
 17  1  1  1  0  0  0
 19  1  1  6  0  0  0
  2 18  1  0  0  0  0
  2 19  1  0  0  0  0
  3 24  1  0  0  0  0
  3 30  1  0  0  0  0
  4 26  1  0  0  0  0
 27  4  1  1  0  0  0
  5 27  1  0  0  0  0
  5 32  1  0  0  0  0
 20  6  1  6  0  0  0
  6 54  1  0  0  0  0
 21  7  1  6  0  0  0
  7 55  1  0  0  0  0
 22  8  1  1  0  0  0
  8 56  1  0  0  0  0
 23  9  1  6  0  0  0
  9 59  1  0  0  0  0
 25 10  1  1  0  0  0
 10 60  1  0  0  0  0
 28 11  1  1  0  0  0
 11 61  1  0  0  0  0
 29 12  1  6  0  0  0
 12 62  1  0  0  0  0
 13 30  1  0  0  0  0
 13 63  1  0  0  0  0
 31 14  1  1  0  0  0
 14 64  1  0  0  0  0
 15 33  1  0  0  0  0
 15 65  1  0  0  0  0
 16 34  1  0  0  0  0
 16 66  1  0  0  0  0
 17 23  1  0  0  0  0
 17 24  1  0  0  0  0
 17 35  1  0  0  0  0
 18 20  1  0  0  0  0
 18 26  1  1  0  0  0
 18 36  1  0  0  0  0
 19 21  1  0  0  0  0
 19 37  1  0  0  0  0
 20 22  1  0  0  0  0
 20 38  1  0  0  0  0
 21 22  1  0  0  0  0
 21 39  1  0  0  0  0
 22 40  1  0  0  0  0
 23 25  1  0  0  0  0
 23 41  1  0  0  0  0
 24 33  1  6  0  0  0
 24 42  1  0  0  0  0
 25 30  1  0  0  0  0
 25 43  1  0  0  0  0
 26 44  1  0  0  0  0
 26 45  1  0  0  0  0
 27 28  1  0  0  0  0
 27 46  1  0  0  0  0
 28 29  1  0  0  0  0
 28 47  1  0  0  0  0
 29 31  1  0  0  0  0
 29 48  1  0  0  0  0
 30 49  1  0  0  0  0
 31 32  1  0  0  0  0
 31 50  1  0  0  0  0
 32 34  1  6  0  0  0
 32 51  1  0  0  0  0
 33 52  1  0  0  0  0
 33 53  1  0  0  0  0
 34 57  1  0  0  0  0
 34 58  1  0  0  0  0
M  END
> <PUBCHEM_COMPOUND_CID>
44630447

> <PUBCHEM_COMPOUND_CANONICALIZED>
1

> <PUBCHEM_CACTVS_COMPLEXITY>
641

> <PUBCHEM_CACTVS_HBOND_ACCEPTOR>
16

> <PUBCHEM_CACTVS_HBOND_DONOR>
11

> <PUBCHEM_CACTVS_ROTATABLE_BOND>
7

> <PUBCHEM_CACTVS_SUBSKEYS>
AAADcfB4PgAAAAAAAAAAAAAAAAAAAAAAAAAkSJAAAAAAAAAAAAAAGgAACAAACBSwgAMACAAABgAAAAAAAAAAAAAAAAAAAAAAAAAREAIAAAAiQAAFAAAHAAHAYAwAAAAAAAAAAAAAAAAAAAAAAAAAAAAAAA==

> <PUBCHEM_IUPAC_OPENEYE_NAME>
(2R,3S,4S,5R,6S)-2-(hydroxymethyl)-6-[[(2R,3S,4S,5R,6R)-3,4,5-trihydroxy-6-[(2R,3S,4R,5R)-4,5,6-trihydroxy-2-(hydroxymethyl)tetrahydropyran-3-yl]oxy-tetrahydropyran-2-yl]methoxy]tetrahydropyran-3,4,5-triol

> <PUBCHEM_IUPAC_CAS_NAME>
(2R,3S,4S,5R,6S)-2-(hydroxymethyl)-6-[[(2R,3S,4S,5R,6R)-3,4,5-trihydroxy-6-[[(2R,3S,4R,5R)-4,5,6-trihydroxy-2-(hydroxymethyl)-3-oxanyl]oxy]-2-oxanyl]methoxy]oxane-3,4,5-triol

> <PUBCHEM_IUPAC_NAME>
(2R,3S,4S,5R,6S)-2-(hydroxymethyl)-6-[[(2R,3S,4S,5R,6R)-3,4,5-trihydroxy-6-[(2R,3S,4R,5R)-4,5,6-trihydroxy-2-(hydroxymethyl)oxan-3-yl]oxyoxan-2-yl]methoxy]oxane-3,4,5-triol

> <PUBCHEM_IUPAC_SYSTEMATIC_NAME>
(2R,3S,4S,5R,6S)-2-(hydroxymethyl)-6-[[(2R,3S,4S,5R,6R)-6-[(2R,3S,4R,5R)-2-(hydroxymethyl)-4,5,6-tris(oxidanyl)oxan-3-yl]oxy-3,4,5-tris(oxidanyl)oxan-2-yl]methoxy]oxane-3,4,5-triol

> <PUBCHEM_IUPAC_TRADITIONAL_NAME>
(2R,3S,4S,5R,6S)-2-methylol-6-[[(2R,3S,4S,5R,6R)-3,4,5-trihydroxy-6-[(2R,3S,4R,5R)-4,5,6-trihydroxy-2-methylol-tetrahydropyran-3-yl]oxy-tetrahydropyran-2-yl]methoxy]tetrahydropyran-3,4,5-triol

> <PUBCHEM_IUPAC_INCHI>
InChI=1S/C18H32O16/c19-1-4-7(21)9(23)13(27)17(32-4)30-3-6-8(22)10(24)14(28)18(33-6)34-15-5(2-20)31-16(29)12(26)11(15)25/h4-29H,1-3H2/t4-,5-,6-,7-,8-,9+,10+,11-,12-,13-,14-,15-,16?,17+,18-/m1/s1

> <PUBCHEM_IUPAC_INCHIKEY>
OWEGMIWEEQEYGQ-UCFFOQEWSA-N

> <PUBCHEM_XLOGP3_AA>
-6.9

> <PUBCHEM_EXACT_MASS>
504.169035

> <PUBCHEM_MOLECULAR_FORMULA>
C18H32O16

> <PUBCHEM_MOLECULAR_WEIGHT>
504.43708

> <PUBCHEM_OPENEYE_CAN_SMILES>
C(C1C(C(C(C(O1)OCC2C(C(C(C(O2)OC3C(OC(C(C3O)O)O)CO)O)O)O)O)O)O)O

> <PUBCHEM_OPENEYE_ISO_SMILES>
C([C@@H]1[C@H]([C@@H]([C@H]([C@H](O1)OC[C@@H]2[C@H]([C@@H]([C@H]([C@H](O2)O[C@@H]3[C@H](OC([C@@H]([C@H]3O)O)O)CO)O)O)O)O)O)O)O

> <PUBCHEM_CACTVS_TPSA>
269

> <PUBCHEM_MONOISOTOPIC_WEIGHT>
504.169035

> <PUBCHEM_TOTAL_CHARGE>
0

> <PUBCHEM_HEAVY_ATOM_COUNT>
34

> <PUBCHEM_ATOM_DEF_STEREO_COUNT>
14

> <PUBCHEM_ATOM_UDEF_STEREO_COUNT>
1

> <PUBCHEM_BOND_DEF_STEREO_COUNT>
0

> <PUBCHEM_BOND_UDEF_STEREO_COUNT>
0

> <PUBCHEM_ISOTOPIC_ATOM_COUNT>
0

> <PUBCHEM_COMPONENT_COUNT>
1

> <PUBCHEM_CACTVS_TAUTO_COUNT>
1

> <PUBCHEM_COORDINATE_TYPE>
1
5
255

> <PUBCHEM_BONDANNOTATIONS>
17  1  5
19  1  6
25  10  5
28  11  5
29  12  6
30  13  3
31  14  5
18  26  5
24  33  6
32  34  6
27  4  5
20  6  6
21  7  6
22  8  5
23  9  6

$$$$

