6254
  -OEChem-06261201122D

 34 35  0     0  0  0  0  0  0999 V2000
    6.3301   -0.5000    0.0000 S   0  0  0  0  0  0  0  0  0  0  0  0
    6.3301    0.5000    0.0000 S   0  0  0  0  0  0  0  0  0  0  0  0
    7.1962   -4.0000    0.0000 O   0  0  0  0  0  0  0  0  0  0  0  0
    5.4641    4.0000    0.0000 O   0  0  0  0  0  0  0  0  0  0  0  0
    8.9282   -4.0000    0.0000 O   0  0  0  0  0  0  0  0  0  0  0  0
    3.7320    4.0000    0.0000 O   0  0  0  0  0  0  0  0  0  0  0  0
    2.0000    2.0000    0.0000 O   0  5  0  0  0  0  0  0  0  0  0  0
   10.6603   -2.0000    0.0000 O   0  5  0  0  0  0  0  0  0  0  0  0
    9.7942   -3.5000    0.0000 O   0  0  0  0  0  0  0  0  0  0  0  0
    2.8660    3.5000    0.0000 O   0  0  0  0  0  0  0  0  0  0  0  0
    2.8660    2.5000    0.0000 N   0  3  0  0  0  0  0  0  0  0  0  0
    9.7942   -2.5000    0.0000 N   0  3  0  0  0  0  0  0  0  0  0  0
    4.5981    2.5000    0.0000 C   0  0  0  0  0  0  0  0  0  0  0  0
    8.0622   -2.5000    0.0000 C   0  0  0  0  0  0  0  0  0  0  0  0
    7.1962   -1.0000    0.0000 C   0  0  0  0  0  0  0  0  0  0  0  0
    5.4641    1.0000    0.0000 C   0  0  0  0  0  0  0  0  0  0  0  0
    3.7320    2.0000    0.0000 C   0  0  0  0  0  0  0  0  0  0  0  0
    8.9282   -2.0000    0.0000 C   0  0  0  0  0  0  0  0  0  0  0  0
    7.1962   -2.0000    0.0000 C   0  0  0  0  0  0  0  0  0  0  0  0
    5.4641    2.0000    0.0000 C   0  0  0  0  0  0  0  0  0  0  0  0
    8.0622   -0.5000    0.0000 C   0  0  0  0  0  0  0  0  0  0  0  0
    4.5981    0.5000    0.0000 C   0  0  0  0  0  0  0  0  0  0  0  0
    8.9282   -1.0000    0.0000 C   0  0  0  0  0  0  0  0  0  0  0  0
    3.7320    1.0000    0.0000 C   0  0  0  0  0  0  0  0  0  0  0  0
    4.5981    3.5000    0.0000 C   0  0  0  0  0  0  0  0  0  0  0  0
    8.0622   -3.5000    0.0000 C   0  0  0  0  0  0  0  0  0  0  0  0
    6.0010    2.3100    0.0000 H   0  0  0  0  0  0  0  0  0  0  0  0
    6.6592   -2.3100    0.0000 H   0  0  0  0  0  0  0  0  0  0  0  0
    4.5981   -0.1200    0.0000 H   0  0  0  0  0  0  0  0  0  0  0  0
    8.0622    0.1200    0.0000 H   0  0  0  0  0  0  0  0  0  0  0  0
    3.1951    0.6900    0.0000 H   0  0  0  0  0  0  0  0  0  0  0  0
    9.4651   -0.6900    0.0000 H   0  0  0  0  0  0  0  0  0  0  0  0
    5.4641    4.6200    0.0000 H   0  0  0  0  0  0  0  0  0  0  0  0
    7.1962   -4.6200    0.0000 H   0  0  0  0  0  0  0  0  0  0  0  0
  1  2  1  0  0  0  0
  1 15  1  0  0  0  0
  2 16  1  0  0  0  0
  3 26  1  0  0  0  0
  3 34  1  0  0  0  0
  4 25  1  0  0  0  0
  4 33  1  0  0  0  0
  5 26  2  0  0  0  0
  6 25  2  0  0  0  0
  7 11  1  0  0  0  0
  8 12  1  0  0  0  0
  9 12  2  0  0  0  0
 10 11  2  0  0  0  0
 11 17  1  0  0  0  0
 12 18  1  0  0  0  0
 13 17  2  0  0  0  0
 13 20  1  0  0  0  0
 13 25  1  0  0  0  0
 14 18  2  0  0  0  0
 14 19  1  0  0  0  0
 14 26  1  0  0  0  0
 15 19  2  0  0  0  0
 15 21  1  0  0  0  0
 16 20  2  0  0  0  0
 16 22  1  0  0  0  0
 17 24  1  0  0  0  0
 18 23  1  0  0  0  0
 19 28  1  0  0  0  0
 20 27  1  0  0  0  0
 21 23  2  0  0  0  0
 21 30  1  0  0  0  0
 22 24  2  0  0  0  0
 22 29  1  0  0  0  0
 23 32  1  0  0  0  0
 24 31  1  0  0  0  0
M  CHG  4   7  -1   8  -1  11   1  12   1
M  END
> <PUBCHEM_COMPOUND_CID>
6254

> <PUBCHEM_COMPOUND_CANONICALIZED>
1

> <PUBCHEM_CACTVS_COMPLEXITY>
528

> <PUBCHEM_CACTVS_HBOND_ACCEPTOR>
10

> <PUBCHEM_CACTVS_HBOND_DONOR>
2

> <PUBCHEM_CACTVS_ROTATABLE_BOND>
5

> <PUBCHEM_CACTVS_SUBSKEYS>
AAADccBzPABgAAAAAAAAAAAAAAAAAAAAAAAwYAAAAAAAAAABQAAAHgQECAAADAiB2AAwyYAQQgCJAiTSSwCGAAAkAgAoiBkAbMoIJjqAlZGAcYBmwAEI2ceYyCCOAAQAgAACAAAACAEAAAQAAAAAAAAAAA==

> <PUBCHEM_IUPAC_OPENEYE_NAME>
5-[(3-carboxy-4-nitro-phenyl)disulfanyl]-2-nitro-benzoic acid

> <PUBCHEM_IUPAC_CAS_NAME>
5-[(3-carboxy-4-nitrophenyl)disulfanyl]-2-nitrobenzoic acid

> <PUBCHEM_IUPAC_NAME>
5-[(3-carboxy-4-nitrophenyl)disulfanyl]-2-nitrobenzoic acid

> <PUBCHEM_IUPAC_SYSTEMATIC_NAME>
5-[(3-carboxy-4-nitro-phenyl)disulfanyl]-2-nitro-benzoic acid

> <PUBCHEM_IUPAC_TRADITIONAL_NAME>
5-[(3-carboxy-4-nitro-phenyl)disulfanyl]-2-nitro-benzoic acid

> <PUBCHEM_IUPAC_INCHI>
InChI=1S/C14H8N2O8S2/c17-13(18)9-5-7(1-3-11(9)15(21)22)25-26-8-2-4-12(16(23)24)10(6-8)14(19)20/h1-6H,(H,17,18)(H,19,20)

> <PUBCHEM_IUPAC_INCHIKEY>
KIUMMUBSPKGMOY-UHFFFAOYSA-N

> <PUBCHEM_XLOGP3_AA>
2.7

> <PUBCHEM_EXACT_MASS>
395.972207

> <PUBCHEM_MOLECULAR_FORMULA>
C14H8N2O8S2

> <PUBCHEM_MOLECULAR_WEIGHT>
396.35192

> <PUBCHEM_OPENEYE_CAN_SMILES>
C1=CC(=C(C=C1SSC2=CC(=C(C=C2)[N+](=O)[O-])C(=O)O)C(=O)O)[N+](=O)[O-]

> <PUBCHEM_OPENEYE_ISO_SMILES>
C1=CC(=C(C=C1SSC2=CC(=C(C=C2)[N+](=O)[O-])C(=O)O)C(=O)O)[N+](=O)[O-]

> <PUBCHEM_CACTVS_TPSA>
217

> <PUBCHEM_MONOISOTOPIC_WEIGHT>
395.972207

> <PUBCHEM_TOTAL_CHARGE>
0

> <PUBCHEM_HEAVY_ATOM_COUNT>
26

> <PUBCHEM_ATOM_DEF_STEREO_COUNT>
0

> <PUBCHEM_ATOM_UDEF_STEREO_COUNT>
0

> <PUBCHEM_BOND_DEF_STEREO_COUNT>
0

> <PUBCHEM_BOND_UDEF_STEREO_COUNT>
0

> <PUBCHEM_ISOTOPIC_ATOM_COUNT>
0

> <PUBCHEM_COMPONENT_COUNT>
1

> <PUBCHEM_CACTVS_TAUTO_COUNT>
1

> <PUBCHEM_COORDINATE_TYPE>
1
5
255

> <PUBCHEM_BONDANNOTATIONS>
13  17  8
13  20  8
14  18  8
14  19  8
15  19  8
15  21  8
16  20  8
16  22  8
17  24  8
18  23  8
21  23  8
22  24  8

$$$$

