243355
  -OEChem-07051213062D

 58 61  0     1  0  0  0  0  0999 V2000
   10.3658    2.1128    0.0000 O   0  0  0  0  0  0  0  0  0  0  0  0
    3.7158   -2.1948    0.0000 O   0  0  0  0  0  0  0  0  0  0  0  0
    2.8602   -0.5932    0.0000 O   0  0  0  0  0  0  0  0  0  0  0  0
    7.3768   -0.1425    0.0000 C   0  0  1  0  0  0  0  0  0  0  0  0
    8.2429   -0.6425    0.0000 C   0  0  2  0  0  0  0  0  0  0  0  0
    9.1089   -0.1425    0.0000 C   0  0  1  0  0  0  0  0  0  0  0  0
    6.4668   -0.6493    0.0000 C   0  0  2  0  0  0  0  0  0  0  0  0
    9.1089    0.8575    0.0000 C   0  0  2  0  0  0  0  0  0  0  0  0
    6.4588   -1.6909    0.0000 C   0  0  1  0  0  0  0  0  0  0  0  0
    7.3768    0.8575    0.0000 C   0  0  0  0  0  0  0  0  0  0  0  0
    8.2429    1.3575    0.0000 C   0  0  0  0  0  0  0  0  0  0  0  0
    8.2589   -1.6840    0.0000 C   0  0  0  0  0  0  0  0  0  0  0  0
   10.0551   -0.4472    0.0000 C   0  0  0  0  0  0  0  0  0  0  0  0
   10.0551    1.1623    0.0000 C   0  0  2  0  0  0  0  0  0  0  0  0
    7.3609   -2.2117    0.0000 C   0  0  0  0  0  0  0  0  0  0  0  0
    5.5400   -0.0852    0.0000 C   0  0  0  0  0  0  0  0  0  0  0  0
   10.6387    0.3575    0.0000 C   0  0  0  0  0  0  0  0  0  0  0  0
    5.5234   -2.2406    0.0000 C   0  0  0  0  0  0  0  0  0  0  0  0
    6.4746    0.3507    0.0000 C   0  0  0  0  0  0  0  0  0  0  0  0
    9.1089    1.8575    0.0000 C   0  0  0  0  0  0  0  0  0  0  0  0
    4.5921   -0.6132    0.0000 C   0  0  2  0  0  0  0  0  0  0  0  0
    4.5838   -1.6981    0.0000 C   0  0  0  0  0  0  0  0  0  0  0  0
    3.7319   -0.1032    0.0000 C   0  0  0  0  0  0  0  0  0  0  0  0
    2.0000   -0.0832    0.0000 C   0  0  0  0  0  0  0  0  0  0  0  0
    8.1130    0.2825    0.0000 H   0  0  0  0  0  0  0  0  0  0  0  0
    8.9822   -1.0618    0.0000 H   0  0  0  0  0  0  0  0  0  0  0  0
    9.1988   -0.9877    0.0000 H   0  0  0  0  0  0  0  0  0  0  0  0
    6.4621   -2.5409    0.0000 H   0  0  0  0  0  0  0  0  0  0  0  0
    7.1648    1.4401    0.0000 H   0  0  0  0  0  0  0  0  0  0  0  0
    6.7663    0.7499    0.0000 H   0  0  0  0  0  0  0  0  0  0  0  0
    8.6414    1.8325    0.0000 H   0  0  0  0  0  0  0  0  0  0  0  0
    7.8443    1.8325    0.0000 H   0  0  0  0  0  0  0  0  0  0  0  0
    8.4770   -2.2644    0.0000 H   0  0  0  0  0  0  0  0  0  0  0  0
    8.8681   -1.5685    0.0000 H   0  0  0  0  0  0  0  0  0  0  0  0
    9.8041   -1.0141    0.0000 H   0  0  0  0  0  0  0  0  0  0  0  0
   10.5925   -0.7564    0.0000 H   0  0  0  0  0  0  0  0  0  0  0  0
   10.6676    1.2585    0.0000 H   0  0  0  0  0  0  0  0  0  0  0  0
    6.9636   -2.6877    0.0000 H   0  0  0  0  0  0  0  0  0  0  0  0
    7.7619   -2.6846    0.0000 H   0  0  0  0  0  0  0  0  0  0  0  0
    5.9482    0.3814    0.0000 H   0  0  0  0  0  0  0  0  0  0  0  0
    5.1501    0.3968    0.0000 H   0  0  0  0  0  0  0  0  0  0  0  0
   11.0996   -0.0572    0.0000 H   0  0  0  0  0  0  0  0  0  0  0  0
   11.0996    0.7723    0.0000 H   0  0  0  0  0  0  0  0  0  0  0  0
    5.1261   -2.7166    0.0000 H   0  0  0  0  0  0  0  0  0  0  0  0
    5.9243   -2.7135    0.0000 H   0  0  0  0  0  0  0  0  0  0  0  0
    7.0945    0.3459    0.0000 H   0  0  0  0  0  0  0  0  0  0  0  0
    6.4793    0.9706    0.0000 H   0  0  0  0  0  0  0  0  0  0  0  0
    5.8546    0.3554    0.0000 H   0  0  0  0  0  0  0  0  0  0  0  0
    9.7289    1.8575    0.0000 H   0  0  0  0  0  0  0  0  0  0  0  0
    9.1089    2.4775    0.0000 H   0  0  0  0  0  0  0  0  0  0  0  0
    8.4889    1.8575    0.0000 H   0  0  0  0  0  0  0  0  0  0  0  0
    4.0522   -0.9180    0.0000 H   0  0  0  0  0  0  0  0  0  0  0  0
   10.9725    2.2406    0.0000 H   0  0  0  0  0  0  0  0  0  0  0  0
    4.1359    0.3671    0.0000 H   0  0  0  0  0  0  0  0  0  0  0  0
    3.3389    0.3763    0.0000 H   0  0  0  0  0  0  0  0  0  0  0  0
    2.3162    0.4501    0.0000 H   0  0  0  0  0  0  0  0  0  0  0  0
    1.4667    0.2330    0.0000 H   0  0  0  0  0  0  0  0  0  0  0  0
    1.6838   -0.6165    0.0000 H   0  0  0  0  0  0  0  0  0  0  0  0
 14  1  1  1  0  0  0
  1 53  1  0  0  0  0
  2 22  2  0  0  0  0
  3 23  1  0  0  0  0
  3 24  1  0  0  0  0
  4  5  1  0  0  0  0
  4  7  1  0  0  0  0
  4 10  1  0  0  0  0
  4 25  1  6  0  0  0
  5  6  1  0  0  0  0
  5 12  1  0  0  0  0
  5 26  1  1  0  0  0
  6  8  1  0  0  0  0
  6 13  1  0  0  0  0
  6 27  1  6  0  0  0
  7  9  1  0  0  0  0
  7 16  1  0  0  0  0
  7 19  1  1  0  0  0
  8 11  1  0  0  0  0
  8 14  1  0  0  0  0
  8 20  1  1  0  0  0
  9 15  1  0  0  0  0
  9 18  1  0  0  0  0
  9 28  1  6  0  0  0
 10 11  1  0  0  0  0
 10 29  1  0  0  0  0
 10 30  1  0  0  0  0
 11 31  1  0  0  0  0
 11 32  1  0  0  0  0
 12 15  1  0  0  0  0
 12 33  1  0  0  0  0
 12 34  1  0  0  0  0
 13 17  1  0  0  0  0
 13 35  1  0  0  0  0
 13 36  1  0  0  0  0
 14 17  1  0  0  0  0
 14 37  1  0  0  0  0
 15 38  1  0  0  0  0
 15 39  1  0  0  0  0
 16 21  1  0  0  0  0
 16 40  1  0  0  0  0
 16 41  1  0  0  0  0
 17 42  1  0  0  0  0
 17 43  1  0  0  0  0
 18 22  1  0  0  0  0
 18 44  1  0  0  0  0
 18 45  1  0  0  0  0
 19 46  1  0  0  0  0
 19 47  1  0  0  0  0
 19 48  1  0  0  0  0
 20 49  1  0  0  0  0
 20 50  1  0  0  0  0
 20 51  1  0  0  0  0
 21 22  1  0  0  0  0
 21 23  1  6  0  0  0
 21 52  1  0  0  0  0
 23 54  1  0  0  0  0
 23 55  1  0  0  0  0
 24 56  1  0  0  0  0
 24 57  1  0  0  0  0
 24 58  1  0  0  0  0
M  END
> <PUBCHEM_COMPOUND_CID>
243355

> <PUBCHEM_COMPOUND_CANONICALIZED>
1

> <PUBCHEM_CACTVS_COMPLEXITY>
517

> <PUBCHEM_CACTVS_HBOND_ACCEPTOR>
3

> <PUBCHEM_CACTVS_HBOND_DONOR>
1

> <PUBCHEM_CACTVS_ROTATABLE_BOND>
2

> <PUBCHEM_CACTVS_SUBSKEYS>
AAADcfB4MAAAAAAAAAAAAAAAAAAAAYAAAAAwYMAAAAAAAGDAAAAAGgAACAAADxSggAICAAAABgAIAIAQAAAAAAAAAAAAAAEAAAAAEBYAAAAAQAAEIAAAAAGIyPCPgAAAAAAAAACAAAQAACAAAIAADAAAAA==

> <PUBCHEM_IUPAC_OPENEYE_NAME>
(2S,5S,8R,9S,10S,13S,14S,17S)-17-hydroxy-2-(methoxymethyl)-10,13-dimethyl-1,2,4,5,6,7,8,9,11,12,14,15,16,17-tetradecahydrocyclopenta[a]phenanthren-3-one

> <PUBCHEM_IUPAC_CAS_NAME>
(2S,5S,8R,9S,10S,13S,14S,17S)-17-hydroxy-2-(methoxymethyl)-10,13-dimethyl-1,2,4,5,6,7,8,9,11,12,14,15,16,17-tetradecahydrocyclopenta[a]phenanthren-3-one

> <PUBCHEM_IUPAC_NAME>
(2S,5S,8R,9S,10S,13S,14S,17S)-17-hydroxy-2-(methoxymethyl)-10,13-dimethyl-1,2,4,5,6,7,8,9,11,12,14,15,16,17-tetradecahydrocyclopenta[a]phenanthren-3-one

> <PUBCHEM_IUPAC_SYSTEMATIC_NAME>
(2S,5S,8R,9S,10S,13S,14S,17S)-2-(methoxymethyl)-10,13-dimethyl-17-oxidanyl-1,2,4,5,6,7,8,9,11,12,14,15,16,17-tetradecahydrocyclopenta[a]phenanthren-3-one

> <PUBCHEM_IUPAC_TRADITIONAL_NAME>
(2S,5S,8R,9S,10S,13S,14S,17S)-17-hydroxy-2-(methoxymethyl)-10,13-dimethyl-1,2,4,5,6,7,8,9,11,12,14,15,16,17-tetradecahydrocyclopenta[a]phenanthren-3-one

> <PUBCHEM_IUPAC_INCHI>
InChI=1S/C21H34O3/c1-20-9-8-17-15(16(20)6-7-19(20)23)5-4-14-10-18(22)13(12-24-3)11-21(14,17)2/h13-17,19,23H,4-12H2,1-3H3/t13-,14-,15-,16-,17-,19-,20-,21-/m0/s1

> <PUBCHEM_IUPAC_INCHIKEY>
TXOICHCTMJMZFA-NSFMUAGPSA-N

> <PUBCHEM_XLOGP3>
3.5

> <PUBCHEM_EXACT_MASS>
334.250795

> <PUBCHEM_MOLECULAR_FORMULA>
C21H34O3

> <PUBCHEM_MOLECULAR_WEIGHT>
334.49286

> <PUBCHEM_OPENEYE_CAN_SMILES>
CC12CCC3C(C1CCC2O)CCC4C3(CC(C(=O)C4)COC)C

> <PUBCHEM_OPENEYE_ISO_SMILES>
C[C@]12CC[C@H]3[C@H]([C@@H]1CC[C@@H]2O)CC[C@@H]4[C@@]3(C[C@H](C(=O)C4)COC)C

> <PUBCHEM_CACTVS_TPSA>
46.5

> <PUBCHEM_MONOISOTOPIC_WEIGHT>
334.250795

> <PUBCHEM_TOTAL_CHARGE>
0

> <PUBCHEM_HEAVY_ATOM_COUNT>
24

> <PUBCHEM_ATOM_DEF_STEREO_COUNT>
8

> <PUBCHEM_ATOM_UDEF_STEREO_COUNT>
0

> <PUBCHEM_BOND_DEF_STEREO_COUNT>
0

> <PUBCHEM_BOND_UDEF_STEREO_COUNT>
0

> <PUBCHEM_ISOTOPIC_ATOM_COUNT>
0

> <PUBCHEM_COMPONENT_COUNT>
1

> <PUBCHEM_CACTVS_TAUTO_COUNT>
3

> <PUBCHEM_COORDINATE_TYPE>
1
5
255

> <PUBCHEM_BONDANNOTATIONS>
14  1  5
21  23  6
4  25  6
5  26  5
6  27  6
7  19  5
8  20  5
9  28  6

$$$$

