86222
  -OEChem-07051213012D

 40 41  0     1  0  0  0  0  0999 V2000
    4.5981   -2.6307    0.0000 Cl  0  0  0  0  0  0  0  0  0  0  0  0
    3.7320   -2.1307    0.0000 Cl  0  0  0  0  0  0  0  0  0  0  0  0
    2.0000    0.8693    0.0000 F   0  0  0  0  0  0  0  0  0  0  0  0
    4.4131    5.1307    0.0000 F   0  0  0  0  0  0  0  0  0  0  0  0
    5.8144    4.1126    0.0000 F   0  0  0  0  0  0  0  0  0  0  0  0
    6.3301   -3.6307    0.0000 O   0  0  0  0  0  0  0  0  0  0  0  0
    5.4921    2.1481    0.0000 O   0  0  0  0  0  0  0  0  0  0  0  0
    7.1962   -2.1307    0.0000 O   0  0  0  0  0  0  0  0  0  0  0  0
    3.7320    1.8693    0.0000 N   0  0  0  0  0  0  0  0  0  0  0  0
    4.2320    3.4081    0.0000 N   0  0  0  0  0  0  0  0  0  0  0  0
    2.9230    2.4571    0.0000 N   0  0  0  0  0  0  0  0  0  0  0  0
    4.5981   -0.6307    0.0000 C   0  0  0  0  0  0  0  0  0  0  0  0
    5.4641   -1.1307    0.0000 C   0  0  0  0  0  0  0  0  0  0  0  0
    3.7320    0.8693    0.0000 C   0  0  0  0  0  0  0  0  0  0  0  0
    4.5981    0.3693    0.0000 C   0  0  0  0  0  0  0  0  0  0  0  0
    5.4641   -2.1307    0.0000 C   0  0  3  0  0  0  0  0  0  0  0  0
    4.5411    2.4571    0.0000 C   0  0  0  0  0  0  0  0  0  0  0  0
    3.7320   -1.1307    0.0000 C   0  0  0  0  0  0  0  0  0  0  0  0
    3.2320    3.4081    0.0000 C   0  0  0  0  0  0  0  0  0  0  0  0
    2.8660    0.3693    0.0000 C   0  0  0  0  0  0  0  0  0  0  0  0
    2.8660   -0.6307    0.0000 C   0  0  0  0  0  0  0  0  0  0  0  0
    4.8198    4.2172    0.0000 C   0  0  0  0  0  0  0  0  0  0  0  0
    2.6443    4.2172    0.0000 C   0  0  0  0  0  0  0  0  0  0  0  0
    6.3301   -2.6307    0.0000 C   0  0  0  0  0  0  0  0  0  0  0  0
    7.1962   -4.1307    0.0000 C   0  0  0  0  0  0  0  0  0  0  0  0
    7.1962   -5.1307    0.0000 C   0  0  0  0  0  0  0  0  0  0  0  0
    6.0747   -1.2384    0.0000 H   0  0  0  0  0  0  0  0  0  0  0  0
    5.6762   -0.5481    0.0000 H   0  0  0  0  0  0  0  0  0  0  0  0
    5.1350    0.6793    0.0000 H   0  0  0  0  0  0  0  0  0  0  0  0
    5.4641   -2.7507    0.0000 H   0  0  0  0  0  0  0  0  0  0  0  0
    2.3291   -0.9407    0.0000 H   0  0  0  0  0  0  0  0  0  0  0  0
    5.1843    4.7188    0.0000 H   0  0  0  0  0  0  0  0  0  0  0  0
    3.1459    4.5816    0.0000 H   0  0  0  0  0  0  0  0  0  0  0  0
    2.2798    4.7188    0.0000 H   0  0  0  0  0  0  0  0  0  0  0  0
    2.1427    3.8527    0.0000 H   0  0  0  0  0  0  0  0  0  0  0  0
    7.8067   -4.2384    0.0000 H   0  0  0  0  0  0  0  0  0  0  0  0
    7.4082   -3.5481    0.0000 H   0  0  0  0  0  0  0  0  0  0  0  0
    6.5762   -5.1307    0.0000 H   0  0  0  0  0  0  0  0  0  0  0  0
    7.1962   -5.7507    0.0000 H   0  0  0  0  0  0  0  0  0  0  0  0
    7.8162   -5.1307    0.0000 H   0  0  0  0  0  0  0  0  0  0  0  0
  1 16  1  0  0  0  0
  2 18  1  0  0  0  0
  3 20  1  0  0  0  0
  4 22  1  0  0  0  0
  5 22  1  0  0  0  0
  6 24  1  0  0  0  0
  6 25  1  0  0  0  0
  7 17  2  0  0  0  0
  8 24  2  0  0  0  0
  9 11  1  0  0  0  0
  9 14  1  0  0  0  0
  9 17  1  0  0  0  0
 10 17  1  0  0  0  0
 10 19  1  0  0  0  0
 10 22  1  0  0  0  0
 11 19  2  0  0  0  0
 12 13  1  0  0  0  0
 12 15  2  0  0  0  0
 12 18  1  0  0  0  0
 13 16  1  0  0  0  0
 13 27  1  0  0  0  0
 13 28  1  0  0  0  0
 14 15  1  0  0  0  0
 14 20  2  0  0  0  0
 15 29  1  0  0  0  0
 16 24  1  0  0  0  0
 16 30  1  0  0  0  0
 18 21  2  0  0  0  0
 19 23  1  0  0  0  0
 20 21  1  0  0  0  0
 21 31  1  0  0  0  0
 22 32  1  0  0  0  0
 23 33  1  0  0  0  0
 23 34  1  0  0  0  0
 23 35  1  0  0  0  0
 25 26  1  0  0  0  0
 25 36  1  0  0  0  0
 25 37  1  0  0  0  0
 26 38  1  0  0  0  0
 26 39  1  0  0  0  0
 26 40  1  0  0  0  0
M  END
> <PUBCHEM_COMPOUND_CID>
86222

> <PUBCHEM_COMPOUND_CANONICALIZED>
1

> <PUBCHEM_CACTVS_COMPLEXITY>
582

> <PUBCHEM_CACTVS_HBOND_ACCEPTOR>
7

> <PUBCHEM_CACTVS_HBOND_DONOR>
0

> <PUBCHEM_CACTVS_ROTATABLE_BOND>
7

> <PUBCHEM_CACTVS_SUBSKEYS>
AAADccBzMYAGAAAAAAAAAAAAAAAAAQAAAAAwAAAAAAAAAAABAAAAHwIIAAAADAuhmH4zyIMABACoAibyeACSBAAhBwAXiAEYZ4jIIDLBk5GGIAhsjgJIyCeYyKCOAABAQAABAAAAAICAAAIAAAAAAAAAAA==

> <PUBCHEM_IUPAC_OPENEYE_NAME>
ethyl 2-chloro-3-[2-chloro-5-[4-(difluoromethyl)-3-methyl-5-oxo-1,2,4-triazol-1-yl]-4-fluoro-phenyl]propanoate

> <PUBCHEM_IUPAC_CAS_NAME>
2-chloro-3-[2-chloro-5-[4-(difluoromethyl)-3-methyl-5-oxo-1,2,4-triazol-1-yl]-4-fluorophenyl]propanoic acid ethyl ester

> <PUBCHEM_IUPAC_NAME>
ethyl 2-chloro-3-[2-chloro-5-[4-(difluoromethyl)-3-methyl-5-oxo-1,2,4-triazol-1-yl]-4-fluorophenyl]propanoate

> <PUBCHEM_IUPAC_SYSTEMATIC_NAME>
ethyl 3-[5-[4-[bis(fluoranyl)methyl]-3-methyl-5-oxidanylidene-1,2,4-triazol-1-yl]-2-chloranyl-4-fluoranyl-phenyl]-2-chloranyl-propanoate

> <PUBCHEM_IUPAC_TRADITIONAL_NAME>
2-chloro-3-[2-chloro-5-[4-(difluoromethyl)-5-keto-3-methyl-1,2,4-triazol-1-yl]-4-fluoro-phenyl]propionic acid ethyl ester

> <PUBCHEM_IUPAC_INCHI>
InChI=1S/C15H14Cl2F3N3O3/c1-3-26-13(24)10(17)4-8-5-12(11(18)6-9(8)16)23-15(25)22(14(19)20)7(2)21-23/h5-6,10,14H,3-4H2,1-2H3

> <PUBCHEM_IUPAC_INCHIKEY>
MLKCGVHIFJBRCD-UHFFFAOYSA-N

> <PUBCHEM_XLOGP3_AA>
4

> <PUBCHEM_EXACT_MASS>
411.036431

> <PUBCHEM_MOLECULAR_FORMULA>
C15H14Cl2F3N3O3

> <PUBCHEM_MOLECULAR_WEIGHT>
412.19117

> <PUBCHEM_OPENEYE_CAN_SMILES>
CCOC(=O)C(CC1=CC(=C(C=C1Cl)F)N2C(=O)N(C(=N2)C)C(F)F)Cl

> <PUBCHEM_OPENEYE_ISO_SMILES>
CCOC(=O)C(CC1=CC(=C(C=C1Cl)F)N2C(=O)N(C(=N2)C)C(F)F)Cl

> <PUBCHEM_CACTVS_TPSA>
62.2

> <PUBCHEM_MONOISOTOPIC_WEIGHT>
411.036431

> <PUBCHEM_TOTAL_CHARGE>
0

> <PUBCHEM_HEAVY_ATOM_COUNT>
26

> <PUBCHEM_ATOM_DEF_STEREO_COUNT>
0

> <PUBCHEM_ATOM_UDEF_STEREO_COUNT>
1

> <PUBCHEM_BOND_DEF_STEREO_COUNT>
0

> <PUBCHEM_BOND_UDEF_STEREO_COUNT>
0

> <PUBCHEM_ISOTOPIC_ATOM_COUNT>
0

> <PUBCHEM_COMPONENT_COUNT>
1

> <PUBCHEM_CACTVS_TAUTO_COUNT>
1

> <PUBCHEM_COORDINATE_TYPE>
1
5
255

> <PUBCHEM_BONDANNOTATIONS>
16  1  3
10  17  8
10  19  8
11  19  8
12  15  8
12  18  8
14  15  8
14  20  8
18  21  8
20  21  8
9  11  8
9  17  8

$$$$

