582895
  -OEChem-06241222442D

 36 39  0     1  0  0  0  0  0999 V2000
    3.2872    1.7630    0.0000 S   0  0  0  0  0  0  0  0  0  0  0  0
    5.8041   -1.7523    0.0000 S   0  0  0  0  0  0  0  0  0  0  0  0
    4.5472    0.5029    0.0000 N   0  0  0  0  0  0  0  0  0  0  0  0
    4.5472   -0.4971    0.0000 N   0  0  0  0  0  0  0  0  0  0  0  0
    3.0084    0.0029    0.0000 N   0  0  0  0  0  0  0  0  0  0  0  0
    6.0771    0.0029    0.0000 N   0  0  0  0  0  0  0  0  0  0  0  0
    5.4935    0.8077    0.0000 C   0  0  3  0  0  0  0  0  0  0  0  0
    3.5962   -0.8061    0.0000 C   0  0  3  0  0  0  0  0  0  0  0  0
    3.5962    0.8120    0.0000 C   0  0  0  0  0  0  0  0  0  0  0  0
    5.4935   -0.8018    0.0000 C   0  0  0  0  0  0  0  0  0  0  0  0
    5.8041    1.7582    0.0000 C   0  0  0  0  0  0  0  0  0  0  0  0
    3.2872   -1.7571    0.0000 C   0  0  0  0  0  0  0  0  0  0  0  0
    5.1363    2.5025    0.0000 C   0  0  0  0  0  0  0  0  0  0  0  0
    3.9563   -2.5003    0.0000 C   0  0  0  0  0  0  0  0  0  0  0  0
    6.7826    1.9644    0.0000 C   0  0  0  0  0  0  0  0  0  0  0  0
    2.3090   -1.9650    0.0000 C   0  0  0  0  0  0  0  0  0  0  0  0
    5.4469    3.4530    0.0000 C   0  0  0  0  0  0  0  0  0  0  0  0
    3.6473   -3.4513    0.0000 C   0  0  0  0  0  0  0  0  0  0  0  0
    7.0933    2.9149    0.0000 C   0  0  0  0  0  0  0  0  0  0  0  0
    2.0000   -2.9161    0.0000 C   0  0  0  0  0  0  0  0  0  0  0  0
    6.4254    3.6592    0.0000 C   0  0  0  0  0  0  0  0  0  0  0  0
    2.6691   -3.6592    0.0000 C   0  0  0  0  0  0  0  0  0  0  0  0
    6.1059    0.9039    0.0000 H   0  0  0  0  0  0  0  0  0  0  0  0
    2.9838   -0.9031    0.0000 H   0  0  0  0  0  0  0  0  0  0  0  0
    4.5296    2.3746    0.0000 H   0  0  0  0  0  0  0  0  0  0  0  0
    4.5627   -2.3714    0.0000 H   0  0  0  0  0  0  0  0  0  0  0  0
    7.1967    1.5030    0.0000 H   0  0  0  0  0  0  0  0  0  0  0  0
    1.8942   -1.5043    0.0000 H   0  0  0  0  0  0  0  0  0  0  0  0
    2.6807    1.8919    0.0000 H   0  0  0  0  0  0  0  0  0  0  0  0
    6.4108   -1.8802    0.0000 H   0  0  0  0  0  0  0  0  0  0  0  0
    5.0329    3.9145    0.0000 H   0  0  0  0  0  0  0  0  0  0  0  0
    4.0621   -3.9121    0.0000 H   0  0  0  0  0  0  0  0  0  0  0  0
    7.7000    3.0428    0.0000 H   0  0  0  0  0  0  0  0  0  0  0  0
    1.3935   -3.0450    0.0000 H   0  0  0  0  0  0  0  0  0  0  0  0
    6.6181    4.2486    0.0000 H   0  0  0  0  0  0  0  0  0  0  0  0
    2.4775   -4.2489    0.0000 H   0  0  0  0  0  0  0  0  0  0  0  0
  1  9  1  0  0  0  0
  1 29  1  0  0  0  0
  2 10  1  0  0  0  0
  2 30  1  0  0  0  0
  3  4  1  0  0  0  0
  3  7  1  0  0  0  0
  3  9  1  0  0  0  0
  4  8  1  0  0  0  0
  4 10  1  0  0  0  0
  5  8  1  0  0  0  0
  5  9  2  0  0  0  0
  6  7  1  0  0  0  0
  6 10  2  0  0  0  0
  7 11  1  0  0  0  0
  7 23  1  0  0  0  0
  8 12  1  0  0  0  0
  8 24  1  0  0  0  0
 11 13  2  0  0  0  0
 11 15  1  0  0  0  0
 12 14  2  0  0  0  0
 12 16  1  0  0  0  0
 13 17  1  0  0  0  0
 13 25  1  0  0  0  0
 14 18  1  0  0  0  0
 14 26  1  0  0  0  0
 15 19  2  0  0  0  0
 15 27  1  0  0  0  0
 16 20  2  0  0  0  0
 16 28  1  0  0  0  0
 17 21  2  0  0  0  0
 17 31  1  0  0  0  0
 18 22  2  0  0  0  0
 18 32  1  0  0  0  0
 19 21  1  0  0  0  0
 19 33  1  0  0  0  0
 20 22  1  0  0  0  0
 20 34  1  0  0  0  0
 21 35  1  0  0  0  0
 22 36  1  0  0  0  0
M  END
> <PUBCHEM_COMPOUND_CID>
582895

> <PUBCHEM_COMPOUND_CANONICALIZED>
1

> <PUBCHEM_CACTVS_COMPLEXITY>
437

> <PUBCHEM_CACTVS_HBOND_ACCEPTOR>
4

> <PUBCHEM_CACTVS_HBOND_DONOR>
2

> <PUBCHEM_CACTVS_ROTATABLE_BOND>
2

> <PUBCHEM_CACTVS_SUBSKEYS>
AAADccB7gABgAAAAAAAAAAAAAAAAAQIAAAAwYAAAAAAQAAABQAAAHAQIAAAADADBGAQxAIIAAASgAiBCJACCEAEgAAAdiAAIBIiIICKAmRGEIAhggAAIiAcQgAAOAAAAAAAAAAAAAAAAAAAAAAAAAAAAAA==

> <PUBCHEM_IUPAC_OPENEYE_NAME>
1,5-diphenyl-1,5-dihydro-[1,2,4]triazolo[1,2-a][1,2,4]triazole-3,7-dithiol

> <PUBCHEM_IUPAC_CAS_NAME>
1,5-diphenyl-1,5-dihydro-[1,2,4]triazolo[1,2-a][1,2,4]triazole-3,7-dithiol

> <PUBCHEM_IUPAC_NAME>
1,5-diphenyl-1,5-dihydro-[1,2,4]triazolo[1,2-a][1,2,4]triazole-3,7-dithiol

> <PUBCHEM_IUPAC_SYSTEMATIC_NAME>
1,5-diphenyl-1,5-dihydro-[1,2,4]triazolo[1,2-a][1,2,4]triazole-3,7-dithiol

> <PUBCHEM_IUPAC_TRADITIONAL_NAME>
1,5-diphenyl-1,5-dihydro-[1,2,4]triazolo[1,2-a][1,2,4]triazole-3,7-dithiol

> <PUBCHEM_IUPAC_INCHI>
InChI=1S/C16H14N4S2/c21-15-17-13(11-7-3-1-4-8-11)19-16(22)18-14(20(15)19)12-9-5-2-6-10-12/h1-10,13-14H,(H,17,21)(H,18,22)

> <PUBCHEM_IUPAC_INCHIKEY>
LRGBKQAXMKYMHJ-UHFFFAOYSA-N

> <PUBCHEM_XLOGP3_AA>
3.5

> <PUBCHEM_EXACT_MASS>
326.065988

> <PUBCHEM_MOLECULAR_FORMULA>
C16H14N4S2

> <PUBCHEM_MOLECULAR_WEIGHT>
326.43916

> <PUBCHEM_OPENEYE_CAN_SMILES>
C1=CC=C(C=C1)C2N=C(N3N2C(=NC3C4=CC=CC=C4)S)S

> <PUBCHEM_OPENEYE_ISO_SMILES>
C1=CC=C(C=C1)C2N=C(N3N2C(=NC3C4=CC=CC=C4)S)S

> <PUBCHEM_CACTVS_TPSA>
33.2

> <PUBCHEM_MONOISOTOPIC_WEIGHT>
326.065988

> <PUBCHEM_TOTAL_CHARGE>
0

> <PUBCHEM_HEAVY_ATOM_COUNT>
22

> <PUBCHEM_ATOM_DEF_STEREO_COUNT>
0

> <PUBCHEM_ATOM_UDEF_STEREO_COUNT>
2

> <PUBCHEM_BOND_DEF_STEREO_COUNT>
0

> <PUBCHEM_BOND_UDEF_STEREO_COUNT>
0

> <PUBCHEM_ISOTOPIC_ATOM_COUNT>
0

> <PUBCHEM_COMPONENT_COUNT>
1

> <PUBCHEM_CACTVS_TAUTO_COUNT>
3

> <PUBCHEM_COORDINATE_TYPE>
1
5
255

> <PUBCHEM_BONDANNOTATIONS>
11  13  8
11  15  8
12  14  8
12  16  8
13  17  8
14  18  8
15  19  8
16  20  8
17  21  8
18  22  8
19  21  8
20  22  8
7  11  3
8  12  3

$$$$

