441046
  -OEChem-07051212512D

 92 98  0     1  0  0  0  0  0999 V2000
   10.9210    4.5851    0.0000 S   0  0  0  0  0  0  0  0  0  0  0  0
   11.7761   -2.0776    0.0000 S   0  0  0  0  0  0  0  0  0  0  0  0
    5.5415    1.0195    0.0000 O   0  0  0  0  0  0  0  0  0  0  0  0
    4.3770   -0.4408    0.0000 O   0  0  0  0  0  0  0  0  0  0  0  0
    8.1582   -2.2618    0.0000 O   0  0  0  0  0  0  0  0  0  0  0  0
   11.7934    1.1823    0.0000 O   0  0  0  0  0  0  0  0  0  0  0  0
    9.9395   -2.0721    0.0000 O   0  0  0  0  0  0  0  0  0  0  0  0
    7.5989   -0.6633    0.0000 N   0  0  0  0  0  0  0  0  0  0  0  0
    6.4754   -2.0721    0.0000 N   0  0  0  0  0  0  0  0  0  0  0  0
   11.4080    2.8710    0.0000 N   0  0  0  0  0  0  0  0  0  0  0  0
   10.8055   -3.5721    0.0000 N   0  0  0  0  0  0  0  0  0  0  0  0
    9.7349    3.4846    0.0000 N   0  0  0  0  0  0  0  0  0  0  0  0
   12.5851   -3.4789    0.0000 N   0  0  0  0  0  0  0  0  0  0  0  0
    6.9754    0.1185    0.0000 C   0  0  1  0  0  0  0  0  0  0  0  0
    5.5744   -1.6383    0.0000 C   0  0  1  0  0  0  0  0  0  0  0  0
    5.9754    0.1185    0.0000 C   0  0  1  0  0  0  0  0  0  0  0  0
    5.3519   -0.6633    0.0000 C   0  0  1  0  0  0  0  0  0  0  0  0
    7.4093    1.0195    0.0000 C   0  0  0  0  0  0  0  0  0  0  0  0
    4.7926   -2.2618    0.0000 C   0  0  0  0  0  0  0  0  0  0  0  0
    7.3764   -1.6383    0.0000 C   0  0  0  0  0  0  0  0  0  0  0  0
    8.5738   -0.4408    0.0000 C   0  0  0  0  0  0  0  0  0  0  0  0
    6.4754   -3.0721    0.0000 C   0  0  0  0  0  0  0  0  0  0  0  0
    6.8460    1.8457    0.0000 C   0  0  0  0  0  0  0  0  0  0  0  0
    3.8618   -1.8964    0.0000 C   0  0  0  0  0  0  0  0  0  0  0  0
    8.8686    0.5148    0.0000 C   0  0  0  0  0  0  0  0  0  0  0  0
    7.3414   -3.5721    0.0000 C   0  0  0  0  0  0  0  0  0  0  0  0
    7.2799    2.7467    0.0000 C   0  0  0  0  0  0  0  0  0  0  0  0
    5.8488    1.7710    0.0000 C   0  0  0  0  0  0  0  0  0  0  0  0
    3.7127   -0.9076    0.0000 C   0  0  0  0  0  0  0  0  0  0  0  0
    3.0799   -2.5199    0.0000 C   0  0  0  0  0  0  0  0  0  0  0  0
    9.8435    0.7373    0.0000 C   0  0  0  0  0  0  0  0  0  0  0  0
    8.2075   -3.0721    0.0000 C   0  0  0  0  0  0  0  0  0  0  0  0
    8.1884    1.2478    0.0000 C   0  0  0  0  0  0  0  0  0  0  0  0
    7.3414   -4.5721    0.0000 C   0  0  0  0  0  0  0  0  0  0  0  0
    6.7166    3.5729    0.0000 C   0  0  0  0  0  0  0  0  0  0  0  0
    5.2855    2.5972    0.0000 C   0  0  0  0  0  0  0  0  0  0  0  0
    2.7818   -0.5422    0.0000 C   0  0  0  0  0  0  0  0  0  0  0  0
    2.1490   -2.1546    0.0000 C   0  0  0  0  0  0  0  0  0  0  0  0
   10.1383    1.6929    0.0000 C   0  0  0  0  0  0  0  0  0  0  0  0
    9.0735   -3.5721    0.0000 C   0  0  0  0  0  0  0  0  0  0  0  0
    5.7194    3.4982    0.0000 C   0  0  0  0  0  0  0  0  0  0  0  0
    2.0000   -1.1657    0.0000 C   0  0  0  0  0  0  0  0  0  0  0  0
    8.4832    2.2034    0.0000 C   0  0  0  0  0  0  0  0  0  0  0  0
    8.2075   -5.0721    0.0000 C   0  0  0  0  0  0  0  0  0  0  0  0
    9.4581    2.4259    0.0000 C   0  0  0  0  0  0  0  0  0  0  0  0
    9.0735   -4.5721    0.0000 C   0  0  0  0  0  0  0  0  0  0  0  0
   11.1132    1.9154    0.0000 C   0  0  0  0  0  0  0  0  0  0  0  0
    9.9395   -3.0721    0.0000 C   0  0  0  0  0  0  0  0  0  0  0  0
   10.7278    3.6040    0.0000 C   0  0  0  0  0  0  0  0  0  0  0  0
   11.6716   -3.0721    0.0000 C   0  0  0  0  0  0  0  0  0  0  0  0
   10.0476    5.0721    0.0000 C   0  0  0  0  0  0  0  0  0  0  0  0
    9.3146    4.3920    0.0000 C   0  0  0  0  0  0  0  0  0  0  0  0
   12.7543   -1.8697    0.0000 C   0  0  0  0  0  0  0  0  0  0  0  0
   13.2543   -2.7357    0.0000 C   0  0  0  0  0  0  0  0  0  0  0  0
    7.5915    0.1879    0.0000 H   0  0  0  0  0  0  0  0  0  0  0  0
    5.6439   -2.2544    0.0000 H   0  0  0  0  0  0  0  0  0  0  0  0
    5.3593    0.1879    0.0000 H   0  0  0  0  0  0  0  0  0  0  0  0
    4.9135   -1.1017    0.0000 H   0  0  0  0  0  0  0  0  0  0  0  0
    7.9127    0.6576    0.0000 H   0  0  0  0  0  0  0  0  0  0  0  0
    7.8531    1.4524    0.0000 H   0  0  0  0  0  0  0  0  0  0  0  0
    4.4693   -2.7908    0.0000 H   0  0  0  0  0  0  0  0  0  0  0  0
    5.2575   -2.6720    0.0000 H   0  0  0  0  0  0  0  0  0  0  0  0
    8.6047   -1.0600    0.0000 H   0  0  0  0  0  0  0  0  0  0  0  0
    9.1890   -0.5179    0.0000 H   0  0  0  0  0  0  0  0  0  0  0  0
    5.8648   -2.9645    0.0000 H   0  0  0  0  0  0  0  0  0  0  0  0
    6.2634   -3.6548    0.0000 H   0  0  0  0  0  0  0  0  0  0  0  0
    4.9233    1.0658    0.0000 H   0  0  0  0  0  0  0  0  0  0  0  0
    4.1943    0.1516    0.0000 H   0  0  0  0  0  0  0  0  0  0  0  0
    7.8981    2.7930    0.0000 H   0  0  0  0  0  0  0  0  0  0  0  0
    5.5798    1.2124    0.0000 H   0  0  0  0  0  0  0  0  0  0  0  0
    4.1974   -0.5210    0.0000 H   0  0  0  0  0  0  0  0  0  0  0  0
    3.1723   -3.1330    0.0000 H   0  0  0  0  0  0  0  0  0  0  0  0
   10.2652    0.2828    0.0000 H   0  0  0  0  0  0  0  0  0  0  0  0
    8.2075   -2.4521    0.0000 H   0  0  0  0  0  0  0  0  0  0  0  0
    7.5840    1.1098    0.0000 H   0  0  0  0  0  0  0  0  0  0  0  0
    6.8045   -4.8821    0.0000 H   0  0  0  0  0  0  0  0  0  0  0  0
    6.9856    4.1315    0.0000 H   0  0  0  0  0  0  0  0  0  0  0  0
    4.6672    2.5509    0.0000 H   0  0  0  0  0  0  0  0  0  0  0  0
    2.6894    0.0708    0.0000 H   0  0  0  0  0  0  0  0  0  0  0  0
    1.6643   -2.5411    0.0000 H   0  0  0  0  0  0  0  0  0  0  0  0
    5.3701    4.0105    0.0000 H   0  0  0  0  0  0  0  0  0  0  0  0
    1.4229   -0.9392    0.0000 H   0  0  0  0  0  0  0  0  0  0  0  0
    8.0615    2.6579    0.0000 H   0  0  0  0  0  0  0  0  0  0  0  0
    8.2075   -5.6921    0.0000 H   0  0  0  0  0  0  0  0  0  0  0  0
    9.6408    3.0184    0.0000 H   0  0  0  0  0  0  0  0  0  0  0  0
    9.6104   -4.8821    0.0000 H   0  0  0  0  0  0  0  0  0  0  0  0
   12.0124    3.0089    0.0000 H   0  0  0  0  0  0  0  0  0  0  0  0
   10.8055   -4.1921    0.0000 H   0  0  0  0  0  0  0  0  0  0  0  0
    9.9736    5.6877    0.0000 H   0  0  0  0  0  0  0  0  0  0  0  0
    8.7063    4.5118    0.0000 H   0  0  0  0  0  0  0  0  0  0  0  0
   13.0064   -1.3033    0.0000 H   0  0  0  0  0  0  0  0  0  0  0  0
   13.8709   -2.8005    0.0000 H   0  0  0  0  0  0  0  0  0  0  0  0
  1 49  1  0  0  0  0
  1 51  1  0  0  0  0
  2 50  1  0  0  0  0
  2 53  1  0  0  0  0
 16  3  1  1  0  0  0
  3 67  1  0  0  0  0
 17  4  1  6  0  0  0
  4 68  1  0  0  0  0
  5 20  2  0  0  0  0
  6 47  2  0  0  0  0
  7 48  2  0  0  0  0
  8 14  1  0  0  0  0
  8 20  1  0  0  0  0
  8 21  1  0  0  0  0
  9 15  1  0  0  0  0
  9 20  1  0  0  0  0
  9 22  1  0  0  0  0
 10 47  1  0  0  0  0
 10 49  1  0  0  0  0
 10 87  1  0  0  0  0
 11 48  1  0  0  0  0
 11 50  1  0  0  0  0
 11 88  1  0  0  0  0
 12 49  2  0  0  0  0
 12 52  1  0  0  0  0
 13 50  2  0  0  0  0
 13 54  1  0  0  0  0
 14 16  1  0  0  0  0
 14 18  1  1  0  0  0
 14 55  1  0  0  0  0
 15 17  1  0  0  0  0
 15 19  1  6  0  0  0
 15 56  1  0  0  0  0
 16 17  1  0  0  0  0
 16 57  1  0  0  0  0
 17 58  1  0  0  0  0
 18 23  1  0  0  0  0
 18 59  1  0  0  0  0
 18 60  1  0  0  0  0
 19 24  1  0  0  0  0
 19 61  1  0  0  0  0
 19 62  1  0  0  0  0
 21 25  1  0  0  0  0
 21 63  1  0  0  0  0
 21 64  1  0  0  0  0
 22 26  1  0  0  0  0
 22 65  1  0  0  0  0
 22 66  1  0  0  0  0
 23 27  2  0  0  0  0
 23 28  1  0  0  0  0
 24 29  2  0  0  0  0
 24 30  1  0  0  0  0
 25 31  1  0  0  0  0
 25 33  2  0  0  0  0
 26 32  1  0  0  0  0
 26 34  2  0  0  0  0
 27 35  1  0  0  0  0
 27 69  1  0  0  0  0
 28 36  2  0  0  0  0
 28 70  1  0  0  0  0
 29 37  1  0  0  0  0
 29 71  1  0  0  0  0
 30 38  2  0  0  0  0
 30 72  1  0  0  0  0
 31 39  2  0  0  0  0
 31 73  1  0  0  0  0
 32 40  2  0  0  0  0
 32 74  1  0  0  0  0
 33 43  1  0  0  0  0
 33 75  1  0  0  0  0
 34 44  1  0  0  0  0
 34 76  1  0  0  0  0
 35 41  2  0  0  0  0
 35 77  1  0  0  0  0
 36 41  1  0  0  0  0
 36 78  1  0  0  0  0
 37 42  2  0  0  0  0
 37 79  1  0  0  0  0
 38 42  1  0  0  0  0
 38 80  1  0  0  0  0
 39 45  1  0  0  0  0
 39 47  1  0  0  0  0
 40 46  1  0  0  0  0
 40 48  1  0  0  0  0
 41 81  1  0  0  0  0
 42 82  1  0  0  0  0
 43 45  2  0  0  0  0
 43 83  1  0  0  0  0
 44 46  2  0  0  0  0
 44 84  1  0  0  0  0
 45 85  1  0  0  0  0
 46 86  1  0  0  0  0
 51 52  2  0  0  0  0
 51 89  1  0  0  0  0
 52 90  1  0  0  0  0
 53 54  2  0  0  0  0
 53 91  1  0  0  0  0
 54 92  1  0  0  0  0
M  END
> <PUBCHEM_COMPOUND_CID>
441046

> <PUBCHEM_COMPOUND_CANONICALIZED>
1

> <PUBCHEM_CACTVS_COMPLEXITY>
1150

> <PUBCHEM_CACTVS_HBOND_ACCEPTOR>
9

> <PUBCHEM_CACTVS_HBOND_DONOR>
4

> <PUBCHEM_CACTVS_ROTATABLE_BOND>
12

> <PUBCHEM_CACTVS_SUBSKEYS>
AAADcfB/uABgAAAAAAAAAAAAAAAAAWLAAAAwYMGABYAAAAAB9AAAHgQQCAAADDzl2ga9kZPIEgisAjF3dACC8Kl1CjlJyA0YJMiLMDKAnRGEYQhuhwKZiaeYyfCOAAACAAAAAAAAAAQAAAAAAAAAAAAAAA==

> <PUBCHEM_IUPAC_OPENEYE_NAME>
3-[[(4R,5S,6S,7R)-4,7-dibenzyl-5,6-dihydroxy-2-oxo-3-[[3-(thiazol-2-ylcarbamoyl)phenyl]methyl]-1,3-diazepan-1-yl]methyl]-N-thiazol-2-yl-benzamide

> <PUBCHEM_IUPAC_CAS_NAME>
3-[[(4R,5S,6S,7R)-5,6-dihydroxy-2-oxo-3-[[3-[oxo-(2-thiazolylamino)methyl]phenyl]methyl]-4,7-bis(phenylmethyl)-1,3-diazepan-1-yl]methyl]-N-(2-thiazolyl)benzamide

> <PUBCHEM_IUPAC_NAME>
3-[[(4R,5S,6S,7R)-4,7-dibenzyl-5,6-dihydroxy-2-oxo-3-[[3-(1,3-thiazol-2-ylcarbamoyl)phenyl]methyl]-1,3-diazepan-1-yl]methyl]-N-(1,3-thiazol-2-yl)benzamide

> <PUBCHEM_IUPAC_SYSTEMATIC_NAME>
3-[[(4R,5S,6S,7R)-5,6-bis(oxidanyl)-2-oxidanylidene-4,7-bis(phenylmethyl)-3-[[3-(1,3-thiazol-2-ylcarbamoyl)phenyl]methyl]-1,3-diazepan-1-yl]methyl]-N-(1,3-thiazol-2-yl)benzamide

> <PUBCHEM_IUPAC_TRADITIONAL_NAME>
3-[[(4R,5S,6S,7R)-4,7-dibenzyl-5,6-dihydroxy-2-keto-3-[3-(thiazol-2-ylcarbamoyl)benzyl]-1,3-diazepan-1-yl]methyl]-N-thiazol-2-yl-benzamide

> <PUBCHEM_IUPAC_INCHI>
InChI=1S/C41H38N6O5S2/c48-35-33(23-27-9-3-1-4-10-27)46(25-29-13-7-15-31(21-29)37(50)44-39-42-17-19-53-39)41(52)47(34(36(35)49)24-28-11-5-2-6-12-28)26-30-14-8-16-32(22-30)38(51)45-40-43-18-20-54-40/h1-22,33-36,48-49H,23-26H2,(H,42,44,50)(H,43,45,51)/t33-,34-,35+,36+/m1/s1

> <PUBCHEM_IUPAC_INCHIKEY>
JDALSSGOBMTZEP-NWJWHWDBSA-N

> <PUBCHEM_XLOGP3_AA>
5.7

> <PUBCHEM_EXACT_MASS>
758.23451

> <PUBCHEM_MOLECULAR_FORMULA>
C41H38N6O5S2

> <PUBCHEM_MOLECULAR_WEIGHT>
758.90762

> <PUBCHEM_OPENEYE_CAN_SMILES>
C1=CC=C(C=C1)CC2C(C(C(N(C(=O)N2CC3=CC=CC(=C3)C(=O)NC4=NC=CS4)CC5=CC=CC(=C5)C(=O)NC6=NC=CS6)CC7=CC=CC=C7)O)O

> <PUBCHEM_OPENEYE_ISO_SMILES>
C1=CC=C(C=C1)C[C@@H]2[C@@H]([C@H]([C@H](N(C(=O)N2CC3=CC=CC(=C3)C(=O)NC4=NC=CS4)CC5=CC=CC(=C5)C(=O)NC6=NC=CS6)CC7=CC=CC=C7)O)O

> <PUBCHEM_CACTVS_TPSA>
205

> <PUBCHEM_MONOISOTOPIC_WEIGHT>
758.23451

> <PUBCHEM_TOTAL_CHARGE>
0

> <PUBCHEM_HEAVY_ATOM_COUNT>
54

> <PUBCHEM_ATOM_DEF_STEREO_COUNT>
4

> <PUBCHEM_ATOM_UDEF_STEREO_COUNT>
0

> <PUBCHEM_BOND_DEF_STEREO_COUNT>
0

> <PUBCHEM_BOND_UDEF_STEREO_COUNT>
0

> <PUBCHEM_ISOTOPIC_ATOM_COUNT>
0

> <PUBCHEM_COMPONENT_COUNT>
1

> <PUBCHEM_CACTVS_TAUTO_COUNT>
6

> <PUBCHEM_COORDINATE_TYPE>
1
5
255

> <PUBCHEM_BONDANNOTATIONS>
1  49  8
1  51  8
12  49  8
12  52  8
13  50  8
13  54  8
14  18  5
15  19  6
2  50  8
2  53  8
23  27  8
23  28  8
24  29  8
24  30  8
25  31  8
25  33  8
26  32  8
26  34  8
27  35  8
28  36  8
29  37  8
16  3  5
30  38  8
31  39  8
32  40  8
33  43  8
34  44  8
35  41  8
36  41  8
37  42  8
38  42  8
39  45  8
17  4  6
40  46  8
43  45  8
44  46  8
51  52  8
53  54  8

$$$$

