15950
  -OEChem-07051213132D

 34 34  0     0  0  0  0  0  0999 V2000
    5.4641    2.2500    0.0000 Cl  0  0  0  0  0  0  0  0  0  0  0  0
    7.1962   -0.7500    0.0000 N   0  0  0  0  0  0  0  0  0  0  0  0
    3.7320   -0.7500    0.0000 N   0  0  0  0  0  0  0  0  0  0  0  0
    5.4641   -0.7500    0.0000 N   0  0  0  0  0  0  0  0  0  0  0  0
    6.3301    0.7500    0.0000 N   0  0  0  0  0  0  0  0  0  0  0  0
    4.5981    0.7500    0.0000 N   0  0  0  0  0  0  0  0  0  0  0  0
    2.8660   -0.2500    0.0000 C   0  0  0  0  0  0  0  0  0  0  0  0
    8.0622   -0.2500    0.0000 C   0  0  0  0  0  0  0  0  0  0  0  0
    7.1962   -1.7500    0.0000 C   0  0  0  0  0  0  0  0  0  0  0  0
    6.3301   -0.2500    0.0000 C   0  0  0  0  0  0  0  0  0  0  0  0
    2.0000   -0.7500    0.0000 C   0  0  0  0  0  0  0  0  0  0  0  0
    2.8660    0.7500    0.0000 C   0  0  0  0  0  0  0  0  0  0  0  0
    4.5981   -0.2500    0.0000 C   0  0  0  0  0  0  0  0  0  0  0  0
    8.9282   -0.7500    0.0000 C   0  0  0  0  0  0  0  0  0  0  0  0
    8.0622   -2.2500    0.0000 C   0  0  0  0  0  0  0  0  0  0  0  0
    5.4641    1.2500    0.0000 C   0  0  0  0  0  0  0  0  0  0  0  0
    2.8660   -0.8700    0.0000 H   0  0  0  0  0  0  0  0  0  0  0  0
    6.5856   -1.6423    0.0000 H   0  0  0  0  0  0  0  0  0  0  0  0
    6.9841   -2.3326    0.0000 H   0  0  0  0  0  0  0  0  0  0  0  0
    8.4607    0.2249    0.0000 H   0  0  0  0  0  0  0  0  0  0  0  0
    7.6636    0.2249    0.0000 H   0  0  0  0  0  0  0  0  0  0  0  0
    3.7320   -1.3700    0.0000 H   0  0  0  0  0  0  0  0  0  0  0  0
    1.6900   -0.2131    0.0000 H   0  0  0  0  0  0  0  0  0  0  0  0
    1.4631   -1.0600    0.0000 H   0  0  0  0  0  0  0  0  0  0  0  0
    2.3100   -1.2869    0.0000 H   0  0  0  0  0  0  0  0  0  0  0  0
    3.4860    0.7500    0.0000 H   0  0  0  0  0  0  0  0  0  0  0  0
    2.8660    1.3700    0.0000 H   0  0  0  0  0  0  0  0  0  0  0  0
    2.2460    0.7500    0.0000 H   0  0  0  0  0  0  0  0  0  0  0  0
    8.6182   -1.2869    0.0000 H   0  0  0  0  0  0  0  0  0  0  0  0
    7.7522   -2.7869    0.0000 H   0  0  0  0  0  0  0  0  0  0  0  0
    8.5991   -2.5600    0.0000 H   0  0  0  0  0  0  0  0  0  0  0  0
    8.3722   -1.7131    0.0000 H   0  0  0  0  0  0  0  0  0  0  0  0
    9.4651   -1.0600    0.0000 H   0  0  0  0  0  0  0  0  0  0  0  0
    9.2382   -0.2131    0.0000 H   0  0  0  0  0  0  0  0  0  0  0  0
  1 16  1  0  0  0  0
  2  8  1  0  0  0  0
  2  9  1  0  0  0  0
  2 10  1  0  0  0  0
  3  7  1  0  0  0  0
  3 13  1  0  0  0  0
  3 22  1  0  0  0  0
  4 10  1  0  0  0  0
  4 13  2  0  0  0  0
  5 10  2  0  0  0  0
  5 16  1  0  0  0  0
  6 13  1  0  0  0  0
  6 16  2  0  0  0  0
  7 11  1  0  0  0  0
  7 12  1  0  0  0  0
  7 17  1  0  0  0  0
  8 14  1  0  0  0  0
  8 20  1  0  0  0  0
  8 21  1  0  0  0  0
  9 15  1  0  0  0  0
  9 18  1  0  0  0  0
  9 19  1  0  0  0  0
 11 23  1  0  0  0  0
 11 24  1  0  0  0  0
 11 25  1  0  0  0  0
 12 26  1  0  0  0  0
 12 27  1  0  0  0  0
 12 28  1  0  0  0  0
 14 29  1  0  0  0  0
 14 33  1  0  0  0  0
 14 34  1  0  0  0  0
 15 30  1  0  0  0  0
 15 31  1  0  0  0  0
 15 32  1  0  0  0  0
M  END
> <PUBCHEM_COMPOUND_CID>
15950

> <PUBCHEM_COMPOUND_CANONICALIZED>
1

> <PUBCHEM_CACTVS_COMPLEXITY>
198

> <PUBCHEM_CACTVS_HBOND_ACCEPTOR>
5

> <PUBCHEM_CACTVS_HBOND_DONOR>
1

> <PUBCHEM_CACTVS_ROTATABLE_BOND>
5

> <PUBCHEM_CACTVS_SUBSKEYS>
AAADceBzgAAEAAAAAAAAAAAAAAAAAAAAAAAsAAAAAAAAAAABgAAAHAIQAAAACCjBAAQDEAfIEAAgAAAAJAAAAAkAAIABAIAIAACACAAACAAAAAAIEAKAAAAAAAAAAAAAAAAAAAAAAAAAAAAAAAAAAAAAAA==

> <PUBCHEM_IUPAC_OPENEYE_NAME>
6-chloro-N2,N2-diethyl-N4-isopropyl-1,3,5-triazine-2,4-diamine

> <PUBCHEM_IUPAC_CAS_NAME>
6-chloro-N2,N2-diethyl-N4-propan-2-yl-1,3,5-triazine-2,4-diamine

> <PUBCHEM_IUPAC_NAME>
6-chloro-2-N,2-N-diethyl-4-N-propan-2-yl-1,3,5-triazine-2,4-diamine

> <PUBCHEM_IUPAC_SYSTEMATIC_NAME>
6-chloranyl-N2,N2-diethyl-N4-propan-2-yl-1,3,5-triazine-2,4-diamine

> <PUBCHEM_IUPAC_TRADITIONAL_NAME>
[4-chloro-6-(isopropylamino)-s-triazin-2-yl]-diethyl-amine

> <PUBCHEM_IUPAC_INCHI>
InChI=1S/C10H18ClN5/c1-5-16(6-2)10-14-8(11)13-9(15-10)12-7(3)4/h7H,5-6H2,1-4H3,(H,12,13,14,15)

> <PUBCHEM_IUPAC_INCHIKEY>
OWYWGLHRNBIFJP-UHFFFAOYSA-N

> <PUBCHEM_XLOGP3>
3.8

> <PUBCHEM_EXACT_MASS>
243.125073

> <PUBCHEM_MOLECULAR_FORMULA>
C10H18ClN5

> <PUBCHEM_MOLECULAR_WEIGHT>
243.73642

> <PUBCHEM_OPENEYE_CAN_SMILES>
CCN(CC)C1=NC(=NC(=N1)NC(C)C)Cl

> <PUBCHEM_OPENEYE_ISO_SMILES>
CCN(CC)C1=NC(=NC(=N1)NC(C)C)Cl

> <PUBCHEM_CACTVS_TPSA>
53.9

> <PUBCHEM_MONOISOTOPIC_WEIGHT>
243.125073

> <PUBCHEM_TOTAL_CHARGE>
0

> <PUBCHEM_HEAVY_ATOM_COUNT>
16

> <PUBCHEM_ATOM_DEF_STEREO_COUNT>
0

> <PUBCHEM_ATOM_UDEF_STEREO_COUNT>
0

> <PUBCHEM_BOND_DEF_STEREO_COUNT>
0

> <PUBCHEM_BOND_UDEF_STEREO_COUNT>
0

> <PUBCHEM_ISOTOPIC_ATOM_COUNT>
0

> <PUBCHEM_COMPONENT_COUNT>
1

> <PUBCHEM_CACTVS_TAUTO_COUNT>
4

> <PUBCHEM_COORDINATE_TYPE>
1
5
255

> <PUBCHEM_BONDANNOTATIONS>
4  10  8
4  13  8
5  10  8
5  16  8
6  13  8
6  16  8

$$$$

