6435415
  -OEChem-07051212462D

 50 50  0     1  0  0  0  0  0999 V2000
    6.3660    1.7136    0.0000 S   0  0  0  0  0  0  0  0  0  0  0  0
    5.3660   -5.2146    0.0000 O   0  0  0  0  0  0  0  0  0  0  0  0
    7.8660   -4.3486    0.0000 O   0  0  0  0  0  0  0  0  0  0  0  0
    6.3660   -5.2146    0.0000 O   0  0  0  0  0  0  0  0  0  0  0  0
    6.3660    5.1777    0.0000 O   0  0  0  0  0  0  0  0  0  0  0  0
    7.8660    4.3117    0.0000 O   0  0  0  0  0  0  0  0  0  0  0  0
    5.3660   -3.4826    0.0000 N   0  0  0  0  0  0  0  0  0  0  0  0
    5.3660    3.4456    0.0000 N   0  0  0  0  0  0  0  0  0  0  0  0
    3.0000   -4.8486    0.0000 C   0  0  0  0  0  0  0  0  0  0  0  0
    3.8660   -4.3486    0.0000 C   0  0  2  0  0  0  0  0  0  0  0  0
    3.0000   -3.8486    0.0000 C   0  0  0  0  0  0  0  0  0  0  0  0
    2.0000   -4.8486    0.0000 C   0  0  0  0  0  0  0  0  0  0  0  0
    3.5000   -5.7146    0.0000 C   0  0  0  0  0  0  0  0  0  0  0  0
    4.8660   -4.3486    0.0000 C   0  0  0  0  0  0  0  0  0  0  0  0
    6.3660   -3.4826    0.0000 C   0  0  0  0  0  0  0  0  0  0  0  0
    6.8660   -2.6165    0.0000 C   0  0  0  0  0  0  0  0  0  0  0  0
    6.3660   -1.7505    0.0000 C   0  0  0  0  0  0  0  0  0  0  0  0
    6.8660   -4.3486    0.0000 C   0  0  0  0  0  0  0  0  0  0  0  0
    6.8660   -0.8845    0.0000 C   0  0  0  0  0  0  0  0  0  0  0  0
    6.3660   -0.0185    0.0000 C   0  0  0  0  0  0  0  0  0  0  0  0
    6.8660    0.8476    0.0000 C   0  0  0  0  0  0  0  0  0  0  0  0
    6.8660    2.5796    0.0000 C   0  0  0  0  0  0  0  0  0  0  0  0
    6.3660    3.4456    0.0000 C   0  0  1  0  0  0  0  0  0  0  0  0
    6.8660    4.3117    0.0000 C   0  0  0  0  0  0  0  0  0  0  0  0
    4.0265   -3.7497    0.0000 H   0  0  0  0  0  0  0  0  0  0  0  0
    3.2120   -3.2660    0.0000 H   0  0  0  0  0  0  0  0  0  0  0  0
    2.3894   -3.7409    0.0000 H   0  0  0  0  0  0  0  0  0  0  0  0
    2.9631   -6.0246    0.0000 H   0  0  0  0  0  0  0  0  0  0  0  0
    3.8100   -6.2516    0.0000 H   0  0  0  0  0  0  0  0  0  0  0  0
    2.0000   -4.2286    0.0000 H   0  0  0  0  0  0  0  0  0  0  0  0
    1.3800   -4.8486    0.0000 H   0  0  0  0  0  0  0  0  0  0  0  0
    2.0000   -5.4686    0.0000 H   0  0  0  0  0  0  0  0  0  0  0  0
    4.0369   -5.4046    0.0000 H   0  0  0  0  0  0  0  0  0  0  0  0
    5.0560   -2.9456    0.0000 H   0  0  0  0  0  0  0  0  0  0  0  0
    7.4860   -2.6165    0.0000 H   0  0  0  0  0  0  0  0  0  0  0  0
    5.8911   -1.3520    0.0000 H   0  0  0  0  0  0  0  0  0  0  0  0
    5.8911   -2.1490    0.0000 H   0  0  0  0  0  0  0  0  0  0  0  0
    7.3410   -1.2830    0.0000 H   0  0  0  0  0  0  0  0  0  0  0  0
    7.3410   -0.4860    0.0000 H   0  0  0  0  0  0  0  0  0  0  0  0
    5.8911    0.3801    0.0000 H   0  0  0  0  0  0  0  0  0  0  0  0
    5.8911   -0.4170    0.0000 H   0  0  0  0  0  0  0  0  0  0  0  0
    7.3410    0.4490    0.0000 H   0  0  0  0  0  0  0  0  0  0  0  0
    7.3410    1.2461    0.0000 H   0  0  0  0  0  0  0  0  0  0  0  0
    8.1760   -4.8855    0.0000 H   0  0  0  0  0  0  0  0  0  0  0  0
    7.3410    2.1811    0.0000 H   0  0  0  0  0  0  0  0  0  0  0  0
    7.3410    2.9781    0.0000 H   0  0  0  0  0  0  0  0  0  0  0  0
    6.0560    2.9087    0.0000 H   0  0  0  0  0  0  0  0  0  0  0  0
    5.0560    3.9826    0.0000 H   0  0  0  0  0  0  0  0  0  0  0  0
    5.0560    2.9087    0.0000 H   0  0  0  0  0  0  0  0  0  0  0  0
    6.6760    5.7146    0.0000 H   0  0  0  0  0  0  0  0  0  0  0  0
  1 21  1  0  0  0  0
  1 22  1  0  0  0  0
  2 14  2  0  0  0  0
  3 18  1  0  0  0  0
  3 44  1  0  0  0  0
  4 18  2  0  0  0  0
  5 24  1  0  0  0  0
  5 50  1  0  0  0  0
  6 24  2  0  0  0  0
  7 14  1  0  0  0  0
  7 15  1  0  0  0  0
  7 34  1  0  0  0  0
 23  8  1  6  0  0  0
  8 48  1  0  0  0  0
  8 49  1  0  0  0  0
  9 10  1  0  0  0  0
  9 11  1  0  0  0  0
  9 12  1  0  0  0  0
  9 13  1  0  0  0  0
 10 11  1  0  0  0  0
 10 14  1  6  0  0  0
 10 25  1  0  0  0  0
 11 26  1  0  0  0  0
 11 27  1  0  0  0  0
 12 30  1  0  0  0  0
 12 31  1  0  0  0  0
 12 32  1  0  0  0  0
 13 28  1  0  0  0  0
 13 29  1  0  0  0  0
 13 33  1  0  0  0  0
 15 16  2  0  0  0  0
 15 18  1  0  0  0  0
 16 17  1  0  0  0  0
 16 35  1  0  0  0  0
 17 19  1  0  0  0  0
 17 36  1  0  0  0  0
 17 37  1  0  0  0  0
 19 20  1  0  0  0  0
 19 38  1  0  0  0  0
 19 39  1  0  0  0  0
 20 21  1  0  0  0  0
 20 40  1  0  0  0  0
 20 41  1  0  0  0  0
 21 42  1  0  0  0  0
 21 43  1  0  0  0  0
 22 23  1  0  0  0  0
 22 45  1  0  0  0  0
 22 46  1  0  0  0  0
 23 24  1  0  0  0  0
 23 47  1  0  0  0  0
M  END
> <PUBCHEM_COMPOUND_CID>
6435415

> <PUBCHEM_COMPOUND_CANONICALIZED>
1

> <PUBCHEM_CACTVS_COMPLEXITY>
519

> <PUBCHEM_CACTVS_HBOND_ACCEPTOR>
7

> <PUBCHEM_CACTVS_HBOND_DONOR>
4

> <PUBCHEM_CACTVS_ROTATABLE_BOND>
11

> <PUBCHEM_CACTVS_SUBSKEYS>
AAADceB7OABAAAAAAAAAAAAAGAAAAAAAAAAAAAAAAAAAAAAAAAAAHgQQCAAADyjFwASCCALAAgiIACXSWAAAAAAgAhAACIGAAEgCBBIggCAEUAAAlAC4EYIYAAANgAAAAAAAAAAAAAAAAAAAAAAAAAAAAA==

> <PUBCHEM_IUPAC_OPENEYE_NAME>
(Z)-7-[(2R)-2-amino-2-carboxy-ethyl]sulfanyl-2-[[(1S)-2,2-dimethylcyclopropanecarbonyl]amino]hept-2-enoic acid

> <PUBCHEM_IUPAC_CAS_NAME>
(Z)-7-[[(2R)-2-amino-2-carboxyethyl]thio]-2-[[[(1S)-2,2-dimethylcyclopropyl]-oxomethyl]amino]-2-heptenoic acid

> <PUBCHEM_IUPAC_NAME>
(Z)-7-[(2R)-2-amino-2-carboxyethyl]sulfanyl-2-[[(1S)-2,2-dimethylcyclopropanecarbonyl]amino]hept-2-enoic acid

> <PUBCHEM_IUPAC_SYSTEMATIC_NAME>
(Z)-7-[(2R)-2-azanyl-3-oxidanyl-3-oxidanylidene-propyl]sulfanyl-2-[[(1S)-2,2-dimethylcyclopropyl]carbonylamino]hept-2-enoic acid

> <PUBCHEM_IUPAC_TRADITIONAL_NAME>
(Z)-7-[[(2R)-2-amino-2-carboxy-ethyl]thio]-2-[[(1S)-2,2-dimethylcyclopropanecarbonyl]amino]hept-2-enoic acid

> <PUBCHEM_IUPAC_INCHI>
InChI=1S/C16H26N2O5S/c1-16(2)8-10(16)13(19)18-12(15(22)23)6-4-3-5-7-24-9-11(17)14(20)21/h6,10-11H,3-5,7-9,17H2,1-2H3,(H,18,19)(H,20,21)(H,22,23)/b12-6-/t10-,11+/m1/s1

> <PUBCHEM_IUPAC_INCHIKEY>
DHSUYTOATWAVLW-WFVMDLQDSA-N

> <PUBCHEM_XLOGP3_AA>
-1

> <PUBCHEM_EXACT_MASS>
358.156243

> <PUBCHEM_MOLECULAR_FORMULA>
C16H26N2O5S

> <PUBCHEM_MOLECULAR_WEIGHT>
358.45304

> <PUBCHEM_OPENEYE_CAN_SMILES>
CC1(CC1C(=O)NC(=CCCCCSCC(C(=O)O)N)C(=O)O)C

> <PUBCHEM_OPENEYE_ISO_SMILES>
CC1(C[C@@H]1C(=O)N/C(=C\CCCCSC[C@@H](C(=O)O)N)/C(=O)O)C

> <PUBCHEM_CACTVS_TPSA>
155

> <PUBCHEM_MONOISOTOPIC_WEIGHT>
358.156243

> <PUBCHEM_TOTAL_CHARGE>
0

> <PUBCHEM_HEAVY_ATOM_COUNT>
24

> <PUBCHEM_ATOM_DEF_STEREO_COUNT>
2

> <PUBCHEM_ATOM_UDEF_STEREO_COUNT>
0

> <PUBCHEM_BOND_DEF_STEREO_COUNT>
1

> <PUBCHEM_BOND_UDEF_STEREO_COUNT>
0

> <PUBCHEM_ISOTOPIC_ATOM_COUNT>
0

> <PUBCHEM_COMPONENT_COUNT>
1

> <PUBCHEM_CACTVS_TAUTO_COUNT>
3

> <PUBCHEM_COORDINATE_TYPE>
1
5
255

> <PUBCHEM_BONDANNOTATIONS>
10  14  6
23  8  6

$$$$

