583155
  -OEChem-06241222442D

 49 50  0     1  0  0  0  0  0999 V2000
    3.7320   -0.5000    0.0000 C   0  0  3  0  0  0  0  0  0  0  0  0
    3.7320    1.5000    0.0000 C   0  0  3  0  0  0  0  0  0  0  0  0
    2.8660    0.0000    0.0000 C   0  0  0  0  0  0  0  0  0  0  0  0
    2.8660    1.0000    0.0000 C   0  0  0  0  0  0  0  0  0  0  0  0
    4.5981    0.0000    0.0000 C   0  0  0  0  0  0  0  0  0  0  0  0
    4.5981    1.0000    0.0000 C   0  0  0  0  0  0  0  0  0  0  0  0
    3.7320   -1.5000    0.0000 C   0  0  0  0  0  0  0  0  0  0  0  0
    3.7320    2.5000    0.0000 C   0  0  0  0  0  0  0  0  0  0  0  0
    2.8660   -2.0000    0.0000 C   0  0  0  0  0  0  0  0  0  0  0  0
    2.8660    3.0000    0.0000 C   0  0  0  0  0  0  0  0  0  0  0  0
    5.4920   -0.5347    0.0000 C   0  0  0  0  0  0  0  0  0  0  0  0
    5.4920    1.5347    0.0000 C   0  0  0  0  0  0  0  0  0  0  0  0
    2.8660   -3.0000    0.0000 C   0  0  0  0  0  0  0  0  0  0  0  0
    2.8660    4.0000    0.0000 C   0  0  0  0  0  0  0  0  0  0  0  0
    6.3981   -0.0208    0.0000 C   0  0  0  0  0  0  0  0  0  0  0  0
    6.3981    1.0208    0.0000 C   0  0  0  0  0  0  0  0  0  0  0  0
    2.0000   -3.5000    0.0000 C   0  0  0  0  0  0  0  0  0  0  0  0
    2.0000    4.5000    0.0000 C   0  0  0  0  0  0  0  0  0  0  0  0
    2.0000   -4.5000    0.0000 C   0  0  0  0  0  0  0  0  0  0  0  0
    4.2690   -0.8100    0.0000 H   0  0  0  0  0  0  0  0  0  0  0  0
    4.2690    1.8100    0.0000 H   0  0  0  0  0  0  0  0  0  0  0  0
    2.2554    0.1077    0.0000 H   0  0  0  0  0  0  0  0  0  0  0  0
    2.6540   -0.5826    0.0000 H   0  0  0  0  0  0  0  0  0  0  0  0
    2.6540    1.5826    0.0000 H   0  0  0  0  0  0  0  0  0  0  0  0
    2.2554    0.8923    0.0000 H   0  0  0  0  0  0  0  0  0  0  0  0
    3.9441   -2.0826    0.0000 H   0  0  0  0  0  0  0  0  0  0  0  0
    4.3426   -1.3923    0.0000 H   0  0  0  0  0  0  0  0  0  0  0  0
    4.3426    2.3923    0.0000 H   0  0  0  0  0  0  0  0  0  0  0  0
    3.9441    3.0826    0.0000 H   0  0  0  0  0  0  0  0  0  0  0  0
    2.6540   -1.4174    0.0000 H   0  0  0  0  0  0  0  0  0  0  0  0
    2.2554   -2.1077    0.0000 H   0  0  0  0  0  0  0  0  0  0  0  0
    2.2554    3.1077    0.0000 H   0  0  0  0  0  0  0  0  0  0  0  0
    2.6540    2.4174    0.0000 H   0  0  0  0  0  0  0  0  0  0  0  0
    5.4848   -1.1546    0.0000 H   0  0  0  0  0  0  0  0  0  0  0  0
    5.4848    2.1546    0.0000 H   0  0  0  0  0  0  0  0  0  0  0  0
    3.0781   -3.5826    0.0000 H   0  0  0  0  0  0  0  0  0  0  0  0
    3.4766   -2.8923    0.0000 H   0  0  0  0  0  0  0  0  0  0  0  0
    3.4766    3.8923    0.0000 H   0  0  0  0  0  0  0  0  0  0  0  0
    3.0781    4.5826    0.0000 H   0  0  0  0  0  0  0  0  0  0  0  0
    6.9338   -0.3329    0.0000 H   0  0  0  0  0  0  0  0  0  0  0  0
    6.9338    1.3329    0.0000 H   0  0  0  0  0  0  0  0  0  0  0  0
    1.7880   -2.9174    0.0000 H   0  0  0  0  0  0  0  0  0  0  0  0
    1.3894   -3.6077    0.0000 H   0  0  0  0  0  0  0  0  0  0  0  0
    2.3100    5.0369    0.0000 H   0  0  0  0  0  0  0  0  0  0  0  0
    1.4631    4.8100    0.0000 H   0  0  0  0  0  0  0  0  0  0  0  0
    1.6900    3.9631    0.0000 H   0  0  0  0  0  0  0  0  0  0  0  0
    1.3800   -4.5000    0.0000 H   0  0  0  0  0  0  0  0  0  0  0  0
    2.0000   -5.1200    0.0000 H   0  0  0  0  0  0  0  0  0  0  0  0
    2.6200   -4.5000    0.0000 H   0  0  0  0  0  0  0  0  0  0  0  0
  1  3  1  0  0  0  0
  1  5  1  0  0  0  0
  1  7  1  0  0  0  0
  1 20  1  0  0  0  0
  2  4  1  0  0  0  0
  2  6  1  0  0  0  0
  2  8  1  0  0  0  0
  2 21  1  0  0  0  0
  3  4  1  0  0  0  0
  3 22  1  0  0  0  0
  3 23  1  0  0  0  0
  4 24  1  0  0  0  0
  4 25  1  0  0  0  0
  5  6  1  0  0  0  0
  5 11  2  0  0  0  0
  6 12  2  0  0  0  0
  7  9  1  0  0  0  0
  7 26  1  0  0  0  0
  7 27  1  0  0  0  0
  8 10  1  0  0  0  0
  8 28  1  0  0  0  0
  8 29  1  0  0  0  0
  9 13  1  0  0  0  0
  9 30  1  0  0  0  0
  9 31  1  0  0  0  0
 10 14  1  0  0  0  0
 10 32  1  0  0  0  0
 10 33  1  0  0  0  0
 11 15  1  0  0  0  0
 11 34  1  0  0  0  0
 12 16  1  0  0  0  0
 12 35  1  0  0  0  0
 13 17  1  0  0  0  0
 13 36  1  0  0  0  0
 13 37  1  0  0  0  0
 14 18  1  0  0  0  0
 14 38  1  0  0  0  0
 14 39  1  0  0  0  0
 15 16  2  0  0  0  0
 15 40  1  0  0  0  0
 16 41  1  0  0  0  0
 17 19  1  0  0  0  0
 17 42  1  0  0  0  0
 17 43  1  0  0  0  0
 18 44  1  0  0  0  0
 18 45  1  0  0  0  0
 18 46  1  0  0  0  0
 19 47  1  0  0  0  0
 19 48  1  0  0  0  0
 19 49  1  0  0  0  0
M  END
> <PUBCHEM_COMPOUND_CID>
583155

> <PUBCHEM_COMPOUND_CANONICALIZED>
1

> <PUBCHEM_CACTVS_COMPLEXITY>
232

> <PUBCHEM_CACTVS_HBOND_ACCEPTOR>
0

> <PUBCHEM_CACTVS_HBOND_DONOR>
0

> <PUBCHEM_CACTVS_ROTATABLE_BOND>
7

> <PUBCHEM_CACTVS_SUBSKEYS>
AAADceB4AAAAAAAAAAAAAAAAAAAAAAAAAAAwYAAAAAAAAADBAAAAGAAAAAAADQCAGAAyAIAAAACAAiBCAAACAAAgAAAIiAAAAIgIICKAERCAIAAggAAIiAcAgMAOgAAAAAAQAACAAAQAACAAAAAAAAAAAA==

> <PUBCHEM_IUPAC_OPENEYE_NAME>
1-butyl-4-pentyl-tetralin

> <PUBCHEM_IUPAC_CAS_NAME>
1-butyl-4-pentyl-1,2,3,4-tetrahydronaphthalene

> <PUBCHEM_IUPAC_NAME>
1-butyl-4-pentyl-1,2,3,4-tetrahydronaphthalene

> <PUBCHEM_IUPAC_SYSTEMATIC_NAME>
1-butyl-4-pentyl-1,2,3,4-tetrahydronaphthalene

> <PUBCHEM_IUPAC_TRADITIONAL_NAME>
1-amyl-4-butyl-tetralin

> <PUBCHEM_IUPAC_INCHI>
InChI=1S/C19H30/c1-3-5-7-11-17-15-14-16(10-6-4-2)18-12-8-9-13-19(17)18/h8-9,12-13,16-17H,3-7,10-11,14-15H2,1-2H3

> <PUBCHEM_IUPAC_INCHIKEY>
SYOBPZRDUPIRLE-UHFFFAOYSA-N

> <PUBCHEM_XLOGP3_AA>
7.7

> <PUBCHEM_EXACT_MASS>
258.234751

> <PUBCHEM_MOLECULAR_FORMULA>
C19H30

> <PUBCHEM_MOLECULAR_WEIGHT>
258.4415

> <PUBCHEM_OPENEYE_CAN_SMILES>
CCCCCC1CCC(C2=CC=CC=C12)CCCC

> <PUBCHEM_OPENEYE_ISO_SMILES>
CCCCCC1CCC(C2=CC=CC=C12)CCCC

> <PUBCHEM_CACTVS_TPSA>
0

> <PUBCHEM_MONOISOTOPIC_WEIGHT>
258.234751

> <PUBCHEM_TOTAL_CHARGE>
0

> <PUBCHEM_HEAVY_ATOM_COUNT>
19

> <PUBCHEM_ATOM_DEF_STEREO_COUNT>
0

> <PUBCHEM_ATOM_UDEF_STEREO_COUNT>
2

> <PUBCHEM_BOND_DEF_STEREO_COUNT>
0

> <PUBCHEM_BOND_UDEF_STEREO_COUNT>
0

> <PUBCHEM_ISOTOPIC_ATOM_COUNT>
0

> <PUBCHEM_COMPONENT_COUNT>
1

> <PUBCHEM_CACTVS_TAUTO_COUNT>
1

> <PUBCHEM_COORDINATE_TYPE>
1
5
255

> <PUBCHEM_BONDANNOTATIONS>
1  7  3
11  15  8
12  16  8
15  16  8
2  8  3
5  11  8
5  6  8
6  12  8

$$$$

