46173951
  -OEChem-07051213103D

 87 90  0     1  0  0  0  0  0999 V2000
   -0.2249    2.1159    0.0676 O   0  0  0  0  0  0  0  0  0  0  0  0
   -3.4218    0.3579    0.3122 O   0  0  0  0  0  0  0  0  0  0  0  0
    0.2148    0.6512   -1.7208 O   0  0  0  0  0  0  0  0  0  0  0  0
    3.6572    0.3200   -0.7671 O   0  0  0  0  0  0  0  0  0  0  0  0
   -3.7125    3.1821   -0.1929 O   0  0  0  0  0  0  0  0  0  0  0  0
   -3.2870   -1.9163   -0.3277 O   0  0  0  0  0  0  0  0  0  0  0  0
    2.5942    2.4358   -2.1576 O   0  0  0  0  0  0  0  0  0  0  0  0
    4.3879   -0.6671    1.2555 O   0  0  0  0  0  0  0  0  0  0  0  0
   -6.9597   -0.8416   -1.8903 O   0  0  0  0  0  0  0  0  0  0  0  0
   -6.8397   -2.4991    0.4556 O   0  0  0  0  0  0  0  0  0  0  0  0
    7.9859    0.0954   -0.6312 O   0  0  0  0  0  0  0  0  0  0  0  0
    0.2083   -2.1515   -2.0361 O   0  0  0  0  0  0  0  0  0  0  0  0
    7.0082   -2.6032   -0.4654 O   0  0  0  0  0  0  0  0  0  0  0  0
    3.4699   -3.1624    1.8747 O   0  0  0  0  0  0  0  0  0  0  0  0
   -0.8051    0.9979    2.8167 N   0  0  0  0  0  0  0  0  0  0  0  0
   -1.1114    3.9707    2.2859 N   0  0  0  0  0  0  0  0  0  0  0  0
   -4.7122    0.9860   -2.1562 N   0  0  0  0  0  0  0  0  0  0  0  0
    5.8847    2.1054   -0.7119 N   0  0  0  0  0  0  0  0  0  0  0  0
   -2.9232   -3.8394    1.6883 N   0  0  0  0  0  0  0  0  0  0  0  0
   -1.6305    1.9437   -0.0853 C   0  0  1  0  0  0  0  0  0  0  0  0
   -2.1070    0.7300    0.7320 C   0  0  1  0  0  0  0  0  0  0  0  0
   -2.1537    0.9833    2.2501 C   0  0  2  0  0  0  0  0  0  0  0  0
   -2.3658    3.2445    0.2827 C   0  0  2  0  0  0  0  0  0  0  0  0
   -2.4153    3.5232    1.7960 C   0  0  1  0  0  0  0  0  0  0  0  0
   -2.9045    2.2881    2.5755 C   0  0  0  0  0  0  0  0  0  0  0  0
    0.4498    1.9648   -1.1756 C   0  0  2  0  0  0  0  0  0  0  0  0
    2.2905    0.6293   -0.5956 C   0  0  1  0  0  0  0  0  0  0  0  0
    1.9503    2.0647   -0.9427 C   0  0  1  0  0  0  0  0  0  0  0  0
    1.4064   -0.1395   -1.5638 C   0  0  1  0  0  0  0  0  0  0  0  0
   -3.3745   -0.5608   -0.7775 C   0  0  1  0  0  0  0  0  0  0  0  0
   -4.5996   -0.3948   -1.6849 C   0  0  1  0  0  0  0  0  0  0  0  0
   -5.8788   -0.8208   -0.9563 C   0  0  2  0  0  0  0  0  0  0  0  0
    4.3994    0.5060    0.4363 C   0  0  1  0  0  0  0  0  0  0  0  0
   -5.7097   -2.2268   -0.3697 C   0  0  1  0  0  0  0  0  0  0  0  0
   -4.4161   -2.3353    0.4465 C   0  0  1  0  0  0  0  0  0  0  0  0
    5.8469    0.9079    0.1283 C   0  0  1  0  0  0  0  0  0  0  0  0
    6.6010   -0.2449   -0.5436 C   0  0  2  0  0  0  0  0  0  0  0  0
    1.0382   -1.5274   -1.0702 C   0  0  0  0  0  0  0  0  0  0  0  0
    6.4615   -1.5243    0.2890 C   0  0  1  0  0  0  0  0  0  0  0  0
    4.9936   -1.8051    0.6323 C   0  0  1  0  0  0  0  0  0  0  0  0
   -4.1418   -3.7678    0.8965 C   0  0  0  0  0  0  0  0  0  0  0  0
    4.8462   -2.9754    1.6009 C   0  0  0  0  0  0  0  0  0  0  0  0
   -1.8832    1.7602   -1.1382 H   0  0  0  0  0  0  0  0  0  0  0  0
   -1.4243   -0.1154    0.5684 H   0  0  0  0  0  0  0  0  0  0  0  0
   -2.7037    0.1618    2.7271 H   0  0  0  0  0  0  0  0  0  0  0  0
   -1.8875    4.0868   -0.2332 H   0  0  0  0  0  0  0  0  0  0  0  0
   -3.1312    4.3328    1.9874 H   0  0  0  0  0  0  0  0  0  0  0  0
   -3.9685    2.1374    2.3467 H   0  0  0  0  0  0  0  0  0  0  0  0
   -2.8666    2.4849    3.6556 H   0  0  0  0  0  0  0  0  0  0  0  0
    0.0932    2.7156   -1.8906 H   0  0  0  0  0  0  0  0  0  0  0  0
    1.9600    0.4084    0.4302 H   0  0  0  0  0  0  0  0  0  0  0  0
    2.2420    2.7709   -0.1598 H   0  0  0  0  0  0  0  0  0  0  0  0
    1.8714   -0.2214   -2.5544 H   0  0  0  0  0  0  0  0  0  0  0  0
   -2.4845   -0.3837   -1.3942 H   0  0  0  0  0  0  0  0  0  0  0  0
   -4.4739   -1.0405   -2.5645 H   0  0  0  0  0  0  0  0  0  0  0  0
   -6.1488   -0.1062   -0.1690 H   0  0  0  0  0  0  0  0  0  0  0  0
   -0.8586    1.1138    3.8278 H   0  0  0  0  0  0  0  0  0  0  0  0
   -0.3526    0.0997    2.6525 H   0  0  0  0  0  0  0  0  0  0  0  0
    3.9520    1.3129    1.0321 H   0  0  0  0  0  0  0  0  0  0  0  0
   -5.7125   -2.9653   -1.1807 H   0  0  0  0  0  0  0  0  0  0  0  0
   -4.4900   -1.7069    1.3449 H   0  0  0  0  0  0  0  0  0  0  0  0
   -1.1766    4.1996    3.2767 H   0  0  0  0  0  0  0  0  0  0  0  0
   -0.8410    4.8292    1.8081 H   0  0  0  0  0  0  0  0  0  0  0  0
    6.3531    1.1451    1.0737 H   0  0  0  0  0  0  0  0  0  0  0  0
   -4.1273    4.0441   -0.0183 H   0  0  0  0  0  0  0  0  0  0  0  0
    6.2467   -0.4131   -1.5680 H   0  0  0  0  0  0  0  0  0  0  0  0
    0.4759   -1.4766   -0.1325 H   0  0  0  0  0  0  0  0  0  0  0  0
    1.9307   -2.1428   -0.9226 H   0  0  0  0  0  0  0  0  0  0  0  0
    7.0569   -1.4323    1.2055 H   0  0  0  0  0  0  0  0  0  0  0  0
    4.4245   -2.0509   -0.2737 H   0  0  0  0  0  0  0  0  0  0  0  0
    2.3057    3.3387   -2.3748 H   0  0  0  0  0  0  0  0  0  0  0  0
   -4.9767   -4.1512    1.4920 H   0  0  0  0  0  0  0  0  0  0  0  0
   -4.0228   -4.4199    0.0234 H   0  0  0  0  0  0  0  0  0  0  0  0
   -3.8810    1.2349   -2.6906 H   0  0  0  0  0  0  0  0  0  0  0  0
   -5.5022    1.0655   -2.7951 H   0  0  0  0  0  0  0  0  0  0  0  0
    5.3492   -2.7614    2.5499 H   0  0  0  0  0  0  0  0  0  0  0  0
    5.2518   -3.8988    1.1765 H   0  0  0  0  0  0  0  0  0  0  0  0
    6.8526    2.3871   -0.8619 H   0  0  0  0  0  0  0  0  0  0  0  0
    5.4292    2.8782   -0.2284 H   0  0  0  0  0  0  0  0  0  0  0  0
   -6.7352   -1.4684   -2.5990 H   0  0  0  0  0  0  0  0  0  0  0  0
   -6.8300   -1.8690    1.1962 H   0  0  0  0  0  0  0  0  0  0  0  0
    8.3165    0.2521    0.2697 H   0  0  0  0  0  0  0  0  0  0  0  0
   -0.0190   -3.0322   -1.6923 H   0  0  0  0  0  0  0  0  0  0  0  0
    6.4660   -2.7159   -1.2647 H   0  0  0  0  0  0  0  0  0  0  0  0
   -2.7198   -4.8125    1.9124 H   0  0  0  0  0  0  0  0  0  0  0  0
   -2.1351   -3.5008    1.1376 H   0  0  0  0  0  0  0  0  0  0  0  0
    3.3991   -3.9089    2.4938 H   0  0  0  0  0  0  0  0  0  0  0  0
  1 20  1  0  0  0  0
  1 26  1  0  0  0  0
  2 21  1  0  0  0  0
  2 30  1  0  0  0  0
  3 26  1  0  0  0  0
  3 29  1  0  0  0  0
  4 27  1  0  0  0  0
  4 33  1  0  0  0  0
  5 23  1  0  0  0  0
  5 65  1  0  0  0  0
  6 30  1  0  0  0  0
  6 35  1  0  0  0  0
  7 28  1  0  0  0  0
  7 71  1  0  0  0  0
  8 33  1  0  0  0  0
  8 40  1  0  0  0  0
  9 32  1  0  0  0  0
  9 80  1  0  0  0  0
 10 34  1  0  0  0  0
 10 81  1  0  0  0  0
 11 37  1  0  0  0  0
 11 82  1  0  0  0  0
 12 38  1  0  0  0  0
 12 83  1  0  0  0  0
 13 39  1  0  0  0  0
 13 84  1  0  0  0  0
 14 42  1  0  0  0  0
 14 87  1  0  0  0  0
 15 22  1  0  0  0  0
 15 57  1  0  0  0  0
 15 58  1  0  0  0  0
 16 24  1  0  0  0  0
 16 62  1  0  0  0  0
 16 63  1  0  0  0  0
 17 31  1  0  0  0  0
 17 74  1  0  0  0  0
 17 75  1  0  0  0  0
 18 36  1  0  0  0  0
 18 78  1  0  0  0  0
 18 79  1  0  0  0  0
 19 41  1  0  0  0  0
 19 85  1  0  0  0  0
 19 86  1  0  0  0  0
 20 21  1  0  0  0  0
 20 23  1  0  0  0  0
 20 43  1  0  0  0  0
 21 22  1  0  0  0  0
 21 44  1  0  0  0  0
 22 25  1  0  0  0  0
 22 45  1  0  0  0  0
 23 24  1  0  0  0  0
 23 46  1  0  0  0  0
 24 25  1  0  0  0  0
 24 47  1  0  0  0  0
 25 48  1  0  0  0  0
 25 49  1  0  0  0  0
 26 28  1  0  0  0  0
 26 50  1  0  0  0  0
 27 28  1  0  0  0  0
 27 29  1  0  0  0  0
 27 51  1  0  0  0  0
 28 52  1  0  0  0  0
 29 38  1  0  0  0  0
 29 53  1  0  0  0  0
 30 31  1  0  0  0  0
 30 54  1  0  0  0  0
 31 32  1  0  0  0  0
 31 55  1  0  0  0  0
 32 34  1  0  0  0  0
 32 56  1  0  0  0  0
 33 36  1  0  0  0  0
 33 59  1  0  0  0  0
 34 35  1  0  0  0  0
 34 60  1  0  0  0  0
 35 41  1  0  0  0  0
 35 61  1  0  0  0  0
 36 37  1  0  0  0  0
 36 64  1  0  0  0  0
 37 39  1  0  0  0  0
 37 66  1  0  0  0  0
 38 67  1  0  0  0  0
 38 68  1  0  0  0  0
 39 40  1  0  0  0  0
 39 69  1  0  0  0  0
 40 42  1  0  0  0  0
 40 70  1  0  0  0  0
 41 72  1  0  0  0  0
 41 73  1  0  0  0  0
 42 76  1  0  0  0  0
 42 77  1  0  0  0  0
M  END
> <PUBCHEM_COMPOUND_CID>
46173951

> <PUBCHEM_CONFORMER_RMSD>
1.2

> <PUBCHEM_CONFORMER_DIVERSEORDER>
1
25
37
29
9
24
40
3
49
17
11
41
45
12
50
36
13
14
47
30
48
44
39
10
32
22
15
16
21
6
19
23
38
4
20
28
43
18
5
34
46
33
7
2
35
42
27
31
26
8

> <PUBCHEM_MMFF94_PARTIAL_CHARGES>
59
1 -0.56
10 -0.68
11 -0.68
12 -0.68
13 -0.68
14 -0.68
15 -0.99
16 -0.99
17 -0.99
18 -0.99
19 -0.99
2 -0.56
20 0.28
21 0.28
22 0.27
23 0.28
24 0.27
26 0.56
27 0.28
28 0.28
29 0.28
3 -0.56
30 0.56
31 0.27
32 0.28
33 0.56
34 0.28
35 0.28
36 0.27
37 0.28
38 0.28
39 0.28
4 -0.56
40 0.28
41 0.27
42 0.28
5 -0.68
57 0.36
58 0.36
6 -0.56
62 0.36
63 0.36
65 0.4
7 -0.68
71 0.4
74 0.36
75 0.36
78 0.36
79 0.36
8 -0.56
80 0.4
81 0.4
82 0.4
83 0.4
84 0.4
85 0.36
86 0.36
87 0.4
9 -0.68

> <PUBCHEM_EFFECTIVE_ROTOR_COUNT>
13.6

> <PUBCHEM_PHARMACOPHORE_FEATURES>
36
1 1 acceptor
1 10 acceptor
1 10 donor
1 11 acceptor
1 11 donor
1 12 acceptor
1 12 donor
1 13 acceptor
1 13 donor
1 14 acceptor
1 14 donor
1 15 cation
1 15 donor
1 16 cation
1 16 donor
1 17 cation
1 17 donor
1 18 cation
1 18 donor
1 19 cation
1 19 donor
1 2 acceptor
1 3 acceptor
1 4 acceptor
1 5 acceptor
1 5 donor
1 6 acceptor
1 7 acceptor
1 7 donor
1 8 acceptor
1 9 acceptor
1 9 donor
5 3 26 27 28 29 rings
6 20 21 22 23 24 25 rings
6 6 30 31 32 34 35 rings
6 8 33 36 37 39 40 rings

> <PUBCHEM_HEAVY_ATOM_COUNT>
42

> <PUBCHEM_ATOM_DEF_STEREO_COUNT>
19

> <PUBCHEM_ATOM_UDEF_STEREO_COUNT>
0

> <PUBCHEM_BOND_DEF_STEREO_COUNT>
0

> <PUBCHEM_BOND_UDEF_STEREO_COUNT>
0

> <PUBCHEM_ISOTOPIC_ATOM_COUNT>
0

> <PUBCHEM_COMPONENT_COUNT>
1

> <PUBCHEM_CACTVS_TAUTO_COUNT>
1

> <PUBCHEM_CONFORMER_ID>
02C08EFF00000001

> <PUBCHEM_MMFF94_ENERGY>
100.364

> <PUBCHEM_FEATURE_SELFOVERLAP>
182.834

> <PUBCHEM_SHAPE_FINGERPRINT>
11456790 92 18266164064843715227
11578080 2 16227159496079803147
12106331 60 18186803590806856598
12166972 35 18341615867327347733
131258 38 17616547154754377702
13560911 23 18187931741873233336
13560911 43 18060421274698115307
13782708 43 17313377972657409022
13811026 1 18272097062891455622
14068700 675 17895202069276743765
14118638 360 18186518796659345068
15328829 1 18266452115040771084
19319366 153 17331105105793894276
21223535 225 15051472504224513127
21639891 77 17822295712608318217
21703447 108 18336837377109078728
21756936 100 8214141845796624589
22223350 30 17534919480475592447
23559900 14 18199476471861337501
392239 28 16443069369774531433
469060 322 17603855690024823953
613672 6 17969207972317826031
77296 10 18130508543698186431

> <PUBCHEM_SHAPE_MULTIPOLES>
757.26
17.7
4.7
2.27
16.85
0.17
-0.72
12.22
2.77
-3.64
-2.58
-1.54
-0.71
-2.33

> <PUBCHEM_SHAPE_SELFOVERLAP>
1569.022

> <PUBCHEM_SHAPE_VOLUME>
425.6

> <PUBCHEM_COORDINATE_TYPE>
2
5
10

$$$$

