5281292
  -OEChem-07051212563D

 31 33  0     0  0  0  0  0  0999 V2000
    0.6134    0.2144    0.0958 O   0  0  0  0  0  0  0  0  0  0  0  0
    2.1735    2.6400    0.1671 O   0  0  0  0  0  0  0  0  0  0  0  0
    1.5996   -3.1774   -0.1510 O   0  0  0  0  0  0  0  0  0  0  0  0
    4.9464    2.3685    0.0196 O   0  0  0  0  0  0  0  0  0  0  0  0
   -4.5780    0.8501   -2.0168 O   0  0  0  0  0  0  0  0  0  0  0  0
   -5.6485    1.4271    0.4818 O   0  0  0  0  0  0  0  0  0  0  0  0
    2.5783   -0.9889   -0.0699 C   0  0  0  0  0  0  0  0  0  0  0  0
    1.9868    0.2688    0.0332 C   0  0  0  0  0  0  0  0  0  0  0  0
    0.2860   -1.1347    0.0310 C   0  0  0  0  0  0  0  0  0  0  0  0
    1.5039   -1.9736   -0.0767 C   0  0  0  0  0  0  0  0  0  0  0  0
    2.7499    1.4162    0.0659 C   0  0  0  0  0  0  0  0  0  0  0  0
    3.9440   -1.1617   -0.1450 C   0  0  0  0  0  0  0  0  0  0  0  0
   -0.9578   -1.6151    0.0646 C   0  0  0  0  0  0  0  0  0  0  0  0
   -2.1916   -0.8140    0.1710 C   0  0  0  0  0  0  0  0  0  0  0  0
    4.1388    1.2689   -0.0082 C   0  0  0  0  0  0  0  0  0  0  0  0
    4.7297   -0.0071   -0.1130 C   0  0  0  0  0  0  0  0  0  0  0  0
   -2.8047   -0.3587   -0.9841 C   0  0  0  0  0  0  0  0  0  0  0  0
   -2.7111   -0.5343    1.4237 C   0  0  0  0  0  0  0  0  0  0  0  0
   -3.9718    0.3986   -0.8835 C   0  0  0  0  0  0  0  0  0  0  0  0
   -3.8781    0.2232    1.5242 C   0  0  0  0  0  0  0  0  0  0  0  0
   -4.5085    0.6897    0.3706 C   0  0  0  0  0  0  0  0  0  0  0  0
    4.3954   -2.1434   -0.2250 H   0  0  0  0  0  0  0  0  0  0  0  0
   -1.1263   -2.6885    0.0113 H   0  0  0  0  0  0  0  0  0  0  0  0
    5.8113   -0.1061   -0.1701 H   0  0  0  0  0  0  0  0  0  0  0  0
   -2.3908   -0.5825   -1.9642 H   0  0  0  0  0  0  0  0  0  0  0  0
   -2.2291   -0.8925    2.3293 H   0  0  0  0  0  0  0  0  0  0  0  0
   -4.2855    0.4423    2.5076 H   0  0  0  0  0  0  0  0  0  0  0  0
    1.2082    2.5225    0.2056 H   0  0  0  0  0  0  0  0  0  0  0  0
    5.8739    2.0819   -0.0413 H   0  0  0  0  0  0  0  0  0  0  0  0
   -5.3692    1.3549   -1.7602 H   0  0  0  0  0  0  0  0  0  0  0  0
   -5.8704    1.5271    1.4235 H   0  0  0  0  0  0  0  0  0  0  0  0
  1  8  1  0  0  0  0
  1  9  1  0  0  0  0
  2 11  1  0  0  0  0
  2 28  1  0  0  0  0
  3 10  2  0  0  0  0
  4 15  1  0  0  0  0
  4 29  1  0  0  0  0
  5 19  1  0  0  0  0
  5 30  1  0  0  0  0
  6 21  1  0  0  0  0
  6 31  1  0  0  0  0
  7  8  2  0  0  0  0
  7 10  1  0  0  0  0
  7 12  1  0  0  0  0
  8 11  1  0  0  0  0
  9 10  1  0  0  0  0
  9 13  2  0  0  0  0
 11 15  2  0  0  0  0
 12 16  2  0  0  0  0
 12 22  1  0  0  0  0
 13 14  1  0  0  0  0
 13 23  1  0  0  0  0
 14 17  2  0  0  0  0
 14 18  1  0  0  0  0
 15 16  1  0  0  0  0
 16 24  1  0  0  0  0
 17 19  1  0  0  0  0
 17 25  1  0  0  0  0
 18 20  2  0  0  0  0
 18 26  1  0  0  0  0
 19 21  2  0  0  0  0
 20 21  1  0  0  0  0
 20 27  1  0  0  0  0
M  END
> <PUBCHEM_COMPOUND_CID>
5281292

> <PUBCHEM_CONFORMER_RMSD>
0.6

> <PUBCHEM_CONFORMER_DIVERSEORDER>
1
5
4
6
2
3

> <PUBCHEM_MMFF94_PARTIAL_CHARGES>
31
1 -0.16
10 0.47
11 0.08
12 -0.15
13 -0.18
14 0.03
15 0.08
16 -0.15
17 -0.15
18 -0.15
19 0.08
2 -0.53
20 -0.15
21 0.08
22 0.15
23 0.15
24 0.15
25 0.15
26 0.15
27 0.15
28 0.45
29 0.45
3 -0.57
30 0.45
31 0.45
4 -0.53
5 -0.53
6 -0.53
7 0.09
8 0.08
9 0.09

> <PUBCHEM_EFFECTIVE_ROTOR_COUNT>
1.2

> <PUBCHEM_PHARMACOPHORE_FEATURES>
9
1 1 acceptor
1 2 donor
1 3 acceptor
1 4 donor
1 5 donor
1 6 donor
5 1 7 8 9 10 rings
6 14 17 18 19 20 21 rings
6 7 8 11 12 15 16 rings

> <PUBCHEM_HEAVY_ATOM_COUNT>
21

> <PUBCHEM_ATOM_DEF_STEREO_COUNT>
0

> <PUBCHEM_ATOM_UDEF_STEREO_COUNT>
0

> <PUBCHEM_BOND_DEF_STEREO_COUNT>
1

> <PUBCHEM_BOND_UDEF_STEREO_COUNT>
0

> <PUBCHEM_ISOTOPIC_ATOM_COUNT>
0

> <PUBCHEM_COMPONENT_COUNT>
1

> <PUBCHEM_CACTVS_TAUTO_COUNT>
247

> <PUBCHEM_CONFORMER_ID>
0050960C00000001

> <PUBCHEM_MMFF94_ENERGY>
61.1513

> <PUBCHEM_FEATURE_SELFOVERLAP>
45.782

> <PUBCHEM_SHAPE_FINGERPRINT>
10411042 1 17761489596971985542
11089746 13 17385445389264553816
11471102 20 18409449206632220334
11543360 7 15213298586829534722
11796584 16 13984928680334879876
12236239 1 17603867845003713491
12403259 415 18271516529130960362
12730499 353 18342452664712196307
13402501 40 18131359634824335109
13583140 156 17917712387790382323
13675066 3 17846211150799005626
14790565 3 17837483056443606188
14848178 96 18261960618130132040
15081414 286 18411410696901257060
15196674 1 18409727327070576826
15375358 24 18131355228018655055
1601671 61 18272086051101977396
16988056 13 13784179009774951761
17870717 6 13984377773744133885
1813 80 17391621560267714550
18186145 218 18335129857120268046
19784866 34 18408323259322423522
19862831 5 17094959948596406459
20157964 124 18337107973381111611
20645477 56 18059852892117317107
20645477 70 18335980960455857870
21033648 144 18411144601653268229
21033648 29 17632301207055468477
21033650 10 15430853502240906546
21709351 56 18409168779385021606
22122407 14 18189317135182718137
231179 274 18272653450092676570
23402655 69 18187647972956003462
23559900 14 18334857242967511882
25 1 18411136926816008058
335352 9 18409727362184786974
34797466 226 14490478543070219896
4325135 7 18334012762503141167
474 4 18407757036393010627
5104073 3 18343585109922189514
602551 16 16199856285366822179
633830 44 18113883971105145334
8272917 22 18262233434104536238
9971528 1 17968377948518518958

> <PUBCHEM_SHAPE_MULTIPOLES>
396.95
11.39
2.34
1.08
4.53
0.19
-0.11
-6.13
-0.41
-2.58
-0.02
1.82
-0.13
0.35

> <PUBCHEM_SHAPE_SELFOVERLAP>
890.576

> <PUBCHEM_SHAPE_VOLUME>
210.5

> <PUBCHEM_COORDINATE_TYPE>
2
5
10

$$$$

