13929
  -OEChem-06241222413D

 30 31  0     1  0  0  0  0  0999 V2000
    6.4134    1.3011   -0.2728 Br  0  0  0  0  0  0  0  0  0  0  0  0
   -1.6007   -2.1387   -0.6578 O   0  0  0  0  0  0  0  0  0  0  0  0
    0.8787   -1.0209    0.2919 N   0  0  0  0  0  0  0  0  0  0  0  0
    3.2448   -1.3017    0.3223 N   0  0  0  0  0  0  0  0  0  0  0  0
   -1.6040   -1.0807    0.3100 C   0  0  1  0  0  0  0  0  0  0  0  0
   -0.3351   -0.2224    0.1370 C   0  0  0  0  0  0  0  0  0  0  0  0
   -2.8524   -0.2803    0.1510 C   0  0  0  0  0  0  0  0  0  0  0  0
   -3.4348    0.3314    1.2612 C   0  0  0  0  0  0  0  0  0  0  0  0
   -3.4375   -0.1429   -1.1078 C   0  0  0  0  0  0  0  0  0  0  0  0
    2.1447   -0.4971    0.1634 C   0  0  0  0  0  0  0  0  0  0  0  0
   -4.6022    1.0800    1.1128 C   0  0  0  0  0  0  0  0  0  0  0  0
   -4.6049    0.6060   -1.2562 C   0  0  0  0  0  0  0  0  0  0  0  0
   -5.1873    1.2175   -0.1458 C   0  0  0  0  0  0  0  0  0  0  0  0
    2.2830    0.8696   -0.1308 C   0  0  0  0  0  0  0  0  0  0  0  0
    3.5556    1.4139   -0.2628 C   0  0  0  0  0  0  0  0  0  0  0  0
    4.4656   -0.7370    0.1867 C   0  0  0  0  0  0  0  0  0  0  0  0
    4.6730    0.6021   -0.1024 C   0  0  0  0  0  0  0  0  0  0  0  0
   -1.5853   -1.5665    1.2936 H   0  0  0  0  0  0  0  0  0  0  0  0
   -0.3482    0.5894    0.8748 H   0  0  0  0  0  0  0  0  0  0  0  0
   -0.3458    0.2163   -0.8693 H   0  0  0  0  0  0  0  0  0  0  0  0
    0.7974   -2.0083    0.5039 H   0  0  0  0  0  0  0  0  0  0  0  0
   -2.9874    0.2334    2.2468 H   0  0  0  0  0  0  0  0  0  0  0  0
   -2.9981   -0.5959   -1.9923 H   0  0  0  0  0  0  0  0  0  0  0  0
   -2.3850   -2.6909   -0.4955 H   0  0  0  0  0  0  0  0  0  0  0  0
   -5.0553    1.5568    1.9771 H   0  0  0  0  0  0  0  0  0  0  0  0
   -5.0589    0.7161   -2.2367 H   0  0  0  0  0  0  0  0  0  0  0  0
   -6.0957    1.8014   -0.2616 H   0  0  0  0  0  0  0  0  0  0  0  0
    1.4364    1.5354   -0.2620 H   0  0  0  0  0  0  0  0  0  0  0  0
    3.6610    2.4714   -0.4903 H   0  0  0  0  0  0  0  0  0  0  0  0
    5.2951   -1.4240    0.3238 H   0  0  0  0  0  0  0  0  0  0  0  0
  1 17  1  0  0  0  0
  2  5  1  0  0  0  0
  2 24  1  0  0  0  0
  3  6  1  0  0  0  0
  3 10  1  0  0  0  0
  3 21  1  0  0  0  0
  4 10  2  0  0  0  0
  4 16  1  0  0  0  0
  5  6  1  0  0  0  0
  5  7  1  0  0  0  0
  5 18  1  0  0  0  0
  6 19  1  0  0  0  0
  6 20  1  0  0  0  0
  7  8  2  0  0  0  0
  7  9  1  0  0  0  0
  8 11  1  0  0  0  0
  8 22  1  0  0  0  0
  9 12  2  0  0  0  0
  9 23  1  0  0  0  0
 10 14  1  0  0  0  0
 11 13  2  0  0  0  0
 11 25  1  0  0  0  0
 12 13  1  0  0  0  0
 12 26  1  0  0  0  0
 13 27  1  0  0  0  0
 14 15  2  0  0  0  0
 14 28  1  0  0  0  0
 15 17  1  0  0  0  0
 15 29  1  0  0  0  0
 16 17  2  0  0  0  0
 16 30  1  0  0  0  0
M  END
> <PUBCHEM_COMPOUND_CID>
13929

> <PUBCHEM_CONFORMER_RMSD>
0.6

> <PUBCHEM_CONFORMER_DIVERSEORDER>
1
40
36
33
44
25
50
14
26
46
31
30
52
38
23
48
8
53
41
35
21
37
2
51
12
18
27
17
54
42
43
15
9
4
7
16
22
28
45
20
24
32
39
34
3
13
6
49
56
10
29
58
19
57
11
47
55
5

> <PUBCHEM_MMFF94_PARTIAL_CHARGES>
27
1 -0.11
10 0.41
11 -0.15
12 -0.15
13 -0.15
14 -0.15
15 -0.15
16 0.16
17 0.11
2 -0.68
21 0.4
22 0.15
23 0.15
24 0.4
25 0.15
26 0.15
27 0.15
28 0.15
29 0.15
3 -0.87
30 0.15
4 -0.62
5 0.42
6 0.37
7 -0.14
8 -0.15
9 -0.15

> <PUBCHEM_EFFECTIVE_ROTOR_COUNT>
4

> <PUBCHEM_PHARMACOPHORE_FEATURES>
7
1 1 hydrophobe
1 2 acceptor
1 2 donor
1 3 donor
3 3 4 10 cation
6 4 10 14 15 16 17 rings
6 7 8 9 11 12 13 rings

> <PUBCHEM_HEAVY_ATOM_COUNT>
17

> <PUBCHEM_ATOM_DEF_STEREO_COUNT>
0

> <PUBCHEM_ATOM_UDEF_STEREO_COUNT>
1

> <PUBCHEM_BOND_DEF_STEREO_COUNT>
0

> <PUBCHEM_BOND_UDEF_STEREO_COUNT>
0

> <PUBCHEM_ISOTOPIC_ATOM_COUNT>
0

> <PUBCHEM_COMPONENT_COUNT>
1

> <PUBCHEM_CACTVS_TAUTO_COUNT>
2

> <PUBCHEM_CONFORMER_ID>
0000366900000001

> <PUBCHEM_MMFF94_ENERGY>
50.73

> <PUBCHEM_FEATURE_SELFOVERLAP>
35.522

> <PUBCHEM_SHAPE_FINGERPRINT>
10014705 185 18342742892547010223
100836 57 18202560666396282388
11046707 91 11383829359970501563
11089746 13 17967536753382694840
12236239 1 18186803594874931106
12507557 5 18060132129073318033
13288520 33 9799693697043219089
13675066 3 17418371402375461951
1420 363 7493287759409222420
1420 369 9655578521451578889
14350574 20 7060379236606474952
14528608 73 17676492722437787856
14849402 71 12750937899159927078
15048467 5 18412825772734648084
15081414 286 18272645762597349148
15183329 4 18187076291692876110
15188451 53 14764055711101054761
15501527 16 18272650138472372780
15716309 27 10879995757254987436
167882 2 17677602232470420062
17780758 139 13183021813420314405
17857418 61 9727636085667484616
17870717 6 14851604375907406157
1813 80 9439118814422366611
18222031 100 5689594979376843218
193927 3 8646495158245063280
19489759 90 16370723742344896817
20281389 69 18202567267756014332
20300324 65 17095526201733008905
20432913 95 9295289451897952517
20645477 56 17989210330224739791
20645477 70 18411138082341844526
21033648 29 17845950583960806877
21033650 10 16661742493059695264
21150785 3 15791735166218931072
23198884 109 17748825211145778165
23402539 116 17748828535424130337
23402655 69 18408886209692465758
23559900 14 17168152200084820130
2916195 48 17775004557502424168
29717793 49 17676481779383084524
300161 21 18334298652225813888
3545911 37 18412260610345321370
4325135 7 18408322156354650535
5104073 3 18272656697541555898
542803 24 17967814954976874416
543368 44 18260830358467337473
5924683 9 17131542835404877139
633830 44 18188765188565996327
90127 26 17703789257784653796

> <PUBCHEM_SHAPE_MULTIPOLES>
339.96
14.61
1.56
1
7.85
0.26
0.02
-7.02
0.76
0.4
0.09
-1.37
-0.12
-0.54

> <PUBCHEM_SHAPE_SELFOVERLAP>
702.59

> <PUBCHEM_SHAPE_VOLUME>
198.1

> <PUBCHEM_COORDINATE_TYPE>
2
5
10

$$$$

