6924
  -OEChem-06261201353D

 20 20  0     0  0  0  0  0  0999 V2000
    1.7605    0.2292    0.1072 S   0  0  0  0  0  0  0  0  0  0  0  0
    2.1854    1.4872    0.7019 O   0  0  0  0  0  0  0  0  0  0  0  0
    2.2135   -1.0320    0.6740 O   0  0  0  0  0  0  0  0  0  0  0  0
    2.1344    0.2501   -1.5591 N   0  0  0  0  0  0  0  0  0  0  0  0
    0.0114    0.2124    0.0523 C   0  0  0  0  0  0  0  0  0  0  0  0
   -0.6992   -0.9873    0.0171 C   0  0  0  0  0  0  0  0  0  0  0  0
   -0.6720    1.4284    0.0438 C   0  0  0  0  0  0  0  0  0  0  0  0
   -2.0933   -0.9711   -0.0267 C   0  0  0  0  0  0  0  0  0  0  0  0
    0.0019   -2.3062    0.0248 C   0  0  0  0  0  0  0  0  0  0  0  0
   -2.0661    1.4446    0.0000 C   0  0  0  0  0  0  0  0  0  0  0  0
   -2.7768    0.2448   -0.0353 C   0  0  0  0  0  0  0  0  0  0  0  0
   -0.1420    2.3765    0.0628 H   0  0  0  0  0  0  0  0  0  0  0  0
   -2.6636   -1.8959   -0.0531 H   0  0  0  0  0  0  0  0  0  0  0  0
    0.7703   -2.3688   -0.7518 H   0  0  0  0  0  0  0  0  0  0  0  0
    0.4026   -2.5378    1.0161 H   0  0  0  0  0  0  0  0  0  0  0  0
   -0.7018   -3.1151   -0.2097 H   0  0  0  0  0  0  0  0  0  0  0  0
   -2.5985    2.3912   -0.0083 H   0  0  0  0  0  0  0  0  0  0  0  0
   -3.8622    0.2577   -0.0694 H   0  0  0  0  0  0  0  0  0  0  0  0
    2.5177    1.1187   -1.9514 H   0  0  0  0  0  0  0  0  0  0  0  0
    2.5339   -0.6029   -1.9691 H   0  0  0  0  0  0  0  0  0  0  0  0
  1  2  2  0  0  0  0
  1  3  2  0  0  0  0
  1  4  1  0  0  0  0
  1  5  1  0  0  0  0
  4 19  1  0  0  0  0
  4 20  1  0  0  0  0
  5  6  1  0  0  0  0
  5  7  2  0  0  0  0
  6  8  2  0  0  0  0
  6  9  1  0  0  0  0
  7 10  1  0  0  0  0
  7 12  1  0  0  0  0
  8 11  1  0  0  0  0
  8 13  1  0  0  0  0
  9 14  1  0  0  0  0
  9 15  1  0  0  0  0
  9 16  1  0  0  0  0
 10 11  2  0  0  0  0
 10 17  1  0  0  0  0
 11 18  1  0  0  0  0
M  END
> <PUBCHEM_COMPOUND_CID>
6924

> <PUBCHEM_CONFORMER_RMSD>
0.4

> <PUBCHEM_CONFORMER_DIVERSEORDER>
1
2

> <PUBCHEM_MMFF94_PARTIAL_CHARGES>
17
1 1.45
10 -0.15
11 -0.15
12 0.15
13 0.15
17 0.15
18 0.15
19 0.42
2 -0.65
20 0.42
3 -0.65
4 -0.98
5 -0.01
6 -0.14
7 -0.15
8 -0.15
9 0.14

> <PUBCHEM_EFFECTIVE_ROTOR_COUNT>
1

> <PUBCHEM_PHARMACOPHORE_FEATURES>
4
1 2 acceptor
1 3 acceptor
1 4 donor
6 5 6 7 8 10 11 rings

> <PUBCHEM_HEAVY_ATOM_COUNT>
11

> <PUBCHEM_ATOM_DEF_STEREO_COUNT>
0

> <PUBCHEM_ATOM_UDEF_STEREO_COUNT>
0

> <PUBCHEM_BOND_DEF_STEREO_COUNT>
0

> <PUBCHEM_BOND_UDEF_STEREO_COUNT>
0

> <PUBCHEM_ISOTOPIC_ATOM_COUNT>
0

> <PUBCHEM_COMPONENT_COUNT>
1

> <PUBCHEM_CACTVS_TAUTO_COUNT>
1

> <PUBCHEM_CONFORMER_ID>
00001B0C00000001

> <PUBCHEM_MMFF94_ENERGY>
13.8736

> <PUBCHEM_FEATURE_SELFOVERLAP>
20.315

> <PUBCHEM_SHAPE_FINGERPRINT>
12524768 44 18115865204931996981
12716758 59 18337097978406761902
12897270 3 18409730681487468829
14325111 11 18410579495847920457
15775835 57 18412822516584915888
16945 1 18263081170696559083
20645464 45 18113903714995835048
20645476 183 17917700258623273111
20871998 184 17899977131921505343
21028194 46 18343303707943772953
21040471 1 18412261726915446951
23552423 10 18200308969419374875
23559900 14 18116426128763752390
241688 4 16896802960682422243
2748010 2 18410577245305954933
369184 2 18336273374734896153
5084963 1 17846784052117538785
66348 1 18411419483886704217

> <PUBCHEM_SHAPE_MULTIPOLES>
213.5
3.6
1.94
0.85
0.03
0.6
0.23
-0.72
0.06
-0.12
-0.17
0.52
-0.07
-0.01

> <PUBCHEM_SHAPE_SELFOVERLAP>
430.684

> <PUBCHEM_SHAPE_VOLUME>
125.9

> <PUBCHEM_COORDINATE_TYPE>
2
5
10

$$$$

