91708
  -OEChem-07051213122D

 43 45  0     0  0  0  0  0  0999 V2000
    7.1962    2.0670    0.0000 Cl  0  0  0  0  0  0  0  0  0  0  0  0
    3.7320    2.0670    0.0000 Cl  0  0  0  0  0  0  0  0  0  0  0  0
    5.4641    5.0670    0.0000 Cl  0  0  0  0  0  0  0  0  0  0  0  0
    9.7942    5.5670    0.0000 F   0  0  0  0  0  0  0  0  0  0  0  0
    9.4282    4.2010    0.0000 F   0  0  0  0  0  0  0  0  0  0  0  0
    8.4282    5.9330    0.0000 F   0  0  0  0  0  0  0  0  0  0  0  0
    2.0000   -3.9330    0.0000 F   0  0  0  0  0  0  0  0  0  0  0  0
    5.4641   -3.9330    0.0000 F   0  0  0  0  0  0  0  0  0  0  0  0
    5.4641    3.0670    0.0000 O   0  0  0  0  0  0  0  0  0  0  0  0
    3.7320   -0.9330    0.0000 O   0  0  0  0  0  0  0  0  0  0  0  0
    2.8660   -2.4330    0.0000 O   0  0  0  0  0  0  0  0  0  0  0  0
    5.4641   -0.9330    0.0000 N   0  0  0  0  0  0  0  0  0  0  0  0
    4.5981   -2.4330    0.0000 N   0  0  0  0  0  0  0  0  0  0  0  0
    7.1962    3.0670    0.0000 N   0  0  0  0  0  0  0  0  0  0  0  0
    5.4641    0.0670    0.0000 C   0  0  0  0  0  0  0  0  0  0  0  0
    5.4641    2.0670    0.0000 C   0  0  0  0  0  0  0  0  0  0  0  0
    6.3301    0.5670    0.0000 C   0  0  0  0  0  0  0  0  0  0  0  0
    4.5981    0.5670    0.0000 C   0  0  0  0  0  0  0  0  0  0  0  0
    6.3301    1.5670    0.0000 C   0  0  0  0  0  0  0  0  0  0  0  0
    4.5981    1.5670    0.0000 C   0  0  0  0  0  0  0  0  0  0  0  0
    6.3301    3.5670    0.0000 C   0  0  0  0  0  0  0  0  0  0  0  0
    8.0622    4.5670    0.0000 C   0  0  0  0  0  0  0  0  0  0  0  0
    6.3301    4.5670    0.0000 C   0  0  0  0  0  0  0  0  0  0  0  0
    3.7320   -3.9330    0.0000 C   0  0  0  0  0  0  0  0  0  0  0  0
    7.1962    5.0670    0.0000 C   0  0  0  0  0  0  0  0  0  0  0  0
    4.5981   -1.4330    0.0000 C   0  0  0  0  0  0  0  0  0  0  0  0
    8.0622    3.5670    0.0000 C   0  0  0  0  0  0  0  0  0  0  0  0
    3.7320   -2.9330    0.0000 C   0  0  0  0  0  0  0  0  0  0  0  0
    8.9282    5.0670    0.0000 C   0  0  0  0  0  0  0  0  0  0  0  0
    2.8660   -4.4330    0.0000 C   0  0  0  0  0  0  0  0  0  0  0  0
    4.5981   -4.4330    0.0000 C   0  0  0  0  0  0  0  0  0  0  0  0
    2.8660   -5.4330    0.0000 C   0  0  0  0  0  0  0  0  0  0  0  0
    4.5981   -5.4330    0.0000 C   0  0  0  0  0  0  0  0  0  0  0  0
    3.7320   -5.9330    0.0000 C   0  0  0  0  0  0  0  0  0  0  0  0
    6.8671    0.2570    0.0000 H   0  0  0  0  0  0  0  0  0  0  0  0
    4.0611    0.2570    0.0000 H   0  0  0  0  0  0  0  0  0  0  0  0
    6.0010   -1.2430    0.0000 H   0  0  0  0  0  0  0  0  0  0  0  0
    7.1962    5.6870    0.0000 H   0  0  0  0  0  0  0  0  0  0  0  0
    8.5991    3.2570    0.0000 H   0  0  0  0  0  0  0  0  0  0  0  0
    5.1350   -2.7430    0.0000 H   0  0  0  0  0  0  0  0  0  0  0  0
    2.3291   -5.7430    0.0000 H   0  0  0  0  0  0  0  0  0  0  0  0
    5.1350   -5.7430    0.0000 H   0  0  0  0  0  0  0  0  0  0  0  0
    3.7320   -6.5530    0.0000 H   0  0  0  0  0  0  0  0  0  0  0  0
  1 19  1  0  0  0  0
  2 20  1  0  0  0  0
  3 23  1  0  0  0  0
  4 29  1  0  0  0  0
  5 29  1  0  0  0  0
  6 29  1  0  0  0  0
  7 30  1  0  0  0  0
  8 31  1  0  0  0  0
  9 16  1  0  0  0  0
  9 21  1  0  0  0  0
 10 26  2  0  0  0  0
 11 28  2  0  0  0  0
 12 15  1  0  0  0  0
 12 26  1  0  0  0  0
 12 37  1  0  0  0  0
 13 26  1  0  0  0  0
 13 28  1  0  0  0  0
 13 40  1  0  0  0  0
 14 21  1  0  0  0  0
 14 27  2  0  0  0  0
 15 17  2  0  0  0  0
 15 18  1  0  0  0  0
 16 19  2  0  0  0  0
 16 20  1  0  0  0  0
 17 19  1  0  0  0  0
 17 35  1  0  0  0  0
 18 20  2  0  0  0  0
 18 36  1  0  0  0  0
 21 23  2  0  0  0  0
 22 25  2  0  0  0  0
 22 27  1  0  0  0  0
 22 29  1  0  0  0  0
 23 25  1  0  0  0  0
 24 28  1  0  0  0  0
 24 30  2  0  0  0  0
 24 31  1  0  0  0  0
 25 38  1  0  0  0  0
 27 39  1  0  0  0  0
 30 32  1  0  0  0  0
 31 33  2  0  0  0  0
 32 34  2  0  0  0  0
 32 41  1  0  0  0  0
 33 34  1  0  0  0  0
 33 42  1  0  0  0  0
 34 43  1  0  0  0  0
M  END
> <PUBCHEM_COMPOUND_CID>
91708

> <PUBCHEM_COMPOUND_CANONICALIZED>
1

> <PUBCHEM_CACTVS_COMPLEXITY>
715

> <PUBCHEM_CACTVS_HBOND_ACCEPTOR>
9

> <PUBCHEM_CACTVS_HBOND_DONOR>
2

> <PUBCHEM_CACTVS_ROTATABLE_BOND>
4

> <PUBCHEM_CACTVS_SUBSKEYS>
AAADccB7McAGAAAAAAAAAAAAAAAAAAAAAAA8YIAAAAAAAAAB0AAAHwIQAAAADA7Bmjw9xpLIFACoAjV3VACCiCA1J2AI2CEsb9iMJvPFt5vOOSjs1TPI6Se42ACOAEAAAAKACAAAgAAABQAQAAAAAAAAAA==

> <PUBCHEM_IUPAC_OPENEYE_NAME>
N-[[3,5-dichloro-4-[[3-chloro-5-(trifluoromethyl)-2-pyridyl]oxy]phenyl]carbamoyl]-2,6-difluoro-benzamide

> <PUBCHEM_IUPAC_CAS_NAME>
N-[[3,5-dichloro-4-[[3-chloro-5-(trifluoromethyl)-2-pyridinyl]oxy]anilino]-oxomethyl]-2,6-difluorobenzamide

> <PUBCHEM_IUPAC_NAME>
N-[[3,5-dichloro-4-[3-chloro-5-(trifluoromethyl)pyridin-2-yl]oxyphenyl]carbamoyl]-2,6-difluorobenzamide

> <PUBCHEM_IUPAC_SYSTEMATIC_NAME>
N-[[3,5-bis(chloranyl)-4-[3-chloranyl-5-(trifluoromethyl)pyridin-2-yl]oxy-phenyl]carbamoyl]-2,6-bis(fluoranyl)benzamide

> <PUBCHEM_IUPAC_TRADITIONAL_NAME>
N-[[3,5-dichloro-4-[[3-chloro-5-(trifluoromethyl)-2-pyridyl]oxy]phenyl]carbamoyl]-2,6-difluoro-benzamide

> <PUBCHEM_IUPAC_INCHI>
InChI=1S/C20H9Cl3F5N3O3/c21-10-5-9(30-19(33)31-17(32)15-13(24)2-1-3-14(15)25)6-11(22)16(10)34-18-12(23)4-8(7-29-18)20(26,27)28/h1-7H,(H2,30,31,32,33)

> <PUBCHEM_IUPAC_INCHIKEY>
UISUNVFOGSJSKD-UHFFFAOYSA-N

> <PUBCHEM_XLOGP3_AA>
6.7

> <PUBCHEM_EXACT_MASS>
538.962965

> <PUBCHEM_MOLECULAR_FORMULA>
C20H9Cl3F5N3O3

> <PUBCHEM_MOLECULAR_WEIGHT>
540.654776

> <PUBCHEM_OPENEYE_CAN_SMILES>
C1=CC(=C(C(=C1)F)C(=O)NC(=O)NC2=CC(=C(C(=C2)Cl)OC3=C(C=C(C=N3)C(F)(F)F)Cl)Cl)F

> <PUBCHEM_OPENEYE_ISO_SMILES>
C1=CC(=C(C(=C1)F)C(=O)NC(=O)NC2=CC(=C(C(=C2)Cl)OC3=C(C=C(C=N3)C(F)(F)F)Cl)Cl)F

> <PUBCHEM_CACTVS_TPSA>
80.3

> <PUBCHEM_MONOISOTOPIC_WEIGHT>
538.962965

> <PUBCHEM_TOTAL_CHARGE>
0

> <PUBCHEM_HEAVY_ATOM_COUNT>
34

> <PUBCHEM_ATOM_DEF_STEREO_COUNT>
0

> <PUBCHEM_ATOM_UDEF_STEREO_COUNT>
0

> <PUBCHEM_BOND_DEF_STEREO_COUNT>
0

> <PUBCHEM_BOND_UDEF_STEREO_COUNT>
0

> <PUBCHEM_ISOTOPIC_ATOM_COUNT>
0

> <PUBCHEM_COMPONENT_COUNT>
1

> <PUBCHEM_CACTVS_TAUTO_COUNT>
5

> <PUBCHEM_COORDINATE_TYPE>
1
5
255

> <PUBCHEM_BONDANNOTATIONS>
14  21  8
14  27  8
15  17  8
15  18  8
16  19  8
16  20  8
17  19  8
18  20  8
21  23  8
22  25  8
22  27  8
23  25  8
24  30  8
24  31  8
30  32  8
31  33  8
32  34  8
33  34  8

$$$$

