656561
  -OEChem-07051212552D

 50 52  0     1  0  0  0  0  0999 V2000
    6.2781    0.0604    0.0000 S   0  0  0  0  0  0  0  0  0  0  0  0
    8.2816   -2.1725    0.0000 S   0  0  0  0  0  0  0  0  0  0  0  0
    5.9209    1.7552    0.0000 O   0  0  0  0  0  0  0  0  0  0  0  0
    2.9854    1.1366    0.0000 O   0  0  0  0  0  0  0  0  0  0  0  0
    3.6067    3.0376    0.0000 O   0  0  0  0  0  0  0  0  0  0  0  0
    4.3211   -0.3520    0.0000 O   0  0  0  0  0  0  0  0  0  0  0  0
    6.5422    3.6563    0.0000 O   0  0  0  0  0  0  0  0  0  0  0  0
    7.6138   -1.4282    0.0000 O   0  0  0  0  0  0  0  0  0  0  0  0
    2.8660   -0.8516    0.0000 O   0  0  0  0  0  0  0  0  0  0  0  0
    8.9495   -2.9168    0.0000 O   0  0  0  0  0  0  0  0  0  0  0  0
    7.5373   -2.8403    0.0000 O   0  0  0  0  0  0  0  0  0  0  0  0
    9.0259   -1.5046    0.0000 O   0  0  0  0  0  0  0  0  0  0  0  0
    4.6783   -3.6563    0.0000 N   0  0  0  0  0  0  0  0  0  0  0  0
    6.6353   -1.6344    0.0000 N   0  0  0  0  0  0  0  0  0  0  0  0
    3.9639    1.3428    0.0000 C   0  0  1  0  0  0  0  0  0  0  0  0
    4.2746    2.2933    0.0000 C   0  0  1  0  0  0  0  0  0  0  0  0
    4.6318    0.5985    0.0000 C   0  0  2  0  0  0  0  0  0  0  0  0
    5.2531    2.4996    0.0000 C   0  0  1  0  0  0  0  0  0  0  0  0
    5.6103    0.8047    0.0000 C   0  0  2  0  0  0  0  0  0  0  0  0
    5.5637    3.4501    0.0000 C   0  0  0  0  0  0  0  0  0  0  0  0
    5.9674   -0.8901    0.0000 C   0  0  0  0  0  0  0  0  0  0  0  0
    4.9889   -1.0963    0.0000 C   0  0  0  0  0  0  0  0  0  0  0  0
    4.6783   -2.0468    0.0000 C   0  0  0  0  0  0  0  0  0  0  0  0
    3.7320   -2.3516    0.0000 C   0  0  0  0  0  0  0  0  0  0  0  0
    3.7320   -3.3516    0.0000 C   0  0  0  0  0  0  0  0  0  0  0  0
    5.2619   -2.8516    0.0000 C   0  0  0  0  0  0  0  0  0  0  0  0
    2.8660   -1.8516    0.0000 C   0  0  0  0  0  0  0  0  0  0  0  0
    2.8660   -3.8516    0.0000 C   0  0  0  0  0  0  0  0  0  0  0  0
    2.0000   -2.3516    0.0000 C   0  0  0  0  0  0  0  0  0  0  0  0
    2.0000   -3.3516    0.0000 C   0  0  0  0  0  0  0  0  0  0  0  0
    3.5498    1.8043    0.0000 H   0  0  0  0  0  0  0  0  0  0  0  0
    4.4672    2.8827    0.0000 H   0  0  0  0  0  0  0  0  0  0  0  0
    4.0251    0.4707    0.0000 H   0  0  0  0  0  0  0  0  0  0  0  0
    5.8598    2.6274    0.0000 H   0  0  0  0  0  0  0  0  0  0  0  0
    5.4176    0.2154    0.0000 H   0  0  0  0  0  0  0  0  0  0  0  0
    5.5432    4.0697    0.0000 H   0  0  0  0  0  0  0  0  0  0  0  0
    4.9499    3.5374    0.0000 H   0  0  0  0  0  0  0  0  0  0  0  0
    2.5713    1.5981    0.0000 H   0  0  0  0  0  0  0  0  0  0  0  0
    3.7993    3.6270    0.0000 H   0  0  0  0  0  0  0  0  0  0  0  0
    3.7144   -0.4799    0.0000 H   0  0  0  0  0  0  0  0  0  0  0  0
    4.9684   -0.4766    0.0000 H   0  0  0  0  0  0  0  0  0  0  0  0
    4.3751   -1.0090    0.0000 H   0  0  0  0  0  0  0  0  0  0  0  0
    6.7349    4.2456    0.0000 H   0  0  0  0  0  0  0  0  0  0  0  0
    5.8819   -2.8516    0.0000 H   0  0  0  0  0  0  0  0  0  0  0  0
    4.8709   -4.2456    0.0000 H   0  0  0  0  0  0  0  0  0  0  0  0
    2.8660   -4.4716    0.0000 H   0  0  0  0  0  0  0  0  0  0  0  0
    1.4631   -2.0416    0.0000 H   0  0  0  0  0  0  0  0  0  0  0  0
    1.4631   -3.6616    0.0000 H   0  0  0  0  0  0  0  0  0  0  0  0
    2.3291   -0.5416    0.0000 H   0  0  0  0  0  0  0  0  0  0  0  0
    8.7569   -3.5061    0.0000 H   0  0  0  0  0  0  0  0  0  0  0  0
 19  1  1  1  0  0  0
  1 21  1  0  0  0  0
  2  8  1  0  0  0  0
  2 10  1  0  0  0  0
  2 11  2  0  0  0  0
  2 12  2  0  0  0  0
  3 18  1  0  0  0  0
  3 19  1  0  0  0  0
 15  4  1  1  0  0  0
  4 38  1  0  0  0  0
 16  5  1  6  0  0  0
  5 39  1  0  0  0  0
 17  6  1  6  0  0  0
  6 40  1  0  0  0  0
  7 20  1  0  0  0  0
  7 43  1  0  0  0  0
  8 14  1  0  0  0  0
  9 27  1  0  0  0  0
  9 49  1  0  0  0  0
 10 50  1  0  0  0  0
 13 25  1  0  0  0  0
 13 26  1  0  0  0  0
 13 45  1  0  0  0  0
 14 21  2  3  0  0  0
 15 16  1  0  0  0  0
 15 17  1  0  0  0  0
 15 31  1  0  0  0  0
 16 18  1  0  0  0  0
 16 32  1  0  0  0  0
 17 19  1  0  0  0  0
 17 33  1  0  0  0  0
 18 20  1  1  0  0  0
 18 34  1  0  0  0  0
 19 35  1  0  0  0  0
 20 36  1  0  0  0  0
 20 37  1  0  0  0  0
 21 22  1  0  0  0  0
 22 23  1  0  0  0  0
 22 41  1  0  0  0  0
 22 42  1  0  0  0  0
 23 24  1  0  0  0  0
 23 26  2  0  0  0  0
 24 25  2  0  0  0  0
 24 27  1  0  0  0  0
 25 28  1  0  0  0  0
 26 44  1  0  0  0  0
 27 29  2  0  0  0  0
 28 30  2  0  0  0  0
 28 46  1  0  0  0  0
 29 30  1  0  0  0  0
 29 47  1  0  0  0  0
 30 48  1  0  0  0  0
M  END
> <PUBCHEM_COMPOUND_CID>
656561

> <PUBCHEM_COMPOUND_CANONICALIZED>
1

> <PUBCHEM_CACTVS_COMPLEXITY>
717

> <PUBCHEM_CACTVS_HBOND_ACCEPTOR>
12

> <PUBCHEM_CACTVS_HBOND_DONOR>
7

> <PUBCHEM_CACTVS_ROTATABLE_BOND>
7

> <PUBCHEM_CACTVS_SUBSKEYS>
AAADceB7PABgAAAAAAAAAAAAAAAAAWAAAAA0QAAAAAAAAFgB8AAAHgQUCAAADBzl3ga8xvLZloigAzRnRDCCgCAxIjAI2aA+bJgJNuLikZOGcAhn0Bnr2Afw8OcOgAAAAgAKAAAAAAAEABQAAAAAAAAAAA==

> <PUBCHEM_IUPAC_OPENEYE_NAME>
[(2S,3R,4S,5S,6R)-3,4,5-trihydroxy-6-(hydroxymethyl)tetrahydropyran-2-yl] 2-(4-hydroxy-1H-indol-3-yl)-N-sulfooxy-ethanimidothioate

> <PUBCHEM_IUPAC_CAS_NAME>
2-(4-hydroxy-1H-indol-3-yl)-N-sulfooxyethanimidothioic acid [(2S,3R,4S,5S,6R)-3,4,5-trihydroxy-6-(hydroxymethyl)-2-oxanyl] ester

> <PUBCHEM_IUPAC_NAME>
[(2S,3R,4S,5S,6R)-3,4,5-trihydroxy-6-(hydroxymethyl)oxan-2-yl] 2-(4-hydroxy-1H-indol-3-yl)-N-sulfooxyethanimidothioate

> <PUBCHEM_IUPAC_SYSTEMATIC_NAME>
[(2S,3R,4S,5S,6R)-6-(hydroxymethyl)-3,4,5-tris(oxidanyl)oxan-2-yl] 2-(4-oxidanyl-1H-indol-3-yl)-N-sulfooxy-ethanimidothioate

> <PUBCHEM_IUPAC_TRADITIONAL_NAME>
2-(4-hydroxy-1H-indol-3-yl)-N-sulfoxy-thioacetimidic acid [(2S,3R,4S,5S,6R)-3,4,5-trihydroxy-6-methylol-tetrahydropyran-2-yl] ester

> <PUBCHEM_IUPAC_INCHI>
InChI=1S/C16H20N2O10S2/c19-6-10-13(21)14(22)15(23)16(27-10)29-11(18-28-30(24,25)26)4-7-5-17-8-2-1-3-9(20)12(7)8/h1-3,5,10,13-17,19-23H,4,6H2,(H,24,25,26)/t10-,13-,14+,15-,16+/m1/s1

> <PUBCHEM_IUPAC_INCHIKEY>
CSMYCLLHRFFFLG-IRHMCKRBSA-N

> <PUBCHEM_XLOGP3_AA>
-0.4

> <PUBCHEM_EXACT_MASS>
464.055937

> <PUBCHEM_MOLECULAR_FORMULA>
C16H20N2O10S2

> <PUBCHEM_MOLECULAR_WEIGHT>
464.4674

> <PUBCHEM_OPENEYE_CAN_SMILES>
C1=CC2=C(C(=C1)O)C(=CN2)CC(=NOS(=O)(=O)O)SC3C(C(C(C(O3)CO)O)O)O

> <PUBCHEM_OPENEYE_ISO_SMILES>
C1=CC2=C(C(=C1)O)C(=CN2)CC(=NOS(=O)(=O)O)S[C@H]3[C@@H]([C@H]([C@@H]([C@H](O3)CO)O)O)O

> <PUBCHEM_CACTVS_TPSA>
236

> <PUBCHEM_MONOISOTOPIC_WEIGHT>
464.055937

> <PUBCHEM_TOTAL_CHARGE>
0

> <PUBCHEM_HEAVY_ATOM_COUNT>
30

> <PUBCHEM_ATOM_DEF_STEREO_COUNT>
5

> <PUBCHEM_ATOM_UDEF_STEREO_COUNT>
0

> <PUBCHEM_BOND_DEF_STEREO_COUNT>
0

> <PUBCHEM_BOND_UDEF_STEREO_COUNT>
1

> <PUBCHEM_ISOTOPIC_ATOM_COUNT>
0

> <PUBCHEM_COMPONENT_COUNT>
1

> <PUBCHEM_CACTVS_TAUTO_COUNT>
27

> <PUBCHEM_COORDINATE_TYPE>
1
5
255

> <PUBCHEM_BONDANNOTATIONS>
19  1  5
13  25  8
13  26  8
14  21  1
18  20  5
23  24  8
23  26  8
24  25  8
24  27  8
25  28  8
27  29  8
28  30  8
29  30  8
15  4  5
16  5  6
17  6  6

$$$$

