5281857
  -OEChem-07051213002D

 40 40  0     0  0  0  0  0  0999 V2000
    2.5369   -1.6900    0.0000 O   0  0  0  0  0  0  0  0  0  0  0  0
    6.0010   -3.6900    0.0000 O   0  0  0  0  0  0  0  0  0  0  0  0
    6.0010    1.3100    0.0000 C   0  0  0  0  0  0  0  0  0  0  0  0
    5.1350    0.8100    0.0000 C   0  0  0  0  0  0  0  0  0  0  0  0
    6.0010    2.3100    0.0000 C   0  0  0  0  0  0  0  0  0  0  0  0
    4.2690   -0.6900    0.0000 C   0  0  0  0  0  0  0  0  0  0  0  0
    5.1350   -0.1900    0.0000 C   0  0  0  0  0  0  0  0  0  0  0  0
    4.2690   -1.6900    0.0000 C   0  0  0  0  0  0  0  0  0  0  0  0
    6.8671    2.8100    0.0000 C   0  0  0  0  0  0  0  0  0  0  0  0
    4.2690    1.3100    0.0000 C   0  0  0  0  0  0  0  0  0  0  0  0
    6.8671    3.8100    0.0000 C   0  0  0  0  0  0  0  0  0  0  0  0
    3.4030   -2.1900    0.0000 C   0  0  0  0  0  0  0  0  0  0  0  0
    5.1350   -2.1900    0.0000 C   0  0  0  0  0  0  0  0  0  0  0  0
    5.1350   -3.1900    0.0000 C   0  0  0  0  0  0  0  0  0  0  0  0
    3.4030   -3.1900    0.0000 C   0  0  0  0  0  0  0  0  0  0  0  0
    7.7331    4.3100    0.0000 C   0  0  0  0  0  0  0  0  0  0  0  0
    6.0010    4.3100    0.0000 C   0  0  0  0  0  0  0  0  0  0  0  0
    4.2690   -3.6900    0.0000 C   0  0  0  0  0  0  0  0  0  0  0  0
    6.2131    0.7274    0.0000 H   0  0  0  0  0  0  0  0  0  0  0  0
    6.6116    1.4177    0.0000 H   0  0  0  0  0  0  0  0  0  0  0  0
    5.7890    2.8926    0.0000 H   0  0  0  0  0  0  0  0  0  0  0  0
    5.3905    2.2023    0.0000 H   0  0  0  0  0  0  0  0  0  0  0  0
    4.0569   -0.1074    0.0000 H   0  0  0  0  0  0  0  0  0  0  0  0
    3.6584   -0.7977    0.0000 H   0  0  0  0  0  0  0  0  0  0  0  0
    5.6720   -0.5000    0.0000 H   0  0  0  0  0  0  0  0  0  0  0  0
    7.4040    2.5000    0.0000 H   0  0  0  0  0  0  0  0  0  0  0  0
    4.5790    1.8469    0.0000 H   0  0  0  0  0  0  0  0  0  0  0  0
    3.7320    1.6200    0.0000 H   0  0  0  0  0  0  0  0  0  0  0  0
    3.9590    0.7731    0.0000 H   0  0  0  0  0  0  0  0  0  0  0  0
    5.6720   -1.8800    0.0000 H   0  0  0  0  0  0  0  0  0  0  0  0
    2.8660   -3.5000    0.0000 H   0  0  0  0  0  0  0  0  0  0  0  0
    6.3110    4.8469    0.0000 H   0  0  0  0  0  0  0  0  0  0  0  0
    5.4641    4.6200    0.0000 H   0  0  0  0  0  0  0  0  0  0  0  0
    5.6910    3.7731    0.0000 H   0  0  0  0  0  0  0  0  0  0  0  0
    8.0431    3.7731    0.0000 H   0  0  0  0  0  0  0  0  0  0  0  0
    8.2700    4.6200    0.0000 H   0  0  0  0  0  0  0  0  0  0  0  0
    7.4231    4.8469    0.0000 H   0  0  0  0  0  0  0  0  0  0  0  0
    4.2690   -4.3100    0.0000 H   0  0  0  0  0  0  0  0  0  0  0  0
    2.0000   -2.0000    0.0000 H   0  0  0  0  0  0  0  0  0  0  0  0
    6.0010   -4.3100    0.0000 H   0  0  0  0  0  0  0  0  0  0  0  0
  1 12  1  0  0  0  0
  1 39  1  0  0  0  0
  2 14  1  0  0  0  0
  2 40  1  0  0  0  0
  3  4  1  0  0  0  0
  3  5  1  0  0  0  0
  3 19  1  0  0  0  0
  3 20  1  0  0  0  0
  4  7  2  0  0  0  0
  4 10  1  0  0  0  0
  5  9  1  0  0  0  0
  5 21  1  0  0  0  0
  5 22  1  0  0  0  0
  6  7  1  0  0  0  0
  6  8  1  0  0  0  0
  6 23  1  0  0  0  0
  6 24  1  0  0  0  0
  7 25  1  0  0  0  0
  8 12  2  0  0  0  0
  8 13  1  0  0  0  0
  9 11  2  0  0  0  0
  9 26  1  0  0  0  0
 10 27  1  0  0  0  0
 10 28  1  0  0  0  0
 10 29  1  0  0  0  0
 11 16  1  0  0  0  0
 11 17  1  0  0  0  0
 12 15  1  0  0  0  0
 13 14  2  0  0  0  0
 13 30  1  0  0  0  0
 14 18  1  0  0  0  0
 15 18  2  0  0  0  0
 15 31  1  0  0  0  0
 16 35  1  0  0  0  0
 16 36  1  0  0  0  0
 16 37  1  0  0  0  0
 17 32  1  0  0  0  0
 17 33  1  0  0  0  0
 17 34  1  0  0  0  0
 18 38  1  0  0  0  0
M  END
> <PUBCHEM_COMPOUND_CID>
5281857

> <PUBCHEM_COMPOUND_CANONICALIZED>
1

> <PUBCHEM_CACTVS_COMPLEXITY>
300

> <PUBCHEM_CACTVS_HBOND_ACCEPTOR>
2

> <PUBCHEM_CACTVS_HBOND_DONOR>
2

> <PUBCHEM_CACTVS_ROTATABLE_BOND>
5

> <PUBCHEM_CACTVS_SUBSKEYS>
AAADceB4MAAAAAAAAAAAAAAAAAAAAAAAAAAwAAAAAAAAAAABAAAAGgAACAAADASAmAAyBoAAAgCAAiBCAAACAAAgIAAIiAAGCIgIJiKCERKAcAAkwBEImAfAwLAOAQABAAAIAAACAAIAABAAAAAAAAAAAA==

> <PUBCHEM_IUPAC_OPENEYE_NAME>
2-[(2E)-3,7-dimethylocta-2,6-dienyl]benzene-1,4-diol

> <PUBCHEM_IUPAC_CAS_NAME>
2-[(2E)-3,7-dimethylocta-2,6-dienyl]benzene-1,4-diol

> <PUBCHEM_IUPAC_NAME>
2-[(2E)-3,7-dimethylocta-2,6-dienyl]benzene-1,4-diol

> <PUBCHEM_IUPAC_SYSTEMATIC_NAME>
2-[(2E)-3,7-dimethylocta-2,6-dienyl]benzene-1,4-diol

> <PUBCHEM_IUPAC_TRADITIONAL_NAME>
2-[(2E)-3,7-dimethylocta-2,6-dienyl]hydroquinone

> <PUBCHEM_IUPAC_INCHI>
InChI=1S/C16H22O2/c1-12(2)5-4-6-13(3)7-8-14-11-15(17)9-10-16(14)18/h5,7,9-11,17-18H,4,6,8H2,1-3H3/b13-7+

> <PUBCHEM_IUPAC_INCHIKEY>
ZSCRTFONTNMQBL-NTUHNPAUSA-N

> <PUBCHEM_XLOGP3_AA>
5

> <PUBCHEM_EXACT_MASS>
246.16198

> <PUBCHEM_MOLECULAR_FORMULA>
C16H22O2

> <PUBCHEM_MOLECULAR_WEIGHT>
246.34468

> <PUBCHEM_OPENEYE_CAN_SMILES>
CC(=CCCC(=CCC1=C(C=CC(=C1)O)O)C)C

> <PUBCHEM_OPENEYE_ISO_SMILES>
CC(=CCC/C(=C/CC1=C(C=CC(=C1)O)O)/C)C

> <PUBCHEM_CACTVS_TPSA>
40.5

> <PUBCHEM_MONOISOTOPIC_WEIGHT>
246.16198

> <PUBCHEM_TOTAL_CHARGE>
0

> <PUBCHEM_HEAVY_ATOM_COUNT>
18

> <PUBCHEM_ATOM_DEF_STEREO_COUNT>
0

> <PUBCHEM_ATOM_UDEF_STEREO_COUNT>
0

> <PUBCHEM_BOND_DEF_STEREO_COUNT>
1

> <PUBCHEM_BOND_UDEF_STEREO_COUNT>
0

> <PUBCHEM_ISOTOPIC_ATOM_COUNT>
0

> <PUBCHEM_COMPONENT_COUNT>
1

> <PUBCHEM_CACTVS_TAUTO_COUNT>
67

> <PUBCHEM_COORDINATE_TYPE>
1
5
255

> <PUBCHEM_BONDANNOTATIONS>
12  15  8
13  14  8
14  18  8
15  18  8
8  12  8
8  13  8

$$$$

