854022
  -OEChem-06241222462D

 21 22  0     1  0  0  0  0  0999 V2000
    3.4030   -2.0000    0.0000 O   0  0  0  0  0  0  0  0  0  0  0  0
    3.4030    2.0000    0.0000 O   0  0  0  0  0  0  0  0  0  0  0  0
    4.2690    0.5000    0.0000 N   0  0  0  0  0  0  0  0  0  0  0  0
    2.5369   -0.5000    0.0000 N   0  0  0  0  0  0  0  0  0  0  0  0
    4.2690   -0.5000    0.0000 C   0  0  2  0  0  0  0  0  0  0  0  0
    5.2152   -0.8047    0.0000 C   0  0  0  0  0  0  0  0  0  0  0  0
    5.7988    0.0000    0.0000 C   0  0  0  0  0  0  0  0  0  0  0  0
    5.2152    0.8047    0.0000 C   0  0  0  0  0  0  0  0  0  0  0  0
    3.4030   -1.0000    0.0000 C   0  0  0  0  0  0  0  0  0  0  0  0
    3.4030    1.0000    0.0000 C   0  0  0  0  0  0  0  0  0  0  0  0
    2.5369    0.5000    0.0000 C   0  0  0  0  0  0  0  0  0  0  0  0
    4.3589   -1.3452    0.0000 H   0  0  0  0  0  0  0  0  0  0  0  0
    4.9642   -1.3716    0.0000 H   0  0  0  0  0  0  0  0  0  0  0  0
    5.7526   -1.1140    0.0000 H   0  0  0  0  0  0  0  0  0  0  0  0
    6.2597   -0.4147    0.0000 H   0  0  0  0  0  0  0  0  0  0  0  0
    6.2597    0.4147    0.0000 H   0  0  0  0  0  0  0  0  0  0  0  0
    5.7526    1.1140    0.0000 H   0  0  0  0  0  0  0  0  0  0  0  0
    4.9642    1.3716    0.0000 H   0  0  0  0  0  0  0  0  0  0  0  0
    2.3249    1.0826    0.0000 H   0  0  0  0  0  0  0  0  0  0  0  0
    1.9264    0.3923    0.0000 H   0  0  0  0  0  0  0  0  0  0  0  0
    2.0000   -0.8100    0.0000 H   0  0  0  0  0  0  0  0  0  0  0  0
  1  9  2  0  0  0  0
  2 10  2  0  0  0  0
  3  5  1  0  0  0  0
  3  8  1  0  0  0  0
  3 10  1  0  0  0  0
  4  9  1  0  0  0  0
  4 11  1  0  0  0  0
  4 21  1  0  0  0  0
  5  6  1  0  0  0  0
  5  9  1  0  0  0  0
  5 12  1  1  0  0  0
  6  7  1  0  0  0  0
  6 13  1  0  0  0  0
  6 14  1  0  0  0  0
  7  8  1  0  0  0  0
  7 15  1  0  0  0  0
  7 16  1  0  0  0  0
  8 17  1  0  0  0  0
  8 18  1  0  0  0  0
 10 11  1  0  0  0  0
 11 19  1  0  0  0  0
 11 20  1  0  0  0  0
M  END
> <PUBCHEM_COMPOUND_CID>
854022

> <PUBCHEM_COMPOUND_CANONICALIZED>
1

> <PUBCHEM_CACTVS_COMPLEXITY>
215

> <PUBCHEM_CACTVS_HBOND_ACCEPTOR>
2

> <PUBCHEM_CACTVS_HBOND_DONOR>
1

> <PUBCHEM_CACTVS_ROTATABLE_BOND>
0

> <PUBCHEM_CACTVS_SUBSKEYS>
AAADccBjMAAAAAAAAAAAAAAAAAAAAWAAAAAsAAAAAAAAAFgAAAAAHgAQAAAACCjBgAQAAAPAAAAIAAEQEAAAAAAAAAAAAIGIAAAAQBIAgCAUAAAAFgCAAAAYAQAAAAAAAAAAAAAAAAAAAAAAAAAAAAAAAA==

> <PUBCHEM_IUPAC_OPENEYE_NAME>
(8aR)-2,3,6,7,8,8a-hexahydropyrrolo[1,2-a]pyrazine-1,4-dione

> <PUBCHEM_IUPAC_CAS_NAME>
(8aR)-2,3,6,7,8,8a-hexahydropyrrolo[1,2-a]pyrazine-1,4-dione

> <PUBCHEM_IUPAC_NAME>
(8aR)-2,3,6,7,8,8a-hexahydropyrrolo[1,2-a]pyrazine-1,4-dione

> <PUBCHEM_IUPAC_SYSTEMATIC_NAME>
(8aR)-2,3,6,7,8,8a-hexahydropyrrolo[1,2-a]pyrazine-1,4-dione

> <PUBCHEM_IUPAC_TRADITIONAL_NAME>
(8aR)-2,3,6,7,8,8a-hexahydropyrrolo[1,2-a]pyrazine-1,4-quinone

> <PUBCHEM_IUPAC_INCHI>
InChI=1S/C7H10N2O2/c10-6-4-8-7(11)5-2-1-3-9(5)6/h5H,1-4H2,(H,8,11)/t5-/m1/s1

> <PUBCHEM_IUPAC_INCHIKEY>
OWOHLURDBZHNGG-RXMQYKEDSA-N

> <PUBCHEM_XLOGP3_AA>
-0.6

> <PUBCHEM_EXACT_MASS>
154.074228

> <PUBCHEM_MOLECULAR_FORMULA>
C7H10N2O2

> <PUBCHEM_MOLECULAR_WEIGHT>
154.1665

> <PUBCHEM_OPENEYE_CAN_SMILES>
C1CC2C(=O)NCC(=O)N2C1

> <PUBCHEM_OPENEYE_ISO_SMILES>
C1C[C@@H]2C(=O)NCC(=O)N2C1

> <PUBCHEM_CACTVS_TPSA>
49.4

> <PUBCHEM_MONOISOTOPIC_WEIGHT>
154.074228

> <PUBCHEM_TOTAL_CHARGE>
0

> <PUBCHEM_HEAVY_ATOM_COUNT>
11

> <PUBCHEM_ATOM_DEF_STEREO_COUNT>
1

> <PUBCHEM_ATOM_UDEF_STEREO_COUNT>
0

> <PUBCHEM_BOND_DEF_STEREO_COUNT>
0

> <PUBCHEM_BOND_UDEF_STEREO_COUNT>
0

> <PUBCHEM_ISOTOPIC_ATOM_COUNT>
0

> <PUBCHEM_COMPONENT_COUNT>
1

> <PUBCHEM_CACTVS_TAUTO_COUNT>
6

> <PUBCHEM_COORDINATE_TYPE>
1
5
255

> <PUBCHEM_BONDANNOTATIONS>
5  12  5

$$$$

