443067
  -OEChem-07051213013D

 33 33  0     1  0  0  0  0  0999 V2000
   -0.9069    1.6142    0.0162 O   0  0  0  0  0  0  0  0  0  0  0  0
   -2.3973   -0.3100   -1.2454 O   0  0  0  0  0  0  0  0  0  0  0  0
   -0.2370   -0.3622    0.9516 O   0  0  0  0  0  0  0  0  0  0  0  0
   -3.6502   -0.5658    0.6913 N   0  0  0  0  0  0  0  0  0  0  0  0
    1.2543    1.0316   -0.1945 N   0  0  0  0  0  0  0  0  0  0  0  0
   -2.2284    1.3796    0.4736 C   0  0  2  0  0  0  0  0  0  0  0  0
   -2.7457    0.0837   -0.1345 C   0  0  0  0  0  0  0  0  0  0  0  0
   -3.0912    2.5618    0.0617 C   0  0  0  0  0  0  0  0  0  0  0  0
   -4.2907   -1.8048    0.3172 C   0  0  0  0  0  0  0  0  0  0  0  0
    2.4841    0.3396   -0.1134 C   0  0  0  0  0  0  0  0  0  0  0  0
   -3.8448   -2.2680   -1.0543 C   0  0  0  0  0  0  0  0  0  0  0  0
    0.0296    0.6530    0.3201 C   0  0  0  0  0  0  0  0  0  0  0  0
    3.6129    0.8896   -0.6998 C   0  0  0  0  0  0  0  0  0  0  0  0
    2.5375   -0.8752    0.5516 C   0  0  0  0  0  0  0  0  0  0  0  0
    4.8267    0.2070   -0.6196 C   0  0  0  0  0  0  0  0  0  0  0  0
    3.7514   -1.5577    0.6320 C   0  0  0  0  0  0  0  0  0  0  0  0
    4.8959   -1.0165    0.0463 C   0  0  0  0  0  0  0  0  0  0  0  0
   -2.2160    1.3122    1.5685 H   0  0  0  0  0  0  0  0  0  0  0  0
   -4.1247    2.4377    0.3998 H   0  0  0  0  0  0  0  0  0  0  0  0
   -3.1012    2.6775   -1.0281 H   0  0  0  0  0  0  0  0  0  0  0  0
   -2.6924    3.4932    0.4773 H   0  0  0  0  0  0  0  0  0  0  0  0
   -4.0430   -2.5488    1.0805 H   0  0  0  0  0  0  0  0  0  0  0  0
   -5.3720   -1.6384    0.3406 H   0  0  0  0  0  0  0  0  0  0  0  0
   -3.8883   -0.1623    1.5923 H   0  0  0  0  0  0  0  0  0  0  0  0
   -4.1438   -1.5865   -1.8576 H   0  0  0  0  0  0  0  0  0  0  0  0
   -2.7802   -2.5202   -1.0987 H   0  0  0  0  0  0  0  0  0  0  0  0
   -4.3661   -3.2087   -1.2751 H   0  0  0  0  0  0  0  0  0  0  0  0
    1.2765    1.9173   -0.6941 H   0  0  0  0  0  0  0  0  0  0  0  0
    3.5701    1.8421   -1.2209 H   0  0  0  0  0  0  0  0  0  0  0  0
    1.6960   -1.3563    1.0286 H   0  0  0  0  0  0  0  0  0  0  0  0
    5.7179    0.6283   -1.0755 H   0  0  0  0  0  0  0  0  0  0  0  0
    3.8068   -2.5107    1.1503 H   0  0  0  0  0  0  0  0  0  0  0  0
    5.8410   -1.5480    0.1089 H   0  0  0  0  0  0  0  0  0  0  0  0
  1  6  1  0  0  0  0
  1 12  1  0  0  0  0
  2  7  2  0  0  0  0
  3 12  2  0  0  0  0
  4  7  1  0  0  0  0
  4  9  1  0  0  0  0
  4 24  1  0  0  0  0
  5 10  1  0  0  0  0
  5 12  1  0  0  0  0
  5 28  1  0  0  0  0
  6  7  1  0  0  0  0
  6  8  1  0  0  0  0
  6 18  1  0  0  0  0
  8 19  1  0  0  0  0
  8 20  1  0  0  0  0
  8 21  1  0  0  0  0
  9 11  1  0  0  0  0
  9 22  1  0  0  0  0
  9 23  1  0  0  0  0
 10 13  2  0  0  0  0
 10 14  1  0  0  0  0
 11 25  1  0  0  0  0
 11 26  1  0  0  0  0
 11 27  1  0  0  0  0
 13 15  1  0  0  0  0
 13 29  1  0  0  0  0
 14 16  2  0  0  0  0
 14 30  1  0  0  0  0
 15 17  2  0  0  0  0
 15 31  1  0  0  0  0
 16 17  1  0  0  0  0
 16 32  1  0  0  0  0
 17 33  1  0  0  0  0
M  END
> <PUBCHEM_COMPOUND_CID>
443067

> <PUBCHEM_CONFORMER_RMSD>
0.8

> <PUBCHEM_CONFORMER_DIVERSEORDER>
1
18
4
24
28
27
20
12
26
2
15
29
8
5
19
7
21
23
9
17
16
31
34
13
14
32
35
30
11
3
33
10
25
6
22

> <PUBCHEM_MMFF94_PARTIAL_CHARGES>
22
1 -0.43
10 0.12
12 0.78
13 -0.15
14 -0.15
15 -0.15
16 -0.15
17 -0.15
2 -0.57
24 0.37
28 0.37
29 0.15
3 -0.57
30 0.15
31 0.15
32 0.15
33 0.15
4 -0.73
5 -0.55
6 0.34
7 0.57
9 0.3

> <PUBCHEM_EFFECTIVE_ROTOR_COUNT>
7

> <PUBCHEM_PHARMACOPHORE_FEATURES>
5
1 2 acceptor
1 3 acceptor
1 4 donor
1 5 donor
6 10 13 14 15 16 17 rings

> <PUBCHEM_HEAVY_ATOM_COUNT>
17

> <PUBCHEM_ATOM_DEF_STEREO_COUNT>
1

> <PUBCHEM_ATOM_UDEF_STEREO_COUNT>
0

> <PUBCHEM_BOND_DEF_STEREO_COUNT>
0

> <PUBCHEM_BOND_UDEF_STEREO_COUNT>
0

> <PUBCHEM_ISOTOPIC_ATOM_COUNT>
0

> <PUBCHEM_COMPONENT_COUNT>
1

> <PUBCHEM_CACTVS_TAUTO_COUNT>
4

> <PUBCHEM_CONFORMER_ID>
0006C2BB00000001

> <PUBCHEM_MMFF94_ENERGY>
45.2655

> <PUBCHEM_FEATURE_SELFOVERLAP>
25.372

> <PUBCHEM_SHAPE_FINGERPRINT>
10062212 137 18341899652880068210
10616163 171 18409448123947332679
11045515 52 17989490693211694277
11046707 91 18187083919291101271
11552529 35 4822345364103508188
11806522 49 18342738494785283720
12553582 1 18335991848472123223
12714826 92 17894351081504305329
13103583 49 17971168380307773635
13167823 11 18412261761660378634
13583140 156 17677067831406603464
13760787 19 18341046423446444152
14251751 93 18336549403640633351
14576447 43 18342176640138343118
15196674 1 18341891931024741946
15239191 94 18334014986351733922
17492 89 18338795718918647218
17834072 33 18341608214222808876
18186145 218 16773790437681085344
18915474 69 18340487772660457590
19422 9 18342174492274776500
200 152 18272650125576791546
20261772 1 17822292336220353358
20279233 1 16371016255614651908
20281475 54 18342180011534468922
20291156 8 18409451345304140861
20645477 70 17560798875216969954
21054139 6 18343584015317594262
21709351 56 18060418049646810908
22646028 1 18412545418459272754
22646028 28 18413108368249326170
23402539 116 18272370871113971150
23402655 69 18200591527091828140
235170 7 16558481811166247887
23559900 14 18336558139451327649
23598288 3 18186520999387017021
27216 239 8070032198845362631
2871803 45 18201726128074859259
312423 11 18340193116365902996
3268164 11 15841559578101128631
351380 3 18336826390598273487
4214541 1 18340204193086552736
4259306 186 18341619157536137855
465052 167 18189609437545147463
5104073 3 18409169943700844024
559249 180 18196941178267247403
573450 72 18340210794635675960
602551 16 17095809819745803126
633830 44 16916776457216637864
76465 3 18335145254156063503
77779 3 18340764931474539072
90127 26 15647337485090077016
9709674 26 18271232907129804170

> <PUBCHEM_SHAPE_MULTIPOLES>
322.28
10.69
2.22
0.93
4.66
0.12
-0.1
-4.38
-1.01
-2.78
-0.11
-0.21
-0.22
-1.05

> <PUBCHEM_SHAPE_SELFOVERLAP>
659.177

> <PUBCHEM_SHAPE_VOLUME>
185.4

> <PUBCHEM_COORDINATE_TYPE>
2
5
10

$$$$

