6438232
  -OEChem-07051213103D

 41 42  0     1  0  0  0  0  0999 V2000
   -1.7369    2.0685    0.0448 S   0  0  0  0  0  0  0  0  0  0  0  0
   -0.1875   -2.0513    0.2408 O   0  0  0  0  0  0  0  0  0  0  0  0
   -4.5859   -1.4107   -1.4663 O   0  0  0  0  0  0  0  0  0  0  0  0
   -3.9961   -2.0387    0.6441 O   0  0  0  0  0  0  0  0  0  0  0  0
    2.7881   -0.1021    1.8304 O   0  0  0  0  0  0  0  0  0  0  0  0
   -1.8705   -0.4492    0.6546 N   0  0  0  0  0  0  0  0  0  0  0  0
    1.0171    0.8778    0.6958 N   0  0  0  0  0  0  0  0  0  0  0  0
   -1.4716    0.7906    1.3275 C   0  0  1  0  0  0  0  0  0  0  0  0
   -3.1510    1.0989   -0.6834 C   0  0  0  0  0  0  0  0  0  0  0  0
   -2.7034   -0.3705   -0.5284 C   0  0  2  0  0  0  0  0  0  0  0  0
   -0.0584    0.2015    1.4346 C   0  0  1  0  0  0  0  0  0  0  0  0
   -0.6370   -1.0308    0.7110 C   0  0  0  0  0  0  0  0  0  0  0  0
   -4.4230    1.4628    0.0944 C   0  0  0  0  0  0  0  0  0  0  0  0
   -3.3098    1.4812   -2.1561 C   0  0  0  0  0  0  0  0  0  0  0  0
   -3.8102   -1.3612   -0.3558 C   0  0  0  0  0  0  0  0  0  0  0  0
    2.3686    0.6628    0.9632 C   0  0  0  0  0  0  0  0  0  0  0  0
    3.2996    1.4668    0.0756 C   0  0  0  0  0  0  0  0  0  0  0  0
    4.1380    0.5182   -0.7230 C   0  0  0  0  0  0  0  0  0  0  0  0
    5.4765    0.4656   -0.6517 C   0  0  0  0  0  0  0  0  0  0  0  0
    6.3175   -0.4866   -1.4493 C   0  0  0  0  0  0  0  0  0  0  0  0
    6.5358   -1.7934   -0.7029 C   0  0  0  0  0  0  0  0  0  0  0  0
   -1.9990    0.9483    2.2727 H   0  0  0  0  0  0  0  0  0  0  0  0
   -2.0899   -0.6989   -1.3781 H   0  0  0  0  0  0  0  0  0  0  0  0
    0.2299   -0.0191    2.4697 H   0  0  0  0  0  0  0  0  0  0  0  0
   -4.3630    1.1692    1.1485 H   0  0  0  0  0  0  0  0  0  0  0  0
   -4.6199    2.5410    0.0578 H   0  0  0  0  0  0  0  0  0  0  0  0
   -5.3035    0.9689   -0.3315 H   0  0  0  0  0  0  0  0  0  0  0  0
   -3.5353    2.5479   -2.2722 H   0  0  0  0  0  0  0  0  0  0  0  0
   -2.4024    1.2672   -2.7328 H   0  0  0  0  0  0  0  0  0  0  0  0
   -4.1309    0.9264   -2.6225 H   0  0  0  0  0  0  0  0  0  0  0  0
    0.7742    1.5285   -0.0472 H   0  0  0  0  0  0  0  0  0  0  0  0
   -5.3195   -2.0552   -1.3725 H   0  0  0  0  0  0  0  0  0  0  0  0
    3.9034    2.1141    0.7212 H   0  0  0  0  0  0  0  0  0  0  0  0
    2.7383    2.1146   -0.6055 H   0  0  0  0  0  0  0  0  0  0  0  0
    3.6159   -0.1480   -1.4061 H   0  0  0  0  0  0  0  0  0  0  0  0
    6.0028    1.1258    0.0331 H   0  0  0  0  0  0  0  0  0  0  0  0
    5.8440   -0.6954   -2.4160 H   0  0  0  0  0  0  0  0  0  0  0  0
    7.2817   -0.0143   -1.6691 H   0  0  0  0  0  0  0  0  0  0  0  0
    5.5868   -2.3046   -0.5085 H   0  0  0  0  0  0  0  0  0  0  0  0
    7.0340   -1.6224    0.2574 H   0  0  0  0  0  0  0  0  0  0  0  0
    7.1655   -2.4653   -1.2950 H   0  0  0  0  0  0  0  0  0  0  0  0
  1  8  1  0  0  0  0
  1  9  1  0  0  0  0
  2 12  2  0  0  0  0
  3 15  1  0  0  0  0
  3 32  1  0  0  0  0
  4 15  2  0  0  0  0
  5 16  2  0  0  0  0
  6  8  1  0  0  0  0
  6 10  1  0  0  0  0
  6 12  1  0  0  0  0
  7 11  1  0  0  0  0
  7 16  1  0  0  0  0
  7 31  1  0  0  0  0
  8 11  1  0  0  0  0
  8 22  1  0  0  0  0
  9 10  1  0  0  0  0
  9 13  1  0  0  0  0
  9 14  1  0  0  0  0
 10 15  1  0  0  0  0
 10 23  1  0  0  0  0
 11 12  1  0  0  0  0
 11 24  1  0  0  0  0
 13 25  1  0  0  0  0
 13 26  1  0  0  0  0
 13 27  1  0  0  0  0
 14 28  1  0  0  0  0
 14 29  1  0  0  0  0
 14 30  1  0  0  0  0
 16 17  1  0  0  0  0
 17 18  1  0  0  0  0
 17 33  1  0  0  0  0
 17 34  1  0  0  0  0
 18 19  2  0  0  0  0
 18 35  1  0  0  0  0
 19 20  1  0  0  0  0
 19 36  1  0  0  0  0
 20 21  1  0  0  0  0
 20 37  1  0  0  0  0
 20 38  1  0  0  0  0
 21 39  1  0  0  0  0
 21 40  1  0  0  0  0
 21 41  1  0  0  0  0
M  END
> <PUBCHEM_COMPOUND_CID>
6438232

> <PUBCHEM_CONFORMER_RMSD>
0.8

> <PUBCHEM_CONFORMER_DIVERSEORDER>
7
6
35
22
29
19
12
32
34
16
44
3
23
25
20
47
4
24
17
30
28
26
45
18
5
41
10
31
38
8
42
15
14
39
9
46
11
2
33
37
36
27
1
40
13
21
43

> <PUBCHEM_MMFF94_PARTIAL_CHARGES>
22
1 -0.45
10 0.36
11 0.28
12 0.58
15 0.66
16 0.57
17 0.2
18 -0.29
19 -0.29
2 -0.57
20 0.14
3 -0.65
31 0.37
32 0.5
35 0.15
36 0.15
4 -0.57
5 -0.57
6 -0.59
7 -0.65
8 0.44
9 0.23

> <PUBCHEM_EFFECTIVE_ROTOR_COUNT>
6.8

> <PUBCHEM_PHARMACOPHORE_FEATURES>
9
1 2 acceptor
1 21 hydrophobe
1 3 acceptor
1 4 acceptor
1 5 acceptor
1 7 donor
3 3 4 15 anion
3 9 13 14 hydrophobe
7 1 6 8 9 10 11 12 rings

> <PUBCHEM_HEAVY_ATOM_COUNT>
21

> <PUBCHEM_ATOM_DEF_STEREO_COUNT>
3

> <PUBCHEM_ATOM_UDEF_STEREO_COUNT>
0

> <PUBCHEM_BOND_DEF_STEREO_COUNT>
1

> <PUBCHEM_BOND_UDEF_STEREO_COUNT>
0

> <PUBCHEM_ISOTOPIC_ATOM_COUNT>
0

> <PUBCHEM_COMPONENT_COUNT>
1

> <PUBCHEM_CACTVS_TAUTO_COUNT>
2

> <PUBCHEM_CONFORMER_ID>
00623D5800000007

> <PUBCHEM_MMFF94_ENERGY>
43.8598

> <PUBCHEM_FEATURE_SELFOVERLAP>
45.725

> <PUBCHEM_SHAPE_FINGERPRINT>
10498660 4 18201731651403107268
10670039 82 16487257707756908436
11045977 3 9223232936387276966
11370993 144 9511472104374421500
12555020 224 18334852857768589750
12596602 18 11239998962401960796
13994607 96 15626220225917327741
14251751 18 17675926486960985910
14251752 14 18335979869686716648
14251764 30 18191018994087561367
14341114 328 8502364508998832094
14347332 77 18334295383502792798
15163728 17 16916239904121499759
15183329 4 17989207075462605030
17349148 13 17240756290462620398
17870717 6 18334007311419255964
17980427 23 10159696898069415539
18186145 218 18336559243426708377
19958102 18 18343308054693848158
200 152 17022619775917655976
20281389 69 12895065194600370380
20645477 70 17967805025946162748
20871999 31 18342455911427533472
21637258 2 16009036030008883399
22393880 68 18343026592628010040
23198884 109 17489866034086613862
23379529 103 17830459384290928103
23402539 116 18113611313896980784
23557571 272 18408317770538770613
23559900 14 18187652384199114344
26918003 58 5400796146707061080
2838139 119 16702304559835995604
3004659 81 18342170103820643326
339767 52 14201406018532507380
5924683 9 8286196150290478021

> <PUBCHEM_SHAPE_MULTIPOLES>
402.58
13.38
2.06
1.58
21.68
0.46
0.2
3.44
7.06
-1.46
0.22
-0.2
-0.19
0.68

> <PUBCHEM_SHAPE_SELFOVERLAP>
811.048

> <PUBCHEM_SHAPE_VOLUME>
238.2

> <PUBCHEM_COORDINATE_TYPE>
2
5
10

$$$$

