160920
  -OEChem-07051212512D

 35 35  0     1  0  0  0  0  0999 V2000
    2.5896   -3.0835    0.0000 O   0  0  0  0  0  0  0  0  0  0  0  0
    3.1249   -1.4362    0.0000 O   0  0  0  0  0  0  0  0  0  0  0  0
    6.8249   -1.1356    0.0000 O   0  0  0  0  0  0  0  0  0  0  0  0
    7.6910    3.3644    0.0000 O   0  0  0  0  0  0  0  0  0  0  0  0
    8.5570    1.8644    0.0000 O   0  0  0  0  0  0  0  0  0  0  0  0
    5.0929   -2.1356    0.0000 N   0  0  3  0  0  0  0  0  0  0  0  0
    5.0929   -1.1356    0.0000 N   0  0  0  0  0  0  0  0  0  0  0  0
    5.9589    2.3644    0.0000 N   0  0  0  0  0  0  0  0  0  0  0  0
    4.2839   -2.7234    0.0000 C   0  0  2  0  0  0  0  0  0  0  0  0
    4.5929   -3.6744    0.0000 C   0  0  0  0  0  0  0  0  0  0  0  0
    5.5929   -3.6744    0.0000 C   0  0  0  0  0  0  0  0  0  0  0  0
    5.9019   -2.7234    0.0000 C   0  0  0  0  0  0  0  0  0  0  0  0
    3.3328   -2.4144    0.0000 C   0  0  0  0  0  0  0  0  0  0  0  0
    5.9589   -0.6356    0.0000 C   0  0  0  0  0  0  0  0  0  0  0  0
    5.9589    0.3644    0.0000 C   0  0  0  0  0  0  0  0  0  0  0  0
    6.8249    0.8644    0.0000 C   0  0  0  0  0  0  0  0  0  0  0  0
    6.8249    1.8644    0.0000 C   0  0  1  0  0  0  0  0  0  0  0  0
    7.6910    2.3644    0.0000 C   0  0  0  0  0  0  0  0  0  0  0  0
    4.1869   -2.1110    0.0000 H   0  0  0  0  0  0  0  0  0  0  0  0
    3.9864   -3.8033    0.0000 H   0  0  0  0  0  0  0  0  0  0  0  0
    4.6577   -4.2910    0.0000 H   0  0  0  0  0  0  0  0  0  0  0  0
    5.5281   -4.2910    0.0000 H   0  0  0  0  0  0  0  0  0  0  0  0
    6.1993   -3.8033    0.0000 H   0  0  0  0  0  0  0  0  0  0  0  0
    6.4683   -2.9755    0.0000 H   0  0  0  0  0  0  0  0  0  0  0  0
    6.2119   -2.1864    0.0000 H   0  0  0  0  0  0  0  0  0  0  0  0
    4.5559   -0.8256    0.0000 H   0  0  0  0  0  0  0  0  0  0  0  0
    5.7468    0.9470    0.0000 H   0  0  0  0  0  0  0  0  0  0  0  0
    5.3483    0.2568    0.0000 H   0  0  0  0  0  0  0  0  0  0  0  0
    7.0370    0.2818    0.0000 H   0  0  0  0  0  0  0  0  0  0  0  0
    7.4355    0.9721    0.0000 H   0  0  0  0  0  0  0  0  0  0  0  0
    6.8249    2.4844    0.0000 H   0  0  0  0  0  0  0  0  0  0  0  0
    2.0000   -2.8919    0.0000 H   0  0  0  0  0  0  0  0  0  0  0  0
    5.9589    2.9844    0.0000 H   0  0  0  0  0  0  0  0  0  0  0  0
    5.4220    2.0544    0.0000 H   0  0  0  0  0  0  0  0  0  0  0  0
    8.2279    3.6744    0.0000 H   0  0  0  0  0  0  0  0  0  0  0  0
  1 13  1  0  0  0  0
  1 32  1  0  0  0  0
  2 13  2  0  0  0  0
  3 14  2  0  0  0  0
  4 18  1  0  0  0  0
  4 35  1  0  0  0  0
  5 18  2  0  0  0  0
  6  7  1  0  0  0  0
  6  9  1  0  0  0  0
  6 12  1  0  0  0  0
  7 14  1  0  0  0  0
  7 26  1  0  0  0  0
 17  8  1  6  0  0  0
  8 33  1  0  0  0  0
  8 34  1  0  0  0  0
  9 10  1  0  0  0  0
  9 13  1  6  0  0  0
  9 19  1  0  0  0  0
 10 11  1  0  0  0  0
 10 20  1  0  0  0  0
 10 21  1  0  0  0  0
 11 12  1  0  0  0  0
 11 22  1  0  0  0  0
 11 23  1  0  0  0  0
 12 24  1  0  0  0  0
 12 25  1  0  0  0  0
 14 15  1  0  0  0  0
 15 16  1  0  0  0  0
 15 27  1  0  0  0  0
 15 28  1  0  0  0  0
 16 17  1  0  0  0  0
 16 29  1  0  0  0  0
 16 30  1  0  0  0  0
 17 18  1  0  0  0  0
 17 31  1  0  0  0  0
M  END
> <PUBCHEM_COMPOUND_CID>
160920

> <PUBCHEM_COMPOUND_CANONICALIZED>
1

> <PUBCHEM_CACTVS_COMPLEXITY>
346

> <PUBCHEM_CACTVS_HBOND_ACCEPTOR>
7

> <PUBCHEM_CACTVS_HBOND_DONOR>
4

> <PUBCHEM_CACTVS_ROTATABLE_BOND>
6

> <PUBCHEM_CACTVS_SUBSKEYS>
AAADceBzOAAAAAAAAAAAAAAAAAAAAWAAAAAAAAAAAAAAAAAAAAAAHgAYCAAACCjBgAQACAJiAgAIAAGQGAAAAAAAAAASIIGIAAACABIAgCAEQAAEEACQAACcFwAAAAAAAAAAAAAAAAAAAAAAAAAAAAAAAA==

> <PUBCHEM_IUPAC_OPENEYE_NAME>
(2R)-1-[[(4S)-4-amino-4-carboxy-butanoyl]amino]pyrrolidine-2-carboxylic acid

> <PUBCHEM_IUPAC_CAS_NAME>
(2R)-1-[[(4S)-4-amino-4-carboxy-1-oxobutyl]amino]-2-pyrrolidinecarboxylic acid

> <PUBCHEM_IUPAC_NAME>
(2R)-1-[[(4S)-4-amino-4-carboxybutanoyl]amino]pyrrolidine-2-carboxylic acid

> <PUBCHEM_IUPAC_SYSTEMATIC_NAME>
(2R)-1-[[(4S)-4-azanyl-5-oxidanyl-5-oxidanylidene-pentanoyl]amino]pyrrolidine-2-carboxylic acid

> <PUBCHEM_IUPAC_TRADITIONAL_NAME>
(2R)-1-[[(4S)-4-amino-4-carboxy-butanoyl]amino]proline

> <PUBCHEM_IUPAC_INCHI>
InChI=1S/C10H17N3O5/c11-6(9(15)16)3-4-8(14)12-13-5-1-2-7(13)10(17)18/h6-7H,1-5,11H2,(H,12,14)(H,15,16)(H,17,18)/t6-,7+/m0/s1

> <PUBCHEM_IUPAC_INCHIKEY>
KWWHDNLMGLRNRN-NKWVEPMBSA-N

> <PUBCHEM_XLOGP3_AA>
-5.1

> <PUBCHEM_EXACT_MASS>
259.116821

> <PUBCHEM_MOLECULAR_FORMULA>
C10H17N3O5

> <PUBCHEM_MOLECULAR_WEIGHT>
259.25908

> <PUBCHEM_OPENEYE_CAN_SMILES>
C1CC(N(C1)NC(=O)CCC(C(=O)O)N)C(=O)O

> <PUBCHEM_OPENEYE_ISO_SMILES>
C1C[C@@H](N(C1)NC(=O)CC[C@@H](C(=O)O)N)C(=O)O

> <PUBCHEM_CACTVS_TPSA>
133

> <PUBCHEM_MONOISOTOPIC_WEIGHT>
259.116821

> <PUBCHEM_TOTAL_CHARGE>
0

> <PUBCHEM_HEAVY_ATOM_COUNT>
18

> <PUBCHEM_ATOM_DEF_STEREO_COUNT>
2

> <PUBCHEM_ATOM_UDEF_STEREO_COUNT>
0

> <PUBCHEM_BOND_DEF_STEREO_COUNT>
0

> <PUBCHEM_BOND_UDEF_STEREO_COUNT>
0

> <PUBCHEM_ISOTOPIC_ATOM_COUNT>
0

> <PUBCHEM_COMPONENT_COUNT>
1

> <PUBCHEM_CACTVS_TAUTO_COUNT>
2

> <PUBCHEM_COORDINATE_TYPE>
1
5
255

> <PUBCHEM_BONDANNOTATIONS>
17  8  6
9  13  6

$$$$

