121947
  -OEChem-07051212483D

 27 27  0     1  0  0  0  0  0999 V2000
   -3.0489   -0.4866    0.0568 P   0  0  0  0  0  0  0  0  0  0  0  0
   -1.5264   -1.0271    0.0608 O   0  0  0  0  0  0  0  0  0  0  0  0
   -0.6029    1.0133    1.6385 O   0  0  0  0  0  0  0  0  0  0  0  0
    0.7325    2.2934   -1.4978 O   0  0  0  0  0  0  0  0  0  0  0  0
    3.9963   -0.4851    0.9694 O   0  0  0  0  0  0  0  0  0  0  0  0
   -3.9113   -1.7590    0.5594 O   0  0  0  0  0  0  0  0  0  0  0  0
   -3.3925   -0.4044   -1.5212 O   0  0  0  0  0  0  0  0  0  0  0  0
    3.4109   -2.0006   -0.6402 O   0  0  0  0  0  0  0  0  0  0  0  0
   -3.2753    0.7845    0.8218 O   0  0  0  0  0  0  0  0  0  0  0  0
   -0.5318    1.1812    0.2222 C   0  0  1  0  0  0  0  0  0  0  0  0
    0.7247    1.9919   -0.1041 C   0  0  1  0  0  0  0  0  0  0  0  0
   -0.5113   -0.1879   -0.4807 C   0  0  1  0  0  0  0  0  0  0  0  0
    2.0085    1.2315    0.2745 C   0  0  0  0  0  0  0  0  0  0  0  0
    1.9374   -0.2390   -0.0272 C   0  0  0  0  0  0  0  0  0  0  0  0
    0.8148   -0.8859   -0.3741 C   0  0  0  0  0  0  0  0  0  0  0  0
    3.1754   -1.0204    0.0421 C   0  0  0  0  0  0  0  0  0  0  0  0
   -1.3971    1.7646   -0.1050 H   0  0  0  0  0  0  0  0  0  0  0  0
    0.7186    2.9444    0.4392 H   0  0  0  0  0  0  0  0  0  0  0  0
   -0.7201   -0.0565   -1.5496 H   0  0  0  0  0  0  0  0  0  0  0  0
    2.1840    1.3561    1.3505 H   0  0  0  0  0  0  0  0  0  0  0  0
    2.8573    1.6749   -0.2605 H   0  0  0  0  0  0  0  0  0  0  0  0
    0.8301   -1.9474   -0.6083 H   0  0  0  0  0  0  0  0  0  0  0  0
   -1.3720    0.4548    1.8372 H   0  0  0  0  0  0  0  0  0  0  0  0
   -0.0715    2.8044   -1.6925 H   0  0  0  0  0  0  0  0  0  0  0  0
    4.8391   -0.9812    1.0463 H   0  0  0  0  0  0  0  0  0  0  0  0
   -4.8764   -1.6527    0.6988 H   0  0  0  0  0  0  0  0  0  0  0  0
   -4.2445   -0.0072   -1.8013 H   0  0  0  0  0  0  0  0  0  0  0  0
  1  2  1  0  0  0  0
  1  6  1  0  0  0  0
  1  7  1  0  0  0  0
  1  9  2  0  0  0  0
  2 12  1  0  0  0  0
  3 10  1  0  0  0  0
  3 23  1  0  0  0  0
  4 11  1  0  0  0  0
  4 24  1  0  0  0  0
  5 16  1  0  0  0  0
  5 25  1  0  0  0  0
  6 26  1  0  0  0  0
  7 27  1  0  0  0  0
  8 16  2  0  0  0  0
 10 11  1  0  0  0  0
 10 12  1  0  0  0  0
 10 17  1  0  0  0  0
 11 13  1  0  0  0  0
 11 18  1  0  0  0  0
 12 15  1  0  0  0  0
 12 19  1  0  0  0  0
 13 14  1  0  0  0  0
 13 20  1  0  0  0  0
 13 21  1  0  0  0  0
 14 15  2  0  0  0  0
 14 16  1  0  0  0  0
 15 22  1  0  0  0  0
M  END
> <PUBCHEM_COMPOUND_CID>
121947

> <PUBCHEM_CONFORMER_RMSD>
0.6

> <PUBCHEM_CONFORMER_DIVERSEORDER>
1
2
3

> <PUBCHEM_MMFF94_PARTIAL_CHARGES>
22
1 1.51
10 0.28
11 0.28
12 0.42
13 0.14
14 -0.12
15 -0.29
16 0.71
2 -0.55
22 0.15
23 0.4
24 0.4
25 0.5
26 0.5
27 0.5
3 -0.68
4 -0.68
5 -0.65
6 -0.77
7 -0.77
8 -0.57
9 -0.7

> <PUBCHEM_EFFECTIVE_ROTOR_COUNT>
3.8

> <PUBCHEM_PHARMACOPHORE_FEATURES>
12
1 3 acceptor
1 3 donor
1 4 acceptor
1 4 donor
1 5 acceptor
1 6 acceptor
1 7 acceptor
1 8 acceptor
1 9 acceptor
3 5 8 16 anion
4 1 6 7 9 anion
6 10 11 12 13 14 15 rings

> <PUBCHEM_HEAVY_ATOM_COUNT>
16

> <PUBCHEM_ATOM_DEF_STEREO_COUNT>
3

> <PUBCHEM_ATOM_UDEF_STEREO_COUNT>
0

> <PUBCHEM_BOND_DEF_STEREO_COUNT>
0

> <PUBCHEM_BOND_UDEF_STEREO_COUNT>
0

> <PUBCHEM_ISOTOPIC_ATOM_COUNT>
0

> <PUBCHEM_COMPONENT_COUNT>
1

> <PUBCHEM_CACTVS_TAUTO_COUNT>
1

> <PUBCHEM_CONFORMER_ID>
0001DC5B00000001

> <PUBCHEM_MMFF94_ENERGY>
-1.2554

> <PUBCHEM_FEATURE_SELFOVERLAP>
60.987

> <PUBCHEM_SHAPE_FINGERPRINT>
11132069 177 18262521523456956970
11543360 7 15984810515577794782
11769659 78 18260270762835459635
12032990 46 18410852187490072622
12932764 1 17132122320829055627
13296908 3 18202567254628149043
13571099 22 18410860940817694029
13583140 156 14635454743192866958
13675066 3 18114177553742233107
13705890 14 18131072580309994883
14123255 52 9223225226483559238
14181834 199 18264212421979977540
14252887 29 18407759235912320258
15375462 478 17967812760369859989
15501101 241 18260836985955023632
16945 1 18262243192338518452
17834072 14 18410866476893537736
18186145 218 18060421309131394707
19873495 37 9943517522901146592
200 152 17895489059318055503
20281475 54 18341044202974842822
20339313 130 18342173345439374332
20361792 2 18201714089476505980
20559304 39 18191016820527602425
20645477 70 18340212882238045895
20671657 53 18272933834010439998
20708731 107 18057597677134588860
20871998 22 18408882975376519438
21501502 16 18267291059238671729
21501925 9 18334298643039975266
232386 152 17894343367706098789
23402539 116 18341618169714596154
23419403 2 17754216138263917544
23463225 33 18335135401558816412
23532345 42 18409731759756349194
2748010 2 18338814402089194940
4990 188 12247681599455200642
5902787 121 18201722816797609498
7364860 26 18265892445825054380
81228 2 18126561460548628720

> <PUBCHEM_SHAPE_MULTIPOLES>
286.17
6.29
2.02
1.1
1.65
0.51
0.08
-3.72
-0.62
-0.67
0.32
0.32
0.3
-0.04

> <PUBCHEM_SHAPE_SELFOVERLAP>
573.854

> <PUBCHEM_SHAPE_VOLUME>
168.7

> <PUBCHEM_COORDINATE_TYPE>
2
5
10

$$$$

