443050
  -OEChem-07051213003D

 44 47  0     0  0  0  0  0  0999 V2000
    9.3842    0.3563    0.2557 Cl  0  0  0  0  0  0  0  0  0  0  0  0
   -3.1725   -2.2714    0.0878 O   0  0  0  0  0  0  0  0  0  0  0  0
   -3.4433    2.3610   -0.0327 O   0  0  0  0  0  0  0  0  0  0  0  0
    2.7768    0.4053    0.1896 O   0  0  0  0  0  0  0  0  0  0  0  0
   -2.7992    0.0749    0.0412 N   0  0  0  0  0  0  0  0  0  0  0  0
   -7.4108   -0.8792    0.2744 C   0  0  0  0  0  0  0  0  0  0  0  0
   -7.4723    0.4798   -0.4375 C   0  0  0  0  0  0  0  0  0  0  0  0
   -6.1076   -1.6365   -0.0303 C   0  0  0  0  0  0  0  0  0  0  0  0
   -6.2853    1.3844   -0.0670 C   0  0  0  0  0  0  0  0  0  0  0  0
   -4.9401   -0.7186   -0.0177 C   0  0  0  0  0  0  0  0  0  0  0  0
   -5.0188    0.6105   -0.0148 C   0  0  0  0  0  0  0  0  0  0  0  0
   -3.5243   -1.1046    0.0306 C   0  0  0  0  0  0  0  0  0  0  0  0
   -3.6577    1.1608    0.0100 C   0  0  0  0  0  0  0  0  0  0  0  0
   -1.3697    0.1595    0.0785 C   0  0  0  0  0  0  0  0  0  0  0  0
   -0.5912   -0.8475   -0.4974 C   0  0  0  0  0  0  0  0  0  0  0  0
   -0.7473    1.2494    0.6925 C   0  0  0  0  0  0  0  0  0  0  0  0
    0.8007   -0.7654   -0.4593 C   0  0  0  0  0  0  0  0  0  0  0  0
    0.6448    1.3316    0.7305 C   0  0  0  0  0  0  0  0  0  0  0  0
    1.4188    0.3241    0.1544 C   0  0  0  0  0  0  0  0  0  0  0  0
    3.5071   -0.6581   -0.4203 C   0  0  0  0  0  0  0  0  0  0  0  0
    4.9761   -0.4037   -0.2509 C   0  0  0  0  0  0  0  0  0  0  0  0
    5.6652    0.3208   -1.2170 C   0  0  0  0  0  0  0  0  0  0  0  0
    5.6353   -0.8955    0.8703 C   0  0  0  0  0  0  0  0  0  0  0  0
    7.0311    0.5562   -1.0600 C   0  0  0  0  0  0  0  0  0  0  0  0
    7.0011   -0.6600    1.0274 C   0  0  0  0  0  0  0  0  0  0  0  0
    7.6991    0.0660    0.0622 C   0  0  0  0  0  0  0  0  0  0  0  0
   -8.2689   -1.4944   -0.0194 H   0  0  0  0  0  0  0  0  0  0  0  0
   -7.4923   -0.7180    1.3573 H   0  0  0  0  0  0  0  0  0  0  0  0
   -8.4112    0.9887   -0.1912 H   0  0  0  0  0  0  0  0  0  0  0  0
   -7.4770    0.3134   -1.5227 H   0  0  0  0  0  0  0  0  0  0  0  0
   -6.1798   -2.1055   -1.0187 H   0  0  0  0  0  0  0  0  0  0  0  0
   -5.9772   -2.4388    0.7042 H   0  0  0  0  0  0  0  0  0  0  0  0
   -6.4644    1.8388    0.9146 H   0  0  0  0  0  0  0  0  0  0  0  0
   -6.2116    2.1986   -0.7963 H   0  0  0  0  0  0  0  0  0  0  0  0
   -1.0388   -1.6947   -1.0082 H   0  0  0  0  0  0  0  0  0  0  0  0
   -1.3171    2.0372    1.1757 H   0  0  0  0  0  0  0  0  0  0  0  0
    1.3370   -1.5794   -0.9344 H   0  0  0  0  0  0  0  0  0  0  0  0
    1.1211    2.1795    1.2151 H   0  0  0  0  0  0  0  0  0  0  0  0
    3.2824   -0.7188   -1.4935 H   0  0  0  0  0  0  0  0  0  0  0  0
    3.2674   -1.6197    0.0530 H   0  0  0  0  0  0  0  0  0  0  0  0
    5.1548    0.7094   -2.0939 H   0  0  0  0  0  0  0  0  0  0  0  0
    5.1013   -1.4602    1.6296 H   0  0  0  0  0  0  0  0  0  0  0  0
    7.5621    1.1239   -1.8199 H   0  0  0  0  0  0  0  0  0  0  0  0
    7.5083   -1.0477    1.9071 H   0  0  0  0  0  0  0  0  0  0  0  0
  1 26  1  0  0  0  0
  2 12  2  0  0  0  0
  3 13  2  0  0  0  0
  4 19  1  0  0  0  0
  4 20  1  0  0  0  0
  5 12  1  0  0  0  0
  5 13  1  0  0  0  0
  5 14  1  0  0  0  0
  6  7  1  0  0  0  0
  6  8  1  0  0  0  0
  6 27  1  0  0  0  0
  6 28  1  0  0  0  0
  7  9  1  0  0  0  0
  7 29  1  0  0  0  0
  7 30  1  0  0  0  0
  8 10  1  0  0  0  0
  8 31  1  0  0  0  0
  8 32  1  0  0  0  0
  9 11  1  0  0  0  0
  9 33  1  0  0  0  0
  9 34  1  0  0  0  0
 10 11  2  0  0  0  0
 10 12  1  0  0  0  0
 11 13  1  0  0  0  0
 14 15  2  0  0  0  0
 14 16  1  0  0  0  0
 15 17  1  0  0  0  0
 15 35  1  0  0  0  0
 16 18  2  0  0  0  0
 16 36  1  0  0  0  0
 17 19  2  0  0  0  0
 17 37  1  0  0  0  0
 18 19  1  0  0  0  0
 18 38  1  0  0  0  0
 20 21  1  0  0  0  0
 20 39  1  0  0  0  0
 20 40  1  0  0  0  0
 21 22  2  0  0  0  0
 21 23  1  0  0  0  0
 22 24  1  0  0  0  0
 22 41  1  0  0  0  0
 23 25  2  0  0  0  0
 23 42  1  0  0  0  0
 24 26  2  0  0  0  0
 24 43  1  0  0  0  0
 25 26  1  0  0  0  0
 25 44  1  0  0  0  0
M  END
> <PUBCHEM_COMPOUND_CID>
443050

> <PUBCHEM_CONFORMER_RMSD>
0.8

> <PUBCHEM_CONFORMER_DIVERSEORDER>
1
13
5
8
11
6
4
10
2
12
9
7
3
14
15

> <PUBCHEM_MMFF94_PARTIAL_CHARGES>
32
1 -0.18
10 -0.12
11 -0.12
12 0.62
13 0.62
14 0.12
15 -0.15
16 -0.15
17 -0.15
18 -0.15
19 0.08
2 -0.57
20 0.42
21 -0.14
22 -0.15
23 -0.15
24 -0.15
25 -0.15
26 0.18
3 -0.57
35 0.15
36 0.15
37 0.15
38 0.15
4 -0.36
41 0.15
42 0.15
43 0.15
44 0.15
5 -0.24
8 0.14
9 0.14

> <PUBCHEM_EFFECTIVE_ROTOR_COUNT>
5

> <PUBCHEM_PHARMACOPHORE_FEATURES>
7
1 2 acceptor
1 3 acceptor
1 4 acceptor
5 5 10 11 12 13 rings
6 14 15 16 17 18 19 rings
6 21 22 23 24 25 26 rings
6 6 7 8 9 10 11 rings

> <PUBCHEM_HEAVY_ATOM_COUNT>
26

> <PUBCHEM_ATOM_DEF_STEREO_COUNT>
0

> <PUBCHEM_ATOM_UDEF_STEREO_COUNT>
0

> <PUBCHEM_BOND_DEF_STEREO_COUNT>
0

> <PUBCHEM_BOND_UDEF_STEREO_COUNT>
0

> <PUBCHEM_ISOTOPIC_ATOM_COUNT>
0

> <PUBCHEM_COMPONENT_COUNT>
1

> <PUBCHEM_CACTVS_TAUTO_COUNT>
1

> <PUBCHEM_CONFORMER_ID>
0006C2AA00000001

> <PUBCHEM_MMFF94_ENERGY>
66.3869

> <PUBCHEM_FEATURE_SELFOVERLAP>
35.593

> <PUBCHEM_SHAPE_FINGERPRINT>
10 15 18040722455103997362
10050765 1 18047469216927957806
10299344 5 18131633383038477914
10319688 140 15720219747583213646
10411042 1 18050284766340645151
11315181 36 18187362130261426961
11524674 6 17022623057341476663
11719270 70 18334013921759663686
12089408 11 18273496776138687778
12236239 1 17917711309573872094
12516196 113 17676487250528094616
12838862 33 18115040669953494135
13288520 33 18408322173381317805
13533116 47 17418100957808321338
13885169 127 18410292540376895473
13914758 101 17060340755306442572
14123256 10 18113898265051439062
14251764 18 18272933821246980878
14251764 46 18410856563934756871
14856354 85 18342734092301809543
15183329 4 18411415124611125216
15419008 47 17530971297539711848
15510794 2 17967529091498701166
15849732 13 17458346333863068292
18006028 8 17385723599253788152
18335252 98 18113333124897136814
18681886 176 18336552633556078521
21150785 3 18130787854428253880
21267235 1 18410570649043316371
21315763 28 18342175575218523348
21360443 120 17775287183225032922
22224240 67 15769774645835357800
23035841 295 18341894086676363875
23198884 109 16988842783133795761
232437 2 18413389852966036354
23536379 177 17775004604926165516
23559900 14 18335145258941648025
249057 25 17774427365321847244
249057 3 18343301439958532293
3004659 81 18412263913217662392
335352 9 18408608063727015749
34797466 226 17530960268685855636
397830 11 16661787461478307242
4073 2 17774153497206496994
4325135 7 18272088301574727902
4339292 15 18189059712386984887
5283156 175 18272089418514268050
5758199 1 5256402799606383940
67123 10 18411700981377539832
9663363 56 17458628921136075104

> <PUBCHEM_SHAPE_MULTIPOLES>
514.35
26.63
1.56
0.87
27.24
0.06
-0.04
-0.82
-0.25
-2.48
0.1
1.12
0.02
-0.33

> <PUBCHEM_SHAPE_SELFOVERLAP>
1122.681

> <PUBCHEM_SHAPE_VOLUME>
280.6

> <PUBCHEM_COORDINATE_TYPE>
2
5
10

$$$$

