181994
  -OEChem-07051212593D

 33 35  0     1  0  0  0  0  0999 V2000
    1.3650    2.0562   -0.2469 O   0  0  0  0  0  0  0  0  0  0  0  0
   -0.0227   -1.7127    0.6163 O   0  0  0  0  0  0  0  0  0  0  0  0
   -2.6793    1.0587    2.2169 O   0  0  0  0  0  0  0  0  0  0  0  0
    2.3859   -2.6442    0.4446 O   0  0  0  0  0  0  0  0  0  0  0  0
    5.8393    0.4964   -0.4098 O   0  0  0  0  0  0  0  0  0  0  0  0
   -5.9180   -0.6407   -0.8385 O   0  0  0  0  0  0  0  0  0  0  0  0
   -0.5319    0.6422    0.3611 C   0  0  2  0  0  0  0  0  0  0  0  0
    0.0400    1.6646   -0.6215 C   0  0  0  0  0  0  0  0  0  0  0  0
    0.3699   -0.5792    0.3643 C   0  0  0  0  0  0  0  0  0  0  0  0
   -1.9753    0.3038    0.0536 C   0  0  0  0  0  0  0  0  0  0  0  0
    1.8042   -0.3158    0.1146 C   0  0  0  0  0  0  0  0  0  0  0  0
    2.2227    0.9905   -0.1567 C   0  0  0  0  0  0  0  0  0  0  0  0
   -2.9774    0.5290    0.9975 C   0  0  0  0  0  0  0  0  0  0  0  0
    2.7378   -1.3532    0.1893 C   0  0  0  0  0  0  0  0  0  0  0  0
   -2.2986   -0.2388   -1.1904 C   0  0  0  0  0  0  0  0  0  0  0  0
    3.5816    1.2645   -0.3192 C   0  0  0  0  0  0  0  0  0  0  0  0
    4.0930   -1.0762    0.0059 C   0  0  0  0  0  0  0  0  0  0  0  0
    4.5147    0.2302   -0.2429 C   0  0  0  0  0  0  0  0  0  0  0  0
   -4.3023    0.2117    0.6978 C   0  0  0  0  0  0  0  0  0  0  0  0
   -3.6234   -0.5560   -1.4900 C   0  0  0  0  0  0  0  0  0  0  0  0
   -4.6252   -0.3310   -0.5459 C   0  0  0  0  0  0  0  0  0  0  0  0
   -0.4416    1.0572    1.3737 H   0  0  0  0  0  0  0  0  0  0  0  0
    0.0632    1.2996   -1.6570 H   0  0  0  0  0  0  0  0  0  0  0  0
   -0.5737    2.5733   -0.6197 H   0  0  0  0  0  0  0  0  0  0  0  0
   -1.5332   -0.4302   -1.9374 H   0  0  0  0  0  0  0  0  0  0  0  0
    3.9143    2.2810   -0.5148 H   0  0  0  0  0  0  0  0  0  0  0  0
    4.8196   -1.8832    0.0656 H   0  0  0  0  0  0  0  0  0  0  0  0
   -5.0841    0.3869    1.4330 H   0  0  0  0  0  0  0  0  0  0  0  0
   -3.8687   -0.9802   -2.4600 H   0  0  0  0  0  0  0  0  0  0  0  0
   -3.4975    1.1426    2.7359 H   0  0  0  0  0  0  0  0  0  0  0  0
    1.4214   -2.7342    0.4765 H   0  0  0  0  0  0  0  0  0  0  0  0
    6.3409   -0.3326   -0.3250 H   0  0  0  0  0  0  0  0  0  0  0  0
   -6.4763   -0.4202   -0.0732 H   0  0  0  0  0  0  0  0  0  0  0  0
  1  8  1  0  0  0  0
  1 12  1  0  0  0  0
  2  9  2  0  0  0  0
  3 13  1  0  0  0  0
  3 30  1  0  0  0  0
  4 14  1  0  0  0  0
  4 31  1  0  0  0  0
  5 18  1  0  0  0  0
  5 32  1  0  0  0  0
  6 21  1  0  0  0  0
  6 33  1  0  0  0  0
  7  8  1  0  0  0  0
  7  9  1  0  0  0  0
  7 10  1  0  0  0  0
  7 22  1  0  0  0  0
  8 23  1  0  0  0  0
  8 24  1  0  0  0  0
  9 11  1  0  0  0  0
 10 13  2  0  0  0  0
 10 15  1  0  0  0  0
 11 12  1  0  0  0  0
 11 14  2  0  0  0  0
 12 16  2  0  0  0  0
 13 19  1  0  0  0  0
 14 17  1  0  0  0  0
 15 20  2  0  0  0  0
 15 25  1  0  0  0  0
 16 18  1  0  0  0  0
 16 26  1  0  0  0  0
 17 18  2  0  0  0  0
 17 27  1  0  0  0  0
 19 21  2  0  0  0  0
 19 28  1  0  0  0  0
 20 21  1  0  0  0  0
 20 29  1  0  0  0  0
M  END
> <PUBCHEM_COMPOUND_CID>
181994

> <PUBCHEM_CONFORMER_RMSD>
0.6

> <PUBCHEM_CONFORMER_DIVERSEORDER>
1
6
8
10
9
14
5
7
11
3
13
12
4
2

> <PUBCHEM_MMFF94_PARTIAL_CHARGES>
30
1 -0.36
10 -0.14
11 0.09
12 0.08
13 0.08
14 0.08
15 -0.15
16 -0.15
17 -0.15
18 0.08
19 -0.15
2 -0.57
20 -0.15
21 0.08
25 0.15
26 0.15
27 0.15
28 0.15
29 0.15
3 -0.53
30 0.45
31 0.45
32 0.45
33 0.45
4 -0.53
5 -0.53
6 -0.53
7 0.2
8 0.28
9 0.42

> <PUBCHEM_EFFECTIVE_ROTOR_COUNT>
1.6

> <PUBCHEM_PHARMACOPHORE_FEATURES>
9
1 1 acceptor
1 2 acceptor
1 3 donor
1 4 donor
1 5 donor
1 6 donor
6 1 7 8 9 11 12 rings
6 10 13 15 19 20 21 rings
6 11 12 14 16 17 18 rings

> <PUBCHEM_HEAVY_ATOM_COUNT>
21

> <PUBCHEM_ATOM_DEF_STEREO_COUNT>
0

> <PUBCHEM_ATOM_UDEF_STEREO_COUNT>
1

> <PUBCHEM_BOND_DEF_STEREO_COUNT>
0

> <PUBCHEM_BOND_UDEF_STEREO_COUNT>
0

> <PUBCHEM_ISOTOPIC_ATOM_COUNT>
0

> <PUBCHEM_COMPONENT_COUNT>
1

> <PUBCHEM_CACTVS_TAUTO_COUNT>
249

> <PUBCHEM_CONFORMER_ID>
0002C6EA00000001

> <PUBCHEM_MMFF94_ENERGY>
62.4543

> <PUBCHEM_FEATURE_SELFOVERLAP>
45.699

> <PUBCHEM_SHAPE_FINGERPRINT>
11370993 70 15051734204833812184
11471102 20 18343301461860499980
12107183 9 17393590811203765035
12236239 1 18113898269177711625
12596602 18 17676489427833842744
12670546 56 17821731628202722673
12788726 201 17603583054307138403
13140716 1 18198619926770866624
13167823 11 18113336418466834447
13288520 33 17095521782069236461
13583140 156 16271927086714099440
13862211 1 18341897433173507082
13911987 19 17917414403217445940
14386348 63 17346594179702698633
14576447 43 18335147461811477895
15196674 1 18341895259482036476
15375358 24 17489868241156452625
15848702 151 18261106421763883503
16945 1 18343298167742085100
17349148 13 18341619213233095008
17357779 13 17918002684635161317
17834072 33 18113338595909901292
1813 80 18337659906158266172
19422 9 18113898307663696739
200 152 18407762534373012489
20279233 1 17203324520221138611
20645477 70 18130513027918791506
21033648 29 17703803491370089933
21033650 10 17097741726158259064
21065198 48 18041275568806759979
21267235 1 18335695044319062582
21285901 2 17632024138134792831
21641784 216 17845919836632976412
22646028 1 18186522111587860681
2297311 6 16153419541476002353
23402539 116 18333168379625902788
23402655 69 18410859896855940965
23557571 272 15430308148858148121
23559900 14 15791995827298926420
2748010 2 17982723087694628536
2871803 45 18273216434685196782
335352 9 18341890767790088660
34797466 226 16009025030666580096
4072396 5 18059309703482186592
474 4 18118690915630528520
602551 16 15936703578921676214
77492 1 18113897173998020025
9981440 41 17033899411977470928

> <PUBCHEM_SHAPE_MULTIPOLES>
396.95
10.81
1.7
1.15
1.5
0.35
0.22
1.03
-1.89
-1.47
0.13
1.44
-0.13
-1.04

> <PUBCHEM_SHAPE_SELFOVERLAP>
884.383

> <PUBCHEM_SHAPE_VOLUME>
209.4

> <PUBCHEM_COORDINATE_TYPE>
2
5
10

$$$$

