46173727
  -OEChem-07051212493D

 43 44  0     1  0  0  0  0  0999 V2000
    0.1054   -1.1740   -0.6969 O   0  0  0  0  0  0  0  0  0  0  0  0
    1.5865    0.5189   -0.0742 O   0  0  0  0  0  0  0  0  0  0  0  0
   -2.7951    1.0529   -0.7535 O   0  0  0  0  0  0  0  0  0  0  0  0
   -1.5097   -2.1124    1.5297 O   0  0  0  0  0  0  0  0  0  0  0  0
    2.2105   -3.0755   -0.4172 O   0  0  0  0  0  0  0  0  0  0  0  0
    4.8370   -1.8844   -0.8110 O   0  0  0  0  0  0  0  0  0  0  0  0
   -4.3397   -1.8166    0.9069 O   0  0  0  0  0  0  0  0  0  0  0  0
    5.1238    0.4877    0.8548 O   0  0  0  0  0  0  0  0  0  0  0  0
   -0.6406    1.4311   -1.5678 O   0  0  0  0  0  0  0  0  0  0  0  0
    3.8980    2.8762    1.1197 O   0  0  0  0  0  0  0  0  0  0  0  0
   -6.0308    0.1979    0.3070 O   0  0  0  0  0  0  0  0  0  0  0  0
    2.0615    3.0233   -0.2224 O   0  0  0  0  0  0  0  0  0  0  0  0
   -4.9240    2.1791    0.0944 O   0  0  0  0  0  0  0  0  0  0  0  0
   -0.9990   -0.4647   -0.1573 C   0  0  2  0  0  0  0  0  0  0  0  0
   -2.0195   -1.4820    0.3539 C   0  0  2  0  0  0  0  0  0  0  0  0
    1.3087   -0.8765    0.0097 C   0  0  2  0  0  0  0  0  0  0  0  0
    2.4394   -1.6831   -0.6290 C   0  0  1  0  0  0  0  0  0  0  0  0
    3.7926   -1.3204   -0.0166 C   0  0  2  0  0  0  0  0  0  0  0  0
   -3.3480   -0.8113    0.7042 C   0  0  1  0  0  0  0  0  0  0  0  0
    3.9924    0.1944    0.0370 C   0  0  1  0  0  0  0  0  0  0  0  0
   -1.6053    0.4337   -1.2357 C   0  0  1  0  0  0  0  0  0  0  0  0
    2.7684    0.8797    0.6313 C   0  0  1  0  0  0  0  0  0  0  0  0
   -3.8041    0.1053   -0.4240 C   0  0  1  0  0  0  0  0  0  0  0  0
    2.8414    2.3606    0.4454 C   0  0  0  0  0  0  0  0  0  0  0  0
   -4.9498    0.9603    0.0114 C   0  0  0  0  0  0  0  0  0  0  0  0
   -0.6957    0.1645    0.6926 H   0  0  0  0  0  0  0  0  0  0  0  0
   -2.1713   -2.2823   -0.3802 H   0  0  0  0  0  0  0  0  0  0  0  0
    1.1746   -1.1717    1.0596 H   0  0  0  0  0  0  0  0  0  0  0  0
    2.4552   -1.5269   -1.7142 H   0  0  0  0  0  0  0  0  0  0  0  0
    3.8987   -1.7618    0.9815 H   0  0  0  0  0  0  0  0  0  0  0  0
   -3.2440   -0.2575    1.6462 H   0  0  0  0  0  0  0  0  0  0  0  0
    4.2099    0.5809   -0.9662 H   0  0  0  0  0  0  0  0  0  0  0  0
   -1.8177   -0.1372   -2.1485 H   0  0  0  0  0  0  0  0  0  0  0  0
    2.6364    0.6759    1.7011 H   0  0  0  0  0  0  0  0  0  0  0  0
   -4.1083   -0.4422   -1.3246 H   0  0  0  0  0  0  0  0  0  0  0  0
   -1.3477   -1.4236    2.1966 H   0  0  0  0  0  0  0  0  0  0  0  0
    2.1616   -3.2305    0.5416 H   0  0  0  0  0  0  0  0  0  0  0  0
    4.7617   -1.5221   -1.7102 H   0  0  0  0  0  0  0  0  0  0  0  0
   -5.1366   -1.3830    1.2555 H   0  0  0  0  0  0  0  0  0  0  0  0
    4.9422    0.1567    1.7510 H   0  0  0  0  0  0  0  0  0  0  0  0
   -0.8437    1.7355   -2.4685 H   0  0  0  0  0  0  0  0  0  0  0  0
    3.9644    3.8486    1.0088 H   0  0  0  0  0  0  0  0  0  0  0  0
   -6.7942    0.7412    0.5974 H   0  0  0  0  0  0  0  0  0  0  0  0
  1 14  1  0  0  0  0
  1 16  1  0  0  0  0
  2 16  1  0  0  0  0
  2 22  1  0  0  0  0
  3 21  1  0  0  0  0
  3 23  1  0  0  0  0
  4 15  1  0  0  0  0
  4 36  1  0  0  0  0
  5 17  1  0  0  0  0
  5 37  1  0  0  0  0
  6 18  1  0  0  0  0
  6 38  1  0  0  0  0
  7 19  1  0  0  0  0
  7 39  1  0  0  0  0
  8 20  1  0  0  0  0
  8 40  1  0  0  0  0
  9 21  1  0  0  0  0
  9 41  1  0  0  0  0
 10 24  1  0  0  0  0
 10 42  1  0  0  0  0
 11 25  1  0  0  0  0
 11 43  1  0  0  0  0
 12 24  2  0  0  0  0
 13 25  2  0  0  0  0
 14 15  1  0  0  0  0
 14 21  1  0  0  0  0
 14 26  1  0  0  0  0
 15 19  1  0  0  0  0
 15 27  1  0  0  0  0
 16 17  1  0  0  0  0
 16 28  1  0  0  0  0
 17 18  1  0  0  0  0
 17 29  1  0  0  0  0
 18 20  1  0  0  0  0
 18 30  1  0  0  0  0
 19 23  1  0  0  0  0
 19 31  1  0  0  0  0
 20 22  1  0  0  0  0
 20 32  1  0  0  0  0
 21 33  1  0  0  0  0
 22 24  1  0  0  0  0
 22 34  1  0  0  0  0
 23 25  1  0  0  0  0
 23 35  1  0  0  0  0
M  END
> <PUBCHEM_COMPOUND_CID>
46173727

> <PUBCHEM_CONFORMER_RMSD>
0.8

> <PUBCHEM_CONFORMER_DIVERSEORDER>
1
9
11
3
4
8
10
6
7
2
5

> <PUBCHEM_MMFF94_PARTIAL_CHARGES>
33
1 -0.56
10 -0.65
11 -0.65
12 -0.57
13 -0.57
14 0.28
15 0.28
16 0.56
17 0.28
18 0.28
19 0.28
2 -0.56
20 0.28
21 0.56
22 0.34
23 0.34
24 0.66
25 0.66
3 -0.56
36 0.4
37 0.4
38 0.4
39 0.4
4 -0.68
40 0.4
41 0.4
42 0.5
43 0.5
5 -0.68
6 -0.68
7 -0.68
8 -0.68
9 -0.68

> <PUBCHEM_EFFECTIVE_ROTOR_COUNT>
6.4

> <PUBCHEM_PHARMACOPHORE_FEATURES>
23
1 1 acceptor
1 10 acceptor
1 11 acceptor
1 12 acceptor
1 13 acceptor
1 2 acceptor
1 3 acceptor
1 4 acceptor
1 4 donor
1 5 acceptor
1 5 donor
1 6 acceptor
1 6 donor
1 7 acceptor
1 7 donor
1 8 acceptor
1 8 donor
1 9 acceptor
1 9 donor
3 10 12 24 anion
3 11 13 25 anion
6 2 16 17 18 20 22 rings
6 3 14 15 19 21 23 rings

> <PUBCHEM_HEAVY_ATOM_COUNT>
25

> <PUBCHEM_ATOM_DEF_STEREO_COUNT>
9

> <PUBCHEM_ATOM_UDEF_STEREO_COUNT>
1

> <PUBCHEM_BOND_DEF_STEREO_COUNT>
0

> <PUBCHEM_BOND_UDEF_STEREO_COUNT>
0

> <PUBCHEM_ISOTOPIC_ATOM_COUNT>
0

> <PUBCHEM_COMPONENT_COUNT>
1

> <PUBCHEM_CACTVS_TAUTO_COUNT>
1

> <PUBCHEM_CONFORMER_ID>
02C08E1F00000001

> <PUBCHEM_MMFF94_ENERGY>
60.9471

> <PUBCHEM_FEATURE_SELFOVERLAP>
116.98

> <PUBCHEM_SHAPE_FINGERPRINT>
10366900 7 18202279229721167718
11045977 3 18341893017566967909
11370993 144 18411136965549646637
11405975 8 18412263943408897771
11595378 159 16415207805314414669
12236239 1 16588030134048279399
12507560 40 18410570648315419987
12633257 1 18130240297453005576
13140716 1 18341058402321209832
13402501 40 18342457066916180254
13544592 145 18342452685812369327
13583140 156 17531535265542364339
14251764 38 18187920724991974841
14341114 176 18408599292538763689
14790565 3 17764864698311152708
14866123 147 16176793328863746730
17844677 252 18261385672464304307
1813 80 16487258733811110373
18785283 64 18341050710140635108
20157964 124 18333453149290610599
20645477 56 18343581850448043459
21033650 10 13913140393536692010
21065198 57 18411135827256901011
21065199 12 18339922619588948809
21503847 285 18408887351737165096
22122407 14 17603573124442977537
23558518 356 17981055107065086282
23559900 14 18411981364329978234
3493558 16 17172354748317178121
351380 180 18409168826893035273
474 4 18334580130912007432
49207404 50 18269272361611089330
495365 180 18186810157811910458
5104073 3 18341895177782687107
633830 44 18410583889757719895
8272917 22 18186800300967519654
9709674 26 18341328881944564779

> <PUBCHEM_SHAPE_MULTIPOLES>
438.19
11.39
2.92
1.04
6.3
0.74
0.03
2.07
-1.79
-2.4
-0.29
0.1
-0.02
1.77

> <PUBCHEM_SHAPE_SELFOVERLAP>
917.288

> <PUBCHEM_SHAPE_VOLUME>
241.1

> <PUBCHEM_COORDINATE_TYPE>
2
5
10

$$$$

