53297443
  -OEChem-07051213153D

 37 41  0     1  0  0  0  0  0999 V2000
   -3.4270    1.2762    0.4468 O   0  0  0  0  0  0  0  0  0  0  0  0
    0.2005   -1.7299    0.3601 O   0  0  0  0  0  0  0  0  0  0  0  0
   -4.7909   -0.3882   -0.5912 O   0  0  0  0  0  0  0  0  0  0  0  0
    4.3125   -1.4832   -1.2361 O   0  0  0  0  0  0  0  0  0  0  0  0
    0.9885    3.0725    0.0651 O   0  0  0  0  0  0  0  0  0  0  0  0
    1.9369   -3.2296    0.3019 O   0  0  0  0  0  0  0  0  0  0  0  0
   -2.7418   -1.0815    0.5203 C   0  0  1  0  0  0  0  0  0  0  0  0
   -1.6044   -0.1446    0.3972 C   0  0  0  0  0  0  0  0  0  0  0  0
    2.0677    0.3351    0.1438 C   0  0  0  0  0  0  0  0  0  0  0  0
    0.6600    0.6712    0.2182 C   0  0  0  0  0  0  0  0  0  0  0  0
    3.2093    1.2851    0.0231 C   0  0  0  0  0  0  0  0  0  0  0  0
   -3.9225   -0.0837    0.5262 C   0  0  1  0  0  0  0  0  0  0  0  0
    2.4761   -0.9355    0.1635 C   0  0  0  0  0  0  0  0  0  0  0  0
    3.9571   -1.0546    0.0688 C   0  0  2  0  0  0  0  0  0  0  0  0
   -0.2449   -0.3909    0.3246 C   0  0  0  0  0  0  0  0  0  0  0  0
    4.4200    0.3865    0.3187 C   0  0  0  0  0  0  0  0  0  0  0  0
   -2.0647    1.1601    0.3692 C   0  0  0  0  0  0  0  0  0  0  0  0
    0.1704    1.9881    0.1864 C   0  0  0  0  0  0  0  0  0  0  0  0
   -3.0468   -1.8901   -0.6787 C   0  0  0  0  0  0  0  0  0  0  0  0
   -1.2040    2.2390    0.2637 C   0  0  0  0  0  0  0  0  0  0  0  0
    1.5516   -2.0671    0.2784 C   0  0  0  0  0  0  0  0  0  0  0  0
   -4.1810   -1.4541   -1.2125 C   0  0  0  0  0  0  0  0  0  0  0  0
    1.2776    3.5193   -1.2576 C   0  0  0  0  0  0  0  0  0  0  0  0
   -2.7027   -1.6712    1.4409 H   0  0  0  0  0  0  0  0  0  0  0  0
    3.2861    1.6849   -0.9921 H   0  0  0  0  0  0  0  0  0  0  0  0
    3.1801    2.1040    0.7472 H   0  0  0  0  0  0  0  0  0  0  0  0
   -4.5150   -0.1737    1.4453 H   0  0  0  0  0  0  0  0  0  0  0  0
    4.3764   -1.7465    0.8057 H   0  0  0  0  0  0  0  0  0  0  0  0
    5.2851    0.6726   -0.2887 H   0  0  0  0  0  0  0  0  0  0  0  0
    4.6971    0.5026    1.3748 H   0  0  0  0  0  0  0  0  0  0  0  0
   -2.4576   -2.7142   -1.0509 H   0  0  0  0  0  0  0  0  0  0  0  0
   -1.5889    3.2537    0.2385 H   0  0  0  0  0  0  0  0  0  0  0  0
   -4.6925   -1.8238   -2.0831 H   0  0  0  0  0  0  0  0  0  0  0  0
    5.2829   -1.4639   -1.2949 H   0  0  0  0  0  0  0  0  0  0  0  0
    2.2160    4.0802   -1.2362 H   0  0  0  0  0  0  0  0  0  0  0  0
    0.4800    4.1878   -1.5960 H   0  0  0  0  0  0  0  0  0  0  0  0
    1.3756    2.6868   -1.9621 H   0  0  0  0  0  0  0  0  0  0  0  0
  1 12  1  0  0  0  0
  1 17  1  0  0  0  0
  2 15  1  0  0  0  0
  2 21  1  0  0  0  0
  3 12  1  0  0  0  0
  3 22  1  0  0  0  0
  4 14  1  0  0  0  0
  4 34  1  0  0  0  0
  5 18  1  0  0  0  0
  5 23  1  0  0  0  0
  6 21  2  0  0  0  0
  7  8  1  0  0  0  0
  7 12  1  0  0  0  0
  7 19  1  0  0  0  0
  7 24  1  0  0  0  0
  8 15  2  0  0  0  0
  8 17  1  0  0  0  0
  9 10  1  0  0  0  0
  9 11  1  0  0  0  0
  9 13  2  0  0  0  0
 10 15  1  0  0  0  0
 10 18  2  0  0  0  0
 11 16  1  0  0  0  0
 11 25  1  0  0  0  0
 11 26  1  0  0  0  0
 12 27  1  0  0  0  0
 13 14  1  0  0  0  0
 13 21  1  0  0  0  0
 14 16  1  0  0  0  0
 14 28  1  0  0  0  0
 16 29  1  0  0  0  0
 16 30  1  0  0  0  0
 17 20  2  0  0  0  0
 18 20  1  0  0  0  0
 19 22  2  0  0  0  0
 19 31  1  0  0  0  0
 20 32  1  0  0  0  0
 22 33  1  0  0  0  0
 23 35  1  0  0  0  0
 23 36  1  0  0  0  0
 23 37  1  0  0  0  0
M  END
> <PUBCHEM_COMPOUND_CID>
53297443

> <PUBCHEM_CONFORMER_RMSD>
0.6

> <PUBCHEM_CONFORMER_DIVERSEORDER>
2
1

> <PUBCHEM_MMFF94_PARTIAL_CHARGES>
26
1 -0.36
10 0.03
11 0.14
12 0.56
13 -0.12
14 0.42
15 0.08
17 0.08
18 0.08
19 -0.29
2 -0.23
20 -0.15
21 0.71
22 -0.07
23 0.28
3 -0.36
31 0.15
32 0.15
33 0.15
34 0.4
4 -0.68
5 -0.36
6 -0.57
7 0.28
8 -0.14
9 -0.17

> <PUBCHEM_EFFECTIVE_ROTOR_COUNT>
2

> <PUBCHEM_PHARMACOPHORE_FEATURES>
11
1 1 acceptor
1 3 acceptor
1 4 acceptor
1 4 donor
1 5 acceptor
1 6 acceptor
5 1 7 8 12 17 rings
5 3 7 12 19 22 rings
5 9 11 13 14 16 rings
6 2 9 10 13 15 21 rings
6 8 10 15 17 18 20 rings

> <PUBCHEM_HEAVY_ATOM_COUNT>
23

> <PUBCHEM_ATOM_DEF_STEREO_COUNT>
2

> <PUBCHEM_ATOM_UDEF_STEREO_COUNT>
1

> <PUBCHEM_BOND_DEF_STEREO_COUNT>
0

> <PUBCHEM_BOND_UDEF_STEREO_COUNT>
0

> <PUBCHEM_ISOTOPIC_ATOM_COUNT>
0

> <PUBCHEM_COMPONENT_COUNT>
1

> <PUBCHEM_CACTVS_TAUTO_COUNT>
1

> <PUBCHEM_CONFORMER_ID>
032D412300000002

> <PUBCHEM_MMFF94_ENERGY>
85.7197

> <PUBCHEM_FEATURE_SELFOVERLAP>
56.569

> <PUBCHEM_SHAPE_FINGERPRINT>
10616163 171 18334574689415660383
10967382 1 18411417306464937818
1100329 8 18122630457234069938
11806522 49 18334862666777321105
12236239 1 17894908512973403523
12553582 1 18412825815241144731
12596599 1 17750216140784268658
12839892 36 18193578846351765978
13004483 165 18195820788872004451
13140716 1 18194957435926027859
13224815 77 18335991942597160226
13583140 156 14346079792684925387
14081887 123 18188788260718646472
14223421 5 18193841680985190930
14787075 74 17969509208296705608
14790565 3 18268137678818821580
15196674 1 18409166627468885720
15536298 74 18261110772829335874
16945 1 18341323405897789489
17349148 13 18202286922218416330
17357779 13 18271260364618188541
17492 54 18058721391488861252
17492 89 18263643957326036319
19141452 34 18114177571038029673
19591789 44 18409448102878515690
200 152 18260272923663036363
20645477 70 18199755734982430209
20739085 24 17545003441148535985
20905425 154 18121497127313302046
21029758 11 18408888408156838097
21267235 1 18408876348152499323
21421861 104 17913491517306973026
21634736 98 18264491693580397319
221490 88 18124593089879666907
2255824 54 18269273469538831592
2334 1 18339641255986105723
23388829 49 18409165502345917537
23402539 116 18409454691442503374
23559900 14 18337117769484427073
2748010 2 18267586999158885088
2871803 45 18410859879765826782
335352 9 18337952406527002261
34934 24 18339928237385150937
4280585 95 17322660230034693030
46194498 28 17916319238307661325
474 4 18270401572763643816
5104073 3 18408040731857076259
6443956 14 18410295783003786188
7364860 26 18265052440110393041
9709674 26 18409724092839292954
9981440 41 17329437138117676265

> <PUBCHEM_SHAPE_MULTIPOLES>
438.11
8.11
3.29
0.9
1.98
1.36
0.23
-3.15
1.35
-1.57
0.62
0.19
0.03
-0.66

> <PUBCHEM_SHAPE_SELFOVERLAP>
1003.177

> <PUBCHEM_SHAPE_VOLUME>
227.6

> <PUBCHEM_COORDINATE_TYPE>
2
5
10

$$$$

