442957
  -OEChem-07051213003D

 40 43  0     1  0  0  0  0  0999 V2000
   -4.7800   -1.5593    0.0734 O   0  0  0  0  0  0  0  0  0  0  0  0
    1.8590   -0.7838    0.4700 N   0  0  1  0  0  0  0  0  0  0  0  0
   -1.6753    1.0809    0.1020 N   0  0  3  0  0  0  0  0  0  0  0  0
    0.9042    1.5737   -0.2802 C   0  0  1  0  0  0  0  0  0  0  0  0
   -0.0869   -0.4368   -0.8773 C   0  0  1  0  0  0  0  0  0  0  0  0
    2.0605    0.7021    0.4197 C   0  0  2  0  0  0  0  0  0  0  0  0
    0.5177    0.8113   -1.5191 C   0  0  0  0  0  0  0  0  0  0  0  0
   -1.5694   -0.1662   -0.7553 C   0  0  1  0  0  0  0  0  0  0  0  0
    1.0317   -1.4242   -0.5970 C   0  0  0  0  0  0  0  0  0  0  0  0
   -0.4294    1.8405    0.5359 C   0  0  0  0  0  0  0  0  0  0  0  0
    3.4101    1.0514   -0.2601 C   0  0  0  0  0  0  0  0  0  0  0  0
    2.9938   -1.5727    0.9230 C   0  0  0  0  0  0  0  0  0  0  0  0
    4.5813    0.2485    0.2921 C   0  0  0  0  0  0  0  0  0  0  0  0
   -2.3952   -1.2929   -0.1361 C   0  0  0  0  0  0  0  0  0  0  0  0
    4.2869   -1.2405    0.1915 C   0  0  0  0  0  0  0  0  0  0  0  0
   -2.9175    1.3935    0.6247 C   0  0  0  0  0  0  0  0  0  0  0  0
   -3.8082   -0.8111    0.1539 C   0  0  0  0  0  0  0  0  0  0  0  0
   -3.9833    0.5854    0.6390 C   0  0  0  0  0  0  0  0  0  0  0  0
    1.3261    2.5514   -0.5444 H   0  0  0  0  0  0  0  0  0  0  0  0
   -0.2931   -0.9981   -1.8179 H   0  0  0  0  0  0  0  0  0  0  0  0
    2.1249    1.0463    1.4605 H   0  0  0  0  0  0  0  0  0  0  0  0
   -0.1883    1.3821   -2.1358 H   0  0  0  0  0  0  0  0  0  0  0  0
    1.3682    0.5879   -2.1720 H   0  0  0  0  0  0  0  0  0  0  0  0
   -2.0167    0.0947   -1.7276 H   0  0  0  0  0  0  0  0  0  0  0  0
    0.6223   -2.3698   -0.2249 H   0  0  0  0  0  0  0  0  0  0  0  0
    1.6570   -1.6272   -1.4761 H   0  0  0  0  0  0  0  0  0  0  0  0
   -0.2515    1.6346    1.5979 H   0  0  0  0  0  0  0  0  0  0  0  0
   -0.6572    2.9106    0.4495 H   0  0  0  0  0  0  0  0  0  0  0  0
    3.6212    2.1194   -0.1253 H   0  0  0  0  0  0  0  0  0  0  0  0
    3.3548    0.8772   -1.3408 H   0  0  0  0  0  0  0  0  0  0  0  0
    2.7849   -2.6462    0.8405 H   0  0  0  0  0  0  0  0  0  0  0  0
    3.1350   -1.3841    1.9950 H   0  0  0  0  0  0  0  0  0  0  0  0
    4.7613    0.5255    1.3379 H   0  0  0  0  0  0  0  0  0  0  0  0
    5.4930    0.4873   -0.2667 H   0  0  0  0  0  0  0  0  0  0  0  0
   -1.9579   -1.6371    0.8082 H   0  0  0  0  0  0  0  0  0  0  0  0
   -2.4432   -2.1409   -0.8276 H   0  0  0  0  0  0  0  0  0  0  0  0
    4.2116   -1.5371   -0.8618 H   0  0  0  0  0  0  0  0  0  0  0  0
    5.1153   -1.8099    0.6278 H   0  0  0  0  0  0  0  0  0  0  0  0
   -2.9696    2.3881    1.0533 H   0  0  0  0  0  0  0  0  0  0  0  0
   -4.9407    0.8875    1.0433 H   0  0  0  0  0  0  0  0  0  0  0  0
  1 17  2  0  0  0  0
  2  6  1  0  0  0  0
  2  9  1  0  0  0  0
  2 12  1  0  0  0  0
  3  8  1  0  0  0  0
  3 10  1  0  0  0  0
  3 16  1  0  0  0  0
  4  6  1  0  0  0  0
  4  7  1  0  0  0  0
  4 10  1  0  0  0  0
  4 19  1  0  0  0  0
  5  7  1  0  0  0  0
  5  8  1  0  0  0  0
  5  9  1  0  0  0  0
  5 20  1  0  0  0  0
  6 11  1  0  0  0  0
  6 21  1  0  0  0  0
  7 22  1  0  0  0  0
  7 23  1  0  0  0  0
  8 14  1  0  0  0  0
  8 24  1  0  0  0  0
  9 25  1  0  0  0  0
  9 26  1  0  0  0  0
 10 27  1  0  0  0  0
 10 28  1  0  0  0  0
 11 13  1  0  0  0  0
 11 29  1  0  0  0  0
 11 30  1  0  0  0  0
 12 15  1  0  0  0  0
 12 31  1  0  0  0  0
 12 32  1  0  0  0  0
 13 15  1  0  0  0  0
 13 33  1  0  0  0  0
 13 34  1  0  0  0  0
 14 17  1  0  0  0  0
 14 35  1  0  0  0  0
 14 36  1  0  0  0  0
 15 37  1  0  0  0  0
 15 38  1  0  0  0  0
 16 18  2  0  0  0  0
 16 39  1  0  0  0  0
 17 18  1  0  0  0  0
 18 40  1  0  0  0  0
M  END
> <PUBCHEM_COMPOUND_CID>
442957

> <PUBCHEM_CONFORMER_RMSD>
0.6

> <PUBCHEM_CONFORMER_DIVERSEORDER>
1
2

> <PUBCHEM_MMFF94_PARTIAL_CHARGES>
14
1 -0.57
10 0.37
12 0.27
14 0.06
16 -0.05
17 0.49
18 -0.14
2 -0.81
3 -0.84
39 0.15
40 0.15
6 0.27
8 0.37
9 0.27

> <PUBCHEM_EFFECTIVE_ROTOR_COUNT>
1.6

> <PUBCHEM_PHARMACOPHORE_FEATURES>
7
1 1 acceptor
1 2 cation
1 3 cation
6 2 4 5 6 7 9 rings
6 2 6 11 12 13 15 rings
6 3 4 5 7 8 10 rings
6 3 8 14 16 17 18 rings

> <PUBCHEM_HEAVY_ATOM_COUNT>
18

> <PUBCHEM_ATOM_DEF_STEREO_COUNT>
4

> <PUBCHEM_ATOM_UDEF_STEREO_COUNT>
0

> <PUBCHEM_BOND_DEF_STEREO_COUNT>
0

> <PUBCHEM_BOND_UDEF_STEREO_COUNT>
0

> <PUBCHEM_ISOTOPIC_ATOM_COUNT>
0

> <PUBCHEM_COMPONENT_COUNT>
1

> <PUBCHEM_CACTVS_TAUTO_COUNT>
2

> <PUBCHEM_CONFORMER_ID>
0006C24D00000001

> <PUBCHEM_MMFF94_ENERGY>
97.8221

> <PUBCHEM_FEATURE_SELFOVERLAP>
36.364

> <PUBCHEM_SHAPE_FINGERPRINT>
10062212 137 18334579031875139743
11132069 177 18337116747550949912
11578080 2 18200053779490237157
11806522 49 18343582914929909458
12011746 2 18407762538340893487
12107183 9 17762055840689433162
12119455 92 15864073195302773652
12236239 1 18412541007760163348
12251169 10 18408887355799828767
12382932 28 18188486986179966977
12670546 56 18260835873173385097
12892183 10 18259991469950165904
13221675 6 18334297578193995420
13296908 3 17560529494171475012
13544653 18 18131348626426944363
13675066 3 17749395892467437602
14178342 30 17968921111552138313
14341114 176 18409722954699002059
14787075 74 18343017749200728992
14943859 89 16515689944210407862
15196674 1 18409448098150642008
15209289 33 18343302573951471146
15309172 13 16805327712109070204
15375462 189 18413110562961608480
15375462 478 18333452049320105469
15536298 74 18408040715146587520
16945 1 18335998479547947196
17804303 29 18261109685944276864
1813 80 17774998029352464934
19422 9 18411980273782928840
19862831 5 11167941363820606015
200 152 18261122846441406087
20261772 1 17967817115303518839
20281475 54 18200599206361276642
21267235 1 18410284805104015026
21501925 9 18410573972641102231
22445834 79 18411422799585664891
231179 274 5689321178899925139
232386 152 18409442575107503653
23402539 116 18040723541656760079
23463225 33 18410292514607104764
23557571 272 16515677824155745807
23559900 14 17971183983380335510
25 1 6843924966377962124
26918003 58 18201441350727149491
2748010 2 17469318600788109036
2871803 45 17988933274880373778
465052 167 18335697179324282895
5104073 3 18408322202544068265
53655031 270 18408322185612195916
76465 3 17489039265730262306
83771 10 18130792273780672966

> <PUBCHEM_SHAPE_MULTIPOLES>
354.6
8.41
1.89
0.99
0.8
0.02
0.19
-2.45
-2.03
0.15
-0.17
-0.1
0.06
-0.58

> <PUBCHEM_SHAPE_SELFOVERLAP>
752.136

> <PUBCHEM_SHAPE_VOLUME>
193.5

> <PUBCHEM_COORDINATE_TYPE>
2
5
10

$$$$

