586332
  -OEChem-06241222463D

 28 28  0     0  0  0  0  0  0999 V2000
    1.8072   -0.8194   -0.8385 O   0  0  0  0  0  0  0  0  0  0  0  0
    1.8094    0.8037    0.8388 O   0  0  0  0  0  0  0  0  0  0  0  0
   -2.0279   -0.0013   -0.0002 C   0  0  0  0  0  0  0  0  0  0  0  0
    0.9842   -0.0065    0.0000 C   0  0  0  0  0  0  0  0  0  0  0  0
   -1.1861   -0.8839    0.9012 C   0  0  0  0  0  0  0  0  0  0  0  0
   -1.1829    0.8783   -0.9017 C   0  0  0  0  0  0  0  0  0  0  0  0
    0.1552   -0.8839    0.8997 C   0  0  0  0  0  0  0  0  0  0  0  0
    0.1583    0.8737   -0.8999 C   0  0  0  0  0  0  0  0  0  0  0  0
   -2.9167   -0.8974   -0.8776 C   0  0  0  0  0  0  0  0  0  0  0  0
   -2.9136    0.8980    0.8773 C   0  0  0  0  0  0  0  0  0  0  0  0
    2.6820   -1.6298   -0.0704 C   0  0  0  0  0  0  0  0  0  0  0  0
    2.6309    1.6686    0.0712 C   0  0  0  0  0  0  0  0  0  0  0  0
   -1.7050   -1.5391    1.5973 H   0  0  0  0  0  0  0  0  0  0  0  0
   -1.6995    1.5341   -1.5989 H   0  0  0  0  0  0  0  0  0  0  0  0
    0.6547   -1.5247    1.6216 H   0  0  0  0  0  0  0  0  0  0  0  0
    0.6585    1.5103   -1.6253 H   0  0  0  0  0  0  0  0  0  0  0  0
   -3.5661   -1.5368   -0.2675 H   0  0  0  0  0  0  0  0  0  0  0  0
   -2.3165   -1.5541   -1.5194 H   0  0  0  0  0  0  0  0  0  0  0  0
   -3.5652   -0.3011   -1.5308 H   0  0  0  0  0  0  0  0  0  0  0  0
   -3.5643    0.3040    1.5304 H   0  0  0  0  0  0  0  0  0  0  0  0
   -3.5606    1.5399    0.2672 H   0  0  0  0  0  0  0  0  0  0  0  0
   -2.3110    1.5524    1.5193 H   0  0  0  0  0  0  0  0  0  0  0  0
    2.1627   -2.5072    0.3264 H   0  0  0  0  0  0  0  0  0  0  0  0
    3.2009   -1.0932    0.7293 H   0  0  0  0  0  0  0  0  0  0  0  0
    3.4507   -2.0093   -0.7516 H   0  0  0  0  0  0  0  0  0  0  0  0
    3.4296    2.0246    0.7302 H   0  0  0  0  0  0  0  0  0  0  0  0
    2.0769    2.5565   -0.2484 H   0  0  0  0  0  0  0  0  0  0  0  0
    3.1121    1.1823   -0.7828 H   0  0  0  0  0  0  0  0  0  0  0  0
  1  4  1  0  0  0  0
  1 11  1  0  0  0  0
  2  4  1  0  0  0  0
  2 12  1  0  0  0  0
  3  5  1  0  0  0  0
  3  6  1  0  0  0  0
  3  9  1  0  0  0  0
  3 10  1  0  0  0  0
  4  7  1  0  0  0  0
  4  8  1  0  0  0  0
  5  7  2  0  0  0  0
  5 13  1  0  0  0  0
  6  8  2  0  0  0  0
  6 14  1  0  0  0  0
  7 15  1  0  0  0  0
  8 16  1  0  0  0  0
  9 17  1  0  0  0  0
  9 18  1  0  0  0  0
  9 19  1  0  0  0  0
 10 20  1  0  0  0  0
 10 21  1  0  0  0  0
 10 22  1  0  0  0  0
 11 23  1  0  0  0  0
 11 24  1  0  0  0  0
 11 25  1  0  0  0  0
 12 26  1  0  0  0  0
 12 27  1  0  0  0  0
 12 28  1  0  0  0  0
M  END
> <PUBCHEM_COMPOUND_CID>
586332

> <PUBCHEM_CONFORMER_RMSD>
0.6

> <PUBCHEM_CONFORMER_DIVERSEORDER>
1
2
3

> <PUBCHEM_MMFF94_PARTIAL_CHARGES>
14
1 -0.56
11 0.28
12 0.28
13 0.15
14 0.15
15 0.15
16 0.15
2 -0.56
3 0.28
4 0.84
5 -0.29
6 -0.29
7 -0.29
8 -0.29

> <PUBCHEM_EFFECTIVE_ROTOR_COUNT>
2.4

> <PUBCHEM_PHARMACOPHORE_FEATURES>
4
1 1 acceptor
1 2 acceptor
3 3 9 10 hydrophobe
6 3 4 5 6 7 8 rings

> <PUBCHEM_HEAVY_ATOM_COUNT>
12

> <PUBCHEM_ATOM_DEF_STEREO_COUNT>
0

> <PUBCHEM_ATOM_UDEF_STEREO_COUNT>
0

> <PUBCHEM_BOND_DEF_STEREO_COUNT>
0

> <PUBCHEM_BOND_UDEF_STEREO_COUNT>
0

> <PUBCHEM_ISOTOPIC_ATOM_COUNT>
0

> <PUBCHEM_COMPONENT_COUNT>
1

> <PUBCHEM_CACTVS_TAUTO_COUNT>
1

> <PUBCHEM_CONFORMER_ID>
0008F25C00000001

> <PUBCHEM_MMFF94_ENERGY>
30.0897

> <PUBCHEM_FEATURE_SELFOVERLAP>
20.341

> <PUBCHEM_SHAPE_FINGERPRINT>
10353120 184 17346022489411676215
10857977 72 17060043844628609601
11769659 78 18040727960724888167
12423570 1 9251496165608978923
12491281 212 18187634804454658513
12524768 44 18131632244581766677
12932764 1 18340766034974977823
15219456 202 18342177765303613120
15310529 11 17458348507211159809
16945 1 17203610389065391881
18511873 20 17970902491160127177
20645464 45 18131354076793314040
20715346 28 17918269835953591241
21040471 1 17561086937992698891
21501502 16 18334295366016689156
21922407 69 17385988555812547907
23235687 12 18186803616450072511
23419403 2 14175321144587584241
23552423 10 18408044030539833471
2748010 2 17917137300127409355
29004967 10 17823140193034738414
3248919 1 17458631146108190085
369184 2 18113336410151186857
5084963 1 18130783499072842487
528886 8 17416950889186885259
9939556 21 18041278858920597987

> <PUBCHEM_SHAPE_MULTIPOLES>
235.22
4.42
1.57
1.11
0.3
0.02
0
-0.02
0
-0.92
0
0.36
0
0.04

> <PUBCHEM_SHAPE_SELFOVERLAP>
474.032

> <PUBCHEM_SHAPE_VOLUME>
139.2

> <PUBCHEM_COORDINATE_TYPE>
2
5
10

$$$$

