5283159
  -OEChem-07051213052D

 53 52  0     0  0  0  0  0  0999 V2000
    6.8671    1.9400    0.0000 O   0  0  0  0  0  0  0  0  0  0  0  0
    2.5369    3.4400    0.0000 O   0  0  0  0  0  0  0  0  0  0  0  0
    3.4030    1.9400    0.0000 O   0  0  0  0  0  0  0  0  0  0  0  0
    7.7331   -1.5600    0.0000 C   0  0  0  0  0  0  0  0  0  0  0  0
    7.7331   -2.5600    0.0000 C   0  0  0  0  0  0  0  0  0  0  0  0
    8.5991   -1.0600    0.0000 C   0  0  0  0  0  0  0  0  0  0  0  0
    6.8671   -3.0600    0.0000 C   0  0  0  0  0  0  0  0  0  0  0  0
    9.4651   -1.5600    0.0000 C   0  0  0  0  0  0  0  0  0  0  0  0
    6.8671   -4.0600    0.0000 C   0  0  0  0  0  0  0  0  0  0  0  0
   10.3312   -1.0600    0.0000 C   0  0  0  0  0  0  0  0  0  0  0  0
    5.1350    2.9400    0.0000 C   0  0  0  0  0  0  0  0  0  0  0  0
    6.0010    3.4400    0.0000 C   0  0  0  0  0  0  0  0  0  0  0  0
   10.3312   -0.0600    0.0000 C   0  0  0  0  0  0  0  0  0  0  0  0
    4.2690    3.4400    0.0000 C   0  0  0  0  0  0  0  0  0  0  0  0
   11.1972    0.4400    0.0000 C   0  0  0  0  0  0  0  0  0  0  0  0
    6.8671    2.9400    0.0000 C   0  0  0  0  0  0  0  0  0  0  0  0
   11.1972    1.4400    0.0000 C   0  0  0  0  0  0  0  0  0  0  0  0
   10.3312    1.9400    0.0000 C   0  0  0  0  0  0  0  0  0  0  0  0
    3.4030    2.9400    0.0000 C   0  0  0  0  0  0  0  0  0  0  0  0
    7.7331    3.4400    0.0000 C   0  0  0  0  0  0  0  0  0  0  0  0
   10.3312    2.9400    0.0000 C   0  0  0  0  0  0  0  0  0  0  0  0
    8.5991    2.9400    0.0000 C   0  0  0  0  0  0  0  0  0  0  0  0
    9.4651    3.4400    0.0000 C   0  0  0  0  0  0  0  0  0  0  0  0
    7.5210   -0.9774    0.0000 H   0  0  0  0  0  0  0  0  0  0  0  0
    7.1225   -1.6677    0.0000 H   0  0  0  0  0  0  0  0  0  0  0  0
    7.9451   -3.1426    0.0000 H   0  0  0  0  0  0  0  0  0  0  0  0
    8.3437   -2.4523    0.0000 H   0  0  0  0  0  0  0  0  0  0  0  0
    8.9976   -0.5851    0.0000 H   0  0  0  0  0  0  0  0  0  0  0  0
    8.2006   -0.5851    0.0000 H   0  0  0  0  0  0  0  0  0  0  0  0
    6.6550   -2.4774    0.0000 H   0  0  0  0  0  0  0  0  0  0  0  0
    6.2565   -3.1677    0.0000 H   0  0  0  0  0  0  0  0  0  0  0  0
    9.4651   -2.1800    0.0000 H   0  0  0  0  0  0  0  0  0  0  0  0
    6.2471   -4.0600    0.0000 H   0  0  0  0  0  0  0  0  0  0  0  0
    6.8671   -4.6800    0.0000 H   0  0  0  0  0  0  0  0  0  0  0  0
    7.4871   -4.0600    0.0000 H   0  0  0  0  0  0  0  0  0  0  0  0
   10.8681   -1.3700    0.0000 H   0  0  0  0  0  0  0  0  0  0  0  0
    4.7365    2.4651    0.0000 H   0  0  0  0  0  0  0  0  0  0  0  0
    5.5335    2.4651    0.0000 H   0  0  0  0  0  0  0  0  0  0  0  0
    6.3996    3.9150    0.0000 H   0  0  0  0  0  0  0  0  0  0  0  0
    5.6025    3.9150    0.0000 H   0  0  0  0  0  0  0  0  0  0  0  0
   10.1191    0.5226    0.0000 H   0  0  0  0  0  0  0  0  0  0  0  0
    9.7206   -0.1677    0.0000 H   0  0  0  0  0  0  0  0  0  0  0  0
    4.6675    3.9150    0.0000 H   0  0  0  0  0  0  0  0  0  0  0  0
    3.8705    3.9150    0.0000 H   0  0  0  0  0  0  0  0  0  0  0  0
   11.7341    0.1300    0.0000 H   0  0  0  0  0  0  0  0  0  0  0  0
   11.7341    1.7500    0.0000 H   0  0  0  0  0  0  0  0  0  0  0  0
    9.7206    2.0477    0.0000 H   0  0  0  0  0  0  0  0  0  0  0  0
   10.1191    1.3574    0.0000 H   0  0  0  0  0  0  0  0  0  0  0  0
    7.7331    4.0600    0.0000 H   0  0  0  0  0  0  0  0  0  0  0  0
   10.8681    3.2500    0.0000 H   0  0  0  0  0  0  0  0  0  0  0  0
    8.5991    2.3200    0.0000 H   0  0  0  0  0  0  0  0  0  0  0  0
    9.4651    4.0600    0.0000 H   0  0  0  0  0  0  0  0  0  0  0  0
    2.0000    3.1300    0.0000 H   0  0  0  0  0  0  0  0  0  0  0  0
  1 16  2  0  0  0  0
  2 19  1  0  0  0  0
  2 53  1  0  0  0  0
  3 19  2  0  0  0  0
  4  5  1  0  0  0  0
  4  6  1  0  0  0  0
  4 24  1  0  0  0  0
  4 25  1  0  0  0  0
  5  7  1  0  0  0  0
  5 26  1  0  0  0  0
  5 27  1  0  0  0  0
  6  8  1  0  0  0  0
  6 28  1  0  0  0  0
  6 29  1  0  0  0  0
  7  9  1  0  0  0  0
  7 30  1  0  0  0  0
  7 31  1  0  0  0  0
  8 10  2  0  0  0  0
  8 32  1  0  0  0  0
  9 33  1  0  0  0  0
  9 34  1  0  0  0  0
  9 35  1  0  0  0  0
 10 13  1  0  0  0  0
 10 36  1  0  0  0  0
 11 12  1  0  0  0  0
 11 14  1  0  0  0  0
 11 37  1  0  0  0  0
 11 38  1  0  0  0  0
 12 16  1  0  0  0  0
 12 39  1  0  0  0  0
 12 40  1  0  0  0  0
 13 15  1  0  0  0  0
 13 41  1  0  0  0  0
 13 42  1  0  0  0  0
 14 19  1  0  0  0  0
 14 43  1  0  0  0  0
 14 44  1  0  0  0  0
 15 17  2  0  0  0  0
 15 45  1  0  0  0  0
 16 20  1  0  0  0  0
 17 18  1  0  0  0  0
 17 46  1  0  0  0  0
 18 21  1  0  0  0  0
 18 47  1  0  0  0  0
 18 48  1  0  0  0  0
 20 22  2  0  0  0  0
 20 49  1  0  0  0  0
 21 23  2  0  0  0  0
 21 50  1  0  0  0  0
 22 23  1  0  0  0  0
 22 51  1  0  0  0  0
 23 52  1  0  0  0  0
M  END
> <PUBCHEM_COMPOUND_CID>
5283159

> <PUBCHEM_COMPOUND_CANONICALIZED>
1

> <PUBCHEM_CACTVS_COMPLEXITY>
428

> <PUBCHEM_CACTVS_HBOND_ACCEPTOR>
3

> <PUBCHEM_CACTVS_HBOND_DONOR>
1

> <PUBCHEM_CACTVS_ROTATABLE_BOND>
14

> <PUBCHEM_CACTVS_SUBSKEYS>
AAADceB4MAAAAAAAAAAAAAAAAAAAAAAAAAAAAAAAAAAAAAAAAAAAGgAACAAACASAgAACCAAAAgCIAKDSCAAAAAAgAAAICAEAAEgIABIAAQAAQAAEgAAIgYOITgAgAAAAAAAAAAAAAAAAAAAAAAAAAAAAAA==

> <PUBCHEM_IUPAC_OPENEYE_NAME>
(6E,8Z,11Z,14Z)-5-oxoicosa-6,8,11,14-tetraenoic acid

> <PUBCHEM_IUPAC_CAS_NAME>
(6E,8Z,11Z,14Z)-5-oxoeicosa-6,8,11,14-tetraenoic acid

> <PUBCHEM_IUPAC_NAME>
(6E,8Z,11Z,14Z)-5-oxoicosa-6,8,11,14-tetraenoic acid

> <PUBCHEM_IUPAC_SYSTEMATIC_NAME>
(6E,8Z,11Z,14Z)-5-oxidanylideneicosa-6,8,11,14-tetraenoic acid

> <PUBCHEM_IUPAC_TRADITIONAL_NAME>
(6E,8Z,11Z,14Z)-5-ketoeicosa-6,8,11,14-tetraenoic acid

> <PUBCHEM_IUPAC_INCHI>
InChI=1S/C20H30O3/c1-2-3-4-5-6-7-8-9-10-11-12-13-14-16-19(21)17-15-18-20(22)23/h6-7,9-10,12-14,16H,2-5,8,11,15,17-18H2,1H3,(H,22,23)/b7-6-,10-9-,13-12-,16-14+

> <PUBCHEM_IUPAC_INCHIKEY>
MEASLHGILYBXFO-XTDASVJISA-N

> <PUBCHEM_XLOGP3_AA>
5.1

> <PUBCHEM_EXACT_MASS>
318.219495

> <PUBCHEM_MOLECULAR_FORMULA>
C20H30O3

> <PUBCHEM_MOLECULAR_WEIGHT>
318.4504

> <PUBCHEM_OPENEYE_CAN_SMILES>
CCCCCC=CCC=CCC=CC=CC(=O)CCCC(=O)O

> <PUBCHEM_OPENEYE_ISO_SMILES>
CCCCC/C=C\C/C=C\C/C=C\C=C\C(=O)CCCC(=O)O

> <PUBCHEM_CACTVS_TPSA>
54.4

> <PUBCHEM_MONOISOTOPIC_WEIGHT>
318.219495

> <PUBCHEM_TOTAL_CHARGE>
0

> <PUBCHEM_HEAVY_ATOM_COUNT>
23

> <PUBCHEM_ATOM_DEF_STEREO_COUNT>
0

> <PUBCHEM_ATOM_UDEF_STEREO_COUNT>
0

> <PUBCHEM_BOND_DEF_STEREO_COUNT>
4

> <PUBCHEM_BOND_UDEF_STEREO_COUNT>
0

> <PUBCHEM_ISOTOPIC_ATOM_COUNT>
0

> <PUBCHEM_COMPONENT_COUNT>
1

> <PUBCHEM_CACTVS_TAUTO_COUNT>
7

> <PUBCHEM_COORDINATE_TYPE>
1
5
255

$$$$

