10808
  -OEChem-06261204593D

 14 13  0     0  0  0  0  0  0999 V2000
   -1.8390    1.6572   -0.6766 Cl  0  0  0  0  0  0  0  0  0  0  0  0
   -2.7338   -0.7484    0.7052 Cl  0  0  0  0  0  0  0  0  0  0  0  0
    0.9444    0.2547    0.3025 O   0  0  0  0  0  0  0  0  0  0  0  0
   -0.2671   -1.3310   -0.8497 O   0  0  0  0  0  0  0  0  0  0  0  0
    2.1597   -0.3206   -0.1880 C   0  0  0  0  0  0  0  0  0  0  0  0
    3.3327    0.4654    0.3580 C   0  0  0  0  0  0  0  0  0  0  0  0
   -0.2070   -0.3564   -0.1115 C   0  0  0  0  0  0  0  0  0  0  0  0
   -1.3899    0.3791    0.4601 C   0  0  0  0  0  0  0  0  0  0  0  0
    2.2282   -1.3638    0.1400 H   0  0  0  0  0  0  0  0  0  0  0  0
    2.1658   -0.2820   -1.2829 H   0  0  0  0  0  0  0  0  0  0  0  0
    4.2803    0.0517    0.0020 H   0  0  0  0  0  0  0  0  0  0  0  0
    3.2683    1.5152    0.0534 H   0  0  0  0  0  0  0  0  0  0  0  0
    3.3298    0.4514    1.4529 H   0  0  0  0  0  0  0  0  0  0  0  0
   -1.1435    0.8192    1.4306 H   0  0  0  0  0  0  0  0  0  0  0  0
  1  8  1  0  0  0  0
  2  8  1  0  0  0  0
  3  5  1  0  0  0  0
  3  7  1  0  0  0  0
  4  7  2  0  0  0  0
  5  6  1  0  0  0  0
  5  9  1  0  0  0  0
  5 10  1  0  0  0  0
  6 11  1  0  0  0  0
  6 12  1  0  0  0  0
  6 13  1  0  0  0  0
  7  8  1  0  0  0  0
  8 14  1  0  0  0  0
M  END
> <PUBCHEM_COMPOUND_CID>
10808

> <PUBCHEM_CONFORMER_RMSD>
0.6

> <PUBCHEM_CONFORMER_DIVERSEORDER>
1
2
16
3
15
14
7
10
13
11
6
5
8
4
12
17
9

> <PUBCHEM_MMFF94_PARTIAL_CHARGES>
7
1 -0.29
2 -0.29
3 -0.43
4 -0.57
5 0.28
7 0.66
8 0.64

> <PUBCHEM_EFFECTIVE_ROTOR_COUNT>
3

> <PUBCHEM_PHARMACOPHORE_FEATURES>
1
1 4 acceptor

> <PUBCHEM_HEAVY_ATOM_COUNT>
8

> <PUBCHEM_ATOM_DEF_STEREO_COUNT>
0

> <PUBCHEM_ATOM_UDEF_STEREO_COUNT>
0

> <PUBCHEM_BOND_DEF_STEREO_COUNT>
0

> <PUBCHEM_BOND_UDEF_STEREO_COUNT>
0

> <PUBCHEM_ISOTOPIC_ATOM_COUNT>
0

> <PUBCHEM_COMPONENT_COUNT>
1

> <PUBCHEM_CACTVS_TAUTO_COUNT>
1

> <PUBCHEM_CONFORMER_ID>
00002A3800000001

> <PUBCHEM_MMFF94_ENERGY>
6.652

> <PUBCHEM_FEATURE_SELFOVERLAP>
5.074

> <PUBCHEM_SHAPE_FINGERPRINT>
10857977 72 18342174423486689321
11062470 55 15195570069891082427
12932764 1 18261117352956616570
14325111 11 18260827124456761506
14390081 3 18339366373884654804
15310529 11 18343586243845990658
16714656 1 18334856091161233407
23235685 24 17312818277619128370
23552449 1 18273494602347601237
3248919 1 16630518549069170562
5084963 1 18411409618331066120
5460574 1 10519990348431206170

> <PUBCHEM_SHAPE_MULTIPOLES>
156.64
4.58
1.33
0.86
2.92
0.43
-0.05
0.3
0.96
-0.99
-0.27
-0.16
-0.08
0.45

> <PUBCHEM_SHAPE_SELFOVERLAP>
271.513

> <PUBCHEM_SHAPE_VOLUME>
104.7

> <PUBCHEM_COORDINATE_TYPE>
2
5
10

$$$$

