636398
  -OEChem-07051213032D

 75 78  0     1  0  0  0  0  0999 V2000
    8.0319    1.1716    0.0000 O   0  0  0  0  0  0  0  0  0  0  0  0
    4.7950    0.4153    0.0000 O   0  0  0  0  0  0  0  0  0  0  0  0
    9.7423    1.2357    0.0000 O   0  0  0  0  0  0  0  0  0  0  0  0
   10.9151   -0.3844    0.0000 O   0  0  0  0  0  0  0  0  0  0  0  0
    2.0000   -3.1370    0.0000 O   0  0  0  0  0  0  0  0  0  0  0  0
    9.1931    2.4568    0.0000 O   0  0  0  0  0  0  0  0  0  0  0  0
   11.0932   -2.1073    0.0000 O   0  0  0  0  0  0  0  0  0  0  0  0
    7.3931   -0.0847    0.0000 C   0  0  1  0  0  0  0  0  0  0  0  0
    7.3931   -1.0847    0.0000 C   0  0  2  0  0  0  0  0  0  0  0  0
    6.5271   -1.5847    0.0000 C   0  0  1  0  0  0  0  0  0  0  0  0
    5.6610   -1.0847    0.0000 C   0  0  1  0  0  0  0  0  0  0  0  0
    8.3393    0.2200    0.0000 C   0  0  1  0  0  0  0  0  0  0  0  0
    6.5271    0.4153    0.0000 C   0  0  0  0  0  0  0  0  0  0  0  0
    4.7510   -1.5915    0.0000 C   0  0  2  0  0  0  0  0  0  0  0  0
    5.6610   -0.0847    0.0000 C   0  0  2  0  0  0  0  0  0  0  0  0
    8.3393   -1.3894    0.0000 C   0  0  0  0  0  0  0  0  0  0  0  0
    8.9229   -0.5847    0.0000 C   0  0  0  0  0  0  0  0  0  0  0  0
    6.5431   -2.6262    0.0000 C   0  0  0  0  0  0  0  0  0  0  0  0
    7.3931    0.9153    0.0000 C   0  0  0  0  0  0  0  0  0  0  0  0
    4.7430   -2.6331    0.0000 C   0  0  0  0  0  0  0  0  0  0  0  0
    5.6451   -3.1540    0.0000 C   0  0  0  0  0  0  0  0  0  0  0  0
    3.8242   -1.0275    0.0000 C   0  0  0  0  0  0  0  0  0  0  0  0
    4.7587   -0.5916    0.0000 C   0  0  0  0  0  0  0  0  0  0  0  0
    9.3340    0.3228    0.0000 C   0  0  0  0  0  0  0  0  0  0  0  0
    2.8763   -1.5554    0.0000 C   0  0  0  0  0  0  0  0  0  0  0  0
    3.8076   -3.1829    0.0000 C   0  0  0  0  0  0  0  0  0  0  0  0
    2.8680   -2.6404    0.0000 C   0  0  0  0  0  0  0  0  0  0  0  0
    9.9204   -0.4872    0.0000 C   0  0  0  0  0  0  0  0  0  0  0  0
    8.2415    2.1494    0.0000 C   0  0  0  0  0  0  0  0  0  0  0  0
    7.4996    2.8198    0.0000 C   0  0  0  0  0  0  0  0  0  0  0  0
    6.5480    2.5124    0.0000 C   0  0  0  0  0  0  0  0  0  0  0  0
   11.5015   -1.1944    0.0000 C   0  0  0  0  0  0  0  0  0  0  0  0
    5.8060    3.1829    0.0000 C   0  0  0  0  0  0  0  0  0  0  0  0
   12.4962   -1.0916    0.0000 C   0  0  0  0  0  0  0  0  0  0  0  0
   13.0826   -1.9016    0.0000 C   0  0  0  0  0  0  0  0  0  0  0  0
    7.4830   -1.9299    0.0000 H   0  0  0  0  0  0  0  0  0  0  0  0
    7.2664   -2.0040    0.0000 H   0  0  0  0  0  0  0  0  0  0  0  0
    6.3972   -0.6597    0.0000 H   0  0  0  0  0  0  0  0  0  0  0  0
    6.9256    0.8902    0.0000 H   0  0  0  0  0  0  0  0  0  0  0  0
    6.1285    0.8902    0.0000 H   0  0  0  0  0  0  0  0  0  0  0  0
    5.6610    0.5353    0.0000 H   0  0  0  0  0  0  0  0  0  0  0  0
    8.0883   -1.9563    0.0000 H   0  0  0  0  0  0  0  0  0  0  0  0
    8.8767   -1.6987    0.0000 H   0  0  0  0  0  0  0  0  0  0  0  0
    9.3838   -0.9994    0.0000 H   0  0  0  0  0  0  0  0  0  0  0  0
    9.3838   -0.1700    0.0000 H   0  0  0  0  0  0  0  0  0  0  0  0
    6.7612   -3.2066    0.0000 H   0  0  0  0  0  0  0  0  0  0  0  0
    7.1523   -2.5107    0.0000 H   0  0  0  0  0  0  0  0  0  0  0  0
    8.0131    0.9153    0.0000 H   0  0  0  0  0  0  0  0  0  0  0  0
    7.3931    1.5353    0.0000 H   0  0  0  0  0  0  0  0  0  0  0  0
    6.7731    0.9153    0.0000 H   0  0  0  0  0  0  0  0  0  0  0  0
    5.2478   -3.6299    0.0000 H   0  0  0  0  0  0  0  0  0  0  0  0
    6.0460   -3.6268    0.0000 H   0  0  0  0  0  0  0  0  0  0  0  0
    4.2324   -0.5608    0.0000 H   0  0  0  0  0  0  0  0  0  0  0  0
    3.4343   -0.5454    0.0000 H   0  0  0  0  0  0  0  0  0  0  0  0
    5.3787   -0.5964    0.0000 H   0  0  0  0  0  0  0  0  0  0  0  0
    4.7635    0.0284    0.0000 H   0  0  0  0  0  0  0  0  0  0  0  0
    4.1388   -0.5868    0.0000 H   0  0  0  0  0  0  0  0  0  0  0  0
    2.6718   -0.9701    0.0000 H   0  0  0  0  0  0  0  0  0  0  0  0
    2.2647   -1.6568    0.0000 H   0  0  0  0  0  0  0  0  0  0  0  0
    4.7950    1.0353    0.0000 H   0  0  0  0  0  0  0  0  0  0  0  0
    3.8100   -3.8029    0.0000 H   0  0  0  0  0  0  0  0  0  0  0  0
    9.3627   -0.7580    0.0000 H   0  0  0  0  0  0  0  0  0  0  0  0
   10.0903   -1.0835    0.0000 H   0  0  0  0  0  0  0  0  0  0  0  0
    7.9888    3.2007    0.0000 H   0  0  0  0  0  0  0  0  0  0  0  0
    7.2094    3.3678    0.0000 H   0  0  0  0  0  0  0  0  0  0  0  0
    6.0587    2.1316    0.0000 H   0  0  0  0  0  0  0  0  0  0  0  0
    6.8381    1.9645    0.0000 H   0  0  0  0  0  0  0  0  0  0  0  0
    6.2216    3.6429    0.0000 H   0  0  0  0  0  0  0  0  0  0  0  0
    5.3459    3.5985    0.0000 H   0  0  0  0  0  0  0  0  0  0  0  0
    5.3903    2.7228    0.0000 H   0  0  0  0  0  0  0  0  0  0  0  0
   13.0539   -0.8208    0.0000 H   0  0  0  0  0  0  0  0  0  0  0  0
   12.3263   -0.4953    0.0000 H   0  0  0  0  0  0  0  0  0  0  0  0
   12.5803   -2.2652    0.0000 H   0  0  0  0  0  0  0  0  0  0  0  0
   13.4461   -2.4039    0.0000 H   0  0  0  0  0  0  0  0  0  0  0  0
   13.5848   -1.5381    0.0000 H   0  0  0  0  0  0  0  0  0  0  0  0
 12  1  1  6  0  0  0
  1 29  1  0  0  0  0
 15  2  1  1  0  0  0
  2 60  1  0  0  0  0
  3 24  2  0  0  0  0
  4 28  1  0  0  0  0
  4 32  1  0  0  0  0
  5 27  2  0  0  0  0
  6 29  2  0  0  0  0
  7 32  2  0  0  0  0
  8  9  1  0  0  0  0
  8 12  1  0  0  0  0
  8 13  1  0  0  0  0
  8 19  1  1  0  0  0
  9 10  1  0  0  0  0
  9 16  1  0  0  0  0
  9 36  1  6  0  0  0
 10 11  1  0  0  0  0
 10 18  1  0  0  0  0
 10 37  1  1  0  0  0
 11 14  1  0  0  0  0
 11 15  1  0  0  0  0
 11 38  1  6  0  0  0
 12 17  1  0  0  0  0
 12 24  1  0  0  0  0
 13 15  1  0  0  0  0
 13 39  1  0  0  0  0
 13 40  1  0  0  0  0
 14 20  1  0  0  0  0
 14 22  1  0  0  0  0
 14 23  1  1  0  0  0
 15 41  1  0  0  0  0
 16 17  1  0  0  0  0
 16 42  1  0  0  0  0
 16 43  1  0  0  0  0
 17 44  1  0  0  0  0
 17 45  1  0  0  0  0
 18 21  1  0  0  0  0
 18 46  1  0  0  0  0
 18 47  1  0  0  0  0
 19 48  1  0  0  0  0
 19 49  1  0  0  0  0
 19 50  1  0  0  0  0
 20 21  1  0  0  0  0
 20 26  2  0  0  0  0
 21 51  1  0  0  0  0
 21 52  1  0  0  0  0
 22 25  1  0  0  0  0
 22 53  1  0  0  0  0
 22 54  1  0  0  0  0
 23 55  1  0  0  0  0
 23 56  1  0  0  0  0
 23 57  1  0  0  0  0
 24 28  1  0  0  0  0
 25 27  1  0  0  0  0
 25 58  1  0  0  0  0
 25 59  1  0  0  0  0
 26 27  1  0  0  0  0
 26 61  1  0  0  0  0
 28 62  1  0  0  0  0
 28 63  1  0  0  0  0
 29 30  1  0  0  0  0
 30 31  1  0  0  0  0
 30 64  1  0  0  0  0
 30 65  1  0  0  0  0
 31 33  1  0  0  0  0
 31 66  1  0  0  0  0
 31 67  1  0  0  0  0
 32 34  1  0  0  0  0
 33 68  1  0  0  0  0
 33 69  1  0  0  0  0
 33 70  1  0  0  0  0
 34 35  1  0  0  0  0
 34 71  1  0  0  0  0
 34 72  1  0  0  0  0
 35 73  1  0  0  0  0
 35 74  1  0  0  0  0
 35 75  1  0  0  0  0
M  END
> <PUBCHEM_COMPOUND_CID>
636398

> <PUBCHEM_COMPOUND_CANONICALIZED>
1

> <PUBCHEM_CACTVS_COMPLEXITY>
938

> <PUBCHEM_CACTVS_HBOND_ACCEPTOR>
7

> <PUBCHEM_CACTVS_HBOND_DONOR>
1

> <PUBCHEM_CACTVS_ROTATABLE_BOND>
9

> <PUBCHEM_CACTVS_SUBSKEYS>
AAADcfB4OAAAAAAAAAAAAAAAAAAAAYAAAAAwYIAAAAAAAGDAAAAAGgAACAAAD1SggAICCAAABgCIAqDSCAIAAAAgAAAACAFAAEgAEBIAAQQCQAAFgAAIAQPIzPDPgAAAAAAAAADAAAYAADAAAYAADAAAAA==

> <PUBCHEM_IUPAC_OPENEYE_NAME>
[(8S,9S,10R,11S,13S,14S,17R)-11-hydroxy-10,13-dimethyl-3-oxo-17-(2-propanoyloxyacetyl)-2,6,7,8,9,11,12,14,15,16-decahydro-1H-cyclopenta[a]phenanthren-17-yl] butanoate

> <PUBCHEM_IUPAC_CAS_NAME>
butanoic acid [(8S,9S,10R,11S,13S,14S,17R)-11-hydroxy-10,13-dimethyl-3-oxo-17-[1-oxo-2-(1-oxopropoxy)ethyl]-2,6,7,8,9,11,12,14,15,16-decahydro-1H-cyclopenta[a]phenanthren-17-yl] ester

> <PUBCHEM_IUPAC_NAME>
[(8S,9S,10R,11S,13S,14S,17R)-11-hydroxy-10,13-dimethyl-3-oxo-17-(2-propanoyloxyacetyl)-2,6,7,8,9,11,12,14,15,16-decahydro-1H-cyclopenta[a]phenanthren-17-yl] butanoate

> <PUBCHEM_IUPAC_SYSTEMATIC_NAME>
[(8S,9S,10R,11S,13S,14S,17R)-10,13-dimethyl-11-oxidanyl-3-oxidanylidene-17-(2-propanoyloxyethanoyl)-2,6,7,8,9,11,12,14,15,16-decahydro-1H-cyclopenta[a]phenanthren-17-yl] butanoate

> <PUBCHEM_IUPAC_TRADITIONAL_NAME>
butyric acid [(8S,9S,10R,11S,13S,14S,17R)-11-hydroxy-3-keto-10,13-dimethyl-17-(2-propionyloxyacetyl)-2,6,7,8,9,11,12,14,15,16-decahydro-1H-cyclopenta[a]phenanthren-17-yl] ester

> <PUBCHEM_IUPAC_INCHI>
InChI=1S/C28H40O7/c1-5-7-24(33)35-28(22(31)16-34-23(32)6-2)13-11-20-19-9-8-17-14-18(29)10-12-26(17,3)25(19)21(30)15-27(20,28)4/h14,19-21,25,30H,5-13,15-16H2,1-4H3/t19-,20-,21-,25+,26-,27-,28-/m0/s1

> <PUBCHEM_IUPAC_INCHIKEY>
FOGXJPFPZOHSQS-AYVLZSQQSA-N

> <PUBCHEM_XLOGP3>
4.2

> <PUBCHEM_EXACT_MASS>
488.277404

> <PUBCHEM_MOLECULAR_FORMULA>
C28H40O7

> <PUBCHEM_MOLECULAR_WEIGHT>
488.613

> <PUBCHEM_OPENEYE_CAN_SMILES>
CCCC(=O)OC1(CCC2C1(CC(C3C2CCC4=CC(=O)CCC34C)O)C)C(=O)COC(=O)CC

> <PUBCHEM_OPENEYE_ISO_SMILES>
CCCC(=O)O[C@@]1(CC[C@@H]2[C@@]1(C[C@@H]([C@H]3[C@H]2CCC4=CC(=O)CC[C@]34C)O)C)C(=O)COC(=O)CC

> <PUBCHEM_CACTVS_TPSA>
107

> <PUBCHEM_MONOISOTOPIC_WEIGHT>
488.277404

> <PUBCHEM_TOTAL_CHARGE>
0

> <PUBCHEM_HEAVY_ATOM_COUNT>
35

> <PUBCHEM_ATOM_DEF_STEREO_COUNT>
7

> <PUBCHEM_ATOM_UDEF_STEREO_COUNT>
0

> <PUBCHEM_BOND_DEF_STEREO_COUNT>
0

> <PUBCHEM_BOND_UDEF_STEREO_COUNT>
0

> <PUBCHEM_ISOTOPIC_ATOM_COUNT>
0

> <PUBCHEM_COMPONENT_COUNT>
1

> <PUBCHEM_CACTVS_TAUTO_COUNT>
10

> <PUBCHEM_COORDINATE_TYPE>
1
5
255

> <PUBCHEM_BONDANNOTATIONS>
12  1  6
10  37  5
11  38  6
14  23  5
15  2  5
8  19  5
9  36  6

$$$$

