441552
  -OEChem-07051212552D

 19 18  0     0  0  0  0  0  0999 V2000
    2.0000   -2.7500    0.0000 C   0  0  0  0  0  0  0  0  0  0  0  0
   11.5263    2.7500    0.0000 C   0  0  0  0  0  0  0  0  0  0  0  0
    2.8660   -2.2500    0.0000 C   0  0  0  0  0  0  0  0  0  0  0  0
   12.3923    2.2500    0.0000 C   0  0  0  0  0  0  0  0  0  0  0  0
   10.6603    2.2500    0.0000 C   0  0  0  0  0  0  0  0  0  0  0  0
    3.7320   -1.7500    0.0000 C   0  0  0  0  0  0  0  0  0  0  0  0
    9.7942    1.7500    0.0000 C   0  0  0  0  0  0  0  0  0  0  0  0
    4.5981   -1.2500    0.0000 C   0  0  0  0  0  0  0  0  0  0  0  0
    8.9282    1.2500    0.0000 C   0  0  0  0  0  0  0  0  0  0  0  0
    5.4641   -0.7500    0.0000 C   0  0  0  0  0  0  0  0  0  0  0  0
    8.0622    0.7500    0.0000 C   0  0  0  0  0  0  0  0  0  0  0  0
    6.3301   -0.2500    0.0000 C   0  0  0  0  0  0  0  0  0  0  0  0
    7.1962    0.2500    0.0000 C   0  0  0  0  0  0  0  0  0  0  0  0
    1.6900   -2.2131    0.0000 H   0  0  0  0  0  0  0  0  0  0  0  0
    1.4631   -3.0600    0.0000 H   0  0  0  0  0  0  0  0  0  0  0  0
    2.3100   -3.2869    0.0000 H   0  0  0  0  0  0  0  0  0  0  0  0
   11.5263    3.3700    0.0000 H   0  0  0  0  0  0  0  0  0  0  0  0
   12.3923    1.6300    0.0000 H   0  0  0  0  0  0  0  0  0  0  0  0
   12.9292    2.5600    0.0000 H   0  0  0  0  0  0  0  0  0  0  0  0
  1  3  1  0  0  0  0
  1 14  1  0  0  0  0
  1 15  1  0  0  0  0
  1 16  1  0  0  0  0
  2  4  2  0  0  0  0
  2  5  1  0  0  0  0
  2 17  1  0  0  0  0
  3  6  3  0  0  0  0
  4 18  1  0  0  0  0
  4 19  1  0  0  0  0
  5  7  3  0  0  0  0
  6  8  1  0  0  0  0
  7  9  1  0  0  0  0
  8 10  3  0  0  0  0
  9 11  3  0  0  0  0
 10 12  1  0  0  0  0
 11 13  1  0  0  0  0
 12 13  3  0  0  0  0
M  END
> <PUBCHEM_COMPOUND_CID>
441552

> <PUBCHEM_COMPOUND_CANONICALIZED>
1

> <PUBCHEM_CACTVS_COMPLEXITY>
518

> <PUBCHEM_CACTVS_HBOND_ACCEPTOR>
0

> <PUBCHEM_CACTVS_HBOND_DONOR>
0

> <PUBCHEM_CACTVS_ROTATABLE_BOND>
4

> <PUBCHEM_CACTVS_SUBSKEYS>
AAADcYBwAAAAAAAAAAAAAAAAAAAAAAAAAAAAAAAAAAAAAAAAAAAAGAAAAAAACACAAAACAAAAAADAECBCAAAAAAAAAAAIAAAAAAAAAAAAAAAAAAAAAAAAAAAAAAAAAAAAAAAAAAAAAAAAAAAAAAAAAAAAAA==

> <PUBCHEM_IUPAC_OPENEYE_NAME>
tridec-1-en-3,5,7,9,11-pentayne

> <PUBCHEM_IUPAC_CAS_NAME>
tridec-1-en-3,5,7,9,11-pentayne

> <PUBCHEM_IUPAC_NAME>
tridec-1-en-3,5,7,9,11-pentayne

> <PUBCHEM_IUPAC_SYSTEMATIC_NAME>
tridec-1-en-3,5,7,9,11-pentayne

> <PUBCHEM_IUPAC_TRADITIONAL_NAME>
tridec-1-en-3,5,7,9,11-pentayne

> <PUBCHEM_IUPAC_INCHI>
InChI=1S/C13H6/c1-3-5-7-9-11-13-12-10-8-6-4-2/h3H,1H2,2H3

> <PUBCHEM_IUPAC_INCHIKEY>
KKBHBCOJHHCOCL-UHFFFAOYSA-N

> <PUBCHEM_XLOGP3_AA>
3.4

> <PUBCHEM_EXACT_MASS>
162.04695

> <PUBCHEM_MOLECULAR_FORMULA>
C13H6

> <PUBCHEM_MOLECULAR_WEIGHT>
162.18674

> <PUBCHEM_OPENEYE_CAN_SMILES>
CC#CC#CC#CC#CC#CC=C

> <PUBCHEM_OPENEYE_ISO_SMILES>
CC#CC#CC#CC#CC#CC=C

> <PUBCHEM_CACTVS_TPSA>
0

> <PUBCHEM_MONOISOTOPIC_WEIGHT>
162.04695

> <PUBCHEM_TOTAL_CHARGE>
0

> <PUBCHEM_HEAVY_ATOM_COUNT>
13

> <PUBCHEM_ATOM_DEF_STEREO_COUNT>
0

> <PUBCHEM_ATOM_UDEF_STEREO_COUNT>
0

> <PUBCHEM_BOND_DEF_STEREO_COUNT>
0

> <PUBCHEM_BOND_UDEF_STEREO_COUNT>
0

> <PUBCHEM_ISOTOPIC_ATOM_COUNT>
0

> <PUBCHEM_COMPONENT_COUNT>
1

> <PUBCHEM_CACTVS_TAUTO_COUNT>
1

> <PUBCHEM_COORDINATE_TYPE>
1
5
255

$$$$

