23724666
  -OEChem-07051213082D

 32 35  0     0  0  0  0  0  0999 V2000
    2.5836    0.3474    0.0000 O   0  0  0  0  0  0  0  0  0  0  0  0
    2.5836   -1.2621    0.0000 O   0  0  0  0  0  0  0  0  0  0  0  0
    6.9939    2.0427    0.0000 O   0  0  0  0  0  0  0  0  0  0  0  0
    6.1279   -1.4573    0.0000 O   0  0  0  0  0  0  0  0  0  0  0  0
    6.9939   -0.9573    0.0000 O   0  0  0  0  0  0  0  0  0  0  0  0
   10.5241    2.0668    0.0000 O   0  0  0  0  0  0  0  0  0  0  0  0
    5.2619    0.0427    0.0000 C   0  0  0  0  0  0  0  0  0  0  0  0
    6.1279    0.5427    0.0000 C   0  0  0  0  0  0  0  0  0  0  0  0
    3.5298    0.0427    0.0000 C   0  0  0  0  0  0  0  0  0  0  0  0
    4.3958    0.5427    0.0000 C   0  0  0  0  0  0  0  0  0  0  0  0
    3.5298   -0.9573    0.0000 C   0  0  0  0  0  0  0  0  0  0  0  0
    7.8600    0.5427    0.0000 C   0  0  0  0  0  0  0  0  0  0  0  0
    5.2619   -0.9573    0.0000 C   0  0  0  0  0  0  0  0  0  0  0  0
    6.9939    0.0427    0.0000 C   0  0  0  0  0  0  0  0  0  0  0  0
    4.3958   -1.4573    0.0000 C   0  0  0  0  0  0  0  0  0  0  0  0
    7.8600    1.5427    0.0000 C   0  0  0  0  0  0  0  0  0  0  0  0
    6.1279    1.5427    0.0000 C   0  0  0  0  0  0  0  0  0  0  0  0
    2.0000   -0.4573    0.0000 C   0  0  0  0  0  0  0  0  0  0  0  0
    8.7539    0.0080    0.0000 C   0  0  0  0  0  0  0  0  0  0  0  0
    8.7539    2.0773    0.0000 C   0  0  0  0  0  0  0  0  0  0  0  0
    9.6600    0.5219    0.0000 C   0  0  0  0  0  0  0  0  0  0  0  0
    9.6600    1.5635    0.0000 C   0  0  0  0  0  0  0  0  0  0  0  0
    4.3958    1.1627    0.0000 H   0  0  0  0  0  0  0  0  0  0  0  0
    4.3958   -2.0773    0.0000 H   0  0  0  0  0  0  0  0  0  0  0  0
    5.5910    1.8527    0.0000 H   0  0  0  0  0  0  0  0  0  0  0  0
    1.5391   -0.0426    0.0000 H   0  0  0  0  0  0  0  0  0  0  0  0
    1.5391   -0.8721    0.0000 H   0  0  0  0  0  0  0  0  0  0  0  0
    8.7467   -0.6120    0.0000 H   0  0  0  0  0  0  0  0  0  0  0  0
    8.7467    2.6973    0.0000 H   0  0  0  0  0  0  0  0  0  0  0  0
   10.1957    0.2098    0.0000 H   0  0  0  0  0  0  0  0  0  0  0  0
    6.1279   -2.0773    0.0000 H   0  0  0  0  0  0  0  0  0  0  0  0
   11.0622    1.7589    0.0000 H   0  0  0  0  0  0  0  0  0  0  0  0
  1  9  1  0  0  0  0
  1 18  1  0  0  0  0
  2 11  1  0  0  0  0
  2 18  1  0  0  0  0
  3 16  1  0  0  0  0
  3 17  1  0  0  0  0
  4 13  1  0  0  0  0
  4 31  1  0  0  0  0
  5 14  2  0  0  0  0
  6 22  1  0  0  0  0
  6 32  1  0  0  0  0
  7  8  1  0  0  0  0
  7 10  2  0  0  0  0
  7 13  1  0  0  0  0
  8 14  1  0  0  0  0
  8 17  2  0  0  0  0
  9 10  1  0  0  0  0
  9 11  2  0  0  0  0
 10 23  1  0  0  0  0
 11 15  1  0  0  0  0
 12 14  1  0  0  0  0
 12 16  2  0  0  0  0
 12 19  1  0  0  0  0
 13 15  2  0  0  0  0
 15 24  1  0  0  0  0
 16 20  1  0  0  0  0
 17 25  1  0  0  0  0
 18 26  1  0  0  0  0
 18 27  1  0  0  0  0
 19 21  2  0  0  0  0
 19 28  1  0  0  0  0
 20 22  2  0  0  0  0
 20 29  1  0  0  0  0
 21 22  1  0  0  0  0
 21 30  1  0  0  0  0
M  END
> <PUBCHEM_COMPOUND_CID>
23724666

> <PUBCHEM_COMPOUND_CANONICALIZED>
1

> <PUBCHEM_CACTVS_COMPLEXITY>
489

> <PUBCHEM_CACTVS_HBOND_ACCEPTOR>
6

> <PUBCHEM_CACTVS_HBOND_DONOR>
2

> <PUBCHEM_CACTVS_ROTATABLE_BOND>
1

> <PUBCHEM_CACTVS_SUBSKEYS>
AAADccB4OAAAAAAAAAAAAAAAAAAAASAAAAAwYIAAAAAAAEiBQAAAGgAACAAADASgmAMwDoAABgCIAqBSAAACCAAkIAAIiAEGiMgdJzaGNRqgcWIl4BUOuYfK7PzOIQABCAAIQABCAAIQABCAAAAAAAAAAA==

> <PUBCHEM_IUPAC_OPENEYE_NAME>
7-hydroxy-3-(6-hydroxy-1,3-benzodioxol-5-yl)chromen-4-one

> <PUBCHEM_IUPAC_CAS_NAME>
7-hydroxy-3-(6-hydroxy-1,3-benzodioxol-5-yl)-1-benzopyran-4-one

> <PUBCHEM_IUPAC_NAME>
7-hydroxy-3-(6-hydroxy-1,3-benzodioxol-5-yl)chromen-4-one

> <PUBCHEM_IUPAC_SYSTEMATIC_NAME>
7-oxidanyl-3-(6-oxidanyl-1,3-benzodioxol-5-yl)chromen-4-one

> <PUBCHEM_IUPAC_TRADITIONAL_NAME>
7-hydroxy-3-(6-hydroxy-1,3-benzodioxol-5-yl)chromone

> <PUBCHEM_IUPAC_INCHI>
InChI=1S/C16H10O6/c17-8-1-2-9-13(3-8)20-6-11(16(9)19)10-4-14-15(5-12(10)18)22-7-21-14/h1-6,17-18H,7H2

> <PUBCHEM_IUPAC_INCHIKEY>
WMDDXGLVVGBJSO-UHFFFAOYSA-N

> <PUBCHEM_XLOGP3_AA>
2.3

> <PUBCHEM_EXACT_MASS>
298.047738

> <PUBCHEM_MOLECULAR_FORMULA>
C16H10O6

> <PUBCHEM_MOLECULAR_WEIGHT>
298.247

> <PUBCHEM_OPENEYE_CAN_SMILES>
C1OC2=C(O1)C=C(C(=C2)C3=COC4=C(C3=O)C=CC(=C4)O)O

> <PUBCHEM_OPENEYE_ISO_SMILES>
C1OC2=C(O1)C=C(C(=C2)C3=COC4=C(C3=O)C=CC(=C4)O)O

> <PUBCHEM_CACTVS_TPSA>
85.2

> <PUBCHEM_MONOISOTOPIC_WEIGHT>
298.047738

> <PUBCHEM_TOTAL_CHARGE>
0

> <PUBCHEM_HEAVY_ATOM_COUNT>
22

> <PUBCHEM_ATOM_DEF_STEREO_COUNT>
0

> <PUBCHEM_ATOM_UDEF_STEREO_COUNT>
0

> <PUBCHEM_BOND_DEF_STEREO_COUNT>
0

> <PUBCHEM_BOND_UDEF_STEREO_COUNT>
0

> <PUBCHEM_ISOTOPIC_ATOM_COUNT>
0

> <PUBCHEM_COMPONENT_COUNT>
1

> <PUBCHEM_CACTVS_TAUTO_COUNT>
15

> <PUBCHEM_COORDINATE_TYPE>
1
5
255

> <PUBCHEM_BONDANNOTATIONS>
11  15  8
12  14  8
12  16  8
12  19  8
13  15  8
16  20  8
19  21  8
20  22  8
21  22  8
3  16  8
3  17  8
7  10  8
7  13  8
8  14  8
8  17  8
9  10  8
9  11  8

$$$$

