445948
  -OEChem-07051213113D

 21 21  0     1  0  0  0  0  0999 V2000
   -0.5852   -1.4370    0.0733 O   0  0  0  0  0  0  0  0  0  0  0  0
   -1.3450    1.2197    1.1631 O   0  0  0  0  0  0  0  0  0  0  0  0
    0.7792    2.4927   -0.1299 O   0  0  0  0  0  0  0  0  0  0  0  0
    2.5955    0.2101   -0.1946 O   0  0  0  0  0  0  0  0  0  0  0  0
    1.5209   -2.2300    0.2061 O   0  0  0  0  0  0  0  0  0  0  0  0
   -1.0685    0.9652   -0.2142 C   0  0  1  0  0  0  0  0  0  0  0  0
    0.4111    1.1686   -0.5078 C   0  0  2  0  0  0  0  0  0  0  0  0
   -1.4397   -0.4675   -0.5813 C   0  0  2  0  0  0  0  0  0  0  0  0
    1.2493    0.1608    0.2597 C   0  0  1  0  0  0  0  0  0  0  0  0
    0.7600   -1.2679    0.1388 C   0  0  0  0  0  0  0  0  0  0  0  0
   -2.8776   -0.8147   -0.2131 C   0  0  0  0  0  0  0  0  0  0  0  0
   -1.6603    1.6844   -0.7927 H   0  0  0  0  0  0  0  0  0  0  0  0
    0.6029    1.0787   -1.5836 H   0  0  0  0  0  0  0  0  0  0  0  0
   -1.3147   -0.6157   -1.6613 H   0  0  0  0  0  0  0  0  0  0  0  0
    1.2642    0.4152    1.3266 H   0  0  0  0  0  0  0  0  0  0  0  0
   -3.5848   -0.1043   -0.6515 H   0  0  0  0  0  0  0  0  0  0  0  0
   -3.1258   -1.8183   -0.5763 H   0  0  0  0  0  0  0  0  0  0  0  0
   -3.0207   -0.8401    0.8724 H   0  0  0  0  0  0  0  0  0  0  0  0
   -2.3097    1.2795    1.2656 H   0  0  0  0  0  0  0  0  0  0  0  0
    0.5779    2.6002    0.8155 H   0  0  0  0  0  0  0  0  0  0  0  0
    3.1288   -0.3376    0.4068 H   0  0  0  0  0  0  0  0  0  0  0  0
  1  8  1  0  0  0  0
  1 10  1  0  0  0  0
  2  6  1  0  0  0  0
  2 19  1  0  0  0  0
  3  7  1  0  0  0  0
  3 20  1  0  0  0  0
  4  9  1  0  0  0  0
  4 21  1  0  0  0  0
  5 10  2  0  0  0  0
  6  7  1  0  0  0  0
  6  8  1  0  0  0  0
  6 12  1  0  0  0  0
  7  9  1  0  0  0  0
  7 13  1  0  0  0  0
  8 11  1  0  0  0  0
  8 14  1  0  0  0  0
  9 10  1  0  0  0  0
  9 15  1  0  0  0  0
 11 16  1  0  0  0  0
 11 17  1  0  0  0  0
 11 18  1  0  0  0  0
M  END
> <PUBCHEM_COMPOUND_CID>
445948

> <PUBCHEM_CONFORMER_RMSD>
0.4

> <PUBCHEM_CONFORMER_DIVERSEORDER>
1
2
4
3
5

> <PUBCHEM_MMFF94_PARTIAL_CHARGES>
13
1 -0.43
10 0.66
19 0.4
2 -0.68
20 0.4
21 0.4
3 -0.68
4 -0.68
5 -0.57
6 0.28
7 0.28
8 0.28
9 0.34

> <PUBCHEM_EFFECTIVE_ROTOR_COUNT>
1

> <PUBCHEM_PHARMACOPHORE_FEATURES>
8
1 2 acceptor
1 2 donor
1 3 acceptor
1 3 donor
1 4 acceptor
1 4 donor
1 5 acceptor
6 1 6 7 8 9 10 rings

> <PUBCHEM_HEAVY_ATOM_COUNT>
11

> <PUBCHEM_ATOM_DEF_STEREO_COUNT>
4

> <PUBCHEM_ATOM_UDEF_STEREO_COUNT>
0

> <PUBCHEM_BOND_DEF_STEREO_COUNT>
0

> <PUBCHEM_BOND_UDEF_STEREO_COUNT>
0

> <PUBCHEM_ISOTOPIC_ATOM_COUNT>
0

> <PUBCHEM_COMPONENT_COUNT>
1

> <PUBCHEM_CACTVS_TAUTO_COUNT>
1

> <PUBCHEM_CONFORMER_ID>
0006CDFC00000001

> <PUBCHEM_MMFF94_ENERGY>
23.1484

> <PUBCHEM_FEATURE_SELFOVERLAP>
40.614

> <PUBCHEM_SHAPE_FINGERPRINT>
12423570 1 10404881917747227353
16945 1 18340216189072375551
18185500 45 18409733979832402591
193761 8 17979361081314984974
21040471 1 16681203041348757086
23552423 10 18200029697713433894
241688 4 18195815299582059851
2748010 2 18266748063175910527
29004967 10 18273217486709597619
5084963 1 18188487973695442849
66348 1 18410577283781461918

> <PUBCHEM_SHAPE_MULTIPOLES>
197.03
2.89
2.17
0.76
0.89
0.1
-0.09
-0.59
0.17
-0.77
-0.12
0.17
0.16
-0.27

> <PUBCHEM_SHAPE_SELFOVERLAP>
397.45

> <PUBCHEM_SHAPE_VOLUME>
114.2

> <PUBCHEM_COORDINATE_TYPE>
2
5
10

$$$$

