55431
  -OEChem-07051213143D

 25 28  0     0  0  0  0  0  0999 V2000
   -0.5250    2.0352   -0.0002 O   0  0  0  0  0  0  0  0  0  0  0  0
    4.1173    0.7239   -0.0005 O   0  0  0  0  0  0  0  0  0  0  0  0
   -2.7174    2.6732    0.0001 O   0  0  0  0  0  0  0  0  0  0  0  0
   -4.0950   -1.2489   -0.0009 N   0  0  0  0  0  0  0  0  0  0  0  0
    0.1114   -0.3277    0.0006 C   0  0  0  0  0  0  0  0  0  0  0  0
   -1.3160   -0.6756    0.0006 C   0  0  0  0  0  0  0  0  0  0  0  0
    0.4706    1.0264    0.0001 C   0  0  0  0  0  0  0  0  0  0  0  0
    2.5019   -0.8539    0.0001 C   0  0  0  0  0  0  0  0  0  0  0  0
    1.1555   -1.2769    0.0005 C   0  0  0  0  0  0  0  0  0  0  0  0
    2.7720    0.5084   -0.0001 C   0  0  0  0  0  0  0  0  0  0  0  0
   -2.2732    0.3466    0.0002 C   0  0  0  0  0  0  0  0  0  0  0  0
    1.7924    1.4931   -0.0001 C   0  0  0  0  0  0  0  0  0  0  0  0
   -1.7942   -1.9941    0.0005 C   0  0  0  0  0  0  0  0  0  0  0  0
   -1.8880    1.7731    0.0004 C   0  0  0  0  0  0  0  0  0  0  0  0
    3.7675   -1.4982   -0.0001 C   0  0  0  0  0  0  0  0  0  0  0  0
   -3.6271    0.0161   -0.0007 C   0  0  0  0  0  0  0  0  0  0  0  0
    4.7117   -0.4978   -0.0003 C   0  0  0  0  0  0  0  0  0  0  0  0
   -3.1645   -2.2229   -0.0003 C   0  0  0  0  0  0  0  0  0  0  0  0
    0.9570   -2.3439    0.0007 H   0  0  0  0  0  0  0  0  0  0  0  0
    2.0364    2.5484   -0.0004 H   0  0  0  0  0  0  0  0  0  0  0  0
   -1.1322   -2.8532    0.0008 H   0  0  0  0  0  0  0  0  0  0  0  0
    3.9661   -2.5606    0.0000 H   0  0  0  0  0  0  0  0  0  0  0  0
   -4.4032    0.7753   -0.0011 H   0  0  0  0  0  0  0  0  0  0  0  0
    5.7918   -0.4909   -0.0005 H   0  0  0  0  0  0  0  0  0  0  0  0
   -3.5554   -3.2353   -0.0005 H   0  0  0  0  0  0  0  0  0  0  0  0
  1  7  1  0  0  0  0
  1 14  1  0  0  0  0
  2 10  1  0  0  0  0
  2 17  1  0  0  0  0
  3 14  2  0  0  0  0
  4 16  2  0  0  0  0
  4 18  1  0  0  0  0
  5  6  1  0  0  0  0
  5  7  2  0  0  0  0
  5  9  1  0  0  0  0
  6 11  2  0  0  0  0
  6 13  1  0  0  0  0
  7 12  1  0  0  0  0
  8  9  2  0  0  0  0
  8 10  1  0  0  0  0
  8 15  1  0  0  0  0
  9 19  1  0  0  0  0
 10 12  2  0  0  0  0
 11 14  1  0  0  0  0
 11 16  1  0  0  0  0
 12 20  1  0  0  0  0
 13 18  2  0  0  0  0
 13 21  1  0  0  0  0
 15 17  2  0  0  0  0
 15 22  1  0  0  0  0
 16 23  1  0  0  0  0
 17 24  1  0  0  0  0
 18 25  1  0  0  0  0
M  END
> <PUBCHEM_COMPOUND_CID>
55431

> <PUBCHEM_CONFORMER_RMSD>
0.4

> <PUBCHEM_CONFORMER_DIVERSEORDER>
1

> <PUBCHEM_MMFF94_PARTIAL_CHARGES>
22
1 -0.23
10 0.14
11 0.09
12 -0.15
13 -0.15
14 0.63
15 -0.15
16 0.16
17 -0.01
18 0.16
19 0.15
2 -0.28
20 0.15
21 0.15
22 0.15
23 0.15
24 0.15
25 0.15
3 -0.57
4 -0.62
7 0.08
9 -0.15

> <PUBCHEM_EFFECTIVE_ROTOR_COUNT>
0

> <PUBCHEM_PHARMACOPHORE_FEATURES>
7
1 2 acceptor
1 3 acceptor
1 4 acceptor
5 2 8 10 15 17 rings
6 1 5 6 7 11 14 rings
6 4 6 11 13 16 18 rings
6 5 7 8 9 10 12 rings

> <PUBCHEM_HEAVY_ATOM_COUNT>
18

> <PUBCHEM_ATOM_DEF_STEREO_COUNT>
0

> <PUBCHEM_ATOM_UDEF_STEREO_COUNT>
0

> <PUBCHEM_BOND_DEF_STEREO_COUNT>
0

> <PUBCHEM_BOND_UDEF_STEREO_COUNT>
0

> <PUBCHEM_ISOTOPIC_ATOM_COUNT>
0

> <PUBCHEM_COMPONENT_COUNT>
1

> <PUBCHEM_CACTVS_TAUTO_COUNT>
1

> <PUBCHEM_CONFORMER_ID>
0000D88700000001

> <PUBCHEM_MMFF94_ENERGY>
55.4131

> <PUBCHEM_FEATURE_SELFOVERLAP>
35.671

> <PUBCHEM_SHAPE_FINGERPRINT>
10319926 262 18191893282563087314
10493431 412 18118675763407797513
10608611 8 18408326596580727136
10616163 171 18409728482396089734
10618630 7 18411699842113986607
10967382 1 17978229353037327277
11132069 177 18410016532983054682
11578080 2 17241911812416175305
11806522 49 18341332197732786950
12032990 46 18339358574187024587
13140716 1 18265888069406101067
13221675 6 18410856551071213850
13288520 33 18408601483351795478
138480 1 15600610787609483749
14115302 16 17846210008374784191
14178342 30 18268727145994403936
14790565 3 17904757035507086865
15196674 1 18410575080399766628
15442244 35 18340207509154557802
15536298 74 18334858260536533792
16752209 62 18339940297774643731
16945 1 18410855460239061509
17492 89 18411981390459491682
17804303 29 18335416859250305728
18522853 276 18409731746517941466
19141452 34 18187360987795266935
19591789 44 16317228425924750742
200 152 18040723537140428415
20510252 161 18261392286281618705
21029758 11 18334301954940009697
21267235 1 18411128117548050475
21501502 16 18411975862698717004
221490 88 18197773306611253874
2306618 200 18187076282770495969
2334 1 17978509728692359687
23402539 116 18334584533839171935
23463225 33 18411135801317986918
23557571 272 18260257582066144652
23559900 14 18408611344544121984
2748010 2 17977671909522188237
2871803 45 18341900675035064942
3091708 16 9494130636792805937
335352 9 18194683893553478692
350125 39 18410569574278599673
4214541 1 18410575132313940036
474 4 17130978756070306956
5104073 3 18336267929053858858
559249 180 18126572442991228730
7364860 26 18192431866444649712
8809292 202 18271241629807410187
9709674 26 18335415815858485990

> <PUBCHEM_SHAPE_MULTIPOLES>
347.84
7.83
2.41
0.6
3.8
0.54
0
-2.16
0
-1.8
0
0.02
-0.02
0

> <PUBCHEM_SHAPE_SELFOVERLAP>
802.52

> <PUBCHEM_SHAPE_VOLUME>
178.2

> <PUBCHEM_COORDINATE_TYPE>
2
5
10

$$$$

