185384
  -OEChem-07051212503D

 74 77  0     1  0  0  0  0  0999 V2000
    4.7248    1.2242    0.5504 O   0  0  0  0  0  0  0  0  0  0  0  0
    4.9973   -2.5421   -1.7258 O   0  0  0  0  0  0  0  0  0  0  0  0
   -0.4242   -2.9446    0.3560 N   0  0  0  0  0  0  0  0  0  0  0  0
    1.6018    1.2762    0.8070 N   0  0  1  0  0  0  0  0  0  0  0  0
    3.5491   -0.4204   -0.6085 N   0  0  0  0  0  0  0  0  0  0  0  0
   -3.1462    1.2747   -0.5356 C   0  0  2  0  0  0  0  0  0  0  0  0
   -3.1047   -1.7709   -0.7592 C   0  0  2  0  0  0  0  0  0  0  0  0
   -4.4123    0.3926   -0.5176 C   0  0  0  0  0  0  0  0  0  0  0  0
   -1.8882    0.4480   -0.2215 C   0  0  0  0  0  0  0  0  0  0  0  0
   -4.2204   -0.8695   -1.3367 C   0  0  0  0  0  0  0  0  0  0  0  0
   -1.8791   -0.9710   -0.2836 C   0  0  0  0  0  0  0  0  0  0  0  0
   -3.3876    2.3861    0.5164 C   0  0  0  0  0  0  0  0  0  0  0  0
   -2.9745    1.9447   -1.9164 C   0  0  0  0  0  0  0  0  0  0  0  0
   -0.6817   -1.6006    0.1661 C   0  0  0  0  0  0  0  0  0  0  0  0
   -0.7089    1.1348    0.1194 C   0  0  0  0  0  0  0  0  0  0  0  0
    0.4909   -0.9230    0.5341 C   0  0  0  0  0  0  0  0  0  0  0  0
   -2.7213   -2.7369   -1.9076 C   0  0  0  0  0  0  0  0  0  0  0  0
    0.4928    0.4967    0.4830 C   0  0  0  0  0  0  0  0  0  0  0  0
   -3.6865   -2.5654    0.3893 C   0  0  0  0  0  0  0  0  0  0  0  0
   -4.6197    3.1946    0.1423 C   0  0  0  0  0  0  0  0  0  0  0  0
   -3.5307    1.7688    1.8986 C   0  0  0  0  0  0  0  0  0  0  0  0
    1.4769   -1.9288    0.8897 C   0  0  0  0  0  0  0  0  0  0  0  0
    2.4968    1.6988   -0.2811 C   0  0  1  0  0  0  0  0  0  0  0  0
    0.8537   -3.1515    0.7726 C   0  0  0  0  0  0  0  0  0  0  0  0
    2.9068   -1.7589    1.3318 C   0  0  0  0  0  0  0  0  0  0  0  0
    3.9251   -1.5812    0.1804 C   0  0  1  0  0  0  0  0  0  0  0  0
    2.7935    3.1933   -0.2573 C   0  0  0  0  0  0  0  0  0  0  0  0
   -3.6242   -2.1849    1.6698 C   0  0  0  0  0  0  0  0  0  0  0  0
    3.7524    0.8598   -0.1035 C   0  0  0  0  0  0  0  0  0  0  0  0
    1.6037    1.9075    2.1149 C   0  0  0  0  0  0  0  0  0  0  0  0
    4.0545   -2.8156   -0.7051 C   0  0  0  0  0  0  0  0  0  0  0  0
    3.7850    3.5636   -1.3590 C   0  0  0  0  0  0  0  0  0  0  0  0
    1.5049    4.0011   -0.4033 C   0  0  0  0  0  0  0  0  0  0  0  0
   -5.2649    0.9195   -0.9621 H   0  0  0  0  0  0  0  0  0  0  0  0
   -4.7310    0.0896    0.4803 H   0  0  0  0  0  0  0  0  0  0  0  0
   -5.1716   -1.4170   -1.3919 H   0  0  0  0  0  0  0  0  0  0  0  0
   -3.9866   -0.5881   -2.3721 H   0  0  0  0  0  0  0  0  0  0  0  0
   -2.5481    3.0902    0.5450 H   0  0  0  0  0  0  0  0  0  0  0  0
   -2.2708    2.7846   -1.8745 H   0  0  0  0  0  0  0  0  0  0  0  0
   -2.5695    1.2381   -2.6513 H   0  0  0  0  0  0  0  0  0  0  0  0
   -3.9181    2.3113   -2.3329 H   0  0  0  0  0  0  0  0  0  0  0  0
   -0.7066    2.2216    0.0960 H   0  0  0  0  0  0  0  0  0  0  0  0
   -2.0773   -3.5605   -1.5895 H   0  0  0  0  0  0  0  0  0  0  0  0
   -3.6135   -3.1999   -2.3483 H   0  0  0  0  0  0  0  0  0  0  0  0
   -2.1961   -2.2048   -2.7102 H   0  0  0  0  0  0  0  0  0  0  0  0
   -4.2170   -3.4857    0.1547 H   0  0  0  0  0  0  0  0  0  0  0  0
   -5.5547    2.6304    0.1939 H   0  0  0  0  0  0  0  0  0  0  0  0
   -4.7363    4.0129    0.8650 H   0  0  0  0  0  0  0  0  0  0  0  0
   -4.5459    3.6793   -0.8341 H   0  0  0  0  0  0  0  0  0  0  0  0
   -4.4938    1.2803    2.0699 H   0  0  0  0  0  0  0  0  0  0  0  0
   -3.4848    2.5721    2.6457 H   0  0  0  0  0  0  0  0  0  0  0  0
   -2.7284    1.0758    2.1616 H   0  0  0  0  0  0  0  0  0  0  0  0
   -1.0973   -3.6846    0.2235 H   0  0  0  0  0  0  0  0  0  0  0  0
    2.0525    1.4529   -1.2570 H   0  0  0  0  0  0  0  0  0  0  0  0
    1.2159   -4.1540    0.9545 H   0  0  0  0  0  0  0  0  0  0  0  0
    2.9614   -0.8992    2.0111 H   0  0  0  0  0  0  0  0  0  0  0  0
    3.2043   -2.6278    1.9338 H   0  0  0  0  0  0  0  0  0  0  0  0
    4.9066   -1.3650    0.6219 H   0  0  0  0  0  0  0  0  0  0  0  0
    3.2655    3.4875    0.6877 H   0  0  0  0  0  0  0  0  0  0  0  0
   -4.0823   -2.8054    2.4338 H   0  0  0  0  0  0  0  0  0  0  0  0
   -3.1449   -1.2765    2.0085 H   0  0  0  0  0  0  0  0  0  0  0  0
    2.5920    2.2973    2.3760 H   0  0  0  0  0  0  0  0  0  0  0  0
    1.3558    1.1710    2.8893 H   0  0  0  0  0  0  0  0  0  0  0  0
    0.8710    2.7154    2.1900 H   0  0  0  0  0  0  0  0  0  0  0  0
    2.8159   -0.5594   -1.2980 H   0  0  0  0  0  0  0  0  0  0  0  0
    3.1100   -3.0835   -1.1886 H   0  0  0  0  0  0  0  0  0  0  0  0
    4.4052   -3.6775   -0.1292 H   0  0  0  0  0  0  0  0  0  0  0  0
    4.7590    3.0855   -1.2219 H   0  0  0  0  0  0  0  0  0  0  0  0
    3.9610    4.6451   -1.3708 H   0  0  0  0  0  0  0  0  0  0  0  0
    3.4041    3.2798   -2.3464 H   0  0  0  0  0  0  0  0  0  0  0  0
    0.8443    3.9225    0.4597 H   0  0  0  0  0  0  0  0  0  0  0  0
    1.7362    5.0670   -0.5138 H   0  0  0  0  0  0  0  0  0  0  0  0
    0.9447    3.6971   -1.2945 H   0  0  0  0  0  0  0  0  0  0  0  0
    4.6719   -1.7767   -2.2299 H   0  0  0  0  0  0  0  0  0  0  0  0
  1 29  2  0  0  0  0
  2 31  1  0  0  0  0
  2 74  1  0  0  0  0
  3 14  1  0  0  0  0
  3 24  1  0  0  0  0
  3 53  1  0  0  0  0
  4 18  1  0  0  0  0
  4 23  1  0  0  0  0
  4 30  1  0  0  0  0
  5 26  1  0  0  0  0
  5 29  1  0  0  0  0
  5 65  1  0  0  0  0
  6  8  1  0  0  0  0
  6  9  1  0  0  0  0
  6 12  1  0  0  0  0
  6 13  1  0  0  0  0
  7 10  1  0  0  0  0
  7 11  1  0  0  0  0
  7 17  1  0  0  0  0
  7 19  1  0  0  0  0
  8 10  1  0  0  0  0
  8 34  1  0  0  0  0
  8 35  1  0  0  0  0
  9 11  1  0  0  0  0
  9 15  2  0  0  0  0
 10 36  1  0  0  0  0
 10 37  1  0  0  0  0
 11 14  2  0  0  0  0
 12 20  1  0  0  0  0
 12 21  1  0  0  0  0
 12 38  1  0  0  0  0
 13 39  1  0  0  0  0
 13 40  1  0  0  0  0
 13 41  1  0  0  0  0
 14 16  1  0  0  0  0
 15 18  1  0  0  0  0
 15 42  1  0  0  0  0
 16 18  2  0  0  0  0
 16 22  1  0  0  0  0
 17 43  1  0  0  0  0
 17 44  1  0  0  0  0
 17 45  1  0  0  0  0
 19 28  2  0  0  0  0
 19 46  1  0  0  0  0
 20 47  1  0  0  0  0
 20 48  1  0  0  0  0
 20 49  1  0  0  0  0
 21 50  1  0  0  0  0
 21 51  1  0  0  0  0
 21 52  1  0  0  0  0
 22 24  2  0  0  0  0
 22 25  1  0  0  0  0
 23 27  1  0  0  0  0
 23 29  1  0  0  0  0
 23 54  1  0  0  0  0
 24 55  1  0  0  0  0
 25 26  1  0  0  0  0
 25 56  1  0  0  0  0
 25 57  1  0  0  0  0
 26 31  1  0  0  0  0
 26 58  1  0  0  0  0
 27 32  1  0  0  0  0
 27 33  1  0  0  0  0
 27 59  1  0  0  0  0
 28 60  1  0  0  0  0
 28 61  1  0  0  0  0
 30 62  1  0  0  0  0
 30 63  1  0  0  0  0
 30 64  1  0  0  0  0
 31 66  1  0  0  0  0
 31 67  1  0  0  0  0
 32 68  1  0  0  0  0
 32 69  1  0  0  0  0
 32 70  1  0  0  0  0
 33 71  1  0  0  0  0
 33 72  1  0  0  0  0
 33 73  1  0  0  0  0
M  END
> <PUBCHEM_COMPOUND_CID>
185384

> <PUBCHEM_CONFORMER_RMSD>
0.8

> <PUBCHEM_CONFORMER_DIVERSEORDER>
1
2
3
4

> <PUBCHEM_MMFF94_PARTIAL_CHARGES>
30
1 -0.57
11 -0.14
14 -0.15
15 -0.15
18 0.1
19 -0.29
2 -0.68
22 -0.18
23 0.43
24 -0.3
25 0.18
26 0.3
28 -0.3
29 0.57
3 0.03
30 0.37
31 0.28
4 -0.84
42 0.15
46 0.15
5 -0.73
53 0.27
55 0.15
6 0.14
60 0.15
61 0.15
65 0.37
7 0.28
74 0.4
9 -0.14

> <PUBCHEM_EFFECTIVE_ROTOR_COUNT>
5.8

> <PUBCHEM_PHARMACOPHORE_FEATURES>
13
1 1 acceptor
1 2 acceptor
1 2 donor
1 28 hydrophobe
1 3 cation
1 3 donor
1 4 cation
1 5 donor
3 12 20 21 hydrophobe
3 27 32 33 hydrophobe
5 3 14 16 22 24 rings
6 6 7 8 9 10 11 rings
6 9 11 14 15 16 18 rings

> <PUBCHEM_HEAVY_ATOM_COUNT>
33

> <PUBCHEM_ATOM_DEF_STEREO_COUNT>
4

> <PUBCHEM_ATOM_UDEF_STEREO_COUNT>
0

> <PUBCHEM_BOND_DEF_STEREO_COUNT>
0

> <PUBCHEM_BOND_UDEF_STEREO_COUNT>
0

> <PUBCHEM_ISOTOPIC_ATOM_COUNT>
0

> <PUBCHEM_COMPONENT_COUNT>
1

> <PUBCHEM_CACTVS_TAUTO_COUNT>
2

> <PUBCHEM_CONFORMER_ID>
0002D42800000001

> <PUBCHEM_MMFF94_ENERGY>
130.153

> <PUBCHEM_FEATURE_SELFOVERLAP>
66.074

> <PUBCHEM_SHAPE_FINGERPRINT>
10074138 170 14817298908393303211
10190108 129 18057576860214479091
1100329 8 18267586990690296058
11513181 2 18262799549432881774
12553582 1 18124040292970041704
12788726 201 18050854312413656889
13140716 1 18339933708893892034
13224815 77 18202010897481338219
13583140 156 17702661210884696209
14020679 6 17986657372147801307
14117953 113 17472993173022095031
14790565 3 18412259536555959713
14955137 171 18124294258639244419
15420108 30 16673573504842625112
1601671 61 18122066661087630282
17492 89 18408604725593759398
17909252 39 17897457098478671363
19591789 44 18340768152399194491
20600515 1 18043804497565291828
20642791 178 18342175587718472488
20642791 239 18198329848800237770
20691752 17 17632303405857041290
22393880 68 18341337789764668158
23558518 356 18341054034149702395
23559900 14 18335708238917343302
283562 15 18196659493180063259
340366 18 18336262469696978308
350125 39 18411419492861747873
4280585 95 18266181819900828222
460360 51 18335972125517738771
463206 1 18268707384612686164
5081480 168 17607491856577061446
5104073 3 18412832403947785266
6287921 2 18129091238998366661
9709674 26 18339642239887433982

> <PUBCHEM_SHAPE_MULTIPOLES>
652.44
9.72
5.03
1.59
1.58
1.49
0.05
0.74
-1.97
1.63
-0.57
-0.51
-0.06
-0.38

> <PUBCHEM_SHAPE_SELFOVERLAP>
1396.028

> <PUBCHEM_SHAPE_VOLUME>
361.3

> <PUBCHEM_COORDINATE_TYPE>
2
5
10

$$$$

