9178
  -OEChem-07051213153D

 35 39  0     0  0  0  0  0  0999 V2000
    0.0000   -0.4000   -0.0008 N   0  0  0  0  0  0  0  0  0  0  0  0
    1.1845    0.2531   -0.0004 C   0  0  0  0  0  0  0  0  0  0  0  0
   -1.1845    0.2531   -0.0006 C   0  0  0  0  0  0  0  0  0  0  0  0
    1.2155    1.6561   -0.0001 C   0  0  0  0  0  0  0  0  0  0  0  0
   -1.2156    1.6561   -0.0005 C   0  0  0  0  0  0  0  0  0  0  0  0
    2.4111   -0.4475   -0.0003 C   0  0  0  0  0  0  0  0  0  0  0  0
   -2.4110   -0.4474   -0.0003 C   0  0  0  0  0  0  0  0  0  0  0  0
    0.0000    2.3453   -0.0003 C   0  0  0  0  0  0  0  0  0  0  0  0
    3.6427    0.2571    0.0004 C   0  0  0  0  0  0  0  0  0  0  0  0
   -3.6427    0.2570    0.0002 C   0  0  0  0  0  0  0  0  0  0  0  0
    2.4335    2.3475    0.0005 C   0  0  0  0  0  0  0  0  0  0  0  0
   -2.4335    2.3474   -0.0003 C   0  0  0  0  0  0  0  0  0  0  0  0
    3.6372    1.6533    0.0008 C   0  0  0  0  0  0  0  0  0  0  0  0
   -3.6372    1.6532    0.0001 C   0  0  0  0  0  0  0  0  0  0  0  0
    2.4625   -1.8577   -0.0005 C   0  0  0  0  0  0  0  0  0  0  0  0
   -2.4625   -1.8577   -0.0007 C   0  0  0  0  0  0  0  0  0  0  0  0
    4.8578   -0.4481    0.0008 C   0  0  0  0  0  0  0  0  0  0  0  0
   -4.8577   -0.4481    0.0010 C   0  0  0  0  0  0  0  0  0  0  0  0
    3.6779   -2.5454   -0.0004 C   0  0  0  0  0  0  0  0  0  0  0  0
   -3.6779   -2.5453    0.0002 C   0  0  0  0  0  0  0  0  0  0  0  0
    4.8747   -1.8410    0.0004 C   0  0  0  0  0  0  0  0  0  0  0  0
   -4.8746   -1.8410    0.0010 C   0  0  0  0  0  0  0  0  0  0  0  0
    0.0000    3.4351   -0.0001 H   0  0  0  0  0  0  0  0  0  0  0  0
    2.4551    3.4353    0.0008 H   0  0  0  0  0  0  0  0  0  0  0  0
   -2.4552    3.4352   -0.0003 H   0  0  0  0  0  0  0  0  0  0  0  0
    4.5682    2.2158    0.0013 H   0  0  0  0  0  0  0  0  0  0  0  0
   -4.5682    2.2158    0.0004 H   0  0  0  0  0  0  0  0  0  0  0  0
    1.5475   -2.4477   -0.0010 H   0  0  0  0  0  0  0  0  0  0  0  0
   -1.5476   -2.4477   -0.0013 H   0  0  0  0  0  0  0  0  0  0  0  0
    5.8067    0.0847    0.0015 H   0  0  0  0  0  0  0  0  0  0  0  0
   -5.8067    0.0847    0.0015 H   0  0  0  0  0  0  0  0  0  0  0  0
    3.6858   -3.6314   -0.0008 H   0  0  0  0  0  0  0  0  0  0  0  0
   -3.6859   -3.6314    0.0001 H   0  0  0  0  0  0  0  0  0  0  0  0
    5.8209   -2.3737    0.0006 H   0  0  0  0  0  0  0  0  0  0  0  0
   -5.8209   -2.3735    0.0016 H   0  0  0  0  0  0  0  0  0  0  0  0
  1  2  2  0  0  0  0
  1  3  1  0  0  0  0
  2  4  1  0  0  0  0
  2  6  1  0  0  0  0
  3  5  2  0  0  0  0
  3  7  1  0  0  0  0
  4  8  2  0  0  0  0
  4 11  1  0  0  0  0
  5  8  1  0  0  0  0
  5 12  1  0  0  0  0
  6  9  1  0  0  0  0
  6 15  2  0  0  0  0
  7 10  1  0  0  0  0
  7 16  2  0  0  0  0
  8 23  1  0  0  0  0
  9 13  1  0  0  0  0
  9 17  2  0  0  0  0
 10 14  1  0  0  0  0
 10 18  2  0  0  0  0
 11 13  2  0  0  0  0
 11 24  1  0  0  0  0
 12 14  2  0  0  0  0
 12 25  1  0  0  0  0
 13 26  1  0  0  0  0
 14 27  1  0  0  0  0
 15 19  1  0  0  0  0
 15 28  1  0  0  0  0
 16 20  1  0  0  0  0
 16 29  1  0  0  0  0
 17 21  1  0  0  0  0
 17 30  1  0  0  0  0
 18 22  1  0  0  0  0
 18 31  1  0  0  0  0
 19 21  2  0  0  0  0
 19 32  1  0  0  0  0
 20 22  2  0  0  0  0
 20 33  1  0  0  0  0
 21 34  1  0  0  0  0
 22 35  1  0  0  0  0
M  END
> <PUBCHEM_COMPOUND_CID>
9178

> <PUBCHEM_CONFORMER_RMSD>
0.6

> <PUBCHEM_CONFORMER_DIVERSEORDER>
1

> <PUBCHEM_MMFF94_PARTIAL_CHARGES>
29
1 -0.62
11 -0.15
12 -0.15
13 -0.15
14 -0.15
15 -0.15
16 -0.15
17 -0.15
18 -0.15
19 -0.15
2 0.31
20 -0.15
21 -0.15
22 -0.15
23 0.15
24 0.15
25 0.15
26 0.15
27 0.15
28 0.15
29 0.15
3 0.31
30 0.15
31 0.15
32 0.15
33 0.15
34 0.15
35 0.15
8 -0.15

> <PUBCHEM_EFFECTIVE_ROTOR_COUNT>
0

> <PUBCHEM_PHARMACOPHORE_FEATURES>
6
1 1 acceptor
6 1 2 3 4 5 8 rings
6 2 4 6 9 11 13 rings
6 3 5 7 10 12 14 rings
6 6 9 15 17 19 21 rings
6 7 10 16 18 20 22 rings

> <PUBCHEM_HEAVY_ATOM_COUNT>
22

> <PUBCHEM_ATOM_DEF_STEREO_COUNT>
0

> <PUBCHEM_ATOM_UDEF_STEREO_COUNT>
0

> <PUBCHEM_BOND_DEF_STEREO_COUNT>
0

> <PUBCHEM_BOND_UDEF_STEREO_COUNT>
0

> <PUBCHEM_ISOTOPIC_ATOM_COUNT>
0

> <PUBCHEM_COMPONENT_COUNT>
1

> <PUBCHEM_CACTVS_TAUTO_COUNT>
1

> <PUBCHEM_CONFORMER_ID>
000023DA00000001

> <PUBCHEM_MMFF94_ENERGY>
78.0014

> <PUBCHEM_FEATURE_SELFOVERLAP>
30.557

> <PUBCHEM_SHAPE_FINGERPRINT>
10616163 171 18408602565119311519
10622 236 17606985896730093575
10693767 8 17972902284559965815
10967382 1 18266741281385503204
1100329 8 18264486376764663713
11405975 8 18335417997627831057
11963148 33 17981049613396291770
12107183 9 17976817915072475649
12403259 226 18410860957687138660
12633257 1 18261662783601320017
13140716 1 18334856164154974929
13167823 11 18410576184175057475
13533116 47 18262520291128397083
13544653 18 18341888546379490035
13583140 156 17822589217255278024
138480 1 14879752311085504161
14341114 176 18409442596281685513
14866123 147 17397541390995102576
15196674 1 18410856563935016709
15352361 1 18410575088995222831
15442244 35 18410291453644629128
15536298 74 18408324371771817560
17492 89 18411136917952117651
17804303 29 18336545005557088421
17857418 61 18410296908253133971
1813 80 17418094308207417020
19141452 34 18339077219659529617
19591789 44 18410856563935049191
200 152 18187367631492105593
20261772 1 17894916200305675534
20281475 54 18410852161598930004
20645477 70 18342461396179807122
21065198 57 18410012156269416337
21267235 1 18410566288570316546
21279426 13 18341338868413045045
21673915 165 18410576158637089514
221490 88 18412539882183124810
22393880 68 17988093278245938909
23559900 14 18410019835639111304
2871803 45 18343306937532443203
3004659 81 18201723946294678878
335352 9 18338517542919386293
3421961 26 18336830801471144704
350125 39 18410008836185609600
4214541 1 18410574028285798881
4280585 95 17759511563027262054
46194498 28 17344639132417779143
463206 1 18193276291179732775
5104073 3 18335139803858344528
633830 44 16845564340054329260
6823239 73 18041828649579937446
9709674 26 18342172224416155819
9981440 41 17405426602863834456

> <PUBCHEM_SHAPE_MULTIPOLES>
447.77
10.55
3.15
0.61
0
0.11
0
5.62
0
0
0
0
0
0

> <PUBCHEM_SHAPE_SELFOVERLAP>
1045.44

> <PUBCHEM_SHAPE_VOLUME>
225.8

> <PUBCHEM_COORDINATE_TYPE>
2
5
10

$$$$

