5878
  -OEChem-07051212533D

 52 55  0     1  0  0  0  0  0999 V2000
    5.0357    0.9647    0.3928 O   0  0  0  0  0  0  0  0  0  0  0  0
   -4.0970    1.3891   -0.2984 O   0  0  0  0  0  0  0  0  0  0  0  0
   -5.9836    0.1686   -0.3883 O   0  0  0  0  0  0  0  0  0  0  0  0
    1.8700   -0.7513   -0.2511 C   0  0  2  0  0  0  0  0  0  0  0  0
    2.6073    0.5162    0.2331 C   0  0  1  0  0  0  0  0  0  0  0  0
    0.4238   -0.8385    0.2556 C   0  0  1  0  0  0  0  0  0  0  0  0
   -0.3597    0.4178   -0.2392 C   0  0  1  0  0  0  0  0  0  0  0  0
   -1.8646    0.3770    0.2045 C   0  0  2  0  0  0  0  0  0  0  0  0
    4.0371    0.2508   -0.3324 C   0  0  2  0  0  0  0  0  0  0  0  0
    1.8543    1.7381   -0.3207 C   0  0  0  0  0  0  0  0  0  0  0  0
    0.3741    1.7400    0.1044 C   0  0  0  0  0  0  0  0  0  0  0  0
    2.8331   -1.8803    0.1005 C   0  0  0  0  0  0  0  0  0  0  0  0
   -2.4875   -0.9436   -0.3089 C   0  0  1  0  0  0  0  0  0  0  0  0
   -0.2581   -2.1303   -0.2198 C   0  0  0  0  0  0  0  0  0  0  0  0
    4.2335   -1.2719   -0.0989 C   0  0  0  0  0  0  0  0  0  0  0  0
   -1.7307   -2.1852    0.1771 C   0  0  0  0  0  0  0  0  0  0  0  0
    2.6796    0.6350    1.7839 C   0  0  0  0  0  0  0  0  0  0  0  0
   -2.6675    1.4948   -0.4812 C   0  0  0  0  0  0  0  0  0  0  0  0
   -2.0101    0.5375    1.7376 C   0  0  0  0  0  0  0  0  0  0  0  0
   -3.9692   -1.0347    0.0322 C   0  0  0  0  0  0  0  0  0  0  0  0
    4.2402    0.5947   -1.8132 C   0  0  0  0  0  0  0  0  0  0  0  0
   -4.7605    0.2114   -0.2695 C   0  0  0  0  0  0  0  0  0  0  0  0
    1.8088   -0.7286   -1.3499 H   0  0  0  0  0  0  0  0  0  0  0  0
    0.4299   -0.8607    1.3504 H   0  0  0  0  0  0  0  0  0  0  0  0
   -0.3597    0.3656   -1.3401 H   0  0  0  0  0  0  0  0  0  0  0  0
    1.8816    1.7451   -1.4168 H   0  0  0  0  0  0  0  0  0  0  0  0
    2.3343    2.6672    0.0089 H   0  0  0  0  0  0  0  0  0  0  0  0
    0.3094    1.9529    1.1751 H   0  0  0  0  0  0  0  0  0  0  0  0
   -0.1169    2.5781   -0.4031 H   0  0  0  0  0  0  0  0  0  0  0  0
    2.6873   -2.7559   -0.5407 H   0  0  0  0  0  0  0  0  0  0  0  0
    2.7049   -2.2076    1.1384 H   0  0  0  0  0  0  0  0  0  0  0  0
   -2.4172   -0.9389   -1.4080 H   0  0  0  0  0  0  0  0  0  0  0  0
    0.2532   -3.0040    0.2007 H   0  0  0  0  0  0  0  0  0  0  0  0
   -0.1780   -2.2131   -1.3114 H   0  0  0  0  0  0  0  0  0  0  0  0
    4.8591   -1.4858    0.7754 H   0  0  0  0  0  0  0  0  0  0  0  0
    4.7287   -1.7463   -0.9544 H   0  0  0  0  0  0  0  0  0  0  0  0
   -2.1809   -3.0868   -0.2562 H   0  0  0  0  0  0  0  0  0  0  0  0
   -1.8155   -2.2897    1.2651 H   0  0  0  0  0  0  0  0  0  0  0  0
    3.1760    1.5676    2.0769 H   0  0  0  0  0  0  0  0  0  0  0  0
    1.6946    0.6461    2.2572 H   0  0  0  0  0  0  0  0  0  0  0  0
    3.2338   -0.1895    2.2437 H   0  0  0  0  0  0  0  0  0  0  0  0
   -2.3833    2.4768   -0.0884 H   0  0  0  0  0  0  0  0  0  0  0  0
   -2.4845    1.5177   -1.5622 H   0  0  0  0  0  0  0  0  0  0  0  0
   -1.6225    1.5037    2.0759 H   0  0  0  0  0  0  0  0  0  0  0  0
   -3.0552    0.5049    2.0612 H   0  0  0  0  0  0  0  0  0  0  0  0
   -1.4792   -0.2412    2.2913 H   0  0  0  0  0  0  0  0  0  0  0  0
   -4.1158   -1.2690    1.0927 H   0  0  0  0  0  0  0  0  0  0  0  0
   -4.4128   -1.8537   -0.5475 H   0  0  0  0  0  0  0  0  0  0  0  0
    4.1540    1.6744   -1.9782 H   0  0  0  0  0  0  0  0  0  0  0  0
    5.2549    0.3260   -2.1310 H   0  0  0  0  0  0  0  0  0  0  0  0
    3.5349    0.0809   -2.4717 H   0  0  0  0  0  0  0  0  0  0  0  0
    5.1382    0.5708    1.2745 H   0  0  0  0  0  0  0  0  0  0  0  0
  1  9  1  0  0  0  0
  1 52  1  0  0  0  0
  2 18  1  0  0  0  0
  2 22  1  0  0  0  0
  3 22  2  0  0  0  0
  4  5  1  0  0  0  0
  4  6  1  0  0  0  0
  4 12  1  0  0  0  0
  4 23  1  0  0  0  0
  5  9  1  0  0  0  0
  5 10  1  0  0  0  0
  5 17  1  0  0  0  0
  6  7  1  0  0  0  0
  6 14  1  0  0  0  0
  6 24  1  0  0  0  0
  7  8  1  0  0  0  0
  7 11  1  0  0  0  0
  7 25  1  0  0  0  0
  8 13  1  0  0  0  0
  8 18  1  0  0  0  0
  8 19  1  0  0  0  0
  9 15  1  0  0  0  0
  9 21  1  0  0  0  0
 10 11  1  0  0  0  0
 10 26  1  0  0  0  0
 10 27  1  0  0  0  0
 11 28  1  0  0  0  0
 11 29  1  0  0  0  0
 12 15  1  0  0  0  0
 12 30  1  0  0  0  0
 12 31  1  0  0  0  0
 13 16  1  0  0  0  0
 13 20  1  0  0  0  0
 13 32  1  0  0  0  0
 14 16  1  0  0  0  0
 14 33  1  0  0  0  0
 14 34  1  0  0  0  0
 15 35  1  0  0  0  0
 15 36  1  0  0  0  0
 16 37  1  0  0  0  0
 16 38  1  0  0  0  0
 17 39  1  0  0  0  0
 17 40  1  0  0  0  0
 17 41  1  0  0  0  0
 18 42  1  0  0  0  0
 18 43  1  0  0  0  0
 19 44  1  0  0  0  0
 19 45  1  0  0  0  0
 19 46  1  0  0  0  0
 20 22  1  0  0  0  0
 20 47  1  0  0  0  0
 20 48  1  0  0  0  0
 21 49  1  0  0  0  0
 21 50  1  0  0  0  0
 21 51  1  0  0  0  0
M  END
> <PUBCHEM_COMPOUND_CID>
5878

> <PUBCHEM_CONFORMER_RMSD>
0.6

> <PUBCHEM_CONFORMER_DIVERSEORDER>
1

> <PUBCHEM_MMFF94_PARTIAL_CHARGES>
8
1 -0.68
18 0.28
2 -0.43
20 0.06
22 0.66
3 -0.57
52 0.4
9 0.28

> <PUBCHEM_EFFECTIVE_ROTOR_COUNT>
2

> <PUBCHEM_PHARMACOPHORE_FEATURES>
7
1 1 acceptor
1 1 donor
1 3 acceptor
5 4 5 9 12 15 rings
6 2 8 13 18 20 22 rings
6 4 5 6 7 10 11 rings
6 6 7 8 13 14 16 rings

> <PUBCHEM_HEAVY_ATOM_COUNT>
22

> <PUBCHEM_ATOM_DEF_STEREO_COUNT>
7

> <PUBCHEM_ATOM_UDEF_STEREO_COUNT>
0

> <PUBCHEM_BOND_DEF_STEREO_COUNT>
0

> <PUBCHEM_BOND_UDEF_STEREO_COUNT>
0

> <PUBCHEM_ISOTOPIC_ATOM_COUNT>
0

> <PUBCHEM_COMPONENT_COUNT>
1

> <PUBCHEM_CACTVS_TAUTO_COUNT>
1

> <PUBCHEM_CONFORMER_ID>
000016F600000001

> <PUBCHEM_MMFF94_ENERGY>
88.7433

> <PUBCHEM_FEATURE_SELFOVERLAP>
35.609

> <PUBCHEM_SHAPE_FINGERPRINT>
10366900 7 17313100843480680594
10498660 4 18411134736387818996
10967382 1 18410856598400256646
11132069 177 18411982455700025336
11578080 2 16952548865962524555
12011746 2 18335134302189698214
12236239 1 17821447976189003249
12403259 415 18335710450810196257
12403814 3 17561368378578036141
12592029 89 18271811258883246571
12788726 201 17967806201744290233
13140716 1 18123757456467625320
13224815 77 18113615685909489146
13533116 47 17822010951332304495
14178342 30 18121801438626221322
14790565 3 18338791346836949821
15099037 51 18411982455710607471
15196674 1 18410856581162306759
15536298 74 18333454243905968794
15788980 27 17846495941416375394
1601671 61 18342457040967080580
16752209 62 18411983606366639137
16945 1 18267309733250202410
17349148 13 18040152929064957405
18186145 218 17967811647867829003
19862831 5 18187364324493751781
200 152 17822013107932939969
20645477 70 18338236080479593110
21033648 29 18336278902553479041
21267235 1 18338509837357881166
21279426 13 18192995035161334973
21285901 2 18271242836645403884
21421861 104 17702398410526392378
23402539 116 18187653478877483591
23557571 272 17604999095828325462
23559900 14 18187651254226881488
2838139 119 16054940756722741071
296302 2 16845568699482408303
3004659 81 18271806869616599614
3060560 45 17676203576807840102
3286 77 17677057952971240906
335352 9 18411139159924591846
34797466 226 17168141208889281132
34934 24 18410860923880638626
350125 39 18410853287677024489
3545911 37 18409449176176864206
474 4 16558174992114550996
495365 180 17386019338275746738
4990 188 17894345596677912308
5104073 3 18411419535415906027
537710 114 18410290324226394924
542803 24 17458341944453840737
633830 44 17561362906795137731
69090 78 18335424560480238335
9709674 26 18338797806151076503
9981440 41 17263559903377057064

> <PUBCHEM_SHAPE_MULTIPOLES>
435.14
10.04
2.01
1.11
3.93
0.57
0.24
-1.12
-1.76
-0.06
-0.07
-0.7
-0.29
0.05

> <PUBCHEM_SHAPE_SELFOVERLAP>
929.653

> <PUBCHEM_SHAPE_VOLUME>
239.9

> <PUBCHEM_COORDINATE_TYPE>
2
5
10

$$$$

