23724729
  -OEChem-07051213082D

 90 95  0     1  0  0  0  0  0999 V2000
    9.8105   -0.9293    0.0000 O   0  0  0  0  0  0  0  0  0  0  0  0
    5.4641   -1.3747    0.0000 O   0  0  0  0  0  0  0  0  0  0  0  0
    8.0785   -0.9093    0.0000 O   0  0  0  0  0  0  0  0  0  0  0  0
    4.5981    0.1253    0.0000 O   0  0  0  0  0  0  0  0  0  0  0  0
   11.5193   -2.9492    0.0000 O   0  0  0  0  0  0  0  0  0  0  0  0
    9.7758   -3.9291    0.0000 O   0  0  0  0  0  0  0  0  0  0  0  0
    8.0554   -2.9092    0.0000 O   0  0  0  0  0  0  0  0  0  0  0  0
    2.8660   -2.8747    0.0000 O   0  0  0  0  0  0  0  0  0  0  0  0
    4.5981   -3.8747    0.0000 O   0  0  0  0  0  0  0  0  0  0  0  0
    2.8660   -0.8747    0.0000 O   0  0  0  0  0  0  0  0  0  0  0  0
   12.4026   -1.4593    0.0000 O   0  0  0  0  0  0  0  0  0  0  0  0
    6.3301   -3.8747    0.0000 O   0  0  0  0  0  0  0  0  0  0  0  0
    6.3301    2.1253    0.0000 O   0  3  0  0  0  0  0  0  0  0  0  0
    9.8602    2.1494    0.0000 O   0  0  0  0  0  0  0  0  0  0  0  0
   13.2859    0.0306    0.0000 O   0  0  0  0  0  0  0  0  0  0  0  0
    2.0000    3.6253    0.0000 O   0  0  0  0  0  0  0  0  0  0  0  0
   18.4470   -3.0293    0.0000 O   0  0  0  0  0  0  0  0  0  0  0  0
   10.6591   -2.4392    0.0000 C   0  0  1  0  0  0  0  0  0  0  0  0
    9.7873   -2.9292    0.0000 C   0  0  1  0  0  0  0  0  0  0  0  0
   10.6707   -1.4393    0.0000 C   0  0  1  0  0  0  0  0  0  0  0  0
    8.9271   -2.4192    0.0000 C   0  0  2  0  0  0  0  0  0  0  0  0
    3.7320   -2.3747    0.0000 C   0  0  1  0  0  0  0  0  0  0  0  0
    4.5981   -2.8747    0.0000 C   0  0  1  0  0  0  0  0  0  0  0  0
    3.7320   -1.3747    0.0000 C   0  0  2  0  0  0  0  0  0  0  0  0
    5.4641   -2.3747    0.0000 C   0  0  1  0  0  0  0  0  0  0  0  0
    8.9387   -1.4193    0.0000 C   0  0  1  0  0  0  0  0  0  0  0  0
    4.5981   -0.8747    0.0000 C   0  0  1  0  0  0  0  0  0  0  0  0
   11.5424   -0.9493    0.0000 C   0  0  0  0  0  0  0  0  0  0  0  0
    6.3301   -2.8747    0.0000 C   0  0  0  0  0  0  0  0  0  0  0  0
    8.0901    0.0906    0.0000 C   0  0  0  0  0  0  0  0  0  0  0  0
    5.4641    0.6253    0.0000 C   0  0  0  0  0  0  0  0  0  0  0  0
    7.1962    0.6253    0.0000 C   0  0  0  0  0  0  0  0  0  0  0  0
    6.3301    0.1253    0.0000 C   0  0  0  0  0  0  0  0  0  0  0  0
    5.4641    1.6253    0.0000 C   0  0  0  0  0  0  0  0  0  0  0  0
    7.1962    1.6253    0.0000 C   0  0  0  0  0  0  0  0  0  0  0  0
    8.9962    0.6045    0.0000 C   0  0  0  0  0  0  0  0  0  0  0  0
    8.0901    2.1600    0.0000 C   0  0  0  0  0  0  0  0  0  0  0  0
    8.9962    1.6461    0.0000 C   0  0  0  0  0  0  0  0  0  0  0  0
    4.5981    2.1253    0.0000 C   0  0  0  0  0  0  0  0  0  0  0  0
   13.2743   -0.9694    0.0000 C   0  0  0  0  0  0  0  0  0  0  0  0
    4.5981    3.1253    0.0000 C   0  0  0  0  0  0  0  0  0  0  0  0
    3.7320    1.6253    0.0000 C   0  0  0  0  0  0  0  0  0  0  0  0
   14.1345   -1.4794    0.0000 C   0  0  0  0  0  0  0  0  0  0  0  0
    3.7320    3.6253    0.0000 C   0  0  0  0  0  0  0  0  0  0  0  0
    2.8660    2.1253    0.0000 C   0  0  0  0  0  0  0  0  0  0  0  0
    2.8660    3.1253    0.0000 C   0  0  0  0  0  0  0  0  0  0  0  0
   15.0063   -0.9894    0.0000 C   0  0  0  0  0  0  0  0  0  0  0  0
   15.8665   -1.4994    0.0000 C   0  0  0  0  0  0  0  0  0  0  0  0
   15.8549   -2.4993    0.0000 C   0  0  0  0  0  0  0  0  0  0  0  0
   16.7382   -1.0094    0.0000 C   0  0  0  0  0  0  0  0  0  0  0  0
   16.7151   -3.0093    0.0000 C   0  0  0  0  0  0  0  0  0  0  0  0
   17.5984   -1.5194    0.0000 C   0  0  0  0  0  0  0  0  0  0  0  0
   17.5868   -2.5193    0.0000 C   0  0  0  0  0  0  0  0  0  0  0  0
   10.6519   -3.0592    0.0000 H   0  0  0  0  0  0  0  0  0  0  0  0
   10.3207   -3.2454    0.0000 H   0  0  0  0  0  0  0  0  0  0  0  0
   10.6778   -0.8193    0.0000 H   0  0  0  0  0  0  0  0  0  0  0  0
    8.3938   -2.1030    0.0000 H   0  0  0  0  0  0  0  0  0  0  0  0
    3.7320   -2.9947    0.0000 H   0  0  0  0  0  0  0  0  0  0  0  0
    5.1350   -3.1847    0.0000 H   0  0  0  0  0  0  0  0  0  0  0  0
    3.7320   -0.7547    0.0000 H   0  0  0  0  0  0  0  0  0  0  0  0
    6.0010   -2.0647    0.0000 H   0  0  0  0  0  0  0  0  0  0  0  0
    8.3982   -1.7230    0.0000 H   0  0  0  0  0  0  0  0  0  0  0  0
    4.0611   -0.5647    0.0000 H   0  0  0  0  0  0  0  0  0  0  0  0
   11.9464   -0.4790    0.0000 H   0  0  0  0  0  0  0  0  0  0  0  0
   11.1494   -0.4698    0.0000 H   0  0  0  0  0  0  0  0  0  0  0  0
    6.9407   -2.9824    0.0000 H   0  0  0  0  0  0  0  0  0  0  0  0
    6.5422   -2.2921    0.0000 H   0  0  0  0  0  0  0  0  0  0  0  0
   11.5121   -3.5692    0.0000 H   0  0  0  0  0  0  0  0  0  0  0  0
   10.3091   -4.2453    0.0000 H   0  0  0  0  0  0  0  0  0  0  0  0
    8.0482   -3.5291    0.0000 H   0  0  0  0  0  0  0  0  0  0  0  0
    2.8660   -3.4947    0.0000 H   0  0  0  0  0  0  0  0  0  0  0  0
    4.0611   -4.1847    0.0000 H   0  0  0  0  0  0  0  0  0  0  0  0
    2.3291   -1.1847    0.0000 H   0  0  0  0  0  0  0  0  0  0  0  0
    6.3301   -0.4947    0.0000 H   0  0  0  0  0  0  0  0  0  0  0  0
    9.5319    0.2924    0.0000 H   0  0  0  0  0  0  0  0  0  0  0  0
    6.8671   -4.1847    0.0000 H   0  0  0  0  0  0  0  0  0  0  0  0
    8.0829    2.7799    0.0000 H   0  0  0  0  0  0  0  0  0  0  0  0
    5.1350    3.4353    0.0000 H   0  0  0  0  0  0  0  0  0  0  0  0
    3.7320    1.0053    0.0000 H   0  0  0  0  0  0  0  0  0  0  0  0
   14.1274   -2.0993    0.0000 H   0  0  0  0  0  0  0  0  0  0  0  0
    9.8579    2.7694    0.0000 H   0  0  0  0  0  0  0  0  0  0  0  0
    3.7320    4.2453    0.0000 H   0  0  0  0  0  0  0  0  0  0  0  0
    2.3291    1.8153    0.0000 H   0  0  0  0  0  0  0  0  0  0  0  0
   15.0134   -0.3694    0.0000 H   0  0  0  0  0  0  0  0  0  0  0  0
    2.0000    4.2453    0.0000 H   0  0  0  0  0  0  0  0  0  0  0  0
   15.3144   -2.8031    0.0000 H   0  0  0  0  0  0  0  0  0  0  0  0
   16.7454   -0.3895    0.0000 H   0  0  0  0  0  0  0  0  0  0  0  0
   16.7079   -3.6293    0.0000 H   0  0  0  0  0  0  0  0  0  0  0  0
   18.1389   -1.2156    0.0000 H   0  0  0  0  0  0  0  0  0  0  0  0
   18.9875   -2.7256    0.0000 H   0  0  0  0  0  0  0  0  0  0  0  0
  1 20  1  0  0  0  0
  1 26  1  0  0  0  0
  2 25  1  0  0  0  0
  2 27  1  0  0  0  0
 26  3  1  6  0  0  0
  3 30  1  0  0  0  0
 27  4  1  6  0  0  0
  4 31  1  0  0  0  0
 18  5  1  1  0  0  0
  5 68  1  0  0  0  0
 19  6  1  6  0  0  0
  6 69  1  0  0  0  0
 21  7  1  1  0  0  0
  7 70  1  0  0  0  0
 22  8  1  6  0  0  0
  8 71  1  0  0  0  0
 23  9  1  1  0  0  0
  9 72  1  0  0  0  0
 24 10  1  1  0  0  0
 10 73  1  0  0  0  0
 11 28  1  0  0  0  0
 11 40  1  0  0  0  0
 12 29  1  0  0  0  0
 12 76  1  0  0  0  0
 13 34  1  0  0  0  0
 13 35  2  0  0  0  0
 14 38  1  0  0  0  0
 14 81  1  0  0  0  0
 15 40  2  0  0  0  0
 16 46  1  0  0  0  0
 16 85  1  0  0  0  0
 17 53  1  0  0  0  0
 17 90  1  0  0  0  0
 18 19  1  0  0  0  0
 18 20  1  0  0  0  0
 18 54  1  0  0  0  0
 19 21  1  0  0  0  0
 19 55  1  0  0  0  0
 20 28  1  6  0  0  0
 20 56  1  0  0  0  0
 21 26  1  0  0  0  0
 21 57  1  0  0  0  0
 22 23  1  0  0  0  0
 22 24  1  0  0  0  0
 22 58  1  0  0  0  0
 23 25  1  0  0  0  0
 23 59  1  0  0  0  0
 24 27  1  0  0  0  0
 24 60  1  0  0  0  0
 25 29  1  6  0  0  0
 25 61  1  0  0  0  0
 26 62  1  0  0  0  0
 27 63  1  0  0  0  0
 28 64  1  0  0  0  0
 28 65  1  0  0  0  0
 29 66  1  0  0  0  0
 29 67  1  0  0  0  0
 30 32  1  0  0  0  0
 30 36  2  0  0  0  0
 31 33  1  0  0  0  0
 31 34  2  0  0  0  0
 32 33  2  0  0  0  0
 32 35  1  0  0  0  0
 33 74  1  0  0  0  0
 34 39  1  0  0  0  0
 35 37  1  0  0  0  0
 36 38  1  0  0  0  0
 36 75  1  0  0  0  0
 37 38  2  0  0  0  0
 37 77  1  0  0  0  0
 39 41  2  0  0  0  0
 39 42  1  0  0  0  0
 40 43  1  0  0  0  0
 41 44  1  0  0  0  0
 41 78  1  0  0  0  0
 42 45  2  0  0  0  0
 42 79  1  0  0  0  0
 43 47  2  0  0  0  0
 43 80  1  0  0  0  0
 44 46  2  0  0  0  0
 44 82  1  0  0  0  0
 45 46  1  0  0  0  0
 45 83  1  0  0  0  0
 47 48  1  0  0  0  0
 47 84  1  0  0  0  0
 48 49  2  0  0  0  0
 48 50  1  0  0  0  0
 49 51  1  0  0  0  0
 49 86  1  0  0  0  0
 50 52  2  0  0  0  0
 50 87  1  0  0  0  0
 51 53  2  0  0  0  0
 51 88  1  0  0  0  0
 52 53  1  0  0  0  0
 52 89  1  0  0  0  0
M  CHG  1  13   1
M  END
> <PUBCHEM_COMPOUND_CID>
23724729

> <PUBCHEM_COMPOUND_CANONICALIZED>
1

> <PUBCHEM_CACTVS_COMPLEXITY>
1190

> <PUBCHEM_CACTVS_HBOND_ACCEPTOR>
16

> <PUBCHEM_CACTVS_HBOND_DONOR>
10

> <PUBCHEM_CACTVS_ROTATABLE_BOND>
11

> <PUBCHEM_CACTVS_SUBSKEYS>
AAADcfB8PgAAAAAAAAAAAAAAAAAAAAAAAAA0aNECAAAAAACR9AAAGgAACAAADBSwmAMwDsAABkCIAqDSCAICCAAkIAAIiAFGiMgdNzaGNR6ieWKl4BUPuYfK7OzOIAAACAAIAABAAAAQABAAAAAAAAAAAA==

> <PUBCHEM_IUPAC_OPENEYE_NAME>
[(2R,3S,4S,5R,6S)-3,4,5-trihydroxy-6-[7-hydroxy-2-(4-hydroxyphenyl)-3-[(2S,3R,4S,5S,6R)-3,4,5-trihydroxy-6-(hydroxymethyl)tetrahydropyran-2-yl]oxy-chromenylium-5-yl]oxy-tetrahydropyran-2-yl]methyl (E)-3-(4-hydroxyphenyl)prop-2-enoate

> <PUBCHEM_IUPAC_CAS_NAME>
(E)-3-(4-hydroxyphenyl)-2-propenoic acid [(2R,3S,4S,5R,6S)-3,4,5-trihydroxy-6-[[7-hydroxy-2-(4-hydroxyphenyl)-3-[[(2S,3R,4S,5S,6R)-3,4,5-trihydroxy-6-(hydroxymethyl)-2-oxanyl]oxy]-1-benzopyrylium-5-yl]oxy]-2-oxanyl]methyl ester

> <PUBCHEM_IUPAC_NAME>
[(2R,3S,4S,5R,6S)-3,4,5-trihydroxy-6-[7-hydroxy-2-(4-hydroxyphenyl)-3-[(2S,3R,4S,5S,6R)-3,4,5-trihydroxy-6-(hydroxymethyl)oxan-2-yl]oxychromenylium-5-yl]oxyoxan-2-yl]methyl (E)-3-(4-hydroxyphenyl)prop-2-enoate

> <PUBCHEM_IUPAC_SYSTEMATIC_NAME>
[(2R,3S,4S,5R,6S)-6-[3-[(2S,3R,4S,5S,6R)-6-(hydroxymethyl)-3,4,5-tris(oxidanyl)oxan-2-yl]oxy-2-(4-hydroxyphenyl)-7-oxidanyl-chromenylium-5-yl]oxy-3,4,5-tris(oxidanyl)oxan-2-yl]methyl (E)-3-(4-hydroxyphenyl)prop-2-enoate

> <PUBCHEM_IUPAC_TRADITIONAL_NAME>
(E)-3-(4-hydroxyphenyl)acrylic acid [(2R,3S,4S,5R,6S)-3,4,5-trihydroxy-6-[[7-hydroxy-2-(4-hydroxyphenyl)-3-[(2S,3R,4S,5S,6R)-3,4,5-trihydroxy-6-methylol-tetrahydropyran-2-yl]oxy-1-benzopyrylium-5-yl]oxy]tetrahydropyran-2-yl]methyl ester

> <PUBCHEM_IUPAC_INCHI>
InChI=1S/C36H36O17/c37-14-25-28(42)30(44)32(46)36(52-25)51-24-13-21-22(49-34(24)17-4-8-19(39)9-5-17)11-20(40)12-23(21)50-35-33(47)31(45)29(43)26(53-35)15-48-27(41)10-3-16-1-6-18(38)7-2-16/h1-13,25-26,28-33,35-37,42-47H,14-15H2,(H2-,38,39,40,41)/p+1/t25-,26-,28-,29-,30+,31+,32-,33-,35-,36-/m1/s1

> <PUBCHEM_IUPAC_INCHIKEY>
GBDTYZCMNRLPES-AQAMAIGXSA-O

> <PUBCHEM_EXACT_MASS>
741.203075

> <PUBCHEM_MOLECULAR_FORMULA>
C36H37O17+

> <PUBCHEM_MOLECULAR_WEIGHT>
741.66878

> <PUBCHEM_OPENEYE_CAN_SMILES>
C1=CC(=CC=C1C=CC(=O)OCC2C(C(C(C(O2)OC3=CC(=CC4=[O+]C(=C(C=C34)OC5C(C(C(C(O5)CO)O)O)O)C6=CC=C(C=C6)O)O)O)O)O)O

> <PUBCHEM_OPENEYE_ISO_SMILES>
C1=CC(=CC=C1/C=C/C(=O)OC[C@@H]2[C@H]([C@@H]([C@H]([C@@H](O2)OC3=CC(=CC4=[O+]C(=C(C=C34)O[C@H]5[C@@H]([C@H]([C@@H]([C@H](O5)CO)O)O)O)C6=CC=C(C=C6)O)O)O)O)O)O

> <PUBCHEM_CACTVS_TPSA>
267

> <PUBCHEM_MONOISOTOPIC_WEIGHT>
741.203075

> <PUBCHEM_TOTAL_CHARGE>
1

> <PUBCHEM_HEAVY_ATOM_COUNT>
53

> <PUBCHEM_ATOM_DEF_STEREO_COUNT>
10

> <PUBCHEM_ATOM_UDEF_STEREO_COUNT>
0

> <PUBCHEM_BOND_DEF_STEREO_COUNT>
1

> <PUBCHEM_BOND_UDEF_STEREO_COUNT>
0

> <PUBCHEM_ISOTOPIC_ATOM_COUNT>
0

> <PUBCHEM_COMPONENT_COUNT>
1

> <PUBCHEM_CACTVS_TAUTO_COUNT>
84

> <PUBCHEM_COORDINATE_TYPE>
1
5
255

> <PUBCHEM_BONDANNOTATIONS>
24  10  5
13  34  8
13  35  8
20  28  6
25  29  6
26  3  6
30  32  8
30  36  8
31  33  8
31  34  8
32  33  8
32  35  8
35  37  8
36  38  8
37  38  8
39  41  8
39  42  8
27  4  6
41  44  8
42  45  8
44  46  8
45  46  8
48  49  8
48  50  8
49  51  8
18  5  5
50  52  8
51  53  8
52  53  8
19  6  6
21  7  5
22  8  6
23  9  5

$$$$

