156639
  -OEChem-07051213043D

 31 32  0     0  0  0  0  0  0999 V2000
   -0.8996   -3.4232    0.1193 Cl  0  0  0  0  0  0  0  0  0  0  0  0
    2.0134   -3.1721    0.2360 Cl  0  0  0  0  0  0  0  0  0  0  0  0
   -4.7130    1.2906   -0.3646 O   0  0  0  0  0  0  0  0  0  0  0  0
    4.9887    2.2081    0.0100 O   0  0  0  0  0  0  0  0  0  0  0  0
   -0.9734   -0.3856   -0.0854 C   0  0  0  0  0  0  0  0  0  0  0  0
    0.3901   -0.9969    0.0167 C   0  0  0  0  0  0  0  0  0  0  0  0
    1.5832   -0.1653    0.0151 C   0  0  0  0  0  0  0  0  0  0  0  0
   -1.5150   -0.1986   -1.3338 C   0  0  0  0  0  0  0  0  0  0  0  0
   -1.6228   -0.0384    1.0742 C   0  0  0  0  0  0  0  0  0  0  0  0
    2.1015    0.3138    1.2183 C   0  0  0  0  0  0  0  0  0  0  0  0
    2.2093    0.1536   -1.1899 C   0  0  0  0  0  0  0  0  0  0  0  0
   -3.4734    0.7361   -0.2720 C   0  0  0  0  0  0  0  0  0  0  0  0
   -2.7847    0.3711   -1.4286 C   0  0  0  0  0  0  0  0  0  0  0  0
   -2.8925    0.5314    0.9795 C   0  0  0  0  0  0  0  0  0  0  0  0
    3.2456    1.1117    1.2164 C   0  0  0  0  0  0  0  0  0  0  0  0
    3.3534    0.9515   -1.1918 C   0  0  0  0  0  0  0  0  0  0  0  0
    3.8715    1.4307    0.0114 C   0  0  0  0  0  0  0  0  0  0  0  0
    0.4787   -2.3589    0.1115 C   0  0  0  0  0  0  0  0  0  0  0  0
   -5.3608    1.6404    0.8575 C   0  0  0  0  0  0  0  0  0  0  0  0
   -0.9870   -0.4806   -2.2400 H   0  0  0  0  0  0  0  0  0  0  0  0
   -1.1783   -0.1953    2.0527 H   0  0  0  0  0  0  0  0  0  0  0  0
    1.6268    0.0739    2.1667 H   0  0  0  0  0  0  0  0  0  0  0  0
    1.8196   -0.2123   -2.1368 H   0  0  0  0  0  0  0  0  0  0  0  0
   -3.2323    0.5275   -2.4063 H   0  0  0  0  0  0  0  0  0  0  0  0
   -3.3715    0.7907    1.9175 H   0  0  0  0  0  0  0  0  0  0  0  0
    3.6397    1.4781    2.1605 H   0  0  0  0  0  0  0  0  0  0  0  0
    3.8369    1.1960   -2.1336 H   0  0  0  0  0  0  0  0  0  0  0  0
   -5.5549    0.7581    1.4769 H   0  0  0  0  0  0  0  0  0  0  0  0
   -6.3344    2.0680    0.5964 H   0  0  0  0  0  0  0  0  0  0  0  0
   -4.8069    2.4144    1.3995 H   0  0  0  0  0  0  0  0  0  0  0  0
    5.2059    2.4491    0.9270 H   0  0  0  0  0  0  0  0  0  0  0  0
  1 18  1  0  0  0  0
  2 18  1  0  0  0  0
  3 12  1  0  0  0  0
  3 19  1  0  0  0  0
  4 17  1  0  0  0  0
  4 31  1  0  0  0  0
  5  6  1  0  0  0  0
  5  8  2  0  0  0  0
  5  9  1  0  0  0  0
  6  7  1  0  0  0  0
  6 18  2  0  0  0  0
  7 10  2  0  0  0  0
  7 11  1  0  0  0  0
  8 13  1  0  0  0  0
  8 20  1  0  0  0  0
  9 14  2  0  0  0  0
  9 21  1  0  0  0  0
 10 15  1  0  0  0  0
 10 22  1  0  0  0  0
 11 16  2  0  0  0  0
 11 23  1  0  0  0  0
 12 13  2  0  0  0  0
 12 14  1  0  0  0  0
 13 24  1  0  0  0  0
 14 25  1  0  0  0  0
 15 17  2  0  0  0  0
 15 26  1  0  0  0  0
 16 17  1  0  0  0  0
 16 27  1  0  0  0  0
 19 28  1  0  0  0  0
 19 29  1  0  0  0  0
 19 30  1  0  0  0  0
M  END
> <PUBCHEM_COMPOUND_CID>
156639

> <PUBCHEM_CONFORMER_RMSD>
0.6

> <PUBCHEM_CONFORMER_DIVERSEORDER>
1
2

> <PUBCHEM_MMFF94_PARTIAL_CHARGES>
28
1 -0.14
10 -0.15
11 -0.15
12 0.08
13 -0.15
14 -0.15
15 -0.15
16 -0.15
17 0.08
18 0.28
19 0.28
2 -0.14
20 0.15
21 0.15
22 0.15
23 0.15
24 0.15
25 0.15
26 0.15
27 0.15
3 -0.36
31 0.45
4 -0.53
5 0.03
6 -0.06
7 0.03
8 -0.15
9 -0.15

> <PUBCHEM_EFFECTIVE_ROTOR_COUNT>
3

> <PUBCHEM_PHARMACOPHORE_FEATURES>
4
1 3 acceptor
1 4 donor
6 5 8 9 12 13 14 rings
6 7 10 11 15 16 17 rings

> <PUBCHEM_HEAVY_ATOM_COUNT>
19

> <PUBCHEM_ATOM_DEF_STEREO_COUNT>
0

> <PUBCHEM_ATOM_UDEF_STEREO_COUNT>
0

> <PUBCHEM_BOND_DEF_STEREO_COUNT>
0

> <PUBCHEM_BOND_UDEF_STEREO_COUNT>
0

> <PUBCHEM_ISOTOPIC_ATOM_COUNT>
0

> <PUBCHEM_COMPONENT_COUNT>
1

> <PUBCHEM_CACTVS_TAUTO_COUNT>
2

> <PUBCHEM_CONFORMER_ID>
000263DF00000001

> <PUBCHEM_MMFF94_ENERGY>
70.617

> <PUBCHEM_FEATURE_SELFOVERLAP>
20.297

> <PUBCHEM_SHAPE_FINGERPRINT>
10165383 225 18270102591774697524
10498660 4 18186804677481587641
12173636 292 18122346783239040750
12251169 10 15698001820829680140
12363563 72 8790889592051328064
12633257 1 15984819298749063228
12707595 3 7781513719975773356
12730499 353 18339067277094732067
12788726 201 17693647130681455294
12892183 10 15626238938915879764
13140716 1 18342177812348495251
13878862 14 17908437088746986461
13955234 65 18269549619057035971
13965767 371 18130520660318341132
14123255 52 18410855443001274004
14787075 74 17897729769452374675
15309172 13 18272090478479575166
15342168 16 18413669115037616093
16752209 62 17979652142928420658
1741750 31 18338801104870225394
17868525 174 17403456768127371945
1798214 55 18412261731237106452
1813 80 17537996257713118686
18186145 218 18335138708741689412
18222031 100 11095882687408903704
18785283 64 18271806894816873194
19765921 60 18187374233104843915
19784866 34 18407759248622927873
19862831 5 17458626735087242549
200 152 6483362139803856476
204376 136 18413109446286013531
20510252 161 17904764380132472626
21524375 3 18260832609130245342
21618674 25 18343579672830903433
22079108 93 18334569110664184019
2255824 54 18192152817903045087
23402539 116 18187652366940090924
23402655 69 17095237021078976208
23419403 2 17481657153220134722
23557571 272 18046057169214945188
23559900 14 17130694171194388503
25 1 18259703393566425552
283562 15 17907868305615988650
3082319 5 15864065464382765580
350125 39 18195806507905531932
4028521 119 17748826306436622961
4340502 62 18410849980562541915
458136 41 18412261778666479823
474 4 18408605842242739705
495365 180 18269276931751892755
5104073 3 18200302355876355369
6049 1 17486775457092942015
633830 44 18260548939340701365
6442390 28 18339349791248286931
7364860 26 18264773348988179030
7808743 9 18269272357601673164
7970288 3 9223237342481533784
81228 2 17764586521620879130
8272917 22 18192425492871041663
84936 182 18261395619081268872

> <PUBCHEM_SHAPE_MULTIPOLES>
383.01
8.71
2.92
1.3
4.44
3.37
-0.13
-8.62
0.63
-1.54
0.36
0.09
-0.33
-0.29

> <PUBCHEM_SHAPE_SELFOVERLAP>
805.61

> <PUBCHEM_SHAPE_VOLUME>
217.7

> <PUBCHEM_COORDINATE_TYPE>
2
5
10

$$$$

