6216
  -OEChem-07051212542D

 65 68  0     1  0  0  0  0  0999 V2000
    5.0182   -0.7115    0.0000 F   0  0  0  0  0  0  0  0  0  0  0  0
    8.0319    0.7788    0.0000 O   0  0  0  0  0  0  0  0  0  0  0  0
    9.9229   -0.9776    0.0000 O   0  0  0  0  0  0  0  0  0  0  0  0
    4.7950    0.0224    0.0000 O   0  0  0  0  0  0  0  0  0  0  0  0
   10.0622    0.0052    0.0000 O   0  0  0  0  0  0  0  0  0  0  0  0
    9.8566    1.9946    0.0000 O   0  0  0  0  0  0  0  0  0  0  0  0
    2.0000   -3.5299    0.0000 O   0  0  0  0  0  0  0  0  0  0  0  0
    9.9229   -2.7096    0.0000 O   0  0  0  0  0  0  0  0  0  0  0  0
    8.8409    3.3977    0.0000 O   0  0  0  0  0  0  0  0  0  0  0  0
    7.3931   -0.4776    0.0000 C   0  0  1  0  0  0  0  0  0  0  0  0
    7.3931   -1.4776    0.0000 C   0  0  2  0  0  0  0  0  0  0  0  0
    6.5271   -1.9776    0.0000 C   0  0  1  0  0  0  0  0  0  0  0  0
    5.6610   -1.4776    0.0000 C   0  0  1  0  0  0  0  0  0  0  0  0
    8.3393   -0.1728    0.0000 C   0  0  1  0  0  0  0  0  0  0  0  0
    6.5271    0.0224    0.0000 C   0  0  0  0  0  0  0  0  0  0  0  0
    8.3393   -1.7823    0.0000 C   0  0  0  0  0  0  0  0  0  0  0  0
    5.6610   -0.4776    0.0000 C   0  0  2  0  0  0  0  0  0  0  0  0
    8.9229   -0.9776    0.0000 C   0  0  1  0  0  0  0  0  0  0  0  0
    4.7510   -1.9844    0.0000 C   0  0  1  0  0  0  0  0  0  0  0  0
    6.5431   -3.0191    0.0000 C   0  0  0  0  0  0  0  0  0  0  0  0
    7.3931    0.5224    0.0000 C   0  0  0  0  0  0  0  0  0  0  0  0
    5.6451   -3.5468    0.0000 C   0  0  0  0  0  0  0  0  0  0  0  0
    4.7430   -3.0260    0.0000 C   0  0  0  0  0  0  0  0  0  0  0  0
    9.1493    0.4136    0.0000 C   0  0  0  0  0  0  0  0  0  0  0  0
    4.4163   -1.0421    0.0000 C   0  0  0  0  0  0  0  0  0  0  0  0
    3.8242   -1.4203    0.0000 C   0  0  0  0  0  0  0  0  0  0  0  0
    3.8076   -3.5757    0.0000 C   0  0  0  0  0  0  0  0  0  0  0  0
    9.0465    1.4083    0.0000 C   0  0  0  0  0  0  0  0  0  0  0  0
    2.8763   -1.9483    0.0000 C   0  0  0  0  0  0  0  0  0  0  0  0
    2.8680   -3.0332    0.0000 C   0  0  0  0  0  0  0  0  0  0  0  0
   10.4229   -1.8436    0.0000 C   0  0  0  0  0  0  0  0  0  0  0  0
   11.4229   -1.8436    0.0000 C   0  0  0  0  0  0  0  0  0  0  0  0
    9.7538    2.9893    0.0000 C   0  0  0  0  0  0  0  0  0  0  0  0
   10.5638    3.5757    0.0000 C   0  0  0  0  0  0  0  0  0  0  0  0
    7.4830   -2.3228    0.0000 H   0  0  0  0  0  0  0  0  0  0  0  0
    7.2664   -2.3969    0.0000 H   0  0  0  0  0  0  0  0  0  0  0  0
    6.9256    0.4974    0.0000 H   0  0  0  0  0  0  0  0  0  0  0  0
    6.1285    0.4974    0.0000 H   0  0  0  0  0  0  0  0  0  0  0  0
    8.0883   -2.3492    0.0000 H   0  0  0  0  0  0  0  0  0  0  0  0
    8.8767   -2.0915    0.0000 H   0  0  0  0  0  0  0  0  0  0  0  0
    5.6610    0.1424    0.0000 H   0  0  0  0  0  0  0  0  0  0  0  0
    9.2046   -1.5299    0.0000 H   0  0  0  0  0  0  0  0  0  0  0  0
    6.7612   -3.5995    0.0000 H   0  0  0  0  0  0  0  0  0  0  0  0
    7.1523   -2.9036    0.0000 H   0  0  0  0  0  0  0  0  0  0  0  0
    8.0131    0.5224    0.0000 H   0  0  0  0  0  0  0  0  0  0  0  0
    7.3931    1.1424    0.0000 H   0  0  0  0  0  0  0  0  0  0  0  0
    6.7731    0.5224    0.0000 H   0  0  0  0  0  0  0  0  0  0  0  0
    5.2478   -4.0228    0.0000 H   0  0  0  0  0  0  0  0  0  0  0  0
    6.0460   -4.0197    0.0000 H   0  0  0  0  0  0  0  0  0  0  0  0
    5.0005   -0.8345    0.0000 H   0  0  0  0  0  0  0  0  0  0  0  0
    4.2087   -0.4579    0.0000 H   0  0  0  0  0  0  0  0  0  0  0  0
    3.8320   -1.2497    0.0000 H   0  0  0  0  0  0  0  0  0  0  0  0
    3.8361   -0.8004    0.0000 H   0  0  0  0  0  0  0  0  0  0  0  0
    8.4476    1.2388    0.0000 H   0  0  0  0  0  0  0  0  0  0  0  0
    4.7950    0.6424    0.0000 H   0  0  0  0  0  0  0  0  0  0  0  0
    3.8100   -4.1957    0.0000 H   0  0  0  0  0  0  0  0  0  0  0  0
    8.7757    1.9660    0.0000 H   0  0  0  0  0  0  0  0  0  0  0  0
    8.4502    1.2384    0.0000 H   0  0  0  0  0  0  0  0  0  0  0  0
    2.3430   -1.6321    0.0000 H   0  0  0  0  0  0  0  0  0  0  0  0
   11.4229   -2.4636    0.0000 H   0  0  0  0  0  0  0  0  0  0  0  0
   12.0429   -1.8436    0.0000 H   0  0  0  0  0  0  0  0  0  0  0  0
   11.4229   -1.2236    0.0000 H   0  0  0  0  0  0  0  0  0  0  0  0
   10.9273    3.0735    0.0000 H   0  0  0  0  0  0  0  0  0  0  0  0
   11.0660    3.9393    0.0000 H   0  0  0  0  0  0  0  0  0  0  0  0
   10.2002    4.0780    0.0000 H   0  0  0  0  0  0  0  0  0  0  0  0
 13  1  1  6  0  0  0
 14  2  1  6  0  0  0
  2 54  1  0  0  0  0
 18  3  1  6  0  0  0
  3 31  1  0  0  0  0
 17  4  1  1  0  0  0
  4 55  1  0  0  0  0
  5 24  2  0  0  0  0
  6 28  1  0  0  0  0
  6 33  1  0  0  0  0
  7 30  2  0  0  0  0
  8 31  2  0  0  0  0
  9 33  2  0  0  0  0
 10 11  1  0  0  0  0
 10 14  1  0  0  0  0
 10 15  1  0  0  0  0
 10 21  1  1  0  0  0
 11 12  1  0  0  0  0
 11 16  1  0  0  0  0
 11 35  1  6  0  0  0
 12 13  1  0  0  0  0
 12 20  1  0  0  0  0
 12 36  1  1  0  0  0
 13 17  1  0  0  0  0
 13 19  1  0  0  0  0
 14 18  1  0  0  0  0
 14 24  1  0  0  0  0
 15 17  1  0  0  0  0
 15 37  1  0  0  0  0
 15 38  1  0  0  0  0
 16 18  1  0  0  0  0
 16 39  1  0  0  0  0
 16 40  1  0  0  0  0
 17 41  1  0  0  0  0
 18 42  1  0  0  0  0
 19 23  1  0  0  0  0
 19 25  1  1  0  0  0
 19 26  1  0  0  0  0
 20 22  1  0  0  0  0
 20 43  1  0  0  0  0
 20 44  1  0  0  0  0
 21 45  1  0  0  0  0
 21 46  1  0  0  0  0
 21 47  1  0  0  0  0
 22 23  1  0  0  0  0
 22 48  1  0  0  0  0
 22 49  1  0  0  0  0
 23 27  2  0  0  0  0
 24 28  1  0  0  0  0
 25 50  1  0  0  0  0
 25 51  1  0  0  0  0
 25 52  1  0  0  0  0
 26 29  2  0  0  0  0
 26 53  1  0  0  0  0
 27 30  1  0  0  0  0
 27 56  1  0  0  0  0
 28 57  1  0  0  0  0
 28 58  1  0  0  0  0
 29 30  1  0  0  0  0
 29 59  1  0  0  0  0
 31 32  1  0  0  0  0
 32 60  1  0  0  0  0
 32 61  1  0  0  0  0
 32 62  1  0  0  0  0
 33 34  1  0  0  0  0
 34 63  1  0  0  0  0
 34 64  1  0  0  0  0
 34 65  1  0  0  0  0
M  END
> <PUBCHEM_COMPOUND_CID>
6216

> <PUBCHEM_COMPOUND_CANONICALIZED>
1

> <PUBCHEM_CACTVS_COMPLEXITY>
1020

> <PUBCHEM_CACTVS_HBOND_ACCEPTOR>
9

> <PUBCHEM_CACTVS_HBOND_DONOR>
2

> <PUBCHEM_CACTVS_ROTATABLE_BOND>
6

> <PUBCHEM_CACTVS_SUBSKEYS>
AAADceB4PQAAAAAAAAAAAAAAAAAAAYAAAAAwYIAAAAAAAGDAAAAAGwAACAAAD1SggAICCAAABgCIAqDSCAIAAAAgAAAICAFAAEgBEBYAAQQCQAAFoAALAYPI7PzPgAAAAAAAAADAAAYAADAAAYAADCAAAA==

> <PUBCHEM_IUPAC_OPENEYE_NAME>
[2-[(8S,9R,10S,11S,13S,14S,16R,17S)-16-acetoxy-9-fluoro-11,17-dihydroxy-10,13-dimethyl-3-oxo-6,7,8,11,12,14,15,16-octahydrocyclopenta[a]phenanthren-17-yl]-2-oxo-ethyl] acetate

> <PUBCHEM_IUPAC_CAS_NAME>
acetic acid [2-[(8S,9R,10S,11S,13S,14S,16R,17S)-16-acetyloxy-9-fluoro-11,17-dihydroxy-10,13-dimethyl-3-oxo-6,7,8,11,12,14,15,16-octahydrocyclopenta[a]phenanthren-17-yl]-2-oxoethyl] ester

> <PUBCHEM_IUPAC_NAME>
[2-[(8S,9R,10S,11S,13S,14S,16R,17S)-16-acetyloxy-9-fluoro-11,17-dihydroxy-10,13-dimethyl-3-oxo-6,7,8,11,12,14,15,16-octahydrocyclopenta[a]phenanthren-17-yl]-2-oxoethyl] acetate

> <PUBCHEM_IUPAC_SYSTEMATIC_NAME>
[2-[(8S,9R,10S,11S,13S,14S,16R,17S)-16-acetyloxy-9-fluoranyl-10,13-dimethyl-11,17-bis(oxidanyl)-3-oxidanylidene-6,7,8,11,12,14,15,16-octahydrocyclopenta[a]phenanthren-17-yl]-2-oxidanylidene-ethyl] ethanoate

> <PUBCHEM_IUPAC_TRADITIONAL_NAME>
acetic acid [2-[(8S,9R,10S,11S,13S,14S,16R,17S)-16-acetoxy-9-fluoro-11,17-dihydroxy-3-keto-10,13-dimethyl-6,7,8,11,12,14,15,16-octahydrocyclopenta[a]phenanthren-17-yl]-2-keto-ethyl] ester

> <PUBCHEM_IUPAC_INCHI>
InChI=1S/C25H31FO8/c1-13(27)33-12-20(31)25(32)21(34-14(2)28)10-18-17-6-5-15-9-16(29)7-8-22(15,3)24(17,26)19(30)11-23(18,25)4/h7-9,17-19,21,30,32H,5-6,10-12H2,1-4H3/t17-,18-,19-,21+,22-,23-,24-,25+/m0/s1

> <PUBCHEM_IUPAC_INCHIKEY>
XGMPVBXKDAHORN-RBWIMXSLSA-N

> <PUBCHEM_XLOGP3>
1.9

> <PUBCHEM_EXACT_MASS>
478.200296

> <PUBCHEM_MOLECULAR_FORMULA>
C25H31FO8

> <PUBCHEM_MOLECULAR_WEIGHT>
478.507243

> <PUBCHEM_OPENEYE_CAN_SMILES>
CC(=O)OCC(=O)C1(C(CC2C1(CC(C3(C2CCC4=CC(=O)C=CC43C)F)O)C)OC(=O)C)O

> <PUBCHEM_OPENEYE_ISO_SMILES>
CC(=O)OCC(=O)[C@]1([C@@H](C[C@@H]2[C@@]1(C[C@@H]([C@]3([C@H]2CCC4=CC(=O)C=C[C@@]43C)F)O)C)OC(=O)C)O

> <PUBCHEM_CACTVS_TPSA>
127

> <PUBCHEM_MONOISOTOPIC_WEIGHT>
478.200296

> <PUBCHEM_TOTAL_CHARGE>
0

> <PUBCHEM_HEAVY_ATOM_COUNT>
34

> <PUBCHEM_ATOM_DEF_STEREO_COUNT>
8

> <PUBCHEM_ATOM_UDEF_STEREO_COUNT>
0

> <PUBCHEM_BOND_DEF_STEREO_COUNT>
0

> <PUBCHEM_BOND_UDEF_STEREO_COUNT>
0

> <PUBCHEM_ISOTOPIC_ATOM_COUNT>
0

> <PUBCHEM_COMPONENT_COUNT>
1

> <PUBCHEM_CACTVS_TAUTO_COUNT>
6

> <PUBCHEM_COORDINATE_TYPE>
1
5
255

> <PUBCHEM_BONDANNOTATIONS>
13  1  6
10  21  5
11  35  6
12  36  5
19  25  5
14  2  6
18  3  6
17  4  5

$$$$

