147394
  -OEChem-07051213083D

 57 60  0     1  0  0  0  0  0999 V2000
   -3.7608   -0.1033   -0.5480 O   0  0  0  0  0  0  0  0  0  0  0  0
   -3.0289    0.7319    1.5040 O   0  0  0  0  0  0  0  0  0  0  0  0
   -6.7546   -2.2630    1.2518 O   0  0  0  0  0  0  0  0  0  0  0  0
   -5.9515   -2.8955   -1.4521 O   0  0  0  0  0  0  0  0  0  0  0  0
   -4.4425   -1.3340    2.8239 O   0  0  0  0  0  0  0  0  0  0  0  0
   -3.0658   -0.3394   -3.1971 O   0  0  0  0  0  0  0  0  0  0  0  0
    1.5830    0.3620    0.4573 O   0  0  0  0  0  0  0  0  0  0  0  0
   -0.8116    4.5179   -0.3133 O   0  0  0  0  0  0  0  0  0  0  0  0
    1.7399    4.2724   -0.7737 O   0  0  0  0  0  0  0  0  0  0  0  0
    7.0628   -2.6169   -0.1879 O   0  0  0  0  0  0  0  0  0  0  0  0
    6.3647   -1.0096    1.9690 O   0  0  0  0  0  0  0  0  0  0  0  0
   -5.4375   -2.0447    0.7436 C   0  0  1  0  0  0  0  0  0  0  0  0
   -5.5530   -1.7231   -0.7465 C   0  0  1  0  0  0  0  0  0  0  0  0
   -4.7809   -0.8953    1.5085 C   0  0  2  0  0  0  0  0  0  0  0  0
   -4.2145   -1.2296   -1.3009 C   0  0  1  0  0  0  0  0  0  0  0  0
   -3.5014   -0.4261    0.8162 C   0  0  1  0  0  0  0  0  0  0  0  0
   -4.3335   -0.7916   -2.7572 C   0  0  0  0  0  0  0  0  0  0  0  0
   -1.8881    1.3041    1.0237 C   0  0  0  0  0  0  0  0  0  0  0  0
    2.5453    0.7853   -0.5213 C   0  0  1  0  0  0  0  0  0  0  0  0
    2.9371    2.2462   -0.3082 C   0  0  0  0  0  0  0  0  0  0  0  0
    0.4597    1.1478    0.4758 C   0  0  0  0  0  0  0  0  0  0  0  0
    0.4435    2.4793    0.0500 C   0  0  0  0  0  0  0  0  0  0  0  0
   -0.7051    0.5660    0.9782 C   0  0  0  0  0  0  0  0  0  0  0  0
    1.7030    3.1052   -0.4025 C   0  0  0  0  0  0  0  0  0  0  0  0
   -1.9067    2.6260    0.5777 C   0  0  0  0  0  0  0  0  0  0  0  0
   -0.7404    3.2198    0.0934 C   0  0  0  0  0  0  0  0  0  0  0  0
    3.7532   -0.1230   -0.4290 C   0  0  0  0  0  0  0  0  0  0  0  0
    4.5151   -0.1522    0.7385 C   0  0  0  0  0  0  0  0  0  0  0  0
    4.1031   -0.9290   -1.5119 C   0  0  0  0  0  0  0  0  0  0  0  0
    5.6283   -0.9886    0.8233 C   0  0  0  0  0  0  0  0  0  0  0  0
    5.2162   -1.7653   -1.4271 C   0  0  0  0  0  0  0  0  0  0  0  0
    5.9787   -1.7952   -0.2596 C   0  0  0  0  0  0  0  0  0  0  0  0
    6.8432   -3.9385    0.3014 C   0  0  0  0  0  0  0  0  0  0  0  0
   -4.8855   -2.9792    0.9027 H   0  0  0  0  0  0  0  0  0  0  0  0
   -6.3345   -0.9682   -0.8969 H   0  0  0  0  0  0  0  0  0  0  0  0
   -5.4861   -0.0635    1.6231 H   0  0  0  0  0  0  0  0  0  0  0  0
   -3.4500   -2.0166   -1.2451 H   0  0  0  0  0  0  0  0  0  0  0  0
   -2.7422   -1.2171    0.8739 H   0  0  0  0  0  0  0  0  0  0  0  0
   -5.0410    0.0365   -2.8702 H   0  0  0  0  0  0  0  0  0  0  0  0
   -4.6489   -1.6155   -3.4037 H   0  0  0  0  0  0  0  0  0  0  0  0
   -7.1486   -2.9883    0.7373 H   0  0  0  0  0  0  0  0  0  0  0  0
   -5.2604   -3.5687   -1.3305 H   0  0  0  0  0  0  0  0  0  0  0  0
   -3.8175   -2.0746    2.7437 H   0  0  0  0  0  0  0  0  0  0  0  0
    2.0854    0.6669   -1.5137 H   0  0  0  0  0  0  0  0  0  0  0  0
    3.6509    2.5654   -1.0759 H   0  0  0  0  0  0  0  0  0  0  0  0
    3.3741    2.4280    0.6800 H   0  0  0  0  0  0  0  0  0  0  0  0
   -0.6765   -0.4592    1.3379 H   0  0  0  0  0  0  0  0  0  0  0  0
   -2.8370    3.1879    0.6187 H   0  0  0  0  0  0  0  0  0  0  0  0
   -2.7925    0.3868   -2.6107 H   0  0  0  0  0  0  0  0  0  0  0  0
    4.2401    0.4648    1.5901 H   0  0  0  0  0  0  0  0  0  0  0  0
    3.5193   -0.9168   -2.4282 H   0  0  0  0  0  0  0  0  0  0  0  0
    5.4837   -2.3906   -2.2746 H   0  0  0  0  0  0  0  0  0  0  0  0
   -1.7206    4.8442   -0.1989 H   0  0  0  0  0  0  0  0  0  0  0  0
    5.9749   -0.3892    2.6085 H   0  0  0  0  0  0  0  0  0  0  0  0
    6.4526   -3.9115    1.3236 H   0  0  0  0  0  0  0  0  0  0  0  0
    7.8012   -4.4654    0.3069 H   0  0  0  0  0  0  0  0  0  0  0  0
    6.1504   -4.4787   -0.3516 H   0  0  0  0  0  0  0  0  0  0  0  0
  1 15  1  0  0  0  0
  1 16  1  0  0  0  0
  2 16  1  0  0  0  0
  2 18  1  0  0  0  0
  3 12  1  0  0  0  0
  3 41  1  0  0  0  0
  4 13  1  0  0  0  0
  4 42  1  0  0  0  0
  5 14  1  0  0  0  0
  5 43  1  0  0  0  0
  6 17  1  0  0  0  0
  6 49  1  0  0  0  0
  7 19  1  0  0  0  0
  7 21  1  0  0  0  0
  8 26  1  0  0  0  0
  8 53  1  0  0  0  0
  9 24  2  0  0  0  0
 10 32  1  0  0  0  0
 10 33  1  0  0  0  0
 11 30  1  0  0  0  0
 11 54  1  0  0  0  0
 12 13  1  0  0  0  0
 12 14  1  0  0  0  0
 12 34  1  0  0  0  0
 13 15  1  0  0  0  0
 13 35  1  0  0  0  0
 14 16  1  0  0  0  0
 14 36  1  0  0  0  0
 15 17  1  0  0  0  0
 15 37  1  0  0  0  0
 16 38  1  0  0  0  0
 17 39  1  0  0  0  0
 17 40  1  0  0  0  0
 18 23  1  0  0  0  0
 18 25  2  0  0  0  0
 19 20  1  0  0  0  0
 19 27  1  0  0  0  0
 19 44  1  0  0  0  0
 20 24  1  0  0  0  0
 20 45  1  0  0  0  0
 20 46  1  0  0  0  0
 21 22  1  0  0  0  0
 21 23  2  0  0  0  0
 22 24  1  0  0  0  0
 22 26  2  0  0  0  0
 23 47  1  0  0  0  0
 25 26  1  0  0  0  0
 25 48  1  0  0  0  0
 27 28  2  0  0  0  0
 27 29  1  0  0  0  0
 28 30  1  0  0  0  0
 28 50  1  0  0  0  0
 29 31  2  0  0  0  0
 29 51  1  0  0  0  0
 30 32  2  0  0  0  0
 31 32  1  0  0  0  0
 31 52  1  0  0  0  0
 33 55  1  0  0  0  0
 33 56  1  0  0  0  0
 33 57  1  0  0  0  0
M  END
> <PUBCHEM_COMPOUND_CID>
147394

> <PUBCHEM_CONFORMER_RMSD>
1

> <PUBCHEM_CONFORMER_DIVERSEORDER>
3
205
240
73
7
176
107
186
8
185
198
290
239
99
214
106
266
279
171
292
6
328
259
233
317
163
315
56
136
101
53
194
201
64
10
304
329
149
77
177
85
21
297
78
225
271
299
155
148
264
167
200
95
323
131
63
112
88
289
39
243
229
300
123
83
184
313
288
146
273
65
235
320
318
23
81
4
128
76
280
25
306
179
220
308
12
130
156
191
188
59
281
62
119
13
68
132
209
245
42
262
314
305
212
211
221
196
9
22
57
319
48
276
138
310
113
161
111
126
54
236
287
175
275
1
206
14
141
47
11
203
197
255
5
154
52
44
58
208
331
87
295
144
90
190
232
326
265
157
19
2
254
215
241
27
41
40
312
202
248
291
158
109
133
302
253
38
258
162
151
55
15
260
278
224
124
303
45
137
18
327
61
160
16
134
285
298
152
116
223
274
98
72
97
293
246
31
147
50
286
249
164
105
102
125
250
67
218
267
135
80
127
231
210
237
30
322
195
142
217
204
84
244
91
122
117
140
316
70
82
108
35
17
51
330
110
270
301
168
92
46
115
180
256
222
20
178
100
192
173
269
238
165
199
226
49
104
24
247
71
257
169
187
93
251
33
69
296
311
216
172
37
170
103
36
213
60
282
74
159
183
26
230
174
79
309
118
34
89
150
307
114
242
32
272
43
181
153
284
283
261
193
321
66
143
29
129
94
96
252
268
75
145
139
227
219
228
234
166
294
28
207
324
325
189
263
277
86
121
120
182

> <PUBCHEM_MMFF94_PARTIAL_CHARGES>
44
1 -0.56
10 -0.36
11 -0.53
12 0.28
13 0.28
14 0.28
15 0.28
16 0.56
17 0.28
18 0.08
19 0.42
2 -0.36
20 0.06
21 0.08
22 0.09
23 -0.15
24 0.42
25 -0.15
26 0.08
27 -0.14
28 -0.15
29 -0.15
3 -0.68
30 0.08
31 -0.15
32 0.08
33 0.28
4 -0.68
41 0.4
42 0.4
43 0.4
47 0.15
48 0.15
49 0.4
5 -0.68
50 0.15
51 0.15
52 0.15
53 0.45
54 0.45
6 -0.68
7 -0.36
8 -0.53
9 -0.57

> <PUBCHEM_EFFECTIVE_ROTOR_COUNT>
6.8

> <PUBCHEM_PHARMACOPHORE_FEATURES>
19
1 1 acceptor
1 10 acceptor
1 11 donor
1 2 acceptor
1 3 acceptor
1 3 donor
1 4 acceptor
1 4 donor
1 5 acceptor
1 5 donor
1 6 acceptor
1 6 donor
1 7 acceptor
1 8 donor
1 9 acceptor
6 1 12 13 14 15 16 rings
6 18 21 22 23 25 26 rings
6 27 28 29 30 31 32 rings
6 7 19 20 21 22 24 rings

> <PUBCHEM_HEAVY_ATOM_COUNT>
33

> <PUBCHEM_ATOM_DEF_STEREO_COUNT>
6

> <PUBCHEM_ATOM_UDEF_STEREO_COUNT>
0

> <PUBCHEM_BOND_DEF_STEREO_COUNT>
0

> <PUBCHEM_BOND_UDEF_STEREO_COUNT>
0

> <PUBCHEM_ISOTOPIC_ATOM_COUNT>
0

> <PUBCHEM_COMPONENT_COUNT>
1

> <PUBCHEM_CACTVS_TAUTO_COUNT>
25

> <PUBCHEM_CONFORMER_ID>
00023FC200000003

> <PUBCHEM_MMFF94_ENERGY>
115.5028

> <PUBCHEM_FEATURE_SELFOVERLAP>
96.505

> <PUBCHEM_SHAPE_FINGERPRINT>
10622 236 18408319973598705829
11135609 149 18339091384319565773
11135926 11 18051686651369595692
11227688 84 18199187472028318282
11410812 94 16128382627484528094
11497681 19 18336822096516739918
11621639 183 14129600220978548978
12166972 35 17989480801590326878
12422481 6 17385711530611646205
13540713 5 18267559412753800416
13627167 48 11959466624777254178
13782708 43 17845938403765910275
14344974 204 18194117650321471054
14790565 3 8935004754689728842
15183329 4 15554449617431162770
15320294 125 17458057141410362895
17686467 74 18410015443058497736
1813 80 18260819376431114717
19303781 99 18411143519501539638
19315092 285 17749109946250652024
19841028 212 18115870698966204983
20028762 73 18260544520126068798
20691028 202 9583520931767160170
20775438 99 18052262791183199738
208703 8 18412262861146139546
21033650 10 15841561777388563197
229767 44 17240485788584715103
23536364 44 18131078159847214677
23569914 152 18194713516924134221
2748736 6 9583517581987918874
32027 91 18341609261809928619
34797466 226 16557624093934274853
3610482 184 14620236428580522383
392239 28 16732991933393035650
46194498 28 17201357361086759189
5080951 261 18117852207190701116
513202 73 18334857255408620303
5937810 71 9654417476978295066
6058803 2 18193247802498855977
6201320 77 17344031226968350739
6431902 208 18338797922342150894
6712543 237 16225761939175114215
7970288 3 18411133619412005258

> <PUBCHEM_SHAPE_MULTIPOLES>
614.56
17.85
4.63
2.03
8.64
3.41
-0.68
-25.08
1.54
2.02
-0.57
-2.9
-1.11
-0.74

> <PUBCHEM_SHAPE_SELFOVERLAP>
1335.298

> <PUBCHEM_SHAPE_VOLUME>
332.1

> <PUBCHEM_COORDINATE_TYPE>
2
5
10

$$$$

