200747
  -OEChem-07051213063D

 56 59  0     1  0  0  0  0  0999 V2000
   -5.7242    0.3669   -0.6369 O   0  0  0  0  0  0  0  0  0  0  0  0
    5.8503   -0.1577    0.9911 O   0  0  0  0  0  0  0  0  0  0  0  0
   -1.6935   -0.9519    0.4270 C   0  0  2  0  0  0  0  0  0  0  0  0
   -2.5052    0.2660   -0.0638 C   0  0  2  0  0  0  0  0  0  0  0  0
   -0.3198   -1.0626   -0.2422 C   0  0  1  0  0  0  0  0  0  0  0  0
    0.4983    0.2299    0.0714 C   0  0  1  0  0  0  0  0  0  0  0  0
    1.9520    0.1974   -0.5411 C   0  0  2  0  0  0  0  0  0  0  0  0
   -1.7246    1.5315    0.3154 C   0  0  0  0  0  0  0  0  0  0  0  0
   -3.8048    0.0412    0.7403 C   0  0  2  0  0  0  0  0  0  0  0  0
   -0.3009    1.5177   -0.2700 C   0  0  0  0  0  0  0  0  0  0  0  0
   -2.6779   -2.1090    0.2947 C   0  0  0  0  0  0  0  0  0  0  0  0
    0.4434   -2.3007    0.2450 C   0  0  0  0  0  0  0  0  0  0  0  0
   -4.0313   -1.4840    0.6784 C   0  0  0  0  0  0  0  0  0  0  0  0
    2.6293   -1.1274   -0.1715 C   0  0  0  0  0  0  0  0  0  0  0  0
   -2.7864    0.2605   -1.5891 C   0  0  0  0  0  0  0  0  0  0  0  0
    1.8233   -2.3852   -0.3952 C   0  0  0  0  0  0  0  0  0  0  0  0
    2.7591    1.3936    0.0469 C   0  0  0  0  0  0  0  0  0  0  0  0
    1.9305    0.3174   -2.0823 C   0  0  0  0  0  0  0  0  0  0  0  0
   -4.9847    0.8142    0.2383 C   0  0  0  0  0  0  0  0  0  0  0  0
    4.2707    1.2705   -0.1543 C   0  0  2  0  0  0  0  0  0  0  0  0
    3.8774   -1.2235    0.3155 C   0  0  0  0  0  0  0  0  0  0  0  0
    4.7504   -0.0339    0.4559 C   0  0  0  0  0  0  0  0  0  0  0  0
   -5.2229    2.1642    0.8588 C   0  0  0  0  0  0  0  0  0  0  0  0
    4.9914    2.4650    0.4677 C   0  0  0  0  0  0  0  0  0  0  0  0
   -1.5085   -0.8327    1.5082 H   0  0  0  0  0  0  0  0  0  0  0  0
   -0.4537   -1.1633   -1.3245 H   0  0  0  0  0  0  0  0  0  0  0  0
    0.6241    0.2456    1.1666 H   0  0  0  0  0  0  0  0  0  0  0  0
   -1.6540    1.6198    1.4071 H   0  0  0  0  0  0  0  0  0  0  0  0
   -2.2436    2.4297   -0.0368 H   0  0  0  0  0  0  0  0  0  0  0  0
   -3.6511    0.3074    1.7952 H   0  0  0  0  0  0  0  0  0  0  0  0
   -0.3605    1.6511   -1.3546 H   0  0  0  0  0  0  0  0  0  0  0  0
    0.2239    2.3972    0.1192 H   0  0  0  0  0  0  0  0  0  0  0  0
   -2.4251   -2.9439    0.9561 H   0  0  0  0  0  0  0  0  0  0  0  0
   -2.7087   -2.4950   -0.7302 H   0  0  0  0  0  0  0  0  0  0  0  0
   -0.1151   -3.2108   -0.0029 H   0  0  0  0  0  0  0  0  0  0  0  0
    0.5439   -2.2771    1.3379 H   0  0  0  0  0  0  0  0  0  0  0  0
   -4.7991   -1.7945   -0.0377 H   0  0  0  0  0  0  0  0  0  0  0  0
   -4.3527   -1.8493    1.6611 H   0  0  0  0  0  0  0  0  0  0  0  0
   -1.8722    0.2313   -2.1878 H   0  0  0  0  0  0  0  0  0  0  0  0
   -3.3942   -0.5949   -1.9007 H   0  0  0  0  0  0  0  0  0  0  0  0
   -3.3236    1.1681   -1.8878 H   0  0  0  0  0  0  0  0  0  0  0  0
    1.7183   -2.5540   -1.4740 H   0  0  0  0  0  0  0  0  0  0  0  0
    2.3408   -3.2665    0.0033 H   0  0  0  0  0  0  0  0  0  0  0  0
    2.5568    1.4722    1.1249 H   0  0  0  0  0  0  0  0  0  0  0  0
    2.4182    2.3355   -0.4009 H   0  0  0  0  0  0  0  0  0  0  0  0
    2.9240    0.1487   -2.5136 H   0  0  0  0  0  0  0  0  0  0  0  0
    1.2581   -0.4104   -2.5466 H   0  0  0  0  0  0  0  0  0  0  0  0
    1.6083    1.3130   -2.4049 H   0  0  0  0  0  0  0  0  0  0  0  0
    4.5149    1.2425   -1.2226 H   0  0  0  0  0  0  0  0  0  0  0  0
    4.3145   -2.1797    0.5834 H   0  0  0  0  0  0  0  0  0  0  0  0
   -5.3036    2.0642    1.9442 H   0  0  0  0  0  0  0  0  0  0  0  0
   -4.4122    2.8470    0.6012 H   0  0  0  0  0  0  0  0  0  0  0  0
   -6.1620    2.5778    0.4800 H   0  0  0  0  0  0  0  0  0  0  0  0
    6.0709    2.4050    0.2916 H   0  0  0  0  0  0  0  0  0  0  0  0
    4.6341    3.4054    0.0352 H   0  0  0  0  0  0  0  0  0  0  0  0
    4.8361    2.5047    1.5516 H   0  0  0  0  0  0  0  0  0  0  0  0
  1 19  2  0  0  0  0
  2 22  2  0  0  0  0
  3  4  1  0  0  0  0
  3  5  1  0  0  0  0
  3 11  1  0  0  0  0
  3 25  1  0  0  0  0
  4  8  1  0  0  0  0
  4  9  1  0  0  0  0
  4 15  1  0  0  0  0
  5  6  1  0  0  0  0
  5 12  1  0  0  0  0
  5 26  1  0  0  0  0
  6  7  1  0  0  0  0
  6 10  1  0  0  0  0
  6 27  1  0  0  0  0
  7 14  1  0  0  0  0
  7 17  1  0  0  0  0
  7 18  1  0  0  0  0
  8 10  1  0  0  0  0
  8 28  1  0  0  0  0
  8 29  1  0  0  0  0
  9 13  1  0  0  0  0
  9 19  1  0  0  0  0
  9 30  1  0  0  0  0
 10 31  1  0  0  0  0
 10 32  1  0  0  0  0
 11 13  1  0  0  0  0
 11 33  1  0  0  0  0
 11 34  1  0  0  0  0
 12 16  1  0  0  0  0
 12 35  1  0  0  0  0
 12 36  1  0  0  0  0
 13 37  1  0  0  0  0
 13 38  1  0  0  0  0
 14 16  1  0  0  0  0
 14 21  2  0  0  0  0
 15 39  1  0  0  0  0
 15 40  1  0  0  0  0
 15 41  1  0  0  0  0
 16 42  1  0  0  0  0
 16 43  1  0  0  0  0
 17 20  1  0  0  0  0
 17 44  1  0  0  0  0
 17 45  1  0  0  0  0
 18 46  1  0  0  0  0
 18 47  1  0  0  0  0
 18 48  1  0  0  0  0
 19 23  1  0  0  0  0
 20 22  1  0  0  0  0
 20 24  1  0  0  0  0
 20 49  1  0  0  0  0
 21 22  1  0  0  0  0
 21 50  1  0  0  0  0
 23 51  1  0  0  0  0
 23 52  1  0  0  0  0
 23 53  1  0  0  0  0
 24 54  1  0  0  0  0
 24 55  1  0  0  0  0
 24 56  1  0  0  0  0
M  END
> <PUBCHEM_COMPOUND_CID>
200747

> <PUBCHEM_CONFORMER_RMSD>
0.6

> <PUBCHEM_CONFORMER_DIVERSEORDER>
1
4
2
3

> <PUBCHEM_MMFF94_PARTIAL_CHARGES>
12
1 -0.57
14 -0.28
16 0.14
19 0.45
2 -0.57
20 0.06
21 -0.14
22 0.49
23 0.06
50 0.15
7 0.14
9 0.06

> <PUBCHEM_EFFECTIVE_ROTOR_COUNT>
2.8

> <PUBCHEM_PHARMACOPHORE_FEATURES>
6
1 1 acceptor
1 2 acceptor
5 3 4 9 11 13 rings
6 3 4 5 6 8 10 rings
6 5 6 7 12 14 16 rings
6 7 14 17 20 21 22 rings

> <PUBCHEM_HEAVY_ATOM_COUNT>
24

> <PUBCHEM_ATOM_DEF_STEREO_COUNT>
7

> <PUBCHEM_ATOM_UDEF_STEREO_COUNT>
0

> <PUBCHEM_BOND_DEF_STEREO_COUNT>
0

> <PUBCHEM_BOND_UDEF_STEREO_COUNT>
0

> <PUBCHEM_ISOTOPIC_ATOM_COUNT>
0

> <PUBCHEM_COMPONENT_COUNT>
1

> <PUBCHEM_CACTVS_TAUTO_COUNT>
15

> <PUBCHEM_CONFORMER_ID>
0003102B00000001

> <PUBCHEM_MMFF94_ENERGY>
73.3583

> <PUBCHEM_FEATURE_SELFOVERLAP>
30.542

> <PUBCHEM_SHAPE_FINGERPRINT>
10 15 18202280277592779641
10411042 1 17112691489345738166
10906281 52 18199730544819819548
11089746 13 17894919528715276080
11132069 177 18201712947215684799
12403259 415 18336538314345915056
12403260 363 18268433421217317183
12403814 3 17632857521426530463
12422481 6 17775287183340505549
12633257 1 18412272744092169496
12788726 201 17241320408088426129
13140716 1 18341611473454081618
13224815 77 18410569574262431142
13675066 3 17988638579920271619
14341114 176 18412259558584690658
14341114 328 18186801361835029940
14347332 77 9799695874565465889
14787075 74 18335705975253488882
14790565 3 18408600357527350345
15196674 1 18411698759835111962
15375358 24 18334288773547948951
15788980 27 17060339613055995077
17349148 13 17917991655311716110
17980427 23 17774157869129770204
1813 80 16630807707837352206
18222031 100 9871463180290423221
19784866 9 18410855477461168058
200 152 18187369826784850823
20511986 3 18341629087331363663
20715895 44 18270684311020402485
21033648 29 17987819465391313940
21267235 1 18340476833336686546
21304253 335 18342168977341583525
21421861 104 17987804153959147370
21452121 103 18336263539265225466
21756936 100 17970916553648464828
21859007 373 17344360084018904629
22182313 1 17630896091034426535
22950370 63 9943812191943290466
23402539 116 18334582312744876870
23559900 14 18408879655546056830
26918003 58 18341896294173444561
296302 2 18186799162510951159
335352 9 18410855478089025958
34797466 226 15357700738676446673
34934 24 18408323289624571327
350125 39 18412543219911050228
3545911 37 18341610429766544070
3633792 109 18340779251560285565
3680242 22 18269555095113555514
4340502 62 18412820305125105851
474 4 18407759239953644650
5104073 3 18343298158629866531
542803 24 18113898260218706824
633830 44 18259983773542734622
9709674 26 18336259166841013583

> <PUBCHEM_SHAPE_MULTIPOLES>
482.17
11.9
2.42
1.09
0.69
0.25
-0.47
-4.86
2.75
-0.33
0.39
0
-0.12
0.05

> <PUBCHEM_SHAPE_SELFOVERLAP>
1029.852

> <PUBCHEM_SHAPE_VOLUME>
266.5

> <PUBCHEM_COORDINATE_TYPE>
2
5
10

$$$$

