443109
  -OEChem-07051213013D

 68 68  0     1  0  0  0  0  0999 V2000
   -1.5109   -0.2101    1.5818 O   0  0  0  0  0  0  0  0  0  0  0  0
    1.3524   -0.6469   -1.9560 O   0  0  0  0  0  0  0  0  0  0  0  0
    4.8382   -2.6296    0.2631 O   0  0  0  0  0  0  0  0  0  0  0  0
   -4.7948   -1.8479    0.0657 O   0  0  0  0  0  0  0  0  0  0  0  0
    0.5689    4.7937    1.0273 O   0  0  0  0  0  0  0  0  0  0  0  0
   -0.9439   -1.0243   -0.5186 N   0  0  0  0  0  0  0  0  0  0  0  0
    2.5526   -1.1300   -0.0276 N   0  0  0  0  0  0  0  0  0  0  0  0
   -4.0266    0.2778    0.6257 N   0  0  0  0  0  0  0  0  0  0  0  0
    5.7166   -1.5220   -1.5475 N   0  0  0  0  0  0  0  0  0  0  0  0
    0.2239   -1.7700   -0.1268 C   0  0  1  0  0  0  0  0  0  0  0  0
    0.1175   -3.2540   -0.5004 C   0  0  0  0  0  0  0  0  0  0  0  0
   -1.0884   -3.9915    0.1166 C   0  0  0  0  0  0  0  0  0  0  0  0
   -2.9297    0.3457   -0.3045 C   0  0  1  0  0  0  0  0  0  0  0  0
   -2.6018    1.7880   -0.7112 C   0  0  0  0  0  0  0  0  0  0  0  0
   -3.7674    2.5563   -1.3668 C   0  0  0  0  0  0  0  0  0  0  0  0
   -1.7246   -0.2978    0.3743 C   0  0  0  0  0  0  0  0  0  0  0  0
    1.4194   -1.1337   -0.8291 C   0  0  0  0  0  0  0  0  0  0  0  0
   -1.1731   -5.4499   -0.3357 C   0  0  0  0  0  0  0  0  0  0  0  0
   -1.0048   -3.9294    1.6444 C   0  0  0  0  0  0  0  0  0  0  0  0
    3.8086   -0.5416   -0.4336 C   0  0  1  0  0  0  0  0  0  0  0  0
   -3.3985    4.0030   -1.6983 C   0  0  0  0  0  0  0  0  0  0  0  0
   -4.2109    1.8321   -2.6410 C   0  0  0  0  0  0  0  0  0  0  0  0
    4.2790    0.5476    0.5370 C   0  0  0  0  0  0  0  0  0  0  0  0
    3.2900    1.6802    0.6676 C   0  0  0  0  0  0  0  0  0  0  0  0
   -4.8696   -0.8187    0.7318 C   0  0  0  0  0  0  0  0  0  0  0  0
    4.8295   -1.6680   -0.5016 C   0  0  0  0  0  0  0  0  0  0  0  0
    3.3744    2.7821   -0.1836 C   0  0  0  0  0  0  0  0  0  0  0  0
    2.2912    1.6246    1.6397 C   0  0  0  0  0  0  0  0  0  0  0  0
   -5.9153   -0.6380    1.7993 C   0  0  0  0  0  0  0  0  0  0  0  0
    2.4600    3.8285   -0.0626 C   0  0  0  0  0  0  0  0  0  0  0  0
    1.3769    2.6710    1.7608 C   0  0  0  0  0  0  0  0  0  0  0  0
    1.4612    3.7728    0.9097 C   0  0  0  0  0  0  0  0  0  0  0  0
    0.3669   -1.6643    0.9537 H   0  0  0  0  0  0  0  0  0  0  0  0
    1.0463   -3.7655   -0.2140 H   0  0  0  0  0  0  0  0  0  0  0  0
    0.0533   -3.3438   -1.5937 H   0  0  0  0  0  0  0  0  0  0  0  0
   -2.0150   -3.4965   -0.1991 H   0  0  0  0  0  0  0  0  0  0  0  0
   -3.1902   -0.2535   -1.1839 H   0  0  0  0  0  0  0  0  0  0  0  0
   -2.2771    2.3464    0.1780 H   0  0  0  0  0  0  0  0  0  0  0  0
   -1.7380    1.7833   -1.3897 H   0  0  0  0  0  0  0  0  0  0  0  0
   -4.6166    2.5857   -0.6732 H   0  0  0  0  0  0  0  0  0  0  0  0
   -1.1798   -1.0062   -1.5067 H   0  0  0  0  0  0  0  0  0  0  0  0
   -0.2842   -6.0119   -0.0301 H   0  0  0  0  0  0  0  0  0  0  0  0
   -1.2537   -5.5109   -1.4260 H   0  0  0  0  0  0  0  0  0  0  0  0
   -2.0520   -5.9426    0.0934 H   0  0  0  0  0  0  0  0  0  0  0  0
   -1.8010   -4.5307    2.0975 H   0  0  0  0  0  0  0  0  0  0  0  0
   -1.1298   -2.9110    2.0204 H   0  0  0  0  0  0  0  0  0  0  0  0
   -0.0468   -4.3163    2.0081 H   0  0  0  0  0  0  0  0  0  0  0  0
    3.6853   -0.1082   -1.4337 H   0  0  0  0  0  0  0  0  0  0  0  0
    2.5215   -1.5926    0.8765 H   0  0  0  0  0  0  0  0  0  0  0  0
   -4.1380    1.0431    1.2852 H   0  0  0  0  0  0  0  0  0  0  0  0
   -3.0970    4.5406   -0.7933 H   0  0  0  0  0  0  0  0  0  0  0  0
   -4.2502    4.5342   -2.1359 H   0  0  0  0  0  0  0  0  0  0  0  0
   -2.5672    4.0466   -2.4102 H   0  0  0  0  0  0  0  0  0  0  0  0
   -4.6601    0.8597   -2.4185 H   0  0  0  0  0  0  0  0  0  0  0  0
   -4.9713    2.4162   -3.1714 H   0  0  0  0  0  0  0  0  0  0  0  0
   -3.3707    1.6767   -3.3262 H   0  0  0  0  0  0  0  0  0  0  0  0
    4.4637    0.1168    1.5310 H   0  0  0  0  0  0  0  0  0  0  0  0
    5.2501    0.9451    0.2133 H   0  0  0  0  0  0  0  0  0  0  0  0
    4.1467    2.8352   -0.9462 H   0  0  0  0  0  0  0  0  0  0  0  0
    2.2142    0.7727    2.3100 H   0  0  0  0  0  0  0  0  0  0  0  0
   -6.3562    0.3611    1.7372 H   0  0  0  0  0  0  0  0  0  0  0  0
   -6.7090   -1.3781    1.6653 H   0  0  0  0  0  0  0  0  0  0  0  0
   -5.4568   -0.7733    2.7826 H   0  0  0  0  0  0  0  0  0  0  0  0
    6.4404   -2.2129   -1.7157 H   0  0  0  0  0  0  0  0  0  0  0  0
    5.6959   -0.7242   -2.1744 H   0  0  0  0  0  0  0  0  0  0  0  0
    2.5301    4.6837   -0.7291 H   0  0  0  0  0  0  0  0  0  0  0  0
    0.6026    2.6148    2.5212 H   0  0  0  0  0  0  0  0  0  0  0  0
   -0.0534    4.5868    1.7456 H   0  0  0  0  0  0  0  0  0  0  0  0
  1 16  2  0  0  0  0
  2 17  2  0  0  0  0
  3 26  2  0  0  0  0
  4 25  2  0  0  0  0
  5 32  1  0  0  0  0
  5 68  1  0  0  0  0
  6 10  1  0  0  0  0
  6 16  1  0  0  0  0
  6 41  1  0  0  0  0
  7 17  1  0  0  0  0
  7 20  1  0  0  0  0
  7 49  1  0  0  0  0
  8 13  1  0  0  0  0
  8 25  1  0  0  0  0
  8 50  1  0  0  0  0
  9 26  1  0  0  0  0
  9 64  1  0  0  0  0
  9 65  1  0  0  0  0
 10 11  1  0  0  0  0
 10 17  1  0  0  0  0
 10 33  1  0  0  0  0
 11 12  1  0  0  0  0
 11 34  1  0  0  0  0
 11 35  1  0  0  0  0
 12 18  1  0  0  0  0
 12 19  1  0  0  0  0
 12 36  1  0  0  0  0
 13 14  1  0  0  0  0
 13 16  1  0  0  0  0
 13 37  1  0  0  0  0
 14 15  1  0  0  0  0
 14 38  1  0  0  0  0
 14 39  1  0  0  0  0
 15 21  1  0  0  0  0
 15 22  1  0  0  0  0
 15 40  1  0  0  0  0
 18 42  1  0  0  0  0
 18 43  1  0  0  0  0
 18 44  1  0  0  0  0
 19 45  1  0  0  0  0
 19 46  1  0  0  0  0
 19 47  1  0  0  0  0
 20 23  1  0  0  0  0
 20 26  1  0  0  0  0
 20 48  1  0  0  0  0
 21 51  1  0  0  0  0
 21 52  1  0  0  0  0
 21 53  1  0  0  0  0
 22 54  1  0  0  0  0
 22 55  1  0  0  0  0
 22 56  1  0  0  0  0
 23 24  1  0  0  0  0
 23 57  1  0  0  0  0
 23 58  1  0  0  0  0
 24 27  2  0  0  0  0
 24 28  1  0  0  0  0
 25 29  1  0  0  0  0
 27 30  1  0  0  0  0
 27 59  1  0  0  0  0
 28 31  2  0  0  0  0
 28 60  1  0  0  0  0
 29 61  1  0  0  0  0
 29 62  1  0  0  0  0
 29 63  1  0  0  0  0
 30 32  2  0  0  0  0
 30 66  1  0  0  0  0
 31 32  1  0  0  0  0
 31 67  1  0  0  0  0
M  END
> <PUBCHEM_COMPOUND_CID>
443109

> <PUBCHEM_CONFORMER_RMSD>
1.4

> <PUBCHEM_CONFORMER_DIVERSEORDER>
1
173
162
170
44
107
84
33
39
120
29
77
35
57
60
149
20
175
121
127
144
85
54
143
87
40
110
18
37
180
79
16
145
117
184
182
177
27
76
154
3
10
165
45
83
164
42
34
176
28
135
118
195
41
188
51
86
17
113
23
6
156
128
112
131
25
115
64
101
31
161
96
24
119
100
94
171
174
179
95
74
200
106
204
194
13
111
197
138
19
58
158
187
191
98
196
43
108
152
70
68
9
163
50
4
62
103
11
63
82
46
55
36
150
140
124
198
192
91
56
130
153
189
89
126
157
66
201
26
38
160
88
97
172
133
65
80
199
125
2
155
193
15
116
14
159
21
169
69
166
67
47
151
141
129
102
148
146
185
59
142
75
93
132
7
137
147
48
123
49
134
61
178
5
73
78
114
203
109
52
136
90
72
168
181
202
190
105
99
104
92
167
206
12
186
139
183
122
32
53
22
71
81
30
205
8

> <PUBCHEM_MMFF94_PARTIAL_CHARGES>
34
1 -0.57
10 0.36
13 0.36
16 0.57
17 0.57
2 -0.57
20 0.36
23 0.14
24 -0.14
25 0.57
26 0.57
27 -0.15
28 -0.15
29 0.06
3 -0.57
30 -0.15
31 -0.15
32 0.08
4 -0.57
41 0.37
49 0.37
5 -0.53
50 0.37
59 0.15
6 -0.73
60 0.15
64 0.37
65 0.37
66 0.15
67 0.15
68 0.45
7 -0.73
8 -0.73
9 -0.8

> <PUBCHEM_EFFECTIVE_ROTOR_COUNT>
15

> <PUBCHEM_PHARMACOPHORE_FEATURES>
12
1 1 acceptor
1 2 acceptor
1 3 acceptor
1 4 acceptor
1 5 donor
1 6 donor
1 7 donor
1 8 donor
1 9 donor
3 12 18 19 hydrophobe
3 15 21 22 hydrophobe
6 24 27 28 30 31 32 rings

> <PUBCHEM_HEAVY_ATOM_COUNT>
32

> <PUBCHEM_ATOM_DEF_STEREO_COUNT>
0

> <PUBCHEM_ATOM_UDEF_STEREO_COUNT>
3

> <PUBCHEM_BOND_DEF_STEREO_COUNT>
0

> <PUBCHEM_BOND_UDEF_STEREO_COUNT>
0

> <PUBCHEM_ISOTOPIC_ATOM_COUNT>
0

> <PUBCHEM_COMPONENT_COUNT>
1

> <PUBCHEM_CACTVS_TAUTO_COUNT>
32

> <PUBCHEM_CONFORMER_ID>
0006C2E500000001

> <PUBCHEM_MMFF94_ENERGY>
67.4283

> <PUBCHEM_FEATURE_SELFOVERLAP>
60.892

> <PUBCHEM_SHAPE_FINGERPRINT>
10675989 125 16827285247622073069
12788726 201 18118399786363537778
13583140 156 18338523061762516215
15081414 286 18259705580269899064
15815584 197 18044938123686063230
20764821 26 18337949111986866945
21033648 144 18262524667578713750
21033648 29 18340497732747665152
3187 122 17330856624919065393
46194498 28 18129937867542587940
508706 21 18199482119754472749

> <PUBCHEM_SHAPE_MULTIPOLES>
609.27
10.69
6.9
1.79
1.81
1.38
-0.24
-0.23
-0.72
0.47
-0.04
1.32
-0.9
3.85

> <PUBCHEM_SHAPE_SELFOVERLAP>
1222.574

> <PUBCHEM_SHAPE_VOLUME>
357.2

> <PUBCHEM_COORDINATE_TYPE>
2
5
10

$$$$

