11388558
  -OEChem-07051213123D

 44 45  0     1  0  0  0  0  0999 V2000
   -3.9059   -2.1654    0.1922 S   0  0  0  0  0  0  0  0  0  0  0  0
    3.4078   -2.0417   -0.1896 F   0  0  0  0  0  0  0  0  0  0  0  0
    5.0600   -0.8404   -0.9332 F   0  0  0  0  0  0  0  0  0  0  0  0
    4.7509   -1.0526    1.2143 F   0  0  0  0  0  0  0  0  0  0  0  0
    1.2477   -1.6906   -1.0135 O   0  0  0  0  0  0  0  0  0  0  0  0
   -0.3930   -0.4636    0.1138 N   0  0  0  0  0  0  0  0  0  0  0  0
    2.7107    2.3331    0.1961 N   0  0  0  0  0  0  0  0  0  0  0  0
    3.7711    1.5092    0.2498 N   0  0  0  0  0  0  0  0  0  0  0  0
   -3.1641    0.2827    1.2097 C   0  0  2  0  0  0  0  0  0  0  0  0
   -4.2764    1.0602    0.4712 C   0  0  0  0  0  0  0  0  0  0  0  0
   -3.8908    1.6134   -0.9179 C   0  0  0  0  0  0  0  0  0  0  0  0
   -2.7329   -0.9778    0.4721 C   0  0  0  0  0  0  0  0  0  0  0  0
   -3.6084   -0.0525    2.6401 C   0  0  0  0  0  0  0  0  0  0  0  0
   -5.0752    2.3824   -1.5115 C   0  0  0  0  0  0  0  0  0  0  0  0
   -2.6635    2.5243   -0.8641 C   0  0  0  0  0  0  0  0  0  0  0  0
   -1.5023   -1.2785    0.0007 C   0  0  0  0  0  0  0  0  0  0  0  0
   -1.5039   -2.5555   -0.6310 C   0  0  0  0  0  0  0  0  0  0  0  0
   -2.7471   -3.1477   -0.5980 C   0  0  0  0  0  0  0  0  0  0  0  0
    0.9006   -0.6959   -0.3837 C   0  0  0  0  0  0  0  0  0  0  0  0
    1.8630    0.3907   -0.1335 C   0  0  0  0  0  0  0  0  0  0  0  0
    3.2305    0.3053    0.0434 C   0  0  0  0  0  0  0  0  0  0  0  0
    1.5278    1.6946   -0.0354 C   0  0  0  0  0  0  0  0  0  0  0  0
    4.0973   -0.8866    0.0309 C   0  0  0  0  0  0  0  0  0  0  0  0
    2.8962    3.7528    0.3770 C   0  0  0  0  0  0  0  0  0  0  0  0
   -2.3092    0.9553    1.3269 H   0  0  0  0  0  0  0  0  0  0  0  0
   -4.5736    1.9082    1.1046 H   0  0  0  0  0  0  0  0  0  0  0  0
   -5.1775    0.4416    0.3720 H   0  0  0  0  0  0  0  0  0  0  0  0
   -3.6682    0.7765   -1.5907 H   0  0  0  0  0  0  0  0  0  0  0  0
   -4.5362   -0.6343    2.6625 H   0  0  0  0  0  0  0  0  0  0  0  0
   -2.8377   -0.6258    3.1677 H   0  0  0  0  0  0  0  0  0  0  0  0
   -3.7864    0.8666    3.2094 H   0  0  0  0  0  0  0  0  0  0  0  0
   -5.3390    3.2473   -0.8933 H   0  0  0  0  0  0  0  0  0  0  0  0
   -4.8390    2.7447   -2.5177 H   0  0  0  0  0  0  0  0  0  0  0  0
   -5.9573    1.7380   -1.5888 H   0  0  0  0  0  0  0  0  0  0  0  0
   -2.4830    2.9899   -1.8393 H   0  0  0  0  0  0  0  0  0  0  0  0
   -2.7937    3.3247   -0.1281 H   0  0  0  0  0  0  0  0  0  0  0  0
   -1.7616    1.9662   -0.6082 H   0  0  0  0  0  0  0  0  0  0  0  0
   -0.6630   -3.0519   -1.0942 H   0  0  0  0  0  0  0  0  0  0  0  0
   -0.5431    0.3995    0.6255 H   0  0  0  0  0  0  0  0  0  0  0  0
   -3.0305   -4.1105   -0.9994 H   0  0  0  0  0  0  0  0  0  0  0  0
    0.5952    2.2359   -0.1093 H   0  0  0  0  0  0  0  0  0  0  0  0
    1.9310    4.2599    0.3029 H   0  0  0  0  0  0  0  0  0  0  0  0
    3.5688    4.1141   -0.4048 H   0  0  0  0  0  0  0  0  0  0  0  0
    3.3305    3.9196    1.3659 H   0  0  0  0  0  0  0  0  0  0  0  0
  1 12  1  0  0  0  0
  1 18  1  0  0  0  0
  2 23  1  0  0  0  0
  3 23  1  0  0  0  0
  4 23  1  0  0  0  0
  5 19  2  0  0  0  0
  6 16  1  0  0  0  0
  6 19  1  0  0  0  0
  6 39  1  0  0  0  0
  7  8  1  0  0  0  0
  7 22  1  0  0  0  0
  7 24  1  0  0  0  0
  8 21  2  0  0  0  0
  9 10  1  0  0  0  0
  9 12  1  0  0  0  0
  9 13  1  0  0  0  0
  9 25  1  0  0  0  0
 10 11  1  0  0  0  0
 10 26  1  0  0  0  0
 10 27  1  0  0  0  0
 11 14  1  0  0  0  0
 11 15  1  0  0  0  0
 11 28  1  0  0  0  0
 12 16  2  0  0  0  0
 13 29  1  0  0  0  0
 13 30  1  0  0  0  0
 13 31  1  0  0  0  0
 14 32  1  0  0  0  0
 14 33  1  0  0  0  0
 14 34  1  0  0  0  0
 15 35  1  0  0  0  0
 15 36  1  0  0  0  0
 15 37  1  0  0  0  0
 16 17  1  0  0  0  0
 17 18  2  0  0  0  0
 17 38  1  0  0  0  0
 18 40  1  0  0  0  0
 19 20  1  0  0  0  0
 20 21  1  0  0  0  0
 20 22  2  0  0  0  0
 21 23  1  0  0  0  0
 22 41  1  0  0  0  0
 24 42  1  0  0  0  0
 24 43  1  0  0  0  0
 24 44  1  0  0  0  0
M  END
> <PUBCHEM_COMPOUND_CID>
11388558

> <PUBCHEM_CONFORMER_RMSD>
0.8

> <PUBCHEM_CONFORMER_DIVERSEORDER>
1
31
32
50
13
35
51
27
44
23
40
48
19
52
41
24
39
30
33
26
36
20
21
47
6
43
18
49
38
45
25
28
8
11
42
17
7
12
29
15
10
34
5
4
46
22
37
16
9
2
14
3

> <PUBCHEM_MMFF94_PARTIAL_CHARGES>
23
1 -0.08
12 -0.14
16 0.06
17 -0.15
18 -0.11
19 0.72
2 -0.34
20 -0.09
21 0.11
22 -0.3
23 1.2
24 0.26
3 -0.34
38 0.15
39 0.37
4 -0.34
40 0.15
41 0.15
5 -0.57
6 -0.49
7 0.31
8 -0.71
9 0.18

> <PUBCHEM_EFFECTIVE_ROTOR_COUNT>
7

> <PUBCHEM_PHARMACOPHORE_FEATURES>
7
1 13 hydrophobe
1 5 acceptor
1 6 donor
1 8 acceptor
3 11 14 15 hydrophobe
5 1 12 16 17 18 rings
5 7 8 20 21 22 rings

> <PUBCHEM_HEAVY_ATOM_COUNT>
24

> <PUBCHEM_ATOM_DEF_STEREO_COUNT>
0

> <PUBCHEM_ATOM_UDEF_STEREO_COUNT>
1

> <PUBCHEM_BOND_DEF_STEREO_COUNT>
0

> <PUBCHEM_BOND_UDEF_STEREO_COUNT>
0

> <PUBCHEM_ISOTOPIC_ATOM_COUNT>
0

> <PUBCHEM_COMPONENT_COUNT>
1

> <PUBCHEM_CACTVS_TAUTO_COUNT>
2

> <PUBCHEM_CONFORMER_ID>
00ADC68E00000001

> <PUBCHEM_MMFF94_ENERGY>
36.3967

> <PUBCHEM_FEATURE_SELFOVERLAP>
35.52

> <PUBCHEM_SHAPE_FINGERPRINT>
10670039 82 17836915716674873684
11045515 52 17834125152253355639
11578080 2 17460902620935275105
11725454 13 17702111468377735479
12077114 3 18343018934643162663
12107183 9 18263354949076389522
12403814 3 18338507527171605707
12422481 6 18127949985580343249
12507557 5 18334856121226004850
12596602 18 14404316478681260797
12633257 1 18188757418732592721
13140716 1 18335976480619754264
13402501 40 18270685401873751549
13583140 156 18130496518212082467
14251751 93 18341896303153951435
14466204 15 18269564990828942498
14790565 3 17908983206760614700
14957384 54 18342748433170717379
15442244 35 18335698308868695346
1601671 61 18261945319862318254
17349148 13 17676768776717280682
17492 89 18263077708985593534
18219364 16 18337379544015603297
19078846 21 18272943738732669002
20681677 76 18411704240334830829
21033648 144 18259989236303869357
21033648 29 18341619239061505625
21315764 268 18412829062600241757
21709351 56 18260829280709945902
23227448 37 18409170991698977629
23559900 14 18186801379257258560
2838139 119 18199763582309985429
312423 11 18192980539604869742
350125 39 18335977576195480875
4214541 1 18335416837833679979
469060 322 17764301744045861697
5104073 3 18336260137456040018
633830 44 17346878931760522656

> <PUBCHEM_SHAPE_MULTIPOLES>
455.12
10.69
3.79
1.33
4.81
1.27
0.67
2.05
0.23
-1.04
-1.01
-1.67
0.2
1.31

> <PUBCHEM_SHAPE_SELFOVERLAP>
944.16

> <PUBCHEM_SHAPE_VOLUME>
264.5

> <PUBCHEM_COORDINATE_TYPE>
2
5
10

$$$$

