17396001
  -OEChem-06241222533D

 38 40  0     0  0  0  0  0  0999 V2000
    5.7922    1.4621   -0.0304 S   0  0  0  0  0  0  0  0  0  0  0  0
   -7.5495    0.8043   -0.0268 O   0  0  0  0  0  0  0  0  0  0  0  0
    2.2184   -0.2035   -0.0191 O   0  0  0  0  0  0  0  0  0  0  0  0
    0.4781   -2.2176    0.0114 O   0  0  0  0  0  0  0  0  0  0  0  0
    2.8023    2.0127   -0.1048 O   0  0  0  0  0  0  0  0  0  0  0  0
   -5.6694   -0.5152   -0.0522 N   0  0  0  0  0  0  0  0  0  0  0  0
   -4.0884    1.8418   -0.2236 C   0  0  0  0  0  0  0  0  0  0  0  0
   -3.4550    0.4890   -0.0714 C   0  0  0  0  0  0  0  0  0  0  0  0
   -5.4567    1.8780    0.4408 C   0  0  0  0  0  0  0  0  0  0  0  0
   -4.2696   -0.6496   -0.0306 C   0  0  0  0  0  0  0  0  0  0  0  0
   -2.0643    0.3376   -0.0727 C   0  0  0  0  0  0  0  0  0  0  0  0
   -6.3270    0.6943    0.0666 C   0  0  0  0  0  0  0  0  0  0  0  0
   -1.4974   -0.9367   -0.0203 C   0  0  0  0  0  0  0  0  0  0  0  0
   -3.7028   -1.9258    0.0023 C   0  0  0  0  0  0  0  0  0  0  0  0
   -2.3152   -2.0661    0.0148 C   0  0  0  0  0  0  0  0  0  0  0  0
   -0.0510   -1.0882   -0.0190 C   0  0  0  0  0  0  0  0  0  0  0  0
    0.8492    0.1537   -0.0575 C   0  0  0  0  0  0  0  0  0  0  0  0
    4.5020    0.3367   -0.0052 C   0  0  0  0  0  0  0  0  0  0  0  0
    3.1248    0.8305   -0.0485 C   0  0  0  0  0  0  0  0  0  0  0  0
    6.9577    0.2096    0.0435 C   0  0  0  0  0  0  0  0  0  0  0  0
    4.9516   -0.9639    0.0583 C   0  0  0  0  0  0  0  0  0  0  0  0
    6.3741   -1.0375    0.0866 C   0  0  0  0  0  0  0  0  0  0  0  0
    8.3959    0.5539    0.0578 C   0  0  0  0  0  0  0  0  0  0  0  0
   -4.1861    2.0573   -1.2947 H   0  0  0  0  0  0  0  0  0  0  0  0
   -3.4537    2.6183    0.2187 H   0  0  0  0  0  0  0  0  0  0  0  0
   -5.3491    1.8668    1.5326 H   0  0  0  0  0  0  0  0  0  0  0  0
   -5.9761    2.8022    0.1650 H   0  0  0  0  0  0  0  0  0  0  0  0
   -1.4551    1.2349   -0.1272 H   0  0  0  0  0  0  0  0  0  0  0  0
   -6.2249   -1.3583   -0.1659 H   0  0  0  0  0  0  0  0  0  0  0  0
   -4.3294   -2.8135    0.0251 H   0  0  0  0  0  0  0  0  0  0  0  0
   -1.8950   -3.0679    0.0476 H   0  0  0  0  0  0  0  0  0  0  0  0
    0.6512    0.6949   -0.9892 H   0  0  0  0  0  0  0  0  0  0  0  0
    0.6231    0.7726    0.8178 H   0  0  0  0  0  0  0  0  0  0  0  0
    4.3029   -1.8303    0.0843 H   0  0  0  0  0  0  0  0  0  0  0  0
    6.9361   -1.9615    0.1367 H   0  0  0  0  0  0  0  0  0  0  0  0
    8.6769    1.1023   -0.8476 H   0  0  0  0  0  0  0  0  0  0  0  0
    8.6428    1.1710    0.9283 H   0  0  0  0  0  0  0  0  0  0  0  0
    9.0165   -0.3473    0.1045 H   0  0  0  0  0  0  0  0  0  0  0  0
  1 18  1  0  0  0  0
  1 20  1  0  0  0  0
  2 12  2  0  0  0  0
  3 17  1  0  0  0  0
  3 19  1  0  0  0  0
  4 16  2  0  0  0  0
  5 19  2  0  0  0  0
  6 10  1  0  0  0  0
  6 12  1  0  0  0  0
  6 29  1  0  0  0  0
  7  8  1  0  0  0  0
  7  9  1  0  0  0  0
  7 24  1  0  0  0  0
  7 25  1  0  0  0  0
  8 10  2  0  0  0  0
  8 11  1  0  0  0  0
  9 12  1  0  0  0  0
  9 26  1  0  0  0  0
  9 27  1  0  0  0  0
 10 14  1  0  0  0  0
 11 13  2  0  0  0  0
 11 28  1  0  0  0  0
 13 15  1  0  0  0  0
 13 16  1  0  0  0  0
 14 15  2  0  0  0  0
 14 30  1  0  0  0  0
 15 31  1  0  0  0  0
 16 17  1  0  0  0  0
 17 32  1  0  0  0  0
 17 33  1  0  0  0  0
 18 19  1  0  0  0  0
 18 21  2  0  0  0  0
 20 22  2  0  0  0  0
 20 23  1  0  0  0  0
 21 22  1  0  0  0  0
 21 34  1  0  0  0  0
 22 35  1  0  0  0  0
 23 36  1  0  0  0  0
 23 37  1  0  0  0  0
 23 38  1  0  0  0  0
M  END
> <PUBCHEM_COMPOUND_CID>
17396001

> <PUBCHEM_CONFORMER_RMSD>
1

> <PUBCHEM_CONFORMER_DIVERSEORDER>
1
126
24
77
121
89
113
120
2
87
95
16
4
99
65
63
55
90
117
7
31
33
36
69
19
71
5
104
98
15
73
93
107
27
39
83
26
35
118
96
78
88
102
20
70
72
66
82
105
101
23
38
92
75
114
79
123
128
32
122
80
18
106
10
119
8
53
3
111
59
47
44
17
62
108
115
9
116
42
58
76
124
100
50
110
6
12
21
40
57
67
86
131
81
46
68
54
112
43
14
48
125
45
61
25
41
49
52
34
30
127
29
129
37
74
84
97
22
109
56
94
103
60
91
51
85
64
13
11
130
28

> <PUBCHEM_MMFF94_PARTIAL_CHARGES>
29
1 -0.08
10 0.12
11 -0.15
12 0.57
13 0.09
14 -0.15
15 -0.15
16 0.42
17 0.34
18 -0.05
19 0.81
2 -0.57
20 -0.14
21 -0.15
22 -0.15
23 0.18
28 0.15
29 0.37
3 -0.43
30 0.15
31 0.15
34 0.15
35 0.15
4 -0.57
5 -0.57
6 -0.55
7 0.14
8 -0.14
9 0.06

> <PUBCHEM_EFFECTIVE_ROTOR_COUNT>
5.6

> <PUBCHEM_PHARMACOPHORE_FEATURES>
7
1 2 acceptor
1 4 acceptor
1 5 acceptor
1 6 donor
5 1 18 20 21 22 rings
6 6 7 8 9 10 12 rings
6 8 10 11 13 14 15 rings

> <PUBCHEM_HEAVY_ATOM_COUNT>
23

> <PUBCHEM_ATOM_DEF_STEREO_COUNT>
0

> <PUBCHEM_ATOM_UDEF_STEREO_COUNT>
0

> <PUBCHEM_BOND_DEF_STEREO_COUNT>
0

> <PUBCHEM_BOND_UDEF_STEREO_COUNT>
0

> <PUBCHEM_ISOTOPIC_ATOM_COUNT>
0

> <PUBCHEM_COMPONENT_COUNT>
1

> <PUBCHEM_CACTVS_TAUTO_COUNT>
11

> <PUBCHEM_CONFORMER_ID>
0109712100000001

> <PUBCHEM_MMFF94_ENERGY>
47.6742

> <PUBCHEM_FEATURE_SELFOVERLAP>
35.546

> <PUBCHEM_SHAPE_FINGERPRINT>
10 15 18201717362077958011
100830 39 18411982489875777493
10299344 5 18131632288412375138
10319926 262 18337401443500133514
10411042 1 17905890280773311111
10670039 82 18336270128051480601
10674148 151 18272090492677981722
10730089 173 18408322194450147905
10835480 77 18261679169276679016
11315181 36 18272368651074860433
11719270 70 17894631483335720134
12236239 1 18202001006081828570
13533116 47 4678548932090580020
13785724 45 17907019831112218338
14123256 10 7997969072646873076
14251752 14 18407760343844778808
14251764 18 18343866610953253878
14933364 13 18410855460566122152
15183329 4 18409446999140167800
15461852 350 17386009429316553884
15716309 27 11672059744232139104
17844677 252 18339917104982939280
19611394 137 17987221245941262347
20281389 69 18272090512897732004
20621476 66 18411133649576431272
21033648 29 17968956197187316072
21267235 1 18341327804160766635
220451 1 17203614766133263938
22224240 67 14692568806167917600
23402539 116 18259989249225142646
23536379 177 18411700985197747170
23559900 14 18261962846959409992
2838139 119 18261116274878017173
3004659 81 18341894091894386720
3009799 131 16732704964941923050
335352 9 18410293596944099445
350125 39 18411983567658770049
3545911 37 18408886247751052891
38695281 34 18187364350275053982
4073 2 18059852802081331434
4214541 1 18411138017463030812
4325135 7 18260833705132590901
4339292 15 16081666470248507127
445580 204 17241037821195194609
5104073 3 18271530801924249792
5283156 175 7781517018410338881
5385378 56 18340202011243348538
6328613 192 18270957956488023468
7226269 152 18114179756654514696
9996256 80 18410013221748152055

> <PUBCHEM_SHAPE_MULTIPOLES>
448.72
22.2
2.02
0.61
16.94
0.22
-0.01
-6.87
-0.71
-1.43
-0.03
0
-0.03
-0.2

> <PUBCHEM_SHAPE_SELFOVERLAP>
956.864

> <PUBCHEM_SHAPE_VOLUME>
249.4

> <PUBCHEM_COORDINATE_TYPE>
2
5
10

$$$$

