20056675
  -OEChem-07051213153D

 44 44  0     1  0  0  0  0  0999 V2000
    1.3420    0.8632    0.1072 O   0  0  0  0  0  0  0  0  0  0  0  0
   -0.5282    0.0285   -1.0106 O   0  0  0  0  0  0  0  0  0  0  0  0
    3.7375   -2.1057   -1.4140 O   0  0  0  0  0  0  0  0  0  0  0  0
    0.8107   -2.4398   -1.3616 O   0  0  0  0  0  0  0  0  0  0  0  0
    4.6224   -0.5744    0.8724 O   0  0  0  0  0  0  0  0  0  0  0  0
   -3.4204    0.0059   -1.2749 O   0  0  0  0  0  0  0  0  0  0  0  0
    2.1248    2.6263    2.0655 O   0  0  0  0  0  0  0  0  0  0  0  0
   -2.0426    2.1244   -2.2688 O   0  0  0  0  0  0  0  0  0  0  0  0
   -1.9557   -1.0772    1.9112 O   0  0  0  0  0  0  0  0  0  0  0  0
   -4.4169   -2.1741    1.9326 O   0  0  0  0  0  0  0  0  0  0  0  0
    2.8501   -1.5134   -0.4642 C   0  0  2  0  0  0  0  0  0  0  0  0
    1.5098   -1.2159   -1.1364 C   0  0  2  0  0  0  0  0  0  0  0  0
    3.5030   -0.2337    0.0588 C   0  0  1  0  0  0  0  0  0  0  0  0
    0.6351   -0.3191   -0.2603 C   0  0  1  0  0  0  0  0  0  0  0  0
    2.5080    0.5853    0.8845 C   0  0  1  0  0  0  0  0  0  0  0  0
   -1.3916    0.8706   -0.2629 C   0  0  2  0  0  0  0  0  0  0  0  0
   -2.7475    0.1695   -0.0266 C   0  0  2  0  0  0  0  0  0  0  0  0
    3.1004    1.9221    1.3192 C   0  0  0  0  0  0  0  0  0  0  0  0
   -1.4537    2.2351   -0.9762 C   0  0  2  0  0  0  0  0  0  0  0  0
   -2.5963   -1.2002    0.6560 C   0  0  2  0  0  0  0  0  0  0  0  0
   -2.2406    3.2777   -0.1946 C   0  0  0  0  0  0  0  0  0  0  0  0
   -3.9504   -1.8548    0.8437 C   0  0  0  0  0  0  0  0  0  0  0  0
    2.7195   -2.2487    0.3393 H   0  0  0  0  0  0  0  0  0  0  0  0
    1.6773   -0.7564   -2.1184 H   0  0  0  0  0  0  0  0  0  0  0  0
    3.8792    0.3552   -0.7867 H   0  0  0  0  0  0  0  0  0  0  0  0
    0.3249   -0.8650    0.6392 H   0  0  0  0  0  0  0  0  0  0  0  0
    2.2021    0.0402    1.7880 H   0  0  0  0  0  0  0  0  0  0  0  0
   -0.9759    1.0632    0.7367 H   0  0  0  0  0  0  0  0  0  0  0  0
   -3.3703    0.8186    0.6010 H   0  0  0  0  0  0  0  0  0  0  0  0
    3.9850    1.7879    1.9483 H   0  0  0  0  0  0  0  0  0  0  0  0
    3.3710    2.5399    0.4565 H   0  0  0  0  0  0  0  0  0  0  0  0
   -0.4340    2.6033   -1.1356 H   0  0  0  0  0  0  0  0  0  0  0  0
    4.5816   -2.2707   -0.9600 H   0  0  0  0  0  0  0  0  0  0  0  0
   -0.0418   -2.2166   -1.7732 H   0  0  0  0  0  0  0  0  0  0  0  0
    4.2974   -1.0918    1.6289 H   0  0  0  0  0  0  0  0  0  0  0  0
   -2.0148   -1.8884    0.0330 H   0  0  0  0  0  0  0  0  0  0  0  0
   -3.3027    3.0204   -0.1283 H   0  0  0  0  0  0  0  0  0  0  0  0
   -1.8415    3.4028    0.8164 H   0  0  0  0  0  0  0  0  0  0  0  0
   -2.1929    4.2456   -0.7061 H   0  0  0  0  0  0  0  0  0  0  0  0
   -4.3669   -0.1143   -1.0894 H   0  0  0  0  0  0  0  0  0  0  0  0
    1.3416    2.7335    1.4989 H   0  0  0  0  0  0  0  0  0  0  0  0
   -2.9665    1.8437   -2.1570 H   0  0  0  0  0  0  0  0  0  0  0  0
   -4.5073   -2.0788   -0.0819 H   0  0  0  0  0  0  0  0  0  0  0  0
   -2.4464   -0.4217    2.4358 H   0  0  0  0  0  0  0  0  0  0  0  0
  1 14  1  0  0  0  0
  1 15  1  0  0  0  0
  2 14  1  0  0  0  0
  2 16  1  0  0  0  0
  3 11  1  0  0  0  0
  3 33  1  0  0  0  0
  4 12  1  0  0  0  0
  4 34  1  0  0  0  0
  5 13  1  0  0  0  0
  5 35  1  0  0  0  0
  6 17  1  0  0  0  0
  6 40  1  0  0  0  0
  7 18  1  0  0  0  0
  7 41  1  0  0  0  0
  8 19  1  0  0  0  0
  8 42  1  0  0  0  0
  9 20  1  0  0  0  0
  9 44  1  0  0  0  0
 10 22  2  0  0  0  0
 11 12  1  0  0  0  0
 11 13  1  0  0  0  0
 11 23  1  0  0  0  0
 12 14  1  0  0  0  0
 12 24  1  0  0  0  0
 13 15  1  0  0  0  0
 13 25  1  0  0  0  0
 14 26  1  0  0  0  0
 15 18  1  0  0  0  0
 15 27  1  0  0  0  0
 16 17  1  0  0  0  0
 16 19  1  0  0  0  0
 16 28  1  0  0  0  0
 17 20  1  0  0  0  0
 17 29  1  0  0  0  0
 18 30  1  0  0  0  0
 18 31  1  0  0  0  0
 19 21  1  0  0  0  0
 19 32  1  0  0  0  0
 20 22  1  0  0  0  0
 20 36  1  0  0  0  0
 21 37  1  0  0  0  0
 21 38  1  0  0  0  0
 21 39  1  0  0  0  0
 22 43  1  0  0  0  0
M  END
> <PUBCHEM_COMPOUND_CID>
20056675

> <PUBCHEM_CONFORMER_RMSD>
0.8

> <PUBCHEM_CONFORMER_DIVERSEORDER>
1
43
84
144
33
117
177
123
85
23
107
131
207
104
92
141
192
195
20
120
125
211
159
136
108
196
9
45
42
210
6
118
70
180
40
213
147
175
209
29
81
186
218
94
162
170
142
77
13
219
111
138
185
172
24
10
55
153
201
188
212
152
100
79
127
50
37
75
83
205
66
90
168
167
57
41
31
165
69
56
198
93
137
27
8
156
183
78
206
217
98
134
178
151
199
109
155
169
65
72
11
215
15
203
160
126
139
44
80
216
189
67
46
146
115
200
73
114
7
202
22
133
176
148
88
82
91
122
208
158
194
38
58
157
87
36
129
161
16
62
102
121
12
103
150
53
34
74
54
182
187
106
135
68
149
14
184
89
132
171
95
130
154
145
166
124
17
76
181
119
204
220
97
116
214
49
26
173
96
143
21
39
128
113
3
60
64
179
86
197
63
191
30
101
47
105
61
25
59
52
140
164
4
5
48
174
193
99
2
163
112
19
110
32
51
18
190
28
71
35

> <PUBCHEM_MMFF94_PARTIAL_CHARGES>
29
1 -0.56
10 -0.57
11 0.28
12 0.28
13 0.28
14 0.56
15 0.28
16 0.28
17 0.28
18 0.28
19 0.28
2 -0.56
20 0.34
22 0.45
3 -0.68
33 0.4
34 0.4
35 0.4
4 -0.68
40 0.4
41 0.4
42 0.4
43 0.06
44 0.4
5 -0.68
6 -0.68
7 -0.68
8 -0.68
9 -0.68

> <PUBCHEM_EFFECTIVE_ROTOR_COUNT>
8.2

> <PUBCHEM_PHARMACOPHORE_FEATURES>
18
1 1 acceptor
1 10 acceptor
1 2 acceptor
1 3 acceptor
1 3 donor
1 4 acceptor
1 4 donor
1 5 acceptor
1 5 donor
1 6 acceptor
1 6 donor
1 7 acceptor
1 7 donor
1 8 acceptor
1 8 donor
1 9 acceptor
1 9 donor
6 1 11 12 13 14 15 rings

> <PUBCHEM_HEAVY_ATOM_COUNT>
22

> <PUBCHEM_ATOM_DEF_STEREO_COUNT>
9

> <PUBCHEM_ATOM_UDEF_STEREO_COUNT>
0

> <PUBCHEM_BOND_DEF_STEREO_COUNT>
0

> <PUBCHEM_BOND_UDEF_STEREO_COUNT>
0

> <PUBCHEM_ISOTOPIC_ATOM_COUNT>
0

> <PUBCHEM_COMPONENT_COUNT>
1

> <PUBCHEM_CACTVS_TAUTO_COUNT>
6

> <PUBCHEM_CONFORMER_ID>
01320A6300000001

> <PUBCHEM_MMFF94_ENERGY>
54.6345

> <PUBCHEM_FEATURE_SELFOVERLAP>
91.425

> <PUBCHEM_SHAPE_FINGERPRINT>
10165383 225 17827067412562666520
10366900 7 18411142445679847174
11582403 64 16755581395074585852
12363563 72 17773585045263001203
12403259 226 18408599283891066734
12633257 1 18336258041580246441
13294875 104 16974804467346360581
13583140 156 18198085679883385514
14178342 30 18059291096845440614
14223421 5 18409731767866365704
16752209 62 16988566775539936859
18219364 16 18113628888797206048
19049666 15 18266181823367061638
20600515 1 17559676136105207497
22182313 1 18187366588553589630
23503958 8 17703519886463731218
23526113 38 18190750923407895346
23557571 272 18273497853827313017
23559900 14 18131077051550278708
238 59 17753086944227786052
2748010 2 18336278906790248476
31174 14 18187640267584227354
3380486 145 18193569861274199581
458136 41 17970060042178831632
49207404 50 18335427811606827824
6049 1 18410007766939109164
621550 5 18191840475085393092
77492 1 15864078667080325198
81228 2 18130779097211658805
8809292 202 18121779705832733868
9709674 26 18336834194220924085

> <PUBCHEM_SHAPE_MULTIPOLES>
394.06
7.69
3.18
1.8
0.86
1.57
0.19
-3.23
2.33
-1.3
0.03
-0.45
0.11
3.47

> <PUBCHEM_SHAPE_SELFOVERLAP>
786.87

> <PUBCHEM_SHAPE_VOLUME>
228.9

> <PUBCHEM_COORDINATE_TYPE>
2
5
10

$$$$

