443480
  -OEChem-07051213023D

 55 58  0     1  0  0  0  0  0999 V2000
   -4.1761   -1.5599    0.3831 O   0  0  0  0  0  0  0  0  0  0  0  0
   -0.5999    0.0690    0.2937 C   0  0  2  0  0  0  0  0  0  0  0  0
    0.8902   -0.3562    0.6190 C   0  0  2  0  0  0  0  0  0  0  0  0
   -0.7307    1.6134    0.5697 C   0  0  2  0  0  0  0  0  0  0  0  0
    1.8026    0.4534   -0.4006 C   0  0  1  0  0  0  0  0  0  0  0  0
   -1.7427   -0.3570    1.2097 C   0  0  0  0  0  0  0  0  0  0  0  0
   -2.9041    0.4953    0.5601 C   0  0  1  0  0  0  0  0  0  0  0  0
   -2.2507    1.8993    0.7286 C   0  0  0  0  0  0  0  0  0  0  0  0
   -1.0564   -0.3810   -1.1930 C   0  0  0  0  0  0  0  0  0  0  0  0
    0.1119    2.4390   -0.3834 C   0  0  0  0  0  0  0  0  0  0  0  0
    1.5884    1.9952   -0.2987 C   0  0  0  0  0  0  0  0  0  0  0  0
   -3.5649   -0.5293   -0.4029 C   0  0  1  0  0  0  0  0  0  0  0  0
    3.3070    0.0053   -0.4753 C   0  0  0  0  0  0  0  0  0  0  0  0
    1.1016   -1.8859    0.4440 C   0  0  0  0  0  0  0  0  0  0  0  0
   -2.4170   -1.1672   -1.2729 C   0  0  0  0  0  0  0  0  0  0  0  0
    1.2386   -0.0427    2.1047 C   0  0  0  0  0  0  0  0  0  0  0  0
    3.3756   -1.5379   -0.6115 C   0  0  0  0  0  0  0  0  0  0  0  0
    2.5730   -2.3035    0.4339 C   0  0  0  0  0  0  0  0  0  0  0  0
   -4.6850    0.0793   -1.2611 C   0  0  0  0  0  0  0  0  0  0  0  0
    3.9642    0.5933   -1.7529 C   0  0  0  0  0  0  0  0  0  0  0  0
    4.1744    0.4780    0.7058 C   0  0  0  0  0  0  0  0  0  0  0  0
   -0.3399    1.8433    1.5696 H   0  0  0  0  0  0  0  0  0  0  0  0
    1.4217    0.2032   -1.4004 H   0  0  0  0  0  0  0  0  0  0  0  0
   -1.6042   -0.0551    2.2560 H   0  0  0  0  0  0  0  0  0  0  0  0
   -1.8940   -1.4409    1.2313 H   0  0  0  0  0  0  0  0  0  0  0  0
   -3.6837    0.5651    1.3384 H   0  0  0  0  0  0  0  0  0  0  0  0
   -2.4617    2.3304    1.7144 H   0  0  0  0  0  0  0  0  0  0  0  0
   -2.6221    2.5838   -0.0396 H   0  0  0  0  0  0  0  0  0  0  0  0
   -0.3038   -0.9833   -1.7057 H   0  0  0  0  0  0  0  0  0  0  0  0
   -1.1797    0.5113   -1.8158 H   0  0  0  0  0  0  0  0  0  0  0  0
    0.0406    3.5015   -0.1224 H   0  0  0  0  0  0  0  0  0  0  0  0
   -0.2425    2.3541   -1.4149 H   0  0  0  0  0  0  0  0  0  0  0  0
    2.1286    2.5082   -1.1011 H   0  0  0  0  0  0  0  0  0  0  0  0
    2.0097    2.3701    0.6403 H   0  0  0  0  0  0  0  0  0  0  0  0
    0.6631   -2.2497   -0.4886 H   0  0  0  0  0  0  0  0  0  0  0  0
    0.5801   -2.4294    1.2424 H   0  0  0  0  0  0  0  0  0  0  0  0
   -2.7236   -1.2273   -2.3241 H   0  0  0  0  0  0  0  0  0  0  0  0
   -2.2365   -2.2009   -0.9504 H   0  0  0  0  0  0  0  0  0  0  0  0
    0.4467   -0.3789    2.7804 H   0  0  0  0  0  0  0  0  0  0  0  0
    2.1308   -0.5638    2.4524 H   0  0  0  0  0  0  0  0  0  0  0  0
    1.4134    1.0181    2.2963 H   0  0  0  0  0  0  0  0  0  0  0  0
    4.4200   -1.8737   -0.5726 H   0  0  0  0  0  0  0  0  0  0  0  0
    3.0015   -1.8296   -1.6027 H   0  0  0  0  0  0  0  0  0  0  0  0
    3.0260   -2.1840    1.4225 H   0  0  0  0  0  0  0  0  0  0  0  0
    2.6319   -3.3760    0.2103 H   0  0  0  0  0  0  0  0  0  0  0  0
    4.0780    1.6803   -1.6909 H   0  0  0  0  0  0  0  0  0  0  0  0
    4.9661    0.1753   -1.9075 H   0  0  0  0  0  0  0  0  0  0  0  0
    3.3740    0.3657   -2.6477 H   0  0  0  0  0  0  0  0  0  0  0  0
    3.9051    0.0154    1.6535 H   0  0  0  0  0  0  0  0  0  0  0  0
    5.2281    0.2244    0.5350 H   0  0  0  0  0  0  0  0  0  0  0  0
    4.1280    1.5639    0.8341 H   0  0  0  0  0  0  0  0  0  0  0  0
   -4.2957    0.8679   -1.9126 H   0  0  0  0  0  0  0  0  0  0  0  0
   -5.1597   -0.6884   -1.8819 H   0  0  0  0  0  0  0  0  0  0  0  0
   -5.4708    0.5082   -0.6295 H   0  0  0  0  0  0  0  0  0  0  0  0
   -4.9026   -1.1649    0.8947 H   0  0  0  0  0  0  0  0  0  0  0  0
  1 12  1  0  0  0  0
  1 55  1  0  0  0  0
  2  3  1  0  0  0  0
  2  4  1  0  0  0  0
  2  6  1  0  0  0  0
  2  9  1  0  0  0  0
  3  5  1  0  0  0  0
  3 14  1  0  0  0  0
  3 16  1  0  0  0  0
  4  8  1  0  0  0  0
  4 10  1  0  0  0  0
  4 22  1  0  0  0  0
  5 11  1  0  0  0  0
  5 13  1  0  0  0  0
  5 23  1  0  0  0  0
  6  7  1  0  0  0  0
  6 24  1  0  0  0  0
  6 25  1  0  0  0  0
  7  8  1  0  0  0  0
  7 12  1  0  0  0  0
  7 26  1  0  0  0  0
  8 27  1  0  0  0  0
  8 28  1  0  0  0  0
  9 15  1  0  0  0  0
  9 29  1  0  0  0  0
  9 30  1  0  0  0  0
 10 11  1  0  0  0  0
 10 31  1  0  0  0  0
 10 32  1  0  0  0  0
 11 33  1  0  0  0  0
 11 34  1  0  0  0  0
 12 15  1  0  0  0  0
 12 19  1  0  0  0  0
 13 17  1  0  0  0  0
 13 20  1  0  0  0  0
 13 21  1  0  0  0  0
 14 18  1  0  0  0  0
 14 35  1  0  0  0  0
 14 36  1  0  0  0  0
 15 37  1  0  0  0  0
 15 38  1  0  0  0  0
 16 39  1  0  0  0  0
 16 40  1  0  0  0  0
 16 41  1  0  0  0  0
 17 18  1  0  0  0  0
 17 42  1  0  0  0  0
 17 43  1  0  0  0  0
 18 44  1  0  0  0  0
 18 45  1  0  0  0  0
 19 52  1  0  0  0  0
 19 53  1  0  0  0  0
 19 54  1  0  0  0  0
 20 46  1  0  0  0  0
 20 47  1  0  0  0  0
 20 48  1  0  0  0  0
 21 49  1  0  0  0  0
 21 50  1  0  0  0  0
 21 51  1  0  0  0  0
M  END
> <PUBCHEM_COMPOUND_CID>
443480

> <PUBCHEM_CONFORMER_RMSD>
0.6

> <PUBCHEM_CONFORMER_DIVERSEORDER>
1

> <PUBCHEM_MMFF94_PARTIAL_CHARGES>
3
1 -0.68
12 0.28
55 0.4

> <PUBCHEM_EFFECTIVE_ROTOR_COUNT>
2.2

> <PUBCHEM_PHARMACOPHORE_FEATURES>
6
1 1 acceptor
1 1 donor
3 13 20 21 hydrophobe
6 2 3 4 5 10 11 rings
6 3 5 13 14 17 18 rings
8 2 4 6 7 8 9 12 15 rings

> <PUBCHEM_HEAVY_ATOM_COUNT>
21

> <PUBCHEM_ATOM_DEF_STEREO_COUNT>
6

> <PUBCHEM_ATOM_UDEF_STEREO_COUNT>
0

> <PUBCHEM_BOND_DEF_STEREO_COUNT>
0

> <PUBCHEM_BOND_UDEF_STEREO_COUNT>
0

> <PUBCHEM_ISOTOPIC_ATOM_COUNT>
0

> <PUBCHEM_COMPONENT_COUNT>
1

> <PUBCHEM_CACTVS_TAUTO_COUNT>
1

> <PUBCHEM_CONFORMER_ID>
0006C45800000001

> <PUBCHEM_MMFF94_ENERGY>
144.7568

> <PUBCHEM_FEATURE_SELFOVERLAP>
30.473

> <PUBCHEM_SHAPE_FINGERPRINT>
10863032 1 18262514934871811704
11578080 2 17897187872864831688
12236239 1 18113899364072644799
12251169 10 9007059071635798745
12553582 1 18409438189639984561
12670546 177 17631727171258628215
12714826 92 17603864541735915643
128620 24 18409449171940081598
12892183 10 5833989447020827903
13140716 1 18050286964307943834
13221675 6 18408321085910644671
13224815 77 18409732893316511626
13581323 91 16805325495921821445
13583140 156 5328460337572307925
14576447 43 18336267851296424199
16752209 62 17894920680320191551
16945 1 18341036441952991456
17349148 13 18060707212604444714
17492 54 18129650907955177716
17804303 29 17385722508706348623
192875 21 17988926678322381508
19422 9 18336258058797206954
19862831 5 18060420230988984837
200 152 18411985766708470951
21267235 1 18336255816740070862
21501502 16 18266455605999323080
21634736 98 18262515871153447060
21637258 2 16371000854257217166
21731516 1 18334867150733792662
22112679 90 18267029525352173888
2334 1 17691117141783140072
23388829 49 18408322189664635068
23402539 116 18341615940821397522
23419403 2 14469159051389391272
23557571 272 18040438832400922264
23559900 14 18272094945599465354
23598291 2 18191859235249399154
2838139 119 15697426716720147118
2871803 45 18409731781009633238
296302 2 16774075159294161215
3060560 45 18341059523033471614
3082319 5 18338229470387423506
312423 11 18338789147697389922
3323516 105 18200591393694575843
34934 24 18341048639417863169
465052 167 18114176373085675975
474 4 18268431231290697032
5104073 3 18261110828511184002
633830 44 17345171471849442400
7364860 26 17969510307396993520
7832392 63 18266452307602076960
90525 40 18115303509246397215
9981440 41 17327467917240413880

> <PUBCHEM_SHAPE_MULTIPOLES>
426.3
7.51
2.16
1.45
1.89
0.28
-0.05
-1.62
2.17
-0.47
-0.06
-0.21
-0.02
-0.58

> <PUBCHEM_SHAPE_SELFOVERLAP>
898.193

> <PUBCHEM_SHAPE_VOLUME>
241.7

> <PUBCHEM_COORDINATE_TYPE>
2
5
10

$$$$

