443796
  -OEChem-07051213032D

 67 71  0     1  0  0  0  0  0999 V2000
    6.1748   -0.2115    0.0000 O   0  0  0  0  0  0  0  0  0  0  0  0
    4.6497   -3.5122    0.0000 O   0  0  0  0  0  0  0  0  0  0  0  0
    4.8480    0.9018    0.0000 O   0  0  0  0  0  0  0  0  0  0  0  0
    4.0042    0.3305    0.0000 O   0  0  0  0  0  0  0  0  0  0  0  0
    6.3981    0.5224    0.0000 O   0  0  0  0  0  0  0  0  0  0  0  0
    2.8680   -2.5017    0.0000 O   0  0  0  0  0  0  0  0  0  0  0  0
    6.7764    3.1999    0.0000 O   0  0  0  0  0  0  0  0  0  0  0  0
    4.8068    3.5472    0.0000 O   0  0  0  0  0  0  0  0  0  0  0  0
    8.1465    0.5570    0.0000 O   0  0  0  0  0  0  0  0  0  0  0  0
    2.8718    0.5465    0.0000 O   0  0  0  0  0  0  0  0  0  0  0  0
    9.9837    0.6001    0.0000 O   0  0  0  0  0  0  0  0  0  0  0  0
   11.8031   -2.5234    0.0000 O   0  0  0  0  0  0  0  0  0  0  0  0
    5.5320   -1.9776    0.0000 C   0  0  1  0  0  0  0  0  0  0  0  0
    5.5320   -0.9776    0.0000 C   0  0  1  0  0  0  0  0  0  0  0  0
    6.3981   -2.4776    0.0000 C   0  0  0  0  0  0  0  0  0  0  0  0
    4.6381   -2.5122    0.0000 C   0  0  1  0  0  0  0  0  0  0  0  0
    6.3981   -0.4776    0.0000 C   0  0  0  0  0  0  0  0  0  0  0  0
    4.6381   -0.4429    0.0000 C   0  0  0  0  0  0  0  0  0  0  0  0
    7.2641   -1.9776    0.0000 C   0  0  0  0  0  0  0  0  0  0  0  0
    7.2641   -0.9776    0.0000 C   0  0  0  0  0  0  0  0  0  0  0  0
    5.8328    0.7281    0.0000 C   0  0  2  0  0  0  0  0  0  0  0  0
    3.7320   -1.9984    0.0000 C   0  0  0  0  0  0  0  0  0  0  0  0
    3.7320   -0.9568    0.0000 C   0  0  0  0  0  0  0  0  0  0  0  0
    6.4756    1.4942    0.0000 C   0  0  0  0  0  0  0  0  0  0  0  0
    6.1336    2.4339    0.0000 C   0  0  2  0  0  0  0  0  0  0  0  0
    5.1488    2.6075    0.0000 C   0  0  1  0  0  0  0  0  0  0  0  0
    4.5060    1.8415    0.0000 C   0  0  1  0  0  0  0  0  0  0  0  0
    8.1580   -2.5122    0.0000 C   0  0  0  0  0  0  0  0  0  0  0  0
    8.1580   -0.4429    0.0000 C   0  0  0  0  0  0  0  0  0  0  0  0
    9.0641   -1.9984    0.0000 C   0  0  0  0  0  0  0  0  0  0  0  0
    9.0641   -0.9568    0.0000 C   0  0  0  0  0  0  0  0  0  0  0  0
    2.8680   -0.4534    0.0000 C   0  0  0  0  0  0  0  0  0  0  0  0
    3.5212    2.0151    0.0000 C   0  0  0  0  0  0  0  0  0  0  0  0
    3.7895   -4.0222    0.0000 C   0  0  0  0  0  0  0  0  0  0  0  0
    9.9953   -0.3999    0.0000 C   0  0  0  0  0  0  0  0  0  0  0  0
    9.9953   -2.5553    0.0000 C   0  0  0  0  0  0  0  0  0  0  0  0
    2.0000   -0.9501    0.0000 C   0  0  0  0  0  0  0  0  0  0  0  0
   10.9391   -2.0201    0.0000 C   0  0  0  0  0  0  0  0  0  0  0  0
   10.9391   -0.9351    0.0000 C   0  0  0  0  0  0  0  0  0  0  0  0
    5.5386   -2.8276    0.0000 H   0  0  0  0  0  0  0  0  0  0  0  0
    5.9995   -2.9525    0.0000 H   0  0  0  0  0  0  0  0  0  0  0  0
    6.7966   -2.9525    0.0000 H   0  0  0  0  0  0  0  0  0  0  0  0
    5.1792   -2.8150    0.0000 H   0  0  0  0  0  0  0  0  0  0  0  0
    6.4434    0.6205    0.0000 H   0  0  0  0  0  0  0  0  0  0  0  0
    6.8741    1.0192    0.0000 H   0  0  0  0  0  0  0  0  0  0  0  0
    7.0125    1.8042    0.0000 H   0  0  0  0  0  0  0  0  0  0  0  0
    6.7442    2.3262    0.0000 H   0  0  0  0  0  0  0  0  0  0  0  0
    5.5473    3.0825    0.0000 H   0  0  0  0  0  0  0  0  0  0  0  0
    4.1075    1.3665    0.0000 H   0  0  0  0  0  0  0  0  0  0  0  0
    8.1509   -3.1322    0.0000 H   0  0  0  0  0  0  0  0  0  0  0  0
    4.2230    0.9106    0.0000 H   0  0  0  0  0  0  0  0  0  0  0  0
    3.6288    2.6257    0.0000 H   0  0  0  0  0  0  0  0  0  0  0  0
    2.9106    2.1228    0.0000 H   0  0  0  0  0  0  0  0  0  0  0  0
    3.4135    1.4046    0.0000 H   0  0  0  0  0  0  0  0  0  0  0  0
    3.4733   -3.4888    0.0000 H   0  0  0  0  0  0  0  0  0  0  0  0
    3.2562   -4.3384    0.0000 H   0  0  0  0  0  0  0  0  0  0  0  0
    4.1057   -4.5555    0.0000 H   0  0  0  0  0  0  0  0  0  0  0  0
    7.3870    3.0923    0.0000 H   0  0  0  0  0  0  0  0  0  0  0  0
    5.2053    4.0222    0.0000 H   0  0  0  0  0  0  0  0  0  0  0  0
    9.9881   -3.1753    0.0000 H   0  0  0  0  0  0  0  0  0  0  0  0
    1.6921   -0.4120    0.0000 H   0  0  0  0  0  0  0  0  0  0  0  0
    1.4619   -1.2580    0.0000 H   0  0  0  0  0  0  0  0  0  0  0  0
    2.3079   -1.4882    0.0000 H   0  0  0  0  0  0  0  0  0  0  0  0
    8.6798    0.8732    0.0000 H   0  0  0  0  0  0  0  0  0  0  0  0
   11.4748   -0.6230    0.0000 H   0  0  0  0  0  0  0  0  0  0  0  0
   10.5170    0.9163    0.0000 H   0  0  0  0  0  0  0  0  0  0  0  0
   12.3413   -2.2155    0.0000 H   0  0  0  0  0  0  0  0  0  0  0  0
 14  1  1  6  0  0  0
 21  1  1  6  0  0  0
 16  2  1  6  0  0  0
  2 34  1  0  0  0  0
  3 21  1  0  0  0  0
  3 27  1  0  0  0  0
  4 18  1  0  0  0  0
  4 51  1  0  0  0  0
  5 17  2  0  0  0  0
  6 22  2  0  0  0  0
 25  7  1  6  0  0  0
  7 58  1  0  0  0  0
 26  8  1  1  0  0  0
  8 59  1  0  0  0  0
  9 29  1  0  0  0  0
  9 64  1  0  0  0  0
 10 32  2  0  0  0  0
 11 35  1  0  0  0  0
 11 66  1  0  0  0  0
 12 38  1  0  0  0  0
 12 67  1  0  0  0  0
 13 14  1  0  0  0  0
 13 15  1  0  0  0  0
 13 16  1  0  0  0  0
 13 40  1  6  0  0  0
 14 17  1  0  0  0  0
 14 18  1  0  0  0  0
 15 19  1  0  0  0  0
 15 41  1  0  0  0  0
 15 42  1  0  0  0  0
 16 22  1  0  0  0  0
 16 43  1  0  0  0  0
 17 20  1  0  0  0  0
 18 23  2  0  0  0  0
 19 20  1  0  0  0  0
 19 28  2  0  0  0  0
 20 29  2  0  0  0  0
 21 24  1  0  0  0  0
 21 44  1  0  0  0  0
 22 23  1  0  0  0  0
 23 32  1  0  0  0  0
 24 25  1  0  0  0  0
 24 45  1  0  0  0  0
 24 46  1  0  0  0  0
 25 26  1  0  0  0  0
 25 47  1  0  0  0  0
 26 27  1  0  0  0  0
 26 48  1  0  0  0  0
 27 33  1  6  0  0  0
 27 49  1  0  0  0  0
 28 30  1  0  0  0  0
 28 50  1  0  0  0  0
 29 31  1  0  0  0  0
 30 31  1  0  0  0  0
 30 36  2  0  0  0  0
 31 35  2  0  0  0  0
 32 37  1  0  0  0  0
 33 52  1  0  0  0  0
 33 53  1  0  0  0  0
 33 54  1  0  0  0  0
 34 55  1  0  0  0  0
 34 56  1  0  0  0  0
 34 57  1  0  0  0  0
 35 39  1  0  0  0  0
 36 38  1  0  0  0  0
 36 60  1  0  0  0  0
 37 61  1  0  0  0  0
 37 62  1  0  0  0  0
 37 63  1  0  0  0  0
 38 39  2  0  0  0  0
 39 65  1  0  0  0  0
M  END
> <PUBCHEM_COMPOUND_CID>
443796

> <PUBCHEM_COMPOUND_CANONICALIZED>
1

> <PUBCHEM_CACTVS_COMPLEXITY>
1060

> <PUBCHEM_CACTVS_HBOND_ACCEPTOR>
12

> <PUBCHEM_CACTVS_HBOND_DONOR>
6

> <PUBCHEM_CACTVS_ROTATABLE_BOND>
4

> <PUBCHEM_CACTVS_SUBSKEYS>
AAADceB4PAAAAAAAAAAAAAAAAAAAAAAAAAA0YMECAAAAAADBUAAAGgAACAAADVSwmAMyDsAABgCIAqBSAAICAAAkIAAAiAFGCMgZNzaKNRaicUAl4BUPuQfK7vzu4AADCAAYAADAAAYQADAAAAAAAAAAAA==

> <PUBCHEM_IUPAC_OPENEYE_NAME>
(1S,4aR,12aS)-3-acetyl-4a-[(2S,4R,5S,6R)-4,5-dihydroxy-6-methyl-tetrahydropyran-2-yl]oxy-4,6,7,9-tetrahydroxy-1-methoxy-12,12a-dihydro-1H-tetracene-2,5-dione

> <PUBCHEM_IUPAC_CAS_NAME>
(1S,4aR,12aS)-3-acetyl-4a-[[(2S,4R,5S,6R)-4,5-dihydroxy-6-methyl-2-oxanyl]oxy]-4,6,7,9-tetrahydroxy-1-methoxy-12,12a-dihydro-1H-tetracene-2,5-dione

> <PUBCHEM_IUPAC_NAME>
(1S,4aR,12aS)-3-acetyl-4a-[(2S,4R,5S,6R)-4,5-dihydroxy-6-methyloxan-2-yl]oxy-4,6,7,9-tetrahydroxy-1-methoxy-12,12a-dihydro-1H-tetracene-2,5-dione

> <PUBCHEM_IUPAC_SYSTEMATIC_NAME>
(1S,4aR,12aS)-3-ethanoyl-1-methoxy-4a-[(2S,4R,5S,6R)-6-methyl-4,5-bis(oxidanyl)oxan-2-yl]oxy-4,6,7,9-tetrakis(oxidanyl)-12,12a-dihydro-1H-tetracene-2,5-dione

> <PUBCHEM_IUPAC_TRADITIONAL_NAME>
(1S,4aR,12aS)-3-acetyl-4a-[(2S,4R,5S,6R)-4,5-dihydroxy-6-methyl-tetrahydropyran-2-yl]oxy-4,6,7,9-tetrahydroxy-1-methoxy-12,12a-dihydro-1H-tetracene-2,5-quinone

> <PUBCHEM_IUPAC_INCHI>
InChI=1S/C27H28O12/c1-9(28)18-23(34)24(37-3)14-6-12-4-11-5-13(29)7-15(30)19(11)22(33)20(12)26(36)27(14,25(18)35)39-17-8-16(31)21(32)10(2)38-17/h4-5,7,10,14,16-17,21,24,29-33,35H,6,8H2,1-3H3/t10-,14+,16-,17+,21-,24+,27-/m1/s1

> <PUBCHEM_IUPAC_INCHIKEY>
NROOIKAJMQWERE-NYJNVLOGSA-N

> <PUBCHEM_XLOGP3_AA>
1.6

> <PUBCHEM_EXACT_MASS>
544.158076

> <PUBCHEM_MOLECULAR_FORMULA>
C27H28O12

> <PUBCHEM_MOLECULAR_WEIGHT>
544.50402

> <PUBCHEM_OPENEYE_CAN_SMILES>
CC1C(C(CC(O1)OC23C(CC4=C(C2=O)C(=C5C(=C4)C=C(C=C5O)O)O)C(C(=O)C(=C3O)C(=O)C)OC)O)O

> <PUBCHEM_OPENEYE_ISO_SMILES>
C[C@@H]1[C@H]([C@@H](C[C@@H](O1)O[C@@]23[C@@H](CC4=C(C2=O)C(=C5C(=C4)C=C(C=C5O)O)O)[C@@H](C(=O)C(=C3O)C(=O)C)OC)O)O

> <PUBCHEM_CACTVS_TPSA>
200

> <PUBCHEM_MONOISOTOPIC_WEIGHT>
544.158076

> <PUBCHEM_TOTAL_CHARGE>
0

> <PUBCHEM_HEAVY_ATOM_COUNT>
39

> <PUBCHEM_ATOM_DEF_STEREO_COUNT>
7

> <PUBCHEM_ATOM_UDEF_STEREO_COUNT>
0

> <PUBCHEM_BOND_DEF_STEREO_COUNT>
0

> <PUBCHEM_BOND_UDEF_STEREO_COUNT>
0

> <PUBCHEM_ISOTOPIC_ATOM_COUNT>
0

> <PUBCHEM_COMPONENT_COUNT>
1

> <PUBCHEM_CACTVS_TAUTO_COUNT>
999

> <PUBCHEM_COORDINATE_TYPE>
1
5
255

> <PUBCHEM_BONDANNOTATIONS>
14  1  6
21  1  6
13  40  6
19  20  8
19  28  8
16  2  6
20  29  8
27  33  6
28  30  8
29  31  8
30  31  8
30  36  8
31  35  8
35  39  8
36  38  8
38  39  8
25  7  6
26  8  5

$$$$

