443208
  -OEChem-07051213012D

 71 73  0     1  0  0  0  0  0999 V2000
    5.9529    1.8874    0.0000 P   0  0  3  0  0  0  0  0  0  0  0  0
    5.0868    0.3875    0.0000 P   0  0  3  0  0  0  0  0  0  0  0  0
    5.9529    3.8874    0.0000 O   0  0  0  0  0  0  0  0  0  0  0  0
    8.5510    5.3874    0.0000 O   0  0  0  0  0  0  0  0  0  0  0  0
    6.8189    2.3874    0.0000 O   0  0  0  0  0  0  0  0  0  0  0  0
    8.5510    3.3874    0.0000 O   0  0  0  0  0  0  0  0  0  0  0  0
    5.0298   -2.7003    0.0000 O   0  0  0  0  0  0  0  0  0  0  0  0
    2.4608   -2.3913    0.0000 O   0  0  0  0  0  0  0  0  0  0  0  0
    5.0868   -0.6125    0.0000 O   0  0  0  0  0  0  0  0  0  0  0  0
    5.0868    1.3874    0.0000 O   0  0  0  0  0  0  0  0  0  0  0  0
    6.4529    1.0214    0.0000 O   0  0  0  0  0  0  0  0  0  0  0  0
    5.4529    2.7535    0.0000 O   0  0  0  0  0  0  0  0  0  0  0  0
    4.0868    0.3875    0.0000 O   0  0  0  0  0  0  0  0  0  0  0  0
    6.0868    0.3875    0.0000 O   0  0  0  0  0  0  0  0  0  0  0  0
    3.9074   -5.4785    0.0000 O   0  0  0  0  0  0  0  0  0  0  0  0
    7.0720   -6.8874    0.0000 O   0  0  0  0  0  0  0  0  0  0  0  0
    6.8189    6.3874    0.0000 N   0  0  0  0  0  0  0  0  0  0  0  0
    5.3086   -4.4604    0.0000 N   0  0  0  0  0  0  0  0  0  0  0  0
    5.4897   -6.1830    0.0000 N   0  0  0  0  0  0  0  0  0  0  0  0
    6.8189    5.3874    0.0000 C   0  0  2  0  0  0  0  0  0  0  0  0
    5.9529    4.8874    0.0000 C   0  0  0  0  0  0  0  0  0  0  0  0
    7.6849    4.8874    0.0000 C   0  0  2  0  0  0  0  0  0  0  0  0
    7.6849    3.8874    0.0000 C   0  0  2  0  0  0  0  0  0  0  0  0
    6.8189    3.3874    0.0000 C   0  0  2  0  0  0  0  0  0  0  0  0
    4.9529    4.8874    0.0000 C   0  0  0  0  0  0  0  0  0  0  0  0
    5.4529    5.7535    0.0000 C   0  0  0  0  0  0  0  0  0  0  0  0
    4.2208   -2.1126    0.0000 C   0  0  1  0  0  0  0  0  0  0  0  0
    3.4118   -2.7003    0.0000 C   0  0  2  0  0  0  0  0  0  0  0  0
    7.6849    6.8874    0.0000 C   0  0  0  0  0  0  0  0  0  0  0  0
    5.9529    6.8874    0.0000 C   0  0  0  0  0  0  0  0  0  0  0  0
    3.7208   -3.6514    0.0000 C   0  0  0  0  0  0  0  0  0  0  0  0
    4.7208   -3.6514    0.0000 C   0  0  1  0  0  0  0  0  0  0  0  0
    4.2208   -1.1126    0.0000 C   0  0  0  0  0  0  0  0  0  0  0  0
    6.3031   -4.3559    0.0000 C   0  0  0  0  0  0  0  0  0  0  0  0
    4.9019   -5.3740    0.0000 C   0  0  0  0  0  0  0  0  0  0  0  0
    6.8909   -5.1649    0.0000 C   0  0  0  0  0  0  0  0  0  0  0  0
    6.4842   -6.0784    0.0000 C   0  0  0  0  0  0  0  0  0  0  0  0
    7.8854   -5.0604    0.0000 C   0  0  0  0  0  0  0  0  0  0  0  0
    7.3558    5.6974    0.0000 H   0  0  0  0  0  0  0  0  0  0  0  0
    8.2219    4.5775    0.0000 H   0  0  0  0  0  0  0  0  0  0  0  0
    8.2219    4.1974    0.0000 H   0  0  0  0  0  0  0  0  0  0  0  0
    7.3558    3.0775    0.0000 H   0  0  0  0  0  0  0  0  0  0  0  0
    4.9529    5.5075    0.0000 H   0  0  0  0  0  0  0  0  0  0  0  0
    4.3329    4.8874    0.0000 H   0  0  0  0  0  0  0  0  0  0  0  0
    4.9529    4.2675    0.0000 H   0  0  0  0  0  0  0  0  0  0  0  0
    5.9898    6.0635    0.0000 H   0  0  0  0  0  0  0  0  0  0  0  0
    5.1429    6.2904    0.0000 H   0  0  0  0  0  0  0  0  0  0  0  0
    4.9159    5.4435    0.0000 H   0  0  0  0  0  0  0  0  0  0  0  0
    4.7732   -1.8311    0.0000 H   0  0  0  0  0  0  0  0  0  0  0  0
    2.9734   -3.1387    0.0000 H   0  0  0  0  0  0  0  0  0  0  0  0
    9.0879    5.0775    0.0000 H   0  0  0  0  0  0  0  0  0  0  0  0
    7.9949    6.3505    0.0000 H   0  0  0  0  0  0  0  0  0  0  0  0
    8.2219    7.1974    0.0000 H   0  0  0  0  0  0  0  0  0  0  0  0
    7.3749    7.4244    0.0000 H   0  0  0  0  0  0  0  0  0  0  0  0
    6.2629    7.4244    0.0000 H   0  0  0  0  0  0  0  0  0  0  0  0
    5.4159    7.1974    0.0000 H   0  0  0  0  0  0  0  0  0  0  0  0
    5.6429    6.3505    0.0000 H   0  0  0  0  0  0  0  0  0  0  0  0
    3.1144   -3.7803    0.0000 H   0  0  0  0  0  0  0  0  0  0  0  0
    3.7856   -4.2680    0.0000 H   0  0  0  0  0  0  0  0  0  0  0  0
    4.4394   -4.2038    0.0000 H   0  0  0  0  0  0  0  0  0  0  0  0
    8.5510    2.7675    0.0000 H   0  0  0  0  0  0  0  0  0  0  0  0
    4.0088   -0.5299    0.0000 H   0  0  0  0  0  0  0  0  0  0  0  0
    3.6102   -1.2202    0.0000 H   0  0  0  0  0  0  0  0  0  0  0  0
    2.0000   -2.8062    0.0000 H   0  0  0  0  0  0  0  0  0  0  0  0
    6.5553   -3.7895    0.0000 H   0  0  0  0  0  0  0  0  0  0  0  0
    7.0729    1.0214    0.0000 H   0  0  0  0  0  0  0  0  0  0  0  0
    5.2375   -6.7494    0.0000 H   0  0  0  0  0  0  0  0  0  0  0  0
    7.9502   -5.6770    0.0000 H   0  0  0  0  0  0  0  0  0  0  0  0
    8.5020   -4.9956    0.0000 H   0  0  0  0  0  0  0  0  0  0  0  0
    7.8206   -4.4438    0.0000 H   0  0  0  0  0  0  0  0  0  0  0  0
    3.7768    0.9244    0.0000 H   0  0  0  0  0  0  0  0  0  0  0  0
  1  5  1  0  0  0  0
  1 10  1  0  0  0  0
  1 11  1  0  0  0  0
  1 12  2  0  0  0  0
  2  9  1  0  0  0  0
  2 10  1  0  0  0  0
  2 13  1  0  0  0  0
  2 14  2  0  0  0  0
  3 21  1  0  0  0  0
  3 24  1  0  0  0  0
 22  4  1  1  0  0  0
  4 51  1  0  0  0  0
 24  5  1  1  0  0  0
 23  6  1  1  0  0  0
  6 61  1  0  0  0  0
  7 27  1  0  0  0  0
  7 32  1  0  0  0  0
 28  8  1  6  0  0  0
  8 64  1  0  0  0  0
  9 33  1  0  0  0  0
 11 66  1  0  0  0  0
 13 71  1  0  0  0  0
 15 35  2  0  0  0  0
 16 37  2  0  0  0  0
 20 17  1  1  0  0  0
 17 29  1  0  0  0  0
 17 30  1  0  0  0  0
 32 18  1  1  0  0  0
 18 34  1  0  0  0  0
 18 35  1  0  0  0  0
 19 35  1  0  0  0  0
 19 37  1  0  0  0  0
 19 67  1  0  0  0  0
 20 21  1  0  0  0  0
 20 22  1  0  0  0  0
 20 39  1  0  0  0  0
 21 25  1  0  0  0  0
 21 26  1  0  0  0  0
 22 23  1  0  0  0  0
 22 40  1  0  0  0  0
 23 24  1  0  0  0  0
 23 41  1  0  0  0  0
 24 42  1  0  0  0  0
 25 43  1  0  0  0  0
 25 44  1  0  0  0  0
 25 45  1  0  0  0  0
 26 46  1  0  0  0  0
 26 47  1  0  0  0  0
 26 48  1  0  0  0  0
 27 28  1  0  0  0  0
 27 33  1  1  0  0  0
 27 49  1  0  0  0  0
 28 31  1  0  0  0  0
 28 50  1  0  0  0  0
 29 52  1  0  0  0  0
 29 53  1  0  0  0  0
 29 54  1  0  0  0  0
 30 55  1  0  0  0  0
 30 56  1  0  0  0  0
 30 57  1  0  0  0  0
 31 32  1  0  0  0  0
 31 58  1  0  0  0  0
 31 59  1  0  0  0  0
 32 60  1  0  0  0  0
 33 62  1  0  0  0  0
 33 63  1  0  0  0  0
 34 36  2  0  0  0  0
 34 65  1  0  0  0  0
 36 37  1  0  0  0  0
 36 38  1  0  0  0  0
 38 68  1  0  0  0  0
 38 69  1  0  0  0  0
 38 70  1  0  0  0  0
M  END
> <PUBCHEM_COMPOUND_CID>
443208

> <PUBCHEM_COMPOUND_CANONICALIZED>
1

> <PUBCHEM_CACTVS_COMPLEXITY>
1050

> <PUBCHEM_CACTVS_HBOND_ACCEPTOR>
15

> <PUBCHEM_CACTVS_HBOND_DONOR>
6

> <PUBCHEM_CACTVS_ROTATABLE_BOND>
9

> <PUBCHEM_CACTVS_SUBSKEYS>
AAADcfB7PAMAAAAAAAAAAAAAAAAAASAAAAAkQAAAAAAAAAAAAAAAHgAQCCAADHzxgAcDCAPABxCIQgFWUICAAAAAAAAAAAEIAECTEAIAgQAPQAAPByIXAMHwcBYMAAAAAAAAAAAAAAAAAAAAAAAAAAAAAA==

> <PUBCHEM_IUPAC_OPENEYE_NAME>
[(2R,3R,4R,5S)-5-(dimethylamino)-3,4-dihydroxy-6,6-dimethyl-tetrahydropyran-2-yl] [hydroxy-[[(2R,3S,5R)-3-hydroxy-5-(5-methyl-2,4-dioxo-pyrimidin-1-yl)tetrahydrofuran-2-yl]methoxy]phosphoryl] hydrogen phosphate

> <PUBCHEM_IUPAC_CAS_NAME>
[(2R,3R,4R,5S)-5-(dimethylamino)-3,4-dihydroxy-6,6-dimethyl-2-oxanyl] [hydroxy-[[(2R,3S,5R)-3-hydroxy-5-(5-methyl-2,4-dioxo-1-pyrimidinyl)-2-oxolanyl]methoxy]phosphoryl] hydrogen phosphate

> <PUBCHEM_IUPAC_NAME>
[(2R,3R,4R,5S)-5-(dimethylamino)-3,4-dihydroxy-6,6-dimethyloxan-2-yl] [hydroxy-[[(2R,3S,5R)-3-hydroxy-5-(5-methyl-2,4-dioxopyrimidin-1-yl)oxolan-2-yl]methoxy]phosphoryl] hydrogen phosphate

> <PUBCHEM_IUPAC_SYSTEMATIC_NAME>
[(2R,3R,4R,5S)-5-(dimethylamino)-6,6-dimethyl-3,4-bis(oxidanyl)oxan-2-yl] [[(2R,3S,5R)-5-[5-methyl-2,4-bis(oxidanylidene)pyrimidin-1-yl]-3-oxidanyl-oxolan-2-yl]methoxy-oxidanyl-phosphoryl] hydrogen phosphate

> <PUBCHEM_IUPAC_TRADITIONAL_NAME>
[[(2R,3S,5R)-5-(2,4-diketo-5-methyl-pyrimidin-1-yl)-3-hydroxy-tetrahydrofuran-2-yl]methoxy-hydroxy-phosphoryl] [(2R,3R,4R,5S)-5-(dimethylamino)-3,4-dihydroxy-6,6-dimethyl-tetrahydropyran-2-yl] hydrogen phosphate

> <PUBCHEM_IUPAC_INCHI>
InChI=1S/C19H33N3O14P2/c1-9-7-22(18(27)20-16(9)26)12-6-10(23)11(33-12)8-32-37(28,29)36-38(30,31)35-17-14(25)13(24)15(21(4)5)19(2,3)34-17/h7,10-15,17,23-25H,6,8H2,1-5H3,(H,28,29)(H,30,31)(H,20,26,27)/t10-,11+,12+,13-,14+,15-,17+/m0/s1

> <PUBCHEM_IUPAC_INCHIKEY>
DDUMLXJZKNWOPY-PBMWHTRASA-N

> <PUBCHEM_XLOGP3_AA>
-6.2

> <PUBCHEM_EXACT_MASS>
589.143776

> <PUBCHEM_MOLECULAR_FORMULA>
C19H33N3O14P2

> <PUBCHEM_MOLECULAR_WEIGHT>
589.424544

> <PUBCHEM_OPENEYE_CAN_SMILES>
CC1=CN(C(=O)NC1=O)C2CC(C(O2)COP(=O)(O)OP(=O)(O)OC3C(C(C(C(O3)(C)C)N(C)C)O)O)O

> <PUBCHEM_OPENEYE_ISO_SMILES>
CC1=CN(C(=O)NC1=O)[C@H]2C[C@@H]([C@H](O2)COP(=O)(O)OP(=O)(O)O[C@@H]3[C@@H]([C@@H]([C@@H](C(O3)(C)C)N(C)C)O)O)O

> <PUBCHEM_CACTVS_TPSA>
234

> <PUBCHEM_MONOISOTOPIC_WEIGHT>
589.143776

> <PUBCHEM_TOTAL_CHARGE>
0

> <PUBCHEM_HEAVY_ATOM_COUNT>
38

> <PUBCHEM_ATOM_DEF_STEREO_COUNT>
7

> <PUBCHEM_ATOM_UDEF_STEREO_COUNT>
0

> <PUBCHEM_BOND_DEF_STEREO_COUNT>
0

> <PUBCHEM_BOND_UDEF_STEREO_COUNT>
0

> <PUBCHEM_ISOTOPIC_ATOM_COUNT>
0

> <PUBCHEM_COMPONENT_COUNT>
1

> <PUBCHEM_CACTVS_TAUTO_COUNT>
3

> <PUBCHEM_COORDINATE_TYPE>
1
5
255

> <PUBCHEM_BONDANNOTATIONS>
20  17  5
32  18  5
18  34  8
18  35  8
19  35  8
19  37  8
27  33  5
34  36  8
36  37  8
22  4  5
24  5  5
23  6  5
28  8  6

$$$$

