51710
  -OEChem-07051213023D

 49 52  0     0  0  0  0  0  0999 V2000
    4.8991   -0.7536   -0.5006 S   0  0  0  0  0  0  0  0  0  0  0  0
   -4.3178    2.3439    1.7290 O   0  0  0  0  0  0  0  0  0  0  0  0
   -4.8546    3.0004   -0.5267 O   0  0  0  0  0  0  0  0  0  0  0  0
   -1.6604   -2.8774   -2.0513 O   0  0  0  0  0  0  0  0  0  0  0  0
    2.5160   -2.7128   -0.0275 N   0  0  0  0  0  0  0  0  0  0  0  0
    0.3990   -2.7875   -1.0133 N   0  0  0  0  0  0  0  0  0  0  0  0
    0.6128   -2.2832    1.2742 N   0  0  0  0  0  0  0  0  0  0  0  0
    3.7541    3.6861   -0.7789 N   0  0  0  0  0  0  0  0  0  0  0  0
    5.4390    2.6277    0.2076 N   0  0  0  0  0  0  0  0  0  0  0  0
   -3.0750   -2.2321    0.3534 C   0  0  0  0  0  0  0  0  0  0  0  0
   -3.5562   -0.8322    0.0801 C   0  0  0  0  0  0  0  0  0  0  0  0
   -1.5893   -2.3566    0.2671 C   0  0  0  0  0  0  0  0  0  0  0  0
   -3.6833    0.0620    1.1373 C   0  0  0  0  0  0  0  0  0  0  0  0
   -4.1280    1.3333    0.8375 C   0  0  0  0  0  0  0  0  0  0  0  0
   -4.4346    1.7083   -0.4506 C   0  0  0  0  0  0  0  0  0  0  0  0
   -3.8654   -0.4613   -1.2336 C   0  0  0  0  0  0  0  0  0  0  0  0
    3.4318   -2.5314    1.0564 C   0  0  0  0  0  0  0  0  0  0  0  0
   -4.3136    0.8327   -1.5099 C   0  0  0  0  0  0  0  0  0  0  0  0
   -0.9805   -2.6974   -1.0461 C   0  0  0  0  0  0  0  0  0  0  0  0
    1.1614   -2.5815    0.1293 C   0  0  0  0  0  0  0  0  0  0  0  0
    4.8387   -2.2366    0.5514 C   0  0  0  0  0  0  0  0  0  0  0  0
   -0.7541   -2.1807    1.3019 C   0  0  0  0  0  0  0  0  0  0  0  0
    4.3834    0.4607    0.7338 C   0  0  0  0  0  0  0  0  0  0  0  0
    4.3311    1.8383    0.1588 C   0  0  0  0  0  0  0  0  0  0  0  0
   -4.7776    3.3972    0.8577 C   0  0  0  0  0  0  0  0  0  0  0  0
    3.2738    2.4527   -0.4394 C   0  0  0  0  0  0  0  0  0  0  0  0
    1.8925    2.0360   -0.7268 C   0  0  0  0  0  0  0  0  0  0  0  0
    5.0577    3.7449   -0.3708 C   0  0  0  0  0  0  0  0  0  0  0  0
   -3.5673   -2.9393   -0.3269 H   0  0  0  0  0  0  0  0  0  0  0  0
   -3.4179   -2.5411    1.3508 H   0  0  0  0  0  0  0  0  0  0  0  0
   -3.4458   -0.2183    2.1575 H   0  0  0  0  0  0  0  0  0  0  0  0
   -3.7694   -1.1704   -2.0509 H   0  0  0  0  0  0  0  0  0  0  0  0
    3.0990   -1.7561    1.7533 H   0  0  0  0  0  0  0  0  0  0  0  0
    3.4663   -3.4589    1.6410 H   0  0  0  0  0  0  0  0  0  0  0  0
   -4.5580    1.1315   -2.5229 H   0  0  0  0  0  0  0  0  0  0  0  0
    5.2045   -3.0769   -0.0490 H   0  0  0  0  0  0  0  0  0  0  0  0
    5.5304   -2.1125    1.3910 H   0  0  0  0  0  0  0  0  0  0  0  0
    2.8902   -2.9719   -0.9356 H   0  0  0  0  0  0  0  0  0  0  0  0
   -1.1597   -1.9311    2.2780 H   0  0  0  0  0  0  0  0  0  0  0  0
    0.8816   -3.0173   -1.8770 H   0  0  0  0  0  0  0  0  0  0  0  0
    5.0856    0.4430    1.5741 H   0  0  0  0  0  0  0  0  0  0  0  0
    3.3892    0.2199    1.1191 H   0  0  0  0  0  0  0  0  0  0  0  0
   -4.0904    4.2469    0.9415 H   0  0  0  0  0  0  0  0  0  0  0  0
   -5.7732    3.7159    1.1874 H   0  0  0  0  0  0  0  0  0  0  0  0
    3.2421    4.4230   -1.2455 H   0  0  0  0  0  0  0  0  0  0  0  0
    1.8571    0.9876   -1.0403 H   0  0  0  0  0  0  0  0  0  0  0  0
    1.2680    2.1445    0.1657 H   0  0  0  0  0  0  0  0  0  0  0  0
    1.4479    2.6359   -1.5276 H   0  0  0  0  0  0  0  0  0  0  0  0
    5.6681    4.6235   -0.5234 H   0  0  0  0  0  0  0  0  0  0  0  0
  1 21  1  0  0  0  0
  1 23  1  0  0  0  0
  2 14  1  0  0  0  0
  2 25  1  0  0  0  0
  3 15  1  0  0  0  0
  3 25  1  0  0  0  0
  4 19  2  0  0  0  0
  5 17  1  0  0  0  0
  5 20  1  0  0  0  0
  5 38  1  0  0  0  0
  6 19  1  0  0  0  0
  6 20  1  0  0  0  0
  6 40  1  0  0  0  0
  7 20  2  0  0  0  0
  7 22  1  0  0  0  0
  8 26  1  0  0  0  0
  8 28  1  0  0  0  0
  8 45  1  0  0  0  0
  9 24  1  0  0  0  0
  9 28  2  0  0  0  0
 10 11  1  0  0  0  0
 10 12  1  0  0  0  0
 10 29  1  0  0  0  0
 10 30  1  0  0  0  0
 11 13  2  0  0  0  0
 11 16  1  0  0  0  0
 12 19  1  0  0  0  0
 12 22  2  0  0  0  0
 13 14  1  0  0  0  0
 13 31  1  0  0  0  0
 14 15  2  0  0  0  0
 15 18  1  0  0  0  0
 16 18  2  0  0  0  0
 16 32  1  0  0  0  0
 17 21  1  0  0  0  0
 17 33  1  0  0  0  0
 17 34  1  0  0  0  0
 18 35  1  0  0  0  0
 21 36  1  0  0  0  0
 21 37  1  0  0  0  0
 22 39  1  0  0  0  0
 23 24  1  0  0  0  0
 23 41  1  0  0  0  0
 23 42  1  0  0  0  0
 24 26  2  0  0  0  0
 25 43  1  0  0  0  0
 25 44  1  0  0  0  0
 26 27  1  0  0  0  0
 27 46  1  0  0  0  0
 27 47  1  0  0  0  0
 27 48  1  0  0  0  0
 28 49  1  0  0  0  0
M  END
> <PUBCHEM_COMPOUND_CID>
51710

> <PUBCHEM_CONFORMER_RMSD>
1.2

> <PUBCHEM_CONFORMER_DIVERSEORDER>
7
241
98
266
88
158
237
69
194
135
143
265
232
192
180
64
233
248
89
104
10
256
251
243
82
272
94
164
112
275
35
68
195
190
48
141
70
209
224
261
113
252
55
134
179
121
23
273
21
109
128
227
4
142
119
259
26
203
47
178
52
153
111
260
258
38
45
235
62
152
39
269
171
247
50
276
127
53
215
200
42
29
172
167
57
67
5
234
44
54
242
282
86
149
139
163
106
249
15
271
83
154
173
97
13
231
65
211
281
161
168
103
59
8
268
138
284
223
188
145
255
202
264
43
267
120
117
210
191
240
96
250
16
66
257
236
133
18
193
219
214
244
17
14
93
253
150
279
75
19
170
136
175
108
274
72
198
159
31
221
32
22
33
137
95
185
218
246
229
40
77
225
278
183
162
208
6
100
130
20
12
78
222
90
99
81
27
102
105
199
79
3
73
184
87
28
182
129
60
277
176
206
160
24
187
230
177
147
2
1
91
76
238
101
157
216
196
226
74
132
80
9
140
228
220
270
36
114
58
212
41
169
174
165
207
148
71
144
61
63
46
262
146
37
115
239
125
155
213
92
25
201
283
280
34
156
126
49
204
118
30
11
122
85
51
116
110
124
205
123
254
166
263
131
217
181
107
245
189
197
56
186
151
84

> <PUBCHEM_MMFF94_PARTIAL_CHARGES>
36
1 -0.46
10 0.28
11 -0.14
12 -0.12
13 -0.15
14 0.08
15 0.08
16 -0.15
17 0.37
18 -0.15
19 0.62
2 -0.36
20 0.56
21 0.23
22 0.02
23 0.41
24 0.05
25 0.56
26 -0.33
27 0.18
28 0.04
3 -0.36
31 0.15
32 0.15
35 0.15
38 0.4
39 0.15
4 -0.57
40 0.37
45 0.27
49 0.15
5 -0.82
6 -0.49
7 -0.62
8 0.03
9 -0.57

> <PUBCHEM_EFFECTIVE_ROTOR_COUNT>
8.6

> <PUBCHEM_PHARMACOPHORE_FEATURES>
11
1 2 acceptor
1 3 acceptor
1 4 acceptor
1 5 donor
1 6 donor
1 8 donor
3 8 9 28 cation
5 2 3 14 15 25 rings
5 8 9 24 26 28 rings
6 11 13 14 15 16 18 rings
6 6 7 12 19 20 22 rings

> <PUBCHEM_HEAVY_ATOM_COUNT>
28

> <PUBCHEM_ATOM_DEF_STEREO_COUNT>
0

> <PUBCHEM_ATOM_UDEF_STEREO_COUNT>
0

> <PUBCHEM_BOND_DEF_STEREO_COUNT>
0

> <PUBCHEM_BOND_UDEF_STEREO_COUNT>
0

> <PUBCHEM_ISOTOPIC_ATOM_COUNT>
0

> <PUBCHEM_COMPONENT_COUNT>
1

> <PUBCHEM_CACTVS_TAUTO_COUNT>
12

> <PUBCHEM_CONFORMER_ID>
0000C9FE00000007

> <PUBCHEM_MMFF94_ENERGY>
51.3493

> <PUBCHEM_FEATURE_SELFOVERLAP>
56.017

> <PUBCHEM_SHAPE_FINGERPRINT>
100830 2 18339071601932445136
11059048 146 17911225132138077020
11101153 10 18410858720778960055
12422481 6 17987820565414144424
12925494 130 18342176700278525801
14251764 38 18410571768953614158
14251764 75 18409158892312491632
14429114 114 18193278494803703104
14674994 50 14138279921046034620
14848178 96 18411987953136955602
15001296 14 18413109484767133336
15475509 84 17195179553306355418
16112460 7 18412830170871089772
16991981 162 17969224421610026983
19302320 297 18049716622784573073
21223535 225 18263081034028031796
21475661 188 18342739654163086530
22122407 14 18342172288793420130
245318 6 18271513230575186452
2838139 119 18337957890862784839
3146121 3 18409162217956887969
325973 47 18410575132066858280
338550 245 18343579625681579092
3388396 114 18191884331118317997
4144715 1 18271514356310948226
4487111 67 17690279309718511128
550186 83 17489599982528016768

> <PUBCHEM_SHAPE_MULTIPOLES>
537.56
13.84
5.73
1.39
3.67
2.24
-0.13
12.78
0.71
3.01
-0.23
-1.28
-0.36
-1.99

> <PUBCHEM_SHAPE_SELFOVERLAP>
1151.338

> <PUBCHEM_SHAPE_VOLUME>
303.4

> <PUBCHEM_COORDINATE_TYPE>
2
5
10

$$$$

