11907
  -OEChem-06261206163D

 14 14  0     0  0  0  0  0  0999 V2000
    0.5935   -2.1071    0.0001 O   0  0  0  0  0  0  0  0  0  0  0  0
    3.0502    0.5110   -0.0001 N   0  0  0  0  0  0  0  0  0  0  0  0
   -0.1438   -0.9599    0.0000 C   0  0  0  0  0  0  0  0  0  0  0  0
    0.4686    0.2934    0.0001 C   0  0  0  0  0  0  0  0  0  0  0  0
   -1.5355   -1.0561   -0.0001 C   0  0  0  0  0  0  0  0  0  0  0  0
   -0.3107    1.4504    0.0001 C   0  0  0  0  0  0  0  0  0  0  0  0
   -2.3147    0.1008   -0.0001 C   0  0  0  0  0  0  0  0  0  0  0  0
   -1.7023    1.3540    0.0000 C   0  0  0  0  0  0  0  0  0  0  0  0
    1.8945    0.4136    0.0000 C   0  0  0  0  0  0  0  0  0  0  0  0
   -2.0268   -2.0254   -0.0001 H   0  0  0  0  0  0  0  0  0  0  0  0
    0.1508    2.4351    0.0002 H   0  0  0  0  0  0  0  0  0  0  0  0
   -3.3982    0.0260   -0.0002 H   0  0  0  0  0  0  0  0  0  0  0  0
   -2.3091    2.2548    0.0001 H   0  0  0  0  0  0  0  0  0  0  0  0
   -0.0070   -2.8721    0.0001 H   0  0  0  0  0  0  0  0  0  0  0  0
  1  3  1  0  0  0  0
  1 14  1  0  0  0  0
  2  9  3  0  0  0  0
  3  4  1  0  0  0  0
  3  5  2  0  0  0  0
  4  6  2  0  0  0  0
  4  9  1  0  0  0  0
  5  7  1  0  0  0  0
  5 10  1  0  0  0  0
  6  8  1  0  0  0  0
  6 11  1  0  0  0  0
  7  8  2  0  0  0  0
  7 12  1  0  0  0  0
  8 13  1  0  0  0  0
M  END
> <PUBCHEM_COMPOUND_CID>
11907

> <PUBCHEM_CONFORMER_RMSD>
0.4

> <PUBCHEM_CONFORMER_DIVERSEORDER>
1

> <PUBCHEM_MMFF94_PARTIAL_CHARGES>
14
1 -0.53
10 0.15
11 0.15
12 0.15
13 0.15
14 0.45
2 -0.56
3 0.08
4 0.07
5 -0.15
6 -0.15
7 -0.15
8 -0.15
9 0.48

> <PUBCHEM_EFFECTIVE_ROTOR_COUNT>
0

> <PUBCHEM_PHARMACOPHORE_FEATURES>
3
1 1 donor
1 2 acceptor
6 3 4 5 6 7 8 rings

> <PUBCHEM_HEAVY_ATOM_COUNT>
9

> <PUBCHEM_ATOM_DEF_STEREO_COUNT>
0

> <PUBCHEM_ATOM_UDEF_STEREO_COUNT>
0

> <PUBCHEM_BOND_DEF_STEREO_COUNT>
0

> <PUBCHEM_BOND_UDEF_STEREO_COUNT>
0

> <PUBCHEM_ISOTOPIC_ATOM_COUNT>
0

> <PUBCHEM_COMPONENT_COUNT>
1

> <PUBCHEM_CACTVS_TAUTO_COUNT>
3

> <PUBCHEM_CONFORMER_ID>
00002E8300000001

> <PUBCHEM_MMFF94_ENERGY>
17.3839

> <PUBCHEM_FEATURE_SELFOVERLAP>
15.223

> <PUBCHEM_SHAPE_FINGERPRINT>
13024252 1 13326585041883894412
14325111 11 18410855473382543168
16714656 1 18411136892192252684
16945 1 18410856559845647813
20645464 45 17896050862288446368
20871998 184 18044649794057351790
21040471 1 18410574036749230369
23235685 24 18412268345729315781
23402655 69 18193295172815919573
23552423 10 18270959171325250134
2748010 2 18195523925006386181
369184 2 18187367597311721744
5084963 1 18113899303869243225

> <PUBCHEM_SHAPE_MULTIPOLES>
174.37
3.16
1.73
0.6
1.61
0.49
0
-0.66
0
-0.25
0
-0.04
-0.02
0

> <PUBCHEM_SHAPE_SELFOVERLAP>
366.028

> <PUBCHEM_SHAPE_VOLUME>
96.7

> <PUBCHEM_COORDINATE_TYPE>
2
5
10

$$$$

