12800
  -OEChem-06261207233D

 32 34  0     0  0  0  0  0  0999 V2000
   -1.2738    0.6013    0.0000 C   0  0  0  0  0  0  0  0  0  0  0  0
    1.2737    0.6013   -0.0001 C   0  0  0  0  0  0  0  0  0  0  0  0
    0.0001   -1.1895   -1.2590 C   0  0  0  0  0  0  0  0  0  0  0  0
    0.0001   -1.1895    1.2590 C   0  0  0  0  0  0  0  0  0  0  0  0
    0.0000    1.4796    0.0002 C   0  0  0  0  0  0  0  0  0  0  0  0
   -1.2539   -0.2995   -1.2565 C   0  0  0  0  0  0  0  0  0  0  0  0
   -1.2539   -0.2998    1.2563 C   0  0  0  0  0  0  0  0  0  0  0  0
    1.2538   -0.2995   -1.2565 C   0  0  0  0  0  0  0  0  0  0  0  0
    1.2539   -0.2996    1.2564 C   0  0  0  0  0  0  0  0  0  0  0  0
    0.0000   -2.0707    0.0001 C   0  0  0  0  0  0  0  0  0  0  0  0
   -2.5258    1.4830    0.0001 C   0  0  0  0  0  0  0  0  0  0  0  0
    2.5257    1.4831    0.0001 C   0  0  0  0  0  0  0  0  0  0  0  0
    0.0000   -1.8235   -2.1527 H   0  0  0  0  0  0  0  0  0  0  0  0
    0.0001   -1.8235    2.1528 H   0  0  0  0  0  0  0  0  0  0  0  0
    0.0000    2.1373   -0.8795 H   0  0  0  0  0  0  0  0  0  0  0  0
    0.0001    2.1369    0.8802 H   0  0  0  0  0  0  0  0  0  0  0  0
   -1.2710    0.3159   -2.1653 H   0  0  0  0  0  0  0  0  0  0  0  0
   -2.1523   -0.9294   -1.2861 H   0  0  0  0  0  0  0  0  0  0  0  0
   -2.1524   -0.9297    1.2857 H   0  0  0  0  0  0  0  0  0  0  0  0
   -1.2714    0.3155    2.1652 H   0  0  0  0  0  0  0  0  0  0  0  0
    2.1524   -0.9294   -1.2861 H   0  0  0  0  0  0  0  0  0  0  0  0
    1.2710    0.3158   -2.1653 H   0  0  0  0  0  0  0  0  0  0  0  0
    1.2712    0.3156    2.1652 H   0  0  0  0  0  0  0  0  0  0  0  0
    2.1525   -0.9295    1.2858 H   0  0  0  0  0  0  0  0  0  0  0  0
   -0.8809   -2.7243    0.0000 H   0  0  0  0  0  0  0  0  0  0  0  0
    0.8810   -2.7243    0.0000 H   0  0  0  0  0  0  0  0  0  0  0  0
   -3.4373    0.8751   -0.0001 H   0  0  0  0  0  0  0  0  0  0  0  0
   -2.5548    2.1281    0.8851 H   0  0  0  0  0  0  0  0  0  0  0  0
   -2.5547    2.1284   -0.8847 H   0  0  0  0  0  0  0  0  0  0  0  0
    2.5547    2.1284   -0.8848 H   0  0  0  0  0  0  0  0  0  0  0  0
    2.5546    2.1282    0.8851 H   0  0  0  0  0  0  0  0  0  0  0  0
    3.4372    0.8751    0.0000 H   0  0  0  0  0  0  0  0  0  0  0  0
  1  5  1  0  0  0  0
  1  6  1  0  0  0  0
  1  7  1  0  0  0  0
  1 11  1  0  0  0  0
  2  5  1  0  0  0  0
  2  8  1  0  0  0  0
  2  9  1  0  0  0  0
  2 12  1  0  0  0  0
  3  6  1  0  0  0  0
  3  8  1  0  0  0  0
  3 10  1  0  0  0  0
  3 13  1  0  0  0  0
  4  7  1  0  0  0  0
  4  9  1  0  0  0  0
  4 10  1  0  0  0  0
  4 14  1  0  0  0  0
  5 15  1  0  0  0  0
  5 16  1  0  0  0  0
  6 17  1  0  0  0  0
  6 18  1  0  0  0  0
  7 19  1  0  0  0  0
  7 20  1  0  0  0  0
  8 21  1  0  0  0  0
  8 22  1  0  0  0  0
  9 23  1  0  0  0  0
  9 24  1  0  0  0  0
 10 25  1  0  0  0  0
 10 26  1  0  0  0  0
 11 27  1  0  0  0  0
 11 28  1  0  0  0  0
 11 29  1  0  0  0  0
 12 30  1  0  0  0  0
 12 31  1  0  0  0  0
 12 32  1  0  0  0  0
M  END
> <PUBCHEM_COMPOUND_CID>
12800

> <PUBCHEM_CONFORMER_RMSD>
0.4

> <PUBCHEM_CONFORMER_DIVERSEORDER>
1

> <PUBCHEM_MMFF94_PARTIAL_CHARGES>
0

> <PUBCHEM_EFFECTIVE_ROTOR_COUNT>
1.2

> <PUBCHEM_PHARMACOPHORE_FEATURES>
4
6 1 2 3 5 6 8 rings
6 1 2 4 5 7 9 rings
6 1 3 4 6 7 10 rings
6 2 3 4 8 9 10 rings

> <PUBCHEM_HEAVY_ATOM_COUNT>
12

> <PUBCHEM_ATOM_DEF_STEREO_COUNT>
0

> <PUBCHEM_ATOM_UDEF_STEREO_COUNT>
0

> <PUBCHEM_BOND_DEF_STEREO_COUNT>
0

> <PUBCHEM_BOND_UDEF_STEREO_COUNT>
0

> <PUBCHEM_ISOTOPIC_ATOM_COUNT>
0

> <PUBCHEM_COMPONENT_COUNT>
1

> <PUBCHEM_CACTVS_TAUTO_COUNT>
1

> <PUBCHEM_CONFORMER_ID>
0000320000000001

> <PUBCHEM_MMFF94_ENERGY>
34.3207

> <PUBCHEM_FEATURE_SELFOVERLAP>
32.789

> <PUBCHEM_SHAPE_FINGERPRINT>
10702982 57 18339376183594889352
11129358 1 16240378038989348387
12423570 1 13031021258256218847
12725867 57 17255131562554629461
13024252 1 17128754383379371832
137420 1 15669504983303426558
14817 1 5354282762950196555
15557651 10 18410580586516568352
16945 1 18410575088958046214
19837323 101 18189332372940258020
20653085 51 18187358784134009732
241688 4 16896236716367687521
2748010 2 18339906173826953837
369184 2 17912655600875761240
430814 3 18339372923567317433
5084963 1 17967533471320558431
528886 8 17968096464250208485

> <PUBCHEM_SHAPE_MULTIPOLES>
246.95
2.47
1.85
1.41
0
0.18
0
-1.58
0
0
0
0
0.47
0

> <PUBCHEM_SHAPE_SELFOVERLAP>
532.639

> <PUBCHEM_SHAPE_VOLUME>
128.2

> <PUBCHEM_COORDINATE_TYPE>
2
5
10

$$$$

