122640
  -OEChem-07051213093D

 36 35  0     0  0  0  0  0  0999 V2000
    3.7107   -1.1149   -0.5201 O   0  0  0  0  0  0  0  0  0  0  0  0
    6.0897   -0.9693    0.6578 O   0  0  0  0  0  0  0  0  0  0  0  0
   -1.3997   -0.3163   -0.1388 C   0  0  0  0  0  0  0  0  0  0  0  0
   -2.7159    0.4366    0.0675 C   0  0  0  0  0  0  0  0  0  0  0  0
   -0.1977    0.6209    0.0003 C   0  0  0  0  0  0  0  0  0  0  0  0
   -3.9533   -0.4592   -0.0486 C   0  0  0  0  0  0  0  0  0  0  0  0
    1.1171   -0.1213   -0.2425 C   0  0  0  0  0  0  0  0  0  0  0  0
   -5.2676    0.2909    0.1836 C   0  0  0  0  0  0  0  0  0  0  0  0
    2.3184    0.8056   -0.0712 C   0  0  0  0  0  0  0  0  0  0  0  0
   -6.5054   -0.5928    0.0075 C   0  0  0  0  0  0  0  0  0  0  0  0
   -7.8165    0.1619    0.1657 C   0  0  0  0  0  0  0  0  0  0  0  0
    3.6437    0.0875   -0.2695 C   0  0  0  0  0  0  0  0  0  0  0  0
    4.8816    0.9506   -0.1480 C   0  0  0  0  0  0  0  0  0  0  0  0
    6.0950    0.2199    0.3564 C   0  0  0  0  0  0  0  0  0  0  0  0
   -1.3219   -1.1275    0.5949 H   0  0  0  0  0  0  0  0  0  0  0  0
   -1.3960   -0.7777   -1.1336 H   0  0  0  0  0  0  0  0  0  0  0  0
   -2.7899    1.2461   -0.6694 H   0  0  0  0  0  0  0  0  0  0  0  0
   -2.7097    0.9094    1.0575 H   0  0  0  0  0  0  0  0  0  0  0  0
   -0.1924    1.0622    1.0043 H   0  0  0  0  0  0  0  0  0  0  0  0
   -0.2889    1.4467   -0.7158 H   0  0  0  0  0  0  0  0  0  0  0  0
   -3.8755   -1.2794    0.6757 H   0  0  0  0  0  0  0  0  0  0  0  0
   -3.9696   -0.9172   -1.0452 H   0  0  0  0  0  0  0  0  0  0  0  0
    1.1210   -0.5491   -1.2528 H   0  0  0  0  0  0  0  0  0  0  0  0
    1.1984   -0.9629    0.4568 H   0  0  0  0  0  0  0  0  0  0  0  0
   -5.2685    0.7187    1.1936 H   0  0  0  0  0  0  0  0  0  0  0  0
   -5.3270    1.1330   -0.5171 H   0  0  0  0  0  0  0  0  0  0  0  0
    2.3167    1.2337    0.9375 H   0  0  0  0  0  0  0  0  0  0  0  0
    2.2658    1.6231   -0.7989 H   0  0  0  0  0  0  0  0  0  0  0  0
   -6.4842   -1.0539   -0.9871 H   0  0  0  0  0  0  0  0  0  0  0  0
   -6.4741   -1.4104    0.7375 H   0  0  0  0  0  0  0  0  0  0  0  0
   -7.8986    0.9615   -0.5773 H   0  0  0  0  0  0  0  0  0  0  0  0
   -8.6646   -0.5166    0.0321 H   0  0  0  0  0  0  0  0  0  0  0  0
   -7.8906    0.6095    1.1618 H   0  0  0  0  0  0  0  0  0  0  0  0
    4.6854    1.7652    0.5562 H   0  0  0  0  0  0  0  0  0  0  0  0
    5.1071    1.3750   -1.1303 H   0  0  0  0  0  0  0  0  0  0  0  0
    7.0127    0.8254    0.4460 H   0  0  0  0  0  0  0  0  0  0  0  0
  1 12  2  0  0  0  0
  2 14  2  0  0  0  0
  3  4  1  0  0  0  0
  3  5  1  0  0  0  0
  3 15  1  0  0  0  0
  3 16  1  0  0  0  0
  4  6  1  0  0  0  0
  4 17  1  0  0  0  0
  4 18  1  0  0  0  0
  5  7  1  0  0  0  0
  5 19  1  0  0  0  0
  5 20  1  0  0  0  0
  6  8  1  0  0  0  0
  6 21  1  0  0  0  0
  6 22  1  0  0  0  0
  7  9  1  0  0  0  0
  7 23  1  0  0  0  0
  7 24  1  0  0  0  0
  8 10  1  0  0  0  0
  8 25  1  0  0  0  0
  8 26  1  0  0  0  0
  9 12  1  0  0  0  0
  9 27  1  0  0  0  0
  9 28  1  0  0  0  0
 10 11  1  0  0  0  0
 10 29  1  0  0  0  0
 10 30  1  0  0  0  0
 11 31  1  0  0  0  0
 11 32  1  0  0  0  0
 11 33  1  0  0  0  0
 12 13  1  0  0  0  0
 13 14  1  0  0  0  0
 13 34  1  0  0  0  0
 13 35  1  0  0  0  0
 14 36  1  0  0  0  0
M  END
> <PUBCHEM_COMPOUND_CID>
122640

> <PUBCHEM_CONFORMER_RMSD>
1

> <PUBCHEM_CONFORMER_DIVERSEORDER>
1
408
38
236
39
153
326
399
568
20
295
316
35
339
507
517
599
169
349
31
592
631
5
159
248
3
649
198
67
583
458
258
47
117
17
368
93
161
129
324
322
176
99
589
266
346
246
300
449
549
227
520
45
409
311
150
309
415
4
34
73
63
243
244
269
644
77
628
130
16
14
692
466
234
679
433
426
226
380
210
167
500
496
156
24
528
581
92
197
51
48
9
65
193
461
698
391
58
229
41
538
11
485
137
436
188
400
414
145
641
480
13
71
62
289
23
107
547
164
344
91
371
460
6

> <PUBCHEM_MMFF94_PARTIAL_CHARGES>
7
1 -0.57
12 0.45
13 0.12
14 0.45
2 -0.57
36 0.06
9 0.06

> <PUBCHEM_EFFECTIVE_ROTOR_COUNT>
10

> <PUBCHEM_PHARMACOPHORE_FEATURES>
4
1 1 acceptor
1 11 hydrophobe
1 13 anion
1 2 acceptor

> <PUBCHEM_HEAVY_ATOM_COUNT>
14

> <PUBCHEM_ATOM_DEF_STEREO_COUNT>
0

> <PUBCHEM_ATOM_UDEF_STEREO_COUNT>
0

> <PUBCHEM_BOND_DEF_STEREO_COUNT>
0

> <PUBCHEM_BOND_UDEF_STEREO_COUNT>
0

> <PUBCHEM_ISOTOPIC_ATOM_COUNT>
0

> <PUBCHEM_COMPONENT_COUNT>
1

> <PUBCHEM_CACTVS_TAUTO_COUNT>
5

> <PUBCHEM_CONFORMER_ID>
0001DF1000000001

> <PUBCHEM_MMFF94_ENERGY>
1.3105

> <PUBCHEM_FEATURE_SELFOVERLAP>
20.306

> <PUBCHEM_SHAPE_FINGERPRINT>
10354089 29 16153427246979517288
12091667 2 17489588957736617389
12714333 28 5400801665428481693
13533116 47 6050177592285358204
14123256 10 10087641502753750207
1420 363 17060618897462156801
14251764 18 18334011692396674097
14251764 46 18410856559639802592
14729087 3 16081083814758199833
15048467 5 7060375929217893498
15716309 27 18411138026606872927
17834072 8 11600004353538703618
17834076 25 6699809782691927925
20281389 69 18411702080013981057
20621476 8 16558756741297815541
20645477 70 18262233434684752638
20767249 213 6988319439097330329
21130983 4 5545196142379741442
22224240 67 15791453725311516597
23035841 295 15052014555172740369
23402539 116 18260834778299544797
23521765 1 18335420162607573101
28498 318 18060423546645897031
33532 11 17417817261342242058
33684 2 18410856563940038112
42788 4 18412262830938469309
8209 1 18413107255678651748

> <PUBCHEM_SHAPE_MULTIPOLES>
276.37
20.92
0.94
0.67
15.93
0.04
0.01
1.49
2.45
-0.7
-0.01
-0.21
0.03
-0.2

> <PUBCHEM_SHAPE_SELFOVERLAP>
505.513

> <PUBCHEM_SHAPE_VOLUME>
174.6

> <PUBCHEM_COORDINATE_TYPE>
2
5
10

$$$$

