76230
  -OEChem-07051212503D

 25 26  0     0  0  0  0  0  0999 V2000
    1.7362   -2.3246   -0.3415 O   0  0  0  0  0  0  0  0  0  0  0  0
   -0.4108    3.2453    0.2260 O   0  0  0  0  0  0  0  0  0  0  0  0
   -2.8494   -2.0360   -0.1800 O   0  0  0  0  0  0  0  0  0  0  0  0
   -4.1209   -0.1466    0.0292 O   0  0  0  0  0  0  0  0  0  0  0  0
   -0.6144   -0.7829   -0.1329 N   0  0  0  0  0  0  0  0  0  0  0  0
    0.6559   -0.1935   -0.1172 C   0  0  0  0  0  0  0  0  0  0  0  0
    0.7778    1.2032    0.0062 C   0  0  0  0  0  0  0  0  0  0  0  0
    1.8147   -0.9690   -0.2214 C   0  0  0  0  0  0  0  0  0  0  0  0
   -0.4570    2.0265    0.1173 C   0  0  0  0  0  0  0  0  0  0  0  0
   -1.7480   -0.0216   -0.0311 C   0  0  0  0  0  0  0  0  0  0  0  0
    2.0349    1.8125    0.0252 C   0  0  0  0  0  0  0  0  0  0  0  0
   -1.7642    1.3125    0.0903 C   0  0  0  0  0  0  0  0  0  0  0  0
    3.0715   -0.3611   -0.2027 C   0  0  0  0  0  0  0  0  0  0  0  0
    3.1806    1.0245   -0.0797 C   0  0  0  0  0  0  0  0  0  0  0  0
   -3.0430   -0.7066   -0.0540 C   0  0  0  0  0  0  0  0  0  0  0  0
    1.7362   -3.0824    0.8663 C   0  0  0  0  0  0  0  0  0  0  0  0
   -0.7005   -1.7859   -0.2276 H   0  0  0  0  0  0  0  0  0  0  0  0
    2.1402    2.8893    0.1202 H   0  0  0  0  0  0  0  0  0  0  0  0
   -2.6637    1.9110    0.1710 H   0  0  0  0  0  0  0  0  0  0  0  0
    3.9727   -0.9632   -0.2843 H   0  0  0  0  0  0  0  0  0  0  0  0
    4.1616    1.4908   -0.0658 H   0  0  0  0  0  0  0  0  0  0  0  0
    0.8945   -2.7972    1.5053 H   0  0  0  0  0  0  0  0  0  0  0  0
    2.6792   -2.9432    1.4043 H   0  0  0  0  0  0  0  0  0  0  0  0
    1.6349   -4.1397    0.6070 H   0  0  0  0  0  0  0  0  0  0  0  0
   -3.6956   -2.5319   -0.1991 H   0  0  0  0  0  0  0  0  0  0  0  0
  1  8  1  0  0  0  0
  1 16  1  0  0  0  0
  2  9  2  0  0  0  0
  3 15  1  0  0  0  0
  3 25  1  0  0  0  0
  4 15  2  0  0  0  0
  5  6  1  0  0  0  0
  5 10  1  0  0  0  0
  5 17  1  0  0  0  0
  6  7  2  0  0  0  0
  6  8  1  0  0  0  0
  7  9  1  0  0  0  0
  7 11  1  0  0  0  0
  8 13  2  0  0  0  0
  9 12  1  0  0  0  0
 10 12  2  0  0  0  0
 10 15  1  0  0  0  0
 11 14  2  0  0  0  0
 11 18  1  0  0  0  0
 12 19  1  0  0  0  0
 13 14  1  0  0  0  0
 13 20  1  0  0  0  0
 14 21  1  0  0  0  0
 16 22  1  0  0  0  0
 16 23  1  0  0  0  0
 16 24  1  0  0  0  0
M  END
> <PUBCHEM_COMPOUND_CID>
76230

> <PUBCHEM_CONFORMER_RMSD>
0.6

> <PUBCHEM_CONFORMER_DIVERSEORDER>
1
2

> <PUBCHEM_MMFF94_PARTIAL_CHARGES>
22
1 -0.36
10 0.11
11 -0.15
12 -0.14
13 -0.15
14 -0.15
15 0.71
16 0.28
17 0.4
18 0.15
19 0.15
2 -0.57
20 0.15
21 0.15
25 0.5
3 -0.65
4 -0.57
5 -0.6
6 0.1
7 0.09
8 0.08
9 0.47

> <PUBCHEM_EFFECTIVE_ROTOR_COUNT>
2

> <PUBCHEM_PHARMACOPHORE_FEATURES>
9
1 1 acceptor
1 2 acceptor
1 3 acceptor
1 4 acceptor
1 5 cation
1 5 donor
3 3 4 15 anion
6 5 6 7 9 10 12 rings
6 6 7 8 11 13 14 rings

> <PUBCHEM_HEAVY_ATOM_COUNT>
16

> <PUBCHEM_ATOM_DEF_STEREO_COUNT>
0

> <PUBCHEM_ATOM_UDEF_STEREO_COUNT>
0

> <PUBCHEM_BOND_DEF_STEREO_COUNT>
0

> <PUBCHEM_BOND_UDEF_STEREO_COUNT>
0

> <PUBCHEM_ISOTOPIC_ATOM_COUNT>
0

> <PUBCHEM_COMPONENT_COUNT>
1

> <PUBCHEM_CACTVS_TAUTO_COUNT>
3

> <PUBCHEM_CONFORMER_ID>
000129C600000001

> <PUBCHEM_MMFF94_ENERGY>
58.3165

> <PUBCHEM_FEATURE_SELFOVERLAP>
45.747

> <PUBCHEM_SHAPE_FINGERPRINT>
108231 29 18191018993860240568
10967382 1 18410011013749638623
11132069 177 18337114453706182504
11471102 20 18338239271566135693
11578080 2 17129311037285401414
12553582 1 18410011078385540871
13140716 1 18265900159496238320
14178342 30 18190192178443520611
1420 336 17835518601998074442
14251717 144 18265619771177992855
15442244 35 18050004690345892539
16945 1 18338234993752497308
193761 8 18194119852762993652
20201158 50 18341612594567282715
20559304 39 18339364175088116226
20588541 1 18270398287293088293
20645477 70 18335423474033016823
20711985 365 18123192561136650743
21267235 1 18337098008429516775
21421861 104 18128818723196497458
21501502 16 18193835066419173856
21650355 55 17261332795656975730
23184049 29 18122911094665692978
2334 1 18049721819705264180
23402539 116 18189905219004575868
23419403 2 15820815203910276480
23463225 33 18410292484426302132
23552423 10 18341606074859655476
23559900 14 18193285302395133442
2748010 2 18050562946100603740
2871803 45 18410856568303616454
3312278 4 18410571790549912861
33824 294 18411703145102346099
34934 24 18335991908469426431
352729 6 17687744261011163077
43471831 8 18413111675843551730
589210 1 18194964277798458240
7364860 26 18335702779898222782
81228 2 18198897187883798737
8199 65 18267585706479308414
8809292 202 18272083859919544131

> <PUBCHEM_SHAPE_MULTIPOLES>
300.81
5.17
3.15
0.66
2.87
0.38
0.04
1.45
-0.21
-0.95
0.55
-0.13
0.14
-0.31

> <PUBCHEM_SHAPE_SELFOVERLAP>
655.404

> <PUBCHEM_SHAPE_VOLUME>
162.5

> <PUBCHEM_COORDINATE_TYPE>
2
5
10

$$$$

