5282285
  -OEChem-07051213042D

105104  0     1  0  0  0  0  0999 V2000
   11.5263    1.7500    0.0000 O   0  0  0  0  0  0  0  0  0  0  0  0
    8.9282    1.2500    0.0000 O   0  0  0  0  0  0  0  0  0  0  0  0
   12.3923    0.2500    0.0000 O   0  0  0  0  0  0  0  0  0  0  0  0
    9.7942   -0.2500    0.0000 O   0  0  0  0  0  0  0  0  0  0  0  0
    4.5981   -3.2500    0.0000 C   0  0  0  0  0  0  0  0  0  0  0  0
    4.5981   -4.2500    0.0000 C   0  0  0  0  0  0  0  0  0  0  0  0
    5.4641   -2.7500    0.0000 C   0  0  0  0  0  0  0  0  0  0  0  0
    3.7320   -4.7500    0.0000 C   0  0  0  0  0  0  0  0  0  0  0  0
    5.4641   -1.7500    0.0000 C   0  0  0  0  0  0  0  0  0  0  0  0
    3.7320   -5.7500    0.0000 C   0  0  0  0  0  0  0  0  0  0  0  0
    6.3301   -1.2500    0.0000 C   0  0  0  0  0  0  0  0  0  0  0  0
    2.8660   -6.2500    0.0000 C   0  0  0  0  0  0  0  0  0  0  0  0
    6.3301   -0.2500    0.0000 C   0  0  0  0  0  0  0  0  0  0  0  0
   15.8564    1.2500    0.0000 C   0  0  0  0  0  0  0  0  0  0  0  0
   16.7224    1.7500    0.0000 C   0  0  0  0  0  0  0  0  0  0  0  0
   21.9186    4.7500    0.0000 C   0  0  0  0  0  0  0  0  0  0  0  0
   21.0526    4.2500    0.0000 C   0  0  0  0  0  0  0  0  0  0  0  0
    2.8660   -7.2500    0.0000 C   0  0  0  0  0  0  0  0  0  0  0  0
   14.9904    1.7500    0.0000 C   0  0  0  0  0  0  0  0  0  0  0  0
   17.5885    1.2500    0.0000 C   0  0  0  0  0  0  0  0  0  0  0  0
   21.9186    5.7500    0.0000 C   0  0  0  0  0  0  0  0  0  0  0  0
   21.0526    3.2500    0.0000 C   0  0  0  0  0  0  0  0  0  0  0  0
    7.1962    0.2500    0.0000 C   0  0  0  0  0  0  0  0  0  0  0  0
   14.1244    1.2500    0.0000 C   0  0  0  0  0  0  0  0  0  0  0  0
   22.7846    6.2500    0.0000 C   0  0  0  0  0  0  0  0  0  0  0  0
   18.4545    1.7500    0.0000 C   0  0  0  0  0  0  0  0  0  0  0  0
   20.1865    2.7500    0.0000 C   0  0  0  0  0  0  0  0  0  0  0  0
   13.2583    1.7500    0.0000 C   0  0  0  0  0  0  0  0  0  0  0  0
   22.7846    7.2500    0.0000 C   0  0  0  0  0  0  0  0  0  0  0  0
   19.3205    1.2500    0.0000 C   0  0  0  0  0  0  0  0  0  0  0  0
   20.1865    1.7500    0.0000 C   0  0  0  0  0  0  0  0  0  0  0  0
    2.0000   -7.7500    0.0000 C   0  0  0  0  0  0  0  0  0  0  0  0
    7.1962    1.2500    0.0000 C   0  0  0  0  0  0  0  0  0  0  0  0
   23.6506    7.7500    0.0000 C   0  0  0  0  0  0  0  0  0  0  0  0
   12.3923    1.2500    0.0000 C   0  0  0  0  0  0  0  0  0  0  0  0
   10.6603    1.2500    0.0000 C   0  0  2  0  0  0  0  0  0  0  0  0
    8.0622    1.7500    0.0000 C   0  0  0  0  0  0  0  0  0  0  0  0
    9.7942    1.7500    0.0000 C   0  0  0  0  0  0  0  0  0  0  0  0
   10.6603    0.2500    0.0000 C   0  0  0  0  0  0  0  0  0  0  0  0
    4.3860   -2.6674    0.0000 H   0  0  0  0  0  0  0  0  0  0  0  0
    3.9875   -3.3577    0.0000 H   0  0  0  0  0  0  0  0  0  0  0  0
    4.8101   -4.8326    0.0000 H   0  0  0  0  0  0  0  0  0  0  0  0
    5.2087   -4.1423    0.0000 H   0  0  0  0  0  0  0  0  0  0  0  0
    5.6762   -3.3326    0.0000 H   0  0  0  0  0  0  0  0  0  0  0  0
    6.0747   -2.6423    0.0000 H   0  0  0  0  0  0  0  0  0  0  0  0
    3.5200   -4.1674    0.0000 H   0  0  0  0  0  0  0  0  0  0  0  0
    3.1215   -4.8577    0.0000 H   0  0  0  0  0  0  0  0  0  0  0  0
    5.2520   -1.1674    0.0000 H   0  0  0  0  0  0  0  0  0  0  0  0
    4.8535   -1.8577    0.0000 H   0  0  0  0  0  0  0  0  0  0  0  0
    3.9441   -6.3326    0.0000 H   0  0  0  0  0  0  0  0  0  0  0  0
    4.3426   -5.6423    0.0000 H   0  0  0  0  0  0  0  0  0  0  0  0
    6.5422   -1.8326    0.0000 H   0  0  0  0  0  0  0  0  0  0  0  0
    6.9407   -1.1423    0.0000 H   0  0  0  0  0  0  0  0  0  0  0  0
    2.6540   -5.6674    0.0000 H   0  0  0  0  0  0  0  0  0  0  0  0
    2.2554   -6.3577    0.0000 H   0  0  0  0  0  0  0  0  0  0  0  0
    6.1181    0.3326    0.0000 H   0  0  0  0  0  0  0  0  0  0  0  0
    5.7196   -0.3577    0.0000 H   0  0  0  0  0  0  0  0  0  0  0  0
   15.4579    0.7751    0.0000 H   0  0  0  0  0  0  0  0  0  0  0  0
   16.2549    0.7751    0.0000 H   0  0  0  0  0  0  0  0  0  0  0  0
   17.1210    2.2250    0.0000 H   0  0  0  0  0  0  0  0  0  0  0  0
   16.3239    2.2250    0.0000 H   0  0  0  0  0  0  0  0  0  0  0  0
   22.1306    4.1674    0.0000 H   0  0  0  0  0  0  0  0  0  0  0  0
   22.5292    4.8577    0.0000 H   0  0  0  0  0  0  0  0  0  0  0  0
   20.8405    4.8326    0.0000 H   0  0  0  0  0  0  0  0  0  0  0  0
   20.4420    4.1423    0.0000 H   0  0  0  0  0  0  0  0  0  0  0  0
   15.3889    2.2250    0.0000 H   0  0  0  0  0  0  0  0  0  0  0  0
   14.5919    2.2250    0.0000 H   0  0  0  0  0  0  0  0  0  0  0  0
    3.0781   -7.8326    0.0000 H   0  0  0  0  0  0  0  0  0  0  0  0
    3.4766   -7.1423    0.0000 H   0  0  0  0  0  0  0  0  0  0  0  0
   17.1899    0.7751    0.0000 H   0  0  0  0  0  0  0  0  0  0  0  0
   17.9870    0.7751    0.0000 H   0  0  0  0  0  0  0  0  0  0  0  0
   21.7065    6.3326    0.0000 H   0  0  0  0  0  0  0  0  0  0  0  0
   21.3080    5.6423    0.0000 H   0  0  0  0  0  0  0  0  0  0  0  0
   21.2646    2.6674    0.0000 H   0  0  0  0  0  0  0  0  0  0  0  0
   21.6631    3.3577    0.0000 H   0  0  0  0  0  0  0  0  0  0  0  0
    7.4082   -0.3326    0.0000 H   0  0  0  0  0  0  0  0  0  0  0  0
    7.8067    0.3577    0.0000 H   0  0  0  0  0  0  0  0  0  0  0  0
   13.7258    0.7751    0.0000 H   0  0  0  0  0  0  0  0  0  0  0  0
   14.5229    0.7751    0.0000 H   0  0  0  0  0  0  0  0  0  0  0  0
   22.9967    5.6674    0.0000 H   0  0  0  0  0  0  0  0  0  0  0  0
   23.3952    6.3577    0.0000 H   0  0  0  0  0  0  0  0  0  0  0  0
   18.8530    2.2250    0.0000 H   0  0  0  0  0  0  0  0  0  0  0  0
   18.0560    2.2250    0.0000 H   0  0  0  0  0  0  0  0  0  0  0  0
   19.9745    3.3326    0.0000 H   0  0  0  0  0  0  0  0  0  0  0  0
   19.5760    2.6423    0.0000 H   0  0  0  0  0  0  0  0  0  0  0  0
   13.6569    2.2250    0.0000 H   0  0  0  0  0  0  0  0  0  0  0  0
   12.8598    2.2250    0.0000 H   0  0  0  0  0  0  0  0  0  0  0  0
   22.5726    7.8326    0.0000 H   0  0  0  0  0  0  0  0  0  0  0  0
   22.1740    7.1423    0.0000 H   0  0  0  0  0  0  0  0  0  0  0  0
   19.3205    0.6300    0.0000 H   0  0  0  0  0  0  0  0  0  0  0  0
   20.7235    1.4400    0.0000 H   0  0  0  0  0  0  0  0  0  0  0  0
    1.6900   -7.2131    0.0000 H   0  0  0  0  0  0  0  0  0  0  0  0
    1.4631   -8.0600    0.0000 H   0  0  0  0  0  0  0  0  0  0  0  0
    2.3100   -8.2869    0.0000 H   0  0  0  0  0  0  0  0  0  0  0  0
    6.6592    1.5600    0.0000 H   0  0  0  0  0  0  0  0  0  0  0  0
   23.9606    7.2131    0.0000 H   0  0  0  0  0  0  0  0  0  0  0  0
   24.1876    8.0600    0.0000 H   0  0  0  0  0  0  0  0  0  0  0  0
   23.3406    8.2869    0.0000 H   0  0  0  0  0  0  0  0  0  0  0  0
   11.1972    0.9400    0.0000 H   0  0  0  0  0  0  0  0  0  0  0  0
    8.0622    2.3700    0.0000 H   0  0  0  0  0  0  0  0  0  0  0  0
   10.1928    2.2250    0.0000 H   0  0  0  0  0  0  0  0  0  0  0  0
    9.3957    2.2250    0.0000 H   0  0  0  0  0  0  0  0  0  0  0  0
   10.8723   -0.3326    0.0000 H   0  0  0  0  0  0  0  0  0  0  0  0
   11.2708    0.3577    0.0000 H   0  0  0  0  0  0  0  0  0  0  0  0
    9.7942   -0.8700    0.0000 H   0  0  0  0  0  0  0  0  0  0  0  0
  1 35  1  0  0  0  0
 36  1  1  1  0  0  0
  2 37  1  0  0  0  0
  2 38  1  0  0  0  0
  3 35  2  0  0  0  0
  4 39  1  0  0  0  0
  4105  1  0  0  0  0
  5  6  1  0  0  0  0
  5  7  1  0  0  0  0
  5 40  1  0  0  0  0
  5 41  1  0  0  0  0
  6  8  1  0  0  0  0
  6 42  1  0  0  0  0
  6 43  1  0  0  0  0
  7  9  1  0  0  0  0
  7 44  1  0  0  0  0
  7 45  1  0  0  0  0
  8 10  1  0  0  0  0
  8 46  1  0  0  0  0
  8 47  1  0  0  0  0
  9 11  1  0  0  0  0
  9 48  1  0  0  0  0
  9 49  1  0  0  0  0
 10 12  1  0  0  0  0
 10 50  1  0  0  0  0
 10 51  1  0  0  0  0
 11 13  1  0  0  0  0
 11 52  1  0  0  0  0
 11 53  1  0  0  0  0
 12 18  1  0  0  0  0
 12 54  1  0  0  0  0
 12 55  1  0  0  0  0
 13 23  1  0  0  0  0
 13 56  1  0  0  0  0
 13 57  1  0  0  0  0
 14 15  1  0  0  0  0
 14 19  1  0  0  0  0
 14 58  1  0  0  0  0
 14 59  1  0  0  0  0
 15 20  1  0  0  0  0
 15 60  1  0  0  0  0
 15 61  1  0  0  0  0
 16 17  1  0  0  0  0
 16 21  1  0  0  0  0
 16 62  1  0  0  0  0
 16 63  1  0  0  0  0
 17 22  1  0  0  0  0
 17 64  1  0  0  0  0
 17 65  1  0  0  0  0
 18 32  1  0  0  0  0
 18 68  1  0  0  0  0
 18 69  1  0  0  0  0
 19 24  1  0  0  0  0
 19 66  1  0  0  0  0
 19 67  1  0  0  0  0
 20 26  1  0  0  0  0
 20 70  1  0  0  0  0
 20 71  1  0  0  0  0
 21 25  1  0  0  0  0
 21 72  1  0  0  0  0
 21 73  1  0  0  0  0
 22 27  1  0  0  0  0
 22 74  1  0  0  0  0
 22 75  1  0  0  0  0
 23 33  1  0  0  0  0
 23 76  1  0  0  0  0
 23 77  1  0  0  0  0
 24 28  1  0  0  0  0
 24 78  1  0  0  0  0
 24 79  1  0  0  0  0
 25 29  1  0  0  0  0
 25 80  1  0  0  0  0
 25 81  1  0  0  0  0
 26 30  1  0  0  0  0
 26 82  1  0  0  0  0
 26 83  1  0  0  0  0
 27 31  1  0  0  0  0
 27 84  1  0  0  0  0
 27 85  1  0  0  0  0
 28 35  1  0  0  0  0
 28 86  1  0  0  0  0
 28 87  1  0  0  0  0
 29 34  1  0  0  0  0
 29 88  1  0  0  0  0
 29 89  1  0  0  0  0
 30 31  2  0  0  0  0
 30 90  1  0  0  0  0
 31 91  1  0  0  0  0
 32 92  1  0  0  0  0
 32 93  1  0  0  0  0
 32 94  1  0  0  0  0
 33 37  2  0  0  0  0
 33 95  1  0  0  0  0
 34 96  1  0  0  0  0
 34 97  1  0  0  0  0
 34 98  1  0  0  0  0
 36 38  1  0  0  0  0
 36 39  1  0  0  0  0
 36 99  1  0  0  0  0
 37100  1  0  0  0  0
 38101  1  0  0  0  0
 38102  1  0  0  0  0
 39103  1  0  0  0  0
 39104  1  0  0  0  0
M  END
> <PUBCHEM_COMPOUND_CID>
5282285

> <PUBCHEM_COMPOUND_CANONICALIZED>
1

> <PUBCHEM_CACTVS_COMPLEXITY>
543

> <PUBCHEM_CACTVS_HBOND_ACCEPTOR>
4

> <PUBCHEM_CACTVS_HBOND_DONOR>
1

> <PUBCHEM_CACTVS_ROTATABLE_BOND>
32

> <PUBCHEM_CACTVS_SUBSKEYS>
AAADcfB8OAAAAAAAAAAAAAAAAAAAAAAAAAAAAAAAAAAAAAAAAAAAGgAACAAACBSggAICCAAABgCIACDSCAAACAAgIAAICAEAAAgBEBIAAQACQAAFgAALAAOIyKCAAAAAAAAAAAAAAAAAAAAAAAAAAAAAAA==

> <PUBCHEM_IUPAC_OPENEYE_NAME>
[(1S)-1-(hydroxymethyl)-2-[(Z)-tetradec-1-enoxy]ethyl] (Z)-octadec-9-enoate

> <PUBCHEM_IUPAC_CAS_NAME>
(Z)-9-octadecenoic acid [(2S)-1-hydroxy-3-[(Z)-tetradec-1-enoxy]propan-2-yl] ester

> <PUBCHEM_IUPAC_NAME>
[(2S)-1-hydroxy-3-[(Z)-tetradec-1-enoxy]propan-2-yl] (Z)-octadec-9-enoate

> <PUBCHEM_IUPAC_SYSTEMATIC_NAME>
[(2S)-1-oxidanyl-3-[(Z)-tetradec-1-enoxy]propan-2-yl] (Z)-octadec-9-enoate

> <PUBCHEM_IUPAC_TRADITIONAL_NAME>
(Z)-octadec-9-enoic acid [(1S)-1-methylol-2-[(Z)-tetradec-1-enoxy]ethyl] ester

> <PUBCHEM_IUPAC_INCHI>
InChI=1S/C35H66O4/c1-3-5-7-9-11-13-15-17-18-19-20-22-24-26-28-30-35(37)39-34(32-36)33-38-31-29-27-25-23-21-16-14-12-10-8-6-4-2/h17-18,29,31,34,36H,3-16,19-28,30,32-33H2,1-2H3/b18-17-,31-29-/t34-/m0/s1

> <PUBCHEM_IUPAC_INCHIKEY>
JIVLVDABBQIAOL-RDUBIJJSSA-N

> <PUBCHEM_XLOGP3_AA>
13.7

> <PUBCHEM_EXACT_MASS>
550.496111

> <PUBCHEM_MOLECULAR_FORMULA>
C35H66O4

> <PUBCHEM_MOLECULAR_WEIGHT>
550.89614

> <PUBCHEM_OPENEYE_CAN_SMILES>
CCCCCCCCCCCCC=COCC(CO)OC(=O)CCCCCCCC=CCCCCCCCC

> <PUBCHEM_OPENEYE_ISO_SMILES>
CCCCCCCCCCCC/C=C\OC[C@H](CO)OC(=O)CCCCCCC/C=C\CCCCCCCC

> <PUBCHEM_CACTVS_TPSA>
55.8

> <PUBCHEM_MONOISOTOPIC_WEIGHT>
550.496111

> <PUBCHEM_TOTAL_CHARGE>
0

> <PUBCHEM_HEAVY_ATOM_COUNT>
39

> <PUBCHEM_ATOM_DEF_STEREO_COUNT>
1

> <PUBCHEM_ATOM_UDEF_STEREO_COUNT>
0

> <PUBCHEM_BOND_DEF_STEREO_COUNT>
2

> <PUBCHEM_BOND_UDEF_STEREO_COUNT>
0

> <PUBCHEM_ISOTOPIC_ATOM_COUNT>
0

> <PUBCHEM_COMPONENT_COUNT>
1

> <PUBCHEM_CACTVS_TAUTO_COUNT>
1

> <PUBCHEM_COORDINATE_TYPE>
1
5
255

> <PUBCHEM_BONDANNOTATIONS>
36  1  5

$$$$

