230070
  -OEChem-07051213073D

 60 63  0     1  0  0  0  0  0999 V2000
    5.2713   -0.9363    0.1798 O   0  0  0  0  0  0  0  0  0  0  0  0
   -5.8261   -0.4683   -0.8389 O   0  0  0  0  0  0  0  0  0  0  0  0
    6.7915    0.7528    0.5791 O   0  0  0  0  0  0  0  0  0  0  0  0
   -5.9779    0.4883    1.2893 O   0  0  0  0  0  0  0  0  0  0  0  0
    2.4400    1.2163    0.4547 C   0  0  1  0  0  0  0  0  0  0  0  0
    2.0405   -0.2376    0.1351 C   0  0  2  0  0  0  0  0  0  0  0  0
    0.5326   -0.4572    0.2607 C   0  0  1  0  0  0  0  0  0  0  0  0
   -0.1932    0.4601   -0.7699 C   0  0  2  0  0  0  0  0  0  0  0  0
    3.9674    1.1080    0.3346 C   0  0  0  0  0  0  0  0  0  0  0  0
    2.9892   -1.0696    0.9941 C   0  0  0  0  0  0  0  0  0  0  0  0
    1.7727    2.1312   -0.5776 C   0  0  0  0  0  0  0  0  0  0  0  0
    4.3006   -0.2601    0.9658 C   0  0  1  0  0  0  0  0  0  0  0  0
    0.2443    1.9406   -0.6088 C   0  0  0  0  0  0  0  0  0  0  0  0
    0.1260   -1.9099    0.0064 C   0  0  0  0  0  0  0  0  0  0  0  0
    2.0847    1.6947    1.8828 C   0  0  0  0  0  0  0  0  0  0  0  0
   -1.7014    0.2261   -0.7536 C   0  0  0  0  0  0  0  0  0  0  0  0
   -1.3630   -2.0877    0.2874 C   0  0  0  0  0  0  0  0  0  0  0  0
   -2.2322   -0.9981   -0.2912 C   0  0  0  0  0  0  0  0  0  0  0  0
   -2.5915    1.1803   -1.2779 C   0  0  0  0  0  0  0  0  0  0  0  0
   -3.6216   -1.2127   -0.3145 C   0  0  0  0  0  0  0  0  0  0  0  0
   -3.9689    0.9507   -1.3034 C   0  0  0  0  0  0  0  0  0  0  0  0
    6.4881   -0.3153    0.0657 C   0  0  0  0  0  0  0  0  0  0  0  0
   -4.4847   -0.2438   -0.8176 C   0  0  0  0  0  0  0  0  0  0  0  0
    7.3997   -1.1581   -0.7949 C   0  0  0  0  0  0  0  0  0  0  0  0
    8.7645   -0.5180   -0.9796 C   0  0  0  0  0  0  0  0  0  0  0  0
   -6.5032   -0.0431    0.3205 C   0  0  0  0  0  0  0  0  0  0  0  0
   -7.9781   -0.3442    0.1797 C   0  0  0  0  0  0  0  0  0  0  0  0
   -8.7712    0.1110    1.3922 C   0  0  0  0  0  0  0  0  0  0  0  0
    2.3113   -0.4533   -0.9122 H   0  0  0  0  0  0  0  0  0  0  0  0
    0.2086   -0.1966    1.2768 H   0  0  0  0  0  0  0  0  0  0  0  0
    0.1310    0.1506   -1.7757 H   0  0  0  0  0  0  0  0  0  0  0  0
    4.4779    1.9284    0.8509 H   0  0  0  0  0  0  0  0  0  0  0  0
    4.2769    1.1437   -0.7179 H   0  0  0  0  0  0  0  0  0  0  0  0
    2.6104   -1.1485    2.0193 H   0  0  0  0  0  0  0  0  0  0  0  0
    3.1139   -2.0829    0.5989 H   0  0  0  0  0  0  0  0  0  0  0  0
    2.1678    1.9163   -1.5792 H   0  0  0  0  0  0  0  0  0  0  0  0
    2.0087    3.1825   -0.3732 H   0  0  0  0  0  0  0  0  0  0  0  0
    4.6807   -0.1529    1.9894 H   0  0  0  0  0  0  0  0  0  0  0  0
   -0.2038    2.3627    0.2989 H   0  0  0  0  0  0  0  0  0  0  0  0
   -0.1360    2.5409   -1.4434 H   0  0  0  0  0  0  0  0  0  0  0  0
    0.6900   -2.5985    0.6451 H   0  0  0  0  0  0  0  0  0  0  0  0
    0.3461   -2.1857   -1.0330 H   0  0  0  0  0  0  0  0  0  0  0  0
    2.5454    1.0773    2.6602 H   0  0  0  0  0  0  0  0  0  0  0  0
    2.4413    2.7200    2.0381 H   0  0  0  0  0  0  0  0  0  0  0  0
    1.0083    1.6980    2.0733 H   0  0  0  0  0  0  0  0  0  0  0  0
   -1.5219   -2.1028    1.3733 H   0  0  0  0  0  0  0  0  0  0  0  0
   -1.6788   -3.0623   -0.1045 H   0  0  0  0  0  0  0  0  0  0  0  0
   -2.2320    2.1203   -1.6852 H   0  0  0  0  0  0  0  0  0  0  0  0
   -4.0299   -2.1484    0.0622 H   0  0  0  0  0  0  0  0  0  0  0  0
   -4.6309    1.7106   -1.7099 H   0  0  0  0  0  0  0  0  0  0  0  0
    7.5187   -2.1366   -0.3180 H   0  0  0  0  0  0  0  0  0  0  0  0
    6.9265   -1.2908   -1.7736 H   0  0  0  0  0  0  0  0  0  0  0  0
    9.2663   -0.3771   -0.0165 H   0  0  0  0  0  0  0  0  0  0  0  0
    9.4002   -1.1499   -1.6075 H   0  0  0  0  0  0  0  0  0  0  0  0
    8.6770    0.4631   -1.4582 H   0  0  0  0  0  0  0  0  0  0  0  0
   -8.0987   -1.4246    0.0496 H   0  0  0  0  0  0  0  0  0  0  0  0
   -8.3515    0.1693   -0.7124 H   0  0  0  0  0  0  0  0  0  0  0  0
   -8.6700    1.1906    1.5455 H   0  0  0  0  0  0  0  0  0  0  0  0
   -9.8332   -0.1181    1.2612 H   0  0  0  0  0  0  0  0  0  0  0  0
   -8.4221   -0.3902    2.3011 H   0  0  0  0  0  0  0  0  0  0  0  0
  1 12  1  0  0  0  0
  1 22  1  0  0  0  0
  2 23  1  0  0  0  0
  2 26  1  0  0  0  0
  3 22  2  0  0  0  0
  4 26  2  0  0  0  0
  5  6  1  0  0  0  0
  5  9  1  0  0  0  0
  5 11  1  0  0  0  0
  5 15  1  0  0  0  0
  6  7  1  0  0  0  0
  6 10  1  0  0  0  0
  6 29  1  0  0  0  0
  7  8  1  0  0  0  0
  7 14  1  0  0  0  0
  7 30  1  0  0  0  0
  8 13  1  0  0  0  0
  8 16  1  0  0  0  0
  8 31  1  0  0  0  0
  9 12  1  0  0  0  0
  9 32  1  0  0  0  0
  9 33  1  0  0  0  0
 10 12  1  0  0  0  0
 10 34  1  0  0  0  0
 10 35  1  0  0  0  0
 11 13  1  0  0  0  0
 11 36  1  0  0  0  0
 11 37  1  0  0  0  0
 12 38  1  0  0  0  0
 13 39  1  0  0  0  0
 13 40  1  0  0  0  0
 14 17  1  0  0  0  0
 14 41  1  0  0  0  0
 14 42  1  0  0  0  0
 15 43  1  0  0  0  0
 15 44  1  0  0  0  0
 15 45  1  0  0  0  0
 16 18  2  0  0  0  0
 16 19  1  0  0  0  0
 17 18  1  0  0  0  0
 17 46  1  0  0  0  0
 17 47  1  0  0  0  0
 18 20  1  0  0  0  0
 19 21  2  0  0  0  0
 19 48  1  0  0  0  0
 20 23  2  0  0  0  0
 20 49  1  0  0  0  0
 21 23  1  0  0  0  0
 21 50  1  0  0  0  0
 22 24  1  0  0  0  0
 24 25  1  0  0  0  0
 24 51  1  0  0  0  0
 24 52  1  0  0  0  0
 25 53  1  0  0  0  0
 25 54  1  0  0  0  0
 25 55  1  0  0  0  0
 26 27  1  0  0  0  0
 27 28  1  0  0  0  0
 27 56  1  0  0  0  0
 27 57  1  0  0  0  0
 28 58  1  0  0  0  0
 28 59  1  0  0  0  0
 28 60  1  0  0  0  0
M  END
> <PUBCHEM_COMPOUND_CID>
230070

> <PUBCHEM_CONFORMER_RMSD>
0.8

> <PUBCHEM_CONFORMER_DIVERSEORDER>
1
41
7
45
34
46
24
25
30
15
17
28
37
42
40
35
6
43
38
44
32
20
29
39
3
13
47
11
48
18
14
26
36
8
22
16
31
9
5
21
12
19
33
23
2
10
27
4

> <PUBCHEM_MMFF94_PARTIAL_CHARGES>
20
1 -0.43
12 0.28
16 -0.14
17 0.14
18 -0.14
19 -0.15
2 -0.23
20 -0.15
21 -0.15
22 0.66
23 0.08
24 0.06
26 0.66
27 0.06
3 -0.57
4 -0.57
48 0.15
49 0.15
50 0.15
8 0.14

> <PUBCHEM_EFFECTIVE_ROTOR_COUNT>
7.4

> <PUBCHEM_PHARMACOPHORE_FEATURES>
8
1 25 hydrophobe
1 28 hydrophobe
1 3 acceptor
1 4 acceptor
5 5 6 9 10 12 rings
6 16 18 19 20 21 23 rings
6 5 6 7 8 11 13 rings
6 7 8 14 16 17 18 rings

> <PUBCHEM_HEAVY_ATOM_COUNT>
28

> <PUBCHEM_ATOM_DEF_STEREO_COUNT>
5

> <PUBCHEM_ATOM_UDEF_STEREO_COUNT>
0

> <PUBCHEM_BOND_DEF_STEREO_COUNT>
0

> <PUBCHEM_BOND_UDEF_STEREO_COUNT>
0

> <PUBCHEM_ISOTOPIC_ATOM_COUNT>
0

> <PUBCHEM_COMPONENT_COUNT>
1

> <PUBCHEM_CACTVS_TAUTO_COUNT>
1

> <PUBCHEM_CONFORMER_ID>
000382B600000001

> <PUBCHEM_MMFF94_ENERGY>
81.9446

> <PUBCHEM_FEATURE_SELFOVERLAP>
40.693

> <PUBCHEM_SHAPE_FINGERPRINT>
10076449 9 18343016705618660452
10299344 5 18412543214819303070
106641 1 14979952562534673043
10674148 151 18260830410813768082
10883706 142 16588020213681257623
11181472 205 15936676130207576656
11408170 108 16153977067899021470
11578080 2 17753625537315962608
12011746 2 18412834590070203550
12166972 35 18260552194889397793
12236239 1 16153434913026713663
12403259 415 18341068357881647077
12741549 16 16008751338671374578
13165053 68 15121790576214565587
13673619 4 18273218598948541284
13685833 64 18343023293829317668
13914758 101 15574708114640338090
14251764 18 18410577279423035183
14251764 46 18113336414984380287
14341114 176 18272092682214815205
14444916 359 18341608235292340315
14617045 38 18272936033387474354
14849402 71 18261675857392962609
15131766 46 14781833667513598968
15142383 8 14779266414725181152
15183329 4 18410859884683227874
15461852 350 17168156637509171709
15728490 51 13039179291168951297
18335252 98 16702018699323038402
18608769 82 17917990547237080115
20105231 36 18201715158686629291
2026 5 17606113134502541534
21033648 29 18199211567027015541
21049683 271 17489866029528507460
21150785 3 13542463163893219061
21267235 1 18343864419982077325
21521721 280 18409733920499530256
21781051 124 17774704391097398115
21781055 127 17969479624403766837
21792961 116 17988655145714685990
23402539 116 8430306957383355136
23559900 14 18264500502917127872
23569917 315 18263362508858043487
246663 6 18201717362125437103
2838139 119 16443350880182281889
3004659 81 18273500066315914276
3178227 256 18273495671741411851
335352 9 18342179947120853623
34797466 226 18411698773753885212
350125 39 18342183288505195821
3545911 37 18342463637867951022
4093350 32 17385726860099323072
4325135 7 11095884860619949408
437815 12 17967814942862040824
465052 167 17418380190405972881
5104073 3 18196945383319805691
5381727 24 16008752408033743743
6081469 158 4895279196200212616
6201320 215 15864903387291438913

> <PUBCHEM_SHAPE_MULTIPOLES>
552.75
22.41
1.78
1.26
3.6
0.2
-0.23
-4.07
-1.66
-0.81
0.03
0.44
0.34
0.67

> <PUBCHEM_SHAPE_SELFOVERLAP>
1176.621

> <PUBCHEM_SHAPE_VOLUME>
306

> <PUBCHEM_COORDINATE_TYPE>
2
5
10

$$$$

