442202
  -OEChem-07051212572D

 39 41  0     1  0  0  0  0  0999 V2000
    2.0000   -0.7846    0.0000 O   0  0  0  0  0  0  0  0  0  0  0  0
    2.2729    0.9706    0.0000 O   0  0  0  0  0  0  0  0  0  0  0  0
    4.3958    0.2154    0.0000 C   0  0  1  0  0  0  0  0  0  0  0  0
    5.2619   -0.2846    0.0000 C   0  0  2  0  0  0  0  0  0  0  0  0
    6.1719    0.2222    0.0000 C   0  0  0  0  0  0  0  0  0  0  0  0
    3.5298   -0.2846    0.0000 C   0  0  2  0  0  0  0  0  0  0  0  0
    4.3798    1.2569    0.0000 C   0  0  0  0  0  0  0  0  0  0  0  0
    6.1799    1.2638    0.0000 C   0  0  0  0  0  0  0  0  0  0  0  0
    5.2619   -1.2846    0.0000 C   0  0  0  0  0  0  0  0  0  0  0  0
    5.2778    1.7846    0.0000 C   0  0  0  0  0  0  0  0  0  0  0  0
    3.5298    0.7154    0.0000 C   0  0  0  0  0  0  0  0  0  0  0  0
    3.5298   -1.2846    0.0000 C   0  0  0  0  0  0  0  0  0  0  0  0
    7.1718    0.2107    0.0000 C   0  0  0  0  0  0  0  0  0  0  0  0
    6.6618   -0.6495    0.0000 C   0  0  0  0  0  0  0  0  0  0  0  0
    4.3958   -1.7846    0.0000 C   0  0  0  0  0  0  0  0  0  0  0  0
    2.5836    0.0201    0.0000 C   0  0  0  0  0  0  0  0  0  0  0  0
    2.5836   -1.5894    0.0000 C   0  0  0  0  0  0  0  0  0  0  0  0
    5.9947   -0.7153    0.0000 H   0  0  0  0  0  0  0  0  0  0  0  0
    3.4399    0.5606    0.0000 H   0  0  0  0  0  0  0  0  0  0  0  0
    4.1618    1.8373    0.0000 H   0  0  0  0  0  0  0  0  0  0  0  0
    3.7706    1.1414    0.0000 H   0  0  0  0  0  0  0  0  0  0  0  0
    6.7899    1.1530    0.0000 H   0  0  0  0  0  0  0  0  0  0  0  0
    6.3935    1.8459    0.0000 H   0  0  0  0  0  0  0  0  0  0  0  0
    5.4739   -1.8672    0.0000 H   0  0  0  0  0  0  0  0  0  0  0  0
    5.8725   -1.1770    0.0000 H   0  0  0  0  0  0  0  0  0  0  0  0
    5.6751    2.2606    0.0000 H   0  0  0  0  0  0  0  0  0  0  0  0
    4.8769    2.2575    0.0000 H   0  0  0  0  0  0  0  0  0  0  0  0
    3.8398    1.2523    0.0000 H   0  0  0  0  0  0  0  0  0  0  0  0
    2.9929    1.0254    0.0000 H   0  0  0  0  0  0  0  0  0  0  0  0
    3.2198    0.1784    0.0000 H   0  0  0  0  0  0  0  0  0  0  0  0
    7.1646   -0.4093    0.0000 H   0  0  0  0  0  0  0  0  0  0  0  0
    7.7918    0.2035    0.0000 H   0  0  0  0  0  0  0  0  0  0  0  0
    7.1790    0.8306    0.0000 H   0  0  0  0  0  0  0  0  0  0  0  0
    6.1213   -0.9533    0.0000 H   0  0  0  0  0  0  0  0  0  0  0  0
    6.9656   -1.1900    0.0000 H   0  0  0  0  0  0  0  0  0  0  0  0
    7.2023   -0.3458    0.0000 H   0  0  0  0  0  0  0  0  0  0  0  0
    4.3958   -2.4046    0.0000 H   0  0  0  0  0  0  0  0  0  0  0  0
    2.0462   -1.8986    0.0000 H   0  0  0  0  0  0  0  0  0  0  0  0
    2.8346   -2.1563    0.0000 H   0  0  0  0  0  0  0  0  0  0  0  0
  1 16  1  0  0  0  0
  1 17  1  0  0  0  0
  2 16  2  0  0  0  0
  3  4  1  0  0  0  0
  3  6  1  0  0  0  0
  3  7  1  0  0  0  0
  3 11  1  6  0  0  0
  4  5  1  0  0  0  0
  4  9  1  0  0  0  0
  4 18  1  1  0  0  0
  5  8  1  0  0  0  0
  5 13  1  0  0  0  0
  5 14  1  0  0  0  0
  6 12  1  0  0  0  0
  6 16  1  0  0  0  0
  6 19  1  1  0  0  0
  7 10  1  0  0  0  0
  7 20  1  0  0  0  0
  7 21  1  0  0  0  0
  8 10  1  0  0  0  0
  8 22  1  0  0  0  0
  8 23  1  0  0  0  0
  9 15  1  0  0  0  0
  9 24  1  0  0  0  0
  9 25  1  0  0  0  0
 10 26  1  0  0  0  0
 10 27  1  0  0  0  0
 11 28  1  0  0  0  0
 11 29  1  0  0  0  0
 11 30  1  0  0  0  0
 12 15  2  0  0  0  0
 12 17  1  0  0  0  0
 13 31  1  0  0  0  0
 13 32  1  0  0  0  0
 13 33  1  0  0  0  0
 14 34  1  0  0  0  0
 14 35  1  0  0  0  0
 14 36  1  0  0  0  0
 15 37  1  0  0  0  0
 17 38  1  0  0  0  0
 17 39  1  0  0  0  0
M  END
> <PUBCHEM_COMPOUND_CID>
442202

> <PUBCHEM_COMPOUND_CANONICALIZED>
1

> <PUBCHEM_CACTVS_COMPLEXITY>
394

> <PUBCHEM_CACTVS_HBOND_ACCEPTOR>
2

> <PUBCHEM_CACTVS_HBOND_DONOR>
0

> <PUBCHEM_CACTVS_ROTATABLE_BOND>
0

> <PUBCHEM_CACTVS_SUBSKEYS>
AAADceBwMAAAAAAAAAAAAAAAAAAAASAAAAAwQAAAAAAAAECAAAAAGgAAAAAADwCggAICCAAABACIAiDSCAAAAAAgAAAACAEAAAgABBIAIQACEAAEwAAIIAOKyPCPgAAAAAAAAAAAAAQAACAAAAAAAAAAAA==

> <PUBCHEM_IUPAC_OPENEYE_NAME>
(5aS,9aS,9bR)-6,6,9a-trimethyl-5,5a,7,8,9,9b-hexahydro-3H-benzo[g]isobenzofuran-1-one

> <PUBCHEM_IUPAC_CAS_NAME>
(5aS,9aS,9bR)-6,6,9a-trimethyl-5,5a,7,8,9,9b-hexahydro-3H-benzo[g]isobenzofuran-1-one

> <PUBCHEM_IUPAC_NAME>
(5aS,9aS,9bR)-6,6,9a-trimethyl-5,5a,7,8,9,9b-hexahydro-3H-benzo[g][2]benzofuran-1-one

> <PUBCHEM_IUPAC_SYSTEMATIC_NAME>
(5aS,9aS,9bR)-6,6,9a-trimethyl-5,5a,7,8,9,9b-hexahydro-3H-benzo[g][2]benzofuran-1-one

> <PUBCHEM_IUPAC_TRADITIONAL_NAME>
(5aS,9aS,9bR)-6,6,9a-trimethyl-5,5a,7,8,9,9b-hexahydro-3H-benz[g]isobenzofuran-1-one

> <PUBCHEM_IUPAC_INCHI>
InChI=1S/C15H22O2/c1-14(2)7-4-8-15(3)11(14)6-5-10-9-17-13(16)12(10)15/h5,11-12H,4,6-9H2,1-3H3/t11-,12+,15-/m0/s1

> <PUBCHEM_IUPAC_INCHIKEY>
BQNSBENKJCLJGN-ZOWXZIJZSA-N

> <PUBCHEM_XLOGP3_AA>
3.6

> <PUBCHEM_EXACT_MASS>
234.16198

> <PUBCHEM_MOLECULAR_FORMULA>
C15H22O2

> <PUBCHEM_MOLECULAR_WEIGHT>
234.33398

> <PUBCHEM_OPENEYE_CAN_SMILES>
CC1(CCCC2(C1CC=C3C2C(=O)OC3)C)C

> <PUBCHEM_OPENEYE_ISO_SMILES>
C[C@]12CCCC([C@@H]1CC=C3[C@@H]2C(=O)OC3)(C)C

> <PUBCHEM_CACTVS_TPSA>
26.3

> <PUBCHEM_MONOISOTOPIC_WEIGHT>
234.16198

> <PUBCHEM_TOTAL_CHARGE>
0

> <PUBCHEM_HEAVY_ATOM_COUNT>
17

> <PUBCHEM_ATOM_DEF_STEREO_COUNT>
3

> <PUBCHEM_ATOM_UDEF_STEREO_COUNT>
0

> <PUBCHEM_BOND_DEF_STEREO_COUNT>
0

> <PUBCHEM_BOND_UDEF_STEREO_COUNT>
0

> <PUBCHEM_ISOTOPIC_ATOM_COUNT>
0

> <PUBCHEM_COMPONENT_COUNT>
1

> <PUBCHEM_CACTVS_TAUTO_COUNT>
2

> <PUBCHEM_COORDINATE_TYPE>
1
5
255

> <PUBCHEM_BONDANNOTATIONS>
3  11  6
4  18  5
6  19  5

$$$$

