217
  -OEChem-07051212492D

 29 29  0     1  0  0  0  0  0999 V2000
    4.1760    0.6550    0.0000 P   0  0  3  0  0  0  0  0  0  0  0  0
    3.3100    2.1550    0.0000 P   0  0  0  0  0  0  0  0  0  0  0  0
    5.0420    0.1550    0.0000 O   0  0  0  0  0  0  0  0  0  0  0  0
    3.3100    1.1550    0.0000 O   0  0  0  0  0  0  0  0  0  0  0  0
    4.6760    1.5210    0.0000 O   0  0  0  0  0  0  0  0  0  0  0  0
    3.6760   -0.2110    0.0000 O   0  0  0  0  0  0  0  0  0  0  0  0
    3.3100    3.1550    0.0000 O   0  0  0  0  0  0  0  0  0  0  0  0
    2.3100    2.1550    0.0000 O   0  0  0  0  0  0  0  0  0  0  0  0
    4.3100    2.1550    0.0000 O   0  0  0  0  0  0  0  0  0  0  0  0
    6.7741   -2.8450    0.0000 N   0  0  0  0  0  0  0  0  0  0  0  0
    7.6401   -1.3450    0.0000 N   0  0  0  0  0  0  0  0  0  0  0  0
    5.0420   -2.8450    0.0000 N   0  0  0  0  0  0  0  0  0  0  0  0
    5.9081   -1.3450    0.0000 C   0  0  0  0  0  0  0  0  0  0  0  0
    5.0420   -0.8450    0.0000 C   0  0  0  0  0  0  0  0  0  0  0  0
    5.9081   -2.3450    0.0000 C   0  0  0  0  0  0  0  0  0  0  0  0
    6.7741   -0.8450    0.0000 C   0  0  0  0  0  0  0  0  0  0  0  0
    7.6401   -2.3450    0.0000 C   0  0  0  0  0  0  0  0  0  0  0  0
    8.5062   -2.8450    0.0000 C   0  0  0  0  0  0  0  0  0  0  0  0
    4.4315   -0.7373    0.0000 H   0  0  0  0  0  0  0  0  0  0  0  0
    4.8300   -1.4276    0.0000 H   0  0  0  0  0  0  0  0  0  0  0  0
    6.7741   -0.2250    0.0000 H   0  0  0  0  0  0  0  0  0  0  0  0
    5.0420   -3.4650    0.0000 H   0  0  0  0  0  0  0  0  0  0  0  0
    4.5051   -2.5350    0.0000 H   0  0  0  0  0  0  0  0  0  0  0  0
    8.1962   -3.3819    0.0000 H   0  0  0  0  0  0  0  0  0  0  0  0
    9.0431   -3.1550    0.0000 H   0  0  0  0  0  0  0  0  0  0  0  0
    8.8162   -2.3081    0.0000 H   0  0  0  0  0  0  0  0  0  0  0  0
    5.2960    1.5210    0.0000 H   0  0  0  0  0  0  0  0  0  0  0  0
    2.7731    3.4650    0.0000 H   0  0  0  0  0  0  0  0  0  0  0  0
    2.0000    1.6181    0.0000 H   0  0  0  0  0  0  0  0  0  0  0  0
  1  3  1  0  0  0  0
  1  4  1  0  0  0  0
  1  5  1  0  0  0  0
  1  6  2  0  0  0  0
  2  4  1  0  0  0  0
  2  7  1  0  0  0  0
  2  8  1  0  0  0  0
  2  9  2  0  0  0  0
  3 14  1  0  0  0  0
  5 27  1  0  0  0  0
  7 28  1  0  0  0  0
  8 29  1  0  0  0  0
 10 15  2  0  0  0  0
 10 17  1  0  0  0  0
 11 16  1  0  0  0  0
 11 17  2  0  0  0  0
 12 15  1  0  0  0  0
 12 22  1  0  0  0  0
 12 23  1  0  0  0  0
 13 14  1  0  0  0  0
 13 15  1  0  0  0  0
 13 16  2  0  0  0  0
 14 19  1  0  0  0  0
 14 20  1  0  0  0  0
 16 21  1  0  0  0  0
 17 18  1  0  0  0  0
 18 24  1  0  0  0  0
 18 25  1  0  0  0  0
 18 26  1  0  0  0  0
M  END
> <PUBCHEM_COMPOUND_CID>
217

> <PUBCHEM_COMPOUND_CANONICALIZED>
1

> <PUBCHEM_CACTVS_COMPLEXITY>
374

> <PUBCHEM_CACTVS_HBOND_ACCEPTOR>
10

> <PUBCHEM_CACTVS_HBOND_DONOR>
4

> <PUBCHEM_CACTVS_ROTATABLE_BOND>
5

> <PUBCHEM_CACTVS_SUBSKEYS>
AAADccBjOAMAAAAAAAAAAAAAAAAAAAAAAAAsAAAAAAAAAAABgAAAHgAQCCAADADhmwYvsJZIERCgQhJnZICAgCkRAKABUCA4TBCADIBASUAEBAgKAALAACAAAAAAAAAAAAAAAAAAAAAAAAAAAAAAAAAAAA==

> <PUBCHEM_IUPAC_OPENEYE_NAME>
(4-amino-2-methyl-pyrimidin-5-yl)methyl phosphono hydrogen phosphate

> <PUBCHEM_IUPAC_CAS_NAME>
(4-amino-2-methyl-5-pyrimidinyl)methyl phosphono hydrogen phosphate

> <PUBCHEM_IUPAC_NAME>
(4-amino-2-methylpyrimidin-5-yl)methyl phosphono hydrogen phosphate

> <PUBCHEM_IUPAC_SYSTEMATIC_NAME>
(4-azanyl-2-methyl-pyrimidin-5-yl)methyl phosphono hydrogen phosphate

> <PUBCHEM_IUPAC_TRADITIONAL_NAME>
(4-amino-2-methyl-pyrimidin-5-yl)methyl phosphono hydrogen phosphate

> <PUBCHEM_IUPAC_INCHI>
InChI=1S/C6H11N3O7P2/c1-4-8-2-5(6(7)9-4)3-15-18(13,14)16-17(10,11)12/h2H,3H2,1H3,(H,13,14)(H2,7,8,9)(H2,10,11,12)

> <PUBCHEM_IUPAC_INCHIKEY>
AGQJQCFEPUVXNK-UHFFFAOYSA-N

> <PUBCHEM_XLOGP3_AA>
-2.8

> <PUBCHEM_EXACT_MASS>
299.007223

> <PUBCHEM_MOLECULAR_FORMULA>
C6H11N3O7P2

> <PUBCHEM_MOLECULAR_WEIGHT>
299.114964

> <PUBCHEM_OPENEYE_CAN_SMILES>
CC1=NC=C(C(=N1)N)COP(=O)(O)OP(=O)(O)O

> <PUBCHEM_OPENEYE_ISO_SMILES>
CC1=NC=C(C(=N1)N)COP(=O)(O)OP(=O)(O)O

> <PUBCHEM_CACTVS_TPSA>
165

> <PUBCHEM_MONOISOTOPIC_WEIGHT>
299.007223

> <PUBCHEM_TOTAL_CHARGE>
0

> <PUBCHEM_HEAVY_ATOM_COUNT>
18

> <PUBCHEM_ATOM_DEF_STEREO_COUNT>
0

> <PUBCHEM_ATOM_UDEF_STEREO_COUNT>
0

> <PUBCHEM_BOND_DEF_STEREO_COUNT>
0

> <PUBCHEM_BOND_UDEF_STEREO_COUNT>
0

> <PUBCHEM_ISOTOPIC_ATOM_COUNT>
0

> <PUBCHEM_COMPONENT_COUNT>
1

> <PUBCHEM_CACTVS_TAUTO_COUNT>
3

> <PUBCHEM_COORDINATE_TYPE>
1
5
255

> <PUBCHEM_BONDANNOTATIONS>
10  15  8
10  17  8
11  16  8
11  17  8
13  15  8
13  16  8

$$$$

