17395745
  -OEChem-06241222523D

 36 36  0     0  0  0  0  0  0999 V2000
   -1.8879    1.5726   -0.2156 S   0  0  0  0  0  0  0  0  0  0  0  0
   -2.3114    2.0934    1.0703 O   0  0  0  0  0  0  0  0  0  0  0  0
   -1.9317    2.4159   -1.3947 O   0  0  0  0  0  0  0  0  0  0  0  0
    4.3735   -0.2623    1.4294 O   0  0  0  0  0  0  0  0  0  0  0  0
   -2.7215    0.1280   -0.5416 N   0  0  0  0  0  0  0  0  0  0  0  0
    4.3629   -0.9462   -0.7862 N   0  0  0  0  0  0  0  0  0  0  0  0
   -3.9498   -1.8520    0.3519 C   0  0  0  0  0  0  0  0  0  0  0  0
   -2.6921   -0.9790    0.4406 C   0  0  0  0  0  0  0  0  0  0  0  0
   -4.0444   -2.5884   -0.9852 C   0  0  0  0  0  0  0  0  0  0  0  0
   -5.2286   -1.0575    0.6207 C   0  0  0  0  0  0  0  0  0  0  0  0
   -0.2227    1.0025   -0.0512 C   0  0  0  0  0  0  0  0  0  0  0  0
    0.2606    0.6107    1.1974 C   0  0  0  0  0  0  0  0  0  0  0  0
    0.6082    0.9450   -1.1701 C   0  0  0  0  0  0  0  0  0  0  0  0
    2.4058    0.1044    0.2080 C   0  0  0  0  0  0  0  0  0  0  0  0
    1.5748    0.1614    1.3271 C   0  0  0  0  0  0  0  0  0  0  0  0
    1.9225    0.4960   -1.0406 C   0  0  0  0  0  0  0  0  0  0  0  0
    3.7757   -0.3644    0.3434 C   0  0  0  0  0  0  0  0  0  0  0  0
    5.7059   -1.4799   -0.8034 C   0  0  0  0  0  0  0  0  0  0  0  0
   -3.8658   -2.6153    1.1369 H   0  0  0  0  0  0  0  0  0  0  0  0
   -1.8036   -1.5914    0.2517 H   0  0  0  0  0  0  0  0  0  0  0  0
   -2.6168   -0.5743    1.4556 H   0  0  0  0  0  0  0  0  0  0  0  0
   -2.8190   -0.1535   -1.5248 H   0  0  0  0  0  0  0  0  0  0  0  0
   -3.1289   -3.1554   -1.1841 H   0  0  0  0  0  0  0  0  0  0  0  0
   -4.8789   -3.2980   -0.9733 H   0  0  0  0  0  0  0  0  0  0  0  0
   -4.2086   -1.8999   -1.8202 H   0  0  0  0  0  0  0  0  0  0  0  0
   -5.1693   -0.5412    1.5846 H   0  0  0  0  0  0  0  0  0  0  0  0
   -6.0970   -1.7244    0.6520 H   0  0  0  0  0  0  0  0  0  0  0  0
   -5.4115   -0.3080   -0.1565 H   0  0  0  0  0  0  0  0  0  0  0  0
   -0.3703    0.6438    2.0810 H   0  0  0  0  0  0  0  0  0  0  0  0
    0.2523    1.2444   -2.1518 H   0  0  0  0  0  0  0  0  0  0  0  0
    1.9303   -0.1443    2.3076 H   0  0  0  0  0  0  0  0  0  0  0  0
    2.5437    0.4946   -1.9315 H   0  0  0  0  0  0  0  0  0  0  0  0
    3.8132   -1.0917   -1.6262 H   0  0  0  0  0  0  0  0  0  0  0  0
    6.1066   -1.3784   -1.8145 H   0  0  0  0  0  0  0  0  0  0  0  0
    5.6587   -2.5368   -0.5294 H   0  0  0  0  0  0  0  0  0  0  0  0
    6.3401   -0.9446   -0.0925 H   0  0  0  0  0  0  0  0  0  0  0  0
  1  2  2  0  0  0  0
  1  3  2  0  0  0  0
  1  5  1  0  0  0  0
  1 11  1  0  0  0  0
  4 17  2  0  0  0  0
  5  8  1  0  0  0  0
  5 22  1  0  0  0  0
  6 17  1  0  0  0  0
  6 18  1  0  0  0  0
  6 33  1  0  0  0  0
  7  8  1  0  0  0  0
  7  9  1  0  0  0  0
  7 10  1  0  0  0  0
  7 19  1  0  0  0  0
  8 20  1  0  0  0  0
  8 21  1  0  0  0  0
  9 23  1  0  0  0  0
  9 24  1  0  0  0  0
  9 25  1  0  0  0  0
 10 26  1  0  0  0  0
 10 27  1  0  0  0  0
 10 28  1  0  0  0  0
 11 12  2  0  0  0  0
 11 13  1  0  0  0  0
 12 15  1  0  0  0  0
 12 29  1  0  0  0  0
 13 16  2  0  0  0  0
 13 30  1  0  0  0  0
 14 15  2  0  0  0  0
 14 16  1  0  0  0  0
 14 17  1  0  0  0  0
 15 31  1  0  0  0  0
 16 32  1  0  0  0  0
 18 34  1  0  0  0  0
 18 35  1  0  0  0  0
 18 36  1  0  0  0  0
M  END
> <PUBCHEM_COMPOUND_CID>
17395745

> <PUBCHEM_CONFORMER_RMSD>
0.8

> <PUBCHEM_CONFORMER_DIVERSEORDER>
1
12
8
6
15
14
2
5
9
10
7
11
13
4
3

> <PUBCHEM_MMFF94_PARTIAL_CHARGES>
21
1 1.45
11 -0.01
12 -0.15
13 -0.15
14 0.09
15 -0.15
16 -0.15
17 0.54
18 0.3
2 -0.65
22 0.42
29 0.15
3 -0.65
30 0.15
31 0.15
32 0.15
33 0.37
4 -0.57
5 -0.91
6 -0.73
8 0.36

> <PUBCHEM_EFFECTIVE_ROTOR_COUNT>
6

> <PUBCHEM_PHARMACOPHORE_FEATURES>
7
1 2 acceptor
1 3 acceptor
1 4 acceptor
1 5 donor
1 6 donor
3 7 9 10 hydrophobe
6 11 12 13 14 15 16 rings

> <PUBCHEM_HEAVY_ATOM_COUNT>
18

> <PUBCHEM_ATOM_DEF_STEREO_COUNT>
0

> <PUBCHEM_ATOM_UDEF_STEREO_COUNT>
0

> <PUBCHEM_BOND_DEF_STEREO_COUNT>
0

> <PUBCHEM_BOND_UDEF_STEREO_COUNT>
0

> <PUBCHEM_ISOTOPIC_ATOM_COUNT>
0

> <PUBCHEM_COMPONENT_COUNT>
1

> <PUBCHEM_CACTVS_TAUTO_COUNT>
2

> <PUBCHEM_CONFORMER_ID>
0109702100000001

> <PUBCHEM_MMFF94_ENERGY>
22.6612

> <PUBCHEM_FEATURE_SELFOVERLAP>
35.538

> <PUBCHEM_SHAPE_FINGERPRINT>
10042902 136 18262235491415191183
11046707 91 18342177769324189497
11543360 7 18272081721758858836
12553582 1 18059022692029218603
12633257 1 16443336521473530051
12892183 10 15141222314306111359
12916754 54 18411695491655377404
13103583 49 17096071520608836003
13583140 156 17458914841762483728
1420 369 18411981325870925619
14251764 30 17631441277594410075
14576447 43 17775567529078355666
15209294 21 6843920547046440510
16752209 62 18130525067060034987
18186145 218 15769224838914456417
19026448 4 18260839236787042080
19141452 34 18114178593478181655
193927 3 18343013363627831875
19784866 140 17561366162760104555
200 152 17418096507515482705
20621476 21 17968644013126646878
20671657 53 17632303319947061629
20871999 31 17704077312914980271
21634736 98 17702940327697559566
23379529 103 18127958729089895866
23402539 116 17704075109359490857
23557571 272 18261953075872180500
23559900 14 18409739443057644680
270888 7 10015323316229619647
2838139 119 11527944526609139550
312423 11 18270948068729451004
3286 77 17531527560307699483
351380 3 18272930501295634259
4028521 119 11311783877445196175
5104073 3 17822578317319007586
633830 44 15840419496623568640
7970288 3 18268709411948929131

> <PUBCHEM_SHAPE_MULTIPOLES>
346.71
10.71
2.26
1.34
4.28
0.01
-0.05
8.89
0.21
-2.61
0.65
0.39
-0.22
0.27

> <PUBCHEM_SHAPE_SELFOVERLAP>
687.93

> <PUBCHEM_SHAPE_VOLUME>
207.8

> <PUBCHEM_COORDINATE_TYPE>
2
5
10

$$$$

