439785
  -OEChem-07051212472D

124127  0     1  0  0  0  0  0999 V2000
   14.3675    3.1892    0.0000 O   0  0  0  0  0  0  0  0  0  0  0  0
    8.9905    4.2285    0.0000 O   0  0  0  0  0  0  0  0  0  0  0  0
    8.9744    2.1369    0.0000 O   0  0  0  0  0  0  0  0  0  0  0  0
   12.6233    1.1200    0.0000 O   0  0  0  0  0  0  0  0  0  0  0  0
   17.2707    5.9064    0.0000 O   0  0  0  0  0  0  0  0  0  0  0  0
   18.5134    9.7085    0.0000 O   0  0  0  0  0  0  0  0  0  0  0  0
    9.8346    0.6336    0.0000 O   0  0  0  0  0  0  0  0  0  0  0  0
   14.3675    5.1892    0.0000 C   0  0  1  0  0  0  0  0  0  0  0  0
   14.3675    4.1892    0.0000 C   0  0  1  0  0  0  0  0  0  0  0  0
   15.3137    5.4940    0.0000 C   0  0  2  0  0  0  0  0  0  0  0  0
   12.6354    4.1892    0.0000 C   0  0  3  0  0  0  0  0  0  0  0  0
   11.7254    3.6824    0.0000 C   0  0  2  0  0  0  0  0  0  0  0  0
   13.5015    3.6892    0.0000 C   0  0  0  0  0  0  0  0  0  0  0  0
   13.5015    5.6892    0.0000 C   0  0  0  0  0  0  0  0  0  0  0  0
   15.3137    3.8845    0.0000 C   0  0  0  0  0  0  0  0  0  0  0  0
   12.6354    5.1892    0.0000 C   0  0  0  0  0  0  0  0  0  0  0  0
   15.8973    4.6892    0.0000 C   0  0  0  0  0  0  0  0  0  0  0  0
   11.7174    2.6408    0.0000 C   0  0  1  0  0  0  0  0  0  0  0  0
   15.6244    6.4445    0.0000 C   0  0  1  0  0  0  0  0  0  0  0  0
   14.3675    6.1892    0.0000 C   0  0  0  0  0  0  0  0  0  0  0  0
   10.7986    4.2464    0.0000 C   0  0  0  0  0  0  0  0  0  0  0  0
   13.5175    2.6477    0.0000 C   0  0  0  0  0  0  0  0  0  0  0  0
   10.7820    2.0910    0.0000 C   0  0  0  0  0  0  0  0  0  0  0  0
   11.7331    4.6823    0.0000 C   0  0  0  0  0  0  0  0  0  0  0  0
   12.6195    2.1199    0.0000 C   0  0  0  0  0  0  0  0  0  0  0  0
    9.8507    3.7185    0.0000 C   0  0  1  0  0  0  0  0  0  0  0  0
    9.8424    2.6335    0.0000 C   0  0  2  0  0  0  0  0  0  0  0  0
   16.6029    6.6507    0.0000 C   0  0  1  0  0  0  0  0  0  0  0  0
   14.9565    7.1888    0.0000 C   0  0  0  0  0  0  0  0  0  0  0  0
   16.9135    7.6012    0.0000 C   0  0  0  0  0  0  0  0  0  0  0  0
   17.8920    7.8074    0.0000 C   0  0  0  0  0  0  0  0  0  0  0  0
   18.2027    8.7579    0.0000 C   0  0  0  0  0  0  0  0  0  0  0  0
    8.9706    1.1369    0.0000 C   0  0  0  0  0  0  0  0  0  0  0  0
    8.1026    0.6402    0.0000 C   0  0  0  0  0  0  0  0  0  0  0  0
   19.1532    8.4473    0.0000 C   0  0  0  0  0  0  0  0  0  0  0  0
   17.2522    9.0686    0.0000 C   0  0  0  0  0  0  0  0  0  0  0  0
    8.0988   -0.3598    0.0000 C   0  0  0  0  0  0  0  0  0  0  0  0
    7.2308   -0.8564    0.0000 C   0  0  0  0  0  0  0  0  0  0  0  0
    7.2270   -1.8564    0.0000 C   0  0  0  0  0  0  0  0  0  0  0  0
    6.3590   -2.3531    0.0000 C   0  0  0  0  0  0  0  0  0  0  0  0
    6.3552   -3.3531    0.0000 C   0  0  0  0  0  0  0  0  0  0  0  0
    5.4872   -3.8497    0.0000 C   0  0  0  0  0  0  0  0  0  0  0  0
    5.4834   -4.8497    0.0000 C   0  0  0  0  0  0  0  0  0  0  0  0
    4.6154   -5.3464    0.0000 C   0  0  0  0  0  0  0  0  0  0  0  0
    4.6116   -6.3464    0.0000 C   0  0  0  0  0  0  0  0  0  0  0  0
    3.7436   -6.8430    0.0000 C   0  0  0  0  0  0  0  0  0  0  0  0
    3.7398   -7.8430    0.0000 C   0  0  0  0  0  0  0  0  0  0  0  0
    2.8718   -8.3397    0.0000 C   0  0  0  0  0  0  0  0  0  0  0  0
    2.8680   -9.3397    0.0000 C   0  0  0  0  0  0  0  0  0  0  0  0
    2.0000   -9.8363    0.0000 C   0  0  0  0  0  0  0  0  0  0  0  0
   16.1534    5.6258    0.0000 H   0  0  0  0  0  0  0  0  0  0  0  0
   13.3716    4.6142    0.0000 H   0  0  0  0  0  0  0  0  0  0  0  0
   13.9000    6.1642    0.0000 H   0  0  0  0  0  0  0  0  0  0  0  0
   13.1029    6.1642    0.0000 H   0  0  0  0  0  0  0  0  0  0  0  0
   15.0627    3.3176    0.0000 H   0  0  0  0  0  0  0  0  0  0  0  0
   15.8511    3.5753    0.0000 H   0  0  0  0  0  0  0  0  0  0  0  0
   12.4234    5.7718    0.0000 H   0  0  0  0  0  0  0  0  0  0  0  0
   12.0249    5.0816    0.0000 H   0  0  0  0  0  0  0  0  0  0  0  0
   16.3582    4.2745    0.0000 H   0  0  0  0  0  0  0  0  0  0  0  0
   16.3582    5.1039    0.0000 H   0  0  0  0  0  0  0  0  0  0  0  0
   11.7207    1.7908    0.0000 H   0  0  0  0  0  0  0  0  0  0  0  0
   15.8170    7.0338    0.0000 H   0  0  0  0  0  0  0  0  0  0  0  0
   14.9875    6.1892    0.0000 H   0  0  0  0  0  0  0  0  0  0  0  0
   14.3675    6.8092    0.0000 H   0  0  0  0  0  0  0  0  0  0  0  0
   13.7475    6.1892    0.0000 H   0  0  0  0  0  0  0  0  0  0  0  0
   11.2068    4.7131    0.0000 H   0  0  0  0  0  0  0  0  0  0  0  0
   10.4087    4.7285    0.0000 H   0  0  0  0  0  0  0  0  0  0  0  0
   14.0580    2.3439    0.0000 H   0  0  0  0  0  0  0  0  0  0  0  0
   10.3847    1.6151    0.0000 H   0  0  0  0  0  0  0  0  0  0  0  0
   11.1829    1.6182    0.0000 H   0  0  0  0  0  0  0  0  0  0  0  0
   12.3531    4.6776    0.0000 H   0  0  0  0  0  0  0  0  0  0  0  0
   11.7379    5.3023    0.0000 H   0  0  0  0  0  0  0  0  0  0  0  0
   11.1132    4.6871    0.0000 H   0  0  0  0  0  0  0  0  0  0  0  0
    9.8591    4.3384    0.0000 H   0  0  0  0  0  0  0  0  0  0  0  0
   14.9044    2.8792    0.0000 H   0  0  0  0  0  0  0  0  0  0  0  0
    9.3072    2.9466    0.0000 H   0  0  0  0  0  0  0  0  0  0  0  0
   17.2096    6.7785    0.0000 H   0  0  0  0  0  0  0  0  0  0  0  0
   15.4180    7.6028    0.0000 H   0  0  0  0  0  0  0  0  0  0  0  0
   14.5425    7.6502    0.0000 H   0  0  0  0  0  0  0  0  0  0  0  0
   14.4951    6.7747    0.0000 H   0  0  0  0  0  0  0  0  0  0  0  0
   16.8930    8.2209    0.0000 H   0  0  0  0  0  0  0  0  0  0  0  0
   16.2997    7.6886    0.0000 H   0  0  0  0  0  0  0  0  0  0  0  0
    8.9977    4.8484    0.0000 H   0  0  0  0  0  0  0  0  0  0  0  0
   17.8774    6.0342    0.0000 H   0  0  0  0  0  0  0  0  0  0  0  0
   17.9126    7.1878    0.0000 H   0  0  0  0  0  0  0  0  0  0  0  0
   18.5059    7.7201    0.0000 H   0  0  0  0  0  0  0  0  0  0  0  0
    7.8928    1.2237    0.0000 H   0  0  0  0  0  0  0  0  0  0  0  0
    7.4916    0.5349    0.0000 H   0  0  0  0  0  0  0  0  0  0  0  0
   17.4448    9.6579    0.0000 H   0  0  0  0  0  0  0  0  0  0  0  0
   16.6629    9.2612    0.0000 H   0  0  0  0  0  0  0  0  0  0  0  0
   17.0596    8.4793    0.0000 H   0  0  0  0  0  0  0  0  0  0  0  0
   18.9606    7.8580    0.0000 H   0  0  0  0  0  0  0  0  0  0  0  0
   19.7426    8.2547    0.0000 H   0  0  0  0  0  0  0  0  0  0  0  0
   19.3458    9.0366    0.0000 H   0  0  0  0  0  0  0  0  0  0  0  0
   19.1200    9.8363    0.0000 H   0  0  0  0  0  0  0  0  0  0  0  0
    8.3086   -0.9432    0.0000 H   0  0  0  0  0  0  0  0  0  0  0  0
    8.7097   -0.2545    0.0000 H   0  0  0  0  0  0  0  0  0  0  0  0
    7.0210   -0.2730    0.0000 H   0  0  0  0  0  0  0  0  0  0  0  0
    6.6198   -0.9617    0.0000 H   0  0  0  0  0  0  0  0  0  0  0  0
    7.4368   -2.4398    0.0000 H   0  0  0  0  0  0  0  0  0  0  0  0
    7.8379   -1.7511    0.0000 H   0  0  0  0  0  0  0  0  0  0  0  0
    6.1492   -1.7696    0.0000 H   0  0  0  0  0  0  0  0  0  0  0  0
    5.7480   -2.4584    0.0000 H   0  0  0  0  0  0  0  0  0  0  0  0
    6.5650   -3.9365    0.0000 H   0  0  0  0  0  0  0  0  0  0  0  0
    6.9661   -3.2478    0.0000 H   0  0  0  0  0  0  0  0  0  0  0  0
    5.2774   -3.2663    0.0000 H   0  0  0  0  0  0  0  0  0  0  0  0
    4.8762   -3.9550    0.0000 H   0  0  0  0  0  0  0  0  0  0  0  0
    5.6932   -5.4331    0.0000 H   0  0  0  0  0  0  0  0  0  0  0  0
    6.0943   -4.7444    0.0000 H   0  0  0  0  0  0  0  0  0  0  0  0
    4.4056   -4.7630    0.0000 H   0  0  0  0  0  0  0  0  0  0  0  0
    4.0044   -5.4517    0.0000 H   0  0  0  0  0  0  0  0  0  0  0  0
    4.8214   -6.9298    0.0000 H   0  0  0  0  0  0  0  0  0  0  0  0
    5.2225   -6.2411    0.0000 H   0  0  0  0  0  0  0  0  0  0  0  0
    3.5338   -6.2596    0.0000 H   0  0  0  0  0  0  0  0  0  0  0  0
    3.1326   -6.9483    0.0000 H   0  0  0  0  0  0  0  0  0  0  0  0
    3.9496   -8.4264    0.0000 H   0  0  0  0  0  0  0  0  0  0  0  0
    4.3507   -7.7377    0.0000 H   0  0  0  0  0  0  0  0  0  0  0  0
    2.6620   -7.7562    0.0000 H   0  0  0  0  0  0  0  0  0  0  0  0
    2.2608   -8.4450    0.0000 H   0  0  0  0  0  0  0  0  0  0  0  0
    3.0778   -9.9231    0.0000 H   0  0  0  0  0  0  0  0  0  0  0  0
    3.4789   -9.2344    0.0000 H   0  0  0  0  0  0  0  0  0  0  0  0
    1.6921   -9.2982    0.0000 H   0  0  0  0  0  0  0  0  0  0  0  0
    1.4619  -10.1442    0.0000 H   0  0  0  0  0  0  0  0  0  0  0  0
    2.3079  -10.3744    0.0000 H   0  0  0  0  0  0  0  0  0  0  0  0
  9  1  1  6  0  0  0
  1 75  1  0  0  0  0
 26  2  1  1  0  0  0
  2 83  1  0  0  0  0
 27  3  1  1  0  0  0
  3 33  1  0  0  0  0
  4 25  2  0  0  0  0
 28  5  1  1  0  0  0
  5 84  1  0  0  0  0
  6 32  1  0  0  0  0
  6 95  1  0  0  0  0
  7 33  2  0  0  0  0
  8  9  1  0  0  0  0
  8 10  1  0  0  0  0
  8 14  1  0  0  0  0
  8 20  1  1  0  0  0
  9 13  1  0  0  0  0
  9 15  1  0  0  0  0
 10 17  1  0  0  0  0
 10 19  1  0  0  0  0
 10 51  1  6  0  0  0
 11 12  1  0  0  0  0
 11 13  1  0  0  0  0
 11 16  1  0  0  0  0
 11 52  1  0  0  0  0
 12 18  1  0  0  0  0
 12 21  1  0  0  0  0
 12 24  1  1  0  0  0
 13 22  2  0  0  0  0
 14 16  1  0  0  0  0
 14 53  1  0  0  0  0
 14 54  1  0  0  0  0
 15 17  1  0  0  0  0
 15 55  1  0  0  0  0
 15 56  1  0  0  0  0
 16 57  1  0  0  0  0
 16 58  1  0  0  0  0
 17 59  1  0  0  0  0
 17 60  1  0  0  0  0
 18 23  1  0  0  0  0
 18 25  1  0  0  0  0
 18 61  1  1  0  0  0
 19 28  1  0  0  0  0
 19 29  1  6  0  0  0
 19 62  1  0  0  0  0
 20 63  1  0  0  0  0
 20 64  1  0  0  0  0
 20 65  1  0  0  0  0
 21 26  1  0  0  0  0
 21 66  1  0  0  0  0
 21 67  1  0  0  0  0
 22 25  1  0  0  0  0
 22 68  1  0  0  0  0
 23 27  1  0  0  0  0
 23 69  1  0  0  0  0
 23 70  1  0  0  0  0
 24 71  1  0  0  0  0
 24 72  1  0  0  0  0
 24 73  1  0  0  0  0
 26 27  1  0  0  0  0
 26 74  1  0  0  0  0
 27 76  1  0  0  0  0
 28 30  1  0  0  0  0
 28 77  1  0  0  0  0
 29 78  1  0  0  0  0
 29 79  1  0  0  0  0
 29 80  1  0  0  0  0
 30 31  1  0  0  0  0
 30 81  1  0  0  0  0
 30 82  1  0  0  0  0
 31 32  1  0  0  0  0
 31 85  1  0  0  0  0
 31 86  1  0  0  0  0
 32 35  1  0  0  0  0
 32 36  1  0  0  0  0
 33 34  1  0  0  0  0
 34 37  1  0  0  0  0
 34 87  1  0  0  0  0
 34 88  1  0  0  0  0
 35 92  1  0  0  0  0
 35 93  1  0  0  0  0
 35 94  1  0  0  0  0
 36 89  1  0  0  0  0
 36 90  1  0  0  0  0
 36 91  1  0  0  0  0
 37 38  1  0  0  0  0
 37 96  1  0  0  0  0
 37 97  1  0  0  0  0
 38 39  1  0  0  0  0
 38 98  1  0  0  0  0
 38 99  1  0  0  0  0
 39 40  1  0  0  0  0
 39100  1  0  0  0  0
 39101  1  0  0  0  0
 40 41  1  0  0  0  0
 40102  1  0  0  0  0
 40103  1  0  0  0  0
 41 42  1  0  0  0  0
 41104  1  0  0  0  0
 41105  1  0  0  0  0
 42 43  1  0  0  0  0
 42106  1  0  0  0  0
 42107  1  0  0  0  0
 43 44  1  0  0  0  0
 43108  1  0  0  0  0
 43109  1  0  0  0  0
 44 45  1  0  0  0  0
 44110  1  0  0  0  0
 44111  1  0  0  0  0
 45 46  1  0  0  0  0
 45112  1  0  0  0  0
 45113  1  0  0  0  0
 46 47  1  0  0  0  0
 46114  1  0  0  0  0
 46115  1  0  0  0  0
 47 48  1  0  0  0  0
 47116  1  0  0  0  0
 47117  1  0  0  0  0
 48 49  1  0  0  0  0
 48118  1  0  0  0  0
 48119  1  0  0  0  0
 49 50  1  0  0  0  0
 49120  1  0  0  0  0
 49121  1  0  0  0  0
 50122  1  0  0  0  0
 50123  1  0  0  0  0
 50124  1  0  0  0  0
M  END
> <PUBCHEM_COMPOUND_CID>
439785

> <PUBCHEM_COMPOUND_CANONICALIZED>
1

> <PUBCHEM_CACTVS_COMPLEXITY>
1150

> <PUBCHEM_CACTVS_HBOND_ACCEPTOR>
7

> <PUBCHEM_CACTVS_HBOND_DONOR>
4

> <PUBCHEM_CACTVS_ROTATABLE_BOND>
21

> <PUBCHEM_CACTVS_SUBSKEYS>
AAADcfB8OAAAAAAAAAAAAAAAAAAAAYAAAAAwYIAAAAAAAGCAAAAAGgAACAAAD1SggAICCAAABgCIAqDSCAAAAAAgAAAACAEAAEgBFBIAAQACUAAEgAALEQPK7PTPgAAAAAAAAADAAAYAADCAAYAADAAAAA==

> <PUBCHEM_IUPAC_OPENEYE_NAME>
[(2S,3R,5R,10R,13R,14S,17R)-17-[(1S,2R)-2,5-dihydroxy-1,5-dimethyl-hexyl]-2,14-dihydroxy-10,13-dimethyl-6-oxo-2,3,4,5,9,11,12,15,16,17-decahydro-1H-cyclopenta[a]phenanthren-3-yl] hexadecanoate

> <PUBCHEM_IUPAC_CAS_NAME>
hexadecanoic acid [(2S,3R,5R,10R,13R,14S,17R)-17-[(2S,3R)-3,6-dihydroxy-6-methylheptan-2-yl]-2,14-dihydroxy-10,13-dimethyl-6-oxo-2,3,4,5,9,11,12,15,16,17-decahydro-1H-cyclopenta[a]phenanthren-3-yl] ester

> <PUBCHEM_IUPAC_NAME>
[(2S,3R,5R,10R,13R,14S,17R)-17-[(2S,3R)-3,6-dihydroxy-6-methylheptan-2-yl]-2,14-dihydroxy-10,13-dimethyl-6-oxo-2,3,4,5,9,11,12,15,16,17-decahydro-1H-cyclopenta[a]phenanthren-3-yl] hexadecanoate

> <PUBCHEM_IUPAC_SYSTEMATIC_NAME>
[(2S,3R,5R,10R,13R,14S,17R)-10,13-dimethyl-17-[(2S,3R)-6-methyl-3,6-bis(oxidanyl)heptan-2-yl]-2,14-bis(oxidanyl)-6-oxidanylidene-2,3,4,5,9,11,12,15,16,17-decahydro-1H-cyclopenta[a]phenanthren-3-yl] hexadecanoate

> <PUBCHEM_IUPAC_TRADITIONAL_NAME>
palmitic acid [(2S,3R,5R,10R,13R,14S,17R)-17-[(1S,2R)-2,5-dihydroxy-1,5-dimethyl-hexyl]-2,14-dihydroxy-6-keto-10,13-dimethyl-2,3,4,5,9,11,12,15,16,17-decahydro-1H-cyclopenta[a]phenanthren-3-yl] ester

> <PUBCHEM_IUPAC_INCHI>
InChI=1S/C43H74O7/c1-7-8-9-10-11-12-13-14-15-16-17-18-19-20-39(47)50-38-28-34-36(45)27-33-32(41(34,5)29-37(38)46)21-25-42(6)31(22-26-43(33,42)49)30(2)35(44)23-24-40(3,4)48/h27,30-32,34-35,37-38,44,46,48-49H,7-26,28-29H2,1-6H3/t30-,31+,32?,34-,35+,37-,38+,41+,42+,43+/m0/s1

> <PUBCHEM_IUPAC_INCHIKEY>
GLFFUXFTPFZULM-AQHFZAGCSA-N

> <PUBCHEM_XLOGP3_AA>
9.6

> <PUBCHEM_EXACT_MASS>
702.543455

> <PUBCHEM_MOLECULAR_FORMULA>
C43H74O7

> <PUBCHEM_MOLECULAR_WEIGHT>
703.04346

> <PUBCHEM_OPENEYE_CAN_SMILES>
CCCCCCCCCCCCCCCC(=O)OC1CC2C(=O)C=C3C(C2(CC1O)C)CCC4(C3(CCC4C(C)C(CCC(C)(C)O)O)O)C

> <PUBCHEM_OPENEYE_ISO_SMILES>
CCCCCCCCCCCCCCCC(=O)O[C@@H]1C[C@H]2C(=O)C=C3C([C@]2(C[C@@H]1O)C)CC[C@]4([C@]3(CC[C@@H]4[C@H](C)[C@@H](CCC(C)(C)O)O)O)C

> <PUBCHEM_CACTVS_TPSA>
124

> <PUBCHEM_MONOISOTOPIC_WEIGHT>
702.543455

> <PUBCHEM_TOTAL_CHARGE>
0

> <PUBCHEM_HEAVY_ATOM_COUNT>
50

> <PUBCHEM_ATOM_DEF_STEREO_COUNT>
9

> <PUBCHEM_ATOM_UDEF_STEREO_COUNT>
1

> <PUBCHEM_BOND_DEF_STEREO_COUNT>
0

> <PUBCHEM_BOND_UDEF_STEREO_COUNT>
0

> <PUBCHEM_ISOTOPIC_ATOM_COUNT>
0

> <PUBCHEM_COMPONENT_COUNT>
1

> <PUBCHEM_CACTVS_TAUTO_COUNT>
5

> <PUBCHEM_COORDINATE_TYPE>
1
5
255

> <PUBCHEM_BONDANNOTATIONS>
9  1  6
10  51  6
11  52  3
12  24  5
18  61  5
19  29  6
26  2  5
27  3  5
28  5  5
8  20  5

$$$$

