13395
  -OEChem-06261209382D

 15 15  0     0  0  0  0  0  0999 V2000
    2.5369   -0.6900    0.0000 O   0  0  0  0  0  0  0  0  0  0  0  0
    6.0010   -0.6900    0.0000 N   0  0  0  0  0  0  0  0  0  0  0  0
    3.4030   -0.1900    0.0000 N   0  0  0  0  0  0  0  0  0  0  0  0
    5.1350   -0.1900    0.0000 C   0  0  0  0  0  0  0  0  0  0  0  0
    5.1350    0.8100    0.0000 C   0  0  0  0  0  0  0  0  0  0  0  0
    6.0010    1.3100    0.0000 C   0  0  0  0  0  0  0  0  0  0  0  0
    6.8671    0.8100    0.0000 C   0  0  0  0  0  0  0  0  0  0  0  0
    6.8671   -0.1900    0.0000 C   0  0  0  0  0  0  0  0  0  0  0  0
    4.2690   -0.6900    0.0000 C   0  0  0  0  0  0  0  0  0  0  0  0
    4.5981    1.1200    0.0000 H   0  0  0  0  0  0  0  0  0  0  0  0
    6.0010    1.9300    0.0000 H   0  0  0  0  0  0  0  0  0  0  0  0
    7.4040    1.1200    0.0000 H   0  0  0  0  0  0  0  0  0  0  0  0
    7.4040   -0.5000    0.0000 H   0  0  0  0  0  0  0  0  0  0  0  0
    4.2690   -1.3100    0.0000 H   0  0  0  0  0  0  0  0  0  0  0  0
    2.0000   -0.3800    0.0000 H   0  0  0  0  0  0  0  0  0  0  0  0
  1  3  1  0  0  0  0
  1 15  1  0  0  0  0
  2  4  1  0  0  0  0
  2  8  2  0  0  0  0
  3  9  2  3  0  0  0
  4  5  2  0  0  0  0
  4  9  1  0  0  0  0
  5  6  1  0  0  0  0
  5 10  1  0  0  0  0
  6  7  2  0  0  0  0
  6 11  1  0  0  0  0
  7  8  1  0  0  0  0
  7 12  1  0  0  0  0
  8 13  1  0  0  0  0
  9 14  1  0  0  0  0
M  END
> <PUBCHEM_COMPOUND_CID>
13395

> <PUBCHEM_COMPOUND_CANONICALIZED>
1

> <PUBCHEM_CACTVS_COMPLEXITY>
103

> <PUBCHEM_CACTVS_HBOND_ACCEPTOR>
3

> <PUBCHEM_CACTVS_HBOND_DONOR>
1

> <PUBCHEM_CACTVS_ROTATABLE_BOND>
1

> <PUBCHEM_CACTVS_SUBSKEYS>
AAADcYBjIAAAAAAAAAAAAAAAAAAAAAAAAAAsAAAAAAAAAAABgAAAHAAECAAACAjBFgQ8gJIYEACgATRnRACCgCAxAiAI2CA4ZJgIIOLAkZGEIAhggADIyAcQAAAAAAAAAAAAAAAAAAAAAAAAAAAAAAAAAA==

> <PUBCHEM_IUPAC_OPENEYE_NAME>
pyridine-2-carbaldehyde oxime

> <PUBCHEM_IUPAC_CAS_NAME>
2-pyridinecarboxaldehyde oxime

> <PUBCHEM_IUPAC_NAME>
N-(pyridin-2-ylmethylidene)hydroxylamine

> <PUBCHEM_IUPAC_SYSTEMATIC_NAME>
N-(pyridin-2-ylmethylidene)hydroxylamine

> <PUBCHEM_IUPAC_TRADITIONAL_NAME>
picolinaldehyde oxime

> <PUBCHEM_IUPAC_INCHI>
InChI=1S/C6H6N2O/c9-8-5-6-3-1-2-4-7-6/h1-5,9H

> <PUBCHEM_IUPAC_INCHIKEY>
MTFJSAGADRTKCI-UHFFFAOYSA-N

> <PUBCHEM_XLOGP3>
0.7

> <PUBCHEM_EXACT_MASS>
122.048013

> <PUBCHEM_MOLECULAR_FORMULA>
C6H6N2O

> <PUBCHEM_MOLECULAR_WEIGHT>
122.12464

> <PUBCHEM_OPENEYE_CAN_SMILES>
C1=CC=NC(=C1)C=NO

> <PUBCHEM_OPENEYE_ISO_SMILES>
C1=CC=NC(=C1)C=NO

> <PUBCHEM_CACTVS_TPSA>
45.5

> <PUBCHEM_MONOISOTOPIC_WEIGHT>
122.048013

> <PUBCHEM_TOTAL_CHARGE>
0

> <PUBCHEM_HEAVY_ATOM_COUNT>
9

> <PUBCHEM_ATOM_DEF_STEREO_COUNT>
0

> <PUBCHEM_ATOM_UDEF_STEREO_COUNT>
0

> <PUBCHEM_BOND_DEF_STEREO_COUNT>
0

> <PUBCHEM_BOND_UDEF_STEREO_COUNT>
1

> <PUBCHEM_ISOTOPIC_ATOM_COUNT>
0

> <PUBCHEM_COMPONENT_COUNT>
1

> <PUBCHEM_CACTVS_TAUTO_COUNT>
2

> <PUBCHEM_COORDINATE_TYPE>
1
5
255

> <PUBCHEM_BONDANNOTATIONS>
2  4  8
2  8  8
3  9  1
4  5  8
5  6  8
6  7  8
7  8  8

$$$$

