4126
  -OEChem-06251223542D

 91 92  0     1  0  0  0  0  0999 V2000
    5.8351    1.0689    0.0000 P   0  0  3  0  0  0  0  0  0  0  0  0
    4.9691    1.5689    0.0000 O   0  0  0  0  0  0  0  0  0  0  0  0
    5.9656    0.0774    0.0000 O   0  0  0  0  0  0  0  0  0  0  0  0
    5.0418    0.4601    0.0000 O   0  0  0  0  0  0  0  0  0  0  0  0
    6.5422   -1.0524    0.0000 O   0  0  0  0  0  0  0  0  0  0  0  0
    9.3706   -2.4667    0.0000 O   0  0  0  0  0  0  0  0  0  0  0  0
    2.5016    2.1733    0.0000 O   0  0  0  0  0  0  0  0  0  0  0  0
    6.8316   -3.5184    0.0000 O   0  0  0  0  0  0  0  0  0  0  0  0
   12.5272   -0.7243    0.0000 O   0  0  0  0  0  0  0  0  0  0  0  0
    4.0000    3.0421    0.0000 O   0  0  0  0  0  0  0  0  0  0  0  0
    7.5081    0.6206    0.0000 N   0  0  0  0  0  0  0  0  0  0  0  0
    8.9224   -0.7936    0.0000 N   0  0  0  0  0  0  0  0  0  0  0  0
   11.3025   -1.9490    0.0000 N   0  0  0  0  0  0  0  0  0  0  0  0
    5.9656   -2.0184    0.0000 N   0  0  0  0  0  0  0  0  0  0  0  0
    6.8010    1.3277    0.0000 C   0  0  3  0  0  0  0  0  0  0  0  0
    7.0598    2.2936    0.0000 C   0  0  0  0  0  0  0  0  0  0  0  0
    8.0258    2.5524    0.0000 C   0  0  0  0  0  0  0  0  0  0  0  0
    7.9564   -1.0524    0.0000 C   0  0  3  0  0  0  0  0  0  0  0  0
   10.5954   -1.2419    0.0000 C   0  0  3  0  0  0  0  0  0  0  0  0
    7.2493   -0.3453    0.0000 C   0  0  0  0  0  0  0  0  0  0  0  0
   10.8542   -0.2760    0.0000 C   0  0  0  0  0  0  0  0  0  0  0  0
    8.2846    3.5184    0.0000 C   0  0  0  0  0  0  0  0  0  0  0  0
    8.7329    1.8453    0.0000 C   0  0  0  0  0  0  0  0  0  0  0  0
    7.6976   -2.0184    0.0000 C   0  0  0  0  0  0  0  0  0  0  0  0
    4.0032    1.3101    0.0000 C   0  0  3  0  0  0  0  0  0  0  0  0
    9.6295   -1.5007    0.0000 C   0  0  0  0  0  0  0  0  0  0  0  0
    3.3675    0.4816    0.0000 C   0  0  0  0  0  0  0  0  0  0  0  0
   11.8201   -0.0172    0.0000 C   0  0  0  0  0  0  0  0  0  0  0  0
   10.1471    0.4311    0.0000 C   0  0  0  0  0  0  0  0  0  0  0  0
    6.8316   -2.5184    0.0000 C   0  0  0  0  0  0  0  0  0  0  0  0
    3.3675   -0.5184    0.0000 C   0  0  0  0  0  0  0  0  0  0  0  0
   12.2684   -1.6902    0.0000 C   0  0  0  0  0  0  0  0  0  0  0  0
   12.9755   -2.3973    0.0000 C   0  0  0  0  0  0  0  0  0  0  0  0
   13.9415   -2.1385    0.0000 C   0  0  0  0  0  0  0  0  0  0  0  0
    3.5016    2.1752    0.0000 C   0  0  0  0  0  0  0  0  0  0  0  0
    5.0995   -2.5184    0.0000 C   0  0  0  0  0  0  0  0  0  0  0  0
    4.2335   -2.0184    0.0000 C   0  0  0  0  0  0  0  0  0  0  0  0
    3.3675   -1.5184    0.0000 C   0  0  0  0  0  0  0  0  0  0  0  0
    4.2335   -0.0184    0.0000 C   0  0  0  0  0  0  0  0  0  0  0  0
    5.0995   -1.5184    0.0000 C   0  0  0  0  0  0  0  0  0  0  0  0
   14.6486   -2.8456    0.0000 C   0  0  0  0  0  0  0  0  0  0  0  0
   14.2003   -1.1726    0.0000 C   0  0  0  0  0  0  0  0  0  0  0  0
    5.0995   -0.5184    0.0000 C   0  0  0  0  0  0  0  0  0  0  0  0
    2.0000    3.0385    0.0000 C   0  0  0  0  0  0  0  0  0  0  0  0
    7.3999    1.4882    0.0000 H   0  0  0  0  0  0  0  0  0  0  0  0
    7.0058    2.9113    0.0000 H   0  0  0  0  0  0  0  0  0  0  0  0
    6.4422    2.3477    0.0000 H   0  0  0  0  0  0  0  0  0  0  0  0
    8.6247    2.7129    0.0000 H   0  0  0  0  0  0  0  0  0  0  0  0
    8.1070    0.7811    0.0000 H   0  0  0  0  0  0  0  0  0  0  0  0
    8.1169   -0.4536    0.0000 H   0  0  0  0  0  0  0  0  0  0  0  0
   11.1943   -1.0814    0.0000 H   0  0  0  0  0  0  0  0  0  0  0  0
   11.2926   -0.7144    0.0000 H   0  0  0  0  0  0  0  0  0  0  0  0
    8.2945    1.4069    0.0000 H   0  0  0  0  0  0  0  0  0  0  0  0
    9.1713    1.4069    0.0000 H   0  0  0  0  0  0  0  0  0  0  0  0
    9.1713    2.2837    0.0000 H   0  0  0  0  0  0  0  0  0  0  0  0
    8.8835    3.3579    0.0000 H   0  0  0  0  0  0  0  0  0  0  0  0
    8.4451    4.1172    0.0000 H   0  0  0  0  0  0  0  0  0  0  0  0
    7.6857    3.6788    0.0000 H   0  0  0  0  0  0  0  0  0  0  0  0
    7.8581   -2.6172    0.0000 H   0  0  0  0  0  0  0  0  0  0  0  0
    8.3176   -2.0184    0.0000 H   0  0  0  0  0  0  0  0  0  0  0  0
    9.0828   -0.1947    0.0000 H   0  0  0  0  0  0  0  0  0  0  0  0
    4.2399    1.8831    0.0000 H   0  0  0  0  0  0  0  0  0  0  0  0
    3.0119    0.9895    0.0000 H   0  0  0  0  0  0  0  0  0  0  0  0
    2.7762    0.2952    0.0000 H   0  0  0  0  0  0  0  0  0  0  0  0
   11.1420   -2.5479    0.0000 H   0  0  0  0  0  0  0  0  0  0  0  0
   11.9806   -0.6160    0.0000 H   0  0  0  0  0  0  0  0  0  0  0  0
   12.4190    0.1433    0.0000 H   0  0  0  0  0  0  0  0  0  0  0  0
   11.6597    0.5817    0.0000 H   0  0  0  0  0  0  0  0  0  0  0  0
   10.5855    0.8695    0.0000 H   0  0  0  0  0  0  0  0  0  0  0  0
    9.7087    0.8695    0.0000 H   0  0  0  0  0  0  0  0  0  0  0  0
    9.7087   -0.0073    0.0000 H   0  0  0  0  0  0  0  0  0  0  0  0
    6.5384   -0.1598    0.0000 H   0  0  0  0  0  0  0  0  0  0  0  0
   12.4677   -2.7529    0.0000 H   0  0  0  0  0  0  0  0  0  0  0  0
   13.2376   -2.9592    0.0000 H   0  0  0  0  0  0  0  0  0  0  0  0
   14.5403   -1.9780    0.0000 H   0  0  0  0  0  0  0  0  0  0  0  0
    4.7010   -2.9933    0.0000 H   0  0  0  0  0  0  0  0  0  0  0  0
    5.4981   -2.9933    0.0000 H   0  0  0  0  0  0  0  0  0  0  0  0
    5.9656   -1.3984    0.0000 H   0  0  0  0  0  0  0  0  0  0  0  0
    2.8306   -1.8284    0.0000 H   0  0  0  0  0  0  0  0  0  0  0  0
    4.2335    0.6016    0.0000 H   0  0  0  0  0  0  0  0  0  0  0  0
    5.6365   -1.8284    0.0000 H   0  0  0  0  0  0  0  0  0  0  0  0
   14.7991   -1.3330    0.0000 H   0  0  0  0  0  0  0  0  0  0  0  0
   14.3607   -0.5737    0.0000 H   0  0  0  0  0  0  0  0  0  0  0  0
   13.6014   -1.0121    0.0000 H   0  0  0  0  0  0  0  0  0  0  0  0
   14.2102   -3.2840    0.0000 H   0  0  0  0  0  0  0  0  0  0  0  0
   15.0870   -3.2840    0.0000 H   0  0  0  0  0  0  0  0  0  0  0  0
   15.0870   -2.4072    0.0000 H   0  0  0  0  0  0  0  0  0  0  0  0
    5.6365   -0.2084    0.0000 H   0  0  0  0  0  0  0  0  0  0  0  0
    2.5364    3.3494    0.0000 H   0  0  0  0  0  0  0  0  0  0  0  0
    1.6890    3.5748    0.0000 H   0  0  0  0  0  0  0  0  0  0  0  0
    1.4636    2.7275    0.0000 H   0  0  0  0  0  0  0  0  0  0  0  0
  1  2  1  0  0  0  0
  1  3  1  0  0  0  0
  1  4  2  0  0  0  0
  1 15  1  0  0  0  0
  2 25  1  0  0  0  0
  3 72  1  0  0  0  0
  5 20  2  0  0  0  0
  6 26  2  0  0  0  0
  7 35  1  0  0  0  0
  7 44  1  0  0  0  0
  8 30  2  0  0  0  0
  9 32  2  0  0  0  0
 10 35  2  0  0  0  0
 11 15  1  0  0  0  0
 11 20  1  0  0  0  0
 11 49  1  0  0  0  0
 12 18  1  0  0  0  0
 12 26  1  0  0  0  0
 12 61  1  0  0  0  0
 13 19  1  0  0  0  0
 13 32  1  0  0  0  0
 13 65  1  0  0  0  0
 14 30  1  0  0  0  0
 14 36  1  0  0  0  0
 14 78  1  0  0  0  0
 15 16  1  0  0  0  0
 15 45  1  0  0  0  0
 16 17  1  0  0  0  0
 16 46  1  0  0  0  0
 16 47  1  0  0  0  0
 17 22  1  0  0  0  0
 17 23  1  0  0  0  0
 17 48  1  0  0  0  0
 18 20  1  0  0  0  0
 18 24  1  0  0  0  0
 18 50  1  0  0  0  0
 19 21  1  0  0  0  0
 19 26  1  0  0  0  0
 19 51  1  0  0  0  0
 21 28  1  0  0  0  0
 21 29  1  0  0  0  0
 21 52  1  0  0  0  0
 22 56  1  0  0  0  0
 22 57  1  0  0  0  0
 22 58  1  0  0  0  0
 23 53  1  0  0  0  0
 23 54  1  0  0  0  0
 23 55  1  0  0  0  0
 24 30  1  0  0  0  0
 24 59  1  0  0  0  0
 24 60  1  0  0  0  0
 25 27  1  0  0  0  0
 25 35  1  0  0  0  0
 25 62  1  0  0  0  0
 27 31  1  0  0  0  0
 27 63  1  0  0  0  0
 27 64  1  0  0  0  0
 28 66  1  0  0  0  0
 28 67  1  0  0  0  0
 28 68  1  0  0  0  0
 29 69  1  0  0  0  0
 29 70  1  0  0  0  0
 29 71  1  0  0  0  0
 31 38  2  0  0  0  0
 31 39  1  0  0  0  0
 32 33  1  0  0  0  0
 33 34  1  0  0  0  0
 33 73  1  0  0  0  0
 33 74  1  0  0  0  0
 34 41  1  0  0  0  0
 34 42  1  0  0  0  0
 34 75  1  0  0  0  0
 36 37  1  0  0  0  0
 36 76  1  0  0  0  0
 36 77  1  0  0  0  0
 37 38  1  0  0  0  0
 37 40  2  0  0  0  0
 38 79  1  0  0  0  0
 39 43  2  0  0  0  0
 39 80  1  0  0  0  0
 40 43  1  0  0  0  0
 40 81  1  0  0  0  0
 41 85  1  0  0  0  0
 41 86  1  0  0  0  0
 41 87  1  0  0  0  0
 42 82  1  0  0  0  0
 42 83  1  0  0  0  0
 42 84  1  0  0  0  0
 43 88  1  0  0  0  0
 44 89  1  0  0  0  0
 44 90  1  0  0  0  0
 44 91  1  0  0  0  0
M  END
> <PUBCHEM_COMPOUND_CID>
4126

> <PUBCHEM_COMPOUND_CANONICALIZED>
1

> <PUBCHEM_CACTVS_COMPLEXITY>
1070

> <PUBCHEM_CACTVS_HBOND_ACCEPTOR>
9

> <PUBCHEM_CACTVS_HBOND_DONOR>
5

> <PUBCHEM_CACTVS_ROTATABLE_BOND>
10

> <PUBCHEM_CACTVS_SUBSKEYS>
AAADcfB7vAIAAAAAAAAAAAAAAAAAAAAAAAAwAAAAAAAAAAABAAAAHggQCCAADTzpmAYyCILABRCIQiHSGIKCAAAgAAAIiIHIBIgJYDqA0TGUIAhk1gGKiAedyPCOAAACAAAAAAAAAAQAAAAAAAAAAAAAAA==

> <PUBCHEM_IUPAC_OPENEYE_NAME>
methyl 5-hydroxy-6-isobutyl-9-[[3-methyl-2-(3-methylbutanoylamino)butanoyl]amino]-5,8,11-trioxo-4-oxa-7,12-diaza-5$l^{5}-phosphabicyclo[12.3.1]octadeca-1(18),14,16-triene-3-carboxylate

> <PUBCHEM_IUPAC_CAS_NAME>
5-hydroxy-9-[[3-methyl-2-[(3-methyl-1-oxobutyl)amino]-1-oxobutyl]amino]-6-(2-methylpropyl)-5,8,11-trioxo-4-oxa-7,12-diaza-5$l^{5}-phosphabicyclo[12.3.1]octadeca-1(18),14,16-triene-3-carboxylic acid methyl ester

> <PUBCHEM_IUPAC_NAME>
methyl 5-hydroxy-9-[[3-methyl-2-(3-methylbutanoylamino)butanoyl]amino]-6-(2-methylpropyl)-5,8,11-trioxo-4-oxa-7,12-diaza-5$l^{5}-phosphabicyclo[12.3.1]octadeca-1(18),14,16-triene-3-carboxylate

> <PUBCHEM_IUPAC_SYSTEMATIC_NAME>
methyl 9-[[3-methyl-2-(3-methylbutanoylamino)butanoyl]amino]-6-(2-methylpropyl)-5-oxidanyl-5,8,11-tris(oxidanylidene)-4-oxa-7,12-diaza-5$l^{5}-phosphabicyclo[12.3.1]octadeca-1(18),14,16-triene-3-carboxylate

> <PUBCHEM_IUPAC_TRADITIONAL_NAME>
5-hydroxy-6-isobutyl-9-[[2-(isovalerylamino)-3-methyl-butanoyl]amino]-5,8,11-triketo-4-oxa-7,12-diaza-5$l^{5}-phosphabicyclo[12.3.1]octadeca-1(18),14,16-triene-3-carboxylic acid methyl ester

> <PUBCHEM_IUPAC_INCHI>
InChI=1S/C30H47N4O9P/c1-17(2)11-25(36)33-27(19(5)6)29(38)32-22-15-24(35)31-16-21-10-8-9-20(13-21)14-23(30(39)42-7)43-44(40,41)26(12-18(3)4)34-28(22)37/h8-10,13,17-19,22-23,26-27H,11-12,14-16H2,1-7H3,(H,31,35)(H,32,38)(H,33,36)(H,34,37)(H,40,41)

> <PUBCHEM_IUPAC_INCHIKEY>
BOYAGOIPWLIWCX-UHFFFAOYSA-N

> <PUBCHEM_XLOGP3_AA>
2.2

> <PUBCHEM_EXACT_MASS>
638.308066

> <PUBCHEM_MOLECULAR_FORMULA>
C30H47N4O9P

> <PUBCHEM_MOLECULAR_WEIGHT>
638.689342

> <PUBCHEM_OPENEYE_CAN_SMILES>
CC(C)CC1NC(=O)C(CC(=O)NCC2=CC=CC(=C2)CC(OP1(=O)O)C(=O)OC)NC(=O)C(C(C)C)NC(=O)CC(C)C

> <PUBCHEM_OPENEYE_ISO_SMILES>
CC(C)CC1NC(=O)C(CC(=O)NCC2=CC=CC(=C2)CC(OP1(=O)O)C(=O)OC)NC(=O)C(C(C)C)NC(=O)CC(C)C

> <PUBCHEM_CACTVS_TPSA>
189

> <PUBCHEM_MONOISOTOPIC_WEIGHT>
638.308066

> <PUBCHEM_TOTAL_CHARGE>
0

> <PUBCHEM_HEAVY_ATOM_COUNT>
44

> <PUBCHEM_ATOM_DEF_STEREO_COUNT>
0

> <PUBCHEM_ATOM_UDEF_STEREO_COUNT>
4

> <PUBCHEM_BOND_DEF_STEREO_COUNT>
0

> <PUBCHEM_BOND_UDEF_STEREO_COUNT>
0

> <PUBCHEM_ISOTOPIC_ATOM_COUNT>
0

> <PUBCHEM_COMPONENT_COUNT>
1

> <PUBCHEM_CACTVS_TAUTO_COUNT>
36

> <PUBCHEM_COORDINATE_TYPE>
1
5
255

> <PUBCHEM_BONDANNOTATIONS>
18  12  3
15  16  3
19  21  3
25  35  3
31  38  8
31  39  8
37  38  8
37  40  8
39  43  8
40  43  8

$$$$

