3843
  -OEChem-06251223432D

 62 69  0     1  0  0  0  0  0999 V2000
    7.9431    2.8707    0.0000 O   0  0  0  0  0  0  0  0  0  0  0  0
   10.1484   -0.8312    0.0000 O   0  0  0  0  0  0  0  0  0  0  0  0
   11.9754    0.3444    0.0000 O   0  0  0  0  0  0  0  0  0  0  0  0
   11.2710   -1.2379    0.0000 O   0  0  0  0  0  0  0  0  0  0  0  0
    2.2291   -0.0099    0.0000 O   0  0  0  0  0  0  0  0  0  0  0  0
    7.0549   -0.4438    0.0000 N   0  0  0  0  0  0  0  0  0  0  0  0
    6.0549    1.2882    0.0000 N   0  0  0  0  0  0  0  0  0  0  0  0
    2.8660   -1.7076    0.0000 N   0  0  0  0  0  0  0  0  0  0  0  0
    8.4209    0.9222    0.0000 C   0  0  3  0  0  0  0  0  0  0  0  0
   10.2529    0.1634    0.0000 C   0  0  3  0  0  0  0  0  0  0  0  0
    8.6798    1.8881    0.0000 C   0  0  3  0  0  0  0  0  0  0  0  0
   10.5117    1.1293    0.0000 C   0  0  0  0  0  0  0  0  0  0  0  0
    6.0549   -0.4438    0.0000 C   0  0  0  0  0  0  0  0  0  0  0  0
    5.5549    0.4222    0.0000 C   0  0  0  0  0  0  0  0  0  0  0  0
    5.5481   -1.3538    0.0000 C   0  0  0  0  0  0  0  0  0  0  0  0
    4.5134    0.4382    0.0000 C   0  0  0  0  0  0  0  0  0  0  0  0
    8.1621   -0.0437    0.0000 C   0  0  0  0  0  0  0  0  0  0  0  0
    7.2009   -1.4269    0.0000 C   0  0  0  0  0  0  0  0  0  0  0  0
    5.2766    1.9061    0.0000 C   0  0  0  0  0  0  0  0  0  0  0  0
    4.5065   -1.3619    0.0000 C   0  0  0  0  0  0  0  0  0  0  0  0
    6.3501   -1.9406    0.0000 C   0  0  0  0  0  0  0  0  0  0  0  0
    3.9856   -0.4598    0.0000 C   0  0  0  0  0  0  0  0  0  0  0  0
    4.4063    1.4263    0.0000 C   0  0  0  0  0  0  0  0  0  0  0  0
   11.1664   -0.2434    0.0000 C   0  0  0  0  0  0  0  0  0  0  0  0
    3.8116   -2.1296    0.0000 C   0  0  0  0  0  0  0  0  0  0  0  0
    2.9734   -0.6777    0.0000 C   0  0  0  0  0  0  0  0  0  0  0  0
    8.1150   -1.9127    0.0000 C   0  0  0  0  0  0  0  0  0  0  0  0
    5.3129    2.9407    0.0000 C   0  0  0  0  0  0  0  0  0  0  0  0
    6.3546   -2.9758    0.0000 C   0  0  0  0  0  0  0  0  0  0  0  0
    3.5120    1.9477    0.0000 C   0  0  0  0  0  0  0  0  0  0  0  0
    9.2348   -1.2379    0.0000 C   0  0  0  0  0  0  0  0  0  0  0  0
    8.1433   -2.9475    0.0000 C   0  0  0  0  0  0  0  0  0  0  0  0
    7.2572   -3.4826    0.0000 C   0  0  0  0  0  0  0  0  0  0  0  0
    4.4309    3.4826    0.0000 C   0  0  0  0  0  0  0  0  0  0  0  0
    3.5244    2.9828    0.0000 C   0  0  0  0  0  0  0  0  0  0  0  0
    2.0000   -2.2076    0.0000 C   0  0  0  0  0  0  0  0  0  0  0  0
   12.8890   -0.0623    0.0000 C   0  0  0  0  0  0  0  0  0  0  0  0
    9.0599    2.3779    0.0000 H   0  0  0  0  0  0  0  0  0  0  0  0
   11.1030    0.9428    0.0000 H   0  0  0  0  0  0  0  0  0  0  0  0
   10.7238    1.7119    0.0000 H   0  0  0  0  0  0  0  0  0  0  0  0
    7.5632    0.1167    0.0000 H   0  0  0  0  0  0  0  0  0  0  0  0
    8.0016   -0.6426    0.0000 H   0  0  0  0  0  0  0  0  0  0  0  0
    8.7610   -0.2042    0.0000 H   0  0  0  0  0  0  0  0  0  0  0  0
    3.5008   -2.6661    0.0000 H   0  0  0  0  0  0  0  0  0  0  0  0
    4.3125   -2.4950    0.0000 H   0  0  0  0  0  0  0  0  0  0  0  0
    8.6420   -1.5861    0.0000 H   0  0  0  0  0  0  0  0  0  0  0  0
    5.8592    3.2338    0.0000 H   0  0  0  0  0  0  0  0  0  0  0  0
    5.8202   -3.2902    0.0000 H   0  0  0  0  0  0  0  0  0  0  0  0
    2.9725    1.6421    0.0000 H   0  0  0  0  0  0  0  0  0  0  0  0
    8.9826   -0.6715    0.0000 H   0  0  0  0  0  0  0  0  0  0  0  0
    8.6684   -1.4901    0.0000 H   0  0  0  0  0  0  0  0  0  0  0  0
    9.4870   -1.8043    0.0000 H   0  0  0  0  0  0  0  0  0  0  0  0
    8.6874   -3.2448    0.0000 H   0  0  0  0  0  0  0  0  0  0  0  0
    7.2670   -4.1026    0.0000 H   0  0  0  0  0  0  0  0  0  0  0  0
    4.4455    4.1025    0.0000 H   0  0  0  0  0  0  0  0  0  0  0  0
    2.9924    3.3013    0.0000 H   0  0  0  0  0  0  0  0  0  0  0  0
    1.6900   -1.6707    0.0000 H   0  0  0  0  0  0  0  0  0  0  0  0
    1.4631   -2.5176    0.0000 H   0  0  0  0  0  0  0  0  0  0  0  0
    2.3100   -2.7445    0.0000 H   0  0  0  0  0  0  0  0  0  0  0  0
   12.6368   -0.6287    0.0000 H   0  0  0  0  0  0  0  0  0  0  0  0
   13.4554   -0.3145    0.0000 H   0  0  0  0  0  0  0  0  0  0  0  0
   13.1412    0.5041    0.0000 H   0  0  0  0  0  0  0  0  0  0  0  0
  1  9  1  0  0  0  0
  1 11  1  0  0  0  0
  2 10  1  0  0  0  0
  2 31  1  0  0  0  0
  3 24  1  0  0  0  0
  3 37  1  0  0  0  0
  4 24  2  0  0  0  0
  5 26  2  0  0  0  0
  6  9  1  0  0  0  0
  6 13  1  0  0  0  0
  6 18  1  0  0  0  0
  7 11  1  0  0  0  0
  7 14  1  0  0  0  0
  7 19  1  0  0  0  0
  8 25  1  0  0  0  0
  8 26  1  0  0  0  0
  8 36  1  0  0  0  0
  9 10  1  0  0  0  0
  9 17  1  0  0  0  0
 10 12  1  0  0  0  0
 10 24  1  0  0  0  0
 11 12  1  0  0  0  0
 11 38  1  0  0  0  0
 12 39  1  0  0  0  0
 12 40  1  0  0  0  0
 13 14  2  0  0  0  0
 13 15  1  0  0  0  0
 14 16  1  0  0  0  0
 15 20  2  0  0  0  0
 15 21  1  0  0  0  0
 16 22  2  0  0  0  0
 16 23  1  0  0  0  0
 17 41  1  0  0  0  0
 17 42  1  0  0  0  0
 17 43  1  0  0  0  0
 18 21  1  0  0  0  0
 18 27  2  0  0  0  0
 19 23  1  0  0  0  0
 19 28  2  0  0  0  0
 20 22  1  0  0  0  0
 20 25  1  0  0  0  0
 21 29  2  0  0  0  0
 22 26  1  0  0  0  0
 23 30  2  0  0  0  0
 25 44  1  0  0  0  0
 25 45  1  0  0  0  0
 27 32  1  0  0  0  0
 27 46  1  0  0  0  0
 28 34  1  0  0  0  0
 28 47  1  0  0  0  0
 29 33  1  0  0  0  0
 29 48  1  0  0  0  0
 30 35  1  0  0  0  0
 30 49  1  0  0  0  0
 31 50  1  0  0  0  0
 31 51  1  0  0  0  0
 31 52  1  0  0  0  0
 32 33  2  0  0  0  0
 32 53  1  0  0  0  0
 33 54  1  0  0  0  0
 34 35  2  0  0  0  0
 34 55  1  0  0  0  0
 35 56  1  0  0  0  0
 36 57  1  0  0  0  0
 36 58  1  0  0  0  0
 36 59  1  0  0  0  0
 37 60  1  0  0  0  0
 37 61  1  0  0  0  0
 37 62  1  0  0  0  0
M  END
> <PUBCHEM_COMPOUND_CID>
3843

> <PUBCHEM_COMPOUND_CANONICALIZED>
1

> <PUBCHEM_CACTVS_COMPLEXITY>
1020

> <PUBCHEM_CACTVS_HBOND_ACCEPTOR>
5

> <PUBCHEM_CACTVS_HBOND_DONOR>
0

> <PUBCHEM_CACTVS_ROTATABLE_BOND>
3

> <PUBCHEM_CACTVS_SUBSKEYS>
AAADceB7OAAAAAAAAAAAAAAAAAAAAWLFiQAwYMAABYAWAFix/gAAHgAAAAAADEzhngYyyPMMFACoAyXyXAKCgCQlEiAI2CF4dNgLYP7AlZWfIQhnpgDayQf+icCeyAACQAASACCQAASAACQAQAAAAAAAAA==

> <PUBCHEM_IUPAC_INCHI>
InChI=1S/C29H25N3O5/c1-28-29(36-4,27(34)35-3)13-20(37-28)31-18-11-7-5-9-15(18)22-23-17(14-30(2)26(23)33)21-16-10-6-8-12-19(16)32(28)25(21)24(22)31/h5-12,20H,13-14H2,1-4H3

> <PUBCHEM_IUPAC_INCHIKEY>
QTYMDECKVKSGSM-UHFFFAOYSA-N

> <PUBCHEM_XLOGP3_AA>
3.5

> <PUBCHEM_EXACT_MASS>
495.179421

> <PUBCHEM_MOLECULAR_FORMULA>
C29H25N3O5

> <PUBCHEM_MOLECULAR_WEIGHT>
495.5259

> <PUBCHEM_OPENEYE_CAN_SMILES>
CC12C(CC(O1)N3C4=CC=CC=C4C5=C6C(=C7C8=CC=CC=C8N2C7=C53)CN(C6=O)C)(C(=O)OC)OC

> <PUBCHEM_OPENEYE_ISO_SMILES>
CC12C(CC(O1)N3C4=CC=CC=C4C5=C6C(=C7C8=CC=CC=C8N2C7=C53)CN(C6=O)C)(C(=O)OC)OC

> <PUBCHEM_CACTVS_TPSA>
74.9

> <PUBCHEM_MONOISOTOPIC_WEIGHT>
495.179421

> <PUBCHEM_TOTAL_CHARGE>
0

> <PUBCHEM_HEAVY_ATOM_COUNT>
37

> <PUBCHEM_ATOM_DEF_STEREO_COUNT>
0

> <PUBCHEM_ATOM_UDEF_STEREO_COUNT>
3

> <PUBCHEM_BOND_DEF_STEREO_COUNT>
0

> <PUBCHEM_BOND_UDEF_STEREO_COUNT>
0

> <PUBCHEM_ISOTOPIC_ATOM_COUNT>
0

> <PUBCHEM_COMPONENT_COUNT>
1

> <PUBCHEM_CACTVS_TAUTO_COUNT>
1

> <PUBCHEM_COORDINATE_TYPE>
1
5
255

> <PUBCHEM_BONDANNOTATIONS>
10  24  3
11  12  3
13  14  8
13  15  8
14  16  8
15  20  8
15  21  8
16  22  8
16  23  8
18  21  8
18  27  8
19  23  8
19  28  8
20  22  8
21  29  8
23  30  8
27  32  8
28  34  8
29  33  8
30  35  8
32  33  8
34  35  8
6  13  8
6  18  8
7  14  8
7  19  8
9  17  3

$$$$

