12304687
  -OEChem-07051213093D

 54 55  0     1  0  0  0  0  0999 V2000
   -0.2156    0.3474    0.6337 O   0  0  0  0  0  0  0  0  0  0  0  0
   -1.6228   -1.1172    1.7398 O   0  0  0  0  0  0  0  0  0  0  0  0
    2.5993   -2.6236   -0.9248 O   0  0  0  0  0  0  0  0  0  0  0  0
   -3.0279    0.2288   -0.9875 C   0  0  0  0  0  0  0  0  0  0  0  0
   -3.8620   -0.1138    0.2118 C   0  0  1  0  0  0  0  0  0  0  0  0
   -2.5519    0.5862    0.3841 C   0  0  1  0  0  0  0  0  0  0  0  0
   -2.3818   -0.9006   -1.7173 C   0  0  0  0  0  0  0  0  0  0  0  0
   -3.4390    1.3546   -1.8771 C   0  0  0  0  0  0  0  0  0  0  0  0
   -5.0822    0.6265    0.4962 C   0  0  0  0  0  0  0  0  0  0  0  0
   -1.4274   -0.1636    0.9999 C   0  0  0  0  0  0  0  0  0  0  0  0
   -6.3191    0.3910    0.0187 C   0  0  0  0  0  0  0  0  0  0  0  0
    0.9218   -0.3092    1.1777 C   0  0  1  0  0  0  0  0  0  0  0  0
   -7.4834    1.2563    0.4135 C   0  0  0  0  0  0  0  0  0  0  0  0
   -6.6502   -0.7272   -0.9288 C   0  0  0  0  0  0  0  0  0  0  0  0
    0.9917   -1.7324    0.6376 C   0  0  0  0  0  0  0  0  0  0  0  0
    2.1841    0.3526    0.6950 C   0  0  0  0  0  0  0  0  0  0  0  0
    2.9349   -0.4100   -0.1116 C   0  0  0  0  0  0  0  0  0  0  0  0
    2.2178   -1.6956   -0.2265 C   0  0  0  0  0  0  0  0  0  0  0  0
    2.4807    1.7468    1.1404 C   0  0  0  0  0  0  0  0  0  0  0  0
    4.2166   -0.1592   -0.8109 C   0  0  0  0  0  0  0  0  0  0  0  0
    5.4043   -0.6198   -0.0129 C   0  0  0  0  0  0  0  0  0  0  0  0
    6.4169    0.1806    0.3529 C   0  0  0  0  0  0  0  0  0  0  0  0
    6.4922    1.6393    0.0109 C   0  0  0  0  0  0  0  0  0  0  0  0
    7.2032    1.8622   -1.3147 C   0  0  0  0  0  0  0  0  0  0  0  0
   -3.9156   -1.1584    0.5043 H   0  0  0  0  0  0  0  0  0  0  0  0
   -2.5689    1.6375    0.6585 H   0  0  0  0  0  0  0  0  0  0  0  0
   -3.0146   -1.2306   -2.5486 H   0  0  0  0  0  0  0  0  0  0  0  0
   -1.4165   -0.5898   -2.1312 H   0  0  0  0  0  0  0  0  0  0  0  0
   -2.2077   -1.7764   -1.0829 H   0  0  0  0  0  0  0  0  0  0  0  0
   -2.5909    1.6869   -2.4864 H   0  0  0  0  0  0  0  0  0  0  0  0
   -4.2357    1.0366   -2.5584 H   0  0  0  0  0  0  0  0  0  0  0  0
   -3.7974    2.2321   -1.3277 H   0  0  0  0  0  0  0  0  0  0  0  0
   -4.9699    1.4602    1.1882 H   0  0  0  0  0  0  0  0  0  0  0  0
    0.8721   -0.2966    2.2735 H   0  0  0  0  0  0  0  0  0  0  0  0
   -7.1935    2.0564    1.1027 H   0  0  0  0  0  0  0  0  0  0  0  0
   -8.2526    0.6541    0.9081 H   0  0  0  0  0  0  0  0  0  0  0  0
   -7.9245    1.7248   -0.4724 H   0  0  0  0  0  0  0  0  0  0  0  0
   -5.7794   -1.3343   -1.1929 H   0  0  0  0  0  0  0  0  0  0  0  0
   -7.0635   -0.3230   -1.8587 H   0  0  0  0  0  0  0  0  0  0  0  0
   -7.3937   -1.3943   -0.4803 H   0  0  0  0  0  0  0  0  0  0  0  0
    1.1610   -2.4536    1.4435 H   0  0  0  0  0  0  0  0  0  0  0  0
    0.1379   -2.0337    0.0254 H   0  0  0  0  0  0  0  0  0  0  0  0
    2.5795    1.7816    2.2299 H   0  0  0  0  0  0  0  0  0  0  0  0
    3.4034    2.1377    0.7091 H   0  0  0  0  0  0  0  0  0  0  0  0
    1.6700    2.4208    0.8456 H   0  0  0  0  0  0  0  0  0  0  0  0
    4.2692    0.8906   -1.1095 H   0  0  0  0  0  0  0  0  0  0  0  0
    4.2228   -0.7081   -1.7617 H   0  0  0  0  0  0  0  0  0  0  0  0
    5.4497   -1.6709    0.2623 H   0  0  0  0  0  0  0  0  0  0  0  0
    7.2469   -0.2462    0.9096 H   0  0  0  0  0  0  0  0  0  0  0  0
    7.0576    2.1415    0.8059 H   0  0  0  0  0  0  0  0  0  0  0  0
    5.5162    2.1283    0.0041 H   0  0  0  0  0  0  0  0  0  0  0  0
    7.2947    2.9342   -1.5174 H   0  0  0  0  0  0  0  0  0  0  0  0
    8.2119    1.4353   -1.3012 H   0  0  0  0  0  0  0  0  0  0  0  0
    6.6521    1.4087   -2.1453 H   0  0  0  0  0  0  0  0  0  0  0  0
  1 10  1  0  0  0  0
  1 12  1  0  0  0  0
  2 10  2  0  0  0  0
  3 18  2  0  0  0  0
  4  5  1  0  0  0  0
  4  6  1  0  0  0  0
  4  7  1  0  0  0  0
  4  8  1  0  0  0  0
  5  6  1  0  0  0  0
  5  9  1  0  0  0  0
  5 25  1  0  0  0  0
  6 10  1  0  0  0  0
  6 26  1  0  0  0  0
  7 27  1  0  0  0  0
  7 28  1  0  0  0  0
  7 29  1  0  0  0  0
  8 30  1  0  0  0  0
  8 31  1  0  0  0  0
  8 32  1  0  0  0  0
  9 11  2  0  0  0  0
  9 33  1  0  0  0  0
 11 13  1  0  0  0  0
 11 14  1  0  0  0  0
 12 15  1  0  0  0  0
 12 16  1  0  0  0  0
 12 34  1  0  0  0  0
 13 35  1  0  0  0  0
 13 36  1  0  0  0  0
 13 37  1  0  0  0  0
 14 38  1  0  0  0  0
 14 39  1  0  0  0  0
 14 40  1  0  0  0  0
 15 18  1  0  0  0  0
 15 41  1  0  0  0  0
 15 42  1  0  0  0  0
 16 17  2  0  0  0  0
 16 19  1  0  0  0  0
 17 18  1  0  0  0  0
 17 20  1  0  0  0  0
 19 43  1  0  0  0  0
 19 44  1  0  0  0  0
 19 45  1  0  0  0  0
 20 21  1  0  0  0  0
 20 46  1  0  0  0  0
 20 47  1  0  0  0  0
 21 22  2  0  0  0  0
 21 48  1  0  0  0  0
 22 23  1  0  0  0  0
 22 49  1  0  0  0  0
 23 24  1  0  0  0  0
 23 50  1  0  0  0  0
 23 51  1  0  0  0  0
 24 52  1  0  0  0  0
 24 53  1  0  0  0  0
 24 54  1  0  0  0  0
M  END
> <PUBCHEM_COMPOUND_CID>
12304687

> <PUBCHEM_CONFORMER_RMSD>
1

> <PUBCHEM_CONFORMER_DIVERSEORDER>
1
55
170
145
182
135
44
183
36
50
77
65
166
148
192
131
102
101
152
144
189
158
48
195
111
71
173
129
96
51
186
47
88
83
132
163
97
164
68
91
82
64
33
176
114
35
141
43
178
112
127
93
174
167
171
180
151
140
136
67
123
133
165
105
147
193
149
28
41
157
185
81
76
134
184
172
177
98
122
32
137
79
89
119
188
92
38
118
179
53
194
181
21
169
12
142
124
153
66
187
10
3
63
103
106
52
46
191
45
27
73
57
20
78
175
120
80
59
61
168
16
139
130
121
113
143
60
104
54
109
31
161
87
99
29
72
85
154
100
37
162
156
18
110
58
2
117
95
115
190
70
9
138
69
108
13
107
25
5
150
34
75
49
6
74
62
90
160
155
128
7
146
17
39
84
94
159
11
56
19
4
42
116
24
22
15
23
30
86
26
14
126
125
8
40

> <PUBCHEM_MMFF94_PARTIAL_CHARGES>
28
1 -0.43
10 0.72
11 -0.28
12 0.42
13 0.14
14 0.14
15 0.06
16 -0.28
17 -0.12
18 0.49
19 0.14
2 -0.57
20 0.28
21 -0.29
22 -0.29
23 0.14
25 0.1
26 0.1
3 -0.57
33 0.15
4 -0.19
48 0.15
49 0.15
5 -0.06
6 -0.1
7 0.09
8 0.09
9 -0.19

> <PUBCHEM_EFFECTIVE_ROTOR_COUNT>
8

> <PUBCHEM_PHARMACOPHORE_FEATURES>
6
1 2 acceptor
1 24 hydrophobe
1 3 acceptor
3 11 13 14 hydrophobe
3 4 7 8 hydrophobe
5 12 15 16 17 18 rings

> <PUBCHEM_HEAVY_ATOM_COUNT>
24

> <PUBCHEM_ATOM_DEF_STEREO_COUNT>
3

> <PUBCHEM_ATOM_UDEF_STEREO_COUNT>
0

> <PUBCHEM_BOND_DEF_STEREO_COUNT>
1

> <PUBCHEM_BOND_UDEF_STEREO_COUNT>
0

> <PUBCHEM_ISOTOPIC_ATOM_COUNT>
0

> <PUBCHEM_COMPONENT_COUNT>
1

> <PUBCHEM_CACTVS_TAUTO_COUNT>
5

> <PUBCHEM_CONFORMER_ID>
00BBC12F00000001

> <PUBCHEM_MMFF94_ENERGY>
30.7273

> <PUBCHEM_FEATURE_SELFOVERLAP>
30.446

> <PUBCHEM_SHAPE_FINGERPRINT>
10 15 16200430243891264668
11646440 116 17203603804796677365
11796584 16 14273461362081152444
12166972 35 11383823866306994903
12236239 1 17240480338149344211
12730499 353 18413102879265590379
12788726 201 15936686073073152403
13073987 5 16916513673663195305
13533116 47 8935006962376986469
13540713 5 17534324924458681442
13685833 64 7132436821769690160
13911987 19 18261940857454691860
14617045 38 14201393893491391876
15183329 4 17313098657252902849
15439362 3 17898299294948966840
15537594 2 16660371406333668495
18335252 98 18409162200170539027
18608769 82 18272930493174711027
20157964 124 18272651264677028898
20281389 69 17060623304541948036
21150785 3 18040718065473191505
21267235 1 14779546764684184827
22224240 67 17346598564991032099
23035841 295 14418130729776414372
23402539 116 15626217997082541363
23559900 14 18261117326865287369
2838139 119 18059863818730565396
3004659 81 16515408464643382969
4073 2 18341607123322799731
4098825 35 18339643467978723937
4325135 7 17632580453075897647
4340502 62 16773799199736077682

> <PUBCHEM_SHAPE_MULTIPOLES>
476.3
19.24
1.79
1.43
1.09
0.29
-0.3
-8.88
-3.66
-1.95
-0.3
0.51
-0.08
-0.37

> <PUBCHEM_SHAPE_SELFOVERLAP>
974.834

> <PUBCHEM_SHAPE_VOLUME>
280

> <PUBCHEM_COORDINATE_TYPE>
2
5
10

$$$$

