7139
  -OEChem-06261201492D

 26 26  0     0  0  0  0  0  0999 V2000
    4.5981    2.3100    0.0000 O   0  0  0  0  0  0  0  0  0  0  0  0
    2.8660    1.3100    0.0000 O   0  0  0  0  0  0  0  0  0  0  0  0
    7.1962   -2.1900    0.0000 O   0  0  0  0  0  0  0  0  0  0  0  0
    5.4641   -2.1900    0.0000 O   0  0  0  0  0  0  0  0  0  0  0  0
    5.4641   -0.1900    0.0000 C   0  0  0  0  0  0  0  0  0  0  0  0
    5.4641    0.8100    0.0000 C   0  0  0  0  0  0  0  0  0  0  0  0
    6.3301   -0.6900    0.0000 C   0  0  0  0  0  0  0  0  0  0  0  0
    4.5981    1.3100    0.0000 C   0  0  0  0  0  0  0  0  0  0  0  0
    4.5981   -0.6900    0.0000 C   0  0  0  0  0  0  0  0  0  0  0  0
    3.7320    0.8100    0.0000 C   0  0  0  0  0  0  0  0  0  0  0  0
    3.7320   -0.1900    0.0000 C   0  0  0  0  0  0  0  0  0  0  0  0
    6.3301   -1.6900    0.0000 C   0  0  0  0  0  0  0  0  0  0  0  0
    5.4641    2.8100    0.0000 C   0  0  0  0  0  0  0  0  0  0  0  0
    2.0000    0.8100    0.0000 C   0  0  0  0  0  0  0  0  0  0  0  0
    6.0010    1.1200    0.0000 H   0  0  0  0  0  0  0  0  0  0  0  0
    6.9407   -0.7977    0.0000 H   0  0  0  0  0  0  0  0  0  0  0  0
    6.5422   -0.1074    0.0000 H   0  0  0  0  0  0  0  0  0  0  0  0
    4.5981   -1.3100    0.0000 H   0  0  0  0  0  0  0  0  0  0  0  0
    3.1951   -0.5000    0.0000 H   0  0  0  0  0  0  0  0  0  0  0  0
    5.7741    2.2731    0.0000 H   0  0  0  0  0  0  0  0  0  0  0  0
    6.0010    3.1200    0.0000 H   0  0  0  0  0  0  0  0  0  0  0  0
    5.1541    3.3469    0.0000 H   0  0  0  0  0  0  0  0  0  0  0  0
    1.6900    1.3469    0.0000 H   0  0  0  0  0  0  0  0  0  0  0  0
    1.4631    0.5000    0.0000 H   0  0  0  0  0  0  0  0  0  0  0  0
    2.3100    0.2731    0.0000 H   0  0  0  0  0  0  0  0  0  0  0  0
    7.1962   -2.8100    0.0000 H   0  0  0  0  0  0  0  0  0  0  0  0
  1  8  1  0  0  0  0
  1 13  1  0  0  0  0
  2 10  1  0  0  0  0
  2 14  1  0  0  0  0
  3 12  1  0  0  0  0
  3 26  1  0  0  0  0
  4 12  2  0  0  0  0
  5  6  2  0  0  0  0
  5  7  1  0  0  0  0
  5  9  1  0  0  0  0
  6  8  1  0  0  0  0
  6 15  1  0  0  0  0
  7 12  1  0  0  0  0
  7 16  1  0  0  0  0
  7 17  1  0  0  0  0
  8 10  2  0  0  0  0
  9 11  2  0  0  0  0
  9 18  1  0  0  0  0
 10 11  1  0  0  0  0
 11 19  1  0  0  0  0
 13 20  1  0  0  0  0
 13 21  1  0  0  0  0
 13 22  1  0  0  0  0
 14 23  1  0  0  0  0
 14 24  1  0  0  0  0
 14 25  1  0  0  0  0
M  END
> <PUBCHEM_COMPOUND_CID>
7139

> <PUBCHEM_COMPOUND_CANONICALIZED>
1

> <PUBCHEM_MOLECULAR_WEIGHT>
196.19988

> <PUBCHEM_MONOISOTOPIC_WEIGHT>
196.073559

> <PUBCHEM_EXACT_MASS>
196.073559

> <PUBCHEM_MOLECULAR_FORMULA>
C10H12O4

> <PUBCHEM_IUPAC_INCHI>
InChI=1S/C10H12O4/c1-13-8-4-3-7(6-10(11)12)5-9(8)14-2/h3-5H,6H2,1-2H3,(H,11,12)

> <PUBCHEM_IUPAC_INCHIKEY>
WUAXWQRULBZETB-UHFFFAOYSA-N

> <PUBCHEM_XLOGP3>
1

> <PUBCHEM_OPENEYE_CAN_SMILES>
COC1=C(C=C(C=C1)CC(=O)O)OC

> <PUBCHEM_OPENEYE_ISO_SMILES>
COC1=C(C=C(C=C1)CC(=O)O)OC

> <PUBCHEM_IUPAC_NAME>
2-(3,4-dimethoxyphenyl)acetic acid

> <PUBCHEM_IUPAC_OPENEYE_NAME>
2-(3,4-dimethoxyphenyl)acetic acid

> <PUBCHEM_IUPAC_CAS_NAME>
2-(3,4-dimethoxyphenyl)acetic acid

> <PUBCHEM_IUPAC_TRADITIONAL_NAME>
homoveratric acid

> <PUBCHEM_IUPAC_SYSTEMATIC_NAME>
2-(3,4-dimethoxyphenyl)ethanoic acid

> <PUBCHEM_CACTVS_HBOND_DONOR>
1

> <PUBCHEM_CACTVS_HBOND_ACCEPTOR>
4

> <PUBCHEM_CACTVS_ROTATABLE_BOND>
4

> <PUBCHEM_CACTVS_COMPLEXITY>
193

> <PUBCHEM_CACTVS_TPSA>
55.8

> <PUBCHEM_CACTVS_SUBSKEYS>
AAADccBwOAAAAAAAAAAAAAAAAAAAAAAAAAAwAAAAAAAAAAABAAAAGgAACAAADASAmAIyDoAABgCIAiDSCAACCAAgIAAIiAEGiIgNJjKENRqAcCIkwBEKqAeI7LzOIAABAAAAQABAAAIAAACAAAAAAAAAAA==

> <PUBCHEM_TOTAL_CHARGE>
0

> <PUBCHEM_HEAVY_ATOM_COUNT>
14

> <PUBCHEM_ATOM_DEF_STEREO_COUNT>
0

> <PUBCHEM_ATOM_UDEF_STEREO_COUNT>
0

> <PUBCHEM_BOND_DEF_STEREO_COUNT>
0

> <PUBCHEM_BOND_UDEF_STEREO_COUNT>
0

> <PUBCHEM_ISOTOPIC_ATOM_COUNT>
0

> <PUBCHEM_COMPONENT_COUNT>
1

> <PUBCHEM_CACTVS_TAUTO_COUNT>
1

> <PUBCHEM_COORDINATE_TYPE>
1
3

> <PUBCHEM_BONDANNOTATIONS>
10  11  8
5  6  8
5  9  8
6  8  8
8  10  8
9  11  8

$$$$

