12839
  -OEChem-06261207263D

 26 26  0     1  0  0  0  0  0999 V2000
   -1.9417   -2.4916    0.5477 Cl  0  0  0  0  0  0  0  0  0  0  0  0
    1.8793    0.4643   -0.3086 O   0  0  0  0  0  0  0  0  0  0  0  0
    3.2053    0.0368    1.5241 O   0  0  0  0  0  0  0  0  0  0  0  0
    3.8666    1.5067   -0.1158 N   0  0  0  0  0  0  0  0  0  0  0  0
    0.0075   -0.8225   -1.1606 C   0  0  0  0  0  0  0  0  0  0  0  0
    1.2424   -0.8104   -0.2418 C   0  0  1  0  0  0  0  0  0  0  0  0
   -1.1678   -0.1237   -0.5575 C   0  0  0  0  0  0  0  0  0  0  0  0
    2.2561   -1.8755   -0.6407 C   0  0  0  0  0  0  0  0  0  0  0  0
   -2.0988   -0.8026    0.2289 C   0  0  0  0  0  0  0  0  0  0  0  0
   -1.3214    1.2418   -0.7974 C   0  0  0  0  0  0  0  0  0  0  0  0
   -3.1830   -0.1158    0.7754 C   0  0  0  0  0  0  0  0  0  0  0  0
   -2.4058    1.9284   -0.2511 C   0  0  0  0  0  0  0  0  0  0  0  0
   -3.3366    1.2496    0.5352 C   0  0  0  0  0  0  0  0  0  0  0  0
    2.9978    0.6145    0.4622 C   0  0  0  0  0  0  0  0  0  0  0  0
   -0.2615   -1.8479   -1.4385 H   0  0  0  0  0  0  0  0  0  0  0  0
    0.2611   -0.3351   -2.1126 H   0  0  0  0  0  0  0  0  0  0  0  0
    0.9266   -0.9947    0.7935 H   0  0  0  0  0  0  0  0  0  0  0  0
    2.6992   -1.6456   -1.6164 H   0  0  0  0  0  0  0  0  0  0  0  0
    3.0819   -1.9644    0.0707 H   0  0  0  0  0  0  0  0  0  0  0  0
    1.7811   -2.8604   -0.7021 H   0  0  0  0  0  0  0  0  0  0  0  0
   -0.6045    1.7861   -1.4066 H   0  0  0  0  0  0  0  0  0  0  0  0
   -3.9172   -0.6301    1.3904 H   0  0  0  0  0  0  0  0  0  0  0  0
   -2.5251    2.9917   -0.4375 H   0  0  0  0  0  0  0  0  0  0  0  0
   -4.1807    1.7844    0.9606 H   0  0  0  0  0  0  0  0  0  0  0  0
    3.6499    1.9593   -0.9974 H   0  0  0  0  0  0  0  0  0  0  0  0
    4.7523    1.7400    0.3203 H   0  0  0  0  0  0  0  0  0  0  0  0
  1  9  1  0  0  0  0
  2  6  1  0  0  0  0
  2 14  1  0  0  0  0
  3 14  2  0  0  0  0
  4 14  1  0  0  0  0
  4 25  1  0  0  0  0
  4 26  1  0  0  0  0
  5  6  1  0  0  0  0
  5  7  1  0  0  0  0
  5 15  1  0  0  0  0
  5 16  1  0  0  0  0
  6  8  1  0  0  0  0
  6 17  1  0  0  0  0
  7  9  1  0  0  0  0
  7 10  2  0  0  0  0
  8 18  1  0  0  0  0
  8 19  1  0  0  0  0
  8 20  1  0  0  0  0
  9 11  2  0  0  0  0
 10 12  1  0  0  0  0
 10 21  1  0  0  0  0
 11 13  1  0  0  0  0
 11 22  1  0  0  0  0
 12 13  2  0  0  0  0
 12 23  1  0  0  0  0
 13 24  1  0  0  0  0
M  END
> <PUBCHEM_COMPOUND_CID>
12839

> <PUBCHEM_CONFORMER_RMSD>
0.6

> <PUBCHEM_CONFORMER_DIVERSEORDER>
1
38
61
63
56
33
39
64
23
60
43
12
49
58
31
15
2
54
32
57
48
34
46
40
4
5
26
45
6
25
7
24
3
42
36
30
55
14
62
44
20
27
18
37
35
22
16
9
8
59
10
50
29
41
19
17
21
51
53
52
47
28
13
11

> <PUBCHEM_MMFF94_PARTIAL_CHARGES>
19
1 -0.18
10 -0.15
11 -0.15
12 -0.15
13 -0.15
14 0.78
2 -0.43
21 0.15
22 0.15
23 0.15
24 0.15
25 0.37
26 0.37
3 -0.57
4 -0.8
5 0.14
6 0.28
7 -0.14
9 0.18

> <PUBCHEM_EFFECTIVE_ROTOR_COUNT>
4

> <PUBCHEM_PHARMACOPHORE_FEATURES>
3
1 3 acceptor
1 4 donor
6 7 9 10 11 12 13 rings

> <PUBCHEM_HEAVY_ATOM_COUNT>
14

> <PUBCHEM_ATOM_DEF_STEREO_COUNT>
0

> <PUBCHEM_ATOM_UDEF_STEREO_COUNT>
1

> <PUBCHEM_BOND_DEF_STEREO_COUNT>
0

> <PUBCHEM_BOND_UDEF_STEREO_COUNT>
0

> <PUBCHEM_ISOTOPIC_ATOM_COUNT>
0

> <PUBCHEM_COMPONENT_COUNT>
1

> <PUBCHEM_CACTVS_TAUTO_COUNT>
2

> <PUBCHEM_CONFORMER_ID>
0000322700000001

> <PUBCHEM_MMFF94_ENERGY>
33.4791

> <PUBCHEM_FEATURE_SELFOVERLAP>
15.223

> <PUBCHEM_SHAPE_FINGERPRINT>
10608611 8 18337107976853399557
11265709 11 17906448832199881099
122479 349 18261673778680862729
12251169 10 18272931596258703740
12382932 28 18412822469429738563
12696612 119 18273211980567052548
13380535 21 18335412478621092878
13764800 53 18186516592386152001
13897977 13 18339640014693486973
14648413 74 18263077889283886694
15219456 202 18335416919411483566
15775835 57 17676491644015822684
16945 1 18340757161852112743
17804303 29 18053651748904063606
18186145 218 18117554248340141237
20361792 2 15195562407479658935
20510252 161 18336822082956780185
20525323 117 18410580548088449927
20528008 55 18410574015701519031
20645464 45 18337673117498513687
20645476 183 14057000550870719957
20671657 53 10807938180354522878
20711985 344 8574436404792793007
20871998 184 18335692789989025759
20871999 31 7204480118304647057
21501502 16 18334299785585944975
21947302 44 18115588295473905862
23175994 123 17464518073103077038
23388829 49 17905886972866855863
23402539 116 18337399236604536591
23559900 14 18339072804200904702
27216 239 18042137465590213664
2748010 2 18127399271397663943
7097593 13 17987256558703589754
8030462 33 5689594961479439031
81228 2 18271517611985166203
90316 7 17775288287284536421
9882013 296 18201718405786867044

> <PUBCHEM_SHAPE_MULTIPOLES>
273.26
6.25
2.2
1.05
3.41
0.69
-0.09
-2.26
-1.85
-0.69
0.02
0.26
0.07
0.6

> <PUBCHEM_SHAPE_SELFOVERLAP>
551.07

> <PUBCHEM_SHAPE_VOLUME>
160.5

> <PUBCHEM_COORDINATE_TYPE>
2
5
10

$$$$

