5281621
  -OEChem-07051212583D

 54 57  0     1  0  0  0  0  0999 V2000
   -0.9632   -1.4607    0.5475 O   0  0  0  0  0  0  0  0  0  0  0  0
   -2.0627   -0.5967   -1.3203 O   0  0  0  0  0  0  0  0  0  0  0  0
   -1.0631   -5.2666   -0.9929 O   0  0  0  0  0  0  0  0  0  0  0  0
   -0.5392   -4.8681    1.8217 O   0  0  0  0  0  0  0  0  0  0  0  0
   -2.9156   -3.2082   -1.9989 O   0  0  0  0  0  0  0  0  0  0  0  0
   -0.1825   -0.8539    3.1123 O   0  0  0  0  0  0  0  0  0  0  0  0
    0.0710    0.9094   -0.5955 O   0  0  0  0  0  0  0  0  0  0  0  0
   -4.6365    0.3737   -1.0127 O   0  0  0  0  0  0  0  0  0  0  0  0
   -2.9606    4.4324    0.7777 O   0  0  0  0  0  0  0  0  0  0  0  0
    2.2118    3.6474    0.6327 O   0  0  0  0  0  0  0  0  0  0  0  0
   -0.3615    4.6491    0.9640 O   0  0  0  0  0  0  0  0  0  0  0  0
    4.7811   -1.2230    1.2930 O   0  0  0  0  0  0  0  0  0  0  0  0
    6.0622   -0.9455   -1.1573 O   0  0  0  0  0  0  0  0  0  0  0  0
   -1.5595   -4.1569   -0.2427 C   0  0  1  0  0  0  0  0  0  0  0  0
   -0.5388   -3.8284    0.8470 C   0  0  1  0  0  0  0  0  0  0  0  0
   -1.7740   -2.9660   -1.1771 C   0  0  2  0  0  0  0  0  0  0  0  0
   -0.8775   -2.4989    1.5254 C   0  0  1  0  0  0  0  0  0  0  0  0
   -2.0152   -1.6780   -0.3899 C   0  0  1  0  0  0  0  0  0  0  0  0
    0.1906   -2.0921    2.5355 C   0  0  0  0  0  0  0  0  0  0  0  0
   -2.2660    0.6487   -0.7999 C   0  0  0  0  0  0  0  0  0  0  0  0
   -1.1811    1.4394   -0.4200 C   0  0  0  0  0  0  0  0  0  0  0  0
   -3.5651    1.1333   -0.6468 C   0  0  0  0  0  0  0  0  0  0  0  0
   -1.3964    2.7096    0.1099 C   0  0  0  0  0  0  0  0  0  0  0  0
   -2.6960    3.1987    0.2646 C   0  0  0  0  0  0  0  0  0  0  0  0
   -3.7795    2.4058   -0.1157 C   0  0  0  0  0  0  0  0  0  0  0  0
   -0.2350    3.5239    0.4998 C   0  0  0  0  0  0  0  0  0  0  0  0
    1.1685    1.6667   -0.2174 C   0  0  0  0  0  0  0  0  0  0  0  0
    1.0984    2.9078    0.2975 C   0  0  0  0  0  0  0  0  0  0  0  0
    2.4506    0.9817   -0.4602 C   0  0  0  0  0  0  0  0  0  0  0  0
    3.0205    0.1925    0.5391 C   0  0  0  0  0  0  0  0  0  0  0  0
    3.0949    1.1218   -1.6897 C   0  0  0  0  0  0  0  0  0  0  0  0
    4.2337   -0.4562    0.3092 C   0  0  0  0  0  0  0  0  0  0  0  0
    4.3083    0.4733   -1.9196 C   0  0  0  0  0  0  0  0  0  0  0  0
    4.8777   -0.3158   -0.9201 C   0  0  0  0  0  0  0  0  0  0  0  0
   -2.5120   -4.4802    0.1951 H   0  0  0  0  0  0  0  0  0  0  0  0
    0.4653   -3.7916    0.4067 H   0  0  0  0  0  0  0  0  0  0  0  0
   -0.9165   -2.8525   -1.8509 H   0  0  0  0  0  0  0  0  0  0  0  0
   -1.8386   -2.5592    2.0539 H   0  0  0  0  0  0  0  0  0  0  0  0
   -2.9785   -1.7228    0.1368 H   0  0  0  0  0  0  0  0  0  0  0  0
    1.1661   -1.9613    2.0570 H   0  0  0  0  0  0  0  0  0  0  0  0
    0.2892   -2.8290    3.3377 H   0  0  0  0  0  0  0  0  0  0  0  0
   -0.9246   -6.0005   -0.3699 H   0  0  0  0  0  0  0  0  0  0  0  0
   -1.4242   -4.9031    2.2232 H   0  0  0  0  0  0  0  0  0  0  0  0
   -3.6889   -3.3112   -1.4183 H   0  0  0  0  0  0  0  0  0  0  0  0
   -0.2603   -0.2056    2.3914 H   0  0  0  0  0  0  0  0  0  0  0  0
   -4.7914    2.7860    0.0047 H   0  0  0  0  0  0  0  0  0  0  0  0
   -5.4534    0.8703   -0.8338 H   0  0  0  0  0  0  0  0  0  0  0  0
    2.5271    0.0818    1.5019 H   0  0  0  0  0  0  0  0  0  0  0  0
    2.6630    1.7329   -2.4786 H   0  0  0  0  0  0  0  0  0  0  0  0
   -2.1374    4.8878    1.0111 H   0  0  0  0  0  0  0  0  0  0  0  0
    3.0155    3.1347    0.4500 H   0  0  0  0  0  0  0  0  0  0  0  0
    4.8047    0.5864   -2.8796 H   0  0  0  0  0  0  0  0  0  0  0  0
    5.3940   -1.8670    0.9031 H   0  0  0  0  0  0  0  0  0  0  0  0
    6.4981   -1.1509   -0.3147 H   0  0  0  0  0  0  0  0  0  0  0  0
  1 17  1  0  0  0  0
  1 18  1  0  0  0  0
  2 18  1  0  0  0  0
  2 20  1  0  0  0  0
  3 14  1  0  0  0  0
  3 42  1  0  0  0  0
  4 15  1  0  0  0  0
  4 43  1  0  0  0  0
  5 16  1  0  0  0  0
  5 44  1  0  0  0  0
  6 19  1  0  0  0  0
  6 45  1  0  0  0  0
  7 21  1  0  0  0  0
  7 27  1  0  0  0  0
  8 22  1  0  0  0  0
  8 47  1  0  0  0  0
  9 24  1  0  0  0  0
  9 50  1  0  0  0  0
 10 28  1  0  0  0  0
 10 51  1  0  0  0  0
 11 26  2  0  0  0  0
 12 32  1  0  0  0  0
 12 53  1  0  0  0  0
 13 34  1  0  0  0  0
 13 54  1  0  0  0  0
 14 15  1  0  0  0  0
 14 16  1  0  0  0  0
 14 35  1  0  0  0  0
 15 17  1  0  0  0  0
 15 36  1  0  0  0  0
 16 18  1  0  0  0  0
 16 37  1  0  0  0  0
 17 19  1  0  0  0  0
 17 38  1  0  0  0  0
 18 39  1  0  0  0  0
 19 40  1  0  0  0  0
 19 41  1  0  0  0  0
 20 21  1  0  0  0  0
 20 22  2  0  0  0  0
 21 23  2  0  0  0  0
 22 25  1  0  0  0  0
 23 24  1  0  0  0  0
 23 26  1  0  0  0  0
 24 25  2  0  0  0  0
 25 46  1  0  0  0  0
 26 28  1  0  0  0  0
 27 28  2  0  0  0  0
 27 29  1  0  0  0  0
 29 30  2  0  0  0  0
 29 31  1  0  0  0  0
 30 32  1  0  0  0  0
 30 48  1  0  0  0  0
 31 33  2  0  0  0  0
 31 49  1  0  0  0  0
 32 34  2  0  0  0  0
 33 34  1  0  0  0  0
 33 52  1  0  0  0  0
M  END
> <PUBCHEM_COMPOUND_CID>
5281621

> <PUBCHEM_CONFORMER_RMSD>
0.8

> <PUBCHEM_CONFORMER_DIVERSEORDER>
1
132
107
116
135
118
122
25
72
30
65
3
60
11
6
80
133
76
91
88
136
142
90
74
119
121
85
93
125
82
134
137
127
110
19
141
143
138
117
103
33
5
43
139
124
120
62
99
44
71
36
96
114
126
100
10
131
61
94
104
109
12
92
53
15
77
20
79
23
75
50
38
18
64
66
112
57
105
69
97
4
17
129
8
7
111
78
34
89
2
47
84
37
67
29
9
95
101
46
113
28
106
87
42
140
54
59
22
55
45
98
58
39
102
130
73
83
51
21
24
41
63
128
52
123
40
115
14
31
68
70
56
27
49
86
16
108
32
48
81
35
26
13

> <PUBCHEM_MMFF94_PARTIAL_CHARGES>
47
1 -0.56
10 -0.53
11 -0.57
12 -0.53
13 -0.53
14 0.28
15 0.28
16 0.28
17 0.28
18 0.56
19 0.28
2 -0.36
20 0.08
21 0.08
22 0.08
23 0.09
24 0.08
25 -0.15
26 0.47
27 0.05
28 0.09
29 0.03
3 -0.68
30 -0.15
31 -0.15
32 0.08
33 -0.15
34 0.08
4 -0.68
42 0.4
43 0.4
44 0.4
45 0.4
46 0.15
47 0.45
48 0.15
49 0.15
5 -0.68
50 0.45
51 0.45
52 0.15
53 0.45
54 0.45
6 -0.68
7 -0.16
8 -0.53
9 -0.53

> <PUBCHEM_EFFECTIVE_ROTOR_COUNT>
5.2

> <PUBCHEM_PHARMACOPHORE_FEATURES>
21
1 1 acceptor
1 10 donor
1 11 acceptor
1 12 donor
1 13 donor
1 2 acceptor
1 3 acceptor
1 3 donor
1 4 acceptor
1 4 donor
1 5 acceptor
1 5 donor
1 6 acceptor
1 6 donor
1 7 acceptor
1 8 donor
1 9 donor
6 1 14 15 16 17 18 rings
6 20 21 22 23 24 25 rings
6 29 30 31 32 33 34 rings
6 7 21 23 26 27 28 rings

> <PUBCHEM_HEAVY_ATOM_COUNT>
34

> <PUBCHEM_ATOM_DEF_STEREO_COUNT>
5

> <PUBCHEM_ATOM_UDEF_STEREO_COUNT>
0

> <PUBCHEM_BOND_DEF_STEREO_COUNT>
0

> <PUBCHEM_BOND_UDEF_STEREO_COUNT>
0

> <PUBCHEM_ISOTOPIC_ATOM_COUNT>
0

> <PUBCHEM_COMPONENT_COUNT>
1

> <PUBCHEM_CACTVS_TAUTO_COUNT>
435

> <PUBCHEM_CONFORMER_ID>
0050975500000001

> <PUBCHEM_MMFF94_ENERGY>
112.1907

> <PUBCHEM_FEATURE_SELFOVERLAP>
106.666

> <PUBCHEM_SHAPE_FINGERPRINT>
1100329 8 18337966597241126037
11445158 3 17772437241123923157
11513181 2 16817741430389125495
11578080 2 17170118027890679985
12156800 1 15798830455869719445
12202916 173 16610852370493773370
12788726 201 18340475678111485006
133893 2 17264960071188936309
14251757 5 18339909438487337414
14659021 117 18337684018473761496
15297060 5 17972329678712077706
19319366 153 17917716828791756714
20028762 73 18187363230036688453
20775438 99 17395332055887258831
21133410 32 16484425168388443610
3178227 256 18411407420315879457
3383291 50 18410572889951284090
3411729 13 17765985491485698601
5309563 4 17328585016642429534
5385378 56 17759230092076512177
6287921 2 17328319441492392986
9709674 26 18048885086935128085

> <PUBCHEM_SHAPE_MULTIPOLES>
623.4
7.83
7.03
1.88
10.32
3.66
-0.8
-1.38
3.53
-6.11
-1.79
0.35
1.56
-1.07

> <PUBCHEM_SHAPE_SELFOVERLAP>
1373.941

> <PUBCHEM_SHAPE_VOLUME>
330.9

> <PUBCHEM_COORDINATE_TYPE>
2
5
10

$$$$

