197189
  -OEChem-07051213112D

 73 75  0     1  0  0  0  0  0999 V2000
    8.5991    2.2785    0.0000 O   0  0  0  0  0  0  0  0  0  0  0  0
    6.8671   -0.7215    0.0000 O   0  0  0  0  0  0  0  0  0  0  0  0
    6.8671    1.2785    0.0000 O   0  0  0  0  0  0  0  0  0  0  0  0
    6.8671    2.2785    0.0000 O   0  0  0  0  0  0  0  0  0  0  0  0
    6.8671   -2.4535    0.0000 O   0  0  0  0  0  0  0  0  0  0  0  0
    8.5991    4.2785    0.0000 O   0  0  0  0  0  0  0  0  0  0  0  0
    5.1350    4.2785    0.0000 O   0  0  0  0  0  0  0  0  0  0  0  0
    4.8672   -4.1856    0.0000 O   0  0  0  0  0  0  0  0  0  0  0  0
    4.2690    2.7785    0.0000 O   0  0  0  0  0  0  0  0  0  0  0  0
    3.4030    1.2785    0.0000 O   0  0  0  0  0  0  0  0  0  0  0  0
   10.3312    1.2785    0.0000 N   0  0  0  0  0  0  0  0  0  0  0  0
    9.0992   -1.5874    0.0000 N   0  0  0  0  0  0  0  0  0  0  0  0
    6.8671    5.2785    0.0000 N   0  0  0  0  0  0  0  0  0  0  0  0
    4.8671   -0.7214    0.0000 N   0  0  0  0  0  0  0  0  0  0  0  0
    6.3671   -5.0516    0.0000 N   0  0  0  0  0  0  0  0  0  0  0  0
    2.5369    2.7785    0.0000 N   0  0  0  0  0  0  0  0  0  0  0  0
    8.5991    1.2785    0.0000 C   0  0  2  0  0  0  0  0  0  0  0  0
    7.7331   -0.2215    0.0000 C   0  0  1  0  0  0  0  0  0  0  0  0
    7.7331    0.7785    0.0000 C   0  0  2  0  0  0  0  0  0  0  0  0
    9.4651    0.7785    0.0000 C   0  0  1  0  0  0  0  0  0  0  0  0
    8.5991   -0.7215    0.0000 C   0  0  2  0  0  0  0  0  0  0  0  0
    9.4651   -0.2215    0.0000 C   0  0  0  0  0  0  0  0  0  0  0  0
    7.7331    2.7785    0.0000 C   0  0  1  0  0  0  0  0  0  0  0  0
    6.3672   -1.5875    0.0000 C   0  0  1  0  0  0  0  0  0  0  0  0
    7.7331    3.7785    0.0000 C   0  0  1  0  0  0  0  0  0  0  0  0
    6.8671    4.2785    0.0000 C   0  0  2  0  0  0  0  0  0  0  0  0
    5.3671   -1.5875    0.0000 C   0  0  1  0  0  0  0  0  0  0  0  0
    6.0010    3.7785    0.0000 C   0  0  1  0  0  0  0  0  0  0  0  0
    6.0010    2.7785    0.0000 C   0  0  1  0  0  0  0  0  0  0  0  0
    4.8671   -2.4536    0.0000 C   0  0  0  0  0  0  0  0  0  0  0  0
    5.3672   -3.3196    0.0000 C   0  0  1  0  0  0  0  0  0  0  0  0
    6.3671   -3.3195    0.0000 C   0  0  1  0  0  0  0  0  0  0  0  0
    5.1350    2.2785    0.0000 C   0  0  0  0  0  0  0  0  0  0  0  0
    6.8671   -4.1856    0.0000 C   0  0  0  0  0  0  0  0  0  0  0  0
    3.4030    2.2785    0.0000 C   0  0  0  0  0  0  0  0  0  0  0  0
    8.0622    1.5885    0.0000 H   0  0  0  0  0  0  0  0  0  0  0  0
    7.7331   -0.8415    0.0000 H   0  0  0  0  0  0  0  0  0  0  0  0
    7.1962    0.4685    0.0000 H   0  0  0  0  0  0  0  0  0  0  0  0
   10.0021    0.4685    0.0000 H   0  0  0  0  0  0  0  0  0  0  0  0
    8.1607   -1.1599    0.0000 H   0  0  0  0  0  0  0  0  0  0  0  0
    9.6772   -0.8041    0.0000 H   0  0  0  0  0  0  0  0  0  0  0  0
   10.0757   -0.1138    0.0000 H   0  0  0  0  0  0  0  0  0  0  0  0
    7.7331    2.1585    0.0000 H   0  0  0  0  0  0  0  0  0  0  0  0
    6.0571   -1.0506    0.0000 H   0  0  0  0  0  0  0  0  0  0  0  0
    8.2700    3.4685    0.0000 H   0  0  0  0  0  0  0  0  0  0  0  0
    6.3301    4.5885    0.0000 H   0  0  0  0  0  0  0  0  0  0  0  0
    4.7471   -1.5875    0.0000 H   0  0  0  0  0  0  0  0  0  0  0  0
    5.4641    3.4685    0.0000 H   0  0  0  0  0  0  0  0  0  0  0  0
    6.0010    2.1585    0.0000 H   0  0  0  0  0  0  0  0  0  0  0  0
   10.8681    0.9685    0.0000 H   0  0  0  0  0  0  0  0  0  0  0  0
   10.3312    1.8985    0.0000 H   0  0  0  0  0  0  0  0  0  0  0  0
    4.3921   -2.0550    0.0000 H   0  0  0  0  0  0  0  0  0  0  0  0
    4.3922   -2.8521    0.0000 H   0  0  0  0  0  0  0  0  0  0  0  0
    9.7191   -1.5875    0.0000 H   0  0  0  0  0  0  0  0  0  0  0  0
    8.7892   -2.1244    0.0000 H   0  0  0  0  0  0  0  0  0  0  0  0
    5.6772   -3.8565    0.0000 H   0  0  0  0  0  0  0  0  0  0  0  0
    6.9871   -3.3195    0.0000 H   0  0  0  0  0  0  0  0  0  0  0  0
    6.3301    0.9685    0.0000 H   0  0  0  0  0  0  0  0  0  0  0  0
    4.7365    1.8036    0.0000 H   0  0  0  0  0  0  0  0  0  0  0  0
    5.5335    1.8036    0.0000 H   0  0  0  0  0  0  0  0  0  0  0  0
    7.3420   -4.5841    0.0000 H   0  0  0  0  0  0  0  0  0  0  0  0
    7.3420   -3.7870    0.0000 H   0  0  0  0  0  0  0  0  0  0  0  0
    6.3301    5.5885    0.0000 H   0  0  0  0  0  0  0  0  0  0  0  0
    7.4040    5.5885    0.0000 H   0  0  0  0  0  0  0  0  0  0  0  0
    4.2471   -0.7214    0.0000 H   0  0  0  0  0  0  0  0  0  0  0  0
    5.1771   -0.1845    0.0000 H   0  0  0  0  0  0  0  0  0  0  0  0
    8.5991    4.8985    0.0000 H   0  0  0  0  0  0  0  0  0  0  0  0
    5.1350    4.8985    0.0000 H   0  0  0  0  0  0  0  0  0  0  0  0
    4.2471   -4.1856    0.0000 H   0  0  0  0  0  0  0  0  0  0  0  0
    6.6771   -5.5885    0.0000 H   0  0  0  0  0  0  0  0  0  0  0  0
    5.7471   -5.0516    0.0000 H   0  0  0  0  0  0  0  0  0  0  0  0
    2.0000    2.4685    0.0000 H   0  0  0  0  0  0  0  0  0  0  0  0
    2.5369    3.3985    0.0000 H   0  0  0  0  0  0  0  0  0  0  0  0
 17  1  1  1  0  0  0
 23  1  1  1  0  0  0
 18  2  1  1  0  0  0
 24  2  1  1  0  0  0
 19  3  1  6  0  0  0
  3 58  1  0  0  0  0
  4 23  1  0  0  0  0
  4 29  1  0  0  0  0
  5 24  1  0  0  0  0
  5 32  1  0  0  0  0
 25  6  1  1  0  0  0
  6 67  1  0  0  0  0
 28  7  1  1  0  0  0
  7 68  1  0  0  0  0
 31  8  1  1  0  0  0
  8 69  1  0  0  0  0
  9 33  1  0  0  0  0
  9 35  1  0  0  0  0
 10 35  2  0  0  0  0
 20 11  1  6  0  0  0
 11 50  1  0  0  0  0
 11 51  1  0  0  0  0
 21 12  1  6  0  0  0
 12 54  1  0  0  0  0
 12 55  1  0  0  0  0
 26 13  1  6  0  0  0
 13 63  1  0  0  0  0
 13 64  1  0  0  0  0
 27 14  1  1  0  0  0
 14 65  1  0  0  0  0
 14 66  1  0  0  0  0
 15 34  1  0  0  0  0
 15 70  1  0  0  0  0
 15 71  1  0  0  0  0
 16 35  1  0  0  0  0
 16 72  1  0  0  0  0
 16 73  1  0  0  0  0
 17 19  1  0  0  0  0
 17 20  1  0  0  0  0
 17 36  1  0  0  0  0
 18 19  1  0  0  0  0
 18 21  1  0  0  0  0
 18 37  1  0  0  0  0
 19 38  1  0  0  0  0
 20 22  1  0  0  0  0
 20 39  1  0  0  0  0
 21 22  1  0  0  0  0
 21 40  1  0  0  0  0
 22 41  1  0  0  0  0
 22 42  1  0  0  0  0
 23 25  1  0  0  0  0
 23 43  1  0  0  0  0
 24 27  1  0  0  0  0
 24 44  1  0  0  0  0
 25 26  1  0  0  0  0
 25 45  1  0  0  0  0
 26 28  1  0  0  0  0
 26 46  1  0  0  0  0
 27 30  1  0  0  0  0
 27 47  1  0  0  0  0
 28 29  1  0  0  0  0
 28 48  1  0  0  0  0
 29 33  1  6  0  0  0
 29 49  1  0  0  0  0
 30 31  1  0  0  0  0
 30 52  1  0  0  0  0
 30 53  1  0  0  0  0
 31 32  1  0  0  0  0
 31 56  1  0  0  0  0
 32 34  1  6  0  0  0
 32 57  1  0  0  0  0
 33 59  1  0  0  0  0
 33 60  1  0  0  0  0
 34 61  1  0  0  0  0
 34 62  1  0  0  0  0
M  END
> <PUBCHEM_COMPOUND_CID>
197189

> <PUBCHEM_COMPOUND_CANONICALIZED>
1

> <PUBCHEM_CACTVS_COMPLEXITY>
711

> <PUBCHEM_CACTVS_HBOND_ACCEPTOR>
15

> <PUBCHEM_CACTVS_HBOND_DONOR>
10

> <PUBCHEM_CACTVS_ROTATABLE_BOND>
8

> <PUBCHEM_CACTVS_SUBSKEYS>
AAADcfB7vAAAAAAAAAAAAAAAAAAAAAAAAAA0SIAAAAAAAAAAAAAAHgAQCAAACDzxgAcACABABgAIAAAAGAAAAAAAAAAAAIAAAAETEAIAwAArQAAHEAAHAAHwcA0AAAAAAAAAAAAAgAAUCACgAAAAAAAAAA==

> <PUBCHEM_IUPAC_OPENEYE_NAME>
[(2R,3S,4S,5R,6S)-4-amino-6-[(1S,2S,3R,4S,6R)-4,6-diamino-3-[(2R,3R,5S,6R)-3-amino-6-(aminomethyl)-5-hydroxy-tetrahydropyran-2-yl]oxy-2-hydroxy-cyclohexoxy]-3,5-dihydroxy-tetrahydropyran-2-yl]methyl carbamate

> <PUBCHEM_IUPAC_CAS_NAME>
carbamic acid [(2R,3S,4S,5R,6S)-4-amino-6-[(1S,2S,3R,4S,6R)-4,6-diamino-3-[[(2R,3R,5S,6R)-3-amino-6-(aminomethyl)-5-hydroxy-2-oxanyl]oxy]-2-hydroxycyclohexyl]oxy-3,5-dihydroxy-2-oxanyl]methyl ester

> <PUBCHEM_IUPAC_NAME>
[(2R,3S,4S,5R,6S)-4-amino-6-[(1S,2S,3R,4S,6R)-4,6-diamino-3-[(2R,3R,5S,6R)-3-amino-6-(aminomethyl)-5-hydroxyoxan-2-yl]oxy-2-hydroxycyclohexyl]oxy-3,5-dihydroxyoxan-2-yl]methyl carbamate

> <PUBCHEM_IUPAC_SYSTEMATIC_NAME>
[(2R,3S,4S,5R,6S)-6-[(1S,2S,3R,4S,6R)-3-[(2R,3R,5S,6R)-6-(aminomethyl)-3-azanyl-5-oxidanyl-oxan-2-yl]oxy-4,6-bis(azanyl)-2-oxidanyl-cyclohexyl]oxy-4-azanyl-3,5-bis(oxidanyl)oxan-2-yl]methyl carbamate

> <PUBCHEM_IUPAC_TRADITIONAL_NAME>
carbamic acid [(2R,3S,4S,5R,6S)-4-amino-6-[(1S,2S,3R,4S,6R)-4,6-diamino-3-[(2R,3R,5S,6R)-3-amino-6-(aminomethyl)-5-hydroxy-tetrahydropyran-2-yl]oxy-2-hydroxy-cyclohexoxy]-3,5-dihydroxy-tetrahydropyran-2-yl]methyl ester

> <PUBCHEM_IUPAC_INCHI>
InChI=1S/C19H38N6O10/c20-3-9-8(26)2-7(23)17(32-9)34-15-5(21)1-6(22)16(14(15)29)35-18-13(28)11(24)12(27)10(33-18)4-31-19(25)30/h5-18,26-29H,1-4,20-24H2,(H2,25,30)/t5-,6+,7+,8-,9+,10+,11-,12+,13+,14-,15+,16-,17+,18+/m0/s1

> <PUBCHEM_IUPAC_INCHIKEY>
YPPFEJHOHNPKLT-PBSUHMDJSA-N

> <PUBCHEM_XLOGP3_AA>
-6.8

> <PUBCHEM_EXACT_MASS>
510.264941

> <PUBCHEM_MOLECULAR_FORMULA>
C19H38N6O10

> <PUBCHEM_MOLECULAR_WEIGHT>
510.53922

> <PUBCHEM_OPENEYE_CAN_SMILES>
C1C(C(C(C(C1N)OC2C(C(C(C(O2)COC(=O)N)O)N)O)O)OC3C(CC(C(O3)CN)O)N)N

> <PUBCHEM_OPENEYE_ISO_SMILES>
C1[C@@H]([C@H]([C@@H]([C@H]([C@@H]1N)O[C@@H]2[C@@H]([C@H]([C@@H]([C@H](O2)COC(=O)N)O)N)O)O)O[C@@H]3[C@@H](C[C@@H]([C@H](O3)CN)O)N)N

> <PUBCHEM_CACTVS_TPSA>
300

> <PUBCHEM_MONOISOTOPIC_WEIGHT>
510.264941

> <PUBCHEM_TOTAL_CHARGE>
0

> <PUBCHEM_HEAVY_ATOM_COUNT>
35

> <PUBCHEM_ATOM_DEF_STEREO_COUNT>
14

> <PUBCHEM_ATOM_UDEF_STEREO_COUNT>
0

> <PUBCHEM_BOND_DEF_STEREO_COUNT>
0

> <PUBCHEM_BOND_UDEF_STEREO_COUNT>
0

> <PUBCHEM_ISOTOPIC_ATOM_COUNT>
0

> <PUBCHEM_COMPONENT_COUNT>
1

> <PUBCHEM_CACTVS_TAUTO_COUNT>
2

> <PUBCHEM_COORDINATE_TYPE>
1
5
255

> <PUBCHEM_BONDANNOTATIONS>
17  1  5
23  1  5
20  11  6
21  12  6
26  13  6
27  14  5
18  2  5
24  2  5
29  33  6
19  3  6
32  34  6
25  6  5
28  7  5
31  8  5

$$$$

