5281494
  -OEChem-07051212572D

 71 72  0     1  0  0  0  0  0999 V2000
    9.1271   -2.6420    0.0000 O   0  0  0  0  0  0  0  0  0  0  0  0
    8.0622    0.0950    0.0000 O   0  0  0  0  0  0  0  0  0  0  0  0
   12.3923   -3.4050    0.0000 O   0  0  0  0  0  0  0  0  0  0  0  0
    7.2932   -3.0890    0.0000 O   0  0  0  0  0  0  0  0  0  0  0  0
    8.9282    1.5950    0.0000 O   0  0  0  0  0  0  0  0  0  0  0  0
    5.4641    1.5950    0.0000 O   0  0  0  0  0  0  0  0  0  0  0  0
   13.2583   -1.9050    0.0000 O   0  0  0  0  0  0  0  0  0  0  0  0
    6.3301    4.0950    0.0000 O   0  0  0  0  0  0  0  0  0  0  0  0
    4.5981    0.0950    0.0000 O   0  0  0  0  0  0  0  0  0  0  0  0
    2.8660    3.0950    0.0000 O   0  0  0  0  0  0  0  0  0  0  0  0
    8.9282   -1.4050    0.0000 C   0  0  2  0  0  0  0  0  0  0  0  0
    8.9282   -0.4050    0.0000 C   0  0  1  0  0  0  0  0  0  0  0  0
    9.7942   -1.9050    0.0000 C   0  0  1  0  0  0  0  0  0  0  0  0
    9.7942    0.0950    0.0000 C   0  0  0  0  0  0  0  0  0  0  0  0
    7.9564   -1.6142    0.0000 C   0  0  0  0  0  0  0  0  0  0  0  0
    9.7942   -2.9050    0.0000 C   0  0  0  0  0  0  0  0  0  0  0  0
   10.6603   -0.4050    0.0000 C   0  0  0  0  0  0  0  0  0  0  0  0
   10.6603   -3.4050    0.0000 C   0  0  0  0  0  0  0  0  0  0  0  0
    8.0364   -2.4199    0.0000 C   0  0  0  0  0  0  0  0  0  0  0  0
   11.5263   -2.9050    0.0000 C   0  0  2  0  0  0  0  0  0  0  0  0
   11.5263   -1.9050    0.0000 C   0  0  0  0  0  0  0  0  0  0  0  0
   10.6603   -1.4050    0.0000 C   0  0  0  0  0  0  0  0  0  0  0  0
    7.0895   -1.1157    0.0000 C   0  0  0  0  0  0  0  0  0  0  0  0
   11.5263    0.0950    0.0000 C   0  0  0  0  0  0  0  0  0  0  0  0
   10.6603   -4.4050    0.0000 C   0  0  0  0  0  0  0  0  0  0  0  0
    8.0622    1.0950    0.0000 C   0  0  0  0  0  0  0  0  0  0  0  0
    7.1962    1.5950    0.0000 C   0  0  0  0  0  0  0  0  0  0  0  0
   13.2583   -2.9050    0.0000 C   0  0  0  0  0  0  0  0  0  0  0  0
    6.3301    1.0950    0.0000 C   0  0  0  0  0  0  0  0  0  0  0  0
    7.1962    2.5950    0.0000 C   0  0  0  0  0  0  0  0  0  0  0  0
   14.1244   -3.4050    0.0000 C   0  0  0  0  0  0  0  0  0  0  0  0
    6.3301    3.0950    0.0000 C   0  0  0  0  0  0  0  0  0  0  0  0
    4.5981    1.0950    0.0000 C   0  0  0  0  0  0  0  0  0  0  0  0
    3.7320    1.5950    0.0000 C   0  0  0  0  0  0  0  0  0  0  0  0
    3.7320    2.5950    0.0000 C   0  0  0  0  0  0  0  0  0  0  0  0
    2.8660    1.0950    0.0000 C   0  0  0  0  0  0  0  0  0  0  0  0
    2.0000    1.5950    0.0000 C   0  0  0  0  0  0  0  0  0  0  0  0
    8.2669   -0.8709    0.0000 H   0  0  0  0  0  0  0  0  0  0  0  0
    8.9282    0.2150    0.0000 H   0  0  0  0  0  0  0  0  0  0  0  0
   10.5304   -1.4800    0.0000 H   0  0  0  0  0  0  0  0  0  0  0  0
   10.1928    0.5699    0.0000 H   0  0  0  0  0  0  0  0  0  0  0  0
    9.3957    0.5699    0.0000 H   0  0  0  0  0  0  0  0  0  0  0  0
    9.3193   -3.3035    0.0000 H   0  0  0  0  0  0  0  0  0  0  0  0
   12.0632   -2.5950    0.0000 H   0  0  0  0  0  0  0  0  0  0  0  0
   12.1369   -2.0127    0.0000 H   0  0  0  0  0  0  0  0  0  0  0  0
   11.7383   -1.3224    0.0000 H   0  0  0  0  0  0  0  0  0  0  0  0
   10.0497   -1.2972    0.0000 H   0  0  0  0  0  0  0  0  0  0  0  0
    7.0884   -0.4957    0.0000 H   0  0  0  0  0  0  0  0  0  0  0  0
    6.5531   -1.4266    0.0000 H   0  0  0  0  0  0  0  0  0  0  0  0
   11.8363   -0.4419    0.0000 H   0  0  0  0  0  0  0  0  0  0  0  0
   12.0632    0.4050    0.0000 H   0  0  0  0  0  0  0  0  0  0  0  0
   11.2163    0.6319    0.0000 H   0  0  0  0  0  0  0  0  0  0  0  0
   10.0403   -4.4050    0.0000 H   0  0  0  0  0  0  0  0  0  0  0  0
   10.6603   -5.0250    0.0000 H   0  0  0  0  0  0  0  0  0  0  0  0
   11.2803   -4.4050    0.0000 H   0  0  0  0  0  0  0  0  0  0  0  0
    5.9316    0.6201    0.0000 H   0  0  0  0  0  0  0  0  0  0  0  0
    6.7287    0.6201    0.0000 H   0  0  0  0  0  0  0  0  0  0  0  0
    7.7331    2.9050    0.0000 H   0  0  0  0  0  0  0  0  0  0  0  0
   13.8144   -3.9419    0.0000 H   0  0  0  0  0  0  0  0  0  0  0  0
   14.6613   -3.7150    0.0000 H   0  0  0  0  0  0  0  0  0  0  0  0
   14.4344   -2.8681    0.0000 H   0  0  0  0  0  0  0  0  0  0  0  0
    5.7196    3.2027    0.0000 H   0  0  0  0  0  0  0  0  0  0  0  0
    6.1181    2.5124    0.0000 H   0  0  0  0  0  0  0  0  0  0  0  0
    5.7932    4.4050    0.0000 H   0  0  0  0  0  0  0  0  0  0  0  0
    4.3426    2.4873    0.0000 H   0  0  0  0  0  0  0  0  0  0  0  0
    3.9441    3.1776    0.0000 H   0  0  0  0  0  0  0  0  0  0  0  0
    2.8660    0.4750    0.0000 H   0  0  0  0  0  0  0  0  0  0  0  0
    2.3100    2.1319    0.0000 H   0  0  0  0  0  0  0  0  0  0  0  0
    1.4631    1.9050    0.0000 H   0  0  0  0  0  0  0  0  0  0  0  0
    1.6900    1.0581    0.0000 H   0  0  0  0  0  0  0  0  0  0  0  0
    2.8660    3.7150    0.0000 H   0  0  0  0  0  0  0  0  0  0  0  0
  1 13  1  0  0  0  0
  1 19  1  0  0  0  0
 12  2  1  6  0  0  0
  2 26  1  0  0  0  0
 20  3  1  6  0  0  0
  3 28  1  0  0  0  0
  4 19  2  0  0  0  0
  5 26  2  0  0  0  0
  6 29  1  0  0  0  0
  6 33  1  0  0  0  0
  7 28  2  0  0  0  0
  8 32  1  0  0  0  0
  8 64  1  0  0  0  0
  9 33  2  0  0  0  0
 10 35  1  0  0  0  0
 10 71  1  0  0  0  0
 11 12  1  0  0  0  0
 11 13  1  0  0  0  0
 11 15  1  0  0  0  0
 11 38  1  1  0  0  0
 12 14  1  0  0  0  0
 12 39  1  0  0  0  0
 13 16  1  0  0  0  0
 13 40  1  6  0  0  0
 14 17  1  0  0  0  0
 14 41  1  0  0  0  0
 14 42  1  0  0  0  0
 15 19  1  0  0  0  0
 15 23  2  0  0  0  0
 16 18  2  0  0  0  0
 16 43  1  0  0  0  0
 17 22  2  0  0  0  0
 17 24  1  0  0  0  0
 18 20  1  0  0  0  0
 18 25  1  0  0  0  0
 20 21  1  0  0  0  0
 20 44  1  0  0  0  0
 21 22  1  0  0  0  0
 21 45  1  0  0  0  0
 21 46  1  0  0  0  0
 22 47  1  0  0  0  0
 23 48  1  0  0  0  0
 23 49  1  0  0  0  0
 24 50  1  0  0  0  0
 24 51  1  0  0  0  0
 24 52  1  0  0  0  0
 25 53  1  0  0  0  0
 25 54  1  0  0  0  0
 25 55  1  0  0  0  0
 26 27  1  0  0  0  0
 27 29  1  0  0  0  0
 27 30  2  0  0  0  0
 28 31  1  0  0  0  0
 29 56  1  0  0  0  0
 29 57  1  0  0  0  0
 30 32  1  0  0  0  0
 30 58  1  0  0  0  0
 31 59  1  0  0  0  0
 31 60  1  0  0  0  0
 31 61  1  0  0  0  0
 32 62  1  0  0  0  0
 32 63  1  0  0  0  0
 33 34  1  0  0  0  0
 34 35  1  0  0  0  0
 34 36  2  0  0  0  0
 35 65  1  0  0  0  0
 35 66  1  0  0  0  0
 36 37  1  0  0  0  0
 36 67  1  0  0  0  0
 37 68  1  0  0  0  0
 37 69  1  0  0  0  0
 37 70  1  0  0  0  0
M  END
> <PUBCHEM_COMPOUND_CID>
5281494

> <PUBCHEM_COMPOUND_CANONICALIZED>
1

> <PUBCHEM_CACTVS_COMPLEXITY>
1050

> <PUBCHEM_CACTVS_HBOND_ACCEPTOR>
10

> <PUBCHEM_CACTVS_HBOND_DONOR>
2

> <PUBCHEM_CACTVS_ROTATABLE_BOND>
11

> <PUBCHEM_CACTVS_SUBSKEYS>
AAADcfB4PAAAAAAAAAAAAAAAAAAAASAAAAAAAAAAAAAAAACAAAAAGgAACAAADRSggAICCAAABgCIAiDSCAAAAAAgAAAACAEAAEgAFBYAIQACUAAF4AAIMYPKyCCOAAAAAAAAAAAAAAAAAAAAAAAAAAAAAA==

> <PUBCHEM_IUPAC_OPENEYE_NAME>
[(3aR,4R,6E,9S,10Z,11aR)-9-acetoxy-6,10-dimethyl-3-methylene-2-oxo-3a,4,5,8,9,11a-hexahydrocyclodeca[b]furan-4-yl] (E)-4-hydroxy-2-[[(E)-2-(hydroxymethyl)but-2-enoyl]oxymethyl]but-2-enoate

> <PUBCHEM_IUPAC_CAS_NAME>
(E)-4-hydroxy-2-[[(E)-2-(hydroxymethyl)-1-oxobut-2-enoxy]methyl]-2-butenoic acid [(3aR,4R,6E,9S,10Z,11aR)-9-acetyloxy-6,10-dimethyl-3-methylene-2-oxo-3a,4,5,8,9,11a-hexahydrocyclodeca[b]furan-4-yl] ester

> <PUBCHEM_IUPAC_NAME>
[(3aR,4R,6E,9S,10Z,11aR)-9-acetyloxy-6,10-dimethyl-3-methylidene-2-oxo-3a,4,5,8,9,11a-hexahydrocyclodeca[b]furan-4-yl] (E)-4-hydroxy-2-[[(E)-2-(hydroxymethyl)but-2-enoyl]oxymethyl]but-2-enoate

> <PUBCHEM_IUPAC_SYSTEMATIC_NAME>
[(3aR,4R,6E,9S,10Z,11aR)-9-acetyloxy-6,10-dimethyl-3-methylidene-2-oxidanylidene-3a,4,5,8,9,11a-hexahydrocyclodeca[b]furan-4-yl] (E)-2-[[(E)-2-(hydroxymethyl)but-2-enoyl]oxymethyl]-4-oxidanyl-but-2-enoate

> <PUBCHEM_IUPAC_TRADITIONAL_NAME>
(E)-4-hydroxy-2-[[(E)-2-methylolbut-2-enoyl]oxymethyl]but-2-enoic acid [(3aR,4R,6E,9S,10Z,11aR)-9-acetoxy-2-keto-6,10-dimethyl-3-methylene-3a,4,5,8,9,11a-hexahydrocyclodeca[b]furan-4-yl] ester

> <PUBCHEM_IUPAC_INCHI>
InChI=1S/C27H34O10/c1-6-19(13-29)26(32)34-14-20(9-10-28)27(33)37-22-11-15(2)7-8-21(35-18(5)30)16(3)12-23-24(22)17(4)25(31)36-23/h6-7,9,12,21-24,28-29H,4,8,10-11,13-14H2,1-3,5H3/b15-7+,16-12-,19-6+,20-9+/t21-,22+,23+,24+/m0/s1

> <PUBCHEM_IUPAC_INCHIKEY>
RQCXPCGOVWKZCE-UUFJRKJUSA-N

> <PUBCHEM_XLOGP3_AA>
1.1

> <PUBCHEM_EXACT_MASS>
518.215197

> <PUBCHEM_MOLECULAR_FORMULA>
C27H34O10

> <PUBCHEM_MOLECULAR_WEIGHT>
518.55286

> <PUBCHEM_OPENEYE_CAN_SMILES>
CC=C(CO)C(=O)OCC(=CCO)C(=O)OC1CC(=CCC(C(=CC2C1C(=C)C(=O)O2)C)OC(=O)C)C

> <PUBCHEM_OPENEYE_ISO_SMILES>
C/C=C(\CO)/C(=O)OC/C(=C\CO)/C(=O)O[C@@H]1C/C(=C/C[C@@H](/C(=C\[C@@H]2[C@@H]1C(=C)C(=O)O2)/C)OC(=O)C)/C

> <PUBCHEM_CACTVS_TPSA>
146

> <PUBCHEM_MONOISOTOPIC_WEIGHT>
518.215197

> <PUBCHEM_TOTAL_CHARGE>
0

> <PUBCHEM_HEAVY_ATOM_COUNT>
37

> <PUBCHEM_ATOM_DEF_STEREO_COUNT>
4

> <PUBCHEM_ATOM_UDEF_STEREO_COUNT>
0

> <PUBCHEM_BOND_DEF_STEREO_COUNT>
4

> <PUBCHEM_BOND_UDEF_STEREO_COUNT>
0

> <PUBCHEM_ISOTOPIC_ATOM_COUNT>
0

> <PUBCHEM_COMPONENT_COUNT>
1

> <PUBCHEM_CACTVS_TAUTO_COUNT>
1

> <PUBCHEM_COORDINATE_TYPE>
1
5
255

> <PUBCHEM_BONDANNOTATIONS>
11  38  5
13  40  6
12  2  6
20  3  6

$$$$

