232791
  -OEChem-07051212503D

 16 16  0     0  0  0  0  0  0999 V2000
    1.0031   -2.3583   -0.1053 O   0  0  0  0  0  0  0  0  0  0  0  0
    1.0033    2.3580   -0.1065 O   0  0  0  0  0  0  0  0  0  0  0  0
   -2.9346    0.0001   -0.0608 O   0  0  0  0  0  0  0  0  0  0  0  0
   -0.9585   -1.1728   -0.0075 N   0  0  0  0  0  0  0  0  0  0  0  0
   -0.9586    1.1730   -0.0056 N   0  0  0  0  0  0  0  0  0  0  0  0
    1.1476   -0.0001    0.3944 C   0  0  0  0  0  0  0  0  0  0  0  0
    0.4216   -1.2850    0.0482 C   0  0  0  0  0  0  0  0  0  0  0  0
    0.4215    1.2848    0.0487 C   0  0  0  0  0  0  0  0  0  0  0  0
    2.5578    0.0003   -0.1929 C   0  0  0  0  0  0  0  0  0  0  0  0
   -1.7033    0.0000   -0.0127 C   0  0  0  0  0  0  0  0  0  0  0  0
    1.2371   -0.0003    1.4898 H   0  0  0  0  0  0  0  0  0  0  0  0
    3.1224    0.8836    0.1243 H   0  0  0  0  0  0  0  0  0  0  0  0
    3.1226   -0.8832    0.1235 H   0  0  0  0  0  0  0  0  0  0  0  0
    2.5242    0.0008   -1.2883 H   0  0  0  0  0  0  0  0  0  0  0  0
   -1.4796   -2.0381   -0.1195 H   0  0  0  0  0  0  0  0  0  0  0  0
   -1.4798    2.0384   -0.1166 H   0  0  0  0  0  0  0  0  0  0  0  0
  1  7  2  0  0  0  0
  2  8  2  0  0  0  0
  3 10  2  0  0  0  0
  4  7  1  0  0  0  0
  4 10  1  0  0  0  0
  4 15  1  0  0  0  0
  5  8  1  0  0  0  0
  5 10  1  0  0  0  0
  5 16  1  0  0  0  0
  6  7  1  0  0  0  0
  6  8  1  0  0  0  0
  6  9  1  0  0  0  0
  6 11  1  0  0  0  0
  9 12  1  0  0  0  0
  9 13  1  0  0  0  0
  9 14  1  0  0  0  0
M  END
> <PUBCHEM_COMPOUND_CID>
232791

> <PUBCHEM_CONFORMER_RMSD>
0.4

> <PUBCHEM_CONFORMER_DIVERSEORDER>
1
2

> <PUBCHEM_MMFF94_PARTIAL_CHARGES>
11
1 -0.57
10 0.69
15 0.37
16 0.37
2 -0.57
3 -0.57
4 -0.49
5 -0.49
6 0.12
7 0.57
8 0.57

> <PUBCHEM_EFFECTIVE_ROTOR_COUNT>
0.6

> <PUBCHEM_PHARMACOPHORE_FEATURES>
7
1 1 acceptor
1 2 acceptor
1 3 acceptor
1 4 donor
1 5 donor
1 6 anion
6 4 5 6 7 8 10 rings

> <PUBCHEM_HEAVY_ATOM_COUNT>
10

> <PUBCHEM_ATOM_DEF_STEREO_COUNT>
0

> <PUBCHEM_ATOM_UDEF_STEREO_COUNT>
0

> <PUBCHEM_BOND_DEF_STEREO_COUNT>
0

> <PUBCHEM_BOND_UDEF_STEREO_COUNT>
0

> <PUBCHEM_ISOTOPIC_ATOM_COUNT>
0

> <PUBCHEM_COMPONENT_COUNT>
1

> <PUBCHEM_CACTVS_TAUTO_COUNT>
5

> <PUBCHEM_CONFORMER_ID>
00038D5700000001

> <PUBCHEM_MMFF94_ENERGY>
20.7392

> <PUBCHEM_FEATURE_SELFOVERLAP>
35.561

> <PUBCHEM_SHAPE_FINGERPRINT>
16945 1 18410575089100464563
18185500 45 18337112370636422839
193761 8 17689999354979907128
21040471 1 17905892478656258833
23552423 10 17983007053203952526
241688 4 17906450278954169233
2748010 2 18123751946087848853
29004967 10 18341326785920974419
5084963 1 18042122068222010987

> <PUBCHEM_SHAPE_MULTIPOLES>
178.23
2.88
2.11
0.59
1.01
0
0.02
0
-0.17
-0.75
-0.09
-0.06
0
0

> <PUBCHEM_SHAPE_SELFOVERLAP>
365.397

> <PUBCHEM_SHAPE_VOLUME>
101.1

> <PUBCHEM_COORDINATE_TYPE>
2
5
10

$$$$

