9566
  -OEChem-06261203492D

 15 14  0     1  0  0  0  0  0999 V2000
    3.7320    1.1830    0.0000 Cl  0  0  0  0  0  0  0  0  0  0  0  0
    2.0000   -0.8170    0.0000 Cl  0  0  0  0  0  0  0  0  0  0  0  0
    2.3660    0.5490    0.0000 Cl  0  0  0  0  0  0  0  0  0  0  0  0
    3.3660   -1.1830    0.0000 Cl  0  0  0  0  0  0  0  0  0  0  0  0
    7.1962    0.1830    0.0000 F   0  0  0  0  0  0  0  0  0  0  0  0
    4.5981   -0.3170    0.0000 O   0  0  0  0  0  0  0  0  0  0  0  0
    3.7320    0.1830    0.0000 C   0  0  3  0  0  0  0  0  0  0  0  0
    5.4641    0.1830    0.0000 C   0  0  0  0  0  0  0  0  0  0  0  0
    2.8660   -0.3170    0.0000 C   0  0  0  0  0  0  0  0  0  0  0  0
    6.3301   -0.3170    0.0000 C   0  0  0  0  0  0  0  0  0  0  0  0
    3.7320   -0.6670    0.0000 H   0  0  0  0  0  0  0  0  0  0  0  0
    5.8626    0.6580    0.0000 H   0  0  0  0  0  0  0  0  0  0  0  0
    5.0656    0.6580    0.0000 H   0  0  0  0  0  0  0  0  0  0  0  0
    5.9316   -0.7919    0.0000 H   0  0  0  0  0  0  0  0  0  0  0  0
    6.7287   -0.7919    0.0000 H   0  0  0  0  0  0  0  0  0  0  0  0
  1  7  1  0  0  0  0
  2  9  1  0  0  0  0
  3  9  1  0  0  0  0
  4  9  1  0  0  0  0
  5 10  1  0  0  0  0
  6  7  1  0  0  0  0
  6  8  1  0  0  0  0
  7  9  1  0  0  0  0
  7 11  1  0  0  0  0
  8 10  1  0  0  0  0
  8 12  1  0  0  0  0
  8 13  1  0  0  0  0
 10 14  1  0  0  0  0
 10 15  1  0  0  0  0
M  END
> <PUBCHEM_COMPOUND_CID>
9566

> <PUBCHEM_COMPOUND_CANONICALIZED>
1

> <PUBCHEM_CACTVS_COMPLEXITY>
93.7

> <PUBCHEM_CACTVS_HBOND_ACCEPTOR>
2

> <PUBCHEM_CACTVS_HBOND_DONOR>
0

> <PUBCHEM_CACTVS_ROTATABLE_BOND>
3

> <PUBCHEM_CACTVS_SUBSKEYS>
AAADcYBgIQAHAAAAAAAAAAAAAAAAAAAAAAAAAAAAAAAAAAAAAAAAGwIAAAAAAAOggMIAAAAABAAAAAAAAAAAAAAAAAAAAEAAAQAAAAAAAAACAAAAAAAAAAAAAAAAAAAAAAAAAAAAAAAAAAAAAAAAAAAAAA==

> <PUBCHEM_IUPAC_OPENEYE_NAME>
1,1,1,2-tetrachloro-2-(2-fluoroethoxy)ethane

> <PUBCHEM_IUPAC_CAS_NAME>
1,1,1,2-tetrachloro-2-(2-fluoroethoxy)ethane

> <PUBCHEM_IUPAC_NAME>
1,1,1,2-tetrachloro-2-(2-fluoroethoxy)ethane

> <PUBCHEM_IUPAC_SYSTEMATIC_NAME>
1,1,1,2-tetrakis(chloranyl)-2-(2-fluoranylethoxy)ethane

> <PUBCHEM_IUPAC_TRADITIONAL_NAME>
1,1,1,2-tetrachloro-2-(2-fluoroethoxy)ethane

> <PUBCHEM_IUPAC_INCHI>
InChI=1S/C4H5Cl4FO/c5-3(4(6,7)8)10-2-1-9/h3H,1-2H2

> <PUBCHEM_IUPAC_INCHIKEY>
NEQRCZVHVQVNSA-UHFFFAOYSA-N

> <PUBCHEM_XLOGP3_AA>
3

> <PUBCHEM_EXACT_MASS>
229.904904

> <PUBCHEM_MOLECULAR_FORMULA>
C4H5Cl4FO

> <PUBCHEM_MOLECULAR_WEIGHT>
229.892303

> <PUBCHEM_OPENEYE_CAN_SMILES>
C(CF)OC(C(Cl)(Cl)Cl)Cl

> <PUBCHEM_OPENEYE_ISO_SMILES>
C(CF)OC(C(Cl)(Cl)Cl)Cl

> <PUBCHEM_CACTVS_TPSA>
9.2

> <PUBCHEM_MONOISOTOPIC_WEIGHT>
227.907854

> <PUBCHEM_TOTAL_CHARGE>
0

> <PUBCHEM_HEAVY_ATOM_COUNT>
10

> <PUBCHEM_ATOM_DEF_STEREO_COUNT>
0

> <PUBCHEM_ATOM_UDEF_STEREO_COUNT>
1

> <PUBCHEM_BOND_DEF_STEREO_COUNT>
0

> <PUBCHEM_BOND_UDEF_STEREO_COUNT>
0

> <PUBCHEM_ISOTOPIC_ATOM_COUNT>
0

> <PUBCHEM_COMPONENT_COUNT>
1

> <PUBCHEM_CACTVS_TAUTO_COUNT>
1

> <PUBCHEM_COORDINATE_TYPE>
1
5
255

> <PUBCHEM_BONDANNOTATIONS>
7  11  3

$$$$

