20843328
  -OEChem-07051212493D

 49 49  0     1  0  0  0  0  0999 V2000
   -5.4291    0.5807   -0.0554 O   0  0  0  0  0  0  0  0  0  0  0  0
    8.2339   -1.1987    0.7584 O   0  0  0  0  0  0  0  0  0  0  0  0
    6.8618   -1.7310   -0.9712 O   0  0  0  0  0  0  0  0  0  0  0  0
   -4.9509   -0.2357    1.1167 C   0  0  2  0  0  0  0  0  0  0  0  0
    2.5135    1.0717   -0.3494 C   0  0  0  0  0  0  0  0  0  0  0  0
    1.5244    2.0850    0.2324 C   0  0  0  0  0  0  0  0  0  0  0  0
   -4.2300    0.7709    0.4741 C   0  0  0  0  0  0  0  0  0  0  0  0
    3.8192    0.9729    0.4468 C   0  0  0  0  0  0  0  0  0  0  0  0
    0.2131    2.1742   -0.5593 C   0  0  0  0  0  0  0  0  0  0  0  0
   -4.7867   -1.6712    0.9018 C   0  0  0  0  0  0  0  0  0  0  0  0
    4.7988   -0.0577   -0.1242 C   0  0  0  0  0  0  0  0  0  0  0  0
   -0.7764    3.2375   -0.0697 C   0  0  0  0  0  0  0  0  0  0  0  0
   -3.1747    1.5367    0.2949 C   0  0  0  0  0  0  0  0  0  0  0  0
    6.1202   -0.0907    0.6380 C   0  0  0  0  0  0  0  0  0  0  0  0
   -2.0139    3.3219   -0.9169 C   0  0  0  0  0  0  0  0  0  0  0  0
   -3.4021   -2.2051    1.1836 C   0  0  0  0  0  0  0  0  0  0  0  0
   -3.0910    2.5431   -0.7371 C   0  0  0  0  0  0  0  0  0  0  0  0
   -2.6114   -2.7733    0.2612 C   0  0  0  0  0  0  0  0  0  0  0  0
    7.0825   -1.0931    0.0505 C   0  0  0  0  0  0  0  0  0  0  0  0
   -3.0026   -2.9523   -1.1758 C   0  0  0  0  0  0  0  0  0  0  0  0
   -3.6986   -4.2859   -1.3994 C   0  0  0  0  0  0  0  0  0  0  0  0
   -5.3750    0.0066    2.0832 H   0  0  0  0  0  0  0  0  0  0  0  0
    2.7442    1.3465   -1.3859 H   0  0  0  0  0  0  0  0  0  0  0  0
    2.0377    0.0838   -0.3819 H   0  0  0  0  0  0  0  0  0  0  0  0
    1.2965    1.8179    1.2714 H   0  0  0  0  0  0  0  0  0  0  0  0
    1.9968    3.0746    0.2552 H   0  0  0  0  0  0  0  0  0  0  0  0
    4.3008    1.9584    0.4645 H   0  0  0  0  0  0  0  0  0  0  0  0
    3.5898    0.7128    1.4874 H   0  0  0  0  0  0  0  0  0  0  0  0
   -0.2682    1.1882   -0.5430 H   0  0  0  0  0  0  0  0  0  0  0  0
    0.4555    2.3780   -1.6109 H   0  0  0  0  0  0  0  0  0  0  0  0
   -5.1447   -1.9438   -0.0957 H   0  0  0  0  0  0  0  0  0  0  0  0
   -5.4686   -2.2004    1.5813 H   0  0  0  0  0  0  0  0  0  0  0  0
    4.3341   -1.0516   -0.1038 H   0  0  0  0  0  0  0  0  0  0  0  0
    4.9904    0.1751   -1.1794 H   0  0  0  0  0  0  0  0  0  0  0  0
   -0.2855    4.2190   -0.1058 H   0  0  0  0  0  0  0  0  0  0  0  0
   -1.0138    3.0840    0.9889 H   0  0  0  0  0  0  0  0  0  0  0  0
   -2.3365    1.3801    0.9648 H   0  0  0  0  0  0  0  0  0  0  0  0
    5.9368   -0.3641    1.6829 H   0  0  0  0  0  0  0  0  0  0  0  0
    6.5962    0.8953    0.6056 H   0  0  0  0  0  0  0  0  0  0  0  0
   -2.0184    4.0466   -1.7267 H   0  0  0  0  0  0  0  0  0  0  0  0
   -3.0392   -2.1263    2.2053 H   0  0  0  0  0  0  0  0  0  0  0  0
   -3.9431    2.6659   -1.4003 H   0  0  0  0  0  0  0  0  0  0  0  0
   -1.6359   -3.1443    0.5642 H   0  0  0  0  0  0  0  0  0  0  0  0
   -3.6208   -2.1281   -1.5457 H   0  0  0  0  0  0  0  0  0  0  0  0
   -2.0885   -2.9208   -1.7816 H   0  0  0  0  0  0  0  0  0  0  0  0
   -3.9326   -4.4148   -2.4610 H   0  0  0  0  0  0  0  0  0  0  0  0
   -3.0616   -5.1221   -1.0915 H   0  0  0  0  0  0  0  0  0  0  0  0
   -4.6368   -4.3480   -0.8381 H   0  0  0  0  0  0  0  0  0  0  0  0
    8.8526   -1.8455    0.3571 H   0  0  0  0  0  0  0  0  0  0  0  0
  1  4  1  0  0  0  0
  1  7  1  0  0  0  0
  2 19  1  0  0  0  0
  2 49  1  0  0  0  0
  3 19  2  0  0  0  0
  4  7  1  0  0  0  0
  4 10  1  0  0  0  0
  4 22  1  0  0  0  0
  5  6  1  0  0  0  0
  5  8  1  0  0  0  0
  5 23  1  0  0  0  0
  5 24  1  0  0  0  0
  6  9  1  0  0  0  0
  6 25  1  0  0  0  0
  6 26  1  0  0  0  0
  7 13  2  0  0  0  0
  8 11  1  0  0  0  0
  8 27  1  0  0  0  0
  8 28  1  0  0  0  0
  9 12  1  0  0  0  0
  9 29  1  0  0  0  0
  9 30  1  0  0  0  0
 10 16  1  0  0  0  0
 10 31  1  0  0  0  0
 10 32  1  0  0  0  0
 11 14  1  0  0  0  0
 11 33  1  0  0  0  0
 11 34  1  0  0  0  0
 12 15  1  0  0  0  0
 12 35  1  0  0  0  0
 12 36  1  0  0  0  0
 13 17  1  0  0  0  0
 13 37  1  0  0  0  0
 14 19  1  0  0  0  0
 14 38  1  0  0  0  0
 14 39  1  0  0  0  0
 15 17  2  0  0  0  0
 15 40  1  0  0  0  0
 16 18  2  0  0  0  0
 16 41  1  0  0  0  0
 17 42  1  0  0  0  0
 18 20  1  0  0  0  0
 18 43  1  0  0  0  0
 20 21  1  0  0  0  0
 20 44  1  0  0  0  0
 20 45  1  0  0  0  0
 21 46  1  0  0  0  0
 21 47  1  0  0  0  0
 21 48  1  0  0  0  0
M  END
> <PUBCHEM_COMPOUND_CID>
20843328

> <PUBCHEM_CONFORMER_RMSD>
1.2

> <PUBCHEM_CONFORMER_DIVERSEORDER>
3
121
31
99
204
156
151
4
51
136
153
234
289
159
107
89
227
203
344
184
82
37
269
224
54
357
265
49
188
8
211
383
53
158
141
33
363
175
262
297
299
114
377
132
160
71
231
243
143
279
232
134
41
39
172
109
253
113
222
290
313
12
213
48
316
201
230
374
104
372
116
308
152
207
178
22
368
146
249
238
110
44
373
118
19
354
62
149
21
322
140
254
233
261
157
214
296
16
194
2
282
86
183
285
24
100
32
286
124
306
303
349
161
57
187
137
353
257
336
212
5
342
72
248
260
96
317
274
164
126
90
36
50
219
347
133
14
46
205
272
17
367
256
66
179
369
30
355
196
106
371
305
192
310
174
28
350
87
6
215
93
165
304
74
193
63
138
339
210
242
117
229
115
170
293
84
331
356
209
328
35
23
52
240
381
241
155
385
64
85
298
266
10
26
173
376
79
281
330
324
34
375
190
144
225
361
103
366
1
47
27
150
111
294
378
237
145
67
55
226
81
199
283
216
59
245
309
362
11
119
77
263
191
380
92
166
95
311
80
335
154
18
351
288
128
97
389
329
295
123
220
236
223
320
358
246
108
147
278
75
280
365
38
171
122
25
341
125
228
127
197
247
15
270
105
379
386
181
206
20
7
148
56
390
340
352
176
65
345
364
198
13
251
73
346
382
163
334
142
287
202
217
169
94
91
337
273
168
167
292
98
250
267
239
321
338
162
208
348
252
177
277
244
43
61
333
314
343
83
301
139
68
195
42
58
359
264
69
326
302
131
102
268
120
182
255
218
185
258
101
60
284
186
189
387
200
29
291
370
315
300
70
88
323
327
312
180
129
388
112
392
318
259
325
271
332
391
319
235
276
130
9
384
360
40
45
76
221
275
135
78
307

> <PUBCHEM_MMFF94_PARTIAL_CHARGES>
22
1 -0.22
10 0.23
12 0.14
13 -0.15
14 0.06
15 -0.29
16 -0.29
17 -0.15
18 -0.29
19 0.66
2 -0.65
20 0.14
22 0.1
3 -0.57
37 0.15
4 -0.01
40 0.15
41 0.15
42 0.15
43 0.15
49 0.5
7 0.04

> <PUBCHEM_EFFECTIVE_ROTOR_COUNT>
12.4

> <PUBCHEM_PHARMACOPHORE_FEATURES>
5
1 1 acceptor
1 2 acceptor
1 21 hydrophobe
1 3 acceptor
3 2 3 19 anion

> <PUBCHEM_HEAVY_ATOM_COUNT>
21

> <PUBCHEM_ATOM_DEF_STEREO_COUNT>
1

> <PUBCHEM_ATOM_UDEF_STEREO_COUNT>
0

> <PUBCHEM_BOND_DEF_STEREO_COUNT>
3

> <PUBCHEM_BOND_UDEF_STEREO_COUNT>
0

> <PUBCHEM_ISOTOPIC_ATOM_COUNT>
0

> <PUBCHEM_COMPONENT_COUNT>
1

> <PUBCHEM_CACTVS_TAUTO_COUNT>
1

> <PUBCHEM_CONFORMER_ID>
013E0B4000000003

> <PUBCHEM_MMFF94_ENERGY>
30.4858

> <PUBCHEM_FEATURE_SELFOVERLAP>
25.43

> <PUBCHEM_SHAPE_FINGERPRINT>
10622 236 17684093483344468455
11069576 57 17330565237616778581
11135609 99 18412544328271069260
11524674 6 17822294612816244733
12174731 88 18339080393650923895
14178184 131 18334300885746737662
20621476 51 17900260797996162383
21054139 6 17632010953466330776
21585480 29 17972050145440405216
22864921 47 17916605231969899058
229767 44 18260825960373633111
397830 11 18261687987155663992
437795 96 18260822760918624526
445580 160 18411415159450775166
56633871 153 18264201418822488315
6138700 20 18342176649234413627
8863177 126 18408606942434869240

> <PUBCHEM_SHAPE_MULTIPOLES>
414.56
18.85
5.02
1.14
44.75
1.56
0.1
14.08
-3.15
-6.78
2.15
-0.94
0.66
-0.19

> <PUBCHEM_SHAPE_SELFOVERLAP>
796.486

> <PUBCHEM_SHAPE_VOLUME>
251.8

> <PUBCHEM_COORDINATE_TYPE>
2
5
10

$$$$

