440214
  -OEChem-07051212493D

 24 23  0     1  0  0  0  0  0999 V2000
   -2.4409    0.2696    0.2521 P   0  0  1  0  0  0  0  0  0  0  0  0
   -0.8407    0.4978    0.3541 O   0  0  0  0  0  0  0  0  0  0  0  0
   -2.6258   -0.8910   -0.8614 O   0  0  0  0  0  0  0  0  0  0  0  0
   -2.7960   -0.4626    1.6512 O   0  0  0  0  0  0  0  0  0  0  0  0
   -3.2349    1.5182   -0.0050 O   0  0  0  0  0  0  0  0  0  0  0  0
    1.8559   -0.1620   -0.1483 N   0  0  0  0  0  0  0  0  0  0  0  0
    3.7058   -1.4374    0.4143 N   0  0  0  0  0  0  0  0  0  0  0  0
    4.0326    0.8045    0.1648 N   0  0  0  0  0  0  0  0  0  0  0  0
   -0.1638    1.0416   -0.7659 C   0  0  0  0  0  0  0  0  0  0  0  0
    1.3148    1.1665   -0.4479 C   0  0  0  0  0  0  0  0  0  0  0  0
    3.1215   -0.2274    0.1224 C   0  0  0  0  0  0  0  0  0  0  0  0
   -1.9285   -2.1180   -0.7303 C   0  0  0  0  0  0  0  0  0  0  0  0
   -0.3159    0.3886   -1.6315 H   0  0  0  0  0  0  0  0  0  0  0  0
   -0.5834    2.0268   -0.9936 H   0  0  0  0  0  0  0  0  0  0  0  0
    1.4374    1.8185    0.4255 H   0  0  0  0  0  0  0  0  0  0  0  0
    1.8282    1.6117   -1.3078 H   0  0  0  0  0  0  0  0  0  0  0  0
   -2.2447   -2.6329    0.1802 H   0  0  0  0  0  0  0  0  0  0  0  0
   -0.8501   -1.9454   -0.7047 H   0  0  0  0  0  0  0  0  0  0  0  0
   -2.1650   -2.7467   -1.5923 H   0  0  0  0  0  0  0  0  0  0  0  0
   -3.7379   -0.5827    1.8974 H   0  0  0  0  0  0  0  0  0  0  0  0
    3.1616   -2.2931    0.4228 H   0  0  0  0  0  0  0  0  0  0  0  0
    4.6942   -1.5111    0.6287 H   0  0  0  0  0  0  0  0  0  0  0  0
    5.0066    0.6325    0.3900 H   0  0  0  0  0  0  0  0  0  0  0  0
    3.7707    1.7655   -0.0232 H   0  0  0  0  0  0  0  0  0  0  0  0
  1  2  1  0  0  0  0
  1  3  1  0  0  0  0
  1  4  1  0  0  0  0
  1  5  2  0  0  0  0
  2  9  1  0  0  0  0
  3 12  1  0  0  0  0
  4 20  1  0  0  0  0
  6 10  1  0  0  0  0
  6 11  2  0  0  0  0
  7 11  1  0  0  0  0
  7 21  1  0  0  0  0
  7 22  1  0  0  0  0
  8 11  1  0  0  0  0
  8 23  1  0  0  0  0
  8 24  1  0  0  0  0
  9 10  1  0  0  0  0
  9 13  1  0  0  0  0
  9 14  1  0  0  0  0
 10 15  1  0  0  0  0
 10 16  1  0  0  0  0
 12 17  1  0  0  0  0
 12 18  1  0  0  0  0
 12 19  1  0  0  0  0
M  END
> <PUBCHEM_COMPOUND_CID>
440214

> <PUBCHEM_CONFORMER_RMSD>
0.6

> <PUBCHEM_CONFORMER_DIVERSEORDER>
1
51
23
63
8
18
22
79
45
33
46
29
7
78
50
41
30
9
25
82
57
56
32
87
31
43
85
77
64
68
80
4
21
48
83
53
5
35
39
74
54
40
65
67
6
15
58
3
2
42
36
52
27
55
70
34
20
44
37
71
59
75
38
73
66
86
76
62
26
10
28
69
72
81
49
14
24
19
60
61
88
11
47
13
17
84
16
12

> <PUBCHEM_MMFF94_PARTIAL_CHARGES>
17
1 1.51
10 0.25
11 0.55
12 0.28
2 -0.55
20 0.5
21 0.4
22 0.4
23 0.4
24 0.4
3 -0.55
4 -0.77
5 -0.7
6 -0.7
7 -0.85
8 -0.85
9 0.28

> <PUBCHEM_EFFECTIVE_ROTOR_COUNT>
5

> <PUBCHEM_PHARMACOPHORE_FEATURES>
5
1 4 acceptor
1 5 acceptor
1 7 donor
1 8 donor
4 6 7 8 11 cation

> <PUBCHEM_HEAVY_ATOM_COUNT>
12

> <PUBCHEM_ATOM_DEF_STEREO_COUNT>
0

> <PUBCHEM_ATOM_UDEF_STEREO_COUNT>
0

> <PUBCHEM_BOND_DEF_STEREO_COUNT>
0

> <PUBCHEM_BOND_UDEF_STEREO_COUNT>
0

> <PUBCHEM_ISOTOPIC_ATOM_COUNT>
0

> <PUBCHEM_COMPONENT_COUNT>
1

> <PUBCHEM_CACTVS_TAUTO_COUNT>
2

> <PUBCHEM_CONFORMER_ID>
0006B79600000001

> <PUBCHEM_MMFF94_ENERGY>
6.0565

> <PUBCHEM_FEATURE_SELFOVERLAP>
25.438

> <PUBCHEM_SHAPE_FINGERPRINT>
10149128 111 8358261475079277406
12382932 28 18113614603446004758
12500047 106 18260275169477400961
12932764 1 18263913371838991557
13296908 3 18131910468547815672
14445660 50 18259700082199563368
14577589 140 18341611559633086813
20281407 28 18411983563764885348
20645477 70 18339368573145326494
22485316 2 18411705400281728432
22926399 37 8502373300391010523
23402539 116 18041289854654606709
3248919 1 17632296726977297580
75552 356 18187085018354355895

> <PUBCHEM_SHAPE_MULTIPOLES>
212.38
6.98
1.7
0.97
4.73
0.63
-0.2
0.8
-1.22
-0.65
0.35
-0.72
0.15
-0.51

> <PUBCHEM_SHAPE_SELFOVERLAP>
383.548

> <PUBCHEM_SHAPE_VOLUME>
136.8

> <PUBCHEM_COORDINATE_TYPE>
2
5
10

$$$$

