45266852
  -OEChem-07051213152D

 25 26  0     0  0  0  0  0  0999 V2000
    2.8660    2.8538    0.0000 Cl  0  0  0  0  0  0  0  0  0  0  0  0
    7.2566   -2.2644    0.0000 O   0  0  0  0  0  0  0  0  0  0  0  0
    5.6103   -2.8025    0.0000 O   0  0  0  0  0  0  0  0  0  0  0  0
    4.6783    1.6585    0.0000 N   0  0  0  0  0  0  0  0  0  0  0  0
    6.6353   -0.3634    0.0000 N   0  0  0  0  0  0  0  0  0  0  0  0
    4.6783    0.0490    0.0000 C   0  0  0  0  0  0  0  0  0  0  0  0
    3.7320    0.3538    0.0000 C   0  0  0  0  0  0  0  0  0  0  0  0
    3.7320    1.3538    0.0000 C   0  0  0  0  0  0  0  0  0  0  0  0
    4.9889   -0.9015    0.0000 C   0  0  0  0  0  0  0  0  0  0  0  0
    5.2619    0.8538    0.0000 C   0  0  0  0  0  0  0  0  0  0  0  0
    2.8660   -0.1462    0.0000 C   0  0  0  0  0  0  0  0  0  0  0  0
    2.8660    1.8538    0.0000 C   0  0  0  0  0  0  0  0  0  0  0  0
    2.0000    0.3538    0.0000 C   0  0  0  0  0  0  0  0  0  0  0  0
    5.9674   -1.1077    0.0000 C   0  0  0  0  0  0  0  0  0  0  0  0
    2.0000    1.3538    0.0000 C   0  0  0  0  0  0  0  0  0  0  0  0
    6.2781   -2.0582    0.0000 C   0  0  0  0  0  0  0  0  0  0  0  0
    4.3751   -0.9888    0.0000 H   0  0  0  0  0  0  0  0  0  0  0  0
    4.9684   -1.5211    0.0000 H   0  0  0  0  0  0  0  0  0  0  0  0
    5.8819    0.8538    0.0000 H   0  0  0  0  0  0  0  0  0  0  0  0
    4.8709    2.2478    0.0000 H   0  0  0  0  0  0  0  0  0  0  0  0
    2.8660   -0.7662    0.0000 H   0  0  0  0  0  0  0  0  0  0  0  0
    1.4631    0.0438    0.0000 H   0  0  0  0  0  0  0  0  0  0  0  0
    1.4631    1.6638    0.0000 H   0  0  0  0  0  0  0  0  0  0  0  0
    7.2420   -0.4913    0.0000 H   0  0  0  0  0  0  0  0  0  0  0  0
    7.4492   -2.8538    0.0000 H   0  0  0  0  0  0  0  0  0  0  0  0
  1 12  1  0  0  0  0
  2 16  1  0  0  0  0
  2 25  1  0  0  0  0
  3 16  2  0  0  0  0
  4  8  1  0  0  0  0
  4 10  1  0  0  0  0
  4 20  1  0  0  0  0
  5 14  2  0  0  0  0
  5 24  1  0  0  0  0
  6  7  1  0  0  0  0
  6  9  1  0  0  0  0
  6 10  2  0  0  0  0
  7  8  2  0  0  0  0
  7 11  1  0  0  0  0
  8 12  1  0  0  0  0
  9 14  1  0  0  0  0
  9 17  1  0  0  0  0
  9 18  1  0  0  0  0
 10 19  1  0  0  0  0
 11 13  2  0  0  0  0
 11 21  1  0  0  0  0
 12 15  2  0  0  0  0
 13 15  1  0  0  0  0
 13 22  1  0  0  0  0
 14 16  1  0  0  0  0
 15 23  1  0  0  0  0
M  END
> <PUBCHEM_COMPOUND_CID>
45266852

> <PUBCHEM_COMPOUND_CANONICALIZED>
1

> <PUBCHEM_CACTVS_COMPLEXITY>
308

> <PUBCHEM_CACTVS_HBOND_ACCEPTOR>
3

> <PUBCHEM_CACTVS_HBOND_DONOR>
3

> <PUBCHEM_CACTVS_ROTATABLE_BOND>
3

> <PUBCHEM_CACTVS_SUBSKEYS>
AAADccBzMAAEAAAAAAAAAAAAAAAAAWAAAAAwAAAAAAAAAFgB8AAAHgIQCAAADArBniQ8yPLJkgCoAzT3TASCgCAxBSAI2aE4RpgIIPLBk5HEYAhkgADIyAeY2fKOgAAAIAACABAAAABAAAQAIAAAAAAAAA==

> <PUBCHEM_IUPAC_OPENEYE_NAME>
3-(7-chloro-1H-indol-3-yl)-2-imino-propanoic acid

> <PUBCHEM_IUPAC_CAS_NAME>
3-(7-chloro-1H-indol-3-yl)-2-iminopropanoic acid

> <PUBCHEM_IUPAC_NAME>
3-(7-chloro-1H-indol-3-yl)-2-iminopropanoic acid

> <PUBCHEM_IUPAC_SYSTEMATIC_NAME>
2-azanylidene-3-(7-chloranyl-1H-indol-3-yl)propanoic acid

> <PUBCHEM_IUPAC_TRADITIONAL_NAME>
3-(7-chloro-1H-indol-3-yl)-2-imino-propionic acid

> <PUBCHEM_IUPAC_INCHI>
InChI=1S/C11H9ClN2O2/c12-8-3-1-2-7-6(5-14-10(7)8)4-9(13)11(15)16/h1-3,5,13-14H,4H2,(H,15,16)

> <PUBCHEM_IUPAC_INCHIKEY>
RZLZHCIMBPNTHP-UHFFFAOYSA-N

> <PUBCHEM_XLOGP3_AA>
2.1

> <PUBCHEM_EXACT_MASS>
236.035255

> <PUBCHEM_MOLECULAR_FORMULA>
C11H9ClN2O2

> <PUBCHEM_MOLECULAR_WEIGHT>
236.65436

> <PUBCHEM_OPENEYE_CAN_SMILES>
C1=CC2=C(C(=C1)Cl)NC=C2CC(=N)C(=O)O

> <PUBCHEM_OPENEYE_ISO_SMILES>
C1=CC2=C(C(=C1)Cl)NC=C2CC(=N)C(=O)O

> <PUBCHEM_CACTVS_TPSA>
76.9

> <PUBCHEM_MONOISOTOPIC_WEIGHT>
236.035255

> <PUBCHEM_TOTAL_CHARGE>
0

> <PUBCHEM_HEAVY_ATOM_COUNT>
16

> <PUBCHEM_ATOM_DEF_STEREO_COUNT>
0

> <PUBCHEM_ATOM_UDEF_STEREO_COUNT>
0

> <PUBCHEM_BOND_DEF_STEREO_COUNT>
0

> <PUBCHEM_BOND_UDEF_STEREO_COUNT>
0

> <PUBCHEM_ISOTOPIC_ATOM_COUNT>
0

> <PUBCHEM_COMPONENT_COUNT>
1

> <PUBCHEM_CACTVS_TAUTO_COUNT>
5

> <PUBCHEM_COORDINATE_TYPE>
1
5
255

> <PUBCHEM_BONDANNOTATIONS>
11  13  8
12  15  8
13  15  8
4  10  8
4  8  8
6  10  8
6  7  8
7  11  8
7  8  8
8  12  8

$$$$

