5704
  -OEChem-06261200492D

 61 64  0     0  0  0  0  0  0999 V2000
    6.5832   -3.6465    0.0000 S   0  0  0  0  0  0  0  0  0  0  0  0
    8.2345    2.2592    0.0000 S   0  0  0  0  0  0  0  0  0  0  0  0
    3.1191   -1.6465    0.0000 O   0  0  0  0  0  0  0  0  0  0  0  0
    6.9984   -1.5450    0.0000 O   0  0  0  0  0  0  0  0  0  0  0  0
    7.4492   -4.1465    0.0000 O   0  0  0  0  0  0  0  0  0  0  0  0
    6.0832   -4.5125    0.0000 O   0  0  0  0  0  0  0  0  0  0  0  0
    7.0832   -2.7805    0.0000 O   0  0  0  0  0  0  0  0  0  0  0  0
    8.5435    3.2103    0.0000 O   0  5  0  0  0  0  0  0  0  0  0  0
    7.2834    2.5682    0.0000 O   0  0  0  0  0  0  0  0  0  0  0  0
    9.1855    1.9502    0.0000 O   0  0  0  0  0  0  0  0  0  0  0  0
    2.7688    1.5968    0.0000 O   0  0  0  0  0  0  0  0  0  0  0  0
    3.9851   -5.1465    0.0000 O   0  5  0  0  0  0  0  0  0  0  0  0
    5.7172   -5.1465    0.0000 O   0  0  0  0  0  0  0  0  0  0  0  0
   10.2419    0.0298    0.0000 O   0  5  0  0  0  0  0  0  0  0  0  0
    9.8818    1.7240    0.0000 O   0  0  0  0  0  0  0  0  0  0  0  0
    4.8511   -0.6465    0.0000 N   0  3  0  0  0  0  0  0  0  0  0  0
    5.6602   -0.0587    0.0000 N   0  0  0  0  0  0  0  0  0  0  0  0
    4.0421   -0.0587    0.0000 N   0  0  0  0  0  0  0  0  0  0  0  0
    5.3511    0.8924    0.0000 N   0  0  0  0  0  0  0  0  0  0  0  0
    4.8511   -4.6465    0.0000 N   0  3  0  0  0  0  0  0  0  0  0  0
    9.5727    0.7729    0.0000 N   0  3  0  0  0  0  0  0  0  0  0  0
    4.1701    2.6149    0.0000 N   0  0  0  0  0  0  0  0  0  0  0  0
    4.8511   -1.6465    0.0000 C   0  0  0  0  0  0  0  0  0  0  0  0
    6.6383    0.1492    0.0000 C   0  0  0  0  0  0  0  0  0  0  0  0
    5.7172   -2.1465    0.0000 C   0  0  0  0  0  0  0  0  0  0  0  0
    3.9851   -2.1465    0.0000 C   0  0  0  0  0  0  0  0  0  0  0  0
    5.7172   -3.1465    0.0000 C   0  0  0  0  0  0  0  0  0  0  0  0
    7.3074   -0.5939    0.0000 C   0  0  0  0  0  0  0  0  0  0  0  0
    6.9473    1.1003    0.0000 C   0  0  0  0  0  0  0  0  0  0  0  0
    7.9255    1.3082    0.0000 C   0  0  0  0  0  0  0  0  0  0  0  0
    4.8511   -3.6465    0.0000 C   0  0  0  0  0  0  0  0  0  0  0  0
    3.9851   -3.1465    0.0000 C   0  0  0  0  0  0  0  0  0  0  0  0
    8.5946    0.5650    0.0000 C   0  0  0  0  0  0  0  0  0  0  0  0
    8.2856   -0.3860    0.0000 C   0  0  0  0  0  0  0  0  0  0  0  0
    4.3511    0.8924    0.0000 C   0  0  0  0  0  0  0  0  0  0  0  0
    3.7634    1.7014    0.0000 C   0  0  0  0  0  0  0  0  0  0  0  0
    2.2531   -2.1465    0.0000 C   0  0  0  0  0  0  0  0  0  0  0  0
    7.6676   -2.2881    0.0000 C   0  0  0  0  0  0  0  0  0  0  0  0
    3.5823    3.4239    0.0000 C   0  0  0  0  0  0  0  0  0  0  0  0
    3.9890    4.3375    0.0000 C   0  0  0  0  0  0  0  0  0  0  0  0
    2.5878    3.3194    0.0000 C   0  0  0  0  0  0  0  0  0  0  0  0
    3.4013    5.1465    0.0000 C   0  0  0  0  0  0  0  0  0  0  0  0
    2.0000    4.1284    0.0000 C   0  0  0  0  0  0  0  0  0  0  0  0
    2.4067    5.0420    0.0000 C   0  0  0  0  0  0  0  0  0  0  0  0
    6.2541   -1.8365    0.0000 H   0  0  0  0  0  0  0  0  0  0  0  0
    6.5325    1.5610    0.0000 H   0  0  0  0  0  0  0  0  0  0  0  0
    3.4482   -3.4565    0.0000 H   0  0  0  0  0  0  0  0  0  0  0  0
    8.7004   -0.8468    0.0000 H   0  0  0  0  0  0  0  0  0  0  0  0
    4.7867    2.6797    0.0000 H   0  0  0  0  0  0  0  0  0  0  0  0
    1.9431   -1.6096    0.0000 H   0  0  0  0  0  0  0  0  0  0  0  0
    1.7161   -2.4565    0.0000 H   0  0  0  0  0  0  0  0  0  0  0  0
    2.5631   -2.6834    0.0000 H   0  0  0  0  0  0  0  0  0  0  0  0
    7.2068   -2.7030    0.0000 H   0  0  0  0  0  0  0  0  0  0  0  0
    8.0824   -2.7489    0.0000 H   0  0  0  0  0  0  0  0  0  0  0  0
    8.1283   -1.8733    0.0000 H   0  0  0  0  0  0  0  0  0  0  0  0
    7.4492   -4.7665    0.0000 H   0  0  0  0  0  0  0  0  0  0  0  0
    4.6056    4.4023    0.0000 H   0  0  0  0  0  0  0  0  0  0  0  0
    2.3356    2.7530    0.0000 H   0  0  0  0  0  0  0  0  0  0  0  0
    3.6534    5.7129    0.0000 H   0  0  0  0  0  0  0  0  0  0  0  0
    1.3834    4.0636    0.0000 H   0  0  0  0  0  0  0  0  0  0  0  0
    2.0423    5.5436    0.0000 H   0  0  0  0  0  0  0  0  0  0  0  0
  1  5  1  0  0  0  0
  1  6  2  0  0  0  0
  1  7  2  0  0  0  0
  1 27  1  0  0  0  0
  2  8  1  0  0  0  0
  2  9  2  0  0  0  0
  2 10  2  0  0  0  0
  2 30  1  0  0  0  0
  3 26  1  0  0  0  0
  3 37  1  0  0  0  0
  4 28  1  0  0  0  0
  4 38  1  0  0  0  0
  5 56  1  0  0  0  0
 11 36  2  0  0  0  0
 12 20  1  0  0  0  0
 13 20  2  0  0  0  0
 14 21  1  0  0  0  0
 15 21  2  0  0  0  0
 16 17  1  0  0  0  0
 16 18  2  0  0  0  0
 16 23  1  0  0  0  0
 17 19  1  0  0  0  0
 17 24  1  0  0  0  0
 18 35  1  0  0  0  0
 19 35  2  0  0  0  0
 20 31  1  0  0  0  0
 21 33  1  0  0  0  0
 22 36  1  0  0  0  0
 22 39  1  0  0  0  0
 22 49  1  0  0  0  0
 23 25  2  0  0  0  0
 23 26  1  0  0  0  0
 24 28  1  0  0  0  0
 24 29  2  0  0  0  0
 25 27  1  0  0  0  0
 25 45  1  0  0  0  0
 26 32  2  0  0  0  0
 27 31  2  0  0  0  0
 28 34  2  0  0  0  0
 29 30  1  0  0  0  0
 29 46  1  0  0  0  0
 30 33  2  0  0  0  0
 31 32  1  0  0  0  0
 32 47  1  0  0  0  0
 33 34  1  0  0  0  0
 34 48  1  0  0  0  0
 35 36  1  0  0  0  0
 37 50  1  0  0  0  0
 37 51  1  0  0  0  0
 37 52  1  0  0  0  0
 38 53  1  0  0  0  0
 38 54  1  0  0  0  0
 38 55  1  0  0  0  0
 39 40  2  0  0  0  0
 39 41  1  0  0  0  0
 40 42  1  0  0  0  0
 40 57  1  0  0  0  0
 41 43  2  0  0  0  0
 41 58  1  0  0  0  0
 42 44  2  0  0  0  0
 42 59  1  0  0  0  0
 43 44  1  0  0  0  0
 43 60  1  0  0  0  0
 44 61  1  0  0  0  0
M  CHG  6   8  -1  12  -1  14  -1  16   1  20   1  21   1
M  END
> <PUBCHEM_COMPOUND_CID>
5704

> <PUBCHEM_COMPOUND_CANONICALIZED>
1

> <PUBCHEM_CACTVS_COMPLEXITY>
1260

> <PUBCHEM_CACTVS_HBOND_ACCEPTOR>
15

> <PUBCHEM_CACTVS_HBOND_DONOR>
2

> <PUBCHEM_CACTVS_ROTATABLE_BOND>
7

> <PUBCHEM_CACTVS_SUBSKEYS>
AAADceB7vABgAAAAAAAAAAAAAAAAAWAAAAAwYMAAAAAAAAAB1AAAHgQcCAAACAyB0wIz14bQRIKrACdyc3DSDEIjIgA8iByHbIoOZiLEsZuVMCxm3BnI6AeQUAEAAICAAiAAEQABAQAEQAAiAAAAAAAAAA==

> <PUBCHEM_IUPAC_OPENEYE_NAME>
4-methoxy-5-[3-(2-methoxy-4-nitro-5-sulfo-phenyl)-5-(phenylcarbamoyl)tetrazol-3-ium-2-yl]-2-nitro-benzenesulfonate

> <PUBCHEM_IUPAC_CAS_NAME>
5-[5-[anilino(oxo)methyl]-3-(2-methoxy-4-nitro-5-sulfophenyl)-2-tetrazol-3-iumyl]-4-methoxy-2-nitrobenzenesulfonate

> <PUBCHEM_IUPAC_NAME>
4-methoxy-5-[3-(2-methoxy-4-nitro-5-sulfophenyl)-5-(phenylcarbamoyl)tetrazol-3-ium-2-yl]-2-nitrobenzenesulfonate

> <PUBCHEM_IUPAC_SYSTEMATIC_NAME>
4-methoxy-5-[3-(2-methoxy-4-nitro-5-sulfo-phenyl)-5-(phenylcarbamoyl)-1,2,3,4-tetrazol-3-ium-2-yl]-2-nitro-benzenesulfonate

> <PUBCHEM_IUPAC_TRADITIONAL_NAME>
4-methoxy-5-[3-(2-methoxy-4-nitro-5-sulfo-phenyl)-5-(phenylcarbamoyl)tetrazol-3-ium-2-yl]-2-nitro-besylate

> <PUBCHEM_IUPAC_INCHI>
InChI=1S/C22H17N7O13S2/c1-41-17-8-15(28(31)32)19(43(35,36)37)10-13(17)26-24-21(22(30)23-12-6-4-3-5-7-12)25-27(26)14-11-20(44(38,39)40)16(29(33)34)9-18(14)42-2/h3-11H,1-2H3,(H2-,23,30,35,36,37,38,39,40)

> <PUBCHEM_IUPAC_INCHIKEY>
CFBVWCHTNQHZLT-UHFFFAOYSA-N

> <PUBCHEM_XLOGP3_AA>
2.9

> <PUBCHEM_EXACT_MASS>
651.032576

> <PUBCHEM_MOLECULAR_FORMULA>
C22H17N7O13S2

> <PUBCHEM_MOLECULAR_WEIGHT>
651.53948

> <PUBCHEM_OPENEYE_CAN_SMILES>
COC1=CC(=C(C=C1N2N=C(N=[N+]2C3=CC(=C(C=C3OC)[N+](=O)[O-])S(=O)(=O)O)C(=O)NC4=CC=CC=C4)S(=O)(=O)[O-])[N+](=O)[O-]

> <PUBCHEM_OPENEYE_ISO_SMILES>
COC1=CC(=C(C=C1N2N=C(N=[N+]2C3=CC(=C(C=C3OC)[N+](=O)[O-])S(=O)(=O)O)C(=O)NC4=CC=CC=C4)S(=O)(=O)[O-])[N+](=O)[O-]

> <PUBCHEM_CACTVS_TPSA>
302

> <PUBCHEM_MONOISOTOPIC_WEIGHT>
651.032576

> <PUBCHEM_TOTAL_CHARGE>
0

> <PUBCHEM_HEAVY_ATOM_COUNT>
44

> <PUBCHEM_ATOM_DEF_STEREO_COUNT>
0

> <PUBCHEM_ATOM_UDEF_STEREO_COUNT>
0

> <PUBCHEM_BOND_DEF_STEREO_COUNT>
0

> <PUBCHEM_BOND_UDEF_STEREO_COUNT>
0

> <PUBCHEM_ISOTOPIC_ATOM_COUNT>
0

> <PUBCHEM_COMPONENT_COUNT>
1

> <PUBCHEM_CACTVS_TAUTO_COUNT>
2

> <PUBCHEM_COORDINATE_TYPE>
1
5
255

> <PUBCHEM_BONDANNOTATIONS>
16  17  8
16  18  8
17  19  8
18  35  8
19  35  8
23  25  8
23  26  8
24  28  8
24  29  8
25  27  8
26  32  8
27  31  8
28  34  8
29  30  8
30  33  8
31  32  8
33  34  8
39  40  8
39  41  8
40  42  8
41  43  8
42  44  8
43  44  8

$$$$

