440126
  -OEChem-07051212483D

 16 15  0     1  0  0  0  0  0999 V2000
   -1.7520   -1.1283    0.2307 S   0  0  0  0  0  0  0  0  0  0  0  0
    1.2300    1.3362    0.7163 O   0  0  0  0  0  0  0  0  0  0  0  0
    3.0040   -0.7250   -0.0037 O   0  0  0  0  0  0  0  0  0  0  0  0
   -0.9775    1.1495   -0.8474 O   0  0  0  0  0  0  0  0  0  0  0  0
    0.7519    0.0282    0.4253 C   0  0  2  0  0  0  0  0  0  0  0  0
    1.7103   -0.6039   -0.5758 C   0  0  0  0  0  0  0  0  0  0  0  0
   -0.6402    0.1877   -0.1664 C   0  0  0  0  0  0  0  0  0  0  0  0
   -3.3266   -0.2444    0.2211 C   0  0  0  0  0  0  0  0  0  0  0  0
    0.7374   -0.5287    1.3677 H   0  0  0  0  0  0  0  0  0  0  0  0
    1.3715   -1.6016   -0.8716 H   0  0  0  0  0  0  0  0  0  0  0  0
    1.8015    0.0062   -1.4814 H   0  0  0  0  0  0  0  0  0  0  0  0
    0.6748    1.6989    1.4278 H   0  0  0  0  0  0  0  0  0  0  0  0
    3.2876    0.1648    0.2674 H   0  0  0  0  0  0  0  0  0  0  0  0
   -3.3017    0.5856    0.9322 H   0  0  0  0  0  0  0  0  0  0  0  0
   -4.1283   -0.9288    0.5105 H   0  0  0  0  0  0  0  0  0  0  0  0
   -3.5427    0.1416   -0.7787 H   0  0  0  0  0  0  0  0  0  0  0  0
  1  7  1  0  0  0  0
  1  8  1  0  0  0  0
  2  5  1  0  0  0  0
  2 12  1  0  0  0  0
  3  6  1  0  0  0  0
  3 13  1  0  0  0  0
  4  7  2  0  0  0  0
  5  6  1  0  0  0  0
  5  7  1  0  0  0  0
  5  9  1  0  0  0  0
  6 10  1  0  0  0  0
  6 11  1  0  0  0  0
  8 14  1  0  0  0  0
  8 15  1  0  0  0  0
  8 16  1  0  0  0  0
M  END
> <PUBCHEM_COMPOUND_CID>
440126

> <PUBCHEM_CONFORMER_RMSD>
0.6

> <PUBCHEM_CONFORMER_DIVERSEORDER>
4
22
41
37
42
35
33
18
10
7
25
13
9
14
39
32
11
36
17
29
40
1
8
34
27
20
24
23
30
3
31
26
6
28
15
38
16
2
5
21
19
12

> <PUBCHEM_MMFF94_PARTIAL_CHARGES>
10
1 -0.37
12 0.4
13 0.4
2 -0.68
3 -0.68
4 -0.57
5 0.34
6 0.28
7 0.65
8 0.23

> <PUBCHEM_EFFECTIVE_ROTOR_COUNT>
3

> <PUBCHEM_PHARMACOPHORE_FEATURES>
5
1 2 acceptor
1 2 donor
1 3 acceptor
1 3 donor
1 8 hydrophobe

> <PUBCHEM_HEAVY_ATOM_COUNT>
8

> <PUBCHEM_ATOM_DEF_STEREO_COUNT>
1

> <PUBCHEM_ATOM_UDEF_STEREO_COUNT>
0

> <PUBCHEM_BOND_DEF_STEREO_COUNT>
0

> <PUBCHEM_BOND_UDEF_STEREO_COUNT>
0

> <PUBCHEM_ISOTOPIC_ATOM_COUNT>
0

> <PUBCHEM_COMPONENT_COUNT>
1

> <PUBCHEM_CACTVS_TAUTO_COUNT>
1

> <PUBCHEM_CONFORMER_ID>
0006B73E00000004

> <PUBCHEM_MMFF94_ENERGY>
7.5896

> <PUBCHEM_FEATURE_SELFOVERLAP>
25.379

> <PUBCHEM_SHAPE_FINGERPRINT>
16714656 1 18131066052249978679
21040471 1 17627532736372953845
23552423 10 17988641839816422855
29004967 10 17894628184199007730

> <PUBCHEM_SHAPE_MULTIPOLES>
150.88
4.23
1.2
0.8
0.9
0.14
0.03
-1.13
-0.2
-0.07
-0.01
-0.04
0.11
0.35

> <PUBCHEM_SHAPE_SELFOVERLAP>
264.71

> <PUBCHEM_SHAPE_VOLUME>
100

> <PUBCHEM_COORDINATE_TYPE>
2
5
10

$$$$

