12544
  -OEChem-07051212503D

 75 78  0     1  0  0  0  0  0999 V2000
   -3.5032   -1.5620   -2.0263 O   0  0  0  0  0  0  0  0  0  0  0  0
   -6.6012    2.2781   -2.4723 O   0  0  0  0  0  0  0  0  0  0  0  0
    6.0016   -0.7590   -1.2800 O   0  0  0  0  0  0  0  0  0  0  0  0
    8.1900    2.0020   -0.5451 O   0  0  0  0  0  0  0  0  0  0  0  0
   10.1510    1.0174   -1.1217 O   0  0  0  0  0  0  0  0  0  0  0  0
    7.1890   -0.1159    0.6110 N   0  0  0  0  0  0  0  0  0  0  0  0
   -1.3192   -1.0675   -0.2341 C   0  0  2  0  0  0  0  0  0  0  0  0
   -0.3864   -0.3140    0.7381 C   0  0  1  0  0  0  0  0  0  0  0  0
   -2.7728   -1.1376    0.2576 C   0  0  1  0  0  0  0  0  0  0  0  0
   -3.3132    0.3228    0.4275 C   0  0  1  0  0  0  0  0  0  0  0  0
   -4.8066    0.3372    0.9323 C   0  0  2  0  0  0  0  0  0  0  0  0
    0.9544   -0.4931   -0.0158 C   0  0  2  0  0  0  0  0  0  0  0  0
   -5.6933   -0.4958   -0.0524 C   0  0  2  0  0  0  0  0  0  0  0  0
   -0.8833    1.1342    0.8275 C   0  0  0  0  0  0  0  0  0  0  0  0
   -2.3537    1.2037    1.2757 C   0  0  0  0  0  0  0  0  0  0  0  0
   -3.6661   -1.9785   -0.6739 C   0  0  1  0  0  0  0  0  0  0  0  0
   -0.5724   -2.3698   -0.5096 C   0  0  0  0  0  0  0  0  0  0  0  0
    0.9126   -1.9638   -0.4919 C   0  0  0  0  0  0  0  0  0  0  0  0
   -5.1440   -1.9193   -0.2772 C   0  0  0  0  0  0  0  0  0  0  0  0
   -5.3910    1.7772    1.0345 C   0  0  0  0  0  0  0  0  0  0  0  0
   -0.3147   -0.9310    2.1570 C   0  0  0  0  0  0  0  0  0  0  0  0
    2.2218   -0.1567    0.7567 C   0  0  1  0  0  0  0  0  0  0  0  0
   -5.9392    0.2246   -1.3950 C   0  0  0  0  0  0  0  0  0  0  0  0
   -4.9218   -0.2662    2.3581 C   0  0  0  0  0  0  0  0  0  0  0  0
   -5.5939    2.4629   -0.3097 C   0  0  0  0  0  0  0  0  0  0  0  0
   -6.4988    1.6312   -1.2081 C   0  0  1  0  0  0  0  0  0  0  0  0
    3.5018   -0.3629   -0.0785 C   0  0  0  0  0  0  0  0  0  0  0  0
    2.1654    1.2936    1.2503 C   0  0  0  0  0  0  0  0  0  0  0  0
    4.7866   -0.0913    0.7049 C   0  0  0  0  0  0  0  0  0  0  0  0
    6.0349   -0.3680   -0.1165 C   0  0  0  0  0  0  0  0  0  0  0  0
    8.5174   -0.2890    0.0694 C   0  0  0  0  0  0  0  0  0  0  0  0
    9.0480    0.9566   -0.5925 C   0  0  0  0  0  0  0  0  0  0  0  0
   -1.3280   -0.5113   -1.1861 H   0  0  0  0  0  0  0  0  0  0  0  0
   -2.7849   -1.6375    1.2312 H   0  0  0  0  0  0  0  0  0  0  0  0
   -3.2998    0.7743   -0.5740 H   0  0  0  0  0  0  0  0  0  0  0  0
    0.9310    0.1368   -0.9187 H   0  0  0  0  0  0  0  0  0  0  0  0
   -6.6854   -0.6150    0.4083 H   0  0  0  0  0  0  0  0  0  0  0  0
   -0.7920    1.6268   -0.1491 H   0  0  0  0  0  0  0  0  0  0  0  0
   -0.3236    1.7428    1.5366 H   0  0  0  0  0  0  0  0  0  0  0  0
   -2.6625    2.2529    1.2119 H   0  0  0  0  0  0  0  0  0  0  0  0
   -2.4165    0.9280    2.3328 H   0  0  0  0  0  0  0  0  0  0  0  0
   -3.3535   -3.0290   -0.6314 H   0  0  0  0  0  0  0  0  0  0  0  0
   -0.7718   -3.1167    0.2670 H   0  0  0  0  0  0  0  0  0  0  0  0
   -0.8460   -2.8145   -1.4710 H   0  0  0  0  0  0  0  0  0  0  0  0
    1.3516   -2.0566   -1.4917 H   0  0  0  0  0  0  0  0  0  0  0  0
    1.4676   -2.6332    0.1752 H   0  0  0  0  0  0  0  0  0  0  0  0
   -5.7477   -2.4180   -1.0460 H   0  0  0  0  0  0  0  0  0  0  0  0
   -5.2803   -2.4985    0.6442 H   0  0  0  0  0  0  0  0  0  0  0  0
   -6.3698    1.7302    1.5330 H   0  0  0  0  0  0  0  0  0  0  0  0
   -4.7716    2.4107    1.6783 H   0  0  0  0  0  0  0  0  0  0  0  0
    0.0991   -1.9443    2.1502 H   0  0  0  0  0  0  0  0  0  0  0  0
    0.3093   -0.3330    2.8278 H   0  0  0  0  0  0  0  0  0  0  0  0
   -1.2949   -0.9978    2.6364 H   0  0  0  0  0  0  0  0  0  0  0  0
    2.3095   -0.8099    1.6341 H   0  0  0  0  0  0  0  0  0  0  0  0
   -6.6382   -0.3578   -2.0092 H   0  0  0  0  0  0  0  0  0  0  0  0
   -5.0238    0.2916   -1.9909 H   0  0  0  0  0  0  0  0  0  0  0  0
   -5.9714   -0.3251    2.6709 H   0  0  0  0  0  0  0  0  0  0  0  0
   -4.5151   -1.2773    2.4315 H   0  0  0  0  0  0  0  0  0  0  0  0
   -4.4060    0.3520    3.1000 H   0  0  0  0  0  0  0  0  0  0  0  0
   -6.0419    3.4527   -0.1579 H   0  0  0  0  0  0  0  0  0  0  0  0
   -4.6309    2.6523   -0.7988 H   0  0  0  0  0  0  0  0  0  0  0  0
   -7.5070    1.5784   -0.7820 H   0  0  0  0  0  0  0  0  0  0  0  0
    3.4721    0.2828   -0.9660 H   0  0  0  0  0  0  0  0  0  0  0  0
    3.5362   -1.3938   -0.4508 H   0  0  0  0  0  0  0  0  0  0  0  0
   -2.6552   -1.9057   -2.3512 H   0  0  0  0  0  0  0  0  0  0  0  0
    1.5165    1.3889    2.1218 H   0  0  0  0  0  0  0  0  0  0  0  0
    1.8387    1.9809    0.4632 H   0  0  0  0  0  0  0  0  0  0  0  0
    3.1229    1.6654    1.6175 H   0  0  0  0  0  0  0  0  0  0  0  0
   -5.7109    2.3260   -2.8603 H   0  0  0  0  0  0  0  0  0  0  0  0
    4.8624    0.9556    1.0108 H   0  0  0  0  0  0  0  0  0  0  0  0
    4.8195   -0.7172    1.6042 H   0  0  0  0  0  0  0  0  0  0  0  0
    7.1091    0.2248    1.5648 H   0  0  0  0  0  0  0  0  0  0  0  0
    9.1757   -0.5499    0.9026 H   0  0  0  0  0  0  0  0  0  0  0  0
    8.5022   -1.0963   -0.6688 H   0  0  0  0  0  0  0  0  0  0  0  0
    8.5583    2.7996   -0.9817 H   0  0  0  0  0  0  0  0  0  0  0  0
  1 16  1  0  0  0  0
  1 65  1  0  0  0  0
  2 26  1  0  0  0  0
  2 69  1  0  0  0  0
  3 30  2  0  0  0  0
  4 32  1  0  0  0  0
  4 75  1  0  0  0  0
  5 32  2  0  0  0  0
  6 30  1  0  0  0  0
  6 31  1  0  0  0  0
  6 72  1  0  0  0  0
  7  8  1  0  0  0  0
  7  9  1  0  0  0  0
  7 17  1  0  0  0  0
  7 33  1  0  0  0  0
  8 12  1  0  0  0  0
  8 14  1  0  0  0  0
  8 21  1  0  0  0  0
  9 10  1  0  0  0  0
  9 16  1  0  0  0  0
  9 34  1  0  0  0  0
 10 11  1  0  0  0  0
 10 15  1  0  0  0  0
 10 35  1  0  0  0  0
 11 13  1  0  0  0  0
 11 20  1  0  0  0  0
 11 24  1  0  0  0  0
 12 18  1  0  0  0  0
 12 22  1  0  0  0  0
 12 36  1  0  0  0  0
 13 19  1  0  0  0  0
 13 23  1  0  0  0  0
 13 37  1  0  0  0  0
 14 15  1  0  0  0  0
 14 38  1  0  0  0  0
 14 39  1  0  0  0  0
 15 40  1  0  0  0  0
 15 41  1  0  0  0  0
 16 19  1  0  0  0  0
 16 42  1  0  0  0  0
 17 18  1  0  0  0  0
 17 43  1  0  0  0  0
 17 44  1  0  0  0  0
 18 45  1  0  0  0  0
 18 46  1  0  0  0  0
 19 47  1  0  0  0  0
 19 48  1  0  0  0  0
 20 25  1  0  0  0  0
 20 49  1  0  0  0  0
 20 50  1  0  0  0  0
 21 51  1  0  0  0  0
 21 52  1  0  0  0  0
 21 53  1  0  0  0  0
 22 27  1  0  0  0  0
 22 28  1  0  0  0  0
 22 54  1  0  0  0  0
 23 26  1  0  0  0  0
 23 55  1  0  0  0  0
 23 56  1  0  0  0  0
 24 57  1  0  0  0  0
 24 58  1  0  0  0  0
 24 59  1  0  0  0  0
 25 26  1  0  0  0  0
 25 60  1  0  0  0  0
 25 61  1  0  0  0  0
 26 62  1  0  0  0  0
 27 29  1  0  0  0  0
 27 63  1  0  0  0  0
 27 64  1  0  0  0  0
 28 66  1  0  0  0  0
 28 67  1  0  0  0  0
 28 68  1  0  0  0  0
 29 30  1  0  0  0  0
 29 70  1  0  0  0  0
 29 71  1  0  0  0  0
 31 32  1  0  0  0  0
 31 73  1  0  0  0  0
 31 74  1  0  0  0  0
M  END
> <PUBCHEM_COMPOUND_CID>
12544

> <PUBCHEM_CONFORMER_RMSD>
1

> <PUBCHEM_CONFORMER_DIVERSEORDER>
1
13
10
15
4
16
8
14
9
12
5
2
11
3
7
6

> <PUBCHEM_MMFF94_PARTIAL_CHARGES>
16
1 -0.68
16 0.28
2 -0.68
26 0.28
29 0.06
3 -0.57
30 0.57
31 0.36
32 0.66
4 -0.65
5 -0.57
6 -0.73
65 0.4
69 0.4
72 0.37
75 0.5

> <PUBCHEM_EFFECTIVE_ROTOR_COUNT>
9.2

> <PUBCHEM_PHARMACOPHORE_FEATURES>
14
1 1 acceptor
1 1 donor
1 2 acceptor
1 2 donor
1 28 hydrophobe
1 3 acceptor
1 4 acceptor
1 5 acceptor
1 6 donor
3 4 5 32 anion
5 7 8 12 17 18 rings
6 11 13 20 23 25 26 rings
6 7 8 9 10 14 15 rings
6 9 10 11 13 16 19 rings

> <PUBCHEM_HEAVY_ATOM_COUNT>
32

> <PUBCHEM_ATOM_DEF_STEREO_COUNT>
10

> <PUBCHEM_ATOM_UDEF_STEREO_COUNT>
0

> <PUBCHEM_BOND_DEF_STEREO_COUNT>
0

> <PUBCHEM_BOND_UDEF_STEREO_COUNT>
0

> <PUBCHEM_ISOTOPIC_ATOM_COUNT>
0

> <PUBCHEM_COMPONENT_COUNT>
1

> <PUBCHEM_CACTVS_TAUTO_COUNT>
2

> <PUBCHEM_CONFORMER_ID>
0000310000000001

> <PUBCHEM_MMFF94_ENERGY>
104.999

> <PUBCHEM_FEATURE_SELFOVERLAP>
71.223

> <PUBCHEM_SHAPE_FINGERPRINT>
10076449 9 17748828497639745707
10411042 1 17827365380752234127
10669705 176 18260544550654128006
11007060 377 18337392630174618146
11135609 187 18201722864459143770
11135926 11 18113615724770371423
11181472 205 18271525420725970016
11315181 36 18334573534163994323
11456790 92 13542470848302031508
11578821 258 18272649022631300524
12082328 90 17346597478021466811
12838862 33 18041010548910264778
13668630 136 5328744059281235248
13782708 43 5978099133190544126
13811026 1 17240771670719428296
14251764 18 18040714771455042594
14849402 71 12822707450562345662
15183329 4 18187367640662360554
15276724 80 18131356319679184332
15461852 350 17821733810156515373
1577012 14 18341897394576836810
16994733 274 17988648510206692896
17093844 174 17846778507789500707
1754908 1 12895071791739059700
1754911 235 18410006625517207716
1818759 1 9151177572007568552
18681886 176 18113909233854692090
195137 175 18413106161142590164
21267235 1 18040998393778569507
21709351 56 18334581226661521649
21756936 100 17775565334339563603
22899556 105 17762044450568578719
23559900 14 17604156960141720947
23576562 1 18263933141842610748
335352 9 18113621183826356681
4073 2 18341606010910763986
4093350 32 16128383705452572408
4169191 19 18333728044045107914
44389302 135 8718288789223375548
44802255 64 18411143558788982183
4616759 239 13038905555956073045
5104073 3 11599461229159998308
5265222 85 17823136727581822902
6201320 215 17560254651284497532
6201320 82 18196929083682742333
6328613 192 18411981347588212384
9953998 17 14333410060326717037
999808 66 8430309156364523261

> <PUBCHEM_SHAPE_MULTIPOLES>
624.22
25.24
2.2
1.67
66.67
0.03
-0.01
12.07
-10.36
-2.81
-0.68
-2.43
0.36
0.18

> <PUBCHEM_SHAPE_SELFOVERLAP>
1300.729

> <PUBCHEM_SHAPE_VOLUME>
351.9

> <PUBCHEM_COORDINATE_TYPE>
2
5
10

$$$$

