439740
  -OEChem-07051212473D

 34 37  0     1  0  0  0  0  0999 V2000
   -4.8017    0.0472   -0.6842 P   0  0  2  0  0  0  0  0  0  0  0  0
   -1.1462    0.0818    1.6324 O   0  0  0  0  0  0  0  0  0  0  0  0
   -3.4329    0.8786   -0.9862 O   0  0  0  0  0  0  0  0  0  0  0  0
   -4.7450   -0.2804    0.9075 O   0  0  0  0  0  0  0  0  0  0  0  0
   -4.5412   -1.3899   -1.3839 O   0  0  0  0  0  0  0  0  0  0  0  0
   -6.0550    0.7340   -1.1434 O   0  0  0  0  0  0  0  0  0  0  0  0
    4.8571   -2.0376   -0.6261 O   0  0  0  0  0  0  0  0  0  0  0  0
    0.8811   -0.1547    0.4111 N   0  0  0  0  0  0  0  0  0  0  0  0
    2.7677    1.3569    0.1455 N   0  0  0  0  0  0  0  0  0  0  0  0
    1.9746   -2.0691   -0.0061 N   0  0  0  0  0  0  0  0  0  0  0  0
    4.8370    0.2695   -0.4046 N   0  0  0  0  0  0  0  0  0  0  0  0
    4.6879    2.6083   -0.1528 N   0  0  0  0  0  0  0  0  0  0  0  0
   -2.2663    0.3621   -0.3851 C   0  0  2  0  0  0  0  0  0  0  0  0
   -2.4503    0.3332    1.1170 C   0  0  1  0  0  0  0  0  0  0  0  0
   -1.0238    1.2104   -0.4935 C   0  0  0  0  0  0  0  0  0  0  0  0
   -0.2231    0.7488    0.7342 C   0  0  1  0  0  0  0  0  0  0  0  0
   -3.5069   -0.6836    1.4962 C   0  0  0  0  0  0  0  0  0  0  0  0
    2.1723    0.1615    0.1612 C   0  0  0  0  0  0  0  0  0  0  0  0
    0.8085   -1.5248    0.2982 C   0  0  0  0  0  0  0  0  0  0  0  0
    2.8299   -1.0068   -0.0913 C   0  0  0  0  0  0  0  0  0  0  0  0
    4.2466   -1.0004   -0.3970 C   0  0  0  0  0  0  0  0  0  0  0  0
    4.1297    1.3551   -0.1491 C   0  0  0  0  0  0  0  0  0  0  0  0
   -2.0556   -0.6364   -0.7886 H   0  0  0  0  0  0  0  0  0  0  0  0
   -2.7804    1.3195    1.4749 H   0  0  0  0  0  0  0  0  0  0  0  0
   -0.5001    1.0835   -1.4461 H   0  0  0  0  0  0  0  0  0  0  0  0
   -1.2807    2.2734   -0.4067 H   0  0  0  0  0  0  0  0  0  0  0  0
    0.2066    1.6031    1.2691 H   0  0  0  0  0  0  0  0  0  0  0  0
   -3.2485   -1.6930    1.1587 H   0  0  0  0  0  0  0  0  0  0  0  0
   -3.6315   -0.7261    2.5826 H   0  0  0  0  0  0  0  0  0  0  0  0
   -0.1138   -2.0711    0.4425 H   0  0  0  0  0  0  0  0  0  0  0  0
    2.2815    2.2285    0.3290 H   0  0  0  0  0  0  0  0  0  0  0  0
   -4.6625   -1.4731   -2.3537 H   0  0  0  0  0  0  0  0  0  0  0  0
    5.6728    2.7433   -0.3534 H   0  0  0  0  0  0  0  0  0  0  0  0
    4.1345    3.4347    0.0448 H   0  0  0  0  0  0  0  0  0  0  0  0
  1  3  1  0  0  0  0
  1  4  1  0  0  0  0
  1  5  1  0  0  0  0
  1  6  2  0  0  0  0
  2 14  1  0  0  0  0
  2 16  1  0  0  0  0
  3 13  1  0  0  0  0
  4 17  1  0  0  0  0
  5 32  1  0  0  0  0
  7 21  2  0  0  0  0
  8 16  1  0  0  0  0
  8 18  1  0  0  0  0
  8 19  1  0  0  0  0
  9 18  1  0  0  0  0
  9 22  1  0  0  0  0
  9 31  1  0  0  0  0
 10 19  2  0  0  0  0
 10 20  1  0  0  0  0
 11 21  1  0  0  0  0
 11 22  2  0  0  0  0
 12 22  1  0  0  0  0
 12 33  1  0  0  0  0
 12 34  1  0  0  0  0
 13 14  1  0  0  0  0
 13 15  1  0  0  0  0
 13 23  1  0  0  0  0
 14 17  1  0  0  0  0
 14 24  1  0  0  0  0
 15 16  1  0  0  0  0
 15 25  1  0  0  0  0
 15 26  1  0  0  0  0
 16 27  1  0  0  0  0
 17 28  1  0  0  0  0
 17 29  1  0  0  0  0
 18 20  2  0  0  0  0
 19 30  1  0  0  0  0
 20 21  1  0  0  0  0
M  END
> <PUBCHEM_COMPOUND_CID>
439740

> <PUBCHEM_CONFORMER_RMSD>
0.6

> <PUBCHEM_CONFORMER_DIVERSEORDER>
1
6
4
5
2
3
7

> <PUBCHEM_MMFF94_PARTIAL_CHARGES>
26
1 1.51
10 -0.57
11 -0.66
12 -0.85
13 0.28
14 0.28
16 0.54
17 0.28
18 -0.07
19 0.04
2 -0.56
20 0.14
21 0.87
22 0.55
3 -0.55
30 0.15
31 0.4
32 0.5
33 0.4
34 0.4
4 -0.55
5 -0.77
6 -0.7
7 -0.57
8 0.05
9 -0.53

> <PUBCHEM_EFFECTIVE_ROTOR_COUNT>
2.2

> <PUBCHEM_PHARMACOPHORE_FEATURES>
12
1 11 donor
1 12 donor
1 2 acceptor
1 5 acceptor
1 6 acceptor
1 7 acceptor
1 9 donor
3 8 10 19 cation
5 2 13 14 15 16 rings
5 8 10 18 19 20 rings
6 1 3 4 13 14 17 rings
6 9 11 18 20 21 22 rings

> <PUBCHEM_HEAVY_ATOM_COUNT>
22

> <PUBCHEM_ATOM_DEF_STEREO_COUNT>
3

> <PUBCHEM_ATOM_UDEF_STEREO_COUNT>
0

> <PUBCHEM_BOND_DEF_STEREO_COUNT>
0

> <PUBCHEM_BOND_UDEF_STEREO_COUNT>
0

> <PUBCHEM_ISOTOPIC_ATOM_COUNT>
0

> <PUBCHEM_COMPONENT_COUNT>
1

> <PUBCHEM_CACTVS_TAUTO_COUNT>
6

> <PUBCHEM_CONFORMER_ID>
0006B5BC00000001

> <PUBCHEM_MMFF94_ENERGY>
41.8524

> <PUBCHEM_FEATURE_SELFOVERLAP>
61.234

> <PUBCHEM_SHAPE_FINGERPRINT>
10366900 7 17988634255341898146
10912923 1 17458336442368515864
11128504 68 17385719162985172256
11471102 20 18410289220804798320
11615757 297 18187362151203402888
12236239 1 17458624540195411177
12403259 415 17989194941462393832
12403260 363 18339644546637903664
12616971 3 18040985276230646211
12670546 177 18408044013280817407
12730499 353 18131346440615879011
128620 24 18410853252520259405
13760787 5 18187077364880747033
13862211 1 18265330802327986462
14251757 5 17387702600072777695
14528608 73 18410294687760316972
15375358 24 17917711292657669249
15475509 84 11959470989186539094
15961568 22 16916497052704594700
17834072 33 18113337496593328901
17844677 252 18336260236277379229
1813 80 14851607673904128832
18222031 100 18262519333699388850
19489759 90 16200152071348512497
200 152 18260829323564387297
20028762 73 18040720315963287182
20645477 70 18336548308682221462
21065201 7 16773791494037104290
21709351 56 18263921201928063764
22393880 68 18060138764528966691
23402539 116 16988846059898469379
23402655 69 18409731789699755401
23557571 272 17203313525416162115
23559900 14 17203604921867754858
23596394 208 18202565115813699922
2871803 45 18342739658389079114
29717793 49 17894910775561208581
341906 21 15985388884542611972
465052 167 16950851315030781479
474 4 17387708111006363816
5104073 3 18272365412321737360
5281201 14 18341046406504107996
5283173 99 17775291607531555069
602551 16 14851614266652547846
6327066 14 18053663578230875852
6913067 236 18271258135545907664
7495541 125 16515691026547701386

> <PUBCHEM_SHAPE_MULTIPOLES>
396.48
12.38
1.83
1.16
3.93
0.04
-0.18
0.64
3.68
-2.64
0.25
1.6
-0.11
0.5

> <PUBCHEM_SHAPE_SELFOVERLAP>
861.469

> <PUBCHEM_SHAPE_VOLUME>
218.2

> <PUBCHEM_COORDINATE_TYPE>
2
5
10

$$$$

