656502
  -OEChem-07051212493D

 25 25  0     1  0  0  0  0  0999 V2000
    0.9272   -1.3790    1.6115 O   0  0  0  0  0  0  0  0  0  0  0  0
    2.3778   -0.5928   -0.5695 N   0  0  0  0  0  0  0  0  0  0  0  0
    0.6976   -0.0753    1.1027 C   0  0  2  0  0  0  0  0  0  0  0  0
   -0.6639   -0.0237    0.4496 C   0  0  0  0  0  0  0  0  0  0  0  0
    1.7970    0.3297    0.1224 C   0  0  0  0  0  0  0  0  0  0  0  0
   -1.3947    1.1522    0.4973 C   0  0  0  0  0  0  0  0  0  0  0  0
   -1.1549   -1.1531   -0.1850 C   0  0  0  0  0  0  0  0  0  0  0  0
    2.1767    1.7933    0.0793 C   0  0  0  0  0  0  0  0  0  0  0  0
   -2.6515    1.2000   -0.1058 C   0  0  0  0  0  0  0  0  0  0  0  0
   -2.4116   -1.1051   -0.7883 C   0  0  0  0  0  0  0  0  0  0  0  0
   -3.1598    0.0715   -0.7487 C   0  0  0  0  0  0  0  0  0  0  0  0
    3.4600   -0.2177   -1.4655 C   0  0  0  0  0  0  0  0  0  0  0  0
    0.7193    0.6027    1.9642 H   0  0  0  0  0  0  0  0  0  0  0  0
   -1.0102    2.0365    0.9969 H   0  0  0  0  0  0  0  0  0  0  0  0
   -0.5855   -2.0761   -0.2396 H   0  0  0  0  0  0  0  0  0  0  0  0
    3.1702    1.9229    0.5170 H   0  0  0  0  0  0  0  0  0  0  0  0
    2.1788    2.1524   -0.9529 H   0  0  0  0  0  0  0  0  0  0  0  0
    1.4667    2.3970    0.6495 H   0  0  0  0  0  0  0  0  0  0  0  0
   -3.2343    2.1159   -0.0748 H   0  0  0  0  0  0  0  0  0  0  0  0
   -2.8066   -1.9828   -1.2915 H   0  0  0  0  0  0  0  0  0  0  0  0
   -4.1381    0.1089   -1.2190 H   0  0  0  0  0  0  0  0  0  0  0  0
    1.7573   -1.3528    2.1176 H   0  0  0  0  0  0  0  0  0  0  0  0
    4.2683    0.2976   -0.9370 H   0  0  0  0  0  0  0  0  0  0  0  0
    3.0979    0.4035   -2.2908 H   0  0  0  0  0  0  0  0  0  0  0  0
    3.8878   -1.1248   -1.9040 H   0  0  0  0  0  0  0  0  0  0  0  0
  1  3  1  0  0  0  0
  1 22  1  0  0  0  0
  2  5  2  0  0  0  0
  2 12  1  0  0  0  0
  3  4  1  0  0  0  0
  3  5  1  0  0  0  0
  3 13  1  0  0  0  0
  4  6  2  0  0  0  0
  4  7  1  0  0  0  0
  5  8  1  0  0  0  0
  6  9  1  0  0  0  0
  6 14  1  0  0  0  0
  7 10  2  0  0  0  0
  7 15  1  0  0  0  0
  8 16  1  0  0  0  0
  8 17  1  0  0  0  0
  8 18  1  0  0  0  0
  9 11  2  0  0  0  0
  9 19  1  0  0  0  0
 10 11  1  0  0  0  0
 10 20  1  0  0  0  0
 11 21  1  0  0  0  0
 12 23  1  0  0  0  0
 12 24  1  0  0  0  0
 12 25  1  0  0  0  0
M  END
> <PUBCHEM_COMPOUND_CID>
656502

> <PUBCHEM_CONFORMER_RMSD>
0.6

> <PUBCHEM_CONFORMER_DIVERSEORDER>
1
7
5
3
4
6
2

> <PUBCHEM_MMFF94_PARTIAL_CHARGES>
18
1 -0.68
10 -0.15
11 -0.15
12 0.25
14 0.15
15 0.15
19 0.15
2 -0.7
20 0.15
21 0.15
22 0.4
3 0.48
4 -0.14
5 0.33
6 -0.15
7 -0.15
8 0.06
9 -0.15

> <PUBCHEM_EFFECTIVE_ROTOR_COUNT>
2

> <PUBCHEM_PHARMACOPHORE_FEATURES>
4
1 1 acceptor
1 1 donor
1 2 acceptor
6 4 6 7 9 10 11 rings

> <PUBCHEM_HEAVY_ATOM_COUNT>
12

> <PUBCHEM_ATOM_DEF_STEREO_COUNT>
1

> <PUBCHEM_ATOM_UDEF_STEREO_COUNT>
0

> <PUBCHEM_BOND_DEF_STEREO_COUNT>
0

> <PUBCHEM_BOND_UDEF_STEREO_COUNT>
0

> <PUBCHEM_ISOTOPIC_ATOM_COUNT>
0

> <PUBCHEM_COMPONENT_COUNT>
1

> <PUBCHEM_CACTVS_TAUTO_COUNT>
1

> <PUBCHEM_CONFORMER_ID>
000A047600000001

> <PUBCHEM_MMFF94_ENERGY>
31.2731

> <PUBCHEM_FEATURE_SELFOVERLAP>
20.303

> <PUBCHEM_SHAPE_FINGERPRINT>
10465860 71 18114451353680886212
11031198 65 17417808486739412155
12202030 40 16298962943690675871
12326174 3 16414095155407969938
12423570 1 14874702503460611074
12716758 59 18187367623113044115
12897270 3 18334012752900051428
12932764 1 18272940444234218325
15775835 57 18131349751740187029
16945 1 18409448115351603755
18186145 218 18342740693381388397
20201158 50 17168137979147591646
20361792 2 14129053716507033248
20645476 183 18343028813115806167
20653085 51 18410846664241153889
20671657 53 17313369163510744228
21028194 46 17132121216568818984
21061003 4 4895556247107393862
22802520 49 18261101937791522418
23552423 10 18409177609943114419
23559900 14 17386571396656335178
2748010 2 16607173387312380865
369184 2 11671788165187099877
5084963 1 17676210194967041409
549884 4 18342174479416462836
8030462 33 18202291320222456355
81228 2 16697495106512077098
93112 12 18260264148612353828

> <PUBCHEM_SHAPE_MULTIPOLES>
236.1
5.12
1.51
1.22
0.95
0.32
0.24
-0.03
-2.5
-0.08
-0.02
0.62
-0.34
-0.01

> <PUBCHEM_SHAPE_SELFOVERLAP>
480.688

> <PUBCHEM_SHAPE_VOLUME>
137.8

> <PUBCHEM_COORDINATE_TYPE>
2
5
10

$$$$

