3292
  -OEChem-07051212543D

 27 28  0     1  0  0  0  0  0999 V2000
    0.7868    1.2933    1.7334 O   0  0  0  0  0  0  0  0  0  0  0  0
    2.6856   -1.6983   -1.2102 O   0  0  0  0  0  0  0  0  0  0  0  0
    2.0686    0.0195    0.2531 N   0  0  0  0  0  0  0  0  0  0  0  0
    0.6328   -1.6500   -0.1014 N   0  0  0  0  0  0  0  0  0  0  0  0
   -0.0582   -0.8016    0.8395 C   0  0  1  0  0  0  0  0  0  0  0  0
    0.9611    0.3138    1.0198 C   0  0  0  0  0  0  0  0  0  0  0  0
   -1.3476   -0.3041    0.2962 C   0  0  0  0  0  0  0  0  0  0  0  0
    1.8973   -1.1635   -0.4412 C   0  0  0  0  0  0  0  0  0  0  0  0
    3.2587    0.8416    0.1625 C   0  0  0  0  0  0  0  0  0  0  0  0
   -2.5448   -0.9481    0.6233 C   0  0  0  0  0  0  0  0  0  0  0  0
   -1.3731    0.8114   -0.5464 C   0  0  0  0  0  0  0  0  0  0  0  0
    3.1487    1.8555   -0.9575 C   0  0  0  0  0  0  0  0  0  0  0  0
   -3.7559   -0.4809    0.1127 C   0  0  0  0  0  0  0  0  0  0  0  0
   -2.5842    1.2787   -1.0567 C   0  0  0  0  0  0  0  0  0  0  0  0
   -3.7756    0.6327   -0.7272 C   0  0  0  0  0  0  0  0  0  0  0  0
   -0.1678   -1.3407    1.7862 H   0  0  0  0  0  0  0  0  0  0  0  0
    0.2563   -2.5217   -0.4612 H   0  0  0  0  0  0  0  0  0  0  0  0
    3.3985    1.3625    1.1157 H   0  0  0  0  0  0  0  0  0  0  0  0
    4.1240    0.1935   -0.0122 H   0  0  0  0  0  0  0  0  0  0  0  0
   -2.5436   -1.8177    1.2755 H   0  0  0  0  0  0  0  0  0  0  0  0
   -0.4650    1.3292   -0.8420 H   0  0  0  0  0  0  0  0  0  0  0  0
    3.0137    1.3609   -1.9251 H   0  0  0  0  0  0  0  0  0  0  0  0
    2.2931    2.5214   -0.8030 H   0  0  0  0  0  0  0  0  0  0  0  0
    4.0541    2.4679   -1.0095 H   0  0  0  0  0  0  0  0  0  0  0  0
   -4.6836   -0.9844    0.3686 H   0  0  0  0  0  0  0  0  0  0  0  0
   -2.5994    2.1429   -1.7145 H   0  0  0  0  0  0  0  0  0  0  0  0
   -4.7185    0.9956   -1.1257 H   0  0  0  0  0  0  0  0  0  0  0  0
  1  6  2  0  0  0  0
  2  8  2  0  0  0  0
  3  6  1  0  0  0  0
  3  8  1  0  0  0  0
  3  9  1  0  0  0  0
  4  5  1  0  0  0  0
  4  8  1  0  0  0  0
  4 17  1  0  0  0  0
  5  6  1  0  0  0  0
  5  7  1  0  0  0  0
  5 16  1  0  0  0  0
  7 10  2  0  0  0  0
  7 11  1  0  0  0  0
  9 12  1  0  0  0  0
  9 18  1  0  0  0  0
  9 19  1  0  0  0  0
 10 13  1  0  0  0  0
 10 20  1  0  0  0  0
 11 14  2  0  0  0  0
 11 21  1  0  0  0  0
 12 22  1  0  0  0  0
 12 23  1  0  0  0  0
 12 24  1  0  0  0  0
 13 15  2  0  0  0  0
 13 25  1  0  0  0  0
 14 15  1  0  0  0  0
 14 26  1  0  0  0  0
 15 27  1  0  0  0  0
M  END
> <PUBCHEM_COMPOUND_CID>
3292

> <PUBCHEM_CONFORMER_RMSD>
0.6

> <PUBCHEM_CONFORMER_DIVERSEORDER>
2
1
3
4

> <PUBCHEM_MMFF94_PARTIAL_CHARGES>
20
1 -0.57
10 -0.15
11 -0.15
13 -0.15
14 -0.15
15 -0.15
17 0.37
2 -0.57
20 0.15
21 0.15
25 0.15
26 0.15
27 0.15
3 -0.42
4 -0.73
5 0.5
6 0.57
7 -0.14
8 0.69
9 0.3

> <PUBCHEM_EFFECTIVE_ROTOR_COUNT>
2.6

> <PUBCHEM_PHARMACOPHORE_FEATURES>
5
1 1 acceptor
1 2 acceptor
1 4 donor
5 3 4 5 6 8 rings
6 7 10 11 13 14 15 rings

> <PUBCHEM_HEAVY_ATOM_COUNT>
15

> <PUBCHEM_ATOM_DEF_STEREO_COUNT>
0

> <PUBCHEM_ATOM_UDEF_STEREO_COUNT>
1

> <PUBCHEM_BOND_DEF_STEREO_COUNT>
0

> <PUBCHEM_BOND_UDEF_STEREO_COUNT>
0

> <PUBCHEM_ISOTOPIC_ATOM_COUNT>
0

> <PUBCHEM_COMPONENT_COUNT>
1

> <PUBCHEM_CACTVS_TAUTO_COUNT>
2

> <PUBCHEM_CONFORMER_ID>
00000CDC00000002

> <PUBCHEM_MMFF94_ENERGY>
25.1081

> <PUBCHEM_FEATURE_SELFOVERLAP>
25.371

> <PUBCHEM_SHAPE_FINGERPRINT>
10498660 4 17917438661314410293
10608611 8 18272938253711265789
107287 299 18334296444153817691
10871710 139 16038847891668668148
11031198 65 18259705575277982156
11715629 250 17846222176196137661
11769659 78 5617269108311486380
12932764 1 16298110899504125163
13764800 53 17346307241875870705
15219456 202 18411980273593037783
15775835 57 18113903723485465071
16945 1 18125436659768181658
18186145 218 18340760550180518866
19422 9 17603861247664953903
20281407 28 6916266260048366892
20361792 2 16515692185882785945
20645477 70 18113900515393282647
20671657 53 18119520192495564742
21947302 44 18343580754977974140
22802520 49 18198054974829727303
23114952 82 18338222873396765718
23402539 116 18058743411374386542
23557571 272 17916006976404082939
23559900 14 18272096049184462098
25 1 18187082810957398128
474 4 16056030226147525980
7364860 26 17559128767823839578
77492 1 15863790599529457203
8030462 33 17458061581752184779

> <PUBCHEM_SHAPE_MULTIPOLES>
286.99
6.28
1.72
1.19
1.71
0.19
-0.21
1.65
1.43
-0.75
0.46
-0.49
0.06
0.76

> <PUBCHEM_SHAPE_SELFOVERLAP>
612.218

> <PUBCHEM_SHAPE_VOLUME>
161.4

> <PUBCHEM_COORDINATE_TYPE>
2
5
10

$$$$

