168951
  -OEChem-07051212513D

 83 87  0     1  0  0  0  0  0999 V2000
   -7.0467    0.6079   -0.7655 O   0  0  0  0  0  0  0  0  0  0  0  0
   -0.4879   -0.6616    0.4182 C   0  0  1  0  0  0  0  0  0  0  0  0
    0.9804   -0.6690   -0.3221 C   0  0  1  0  0  0  0  0  0  0  0  0
   -1.2878    0.6239   -0.0469 C   0  0  1  0  0  0  0  0  0  0  0  0
    1.7361    0.6680    0.0460 C   0  0  1  0  0  0  0  0  0  0  0  0
   -2.8318    0.6912    0.3539 C   0  0  2  0  0  0  0  0  0  0  0  0
    3.2831    0.7679   -0.3198 C   0  0  2  0  0  0  0  0  0  0  0  0
   -3.4978   -0.6533   -0.1298 C   0  0  1  0  0  0  0  0  0  0  0  0
    4.0013   -0.5309    0.1850 C   0  0  1  0  0  0  0  0  0  0  0  0
   -1.3150   -1.9287    0.0556 C   0  0  0  0  0  0  0  0  0  0  0  0
   -0.4896    1.9136    0.2470 C   0  0  0  0  0  0  0  0  0  0  0  0
    1.8502   -1.8746    0.1370 C   0  0  0  0  0  0  0  0  0  0  0  0
    0.9097    1.9014   -0.3737 C   0  0  0  0  0  0  0  0  0  0  0  0
   -2.7882   -1.8794    0.4779 C   0  0  0  0  0  0  0  0  0  0  0  0
    3.3105   -1.8113   -0.3194 C   0  0  0  0  0  0  0  0  0  0  0  0
   -5.0707   -0.7062   -0.0778 C   0  0  0  0  0  0  0  0  0  0  0  0
    5.5681   -0.5433    0.0135 C   0  0  0  0  0  0  0  0  0  0  0  0
   -3.5050    1.8612   -0.4321 C   0  0  0  0  0  0  0  0  0  0  0  0
    3.8891    1.9933    0.4555 C   0  0  0  0  0  0  0  0  0  0  0  0
   -0.3113   -0.6884    1.9680 C   0  0  0  0  0  0  0  0  0  0  0  0
    0.8025   -0.8187   -1.8643 C   0  0  0  0  0  0  0  0  0  0  0  0
   -3.0285    0.9760    1.8622 C   0  0  0  0  0  0  0  0  0  0  0  0
    3.5170    1.0272   -1.8271 C   0  0  0  0  0  0  0  0  0  0  0  0
   -5.6239    0.5307   -0.8451 C   0  0  2  0  0  0  0  0  0  0  0  0
   -5.0317    1.8585   -0.3865 C   0  0  0  0  0  0  0  0  0  0  0  0
    6.1585    0.8862    0.1274 C   0  0  0  0  0  0  0  0  0  0  0  0
    5.3083    1.7977    0.9970 C   0  0  0  0  0  0  0  0  0  0  0  0
   -5.5820   -1.9698   -0.8246 C   0  0  0  0  0  0  0  0  0  0  0  0
   -5.6437   -0.7984    1.3506 C   0  0  0  0  0  0  0  0  0  0  0  0
    6.1773   -1.4042    1.1523 C   0  0  0  0  0  0  0  0  0  0  0  0
    6.0499   -1.1667   -1.3126 C   0  0  0  0  0  0  0  0  0  0  0  0
   -1.3277    0.5654   -1.1421 H   0  0  0  0  0  0  0  0  0  0  0  0
    1.7520    0.6923    1.1432 H   0  0  0  0  0  0  0  0  0  0  0  0
   -3.2722   -0.7081   -1.2086 H   0  0  0  0  0  0  0  0  0  0  0  0
    3.8304   -0.5332    1.2745 H   0  0  0  0  0  0  0  0  0  0  0  0
   -0.8547   -2.8214    0.4964 H   0  0  0  0  0  0  0  0  0  0  0  0
   -1.3195   -2.0922   -1.0250 H   0  0  0  0  0  0  0  0  0  0  0  0
   -0.3914    2.0837    1.3232 H   0  0  0  0  0  0  0  0  0  0  0  0
   -1.0108    2.7884   -0.1539 H   0  0  0  0  0  0  0  0  0  0  0  0
    1.4126   -2.8156   -0.2179 H   0  0  0  0  0  0  0  0  0  0  0  0
    1.8780   -1.9433    1.2273 H   0  0  0  0  0  0  0  0  0  0  0  0
    0.8076    1.9547   -1.4621 H   0  0  0  0  0  0  0  0  0  0  0  0
    1.4154    2.8251   -0.0720 H   0  0  0  0  0  0  0  0  0  0  0  0
   -3.2467   -2.8059    0.1183 H   0  0  0  0  0  0  0  0  0  0  0  0
   -2.8821   -1.9064    1.5662 H   0  0  0  0  0  0  0  0  0  0  0  0
    3.8186   -2.6938    0.0865 H   0  0  0  0  0  0  0  0  0  0  0  0
    3.3770   -1.9009   -1.4071 H   0  0  0  0  0  0  0  0  0  0  0  0
   -3.1982    1.8193   -1.4856 H   0  0  0  0  0  0  0  0  0  0  0  0
   -3.1616    2.8288   -0.0477 H   0  0  0  0  0  0  0  0  0  0  0  0
    3.2631    2.2591    1.3170 H   0  0  0  0  0  0  0  0  0  0  0  0
    3.8768    2.8815   -0.1904 H   0  0  0  0  0  0  0  0  0  0  0  0
    0.2443   -1.5680    2.3025 H   0  0  0  0  0  0  0  0  0  0  0  0
    0.1940    0.1937    2.3647 H   0  0  0  0  0  0  0  0  0  0  0  0
   -1.2575   -0.7621    2.4997 H   0  0  0  0  0  0  0  0  0  0  0  0
    0.2272   -0.0112   -2.3195 H   0  0  0  0  0  0  0  0  0  0  0  0
    1.7479   -0.8539   -2.3988 H   0  0  0  0  0  0  0  0  0  0  0  0
    0.3156   -1.7613   -2.1285 H   0  0  0  0  0  0  0  0  0  0  0  0
   -3.1275    0.0681    2.4588 H   0  0  0  0  0  0  0  0  0  0  0  0
   -2.2097    1.5622    2.2854 H   0  0  0  0  0  0  0  0  0  0  0  0
   -3.9262    1.5650    2.0663 H   0  0  0  0  0  0  0  0  0  0  0  0
    4.5039    1.4547   -2.0229 H   0  0  0  0  0  0  0  0  0  0  0  0
    3.4631    0.1227   -2.4315 H   0  0  0  0  0  0  0  0  0  0  0  0
    2.8058    1.7483   -2.2379 H   0  0  0  0  0  0  0  0  0  0  0  0
   -5.3885    0.4138   -1.9112 H   0  0  0  0  0  0  0  0  0  0  0  0
   -5.3994    2.1168    0.6124 H   0  0  0  0  0  0  0  0  0  0  0  0
   -5.4110    2.6607   -1.0330 H   0  0  0  0  0  0  0  0  0  0  0  0
    6.2699    1.3447   -0.8615 H   0  0  0  0  0  0  0  0  0  0  0  0
    7.1761    0.8474    0.5370 H   0  0  0  0  0  0  0  0  0  0  0  0
    5.7932    2.7762    1.0957 H   0  0  0  0  0  0  0  0  0  0  0  0
    5.2535    1.3841    2.0118 H   0  0  0  0  0  0  0  0  0  0  0  0
   -5.1400   -2.0462   -1.8242 H   0  0  0  0  0  0  0  0  0  0  0  0
   -5.3490   -2.8902   -0.2797 H   0  0  0  0  0  0  0  0  0  0  0  0
   -6.6709   -1.9489   -0.9485 H   0  0  0  0  0  0  0  0  0  0  0  0
   -5.1602   -1.5921    1.9288 H   0  0  0  0  0  0  0  0  0  0  0  0
   -5.5466    0.1341    1.9074 H   0  0  0  0  0  0  0  0  0  0  0  0
   -6.7148   -1.0333    1.3321 H   0  0  0  0  0  0  0  0  0  0  0  0
    5.9257   -0.9993    2.1388 H   0  0  0  0  0  0  0  0  0  0  0  0
    5.8188   -2.4380    1.1150 H   0  0  0  0  0  0  0  0  0  0  0  0
    7.2709   -1.4384    1.0816 H   0  0  0  0  0  0  0  0  0  0  0  0
    5.6438   -0.6488   -2.1845 H   0  0  0  0  0  0  0  0  0  0  0  0
    7.1428   -1.1168   -1.3899 H   0  0  0  0  0  0  0  0  0  0  0  0
    5.7742   -2.2236   -1.3912 H   0  0  0  0  0  0  0  0  0  0  0  0
   -7.2868    0.8724    0.1384 H   0  0  0  0  0  0  0  0  0  0  0  0
  1 24  1  0  0  0  0
  1 83  1  0  0  0  0
  2  3  1  0  0  0  0
  2  4  1  0  0  0  0
  2 10  1  0  0  0  0
  2 20  1  0  0  0  0
  3  5  1  0  0  0  0
  3 12  1  0  0  0  0
  3 21  1  0  0  0  0
  4  6  1  0  0  0  0
  4 11  1  0  0  0  0
  4 32  1  0  0  0  0
  5  7  1  0  0  0  0
  5 13  1  0  0  0  0
  5 33  1  0  0  0  0
  6  8  1  0  0  0  0
  6 18  1  0  0  0  0
  6 22  1  0  0  0  0
  7  9  1  0  0  0  0
  7 19  1  0  0  0  0
  7 23  1  0  0  0  0
  8 14  1  0  0  0  0
  8 16  1  0  0  0  0
  8 34  1  0  0  0  0
  9 15  1  0  0  0  0
  9 17  1  0  0  0  0
  9 35  1  0  0  0  0
 10 14  1  0  0  0  0
 10 36  1  0  0  0  0
 10 37  1  0  0  0  0
 11 13  1  0  0  0  0
 11 38  1  0  0  0  0
 11 39  1  0  0  0  0
 12 15  1  0  0  0  0
 12 40  1  0  0  0  0
 12 41  1  0  0  0  0
 13 42  1  0  0  0  0
 13 43  1  0  0  0  0
 14 44  1  0  0  0  0
 14 45  1  0  0  0  0
 15 46  1  0  0  0  0
 15 47  1  0  0  0  0
 16 24  1  0  0  0  0
 16 28  1  0  0  0  0
 16 29  1  0  0  0  0
 17 26  1  0  0  0  0
 17 30  1  0  0  0  0
 17 31  1  0  0  0  0
 18 25  1  0  0  0  0
 18 48  1  0  0  0  0
 18 49  1  0  0  0  0
 19 27  1  0  0  0  0
 19 50  1  0  0  0  0
 19 51  1  0  0  0  0
 20 52  1  0  0  0  0
 20 53  1  0  0  0  0
 20 54  1  0  0  0  0
 21 55  1  0  0  0  0
 21 56  1  0  0  0  0
 21 57  1  0  0  0  0
 22 58  1  0  0  0  0
 22 59  1  0  0  0  0
 22 60  1  0  0  0  0
 23 61  1  0  0  0  0
 23 62  1  0  0  0  0
 23 63  1  0  0  0  0
 24 25  1  0  0  0  0
 24 64  1  0  0  0  0
 25 65  1  0  0  0  0
 25 66  1  0  0  0  0
 26 27  1  0  0  0  0
 26 67  1  0  0  0  0
 26 68  1  0  0  0  0
 27 69  1  0  0  0  0
 27 70  1  0  0  0  0
 28 71  1  0  0  0  0
 28 72  1  0  0  0  0
 28 73  1  0  0  0  0
 29 74  1  0  0  0  0
 29 75  1  0  0  0  0
 29 76  1  0  0  0  0
 30 77  1  0  0  0  0
 30 78  1  0  0  0  0
 30 79  1  0  0  0  0
 31 80  1  0  0  0  0
 31 81  1  0  0  0  0
 31 82  1  0  0  0  0
M  END
> <PUBCHEM_COMPOUND_CID>
168951

> <PUBCHEM_CONFORMER_RMSD>
0.8

> <PUBCHEM_CONFORMER_DIVERSEORDER>
1

> <PUBCHEM_MMFF94_PARTIAL_CHARGES>
3
1 -0.68
24 0.28
83 0.4

> <PUBCHEM_EFFECTIVE_ROTOR_COUNT>
2.8

> <PUBCHEM_PHARMACOPHORE_FEATURES>
9
1 1 acceptor
1 1 donor
3 16 28 29 hydrophobe
3 17 30 31 hydrophobe
6 2 3 4 5 11 13 rings
6 2 4 6 8 10 14 rings
6 3 5 7 9 12 15 rings
6 6 8 16 18 24 25 rings
6 7 9 17 19 26 27 rings

> <PUBCHEM_HEAVY_ATOM_COUNT>
31

> <PUBCHEM_ATOM_DEF_STEREO_COUNT>
9

> <PUBCHEM_ATOM_UDEF_STEREO_COUNT>
0

> <PUBCHEM_BOND_DEF_STEREO_COUNT>
0

> <PUBCHEM_BOND_UDEF_STEREO_COUNT>
0

> <PUBCHEM_ISOTOPIC_ATOM_COUNT>
0

> <PUBCHEM_COMPONENT_COUNT>
1

> <PUBCHEM_CACTVS_TAUTO_COUNT>
1

> <PUBCHEM_CONFORMER_ID>
000293F700000001

> <PUBCHEM_MMFF94_ENERGY>
166.8964

> <PUBCHEM_FEATURE_SELFOVERLAP>
45.72

> <PUBCHEM_SHAPE_FINGERPRINT>
10 15 18271531905905379048
10675989 125 16828697016216037781
10906281 52 18337653278785993582
11315181 36 18186517700561671369
11578080 2 16556521524215821127
11719270 70 18333736835912267502
11796584 16 15267335224328081120
12011746 2 18410855477392433678
12166972 35 18341891870605627612
12236239 1 17846499235756726098
12516196 113 18333450924181287096
13224815 77 17967526874351057492
13402501 40 18410857659188626477
13533116 47 18335419080592559538
13782708 43 17385439925496460614
13811026 1 18409738369204829884
13911987 19 16805881780254999312
13914758 101 17632023021918035917
14856354 85 15791735170561339117
15183329 4 18410855477313331718
15196674 1 18410575084694902824
15788980 27 18202279208151047876
17349148 13 18410290302566844576
17857418 61 18411419509598492130
17980427 23 17531514439172353289
1813 80 16845855685545745068
18608769 82 18343017749913022019
18681886 176 18335707122304987250
19319366 153 4823212780379262724
19377110 9 17168136862624717699
20028762 73 18259705614487271302
20511986 3 18339938055358921823
21033648 29 17846506953728814668
21236236 1 18410575093902009393
21267235 1 18411128139117689586
21279426 13 18410858797476246988
21859007 373 18059309767226785940
22393880 68 18409729594776301663
23402539 116 18408608058756652791
23559900 14 18336553715814308897
23569917 315 18409444812533601791
3004659 81 18273214205660597076
335352 9 18410855482605461398
3383291 50 18059853905519077651
34797466 226 17313379007243490036
350125 39 18411700993165150380
3633792 109 18335144245519230981
404807 14 17251728557061847974
4073 2 18131066013289526219
4325135 7 18334016099196533343
439807 62 18339643318620849927
5104073 3 18412259566615508681
5283173 99 18342181110872588461
6669772 16 17097796564200572272
77296 10 18408603634650622726

> <PUBCHEM_SHAPE_MULTIPOLES>
632.1
16.26
2.31
1.38
0.97
0.14
-0.08
-0.47
0.85
-0.07
0
-0.13
-0.07
0.39

> <PUBCHEM_SHAPE_SELFOVERLAP>
1323.865

> <PUBCHEM_SHAPE_VOLUME>
355.3

> <PUBCHEM_COORDINATE_TYPE>
2
5
10

$$$$

