7228
  -OEChem-06261201552D

 35 36  0     0  0  0  0  0  0999 V2000
    6.2619    0.7990    0.0000 S   0  0  0  0  0  0  0  0  0  0  0  0
    4.6783    1.6038    0.0000 S   0  0  0  0  0  0  0  0  0  0  0  0
    6.7619   -0.0670    0.0000 N   0  0  0  0  0  0  0  0  0  0  0  0
    4.6783   -0.0057    0.0000 N   0  0  0  0  0  0  0  0  0  0  0  0
    7.7619   -0.0670    0.0000 C   0  0  0  0  0  0  0  0  0  0  0  0
    6.2619   -0.9330    0.0000 C   0  0  0  0  0  0  0  0  0  0  0  0
    6.7619   -1.7990    0.0000 C   0  0  0  0  0  0  0  0  0  0  0  0
    5.2619   -0.9330    0.0000 C   0  0  0  0  0  0  0  0  0  0  0  0
    8.2619   -0.9330    0.0000 C   0  0  0  0  0  0  0  0  0  0  0  0
    8.2619    0.7990    0.0000 C   0  0  0  0  0  0  0  0  0  0  0  0
    5.2619    0.7990    0.0000 C   0  0  0  0  0  0  0  0  0  0  0  0
    3.7320    1.2990    0.0000 C   0  0  0  0  0  0  0  0  0  0  0  0
    3.7320    0.2990    0.0000 C   0  0  0  0  0  0  0  0  0  0  0  0
    2.8660    1.7990    0.0000 C   0  0  0  0  0  0  0  0  0  0  0  0
    2.8660   -0.2010    0.0000 C   0  0  0  0  0  0  0  0  0  0  0  0
    2.0000    1.2990    0.0000 C   0  0  0  0  0  0  0  0  0  0  0  0
    2.0000    0.2990    0.0000 C   0  0  0  0  0  0  0  0  0  0  0  0
    7.4519    0.4699    0.0000 H   0  0  0  0  0  0  0  0  0  0  0  0
    6.8819   -0.9330    0.0000 H   0  0  0  0  0  0  0  0  0  0  0  0
    6.2249   -2.1090    0.0000 H   0  0  0  0  0  0  0  0  0  0  0  0
    5.2619   -0.3130    0.0000 H   0  0  0  0  0  0  0  0  0  0  0  0
    4.6419   -0.9330    0.0000 H   0  0  0  0  0  0  0  0  0  0  0  0
    5.2619   -1.5530    0.0000 H   0  0  0  0  0  0  0  0  0  0  0  0
    7.7249   -1.2430    0.0000 H   0  0  0  0  0  0  0  0  0  0  0  0
    8.5719   -1.4700    0.0000 H   0  0  0  0  0  0  0  0  0  0  0  0
    8.7988   -0.6230    0.0000 H   0  0  0  0  0  0  0  0  0  0  0  0
    8.7988    0.4890    0.0000 H   0  0  0  0  0  0  0  0  0  0  0  0
    8.5719    1.3360    0.0000 H   0  0  0  0  0  0  0  0  0  0  0  0
    7.7249    1.1090    0.0000 H   0  0  0  0  0  0  0  0  0  0  0  0
    7.0719   -2.3360    0.0000 H   0  0  0  0  0  0  0  0  0  0  0  0
    7.2988   -1.4890    0.0000 H   0  0  0  0  0  0  0  0  0  0  0  0
    2.8660    2.4190    0.0000 H   0  0  0  0  0  0  0  0  0  0  0  0
    2.8660   -0.8210    0.0000 H   0  0  0  0  0  0  0  0  0  0  0  0
    1.4631    1.6090    0.0000 H   0  0  0  0  0  0  0  0  0  0  0  0
    1.4631   -0.0110    0.0000 H   0  0  0  0  0  0  0  0  0  0  0  0
  1  3  1  0  0  0  0
  1 11  1  0  0  0  0
  2 11  1  0  0  0  0
  2 12  1  0  0  0  0
  3  5  1  0  0  0  0
  3  6  1  0  0  0  0
  4 11  2  0  0  0  0
  4 13  1  0  0  0  0
  5  9  1  0  0  0  0
  5 10  1  0  0  0  0
  5 18  1  0  0  0  0
  6  7  1  0  0  0  0
  6  8  1  0  0  0  0
  6 19  1  0  0  0  0
  7 20  1  0  0  0  0
  7 30  1  0  0  0  0
  7 31  1  0  0  0  0
  8 21  1  0  0  0  0
  8 22  1  0  0  0  0
  8 23  1  0  0  0  0
  9 24  1  0  0  0  0
  9 25  1  0  0  0  0
  9 26  1  0  0  0  0
 10 27  1  0  0  0  0
 10 28  1  0  0  0  0
 10 29  1  0  0  0  0
 12 13  1  0  0  0  0
 12 14  2  0  0  0  0
 13 15  2  0  0  0  0
 14 16  1  0  0  0  0
 14 32  1  0  0  0  0
 15 17  1  0  0  0  0
 15 33  1  0  0  0  0
 16 17  2  0  0  0  0
 16 34  1  0  0  0  0
 17 35  1  0  0  0  0
M  END
> <PUBCHEM_COMPOUND_CID>
7228

> <PUBCHEM_COMPOUND_CANONICALIZED>
1

> <PUBCHEM_CACTVS_COMPLEXITY>
238

> <PUBCHEM_CACTVS_HBOND_ACCEPTOR>
4

> <PUBCHEM_CACTVS_HBOND_DONOR>
0

> <PUBCHEM_CACTVS_ROTATABLE_BOND>
4

> <PUBCHEM_CACTVS_SUBSKEYS>
AAADceBzAABgAAAAAAAAAAAAAAAAAWAAAAAwAAAAAAAAAFgB8AAAHAQAQAAACCjBVgQywbIIEAikASRiRACD8aBhCjhImDw4ZJgIIKLgkZGEIAhggADIyAcQAAAAAAAAAAAAAQAAAAAAAAACAAAAAAAAAA==

> <PUBCHEM_IUPAC_OPENEYE_NAME>
N-(1,3-benzothiazol-2-ylsulfanyl)-N-isopropyl-propan-2-amine

> <PUBCHEM_IUPAC_CAS_NAME>
N,N-di(propan-2-yl)-1,3-benzothiazole-2-sulfenamide

> <PUBCHEM_IUPAC_NAME>
N-(1,3-benzothiazol-2-ylsulfanyl)-N-propan-2-ylpropan-2-amine

> <PUBCHEM_IUPAC_SYSTEMATIC_NAME>
N-(1,3-benzothiazol-2-ylsulfanyl)-N-propan-2-yl-propan-2-amine

> <PUBCHEM_IUPAC_TRADITIONAL_NAME>
(1,3-benzothiazol-2-ylthio)-diisopropyl-amine

> <PUBCHEM_IUPAC_INCHI>
InChI=1S/C13H18N2S2/c1-9(2)15(10(3)4)17-13-14-11-7-5-6-8-12(11)16-13/h5-10H,1-4H3

> <PUBCHEM_IUPAC_INCHIKEY>
ILSQBBRAYMWZLQ-UHFFFAOYSA-N

> <PUBCHEM_XLOGP3>
4.5

> <PUBCHEM_EXACT_MASS>
266.091141

> <PUBCHEM_MOLECULAR_FORMULA>
C13H18N2S2

> <PUBCHEM_MOLECULAR_WEIGHT>
266.42542

> <PUBCHEM_OPENEYE_CAN_SMILES>
CC(C)N(C(C)C)SC1=NC2=CC=CC=C2S1

> <PUBCHEM_OPENEYE_ISO_SMILES>
CC(C)N(C(C)C)SC1=NC2=CC=CC=C2S1

> <PUBCHEM_CACTVS_TPSA>
69.7

> <PUBCHEM_MONOISOTOPIC_WEIGHT>
266.091141

> <PUBCHEM_TOTAL_CHARGE>
0

> <PUBCHEM_HEAVY_ATOM_COUNT>
17

> <PUBCHEM_ATOM_DEF_STEREO_COUNT>
0

> <PUBCHEM_ATOM_UDEF_STEREO_COUNT>
0

> <PUBCHEM_BOND_DEF_STEREO_COUNT>
0

> <PUBCHEM_BOND_UDEF_STEREO_COUNT>
0

> <PUBCHEM_ISOTOPIC_ATOM_COUNT>
0

> <PUBCHEM_COMPONENT_COUNT>
1

> <PUBCHEM_CACTVS_TAUTO_COUNT>
1

> <PUBCHEM_COORDINATE_TYPE>
1
5
255

> <PUBCHEM_BONDANNOTATIONS>
12  13  8
12  14  8
13  15  8
14  16  8
15  17  8
16  17  8
2  11  8
2  12  8
4  11  8
4  13  8

$$$$

