4239
  -OEChem-06251223592D

 32 33  0     0  0  0  0  0  0999 V2000
    3.7044    4.3965    0.0000 O   0  0  0  0  0  0  0  0  0  0  0  0
    4.2044   -0.1424    0.0000 O   0  0  0  0  0  0  0  0  0  0  0  0
    2.4356   -2.6739    0.0000 O   0  0  0  0  0  0  0  0  0  0  0  0
    4.0179   -1.9694    0.0000 O   0  0  0  0  0  0  0  0  0  0  0  0
    3.7044    2.3965    0.0000 N   0  0  0  0  0  0  0  0  0  0  0  0
    3.7044    1.3965    0.0000 N   0  3  0  0  0  0  0  0  0  0  0  0
    4.5134    0.8087    0.0000 N   0  0  0  0  0  0  0  0  0  0  0  0
    2.6166   -0.9514    0.0000 N   0  0  0  0  0  0  0  0  0  0  0  0
    4.5704    2.8965    0.0000 C   0  0  0  0  0  0  0  0  0  0  0  0
    2.8384    2.8965    0.0000 C   0  0  0  0  0  0  0  0  0  0  0  0
    4.5704    3.8965    0.0000 C   0  0  0  0  0  0  0  0  0  0  0  0
    2.8384    3.8965    0.0000 C   0  0  0  0  0  0  0  0  0  0  0  0
    2.8954    0.8087    0.0000 C   0  0  0  0  0  0  0  0  0  0  0  0
    3.2044   -0.1424    0.0000 C   0  0  0  0  0  0  0  0  0  0  0  0
    3.0233   -1.8649    0.0000 C   0  0  0  0  0  0  0  0  0  0  0  0
    2.8423   -3.5875    0.0000 C   0  0  0  0  0  0  0  0  0  0  0  0
    2.2545   -4.3965    0.0000 C   0  0  0  0  0  0  0  0  0  0  0  0
    2.2278    3.0042    0.0000 H   0  0  0  0  0  0  0  0  0  0  0  0
    2.6263    2.3139    0.0000 H   0  0  0  0  0  0  0  0  0  0  0  0
    4.7825    2.3139    0.0000 H   0  0  0  0  0  0  0  0  0  0  0  0
    5.1810    3.0042    0.0000 H   0  0  0  0  0  0  0  0  0  0  0  0
    2.6263    4.4791    0.0000 H   0  0  0  0  0  0  0  0  0  0  0  0
    2.2278    3.7888    0.0000 H   0  0  0  0  0  0  0  0  0  0  0  0
    5.1810    3.7888    0.0000 H   0  0  0  0  0  0  0  0  0  0  0  0
    4.7825    4.4791    0.0000 H   0  0  0  0  0  0  0  0  0  0  0  0
    2.3057    1.0003    0.0000 H   0  0  0  0  0  0  0  0  0  0  0  0
    2.0000   -0.8866    0.0000 H   0  0  0  0  0  0  0  0  0  0  0  0
    3.2730   -4.0335    0.0000 H   0  0  0  0  0  0  0  0  0  0  0  0
    3.3563   -3.2408    0.0000 H   0  0  0  0  0  0  0  0  0  0  0  0
    1.7529   -4.0321    0.0000 H   0  0  0  0  0  0  0  0  0  0  0  0
    1.8901   -4.8981    0.0000 H   0  0  0  0  0  0  0  0  0  0  0  0
    2.7561   -4.7609    0.0000 H   0  0  0  0  0  0  0  0  0  0  0  0
  1 11  1  0  0  0  0
  1 12  1  0  0  0  0
  2  7  1  0  0  0  0
  2 14  1  0  0  0  0
  3 15  1  0  0  0  0
  3 16  1  0  0  0  0
  4 15  2  0  0  0  0
  5  6  1  0  0  0  0
  5  9  1  0  0  0  0
  5 10  1  0  0  0  0
  6  7  2  0  0  0  0
  6 13  1  0  0  0  0
  8 14  1  0  0  0  0
  8 15  1  0  0  0  0
  8 27  1  0  0  0  0
  9 11  1  0  0  0  0
  9 20  1  0  0  0  0
  9 21  1  0  0  0  0
 10 12  1  0  0  0  0
 10 18  1  0  0  0  0
 10 19  1  0  0  0  0
 11 24  1  0  0  0  0
 11 25  1  0  0  0  0
 12 22  1  0  0  0  0
 12 23  1  0  0  0  0
 13 14  2  0  0  0  0
 13 26  1  0  0  0  0
 16 17  1  0  0  0  0
 16 28  1  0  0  0  0
 16 29  1  0  0  0  0
 17 30  1  0  0  0  0
 17 31  1  0  0  0  0
 17 32  1  0  0  0  0
M  CHG  1   6   1
M  END
> <PUBCHEM_COMPOUND_CID>
4239

> <PUBCHEM_COMPOUND_CANONICALIZED>
1

> <PUBCHEM_CACTVS_COMPLEXITY>
259

> <PUBCHEM_CACTVS_HBOND_ACCEPTOR>
6

> <PUBCHEM_CACTVS_HBOND_DONOR>
1

> <PUBCHEM_CACTVS_ROTATABLE_BOND>
4

> <PUBCHEM_CACTVS_SUBSKEYS>
AAADccBzuAAAAAAAAAAAAAAAAAAAAWAAAAAsAAAAAAAAAAABgAAAHgAcAAAAAADhggYujBLABACrABE3WAQQBAAD0gAQAACLMAECQAAAAAAbAAAAHCCQAAAAAAAAAAAAAAAAAAAAAAAAAAAAAAAAAAAAAA==

> <PUBCHEM_IUPAC_OPENEYE_NAME>
ethyl N-(3-morpholinooxadiazol-3-ium-5-yl)carbamate

> <PUBCHEM_IUPAC_CAS_NAME>
N-[3-(4-morpholinyl)-5-oxadiazol-3-iumyl]carbamic acid ethyl ester

> <PUBCHEM_IUPAC_NAME>
ethyl N-(3-morpholin-4-yloxadiazol-3-ium-5-yl)carbamate

> <PUBCHEM_IUPAC_SYSTEMATIC_NAME>
ethyl N-(3-morpholin-4-yl-1,2,3-oxadiazol-3-ium-5-yl)carbamate

> <PUBCHEM_IUPAC_TRADITIONAL_NAME>
N-(3-morpholinooxadiazol-3-ium-5-yl)carbamic acid ethyl ester

> <PUBCHEM_IUPAC_INCHI>
InChI=1S/C9H14N4O4/c1-2-16-9(14)10-8-7-13(11-17-8)12-3-5-15-6-4-12/h7H,2-6H2,1H3/p+1

> <PUBCHEM_IUPAC_INCHIKEY>
XLFWDASMENKTKL-UHFFFAOYSA-O

> <PUBCHEM_XLOGP3_AA>
1

> <PUBCHEM_EXACT_MASS>
243.10933

> <PUBCHEM_MOLECULAR_FORMULA>
C9H15N4O4+

> <PUBCHEM_MOLECULAR_WEIGHT>
243.2398

> <PUBCHEM_OPENEYE_CAN_SMILES>
CCOC(=O)NC1=C[N+](=NO1)N2CCOCC2

> <PUBCHEM_OPENEYE_ISO_SMILES>
CCOC(=O)NC1=C[N+](=NO1)N2CCOCC2

> <PUBCHEM_CACTVS_TPSA>
80.7

> <PUBCHEM_MONOISOTOPIC_WEIGHT>
243.10933

> <PUBCHEM_TOTAL_CHARGE>
1

> <PUBCHEM_HEAVY_ATOM_COUNT>
17

> <PUBCHEM_ATOM_DEF_STEREO_COUNT>
0

> <PUBCHEM_ATOM_UDEF_STEREO_COUNT>
0

> <PUBCHEM_BOND_DEF_STEREO_COUNT>
0

> <PUBCHEM_BOND_UDEF_STEREO_COUNT>
0

> <PUBCHEM_ISOTOPIC_ATOM_COUNT>
0

> <PUBCHEM_COMPONENT_COUNT>
1

> <PUBCHEM_CACTVS_TAUTO_COUNT>
2

> <PUBCHEM_COORDINATE_TYPE>
1
5
255

> <PUBCHEM_BONDANNOTATIONS>
13  14  8
2  14  8
2  7  8
6  13  8
6  7  8
8  15  1

$$$$

