637776
  -OEChem-07051212593D

 27 27  0     0  0  0  0  0  0999 V2000
    2.0197   -1.7887    0.4106 O   0  0  0  0  0  0  0  0  0  0  0  0
    2.8289    0.8435    0.0335 O   0  0  0  0  0  0  0  0  0  0  0  0
   -1.2125   -0.0983    0.1687 C   0  0  0  0  0  0  0  0  0  0  0  0
    1.0987   -0.7949    0.2689 C   0  0  0  0  0  0  0  0  0  0  0  0
    1.5049    0.5262    0.0800 C   0  0  0  0  0  0  0  0  0  0  0  0
   -0.2601   -1.1072    0.3132 C   0  0  0  0  0  0  0  0  0  0  0  0
   -0.8061    1.2227   -0.0201 C   0  0  0  0  0  0  0  0  0  0  0  0
    0.5525    1.5350   -0.0644 C   0  0  0  0  0  0  0  0  0  0  0  0
   -2.6294   -0.4232    0.2158 C   0  0  0  0  0  0  0  0  0  0  0  0
   -3.6341    0.3399   -0.2713 C   0  0  0  0  0  0  0  0  0  0  0  0
    2.4573   -2.4412   -0.7797 C   0  0  0  0  0  0  0  0  0  0  0  0
   -5.0795   -0.0305   -0.1924 C   0  0  0  0  0  0  0  0  0  0  0  0
    3.1598    2.2168   -0.1629 C   0  0  0  0  0  0  0  0  0  0  0  0
   -0.5654   -2.1410    0.4605 H   0  0  0  0  0  0  0  0  0  0  0  0
   -1.5122    2.0424   -0.1168 H   0  0  0  0  0  0  0  0  0  0  0  0
    0.7950    2.5821   -0.2097 H   0  0  0  0  0  0  0  0  0  0  0  0
   -2.8826   -1.3714    0.6857 H   0  0  0  0  0  0  0  0  0  0  0  0
   -3.4332    1.2823   -0.7718 H   0  0  0  0  0  0  0  0  0  0  0  0
    2.9303   -1.7260   -1.4599 H   0  0  0  0  0  0  0  0  0  0  0  0
    1.6164   -2.9342   -1.2777 H   0  0  0  0  0  0  0  0  0  0  0  0
    3.1940   -3.2004   -0.5032 H   0  0  0  0  0  0  0  0  0  0  0  0
   -5.6311    0.7371    0.3589 H   0  0  0  0  0  0  0  0  0  0  0  0
   -5.5016   -0.1019   -1.1995 H   0  0  0  0  0  0  0  0  0  0  0  0
   -5.2340   -0.9898    0.3113 H   0  0  0  0  0  0  0  0  0  0  0  0
    2.8107    2.8390    0.6683 H   0  0  0  0  0  0  0  0  0  0  0  0
    2.8080    2.5820   -1.1338 H   0  0  0  0  0  0  0  0  0  0  0  0
    4.2526    2.2864   -0.1745 H   0  0  0  0  0  0  0  0  0  0  0  0
  1  4  1  0  0  0  0
  1 11  1  0  0  0  0
  2  5  1  0  0  0  0
  2 13  1  0  0  0  0
  3  6  2  0  0  0  0
  3  7  1  0  0  0  0
  3  9  1  0  0  0  0
  4  5  2  0  0  0  0
  4  6  1  0  0  0  0
  5  8  1  0  0  0  0
  6 14  1  0  0  0  0
  7  8  2  0  0  0  0
  7 15  1  0  0  0  0
  8 16  1  0  0  0  0
  9 10  2  0  0  0  0
  9 17  1  0  0  0  0
 10 12  1  0  0  0  0
 10 18  1  0  0  0  0
 11 19  1  0  0  0  0
 11 20  1  0  0  0  0
 11 21  1  0  0  0  0
 12 22  1  0  0  0  0
 12 23  1  0  0  0  0
 12 24  1  0  0  0  0
 13 25  1  0  0  0  0
 13 26  1  0  0  0  0
 13 27  1  0  0  0  0
M  END
> <PUBCHEM_COMPOUND_CID>
637776

> <PUBCHEM_CONFORMER_RMSD>
0.6

> <PUBCHEM_CONFORMER_DIVERSEORDER>
4
2
1
3

> <PUBCHEM_MMFF94_PARTIAL_CHARGES>
18
1 -0.36
10 -0.29
11 0.28
12 0.14
13 0.28
14 0.15
15 0.15
16 0.15
17 0.15
18 0.15
2 -0.36
3 0.03
4 0.08
5 0.08
6 -0.15
7 -0.15
8 -0.15
9 -0.18

> <PUBCHEM_EFFECTIVE_ROTOR_COUNT>
3

> <PUBCHEM_PHARMACOPHORE_FEATURES>
4
1 1 acceptor
1 12 hydrophobe
1 2 acceptor
6 3 4 5 6 7 8 rings

> <PUBCHEM_HEAVY_ATOM_COUNT>
13

> <PUBCHEM_ATOM_DEF_STEREO_COUNT>
0

> <PUBCHEM_ATOM_UDEF_STEREO_COUNT>
0

> <PUBCHEM_BOND_DEF_STEREO_COUNT>
1

> <PUBCHEM_BOND_UDEF_STEREO_COUNT>
0

> <PUBCHEM_ISOTOPIC_ATOM_COUNT>
0

> <PUBCHEM_COMPONENT_COUNT>
1

> <PUBCHEM_CACTVS_TAUTO_COUNT>
1

> <PUBCHEM_CONFORMER_ID>
0009BB5000000004

> <PUBCHEM_MMFF94_ENERGY>
51.7095

> <PUBCHEM_FEATURE_SELFOVERLAP>
20.301

> <PUBCHEM_SHAPE_FINGERPRINT>
10980938 120 18409732841797989889
11471102 20 18411984645827618597
12032990 46 18339358690589036939
12138202 78 18411416254271783684
12346645 6 18407761434497355494
12932764 1 17385735677271412961
13380535 76 18341897325076430418
14251717 144 18409733971448345671
14325111 11 18412827984579294137
14576447 43 18043265543815745183
14617773 55 17895746434711184969
14897335 6 18338802217097917539
15219456 202 18272645723715517155
15442244 35 18192146216780638105
15477762 27 18263082270024129326
15536298 74 18335139821016879979
161256 15 18341894151216878916
16945 1 18337663135825790736
170605 34 18272937085274257553
18186145 218 17917712456952521879
193761 8 18195245748543914424
19422 9 18114742733010443195
20279233 1 17775564226385421355
20588541 1 18342737369055608729
20645476 183 17414140323393171596
20645477 70 18410016563475444519
20671657 53 18194399119999965718
20871998 22 18191307297835140022
21501502 16 18264201585782920017
21501925 9 18338808921352112234
23402655 69 18409740556287332021
23557571 272 16630536162793310013
25 1 18340772528913074029
2748010 2 18269844279356290236
3071541 250 18264480861857369574
3071541 37 18341889667376555916
449060 50 18271805679847179685
449060 62 18408884010057501361
528886 8 18339647715574844281
53812653 166 18337113341336280105
581208 293 18409172094967586609
7364860 26 18335138709026519170
81539 233 18343302518243106940

> <PUBCHEM_SHAPE_MULTIPOLES>
255.8
6.75
2.21
0.69
8.19
0.45
-0.03
-0.69
-0.89
-3.05
-0.31
-0.06
0.13
0.22

> <PUBCHEM_SHAPE_SELFOVERLAP>
521.385

> <PUBCHEM_SHAPE_VOLUME>
150.1

> <PUBCHEM_COORDINATE_TYPE>
2
5
10

$$$$

