388787
  -OEChem-07051213033D

 41 44  0     1  0  0  0  0  0999 V2000
   -1.1599    2.3413    0.1176 O   0  0  0  0  0  0  0  0  0  0  0  0
    0.3952    3.1740    1.5375 O   0  0  0  0  0  0  0  0  0  0  0  0
    3.6719   -1.6450   -0.9939 O   0  0  0  0  0  0  0  0  0  0  0  0
    4.5878    0.5421    0.4501 O   0  0  0  0  0  0  0  0  0  0  0  0
   -1.4854   -2.0378    0.4003 N   0  0  2  0  0  0  0  0  0  0  0  0
   -1.7168   -0.5729    0.3013 C   0  0  1  0  0  0  0  0  0  0  0  0
   -0.9157    0.1012   -0.8352 C   0  0  1  0  0  0  0  0  0  0  0  0
   -1.4172    1.5377   -1.0615 C   0  0  1  0  0  0  0  0  0  0  0  0
   -3.1921   -0.4213    0.0742 C   0  0  0  0  0  0  0  0  0  0  0  0
   -3.8626   -1.6305    0.6199 C   0  0  0  0  0  0  0  0  0  0  0  0
   -2.8130   -2.6822    0.2792 C   0  0  0  0  0  0  0  0  0  0  0  0
   -2.9268    1.6015   -1.3555 C   0  0  0  0  0  0  0  0  0  0  0  0
    0.5509    0.2087   -0.5069 C   0  0  0  0  0  0  0  0  0  0  0  0
   -3.7451    0.5452   -0.6675 C   0  0  0  0  0  0  0  0  0  0  0  0
    1.0200    1.3129    0.2178 C   0  0  0  0  0  0  0  0  0  0  0  0
   -0.8540   -2.3915    1.6728 C   0  0  0  0  0  0  0  0  0  0  0  0
    1.4551   -0.7815   -0.9113 C   0  0  0  0  0  0  0  0  0  0  0  0
    0.0781    2.3595    0.6809 C   0  0  0  0  0  0  0  0  0  0  0  0
    2.3767    1.4198    0.5411 C   0  0  0  0  0  0  0  0  0  0  0  0
    2.8084   -0.6709   -0.5925 C   0  0  0  0  0  0  0  0  0  0  0  0
    3.2678    0.4274    0.1323 C   0  0  0  0  0  0  0  0  0  0  0  0
    3.8767   -2.7378   -0.1007 C   0  0  0  0  0  0  0  0  0  0  0  0
   -1.4911   -0.0918    1.2643 H   0  0  0  0  0  0  0  0  0  0  0  0
   -1.0436   -0.4558   -1.7744 H   0  0  0  0  0  0  0  0  0  0  0  0
   -0.8850    2.0212   -1.8922 H   0  0  0  0  0  0  0  0  0  0  0  0
   -3.9960   -1.5375    1.7029 H   0  0  0  0  0  0  0  0  0  0  0  0
   -4.8250   -1.8479    0.1485 H   0  0  0  0  0  0  0  0  0  0  0  0
   -2.9221   -3.5822    0.8955 H   0  0  0  0  0  0  0  0  0  0  0  0
   -2.9365   -3.0006   -0.7645 H   0  0  0  0  0  0  0  0  0  0  0  0
   -3.0775    1.4688   -2.4340 H   0  0  0  0  0  0  0  0  0  0  0  0
   -3.3236    2.5869   -1.0850 H   0  0  0  0  0  0  0  0  0  0  0  0
   -4.8160    0.5442   -0.8478 H   0  0  0  0  0  0  0  0  0  0  0  0
    0.1181   -1.8969    1.7729 H   0  0  0  0  0  0  0  0  0  0  0  0
   -0.6624   -3.4694    1.7137 H   0  0  0  0  0  0  0  0  0  0  0  0
   -1.4706   -2.1183    2.5368 H   0  0  0  0  0  0  0  0  0  0  0  0
    1.1032   -1.6420   -1.4754 H   0  0  0  0  0  0  0  0  0  0  0  0
    2.7506    2.2692    1.1073 H   0  0  0  0  0  0  0  0  0  0  0  0
    5.0672   -0.2072    0.0566 H   0  0  0  0  0  0  0  0  0  0  0  0
    2.9428   -3.2891    0.0480 H   0  0  0  0  0  0  0  0  0  0  0  0
    4.2616   -2.3865    0.8619 H   0  0  0  0  0  0  0  0  0  0  0  0
    4.6133   -3.4116   -0.5469 H   0  0  0  0  0  0  0  0  0  0  0  0
  1  8  1  0  0  0  0
  1 18  1  0  0  0  0
  2 18  2  0  0  0  0
  3 20  1  0  0  0  0
  3 22  1  0  0  0  0
  4 21  1  0  0  0  0
  4 38  1  0  0  0  0
  5  6  1  0  0  0  0
  5 11  1  0  0  0  0
  5 16  1  0  0  0  0
  6  7  1  0  0  0  0
  6  9  1  0  0  0  0
  6 23  1  0  0  0  0
  7  8  1  0  0  0  0
  7 13  1  0  0  0  0
  7 24  1  0  0  0  0
  8 12  1  0  0  0  0
  8 25  1  0  0  0  0
  9 10  1  0  0  0  0
  9 14  2  0  0  0  0
 10 11  1  0  0  0  0
 10 26  1  0  0  0  0
 10 27  1  0  0  0  0
 11 28  1  0  0  0  0
 11 29  1  0  0  0  0
 12 14  1  0  0  0  0
 12 30  1  0  0  0  0
 12 31  1  0  0  0  0
 13 15  1  0  0  0  0
 13 17  2  0  0  0  0
 14 32  1  0  0  0  0
 15 18  1  0  0  0  0
 15 19  2  0  0  0  0
 16 33  1  0  0  0  0
 16 34  1  0  0  0  0
 16 35  1  0  0  0  0
 17 20  1  0  0  0  0
 17 36  1  0  0  0  0
 19 21  1  0  0  0  0
 19 37  1  0  0  0  0
 20 21  2  0  0  0  0
 22 39  1  0  0  0  0
 22 40  1  0  0  0  0
 22 41  1  0  0  0  0
M  END
> <PUBCHEM_COMPOUND_CID>
388787

> <PUBCHEM_CONFORMER_RMSD>
0.6

> <PUBCHEM_CONFORMER_DIVERSEORDER>
1
2
3

> <PUBCHEM_MMFF94_PARTIAL_CHARGES>
26
1 -0.43
10 0.14
11 0.27
12 0.14
13 -0.14
14 -0.29
15 0.09
16 0.27
17 -0.15
18 0.63
19 -0.15
2 -0.57
20 0.08
21 0.08
22 0.28
3 -0.36
32 0.15
36 0.15
37 0.15
38 0.45
4 -0.53
5 -0.81
6 0.41
7 0.14
8 0.28
9 -0.28

> <PUBCHEM_EFFECTIVE_ROTOR_COUNT>
2

> <PUBCHEM_PHARMACOPHORE_FEATURES>
8
1 2 acceptor
1 3 acceptor
1 4 donor
1 5 cation
5 5 6 9 10 11 rings
6 1 7 8 13 15 18 rings
6 13 15 17 19 20 21 rings
6 6 7 8 9 12 14 rings

> <PUBCHEM_HEAVY_ATOM_COUNT>
22

> <PUBCHEM_ATOM_DEF_STEREO_COUNT>
3

> <PUBCHEM_ATOM_UDEF_STEREO_COUNT>
0

> <PUBCHEM_BOND_DEF_STEREO_COUNT>
0

> <PUBCHEM_BOND_UDEF_STEREO_COUNT>
0

> <PUBCHEM_ISOTOPIC_ATOM_COUNT>
0

> <PUBCHEM_COMPONENT_COUNT>
1

> <PUBCHEM_CACTVS_TAUTO_COUNT>
3

> <PUBCHEM_CONFORMER_ID>
0005EEB300000001

> <PUBCHEM_MMFF94_ENERGY>
72.3306

> <PUBCHEM_FEATURE_SELFOVERLAP>
40.792

> <PUBCHEM_SHAPE_FINGERPRINT>
10366900 7 18195243308775416230
1100329 8 17041761465708140707
11578080 2 15288495423977629169
11582403 64 16390513770993894053
12236239 1 15769784558535688581
12403259 226 18411700942137629095
12506688 2 18337384929350756328
12633257 1 18263634074805865171
12714826 92 18131059420778165163
12788726 201 18044090387541601032
13140716 1 18262232356236069176
14115302 16 18201148948915723396
14223421 5 18050289172053067329
14251740 79 18056186102137497458
14787075 74 18196934379602945734
14863182 85 17045130902080591239
14866123 147 17614554169680082595
16752209 62 18128824220886569347
16945 1 18272929436095979885
17357779 13 18197795305860986375
17804303 29 18269271275295612701
1813 80 17560794386469340637
19049666 15 18411142428383874793
19141452 34 18263919952567814911
20510252 161 18413106186231691139
20600515 1 18340476863338271661
20905425 154 18271811280216021447
21279426 13 18267590289768517957
22721475 48 18269267967796319845
23175994 123 18187079555156208581
23526113 38 18264509384608828597
23558518 356 18045216296191631696
23559900 14 18339646741329301118
2748010 2 18336268946433716629
5104073 3 18188775075575054240
598444 67 18342177761071845573
81228 2 18201425969958548177
8809292 202 18411696633836733102
9709674 26 18410578392062379134

> <PUBCHEM_SHAPE_MULTIPOLES>
424.29
7
3.3
1.19
3.17
0.35
-0.13
3.22
0.72
-0.26
-1.05
-0.16
-0.19
1.61

> <PUBCHEM_SHAPE_SELFOVERLAP>
934.436

> <PUBCHEM_SHAPE_VOLUME>
229.6

> <PUBCHEM_COORDINATE_TYPE>
2
5
10

$$$$

