4607
  -OEChem-06261200142D

 46 49  0     1  0  0  0  0  0999 V2000
    9.2355    0.5068    0.0000 S   0  0  0  0  0  0  0  0  0  0  0  0
    6.5705   -1.5149    0.0000 O   0  0  0  0  0  0  0  0  0  0  0  0
    8.8754   -2.8054    0.0000 O   0  5  0  0  0  0  0  0  0  0  0  0
   10.5226   -2.2702    0.0000 O   0  0  0  0  0  0  0  0  0  0  0  0
    5.3432   -0.3117    0.0000 O   0  0  0  0  0  0  0  0  0  0  0  0
    4.1668    2.8054    0.0000 O   0  0  0  0  0  0  0  0  0  0  0  0
    8.2844   -0.8022    0.0000 N   0  0  0  0  0  0  0  0  0  0  0  0
    6.5705    0.9105    0.0000 N   0  0  0  0  0  0  0  0  0  0  0  0
    3.4582    2.0998    0.0000 N   0  0  0  0  0  0  0  0  0  0  0  0
    8.2844    0.1978    0.0000 C   0  0  3  0  0  0  0  0  0  0  0  0
    9.8233   -0.3022    0.0000 C   0  0  0  0  0  0  0  0  0  0  0  0
    9.2355   -1.1112    0.0000 C   0  0  3  0  0  0  0  0  0  0  0  0
    7.2761    0.2019    0.0000 C   0  0  3  0  0  0  0  0  0  0  0  0
    7.2761   -0.8063    0.0000 C   0  0  0  0  0  0  0  0  0  0  0  0
   10.6323    0.2856    0.0000 C   0  0  0  0  0  0  0  0  0  0  0  0
   10.6323   -0.8900    0.0000 C   0  0  0  0  0  0  0  0  0  0  0  0
    9.5445   -2.0623    0.0000 C   0  0  0  0  0  0  0  0  0  0  0  0
    5.6040    0.6537    0.0000 C   0  0  0  0  0  0  0  0  0  0  0  0
    4.8984    1.3622    0.0000 C   0  0  0  0  0  0  0  0  0  0  0  0
    3.9104    1.2078    0.0000 C   0  0  0  0  0  0  0  0  0  0  0  0
    5.0568    2.3496    0.0000 C   0  0  0  0  0  0  0  0  0  0  0  0
    3.4546    0.3178    0.0000 C   0  0  0  0  0  0  0  0  0  0  0  0
    5.9488    2.8018    0.0000 C   0  0  0  0  0  0  0  0  0  0  0  0
    2.4558    0.2675    0.0000 C   0  0  0  0  0  0  0  0  0  0  0  0
    3.9975   -0.5220    0.0000 C   0  0  0  0  0  0  0  0  0  0  0  0
    2.0000   -0.6226    0.0000 C   0  0  0  0  0  0  0  0  0  0  0  0
    3.5416   -1.4121    0.0000 C   0  0  0  0  0  0  0  0  0  0  0  0
    2.5429   -1.4624    0.0000 C   0  0  0  0  0  0  0  0  0  0  0  0
    8.1887    0.8104    0.0000 H   0  0  0  0  0  0  0  0  0  0  0  0
    8.7971   -1.5496    0.0000 H   0  0  0  0  0  0  0  0  0  0  0  0
    7.5152    0.7740    0.0000 H   0  0  0  0  0  0  0  0  0  0  0  0
   10.2679   -1.3916    0.0000 H   0  0  0  0  0  0  0  0  0  0  0  0
   10.9967   -0.2160    0.0000 H   0  0  0  0  0  0  0  0  0  0  0  0
   11.1339    0.6500    0.0000 H   0  0  0  0  0  0  0  0  0  0  0  0
   10.2679    0.7872    0.0000 H   0  0  0  0  0  0  0  0  0  0  0  0
   11.1339   -1.2544    0.0000 H   0  0  0  0  0  0  0  0  0  0  0  0
   10.9967   -0.3884    0.0000 H   0  0  0  0  0  0  0  0  0  0  0  0
    6.7322    1.5090    0.0000 H   0  0  0  0  0  0  0  0  0  0  0  0
    6.2291    2.2487    0.0000 H   0  0  0  0  0  0  0  0  0  0  0  0
    6.5018    3.0821    0.0000 H   0  0  0  0  0  0  0  0  0  0  0  0
    5.6684    3.3548    0.0000 H   0  0  0  0  0  0  0  0  0  0  0  0
    2.1192    0.7881    0.0000 H   0  0  0  0  0  0  0  0  0  0  0  0
    4.6167   -0.4909    0.0000 H   0  0  0  0  0  0  0  0  0  0  0  0
    1.3808   -0.6538    0.0000 H   0  0  0  0  0  0  0  0  0  0  0  0
    3.8783   -1.9328    0.0000 H   0  0  0  0  0  0  0  0  0  0  0  0
    2.2603   -2.0142    0.0000 H   0  0  0  0  0  0  0  0  0  0  0  0
  1 10  1  0  0  0  0
  1 11  1  0  0  0  0
  2 14  2  0  0  0  0
  3 17  1  0  0  0  0
  4 17  2  0  0  0  0
  5 18  2  0  0  0  0
  6  9  1  0  0  0  0
  6 21  1  0  0  0  0
  7 10  1  0  0  0  0
  7 12  1  0  0  0  0
  7 14  1  0  0  0  0
  8 13  1  0  0  0  0
  8 18  1  0  0  0  0
  8 38  1  0  0  0  0
  9 20  2  0  0  0  0
 10 13  1  0  0  0  0
 10 29  1  0  0  0  0
 11 12  1  0  0  0  0
 11 15  1  0  0  0  0
 11 16  1  0  0  0  0
 12 17  1  0  0  0  0
 12 30  1  0  0  0  0
 13 14  1  0  0  0  0
 13 31  1  0  0  0  0
 15 33  1  0  0  0  0
 15 34  1  0  0  0  0
 15 35  1  0  0  0  0
 16 32  1  0  0  0  0
 16 36  1  0  0  0  0
 16 37  1  0  0  0  0
 18 19  1  0  0  0  0
 19 20  1  0  0  0  0
 19 21  2  0  0  0  0
 20 22  1  0  0  0  0
 21 23  1  0  0  0  0
 22 24  2  0  0  0  0
 22 25  1  0  0  0  0
 23 39  1  0  0  0  0
 23 40  1  0  0  0  0
 23 41  1  0  0  0  0
 24 26  1  0  0  0  0
 24 42  1  0  0  0  0
 25 27  2  0  0  0  0
 25 43  1  0  0  0  0
 26 28  2  0  0  0  0
 26 44  1  0  0  0  0
 27 28  1  0  0  0  0
 27 45  1  0  0  0  0
 28 46  1  0  0  0  0
M  CHG  1   3  -1
M  END
> <PUBCHEM_COMPOUND_CID>
4607

> <PUBCHEM_COMPOUND_CANONICALIZED>
1

> <PUBCHEM_CACTVS_COMPLEXITY>
675

> <PUBCHEM_CACTVS_HBOND_ACCEPTOR>
7

> <PUBCHEM_CACTVS_HBOND_DONOR>
1

> <PUBCHEM_CACTVS_ROTATABLE_BOND>
3

> <PUBCHEM_CACTVS_SUBSKEYS>
AAADceB7OABAAAAAAAAAAAAAAABYAWLAAAAwAAAABYAAAAABwAAAHgQUAAAADCzF3gSyjJPQAAipA6XyWgCCAABkIBAomKGsTNoKZr6o0bOUMchmthi4yUeYyOCOAAAAAAAAAAAAAAAAAAAAAAAAAAAAAA==

> <PUBCHEM_IUPAC_OPENEYE_NAME>
3,3-dimethyl-6-[(5-methyl-3-phenyl-isoxazole-4-carbonyl)amino]-7-oxo-4-thia-1-azabicyclo[3.2.0]heptane-2-carboxylate

> <PUBCHEM_IUPAC_CAS_NAME>
3,3-dimethyl-6-[[(5-methyl-3-phenyl-4-isoxazolyl)-oxomethyl]amino]-7-oxo-4-thia-1-azabicyclo[3.2.0]heptane-2-carboxylate

> <PUBCHEM_IUPAC_NAME>
3,3-dimethyl-6-[(5-methyl-3-phenyl-1,2-oxazole-4-carbonyl)amino]-7-oxo-4-thia-1-azabicyclo[3.2.0]heptane-2-carboxylate

> <PUBCHEM_IUPAC_SYSTEMATIC_NAME>
3,3-dimethyl-6-[(5-methyl-3-phenyl-1,2-oxazol-4-yl)carbonylamino]-7-oxidanylidene-4-thia-1-azabicyclo[3.2.0]heptane-2-carboxylate

> <PUBCHEM_IUPAC_TRADITIONAL_NAME>
7-keto-3,3-dimethyl-6-[(5-methyl-3-phenyl-isoxazole-4-carbonyl)amino]-4-thia-1-azabicyclo[3.2.0]heptane-2-carboxylate

> <PUBCHEM_IUPAC_INCHI>
InChI=1S/C19H19N3O5S/c1-9-11(12(21-27-9)10-7-5-4-6-8-10)15(23)20-13-16(24)22-14(18(25)26)19(2,3)28-17(13)22/h4-8,13-14,17H,1-3H3,(H,20,23)(H,25,26)/p-1

> <PUBCHEM_IUPAC_INCHIKEY>
UWYHMGVUTGAWSP-UHFFFAOYSA-M

> <PUBCHEM_XLOGP3>
3

> <PUBCHEM_EXACT_MASS>
400.096717

> <PUBCHEM_MOLECULAR_FORMULA>
C19H18N3O5S-

> <PUBCHEM_MOLECULAR_WEIGHT>
400.42832

> <PUBCHEM_OPENEYE_CAN_SMILES>
CC1=C(C(=NO1)C2=CC=CC=C2)C(=O)NC3C4N(C3=O)C(C(S4)(C)C)C(=O)[O-]

> <PUBCHEM_OPENEYE_ISO_SMILES>
CC1=C(C(=NO1)C2=CC=CC=C2)C(=O)NC3C4N(C3=O)C(C(S4)(C)C)C(=O)[O-]

> <PUBCHEM_CACTVS_TPSA>
141

> <PUBCHEM_MONOISOTOPIC_WEIGHT>
400.096717

> <PUBCHEM_TOTAL_CHARGE>
-1

> <PUBCHEM_HEAVY_ATOM_COUNT>
28

> <PUBCHEM_ATOM_DEF_STEREO_COUNT>
0

> <PUBCHEM_ATOM_UDEF_STEREO_COUNT>
3

> <PUBCHEM_BOND_DEF_STEREO_COUNT>
0

> <PUBCHEM_BOND_UDEF_STEREO_COUNT>
0

> <PUBCHEM_ISOTOPIC_ATOM_COUNT>
0

> <PUBCHEM_COMPONENT_COUNT>
1

> <PUBCHEM_CACTVS_TAUTO_COUNT>
4

> <PUBCHEM_COORDINATE_TYPE>
1
5
255

> <PUBCHEM_BONDANNOTATIONS>
10  1  3
12  17  3
19  20  8
19  21  8
22  24  8
22  25  8
24  26  8
25  27  8
26  28  8
27  28  8
6  21  8
6  9  8
13  8  3
9  20  8

$$$$

