441300
  -OEChem-07051212543D

 39 42  0     1  0  0  0  0  0999 V2000
   -5.5208   -1.9568    0.0764 O   0  0  0  0  0  0  0  0  0  0  0  0
    3.6036    0.4463    0.3371 N   0  0  0  0  0  0  0  0  0  0  0  0
   -0.8700    1.5287    0.0001 N   0  0  0  0  0  0  0  0  0  0  0  0
    1.2062    2.3132    0.2170 N   0  0  0  0  0  0  0  0  0  0  0  0
    1.9842   -1.3012    0.1119 N   0  0  0  0  0  0  0  0  0  0  0  0
   -0.4080   -0.8550   -0.0742 N   0  0  0  0  0  0  0  0  0  0  0  0
    0.4293   -3.0399   -0.1043 N   0  0  0  0  0  0  0  0  0  0  0  0
    4.7515   -0.4575    0.3935 C   0  0  0  0  0  0  0  0  0  0  0  0
    5.3957   -0.9827   -0.8569 C   0  0  0  0  0  0  0  0  0  0  0  0
    6.1276    0.0021    0.0071 C   0  0  0  0  0  0  0  0  0  0  0  0
   -2.3281    1.5316   -0.1271 C   0  0  2  0  0  0  0  0  0  0  0  0
   -3.0446    0.7346    0.9778 C   0  0  0  0  0  0  0  0  0  0  0  0
   -4.2389    0.0473    0.2941 C   0  0  1  0  0  0  0  0  0  0  0  0
   -2.8259    0.8937   -1.3873 C   0  0  0  0  0  0  0  0  0  0  0  0
   -3.8620    0.0824   -1.1551 C   0  0  0  0  0  0  0  0  0  0  0  0
    2.2710    0.0200    0.2005 C   0  0  0  0  0  0  0  0  0  0  0  0
   -0.0515    0.4348    0.0187 C   0  0  0  0  0  0  0  0  0  0  0  0
    1.2307    0.9426    0.1542 C   0  0  0  0  0  0  0  0  0  0  0  0
   -4.4643   -1.3656    0.8128 C   0  0  0  0  0  0  0  0  0  0  0  0
   -0.0675    2.6327    0.1216 C   0  0  0  0  0  0  0  0  0  0  0  0
    0.6817   -1.6515   -0.0179 C   0  0  0  0  0  0  0  0  0  0  0  0
    4.6955   -1.1314    1.2427 H   0  0  0  0  0  0  0  0  0  0  0  0
    5.0256   -0.6347   -1.8134 H   0  0  0  0  0  0  0  0  0  0  0  0
    5.7378   -2.0102   -0.8540 H   0  0  0  0  0  0  0  0  0  0  0  0
    6.9642   -0.3624    0.5903 H   0  0  0  0  0  0  0  0  0  0  0  0
    6.2479    1.0101   -0.3704 H   0  0  0  0  0  0  0  0  0  0  0  0
   -2.6498    2.5805   -0.1075 H   0  0  0  0  0  0  0  0  0  0  0  0
   -3.3907    1.4055    1.7736 H   0  0  0  0  0  0  0  0  0  0  0  0
   -2.3896    0.0032    1.4653 H   0  0  0  0  0  0  0  0  0  0  0  0
   -5.1549    0.6382    0.4207 H   0  0  0  0  0  0  0  0  0  0  0  0
    3.7439    1.4492    0.4051 H   0  0  0  0  0  0  0  0  0  0  0  0
   -2.4217    1.0927   -2.3699 H   0  0  0  0  0  0  0  0  0  0  0  0
   -4.3947   -0.4444   -1.9345 H   0  0  0  0  0  0  0  0  0  0  0  0
   -4.7396   -1.3479    1.8723 H   0  0  0  0  0  0  0  0  0  0  0  0
   -3.5703   -1.9877    0.6923 H   0  0  0  0  0  0  0  0  0  0  0  0
   -0.4638    3.6390    0.1348 H   0  0  0  0  0  0  0  0  0  0  0  0
   -5.6487   -2.8540    0.4290 H   0  0  0  0  0  0  0  0  0  0  0  0
    1.2034   -3.6885   -0.0670 H   0  0  0  0  0  0  0  0  0  0  0  0
   -0.5224   -3.3661   -0.2008 H   0  0  0  0  0  0  0  0  0  0  0  0
  1 19  1  0  0  0  0
  1 37  1  0  0  0  0
  2  8  1  0  0  0  0
  2 16  1  0  0  0  0
  2 31  1  0  0  0  0
  3 11  1  0  0  0  0
  3 17  1  0  0  0  0
  3 20  1  0  0  0  0
  4 18  1  0  0  0  0
  4 20  2  0  0  0  0
  5 16  1  0  0  0  0
  5 21  2  0  0  0  0
  6 17  2  0  0  0  0
  6 21  1  0  0  0  0
  7 21  1  0  0  0  0
  7 38  1  0  0  0  0
  7 39  1  0  0  0  0
  8  9  1  0  0  0  0
  8 10  1  0  0  0  0
  8 22  1  0  0  0  0
  9 10  1  0  0  0  0
  9 23  1  0  0  0  0
  9 24  1  0  0  0  0
 10 25  1  0  0  0  0
 10 26  1  0  0  0  0
 11 12  1  0  0  0  0
 11 14  1  0  0  0  0
 11 27  1  0  0  0  0
 12 13  1  0  0  0  0
 12 28  1  0  0  0  0
 12 29  1  0  0  0  0
 13 15  1  0  0  0  0
 13 19  1  0  0  0  0
 13 30  1  0  0  0  0
 14 15  2  0  0  0  0
 14 32  1  0  0  0  0
 15 33  1  0  0  0  0
 16 18  2  0  0  0  0
 17 18  1  0  0  0  0
 19 34  1  0  0  0  0
 19 35  1  0  0  0  0
 20 36  1  0  0  0  0
M  END
> <PUBCHEM_COMPOUND_CID>
441300

> <PUBCHEM_CONFORMER_RMSD>
0.8

> <PUBCHEM_CONFORMER_DIVERSEORDER>
1
6
16
13
10
14
17
15
2
18
3
19
8
5
9
4
7
12
11

> <PUBCHEM_MMFF94_PARTIAL_CHARGES>
32
1 -0.68
10 -0.2
11 0.39
13 0.14
14 -0.29
15 -0.29
16 0.41
17 0.11
18 0.23
19 0.28
2 -0.67
20 0.04
21 0.72
22 0.1
23 0.1
24 0.1
25 0.1
26 0.1
3 0.05
31 0.4
32 0.15
33 0.15
36 0.15
37 0.4
38 0.4
39 0.4
4 -0.57
5 -0.62
6 -0.57
7 -0.9
8 0.07
9 -0.2

> <PUBCHEM_EFFECTIVE_ROTOR_COUNT>
5.2

> <PUBCHEM_PHARMACOPHORE_FEATURES>
10
1 1 acceptor
1 1 donor
1 2 cation
1 2 donor
1 7 donor
3 3 4 20 cation
4 5 6 7 21 cation
5 11 12 13 14 15 rings
5 3 4 17 18 20 rings
6 5 6 16 17 18 21 rings

> <PUBCHEM_HEAVY_ATOM_COUNT>
21

> <PUBCHEM_ATOM_DEF_STEREO_COUNT>
2

> <PUBCHEM_ATOM_UDEF_STEREO_COUNT>
0

> <PUBCHEM_BOND_DEF_STEREO_COUNT>
0

> <PUBCHEM_BOND_UDEF_STEREO_COUNT>
0

> <PUBCHEM_ISOTOPIC_ATOM_COUNT>
0

> <PUBCHEM_COMPONENT_COUNT>
1

> <PUBCHEM_CACTVS_TAUTO_COUNT>
6

> <PUBCHEM_CONFORMER_ID>
0006BBD400000001

> <PUBCHEM_MMFF94_ENERGY>
46.5811

> <PUBCHEM_FEATURE_SELFOVERLAP>
50.877

> <PUBCHEM_SHAPE_FINGERPRINT>
11578080 2 17057250161275248366
12011746 2 18413674608332312551
12035758 1 18261963951198275178
12236239 1 17530969072978331197
12715332 25 18113901515846089526
13140716 1 18264769857116009449
13288520 33 18410291419553955045
13402501 40 18342454820849095531
13583140 156 16774070778791782536
13740256 8 18412260610313757281
13862211 1 18410859867213253858
14787075 74 18201715146091260498
14790565 3 18409160035164390264
14955137 171 18187358813950672552
15196674 1 18410855434422031905
15209289 33 18186802482515402832
17349148 13 18130499825442115356
19489759 90 16486975115545407060
19591789 44 18410293588507041362
200 152 18260276243899681021
20028762 73 18042125362763510895
20261772 1 18261115136310776359
21029758 27 18413389838889183484
21267235 1 18409442574843928179
23402539 116 18261959643277732340
23559900 14 17764040446741683058
283562 15 18264208174521358096
335352 9 18411138031197356493
34934 24 18193276531977385345
474229 33 18411419527227040058
5104073 3 18189340246184849266

> <PUBCHEM_SHAPE_MULTIPOLES>
396.41
11.41
2.4
0.9
7.49
0.27
0.17
4.43
0.35
-0.93
-0.1
-0.6
-0.05
0.62

> <PUBCHEM_SHAPE_SELFOVERLAP>
858.605

> <PUBCHEM_SHAPE_VOLUME>
216.4

> <PUBCHEM_COORDINATE_TYPE>
2
5
10

$$$$

