445184
  -OEChem-07051213083D

 23 23  0     1  0  0  0  0  0999 V2000
    0.8051    1.2639    0.0108 O   0  0  0  0  0  0  0  0  0  0  0  0
    0.1558   -2.3443    0.1639 O   0  0  0  0  0  0  0  0  0  0  0  0
   -2.5207   -1.1998   -0.0906 O   0  0  0  0  0  0  0  0  0  0  0  0
   -1.8263    1.2870   -1.0957 O   0  0  0  0  0  0  0  0  0  0  0  0
    3.3945    0.3718   -0.0218 O   0  0  0  0  0  0  0  0  0  0  0  0
   -0.1034   -0.9913   -0.2010 C   0  0  1  0  0  0  0  0  0  0  0  0
   -1.3988   -0.5194    0.4646 C   0  0  1  0  0  0  0  0  0  0  0  0
    1.0733   -0.1190    0.2570 C   0  0  1  0  0  0  0  0  0  0  0  0
   -1.5933    0.9851    0.2815 C   0  0  1  0  0  0  0  0  0  0  0  0
   -0.3444    1.7411    0.7153 C   0  0  0  0  0  0  0  0  0  0  0  0
    2.3583   -0.4751   -0.4841 C   0  0  0  0  0  0  0  0  0  0  0  0
   -0.2150   -0.9607   -1.2912 H   0  0  0  0  0  0  0  0  0  0  0  0
   -1.3717   -0.7663    1.5333 H   0  0  0  0  0  0  0  0  0  0  0  0
    1.2576   -0.2449    1.3327 H   0  0  0  0  0  0  0  0  0  0  0  0
   -2.4729    1.3253    0.8388 H   0  0  0  0  0  0  0  0  0  0  0  0
   -0.4394    2.8066    0.4818 H   0  0  0  0  0  0  0  0  0  0  0  0
   -0.1728    1.6450    1.7935 H   0  0  0  0  0  0  0  0  0  0  0  0
    2.2549   -0.3181   -1.5629 H   0  0  0  0  0  0  0  0  0  0  0  0
    2.6548   -1.5126   -0.3056 H   0  0  0  0  0  0  0  0  0  0  0  0
    0.2562   -2.3816    1.1303 H   0  0  0  0  0  0  0  0  0  0  0  0
   -3.3160   -0.8750    0.3650 H   0  0  0  0  0  0  0  0  0  0  0  0
   -1.9757    2.2454   -1.1651 H   0  0  0  0  0  0  0  0  0  0  0  0
    3.1193    1.2901   -0.1855 H   0  0  0  0  0  0  0  0  0  0  0  0
  1  8  1  0  0  0  0
  1 10  1  0  0  0  0
  2  6  1  0  0  0  0
  2 20  1  0  0  0  0
  3  7  1  0  0  0  0
  3 21  1  0  0  0  0
  4  9  1  0  0  0  0
  4 22  1  0  0  0  0
  5 11  1  0  0  0  0
  5 23  1  0  0  0  0
  6  7  1  0  0  0  0
  6  8  1  0  0  0  0
  6 12  1  0  0  0  0
  7  9  1  0  0  0  0
  7 13  1  0  0  0  0
  8 11  1  0  0  0  0
  8 14  1  0  0  0  0
  9 10  1  0  0  0  0
  9 15  1  0  0  0  0
 10 16  1  0  0  0  0
 10 17  1  0  0  0  0
 11 18  1  0  0  0  0
 11 19  1  0  0  0  0
M  END
> <PUBCHEM_COMPOUND_CID>
445184

> <PUBCHEM_CONFORMER_RMSD>
0.6

> <PUBCHEM_CONFORMER_DIVERSEORDER>
1
4
3
2

> <PUBCHEM_MMFF94_PARTIAL_CHARGES>
15
1 -0.56
10 0.28
11 0.28
2 -0.68
20 0.4
21 0.4
22 0.4
23 0.4
3 -0.68
4 -0.68
5 -0.68
6 0.28
7 0.28
8 0.28
9 0.28

> <PUBCHEM_EFFECTIVE_ROTOR_COUNT>
2.2

> <PUBCHEM_PHARMACOPHORE_FEATURES>
10
1 1 acceptor
1 2 acceptor
1 2 donor
1 3 acceptor
1 3 donor
1 4 acceptor
1 4 donor
1 5 acceptor
1 5 donor
6 1 6 7 8 9 10 rings

> <PUBCHEM_HEAVY_ATOM_COUNT>
11

> <PUBCHEM_ATOM_DEF_STEREO_COUNT>
4

> <PUBCHEM_ATOM_UDEF_STEREO_COUNT>
0

> <PUBCHEM_BOND_DEF_STEREO_COUNT>
0

> <PUBCHEM_BOND_UDEF_STEREO_COUNT>
0

> <PUBCHEM_ISOTOPIC_ATOM_COUNT>
0

> <PUBCHEM_COMPONENT_COUNT>
1

> <PUBCHEM_CACTVS_TAUTO_COUNT>
1

> <PUBCHEM_CONFORMER_ID>
0006CB0000000001

> <PUBCHEM_MMFF94_ENERGY>
27.5516

> <PUBCHEM_FEATURE_SELFOVERLAP>
50.765

> <PUBCHEM_SHAPE_FINGERPRINT>
11206711 2 18412547591512251879
12423570 1 11167355375636566481
12897270 3 18336263560729330548
13024252 1 15482664667542372176
16945 1 17988917838630625514
18185500 45 18265333004680130667
193761 8 17905039601335886003
21040471 1 18049440645139036928
23235685 24 18337110197472947297
23552423 10 18269826683133832214
241688 4 17979920406226519811
2748010 2 18409448081071090432
369184 2 18411416245692418088
5084963 1 18260545584897376883
66348 1 18048873301539508226

> <PUBCHEM_SHAPE_MULTIPOLES>
197.03
3.39
1.91
0.78
2.12
0.38
0.08
-0.11
0.44
-0.53
-0.16
-0.2
-0.17
0.14

> <PUBCHEM_SHAPE_SELFOVERLAP>
390.527

> <PUBCHEM_SHAPE_VOLUME>
116.1

> <PUBCHEM_COORDINATE_TYPE>
2
5
10

$$$$

