7576
  -OEChem-07051212523D

 25 26  0     0  0  0  0  0  0999 V2000
   -5.0312    0.0021    1.5782 Cl  0  0  0  0  0  0  0  0  0  0  0  0
    5.0284    0.0022    1.5783 Cl  0  0  0  0  0  0  0  0  0  0  0  0
   -0.0014   -0.0023   -1.6972 C   0  0  0  0  0  0  0  0  0  0  0  0
   -1.2517   -0.0012   -0.8840 C   0  0  0  0  0  0  0  0  0  0  0  0
    1.2691   -0.0013   -0.8710 C   0  0  0  0  0  0  0  0  0  0  0  0
   -1.8363    1.2072   -0.5054 C   0  0  0  0  0  0  0  0  0  0  0  0
    1.8337   -1.2086   -0.5022 C   0  0  0  0  0  0  0  0  0  0  0  0
   -1.8358   -1.2087   -0.5014 C   0  0  0  0  0  0  0  0  0  0  0  0
    1.8332    1.2074   -0.5046 C   0  0  0  0  0  0  0  0  0  0  0  0
   -3.0051    1.2083    0.2560 C   0  0  0  0  0  0  0  0  0  0  0  0
    3.0024   -1.2076    0.2593 C   0  0  0  0  0  0  0  0  0  0  0  0
   -3.0047   -1.2077    0.2599 C   0  0  0  0  0  0  0  0  0  0  0  0
    3.0021    1.2085    0.2567 C   0  0  0  0  0  0  0  0  0  0  0  0
   -3.5894    0.0009    0.6386 C   0  0  0  0  0  0  0  0  0  0  0  0
    3.5868    0.0009    0.6387 C   0  0  0  0  0  0  0  0  0  0  0  0
    0.0043   -0.8680   -2.3743 H   0  0  0  0  0  0  0  0  0  0  0  0
    0.0043    0.8618   -2.3765 H   0  0  0  0  0  0  0  0  0  0  0  0
   -1.3924    2.1554   -0.7970 H   0  0  0  0  0  0  0  0  0  0  0  0
    1.3867   -2.1546   -0.7930 H   0  0  0  0  0  0  0  0  0  0  0  0
   -1.3913   -2.1576   -0.7898 H   0  0  0  0  0  0  0  0  0  0  0  0
    1.3858    2.1526   -0.7974 H   0  0  0  0  0  0  0  0  0  0  0  0
   -3.4495    2.1576    0.5438 H   0  0  0  0  0  0  0  0  0  0  0  0
    3.4468   -2.1562    0.5497 H   0  0  0  0  0  0  0  0  0  0  0  0
   -3.4488   -2.1563    0.5509 H   0  0  0  0  0  0  0  0  0  0  0  0
    3.4462    2.1578    0.5452 H   0  0  0  0  0  0  0  0  0  0  0  0
  1 14  1  0  0  0  0
  2 15  1  0  0  0  0
  3  4  1  0  0  0  0
  3  5  1  0  0  0  0
  3 16  1  0  0  0  0
  3 17  1  0  0  0  0
  4  6  2  0  0  0  0
  4  8  1  0  0  0  0
  5  7  2  0  0  0  0
  5  9  1  0  0  0  0
  6 10  1  0  0  0  0
  6 18  1  0  0  0  0
  7 11  1  0  0  0  0
  7 19  1  0  0  0  0
  8 12  2  0  0  0  0
  8 20  1  0  0  0  0
  9 13  2  0  0  0  0
  9 21  1  0  0  0  0
 10 14  2  0  0  0  0
 10 22  1  0  0  0  0
 11 15  2  0  0  0  0
 11 23  1  0  0  0  0
 12 14  1  0  0  0  0
 12 24  1  0  0  0  0
 13 15  1  0  0  0  0
 13 25  1  0  0  0  0
M  END
> <PUBCHEM_COMPOUND_CID>
7576

> <PUBCHEM_CONFORMER_RMSD>
0.6

> <PUBCHEM_CONFORMER_DIVERSEORDER>
1
2
3

> <PUBCHEM_MMFF94_PARTIAL_CHARGES>
23
1 -0.18
10 -0.15
11 -0.15
12 -0.15
13 -0.15
14 0.18
15 0.18
18 0.15
19 0.15
2 -0.18
20 0.15
21 0.15
22 0.15
23 0.15
24 0.15
25 0.15
3 0.29
4 -0.14
5 -0.14
6 -0.15
7 -0.15
8 -0.15
9 -0.15

> <PUBCHEM_EFFECTIVE_ROTOR_COUNT>
2

> <PUBCHEM_PHARMACOPHORE_FEATURES>
2
6 4 6 8 10 12 14 rings
6 5 7 9 11 13 15 rings

> <PUBCHEM_HEAVY_ATOM_COUNT>
15

> <PUBCHEM_ATOM_DEF_STEREO_COUNT>
0

> <PUBCHEM_ATOM_UDEF_STEREO_COUNT>
0

> <PUBCHEM_BOND_DEF_STEREO_COUNT>
0

> <PUBCHEM_BOND_UDEF_STEREO_COUNT>
0

> <PUBCHEM_ISOTOPIC_ATOM_COUNT>
0

> <PUBCHEM_COMPONENT_COUNT>
1

> <PUBCHEM_CACTVS_TAUTO_COUNT>
1

> <PUBCHEM_CONFORMER_ID>
00001D9800000001

> <PUBCHEM_MMFF94_ENERGY>
35.3396

> <PUBCHEM_FEATURE_SELFOVERLAP>
10.149

> <PUBCHEM_SHAPE_FINGERPRINT>
10498660 4 5039949624531214875
11046707 91 16128662976324802784
11132069 177 18259979379944138799
12251169 10 18410573980861758855
12363563 72 15482670182201103111
12507560 40 18262518211915897956
12633257 1 18410856525280051667
12892183 10 18338799030026371273
13296908 3 15698005110684731207
13705890 14 12679460911263434350
13764800 53 16226040059829520575
14178342 30 17631173171985253581
1420 369 16271929337097510858
14252887 29 18342741857918957818
14341114 176 18409726287952131530
14341114 328 18335696100849297601
14576447 43 12175627278467273200
15209289 33 17560804355115009882
15239191 94 15913324706124529880
15342168 16 16153423952581553633
15375462 189 17846789528717897170
15775835 57 16153432756937248390
16752209 62 12895084989714357709
1813 80 16845286189840819878
18186145 218 6483358815541055759
19050596 39 18410573942201778195
19784866 240 15482669091643439419
19862831 5 9439402432249699052
200 152 18263103049344628023
20112054 13 16805323283971485456
20281475 54 15769772476613128934
20361792 2 15697998526616086423
20645476 183 6194837047650197149
20645477 70 13686290245177938843
20671657 53 15123785180332463479
20767249 442 15647049378256514875
20871999 31 9727639405866972079
21065199 12 18410855507372802217
21713013 43 11312048834045966161
21731228 192 18040436581268788926
22646028 28 15769775757968143083
22926399 37 13840261498877983067
231179 274 15213019345420473250
23402539 116 18334304167269913909
23403322 49 14549028701095777592
23500284 214 16515686628131768903
23503953 91 18335421240174840275
23557571 272 5400504853292648229
23559900 14 17823953775883651455
25 1 6411024183290944132
26918003 58 17846501422206082289
270888 7 15719111365972102097
27216 239 16950854600237858683
3060560 45 9079113341527464248
3286 77 17060337413885195908
3472631 163 14779269713318366625
4028521 119 5761935143101701211
42 15 18060413625540273793
4280585 95 10948728492809109256
465052 167 15266759058844510611
474 4 14562535054718418714
5374978 207 18412534406374258881
7097593 13 18410016563053431758
76465 3 15769775740941267763
90316 7 18201710795606414061

> <PUBCHEM_SHAPE_MULTIPOLES>
312.43
9.43
1.41
1.39
0.03
0.14
0
6.65
-0.01
0
0
0
-0.1
0

> <PUBCHEM_SHAPE_SELFOVERLAP>
651.895

> <PUBCHEM_SHAPE_VOLUME>
169.6

> <PUBCHEM_COORDINATE_TYPE>
2
5
10

$$$$

