442337
  -OEChem-07051212572D

 36 38  0     1  0  0  0  0  0999 V2000
    5.1482    2.3615    0.0000 O   0  0  0  0  0  0  0  0  0  0  0  0
    2.5503   -2.7197    0.0000 O   0  0  0  0  0  0  0  0  0  0  0  0
    6.8881    2.7197    0.0000 O   0  0  0  0  0  0  0  0  0  0  0  0
    3.1974   -0.2235    0.0000 C   0  0  1  0  0  0  0  0  0  0  0  0
    2.9749    0.7515    0.0000 C   0  0  2  0  0  0  0  0  0  0  0  0
    5.2219    0.7515    0.0000 C   0  0  2  0  0  0  0  0  0  0  0  0
    4.5984    1.5333    0.0000 C   0  0  2  0  0  0  0  0  0  0  0  0
    3.5984    1.5333    0.0000 C   0  0  0  0  0  0  0  0  0  0  0  0
    4.0984   -0.6573    0.0000 C   0  0  0  0  0  0  0  0  0  0  0  0
    4.9994   -0.2235    0.0000 C   0  0  0  0  0  0  0  0  0  0  0  0
    2.5124   -0.9438    0.0000 C   0  0  0  0  0  0  0  0  0  0  0  0
    3.9624   -1.6421    0.0000 C   0  0  0  0  0  0  0  0  0  0  0  0
    6.1517    1.1032    0.0000 C   0  0  0  0  0  0  0  0  0  0  0  0
    2.0000    0.9740    0.0000 C   0  0  0  0  0  0  0  0  0  0  0  0
    2.9842   -1.8187    0.0000 C   0  0  0  0  0  0  0  0  0  0  0  0
    6.1062    2.0962    0.0000 C   0  0  0  0  0  0  0  0  0  0  0  0
    4.6840   -2.3344    0.0000 C   0  0  0  0  0  0  0  0  0  0  0  0
    6.9872    0.5537    0.0000 C   0  0  0  0  0  0  0  0  0  0  0  0
    2.3778    0.0016    0.0000 H   0  0  0  0  0  0  0  0  0  0  0  0
    2.7702    1.3367    0.0000 H   0  0  0  0  0  0  0  0  0  0  0  0
    5.8627    0.1930    0.0000 H   0  0  0  0  0  0  0  0  0  0  0  0
    4.1966    2.2823    0.0000 H   0  0  0  0  0  0  0  0  0  0  0  0
    3.7364    2.1378    0.0000 H   0  0  0  0  0  0  0  0  0  0  0  0
    3.0398    1.8023    0.0000 H   0  0  0  0  0  0  0  0  0  0  0  0
    5.1374   -0.8279    0.0000 H   0  0  0  0  0  0  0  0  0  0  0  0
    5.6194   -0.2235    0.0000 H   0  0  0  0  0  0  0  0  0  0  0  0
    2.1105   -0.4716    0.0000 H   0  0  0  0  0  0  0  0  0  0  0  0
    2.0006   -1.2938    0.0000 H   0  0  0  0  0  0  0  0  0  0  0  0
    2.1380    1.5784    0.0000 H   0  0  0  0  0  0  0  0  0  0  0  0
    1.3955    1.1120    0.0000 H   0  0  0  0  0  0  0  0  0  0  0  0
    1.8620    0.3695    0.0000 H   0  0  0  0  0  0  0  0  0  0  0  0
    4.2548   -2.7818    0.0000 H   0  0  0  0  0  0  0  0  0  0  0  0
    5.1314   -2.7636    0.0000 H   0  0  0  0  0  0  0  0  0  0  0  0
    5.1132   -1.8870    0.0000 H   0  0  0  0  0  0  0  0  0  0  0  0
    6.9512   -0.0652    0.0000 H   0  0  0  0  0  0  0  0  0  0  0  0
    7.5412    0.8320    0.0000 H   0  0  0  0  0  0  0  0  0  0  0  0
  1  7  1  0  0  0  0
  1 16  1  0  0  0  0
  2 15  2  0  0  0  0
  3 16  2  0  0  0  0
  4  5  1  0  0  0  0
  4  9  1  0  0  0  0
  4 11  1  0  0  0  0
  4 19  1  6  0  0  0
  5  8  1  0  0  0  0
  5 14  1  1  0  0  0
  5 20  1  0  0  0  0
  6  7  1  0  0  0  0
  6 10  1  0  0  0  0
  6 13  1  0  0  0  0
  6 21  1  6  0  0  0
  7  8  1  0  0  0  0
  7 22  1  1  0  0  0
  8 23  1  0  0  0  0
  8 24  1  0  0  0  0
  9 10  1  0  0  0  0
  9 12  2  0  0  0  0
 10 25  1  0  0  0  0
 10 26  1  0  0  0  0
 11 15  1  0  0  0  0
 11 27  1  0  0  0  0
 11 28  1  0  0  0  0
 12 15  1  0  0  0  0
 12 17  1  0  0  0  0
 13 16  1  0  0  0  0
 13 18  2  0  0  0  0
 14 29  1  0  0  0  0
 14 30  1  0  0  0  0
 14 31  1  0  0  0  0
 17 32  1  0  0  0  0
 17 33  1  0  0  0  0
 17 34  1  0  0  0  0
 18 35  1  0  0  0  0
 18 36  1  0  0  0  0
M  END
> <PUBCHEM_COMPOUND_CID>
442337

> <PUBCHEM_COMPOUND_CANONICALIZED>
1

> <PUBCHEM_CACTVS_COMPLEXITY>
486

> <PUBCHEM_CACTVS_HBOND_ACCEPTOR>
3

> <PUBCHEM_CACTVS_HBOND_DONOR>
0

> <PUBCHEM_CACTVS_ROTATABLE_BOND>
0

> <PUBCHEM_CACTVS_SUBSKEYS>
AAADceBwMAAAAAAAAAAAAAAAAAAAASIAAAAAAAAABgAAAACQAAAAGgAAAAAADRSggAICCAAABACIAoDSCAAAAAAgAAAACAEAAEgABBIAIQACAAAEwAAIIYOKyPCOgAAAAAAAAAAAAAAAAAAAAAAAAAAAAA==

> <PUBCHEM_IUPAC_OPENEYE_NAME>
(3aS,5S,5aS,9aR)-5,8-dimethyl-1-methylene-4,5,5a,6,9,9a-hexahydro-3aH-azuleno[6,5-b]furan-2,7-dione

> <PUBCHEM_IUPAC_CAS_NAME>
(3aS,5S,5aS,9aR)-5,8-dimethyl-1-methylene-4,5,5a,6,9,9a-hexahydro-3aH-azuleno[6,5-b]furan-2,7-dione

> <PUBCHEM_IUPAC_NAME>
(3aS,5S,5aS,9aR)-5,8-dimethyl-1-methylidene-4,5,5a,6,9,9a-hexahydro-3aH-azuleno[6,5-b]furan-2,7-dione

> <PUBCHEM_IUPAC_SYSTEMATIC_NAME>
(3aS,5S,5aS,9aR)-5,8-dimethyl-1-methylidene-4,5,5a,6,9,9a-hexahydro-3aH-azuleno[6,5-b]furan-2,7-dione

> <PUBCHEM_IUPAC_TRADITIONAL_NAME>
(3aS,5S,5aS,9aR)-5,8-dimethyl-1-methylene-4,5,5a,6,9,9a-hexahydro-3aH-azuleno[6,5-b]furan-2,7-quinone

> <PUBCHEM_IUPAC_INCHI>
InChI=1S/C15H18O3/c1-7-4-14-12(9(3)15(17)18-14)5-11-8(2)13(16)6-10(7)11/h7,10,12,14H,3-6H2,1-2H3/t7-,10-,12+,14-/m0/s1

> <PUBCHEM_IUPAC_INCHIKEY>
UQNONRHPSCIIJO-BNYHBGRESA-N

> <PUBCHEM_XLOGP3_AA>
1.8

> <PUBCHEM_EXACT_MASS>
246.125594

> <PUBCHEM_MOLECULAR_FORMULA>
C15H18O3

> <PUBCHEM_MOLECULAR_WEIGHT>
246.30162

> <PUBCHEM_OPENEYE_CAN_SMILES>
CC1CC2C(CC3=C(C(=O)CC13)C)C(=C)C(=O)O2

> <PUBCHEM_OPENEYE_ISO_SMILES>
C[C@H]1C[C@H]2[C@H](CC3=C(C(=O)C[C@@H]13)C)C(=C)C(=O)O2

> <PUBCHEM_CACTVS_TPSA>
43.4

> <PUBCHEM_MONOISOTOPIC_WEIGHT>
246.125594

> <PUBCHEM_TOTAL_CHARGE>
0

> <PUBCHEM_HEAVY_ATOM_COUNT>
18

> <PUBCHEM_ATOM_DEF_STEREO_COUNT>
4

> <PUBCHEM_ATOM_UDEF_STEREO_COUNT>
0

> <PUBCHEM_BOND_DEF_STEREO_COUNT>
0

> <PUBCHEM_BOND_UDEF_STEREO_COUNT>
0

> <PUBCHEM_ISOTOPIC_ATOM_COUNT>
0

> <PUBCHEM_COMPONENT_COUNT>
1

> <PUBCHEM_CACTVS_TAUTO_COUNT>
13

> <PUBCHEM_COORDINATE_TYPE>
1
5
255

> <PUBCHEM_BONDANNOTATIONS>
4  19  6
5  14  5
6  21  6
7  22  5

$$$$

