443448
  -OEChem-07051213023D

 47 50  0     1  0  0  0  0  0999 V2000
   -3.1577    1.9273    1.7982 O   0  0  0  0  0  0  0  0  0  0  0  0
   -0.2445   -3.8244    0.2515 O   0  0  0  0  0  0  0  0  0  0  0  0
   -0.4559   -2.8478   -1.8047 O   0  0  0  0  0  0  0  0  0  0  0  0
    2.6864    1.2902    1.9089 O   0  0  0  0  0  0  0  0  0  0  0  0
    3.5848    2.5535   -1.1967 O   0  0  0  0  0  0  0  0  0  0  0  0
    1.2235   -0.3693    2.4852 O   0  0  0  0  0  0  0  0  0  0  0  0
   -1.1793   -0.4687   -0.1092 C   0  0  1  0  0  0  0  0  0  0  0  0
   -0.7754    0.3266   -1.3814 C   0  0  2  0  0  0  0  0  0  0  0  0
   -0.0203   -1.4637    0.0997 C   0  0  2  0  0  0  0  0  0  0  0  0
   -1.3433    0.4816    1.0952 C   0  0  0  0  0  0  0  0  0  0  0  0
    1.2311   -0.7813   -0.5167 C   0  0  1  0  0  0  0  0  0  0  0  0
   -2.5940    1.2539    0.6895 C   0  0  2  0  0  0  0  0  0  0  0  0
   -2.6057   -1.0473   -0.2082 C   0  0  0  0  0  0  0  0  0  0  0  0
    0.7021    0.5004   -1.1260 C   0  0  0  0  0  0  0  0  0  0  0  0
   -1.6530    1.5583   -1.6679 C   0  0  0  0  0  0  0  0  0  0  0  0
   -2.2165    2.2473   -0.4207 C   0  0  0  0  0  0  0  0  0  0  0  0
   -3.4743    0.1284    0.1869 C   0  0  0  0  0  0  0  0  0  0  0  0
    2.4358   -0.5539    0.4199 C   0  0  2  0  0  0  0  0  0  0  0  0
   -0.2648   -2.7712   -0.6005 C   0  0  0  0  0  0  0  0  0  0  0  0
    1.4464    1.5962   -1.3059 C   0  0  0  0  0  0  0  0  0  0  0  0
    3.4761    0.3345   -0.2892 C   0  0  0  0  0  0  0  0  0  0  0  0
    3.0867   -1.8959    0.7932 C   0  0  0  0  0  0  0  0  0  0  0  0
    2.8836    1.5753   -0.9382 C   0  0  0  0  0  0  0  0  0  0  0  0
    2.0386    0.1162    1.7156 C   0  0  0  0  0  0  0  0  0  0  0  0
   -4.8105    0.1338    0.1214 C   0  0  0  0  0  0  0  0  0  0  0  0
   -0.8582   -0.3218   -2.2653 H   0  0  0  0  0  0  0  0  0  0  0  0
    0.0838   -1.7122    1.1566 H   0  0  0  0  0  0  0  0  0  0  0  0
   -0.4995    1.1583    1.2609 H   0  0  0  0  0  0  0  0  0  0  0  0
   -1.5006   -0.0674    2.0340 H   0  0  0  0  0  0  0  0  0  0  0  0
    1.5942   -1.3871   -1.3611 H   0  0  0  0  0  0  0  0  0  0  0  0
   -2.7472   -1.8624    0.5113 H   0  0  0  0  0  0  0  0  0  0  0  0
   -2.8409   -1.4057   -1.2154 H   0  0  0  0  0  0  0  0  0  0  0  0
   -2.5095    1.2185   -2.2672 H   0  0  0  0  0  0  0  0  0  0  0  0
   -1.1379    2.2878   -2.3021 H   0  0  0  0  0  0  0  0  0  0  0  0
   -1.4766    2.9590   -0.0308 H   0  0  0  0  0  0  0  0  0  0  0  0
   -3.0841    2.8587   -0.7007 H   0  0  0  0  0  0  0  0  0  0  0  0
    1.0506    2.5158   -1.7177 H   0  0  0  0  0  0  0  0  0  0  0  0
    3.9395   -0.2326   -1.1086 H   0  0  0  0  0  0  0  0  0  0  0  0
    4.2965    0.6329    0.3751 H   0  0  0  0  0  0  0  0  0  0  0  0
    3.4283   -2.4336   -0.0982 H   0  0  0  0  0  0  0  0  0  0  0  0
    3.9553   -1.7444    1.4452 H   0  0  0  0  0  0  0  0  0  0  0  0
    2.3927   -2.5506    1.3316 H   0  0  0  0  0  0  0  0  0  0  0  0
   -3.8658    2.5091    1.4737 H   0  0  0  0  0  0  0  0  0  0  0  0
   -5.3880    1.0000    0.4243 H   0  0  0  0  0  0  0  0  0  0  0  0
   -5.3531   -0.7318   -0.2435 H   0  0  0  0  0  0  0  0  0  0  0  0
   -0.4039   -4.6738   -0.2123 H   0  0  0  0  0  0  0  0  0  0  0  0
    2.4226    1.7198    2.7502 H   0  0  0  0  0  0  0  0  0  0  0  0
  1 12  1  0  0  0  0
  1 43  1  0  0  0  0
  2 19  1  0  0  0  0
  2 46  1  0  0  0  0
  3 19  2  0  0  0  0
  4 24  1  0  0  0  0
  4 47  1  0  0  0  0
  5 23  2  0  0  0  0
  6 24  2  0  0  0  0
  7  8  1  0  0  0  0
  7  9  1  0  0  0  0
  7 10  1  0  0  0  0
  7 13  1  0  0  0  0
  8 14  1  0  0  0  0
  8 15  1  0  0  0  0
  8 26  1  0  0  0  0
  9 11  1  0  0  0  0
  9 19  1  0  0  0  0
  9 27  1  0  0  0  0
 10 12  1  0  0  0  0
 10 28  1  0  0  0  0
 10 29  1  0  0  0  0
 11 14  1  0  0  0  0
 11 18  1  0  0  0  0
 11 30  1  0  0  0  0
 12 16  1  0  0  0  0
 12 17  1  0  0  0  0
 13 17  1  0  0  0  0
 13 31  1  0  0  0  0
 13 32  1  0  0  0  0
 14 20  2  0  0  0  0
 15 16  1  0  0  0  0
 15 33  1  0  0  0  0
 15 34  1  0  0  0  0
 16 35  1  0  0  0  0
 16 36  1  0  0  0  0
 17 25  2  0  0  0  0
 18 21  1  0  0  0  0
 18 22  1  0  0  0  0
 18 24  1  0  0  0  0
 20 23  1  0  0  0  0
 20 37  1  0  0  0  0
 21 23  1  0  0  0  0
 21 38  1  0  0  0  0
 21 39  1  0  0  0  0
 22 40  1  0  0  0  0
 22 41  1  0  0  0  0
 22 42  1  0  0  0  0
 25 44  1  0  0  0  0
 25 45  1  0  0  0  0
M  END
> <PUBCHEM_COMPOUND_CID>
443448

> <PUBCHEM_CONFORMER_RMSD>
0.6

> <PUBCHEM_CONFORMER_DIVERSEORDER>
1
2

> <PUBCHEM_MMFF94_PARTIAL_CHARGES>
26
1 -0.68
11 0.14
12 0.42
13 0.14
14 -0.28
17 -0.28
18 0.06
19 0.66
2 -0.65
20 -0.14
21 0.06
23 0.49
24 0.66
25 -0.3
3 -0.57
37 0.15
4 -0.65
43 0.4
44 0.15
45 0.15
46 0.5
47 0.5
5 -0.57
6 -0.57
8 0.14
9 0.06

> <PUBCHEM_EFFECTIVE_ROTOR_COUNT>
3.4

> <PUBCHEM_PHARMACOPHORE_FEATURES>
12
1 1 acceptor
1 1 donor
1 2 acceptor
1 3 acceptor
1 4 acceptor
1 5 acceptor
1 6 acceptor
3 2 3 19 anion
3 4 6 24 anion
5 7 8 9 11 14 rings
6 11 14 18 20 21 23 rings
8 7 8 10 12 13 15 16 17 rings

> <PUBCHEM_HEAVY_ATOM_COUNT>
25

> <PUBCHEM_ATOM_DEF_STEREO_COUNT>
6

> <PUBCHEM_ATOM_UDEF_STEREO_COUNT>
0

> <PUBCHEM_BOND_DEF_STEREO_COUNT>
0

> <PUBCHEM_BOND_UDEF_STEREO_COUNT>
0

> <PUBCHEM_ISOTOPIC_ATOM_COUNT>
0

> <PUBCHEM_COMPONENT_COUNT>
1

> <PUBCHEM_CACTVS_TAUTO_COUNT>
8

> <PUBCHEM_CONFORMER_ID>
0006C43800000001

> <PUBCHEM_MMFF94_ENERGY>
86.7667

> <PUBCHEM_FEATURE_SELFOVERLAP>
61.157

> <PUBCHEM_SHAPE_FINGERPRINT>
10165383 225 18261096474709329016
10863032 1 18337096887453439568
10948715 1 18339912749543326788
1100329 8 17548683089864332815
11578080 2 17263896452808627493
11640471 11 18270674251816475188
12173636 292 18259989257957768109
12633257 1 17272299225399856977
12788726 201 17549251541755691442
128993 33 18259703393445476728
13140716 1 18338517572261470488
13224815 77 18343580763573410733
13538477 17 18267305318155593694
13583140 156 17823994531124208793
13681431 1 17395011401733609391
13965767 371 18127116692077216605
14178342 30 18121781892097629569
14223421 5 17632856434082736716
14713325 29 17977642240257197766
14787075 74 17750814163888703755
15238133 3 17388243800232482529
15309172 13 18341608226506259229
16945 1 17703208668511337348
17349148 13 18342742948988064741
18981168 100 18189351099251103648
20600515 1 17111317133911715622
20691752 17 18115605754917137689
20715895 44 17842573013764693773
21033648 29 18046659881907411456
21524375 3 18333448767917956359
22112679 90 17982750575015941590
23419403 2 15666811205785587674
23526113 38 16879320421100536830
23557571 272 17755026298239789392
23559900 14 18196937892833498399
2748010 2 17984442972798663302
3286 77 18041008378843861467
34934 24 17987798480059312173
350125 39 18409729594655209438
35225 105 17968100772271263407
474 4 18339350963884595889
484985 159 14325866512653806936
7364860 26 17680704023718387223
81228 2 17974872578403279519
90525 40 18412546534823767839

> <PUBCHEM_SHAPE_MULTIPOLES>
479.27
6.05
2.97
1.78
2.11
1.85
0.6
-2.44
1.24
-0.68
-0.97
-0.45
-0.34
-0.93

> <PUBCHEM_SHAPE_SELFOVERLAP>
1065.11

> <PUBCHEM_SHAPE_VOLUME>
254.8

> <PUBCHEM_COORDINATE_TYPE>
2
5
10

$$$$

