14312
  -OEChem-06241222433D

 19 20  0     0  0  0  0  0  0999 V2000
    1.3300   -2.2819   -0.0007 O   0  0  0  0  0  0  0  0  0  0  0  0
   -1.2300   -2.2445    0.0001 O   0  5  0  0  0  0  0  0  0  0  0  0
   -1.1922   -0.9661    0.0004 N   0  3  0  0  0  0  0  0  0  0  0  0
    0.0016   -0.2423    0.0002 C   0  0  0  0  0  0  0  0  0  0  0  0
   -0.0296    1.1719    0.0000 C   0  0  0  0  0  0  0  0  0  0  0  0
    1.2270   -0.9221    0.0002 C   0  0  0  0  0  0  0  0  0  0  0  0
    1.1855    1.8747   -0.0001 C   0  0  0  0  0  0  0  0  0  0  0  0
   -1.2678    1.8257   -0.0002 C   0  0  0  0  0  0  0  0  0  0  0  0
    2.4225   -0.2050    0.0002 C   0  0  0  0  0  0  0  0  0  0  0  0
    2.4022    1.1887    0.0000 C   0  0  0  0  0  0  0  0  0  0  0  0
   -2.3988   -0.2934    0.0000 C   0  0  0  0  0  0  0  0  0  0  0  0
   -2.4504    1.0942   -0.0002 C   0  0  0  0  0  0  0  0  0  0  0  0
    1.1957    2.9625   -0.0003 H   0  0  0  0  0  0  0  0  0  0  0  0
   -1.3205    2.9122   -0.0004 H   0  0  0  0  0  0  0  0  0  0  0  0
    3.3770   -0.7252    0.0000 H   0  0  0  0  0  0  0  0  0  0  0  0
    3.3358    1.7440   -0.0001 H   0  0  0  0  0  0  0  0  0  0  0  0
   -3.2763   -0.9242    0.0000 H   0  0  0  0  0  0  0  0  0  0  0  0
   -3.4088    1.6040   -0.0005 H   0  0  0  0  0  0  0  0  0  0  0  0
    0.4412   -2.6692   -0.0011 H   0  0  0  0  0  0  0  0  0  0  0  0
  1  6  1  0  0  0  0
  1 19  1  0  0  0  0
  2  3  1  0  0  0  0
  3  4  1  0  0  0  0
  3 11  2  0  0  0  0
  4  5  2  0  0  0  0
  4  6  1  0  0  0  0
  5  7  1  0  0  0  0
  5  8  1  0  0  0  0
  6  9  2  0  0  0  0
  7 10  2  0  0  0  0
  7 13  1  0  0  0  0
  8 12  2  0  0  0  0
  8 14  1  0  0  0  0
  9 10  1  0  0  0  0
  9 15  1  0  0  0  0
 10 16  1  0  0  0  0
 11 12  1  0  0  0  0
 11 17  1  0  0  0  0
 12 18  1  0  0  0  0
M  CHG  2   2  -1   3   1
M  END
> <PUBCHEM_COMPOUND_CID>
14312

> <PUBCHEM_CONFORMER_RMSD>
0.4

> <PUBCHEM_CONFORMER_DIVERSEORDER>
1

> <PUBCHEM_MMFF94_PARTIAL_CHARGES>
18
1 -0.53
10 -0.15
11 -0.06
12 -0.15
13 0.15
14 0.15
15 0.15
16 0.15
17 0.15
18 0.15
19 0.45
2 -0.75
3 0.57
4 0.09
6 0.08
7 -0.15
8 -0.15
9 -0.15

> <PUBCHEM_EFFECTIVE_ROTOR_COUNT>
0

> <PUBCHEM_PHARMACOPHORE_FEATURES>
4
1 1 donor
1 2 anion
6 3 4 5 8 11 12 rings
6 4 5 6 7 9 10 rings

> <PUBCHEM_HEAVY_ATOM_COUNT>
12

> <PUBCHEM_ATOM_DEF_STEREO_COUNT>
0

> <PUBCHEM_ATOM_UDEF_STEREO_COUNT>
0

> <PUBCHEM_BOND_DEF_STEREO_COUNT>
0

> <PUBCHEM_BOND_UDEF_STEREO_COUNT>
0

> <PUBCHEM_ISOTOPIC_ATOM_COUNT>
0

> <PUBCHEM_COMPONENT_COUNT>
1

> <PUBCHEM_CACTVS_TAUTO_COUNT>
3

> <PUBCHEM_CONFORMER_ID>
000037E800000001

> <PUBCHEM_MMFF94_ENERGY>
35.7941

> <PUBCHEM_FEATURE_SELFOVERLAP>
20.325

> <PUBCHEM_SHAPE_FINGERPRINT>
10967382 1 18410573972308864197
12423570 1 16331348830916394701
12524768 44 18339922713798667271
12897270 3 18338517443433446748
13380535 76 18410581677459081234
16945 1 18410575084679150020
193761 8 18410575080389418502
21040471 1 18410856581252081408
2334 1 17906452130079831140
23463225 33 18342745152111160720
23552423 10 18342173371135344524
23559900 14 18261944225088782756
241688 4 16104448766648278777
2748010 2 18123189275186125460
2897 32 18411698815622142556
5084963 1 17970356038081157057
528886 8 18338240340743941000
66348 1 18266457787763633468

> <PUBCHEM_SHAPE_MULTIPOLES>
230.23
3.39
2.35
0.59
0.19
0.65
0
-0.41
0
-0.09
0
-0.01
-0.05
0

> <PUBCHEM_SHAPE_SELFOVERLAP>
507.252

> <PUBCHEM_SHAPE_VOLUME>
123.6

> <PUBCHEM_COORDINATE_TYPE>
2
5
10

$$$$

