14263
  -OEChem-06241222423D

 16 16  0     1  0  0  0  0  0999 V2000
   -0.8039    0.0237   -0.4231 C   0  0  1  0  0  0  0  0  0  0  0  0
    0.0655    1.2111    0.0163 C   0  0  0  0  0  0  0  0  0  0  0  0
    1.5044    0.6943    0.0377 C   0  0  0  0  0  0  0  0  0  0  0  0
    0.0621   -1.1495   -0.0812 C   0  0  0  0  0  0  0  0  0  0  0  0
    1.3226   -0.7803    0.1658 C   0  0  0  0  0  0  0  0  0  0  0  0
   -2.1507    0.0006    0.2846 C   0  0  0  0  0  0  0  0  0  0  0  0
   -0.9618    0.0476   -1.5082 H   0  0  0  0  0  0  0  0  0  0  0  0
   -0.2139    1.5549    1.0212 H   0  0  0  0  0  0  0  0  0  0  0  0
   -0.0463    2.0679   -0.6570 H   0  0  0  0  0  0  0  0  0  0  0  0
    2.0601    1.1116    0.8824 H   0  0  0  0  0  0  0  0  0  0  0  0
    2.0338    0.9340   -0.8901 H   0  0  0  0  0  0  0  0  0  0  0  0
   -0.2793   -2.1749   -0.0820 H   0  0  0  0  0  0  0  0  0  0  0  0
    2.1238   -1.4675    0.3955 H   0  0  0  0  0  0  0  0  0  0  0  0
   -2.0365   -0.0623    1.3727 H   0  0  0  0  0  0  0  0  0  0  0  0
   -2.7214    0.9069    0.0561 H   0  0  0  0  0  0  0  0  0  0  0  0
   -2.7436   -0.8622   -0.0378 H   0  0  0  0  0  0  0  0  0  0  0  0
  1  2  1  0  0  0  0
  1  4  1  0  0  0  0
  1  6  1  0  0  0  0
  1  7  1  0  0  0  0
  2  3  1  0  0  0  0
  2  8  1  0  0  0  0
  2  9  1  0  0  0  0
  3  5  1  0  0  0  0
  3 10  1  0  0  0  0
  3 11  1  0  0  0  0
  4  5  2  0  0  0  0
  4 12  1  0  0  0  0
  5 13  1  0  0  0  0
  6 14  1  0  0  0  0
  6 15  1  0  0  0  0
  6 16  1  0  0  0  0
M  END
> <PUBCHEM_COMPOUND_CID>
14263

> <PUBCHEM_CONFORMER_RMSD>
0.4

> <PUBCHEM_CONFORMER_DIVERSEORDER>
1

> <PUBCHEM_MMFF94_PARTIAL_CHARGES>
6
1 0.14
12 0.15
13 0.15
3 0.14
4 -0.29
5 -0.29

> <PUBCHEM_EFFECTIVE_ROTOR_COUNT>
0.6

> <PUBCHEM_PHARMACOPHORE_FEATURES>
1
5 1 2 3 4 5 rings

> <PUBCHEM_HEAVY_ATOM_COUNT>
6

> <PUBCHEM_ATOM_DEF_STEREO_COUNT>
0

> <PUBCHEM_ATOM_UDEF_STEREO_COUNT>
1

> <PUBCHEM_BOND_DEF_STEREO_COUNT>
0

> <PUBCHEM_BOND_UDEF_STEREO_COUNT>
0

> <PUBCHEM_ISOTOPIC_ATOM_COUNT>
0

> <PUBCHEM_COMPONENT_COUNT>
1

> <PUBCHEM_CACTVS_TAUTO_COUNT>
1

> <PUBCHEM_CONFORMER_ID>
000037B700000001

> <PUBCHEM_MMFF94_ENERGY>
5.2907

> <PUBCHEM_FEATURE_SELFOVERLAP>
5.074

> <PUBCHEM_SHAPE_FINGERPRINT>
16714656 1 18410287000085153772
20096714 4 18335984147125905792
21015797 1 9366472947113461182
21040471 1 18266178340064240508
29004967 10 18201716271187965217
5943 1 12512388907609019742

> <PUBCHEM_SHAPE_MULTIPOLES>
123.48
2.17
1.26
0.67
0.79
0.02
0.01
0.04
-0.24
-0.28
-0.01
0.05
0
-0.02

> <PUBCHEM_SHAPE_SELFOVERLAP>
240.667

> <PUBCHEM_SHAPE_VOLUME>
75

> <PUBCHEM_COORDINATE_TYPE>
2
5
10

$$$$

