99735
  -OEChem-07051212543D

 30 30  0     1  0  0  0  0  0999 V2000
    3.0508   -3.1103    0.3346 Cl  0  0  0  0  0  0  0  0  0  0  0  0
    3.6606    2.7255    0.5382 Cl  0  0  0  0  0  0  0  0  0  0  0  0
   -0.5878   -0.1749   -0.9548 P   0  0  1  0  0  0  0  0  0  0  0  0
   -1.3003    1.2701   -1.2145 O   0  0  0  0  0  0  0  0  0  0  0  0
   -0.1206   -0.7613   -2.2651 O   0  0  0  0  0  0  0  0  0  0  0  0
   -3.5624   -1.2184    1.3758 O   0  0  0  0  0  0  0  0  0  0  0  0
    0.6315    0.1025    0.1379 N   0  0  0  0  0  0  0  0  0  0  0  0
   -1.7558   -1.0710   -0.1724 N   0  0  0  0  0  0  0  0  0  0  0  0
   -2.5042   -0.3995    0.8905 C   0  0  1  0  0  0  0  0  0  0  0  0
   -3.1049    0.9112    0.3724 C   0  0  0  0  0  0  0  0  0  0  0  0
   -2.0392    1.8686   -0.1536 C   0  0  0  0  0  0  0  0  0  0  0  0
    1.2931   -1.0759    0.6937 C   0  0  0  0  0  0  0  0  0  0  0  0
    1.6309    1.1012   -0.2360 C   0  0  0  0  0  0  0  0  0  0  0  0
    2.2549   -1.6628   -0.3278 C   0  0  0  0  0  0  0  0  0  0  0  0
    2.4534    1.4949    0.9811 C   0  0  0  0  0  0  0  0  0  0  0  0
   -1.8388   -0.1926    1.7360 H   0  0  0  0  0  0  0  0  0  0  0  0
   -3.6805    1.3953    1.1704 H   0  0  0  0  0  0  0  0  0  0  0  0
   -3.8222    0.6841   -0.4276 H   0  0  0  0  0  0  0  0  0  0  0  0
   -1.4920   -2.0038    0.1404 H   0  0  0  0  0  0  0  0  0  0  0  0
   -2.5104    2.7758   -0.5439 H   0  0  0  0  0  0  0  0  0  0  0  0
   -1.3478    2.1654    0.6418 H   0  0  0  0  0  0  0  0  0  0  0  0
    0.5417   -1.8304    0.9531 H   0  0  0  0  0  0  0  0  0  0  0  0
    1.7829   -0.8693    1.6505 H   0  0  0  0  0  0  0  0  0  0  0  0
    1.1038    2.0018   -0.5759 H   0  0  0  0  0  0  0  0  0  0  0  0
    2.2475    0.8010   -1.0894 H   0  0  0  0  0  0  0  0  0  0  0  0
    1.7555   -1.9836   -1.2433 H   0  0  0  0  0  0  0  0  0  0  0  0
    3.0790   -0.9976   -0.5891 H   0  0  0  0  0  0  0  0  0  0  0  0
    1.8268    1.9145    1.7746 H   0  0  0  0  0  0  0  0  0  0  0  0
    3.0476    0.6788    1.3942 H   0  0  0  0  0  0  0  0  0  0  0  0
   -3.1708   -2.0786    1.6031 H   0  0  0  0  0  0  0  0  0  0  0  0
  1 14  1  0  0  0  0
  2 15  1  0  0  0  0
  3  4  1  0  0  0  0
  3  5  2  0  0  0  0
  3  7  1  0  0  0  0
  3  8  1  0  0  0  0
  4 11  1  0  0  0  0
  6  9  1  0  0  0  0
  6 30  1  0  0  0  0
  7 12  1  0  0  0  0
  7 13  1  0  0  0  0
  8  9  1  0  0  0  0
  8 19  1  0  0  0  0
  9 10  1  0  0  0  0
  9 16  1  0  0  0  0
 10 11  1  0  0  0  0
 10 17  1  0  0  0  0
 10 18  1  0  0  0  0
 11 20  1  0  0  0  0
 11 21  1  0  0  0  0
 12 14  1  0  0  0  0
 12 22  1  0  0  0  0
 12 23  1  0  0  0  0
 13 15  1  0  0  0  0
 13 24  1  0  0  0  0
 13 25  1  0  0  0  0
 14 26  1  0  0  0  0
 14 27  1  0  0  0  0
 15 28  1  0  0  0  0
 15 29  1  0  0  0  0
M  END
> <PUBCHEM_COMPOUND_CID>
99735

> <PUBCHEM_CONFORMER_RMSD>
0.6

> <PUBCHEM_CONFORMER_DIVERSEORDER>
1
63
54
49
50
30
40
17
39
24
78
21
12
69
10
14
62
38
5
31
73
27
34
60
8
66
79
46
45
70
56
80
55
61
9
16
67
2
48
64
52
68
11
13
15
25
4
44
76
72
81
47
41
53
36
22
33
42
71
26
77
65
29
32
28
20
75
51
74
23
43
3
19
18
59
35
7
57
6
58
37

> <PUBCHEM_MMFF94_PARTIAL_CHARGES>
16
1 -0.29
11 0.28
12 0.27
13 0.27
14 0.29
15 0.29
19 0.36
2 -0.29
3 1.51
30 0.4
4 -0.55
5 -0.7
6 -0.68
7 -0.81
8 -0.9
9 0.55

> <PUBCHEM_EFFECTIVE_ROTOR_COUNT>
6

> <PUBCHEM_PHARMACOPHORE_FEATURES>
3
1 6 acceptor
1 6 donor
6 3 4 8 9 10 11 rings

> <PUBCHEM_HEAVY_ATOM_COUNT>
15

> <PUBCHEM_ATOM_DEF_STEREO_COUNT>
0

> <PUBCHEM_ATOM_UDEF_STEREO_COUNT>
2

> <PUBCHEM_BOND_DEF_STEREO_COUNT>
0

> <PUBCHEM_BOND_UDEF_STEREO_COUNT>
0

> <PUBCHEM_ISOTOPIC_ATOM_COUNT>
0

> <PUBCHEM_COMPONENT_COUNT>
1

> <PUBCHEM_CACTVS_TAUTO_COUNT>
2

> <PUBCHEM_CONFORMER_ID>
0001859700000001

> <PUBCHEM_MMFF94_ENERGY>
8.9055

> <PUBCHEM_FEATURE_SELFOVERLAP>
15.223

> <PUBCHEM_SHAPE_FINGERPRINT>
12633257 1 18045766030540609667
14648413 74 18338243789766261896
14863182 85 17770195199053564043
15309172 13 18125732179757585056
15775835 57 17969218945347421680
16945 1 18266736875049874365
17357990 137 16732978747452858384
17804303 29 18055905739509447419
17841504 4 18338236097332018338
18380122 1 18130512933197168472
201361 129 18334290938274951792
20344682 10 18124027936470677729
20511035 2 18263652916432214748
21061003 4 18196096770607123122
21501502 16 18260275152550564191
21524375 3 17897728652512983712
23175994 123 17976259363398024278
23532345 11 18060409214867564377
23559900 14 18059569230363780623
2748010 2 18201164333488486405
305870 269 18335709291173963232
4175511 71 18046066231506132372
458136 41 18339069377339033992
7364860 26 18408324414879473288

> <PUBCHEM_SHAPE_MULTIPOLES>
288.71
5.83
3.02
1.32
0.45
0.17
-0.48
-0.55
2.21
-4.06
0.51
0.52
0.24
0.77

> <PUBCHEM_SHAPE_SELFOVERLAP>
526.235

> <PUBCHEM_SHAPE_VOLUME>
185.6

> <PUBCHEM_COORDINATE_TYPE>
2
5
10

$$$$

