5462350
  -OEChem-07051212542D

 46 49  0     1  0  0  0  0  0999 V2000
    7.9157    3.1874    0.0000 Cl  0  0  0  0  0  0  0  0  0  0  0  0
    0.8514    2.9055    0.0000 O   0  0  0  0  0  0  0  0  0  0  0  0
    3.7761    1.1355    0.0000 O   0  0  0  0  0  0  0  0  0  0  0  0
    0.6200    0.4505    0.0000 O   0  0  0  0  0  0  0  0  0  0  0  0
    0.6200    5.2548    0.0000 O   0  0  0  0  0  0  0  0  0  0  0  0
    4.7806    1.9016    0.0000 N   0  0  3  0  0  0  0  0  0  0  0  0
    2.3097    2.3771    0.0000 C   0  0  1  0  0  0  0  0  0  0  0  0
    3.1333    1.9016    0.0000 C   0  0  1  0  0  0  0  0  0  0  0  0
    3.9570    2.3771    0.0000 C   0  0  1  0  0  0  0  0  0  0  0  0
    1.4860    1.9016    0.0000 C   0  0  2  0  0  0  0  0  0  0  0  0
    2.8592    3.0746    0.0000 C   0  0  0  0  0  0  0  0  0  0  0  0
    2.3097    3.3282    0.0000 C   0  0  0  0  0  0  0  0  0  0  0  0
    3.1333    0.9505    0.0000 C   0  0  0  0  0  0  0  0  0  0  0  0
    3.9570    3.3282    0.0000 C   0  0  0  0  0  0  0  0  0  0  0  0
    4.2118    3.0746    0.0000 C   0  0  0  0  0  0  0  0  0  0  0  0
    3.1333    3.8037    0.0000 C   0  0  0  0  0  0  0  0  0  0  0  0
    2.3097    0.4749    0.0000 C   0  0  0  0  0  0  0  0  0  0  0  0
    1.4860    0.9505    0.0000 C   0  0  0  0  0  0  0  0  0  0  0  0
    1.4860    3.8037    0.0000 C   0  0  0  0  0  0  0  0  0  0  0  0
    5.4618    1.1694    0.0000 C   0  0  0  0  0  0  0  0  0  0  0  0
    3.1333    4.7548    0.0000 C   0  0  0  0  0  0  0  0  0  0  0  0
    1.4860    4.7548    0.0000 C   0  0  0  0  0  0  0  0  0  0  0  0
    2.3097    5.2303    0.0000 C   0  0  0  0  0  0  0  0  0  0  0  0
    0.6200    6.2548    0.0000 C   0  0  0  0  0  0  0  0  0  0  0  0
    4.2484    1.5786    0.0000 H   0  0  0  0  0  0  0  0  0  0  0  0
    0.6696    1.6651    0.0000 H   0  0  0  0  0  0  0  0  0  0  0  0
    2.9960    3.6793    0.0000 H   0  0  0  0  0  0  0  0  0  0  0  0
    2.2995    3.3414    0.0000 H   0  0  0  0  0  0  0  0  0  0  0  0
    3.3454    0.3679    0.0000 H   0  0  0  0  0  0  0  0  0  0  0  0
    3.7439    1.0582    0.0000 H   0  0  0  0  0  0  0  0  0  0  0  0
    4.5676    3.2205    0.0000 H   0  0  0  0  0  0  0  0  0  0  0  0
    4.1690    3.9108    0.0000 H   0  0  0  0  0  0  0  0  0  0  0  0
    4.8040    3.2584    0.0000 H   0  0  0  0  0  0  0  0  0  0  0  0
    4.1189    3.6875    0.0000 H   0  0  0  0  0  0  0  0  0  0  0  0
    1.9112    0.0000    0.0000 H   0  0  0  0  0  0  0  0  0  0  0  0
    2.7082    0.0000    0.0000 H   0  0  0  0  0  0  0  0  0  0  0  0
    3.8838    0.5249    0.0000 H   0  0  0  0  0  0  0  0  0  0  0  0
    5.0079    0.7471    0.0000 H   0  0  0  0  0  0  0  0  0  0  0  0
    5.8841    0.7155    0.0000 H   0  0  0  0  0  0  0  0  0  0  0  0
    5.9157    1.5918    0.0000 H   0  0  0  0  0  0  0  0  0  0  0  0
    3.6703    5.0648    0.0000 H   0  0  0  0  0  0  0  0  0  0  0  0
    2.3097    5.8503    0.0000 H   0  0  0  0  0  0  0  0  0  0  0  0
    1.2400    6.2548    0.0000 H   0  0  0  0  0  0  0  0  0  0  0  0
    0.6200    6.8748    0.0000 H   0  0  0  0  0  0  0  0  0  0  0  0
    0.0000    6.2548    0.0000 H   0  0  0  0  0  0  0  0  0  0  0  0
    8.9157    3.1874    0.0000 H   0  0  0  0  0  0  0  0  0  0  0  0
  1 46  1  0  0  0  0
  2 10  1  0  0  0  0
  2 19  1  0  0  0  0
  8  3  1  1  0  0  0
  3 37  1  0  0  0  0
  4 18  2  0  0  0  0
  5 22  1  0  0  0  0
  5 24  1  0  0  0  0
  6  9  1  0  0  0  0
  6 15  1  0  0  0  0
  6 20  1  0  0  0  0
  7  8  1  0  0  0  0
  7 10  1  0  0  0  0
  7 11  1  1  0  0  0
  7 12  1  0  0  0  0
  8  9  1  0  0  0  0
  8 13  1  0  0  0  0
  9 14  1  0  0  0  0
  9 25  1  6  0  0  0
 10 18  1  0  0  0  0
 10 26  1  1  0  0  0
 11 15  1  0  0  0  0
 11 27  1  0  0  0  0
 11 28  1  0  0  0  0
 12 16  2  0  0  0  0
 12 19  1  0  0  0  0
 13 17  1  0  0  0  0
 13 29  1  0  0  0  0
 13 30  1  0  0  0  0
 14 16  1  0  0  0  0
 14 31  1  0  0  0  0
 14 32  1  0  0  0  0
 15 33  1  0  0  0  0
 15 34  1  0  0  0  0
 16 21  1  0  0  0  0
 17 18  1  0  0  0  0
 17 35  1  0  0  0  0
 17 36  1  0  0  0  0
 19 22  2  0  0  0  0
 20 38  1  0  0  0  0
 20 39  1  0  0  0  0
 20 40  1  0  0  0  0
 21 23  2  0  0  0  0
 21 41  1  0  0  0  0
 22 23  1  0  0  0  0
 23 42  1  0  0  0  0
 24 43  1  0  0  0  0
 24 44  1  0  0  0  0
 24 45  1  0  0  0  0
M  END
> <PUBCHEM_COMPOUND_CID>
5462350

> <PUBCHEM_COMPOUND_CANONICALIZED>
1

> <PUBCHEM_CACTVS_COMPLEXITY>
553

> <PUBCHEM_CACTVS_HBOND_ACCEPTOR>
5

> <PUBCHEM_CACTVS_HBOND_DONOR>
2

> <PUBCHEM_CACTVS_ROTATABLE_BOND>
1

> <PUBCHEM_CACTVS_SUBSKEYS>
AAADceB6OAAEAAAAAAAAAAAAAAAAASAAAAA8YMEAAAAWAEjxAAAAHgAACAAADnzhmAYyBoMABgCIAqBSAAICCAAgIAAIiAFOiIgPJjKEsR+GeCKlwBGaqAf6/f/foAABAAAYQADQAAaQADSgAAAAAAAAAA==

> <PUBCHEM_IUPAC_OPENEYE_NAME>
(4R,4aS,7aR,12bS)-4a-hydroxy-9-methoxy-3-methyl-2,4,5,6,7a,13-hexahydro-1H-4,12-methanobenzofuro[3,2-e]isoquinoline-7-one hydrochloride

> <PUBCHEM_IUPAC_CAS_NAME>
(4R,4aS,7aR,12bS)-4a-hydroxy-9-methoxy-3-methyl-2,4,5,6,7a,13-hexahydro-1H-4,12-methanobenzofuro[3,2-e]isoquinoline-7-one hydrochloride

> <PUBCHEM_IUPAC_NAME>
(4R,4aS,7aR,12bS)-4a-hydroxy-9-methoxy-3-methyl-2,4,5,6,7a,13-hexahydro-1H-4,12-methanobenzofuro[3,2-e]isoquinoline-7-one hydrochloride

> <PUBCHEM_IUPAC_SYSTEMATIC_NAME>
(4R,4aS,7aR,12bS)-9-methoxy-3-methyl-4a-oxidanyl-2,4,5,6,7a,13-hexahydro-1H-4,12-methanobenzofuro[3,2-e]isoquinoline-7-one hydrochloride

> <PUBCHEM_IUPAC_TRADITIONAL_NAME>
(4R,4aS,7aR,12bS)-4a-hydroxy-9-methoxy-3-methyl-2,4,5,6,7a,13-hexahydro-1H-4,12-methanobenzofuro[3,2-e]isoquinoline-7-one hydrochloride

> <PUBCHEM_IUPAC_INCHI>
InChI=1S/C18H21NO4.ClH/c1-19-8-7-17-14-10-3-4-12(22-2)15(14)23-16(17)11(20)5-6-18(17,21)13(19)9-10;/h3-4,13,16,21H,5-9H2,1-2H3;1H/t13-,16+,17+,18-;/m1./s1

> <PUBCHEM_IUPAC_INCHIKEY>
MUZQPDBAOYKNLO-RKXJKUSZSA-N

> <PUBCHEM_EXACT_MASS>
351.123736

> <PUBCHEM_MOLECULAR_FORMULA>
C18H22ClNO4

> <PUBCHEM_MOLECULAR_WEIGHT>
351.82458

> <PUBCHEM_OPENEYE_CAN_SMILES>
CN1CCC23C4C(=O)CCC2(C1CC5=C3C(=C(C=C5)OC)O4)O.Cl

> <PUBCHEM_OPENEYE_ISO_SMILES>
CN1CC[C@]23[C@@H]4C(=O)CC[C@]2([C@H]1CC5=C3C(=C(C=C5)OC)O4)O.Cl

> <PUBCHEM_CACTVS_TPSA>
59

> <PUBCHEM_MONOISOTOPIC_WEIGHT>
351.123736

> <PUBCHEM_TOTAL_CHARGE>
0

> <PUBCHEM_HEAVY_ATOM_COUNT>
24

> <PUBCHEM_ATOM_DEF_STEREO_COUNT>
4

> <PUBCHEM_ATOM_UDEF_STEREO_COUNT>
0

> <PUBCHEM_BOND_DEF_STEREO_COUNT>
0

> <PUBCHEM_BOND_UDEF_STEREO_COUNT>
0

> <PUBCHEM_ISOTOPIC_ATOM_COUNT>
0

> <PUBCHEM_COMPONENT_COUNT>
2

> <PUBCHEM_CACTVS_TAUTO_COUNT>
3

> <PUBCHEM_COORDINATE_TYPE>
1
5
255

> <PUBCHEM_BONDANNOTATIONS>
10  26  5
12  16  8
12  19  8
16  21  8
19  22  8
21  23  8
22  23  8
8  3  5
7  11  5
9  25  6

$$$$

