5281361
  -OEChem-07051212563D

 39 42  0     1  0  0  0  0  0999 V2000
    3.1768    0.3684    0.6611 N   0  0  1  0  0  0  0  0  0  0  0  0
   -2.5585   -1.1317   -0.0342 N   0  0  0  0  0  0  0  0  0  0  0  0
    0.6906   -2.8771   -0.0894 N   0  0  0  0  0  0  0  0  0  0  0  0
    1.8832    0.7143    0.0390 C   0  0  1  0  0  0  0  0  0  0  0  0
    2.2499    1.2342   -1.3632 C   0  0  0  0  0  0  0  0  0  0  0  0
    3.7708    1.2016   -1.4145 C   0  0  0  0  0  0  0  0  0  0  0  0
    4.1778    1.2392    0.0446 C   0  0  0  0  0  0  0  0  0  0  0  0
    0.9258   -0.4580   -0.0043 C   0  0  0  0  0  0  0  0  0  0  0  0
   -0.4731   -0.3406   -0.0029 C   0  0  0  0  0  0  0  0  0  0  0  0
    3.1658    0.4880    2.1133 C   0  0  0  0  0  0  0  0  0  0  0  0
   -1.2370   -1.5065   -0.0452 C   0  0  0  0  0  0  0  0  0  0  0  0
   -1.3833    0.7630    0.0339 C   0  0  0  0  0  0  0  0  0  0  0  0
    1.4350   -1.7490   -0.0483 C   0  0  0  0  0  0  0  0  0  0  0  0
   -2.6758    0.2377    0.0135 C   0  0  0  0  0  0  0  0  0  0  0  0
   -0.6580   -2.7681   -0.0885 C   0  0  0  0  0  0  0  0  0  0  0  0
   -1.2252    2.1639    0.0828 C   0  0  0  0  0  0  0  0  0  0  0  0
   -3.8205    1.0428    0.0394 C   0  0  0  0  0  0  0  0  0  0  0  0
   -1.4461   -4.0314   -0.1340 C   0  0  0  0  0  0  0  0  0  0  0  0
   -2.3604    2.9819    0.1092 C   0  0  0  0  0  0  0  0  0  0  0  0
   -3.6378    2.4274    0.0876 C   0  0  0  0  0  0  0  0  0  0  0  0
    1.4384    1.5338    0.6111 H   0  0  0  0  0  0  0  0  0  0  0  0
    1.9014    2.2681   -1.4749 H   0  0  0  0  0  0  0  0  0  0  0  0
    1.8214    0.6472   -2.1829 H   0  0  0  0  0  0  0  0  0  0  0  0
    4.1080    0.2681   -1.8819 H   0  0  0  0  0  0  0  0  0  0  0  0
    4.1835    2.0373   -1.9872 H   0  0  0  0  0  0  0  0  0  0  0  0
    5.1954    0.8634    0.1891 H   0  0  0  0  0  0  0  0  0  0  0  0
    4.1189    2.2658    0.4282 H   0  0  0  0  0  0  0  0  0  0  0  0
    4.1397    0.2006    2.5247 H   0  0  0  0  0  0  0  0  0  0  0  0
    2.4250   -0.1865    2.5556 H   0  0  0  0  0  0  0  0  0  0  0  0
    2.9422    1.5080    2.4461 H   0  0  0  0  0  0  0  0  0  0  0  0
    2.5020   -1.9492   -0.0738 H   0  0  0  0  0  0  0  0  0  0  0  0
   -3.3393   -1.7731   -0.0579 H   0  0  0  0  0  0  0  0  0  0  0  0
   -0.2504    2.6375    0.0869 H   0  0  0  0  0  0  0  0  0  0  0  0
   -4.8160    0.6117    0.0224 H   0  0  0  0  0  0  0  0  0  0  0  0
   -0.7882   -4.9058   -0.1654 H   0  0  0  0  0  0  0  0  0  0  0  0
   -2.0805   -4.1148    0.7539 H   0  0  0  0  0  0  0  0  0  0  0  0
   -2.0805   -4.0508   -1.0256 H   0  0  0  0  0  0  0  0  0  0  0  0
   -2.2425    4.0617    0.1435 H   0  0  0  0  0  0  0  0  0  0  0  0
   -4.5067    3.0804    0.1078 H   0  0  0  0  0  0  0  0  0  0  0  0
  1  4  1  0  0  0  0
  1  7  1  0  0  0  0
  1 10  1  0  0  0  0
  2 11  1  0  0  0  0
  2 14  1  0  0  0  0
  2 32  1  0  0  0  0
  3 13  1  0  0  0  0
  3 15  2  0  0  0  0
  4  5  1  0  0  0  0
  4  8  1  0  0  0  0
  4 21  1  0  0  0  0
  5  6  1  0  0  0  0
  5 22  1  0  0  0  0
  5 23  1  0  0  0  0
  6  7  1  0  0  0  0
  6 24  1  0  0  0  0
  6 25  1  0  0  0  0
  7 26  1  0  0  0  0
  7 27  1  0  0  0  0
  8  9  1  0  0  0  0
  8 13  2  0  0  0  0
  9 11  2  0  0  0  0
  9 12  1  0  0  0  0
 10 28  1  0  0  0  0
 10 29  1  0  0  0  0
 10 30  1  0  0  0  0
 11 15  1  0  0  0  0
 12 14  1  0  0  0  0
 12 16  2  0  0  0  0
 13 31  1  0  0  0  0
 14 17  2  0  0  0  0
 15 18  1  0  0  0  0
 16 19  1  0  0  0  0
 16 33  1  0  0  0  0
 17 20  1  0  0  0  0
 17 34  1  0  0  0  0
 18 35  1  0  0  0  0
 18 36  1  0  0  0  0
 18 37  1  0  0  0  0
 19 20  2  0  0  0  0
 19 38  1  0  0  0  0
 20 39  1  0  0  0  0
M  END
> <PUBCHEM_COMPOUND_CID>
5281361

> <PUBCHEM_CONFORMER_RMSD>
0.6

> <PUBCHEM_CONFORMER_DIVERSEORDER>
1
3
2

> <PUBCHEM_MMFF94_PARTIAL_CHARGES>
22
1 -0.81
10 0.27
11 -0.15
13 0.16
14 -0.15
15 0.17
16 -0.15
17 -0.15
18 0.14
19 -0.15
2 0.03
20 -0.15
3 -0.62
31 0.15
32 0.27
33 0.15
34 0.15
38 0.15
39 0.15
4 0.41
7 0.27
8 -0.14

> <PUBCHEM_EFFECTIVE_ROTOR_COUNT>
2

> <PUBCHEM_PHARMACOPHORE_FEATURES>
8
1 1 cation
1 2 cation
1 2 donor
1 3 acceptor
5 1 4 5 6 7 rings
5 2 9 11 12 14 rings
6 12 14 16 17 19 20 rings
6 3 8 9 11 13 15 rings

> <PUBCHEM_HEAVY_ATOM_COUNT>
20

> <PUBCHEM_ATOM_DEF_STEREO_COUNT>
1

> <PUBCHEM_ATOM_UDEF_STEREO_COUNT>
0

> <PUBCHEM_BOND_DEF_STEREO_COUNT>
0

> <PUBCHEM_BOND_UDEF_STEREO_COUNT>
0

> <PUBCHEM_ISOTOPIC_ATOM_COUNT>
0

> <PUBCHEM_COMPONENT_COUNT>
1

> <PUBCHEM_CACTVS_TAUTO_COUNT>
2

> <PUBCHEM_CONFORMER_ID>
0050965100000001

> <PUBCHEM_MMFF94_ENERGY>
46.3645

> <PUBCHEM_FEATURE_SELFOVERLAP>
40.781

> <PUBCHEM_SHAPE_FINGERPRINT>
10090160 65 18342746256112934653
10319926 262 18117860823955440000
10411042 1 17617657653156396414
10498660 4 18410290315584200125
10967382 1 18194400215554028317
1100329 8 18050844412983427387
11582403 64 16592012565406658104
11640471 11 17702650061023450068
11725454 13 16879948220934011024
12173636 292 18410294726599756021
12553582 1 17834955269803502931
12788726 201 17984140349282155042
13140716 1 17977663104897221603
13538477 17 18199757942569129576
138480 1 17474104783578200183
13878862 14 17474955806233343825
13965767 371 18058459853624062580
15042514 8 18268142055163350691
15669948 3 18269556039990405782
15842332 3 17916877803104591514
16110190 28 18053693501389126290
16752209 62 18338802208307457894
16945 1 18337672997112835247
18186145 218 17748821921322220328
19591789 44 18337944718176846151
20510252 161 18262792965189883561
20715895 44 17555472973894299133
21524375 3 18272369801656733865
22149856 69 18193824055315927097
2255824 54 17979348982376541215
23184049 29 17905893569699232316
2334 1 18338233868423268181
23366157 5 17913202345727911035
23402539 116 18189905218778047535
23419403 2 16098306826018321642
23526113 38 17603850188514420644
23557571 272 18043246838916639936
23558518 356 18341898493208107107
23559900 14 17979640366196030225
2748010 2 18339349877200094583
3071541 12 17977098295022585207
3091708 16 9340179191750774419
350125 39 18266451199310129635
352729 6 18339920403291060375
458136 41 18120073229616714729
474 4 18198058282202659881
5939293 188 17258220095085716541
7097593 13 17986696911569560666
7364860 26 17975697512845239947
77492 1 17702393853523496242
7808743 9 18338795598928471448
81228 2 18046061554065688347
84936 182 17971478652232861385
9981440 41 18340208595670462609

> <PUBCHEM_SHAPE_MULTIPOLES>
396.65
6.54
3.89
1.06
2.51
3.41
-0.25
-5.17
-0.16
-2.98
0.28
1.39
-0.36
-0.44

> <PUBCHEM_SHAPE_SELFOVERLAP>
882.159

> <PUBCHEM_SHAPE_VOLUME>
214.2

> <PUBCHEM_COORDINATE_TYPE>
2
5
10

$$$$

