99211
  -OEChem-07051212453D

 43 44  0     1  0  0  0  0  0999 V2000
   -0.3296    0.2712    0.5740 O   0  0  0  0  0  0  0  0  0  0  0  0
    1.7215   -0.8410    0.5796 O   0  0  0  0  0  0  0  0  0  0  0  0
   -2.7073    1.3114   -0.7528 O   0  0  0  0  0  0  0  0  0  0  0  0
    0.9448    2.5701   -0.4745 O   0  0  0  0  0  0  0  0  0  0  0  0
    3.7875    2.6966    0.2896 O   0  0  0  0  0  0  0  0  0  0  0  0
    5.1131    0.2029   -0.3266 O   0  0  0  0  0  0  0  0  0  0  0  0
   -2.5495   -2.4499    0.5382 O   0  0  0  0  0  0  0  0  0  0  0  0
   -4.2324   -0.3318    2.0650 O   0  0  0  0  0  0  0  0  0  0  0  0
    2.8737   -3.3251    0.3397 O   0  0  0  0  0  0  0  0  0  0  0  0
   -1.6907   -1.4643   -2.9110 O   0  0  0  0  0  0  0  0  0  0  0  0
   -4.1056    2.0324    0.8641 O   0  0  0  0  0  0  0  0  0  0  0  0
    0.9724    0.2199   -0.0085 C   0  0  2  0  0  0  0  0  0  0  0  0
    1.6554    1.5636    0.2463 C   0  0  1  0  0  0  0  0  0  0  0  0
   -1.2522   -0.5624   -0.1383 C   0  0  1  0  0  0  0  0  0  0  0  0
    3.1128    1.5429   -0.2145 C   0  0  2  0  0  0  0  0  0  0  0  0
    3.8406    0.3039    0.3073 C   0  0  1  0  0  0  0  0  0  0  0  0
    3.0307   -0.9627    0.0208 C   0  0  1  0  0  0  0  0  0  0  0  0
   -2.2952   -1.0763    0.8533 C   0  0  1  0  0  0  0  0  0  0  0  0
   -1.8523    0.2662   -1.2743 C   0  0  1  0  0  0  0  0  0  0  0  0
   -3.6225   -0.3280    0.7792 C   0  0  2  0  0  0  0  0  0  0  0  0
    3.6797   -2.1991    0.6348 C   0  0  0  0  0  0  0  0  0  0  0  0
   -2.5975   -0.5491   -2.3238 C   0  0  0  0  0  0  0  0  0  0  0  0
   -3.4974    1.1085    0.3325 C   0  0  0  0  0  0  0  0  0  0  0  0
    0.9020    0.0552   -1.0924 H   0  0  0  0  0  0  0  0  0  0  0  0
    1.6028    1.8315    1.3089 H   0  0  0  0  0  0  0  0  0  0  0  0
   -0.7011   -1.4219   -0.5439 H   0  0  0  0  0  0  0  0  0  0  0  0
    3.1797    1.5968   -1.3082 H   0  0  0  0  0  0  0  0  0  0  0  0
    4.0146    0.4079    1.3859 H   0  0  0  0  0  0  0  0  0  0  0  0
    2.9363   -1.1316   -1.0606 H   0  0  0  0  0  0  0  0  0  0  0  0
   -1.8986   -1.0645    1.8751 H   0  0  0  0  0  0  0  0  0  0  0  0
   -1.0454    0.8016   -1.7874 H   0  0  0  0  0  0  0  0  0  0  0  0
   -4.3291   -0.8269    0.1071 H   0  0  0  0  0  0  0  0  0  0  0  0
    3.7504   -2.1154    1.7245 H   0  0  0  0  0  0  0  0  0  0  0  0
    4.6800   -2.3754    0.2292 H   0  0  0  0  0  0  0  0  0  0  0  0
   -2.9987    0.1052   -3.1057 H   0  0  0  0  0  0  0  0  0  0  0  0
   -3.4476   -1.1013   -1.9194 H   0  0  0  0  0  0  0  0  0  0  0  0
    0.0236    2.5556   -0.1628 H   0  0  0  0  0  0  0  0  0  0  0  0
    3.3009    3.4776   -0.0254 H   0  0  0  0  0  0  0  0  0  0  0  0
    5.5936    1.0291   -0.1476 H   0  0  0  0  0  0  0  0  0  0  0  0
   -2.8647   -2.5053   -0.3788 H   0  0  0  0  0  0  0  0  0  0  0  0
   -5.1306    0.0281    1.9658 H   0  0  0  0  0  0  0  0  0  0  0  0
    1.9867   -3.1549    0.7005 H   0  0  0  0  0  0  0  0  0  0  0  0
   -0.9747   -0.9506   -3.3221 H   0  0  0  0  0  0  0  0  0  0  0  0
  1 12  1  0  0  0  0
  1 14  1  0  0  0  0
  2 12  1  0  0  0  0
  2 17  1  0  0  0  0
  3 19  1  0  0  0  0
  3 23  1  0  0  0  0
  4 13  1  0  0  0  0
  4 37  1  0  0  0  0
  5 15  1  0  0  0  0
  5 38  1  0  0  0  0
  6 16  1  0  0  0  0
  6 39  1  0  0  0  0
  7 18  1  0  0  0  0
  7 40  1  0  0  0  0
  8 20  1  0  0  0  0
  8 41  1  0  0  0  0
  9 21  1  0  0  0  0
  9 42  1  0  0  0  0
 10 22  1  0  0  0  0
 10 43  1  0  0  0  0
 11 23  2  0  0  0  0
 12 13  1  0  0  0  0
 12 24  1  0  0  0  0
 13 15  1  0  0  0  0
 13 25  1  0  0  0  0
 14 18  1  0  0  0  0
 14 19  1  0  0  0  0
 14 26  1  0  0  0  0
 15 16  1  0  0  0  0
 15 27  1  0  0  0  0
 16 17  1  0  0  0  0
 16 28  1  0  0  0  0
 17 21  1  0  0  0  0
 17 29  1  0  0  0  0
 18 20  1  0  0  0  0
 18 30  1  0  0  0  0
 19 22  1  0  0  0  0
 19 31  1  0  0  0  0
 20 23  1  0  0  0  0
 20 32  1  0  0  0  0
 21 33  1  0  0  0  0
 21 34  1  0  0  0  0
 22 35  1  0  0  0  0
 22 36  1  0  0  0  0
M  END
> <PUBCHEM_COMPOUND_CID>
99211

> <PUBCHEM_CONFORMER_RMSD>
0.8

> <PUBCHEM_CONFORMER_DIVERSEORDER>
1
36
38
117
56
71
94
57
116
88
52
101
33
13
49
8
78
110
83
92
114
34
46
67
50
81
23
12
74
7
115
103
54
70
16
24
28
17
89
51
108
87
77
19
75
37
109
104
31
85
63
113
4
44
11
42
98
55
107
91
30
2
15
9
69
48
39
76
111
6
65
27
18
26
35
14
43
3
66
53
5
97
68
61
80
41
32
59
90
105
100
86
79
40
25
102
60
93
29
106
96
62
112
72
64
10
21
82
99
95
47
22
84
20
45
73
58

> <PUBCHEM_MMFF94_PARTIAL_CHARGES>
30
1 -0.56
10 -0.68
11 -0.57
12 0.56
13 0.28
14 0.28
15 0.28
16 0.28
17 0.28
18 0.28
19 0.28
2 -0.56
20 0.34
21 0.28
22 0.28
23 0.66
3 -0.43
37 0.4
38 0.4
39 0.4
4 -0.68
40 0.4
41 0.4
42 0.4
43 0.4
5 -0.68
6 -0.68
7 -0.68
8 -0.68
9 -0.68

> <PUBCHEM_EFFECTIVE_ROTOR_COUNT>
6.2

> <PUBCHEM_PHARMACOPHORE_FEATURES>
19
1 1 acceptor
1 10 acceptor
1 10 donor
1 11 acceptor
1 2 acceptor
1 4 acceptor
1 4 donor
1 5 acceptor
1 5 donor
1 6 acceptor
1 6 donor
1 7 acceptor
1 7 donor
1 8 acceptor
1 8 donor
1 9 acceptor
1 9 donor
6 2 12 13 15 16 17 rings
6 3 14 18 19 20 23 rings

> <PUBCHEM_HEAVY_ATOM_COUNT>
23

> <PUBCHEM_ATOM_DEF_STEREO_COUNT>
9

> <PUBCHEM_ATOM_UDEF_STEREO_COUNT>
0

> <PUBCHEM_BOND_DEF_STEREO_COUNT>
0

> <PUBCHEM_BOND_UDEF_STEREO_COUNT>
0

> <PUBCHEM_ISOTOPIC_ATOM_COUNT>
0

> <PUBCHEM_COMPONENT_COUNT>
1

> <PUBCHEM_CACTVS_TAUTO_COUNT>
1

> <PUBCHEM_CONFORMER_ID>
0001838B00000001

> <PUBCHEM_MMFF94_ENERGY>
62.5518

> <PUBCHEM_FEATURE_SELFOVERLAP>
96.485

> <PUBCHEM_SHAPE_FINGERPRINT>
1100329 8 15965412227070851723
11370993 144 18201147871258759577
11552529 35 18262792952779988867
12173636 292 18411136892529823855
12553582 1 18196100069400644722
12788726 201 17823691061414286592
13224815 77 18129672902240132956
13533116 47 18408326562579711003
13583140 156 18411699889659424165
14178342 30 18266188223121560250
15442244 35 18339077223859382840
16752209 62 16516264941404956367
18186145 218 17561088042057821906
20645477 70 18271260377540078174
21065199 12 18343576335314422985
212916 134 15936687176963837755
23557571 272 16917356938920281926
23559900 14 18341897372310560248
23598288 3 17822854174198737903
23598291 2 18114473274967098918
5104073 3 18272085023887259225
6049 1 17561088041757096206
6287921 2 17916573229393174556
633830 44 18263639585534086620
7097593 13 18411975836907593369
7615 1 17823154370447268118
9709674 26 18272363144563407778

> <PUBCHEM_SHAPE_MULTIPOLES>
408.77
9.01
2.7
1.58
2.89
0.45
1.13
-0.52
-2.01
2.12
-0.29
-2.34
0.6
-0.56

> <PUBCHEM_SHAPE_SELFOVERLAP>
841.37

> <PUBCHEM_SHAPE_VOLUME>
230.2

> <PUBCHEM_COORDINATE_TYPE>
2
5
10

$$$$

