443602
  -OEChem-07051213022D

 61 63  0     1  0  0  0  0  0999 V2000
    6.3301   -0.2073    0.0000 O   0  0  0  0  0  0  0  0  0  0  0  0
    8.9282    2.2927    0.0000 O   0  0  0  0  0  0  0  0  0  0  0  0
    7.1962    1.2927    0.0000 N   0  0  0  0  0  0  0  0  0  0  0  0
    9.7942    0.7927    0.0000 N   0  0  0  0  0  0  0  0  0  0  0  0
    5.4641    2.2927    0.0000 N   0  0  0  0  0  0  0  0  0  0  0  0
    6.3301   -2.2073    0.0000 N   0  0  0  0  0  0  0  0  0  0  0  0
    8.0622    0.7927    0.0000 C   0  0  1  0  0  0  0  0  0  0  0  0
    8.0622   -0.2073    0.0000 C   0  0  0  0  0  0  0  0  0  0  0  0
    7.1962   -0.7073    0.0000 C   0  0  0  0  0  0  0  0  0  0  0  0
    5.4641    1.2927    0.0000 C   0  0  2  0  0  0  0  0  0  0  0  0
    6.3301    0.7927    0.0000 C   0  0  0  0  0  0  0  0  0  0  0  0
    8.9282    1.2927    0.0000 C   0  0  0  0  0  0  0  0  0  0  0  0
    4.5981    0.7927    0.0000 C   0  0  0  0  0  0  0  0  0  0  0  0
    7.1962    2.2927    0.0000 C   0  0  0  0  0  0  0  0  0  0  0  0
    7.1962   -1.7073    0.0000 C   0  0  0  0  0  0  0  0  0  0  0  0
    3.7320    1.2927    0.0000 C   0  0  0  0  0  0  0  0  0  0  0  0
   10.6603    1.2927    0.0000 C   0  0  0  0  0  0  0  0  0  0  0  0
   11.5263    0.7927    0.0000 C   0  0  0  0  0  0  0  0  0  0  0  0
    3.7320    2.2927    0.0000 C   0  0  0  0  0  0  0  0  0  0  0  0
    2.8660    0.7927    0.0000 C   0  0  0  0  0  0  0  0  0  0  0  0
   12.3923    1.2927    0.0000 C   0  0  0  0  0  0  0  0  0  0  0  0
   10.6603    2.2927    0.0000 C   0  0  0  0  0  0  0  0  0  0  0  0
   12.3923    2.2927    0.0000 C   0  0  0  0  0  0  0  0  0  0  0  0
   11.5263    2.7927    0.0000 C   0  0  0  0  0  0  0  0  0  0  0  0
    2.8660    2.7927    0.0000 C   0  0  0  0  0  0  0  0  0  0  0  0
    2.0000    1.2927    0.0000 C   0  0  0  0  0  0  0  0  0  0  0  0
   13.2862    0.7580    0.0000 C   0  0  0  0  0  0  0  0  0  0  0  0
   13.2862    2.8273    0.0000 C   0  0  0  0  0  0  0  0  0  0  0  0
    2.0000    2.2927    0.0000 C   0  0  0  0  0  0  0  0  0  0  0  0
   14.1923    1.2718    0.0000 C   0  0  0  0  0  0  0  0  0  0  0  0
   14.1923    2.3135    0.0000 C   0  0  0  0  0  0  0  0  0  0  0  0
    8.0622    1.4127    0.0000 H   0  0  0  0  0  0  0  0  0  0  0  0
    8.2742   -0.7899    0.0000 H   0  0  0  0  0  0  0  0  0  0  0  0
    8.6728   -0.0997    0.0000 H   0  0  0  0  0  0  0  0  0  0  0  0
    6.9841   -0.1247    0.0000 H   0  0  0  0  0  0  0  0  0  0  0  0
    6.5856   -0.8150    0.0000 H   0  0  0  0  0  0  0  0  0  0  0  0
    6.0010    1.6027    0.0000 H   0  0  0  0  0  0  0  0  0  0  0  0
    4.1996    0.3177    0.0000 H   0  0  0  0  0  0  0  0  0  0  0  0
    4.9966    0.3177    0.0000 H   0  0  0  0  0  0  0  0  0  0  0  0
    7.8162    2.2927    0.0000 H   0  0  0  0  0  0  0  0  0  0  0  0
    7.1962    2.9127    0.0000 H   0  0  0  0  0  0  0  0  0  0  0  0
    6.5762    2.2927    0.0000 H   0  0  0  0  0  0  0  0  0  0  0  0
    7.4082   -2.2899    0.0000 H   0  0  0  0  0  0  0  0  0  0  0  0
    7.8067   -1.5997    0.0000 H   0  0  0  0  0  0  0  0  0  0  0  0
    9.7942    0.1727    0.0000 H   0  0  0  0  0  0  0  0  0  0  0  0
    4.9272    2.6027    0.0000 H   0  0  0  0  0  0  0  0  0  0  0  0
    6.0010    2.6027    0.0000 H   0  0  0  0  0  0  0  0  0  0  0  0
    6.3301   -2.8273    0.0000 H   0  0  0  0  0  0  0  0  0  0  0  0
    5.7932   -1.8973    0.0000 H   0  0  0  0  0  0  0  0  0  0  0  0
   11.5263    0.1727    0.0000 H   0  0  0  0  0  0  0  0  0  0  0  0
    4.2690    2.6027    0.0000 H   0  0  0  0  0  0  0  0  0  0  0  0
    2.8660    0.1727    0.0000 H   0  0  0  0  0  0  0  0  0  0  0  0
   10.1233    2.6027    0.0000 H   0  0  0  0  0  0  0  0  0  0  0  0
   11.5263    3.4127    0.0000 H   0  0  0  0  0  0  0  0  0  0  0  0
    2.8660    3.4127    0.0000 H   0  0  0  0  0  0  0  0  0  0  0  0
    1.4631    0.9827    0.0000 H   0  0  0  0  0  0  0  0  0  0  0  0
   13.2791    0.1380    0.0000 H   0  0  0  0  0  0  0  0  0  0  0  0
   13.2791    3.4473    0.0000 H   0  0  0  0  0  0  0  0  0  0  0  0
    1.4631    2.6027    0.0000 H   0  0  0  0  0  0  0  0  0  0  0  0
   14.7281    0.9598    0.0000 H   0  0  0  0  0  0  0  0  0  0  0  0
   14.7281    2.6256    0.0000 H   0  0  0  0  0  0  0  0  0  0  0  0
  1 11  2  0  0  0  0
  2 12  2  0  0  0  0
  7  3  1  6  0  0  0
  3 11  1  0  0  0  0
  3 14  1  0  0  0  0
  4 12  1  0  0  0  0
  4 17  1  0  0  0  0
  4 45  1  0  0  0  0
 10  5  1  6  0  0  0
  5 46  1  0  0  0  0
  5 47  1  0  0  0  0
  6 15  1  0  0  0  0
  6 48  1  0  0  0  0
  6 49  1  0  0  0  0
  7  8  1  0  0  0  0
  7 12  1  0  0  0  0
  7 32  1  0  0  0  0
  8  9  1  0  0  0  0
  8 33  1  0  0  0  0
  8 34  1  0  0  0  0
  9 15  1  0  0  0  0
  9 35  1  0  0  0  0
  9 36  1  0  0  0  0
 10 11  1  0  0  0  0
 10 13  1  0  0  0  0
 10 37  1  0  0  0  0
 13 16  1  0  0  0  0
 13 38  1  0  0  0  0
 13 39  1  0  0  0  0
 14 40  1  0  0  0  0
 14 41  1  0  0  0  0
 14 42  1  0  0  0  0
 15 43  1  0  0  0  0
 15 44  1  0  0  0  0
 16 19  2  0  0  0  0
 16 20  1  0  0  0  0
 17 18  2  0  0  0  0
 17 22  1  0  0  0  0
 18 21  1  0  0  0  0
 18 50  1  0  0  0  0
 19 25  1  0  0  0  0
 19 51  1  0  0  0  0
 20 26  2  0  0  0  0
 20 52  1  0  0  0  0
 21 23  1  0  0  0  0
 21 27  2  0  0  0  0
 22 24  2  0  0  0  0
 22 53  1  0  0  0  0
 23 24  1  0  0  0  0
 23 28  2  0  0  0  0
 24 54  1  0  0  0  0
 25 29  2  0  0  0  0
 25 55  1  0  0  0  0
 26 29  1  0  0  0  0
 26 56  1  0  0  0  0
 27 30  1  0  0  0  0
 27 57  1  0  0  0  0
 28 31  1  0  0  0  0
 28 58  1  0  0  0  0
 29 59  1  0  0  0  0
 30 31  2  0  0  0  0
 30 60  1  0  0  0  0
 31 61  1  0  0  0  0
M  END
> <PUBCHEM_COMPOUND_CID>
443602

> <PUBCHEM_COMPOUND_CANONICALIZED>
1

> <PUBCHEM_CACTVS_COMPLEXITY>
578

> <PUBCHEM_CACTVS_HBOND_ACCEPTOR>
4

> <PUBCHEM_CACTVS_HBOND_DONOR>
3

> <PUBCHEM_CACTVS_ROTATABLE_BOND>
9

> <PUBCHEM_CACTVS_SUBSKEYS>
AAADceB7sAAAAAAAAAAAAAAAAAAAAAAAAAAwYMAAAAAAAADBVAAAHgAQAAAADCjBmAQywMPAAACIAiVSUACCAAAhAgAIiIGIZIgIYDLAkbGUIAhglgDIyAcYiYCOiAAAQAAQAAAQAACAACAAAAAAAAAAAA==

> <PUBCHEM_IUPAC_OPENEYE_NAME>
(2S)-5-amino-2-[[(2S)-2-amino-3-phenyl-propanoyl]-methyl-amino]-N-(2-naphthyl)pentanamide

> <PUBCHEM_IUPAC_CAS_NAME>
(2S)-5-amino-2-[[(2S)-2-amino-1-oxo-3-phenylpropyl]-methylamino]-N-(2-naphthalenyl)pentanamide

> <PUBCHEM_IUPAC_NAME>
(2S)-5-amino-2-[[(2S)-2-amino-3-phenylpropanoyl]-methylamino]-N-naphthalen-2-ylpentanamide

> <PUBCHEM_IUPAC_SYSTEMATIC_NAME>
(2S)-5-azanyl-2-[[(2S)-2-azanyl-3-phenyl-propanoyl]-methyl-amino]-N-naphthalen-2-yl-pentanamide

> <PUBCHEM_IUPAC_TRADITIONAL_NAME>
(2S)-5-amino-2-[[(2S)-2-amino-3-phenyl-propanoyl]-methyl-amino]-N-(2-naphthyl)valeramide

> <PUBCHEM_IUPAC_INCHI>
InChI=1S/C25H30N4O2/c1-29(25(31)22(27)16-18-8-3-2-4-9-18)23(12-7-15-26)24(30)28-21-14-13-19-10-5-6-11-20(19)17-21/h2-6,8-11,13-14,17,22-23H,7,12,15-16,26-27H2,1H3,(H,28,30)/t22-,23-/m0/s1

> <PUBCHEM_IUPAC_INCHIKEY>
WTQHFOVGYYYXQG-GOTSBHOMSA-N

> <PUBCHEM_XLOGP3_AA>
2.8

> <PUBCHEM_EXACT_MASS>
418.236876

> <PUBCHEM_MOLECULAR_FORMULA>
C25H30N4O2

> <PUBCHEM_MOLECULAR_WEIGHT>
418.5313

> <PUBCHEM_OPENEYE_CAN_SMILES>
CN(C(CCCN)C(=O)NC1=CC2=CC=CC=C2C=C1)C(=O)C(CC3=CC=CC=C3)N

> <PUBCHEM_OPENEYE_ISO_SMILES>
CN([C@@H](CCCN)C(=O)NC1=CC2=CC=CC=C2C=C1)C(=O)[C@H](CC3=CC=CC=C3)N

> <PUBCHEM_CACTVS_TPSA>
101

> <PUBCHEM_MONOISOTOPIC_WEIGHT>
418.236876

> <PUBCHEM_TOTAL_CHARGE>
0

> <PUBCHEM_HEAVY_ATOM_COUNT>
31

> <PUBCHEM_ATOM_DEF_STEREO_COUNT>
2

> <PUBCHEM_ATOM_UDEF_STEREO_COUNT>
0

> <PUBCHEM_BOND_DEF_STEREO_COUNT>
0

> <PUBCHEM_BOND_UDEF_STEREO_COUNT>
0

> <PUBCHEM_ISOTOPIC_ATOM_COUNT>
0

> <PUBCHEM_COMPONENT_COUNT>
1

> <PUBCHEM_CACTVS_TAUTO_COUNT>
3

> <PUBCHEM_COORDINATE_TYPE>
1
5
255

> <PUBCHEM_BONDANNOTATIONS>
16  19  8
16  20  8
17  18  8
17  22  8
18  21  8
19  25  8
20  26  8
21  23  8
21  27  8
22  24  8
23  24  8
23  28  8
25  29  8
26  29  8
27  30  8
28  31  8
7  3  6
30  31  8
10  5  6

$$$$

