9778
  -OEChem-06261204033D

 23 22  0     0  0  0  0  0  0999 V2000
   -0.7478    1.8121    0.7805 F   0  0  0  0  0  0  0  0  0  0  0  0
    0.8502    0.8755    1.9198 F   0  0  0  0  0  0  0  0  0  0  0  0
    0.0508   -1.6062    1.0147 F   0  0  0  0  0  0  0  0  0  0  0  0
   -1.4545   -0.4888    2.1235 F   0  0  0  0  0  0  0  0  0  0  0  0
    1.6025    2.0129   -0.3951 F   0  0  0  0  0  0  0  0  0  0  0  0
    0.1735    0.8275   -1.5269 F   0  0  0  0  0  0  0  0  0  0  0  0
   -1.0973   -1.0041   -1.3331 F   0  0  0  0  0  0  0  0  0  0  0  0
   -2.4147   -1.9552    0.1142 F   0  0  0  0  0  0  0  0  0  0  0  0
    1.4158   -1.4779   -0.7937 F   0  0  0  0  0  0  0  0  0  0  0  0
    2.6679   -0.0112   -1.7919 F   0  0  0  0  0  0  0  0  0  0  0  0
   -2.2621    1.4554   -0.7275 F   0  0  0  0  0  0  0  0  0  0  0  0
   -3.6653   -0.0740   -1.4063 F   0  0  0  0  0  0  0  0  0  0  0  0
   -3.5664    0.4485    0.7014 F   0  0  0  0  0  0  0  0  0  0  0  0
    3.9201   -1.3865    0.1602 F   0  0  0  0  0  0  0  0  0  0  0  0
    3.7777    0.7492    0.5558 F   0  0  0  0  0  0  0  0  0  0  0  0
    0.0786    0.7279    0.8135 C   0  0  0  0  0  0  0  0  0  0  0  0
   -0.7761   -0.5247    0.9473 C   0  0  0  0  0  0  0  0  0  0  0  0
    0.9689    0.8051   -0.4207 C   0  0  0  0  0  0  0  0  0  0  0  0
   -1.7711   -0.7880   -0.1734 C   0  0  0  0  0  0  0  0  0  0  0  0
    2.0189   -0.2748   -0.6233 C   0  0  0  0  0  0  0  0  0  0  0  0
   -2.8208    0.2681   -0.4125 C   0  0  0  0  0  0  0  0  0  0  0  0
    3.0512   -0.3908    0.4732 C   0  0  0  0  0  0  0  0  0  0  0  0
    2.6219   -0.6232    1.4501 H   0  0  0  0  0  0  0  0  0  0  0  0
  1 16  1  0  0  0  0
  2 16  1  0  0  0  0
  3 17  1  0  0  0  0
  4 17  1  0  0  0  0
  5 18  1  0  0  0  0
  6 18  1  0  0  0  0
  7 19  1  0  0  0  0
  8 19  1  0  0  0  0
  9 20  1  0  0  0  0
 10 20  1  0  0  0  0
 11 21  1  0  0  0  0
 12 21  1  0  0  0  0
 13 21  1  0  0  0  0
 14 22  1  0  0  0  0
 15 22  1  0  0  0  0
 16 17  1  0  0  0  0
 16 18  1  0  0  0  0
 17 19  1  0  0  0  0
 18 20  1  0  0  0  0
 19 21  1  0  0  0  0
 20 22  1  0  0  0  0
 22 23  1  0  0  0  0
M  END
> <PUBCHEM_COMPOUND_CID>
9778

> <PUBCHEM_CONFORMER_RMSD>
0.8

> <PUBCHEM_CONFORMER_DIVERSEORDER>
1
18
28
30
33
11
6
15
14
31
8
20
21
5
4
22
39
2
37
9
17
35
41
13
10
32
3
34
26
40
12
38
29
36
25
16
19
24
27
23
7

> <PUBCHEM_MMFF94_PARTIAL_CHARGES>
22
1 -0.34
10 -0.34
11 -0.34
12 -0.34
13 -0.34
14 -0.34
15 -0.34
16 0.68
17 0.68
18 0.68
19 0.68
2 -0.34
20 0.68
21 1.02
22 0.68
3 -0.34
4 -0.34
5 -0.34
6 -0.34
7 -0.34
8 -0.34
9 -0.34

> <PUBCHEM_EFFECTIVE_ROTOR_COUNT>
6

> <PUBCHEM_PHARMACOPHORE_FEATURES>
0

> <PUBCHEM_HEAVY_ATOM_COUNT>
22

> <PUBCHEM_ATOM_DEF_STEREO_COUNT>
0

> <PUBCHEM_ATOM_UDEF_STEREO_COUNT>
0

> <PUBCHEM_BOND_DEF_STEREO_COUNT>
0

> <PUBCHEM_BOND_UDEF_STEREO_COUNT>
0

> <PUBCHEM_ISOTOPIC_ATOM_COUNT>
0

> <PUBCHEM_COMPONENT_COUNT>
1

> <PUBCHEM_CACTVS_TAUTO_COUNT>
1

> <PUBCHEM_CONFORMER_ID>
0000263200000001

> <PUBCHEM_MMFF94_ENERGY>
14.0708

> <PUBCHEM_FEATURE_SELFOVERLAP>
0

> <PUBCHEM_SHAPE_FINGERPRINT>
10863032 1 18263930946887013932
10922523 26 17845938540661102862
10948715 1 18191872442511477405
12423570 1 12724263153309123345
12491281 212 18201146750013910101
12808571 1 15267058172698043365
13024252 1 17775277279277509971
13296908 3 17967806128951164486
13571099 22 18411140242551612654
13581323 91 17918270939596616865
13693222 15 14923937968427220710
14115302 16 18272367581221990894
14181834 199 17314525741857428328
144361 1 18411701027725329425
14943859 89 18273217504005478931
15142383 8 15502380007347362935
16945 1 18336815481043121005
17834072 14 17894917334139682696
18186145 218 18412822482188078924
19010151 120 17240207637848770034
200 152 16732988647647906974
20201158 50 18334859424119314678
20525323 117 16515395292005072890
21501502 16 18197774406027721677
22802520 49 18059849511524244657
23388829 49 14851893525415642600
23402539 116 18263938776570313652
23419403 2 17607565502265546376
23559900 14 18410862062421265442
2748010 2 18193271888721521235
296302 2 17530687593268615176
3286 77 18059298647413810439
528886 8 17847068799869995531
69090 78 18409174311487274623
81228 2 17460292555348833216

> <PUBCHEM_SHAPE_MULTIPOLES>
343.64
5.3
1.58
1.5
0.93
0.02
0.18
-0.54
-0.72
0.02
0.05
-0.14
0.03
0.12

> <PUBCHEM_SHAPE_SELFOVERLAP>
742.271

> <PUBCHEM_SHAPE_VOLUME>
184.6

> <PUBCHEM_COORDINATE_TYPE>
2
5
10

$$$$

