46173977
  -OEChem-07051213103D

 74 78  0     1  0  0  0  0  0999 V2000
    6.3039    1.2903   -0.9101 O   0  0  0  0  0  0  0  0  0  0  0  0
   -1.9184    1.0237    1.7140 O   0  0  0  0  0  0  0  0  0  0  0  0
    5.0007    2.3527   -2.4670 O   0  0  0  0  0  0  0  0  0  0  0  0
    0.2480    0.2512    3.4186 O   0  0  0  0  0  0  0  0  0  0  0  0
   -1.2567    3.5609   -2.3026 O   0  0  0  0  0  0  0  0  0  0  0  0
    0.0381   -2.3960   -1.7997 O   0  0  0  0  0  0  0  0  0  0  0  0
   -5.0547   -1.8610   -1.3377 O   0  0  0  0  0  0  0  0  0  0  0  0
   -0.2105   -4.1022    0.3803 O   0  0  0  0  0  0  0  0  0  0  0  0
   -7.4914   -0.6891   -0.6938 O   0  0  0  0  0  0  0  0  0  0  0  0
    3.9673    1.1054   -0.6560 C   0  0  1  0  0  0  0  0  0  0  0  0
    4.6542    0.0385    0.1896 C   0  0  2  0  0  0  0  0  0  0  0  0
    3.3459    2.2171    0.1777 C   0  0  0  0  0  0  0  0  0  0  0  0
   -1.7151    2.1264   -0.4473 C   0  0  1  0  0  0  0  0  0  0  0  0
    6.0688    0.5711    0.3053 C   0  0  0  0  0  0  0  0  0  0  0  0
    4.6369   -1.3221   -0.5128 C   0  0  0  0  0  0  0  0  0  0  0  0
   -0.4028    1.9352    0.2275 C   0  0  0  0  0  0  0  0  0  0  0  0
   -2.6429    1.8508    0.7602 C   0  0  1  0  0  0  0  0  0  0  0  0
    1.9552    1.8916    0.6104 C   0  0  0  0  0  0  0  0  0  0  0  0
    5.1110    1.6567   -1.4690 C   0  0  0  0  0  0  0  0  0  0  0  0
   -0.5990    1.2763    1.4336 C   0  0  0  0  0  0  0  0  0  0  0  0
    0.8755    2.2466   -0.2032 C   0  0  0  0  0  0  0  0  0  0  0  0
   -1.9348    3.5020   -1.0593 C   0  0  0  0  0  0  0  0  0  0  0  0
    1.7453    1.2228    1.8271 C   0  0  0  0  0  0  0  0  0  0  0  0
    0.4535    0.9033    2.2473 C   0  0  0  0  0  0  0  0  0  0  0  0
    3.3444   -2.0603   -0.2772 C   0  0  0  0  0  0  0  0  0  0  0  0
   -3.9352    1.1709    0.3700 C   0  0  0  0  0  0  0  0  0  0  0  0
    2.2727   -1.8874   -1.1531 C   0  0  0  0  0  0  0  0  0  0  0  0
    3.2201   -2.9173    0.8164 C   0  0  0  0  0  0  0  0  0  0  0  0
   -3.9050   -0.0446   -0.3134 C   0  0  0  0  0  0  0  0  0  0  0  0
   -5.1579    1.7586    0.6940 C   0  0  0  0  0  0  0  0  0  0  0  0
    1.0767   -2.5716   -0.9356 C   0  0  0  0  0  0  0  0  0  0  0  0
   -5.0976   -0.6727   -0.6726 C   0  0  0  0  0  0  0  0  0  0  0  0
    2.0240   -3.6012    1.0340 C   0  0  0  0  0  0  0  0  0  0  0  0
   -6.3505    1.1307    0.3346 C   0  0  0  0  0  0  0  0  0  0  0  0
    0.9523   -3.4285    0.1579 C   0  0  0  0  0  0  0  0  0  0  0  0
   -6.3203   -0.0850   -0.3487 C   0  0  0  0  0  0  0  0  0  0  0  0
    1.4026   -0.0909    4.1880 C   0  0  0  0  0  0  0  0  0  0  0  0
    0.2477   -1.5027   -2.8916 C   0  0  0  0  0  0  0  0  0  0  0  0
   -3.7642   -2.3933   -1.6304 C   0  0  0  0  0  0  0  0  0  0  0  0
   -1.1877   -3.4569    1.1947 C   0  0  0  0  0  0  0  0  0  0  0  0
    3.2398    0.6907   -1.3572 H   0  0  0  0  0  0  0  0  0  0  0  0
    4.2269   -0.0760    1.1904 H   0  0  0  0  0  0  0  0  0  0  0  0
    3.9652    2.4565    1.0525 H   0  0  0  0  0  0  0  0  0  0  0  0
    3.3197    3.1528   -0.3983 H   0  0  0  0  0  0  0  0  0  0  0  0
   -1.7893    1.3573   -1.2259 H   0  0  0  0  0  0  0  0  0  0  0  0
    6.1755    1.2735    1.1393 H   0  0  0  0  0  0  0  0  0  0  0  0
    6.8244   -0.2120    0.4168 H   0  0  0  0  0  0  0  0  0  0  0  0
    4.8241   -1.2271   -1.5905 H   0  0  0  0  0  0  0  0  0  0  0  0
    5.4547   -1.9508   -0.1354 H   0  0  0  0  0  0  0  0  0  0  0  0
   -2.8655    2.7907    1.2873 H   0  0  0  0  0  0  0  0  0  0  0  0
    1.0373    2.7413   -1.1550 H   0  0  0  0  0  0  0  0  0  0  0  0
   -2.9987    3.6701   -1.2559 H   0  0  0  0  0  0  0  0  0  0  0  0
   -1.5634    4.3053   -0.4140 H   0  0  0  0  0  0  0  0  0  0  0  0
    2.6239    0.9839    2.4167 H   0  0  0  0  0  0  0  0  0  0  0  0
    2.4296   -1.2318   -2.0013 H   0  0  0  0  0  0  0  0  0  0  0  0
    4.0465   -3.0583    1.5078 H   0  0  0  0  0  0  0  0  0  0  0  0
   -2.9298   -0.4703   -0.5225 H   0  0  0  0  0  0  0  0  0  0  0  0
   -5.1975    2.7055    1.2258 H   0  0  0  0  0  0  0  0  0  0  0  0
   -1.4166    4.4449   -2.6746 H   0  0  0  0  0  0  0  0  0  0  0  0
    1.9340   -4.2667    1.8883 H   0  0  0  0  0  0  0  0  0  0  0  0
   -7.2962    1.5996    0.5932 H   0  0  0  0  0  0  0  0  0  0  0  0
    2.0532   -0.7862    3.6465 H   0  0  0  0  0  0  0  0  0  0  0  0
    1.9392    0.8028    4.5238 H   0  0  0  0  0  0  0  0  0  0  0  0
    1.0511   -0.6115    5.0846 H   0  0  0  0  0  0  0  0  0  0  0  0
   -8.2334   -0.1393   -0.3885 H   0  0  0  0  0  0  0  0  0  0  0  0
   -0.6819   -1.4781   -3.4698 H   0  0  0  0  0  0  0  0  0  0  0  0
    1.0311   -1.8652   -3.5658 H   0  0  0  0  0  0  0  0  0  0  0  0
    0.4323   -0.4794   -2.5465 H   0  0  0  0  0  0  0  0  0  0  0  0
   -3.9184   -3.3326   -2.1717 H   0  0  0  0  0  0  0  0  0  0  0  0
   -3.2181   -2.6411   -0.7169 H   0  0  0  0  0  0  0  0  0  0  0  0
   -3.1947   -1.7349   -2.2950 H   0  0  0  0  0  0  0  0  0  0  0  0
   -2.1145   -4.0344    1.1436 H   0  0  0  0  0  0  0  0  0  0  0  0
   -1.3834   -2.4388    0.8432 H   0  0  0  0  0  0  0  0  0  0  0  0
   -0.8485   -3.4299    2.2350 H   0  0  0  0  0  0  0  0  0  0  0  0
  1 14  1  0  0  0  0
  1 19  1  0  0  0  0
  2 17  1  0  0  0  0
  2 20  1  0  0  0  0
  3 19  2  0  0  0  0
  4 24  1  0  0  0  0
  4 37  1  0  0  0  0
  5 22  1  0  0  0  0
  5 59  1  0  0  0  0
  6 31  1  0  0  0  0
  6 38  1  0  0  0  0
  7 32  1  0  0  0  0
  7 39  1  0  0  0  0
  8 35  1  0  0  0  0
  8 40  1  0  0  0  0
  9 36  1  0  0  0  0
  9 65  1  0  0  0  0
 10 11  1  0  0  0  0
 10 12  1  0  0  0  0
 10 19  1  0  0  0  0
 10 41  1  0  0  0  0
 11 14  1  0  0  0  0
 11 15  1  0  0  0  0
 11 42  1  0  0  0  0
 12 18  1  0  0  0  0
 12 43  1  0  0  0  0
 12 44  1  0  0  0  0
 13 16  1  0  0  0  0
 13 17  1  0  0  0  0
 13 22  1  0  0  0  0
 13 45  1  0  0  0  0
 14 46  1  0  0  0  0
 14 47  1  0  0  0  0
 15 25  1  0  0  0  0
 15 48  1  0  0  0  0
 15 49  1  0  0  0  0
 16 20  2  0  0  0  0
 16 21  1  0  0  0  0
 17 26  1  0  0  0  0
 17 50  1  0  0  0  0
 18 21  2  0  0  0  0
 18 23  1  0  0  0  0
 20 24  1  0  0  0  0
 21 51  1  0  0  0  0
 22 52  1  0  0  0  0
 22 53  1  0  0  0  0
 23 24  2  0  0  0  0
 23 54  1  0  0  0  0
 25 27  2  0  0  0  0
 25 28  1  0  0  0  0
 26 29  2  0  0  0  0
 26 30  1  0  0  0  0
 27 31  1  0  0  0  0
 27 55  1  0  0  0  0
 28 33  2  0  0  0  0
 28 56  1  0  0  0  0
 29 32  1  0  0  0  0
 29 57  1  0  0  0  0
 30 34  2  0  0  0  0
 30 58  1  0  0  0  0
 31 35  2  0  0  0  0
 32 36  2  0  0  0  0
 33 35  1  0  0  0  0
 33 60  1  0  0  0  0
 34 36  1  0  0  0  0
 34 61  1  0  0  0  0
 37 62  1  0  0  0  0
 37 63  1  0  0  0  0
 37 64  1  0  0  0  0
 38 66  1  0  0  0  0
 38 67  1  0  0  0  0
 38 68  1  0  0  0  0
 39 69  1  0  0  0  0
 39 70  1  0  0  0  0
 39 71  1  0  0  0  0
 40 72  1  0  0  0  0
 40 73  1  0  0  0  0
 40 74  1  0  0  0  0
M  END
> <PUBCHEM_COMPOUND_CID>
46173977

> <PUBCHEM_CONFORMER_RMSD>
1.2

> <PUBCHEM_CONFORMER_DIVERSEORDER>
1
110
72
33
48
64
56
68
66
100
84
104
73
47
91
41
8
109
111
29
6
51
95
9
106
23
21
59
75
55
86
46
13
44
52
7
76
79
63
32
49
80
101
87
57
24
36
45
20
85
28
99
25
43
62
40
18
5
50
10
42
26
2
38
65
74
105
58
19
89
15
78
39
35
4
71
96
61
108
81
16
60
82
14
88
34
103
11
92
3
77
54
27
97
107
22
31
93
94
67
53
12
17
102
83
37
30
90
70
69
98

> <PUBCHEM_MMFF94_PARTIAL_CHARGES>
49
1 -0.43
10 0.06
12 0.14
13 0.14
14 0.28
15 0.14
16 -0.14
17 0.42
18 -0.14
19 0.66
2 -0.36
20 0.08
21 -0.15
22 0.28
23 -0.15
24 0.08
25 -0.14
26 -0.14
27 -0.15
28 -0.15
29 -0.15
3 -0.57
30 -0.15
31 0.08
32 0.08
33 -0.15
34 -0.15
35 0.08
36 0.08
37 0.28
38 0.28
39 0.28
4 -0.36
40 0.28
5 -0.68
51 0.15
54 0.15
55 0.15
56 0.15
57 0.15
58 0.15
59 0.4
6 -0.36
60 0.15
61 0.15
65 0.45
7 -0.36
8 -0.36
9 -0.53

> <PUBCHEM_EFFECTIVE_ROTOR_COUNT>
11.4

> <PUBCHEM_PHARMACOPHORE_FEATURES>
14
1 2 acceptor
1 3 acceptor
1 4 acceptor
1 5 acceptor
1 5 donor
1 6 acceptor
1 7 acceptor
1 8 acceptor
1 9 donor
5 1 10 11 14 19 rings
5 2 13 16 17 20 rings
6 16 18 20 21 23 24 rings
6 25 27 28 31 33 35 rings
6 26 29 30 32 34 36 rings

> <PUBCHEM_HEAVY_ATOM_COUNT>
40

> <PUBCHEM_ATOM_DEF_STEREO_COUNT>
4

> <PUBCHEM_ATOM_UDEF_STEREO_COUNT>
0

> <PUBCHEM_BOND_DEF_STEREO_COUNT>
0

> <PUBCHEM_BOND_UDEF_STEREO_COUNT>
0

> <PUBCHEM_ISOTOPIC_ATOM_COUNT>
0

> <PUBCHEM_COMPONENT_COUNT>
1

> <PUBCHEM_CACTVS_TAUTO_COUNT>
6

> <PUBCHEM_CONFORMER_ID>
02C08F1900000001

> <PUBCHEM_MMFF94_ENERGY>
145.8094

> <PUBCHEM_FEATURE_SELFOVERLAP>
71.15

> <PUBCHEM_SHAPE_FINGERPRINT>
11479125 193 16914252850482457956
11796584 16 17603863407949523561
12156800 1 18118711854112743490
1361 2 18341889641633853572
13617811 41 18341338829368702445
13642711 20 16630254610211944428
14040221 299 17822008761110215111
14068700 675 17903918100088160066
14840074 17 18408035221851897869
14932702 115 18116703037519970090
15001296 14 18115036194887397391
15219462 58 16341722044889244793
15297060 5 17023178340272144510
15968369 153 17751932315094724358
16114785 44 14500086930473043712
17138139 8 18040722411584657742
17492 54 18337379479480330442
19311894 1 5516463077995842553
19319366 153 18410300228558876830
20764821 26 18195833931614498167
21857420 4 13237121470383515588
23559900 14 17967542259610286217
27425 322 17131265745093694888
437795 51 16950857912090265296
463206 1 18408038511538285881
6086070 43 16733277828577351225
6669772 16 17846493746952046522

> <PUBCHEM_SHAPE_MULTIPOLES>
770.36
13.36
4.74
2.58
10.83
3.01
1.64
-2.57
-4.66
-1.11
-1
-1.25
-0.29
-1.7

> <PUBCHEM_SHAPE_SELFOVERLAP>
1677.266

> <PUBCHEM_SHAPE_VOLUME>
423.1

> <PUBCHEM_COORDINATE_TYPE>
2
5
10

$$$$

