17395905
  -OEChem-06241222532D

 40 40  0     0  0  0  0  0  0999 V2000
    6.5855    1.1086    0.0000 O   0  0  0  0  0  0  0  0  0  0  0  0
    3.4013    3.4221    0.0000 O   0  0  0  0  0  0  0  0  0  0  0  0
    4.0823    0.1607    0.0000 N   0  0  0  0  0  0  0  0  0  0  0  0
    6.0503   -0.5387    0.0000 N   0  0  0  0  0  0  0  0  0  0  0  0
    7.2093   -1.8259    0.0000 C   0  0  0  0  0  0  0  0  0  0  0  0
    8.1603   -2.1349    0.0000 C   0  0  0  0  0  0  0  0  0  0  0  0
    7.0014   -0.8477    0.0000 C   0  0  0  0  0  0  0  0  0  0  0  0
    4.8913    0.7484    0.0000 C   0  0  0  0  0  0  0  0  0  0  0  0
    4.5823    1.6995    0.0000 C   0  0  0  0  0  0  0  0  0  0  0  0
    3.5823    1.6995    0.0000 C   0  0  0  0  0  0  0  0  0  0  0  0
    3.2733    0.7484    0.0000 C   0  0  0  0  0  0  0  0  0  0  0  0
    8.3682   -3.1130    0.0000 C   0  0  0  0  0  0  0  0  0  0  0  0
    5.8424    0.4394    0.0000 C   0  0  0  0  0  0  0  0  0  0  0  0
    5.1701    2.5085    0.0000 C   0  0  0  0  0  0  0  0  0  0  0  0
    2.3222    0.4394    0.0000 C   0  0  0  0  0  0  0  0  0  0  0  0
    2.9945    2.5085    0.0000 C   0  0  0  0  0  0  0  0  0  0  0  0
    9.3193   -3.4221    0.0000 C   0  0  0  0  0  0  0  0  0  0  0  0
    2.0000    2.4040    0.0000 C   0  0  0  0  0  0  0  0  0  0  0  0
    6.5896   -1.8475    0.0000 H   0  0  0  0  0  0  0  0  0  0  0  0
    7.1230   -2.4398    0.0000 H   0  0  0  0  0  0  0  0  0  0  0  0
    8.7799   -2.1133    0.0000 H   0  0  0  0  0  0  0  0  0  0  0  0
    8.2466   -1.5209    0.0000 H   0  0  0  0  0  0  0  0  0  0  0  0
    7.6210   -0.8261    0.0000 H   0  0  0  0  0  0  0  0  0  0  0  0
    7.0876   -0.2338    0.0000 H   0  0  0  0  0  0  0  0  0  0  0  0
    7.7486   -3.1347    0.0000 H   0  0  0  0  0  0  0  0  0  0  0  0
    8.2819   -3.7270    0.0000 H   0  0  0  0  0  0  0  0  0  0  0  0
    4.0823   -0.4593    0.0000 H   0  0  0  0  0  0  0  0  0  0  0  0
    5.5895   -0.9536    0.0000 H   0  0  0  0  0  0  0  0  0  0  0  0
    5.6717    2.1441    0.0000 H   0  0  0  0  0  0  0  0  0  0  0  0
    5.5345    3.0101    0.0000 H   0  0  0  0  0  0  0  0  0  0  0  0
    4.6685    2.8730    0.0000 H   0  0  0  0  0  0  0  0  0  0  0  0
    2.1306    1.0291    0.0000 H   0  0  0  0  0  0  0  0  0  0  0  0
    1.7326    0.2478    0.0000 H   0  0  0  0  0  0  0  0  0  0  0  0
    2.5138   -0.1502    0.0000 H   0  0  0  0  0  0  0  0  0  0  0  0
    9.1277   -4.0117    0.0000 H   0  0  0  0  0  0  0  0  0  0  0  0
    9.9089   -3.6137    0.0000 H   0  0  0  0  0  0  0  0  0  0  0  0
    9.5109   -2.8324    0.0000 H   0  0  0  0  0  0  0  0  0  0  0  0
    1.9352    3.0206    0.0000 H   0  0  0  0  0  0  0  0  0  0  0  0
    1.3834    2.3392    0.0000 H   0  0  0  0  0  0  0  0  0  0  0  0
    2.0648    1.7874    0.0000 H   0  0  0  0  0  0  0  0  0  0  0  0
  1 13  2  0  0  0  0
  2 16  2  0  0  0  0
  3  8  1  0  0  0  0
  3 11  1  0  0  0  0
  3 27  1  0  0  0  0
  4  7  1  0  0  0  0
  4 13  1  0  0  0  0
  4 28  1  0  0  0  0
  5  6  1  0  0  0  0
  5  7  1  0  0  0  0
  5 19  1  0  0  0  0
  5 20  1  0  0  0  0
  6 12  1  0  0  0  0
  6 21  1  0  0  0  0
  6 22  1  0  0  0  0
  7 23  1  0  0  0  0
  7 24  1  0  0  0  0
  8  9  2  0  0  0  0
  8 13  1  0  0  0  0
  9 10  1  0  0  0  0
  9 14  1  0  0  0  0
 10 11  2  0  0  0  0
 10 16  1  0  0  0  0
 11 15  1  0  0  0  0
 12 17  1  0  0  0  0
 12 25  1  0  0  0  0
 12 26  1  0  0  0  0
 14 29  1  0  0  0  0
 14 30  1  0  0  0  0
 14 31  1  0  0  0  0
 15 32  1  0  0  0  0
 15 33  1  0  0  0  0
 15 34  1  0  0  0  0
 16 18  1  0  0  0  0
 17 35  1  0  0  0  0
 17 36  1  0  0  0  0
 17 37  1  0  0  0  0
 18 38  1  0  0  0  0
 18 39  1  0  0  0  0
 18 40  1  0  0  0  0
M  END
> <PUBCHEM_COMPOUND_CID>
17395905

> <PUBCHEM_COMPOUND_CANONICALIZED>
1

> <PUBCHEM_CACTVS_COMPLEXITY>
304

> <PUBCHEM_CACTVS_HBOND_ACCEPTOR>
2

> <PUBCHEM_CACTVS_HBOND_DONOR>
2

> <PUBCHEM_CACTVS_ROTATABLE_BOND>
6

> <PUBCHEM_CACTVS_SUBSKEYS>
AAADceBzMAAAAAAAAAAAAAAAAAAAAWAAAAAAAAAAAAAAAAABgAAAHgAQAAAADAzBngQCgJLJkACoA4VwVACCgCAnACAAmaG4RNgIYHrAlLGUAYhglgDIyUccCwA+gAAAAAAAAAAAAAAAAAAAAAAAAAAAAA==

> <PUBCHEM_IUPAC_OPENEYE_NAME>
4-acetyl-3,5-dimethyl-N-pentyl-1H-pyrrole-2-carboxamide

> <PUBCHEM_IUPAC_CAS_NAME>
4-acetyl-3,5-dimethyl-N-pentyl-1H-pyrrole-2-carboxamide

> <PUBCHEM_IUPAC_NAME>
4-acetyl-3,5-dimethyl-N-pentyl-1H-pyrrole-2-carboxamide

> <PUBCHEM_IUPAC_SYSTEMATIC_NAME>
4-ethanoyl-3,5-dimethyl-N-pentyl-1H-pyrrole-2-carboxamide

> <PUBCHEM_IUPAC_TRADITIONAL_NAME>
4-acetyl-N-amyl-3,5-dimethyl-1H-pyrrole-2-carboxamide

> <PUBCHEM_IUPAC_INCHI>
InChI=1S/C14H22N2O2/c1-5-6-7-8-15-14(18)13-9(2)12(11(4)17)10(3)16-13/h16H,5-8H2,1-4H3,(H,15,18)

> <PUBCHEM_IUPAC_INCHIKEY>
YVCFRAPJKHTTDG-UHFFFAOYSA-N

> <PUBCHEM_XLOGP3_AA>
2.6

> <PUBCHEM_EXACT_MASS>
250.168128

> <PUBCHEM_MOLECULAR_FORMULA>
C14H22N2O2

> <PUBCHEM_MOLECULAR_WEIGHT>
250.33668

> <PUBCHEM_OPENEYE_CAN_SMILES>
CCCCCNC(=O)C1=C(C(=C(N1)C)C(=O)C)C

> <PUBCHEM_OPENEYE_ISO_SMILES>
CCCCCNC(=O)C1=C(C(=C(N1)C)C(=O)C)C

> <PUBCHEM_CACTVS_TPSA>
62

> <PUBCHEM_MONOISOTOPIC_WEIGHT>
250.168128

> <PUBCHEM_TOTAL_CHARGE>
0

> <PUBCHEM_HEAVY_ATOM_COUNT>
18

> <PUBCHEM_ATOM_DEF_STEREO_COUNT>
0

> <PUBCHEM_ATOM_UDEF_STEREO_COUNT>
0

> <PUBCHEM_BOND_DEF_STEREO_COUNT>
0

> <PUBCHEM_BOND_UDEF_STEREO_COUNT>
0

> <PUBCHEM_ISOTOPIC_ATOM_COUNT>
0

> <PUBCHEM_COMPONENT_COUNT>
1

> <PUBCHEM_CACTVS_TAUTO_COUNT>
62

> <PUBCHEM_COORDINATE_TYPE>
1
5
255

> <PUBCHEM_BONDANNOTATIONS>
10  11  8
3  11  8
3  8  8
8  9  8
9  10  8

$$$$

