5281129
  -OEChem-07051212552D

 33 32  0     0  0  0  0  0  0999 V2000
    2.5369    1.0600    0.0000 O   0  0  0  0  0  0  0  0  0  0  0  0
    5.1350   -1.4400    0.0000 C   0  0  0  0  0  0  0  0  0  0  0  0
    6.8671   -0.4400    0.0000 C   0  0  0  0  0  0  0  0  0  0  0  0
    3.4030   -0.4400    0.0000 C   0  0  0  0  0  0  0  0  0  0  0  0
    6.0010   -1.9400    0.0000 C   0  0  0  0  0  0  0  0  0  0  0  0
    4.2690   -1.9400    0.0000 C   0  0  0  0  0  0  0  0  0  0  0  0
    6.8671   -1.4400    0.0000 C   0  0  0  0  0  0  0  0  0  0  0  0
    3.4030   -1.4400    0.0000 C   0  0  0  0  0  0  0  0  0  0  0  0
    7.7331    0.0600    0.0000 C   0  0  0  0  0  0  0  0  0  0  0  0
    6.8671    1.5600    0.0000 C   0  0  0  0  0  0  0  0  0  0  0  0
    7.7331    1.0600    0.0000 C   0  0  0  0  0  0  0  0  0  0  0  0
    2.5369    0.0600    0.0000 C   0  0  0  0  0  0  0  0  0  0  0  0
    6.8671    2.5600    0.0000 C   0  0  0  0  0  0  0  0  0  0  0  0
    5.5335   -0.9651    0.0000 H   0  0  0  0  0  0  0  0  0  0  0  0
    4.7365   -0.9651    0.0000 H   0  0  0  0  0  0  0  0  0  0  0  0
    6.6550    0.1426    0.0000 H   0  0  0  0  0  0  0  0  0  0  0  0
    6.2565   -0.5477    0.0000 H   0  0  0  0  0  0  0  0  0  0  0  0
    4.0135   -0.5477    0.0000 H   0  0  0  0  0  0  0  0  0  0  0  0
    3.6150    0.1426    0.0000 H   0  0  0  0  0  0  0  0  0  0  0  0
    6.0010   -2.5600    0.0000 H   0  0  0  0  0  0  0  0  0  0  0  0
    4.2690   -2.5600    0.0000 H   0  0  0  0  0  0  0  0  0  0  0  0
    7.4040   -1.7500    0.0000 H   0  0  0  0  0  0  0  0  0  0  0  0
    2.8660   -1.7500    0.0000 H   0  0  0  0  0  0  0  0  0  0  0  0
    8.2700   -0.2500    0.0000 H   0  0  0  0  0  0  0  0  0  0  0  0
    6.2565    1.6677    0.0000 H   0  0  0  0  0  0  0  0  0  0  0  0
    6.6550    0.9774    0.0000 H   0  0  0  0  0  0  0  0  0  0  0  0
    8.2700    1.3700    0.0000 H   0  0  0  0  0  0  0  0  0  0  0  0
    1.9264    0.1677    0.0000 H   0  0  0  0  0  0  0  0  0  0  0  0
    2.3249   -0.5226    0.0000 H   0  0  0  0  0  0  0  0  0  0  0  0
    7.4871    2.5600    0.0000 H   0  0  0  0  0  0  0  0  0  0  0  0
    6.8671    3.1800    0.0000 H   0  0  0  0  0  0  0  0  0  0  0  0
    6.2471    2.5600    0.0000 H   0  0  0  0  0  0  0  0  0  0  0  0
    2.0000    1.3700    0.0000 H   0  0  0  0  0  0  0  0  0  0  0  0
  1 12  1  0  0  0  0
  1 33  1  0  0  0  0
  2  5  1  0  0  0  0
  2  6  1  0  0  0  0
  2 14  1  0  0  0  0
  2 15  1  0  0  0  0
  3  7  1  0  0  0  0
  3  9  1  0  0  0  0
  3 16  1  0  0  0  0
  3 17  1  0  0  0  0
  4  8  1  0  0  0  0
  4 12  1  0  0  0  0
  4 18  1  0  0  0  0
  4 19  1  0  0  0  0
  5  7  2  0  0  0  0
  5 20  1  0  0  0  0
  6  8  2  0  0  0  0
  6 21  1  0  0  0  0
  7 22  1  0  0  0  0
  8 23  1  0  0  0  0
  9 11  2  0  0  0  0
  9 24  1  0  0  0  0
 10 11  1  0  0  0  0
 10 13  1  0  0  0  0
 10 25  1  0  0  0  0
 10 26  1  0  0  0  0
 11 27  1  0  0  0  0
 12 28  1  0  0  0  0
 12 29  1  0  0  0  0
 13 30  1  0  0  0  0
 13 31  1  0  0  0  0
 13 32  1  0  0  0  0
M  END
> <PUBCHEM_COMPOUND_CID>
5281129

> <PUBCHEM_COMPOUND_CANONICALIZED>
1

> <PUBCHEM_CACTVS_COMPLEXITY>
166

> <PUBCHEM_CACTVS_HBOND_ACCEPTOR>
1

> <PUBCHEM_CACTVS_HBOND_DONOR>
1

> <PUBCHEM_CACTVS_ROTATABLE_BOND>
7

> <PUBCHEM_CACTVS_SUBSKEYS>
AAADceBwIAAAAAAAAAAAAAAAAAAAAAAAAAAAAAAAAAAAAAAAAAAAGgAACAAACACggAICAAAAAgCAACBCAAAAAAAgAAAICAAAAAgAEAAAAQAAQAAAQAAIAAIAAAAAAAAAAAAAAAAAAAAAAAAAAAAAAAAAAA==

> <PUBCHEM_IUPAC_OPENEYE_NAME>
(3Z,6Z,9Z)-dodeca-3,6,9-trien-1-ol

> <PUBCHEM_IUPAC_CAS_NAME>
(3Z,6Z,9Z)-1-dodeca-3,6,9-trienol

> <PUBCHEM_IUPAC_NAME>
(3Z,6Z,9Z)-dodeca-3,6,9-trien-1-ol

> <PUBCHEM_IUPAC_SYSTEMATIC_NAME>
(3Z,6Z,9Z)-dodeca-3,6,9-trien-1-ol

> <PUBCHEM_IUPAC_TRADITIONAL_NAME>
(3Z,6Z,9Z)-dodeca-3,6,9-trien-1-ol

> <PUBCHEM_IUPAC_INCHI>
InChI=1S/C12H20O/c1-2-3-4-5-6-7-8-9-10-11-12-13/h3-4,6-7,9-10,13H,2,5,8,11-12H2,1H3/b4-3-,7-6-,10-9-

> <PUBCHEM_IUPAC_INCHIKEY>
OFAUAWIRDOCHFP-PDBXOOCHSA-N

> <PUBCHEM_XLOGP3_AA>
3.2

> <PUBCHEM_EXACT_MASS>
180.151415

> <PUBCHEM_MOLECULAR_FORMULA>
C12H20O

> <PUBCHEM_MOLECULAR_WEIGHT>
180.2866

> <PUBCHEM_OPENEYE_CAN_SMILES>
CCC=CCC=CCC=CCCO

> <PUBCHEM_OPENEYE_ISO_SMILES>
CC/C=C\C/C=C\C/C=C\CCO

> <PUBCHEM_CACTVS_TPSA>
20.2

> <PUBCHEM_MONOISOTOPIC_WEIGHT>
180.151415

> <PUBCHEM_TOTAL_CHARGE>
0

> <PUBCHEM_HEAVY_ATOM_COUNT>
13

> <PUBCHEM_ATOM_DEF_STEREO_COUNT>
0

> <PUBCHEM_ATOM_UDEF_STEREO_COUNT>
0

> <PUBCHEM_BOND_DEF_STEREO_COUNT>
3

> <PUBCHEM_BOND_UDEF_STEREO_COUNT>
0

> <PUBCHEM_ISOTOPIC_ATOM_COUNT>
0

> <PUBCHEM_COMPONENT_COUNT>
1

> <PUBCHEM_CACTVS_TAUTO_COUNT>
1

> <PUBCHEM_COORDINATE_TYPE>
1
5
255

$$$$

