441677
  -OEChem-07051212552D

 81 84  0     1  0  0  0  0  0999 V2000
    2.5357   -3.7639    0.0000 O   0  0  0  0  0  0  0  0  0  0  0  0
   10.4749    1.7004    0.0000 O   0  0  0  0  0  0  0  0  0  0  0  0
   10.8321    0.0056    0.0000 O   0  0  0  0  0  0  0  0  0  0  0  0
    7.9288   -0.7115    0.0000 C   0  0  2  0  0  0  0  0  0  0  0  0
    7.9288   -1.7115    0.0000 C   0  0  1  0  0  0  0  0  0  0  0  0
    8.8750   -0.4068    0.0000 C   0  0  1  0  0  0  0  0  0  0  0  0
    5.2868   -2.2184    0.0000 C   0  0  1  0  0  0  0  0  0  0  0  0
    7.0628   -2.2115    0.0000 C   0  0  0  0  0  0  0  0  0  0  0  0
    5.2787   -3.2600    0.0000 C   0  0  2  0  0  0  0  0  0  0  0  0
    6.1968   -1.7115    0.0000 C   0  0  0  0  0  0  0  0  0  0  0  0
    8.8750   -2.0163    0.0000 C   0  0  0  0  0  0  0  0  0  0  0  0
    7.0628   -0.2115    0.0000 C   0  0  0  0  0  0  0  0  0  0  0  0
    9.4586   -1.2115    0.0000 C   0  0  0  0  0  0  0  0  0  0  0  0
    6.1968   -0.7115    0.0000 C   0  0  0  0  0  0  0  0  0  0  0  0
    4.3433   -3.8097    0.0000 C   0  0  0  0  0  0  0  0  0  0  0  0
    7.0789   -3.2530    0.0000 C   0  0  0  0  0  0  0  0  0  0  0  0
    6.1808   -3.7808    0.0000 C   0  0  0  0  0  0  0  0  0  0  0  0
    4.3599   -1.6543    0.0000 C   0  0  0  0  0  0  0  0  0  0  0  0
    7.9288    0.2885    0.0000 C   0  0  0  0  0  0  0  0  0  0  0  0
    7.9288   -2.7115    0.0000 C   0  0  0  0  0  0  0  0  0  0  0  0
    9.1857    0.5437    0.0000 C   0  0  2  0  0  0  0  0  0  0  0  0
    3.4037   -3.2672    0.0000 C   0  0  1  0  0  0  0  0  0  0  0  0
    3.4120   -2.1822    0.0000 C   0  0  0  0  0  0  0  0  0  0  0  0
    5.2945   -1.2184    0.0000 C   0  0  0  0  0  0  0  0  0  0  0  0
    3.8467   -4.6777    0.0000 C   0  0  0  0  0  0  0  0  0  0  0  0
    4.8466   -4.6738    0.0000 C   0  0  0  0  0  0  0  0  0  0  0  0
    8.5179    1.2880    0.0000 C   0  0  0  0  0  0  0  0  0  0  0  0
   10.1642    0.7499    0.0000 C   0  0  0  0  0  0  0  0  0  0  0  0
    8.8285    2.2385    0.0000 C   0  0  0  0  0  0  0  0  0  0  0  0
    8.1607    2.9828    0.0000 C   0  0  0  0  0  0  0  0  0  0  0  0
    8.4713    3.9334    0.0000 C   0  0  0  0  0  0  0  0  0  0  0  0
    7.8035    4.6777    0.0000 C   0  0  0  0  0  0  0  0  0  0  0  0
    9.4498    4.1396    0.0000 C   0  0  0  0  0  0  0  0  0  0  0  0
    9.7148   -0.2749    0.0000 H   0  0  0  0  0  0  0  0  0  0  0  0
    5.2820   -4.1100    0.0000 H   0  0  0  0  0  0  0  0  0  0  0  0
    8.6240   -2.5832    0.0000 H   0  0  0  0  0  0  0  0  0  0  0  0
    9.4124   -2.3255    0.0000 H   0  0  0  0  0  0  0  0  0  0  0  0
    7.4613    0.2634    0.0000 H   0  0  0  0  0  0  0  0  0  0  0  0
    6.6643    0.2634    0.0000 H   0  0  0  0  0  0  0  0  0  0  0  0
    9.9195   -1.6263    0.0000 H   0  0  0  0  0  0  0  0  0  0  0  0
    9.9195   -0.7968    0.0000 H   0  0  0  0  0  0  0  0  0  0  0  0
    5.9847   -0.1289    0.0000 H   0  0  0  0  0  0  0  0  0  0  0  0
    5.5862   -0.8192    0.0000 H   0  0  0  0  0  0  0  0  0  0  0  0
    7.2969   -3.8334    0.0000 H   0  0  0  0  0  0  0  0  0  0  0  0
    7.6880   -3.1376    0.0000 H   0  0  0  0  0  0  0  0  0  0  0  0
    5.7835   -4.2568    0.0000 H   0  0  0  0  0  0  0  0  0  0  0  0
    6.5818   -4.2537    0.0000 H   0  0  0  0  0  0  0  0  0  0  0  0
    4.7681   -1.1877    0.0000 H   0  0  0  0  0  0  0  0  0  0  0  0
    3.9700   -1.1723    0.0000 H   0  0  0  0  0  0  0  0  0  0  0  0
    8.5488    0.2885    0.0000 H   0  0  0  0  0  0  0  0  0  0  0  0
    7.9288    0.9085    0.0000 H   0  0  0  0  0  0  0  0  0  0  0  0
    7.3088    0.2885    0.0000 H   0  0  0  0  0  0  0  0  0  0  0  0
    7.3088   -2.7115    0.0000 H   0  0  0  0  0  0  0  0  0  0  0  0
    7.9288   -3.3315    0.0000 H   0  0  0  0  0  0  0  0  0  0  0  0
    8.5488   -2.7115    0.0000 H   0  0  0  0  0  0  0  0  0  0  0  0
    9.3783    1.1330    0.0000 H   0  0  0  0  0  0  0  0  0  0  0  0
    2.8686   -2.9541    0.0000 H   0  0  0  0  0  0  0  0  0  0  0  0
    3.2075   -1.5970    0.0000 H   0  0  0  0  0  0  0  0  0  0  0  0
    2.8004   -2.2836    0.0000 H   0  0  0  0  0  0  0  0  0  0  0  0
    5.9145   -1.2232    0.0000 H   0  0  0  0  0  0  0  0  0  0  0  0
    5.2993   -0.5984    0.0000 H   0  0  0  0  0  0  0  0  0  0  0  0
    4.6745   -1.2136    0.0000 H   0  0  0  0  0  0  0  0  0  0  0  0
    3.3085   -4.3697    0.0000 H   0  0  0  0  0  0  0  0  0  0  0  0
    3.5387   -5.2158    0.0000 H   0  0  0  0  0  0  0  0  0  0  0  0
    4.3848   -4.9856    0.0000 H   0  0  0  0  0  0  0  0  0  0  0  0
    4.3109   -4.9859    0.0000 H   0  0  0  0  0  0  0  0  0  0  0  0
    5.1587   -5.2095    0.0000 H   0  0  0  0  0  0  0  0  0  0  0  0
    5.3824   -4.3617    0.0000 H   0  0  0  0  0  0  0  0  0  0  0  0
    7.9709    1.5800    0.0000 H   0  0  0  0  0  0  0  0  0  0  0  0
    8.1353    0.8001    0.0000 H   0  0  0  0  0  0  0  0  0  0  0  0
    2.0000   -3.4518    0.0000 H   0  0  0  0  0  0  0  0  0  0  0  0
    9.3754    1.9465    0.0000 H   0  0  0  0  0  0  0  0  0  0  0  0
    9.2111    2.7264    0.0000 H   0  0  0  0  0  0  0  0  0  0  0  0
   11.0815    1.8283    0.0000 H   0  0  0  0  0  0  0  0  0  0  0  0
    7.5540    2.8550    0.0000 H   0  0  0  0  0  0  0  0  0  0  0  0
    8.2650    5.0917    0.0000 H   0  0  0  0  0  0  0  0  0  0  0  0
    7.3894    5.1391    0.0000 H   0  0  0  0  0  0  0  0  0  0  0  0
    7.3420    4.2636    0.0000 H   0  0  0  0  0  0  0  0  0  0  0  0
    9.5777    3.5329    0.0000 H   0  0  0  0  0  0  0  0  0  0  0  0
   10.0565    4.2674    0.0000 H   0  0  0  0  0  0  0  0  0  0  0  0
    9.3220    4.7462    0.0000 H   0  0  0  0  0  0  0  0  0  0  0  0
 22  1  1  6  0  0  0
  1 71  1  0  0  0  0
  2 28  1  0  0  0  0
  2 74  1  0  0  0  0
  3 28  2  0  0  0  0
  4  5  1  0  0  0  0
  4  6  1  0  0  0  0
  4 12  1  0  0  0  0
  4 19  1  6  0  0  0
  5  8  1  0  0  0  0
  5 11  1  0  0  0  0
  5 20  1  1  0  0  0
  6 13  1  0  0  0  0
  6 21  1  0  0  0  0
  6 34  1  1  0  0  0
  7  9  1  0  0  0  0
  7 10  1  0  0  0  0
  7 18  1  0  0  0  0
  7 24  1  1  0  0  0
  8 10  2  0  0  0  0
  8 16  1  0  0  0  0
  9 15  1  0  0  0  0
  9 17  1  0  0  0  0
  9 35  1  6  0  0  0
 10 14  1  0  0  0  0
 11 13  1  0  0  0  0
 11 36  1  0  0  0  0
 11 37  1  0  0  0  0
 12 14  1  0  0  0  0
 12 38  1  0  0  0  0
 12 39  1  0  0  0  0
 13 40  1  0  0  0  0
 13 41  1  0  0  0  0
 14 42  1  0  0  0  0
 14 43  1  0  0  0  0
 15 22  1  0  0  0  0
 15 25  1  0  0  0  0
 15 26  1  0  0  0  0
 16 17  1  0  0  0  0
 16 44  1  0  0  0  0
 16 45  1  0  0  0  0
 17 46  1  0  0  0  0
 17 47  1  0  0  0  0
 18 23  1  0  0  0  0
 18 48  1  0  0  0  0
 18 49  1  0  0  0  0
 19 50  1  0  0  0  0
 19 51  1  0  0  0  0
 19 52  1  0  0  0  0
 20 53  1  0  0  0  0
 20 54  1  0  0  0  0
 20 55  1  0  0  0  0
 21 27  1  6  0  0  0
 21 28  1  0  0  0  0
 21 56  1  0  0  0  0
 22 23  1  0  0  0  0
 22 57  1  0  0  0  0
 23 58  1  0  0  0  0
 23 59  1  0  0  0  0
 24 60  1  0  0  0  0
 24 61  1  0  0  0  0
 24 62  1  0  0  0  0
 25 63  1  0  0  0  0
 25 64  1  0  0  0  0
 25 65  1  0  0  0  0
 26 66  1  0  0  0  0
 26 67  1  0  0  0  0
 26 68  1  0  0  0  0
 27 29  1  0  0  0  0
 27 69  1  0  0  0  0
 27 70  1  0  0  0  0
 29 30  1  0  0  0  0
 29 72  1  0  0  0  0
 29 73  1  0  0  0  0
 30 31  2  0  0  0  0
 30 75  1  0  0  0  0
 31 32  1  0  0  0  0
 31 33  1  0  0  0  0
 32 76  1  0  0  0  0
 32 77  1  0  0  0  0
 32 78  1  0  0  0  0
 33 79  1  0  0  0  0
 33 80  1  0  0  0  0
 33 81  1  0  0  0  0
M  END
> <PUBCHEM_COMPOUND_CID>
441677

> <PUBCHEM_COMPOUND_CANONICALIZED>
1

> <PUBCHEM_CACTVS_COMPLEXITY>
862

> <PUBCHEM_CACTVS_HBOND_ACCEPTOR>
3

> <PUBCHEM_CACTVS_HBOND_DONOR>
2

> <PUBCHEM_CACTVS_ROTATABLE_BOND>
5

> <PUBCHEM_CACTVS_SUBSKEYS>
AAADcfB4MAAAAAAAAAAAAAAAAAAAAYAAAAAwQIAAAAAAAEDAAAAAGgAACAAADxSggAICCAAAAgCIAiDSCAAAAAAgAAAACAEAAAgAEBIAAQAAQAAEgAAIAAOIyPCPgAAAAAAAAABAAAYAADAAAQAACAAAAA==

> <PUBCHEM_IUPAC_OPENEYE_NAME>
(2S)-2-[(3R,5R,10S,13S,14S,17S)-3-hydroxy-4,4,10,13,14-pentamethyl-2,3,5,6,7,11,12,15,16,17-decahydro-1H-cyclopenta[a]phenanthren-17-yl]-6-methyl-hept-5-enoic acid

> <PUBCHEM_IUPAC_CAS_NAME>
(2S)-2-[(3R,5R,10S,13S,14S,17S)-3-hydroxy-4,4,10,13,14-pentamethyl-2,3,5,6,7,11,12,15,16,17-decahydro-1H-cyclopenta[a]phenanthren-17-yl]-6-methyl-5-heptenoic acid

> <PUBCHEM_IUPAC_NAME>
(2S)-2-[(3R,5R,10S,13S,14S,17S)-3-hydroxy-4,4,10,13,14-pentamethyl-2,3,5,6,7,11,12,15,16,17-decahydro-1H-cyclopenta[a]phenanthren-17-yl]-6-methylhept-5-enoic acid

> <PUBCHEM_IUPAC_SYSTEMATIC_NAME>
(2S)-6-methyl-2-[(3R,5R,10S,13S,14S,17S)-4,4,10,13,14-pentamethyl-3-oxidanyl-2,3,5,6,7,11,12,15,16,17-decahydro-1H-cyclopenta[a]phenanthren-17-yl]hept-5-enoic acid

> <PUBCHEM_IUPAC_TRADITIONAL_NAME>
(2S)-2-[(3R,5R,10S,13S,14S,17S)-3-hydroxy-4,4,10,13,14-pentamethyl-2,3,5,6,7,11,12,15,16,17-decahydro-1H-cyclopenta[a]phenanthren-17-yl]-6-methyl-hept-5-enoic acid

> <PUBCHEM_IUPAC_INCHI>
InChI=1S/C30H48O3/c1-19(2)9-8-10-20(26(32)33)21-13-17-30(7)23-11-12-24-27(3,4)25(31)15-16-28(24,5)22(23)14-18-29(21,30)6/h9,20-21,24-25,31H,8,10-18H2,1-7H3,(H,32,33)/t20-,21-,24-,25+,28+,29-,30+/m0/s1

> <PUBCHEM_IUPAC_INCHIKEY>
NBSBUIQBEPROBM-IMJUUJEHSA-N

> <PUBCHEM_XLOGP3_AA>
7.5

> <PUBCHEM_EXACT_MASS>
456.360345

> <PUBCHEM_MOLECULAR_FORMULA>
C30H48O3

> <PUBCHEM_MOLECULAR_WEIGHT>
456.70032

> <PUBCHEM_OPENEYE_CAN_SMILES>
CC(=CCCC(C1CCC2(C1(CCC3=C2CCC4C3(CCC(C4(C)C)O)C)C)C)C(=O)O)C

> <PUBCHEM_OPENEYE_ISO_SMILES>
CC(=CCC[C@@H]([C@@H]1CC[C@]2([C@]1(CCC3=C2CC[C@@H]4[C@@]3(CC[C@H](C4(C)C)O)C)C)C)C(=O)O)C

> <PUBCHEM_CACTVS_TPSA>
57.5

> <PUBCHEM_MONOISOTOPIC_WEIGHT>
456.360345

> <PUBCHEM_TOTAL_CHARGE>
0

> <PUBCHEM_HEAVY_ATOM_COUNT>
33

> <PUBCHEM_ATOM_DEF_STEREO_COUNT>
7

> <PUBCHEM_ATOM_UDEF_STEREO_COUNT>
0

> <PUBCHEM_BOND_DEF_STEREO_COUNT>
0

> <PUBCHEM_BOND_UDEF_STEREO_COUNT>
0

> <PUBCHEM_ISOTOPIC_ATOM_COUNT>
0

> <PUBCHEM_COMPONENT_COUNT>
1

> <PUBCHEM_CACTVS_TAUTO_COUNT>
1

> <PUBCHEM_COORDINATE_TYPE>
1
5
255

> <PUBCHEM_BONDANNOTATIONS>
22  1  6
21  27  6
4  19  6
5  20  5
6  34  5
7  24  5
9  35  6

$$$$

