44150026
  -OEChem-07051213113D

 54 56  0     1  0  0  0  0  0999 V2000
   -3.8855    0.6974    1.6082 O   0  0  0  0  0  0  0  0  0  0  0  0
   -4.7152    1.6045   -0.3114 O   0  0  0  0  0  0  0  0  0  0  0  0
   -0.4145   -0.7970   -0.0703 C   0  0  1  0  0  0  0  0  0  0  0  0
   -1.5472    0.2802    0.1241 C   0  0  2  0  0  0  0  0  0  0  0  0
    0.7969   -0.3763    0.8612 C   0  0  2  0  0  0  0  0  0  0  0  0
   -2.9656   -0.0833   -0.4249 C   0  0  2  0  0  0  0  0  0  0  0  0
   -0.9569   -2.1805    0.3692 C   0  0  0  0  0  0  0  0  0  0  0  0
   -1.0454    1.6754   -0.3055 C   0  0  0  0  0  0  0  0  0  0  0  0
    1.2541    1.0491    0.5718 C   0  0  0  0  0  0  0  0  0  0  0  0
   -3.3566   -1.5183   -0.0091 C   0  0  0  0  0  0  0  0  0  0  0  0
   -2.2772   -2.5528   -0.2992 C   0  0  0  0  0  0  0  0  0  0  0  0
    1.9568   -1.4028    0.8650 C   0  0  0  0  0  0  0  0  0  0  0  0
    0.1736    2.0999    0.5148 C   0  0  0  0  0  0  0  0  0  0  0  0
    0.0705   -0.8962   -1.5409 C   0  0  0  0  0  0  0  0  0  0  0  0
    3.2529   -0.8110    1.4113 C   0  0  0  0  0  0  0  0  0  0  0  0
    3.6916    0.4271    0.6173 C   0  0  2  0  0  0  0  0  0  0  0  0
   -3.1784    0.1133   -1.9332 C   0  0  0  0  0  0  0  0  0  0  0  0
    2.5482    1.3851    0.4278 C   0  0  0  0  0  0  0  0  0  0  0  0
   -3.9560    0.8374    0.2619 C   0  0  0  0  0  0  0  0  0  0  0  0
    4.3072    0.0647   -0.7344 C   0  0  0  0  0  0  0  0  0  0  0  0
    4.8006    1.3189   -1.4513 C   0  0  0  0  0  0  0  0  0  0  0  0
    5.4463   -0.9348   -0.5526 C   0  0  0  0  0  0  0  0  0  0  0  0
   -1.6575    0.3432    1.2178 H   0  0  0  0  0  0  0  0  0  0  0  0
    0.4214   -0.3528    1.8964 H   0  0  0  0  0  0  0  0  0  0  0  0
   -1.1038   -2.1875    1.4575 H   0  0  0  0  0  0  0  0  0  0  0  0
   -0.2251   -2.9681    0.1524 H   0  0  0  0  0  0  0  0  0  0  0  0
   -1.8298    2.4269   -0.1586 H   0  0  0  0  0  0  0  0  0  0  0  0
   -0.7978    1.6939   -1.3724 H   0  0  0  0  0  0  0  0  0  0  0  0
   -4.2860   -1.8171   -0.5117 H   0  0  0  0  0  0  0  0  0  0  0  0
   -3.5784   -1.5781    1.0643 H   0  0  0  0  0  0  0  0  0  0  0  0
   -2.6062   -3.5282    0.0791 H   0  0  0  0  0  0  0  0  0  0  0  0
   -2.1437   -2.6739   -1.3791 H   0  0  0  0  0  0  0  0  0  0  0  0
    2.1556   -1.7999   -0.1334 H   0  0  0  0  0  0  0  0  0  0  0  0
    1.6741   -2.2632    1.4839 H   0  0  0  0  0  0  0  0  0  0  0  0
   -0.1493    2.3080    1.5434 H   0  0  0  0  0  0  0  0  0  0  0  0
    0.5569    3.0455    0.1128 H   0  0  0  0  0  0  0  0  0  0  0  0
    0.5952    0.0043   -1.8729 H   0  0  0  0  0  0  0  0  0  0  0  0
   -0.7393   -1.0737   -2.2441 H   0  0  0  0  0  0  0  0  0  0  0  0
    0.7594   -1.7352   -1.6812 H   0  0  0  0  0  0  0  0  0  0  0  0
    3.0717   -0.5070    2.4526 H   0  0  0  0  0  0  0  0  0  0  0  0
    4.0274   -1.5792    1.4769 H   0  0  0  0  0  0  0  0  0  0  0  0
    4.4502    0.9394    1.2259 H   0  0  0  0  0  0  0  0  0  0  0  0
   -2.6489   -0.6236   -2.5366 H   0  0  0  0  0  0  0  0  0  0  0  0
   -2.8736    1.1104   -2.2670 H   0  0  0  0  0  0  0  0  0  0  0  0
   -4.2373    0.0027   -2.2017 H   0  0  0  0  0  0  0  0  0  0  0  0
    2.8067    2.4249    0.2413 H   0  0  0  0  0  0  0  0  0  0  0  0
    3.5560   -0.4030   -1.3844 H   0  0  0  0  0  0  0  0  0  0  0  0
    5.4959    1.8907   -0.8270 H   0  0  0  0  0  0  0  0  0  0  0  0
    3.9777    1.9779   -1.7452 H   0  0  0  0  0  0  0  0  0  0  0  0
    5.3286    1.0522   -2.3739 H   0  0  0  0  0  0  0  0  0  0  0  0
    6.1467   -0.6144    0.2261 H   0  0  0  0  0  0  0  0  0  0  0  0
    6.0159   -1.0430   -1.4829 H   0  0  0  0  0  0  0  0  0  0  0  0
    5.0783   -1.9352   -0.3068 H   0  0  0  0  0  0  0  0  0  0  0  0
   -4.5179    1.2869    2.0715 H   0  0  0  0  0  0  0  0  0  0  0  0
  1 19  1  0  0  0  0
  1 54  1  0  0  0  0
  2 19  2  0  0  0  0
  3  4  1  0  0  0  0
  3  5  1  0  0  0  0
  3  7  1  0  0  0  0
  3 14  1  0  0  0  0
  4  6  1  0  0  0  0
  4  8  1  0  0  0  0
  4 23  1  0  0  0  0
  5  9  1  0  0  0  0
  5 12  1  0  0  0  0
  5 24  1  0  0  0  0
  6 10  1  0  0  0  0
  6 17  1  0  0  0  0
  6 19  1  0  0  0  0
  7 11  1  0  0  0  0
  7 25  1  0  0  0  0
  7 26  1  0  0  0  0
  8 13  1  0  0  0  0
  8 27  1  0  0  0  0
  8 28  1  0  0  0  0
  9 13  1  0  0  0  0
  9 18  2  0  0  0  0
 10 11  1  0  0  0  0
 10 29  1  0  0  0  0
 10 30  1  0  0  0  0
 11 31  1  0  0  0  0
 11 32  1  0  0  0  0
 12 15  1  0  0  0  0
 12 33  1  0  0  0  0
 12 34  1  0  0  0  0
 13 35  1  0  0  0  0
 13 36  1  0  0  0  0
 14 37  1  0  0  0  0
 14 38  1  0  0  0  0
 14 39  1  0  0  0  0
 15 16  1  0  0  0  0
 15 40  1  0  0  0  0
 15 41  1  0  0  0  0
 16 18  1  0  0  0  0
 16 20  1  0  0  0  0
 16 42  1  0  0  0  0
 17 43  1  0  0  0  0
 17 44  1  0  0  0  0
 17 45  1  0  0  0  0
 18 46  1  0  0  0  0
 20 21  1  0  0  0  0
 20 22  1  0  0  0  0
 20 47  1  0  0  0  0
 21 48  1  0  0  0  0
 21 49  1  0  0  0  0
 21 50  1  0  0  0  0
 22 51  1  0  0  0  0
 22 52  1  0  0  0  0
 22 53  1  0  0  0  0
M  END
> <PUBCHEM_COMPOUND_CID>
44150026

> <PUBCHEM_CONFORMER_RMSD>
0.6

> <PUBCHEM_CONFORMER_DIVERSEORDER>
1
13
5
12
9
8
11
2
3
10
7
6
4

> <PUBCHEM_MMFF94_PARTIAL_CHARGES>
11
1 -0.65
13 0.14
16 0.14
18 -0.29
19 0.66
2 -0.57
46 0.15
5 0.14
54 0.5
6 0.06
9 -0.28

> <PUBCHEM_EFFECTIVE_ROTOR_COUNT>
3.8

> <PUBCHEM_PHARMACOPHORE_FEATURES>
7
1 1 acceptor
1 2 acceptor
3 1 2 19 anion
3 20 21 22 hydrophobe
6 3 4 5 8 9 13 rings
6 3 4 6 7 10 11 rings
6 5 9 12 15 16 18 rings

> <PUBCHEM_HEAVY_ATOM_COUNT>
22

> <PUBCHEM_ATOM_DEF_STEREO_COUNT>
5

> <PUBCHEM_ATOM_UDEF_STEREO_COUNT>
0

> <PUBCHEM_BOND_DEF_STEREO_COUNT>
0

> <PUBCHEM_BOND_UDEF_STEREO_COUNT>
0

> <PUBCHEM_ISOTOPIC_ATOM_COUNT>
0

> <PUBCHEM_COMPONENT_COUNT>
1

> <PUBCHEM_CACTVS_TAUTO_COUNT>
1

> <PUBCHEM_CONFORMER_ID>
02A1AD0A00000001

> <PUBCHEM_MMFF94_ENERGY>
65.9057

> <PUBCHEM_FEATURE_SELFOVERLAP>
35.609

> <PUBCHEM_SHAPE_FINGERPRINT>
10062212 137 18040722450170720215
10498660 4 18271814480034767748
10759866 29 18059858423713109866
10863032 1 18340778060851953035
11132069 177 18335712645100173577
12011746 2 18410017654280839781
12236239 1 18131351912862837834
12403814 3 17346606278731027751
12553582 1 18410864273543803104
12616971 3 17632581539681355546
12633257 1 18339935895143236138
12788726 201 18042684086220731944
13140716 1 18338813212040070592
13221675 6 18410300198509085354
13224815 77 17917718967732598074
13583140 156 16486426497834373691
13760787 19 18273498970107522322
14115302 16 18343580738030252508
14289901 80 16917080957164505531
14787075 74 17703783678870095739
14790565 3 18266451182241861873
14955137 171 18199446836507919289
15099037 51 18334858333165985852
15196674 1 18410014299716085792
15239154 128 17846222146162950100
15415430 112 18412544280018717194
1601671 61 18261388979330886776
16752209 62 18264783206032919664
16945 1 18339093651919158489
17349148 13 17894631439710241719
17804303 29 18334013856754327185
18186145 218 18342185440241431024
18785283 64 12822142254256249294
19862831 5 18342457037146645822
200 152 7709456108863308929
20281475 54 18341622515931148210
20871999 31 18340483349165818166
21069387 34 14418132877028051254
21267235 1 18410852118876195003
22854114 59 12031790262406258812
23175994 123 16877935006020894427
23227448 37 17560230315592829972
23402539 116 18260552242407948036
23493267 7 18334856099730458835
23557571 272 18262227837719854102
23559900 14 18334859390645929472
2748010 2 18050582745783780984
296302 2 16487257676906003601
3004659 81 18412822508933939230
3009799 131 7637115893461745651
335352 9 18409169947552549604
34934 24 18410584959262579560
350125 39 18341610361801506267
4325135 7 14117507723418202642
5104073 3 18411144597664198178
6034566 193 15837297695413055036
633830 44 18261399927065309372
9709674 26 18117003182466223994

> <PUBCHEM_SHAPE_MULTIPOLES>
441.01
9.48
2.18
1.36
5.07
0.39
0.3
-1.17
1.81
-0.94
-0.11
0.18
-0.04
-0.53

> <PUBCHEM_SHAPE_SELFOVERLAP>
921.741

> <PUBCHEM_SHAPE_VOLUME>
246.7

> <PUBCHEM_COORDINATE_TYPE>
2
5
10

$$$$

