428
  -OEChem-07051212452D

 15 14  0     0  0  0  0  0  0999 V2000
    2.5369    0.0600    0.0000 N   0  0  0  0  0  0  0  0  0  0  0  0
    6.0010    0.0600    0.0000 N   0  0  0  0  0  0  0  0  0  0  0  0
    4.2690    0.0600    0.0000 C   0  0  0  0  0  0  0  0  0  0  0  0
    3.4030    0.5600    0.0000 C   0  0  0  0  0  0  0  0  0  0  0  0
    5.1350    0.5600    0.0000 C   0  0  0  0  0  0  0  0  0  0  0  0
    3.8705   -0.4149    0.0000 H   0  0  0  0  0  0  0  0  0  0  0  0
    4.6675   -0.4149    0.0000 H   0  0  0  0  0  0  0  0  0  0  0  0
    3.8015    1.0350    0.0000 H   0  0  0  0  0  0  0  0  0  0  0  0
    3.0044    1.0350    0.0000 H   0  0  0  0  0  0  0  0  0  0  0  0
    5.5335    1.0350    0.0000 H   0  0  0  0  0  0  0  0  0  0  0  0
    4.7365    1.0350    0.0000 H   0  0  0  0  0  0  0  0  0  0  0  0
    2.0000    0.3700    0.0000 H   0  0  0  0  0  0  0  0  0  0  0  0
    2.5369   -0.5600    0.0000 H   0  0  0  0  0  0  0  0  0  0  0  0
    6.5380    0.3700    0.0000 H   0  0  0  0  0  0  0  0  0  0  0  0
    6.0010   -0.5600    0.0000 H   0  0  0  0  0  0  0  0  0  0  0  0
  1  4  1  0  0  0  0
  1 12  1  0  0  0  0
  1 13  1  0  0  0  0
  2  5  1  0  0  0  0
  2 14  1  0  0  0  0
  2 15  1  0  0  0  0
  3  4  1  0  0  0  0
  3  5  1  0  0  0  0
  3  6  1  0  0  0  0
  3  7  1  0  0  0  0
  4  8  1  0  0  0  0
  4  9  1  0  0  0  0
  5 10  1  0  0  0  0
  5 11  1  0  0  0  0
M  END
> <PUBCHEM_COMPOUND_CID>
428

> <PUBCHEM_COMPOUND_CANONICALIZED>
1

> <PUBCHEM_CACTVS_COMPLEXITY>
12.4

> <PUBCHEM_CACTVS_HBOND_ACCEPTOR>
2

> <PUBCHEM_CACTVS_HBOND_DONOR>
2

> <PUBCHEM_CACTVS_ROTATABLE_BOND>
2

> <PUBCHEM_CACTVS_SUBSKEYS>
AAADccBDAAAAAAAAAAAAAAAAAAAAAAAAAAAAAAAAAAAAAAAAAAAAHAAQAAAACADBAAQAAABAAAAAAAAAAAAAAAAAAAAAAIAAAAAAAAAAQAAAAAAAEAAAAAAAAAAAAAAAAAAAAAAAAAAAAAAAAAAAAAAAAA==

> <PUBCHEM_IUPAC_OPENEYE_NAME>
propane-1,3-diamine

> <PUBCHEM_IUPAC_CAS_NAME>
propane-1,3-diamine

> <PUBCHEM_IUPAC_NAME>
propane-1,3-diamine

> <PUBCHEM_IUPAC_SYSTEMATIC_NAME>
propane-1,3-diamine

> <PUBCHEM_IUPAC_TRADITIONAL_NAME>
3-aminopropylamine

> <PUBCHEM_IUPAC_INCHI>
InChI=1S/C3H10N2/c4-2-1-3-5/h1-5H2

> <PUBCHEM_IUPAC_INCHIKEY>
XFNJVJPLKCPIBV-UHFFFAOYSA-N

> <PUBCHEM_XLOGP3>
-1.4

> <PUBCHEM_EXACT_MASS>
74.084398

> <PUBCHEM_MOLECULAR_FORMULA>
C3H10N2

> <PUBCHEM_MOLECULAR_WEIGHT>
74.1249

> <PUBCHEM_OPENEYE_CAN_SMILES>
C(CN)CN

> <PUBCHEM_OPENEYE_ISO_SMILES>
C(CN)CN

> <PUBCHEM_CACTVS_TPSA>
52

> <PUBCHEM_MONOISOTOPIC_WEIGHT>
74.084398

> <PUBCHEM_TOTAL_CHARGE>
0

> <PUBCHEM_HEAVY_ATOM_COUNT>
5

> <PUBCHEM_ATOM_DEF_STEREO_COUNT>
0

> <PUBCHEM_ATOM_UDEF_STEREO_COUNT>
0

> <PUBCHEM_BOND_DEF_STEREO_COUNT>
0

> <PUBCHEM_BOND_UDEF_STEREO_COUNT>
0

> <PUBCHEM_ISOTOPIC_ATOM_COUNT>
0

> <PUBCHEM_COMPONENT_COUNT>
1

> <PUBCHEM_CACTVS_TAUTO_COUNT>
1

> <PUBCHEM_COORDINATE_TYPE>
1
5
255

$$$$

