441937
  -OEChem-07051212562D

113120  0     1  0  0  0  0  0999 V2000
    2.7275    2.0644    0.0000 O   0  0  0  0  0  0  0  0  0  0  0  0
    4.0935    2.4304    0.0000 O   0  0  0  0  0  0  0  0  0  0  0  0
   10.7866   -2.5087    0.0000 O   0  0  0  0  0  0  0  0  0  0  0  0
   12.5186   -2.5020    0.0000 O   0  0  0  0  0  0  0  0  0  0  0  0
   10.7789   -0.5087    0.0000 O   0  0  0  0  0  0  0  0  0  0  0  0
   12.5071    0.4979    0.0000 O   0  0  0  0  0  0  0  0  0  0  0  0
   14.2430   -0.4954    0.0000 O   0  0  0  0  0  0  0  0  0  0  0  0
   11.6391    0.9946    0.0000 O   0  0  0  0  0  0  0  0  0  0  0  0
   14.2545   -3.4954    0.0000 O   0  0  0  0  0  0  0  0  0  0  0  0
   15.1148   -1.9920    0.0000 O   0  0  0  0  0  0  0  0  0  0  0  0
    9.0430    0.4846    0.0000 O   0  0  0  0  0  0  0  0  0  0  0  0
    9.0353    2.4846    0.0000 O   0  0  0  0  0  0  0  0  0  0  0  0
   10.7635    3.4912    0.0000 O   0  0  0  0  0  0  0  0  0  0  0  0
    3.5935   -0.4772    0.0000 C   0  0  2  0  0  0  0  0  0  0  0  0
    3.5935    0.5644    0.0000 C   0  0  2  0  0  0  0  0  0  0  0  0
    2.6079   -0.7946    0.0000 C   0  0  1  0  0  0  0  0  0  0  0  0
    5.3935   -0.4564    0.0000 C   0  0  2  0  0  0  0  0  0  0  0  0
    4.4996    1.0783    0.0000 C   0  0  1  0  0  0  0  0  0  0  0  0
    6.2596   -0.9564    0.0000 C   0  0  1  0  0  0  0  0  0  0  0  0
    4.4996   -0.9911    0.0000 C   0  0  0  0  0  0  0  0  0  0  0  0
    4.0944   -0.4043    0.0000 C   0  0  0  0  0  0  0  0  0  0  0  0
    5.3935    0.5436    0.0000 C   0  0  0  0  0  0  0  0  0  0  0  0
    7.1256   -0.4564    0.0000 C   0  0  1  0  0  0  0  0  0  0  0  0
    2.6079    0.8818    0.0000 C   0  0  0  0  0  0  0  0  0  0  0  0
    2.0000    0.0436    0.0000 C   0  0  0  0  0  0  0  0  0  0  0  0
    8.0356   -0.9632    0.0000 C   0  0  2  0  0  0  0  0  0  0  0  0
    8.0436   -2.0048    0.0000 C   0  0  1  0  0  0  0  0  0  0  0  0
    6.2435   -1.9979    0.0000 C   0  0  0  0  0  0  0  0  0  0  0  0
    7.1256    0.5436    0.0000 C   0  0  0  0  0  0  0  0  0  0  0  0
    2.2713   -1.7363    0.0000 C   0  0  0  0  0  0  0  0  0  0  0  0
    6.2596    1.0436    0.0000 C   0  0  0  0  0  0  0  0  0  0  0  0
    7.1415   -2.5257    0.0000 C   0  0  0  0  0  0  0  0  0  0  0  0
    5.0516   -1.3961    0.0000 C   0  0  0  0  0  0  0  0  0  0  0  0
    3.5935    1.5644    0.0000 C   0  0  0  0  0  0  0  0  0  0  0  0
    5.6167   -1.7224    0.0000 C   0  0  0  0  0  0  0  0  0  0  0  0
    8.9790   -2.5546    0.0000 C   0  0  0  0  0  0  0  0  0  0  0  0
    8.9624   -0.3992    0.0000 C   0  0  0  0  0  0  0  0  0  0  0  0
    8.0279    0.0367    0.0000 C   0  0  0  0  0  0  0  0  0  0  0  0
    9.9187   -2.0121    0.0000 C   0  0  2  0  0  0  0  0  0  0  0  0
    9.9103   -0.9271    0.0000 C   0  0  0  0  0  0  0  0  0  0  0  0
    9.4757   -3.4225    0.0000 C   0  0  0  0  0  0  0  0  0  0  0  0
    8.4757   -3.4187    0.0000 C   0  0  0  0  0  0  0  0  0  0  0  0
   11.6507   -2.0054    0.0000 C   0  0  2  0  0  0  0  0  0  0  0  0
   11.6468   -1.0054    0.0000 C   0  0  1  0  0  0  0  0  0  0  0  0
   12.5109   -0.5021    0.0000 C   0  0  2  0  0  0  0  0  0  0  0  0
   13.3827   -1.9987    0.0000 C   0  0  1  0  0  0  0  0  0  0  0  0
   13.3789   -0.9987    0.0000 C   0  0  1  0  0  0  0  0  0  0  0  0
   10.7750    0.4912    0.0000 C   0  0  2  0  0  0  0  0  0  0  0  0
   14.2507   -2.4954    0.0000 C   0  0  0  0  0  0  0  0  0  0  0  0
    9.9071    0.9879    0.0000 C   0  0  1  0  0  0  0  0  0  0  0  0
    9.9032    1.9879    0.0000 C   0  0  2  0  0  0  0  0  0  0  0  0
   11.6353    1.9946    0.0000 C   0  0  0  0  0  0  0  0  0  0  0  0
   10.7673    2.4912    0.0000 C   0  0  1  0  0  0  0  0  0  0  0  0
    3.5935   -1.3272    0.0000 H   0  0  0  0  0  0  0  0  0  0  0  0
    4.9331    1.8094    0.0000 H   0  0  0  0  0  0  0  0  0  0  0  0
    4.1060   -1.4701    0.0000 H   0  0  0  0  0  0  0  0  0  0  0  0
    4.9042   -1.4608    0.0000 H   0  0  0  0  0  0  0  0  0  0  0  0
    4.1454   -1.0222    0.0000 H   0  0  0  0  0  0  0  0  0  0  0  0
    4.7118   -0.4614    0.0000 H   0  0  0  0  0  0  0  0  0  0  0  0
    7.8584   -0.0257    0.0000 H   0  0  0  0  0  0  0  0  0  0  0  0
    2.8589    1.4487    0.0000 H   0  0  0  0  0  0  0  0  0  0  0  0
    2.0705    1.1911    0.0000 H   0  0  0  0  0  0  0  0  0  0  0  0
    1.5391    0.4583    0.0000 H   0  0  0  0  0  0  0  0  0  0  0  0
    1.5391   -0.3711    0.0000 H   0  0  0  0  0  0  0  0  0  0  0  0
    8.0403   -2.8548    0.0000 H   0  0  0  0  0  0  0  0  0  0  0  0
    5.6343   -1.8824    0.0000 H   0  0  0  0  0  0  0  0  0  0  0  0
    6.0255   -2.5783    0.0000 H   0  0  0  0  0  0  0  0  0  0  0  0
    7.7362    0.4359    0.0000 H   0  0  0  0  0  0  0  0  0  0  0  0
    7.3376    1.1262    0.0000 H   0  0  0  0  0  0  0  0  0  0  0  0
    1.6875   -1.5276    0.0000 H   0  0  0  0  0  0  0  0  0  0  0  0
    2.0627   -2.3201    0.0000 H   0  0  0  0  0  0  0  0  0  0  0  0
    2.8552   -1.9450    0.0000 H   0  0  0  0  0  0  0  0  0  0  0  0
    6.2596    1.6636    0.0000 H   0  0  0  0  0  0  0  0  0  0  0  0
    6.7406   -2.9986    0.0000 H   0  0  0  0  0  0  0  0  0  0  0  0
    7.5388   -3.0016    0.0000 H   0  0  0  0  0  0  0  0  0  0  0  0
    4.4690   -1.1841    0.0000 H   0  0  0  0  0  0  0  0  0  0  0  0
    4.8396   -1.9788    0.0000 H   0  0  0  0  0  0  0  0  0  0  0  0
    5.6342   -1.6081    0.0000 H   0  0  0  0  0  0  0  0  0  0  0  0
    5.1418   -1.3239    0.0000 H   0  0  0  0  0  0  0  0  0  0  0  0
    5.2182   -2.1974    0.0000 H   0  0  0  0  0  0  0  0  0  0  0  0
    6.0917   -2.1210    0.0000 H   0  0  0  0  0  0  0  0  0  0  0  0
    9.3523    0.0829    0.0000 H   0  0  0  0  0  0  0  0  0  0  0  0
    8.5542    0.0675    0.0000 H   0  0  0  0  0  0  0  0  0  0  0  0
    8.6478    0.0415    0.0000 H   0  0  0  0  0  0  0  0  0  0  0  0
    8.0231    0.6567    0.0000 H   0  0  0  0  0  0  0  0  0  0  0  0
    7.4079    0.0319    0.0000 H   0  0  0  0  0  0  0  0  0  0  0  0
   10.4538   -1.6990    0.0000 H   0  0  0  0  0  0  0  0  0  0  0  0
   10.5220   -1.0285    0.0000 H   0  0  0  0  0  0  0  0  0  0  0  0
   10.1148   -0.3418    0.0000 H   0  0  0  0  0  0  0  0  0  0  0  0
    8.9376   -3.7304    0.0000 H   0  0  0  0  0  0  0  0  0  0  0  0
    9.7836   -3.9606    0.0000 H   0  0  0  0  0  0  0  0  0  0  0  0
   10.0138   -3.1146    0.0000 H   0  0  0  0  0  0  0  0  0  0  0  0
    7.9400   -3.1066    0.0000 H   0  0  0  0  0  0  0  0  0  0  0  0
    8.1636   -3.9544    0.0000 H   0  0  0  0  0  0  0  0  0  0  0  0
    9.0114   -3.7307    0.0000 H   0  0  0  0  0  0  0  0  0  0  0  0
    2.7275    2.6844    0.0000 H   0  0  0  0  0  0  0  0  0  0  0  0
   11.6531   -2.6254    0.0000 H   0  0  0  0  0  0  0  0  0  0  0  0
   11.1111   -1.3175    0.0000 H   0  0  0  0  0  0  0  0  0  0  0  0
   11.9728   -0.1941    0.0000 H   0  0  0  0  0  0  0  0  0  0  0  0
   13.3851   -2.6187    0.0000 H   0  0  0  0  0  0  0  0  0  0  0  0
   13.3765   -0.3787    0.0000 H   0  0  0  0  0  0  0  0  0  0  0  0
   10.2393    0.1792    0.0000 H   0  0  0  0  0  0  0  0  0  0  0  0
   13.0428    0.8100    0.0000 H   0  0  0  0  0  0  0  0  0  0  0  0
   14.2406    0.1246    0.0000 H   0  0  0  0  0  0  0  0  0  0  0  0
    9.9095    0.3679    0.0000 H   0  0  0  0  0  0  0  0  0  0  0  0
    9.9009    2.6079    0.0000 H   0  0  0  0  0  0  0  0  0  0  0  0
   14.7927   -3.8033    0.0000 H   0  0  0  0  0  0  0  0  0  0  0  0
   12.2463    1.8893    0.0000 H   0  0  0  0  0  0  0  0  0  0  0  0
   11.8451    2.5780    0.0000 H   0  0  0  0  0  0  0  0  0  0  0  0
   11.3031    2.8033    0.0000 H   0  0  0  0  0  0  0  0  0  0  0  0
    8.5049    0.7925    0.0000 H   0  0  0  0  0  0  0  0  0  0  0  0
    9.0329    3.1046    0.0000 H   0  0  0  0  0  0  0  0  0  0  0  0
   11.2992    3.8033    0.0000 H   0  0  0  0  0  0  0  0  0  0  0  0
  1 34  1  0  0  0  0
  1 96  1  0  0  0  0
  2 34  2  0  0  0  0
 39  3  1  6  0  0  0
 43  3  1  1  0  0  0
  4 43  1  0  0  0  0
  4 46  1  0  0  0  0
 44  5  1  6  0  0  0
 48  5  1  1  0  0  0
 45  6  1  1  0  0  0
  6103  1  0  0  0  0
 47  7  1  6  0  0  0
  7104  1  0  0  0  0
  8 48  1  0  0  0  0
  8 52  1  0  0  0  0
  9 49  1  0  0  0  0
  9107  1  0  0  0  0
 10 49  2  0  0  0  0
 50 11  1  6  0  0  0
 11111  1  0  0  0  0
 51 12  1  1  0  0  0
 12112  1  0  0  0  0
 53 13  1  6  0  0  0
 13113  1  0  0  0  0
 14 15  1  0  0  0  0
 14 16  1  0  0  0  0
 14 20  1  0  0  0  0
 14 54  1  6  0  0  0
 15 18  1  0  0  0  0
 15 24  1  0  0  0  0
 15 34  1  6  0  0  0
 16 21  1  0  0  0  0
 16 25  1  0  0  0  0
 16 30  1  6  0  0  0
 17 19  1  0  0  0  0
 17 20  1  0  0  0  0
 17 22  1  0  0  0  0
 17 33  1  1  0  0  0
 18 21  1  0  0  0  0
 18 22  1  0  0  0  0
 18 55  1  1  0  0  0
 19 23  1  0  0  0  0
 19 28  1  0  0  0  0
 19 35  1  6  0  0  0
 20 56  1  0  0  0  0
 20 57  1  0  0  0  0
 21 58  1  0  0  0  0
 21 59  1  0  0  0  0
 22 31  2  0  0  0  0
 23 26  1  0  0  0  0
 23 29  1  0  0  0  0
 23 60  1  1  0  0  0
 24 25  1  0  0  0  0
 24 61  1  0  0  0  0
 24 62  1  0  0  0  0
 25 63  1  0  0  0  0
 25 64  1  0  0  0  0
 26 27  1  0  0  0  0
 26 37  1  0  0  0  0
 26 38  1  6  0  0  0
 27 32  1  0  0  0  0
 27 36  1  0  0  0  0
 27 65  1  1  0  0  0
 28 32  1  0  0  0  0
 28 66  1  0  0  0  0
 28 67  1  0  0  0  0
 29 31  1  0  0  0  0
 29 68  1  0  0  0  0
 29 69  1  0  0  0  0
 30 70  1  0  0  0  0
 30 71  1  0  0  0  0
 30 72  1  0  0  0  0
 31 73  1  0  0  0  0
 32 74  1  0  0  0  0
 32 75  1  0  0  0  0
 33 76  1  0  0  0  0
 33 77  1  0  0  0  0
 33 78  1  0  0  0  0
 35 79  1  0  0  0  0
 35 80  1  0  0  0  0
 35 81  1  0  0  0  0
 36 39  1  0  0  0  0
 36 41  1  0  0  0  0
 36 42  1  0  0  0  0
 37 40  1  0  0  0  0
 37 82  1  0  0  0  0
 37 83  1  0  0  0  0
 38 84  1  0  0  0  0
 38 85  1  0  0  0  0
 38 86  1  0  0  0  0
 39 40  1  0  0  0  0
 39 87  1  0  0  0  0
 40 88  1  0  0  0  0
 40 89  1  0  0  0  0
 41 90  1  0  0  0  0
 41 91  1  0  0  0  0
 41 92  1  0  0  0  0
 42 93  1  0  0  0  0
 42 94  1  0  0  0  0
 42 95  1  0  0  0  0
 43 44  1  0  0  0  0
 43 97  1  0  0  0  0
 44 45  1  0  0  0  0
 44 98  1  0  0  0  0
 45 47  1  0  0  0  0
 45 99  1  0  0  0  0
 46 47  1  0  0  0  0
 46 49  1  1  0  0  0
 46100  1  0  0  0  0
 47101  1  0  0  0  0
 48 50  1  0  0  0  0
 48102  1  0  0  0  0
 50 51  1  0  0  0  0
 50105  1  0  0  0  0
 51 53  1  0  0  0  0
 51106  1  0  0  0  0
 52 53  1  0  0  0  0
 52108  1  0  0  0  0
 52109  1  0  0  0  0
 53110  1  0  0  0  0
M  END
> <PUBCHEM_COMPOUND_CID>
441937

> <PUBCHEM_COMPOUND_CANONICALIZED>
1

> <PUBCHEM_CACTVS_COMPLEXITY>
1550

> <PUBCHEM_CACTVS_HBOND_ACCEPTOR>
13

> <PUBCHEM_CACTVS_HBOND_DONOR>
7

> <PUBCHEM_CACTVS_ROTATABLE_BOND>
6

> <PUBCHEM_CACTVS_SUBSKEYS>
AAADcfB8PAAAAAAAAAAAAAAAAAAAAYMAAAA0aMGCBgAAAADAAAAAGgAACAAADxSwgAMCCAAABgCIAiDSCAIAAAAgAAAACAFAAAgREBYAAQQiQAAFoAAPAAPK7PzPgAAAAAAAAADAAAYAADAAAQAACAAAAA==

> <PUBCHEM_IUPAC_INCHI>
InChI=1S/C40H60O13/c1-35(2)21-9-12-38(5)22(8-7-18-19-15-36(3)13-14-40(19,34(48)49)23(36)16-39(18,38)6)37(21,4)11-10-24(35)51-33-30(27(44)26(43)29(52-33)31(46)47)53-32-28(45)25(42)20(41)17-50-32/h7,19-30,32-33,41-45H,8-17H2,1-6H3,(H,46,47)(H,48,49)/t19-,20+,21-,22+,23-,24-,25-,26-,27-,28+,29-,30+,32-,33+,36+,37-,38+,39+,40+/m0/s1

> <PUBCHEM_IUPAC_INCHIKEY>
BXKCSGRUPJSGIF-NLBSSAROSA-N

> <PUBCHEM_XLOGP3_AA>
3.7

> <PUBCHEM_EXACT_MASS>
748.403392

> <PUBCHEM_MOLECULAR_FORMULA>
C40H60O13

> <PUBCHEM_MOLECULAR_WEIGHT>
748.8966

> <PUBCHEM_OPENEYE_CAN_SMILES>
CC1(C2CCC3(C(C2(CCC1OC4C(C(C(C(O4)C(=O)O)O)O)OC5C(C(C(CO5)O)O)O)C)CC=C6C3(CC7C8(CCC7(C6C8)C(=O)O)C)C)C)C

> <PUBCHEM_OPENEYE_ISO_SMILES>
C[C@]12CC[C@@]3([C@H]1C[C@@]4(C(=CC[C@H]5[C@]4(CC[C@@H]6[C@@]5(CC[C@@H](C6(C)C)O[C@H]7[C@@H]([C@H]([C@@H]([C@H](O7)C(=O)O)O)O)O[C@H]8[C@@H]([C@H]([C@@H](CO8)O)O)O)C)C)[C@@H]3C2)C)C(=O)O

> <PUBCHEM_CACTVS_TPSA>
213

> <PUBCHEM_MONOISOTOPIC_WEIGHT>
748.403392

> <PUBCHEM_TOTAL_CHARGE>
0

> <PUBCHEM_HEAVY_ATOM_COUNT>
53

> <PUBCHEM_ATOM_DEF_STEREO_COUNT>
19

> <PUBCHEM_ATOM_UDEF_STEREO_COUNT>
0

> <PUBCHEM_BOND_DEF_STEREO_COUNT>
0

> <PUBCHEM_BOND_UDEF_STEREO_COUNT>
0

> <PUBCHEM_ISOTOPIC_ATOM_COUNT>
0

> <PUBCHEM_COMPONENT_COUNT>
1

> <PUBCHEM_CACTVS_TAUTO_COUNT>
1

> <PUBCHEM_COORDINATE_TYPE>
1
5
255

> <PUBCHEM_BONDANNOTATIONS>
50  11  6
51  12  5
53  13  6
14  54  6
15  34  6
16  30  6
17  33  5
18  55  5
19  35  6
23  60  5
26  38  6
27  65  5
39  3  6
43  3  5
46  49  5
44  5  6
48  5  5
45  6  5
47  7  6

$$$$

