445114
  -OEChem-07051212442D

 71 73  0     1  0  0  0  0  0999 V2000
    9.2136    0.9737    0.0000 P   0  0  3  0  0  0  0  0  0  0  0  0
   11.5278   -0.3086    0.0000 O   0  0  0  0  0  0  0  0  0  0  0  0
    9.8815    0.2294    0.0000 O   0  0  0  0  0  0  0  0  0  0  0  0
   12.4598    2.5429    0.0000 O   0  0  0  0  0  0  0  0  0  0  0  0
   13.7955    1.0543    0.0000 O   0  0  0  0  0  0  0  0  0  0  0  0
   10.5028    2.1305    0.0000 O   0  0  0  0  0  0  0  0  0  0  0  0
    9.9579    1.6416    0.0000 O   0  0  0  0  0  0  0  0  0  0  0  0
    8.4693    0.3059    0.0000 O   0  0  0  0  0  0  0  0  0  0  0  0
    7.9244   -0.1830    0.0000 O   0  0  0  0  0  0  0  0  0  0  0  0
    7.6138   -1.1335    0.0000 O   0  0  0  0  0  0  0  0  0  0  0  0
    6.3246   -2.2902    0.0000 O   0  0  0  0  0  0  0  0  0  0  0  0
    8.5458    1.7180    0.0000 N   0  0  0  0  0  0  0  0  0  0  0  0
    6.2781    0.3551    0.0000 N   0  0  0  0  0  0  0  0  0  0  0  0
    4.6783   -3.3616    0.0000 N   0  0  0  0  0  0  0  0  0  0  0  0
   12.1491    1.5924    0.0000 C   0  0  2  0  0  0  0  0  0  0  0  0
   12.8170    0.8481    0.0000 C   0  0  2  0  0  0  0  0  0  0  0  0
   11.1706    1.3862    0.0000 C   0  0  2  0  0  0  0  0  0  0  0  0
   12.5063   -0.1024    0.0000 C   0  0  2  0  0  0  0  0  0  0  0  0
   10.8600    0.4357    0.0000 C   0  0  1  0  0  0  0  0  0  0  0  0
   13.1742   -0.8467    0.0000 C   0  0  0  0  0  0  0  0  0  0  0  0
    7.5673    1.5118    0.0000 C   0  0  1  0  0  0  0  0  0  0  0  0
    6.8994    2.2561    0.0000 C   0  0  0  0  0  0  0  0  0  0  0  0
    7.2101    3.2066    0.0000 C   0  0  0  0  0  0  0  0  0  0  0  0
    7.2566    0.5613    0.0000 C   0  0  0  0  0  0  0  0  0  0  0  0
    5.9674   -0.5954    0.0000 C   0  0  1  0  0  0  0  0  0  0  0  0
    6.5422    3.9510    0.0000 C   0  0  0  0  0  0  0  0  0  0  0  0
    8.1886    3.4129    0.0000 C   0  0  0  0  0  0  0  0  0  0  0  0
    4.9889   -0.8016    0.0000 C   0  0  0  0  0  0  0  0  0  0  0  0
    4.6783   -1.7522    0.0000 C   0  0  0  0  0  0  0  0  0  0  0  0
    3.7320   -2.0569    0.0000 C   0  0  0  0  0  0  0  0  0  0  0  0
    6.6353   -1.3397    0.0000 C   0  0  0  0  0  0  0  0  0  0  0  0
    3.7320   -3.0569    0.0000 C   0  0  0  0  0  0  0  0  0  0  0  0
    5.2619   -2.5569    0.0000 C   0  0  0  0  0  0  0  0  0  0  0  0
    2.8660   -1.5569    0.0000 C   0  0  0  0  0  0  0  0  0  0  0  0
    2.8660   -3.5569    0.0000 C   0  0  0  0  0  0  0  0  0  0  0  0
    2.0000   -2.0569    0.0000 C   0  0  0  0  0  0  0  0  0  0  0  0
    2.0000   -3.0569    0.0000 C   0  0  0  0  0  0  0  0  0  0  0  0
   11.7351    2.0539    0.0000 H   0  0  0  0  0  0  0  0  0  0  0  0
   13.0096    1.4374    0.0000 H   0  0  0  0  0  0  0  0  0  0  0  0
   10.5640    1.2583    0.0000 H   0  0  0  0  0  0  0  0  0  0  0  0
   12.3137   -0.6917    0.0000 H   0  0  0  0  0  0  0  0  0  0  0  0
   10.6674   -0.1537    0.0000 H   0  0  0  0  0  0  0  0  0  0  0  0
    7.9813    1.0504    0.0000 H   0  0  0  0  0  0  0  0  0  0  0  0
   12.7127   -1.2608    0.0000 H   0  0  0  0  0  0  0  0  0  0  0  0
   13.5882   -1.3082    0.0000 H   0  0  0  0  0  0  0  0  0  0  0  0
   13.6356   -0.4327    0.0000 H   0  0  0  0  0  0  0  0  0  0  0  0
    6.3525    2.5482    0.0000 H   0  0  0  0  0  0  0  0  0  0  0  0
    6.5169    1.7682    0.0000 H   0  0  0  0  0  0  0  0  0  0  0  0
    7.4027    3.7960    0.0000 H   0  0  0  0  0  0  0  0  0  0  0  0
    8.7384    2.3074    0.0000 H   0  0  0  0  0  0  0  0  0  0  0  0
   13.0665    2.6708    0.0000 H   0  0  0  0  0  0  0  0  0  0  0  0
   14.2095    0.5929    0.0000 H   0  0  0  0  0  0  0  0  0  0  0  0
   10.6954    2.7198    0.0000 H   0  0  0  0  0  0  0  0  0  0  0  0
    5.5534   -0.1340    0.0000 H   0  0  0  0  0  0  0  0  0  0  0  0
    5.8640    0.8166    0.0000 H   0  0  0  0  0  0  0  0  0  0  0  0
    8.3164    2.8062    0.0000 H   0  0  0  0  0  0  0  0  0  0  0  0
    8.7953    3.5407    0.0000 H   0  0  0  0  0  0  0  0  0  0  0  0
    8.0607    4.0196    0.0000 H   0  0  0  0  0  0  0  0  0  0  0  0
    7.0037    4.3650    0.0000 H   0  0  0  0  0  0  0  0  0  0  0  0
    6.1282    4.4124    0.0000 H   0  0  0  0  0  0  0  0  0  0  0  0
    6.0808    3.5369    0.0000 H   0  0  0  0  0  0  0  0  0  0  0  0
    4.9684   -0.1820    0.0000 H   0  0  0  0  0  0  0  0  0  0  0  0
    4.3751   -0.7143    0.0000 H   0  0  0  0  0  0  0  0  0  0  0  0
    9.8301    2.2483    0.0000 H   0  0  0  0  0  0  0  0  0  0  0  0
    5.8819   -2.5569    0.0000 H   0  0  0  0  0  0  0  0  0  0  0  0
    4.8709   -3.9510    0.0000 H   0  0  0  0  0  0  0  0  0  0  0  0
    2.8660   -0.9369    0.0000 H   0  0  0  0  0  0  0  0  0  0  0  0
    2.8660   -4.1769    0.0000 H   0  0  0  0  0  0  0  0  0  0  0  0
    1.4631   -1.7469    0.0000 H   0  0  0  0  0  0  0  0  0  0  0  0
    1.4631   -3.3669    0.0000 H   0  0  0  0  0  0  0  0  0  0  0  0
    8.0279   -1.5950    0.0000 H   0  0  0  0  0  0  0  0  0  0  0  0
  1  3  1  0  0  0  0
  1  7  1  0  0  0  0
  1  8  2  0  0  0  0
  1 12  1  0  0  0  0
  2 18  1  0  0  0  0
  2 19  1  0  0  0  0
 19  3  1  1  0  0  0
 15  4  1  6  0  0  0
  4 51  1  0  0  0  0
 16  5  1  1  0  0  0
  5 52  1  0  0  0  0
 17  6  1  6  0  0  0
  6 53  1  0  0  0  0
  7 64  1  0  0  0  0
  9 24  2  0  0  0  0
 10 31  1  0  0  0  0
 10 71  1  0  0  0  0
 11 31  2  0  0  0  0
 21 12  1  6  0  0  0
 12 50  1  0  0  0  0
 13 24  1  0  0  0  0
 25 13  1  6  0  0  0
 13 55  1  0  0  0  0
 14 32  1  0  0  0  0
 14 33  1  0  0  0  0
 14 66  1  0  0  0  0
 15 16  1  0  0  0  0
 15 17  1  0  0  0  0
 15 38  1  0  0  0  0
 16 18  1  0  0  0  0
 16 39  1  0  0  0  0
 17 19  1  0  0  0  0
 17 40  1  0  0  0  0
 18 20  1  6  0  0  0
 18 41  1  0  0  0  0
 19 42  1  0  0  0  0
 20 44  1  0  0  0  0
 20 45  1  0  0  0  0
 20 46  1  0  0  0  0
 21 22  1  0  0  0  0
 21 24  1  0  0  0  0
 21 43  1  0  0  0  0
 22 23  1  0  0  0  0
 22 47  1  0  0  0  0
 22 48  1  0  0  0  0
 23 26  1  0  0  0  0
 23 27  1  0  0  0  0
 23 49  1  0  0  0  0
 25 28  1  0  0  0  0
 25 31  1  0  0  0  0
 25 54  1  0  0  0  0
 26 59  1  0  0  0  0
 26 60  1  0  0  0  0
 26 61  1  0  0  0  0
 27 56  1  0  0  0  0
 27 57  1  0  0  0  0
 27 58  1  0  0  0  0
 28 29  1  0  0  0  0
 28 62  1  0  0  0  0
 28 63  1  0  0  0  0
 29 30  1  0  0  0  0
 29 33  2  0  0  0  0
 30 32  1  0  0  0  0
 30 34  2  0  0  0  0
 32 35  2  0  0  0  0
 33 65  1  0  0  0  0
 34 36  1  0  0  0  0
 34 67  1  0  0  0  0
 35 37  1  0  0  0  0
 35 68  1  0  0  0  0
 36 37  2  0  0  0  0
 36 69  1  0  0  0  0
 37 70  1  0  0  0  0
M  END
> <PUBCHEM_COMPOUND_CID>
445114

> <PUBCHEM_COMPOUND_CANONICALIZED>
1

> <PUBCHEM_CACTVS_COMPLEXITY>
848

> <PUBCHEM_CACTVS_HBOND_ACCEPTOR>
11

> <PUBCHEM_CACTVS_HBOND_DONOR>
8

> <PUBCHEM_CACTVS_ROTATABLE_BOND>
11

> <PUBCHEM_CACTVS_SUBSKEYS>
AAADcfB7PAIAAAAAAAAAAAAAAAAAAWAAAAA0QAAAAAAAAFgB8AAAHgAQiCAADTzxngc+yPLJlxCoQzX3XICCgCAxAiAI2aG4ZJgbcPLAkbGWYAhllgDfyAfY+faOgAAAAAACAAAAAAAAAAQAAAAAAAAAAA==

> <PUBCHEM_IUPAC_OPENEYE_NAME>
(2S)-2-[[(2S)-2-[[hydroxy-[(2S,3R,4R,5R,6S)-3,4,5-trihydroxy-6-methyl-tetrahydropyran-2-yl]oxy-phosphoryl]amino]-4-methyl-pentanoyl]amino]-3-(1H-indol-3-yl)propanoic acid

> <PUBCHEM_IUPAC_CAS_NAME>
(2S)-2-[[(2S)-2-[[hydroxy-[[(2S,3R,4R,5R,6S)-3,4,5-trihydroxy-6-methyl-2-oxanyl]oxy]phosphoryl]amino]-4-methyl-1-oxopentyl]amino]-3-(1H-indol-3-yl)propanoic acid

> <PUBCHEM_IUPAC_NAME>
(2S)-2-[[(2S)-2-[[hydroxy-[(2S,3R,4R,5R,6S)-3,4,5-trihydroxy-6-methyloxan-2-yl]oxyphosphoryl]amino]-4-methylpentanoyl]amino]-3-(1H-indol-3-yl)propanoic acid

> <PUBCHEM_IUPAC_SYSTEMATIC_NAME>
(2S)-3-(1H-indol-3-yl)-2-[[(2S)-4-methyl-2-[[[(2S,3R,4R,5R,6S)-6-methyl-3,4,5-tris(oxidanyl)oxan-2-yl]oxy-oxidanyl-phosphoryl]amino]pentanoyl]amino]propanoic acid

> <PUBCHEM_IUPAC_TRADITIONAL_NAME>
(2S)-2-[[(2S)-2-[[hydroxy-[(2S,3R,4R,5R,6S)-3,4,5-trihydroxy-6-methyl-tetrahydropyran-2-yl]oxy-phosphoryl]amino]-4-methyl-pentanoyl]amino]-3-(1H-indol-3-yl)propionic acid

> <PUBCHEM_IUPAC_INCHI>
InChI=1S/C23H34N3O10P/c1-11(2)8-16(26-37(33,34)36-23-20(29)19(28)18(27)12(3)35-23)21(30)25-17(22(31)32)9-13-10-24-15-7-5-4-6-14(13)15/h4-7,10-12,16-20,23-24,27-29H,8-9H2,1-3H3,(H,25,30)(H,31,32)(H2,26,33,34)/t12-,16-,17-,18-,19+,20+,23-/m0/s1

> <PUBCHEM_IUPAC_INCHIKEY>
ZPHBZEQOLSRPAK-XLCYBJAPSA-N

> <PUBCHEM_XLOGP3_AA>
-0.2

> <PUBCHEM_EXACT_MASS>
543.198181

> <PUBCHEM_MOLECULAR_FORMULA>
C23H34N3O10P

> <PUBCHEM_MOLECULAR_WEIGHT>
543.503922

> <PUBCHEM_OPENEYE_CAN_SMILES>
CC1C(C(C(C(O1)OP(=O)(NC(CC(C)C)C(=O)NC(CC2=CNC3=CC=CC=C32)C(=O)O)O)O)O)O

> <PUBCHEM_OPENEYE_ISO_SMILES>
C[C@H]1[C@@H]([C@H]([C@H]([C@@H](O1)OP(=O)(N[C@@H](CC(C)C)C(=O)N[C@@H](CC2=CNC3=CC=CC=C32)C(=O)O)O)O)O)O

> <PUBCHEM_CACTVS_TPSA>
211

> <PUBCHEM_MONOISOTOPIC_WEIGHT>
543.198181

> <PUBCHEM_TOTAL_CHARGE>
0

> <PUBCHEM_HEAVY_ATOM_COUNT>
37

> <PUBCHEM_ATOM_DEF_STEREO_COUNT>
7

> <PUBCHEM_ATOM_UDEF_STEREO_COUNT>
0

> <PUBCHEM_BOND_DEF_STEREO_COUNT>
0

> <PUBCHEM_BOND_UDEF_STEREO_COUNT>
0

> <PUBCHEM_ISOTOPIC_ATOM_COUNT>
0

> <PUBCHEM_COMPONENT_COUNT>
1

> <PUBCHEM_CACTVS_TAUTO_COUNT>
4

> <PUBCHEM_COORDINATE_TYPE>
1
5
255

> <PUBCHEM_BONDANNOTATIONS>
21  12  6
25  13  6
14  32  8
14  33  8
18  20  6
29  30  8
29  33  8
19  3  5
30  32  8
30  34  8
32  35  8
34  36  8
35  37  8
36  37  8
15  4  6
16  5  5
17  6  6

$$$$

