9000
  -OEChem-06261203192D

  9  8  0     1  0  0  0  0  0999 V2000
    3.4030    0.2500    0.0000 S   0  0  3  0  0  0  0  0  0  0  0  0
    5.1350    0.2500    0.0000 O   0  0  0  0  0  0  0  0  0  0  0  0
    2.5369    0.7500    0.0000 O   0  0  0  0  0  0  0  0  0  0  0  0
    3.4030   -0.7500    0.0000 O   0  0  0  0  0  0  0  0  0  0  0  0
    4.2690    0.7500    0.0000 C   0  0  0  0  0  0  0  0  0  0  0  0
    4.6675    1.2250    0.0000 H   0  0  0  0  0  0  0  0  0  0  0  0
    3.8705    1.2250    0.0000 H   0  0  0  0  0  0  0  0  0  0  0  0
    5.6720    0.5600    0.0000 H   0  0  0  0  0  0  0  0  0  0  0  0
    2.0000    0.4400    0.0000 H   0  0  0  0  0  0  0  0  0  0  0  0
  1  3  1  0  0  0  0
  1  4  2  0  0  0  0
  1  5  1  0  0  0  0
  2  5  1  0  0  0  0
  2  8  1  0  0  0  0
  3  9  1  0  0  0  0
  5  6  1  0  0  0  0
  5  7  1  0  0  0  0
M  END
> <PUBCHEM_COMPOUND_CID>
9000

> <PUBCHEM_COMPOUND_CANONICALIZED>
1

> <PUBCHEM_CACTVS_COMPLEXITY>
42.2

> <PUBCHEM_CACTVS_HBOND_ACCEPTOR>
4

> <PUBCHEM_CACTVS_HBOND_DONOR>
2

> <PUBCHEM_CACTVS_ROTATABLE_BOND>
1

> <PUBCHEM_CACTVS_SUBSKEYS>
AAADcYAAMABAAAAAAAAAAAAAAAAAAAAAAAAAAAAAAAAAAAAAAAAAEgQACAAAAAAAAAKAAAAAAoIAAAAAAGAAAAAAAAAAAAAAAAAAEAAAAAAAAAAAAAAAAAAAAAAAAAAAAAAAAAAAAAAAAAAAAAAAAAAAAA==

> <PUBCHEM_IUPAC_OPENEYE_NAME>
hydroxymethanesulfinic acid

> <PUBCHEM_IUPAC_CAS_NAME>
hydroxymethanesulfinic acid

> <PUBCHEM_IUPAC_NAME>
hydroxymethanesulfinic acid

> <PUBCHEM_IUPAC_SYSTEMATIC_NAME>
oxidanylmethanesulfinic acid

> <PUBCHEM_IUPAC_TRADITIONAL_NAME>
hydroxymethanesulfinic acid

> <PUBCHEM_IUPAC_INCHI>
InChI=1S/CH4O3S/c2-1-5(3)4/h2H,1H2,(H,3,4)

> <PUBCHEM_IUPAC_INCHIKEY>
SBGKURINHGJRFN-UHFFFAOYSA-N

> <PUBCHEM_XLOGP3_AA>
-1.2

> <PUBCHEM_EXACT_MASS>
95.988115

> <PUBCHEM_MOLECULAR_FORMULA>
CH4O3S

> <PUBCHEM_MOLECULAR_WEIGHT>
96.10566

> <PUBCHEM_OPENEYE_CAN_SMILES>
C(O)S(=O)O

> <PUBCHEM_OPENEYE_ISO_SMILES>
C(O)S(=O)O

> <PUBCHEM_CACTVS_TPSA>
76.7

> <PUBCHEM_MONOISOTOPIC_WEIGHT>
95.988115

> <PUBCHEM_TOTAL_CHARGE>
0

> <PUBCHEM_HEAVY_ATOM_COUNT>
5

> <PUBCHEM_ATOM_DEF_STEREO_COUNT>
0

> <PUBCHEM_ATOM_UDEF_STEREO_COUNT>
0

> <PUBCHEM_BOND_DEF_STEREO_COUNT>
0

> <PUBCHEM_BOND_UDEF_STEREO_COUNT>
0

> <PUBCHEM_ISOTOPIC_ATOM_COUNT>
0

> <PUBCHEM_COMPONENT_COUNT>
1

> <PUBCHEM_CACTVS_TAUTO_COUNT>
1

> <PUBCHEM_COORDINATE_TYPE>
1
5
255

$$$$

