46173945
  -OEChem-07051213103D

 32 32  0     1  0  0  0  0  0999 V2000
   -0.2092   -0.0157    2.3190 O   0  0  0  0  0  0  0  0  0  0  0  0
   -2.1468    1.4146    0.6294 O   0  0  0  0  0  0  0  0  0  0  0  0
   -2.1270   -1.4386    0.6291 O   0  0  0  0  0  0  0  0  0  0  0  0
   -0.5698    0.0324   -2.3404 O   0  0  0  0  0  0  0  0  0  0  0  0
    1.3306    1.6066   -0.6081 N   0  0  0  0  0  0  0  0  0  0  0  0
    1.3284   -1.5986   -0.6318 N   0  0  0  0  0  0  0  0  0  0  0  0
    0.2592   -1.3095    0.3261 C   0  0  1  0  0  0  0  0  0  0  0  0
    0.2611    1.3048    0.3456 C   0  0  2  0  0  0  0  0  0  0  0  0
    0.5519   -0.0080    1.1039 C   0  0  0  0  0  0  0  0  0  0  0  0
   -1.1176   -1.2786   -0.3695 C   0  0  2  0  0  0  0  0  0  0  0  0
   -1.1164    1.2843   -0.3517 C   0  0  1  0  0  0  0  0  0  0  0  0
   -1.3784    0.0097   -1.1686 C   0  0  0  0  0  0  0  0  0  0  0  0
    2.4651   -2.1995    0.0426 C   0  0  0  0  0  0  0  0  0  0  0  0
    2.4688    2.1960    0.0744 C   0  0  0  0  0  0  0  0  0  0  0  0
    0.2061   -2.1296    1.0574 H   0  0  0  0  0  0  0  0  0  0  0  0
    0.2056    2.1191    1.0827 H   0  0  0  0  0  0  0  0  0  0  0  0
    1.5855   -0.0172    1.4595 H   0  0  0  0  0  0  0  0  0  0  0  0
   -1.2081    2.1592   -1.0080 H   0  0  0  0  0  0  0  0  0  0  0  0
   -1.2102   -2.1394   -1.0441 H   0  0  0  0  0  0  0  0  0  0  0  0
   -2.4283    0.0055   -1.4881 H   0  0  0  0  0  0  0  0  0  0  0  0
    0.9932    2.2735   -1.3019 H   0  0  0  0  0  0  0  0  0  0  0  0
    0.9902   -2.2553   -1.3349 H   0  0  0  0  0  0  0  0  0  0  0  0
    0.0509    0.7658    2.8359 H   0  0  0  0  0  0  0  0  0  0  0  0
   -1.9951   -2.3067    1.0469 H   0  0  0  0  0  0  0  0  0  0  0  0
   -2.0116    2.2608    1.0889 H   0  0  0  0  0  0  0  0  0  0  0  0
   -0.7966    0.8351   -2.8401 H   0  0  0  0  0  0  0  0  0  0  0  0
    3.2311   -2.4425   -0.7015 H   0  0  0  0  0  0  0  0  0  0  0  0
    2.9354   -1.5263    0.7643 H   0  0  0  0  0  0  0  0  0  0  0  0
    3.2362    2.4458   -0.6660 H   0  0  0  0  0  0  0  0  0  0  0  0
    2.2013    3.1250    0.5893 H   0  0  0  0  0  0  0  0  0  0  0  0
    2.9357    1.5124    0.7884 H   0  0  0  0  0  0  0  0  0  0  0  0
    2.1956   -3.1341    0.5461 H   0  0  0  0  0  0  0  0  0  0  0  0
  1  9  1  0  0  0  0
  1 23  1  0  0  0  0
  2 11  1  0  0  0  0
  2 25  1  0  0  0  0
  3 10  1  0  0  0  0
  3 24  1  0  0  0  0
  4 12  1  0  0  0  0
  4 26  1  0  0  0  0
  5  8  1  0  0  0  0
  5 14  1  0  0  0  0
  5 21  1  0  0  0  0
  6  7  1  0  0  0  0
  6 13  1  0  0  0  0
  6 22  1  0  0  0  0
  7  9  1  0  0  0  0
  7 10  1  0  0  0  0
  7 15  1  0  0  0  0
  8  9  1  0  0  0  0
  8 11  1  0  0  0  0
  8 16  1  0  0  0  0
  9 17  1  0  0  0  0
 10 12  1  0  0  0  0
 10 19  1  0  0  0  0
 11 12  1  0  0  0  0
 11 18  1  0  0  0  0
 12 20  1  0  0  0  0
 13 27  1  0  0  0  0
 13 28  1  0  0  0  0
 13 32  1  0  0  0  0
 14 29  1  0  0  0  0
 14 30  1  0  0  0  0
 14 31  1  0  0  0  0
M  END
> <PUBCHEM_COMPOUND_CID>
46173945

> <PUBCHEM_CONFORMER_RMSD>
0.6

> <PUBCHEM_CONFORMER_DIVERSEORDER>
1
2
3
4
7
5
6

> <PUBCHEM_MMFF94_PARTIAL_CHARGES>
20
1 -0.68
10 0.28
11 0.28
12 0.28
13 0.27
14 0.27
2 -0.68
21 0.36
22 0.36
23 0.4
24 0.4
25 0.4
26 0.4
3 -0.68
4 -0.68
5 -0.9
6 -0.9
7 0.27
8 0.27
9 0.28

> <PUBCHEM_EFFECTIVE_ROTOR_COUNT>
3.2

> <PUBCHEM_PHARMACOPHORE_FEATURES>
13
1 1 acceptor
1 1 donor
1 2 acceptor
1 2 donor
1 3 acceptor
1 3 donor
1 4 acceptor
1 4 donor
1 5 cation
1 5 donor
1 6 cation
1 6 donor
6 7 8 9 10 11 12 rings

> <PUBCHEM_HEAVY_ATOM_COUNT>
14

> <PUBCHEM_ATOM_DEF_STEREO_COUNT>
4

> <PUBCHEM_ATOM_UDEF_STEREO_COUNT>
0

> <PUBCHEM_BOND_DEF_STEREO_COUNT>
0

> <PUBCHEM_BOND_UDEF_STEREO_COUNT>
0

> <PUBCHEM_ISOTOPIC_ATOM_COUNT>
0

> <PUBCHEM_COMPONENT_COUNT>
1

> <PUBCHEM_CACTVS_TAUTO_COUNT>
1

> <PUBCHEM_CONFORMER_ID>
02C08EF900000001

> <PUBCHEM_MMFF94_ENERGY>
31.8036

> <PUBCHEM_FEATURE_SELFOVERLAP>
65.982

> <PUBCHEM_SHAPE_FINGERPRINT>
12423570 1 17413874223877283991
13024252 1 11885089069926178054
13380535 239 18201452328188681071
15557651 10 17129297846865646309
16945 1 18411412925471643197
20473742 2 18127688438328797517
20511035 2 17968106381493036721
22344851 12 9505275578466515869
23419403 2 17844218865825648531
241688 4 17470208037070246839
5084963 1 17898873484672674813
528886 8 17903923249072614707
54276843 12 17463419656586115105

> <PUBCHEM_SHAPE_MULTIPOLES>
254.67
2.72
2.45
1.54
0.8
0
-0.05
-0.01
0.11
1.52
0.09
-0.43
0
0.01

> <PUBCHEM_SHAPE_SELFOVERLAP>
502.534

> <PUBCHEM_SHAPE_VOLUME>
151.7

> <PUBCHEM_COORDINATE_TYPE>
2
5
10

$$$$

