17038
  -OEChem-07051213123D

 27 28  0     1  0  0  0  0  0999 V2000
    2.4320   -1.7760    1.0328 Cl  0  0  0  0  0  0  0  0  0  0  0  0
    4.2040   -0.7914   -1.0490 Cl  0  0  0  0  0  0  0  0  0  0  0  0
    3.8975    1.0902    1.7243 Cl  0  0  0  0  0  0  0  0  0  0  0  0
    2.8390    2.2642   -0.7039 Cl  0  0  0  0  0  0  0  0  0  0  0  0
    1.2945   -0.6732   -1.4678 S   0  0  0  0  0  0  0  0  0  0  0  0
   -0.3328    1.8853   -0.8176 O   0  0  0  0  0  0  0  0  0  0  0  0
   -0.4228   -2.6367    0.2141 O   0  0  0  0  0  0  0  0  0  0  0  0
   -0.0605   -0.4268   -0.5030 N   0  0  0  0  0  0  0  0  0  0  0  0
   -1.6486    0.6270    0.8037 C   0  0  2  0  0  0  0  0  0  0  0  0
   -2.0064   -0.8606    0.6868 C   0  0  1  0  0  0  0  0  0  0  0  0
   -2.8190    1.6046    0.7814 C   0  0  0  0  0  0  0  0  0  0  0  0
   -3.1465   -1.1793   -0.2942 C   0  0  0  0  0  0  0  0  0  0  0  0
   -0.6225    0.8189   -0.2965 C   0  0  0  0  0  0  0  0  0  0  0  0
   -0.7246   -1.4543    0.1388 C   0  0  0  0  0  0  0  0  0  0  0  0
   -4.0007    1.1531   -0.0132 C   0  0  0  0  0  0  0  0  0  0  0  0
   -4.1456   -0.0865   -0.4917 C   0  0  0  0  0  0  0  0  0  0  0  0
    2.6346   -0.4764   -0.2085 C   0  0  0  0  0  0  0  0  0  0  0  0
    2.6284    0.9178    0.4635 C   0  0  0  0  0  0  0  0  0  0  0  0
   -1.0874    0.7890    1.7364 H   0  0  0  0  0  0  0  0  0  0  0  0
   -2.2179   -1.2770    1.6780 H   0  0  0  0  0  0  0  0  0  0  0  0
   -2.4944    2.5818    0.4060 H   0  0  0  0  0  0  0  0  0  0  0  0
   -3.1639    1.7658    1.8106 H   0  0  0  0  0  0  0  0  0  0  0  0
   -3.6730   -2.0701    0.0715 H   0  0  0  0  0  0  0  0  0  0  0  0
   -2.7547   -1.4539   -1.2824 H   0  0  0  0  0  0  0  0  0  0  0  0
   -4.7856    1.8818   -0.1961 H   0  0  0  0  0  0  0  0  0  0  0  0
   -5.0371   -0.3264   -1.0646 H   0  0  0  0  0  0  0  0  0  0  0  0
    1.6915    1.1021    0.9930 H   0  0  0  0  0  0  0  0  0  0  0  0
  1 17  1  0  0  0  0
  2 17  1  0  0  0  0
  3 18  1  0  0  0  0
  4 18  1  0  0  0  0
  5  8  1  0  0  0  0
  5 17  1  0  0  0  0
  6 13  2  0  0  0  0
  7 14  2  0  0  0  0
  8 13  1  0  0  0  0
  8 14  1  0  0  0  0
  9 10  1  0  0  0  0
  9 11  1  0  0  0  0
  9 13  1  0  0  0  0
  9 19  1  0  0  0  0
 10 12  1  0  0  0  0
 10 14  1  0  0  0  0
 10 20  1  0  0  0  0
 11 15  1  0  0  0  0
 11 21  1  0  0  0  0
 11 22  1  0  0  0  0
 12 16  1  0  0  0  0
 12 23  1  0  0  0  0
 12 24  1  0  0  0  0
 15 16  2  0  0  0  0
 15 25  1  0  0  0  0
 16 26  1  0  0  0  0
 17 18  1  0  0  0  0
 18 27  1  0  0  0  0
M  END
> <PUBCHEM_COMPOUND_CID>
17038

> <PUBCHEM_CONFORMER_RMSD>
0.6

> <PUBCHEM_CONFORMER_DIVERSEORDER>
1
6
3
8
13
5
11
2
10
9
7
4
12
14
15

> <PUBCHEM_MMFF94_PARTIAL_CHARGES>
20
1 -0.29
10 0.06
11 0.14
12 0.14
13 0.57
14 0.57
15 -0.29
16 -0.29
17 0.81
18 0.58
2 -0.29
25 0.15
26 0.15
3 -0.29
4 -0.29
5 -0.22
6 -0.57
7 -0.57
8 -0.13
9 0.06

> <PUBCHEM_EFFECTIVE_ROTOR_COUNT>
3.6

> <PUBCHEM_PHARMACOPHORE_FEATURES>
4
1 6 acceptor
1 7 acceptor
5 8 9 10 13 14 rings
6 9 10 11 12 15 16 rings

> <PUBCHEM_HEAVY_ATOM_COUNT>
18

> <PUBCHEM_ATOM_DEF_STEREO_COUNT>
0

> <PUBCHEM_ATOM_UDEF_STEREO_COUNT>
2

> <PUBCHEM_BOND_DEF_STEREO_COUNT>
0

> <PUBCHEM_BOND_UDEF_STEREO_COUNT>
0

> <PUBCHEM_ISOTOPIC_ATOM_COUNT>
0

> <PUBCHEM_COMPONENT_COUNT>
1

> <PUBCHEM_CACTVS_TAUTO_COUNT>
3

> <PUBCHEM_CONFORMER_ID>
0000428E00000001

> <PUBCHEM_MMFF94_ENERGY>
29.6444

> <PUBCHEM_FEATURE_SELFOVERLAP>
20.479

> <PUBCHEM_SHAPE_FINGERPRINT>
10646746 165 18409164450152653093
11132069 177 18408327674427529889
11543360 7 16588033398307606013
12011746 2 18340200890578131126
12251169 10 18340774762691564024
12403259 415 18410292553478335069
12633257 1 18189895503429850024
13140716 1 18338509841552238761
13583140 156 16773233977259886745
15536298 74 18261111867982757616
15775835 57 18271235135974886722
16945 1 18119240666958771801
17349148 13 18411700967775135527
1813 80 16557357136300654306
18186145 218 18409449223622055661
200 152 16877943875334049687
20510252 161 18260261919877560331
20528008 55 18408041801282761455
23402539 116 18334580165266731215
23532345 42 18341614784842237633
23557571 272 18190172399787235023
23559900 14 18334852831771737902
2748010 2 18339622495885630199
296302 2 16200144396015244030
3286 77 17603867827560022196
474 4 18411692223211457065
495365 180 17603595144312846824
5104073 3 18260264153060477819
6333272 397 18411697660423529081
633830 44 18114184176455254821
7364860 26 17974846478003196311
74978 22 18342166744085228846
9709674 26 18263078829744489790

> <PUBCHEM_SHAPE_MULTIPOLES>
365.04
7.7
2.28
1.28
0.6
0.02
0.1
-1.52
0.3
-0.55
0.12
-1.14
-0.09
0.1

> <PUBCHEM_SHAPE_SELFOVERLAP>
709.86

> <PUBCHEM_SHAPE_VOLUME>
222.6

> <PUBCHEM_COORDINATE_TYPE>
2
5
10

$$$$

