56928161
  -OEChem-07051213152D

 70 75  0     1  0  0  0  0  0999 V2000
    4.4683    2.4136    0.0000 O   0  0  0  0  0  0  0  0  0  0  0  0
    3.6022    1.9136    0.0000 O   0  0  0  0  0  0  0  0  0  0  0  0
    7.5645   -1.8488    0.0000 O   0  0  0  0  0  0  0  0  0  0  0  0
    6.6115   -2.3990    0.0000 O   0  0  0  0  0  0  0  0  0  0  0  0
    7.9705    1.4105    0.0000 O   0  0  0  0  0  0  0  0  0  0  0  0
    4.8082    3.8153    0.0000 O   0  0  0  0  0  0  0  0  0  0  0  0
    3.7104   -2.8819    0.0000 O   0  0  0  0  0  0  0  0  0  0  0  0
    6.2003    1.4136    0.0000 N   0  0  0  0  0  0  0  0  0  0  0  0
    6.2163    3.4829    0.0000 N   0  0  0  0  0  0  0  0  0  0  0  0
    5.0193   -1.1408    0.0000 N   0  0  0  0  0  0  0  0  0  0  0  0
    5.3343    1.9136    0.0000 C   0  0  2  0  0  0  0  0  0  0  0  0
    6.2003    0.4136    0.0000 C   0  0  2  0  0  0  0  0  0  0  0  0
    4.4683    1.4136    0.0000 C   0  0  2  0  0  0  0  0  0  0  0  0
    7.1183    2.9621    0.0000 C   0  0  2  0  0  0  0  0  0  0  0  0
    5.3343   -0.0864    0.0000 C   0  0  0  0  0  0  0  0  0  0  0  0
    4.4683    0.4136    0.0000 C   0  0  0  0  0  0  0  0  0  0  0  0
    7.2710    0.1593    0.0000 C   0  0  0  0  0  0  0  0  0  0  0  0
    7.1103    1.9205    0.0000 C   0  0  0  0  0  0  0  0  0  0  0  0
    5.3182    2.9552    0.0000 C   0  0  0  0  0  0  0  0  0  0  0  0
    7.8860    3.6570    0.0000 C   0  0  0  0  0  0  0  0  0  0  0  0
    6.4342    4.4952    0.0000 C   0  0  0  0  0  0  0  0  0  0  0  0
    7.4641    4.6025    0.0000 C   0  0  0  0  0  0  0  0  0  0  0  0
    7.8392   -0.7831    0.0000 C   0  0  0  0  0  0  0  0  0  0  0  0
    3.6932   -0.2087    0.0000 C   0  0  0  0  0  0  0  0  0  0  0  0
    4.0253   -1.1455    0.0000 C   0  0  0  0  0  0  0  0  0  0  0  0
    5.5513   -2.1041    0.0000 C   0  0  1  0  0  0  0  0  0  0  0  0
    8.8088   -1.0282    0.0000 C   0  0  0  0  0  0  0  0  0  0  0  0
    8.6980   -0.2708    0.0000 C   0  0  0  0  0  0  0  0  0  0  0  0
    2.6782   -0.0046    0.0000 C   0  0  0  0  0  0  0  0  0  0  0  0
    3.3654   -1.9433    0.0000 C   0  0  0  0  0  0  0  0  0  0  0  0
    4.9313   -2.8887    0.0000 C   0  0  0  0  0  0  0  0  0  0  0  0
    2.0000   -0.7869    0.0000 C   0  0  0  0  0  0  0  0  0  0  0  0
    2.3459   -1.7628    0.0000 C   0  0  0  0  0  0  0  0  0  0  0  0
    5.3007   -3.8179    0.0000 C   0  0  0  0  0  0  0  0  0  0  0  0
    4.6807   -4.6025    0.0000 C   0  0  0  0  0  0  0  0  0  0  0  0
    6.2902   -3.9626    0.0000 C   0  0  0  0  0  0  0  0  0  0  0  0
    3.0700   -3.6499    0.0000 C   0  0  0  0  0  0  0  0  0  0  0  0
    6.8672    0.9407    0.0000 H   0  0  0  0  0  0  0  0  0  0  0  0
    3.9313    1.1036    0.0000 H   0  0  0  0  0  0  0  0  0  0  0  0
    7.8940    2.6144    0.0000 H   0  0  0  0  0  0  0  0  0  0  0  0
    7.8662    0.3330    0.0000 H   0  0  0  0  0  0  0  0  0  0  0  0
    7.2553    0.7791    0.0000 H   0  0  0  0  0  0  0  0  0  0  0  0
    8.2515    3.1561    0.0000 H   0  0  0  0  0  0  0  0  0  0  0  0
    8.4225    3.9677    0.0000 H   0  0  0  0  0  0  0  0  0  0  0  0
    6.4351    5.1152    0.0000 H   0  0  0  0  0  0  0  0  0  0  0  0
    5.8177    4.5612    0.0000 H   0  0  0  0  0  0  0  0  0  0  0  0
    8.0537    4.7943    0.0000 H   0  0  0  0  0  0  0  0  0  0  0  0
    7.3353    5.2090    0.0000 H   0  0  0  0  0  0  0  0  0  0  0  0
    5.7436   -2.6935    0.0000 H   0  0  0  0  0  0  0  0  0  0  0  0
    4.1583    2.9506    0.0000 H   0  0  0  0  0  0  0  0  0  0  0  0
    3.0653    1.6036    0.0000 H   0  0  0  0  0  0  0  0  0  0  0  0
    9.0157   -0.8033    0.0000 H   0  0  0  0  0  0  0  0  0  0  0  0
    9.2305    0.0468    0.0000 H   0  0  0  0  0  0  0  0  0  0  0  0
    8.3804    0.2616    0.0000 H   0  0  0  0  0  0  0  0  0  0  0  0
    8.6568   -1.6293    0.0000 H   0  0  0  0  0  0  0  0  0  0  0  0
    9.4099   -1.1801    0.0000 H   0  0  0  0  0  0  0  0  0  0  0  0
    8.9607   -0.4271    0.0000 H   0  0  0  0  0  0  0  0  0  0  0  0
    2.4778    0.5821    0.0000 H   0  0  0  0  0  0  0  0  0  0  0  0
    4.3178   -2.7990    0.0000 H   0  0  0  0  0  0  0  0  0  0  0  0
    1.3908   -0.6718    0.0000 H   0  0  0  0  0  0  0  0  0  0  0  0
    1.9452   -2.2359    0.0000 H   0  0  0  0  0  0  0  0  0  0  0  0
    4.1943   -4.2181    0.0000 H   0  0  0  0  0  0  0  0  0  0  0  0
    4.2963   -5.0890    0.0000 H   0  0  0  0  0  0  0  0  0  0  0  0
    5.1672   -4.9869    0.0000 H   0  0  0  0  0  0  0  0  0  0  0  0
    6.2005   -4.5761    0.0000 H   0  0  0  0  0  0  0  0  0  0  0  0
    6.9037   -4.0523    0.0000 H   0  0  0  0  0  0  0  0  0  0  0  0
    6.3799   -3.3491    0.0000 H   0  0  0  0  0  0  0  0  0  0  0  0
    2.5938   -3.2529    0.0000 H   0  0  0  0  0  0  0  0  0  0  0  0
    2.6730   -4.1261    0.0000 H   0  0  0  0  0  0  0  0  0  0  0  0
    3.5462   -4.0470    0.0000 H   0  0  0  0  0  0  0  0  0  0  0  0
 11  1  1  6  0  0  0
  1 50  1  0  0  0  0
 13  2  1  6  0  0  0
  2 51  1  0  0  0  0
  3  4  1  0  0  0  0
  3 23  1  0  0  0  0
  4 26  1  0  0  0  0
  5 18  2  0  0  0  0
  6 19  2  0  0  0  0
  7 30  1  0  0  0  0
  7 37  1  0  0  0  0
  8 11  1  0  0  0  0
  8 12  1  0  0  0  0
  8 18  1  0  0  0  0
  9 14  1  0  0  0  0
  9 19  1  0  0  0  0
  9 21  1  0  0  0  0
 10 15  1  0  0  0  0
 10 25  1  0  0  0  0
 10 26  1  0  0  0  0
 11 13  1  0  0  0  0
 11 19  1  0  0  0  0
 12 15  1  0  0  0  0
 12 17  1  0  0  0  0
 12 38  1  6  0  0  0
 13 16  1  0  0  0  0
 13 39  1  0  0  0  0
 14 18  1  0  0  0  0
 14 20  1  0  0  0  0
 14 40  1  6  0  0  0
 15 16  2  0  0  0  0
 16 24  1  0  0  0  0
 17 23  1  0  0  0  0
 17 41  1  0  0  0  0
 17 42  1  0  0  0  0
 20 22  1  0  0  0  0
 20 43  1  0  0  0  0
 20 44  1  0  0  0  0
 21 22  1  0  0  0  0
 21 45  1  0  0  0  0
 21 46  1  0  0  0  0
 22 47  1  0  0  0  0
 22 48  1  0  0  0  0
 23 27  1  0  0  0  0
 23 28  1  0  0  0  0
 24 25  2  0  0  0  0
 24 29  1  0  0  0  0
 25 30  1  0  0  0  0
 26 31  1  6  0  0  0
 26 49  1  0  0  0  0
 27 55  1  0  0  0  0
 27 56  1  0  0  0  0
 27 57  1  0  0  0  0
 28 52  1  0  0  0  0
 28 53  1  0  0  0  0
 28 54  1  0  0  0  0
 29 32  2  0  0  0  0
 29 58  1  0  0  0  0
 30 33  2  0  0  0  0
 31 34  2  0  0  0  0
 31 59  1  0  0  0  0
 32 33  1  0  0  0  0
 32 60  1  0  0  0  0
 33 61  1  0  0  0  0
 34 35  1  0  0  0  0
 34 36  1  0  0  0  0
 35 62  1  0  0  0  0
 35 63  1  0  0  0  0
 35 64  1  0  0  0  0
 36 65  1  0  0  0  0
 36 66  1  0  0  0  0
 36 67  1  0  0  0  0
 37 68  1  0  0  0  0
 37 69  1  0  0  0  0
 37 70  1  0  0  0  0
M  END
> <PUBCHEM_COMPOUND_CID>
56928161

> <PUBCHEM_COMPOUND_CANONICALIZED>
1

> <PUBCHEM_CACTVS_COMPLEXITY>
999

> <PUBCHEM_CACTVS_HBOND_ACCEPTOR>
7

> <PUBCHEM_CACTVS_HBOND_DONOR>
2

> <PUBCHEM_CACTVS_ROTATABLE_BOND>
2

> <PUBCHEM_CACTVS_SUBSKEYS>
AAADcfB7OAAAAAAAAAAAAAAAAAAAAWLAAAA8WIAAAAAWAFix8AAAHgAADAAADHzhngYyxvMMFgCoAyVyVAaCiCAhYCAI2CH/TJgPdvbEsbuVcChm5hHZ+Ae4+f+egAABAAACEAAAAAIAAAQgAAAAAAAAAA==

> <PUBCHEM_IUPAC_INCHI>
InChI=1S/C27H33N3O7/c1-14(2)12-19-29-21-15(8-6-10-18(21)35-5)20-22(29)17(13-26(3,4)37-36-19)30-24(32)16-9-7-11-28(16)25(33)27(30,34)23(20)31/h6,8,10,12,16-17,19,23,31,34H,7,9,11,13H2,1-5H3/t16-,17-,19+,23-,27+/m0/s1

> <PUBCHEM_IUPAC_INCHIKEY>
QHLWNUPHBIGTTF-SMRTULMTSA-N

> <PUBCHEM_XLOGP3_AA>
1.8

> <PUBCHEM_EXACT_MASS>
511.23185

> <PUBCHEM_MOLECULAR_FORMULA>
C27H33N3O7

> <PUBCHEM_MOLECULAR_WEIGHT>
511.56682

> <PUBCHEM_OPENEYE_CAN_SMILES>
CC(=CC1N2C3=C(C(C4(C(=O)N5CCCC5C(=O)N4C3CC(OO1)(C)C)O)O)C6=C2C(=CC=C6)OC)C

> <PUBCHEM_OPENEYE_ISO_SMILES>
CC(=C[C@@H]1N2C3=C([C@@H]([C@]4(C(=O)N5CCC[C@H]5C(=O)N4[C@H]3CC(OO1)(C)C)O)O)C6=C2C(=CC=C6)OC)C

> <PUBCHEM_CACTVS_TPSA>
114

> <PUBCHEM_MONOISOTOPIC_WEIGHT>
511.23185

> <PUBCHEM_TOTAL_CHARGE>
0

> <PUBCHEM_HEAVY_ATOM_COUNT>
37

> <PUBCHEM_ATOM_DEF_STEREO_COUNT>
5

> <PUBCHEM_ATOM_UDEF_STEREO_COUNT>
0

> <PUBCHEM_BOND_DEF_STEREO_COUNT>
0

> <PUBCHEM_BOND_UDEF_STEREO_COUNT>
0

> <PUBCHEM_ISOTOPIC_ATOM_COUNT>
0

> <PUBCHEM_COMPONENT_COUNT>
1

> <PUBCHEM_CACTVS_TAUTO_COUNT>
2

> <PUBCHEM_COORDINATE_TYPE>
1
5
255

> <PUBCHEM_BONDANNOTATIONS>
11  1  6
10  15  8
10  25  8
12  38  6
14  40  6
15  16  8
16  24  8
13  2  6
24  25  8
24  29  8
25  30  8
26  31  6
29  32  8
30  33  8
32  33  8

$$$$

