256233
  -OEChem-07051213062D

 50 53  0     1  0  0  0  0  0999 V2000
   13.0190   -0.5477    0.0000 O   0  0  0  0  0  0  0  0  0  0  0  0
   12.2246    2.2798    0.0000 O   0  0  0  0  0  0  0  0  0  0  0  0
    4.5961   -2.2340    0.0000 O   0  0  0  0  0  0  0  0  0  0  0  0
   12.5190    0.3184    0.0000 N   0  0  0  0  0  0  0  0  0  0  0  0
   11.2461    2.0736    0.0000 N   0  0  0  0  0  0  0  0  0  0  0  0
    9.9892    0.8184    0.0000 C   0  0  2  0  0  0  0  0  0  0  0  0
    9.9892   -0.1816    0.0000 C   0  0  2  0  0  0  0  0  0  0  0  0
    9.1232    1.3184    0.0000 C   0  0  0  0  0  0  0  0  0  0  0  0
    8.2572   -0.1816    0.0000 C   0  0  2  0  0  0  0  0  0  0  0  0
    9.1232   -0.6816    0.0000 C   0  0  0  0  0  0  0  0  0  0  0  0
    8.2572    0.8184    0.0000 C   0  0  0  0  0  0  0  0  0  0  0  0
   10.9354   -0.4864    0.0000 C   0  0  0  0  0  0  0  0  0  0  0  0
   10.9354    1.1231    0.0000 C   0  0  0  0  0  0  0  0  0  0  0  0
    9.9892    1.8184    0.0000 C   0  0  0  0  0  0  0  0  0  0  0  0
   11.5190    0.3184    0.0000 C   0  0  0  0  0  0  0  0  0  0  0  0
    7.3472   -0.6885    0.0000 C   0  0  0  0  0  0  0  0  0  0  0  0
    9.1392   -1.7232    0.0000 C   0  0  0  0  0  0  0  0  0  0  0  0
    8.2412   -2.2509    0.0000 C   0  0  0  0  0  0  0  0  0  0  0  0
    7.3391   -1.7301    0.0000 C   0  0  0  0  0  0  0  0  0  0  0  0
    6.4203   -0.1244    0.0000 C   0  0  0  0  0  0  0  0  0  0  0  0
    6.4037   -2.2798    0.0000 C   0  0  0  0  0  0  0  0  0  0  0  0
    5.4724   -0.6524    0.0000 C   0  0  0  0  0  0  0  0  0  0  0  0
    5.4641   -1.7373    0.0000 C   0  0  0  0  0  0  0  0  0  0  0  0
    3.7320   -1.7306    0.0000 C   0  0  0  0  0  0  0  0  0  0  0  0
    2.8641   -2.2273    0.0000 C   0  0  0  0  0  0  0  0  0  0  0  0
    2.0000   -1.7240    0.0000 C   0  0  0  0  0  0  0  0  0  0  0  0
   10.0792   -1.0269    0.0000 H   0  0  0  0  0  0  0  0  0  0  0  0
    9.5217    1.7933    0.0000 H   0  0  0  0  0  0  0  0  0  0  0  0
    8.7247    1.7933    0.0000 H   0  0  0  0  0  0  0  0  0  0  0  0
    8.9933    0.2434    0.0000 H   0  0  0  0  0  0  0  0  0  0  0  0
    8.0451    1.4010    0.0000 H   0  0  0  0  0  0  0  0  0  0  0  0
    7.6466    0.7107    0.0000 H   0  0  0  0  0  0  0  0  0  0  0  0
   10.6844   -1.0533    0.0000 H   0  0  0  0  0  0  0  0  0  0  0  0
   11.4728   -0.7956    0.0000 H   0  0  0  0  0  0  0  0  0  0  0  0
   10.6092    1.8184    0.0000 H   0  0  0  0  0  0  0  0  0  0  0  0
    9.9892    2.4383    0.0000 H   0  0  0  0  0  0  0  0  0  0  0  0
    9.3692    1.8184    0.0000 H   0  0  0  0  0  0  0  0  0  0  0  0
    9.6797   -2.0269    0.0000 H   0  0  0  0  0  0  0  0  0  0  0  0
    7.8439   -2.7269    0.0000 H   0  0  0  0  0  0  0  0  0  0  0  0
    8.6422   -2.7238    0.0000 H   0  0  0  0  0  0  0  0  0  0  0  0
   12.8290    0.8553    0.0000 H   0  0  0  0  0  0  0  0  0  0  0  0
    6.4323    0.4955    0.0000 H   0  0  0  0  0  0  0  0  0  0  0  0
    6.4061   -2.8998    0.0000 H   0  0  0  0  0  0  0  0  0  0  0  0
    4.9391   -0.3362    0.0000 H   0  0  0  0  0  0  0  0  0  0  0  0
   13.6390   -0.5477    0.0000 H   0  0  0  0  0  0  0  0  0  0  0  0
    4.1324   -1.2572    0.0000 H   0  0  0  0  0  0  0  0  0  0  0  0
    3.3353   -1.2542    0.0000 H   0  0  0  0  0  0  0  0  0  0  0  0
    2.8617   -2.8473    0.0000 H   0  0  0  0  0  0  0  0  0  0  0  0
    2.0024   -1.1040    0.0000 H   0  0  0  0  0  0  0  0  0  0  0  0
    1.4619   -2.0319    0.0000 H   0  0  0  0  0  0  0  0  0  0  0  0
  1  4  1  0  0  0  0
  1 45  1  0  0  0  0
  2  5  2  0  0  0  0
  3 23  1  0  0  0  0
  3 24  1  0  0  0  0
  4 15  1  0  0  0  0
  4 41  1  0  0  0  0
  5 13  1  0  0  0  0
  6  7  1  0  0  0  0
  6  8  1  0  0  0  0
  6 13  1  0  0  0  0
  6 14  1  1  0  0  0
  7 10  1  0  0  0  0
  7 12  1  0  0  0  0
  7 27  1  6  0  0  0
  8 11  1  0  0  0  0
  8 28  1  0  0  0  0
  8 29  1  0  0  0  0
  9 10  1  0  0  0  0
  9 11  1  0  0  0  0
  9 16  1  0  0  0  0
  9 30  1  6  0  0  0
 10 17  2  0  0  0  0
 11 31  1  0  0  0  0
 11 32  1  0  0  0  0
 12 15  1  0  0  0  0
 12 33  1  0  0  0  0
 12 34  1  0  0  0  0
 13 15  2  0  0  0  0
 14 35  1  0  0  0  0
 14 36  1  0  0  0  0
 14 37  1  0  0  0  0
 16 19  2  0  0  0  0
 16 20  1  0  0  0  0
 17 18  1  0  0  0  0
 17 38  1  0  0  0  0
 18 19  1  0  0  0  0
 18 39  1  0  0  0  0
 18 40  1  0  0  0  0
 19 21  1  0  0  0  0
 20 22  2  0  0  0  0
 20 42  1  0  0  0  0
 21 23  2  0  0  0  0
 21 43  1  0  0  0  0
 22 23  1  0  0  0  0
 22 44  1  0  0  0  0
 24 25  1  0  0  0  0
 24 46  1  0  0  0  0
 24 47  1  0  0  0  0
 25 26  2  0  0  0  0
 25 48  1  0  0  0  0
 26 49  1  0  0  0  0
 26 50  1  0  0  0  0
M  END
> <PUBCHEM_COMPOUND_CID>
256233

> <PUBCHEM_COMPOUND_CANONICALIZED>
1

> <PUBCHEM_CACTVS_COMPLEXITY>
656

> <PUBCHEM_CACTVS_HBOND_ACCEPTOR>
5

> <PUBCHEM_CACTVS_HBOND_DONOR>
2

> <PUBCHEM_CACTVS_ROTATABLE_BOND>
4

> <PUBCHEM_CACTVS_SUBSKEYS>
AAADceB7MAAAAAAAAAAAAAAAAAAAAQAAAAAwYIAAAAAAAECBAAAAHgAUCAAADwyhmAIyBoBQBACBAiRCQgACCAAgIAAoiAAGCIgMJiKEsRqCOCCk0BEIqAeQwPAPoAABAAAQAADAAAYAACAAAAAAAAAAAA==

> <PUBCHEM_IUPAC_OPENEYE_NAME>
N-[(9S,13S,14S)-3-allyloxy-13-methyl-17-nitroso-6,9,11,12,14,15-hexahydrocyclopenta[a]phenanthren-16-yl]hydroxylamine

> <PUBCHEM_IUPAC_CAS_NAME>
N-[(9S,13S,14S)-13-methyl-17-nitroso-3-prop-2-enoxy-6,9,11,12,14,15-hexahydrocyclopenta[a]phenanthren-16-yl]hydroxylamine

> <PUBCHEM_IUPAC_NAME>
N-[(9S,13S,14S)-13-methyl-17-nitroso-3-prop-2-enoxy-6,9,11,12,14,15-hexahydrocyclopenta[a]phenanthren-16-yl]hydroxylamine

> <PUBCHEM_IUPAC_SYSTEMATIC_NAME>
N-[(9S,13S,14S)-13-methyl-17-nitroso-3-prop-2-enoxy-6,9,11,12,14,15-hexahydrocyclopenta[a]phenanthren-16-yl]hydroxylamine

> <PUBCHEM_IUPAC_TRADITIONAL_NAME>
N-[(9S,13S,14S)-3-allyloxy-13-methyl-17-nitroso-6,9,11,12,14,15-hexahydrocyclopenta[a]phenanthren-16-yl]hydroxylamine

> <PUBCHEM_IUPAC_INCHI>
InChI=1S/C21H24N2O3/c1-3-10-26-14-5-7-15-13(11-14)4-6-17-16(15)8-9-21(2)18(17)12-19(22-24)20(21)23-25/h3,5-7,11,16,18,22,24H,1,4,8-10,12H2,2H3/t16-,18+,21+/m1/s1

> <PUBCHEM_IUPAC_INCHIKEY>
PWSNWKFQYROWEF-MMOPVJDHSA-N

> <PUBCHEM_XLOGP3_AA>
4

> <PUBCHEM_EXACT_MASS>
352.178693

> <PUBCHEM_MOLECULAR_FORMULA>
C21H24N2O3

> <PUBCHEM_MOLECULAR_WEIGHT>
352.42686

> <PUBCHEM_OPENEYE_CAN_SMILES>
CC12CCC3C(=CCC4=C3C=CC(=C4)OCC=C)C1CC(=C2N=O)NO

> <PUBCHEM_OPENEYE_ISO_SMILES>
C[C@]12CC[C@H]3C(=CCC4=C3C=CC(=C4)OCC=C)[C@@H]1CC(=C2N=O)NO

> <PUBCHEM_CACTVS_TPSA>
70.9

> <PUBCHEM_MONOISOTOPIC_WEIGHT>
352.178693

> <PUBCHEM_TOTAL_CHARGE>
0

> <PUBCHEM_HEAVY_ATOM_COUNT>
26

> <PUBCHEM_ATOM_DEF_STEREO_COUNT>
3

> <PUBCHEM_ATOM_UDEF_STEREO_COUNT>
0

> <PUBCHEM_BOND_DEF_STEREO_COUNT>
0

> <PUBCHEM_BOND_UDEF_STEREO_COUNT>
0

> <PUBCHEM_ISOTOPIC_ATOM_COUNT>
0

> <PUBCHEM_COMPONENT_COUNT>
1

> <PUBCHEM_CACTVS_TAUTO_COUNT>
8

> <PUBCHEM_COORDINATE_TYPE>
1
5
255

> <PUBCHEM_BONDANNOTATIONS>
16  19  8
16  20  8
19  21  8
20  22  8
21  23  8
22  23  8
6  14  5
7  27  6
9  30  6

$$$$

