8833
  -OEChem-06261203093D

 36 35  0     1  0  0  0  0  0999 V2000
    2.7439   -0.4647   -0.6396 O   0  0  0  0  0  0  0  0  0  0  0  0
    3.7372   -1.1197    1.3407 O   0  0  0  0  0  0  0  0  0  0  0  0
    0.0365    2.1893   -0.3343 C   0  0  2  0  0  0  0  0  0  0  0  0
   -1.0841    1.5929    0.5401 C   0  0  0  0  0  0  0  0  0  0  0  0
    1.0009    1.1489   -0.9340 C   0  0  0  0  0  0  0  0  0  0  0  0
   -1.8934    0.4987   -0.1639 C   0  0  0  0  0  0  0  0  0  0  0  0
    0.7976    3.2565    0.4597 C   0  0  0  0  0  0  0  0  0  0  0  0
   -2.9782   -0.0658    0.7600 C   0  0  0  0  0  0  0  0  0  0  0  0
    1.9026    0.4382    0.0689 C   0  0  0  0  0  0  0  0  0  0  0  0
   -3.8214   -1.1227    0.0870 C   0  0  0  0  0  0  0  0  0  0  0  0
   -4.5773   -0.7135   -1.1444 C   0  0  0  0  0  0  0  0  0  0  0  0
   -3.9175   -2.3650    0.5859 C   0  0  0  0  0  0  0  0  0  0  0  0
    3.6190   -1.1849    0.1245 C   0  0  0  0  0  0  0  0  0  0  0  0
    4.4342   -2.0882   -0.7506 C   0  0  0  0  0  0  0  0  0  0  0  0
   -0.4463    2.6955   -1.1815 H   0  0  0  0  0  0  0  0  0  0  0  0
   -1.7628    2.3987    0.8482 H   0  0  0  0  0  0  0  0  0  0  0  0
   -0.6519    1.1825    1.4614 H   0  0  0  0  0  0  0  0  0  0  0  0
    0.4627    0.4114   -1.5397 H   0  0  0  0  0  0  0  0  0  0  0  0
    1.6493    1.6608   -1.6594 H   0  0  0  0  0  0  0  0  0  0  0  0
   -2.3363    0.9210   -1.0730 H   0  0  0  0  0  0  0  0  0  0  0  0
   -1.2427   -0.3282   -0.4675 H   0  0  0  0  0  0  0  0  0  0  0  0
    0.1276    4.0810    0.7275 H   0  0  0  0  0  0  0  0  0  0  0  0
    1.6172    3.6763   -0.1329 H   0  0  0  0  0  0  0  0  0  0  0  0
    1.2124    2.8575    1.3908 H   0  0  0  0  0  0  0  0  0  0  0  0
   -2.5061   -0.4678    1.6656 H   0  0  0  0  0  0  0  0  0  0  0  0
   -3.6386    0.7459    1.0908 H   0  0  0  0  0  0  0  0  0  0  0  0
    1.2988   -0.1222    0.7909 H   0  0  0  0  0  0  0  0  0  0  0  0
    2.5326    1.1569    0.6030 H   0  0  0  0  0  0  0  0  0  0  0  0
   -3.8940   -0.5313   -1.9792 H   0  0  0  0  0  0  0  0  0  0  0  0
   -5.2864   -1.4852   -1.4634 H   0  0  0  0  0  0  0  0  0  0  0  0
   -5.1517    0.1989   -0.9539 H   0  0  0  0  0  0  0  0  0  0  0  0
   -3.3813   -2.6572    1.4827 H   0  0  0  0  0  0  0  0  0  0  0  0
   -4.5331   -3.1196    0.1077 H   0  0  0  0  0  0  0  0  0  0  0  0
    5.0092   -1.4926   -1.4640 H   0  0  0  0  0  0  0  0  0  0  0  0
    3.7781   -2.7885   -1.2734 H   0  0  0  0  0  0  0  0  0  0  0  0
    5.1318   -2.6600   -0.1319 H   0  0  0  0  0  0  0  0  0  0  0  0
  1  9  1  0  0  0  0
  1 13  1  0  0  0  0
  2 13  2  0  0  0  0
  3  4  1  0  0  0  0
  3  5  1  0  0  0  0
  3  7  1  0  0  0  0
  3 15  1  0  0  0  0
  4  6  1  0  0  0  0
  4 16  1  0  0  0  0
  4 17  1  0  0  0  0
  5  9  1  0  0  0  0
  5 18  1  0  0  0  0
  5 19  1  0  0  0  0
  6  8  1  0  0  0  0
  6 20  1  0  0  0  0
  6 21  1  0  0  0  0
  7 22  1  0  0  0  0
  7 23  1  0  0  0  0
  7 24  1  0  0  0  0
  8 10  1  0  0  0  0
  8 25  1  0  0  0  0
  8 26  1  0  0  0  0
  9 27  1  0  0  0  0
  9 28  1  0  0  0  0
 10 11  1  0  0  0  0
 10 12  2  0  0  0  0
 11 29  1  0  0  0  0
 11 30  1  0  0  0  0
 11 31  1  0  0  0  0
 12 32  1  0  0  0  0
 12 33  1  0  0  0  0
 13 14  1  0  0  0  0
 14 34  1  0  0  0  0
 14 35  1  0  0  0  0
 14 36  1  0  0  0  0
M  END
> <PUBCHEM_COMPOUND_CID>
8833

> <PUBCHEM_CONFORMER_RMSD>
0.8

> <PUBCHEM_CONFORMER_DIVERSEORDER>
1
235
258
292
276
313
221
36
213
306
124
326
7
27
231
178
153
247
273
243
52
100
285
262
325
322
89
204
111
239
309
135
97
58
148
154
214
118
6
98
102
132
4
166
291
305
286
202
260
123
96
59
94
317
215
255
24
129
169
227
167
23
180
165
224
264
29
246
245
155
266
115
212
274
279
320
87
82
64
26
93
150
321
136
140
331
170
225
90
160
271
327
47
319
25
130
196
254
107
251
282
217
21
91
162
329
182
114
171
302
3
127
84
173
234
28
226
92
233
242
151
80
174
229
183
208
177
147
2
289
134
199
189
152
301
75
105
269
50
219
99
324
81
318
76
270
53
195
121
38
117
125
294
296
156
44
312
244
67
19
290
223
11
197
69
37
238
186
164
303
9
206
104
277
210
188
267
113
181
236
159
295
314
120
252
5
222
299
207
200
310
68
57
297
283
187
185
287
133
307
62
131
122
298
112
201
13
61
54
261
284
300
106
191
73
95
63
184
328
249
288
256
55
168
14
253
250
20
146
108
143
218
304
116
209
33
293
190
230
257
311
110
101
45
119
66
198
278
203
43
85
308
83
332
71
138
194
31
77
157
128
315
12
228
32
211
330
240
39
316
192
40
8
268
137
16
139
56
179
144
142
86
51
275
22
237
42
175
46
145
216
109
323
205
48
220
74
272
126
70
193
161
263
41
259
49
248
79
88
60
17
30
158
176
18
241
10
72
78
35
15
232
172
265
163
281
103
280
141
65
149
34

> <PUBCHEM_MMFF94_PARTIAL_CHARGES>
11
1 -0.43
10 -0.28
11 0.14
12 -0.3
13 0.66
14 0.06
2 -0.57
32 0.15
33 0.15
8 0.14
9 0.28

> <PUBCHEM_EFFECTIVE_ROTOR_COUNT>
8

> <PUBCHEM_PHARMACOPHORE_FEATURES>
4
1 2 acceptor
1 7 hydrophobe
3 3 4 5 hydrophobe
3 6 8 10 hydrophobe

> <PUBCHEM_HEAVY_ATOM_COUNT>
14

> <PUBCHEM_ATOM_DEF_STEREO_COUNT>
0

> <PUBCHEM_ATOM_UDEF_STEREO_COUNT>
1

> <PUBCHEM_BOND_DEF_STEREO_COUNT>
0

> <PUBCHEM_BOND_UDEF_STEREO_COUNT>
0

> <PUBCHEM_ISOTOPIC_ATOM_COUNT>
0

> <PUBCHEM_COMPONENT_COUNT>
1

> <PUBCHEM_CACTVS_TAUTO_COUNT>
1

> <PUBCHEM_CONFORMER_ID>
0000228100000001

> <PUBCHEM_MMFF94_ENERGY>
13.981

> <PUBCHEM_FEATURE_SELFOVERLAP>
20.534

> <PUBCHEM_SHAPE_FINGERPRINT>
11046707 91 18339920519212881814
11137873 295 18272649013924040867
12006461 19 18408601465607397843
12363563 72 18410567400977330871
12553582 1 18339065064748769915
13533116 47 18192427473252021923
1420 369 18408600361985815267
14251710 61 18410851066392747599
14251731 5 18410569595763576394
15352361 1 18410572894272475719
17834072 14 18410020926740028993
1798214 20 18130793364544467947
18186145 218 11455883698201608220
193927 3 18336255812482039958
20281475 54 18341322306555252421
20291156 8 18412541024396667994
20621476 21 17461143633917186270
20645477 70 18268436724643019847
20671657 53 18411978031889290605
20871998 22 18409731737807265784
21250096 35 18412831299861614467
21354914 74 18341892957047210916
27216 239 7565048468117011551
3086196 2 18262522618589676200
88748 71 18270674260823583003

> <PUBCHEM_SHAPE_MULTIPOLES>
276.37
9.37
3.12
1.04
0.89
1.52
0.01
-9.9
0.54
-1.17
-0.32
0.03
-0.17
0.27

> <PUBCHEM_SHAPE_SELFOVERLAP>
512.472

> <PUBCHEM_SHAPE_VOLUME>
174.3

> <PUBCHEM_COORDINATE_TYPE>
2
5
10

$$$$

