17396042
  -OEChem-06241222542D

 43 45  0     0  0  0  0  0  0999 V2000
    4.6783   -2.9804    0.0000 S   0  0  0  0  0  0  0  0  0  0  0  0
    2.3660   -0.3096    0.0000 F   0  0  0  0  0  0  0  0  0  0  0  0
    4.1641    3.4936    0.0000 O   0  0  0  0  0  0  0  0  0  0  0  0
    6.7619   -3.0417    0.0000 O   0  0  0  0  0  0  0  0  0  0  0  0
    6.7619   -1.3096    0.0000 O   0  0  0  0  0  0  0  0  0  0  0  0
    4.7827    0.5581    0.0000 N   0  0  0  0  0  0  0  0  0  0  0  0
    4.3703    2.5151    0.0000 C   0  0  0  0  0  0  0  0  0  0  0  0
    3.8322    0.8688    0.0000 C   0  0  0  0  0  0  0  0  0  0  0  0
    5.5270    1.2260    0.0000 C   0  0  0  0  0  0  0  0  0  0  0  0
    3.6260    1.8473    0.0000 C   0  0  0  0  0  0  0  0  0  0  0  0
    5.3208    2.2045    0.0000 C   0  0  0  0  0  0  0  0  0  0  0  0
    4.9889   -0.4204    0.0000 C   0  0  0  0  0  0  0  0  0  0  0  0
    4.6783   -1.3709    0.0000 C   0  0  0  0  0  0  0  0  0  0  0  0
    3.7320   -1.6756    0.0000 C   0  0  0  0  0  0  0  0  0  0  0  0
    5.2619   -2.1756    0.0000 C   0  0  0  0  0  0  0  0  0  0  0  0
    3.7320   -2.6756    0.0000 C   0  0  0  0  0  0  0  0  0  0  0  0
    2.8660   -1.1756    0.0000 C   0  0  0  0  0  0  0  0  0  0  0  0
    2.8660   -3.1756    0.0000 C   0  0  0  0  0  0  0  0  0  0  0  0
    6.2619   -2.1756    0.0000 C   0  0  0  0  0  0  0  0  0  0  0  0
    2.0000   -1.6756    0.0000 C   0  0  0  0  0  0  0  0  0  0  0  0
    2.0000   -2.6756    0.0000 C   0  0  0  0  0  0  0  0  0  0  0  0
    7.7619   -3.0417    0.0000 C   0  0  0  0  0  0  0  0  0  0  0  0
    8.2619   -3.9077    0.0000 C   0  0  0  0  0  0  0  0  0  0  0  0
    4.8317    2.9292    0.0000 H   0  0  0  0  0  0  0  0  0  0  0  0
    5.8547    0.6996    0.0000 H   0  0  0  0  0  0  0  0  0  0  0  0
    6.1023    1.4572    0.0000 H   0  0  0  0  0  0  0  0  0  0  0  0
    3.2125    0.8482    0.0000 H   0  0  0  0  0  0  0  0  0  0  0  0
    3.7448    0.2550    0.0000 H   0  0  0  0  0  0  0  0  0  0  0  0
    5.9405    2.2250    0.0000 H   0  0  0  0  0  0  0  0  0  0  0  0
    5.4082    2.8183    0.0000 H   0  0  0  0  0  0  0  0  0  0  0  0
    3.2983    2.3736    0.0000 H   0  0  0  0  0  0  0  0  0  0  0  0
    3.0507    1.6160    0.0000 H   0  0  0  0  0  0  0  0  0  0  0  0
    5.4768   -0.8029    0.0000 H   0  0  0  0  0  0  0  0  0  0  0  0
    4.3698   -0.3869    0.0000 H   0  0  0  0  0  0  0  0  0  0  0  0
    4.6255    3.9077    0.0000 H   0  0  0  0  0  0  0  0  0  0  0  0
    2.8660   -3.7956    0.0000 H   0  0  0  0  0  0  0  0  0  0  0  0
    1.4631   -1.3656    0.0000 H   0  0  0  0  0  0  0  0  0  0  0  0
    1.4631   -2.9856    0.0000 H   0  0  0  0  0  0  0  0  0  0  0  0
    8.3445   -2.8296    0.0000 H   0  0  0  0  0  0  0  0  0  0  0  0
    7.6542   -2.4311    0.0000 H   0  0  0  0  0  0  0  0  0  0  0  0
    7.7249   -4.2177    0.0000 H   0  0  0  0  0  0  0  0  0  0  0  0
    8.5719   -4.4446    0.0000 H   0  0  0  0  0  0  0  0  0  0  0  0
    8.7988   -3.5977    0.0000 H   0  0  0  0  0  0  0  0  0  0  0  0
  1 15  1  0  0  0  0
  1 16  1  0  0  0  0
  2 17  1  0  0  0  0
  3  7  1  0  0  0  0
  3 35  1  0  0  0  0
  4 19  1  0  0  0  0
  4 22  1  0  0  0  0
  5 19  2  0  0  0  0
  6  8  1  0  0  0  0
  6  9  1  0  0  0  0
  6 12  1  0  0  0  0
  7 10  1  0  0  0  0
  7 11  1  0  0  0  0
  7 24  1  0  0  0  0
  8 10  1  0  0  0  0
  8 27  1  0  0  0  0
  8 28  1  0  0  0  0
  9 11  1  0  0  0  0
  9 25  1  0  0  0  0
  9 26  1  0  0  0  0
 10 31  1  0  0  0  0
 10 32  1  0  0  0  0
 11 29  1  0  0  0  0
 11 30  1  0  0  0  0
 12 13  1  0  0  0  0
 12 33  1  0  0  0  0
 12 34  1  0  0  0  0
 13 14  1  0  0  0  0
 13 15  2  0  0  0  0
 14 16  1  0  0  0  0
 14 17  2  0  0  0  0
 15 19  1  0  0  0  0
 16 18  2  0  0  0  0
 17 20  1  0  0  0  0
 18 21  1  0  0  0  0
 18 36  1  0  0  0  0
 20 21  2  0  0  0  0
 20 37  1  0  0  0  0
 21 38  1  0  0  0  0
 22 23  1  0  0  0  0
 22 39  1  0  0  0  0
 22 40  1  0  0  0  0
 23 41  1  0  0  0  0
 23 42  1  0  0  0  0
 23 43  1  0  0  0  0
M  END
> <PUBCHEM_COMPOUND_CID>
17396042

> <PUBCHEM_COMPOUND_CANONICALIZED>
1

> <PUBCHEM_CACTVS_COMPLEXITY>
417

> <PUBCHEM_CACTVS_HBOND_ACCEPTOR>
6

> <PUBCHEM_CACTVS_HBOND_DONOR>
1

> <PUBCHEM_CACTVS_ROTATABLE_BOND>
5

> <PUBCHEM_CACTVS_SUBSKEYS>
AAADceB6MQBAAAAAAAAAAAAAAAAAASAAAAA8QAAAAAAAAEgB8AAAHwQACAAADBTh2A4yCcMABgiMAiDSCACDAIAkCBBIiBkIDMgINjKgtRmGcQhmwAGoqQe8yOCOgAAAAAAEAAAAAAAAAAgAAAAAAAAAAA==

> <PUBCHEM_IUPAC_OPENEYE_NAME>
ethyl 4-fluoro-3-[(4-hydroxy-1-piperidyl)methyl]benzothiophene-2-carboxylate

> <PUBCHEM_IUPAC_CAS_NAME>
4-fluoro-3-[(4-hydroxy-1-piperidinyl)methyl]-1-benzothiophene-2-carboxylic acid ethyl ester

> <PUBCHEM_IUPAC_NAME>
ethyl 4-fluoro-3-[(4-hydroxypiperidin-1-yl)methyl]-1-benzothiophene-2-carboxylate

> <PUBCHEM_IUPAC_SYSTEMATIC_NAME>
ethyl 4-fluoranyl-3-[(4-oxidanylpiperidin-1-yl)methyl]-1-benzothiophene-2-carboxylate

> <PUBCHEM_IUPAC_TRADITIONAL_NAME>
4-fluoro-3-[(4-hydroxypiperidino)methyl]benzothiophene-2-carboxylic acid ethyl ester

> <PUBCHEM_IUPAC_INCHI>
InChI=1S/C17H20FNO3S/c1-2-22-17(21)16-12(10-19-8-6-11(20)7-9-19)15-13(18)4-3-5-14(15)23-16/h3-5,11,20H,2,6-10H2,1H3

> <PUBCHEM_IUPAC_INCHIKEY>
ULEBRNOBKNIZOE-UHFFFAOYSA-N

> <PUBCHEM_XLOGP3_AA>
3.3

> <PUBCHEM_EXACT_MASS>
337.114793

> <PUBCHEM_MOLECULAR_FORMULA>
C17H20FNO3S

> <PUBCHEM_MOLECULAR_WEIGHT>
337.409003

> <PUBCHEM_OPENEYE_CAN_SMILES>
CCOC(=O)C1=C(C2=C(C=CC=C2S1)F)CN3CCC(CC3)O

> <PUBCHEM_OPENEYE_ISO_SMILES>
CCOC(=O)C1=C(C2=C(C=CC=C2S1)F)CN3CCC(CC3)O

> <PUBCHEM_CACTVS_TPSA>
78

> <PUBCHEM_MONOISOTOPIC_WEIGHT>
337.114793

> <PUBCHEM_TOTAL_CHARGE>
0

> <PUBCHEM_HEAVY_ATOM_COUNT>
23

> <PUBCHEM_ATOM_DEF_STEREO_COUNT>
0

> <PUBCHEM_ATOM_UDEF_STEREO_COUNT>
0

> <PUBCHEM_BOND_DEF_STEREO_COUNT>
0

> <PUBCHEM_BOND_UDEF_STEREO_COUNT>
0

> <PUBCHEM_ISOTOPIC_ATOM_COUNT>
0

> <PUBCHEM_COMPONENT_COUNT>
1

> <PUBCHEM_CACTVS_TAUTO_COUNT>
1

> <PUBCHEM_COORDINATE_TYPE>
1
5
255

> <PUBCHEM_BONDANNOTATIONS>
1  15  8
1  16  8
13  14  8
13  15  8
14  16  8
14  17  8
16  18  8
17  20  8
18  21  8
20  21  8

$$$$

