17395654
  -OEChem-06241222513D

 46 49  0     0  0  0  0  0  0999 V2000
    1.8130   -0.4406   -0.0250 S   0  0  0  0  0  0  0  0  0  0  0  0
    0.4751    3.1893    0.0217 O   0  0  0  0  0  0  0  0  0  0  0  0
   -2.7094   -0.8251   -0.0070 N   0  0  0  0  0  0  0  0  0  0  0  0
   -2.3208   -3.6528    0.1065 N   0  0  0  0  0  0  0  0  0  0  0  0
   -0.6549    1.1283    0.0113 N   0  0  0  0  0  0  0  0  0  0  0  0
   -3.1625   -1.6736   -1.1134 C   0  0  0  0  0  0  0  0  0  0  0  0
   -2.5647   -1.4968    1.2906 C   0  0  0  0  0  0  0  0  0  0  0  0
   -2.3278   -2.9547   -1.1849 C   0  0  0  0  0  0  0  0  0  0  0  0
   -1.7484   -2.7828    1.1414 C   0  0  0  0  0  0  0  0  0  0  0  0
   -3.0138    0.5407   -0.0101 C   0  0  0  0  0  0  0  0  0  0  0  0
   -1.5655   -4.9013    0.0108 C   0  0  0  0  0  0  0  0  0  0  0  0
   -2.0022    1.5010   -0.0010 C   0  0  0  0  0  0  0  0  0  0  0  0
   -4.3512    0.9367   -0.0222 C   0  0  0  0  0  0  0  0  0  0  0  0
   -2.3281    2.8573   -0.0039 C   0  0  0  0  0  0  0  0  0  0  0  0
   -4.6771    2.2929   -0.0253 C   0  0  0  0  0  0  0  0  0  0  0  0
   -3.6655    3.2531   -0.0161 C   0  0  0  0  0  0  0  0  0  0  0  0
    0.4683    1.9630    0.0215 C   0  0  0  0  0  0  0  0  0  0  0  0
    1.7797    1.2634    0.0045 C   0  0  0  0  0  0  0  0  0  0  0  0
    4.0771    0.8080   -0.0119 C   0  0  0  0  0  0  0  0  0  0  0  0
    3.0437    1.8038    0.0091 C   0  0  0  0  0  0  0  0  0  0  0  0
    3.5369   -0.4816   -0.0321 C   0  0  0  0  0  0  0  0  0  0  0  0
    5.4865    0.9433   -0.0148 C   0  0  0  0  0  0  0  0  0  0  0  0
    4.3599   -1.6247   -0.0549 C   0  0  0  0  0  0  0  0  0  0  0  0
    6.3057   -0.1886   -0.0374 C   0  0  0  0  0  0  0  0  0  0  0  0
    5.7460   -1.4582   -0.0572 C   0  0  0  0  0  0  0  0  0  0  0  0
   -3.0661   -1.1386   -2.0662 H   0  0  0  0  0  0  0  0  0  0  0  0
   -4.2223   -1.9249   -0.9791 H   0  0  0  0  0  0  0  0  0  0  0  0
   -3.5587   -1.7234    1.6971 H   0  0  0  0  0  0  0  0  0  0  0  0
   -2.0572   -0.8422    2.0100 H   0  0  0  0  0  0  0  0  0  0  0  0
   -2.7578   -3.6012   -1.9595 H   0  0  0  0  0  0  0  0  0  0  0  0
   -1.3039   -2.7075   -1.4970 H   0  0  0  0  0  0  0  0  0  0  0  0
   -0.7065   -2.5316    0.9036 H   0  0  0  0  0  0  0  0  0  0  0  0
   -1.7462   -3.3007    2.1081 H   0  0  0  0  0  0  0  0  0  0  0  0
   -1.5910   -5.4398    0.9646 H   0  0  0  0  0  0  0  0  0  0  0  0
   -0.5174   -4.7331   -0.2623 H   0  0  0  0  0  0  0  0  0  0  0  0
   -2.0141   -5.5655   -0.7364 H   0  0  0  0  0  0  0  0  0  0  0  0
   -5.1532    0.2030   -0.0230 H   0  0  0  0  0  0  0  0  0  0  0  0
   -1.6118    3.6654    0.0028 H   0  0  0  0  0  0  0  0  0  0  0  0
   -0.4848    0.1249    0.0068 H   0  0  0  0  0  0  0  0  0  0  0  0
   -5.7184    2.6013   -0.0333 H   0  0  0  0  0  0  0  0  0  0  0  0
   -3.9210    4.3089   -0.0180 H   0  0  0  0  0  0  0  0  0  0  0  0
    3.2355    2.8701    0.0269 H   0  0  0  0  0  0  0  0  0  0  0  0
    5.9398    1.9314    0.0005 H   0  0  0  0  0  0  0  0  0  0  0  0
    3.9304   -2.6225   -0.0705 H   0  0  0  0  0  0  0  0  0  0  0  0
    7.3857   -0.0716   -0.0394 H   0  0  0  0  0  0  0  0  0  0  0  0
    6.3911   -2.3325   -0.0746 H   0  0  0  0  0  0  0  0  0  0  0  0
  1 18  1  0  0  0  0
  1 21  1  0  0  0  0
  2 17  2  0  0  0  0
  3  6  1  0  0  0  0
  3  7  1  0  0  0  0
  3 10  1  0  0  0  0
  4  8  1  0  0  0  0
  4  9  1  0  0  0  0
  4 11  1  0  0  0  0
  5 12  1  0  0  0  0
  5 17  1  0  0  0  0
  5 39  1  0  0  0  0
  6  8  1  0  0  0  0
  6 26  1  0  0  0  0
  6 27  1  0  0  0  0
  7  9  1  0  0  0  0
  7 28  1  0  0  0  0
  7 29  1  0  0  0  0
  8 30  1  0  0  0  0
  8 31  1  0  0  0  0
  9 32  1  0  0  0  0
  9 33  1  0  0  0  0
 10 12  1  0  0  0  0
 10 13  2  0  0  0  0
 11 34  1  0  0  0  0
 11 35  1  0  0  0  0
 11 36  1  0  0  0  0
 12 14  2  0  0  0  0
 13 15  1  0  0  0  0
 13 37  1  0  0  0  0
 14 16  1  0  0  0  0
 14 38  1  0  0  0  0
 15 16  2  0  0  0  0
 15 40  1  0  0  0  0
 16 41  1  0  0  0  0
 17 18  1  0  0  0  0
 18 20  2  0  0  0  0
 19 20  1  0  0  0  0
 19 21  1  0  0  0  0
 19 22  2  0  0  0  0
 20 42  1  0  0  0  0
 21 23  2  0  0  0  0
 22 24  1  0  0  0  0
 22 43  1  0  0  0  0
 23 25  1  0  0  0  0
 23 44  1  0  0  0  0
 24 25  2  0  0  0  0
 24 45  1  0  0  0  0
 25 46  1  0  0  0  0
M  END
> <PUBCHEM_COMPOUND_CID>
17395654

> <PUBCHEM_CONFORMER_RMSD>
0.8

> <PUBCHEM_CONFORMER_DIVERSEORDER>
1
6
11
9
13
14
7
10
12
8
3
5
4
2

> <PUBCHEM_MMFF94_PARTIAL_CHARGES>
34
1 -0.08
10 0.1
11 0.27
12 0.12
13 -0.15
14 -0.15
15 -0.15
16 -0.15
17 0.71
18 -0.05
2 -0.57
20 -0.15
21 0.04
22 -0.15
23 -0.15
24 -0.15
25 -0.15
3 -0.84
37 0.15
38 0.15
39 0.37
4 -0.81
40 0.15
41 0.15
42 0.15
43 0.15
44 0.15
45 0.15
46 0.15
5 -0.55
6 0.37
7 0.37
8 0.27
9 0.27

> <PUBCHEM_EFFECTIVE_ROTOR_COUNT>
5.2

> <PUBCHEM_PHARMACOPHORE_FEATURES>
8
1 2 acceptor
1 3 cation
1 4 cation
1 5 donor
5 1 18 19 20 21 rings
6 10 12 13 14 15 16 rings
6 19 21 22 23 24 25 rings
6 3 4 6 7 8 9 rings

> <PUBCHEM_HEAVY_ATOM_COUNT>
25

> <PUBCHEM_ATOM_DEF_STEREO_COUNT>
0

> <PUBCHEM_ATOM_UDEF_STEREO_COUNT>
0

> <PUBCHEM_BOND_DEF_STEREO_COUNT>
0

> <PUBCHEM_BOND_UDEF_STEREO_COUNT>
0

> <PUBCHEM_ISOTOPIC_ATOM_COUNT>
0

> <PUBCHEM_COMPONENT_COUNT>
1

> <PUBCHEM_CACTVS_TAUTO_COUNT>
2

> <PUBCHEM_CONFORMER_ID>
01096FC600000001

> <PUBCHEM_MMFF94_ENERGY>
81.8509

> <PUBCHEM_FEATURE_SELFOVERLAP>
40.657

> <PUBCHEM_SHAPE_FINGERPRINT>
10254770 206 17837504312215915242
10616163 171 18409446947336907022
10693767 8 17682423364242888095
107951 10 17703504506386258939
10940486 97 18271799103983673148
11014199 57 18051692140094875294
11045977 3 18114470028399642928
11524674 6 17531253910682028134
12166972 35 6121914159034840425
12788726 201 18337687325593636003
13402501 40 18336263547770569204
138480 1 17113820150826244667
14251757 5 18410855460223114154
14659021 117 18267037058777617114
14790565 3 18122060072439467392
14844126 61 18340486673201603811
14866123 147 18408884006622578547
15042514 8 18339920403887009915
15250474 111 18342187661188279930
15400415 2 18338799043434161984
15927050 60 18263928916185440127
16719943 64 18339081608810131650
167882 2 17619638316533274277
17859628 97 18268148832795297379
19141452 34 18411699911039646436
19930381 70 17762618795291554159
20775438 99 17179446229339581799
21065198 57 18410573964173052080
21133410 171 17328644549570455762
21133410 52 15953592855773297292
21344244 246 18122075457982252919
221490 88 18267300933410975608
23559900 14 18335990796284673152
23728640 28 18411416207359615371
3178227 256 18339628037116629225
3298306 158 18052256490555203933
3383291 50 18410858746427626739
3411729 13 17834389404500964457
38695281 34 18195246852471575545
3882209 13 17252907890720013030
4015057 19 18041859332262264897
4073 2 18412825768766618304
4214541 1 18410574028349745524
44062 13 18409163299133072726
4616759 239 18041010553041793800
508706 21 18334286557313767486
5104073 3 18409451397498305632
5309563 4 17546159706067900879
532947 4 17975973486285440311
5364581 5 18118420457814690352
5385378 56 17905036307898576985
559249 180 18341053033364299896
56633871 153 18049711928818465123
613672 6 17689176520782456643
9709674 26 18337955575811972360

> <PUBCHEM_SHAPE_MULTIPOLES>
497.53
12.1
5.04
0.84
16.96
4.5
-0.03
-1.66
0.48
-6.45
0.02
-0.55
0.52
-0.05

> <PUBCHEM_SHAPE_SELFOVERLAP>
1068.307

> <PUBCHEM_SHAPE_VOLUME>
275.9

> <PUBCHEM_COORDINATE_TYPE>
2
5
10

$$$$

