440390
  -OEChem-07051212493D

 21 20  0     1  0  0  0  0  0999 V2000
    1.9640   -0.3047    1.3364 O   0  0  0  0  0  0  0  0  0  0  0  0
    1.5223   -1.6670   -1.1295 O   0  0  0  0  0  0  0  0  0  0  0  0
    3.5162    1.7604    0.3291 O   0  0  0  0  0  0  0  0  0  0  0  0
   -0.6925   -2.3001    0.2519 O   0  0  0  0  0  0  0  0  0  0  0  0
   -1.7821   -0.0685    1.6608 O   0  0  0  0  0  0  0  0  0  0  0  0
   -3.1494    1.5138    0.2789 O   0  0  0  0  0  0  0  0  0  0  0  0
   -2.1070    0.8080   -1.6427 O   0  0  0  0  0  0  0  0  0  0  0  0
    1.5435    0.3773    0.1551 C   0  0  2  0  0  0  0  0  0  0  0  0
    0.7157   -0.5688   -0.7257 C   0  0  2  0  0  0  0  0  0  0  0  0
    2.7850    0.9208   -0.5498 C   0  0  0  0  0  0  0  0  0  0  0  0
   -0.4891   -1.1180    0.0138 C   0  0  0  0  0  0  0  0  0  0  0  0
   -1.5303   -0.1307    0.4663 C   0  0  0  0  0  0  0  0  0  0  0  0
   -2.2964    0.7774   -0.4444 C   0  0  0  0  0  0  0  0  0  0  0  0
    0.9312    1.2236    0.4889 H   0  0  0  0  0  0  0  0  0  0  0  0
    0.3767   -0.0639   -1.6346 H   0  0  0  0  0  0  0  0  0  0  0  0
    2.5188    1.4906   -1.4456 H   0  0  0  0  0  0  0  0  0  0  0  0
    3.4586    0.1088   -0.8411 H   0  0  0  0  0  0  0  0  0  0  0  0
    1.1723   -0.5113    1.8611 H   0  0  0  0  0  0  0  0  0  0  0  0
    1.9018   -2.0686   -0.3291 H   0  0  0  0  0  0  0  0  0  0  0  0
    2.9327    2.4944    0.5866 H   0  0  0  0  0  0  0  0  0  0  0  0
   -3.6677    2.1347   -0.2761 H   0  0  0  0  0  0  0  0  0  0  0  0
  1  8  1  0  0  0  0
  1 18  1  0  0  0  0
  2  9  1  0  0  0  0
  2 19  1  0  0  0  0
  3 10  1  0  0  0  0
  3 20  1  0  0  0  0
  4 11  2  0  0  0  0
  5 12  2  0  0  0  0
  6 13  1  0  0  0  0
  6 21  1  0  0  0  0
  7 13  2  0  0  0  0
  8  9  1  0  0  0  0
  8 10  1  0  0  0  0
  8 14  1  0  0  0  0
  9 11  1  0  0  0  0
  9 15  1  0  0  0  0
 10 16  1  0  0  0  0
 10 17  1  0  0  0  0
 11 12  1  0  0  0  0
 12 13  1  0  0  0  0
M  END
> <PUBCHEM_COMPOUND_CID>
440390

> <PUBCHEM_CONFORMER_RMSD>
0.6

> <PUBCHEM_CONFORMER_DIVERSEORDER>
1
73
64
62
74
84
92
48
90
25
112
110
7
121
116
95
104
28
120
124
45
125
19
9
85
93
96
67
122
30
14
105
91
2
107
50
76
57
34
56
4
101
26
108
40
12
49
94
13
102
71
8
59
87
16
88
86
33
89
3
58
38
52
117
69
27
43
39
100
68
99
119
18
37
32
114
81
109
46
5
66
51
61
70
75
35
22
11
82
24
21
98
36
78
41
79
17
123
47
63
20
29
113
42
77
44
15
118
55
6
65
83
72
31
54
111
103
23
53
97
60
10
115
106
80

> <PUBCHEM_MMFF94_PARTIAL_CHARGES>
17
1 -0.68
10 0.28
11 0.51
12 0.57
13 0.72
18 0.4
19 0.4
2 -0.68
20 0.4
21 0.5
3 -0.68
4 -0.57
5 -0.57
6 -0.65
7 -0.57
8 0.28
9 0.34

> <PUBCHEM_EFFECTIVE_ROTOR_COUNT>
5

> <PUBCHEM_PHARMACOPHORE_FEATURES>
12
1 1 acceptor
1 1 donor
1 12 anion
1 2 acceptor
1 2 donor
1 3 acceptor
1 3 donor
1 4 acceptor
1 5 acceptor
1 6 acceptor
1 7 acceptor
3 6 7 13 anion

> <PUBCHEM_HEAVY_ATOM_COUNT>
13

> <PUBCHEM_ATOM_DEF_STEREO_COUNT>
2

> <PUBCHEM_ATOM_UDEF_STEREO_COUNT>
0

> <PUBCHEM_BOND_DEF_STEREO_COUNT>
0

> <PUBCHEM_BOND_UDEF_STEREO_COUNT>
0

> <PUBCHEM_ISOTOPIC_ATOM_COUNT>
0

> <PUBCHEM_COMPONENT_COUNT>
1

> <PUBCHEM_CACTVS_TAUTO_COUNT>
63

> <PUBCHEM_CONFORMER_ID>
0006B84600000001

> <PUBCHEM_MMFF94_ENERGY>
16.9402

> <PUBCHEM_FEATURE_SELFOVERLAP>
61.304

> <PUBCHEM_SHAPE_FINGERPRINT>
10149128 76 18408887347305073596
10857977 72 16915350373835201761
11031198 65 17895186727320752621
11127187 94 7637132428722150033
12897270 3 15213309620416012053
13839132 238 18411974763070811046
15775835 57 18201721738602432473
16945 1 17677917667932140543
20645464 45 18272365386498782382
20653085 51 18261389013690391325
21028194 46 18334011653567758620
21947302 44 18262518207562934334
230 275 18194692685504559489
23235685 24 18260544511150382057
5084963 1 18114465681322676167
8030462 33 16877659097342839483

> <PUBCHEM_SHAPE_MULTIPOLES>
226.45
4.62
1.77
1.24
1.35
0.52
-0.04
-3.18
-0.19
0.13
0.15
-0.27
0.02
0.43

> <PUBCHEM_SHAPE_SELFOVERLAP>
447.108

> <PUBCHEM_SHAPE_VOLUME>
133.2

> <PUBCHEM_COORDINATE_TYPE>
2
5
10

$$$$

