3875
  -OEChem-06251223443D

 67 72  0     0  0  0  0  0  0999 V2000
   -3.0679    3.5510    0.4409 O   0  0  0  0  0  0  0  0  0  0  0  0
    5.4342    2.1684   -0.4830 O   0  0  0  0  0  0  0  0  0  0  0  0
   -1.1459    4.8699    0.7702 O   0  0  0  0  0  0  0  0  0  0  0  0
    6.2336   -0.3994    0.0388 O   0  0  0  0  0  0  0  0  0  0  0  0
    4.3554   -2.3290    0.6616 O   0  0  0  0  0  0  0  0  0  0  0  0
   -5.5414   -1.3536   -0.8013 O   0  0  0  0  0  0  0  0  0  0  0  0
   -0.7552   -4.3044    1.5829 O   0  0  0  0  0  0  0  0  0  0  0  0
   -6.9613    0.9856   -0.2396 O   0  0  0  0  0  0  0  0  0  0  0  0
   -0.7209   -5.2694   -1.0234 O   0  0  0  0  0  0  0  0  0  0  0  0
    0.4546    2.3471    0.2868 N   0  0  0  0  0  0  0  0  0  0  0  0
    0.7328    0.9707    0.1157 C   0  0  0  0  0  0  0  0  0  0  0  0
    1.4975    3.3485    0.4467 C   0  0  0  0  0  0  0  0  0  0  0  0
   -0.4177    0.2603   -0.0582 C   0  0  0  0  0  0  0  0  0  0  0  0
   -0.9163    2.5558    0.3059 C   0  0  0  0  0  0  0  0  0  0  0  0
    2.7053    2.9760   -0.4138 C   0  0  0  0  0  0  0  0  0  0  0  0
   -1.5251    1.2417    0.0452 C   0  0  0  0  0  0  0  0  0  0  0  0
    2.1593    0.5621    0.1157 C   0  0  0  0  0  0  0  0  0  0  0  0
    3.1328    1.5538   -0.1455 C   0  0  0  0  0  0  0  0  0  0  0  0
   -2.8698    1.1324   -0.0697 C   0  0  0  0  0  0  0  0  0  0  0  0
   -0.4970   -1.1790   -0.3057 C   0  0  0  0  0  0  0  0  0  0  0  0
    4.4953    1.2225   -0.1877 C   0  0  0  0  0  0  0  0  0  0  0  0
    2.6045   -0.7339    0.4086 C   0  0  0  0  0  0  0  0  0  0  0  0
   -1.6871    3.6342    0.4988 C   0  0  0  0  0  0  0  0  0  0  0  0
   -3.6892    2.3401    0.1483 C   0  0  0  0  0  0  0  0  0  0  0  0
    4.9091   -0.0795    0.0734 C   0  0  0  0  0  0  0  0  0  0  0  0
    3.9656   -1.0531    0.3812 C   0  0  0  0  0  0  0  0  0  0  0  0
   -3.5682   -0.1038   -0.4082 C   0  0  0  0  0  0  0  0  0  0  0  0
   -0.5898   -2.0740    0.7648 C   0  0  0  0  0  0  0  0  0  0  0  0
   -0.4798   -1.6704   -1.6148 C   0  0  0  0  0  0  0  0  0  0  0  0
   -5.0272    2.2970    0.0905 C   0  0  0  0  0  0  0  0  0  0  0  0
   -4.9053   -0.1750   -0.4750 C   0  0  0  0  0  0  0  0  0  0  0  0
   -5.7361    1.0295   -0.2081 C   0  0  0  0  0  0  0  0  0  0  0  0
   -0.6646   -3.4467    0.5284 C   0  0  0  0  0  0  0  0  0  0  0  0
   -0.5544   -3.0429   -1.8511 C   0  0  0  0  0  0  0  0  0  0  0  0
   -0.6470   -3.9311   -0.7796 C   0  0  0  0  0  0  0  0  0  0  0  0
    5.7718    2.3356   -1.8572 C   0  0  0  0  0  0  0  0  0  0  0  0
    6.9650   -0.2609    1.2549 C   0  0  0  0  0  0  0  0  0  0  0  0
    4.4474   -3.2337   -0.4364 C   0  0  0  0  0  0  0  0  0  0  0  0
   -5.8312   -2.1075    0.3604 C   0  0  0  0  0  0  0  0  0  0  0  0
   -2.0656   -4.6347    2.0389 C   0  0  0  0  0  0  0  0  0  0  0  0
    1.7823    3.4054    1.5046 H   0  0  0  0  0  0  0  0  0  0  0  0
    1.1583    4.3425    0.1395 H   0  0  0  0  0  0  0  0  0  0  0  0
    2.4569    3.0679   -1.4786 H   0  0  0  0  0  0  0  0  0  0  0  0
    3.5081    3.6885   -0.1951 H   0  0  0  0  0  0  0  0  0  0  0  0
    1.9203   -1.5249    0.6826 H   0  0  0  0  0  0  0  0  0  0  0  0
   -3.0103   -1.0030   -0.6212 H   0  0  0  0  0  0  0  0  0  0  0  0
   -0.6056   -1.7053    1.7885 H   0  0  0  0  0  0  0  0  0  0  0  0
   -0.4082   -0.9913   -2.4613 H   0  0  0  0  0  0  0  0  0  0  0  0
   -5.6328    3.1805    0.2610 H   0  0  0  0  0  0  0  0  0  0  0  0
   -1.9029    5.4730    0.8699 H   0  0  0  0  0  0  0  0  0  0  0  0
   -0.5405   -3.4138   -2.8724 H   0  0  0  0  0  0  0  0  0  0  0  0
    6.2226    1.4213   -2.2558 H   0  0  0  0  0  0  0  0  0  0  0  0
    6.5020    3.1459   -1.9339 H   0  0  0  0  0  0  0  0  0  0  0  0
    4.8895    2.6045   -2.4463 H   0  0  0  0  0  0  0  0  0  0  0  0
    6.5536   -0.9166    2.0288 H   0  0  0  0  0  0  0  0  0  0  0  0
    6.9511    0.7785    1.5974 H   0  0  0  0  0  0  0  0  0  0  0  0
    8.0017   -0.5522    1.0656 H   0  0  0  0  0  0  0  0  0  0  0  0
    3.4688   -3.3611   -0.9105 H   0  0  0  0  0  0  0  0  0  0  0  0
    5.1772   -2.8776   -1.1703 H   0  0  0  0  0  0  0  0  0  0  0  0
    4.7796   -4.2031   -0.0549 H   0  0  0  0  0  0  0  0  0  0  0  0
   -0.7392   -5.7383   -0.1713 H   0  0  0  0  0  0  0  0  0  0  0  0
   -6.3541   -3.0184    0.0538 H   0  0  0  0  0  0  0  0  0  0  0  0
   -6.4869   -1.5556    1.0429 H   0  0  0  0  0  0  0  0  0  0  0  0
   -4.9133   -2.4051    0.8797 H   0  0  0  0  0  0  0  0  0  0  0  0
   -2.5763   -3.7409    2.4113 H   0  0  0  0  0  0  0  0  0  0  0  0
   -2.6522   -5.0939    1.2369 H   0  0  0  0  0  0  0  0  0  0  0  0
   -1.9725   -5.3518    2.8589 H   0  0  0  0  0  0  0  0  0  0  0  0
  1 23  1  0  0  0  0
  1 24  1  0  0  0  0
  2 21  1  0  0  0  0
  2 36  1  0  0  0  0
  3 23  1  0  0  0  0
  3 50  1  0  0  0  0
  4 25  1  0  0  0  0
  4 37  1  0  0  0  0
  5 26  1  0  0  0  0
  5 38  1  0  0  0  0
  6 31  1  0  0  0  0
  6 39  1  0  0  0  0
  7 33  1  0  0  0  0
  7 40  1  0  0  0  0
  8 32  2  0  0  0  0
  9 35  1  0  0  0  0
  9 61  1  0  0  0  0
 10 11  1  0  0  0  0
 10 12  1  0  0  0  0
 10 14  1  0  0  0  0
 11 13  2  0  0  0  0
 11 17  1  0  0  0  0
 12 15  1  0  0  0  0
 12 41  1  0  0  0  0
 12 42  1  0  0  0  0
 13 16  1  0  0  0  0
 13 20  1  0  0  0  0
 14 16  1  0  0  0  0
 14 23  2  0  0  0  0
 15 18  1  0  0  0  0
 15 43  1  0  0  0  0
 15 44  1  0  0  0  0
 16 19  2  0  0  0  0
 17 18  1  0  0  0  0
 17 22  2  0  0  0  0
 18 21  2  0  0  0  0
 19 24  1  0  0  0  0
 19 27  1  0  0  0  0
 20 28  2  0  0  0  0
 20 29  1  0  0  0  0
 21 25  1  0  0  0  0
 22 26  1  0  0  0  0
 22 45  1  0  0  0  0
 24 30  2  0  0  0  0
 25 26  2  0  0  0  0
 27 31  2  0  0  0  0
 27 46  1  0  0  0  0
 28 33  1  0  0  0  0
 28 47  1  0  0  0  0
 29 34  2  0  0  0  0
 29 48  1  0  0  0  0
 30 32  1  0  0  0  0
 30 49  1  0  0  0  0
 31 32  1  0  0  0  0
 33 35  2  0  0  0  0
 34 35  1  0  0  0  0
 34 51  1  0  0  0  0
 36 52  1  0  0  0  0
 36 53  1  0  0  0  0
 36 54  1  0  0  0  0
 37 55  1  0  0  0  0
 37 56  1  0  0  0  0
 37 57  1  0  0  0  0
 38 58  1  0  0  0  0
 38 59  1  0  0  0  0
 38 60  1  0  0  0  0
 39 62  1  0  0  0  0
 39 63  1  0  0  0  0
 39 64  1  0  0  0  0
 40 65  1  0  0  0  0
 40 66  1  0  0  0  0
 40 67  1  0  0  0  0
M  END
> <PUBCHEM_COMPOUND_CID>
3875

> <PUBCHEM_CONFORMER_RMSD>
1

> <PUBCHEM_CONFORMER_DIVERSEORDER>
1
3
4
2

> <PUBCHEM_MMFF94_PARTIAL_CHARGES>
46
1 -0.15
10 -0.57
11 0.07
12 0.37
13 -0.03
14 0.1
15 0.14
17 0.03
18 -0.14
2 -0.36
20 0.03
21 0.08
22 -0.15
23 0.15
24 0.08
25 0.08
26 0.08
27 -0.15
28 -0.15
29 -0.15
3 -0.53
30 -0.14
31 0.09
32 0.54
33 0.08
34 -0.15
35 0.08
36 0.28
37 0.28
38 0.28
39 0.28
4 -0.36
40 0.28
45 0.15
46 0.15
47 0.15
48 0.15
49 0.15
5 -0.36
50 0.45
51 0.15
6 -0.36
61 0.45
7 -0.36
8 -0.57
9 -0.53

> <PUBCHEM_EFFECTIVE_ROTOR_COUNT>
6.4

> <PUBCHEM_PHARMACOPHORE_FEATURES>
16
1 1 acceptor
1 10 cation
1 2 acceptor
1 3 donor
1 4 acceptor
1 5 acceptor
1 6 acceptor
1 7 acceptor
1 8 acceptor
1 9 donor
5 10 11 13 14 16 rings
6 1 14 16 19 23 24 rings
6 10 11 12 15 17 18 rings
6 17 18 21 22 25 26 rings
6 19 24 27 30 31 32 rings
6 20 28 29 33 34 35 rings

> <PUBCHEM_HEAVY_ATOM_COUNT>
40

> <PUBCHEM_ATOM_DEF_STEREO_COUNT>
0

> <PUBCHEM_ATOM_UDEF_STEREO_COUNT>
0

> <PUBCHEM_BOND_DEF_STEREO_COUNT>
0

> <PUBCHEM_BOND_UDEF_STEREO_COUNT>
0

> <PUBCHEM_ISOTOPIC_ATOM_COUNT>
0

> <PUBCHEM_COMPONENT_COUNT>
1

> <PUBCHEM_CACTVS_TAUTO_COUNT>
3

> <PUBCHEM_CONFORMER_ID>
00000F2300000001

> <PUBCHEM_MMFF94_ENERGY>
195.1502

> <PUBCHEM_FEATURE_SELFOVERLAP>
81.438

> <PUBCHEM_SHAPE_FINGERPRINT>
10119406 146 18410281528719280006
1100329 8 18338524044745290249
11135926 11 18337961198852642965
11421498 54 17604707919216540425
11513181 2 18260824938455890038
11578080 2 16808710720425137170
11991303 11 18201436935189598319
12788726 201 18187638107316560200
13140716 1 17903648380035972864
1361 2 18338517563972261946
14790565 3 18409447015814238685
15001296 14 18343023332278282224
15131766 46 16270218364631144532
15274700 242 18123214500215266618
15320467 1 18409168813670971575
15351339 4 18342468010788393115
15968369 153 18116719517225224842
16112460 7 18262223508835775953
16628084 112 18341054111332259854
18681886 176 18409740555485875145
19311894 1 18043828498085486415
19319366 153 18060424608040922314
19591789 44 18336833094672372757
20028762 73 18261960751199888303
20775438 99 16672224975564256015
21133410 90 16807844327449936531
22311459 1 18411136905885068640
23559900 14 18336839675227785705
3178227 256 18410847777149341377
3383291 50 18409736140502328162
350125 39 18409450288901143149
392239 28 18410847781533992267
4058900 60 18270113638673506917
463206 1 18339365158946986688

> <PUBCHEM_SHAPE_MULTIPOLES>
765.38
13.6
6.53
1.21
3.96
4.04
0.11
-3.37
0.57
-2.6
-1.02
0.36
1.07
-0.77

> <PUBCHEM_SHAPE_SELFOVERLAP>
1708.348

> <PUBCHEM_SHAPE_VOLUME>
405.9

> <PUBCHEM_COORDINATE_TYPE>
2
5
10

$$$$

