227847
  -OEChem-07051213073D

 53 56  0     1  0  0  0  0  0999 V2000
   -0.2387    2.2379   -1.0264 O   0  0  0  0  0  0  0  0  0  0  0  0
   -4.9260    0.9209    0.3694 O   0  0  0  0  0  0  0  0  0  0  0  0
    0.4677    0.3222    0.3517 C   0  0  1  0  0  0  0  0  0  0  0  0
   -0.3400   -0.8493   -0.3042 C   0  0  2  0  0  0  0  0  0  0  0  0
   -1.7499   -0.8620    0.3016 C   0  0  1  0  0  0  0  0  0  0  0  0
    1.9757    0.3358   -0.1217 C   0  0  2  0  0  0  0  0  0  0  0  0
   -2.5255    0.4451    0.0571 C   0  0  2  0  0  0  0  0  0  0  0  0
    2.5755   -1.0678    0.2232 C   0  0  1  0  0  0  0  0  0  0  0  0
   -0.2870    1.6855    0.2812 C   0  0  2  0  0  0  0  0  0  0  0  0
   -1.7595    1.5913    0.7412 C   0  0  0  0  0  0  0  0  0  0  0  0
    0.3511   -2.2059   -0.0875 C   0  0  0  0  0  0  0  0  0  0  0  0
   -2.7387   -1.9457   -0.1200 C   0  0  0  0  0  0  0  0  0  0  0  0
   -3.8567    0.0736    0.7444 C   0  0  2  0  0  0  0  0  0  0  0  0
    1.8240   -2.2000   -0.4842 C   0  0  0  0  0  0  0  0  0  0  0  0
    2.7816    1.4014    0.6732 C   0  0  0  0  0  0  0  0  0  0  0  0
   -4.1058   -1.3868    0.3161 C   0  0  0  0  0  0  0  0  0  0  0  0
    4.0886   -1.1627   -0.0240 C   0  0  0  0  0  0  0  0  0  0  0  0
    2.1104    0.6472   -1.6348 C   0  0  0  0  0  0  0  0  0  0  0  0
   -2.7821    0.7737   -1.4355 C   0  0  0  0  0  0  0  0  0  0  0  0
    4.2930    1.3188    0.4459 C   0  0  0  0  0  0  0  0  0  0  0  0
    4.8423   -0.0731    0.7334 C   0  0  0  0  0  0  0  0  0  0  0  0
    0.4987    0.0885    1.4289 H   0  0  0  0  0  0  0  0  0  0  0  0
   -0.4126   -0.6884   -1.3842 H   0  0  0  0  0  0  0  0  0  0  0  0
   -1.6189   -0.9857    1.3903 H   0  0  0  0  0  0  0  0  0  0  0  0
    2.4391   -1.2268    1.3046 H   0  0  0  0  0  0  0  0  0  0  0  0
    0.2166    2.4017    0.9403 H   0  0  0  0  0  0  0  0  0  0  0  0
   -1.7661    1.4358    1.8281 H   0  0  0  0  0  0  0  0  0  0  0  0
   -2.2738    2.5424    0.5565 H   0  0  0  0  0  0  0  0  0  0  0  0
   -0.1655   -2.9845   -0.6611 H   0  0  0  0  0  0  0  0  0  0  0  0
    0.2734   -2.4938    0.9691 H   0  0  0  0  0  0  0  0  0  0  0  0
   -2.5297   -2.9056    0.3630 H   0  0  0  0  0  0  0  0  0  0  0  0
   -2.7190   -2.1069   -1.2036 H   0  0  0  0  0  0  0  0  0  0  0  0
   -3.7618    0.1140    1.8370 H   0  0  0  0  0  0  0  0  0  0  0  0
    2.2641   -3.1670   -0.2113 H   0  0  0  0  0  0  0  0  0  0  0  0
    1.9197   -2.1135   -1.5725 H   0  0  0  0  0  0  0  0  0  0  0  0
    2.5854    1.2820    1.7470 H   0  0  0  0  0  0  0  0  0  0  0  0
    2.4495    2.4121    0.4075 H   0  0  0  0  0  0  0  0  0  0  0  0
   -4.8364   -1.4612   -0.4970 H   0  0  0  0  0  0  0  0  0  0  0  0
   -4.5080   -1.9601    1.1591 H   0  0  0  0  0  0  0  0  0  0  0  0
    4.3180   -1.1023   -1.0934 H   0  0  0  0  0  0  0  0  0  0  0  0
    4.4561   -2.1408    0.3106 H   0  0  0  0  0  0  0  0  0  0  0  0
    3.1141    0.4388   -2.0154 H   0  0  0  0  0  0  0  0  0  0  0  0
    1.4186    0.0660   -2.2492 H   0  0  0  0  0  0  0  0  0  0  0  0
    1.9306    1.7055   -1.8460 H   0  0  0  0  0  0  0  0  0  0  0  0
   -1.8709    0.7750   -2.0367 H   0  0  0  0  0  0  0  0  0  0  0  0
   -3.4606    0.0571   -1.9101 H   0  0  0  0  0  0  0  0  0  0  0  0
   -3.2429    1.7629   -1.5395 H   0  0  0  0  0  0  0  0  0  0  0  0
    4.7958    2.0471    1.0930 H   0  0  0  0  0  0  0  0  0  0  0  0
    4.5343    1.6043   -0.5845 H   0  0  0  0  0  0  0  0  0  0  0  0
    5.9062   -0.1118    0.4737 H   0  0  0  0  0  0  0  0  0  0  0  0
    4.7734   -0.2707    1.8105 H   0  0  0  0  0  0  0  0  0  0  0  0
   -0.6765    3.1055   -0.9988 H   0  0  0  0  0  0  0  0  0  0  0  0
   -4.6863    1.8265    0.6295 H   0  0  0  0  0  0  0  0  0  0  0  0
  1  9  1  0  0  0  0
  1 52  1  0  0  0  0
  2 13  1  0  0  0  0
  2 53  1  0  0  0  0
  3  4  1  0  0  0  0
  3  6  1  0  0  0  0
  3  9  1  0  0  0  0
  3 22  1  0  0  0  0
  4  5  1  0  0  0  0
  4 11  1  0  0  0  0
  4 23  1  0  0  0  0
  5  7  1  0  0  0  0
  5 12  1  0  0  0  0
  5 24  1  0  0  0  0
  6  8  1  0  0  0  0
  6 15  1  0  0  0  0
  6 18  1  0  0  0  0
  7 10  1  0  0  0  0
  7 13  1  0  0  0  0
  7 19  1  0  0  0  0
  8 14  1  0  0  0  0
  8 17  1  0  0  0  0
  8 25  1  0  0  0  0
  9 10  1  0  0  0  0
  9 26  1  0  0  0  0
 10 27  1  0  0  0  0
 10 28  1  0  0  0  0
 11 14  1  0  0  0  0
 11 29  1  0  0  0  0
 11 30  1  0  0  0  0
 12 16  1  0  0  0  0
 12 31  1  0  0  0  0
 12 32  1  0  0  0  0
 13 16  1  0  0  0  0
 13 33  1  0  0  0  0
 14 34  1  0  0  0  0
 14 35  1  0  0  0  0
 15 20  1  0  0  0  0
 15 36  1  0  0  0  0
 15 37  1  0  0  0  0
 16 38  1  0  0  0  0
 16 39  1  0  0  0  0
 17 21  1  0  0  0  0
 17 40  1  0  0  0  0
 17 41  1  0  0  0  0
 18 42  1  0  0  0  0
 18 43  1  0  0  0  0
 18 44  1  0  0  0  0
 19 45  1  0  0  0  0
 19 46  1  0  0  0  0
 19 47  1  0  0  0  0
 20 21  1  0  0  0  0
 20 48  1  0  0  0  0
 20 49  1  0  0  0  0
 21 50  1  0  0  0  0
 21 51  1  0  0  0  0
M  END
> <PUBCHEM_COMPOUND_CID>
227847

> <PUBCHEM_CONFORMER_RMSD>
0.6

> <PUBCHEM_CONFORMER_DIVERSEORDER>
1

> <PUBCHEM_MMFF94_PARTIAL_CHARGES>
6
1 -0.68
13 0.28
2 -0.68
52 0.4
53 0.4
9 0.28

> <PUBCHEM_EFFECTIVE_ROTOR_COUNT>
2.2

> <PUBCHEM_PHARMACOPHORE_FEATURES>
8
1 1 acceptor
1 1 donor
1 2 acceptor
1 2 donor
5 5 7 12 13 16 rings
6 3 4 5 7 9 10 rings
6 3 4 6 8 11 14 rings
6 6 8 15 17 20 21 rings

> <PUBCHEM_HEAVY_ATOM_COUNT>
21

> <PUBCHEM_ATOM_DEF_STEREO_COUNT>
8

> <PUBCHEM_ATOM_UDEF_STEREO_COUNT>
0

> <PUBCHEM_BOND_DEF_STEREO_COUNT>
0

> <PUBCHEM_BOND_UDEF_STEREO_COUNT>
0

> <PUBCHEM_ISOTOPIC_ATOM_COUNT>
0

> <PUBCHEM_COMPONENT_COUNT>
1

> <PUBCHEM_CACTVS_TAUTO_COUNT>
1

> <PUBCHEM_CONFORMER_ID>
00037A0700000001

> <PUBCHEM_MMFF94_ENERGY>
78.2985

> <PUBCHEM_FEATURE_SELFOVERLAP>
40.684

> <PUBCHEM_SHAPE_FINGERPRINT>
10062212 137 18411984620305903555
10411042 1 16390996186490054822
10616163 171 18335699416701511627
10863032 1 18335422352539831658
10967382 1 18408884065986969746
11132069 177 18412260631930992531
11578080 2 16914545629670438638
12011746 2 18408601474867154580
12236239 1 17988923349748821384
12403259 226 18338803420147852192
12403259 415 18411706495530388276
12403814 3 17917712388222508885
12553582 1 18339907252264730261
12633257 1 18336269062735521914
13140716 1 18410014299695324738
13214271 11 18261112963484332727
13224815 77 18409729556037258102
13675066 3 18272930509695138635
14178342 30 18410284826779168929
14223421 5 18336546143902607558
14787075 74 18266181638762823226
14790565 3 18050842226629438996
15163728 17 14636251941421715961
15196674 1 18408885118127369802
15219456 202 18411704308938009679
15375358 24 18409449202242151635
15536298 74 18260826016508400722
15788980 27 17561085799794768873
16945 1 18261950855267988999
17349148 13 18201721743208441298
1813 80 17418372497802983076
18186145 218 18408040715041170534
19141452 34 18410009927761222683
200 152 18113909243003847391
20510252 161 18259701220117879960
20715895 44 18056771051098006173
21267235 1 18410002221978412251
21421861 104 17986677175762351394
22182313 1 18128254682759271557
22854114 111 18410853252652284106
23184049 59 18409448076860460722
2334 1 18338796715071004390
23402539 116 18334865986845160710
23463225 33 18413386527368794510
23557571 272 18411698794141894862
23559900 14 18334012796535442088
26918003 58 18409171021204709353
2748010 2 18410849962575661630
296302 2 16515404053653914952
335352 9 18336545026910417471
34934 24 18408045130420641955
350125 39 18409729561081461160
5104073 3 18409448076676092258
633830 44 17967246494807382852
69090 78 18334298651793563506
7364860 26 18187922958300907518
9709674 26 18261951963422688854

> <PUBCHEM_SHAPE_MULTIPOLES>
420.43
8.54
2.27
1.03
0.42
0.42
0.34
-0.06
-1.73
0.01
0.12
0.01
-0.3
0.24

> <PUBCHEM_SHAPE_SELFOVERLAP>
891.139

> <PUBCHEM_SHAPE_VOLUME>
231.3

> <PUBCHEM_COORDINATE_TYPE>
2
5
10

$$$$

