442868
  -OEChem-07051213003D

 49 52  0     1  0  0  0  0  0999 V2000
   -0.4608   -0.0419    0.1054 O   0  0  0  0  0  0  0  0  0  0  0  0
    3.8635    1.9073    0.4090 O   0  0  0  0  0  0  0  0  0  0  0  0
    5.0364   -0.5733    0.2279 O   0  0  0  0  0  0  0  0  0  0  0  0
    3.5048   -2.8177   -0.0155 O   0  0  0  0  0  0  0  0  0  0  0  0
    1.0915   -3.7977   -0.1834 O   0  0  0  0  0  0  0  0  0  0  0  0
   -6.7799    0.0230   -0.1035 O   0  0  0  0  0  0  0  0  0  0  0  0
    0.1857    2.5944   -0.7983 N   0  0  1  0  0  0  0  0  0  0  0  0
    1.0525    2.2863    0.3566 C   0  0  1  0  0  0  0  0  0  0  0  0
    0.1327    2.4244    1.5839 C   0  0  0  0  0  0  0  0  0  0  0  0
   -1.2108    2.8720    1.0260 C   0  0  0  0  0  0  0  0  0  0  0  0
   -0.8527    3.4999   -0.3059 C   0  0  0  0  0  0  0  0  0  0  0  0
    1.6915    0.9173    0.2563 C   0  0  0  0  0  0  0  0  0  0  0  0
    0.9133    3.1575   -1.9283 C   0  0  0  0  0  0  0  0  0  0  0  0
    0.8987   -0.2240    0.1319 C   0  0  0  0  0  0  0  0  0  0  0  0
    3.0810    0.7961    0.2884 C   0  0  0  0  0  0  0  0  0  0  0  0
    1.4955   -1.4801    0.0396 C   0  0  0  0  0  0  0  0  0  0  0  0
    3.6769   -0.4626    0.1959 C   0  0  0  0  0  0  0  0  0  0  0  0
    2.8864   -1.6057    0.0711 C   0  0  0  0  0  0  0  0  0  0  0  0
    0.6357   -2.6662   -0.0929 C   0  0  0  0  0  0  0  0  0  0  0  0
   -1.2744   -1.1587   -0.0100 C   0  0  0  0  0  0  0  0  0  0  0  0
   -0.8198   -2.4177   -0.1131 C   0  0  0  0  0  0  0  0  0  0  0  0
   -2.7182   -0.8492   -0.0340 C   0  0  0  0  0  0  0  0  0  0  0  0
    5.7638    0.1014   -0.7953 C   0  0  0  0  0  0  0  0  0  0  0  0
   -3.4493   -0.8162    1.1558 C   0  0  0  0  0  0  0  0  0  0  0  0
   -3.3589   -0.5876   -1.2476 C   0  0  0  0  0  0  0  0  0  0  0  0
   -4.8129   -0.5236    1.1323 C   0  0  0  0  0  0  0  0  0  0  0  0
   -4.7226   -0.2949   -1.2712 C   0  0  0  0  0  0  0  0  0  0  0  0
   -5.4496   -0.2627   -0.0811 C   0  0  0  0  0  0  0  0  0  0  0  0
    1.7968    3.0829    0.4658 H   0  0  0  0  0  0  0  0  0  0  0  0
    0.5254    3.2084    2.2445 H   0  0  0  0  0  0  0  0  0  0  0  0
    0.0277    1.5203    2.1925 H   0  0  0  0  0  0  0  0  0  0  0  0
   -1.8770    2.0149    0.8846 H   0  0  0  0  0  0  0  0  0  0  0  0
   -1.7151    3.5778    1.6932 H   0  0  0  0  0  0  0  0  0  0  0  0
   -1.7160    3.5395   -0.9772 H   0  0  0  0  0  0  0  0  0  0  0  0
   -0.4707    4.5175   -0.1555 H   0  0  0  0  0  0  0  0  0  0  0  0
    0.2285    3.3571   -2.7598 H   0  0  0  0  0  0  0  0  0  0  0  0
    1.6622    2.4495   -2.2989 H   0  0  0  0  0  0  0  0  0  0  0  0
    1.4225    4.0934   -1.6718 H   0  0  0  0  0  0  0  0  0  0  0  0
   -1.4795   -3.2726   -0.2103 H   0  0  0  0  0  0  0  0  0  0  0  0
    3.5408    2.5815   -0.2121 H   0  0  0  0  0  0  0  0  0  0  0  0
    4.4672   -2.6807    0.0252 H   0  0  0  0  0  0  0  0  0  0  0  0
    5.1711    0.2362   -1.7071 H   0  0  0  0  0  0  0  0  0  0  0  0
    6.6374   -0.5082   -1.0448 H   0  0  0  0  0  0  0  0  0  0  0  0
    6.1207    1.0671   -0.4267 H   0  0  0  0  0  0  0  0  0  0  0  0
   -2.9668   -1.0154    2.1098 H   0  0  0  0  0  0  0  0  0  0  0  0
   -2.8053   -0.6072   -2.1833 H   0  0  0  0  0  0  0  0  0  0  0  0
   -5.3738   -0.4994    2.0627 H   0  0  0  0  0  0  0  0  0  0  0  0
   -5.2065   -0.0931   -2.2230 H   0  0  0  0  0  0  0  0  0  0  0  0
   -7.0538    0.1765   -1.0241 H   0  0  0  0  0  0  0  0  0  0  0  0
  1 14  1  0  0  0  0
  1 20  1  0  0  0  0
  2 15  1  0  0  0  0
  2 40  1  0  0  0  0
  3 17  1  0  0  0  0
  3 23  1  0  0  0  0
  4 18  1  0  0  0  0
  4 41  1  0  0  0  0
  5 19  2  0  0  0  0
  6 28  1  0  0  0  0
  6 49  1  0  0  0  0
  7  8  1  0  0  0  0
  7 11  1  0  0  0  0
  7 13  1  0  0  0  0
  8  9  1  0  0  0  0
  8 12  1  0  0  0  0
  8 29  1  0  0  0  0
  9 10  1  0  0  0  0
  9 30  1  0  0  0  0
  9 31  1  0  0  0  0
 10 11  1  0  0  0  0
 10 32  1  0  0  0  0
 10 33  1  0  0  0  0
 11 34  1  0  0  0  0
 11 35  1  0  0  0  0
 12 14  2  0  0  0  0
 12 15  1  0  0  0  0
 13 36  1  0  0  0  0
 13 37  1  0  0  0  0
 13 38  1  0  0  0  0
 14 16  1  0  0  0  0
 15 17  2  0  0  0  0
 16 18  2  0  0  0  0
 16 19  1  0  0  0  0
 17 18  1  0  0  0  0
 19 21  1  0  0  0  0
 20 21  2  0  0  0  0
 20 22  1  0  0  0  0
 21 39  1  0  0  0  0
 22 24  2  0  0  0  0
 22 25  1  0  0  0  0
 23 42  1  0  0  0  0
 23 43  1  0  0  0  0
 23 44  1  0  0  0  0
 24 26  1  0  0  0  0
 24 45  1  0  0  0  0
 25 27  2  0  0  0  0
 25 46  1  0  0  0  0
 26 28  2  0  0  0  0
 26 47  1  0  0  0  0
 27 28  1  0  0  0  0
 27 48  1  0  0  0  0
M  END
> <PUBCHEM_COMPOUND_CID>
442868

> <PUBCHEM_CONFORMER_RMSD>
0.8

> <PUBCHEM_CONFORMER_DIVERSEORDER>
2
3
6
4
8
9
5
1
7
10

> <PUBCHEM_MMFF94_PARTIAL_CHARGES>
34
1 -0.16
11 0.27
12 -0.14
13 0.27
14 0.08
15 0.08
16 0.09
17 0.08
18 0.08
19 0.47
2 -0.53
20 0.05
21 -0.14
22 0.03
23 0.28
24 -0.15
25 -0.15
26 -0.15
27 -0.15
28 0.08
3 -0.36
39 0.15
4 -0.53
40 0.45
41 0.45
45 0.15
46 0.15
47 0.15
48 0.15
49 0.45
5 -0.57
6 -0.53
7 -0.81
8 0.41

> <PUBCHEM_EFFECTIVE_ROTOR_COUNT>
4

> <PUBCHEM_PHARMACOPHORE_FEATURES>
11
1 1 acceptor
1 2 donor
1 3 acceptor
1 4 donor
1 5 acceptor
1 6 donor
1 7 cation
5 7 8 9 10 11 rings
6 1 14 16 19 20 21 rings
6 12 14 15 16 17 18 rings
6 22 24 25 26 27 28 rings

> <PUBCHEM_HEAVY_ATOM_COUNT>
28

> <PUBCHEM_ATOM_DEF_STEREO_COUNT>
0

> <PUBCHEM_ATOM_UDEF_STEREO_COUNT>
1

> <PUBCHEM_BOND_DEF_STEREO_COUNT>
0

> <PUBCHEM_BOND_UDEF_STEREO_COUNT>
0

> <PUBCHEM_ISOTOPIC_ATOM_COUNT>
0

> <PUBCHEM_COMPONENT_COUNT>
1

> <PUBCHEM_CACTVS_TAUTO_COUNT>
57

> <PUBCHEM_CONFORMER_ID>
0006C1F400000002

> <PUBCHEM_MMFF94_ENERGY>
97.1165

> <PUBCHEM_FEATURE_SELFOVERLAP>
55.846

> <PUBCHEM_SHAPE_FINGERPRINT>
10162869 55 18335141969935689339
10165383 225 17477457843609628905
10411042 1 18048879898863508862
104564 63 18336264651450791024
10670039 82 18268131219656844918
10673678 19 17273395206964852036
10688039 33 18202001079302189597
10967382 1 18409450250282919050
1100329 8 18265331716322025082
11421498 54 13326588388217358605
11513181 2 17678169606345242023
11646440 116 18261106344749806539
12035759 4 18055045724080555892
12156800 1 17902761366236319941
12166972 35 18263082133170264153
12236239 1 17603305934448344919
12422481 6 18046047526992377777
12553582 1 18408892819251605898
12788726 201 18338801216655361770
12838862 33 18337127686996326152
13134695 92 18260836955906434041
13140716 1 18194128421961351362
13402501 40 18272094907260919893
13911987 19 18342168947519815046
140371 6 18271229582334071248
14170010 4 18410296883237444433
14464042 87 18113333137628960729
14790565 3 18337662036430753144
14955137 171 18267288855387822571
15081414 286 18410289215940190349
151778 21 17983566413166218253
1601671 61 18412827954155859398
17357779 13 18338528516054490173
19591789 44 18264766735207554498
20642791 178 17840866270463830940
20739085 24 18340471344299631361
21033648 29 17987817249672920709
21236236 1 18264205975750725168
21285901 2 18335134349576984454
21641784 216 18200014261949249444
283562 15 18336826506577578448
335352 9 18408885110313012318
350125 39 18409166649745783432
46194498 28 17774725256222537309
463206 1 18261680255654997663
469060 322 18200019763348667728
474 4 18336266748033199931
5265222 85 16975596691645664372
550186 7 14780374820998093553
6443956 14 18409168796733688909

> <PUBCHEM_SHAPE_MULTIPOLES>
536.03
10.36
3.99
1.16
7.19
1.31
0.16
-2.76
0.81
-2
0.32
0.6
0.76
-0.14

> <PUBCHEM_SHAPE_SELFOVERLAP>
1185.781

> <PUBCHEM_SHAPE_VOLUME>
288.3

> <PUBCHEM_COORDINATE_TYPE>
2
5
10

$$$$

