46173972
  -OEChem-07051213103D

 58 63  0     1  0  0  0  0  0999 V2000
    2.4213   -1.0685    0.2844 O   0  0  0  0  0  0  0  0  0  0  0  0
   -0.7973   -1.1826   -1.0828 O   0  0  0  0  0  0  0  0  0  0  0  0
   -0.1787    1.3099    2.4408 O   0  0  0  0  0  0  0  0  0  0  0  0
    0.0193   -1.4182    2.4393 O   0  0  0  0  0  0  0  0  0  0  0  0
    1.2191   -1.4655   -2.2736 O   0  0  0  0  0  0  0  0  0  0  0  0
   -2.0911    2.5228    0.3569 O   0  0  0  0  0  0  0  0  0  0  0  0
   -1.9484   -2.2374    0.6937 O   0  0  0  0  0  0  0  0  0  0  0  0
   -2.6429    0.3227    1.6498 O   0  0  0  0  0  0  0  0  0  0  0  0
    0.0782    1.4042   -0.0230 C   0  0  1  0  0  0  0  0  0  0  0  0
    0.4199    0.6994    1.3171 C   0  0  2  0  0  0  0  0  0  0  0  0
    1.0414    0.5289   -0.9142 C   0  0  1  0  0  0  0  0  0  0  0  0
    0.0613   -0.8490    1.1442 C   0  0  1  0  0  0  0  0  0  0  0  0
    1.0867   -1.5559    0.1913 C   0  0  1  0  0  0  0  0  0  0  0  0
    2.3193    0.3403    0.0225 C   0  0  1  0  0  0  0  0  0  0  0  0
    0.6028   -0.9506   -1.1079 C   0  0  1  0  0  0  0  0  0  0  0  0
   -1.4748    1.3739   -0.2604 C   0  0  1  0  0  0  0  0  0  0  0  0
   -1.2444   -1.0667    0.2926 C   0  0  1  0  0  0  0  0  0  0  0  0
   -2.2146    0.1223    0.3011 C   0  0  1  0  0  0  0  0  0  0  0  0
    1.9372    0.8765    1.4021 C   0  0  0  0  0  0  0  0  0  0  0  0
   -3.4837    0.0802   -0.5935 C   0  0  1  0  0  0  0  0  0  0  0  0
   -1.8530    1.4688   -1.7573 C   0  0  0  0  0  0  0  0  0  0  0  0
    0.5327    2.8900   -0.1097 C   0  0  0  0  0  0  0  0  0  0  0  0
    3.6305    0.8512   -0.5298 C   0  0  0  0  0  0  0  0  0  0  0  0
    1.1589   -3.0784    0.2446 C   0  0  0  0  0  0  0  0  0  0  0  0
   -3.0174    0.5054   -1.9829 C   0  0  0  0  0  0  0  0  0  0  0  0
   -4.2772   -1.2184   -0.6276 C   0  0  0  0  0  0  0  0  0  0  0  0
    4.7942    0.5129    0.4085 C   0  0  0  0  0  0  0  0  0  0  0  0
    3.9008    0.2817   -1.9265 C   0  0  0  0  0  0  0  0  0  0  0  0
    1.2549    1.0407   -1.8560 H   0  0  0  0  0  0  0  0  0  0  0  0
    2.3559    0.2989    2.2354 H   0  0  0  0  0  0  0  0  0  0  0  0
    2.2300    1.9173    1.5720 H   0  0  0  0  0  0  0  0  0  0  0  0
   -4.1863    0.8404   -0.2224 H   0  0  0  0  0  0  0  0  0  0  0  0
   -2.1523    2.4871   -2.0337 H   0  0  0  0  0  0  0  0  0  0  0  0
   -1.0344    1.1909   -2.4276 H   0  0  0  0  0  0  0  0  0  0  0  0
    1.6169    3.0166   -0.1521 H   0  0  0  0  0  0  0  0  0  0  0  0
    0.1511    3.3515   -1.0282 H   0  0  0  0  0  0  0  0  0  0  0  0
    0.1706    3.4816    0.7371 H   0  0  0  0  0  0  0  0  0  0  0  0
    3.5872    1.9426   -0.6252 H   0  0  0  0  0  0  0  0  0  0  0  0
    1.4489   -3.4137    1.2461 H   0  0  0  0  0  0  0  0  0  0  0  0
    0.2152   -3.5589   -0.0234 H   0  0  0  0  0  0  0  0  0  0  0  0
    1.9287   -3.4537   -0.4397 H   0  0  0  0  0  0  0  0  0  0  0  0
   -2.6852   -0.3537   -2.5770 H   0  0  0  0  0  0  0  0  0  0  0  0
   -3.8258    0.9852   -2.5454 H   0  0  0  0  0  0  0  0  0  0  0  0
    0.1499    2.2208    2.5160 H   0  0  0  0  0  0  0  0  0  0  0  0
    0.9185   -1.3913    2.8073 H   0  0  0  0  0  0  0  0  0  0  0  0
    1.0868   -0.8242   -2.9915 H   0  0  0  0  0  0  0  0  0  0  0  0
   -3.0294    2.5572    0.1092 H   0  0  0  0  0  0  0  0  0  0  0  0
   -1.3635   -2.7770    1.2499 H   0  0  0  0  0  0  0  0  0  0  0  0
   -3.0882   -0.4907    1.9422 H   0  0  0  0  0  0  0  0  0  0  0  0
   -3.7154   -2.0301   -1.0998 H   0  0  0  0  0  0  0  0  0  0  0  0
   -5.1964   -1.0840   -1.2088 H   0  0  0  0  0  0  0  0  0  0  0  0
   -4.5668   -1.5307    0.3805 H   0  0  0  0  0  0  0  0  0  0  0  0
    3.1738    0.6254   -2.6662 H   0  0  0  0  0  0  0  0  0  0  0  0
    4.8838    0.6102   -2.2834 H   0  0  0  0  0  0  0  0  0  0  0  0
    3.9066   -0.8133   -1.9240 H   0  0  0  0  0  0  0  0  0  0  0  0
    5.7323    0.9158    0.0104 H   0  0  0  0  0  0  0  0  0  0  0  0
    4.6522    0.9514    1.4011 H   0  0  0  0  0  0  0  0  0  0  0  0
    4.9259   -0.5680    0.5253 H   0  0  0  0  0  0  0  0  0  0  0  0
  1 13  1  0  0  0  0
  1 14  1  0  0  0  0
  2 15  1  0  0  0  0
  2 17  1  0  0  0  0
  3 10  1  0  0  0  0
  3 44  1  0  0  0  0
  4 12  1  0  0  0  0
  4 45  1  0  0  0  0
  5 15  1  0  0  0  0
  5 46  1  0  0  0  0
  6 16  1  0  0  0  0
  6 47  1  0  0  0  0
  7 17  1  0  0  0  0
  7 48  1  0  0  0  0
  8 18  1  0  0  0  0
  8 49  1  0  0  0  0
  9 10  1  0  0  0  0
  9 11  1  0  0  0  0
  9 16  1  0  0  0  0
  9 22  1  0  0  0  0
 10 12  1  0  0  0  0
 10 19  1  0  0  0  0
 11 14  1  0  0  0  0
 11 15  1  0  0  0  0
 11 29  1  0  0  0  0
 12 13  1  0  0  0  0
 12 17  1  0  0  0  0
 13 15  1  0  0  0  0
 13 24  1  0  0  0  0
 14 19  1  0  0  0  0
 14 23  1  0  0  0  0
 16 18  1  0  0  0  0
 16 21  1  0  0  0  0
 17 18  1  0  0  0  0
 18 20  1  0  0  0  0
 19 30  1  0  0  0  0
 19 31  1  0  0  0  0
 20 25  1  0  0  0  0
 20 26  1  0  0  0  0
 20 32  1  0  0  0  0
 21 25  1  0  0  0  0
 21 33  1  0  0  0  0
 21 34  1  0  0  0  0
 22 35  1  0  0  0  0
 22 36  1  0  0  0  0
 22 37  1  0  0  0  0
 23 27  1  0  0  0  0
 23 28  1  0  0  0  0
 23 38  1  0  0  0  0
 24 39  1  0  0  0  0
 24 40  1  0  0  0  0
 24 41  1  0  0  0  0
 25 42  1  0  0  0  0
 25 43  1  0  0  0  0
 26 50  1  0  0  0  0
 26 51  1  0  0  0  0
 26 52  1  0  0  0  0
 27 56  1  0  0  0  0
 27 57  1  0  0  0  0
 27 58  1  0  0  0  0
 28 53  1  0  0  0  0
 28 54  1  0  0  0  0
 28 55  1  0  0  0  0
M  END
> <PUBCHEM_COMPOUND_CID>
46173972

> <PUBCHEM_CONFORMER_RMSD>
0.6

> <PUBCHEM_CONFORMER_DIVERSEORDER>
1
2
3

> <PUBCHEM_MMFF94_PARTIAL_CHARGES>
22
1 -0.56
10 0.28
12 0.28
13 0.28
14 0.28
15 0.56
16 0.28
17 0.56
18 0.28
2 -0.56
3 -0.68
4 -0.68
44 0.4
45 0.4
46 0.4
47 0.4
48 0.4
49 0.4
5 -0.68
6 -0.68
7 -0.68
8 -0.68

> <PUBCHEM_EFFECTIVE_ROTOR_COUNT>
2.2

> <PUBCHEM_PHARMACOPHORE_FEATURES>
18
1 1 acceptor
1 2 acceptor
1 3 acceptor
1 3 donor
1 4 acceptor
1 4 donor
1 5 acceptor
1 5 donor
1 6 acceptor
1 6 donor
1 7 acceptor
1 7 donor
1 8 acceptor
1 8 donor
10 2 9 10 11 12 13 15 16 17 18 rings
3 23 27 28 hydrophobe
5 16 18 20 21 25 rings
9 1 9 10 11 12 13 14 15 19 rings

> <PUBCHEM_HEAVY_ATOM_COUNT>
28

> <PUBCHEM_ATOM_DEF_STEREO_COUNT>
7

> <PUBCHEM_ATOM_UDEF_STEREO_COUNT>
4

> <PUBCHEM_BOND_DEF_STEREO_COUNT>
0

> <PUBCHEM_BOND_UDEF_STEREO_COUNT>
0

> <PUBCHEM_ISOTOPIC_ATOM_COUNT>
0

> <PUBCHEM_COMPONENT_COUNT>
1

> <PUBCHEM_CACTVS_TAUTO_COUNT>
1

> <PUBCHEM_CONFORMER_ID>
02C08F1400000001

> <PUBCHEM_MMFF94_ENERGY>
180.036

> <PUBCHEM_FEATURE_SELFOVERLAP>
93.008

> <PUBCHEM_SHAPE_FINGERPRINT>
10863032 1 18201167657750923300
10948715 1 16343710936368211804
11315181 36 18201436957740587532
11578080 2 17129036158787438364
11640471 11 16774084006879513357
12011746 2 18409736136053652549
12035758 1 18265337196446860426
12403814 3 17774997969043632629
12423570 1 17246681764002549967
13140716 1 18195804064179793593
13224815 77 18187366558071931132
13464513 79 18262805038891546367
13583140 156 16702297928174472528
144361 1 18116174240919593745
14787075 74 18059294257993897143
15209289 33 17386005031333287357
16945 1 18410857650577437080
17349148 13 18262238936643152106
17492 54 17845930710877680925
1813 80 15647597983394285540
18981168 100 16700597120892693333
20691752 17 17773585208096919517
20905425 154 18263935495246792102
23227448 37 17344335649928929932
2334 1 17764589820070846561
23419403 2 17535472517490909939
23559900 14 18052274065651699410
238 59 18054264039810501413
2748010 2 17980765935074016385
296302 2 17917716820254341861
4340502 62 14908183084167985681

> <PUBCHEM_SHAPE_MULTIPOLES>
529.27
5.77
2.45
1.94
1.47
0.35
-0.1
-0.53
1.86
-0.28
-0.19
0.06
-0.03
0.21

> <PUBCHEM_SHAPE_SELFOVERLAP>
1214.807

> <PUBCHEM_SHAPE_VOLUME>
270.4

> <PUBCHEM_COORDINATE_TYPE>
2
5
10

$$$$

