5281442
  -OEChem-07051212573D

 49 52  0     1  0  0  0  0  0999 V2000
    1.2050    1.6846    0.2503 O   0  0  0  0  0  0  0  0  0  0  0  0
    1.2144   -2.4482    0.3613 O   0  0  0  0  0  0  0  0  0  0  0  0
    2.3774    0.2243    1.6577 O   0  0  0  0  0  0  0  0  0  0  0  0
   -2.5601   -0.0167   -1.0468 O   0  0  0  0  0  0  0  0  0  0  0  0
    3.3651   -2.2384   -0.3816 O   0  0  0  0  0  0  0  0  0  0  0  0
   -3.4468    2.4338    1.2451 O   0  0  0  0  0  0  0  0  0  0  0  0
    1.8014   -0.3933   -0.6286 C   0  0  1  0  0  0  0  0  0  0  0  0
    0.2904   -0.4255   -0.4111 C   0  0  2  0  0  0  0  0  0  0  0  0
    2.2680    0.7215    0.3196 C   0  0  1  0  0  0  0  0  0  0  0  0
   -0.0469    0.9678    0.1572 C   0  0  2  0  0  0  0  0  0  0  0  0
    0.0708   -1.5891    0.5655 C   0  0  1  0  0  0  0  0  0  0  0  0
   -0.9986    1.8247   -0.7023 C   0  0  0  0  0  0  0  0  0  0  0  0
    3.5800    1.4006   -0.0561 C   0  0  0  0  0  0  0  0  0  0  0  0
    2.2459   -1.7747   -0.2216 C   0  0  0  0  0  0  0  0  0  0  0  0
    2.1144   -0.1507   -2.1089 C   0  0  0  0  0  0  0  0  0  0  0  0
   -2.4729    1.3791   -0.7261 C   0  0  2  0  0  0  0  0  0  0  0  0
   -1.1691   -2.4420    0.3892 C   0  0  0  0  0  0  0  0  0  0  0  0
    3.9040    2.5039    0.9401 C   0  0  0  0  0  0  0  0  0  0  0  0
    4.7015    0.3746   -0.1245 C   0  0  0  0  0  0  0  0  0  0  0  0
   -2.4443   -2.0443    0.2045 C   0  0  0  0  0  0  0  0  0  0  0  0
   -3.1080    1.4274    0.6431 C   0  0  0  0  0  0  0  0  0  0  0  0
   -3.2951    2.1700   -1.7347 C   0  0  0  0  0  0  0  0  0  0  0  0
   -2.8080   -0.6532    0.1622 C   0  0  0  0  0  0  0  0  0  0  0  0
   -3.2124    0.0819    1.1961 C   0  0  0  0  0  0  0  0  0  0  0  0
   -3.5760   -3.0180    0.0501 C   0  0  0  0  0  0  0  0  0  0  0  0
   -0.2286   -0.6268   -1.3548 H   0  0  0  0  0  0  0  0  0  0  0  0
   -0.4334    0.9027    1.1797 H   0  0  0  0  0  0  0  0  0  0  0  0
    0.1153   -1.2709    1.6139 H   0  0  0  0  0  0  0  0  0  0  0  0
   -0.9415    2.8658   -0.3566 H   0  0  0  0  0  0  0  0  0  0  0  0
   -0.6050    1.8338   -1.7279 H   0  0  0  0  0  0  0  0  0  0  0  0
    3.4823    1.8895   -1.0334 H   0  0  0  0  0  0  0  0  0  0  0  0
    1.6187   -0.9039   -2.7346 H   0  0  0  0  0  0  0  0  0  0  0  0
    1.7534    0.8301   -2.4373 H   0  0  0  0  0  0  0  0  0  0  0  0
    3.1738   -0.2201   -2.3575 H   0  0  0  0  0  0  0  0  0  0  0  0
   -0.9921   -3.5161    0.4474 H   0  0  0  0  0  0  0  0  0  0  0  0
    2.5378    0.9715    2.2551 H   0  0  0  0  0  0  0  0  0  0  0  0
    4.2036    2.1139    1.9184 H   0  0  0  0  0  0  0  0  0  0  0  0
    4.7486    3.0990    0.5729 H   0  0  0  0  0  0  0  0  0  0  0  0
    3.0665    3.1944    1.0813 H   0  0  0  0  0  0  0  0  0  0  0  0
    4.7585   -0.2395    0.7803 H   0  0  0  0  0  0  0  0  0  0  0  0
    5.6656    0.8919   -0.2074 H   0  0  0  0  0  0  0  0  0  0  0  0
    4.6557   -0.2788   -0.9934 H   0  0  0  0  0  0  0  0  0  0  0  0
   -4.3415    1.8433   -1.7308 H   0  0  0  0  0  0  0  0  0  0  0  0
   -3.2758    3.2428   -1.5168 H   0  0  0  0  0  0  0  0  0  0  0  0
   -2.9210    2.0114   -2.7521 H   0  0  0  0  0  0  0  0  0  0  0  0
   -3.4149   -0.1917    2.2149 H   0  0  0  0  0  0  0  0  0  0  0  0
   -4.3093   -2.8915    0.8541 H   0  0  0  0  0  0  0  0  0  0  0  0
   -3.2307   -4.0571    0.0802 H   0  0  0  0  0  0  0  0  0  0  0  0
   -4.0838   -2.8684   -0.9091 H   0  0  0  0  0  0  0  0  0  0  0  0
  1  9  1  0  0  0  0
  1 10  1  0  0  0  0
  2 11  1  0  0  0  0
  2 14  1  0  0  0  0
  3  9  1  0  0  0  0
  3 36  1  0  0  0  0
  4 16  1  0  0  0  0
  4 23  1  0  0  0  0
  5 14  2  0  0  0  0
  6 21  2  0  0  0  0
  7  8  1  0  0  0  0
  7  9  1  0  0  0  0
  7 14  1  0  0  0  0
  7 15  1  0  0  0  0
  8 10  1  0  0  0  0
  8 11  1  0  0  0  0
  8 26  1  0  0  0  0
  9 13  1  0  0  0  0
 10 12  1  0  0  0  0
 10 27  1  0  0  0  0
 11 17  1  0  0  0  0
 11 28  1  0  0  0  0
 12 16  1  0  0  0  0
 12 29  1  0  0  0  0
 12 30  1  0  0  0  0
 13 18  1  0  0  0  0
 13 19  1  0  0  0  0
 13 31  1  0  0  0  0
 15 32  1  0  0  0  0
 15 33  1  0  0  0  0
 15 34  1  0  0  0  0
 16 21  1  0  0  0  0
 16 22  1  0  0  0  0
 17 20  2  0  0  0  0
 17 35  1  0  0  0  0
 18 37  1  0  0  0  0
 18 38  1  0  0  0  0
 18 39  1  0  0  0  0
 19 40  1  0  0  0  0
 19 41  1  0  0  0  0
 19 42  1  0  0  0  0
 20 23  1  0  0  0  0
 20 25  1  0  0  0  0
 21 24  1  0  0  0  0
 22 43  1  0  0  0  0
 22 44  1  0  0  0  0
 22 45  1  0  0  0  0
 23 24  2  0  0  0  0
 24 46  1  0  0  0  0
 25 47  1  0  0  0  0
 25 48  1  0  0  0  0
 25 49  1  0  0  0  0
M  END
> <PUBCHEM_COMPOUND_CID>
5281442

> <PUBCHEM_CONFORMER_RMSD>
0.6

> <PUBCHEM_CONFORMER_DIVERSEORDER>
1

> <PUBCHEM_MMFF94_PARTIAL_CHARGES>
21
1 -0.56
10 0.28
11 0.42
14 0.66
16 0.34
17 -0.29
2 -0.43
20 -0.14
21 0.49
23 0.08
24 -0.14
25 0.14
3 -0.68
35 0.15
36 0.4
4 -0.36
46 0.15
5 -0.57
6 -0.57
7 0.06
9 0.56

> <PUBCHEM_EFFECTIVE_ROTOR_COUNT>
2

> <PUBCHEM_PHARMACOPHORE_FEATURES>
10
1 1 acceptor
1 3 acceptor
1 3 donor
1 4 acceptor
1 5 acceptor
1 6 acceptor
3 13 18 19 hydrophobe
5 1 7 8 9 10 rings
5 2 7 8 11 14 rings
5 4 16 21 23 24 rings

> <PUBCHEM_HEAVY_ATOM_COUNT>
25

> <PUBCHEM_ATOM_DEF_STEREO_COUNT>
6

> <PUBCHEM_ATOM_UDEF_STEREO_COUNT>
0

> <PUBCHEM_BOND_DEF_STEREO_COUNT>
1

> <PUBCHEM_BOND_UDEF_STEREO_COUNT>
0

> <PUBCHEM_ISOTOPIC_ATOM_COUNT>
0

> <PUBCHEM_COMPONENT_COUNT>
1

> <PUBCHEM_CACTVS_TAUTO_COUNT>
1

> <PUBCHEM_CONFORMER_ID>
005096A200000001

> <PUBCHEM_MMFF94_ENERGY>
87.8984

> <PUBCHEM_FEATURE_SELFOVERLAP>
51.132

> <PUBCHEM_SHAPE_FINGERPRINT>
10165383 225 18053354842452457525
10366900 7 17968384424954629305
10498660 4 18342463603829953231
10616163 171 18337669724284517134
10646746 165 18409727323128926896
10670039 82 18055620738786866500
10863032 1 18335419080012148354
10948715 1 18260828172724187264
10967382 1 18411981390105050247
1100329 8 18194964277877995642
12173636 292 18264197188232352357
12403259 226 18192997006604123026
12403260 363 18267027159146823442
12553582 1 17984967225176056887
12633257 1 18340498862577064256
128993 33 18199453519445032333
13140716 1 18340485672363551275
13224815 77 18335421261628655476
13464514 151 18261384585811276040
14081887 123 18335702680939492603
14178342 30 18412258420001833657
14223421 5 18410859828120464326
14386348 128 18269822255048534149
14790565 3 17760915634626952080
16945 1 18413108372443923901
17349148 13 17631455570628125606
17357779 13 18121513362316145999
17980427 23 17059781018310624252
18186145 218 18337665438007343828
18981168 100 18272093828701902223
19591789 44 18337671910971483978
20510252 161 18265336097051289817
20600515 1 17899414478864341362
20691752 17 17988917868727207435
20905425 154 18410009897148273822
21279426 13 18336820988183205510
21501502 16 18410856564119743538
2334 1 18412826876071783703
23402539 116 18048605815424833319
23419403 2 17464559515764404305
23557571 272 18265328417797944567
23559900 14 18263644129862985462
2748010 2 18341890839823538943
283562 15 18195816171782460123
335352 9 18194679504318740526
350125 39 18412255160280119363
469060 322 18057309597083668283
495365 180 17910699861811423925
5104073 3 18410296896006257096
6287921 2 18268977718265175596
633830 44 18113334211223539556
81228 2 18200021833986926699
9709674 26 18408606984667007062

> <PUBCHEM_SHAPE_MULTIPOLES>
479.27
7.54
3.23
1.3
2.79
0.85
0.31
-1.79
-0.66
-1.7
-0.17
-0.11
-0.54
0.9

> <PUBCHEM_SHAPE_SELFOVERLAP>
1054.048

> <PUBCHEM_SHAPE_VOLUME>
260.4

> <PUBCHEM_COORDINATE_TYPE>
2
5
10

$$$$

