13773
  -OEChem-06241222403D

 45 47  0     0  0  0  0  0  0999 V2000
   -1.4576    0.0541   -1.5879 O   0  0  0  0  0  0  0  0  0  0  0  0
   -3.7202   -0.9699   -0.3686 N   0  0  0  0  0  0  0  0  0  0  0  0
   -4.8874   -1.7566    0.0290 C   0  0  0  0  0  0  0  0  0  0  0  0
   -3.6692    0.1407    0.5818 C   0  0  0  0  0  0  0  0  0  0  0  0
   -5.9286   -0.6907    0.3371 C   0  0  0  0  0  0  0  0  0  0  0  0
   -5.1281    0.5572    0.6969 C   0  0  0  0  0  0  0  0  0  0  0  0
   -2.4951   -1.7556   -0.3711 C   0  0  0  0  0  0  0  0  0  0  0  0
    1.1780   -0.3218   -0.6158 C   0  0  0  0  0  0  0  0  0  0  0  0
    0.0174   -1.2489   -0.1836 C   0  0  0  0  0  0  0  0  0  0  0  0
   -1.3324   -0.8755   -0.7920 C   0  0  0  0  0  0  0  0  0  0  0  0
    0.9828    1.1368   -0.2156 C   0  0  0  0  0  0  0  0  0  0  0  0
    2.5413   -0.8378   -0.1665 C   0  0  0  0  0  0  0  0  0  0  0  0
    1.5342    2.1218   -1.0068 C   0  0  0  0  0  0  0  0  0  0  0  0
    3.6481   -0.5428   -0.9330 C   0  0  0  0  0  0  0  0  0  0  0  0
    0.2611    1.4219    0.9237 C   0  0  0  0  0  0  0  0  0  0  0  0
    2.6208   -1.5815    0.9913 C   0  0  0  0  0  0  0  0  0  0  0  0
    1.3556    3.4559   -0.6410 C   0  0  0  0  0  0  0  0  0  0  0  0
    4.8948   -1.0143   -0.5221 C   0  0  0  0  0  0  0  0  0  0  0  0
    0.0824    2.7562    1.2893 C   0  0  0  0  0  0  0  0  0  0  0  0
    3.8677   -2.0529    1.4023 C   0  0  0  0  0  0  0  0  0  0  0  0
    0.6298    3.7730    0.5069 C   0  0  0  0  0  0  0  0  0  0  0  0
    5.0045   -1.7693    0.6455 C   0  0  0  0  0  0  0  0  0  0  0  0
   -4.6894   -2.3515    0.9299 H   0  0  0  0  0  0  0  0  0  0  0  0
   -5.2223   -2.4295   -0.7665 H   0  0  0  0  0  0  0  0  0  0  0  0
   -3.0583    0.9810    0.2387 H   0  0  0  0  0  0  0  0  0  0  0  0
   -3.2994   -0.1806    1.5643 H   0  0  0  0  0  0  0  0  0  0  0  0
   -6.5884   -0.9987    1.1545 H   0  0  0  0  0  0  0  0  0  0  0  0
   -6.5528   -0.4901   -0.5416 H   0  0  0  0  0  0  0  0  0  0  0  0
   -5.3606    1.3626   -0.0098 H   0  0  0  0  0  0  0  0  0  0  0  0
   -5.3655    0.9148    1.7040 H   0  0  0  0  0  0  0  0  0  0  0  0
   -2.5583   -2.5785   -1.0916 H   0  0  0  0  0  0  0  0  0  0  0  0
   -2.2915   -2.1786    0.6197 H   0  0  0  0  0  0  0  0  0  0  0  0
    1.1707   -0.3563   -1.7169 H   0  0  0  0  0  0  0  0  0  0  0  0
    0.2310   -2.2714   -0.5236 H   0  0  0  0  0  0  0  0  0  0  0  0
   -0.1230   -1.2937    0.9005 H   0  0  0  0  0  0  0  0  0  0  0  0
    2.0890    1.8917   -1.9105 H   0  0  0  0  0  0  0  0  0  0  0  0
    3.5771    0.0313   -1.8510 H   0  0  0  0  0  0  0  0  0  0  0  0
   -0.1611    0.6661    1.5742 H   0  0  0  0  0  0  0  0  0  0  0  0
    1.7693   -1.8069    1.6215 H   0  0  0  0  0  0  0  0  0  0  0  0
    1.7791    4.2480   -1.2517 H   0  0  0  0  0  0  0  0  0  0  0  0
    5.7798   -0.7961   -1.1128 H   0  0  0  0  0  0  0  0  0  0  0  0
   -0.4786    3.0036    2.1858 H   0  0  0  0  0  0  0  0  0  0  0  0
    3.9547   -2.6367    2.3141 H   0  0  0  0  0  0  0  0  0  0  0  0
    0.4910    4.8118    0.7920 H   0  0  0  0  0  0  0  0  0  0  0  0
    5.9753   -2.1359    0.9659 H   0  0  0  0  0  0  0  0  0  0  0  0
  1 10  2  0  0  0  0
  2  3  1  0  0  0  0
  2  4  1  0  0  0  0
  2  7  1  0  0  0  0
  3  5  1  0  0  0  0
  3 23  1  0  0  0  0
  3 24  1  0  0  0  0
  4  6  1  0  0  0  0
  4 25  1  0  0  0  0
  4 26  1  0  0  0  0
  5  6  1  0  0  0  0
  5 27  1  0  0  0  0
  5 28  1  0  0  0  0
  6 29  1  0  0  0  0
  6 30  1  0  0  0  0
  7 10  1  0  0  0  0
  7 31  1  0  0  0  0
  7 32  1  0  0  0  0
  8  9  1  0  0  0  0
  8 11  1  0  0  0  0
  8 12  1  0  0  0  0
  8 33  1  0  0  0  0
  9 10  1  0  0  0  0
  9 34  1  0  0  0  0
  9 35  1  0  0  0  0
 11 13  2  0  0  0  0
 11 15  1  0  0  0  0
 12 14  2  0  0  0  0
 12 16  1  0  0  0  0
 13 17  1  0  0  0  0
 13 36  1  0  0  0  0
 14 18  1  0  0  0  0
 14 37  1  0  0  0  0
 15 19  2  0  0  0  0
 15 38  1  0  0  0  0
 16 20  2  0  0  0  0
 16 39  1  0  0  0  0
 17 21  2  0  0  0  0
 17 40  1  0  0  0  0
 18 22  2  0  0  0  0
 18 41  1  0  0  0  0
 19 21  1  0  0  0  0
 19 42  1  0  0  0  0
 20 22  1  0  0  0  0
 20 43  1  0  0  0  0
 21 44  1  0  0  0  0
 22 45  1  0  0  0  0
M  END
> <PUBCHEM_COMPOUND_CID>
13773

> <PUBCHEM_CONFORMER_RMSD>
0.8

> <PUBCHEM_CONFORMER_DIVERSEORDER>
1
59
16
22
10
2
6
33
51
65
13
63
48
30
52
58
60
38
55
47
23
32
17
43
4
20
42
8
35
11
50
5
31
41
61
21
36
15
24
54
57
46
14
56
64
12
7
26
66
34
49
28
29
3
39
25
18
53
40
37
9
45
44
62
19
27

> <PUBCHEM_MMFF94_PARTIAL_CHARGES>
30
1 -0.57
10 0.45
11 -0.14
12 -0.14
13 -0.15
14 -0.15
15 -0.15
16 -0.15
17 -0.15
18 -0.15
19 -0.15
2 -0.81
20 -0.15
21 -0.15
22 -0.15
3 0.27
36 0.15
37 0.15
38 0.15
39 0.15
4 0.27
40 0.15
41 0.15
42 0.15
43 0.15
44 0.15
45 0.15
7 0.33
8 0.29
9 0.06

> <PUBCHEM_EFFECTIVE_ROTOR_COUNT>
7

> <PUBCHEM_PHARMACOPHORE_FEATURES>
5
1 1 acceptor
1 2 cation
5 2 3 4 5 6 rings
6 11 13 15 17 19 21 rings
6 12 14 16 18 20 22 rings

> <PUBCHEM_HEAVY_ATOM_COUNT>
22

> <PUBCHEM_ATOM_DEF_STEREO_COUNT>
0

> <PUBCHEM_ATOM_UDEF_STEREO_COUNT>
0

> <PUBCHEM_BOND_DEF_STEREO_COUNT>
0

> <PUBCHEM_BOND_UDEF_STEREO_COUNT>
0

> <PUBCHEM_ISOTOPIC_ATOM_COUNT>
0

> <PUBCHEM_COMPONENT_COUNT>
1

> <PUBCHEM_CACTVS_TAUTO_COUNT>
3

> <PUBCHEM_CONFORMER_ID>
000035CD00000001

> <PUBCHEM_MMFF94_ENERGY>
58.329

> <PUBCHEM_FEATURE_SELFOVERLAP>
25.371

> <PUBCHEM_SHAPE_FINGERPRINT>
10162869 55 18186240650714493721
11045515 52 17988363779750332116
11135609 187 17980748360775626476
11265709 11 18410855494915226608
11405975 8 18339921503346377483
12166972 35 18040435469452157227
12403260 363 18260549988220050063
12507557 5 18260827112289290995
12516196 113 18411139142992856602
12553582 1 18337965557553520710
12616971 3 17968373447783241607
12633257 1 18262223492045971537
12788726 201 18267857453645036354
13004483 165 18339089301586968034
13257819 101 4823211663280933915
133893 2 17832461646440561500
13533116 47 18196373616120875963
13590594 115 18340761619928621281
13878862 14 18267324062263558917
13899415 154 18339912766870999382
14022347 108 18335686278681578662
14251757 17 14907895037084210914
14466204 15 18337953523466048745
14739800 52 17460601320632489625
14950920 106 18123721237963623539
14955137 171 18261106370240385878
15042514 8 18121780796870523356
15238133 3 18338503240435417973
15420108 30 17461739302688101316
15664445 248 18334842923572427670
15849732 13 17822010908530123647
15885798 251 18336265729709050362
15927050 60 17832703479259558926
1601671 61 18261388987646638334
17349148 13 17676483935050751199
17492 89 18121219779980160447
17868525 174 18412833495048955537
17980427 23 17023764320066456277
17980427 26 17683538233919437644
1813 80 18408318917221231262
18222031 100 18260272948953149887
18785283 64 17985549944626759820
19078846 21 18408600370638598759
19784866 9 18193276278331663256
20600515 1 18186237321017898974
20671657 1 18192150395662172933
20681677 274 18267303128250183171
20739085 24 18334295349185155040
20832881 197 18272933842943376803
21033648 29 16805897293830107171
21041028 32 18408326604970383693
21421861 104 18340212890770023328
22950370 63 18413107294492061154
23366157 5 18125444111657856957
23419403 2 18043560319889764672
23558518 356 17546171796690612974
23559900 14 18339648824446650371
312423 11 18043817477099119311
3286 77 18341613681568613663
3411729 13 18042975268329888104
345986 75 17986407782628884154
4409770 3 17911250721352662421
5104073 3 18263070030258698003
5895379 119 17096620228424135497
6086070 43 18269577034534289173
6442390 28 17116346269842026641
7164475 11 18196934594531100302
7495541 125 18201996591019322863
81228 2 18118409677208633188
8509985 295 18407758127752261221
8863177 126 17986659386620111291
9841814 1 18341621382218031122
9971528 1 18113338600204933630
9981440 41 17400088469778928153

> <PUBCHEM_SHAPE_MULTIPOLES>
441.9
10.68
3.57
1.2
9.87
4.4
-0.07
-8.62
-1.68
-2.05
-0.59
-0.53
0.11
-1.19

> <PUBCHEM_SHAPE_SELFOVERLAP>
941.864

> <PUBCHEM_SHAPE_VOLUME>
245.7

> <PUBCHEM_COORDINATE_TYPE>
2
5
10

$$$$

