5460219
  -OEChem-07051212472D

 21 21  0     1  0  0  0  0  0999 V2000
    4.5576    1.0116    0.0000 O   0  0  0  0  0  0  0  0  0  0  0  0
    3.4699   -1.3362    0.0000 O   0  0  0  0  0  0  0  0  0  0  0  0
    5.6454   -1.3362    0.0000 O   0  0  0  0  0  0  0  0  0  0  0  0
    2.5896    1.7110    0.0000 O   0  0  0  0  0  0  0  0  0  0  0  0
    6.3177    0.7329    0.0000 O   0  0  0  0  0  0  0  0  0  0  0  0
    3.7486    0.4239    0.0000 C   0  0  2  0  0  0  0  0  0  0  0  0
    4.0576   -0.5272    0.0000 C   0  0  2  0  0  0  0  0  0  0  0  0
    5.0576   -0.5272    0.0000 C   0  0  2  0  0  0  0  0  0  0  0  0
    2.7976    0.7329    0.0000 C   0  0  2  0  0  0  0  0  0  0  0  0
    5.3667    0.4239    0.0000 C   0  0  0  0  0  0  0  0  0  0  0  0
    2.0544    0.0637    0.0000 C   0  0  0  0  0  0  0  0  0  0  0  0
    3.6156    1.2634    0.0000 H   0  0  0  0  0  0  0  0  0  0  0  0
    3.4453   -0.4302    0.0000 H   0  0  0  0  0  0  0  0  0  0  0  0
    4.7762   -1.0796    0.0000 H   0  0  0  0  0  0  0  0  0  0  0  0
    3.2583    1.1477    0.0000 H   0  0  0  0  0  0  0  0  0  0  0  0
    1.6396    0.5245    0.0000 H   0  0  0  0  0  0  0  0  0  0  0  0
    1.5937   -0.3511    0.0000 H   0  0  0  0  0  0  0  0  0  0  0  0
    2.4693   -0.3970    0.0000 H   0  0  0  0  0  0  0  0  0  0  0  0
    3.7220   -1.9026    0.0000 H   0  0  0  0  0  0  0  0  0  0  0  0
    6.2620   -1.2714    0.0000 H   0  0  0  0  0  0  0  0  0  0  0  0
    2.0000    1.9026    0.0000 H   0  0  0  0  0  0  0  0  0  0  0  0
  1  6  1  0  0  0  0
  1 10  1  0  0  0  0
  7  2  1  6  0  0  0
  2 19  1  0  0  0  0
  8  3  1  6  0  0  0
  3 20  1  0  0  0  0
  9  4  1  6  0  0  0
  4 21  1  0  0  0  0
  5 10  2  0  0  0  0
  6  7  1  0  0  0  0
  6  9  1  0  0  0  0
  6 12  1  1  0  0  0
  7  8  1  0  0  0  0
  7 13  1  0  0  0  0
  8 10  1  0  0  0  0
  8 14  1  0  0  0  0
  9 11  1  0  0  0  0
  9 15  1  0  0  0  0
 11 16  1  0  0  0  0
 11 17  1  0  0  0  0
 11 18  1  0  0  0  0
M  END
> <PUBCHEM_COMPOUND_CID>
5460219

> <PUBCHEM_COMPOUND_CANONICALIZED>
1

> <PUBCHEM_CACTVS_COMPLEXITY>
168

> <PUBCHEM_CACTVS_HBOND_ACCEPTOR>
5

> <PUBCHEM_CACTVS_HBOND_DONOR>
3

> <PUBCHEM_CACTVS_ROTATABLE_BOND>
1

> <PUBCHEM_CACTVS_SUBSKEYS>
AAADccBgOAAAAAAAAAAAAAAAAAAAASAAAAAAAAAAAAAAAAAAAAAAGgAACAAACBSggAICCAAABgAIAACQCAIAAAAAAAAAAAFAAAABEBYAAAACQAAFIAADAAHKbARAAAAAAAAAAAAAAAAAAAAAAAAAAAAAAA==

> <PUBCHEM_IUPAC_OPENEYE_NAME>
(3R,4S,5S)-3,4-dihydroxy-5-[(1S)-1-hydroxyethyl]tetrahydrofuran-2-one

> <PUBCHEM_IUPAC_CAS_NAME>
(3R,4S,5S)-3,4-dihydroxy-5-[(1S)-1-hydroxyethyl]-2-oxolanone

> <PUBCHEM_IUPAC_NAME>
(3R,4S,5S)-3,4-dihydroxy-5-[(1S)-1-hydroxyethyl]oxolan-2-one

> <PUBCHEM_IUPAC_SYSTEMATIC_NAME>
(3R,4S,5S)-3,4-bis(oxidanyl)-5-[(1S)-1-oxidanylethyl]oxolan-2-one

> <PUBCHEM_IUPAC_TRADITIONAL_NAME>
(3R,4S,5S)-3,4-dihydroxy-5-[(1S)-1-hydroxyethyl]tetrahydrofuran-2-one

> <PUBCHEM_IUPAC_INCHI>
InChI=1S/C6H10O5/c1-2(7)5-3(8)4(9)6(10)11-5/h2-5,7-9H,1H3/t2-,3-,4+,5-/m0/s1

> <PUBCHEM_IUPAC_INCHIKEY>
VASLEPDZAKCNJX-KLVWXMOXSA-N

> <PUBCHEM_XLOGP3_AA>
-1

> <PUBCHEM_EXACT_MASS>
162.052823

> <PUBCHEM_MOLECULAR_FORMULA>
C6H10O5

> <PUBCHEM_MOLECULAR_WEIGHT>
162.1406

> <PUBCHEM_OPENEYE_CAN_SMILES>
CC(C1C(C(C(=O)O1)O)O)O

> <PUBCHEM_OPENEYE_ISO_SMILES>
C[C@@H]([C@H]1[C@H]([C@H](C(=O)O1)O)O)O

> <PUBCHEM_CACTVS_TPSA>
87

> <PUBCHEM_MONOISOTOPIC_WEIGHT>
162.052823

> <PUBCHEM_TOTAL_CHARGE>
0

> <PUBCHEM_HEAVY_ATOM_COUNT>
11

> <PUBCHEM_ATOM_DEF_STEREO_COUNT>
4

> <PUBCHEM_ATOM_UDEF_STEREO_COUNT>
0

> <PUBCHEM_BOND_DEF_STEREO_COUNT>
0

> <PUBCHEM_BOND_UDEF_STEREO_COUNT>
0

> <PUBCHEM_ISOTOPIC_ATOM_COUNT>
0

> <PUBCHEM_COMPONENT_COUNT>
1

> <PUBCHEM_CACTVS_TAUTO_COUNT>
6

> <PUBCHEM_COORDINATE_TYPE>
1
5
255

> <PUBCHEM_BONDANNOTATIONS>
7  2  6
8  3  6
9  4  6
6  12  5

$$$$

