23724709
  -OEChem-07051213082D

 49 48  0     0  0  0  0  0  0999 V2000
   13.2583   -3.9050    0.0000 O   0  0  0  0  0  0  0  0  0  0  0  0
   14.1244   -2.4050    0.0000 O   0  0  0  0  0  0  0  0  0  0  0  0
    6.3301    3.0950    0.0000 O   0  0  0  0  0  0  0  0  0  0  0  0
   11.5263    0.0950    0.0000 C   0  0  0  0  0  0  0  0  0  0  0  0
   10.6603    0.5950    0.0000 C   0  0  0  0  0  0  0  0  0  0  0  0
   11.5263   -0.9050    0.0000 C   0  0  0  0  0  0  0  0  0  0  0  0
   10.6603    1.5950    0.0000 C   0  0  0  0  0  0  0  0  0  0  0  0
   12.3923   -1.4050    0.0000 C   0  0  0  0  0  0  0  0  0  0  0  0
    9.7942    2.0950    0.0000 C   0  0  0  0  0  0  0  0  0  0  0  0
   12.3923   -2.4050    0.0000 C   0  0  0  0  0  0  0  0  0  0  0  0
    9.7942    3.0950    0.0000 C   0  0  0  0  0  0  0  0  0  0  0  0
   13.2583   -2.9050    0.0000 C   0  0  0  0  0  0  0  0  0  0  0  0
    8.9282    3.5950    0.0000 C   0  0  0  0  0  0  0  0  0  0  0  0
    8.0622    3.0950    0.0000 C   0  0  0  0  0  0  0  0  0  0  0  0
    7.1962    3.5950    0.0000 C   0  0  0  0  0  0  0  0  0  0  0  0
    2.8660    2.0950    0.0000 C   0  0  0  0  0  0  0  0  0  0  0  0
    2.8660    3.0950    0.0000 C   0  0  0  0  0  0  0  0  0  0  0  0
    2.0000    1.5950    0.0000 C   0  0  0  0  0  0  0  0  0  0  0  0
    5.4641    3.5950    0.0000 C   0  0  0  0  0  0  0  0  0  0  0  0
    3.7320    3.5950    0.0000 C   0  0  0  0  0  0  0  0  0  0  0  0
    4.5981    3.0950    0.0000 C   0  0  0  0  0  0  0  0  0  0  0  0
   12.1369   -0.0127    0.0000 H   0  0  0  0  0  0  0  0  0  0  0  0
   11.7383    0.6776    0.0000 H   0  0  0  0  0  0  0  0  0  0  0  0
   10.0497    0.7027    0.0000 H   0  0  0  0  0  0  0  0  0  0  0  0
   10.4482    0.0124    0.0000 H   0  0  0  0  0  0  0  0  0  0  0  0
   10.9157   -0.7973    0.0000 H   0  0  0  0  0  0  0  0  0  0  0  0
   11.3142   -1.4876    0.0000 H   0  0  0  0  0  0  0  0  0  0  0  0
   11.2708    1.4873    0.0000 H   0  0  0  0  0  0  0  0  0  0  0  0
   10.8723    2.1776    0.0000 H   0  0  0  0  0  0  0  0  0  0  0  0
   13.0029   -1.5127    0.0000 H   0  0  0  0  0  0  0  0  0  0  0  0
   12.6044   -0.8224    0.0000 H   0  0  0  0  0  0  0  0  0  0  0  0
    9.1836    2.2027    0.0000 H   0  0  0  0  0  0  0  0  0  0  0  0
    9.5822    1.5124    0.0000 H   0  0  0  0  0  0  0  0  0  0  0  0
   11.7817   -2.2973    0.0000 H   0  0  0  0  0  0  0  0  0  0  0  0
   12.1803   -2.9876    0.0000 H   0  0  0  0  0  0  0  0  0  0  0  0
   10.3312    3.4050    0.0000 H   0  0  0  0  0  0  0  0  0  0  0  0
    8.9282    4.2150    0.0000 H   0  0  0  0  0  0  0  0  0  0  0  0
   13.7953   -4.2150    0.0000 H   0  0  0  0  0  0  0  0  0  0  0  0
    8.0622    2.4750    0.0000 H   0  0  0  0  0  0  0  0  0  0  0  0
    7.1962    4.2150    0.0000 H   0  0  0  0  0  0  0  0  0  0  0  0
    3.0781    1.5124    0.0000 H   0  0  0  0  0  0  0  0  0  0  0  0
    3.4766    2.2027    0.0000 H   0  0  0  0  0  0  0  0  0  0  0  0
    2.3291    3.4050    0.0000 H   0  0  0  0  0  0  0  0  0  0  0  0
    1.6900    2.1319    0.0000 H   0  0  0  0  0  0  0  0  0  0  0  0
    1.4631    1.2850    0.0000 H   0  0  0  0  0  0  0  0  0  0  0  0
    2.3100    1.0581    0.0000 H   0  0  0  0  0  0  0  0  0  0  0  0
    3.7320    4.2150    0.0000 H   0  0  0  0  0  0  0  0  0  0  0  0
    5.4641    4.2150    0.0000 H   0  0  0  0  0  0  0  0  0  0  0  0
    4.5981    2.4750    0.0000 H   0  0  0  0  0  0  0  0  0  0  0  0
  1 12  1  0  0  0  0
  1 38  1  0  0  0  0
  2 12  2  0  0  0  0
  3 15  1  0  0  0  0
  3 19  1  0  0  0  0
  4  5  1  0  0  0  0
  4  6  1  0  0  0  0
  4 22  1  0  0  0  0
  4 23  1  0  0  0  0
  5  7  1  0  0  0  0
  5 24  1  0  0  0  0
  5 25  1  0  0  0  0
  6  8  1  0  0  0  0
  6 26  1  0  0  0  0
  6 27  1  0  0  0  0
  7  9  1  0  0  0  0
  7 28  1  0  0  0  0
  7 29  1  0  0  0  0
  8 10  1  0  0  0  0
  8 30  1  0  0  0  0
  8 31  1  0  0  0  0
  9 11  1  0  0  0  0
  9 32  1  0  0  0  0
  9 33  1  0  0  0  0
 10 12  1  0  0  0  0
 10 34  1  0  0  0  0
 10 35  1  0  0  0  0
 11 13  2  0  0  0  0
 11 36  1  0  0  0  0
 13 14  1  0  0  0  0
 13 37  1  0  0  0  0
 14 15  2  0  0  0  0
 14 39  1  0  0  0  0
 15 40  1  0  0  0  0
 16 17  1  0  0  0  0
 16 18  1  0  0  0  0
 16 41  1  0  0  0  0
 16 42  1  0  0  0  0
 17 20  2  0  0  0  0
 17 43  1  0  0  0  0
 18 44  1  0  0  0  0
 18 45  1  0  0  0  0
 18 46  1  0  0  0  0
 19 21  2  0  0  0  0
 19 48  1  0  0  0  0
 20 21  1  0  0  0  0
 20 47  1  0  0  0  0
 21 49  1  0  0  0  0
M  END
> <PUBCHEM_COMPOUND_CID>
23724709

> <PUBCHEM_COMPOUND_CANONICALIZED>
1

> <PUBCHEM_CACTVS_COMPLEXITY>
352

> <PUBCHEM_CACTVS_HBOND_ACCEPTOR>
3

> <PUBCHEM_CACTVS_HBOND_DONOR>
1

> <PUBCHEM_CACTVS_ROTATABLE_BOND>
13

> <PUBCHEM_CACTVS_SUBSKEYS>
AAADceB4MAAAAAAAAAAAAAAAAAAAAAAAAAAAAAAAAAAAAAAAAAAAGgAACAAACACggAICCAAABgCIACDSCAAACAAgIAAICAEAAAgIABIAAQAAQAAEgAAIgAOIyKCAAAAAAAAAAAAAAAAAAAAAAAAAAAAAAA==

> <PUBCHEM_IUPAC_OPENEYE_NAME>
(9Z,11E)-12-[(1E,3Z)-hexa-1,3-dienoxy]dodeca-9,11-dienoic acid

> <PUBCHEM_IUPAC_CAS_NAME>
(9Z,11E)-12-[(1E,3Z)-hexa-1,3-dienoxy]dodeca-9,11-dienoic acid

> <PUBCHEM_IUPAC_NAME>
(9Z,11E)-12-[(1E,3Z)-hexa-1,3-dienoxy]dodeca-9,11-dienoic acid

> <PUBCHEM_IUPAC_SYSTEMATIC_NAME>
(9Z,11E)-12-[(1E,3Z)-hexa-1,3-dienoxy]dodeca-9,11-dienoic acid

> <PUBCHEM_IUPAC_TRADITIONAL_NAME>
(9Z,11E)-12-[(1E,3Z)-hexa-1,3-dienoxy]dodeca-9,11-dienoic acid

> <PUBCHEM_IUPAC_INCHI>
InChI=1S/C18H28O3/c1-2-3-4-13-16-21-17-14-11-9-7-5-6-8-10-12-15-18(19)20/h3-4,9,11,13-14,16-17H,2,5-8,10,12,15H2,1H3,(H,19,20)/b4-3-,11-9-,16-13+,17-14+

> <PUBCHEM_IUPAC_INCHIKEY>
QWRJRLCIDLDGLM-GTTHPXIQSA-N

> <PUBCHEM_XLOGP3>
5.4

> <PUBCHEM_EXACT_MASS>
292.203845

> <PUBCHEM_MOLECULAR_FORMULA>
C18H28O3

> <PUBCHEM_MOLECULAR_WEIGHT>
292.41312

> <PUBCHEM_OPENEYE_CAN_SMILES>
CCC=CC=COC=CC=CCCCCCCCC(=O)O

> <PUBCHEM_OPENEYE_ISO_SMILES>
CC/C=C\C=C\O/C=C/C=C\CCCCCCCC(=O)O

> <PUBCHEM_CACTVS_TPSA>
46.5

> <PUBCHEM_MONOISOTOPIC_WEIGHT>
292.203845

> <PUBCHEM_TOTAL_CHARGE>
0

> <PUBCHEM_HEAVY_ATOM_COUNT>
21

> <PUBCHEM_ATOM_DEF_STEREO_COUNT>
0

> <PUBCHEM_ATOM_UDEF_STEREO_COUNT>
0

> <PUBCHEM_BOND_DEF_STEREO_COUNT>
4

> <PUBCHEM_BOND_UDEF_STEREO_COUNT>
0

> <PUBCHEM_ISOTOPIC_ATOM_COUNT>
0

> <PUBCHEM_COMPONENT_COUNT>
1

> <PUBCHEM_CACTVS_TAUTO_COUNT>
1

> <PUBCHEM_COORDINATE_TYPE>
1
5
255

$$$$

