442218
  -OEChem-07051212572D

 40 43  0     1  0  0  0  0  0999 V2000
    3.9030   -1.0752    0.0000 O   0  0  0  0  0  0  0  0  0  0  0  0
    2.8698   -0.4607    0.0000 O   0  0  0  0  0  0  0  0  0  0  0  0
    2.8660    1.5918    0.0000 O   0  0  0  0  0  0  0  0  0  0  0  0
    7.2787    0.0668    0.0000 N   0  0  3  0  0  0  0  0  0  0  0  0
    6.4091   -0.4352    0.0000 C   0  0  1  0  0  0  0  0  0  0  0  0
    5.3894   -0.6384    0.0000 C   0  0  0  0  0  0  0  0  0  0  0  0
    6.6192   -1.4110    0.0000 C   0  0  0  0  0  0  0  0  0  0  0  0
    5.5395    0.0668    0.0000 C   0  0  0  0  0  0  0  0  0  0  0  0
    7.2787    1.0709    0.0000 C   0  0  0  0  0  0  0  0  0  0  0  0
    8.0187   -0.6030    0.0000 C   0  0  0  0  0  0  0  0  0  0  0  0
    6.4091    1.5730    0.0000 C   0  0  0  0  0  0  0  0  0  0  0  0
    5.5395    1.0709    0.0000 C   0  0  0  0  0  0  0  0  0  0  0  0
    4.8699   -1.3305    0.0000 C   0  0  2  0  0  0  0  0  0  0  0  0
    7.6119   -1.5146    0.0000 C   0  0  0  0  0  0  0  0  0  0  0  0
    6.1128   -2.0537    0.0000 C   0  0  0  0  0  0  0  0  0  0  0  0
    4.9828   -2.2118    0.0000 C   0  0  0  0  0  0  0  0  0  0  0  0
    4.6418   -0.4701    0.0000 C   0  0  0  0  0  0  0  0  0  0  0  0
    4.6418    1.6078    0.0000 C   0  0  0  0  0  0  0  0  0  0  0  0
    3.7320    0.0459    0.0000 C   0  0  0  0  0  0  0  0  0  0  0  0
    3.7320    1.0918    0.0000 C   0  0  0  0  0  0  0  0  0  0  0  0
    2.0000    0.0327    0.0000 C   0  0  0  0  0  0  0  0  0  0  0  0
    5.4411   -0.0205    0.0000 H   0  0  0  0  0  0  0  0  0  0  0  0
    4.8100   -0.4178    0.0000 H   0  0  0  0  0  0  0  0  0  0  0  0
    7.8892    0.9633    0.0000 H   0  0  0  0  0  0  0  0  0  0  0  0
    7.4907    1.6536    0.0000 H   0  0  0  0  0  0  0  0  0  0  0  0
    8.5552   -0.9138    0.0000 H   0  0  0  0  0  0  0  0  0  0  0  0
    8.3841   -0.1022    0.0000 H   0  0  0  0  0  0  0  0  0  0  0  0
    6.8076    2.0480    0.0000 H   0  0  0  0  0  0  0  0  0  0  0  0
    6.0106    2.0480    0.0000 H   0  0  0  0  0  0  0  0  0  0  0  0
    4.6664   -0.7448    0.0000 H   0  0  0  0  0  0  0  0  0  0  0  0
    7.9219   -2.0515    0.0000 H   0  0  0  0  0  0  0  0  0  0  0  0
    6.4215   -2.5914    0.0000 H   0  0  0  0  0  0  0  0  0  0  0  0
    4.6066   -2.7046    0.0000 H   0  0  0  0  0  0  0  0  0  0  0  0
    4.6490   -1.0900    0.0000 H   0  0  0  0  0  0  0  0  0  0  0  0
    4.6490    2.2278    0.0000 H   0  0  0  0  0  0  0  0  0  0  0  0
    3.4662   -1.5152    0.0000 H   0  0  0  0  0  0  0  0  0  0  0  0
    2.8660    2.2118    0.0000 H   0  0  0  0  0  0  0  0  0  0  0  0
    2.3059    0.5720    0.0000 H   0  0  0  0  0  0  0  0  0  0  0  0
    1.4607    0.3385    0.0000 H   0  0  0  0  0  0  0  0  0  0  0  0
    1.6941   -0.5066    0.0000 H   0  0  0  0  0  0  0  0  0  0  0  0
 13  1  1  6  0  0  0
  1 36  1  0  0  0  0
  2 19  1  0  0  0  0
  2 21  1  0  0  0  0
  3 20  1  0  0  0  0
  3 37  1  0  0  0  0
  4  5  1  0  0  0  0
  4  9  1  0  0  0  0
  4 10  1  0  0  0  0
  5  6  1  6  0  0  0
  5  7  1  0  0  0  0
  5  8  1  0  0  0  0
  6 13  1  0  0  0  0
  6 22  1  0  0  0  0
  6 23  1  0  0  0  0
  7 14  2  0  0  0  0
  7 15  1  0  0  0  0
  8 12  1  0  0  0  0
  8 17  2  0  0  0  0
  9 11  1  0  0  0  0
  9 24  1  0  0  0  0
  9 25  1  0  0  0  0
 10 14  1  0  0  0  0
 10 26  1  0  0  0  0
 10 27  1  0  0  0  0
 11 12  1  0  0  0  0
 11 28  1  0  0  0  0
 11 29  1  0  0  0  0
 12 18  2  0  0  0  0
 13 16  1  0  0  0  0
 13 30  1  0  0  0  0
 14 31  1  0  0  0  0
 15 16  2  0  0  0  0
 15 32  1  0  0  0  0
 16 33  1  0  0  0  0
 17 19  1  0  0  0  0
 17 34  1  0  0  0  0
 18 20  1  0  0  0  0
 18 35  1  0  0  0  0
 19 20  2  0  0  0  0
 21 38  1  0  0  0  0
 21 39  1  0  0  0  0
 21 40  1  0  0  0  0
M  END
> <PUBCHEM_COMPOUND_CID>
442218

> <PUBCHEM_COMPOUND_CANONICALIZED>
1

> <PUBCHEM_CACTVS_COMPLEXITY>
488

> <PUBCHEM_CACTVS_HBOND_ACCEPTOR>
4

> <PUBCHEM_CACTVS_HBOND_DONOR>
2

> <PUBCHEM_CACTVS_ROTATABLE_BOND>
1

> <PUBCHEM_CACTVS_SUBSKEYS>
AAADceB6MAAAAAAAAAAAAAAAAAAAAQAAAAA8QIAAAAAAAECxAAAAHgAACAAADJzhmAYyBoMABgCAAiBCAACCCAAgIAAIiAAOjIgNNiKGsRuEcCtmwBGLuAew0PMOoAABAAAQQABAAAIAACCAAAAAAAAAAA==

> <PUBCHEM_IUPAC_OPENEYE_NAME>
(2R,13bS)-12-methoxy-2,6,8,9-tetrahydro-1H-indolo[7a,1-a]isoquinoline-2,11-diol

> <PUBCHEM_IUPAC_CAS_NAME>
(2R,13bS)-12-methoxy-2,6,8,9-tetrahydro-1H-indolo[7a,1-a]isoquinoline-2,11-diol

> <PUBCHEM_IUPAC_NAME>
(2R,13bS)-12-methoxy-2,6,8,9-tetrahydro-1H-indolo[7a,1-a]isoquinoline-2,11-diol

> <PUBCHEM_IUPAC_SYSTEMATIC_NAME>
(2R,13bS)-12-methoxy-2,6,8,9-tetrahydro-1H-indolo[7a,1-a]isoquinoline-2,11-diol

> <PUBCHEM_IUPAC_TRADITIONAL_NAME>
(2R,13bS)-12-methoxy-2,6,8,9-tetrahydro-1H-indol[7a,1-a]isoquinoline-2,11-diol

> <PUBCHEM_IUPAC_INCHI>
InChI=1S/C17H19NO3/c1-21-16-9-14-11(8-15(16)20)4-6-18-7-5-12-2-3-13(19)10-17(12,14)18/h2-3,5,8-9,13,19-20H,4,6-7,10H2,1H3/t13-,17-/m0/s1

> <PUBCHEM_IUPAC_INCHIKEY>
OOQFZQDSQKMUFW-GUYCJALGSA-N

> <PUBCHEM_XLOGP3_AA>
1.3

> <PUBCHEM_EXACT_MASS>
285.136493

> <PUBCHEM_MOLECULAR_FORMULA>
C17H19NO3

> <PUBCHEM_MOLECULAR_WEIGHT>
285.33766

> <PUBCHEM_OPENEYE_CAN_SMILES>
COC1=C(C=C2CCN3CC=C4C3(C2=C1)CC(C=C4)O)O

> <PUBCHEM_OPENEYE_ISO_SMILES>
COC1=C(C=C2CCN3CC=C4[C@]3(C2=C1)C[C@H](C=C4)O)O

> <PUBCHEM_CACTVS_TPSA>
52.9

> <PUBCHEM_MONOISOTOPIC_WEIGHT>
285.136493

> <PUBCHEM_TOTAL_CHARGE>
0

> <PUBCHEM_HEAVY_ATOM_COUNT>
21

> <PUBCHEM_ATOM_DEF_STEREO_COUNT>
2

> <PUBCHEM_ATOM_UDEF_STEREO_COUNT>
0

> <PUBCHEM_BOND_DEF_STEREO_COUNT>
0

> <PUBCHEM_BOND_UDEF_STEREO_COUNT>
0

> <PUBCHEM_ISOTOPIC_ATOM_COUNT>
0

> <PUBCHEM_COMPONENT_COUNT>
1

> <PUBCHEM_CACTVS_TAUTO_COUNT>
9

> <PUBCHEM_COORDINATE_TYPE>
1
5
255

> <PUBCHEM_BONDANNOTATIONS>
13  1  6
12  18  8
17  19  8
18  20  8
19  20  8
5  6  6
8  12  8
8  17  8

$$$$

