5281058
  -OEChem-07051212543D

 72 74  0     1  0  0  0  0  0999 V2000
   -7.5250   -0.8830   -0.5595 O   0  0  0  0  0  0  0  0  0  0  0  0
    0.7989    1.3479   -0.4812 C   0  0  2  0  0  0  0  0  0  0  0  0
    2.2192    0.9959    0.0182 C   0  0  2  0  0  0  0  0  0  0  0  0
   -0.0273    0.8575    0.7388 C   0  0  1  0  0  0  0  0  0  0  0  0
    2.2003    1.4328    1.5020 C   0  0  0  0  0  0  0  0  0  0  0  0
    0.7178    1.4825    1.9211 C   0  0  0  0  0  0  0  0  0  0  0  0
    0.3172    0.5515   -1.7043 C   0  0  0  0  0  0  0  0  0  0  0  0
    3.3813    1.5933   -0.7618 C   0  0  1  0  0  0  0  0  0  0  0  0
    0.6646    2.8684   -0.7617 C   0  0  0  0  0  0  0  0  0  0  0  0
   -1.5096    1.0323    0.5441 C   0  0  0  0  0  0  0  0  0  0  0  0
   -1.1920    0.7554   -1.9469 C   0  0  0  0  0  0  0  0  0  0  0  0
    4.7563    1.1732   -0.2009 C   0  0  0  0  0  0  0  0  0  0  0  0
   -2.0224    0.9591   -0.7002 C   0  0  0  0  0  0  0  0  0  0  0  0
    3.2912    1.1818   -2.2369 C   0  0  0  0  0  0  0  0  0  0  0  0
    5.0214   -0.3365   -0.1303 C   0  0  0  0  0  0  0  0  0  0  0  0
   -2.3533    1.2125    1.6971 C   0  0  0  0  0  0  0  0  0  0  0  0
    6.3703   -0.6910    0.5036 C   0  0  0  0  0  0  0  0  0  0  0  0
   -3.5336    0.6015    1.8424 C   0  0  0  0  0  0  0  0  0  0  0  0
    6.6665   -2.2035    0.5093 C   0  0  0  0  0  0  0  0  0  0  0  0
   -4.0828   -0.3030    0.8554 C   0  0  0  0  0  0  0  0  0  0  0  0
   -5.5755   -0.1397    0.6567 C   0  0  0  0  0  0  0  0  0  0  0  0
    6.6347   -2.8134   -0.8931 C   0  0  0  0  0  0  0  0  0  0  0  0
    5.6571   -2.9251    1.4063 C   0  0  0  0  0  0  0  0  0  0  0  0
   -3.3608   -1.2153    0.1650 C   0  0  0  0  0  0  0  0  0  0  0  0
   -6.2358   -1.2859   -0.1113 C   0  0  2  0  0  0  0  0  0  0  0  0
   -3.9980   -2.1021   -0.8884 C   0  0  0  0  0  0  0  0  0  0  0  0
   -5.3950   -1.6675   -1.3187 C   0  0  0  0  0  0  0  0  0  0  0  0
   -1.8856   -1.4797    0.3348 C   0  0  0  0  0  0  0  0  0  0  0  0
    2.3012   -0.0993   -0.0024 H   0  0  0  0  0  0  0  0  0  0  0  0
    0.1733   -0.2160    0.8492 H   0  0  0  0  0  0  0  0  0  0  0  0
    2.6569    2.4176    1.6526 H   0  0  0  0  0  0  0  0  0  0  0  0
    2.7541    0.7165    2.1191 H   0  0  0  0  0  0  0  0  0  0  0  0
    0.5496    0.9278    2.8505 H   0  0  0  0  0  0  0  0  0  0  0  0
    0.4076    2.5193    2.0947 H   0  0  0  0  0  0  0  0  0  0  0  0
    0.8172    0.8339   -2.6311 H   0  0  0  0  0  0  0  0  0  0  0  0
    0.5252   -0.5166   -1.5646 H   0  0  0  0  0  0  0  0  0  0  0  0
    3.3507    2.6890   -0.7155 H   0  0  0  0  0  0  0  0  0  0  0  0
    1.1088    3.4798    0.0303 H   0  0  0  0  0  0  0  0  0  0  0  0
   -0.3781    3.1879   -0.8496 H   0  0  0  0  0  0  0  0  0  0  0  0
    1.1562    3.1490   -1.6981 H   0  0  0  0  0  0  0  0  0  0  0  0
   -1.3290    1.6417   -2.5798 H   0  0  0  0  0  0  0  0  0  0  0  0
   -1.5864   -0.0913   -2.5206 H   0  0  0  0  0  0  0  0  0  0  0  0
    4.8700    1.5934    0.8064 H   0  0  0  0  0  0  0  0  0  0  0  0
    5.5459    1.6417   -0.8031 H   0  0  0  0  0  0  0  0  0  0  0  0
   -3.0669    1.1808   -0.9080 H   0  0  0  0  0  0  0  0  0  0  0  0
    2.5899    1.8104   -2.7888 H   0  0  0  0  0  0  0  0  0  0  0  0
    4.2562    1.3330   -2.7360 H   0  0  0  0  0  0  0  0  0  0  0  0
    3.0292    0.1267   -2.3635 H   0  0  0  0  0  0  0  0  0  0  0  0
    4.2312   -0.8134    0.4545 H   0  0  0  0  0  0  0  0  0  0  0  0
    4.9666   -0.7409   -1.1453 H   0  0  0  0  0  0  0  0  0  0  0  0
   -1.9997    1.8707    2.4847 H   0  0  0  0  0  0  0  0  0  0  0  0
    7.1682   -0.1800   -0.0501 H   0  0  0  0  0  0  0  0  0  0  0  0
    6.4066   -0.3046    1.5297 H   0  0  0  0  0  0  0  0  0  0  0  0
   -4.1246    0.7945    2.7332 H   0  0  0  0  0  0  0  0  0  0  0  0
    7.6697   -2.3467    0.9296 H   0  0  0  0  0  0  0  0  0  0  0  0
   -5.7622    0.8094    0.1352 H   0  0  0  0  0  0  0  0  0  0  0  0
   -6.0853   -0.0500    1.6255 H   0  0  0  0  0  0  0  0  0  0  0  0
    5.6243   -2.8473   -1.3122 H   0  0  0  0  0  0  0  0  0  0  0  0
    7.0062   -3.8439   -0.8641 H   0  0  0  0  0  0  0  0  0  0  0  0
    7.2757   -2.2492   -1.5782 H   0  0  0  0  0  0  0  0  0  0  0  0
    4.6478   -2.9284    0.9831 H   0  0  0  0  0  0  0  0  0  0  0  0
    5.9541   -3.9714    1.5402 H   0  0  0  0  0  0  0  0  0  0  0  0
    5.6140   -2.4662    2.3996 H   0  0  0  0  0  0  0  0  0  0  0  0
   -6.3636   -2.1581    0.5416 H   0  0  0  0  0  0  0  0  0  0  0  0
   -4.0464   -3.1251   -0.4938 H   0  0  0  0  0  0  0  0  0  0  0  0
   -3.3603   -2.1330   -1.7804 H   0  0  0  0  0  0  0  0  0  0  0  0
   -5.3281   -0.8147   -2.0080 H   0  0  0  0  0  0  0  0  0  0  0  0
   -5.8829   -2.4683   -1.8874 H   0  0  0  0  0  0  0  0  0  0  0  0
   -1.8239   -2.5803    0.4189 H   0  0  0  0  0  0  0  0  0  0  0  0
   -1.4875   -1.2334    1.3205 H   0  0  0  0  0  0  0  0  0  0  0  0
   -1.2501   -1.3292   -0.5303 H   0  0  0  0  0  0  0  0  0  0  0  0
   -8.0413   -0.6308    0.2250 H   0  0  0  0  0  0  0  0  0  0  0  0
  1 25  1  0  0  0  0
  1 72  1  0  0  0  0
  2  3  1  0  0  0  0
  2  4  1  0  0  0  0
  2  7  1  0  0  0  0
  2  9  1  0  0  0  0
  3  5  1  0  0  0  0
  3  8  1  0  0  0  0
  3 29  1  0  0  0  0
  4  6  1  0  0  0  0
  4 10  1  0  0  0  0
  4 30  1  0  0  0  0
  5  6  1  0  0  0  0
  5 31  1  0  0  0  0
  5 32  1  0  0  0  0
  6 33  1  0  0  0  0
  6 34  1  0  0  0  0
  7 11  1  0  0  0  0
  7 35  1  0  0  0  0
  7 36  1  0  0  0  0
  8 12  1  0  0  0  0
  8 14  1  0  0  0  0
  8 37  1  0  0  0  0
  9 38  1  0  0  0  0
  9 39  1  0  0  0  0
  9 40  1  0  0  0  0
 10 13  2  0  0  0  0
 10 16  1  0  0  0  0
 11 13  1  0  0  0  0
 11 41  1  0  0  0  0
 11 42  1  0  0  0  0
 12 15  1  0  0  0  0
 12 43  1  0  0  0  0
 12 44  1  0  0  0  0
 13 45  1  0  0  0  0
 14 46  1  0  0  0  0
 14 47  1  0  0  0  0
 14 48  1  0  0  0  0
 15 17  1  0  0  0  0
 15 49  1  0  0  0  0
 15 50  1  0  0  0  0
 16 18  2  0  0  0  0
 16 51  1  0  0  0  0
 17 19  1  0  0  0  0
 17 52  1  0  0  0  0
 17 53  1  0  0  0  0
 18 20  1  0  0  0  0
 18 54  1  0  0  0  0
 19 22  1  0  0  0  0
 19 23  1  0  0  0  0
 19 55  1  0  0  0  0
 20 21  1  0  0  0  0
 20 24  2  0  0  0  0
 21 25  1  0  0  0  0
 21 56  1  0  0  0  0
 21 57  1  0  0  0  0
 22 58  1  0  0  0  0
 22 59  1  0  0  0  0
 22 60  1  0  0  0  0
 23 61  1  0  0  0  0
 23 62  1  0  0  0  0
 23 63  1  0  0  0  0
 24 26  1  0  0  0  0
 24 28  1  0  0  0  0
 25 27  1  0  0  0  0
 25 64  1  0  0  0  0
 26 27  1  0  0  0  0
 26 65  1  0  0  0  0
 26 66  1  0  0  0  0
 27 67  1  0  0  0  0
 27 68  1  0  0  0  0
 28 69  1  0  0  0  0
 28 70  1  0  0  0  0
 28 71  1  0  0  0  0
M  END
> <PUBCHEM_COMPOUND_CID>
5281058

> <PUBCHEM_CONFORMER_RMSD>
1

> <PUBCHEM_CONFORMER_DIVERSEORDER>
1
3
2

> <PUBCHEM_MMFF94_PARTIAL_CHARGES>
17
1 -0.68
10 -0.14
11 0.14
13 -0.29
16 -0.15
18 -0.15
20 -0.14
21 0.14
24 -0.28
25 0.28
26 0.14
28 0.14
4 0.14
45 0.15
51 0.15
54 0.15
72 0.4

> <PUBCHEM_EFFECTIVE_ROTOR_COUNT>
8.8

> <PUBCHEM_PHARMACOPHORE_FEATURES>
8
1 1 acceptor
1 1 donor
1 14 hydrophobe
3 19 22 23 hydrophobe
5 2 3 4 5 6 rings
5 8 12 15 17 19 hydrophobe
6 2 4 7 10 11 13 rings
6 20 21 24 25 26 27 rings

> <PUBCHEM_HEAVY_ATOM_COUNT>
28

> <PUBCHEM_ATOM_DEF_STEREO_COUNT>
5

> <PUBCHEM_ATOM_UDEF_STEREO_COUNT>
0

> <PUBCHEM_BOND_DEF_STEREO_COUNT>
1

> <PUBCHEM_BOND_UDEF_STEREO_COUNT>
0

> <PUBCHEM_ISOTOPIC_ATOM_COUNT>
0

> <PUBCHEM_COMPONENT_COUNT>
1

> <PUBCHEM_CACTVS_TAUTO_COUNT>
1

> <PUBCHEM_CONFORMER_ID>
0050952200000001

> <PUBCHEM_MMFF94_ENERGY>
115.4184

> <PUBCHEM_FEATURE_SELFOVERLAP>
40.663

> <PUBCHEM_SHAPE_FINGERPRINT>
10 15 15936413312795613824
10074138 170 15358279086024035822
10319926 262 17023733645795033052
10622 236 18045232552316131359
10673678 19 11239997875948898610
11991303 11 17199677607877856684
12035758 1 14996286920224865672
12236239 1 18341608162620105689
12422481 6 17822567334966370486
12596602 18 17821729447013198202
12760667 363 18342739632635196962
12895836 83 12031784764695139579
13533116 47 18410293580349734064
13782708 43 18410858758673633622
13914758 101 18412825815715807173
14251764 75 7420646325129806666
14347332 77 18202006581329251852
14849402 71 8646477540569400547
15001296 14 18342743971117207898
15183329 4 18260540096171863047
15188451 53 17967814946307799040
15324884 4 15911334470173482592
15475509 35 18187653492279421866
15475509 8 17131836494939990757
16728300 4 17896040008505526638
16994733 274 9799694787881023327
17349148 13 18042393652511706605
17857418 61 18334855009088087186
18393751 57 6771864078110849581
19438510 23 9006762178327999526
19784866 240 18341892987090863516
1979834 28 15285630006945477244
19958102 18 16271924969796415314
20028762 73 18333731351650909430
20567600 234 14129063595190270682
20567600 247 18342460361493849626
21304303 64 8358253748196170435
21307412 95 17346307215626350826
21344244 181 17489584541571689522
21344244 78 15502372296778735136
21637258 2 18410295813337141040
21641784 216 14764360356840895158
22224240 67 5112009443699922581
22393880 68 15482388634220888056
23522609 53 18118934002079044224
23559900 14 17823701850677894209
23569914 152 16982414071236944343
23569943 247 18271811284416232731
29717793 49 17775567511698143412
3004659 81 18131355202412245330
38570 142 9367345972647574810
3886686 26 16741404524743773286
397830 11 6050154588413867493
4058900 60 12391523013278356905
4340502 62 14056717955023342668
463206 1 18201995504777764858
474113 269 17968104148505929199
5085150 59 17603586344194298895
5104073 3 17096078074823395211
513202 73 18272089447845907269
6081469 158 18408610249775588389
96874 4 18408892858212942362

> <PUBCHEM_SHAPE_MULTIPOLES>
570.36
17.04
2.82
1.84
4.96
1.23
0.1
16.53
0.08
3.56
0.12
0.01
-0.51
-1.89

> <PUBCHEM_SHAPE_SELFOVERLAP>
1180.753

> <PUBCHEM_SHAPE_VOLUME>
327.2

> <PUBCHEM_COORDINATE_TYPE>
2
5
10

$$$$

