156333
  -OEChem-07051213033D

 53 55  0     1  0  0  0  0  0999 V2000
    6.3626   -0.4425    1.3944 Cl  0  0  0  0  0  0  0  0  0  0  0  0
    2.0518   -2.9488   -0.3622 O   0  0  0  0  0  0  0  0  0  0  0  0
    1.2721    0.8637   -1.2434 O   0  0  0  0  0  0  0  0  0  0  0  0
   -2.5302   -0.9962    0.3675 N   0  0  1  0  0  0  0  0  0  0  0  0
    0.3683   -1.3561   -0.2830 N   0  0  0  0  0  0  0  0  0  0  0  0
    5.6005    2.2752    0.2559 N   0  0  0  0  0  0  0  0  0  0  0  0
   -1.7333   -2.1622    0.7784 C   0  0  1  0  0  0  0  0  0  0  0  0
   -0.7397   -2.2781   -0.3843 C   0  0  1  0  0  0  0  0  0  0  0  0
   -1.5972   -1.9581   -1.6067 C   0  0  0  0  0  0  0  0  0  0  0  0
   -2.7933   -1.1753   -1.0655 C   0  0  0  0  0  0  0  0  0  0  0  0
   -3.7622   -0.8278    1.1264 C   0  0  0  0  0  0  0  0  0  0  0  0
   -1.0779   -2.0125    2.1474 C   0  0  0  0  0  0  0  0  0  0  0  0
   -4.5435    0.3750    0.6683 C   0  0  0  0  0  0  0  0  0  0  0  0
    1.6885   -1.7784   -0.2807 C   0  0  0  0  0  0  0  0  0  0  0  0
   -4.3108    1.6080    1.2615 C   0  0  0  0  0  0  0  0  0  0  0  0
   -5.4855    0.2336   -0.3411 C   0  0  0  0  0  0  0  0  0  0  0  0
    2.7105   -0.7090   -0.1433 C   0  0  0  0  0  0  0  0  0  0  0  0
   -5.0348    2.7222    0.8365 C   0  0  0  0  0  0  0  0  0  0  0  0
   -6.2095    1.3477   -0.7659 C   0  0  0  0  0  0  0  0  0  0  0  0
    2.4504    0.5556   -0.6315 C   0  0  0  0  0  0  0  0  0  0  0  0
    3.9028   -1.0253    0.4775 C   0  0  0  0  0  0  0  0  0  0  0  0
   -5.9840    2.5923   -0.1774 C   0  0  0  0  0  0  0  0  0  0  0  0
    3.4228    1.5460   -0.4929 C   0  0  0  0  0  0  0  0  0  0  0  0
    4.8753   -0.0349    0.6158 C   0  0  0  0  0  0  0  0  0  0  0  0
    4.6353    1.2508    0.1309 C   0  0  0  0  0  0  0  0  0  0  0  0
    1.2083    0.6790   -2.6559 C   0  0  0  0  0  0  0  0  0  0  0  0
    5.2529    3.6561    0.3731 C   0  0  0  0  0  0  0  0  0  0  0  0
   -2.3644   -3.0628    0.7863 H   0  0  0  0  0  0  0  0  0  0  0  0
   -0.3536   -3.3011   -0.4540 H   0  0  0  0  0  0  0  0  0  0  0  0
   -1.0523   -1.3938   -2.3705 H   0  0  0  0  0  0  0  0  0  0  0  0
   -1.9512   -2.8884   -2.0672 H   0  0  0  0  0  0  0  0  0  0  0  0
   -3.6931   -1.7714   -1.2596 H   0  0  0  0  0  0  0  0  0  0  0  0
   -2.8827   -0.2142   -1.5824 H   0  0  0  0  0  0  0  0  0  0  0  0
   -3.5373   -0.7000    2.1926 H   0  0  0  0  0  0  0  0  0  0  0  0
   -4.3969   -1.7230    1.0662 H   0  0  0  0  0  0  0  0  0  0  0  0
   -0.5440   -1.0611    2.2461 H   0  0  0  0  0  0  0  0  0  0  0  0
   -1.8234   -2.0570    2.9479 H   0  0  0  0  0  0  0  0  0  0  0  0
   -0.3610   -2.8224    2.3197 H   0  0  0  0  0  0  0  0  0  0  0  0
    0.1441   -0.3722   -0.1721 H   0  0  0  0  0  0  0  0  0  0  0  0
   -3.5724    1.7212    2.0502 H   0  0  0  0  0  0  0  0  0  0  0  0
   -5.6897   -0.7303   -0.7972 H   0  0  0  0  0  0  0  0  0  0  0  0
   -4.8590    3.6911    1.2948 H   0  0  0  0  0  0  0  0  0  0  0  0
   -6.9521    1.2455   -1.5519 H   0  0  0  0  0  0  0  0  0  0  0  0
    4.0885   -2.0251    0.8614 H   0  0  0  0  0  0  0  0  0  0  0  0
   -6.5483    3.4594   -0.5076 H   0  0  0  0  0  0  0  0  0  0  0  0
    3.2120    2.5361   -0.8878 H   0  0  0  0  0  0  0  0  0  0  0  0
    6.5078    1.9869    0.6082 H   0  0  0  0  0  0  0  0  0  0  0  0
    0.1869    0.8915   -2.9830 H   0  0  0  0  0  0  0  0  0  0  0  0
    1.8877    1.3739   -3.1595 H   0  0  0  0  0  0  0  0  0  0  0  0
    1.4574   -0.3509   -2.9307 H   0  0  0  0  0  0  0  0  0  0  0  0
    4.8837    4.0607   -0.5745 H   0  0  0  0  0  0  0  0  0  0  0  0
    4.5021    3.8185    1.1536 H   0  0  0  0  0  0  0  0  0  0  0  0
    6.1406    4.2364    0.6453 H   0  0  0  0  0  0  0  0  0  0  0  0
  1 24  1  0  0  0  0
  2 14  2  0  0  0  0
  3 20  1  0  0  0  0
  3 26  1  0  0  0  0
  4  7  1  0  0  0  0
  4 10  1  0  0  0  0
  4 11  1  0  0  0  0
  5  8  1  0  0  0  0
  5 14  1  0  0  0  0
  5 39  1  0  0  0  0
  6 25  1  0  0  0  0
  6 27  1  0  0  0  0
  6 47  1  0  0  0  0
  7  8  1  0  0  0  0
  7 12  1  0  0  0  0
  7 28  1  0  0  0  0
  8  9  1  0  0  0  0
  8 29  1  0  0  0  0
  9 10  1  0  0  0  0
  9 30  1  0  0  0  0
  9 31  1  0  0  0  0
 10 32  1  0  0  0  0
 10 33  1  0  0  0  0
 11 13  1  0  0  0  0
 11 34  1  0  0  0  0
 11 35  1  0  0  0  0
 12 36  1  0  0  0  0
 12 37  1  0  0  0  0
 12 38  1  0  0  0  0
 13 15  2  0  0  0  0
 13 16  1  0  0  0  0
 14 17  1  0  0  0  0
 15 18  1  0  0  0  0
 15 40  1  0  0  0  0
 16 19  2  0  0  0  0
 16 41  1  0  0  0  0
 17 20  1  0  0  0  0
 17 21  2  0  0  0  0
 18 22  2  0  0  0  0
 18 42  1  0  0  0  0
 19 22  1  0  0  0  0
 19 43  1  0  0  0  0
 20 23  2  0  0  0  0
 21 24  1  0  0  0  0
 21 44  1  0  0  0  0
 22 45  1  0  0  0  0
 23 25  1  0  0  0  0
 23 46  1  0  0  0  0
 24 25  2  0  0  0  0
 26 48  1  0  0  0  0
 26 49  1  0  0  0  0
 26 50  1  0  0  0  0
 27 51  1  0  0  0  0
 27 52  1  0  0  0  0
 27 53  1  0  0  0  0
M  END
> <PUBCHEM_COMPOUND_CID>
156333

> <PUBCHEM_CONFORMER_RMSD>
1

> <PUBCHEM_CONFORMER_DIVERSEORDER>
3
9
45
54
21
42
41
56
44
12
55
16
25
32
8
27
43
22
2
33
35
17
59
20
6
18
53
50
39
36
23
58
28
24
57
19
52
29
5
15
13
48
14
38
11
47
30
1
34
10
40
4
37
26
7
46
49
51
31

> <PUBCHEM_MMFF94_PARTIAL_CHARGES>
34
1 -0.18
10 0.27
11 0.41
13 -0.14
14 0.54
15 -0.15
16 -0.15
17 0.09
18 -0.15
19 -0.15
2 -0.57
20 0.08
21 -0.15
22 -0.15
23 -0.15
24 0.18
25 0.1
26 0.28
27 0.37
3 -0.36
39 0.37
4 -0.81
40 0.15
41 0.15
42 0.15
43 0.15
44 0.15
45 0.15
46 0.15
47 0.4
5 -0.73
6 -0.87
7 0.27
8 0.3

> <PUBCHEM_EFFECTIVE_ROTOR_COUNT>
8

> <PUBCHEM_PHARMACOPHORE_FEATURES>
9
1 2 acceptor
1 3 acceptor
1 4 cation
1 5 donor
1 6 cation
1 6 donor
5 4 7 8 9 10 rings
6 13 15 16 18 19 22 rings
6 17 20 21 23 24 25 rings

> <PUBCHEM_HEAVY_ATOM_COUNT>
27

> <PUBCHEM_ATOM_DEF_STEREO_COUNT>
2

> <PUBCHEM_ATOM_UDEF_STEREO_COUNT>
0

> <PUBCHEM_BOND_DEF_STEREO_COUNT>
0

> <PUBCHEM_BOND_UDEF_STEREO_COUNT>
0

> <PUBCHEM_ISOTOPIC_ATOM_COUNT>
0

> <PUBCHEM_COMPONENT_COUNT>
1

> <PUBCHEM_CACTVS_TAUTO_COUNT>
3

> <PUBCHEM_CONFORMER_ID>
000262AD00000003

> <PUBCHEM_MMFF94_ENERGY>
94.5004

> <PUBCHEM_FEATURE_SELFOVERLAP>
45.669

> <PUBCHEM_SHAPE_FINGERPRINT>
10042902 136 9871164143530218625
10674148 151 18412537701463306276
10928967 22 10087353349488750345
11370993 144 18272092656587306218
11961588 58 15719686397874650862
12107183 9 18340215158876694146
12422481 6 17775568645442967868
12596602 18 18131352968781358049
12633257 1 16702015323209737479
13103583 49 12750945681428994357
14251764 30 10303804381095371353
14251764 38 18191015918874945553
14739800 52 18058738051708733033
14767858 380 7132425865814592178
14790565 3 18051968118199424956
14950920 106 14907886147114155637
14951699 99 18199743661856436780
15064981 113 16805592695007898796
15238133 3 17917418839813368798
16112460 7 18412827971494659844
20511986 3 18338529572384213040
20715895 44 18337673121598237497
20739085 24 18060133224658795964
21033648 29 18264496083617047504
21304253 335 18343015580067976508
21403212 168 17917439773779186335
21475661 188 18129655430687595791
22122407 14 18410854339326450904
22950370 63 10015576212535283003
23379529 103 9799690389681628489
235170 7 15430317001134047273
2748736 6 18334863826545611545
2838139 119 18409169939331847385
3472631 163 18114180817579774565
3737641 26 11599736094340575625
3862424 121 12965472550798615240
4144715 1 18201145573298905874
465052 167 10807929388187268107
474 4 18342735269486741331
5104073 3 17987526922795026082
513202 73 16557918977603529240
6328613 192 18129929118967844004
6371380 46 18341040926379610766
7288768 16 18130787824289851115
7970288 3 10159712282378602952
9981440 41 18342448267103483747
999808 66 13614248109233588666

> <PUBCHEM_SHAPE_MULTIPOLES>
530.84
15.83
3.48
1.61
1.88
1.41
0.36
13.88
-3.93
-0.46
-0.37
0.23
-0.31
-0.37

> <PUBCHEM_SHAPE_SELFOVERLAP>
1118.811

> <PUBCHEM_SHAPE_VOLUME>
300.7

> <PUBCHEM_COORDINATE_TYPE>
2
5
10

$$$$

