6430107
  -OEChem-07051213082D

 46 45  0     0  0  0  0  0  0999 V2000
    2.0000    3.5600    0.0000 O   0  0  0  0  0  0  0  0  0  0  0  0
    4.5981    0.0600    0.0000 C   0  0  0  0  0  0  0  0  0  0  0  0
    3.7320    0.5600    0.0000 C   0  0  0  0  0  0  0  0  0  0  0  0
    4.5981   -0.9400    0.0000 C   0  0  0  0  0  0  0  0  0  0  0  0
    3.7320    1.5600    0.0000 C   0  0  0  0  0  0  0  0  0  0  0  0
    5.4641   -1.4400    0.0000 C   0  0  0  0  0  0  0  0  0  0  0  0
    2.8660    2.0600    0.0000 C   0  0  0  0  0  0  0  0  0  0  0  0
    5.4641   -2.4400    0.0000 C   0  0  0  0  0  0  0  0  0  0  0  0
    6.3301   -2.9400    0.0000 C   0  0  0  0  0  0  0  0  0  0  0  0
    2.8660    3.0600    0.0000 C   0  0  0  0  0  0  0  0  0  0  0  0
    7.1962   -2.4400    0.0000 C   0  0  0  0  0  0  0  0  0  0  0  0
    8.0622   -2.9400    0.0000 C   0  0  0  0  0  0  0  0  0  0  0  0
    8.9282   -2.4400    0.0000 C   0  0  0  0  0  0  0  0  0  0  0  0
    8.9282   -1.4400    0.0000 C   0  0  0  0  0  0  0  0  0  0  0  0
    9.7942   -0.9400    0.0000 C   0  0  0  0  0  0  0  0  0  0  0  0
    8.9282    0.5600    0.0000 C   0  0  0  0  0  0  0  0  0  0  0  0
    9.7942    0.0600    0.0000 C   0  0  0  0  0  0  0  0  0  0  0  0
    8.9282    1.5600    0.0000 C   0  0  0  0  0  0  0  0  0  0  0  0
    5.2087   -0.0477    0.0000 H   0  0  0  0  0  0  0  0  0  0  0  0
    4.8101    0.6426    0.0000 H   0  0  0  0  0  0  0  0  0  0  0  0
    3.1215    0.6677    0.0000 H   0  0  0  0  0  0  0  0  0  0  0  0
    3.5200   -0.0226    0.0000 H   0  0  0  0  0  0  0  0  0  0  0  0
    3.9875   -0.8323    0.0000 H   0  0  0  0  0  0  0  0  0  0  0  0
    4.3860   -1.5226    0.0000 H   0  0  0  0  0  0  0  0  0  0  0  0
    4.3426    1.4523    0.0000 H   0  0  0  0  0  0  0  0  0  0  0  0
    3.9441    2.1426    0.0000 H   0  0  0  0  0  0  0  0  0  0  0  0
    6.0747   -1.5477    0.0000 H   0  0  0  0  0  0  0  0  0  0  0  0
    5.6762   -0.8574    0.0000 H   0  0  0  0  0  0  0  0  0  0  0  0
    2.2554    2.1677    0.0000 H   0  0  0  0  0  0  0  0  0  0  0  0
    2.6540    1.4774    0.0000 H   0  0  0  0  0  0  0  0  0  0  0  0
    4.9272   -2.7500    0.0000 H   0  0  0  0  0  0  0  0  0  0  0  0
    6.3301   -3.5600    0.0000 H   0  0  0  0  0  0  0  0  0  0  0  0
    3.4030    3.3700    0.0000 H   0  0  0  0  0  0  0  0  0  0  0  0
    7.5947   -1.9650    0.0000 H   0  0  0  0  0  0  0  0  0  0  0  0
    6.7976   -1.9650    0.0000 H   0  0  0  0  0  0  0  0  0  0  0  0
    8.0622   -3.5600    0.0000 H   0  0  0  0  0  0  0  0  0  0  0  0
    9.4651   -2.7500    0.0000 H   0  0  0  0  0  0  0  0  0  0  0  0
    8.7162   -0.8574    0.0000 H   0  0  0  0  0  0  0  0  0  0  0  0
    8.3176   -1.5477    0.0000 H   0  0  0  0  0  0  0  0  0  0  0  0
   10.3312   -1.2500    0.0000 H   0  0  0  0  0  0  0  0  0  0  0  0
    8.3176    0.6677    0.0000 H   0  0  0  0  0  0  0  0  0  0  0  0
    8.7162   -0.0226    0.0000 H   0  0  0  0  0  0  0  0  0  0  0  0
   10.3312    0.3700    0.0000 H   0  0  0  0  0  0  0  0  0  0  0  0
    9.5482    1.5600    0.0000 H   0  0  0  0  0  0  0  0  0  0  0  0
    8.9282    2.1800    0.0000 H   0  0  0  0  0  0  0  0  0  0  0  0
    8.3082    1.5600    0.0000 H   0  0  0  0  0  0  0  0  0  0  0  0
  1 10  2  0  0  0  0
  2  3  1  0  0  0  0
  2  4  1  0  0  0  0
  2 19  1  0  0  0  0
  2 20  1  0  0  0  0
  3  5  1  0  0  0  0
  3 21  1  0  0  0  0
  3 22  1  0  0  0  0
  4  6  1  0  0  0  0
  4 23  1  0  0  0  0
  4 24  1  0  0  0  0
  5  7  1  0  0  0  0
  5 25  1  0  0  0  0
  5 26  1  0  0  0  0
  6  8  1  0  0  0  0
  6 27  1  0  0  0  0
  6 28  1  0  0  0  0
  7 10  1  0  0  0  0
  7 29  1  0  0  0  0
  7 30  1  0  0  0  0
  8  9  2  0  0  0  0
  8 31  1  0  0  0  0
  9 11  1  0  0  0  0
  9 32  1  0  0  0  0
 10 33  1  0  0  0  0
 11 12  1  0  0  0  0
 11 34  1  0  0  0  0
 11 35  1  0  0  0  0
 12 13  2  0  0  0  0
 12 36  1  0  0  0  0
 13 14  1  0  0  0  0
 13 37  1  0  0  0  0
 14 15  1  0  0  0  0
 14 38  1  0  0  0  0
 14 39  1  0  0  0  0
 15 17  2  0  0  0  0
 15 40  1  0  0  0  0
 16 17  1  0  0  0  0
 16 18  1  0  0  0  0
 16 41  1  0  0  0  0
 16 42  1  0  0  0  0
 17 43  1  0  0  0  0
 18 44  1  0  0  0  0
 18 45  1  0  0  0  0
 18 46  1  0  0  0  0
M  END
> <PUBCHEM_COMPOUND_CID>
6430107

> <PUBCHEM_COMPOUND_CANONICALIZED>
1

> <PUBCHEM_CACTVS_COMPLEXITY>
248

> <PUBCHEM_CACTVS_HBOND_ACCEPTOR>
1

> <PUBCHEM_CACTVS_HBOND_DONOR>
0

> <PUBCHEM_CACTVS_ROTATABLE_BOND>
12

> <PUBCHEM_CACTVS_SUBSKEYS>
AAADceB4IAAAAAAAAAAAAAAAAAAAAAAAAAAAAAAAAAAAAAAAAAAAGgAAAAAACACggAICAAAAAACIAChSgAAAAAAgAAAICAEAAAgAABIAAQAAAAAAgAAIAAMIiICAAAAAAAAAAAAAAAAAAAAAAAAAAAAAAA==

> <PUBCHEM_IUPAC_OPENEYE_NAME>
(8Z,11Z,14Z)-heptadeca-8,11,14-trienal

> <PUBCHEM_IUPAC_CAS_NAME>
(8Z,11Z,14Z)-heptadeca-8,11,14-trienal

> <PUBCHEM_IUPAC_NAME>
(8Z,11Z,14Z)-heptadeca-8,11,14-trienal

> <PUBCHEM_IUPAC_SYSTEMATIC_NAME>
(8Z,11Z,14Z)-heptadeca-8,11,14-trienal

> <PUBCHEM_IUPAC_TRADITIONAL_NAME>
(8Z,11Z,14Z)-heptadeca-8,11,14-trienal

> <PUBCHEM_IUPAC_INCHI>
InChI=1S/C17H28O/c1-2-3-4-5-6-7-8-9-10-11-12-13-14-15-16-17-18/h3-4,6-7,9-10,17H,2,5,8,11-16H2,1H3/b4-3-,7-6-,10-9-

> <PUBCHEM_IUPAC_INCHIKEY>
NIPNNUONNZABRE-PDBXOOCHSA-N

> <PUBCHEM_XLOGP3_AA>
5.3

> <PUBCHEM_EXACT_MASS>
248.214016

> <PUBCHEM_MOLECULAR_FORMULA>
C17H28O

> <PUBCHEM_MOLECULAR_WEIGHT>
248.40362

> <PUBCHEM_OPENEYE_CAN_SMILES>
CCC=CCC=CCC=CCCCCCCC=O

> <PUBCHEM_OPENEYE_ISO_SMILES>
CC/C=C\C/C=C\C/C=C\CCCCCCC=O

> <PUBCHEM_CACTVS_TPSA>
17.1

> <PUBCHEM_MONOISOTOPIC_WEIGHT>
248.214016

> <PUBCHEM_TOTAL_CHARGE>
0

> <PUBCHEM_HEAVY_ATOM_COUNT>
18

> <PUBCHEM_ATOM_DEF_STEREO_COUNT>
0

> <PUBCHEM_ATOM_UDEF_STEREO_COUNT>
0

> <PUBCHEM_BOND_DEF_STEREO_COUNT>
3

> <PUBCHEM_BOND_UDEF_STEREO_COUNT>
0

> <PUBCHEM_ISOTOPIC_ATOM_COUNT>
0

> <PUBCHEM_COMPONENT_COUNT>
1

> <PUBCHEM_CACTVS_TAUTO_COUNT>
2

> <PUBCHEM_COORDINATE_TYPE>
1
5
255

$$$$

