443781
  -OEChem-07051213033D

 34 34  0     1  0  0  0  0  0999 V2000
   -0.7098   -2.4310   -0.1593 P   0  0  1  0  0  0  0  0  0  0  0  0
   -2.8008   -0.3850    0.1680 P   0  0  2  0  0  0  0  0  0  0  0  0
   -1.9063    2.4233    0.0377 P   0  0  0  0  0  0  0  0  0  0  0  0
    3.3624    0.2393   -1.2273 O   0  0  0  0  0  0  0  0  0  0  0  0
    2.5545   -1.0650    2.0073 O   0  0  0  0  0  0  0  0  0  0  0  0
    0.8969   -2.2403   -0.1791 O   0  0  0  0  0  0  0  0  0  0  0  0
    3.0572    2.4897   -0.6098 O   0  0  0  0  0  0  0  0  0  0  0  0
   -1.2901   -0.9537    0.1423 O   0  0  0  0  0  0  0  0  0  0  0  0
   -1.1047   -2.6742   -1.7092 O   0  0  0  0  0  0  0  0  0  0  0  0
   -1.2073   -3.4907    0.7803 O   0  0  0  0  0  0  0  0  0  0  0  0
   -2.6205    1.1314    0.6954 O   0  0  0  0  0  0  0  0  0  0  0  0
   -3.4784   -1.1428    1.4249 O   0  0  0  0  0  0  0  0  0  0  0  0
   -3.5535   -0.5115   -1.1237 O   0  0  0  0  0  0  0  0  0  0  0  0
   -2.8268    2.7318   -1.2546 O   0  0  0  0  0  0  0  0  0  0  0  0
   -2.2752    3.6214    1.0576 O   0  0  0  0  0  0  0  0  0  0  0  0
   -0.4434    2.2515   -0.2479 O   0  0  0  0  0  0  0  0  0  0  0  0
    2.7654   -0.7636   -0.3886 C   0  0  1  0  0  0  0  0  0  0  0  0
    2.5443   -0.1104    0.9660 C   0  0  2  0  0  0  0  0  0  0  0  0
    3.7226    0.8352    1.0426 C   0  0  0  0  0  0  0  0  0  0  0  0
    3.8294    1.3132   -0.3951 C   0  0  1  0  0  0  0  0  0  0  0  0
    1.4842   -1.2687   -1.0277 C   0  0  0  0  0  0  0  0  0  0  0  0
    3.4732   -1.5974   -0.2939 H   0  0  0  0  0  0  0  0  0  0  0  0
    1.6009    0.4477    0.9954 H   0  0  0  0  0  0  0  0  0  0  0  0
    3.5655    1.6414    1.7652 H   0  0  0  0  0  0  0  0  0  0  0  0
    4.6233    0.2836    1.3386 H   0  0  0  0  0  0  0  0  0  0  0  0
    4.8699    1.5390   -0.6511 H   0  0  0  0  0  0  0  0  0  0  0  0
    1.6985   -1.7288   -1.9982 H   0  0  0  0  0  0  0  0  0  0  0  0
    0.7951   -0.4381   -1.2165 H   0  0  0  0  0  0  0  0  0  0  0  0
    2.5198   -0.5789    2.8488 H   0  0  0  0  0  0  0  0  0  0  0  0
    3.4316    2.9397   -1.3861 H   0  0  0  0  0  0  0  0  0  0  0  0
   -0.9782   -3.5665   -2.0964 H   0  0  0  0  0  0  0  0  0  0  0  0
   -3.7709   -2.0728    1.3167 H   0  0  0  0  0  0  0  0  0  0  0  0
   -2.5430    3.4283   -1.8844 H   0  0  0  0  0  0  0  0  0  0  0  0
   -1.8821    4.5080    0.9108 H   0  0  0  0  0  0  0  0  0  0  0  0
  1  6  1  0  0  0  0
  1  8  1  0  0  0  0
  1  9  1  0  0  0  0
  1 10  2  0  0  0  0
  2  8  1  0  0  0  0
  2 11  1  0  0  0  0
  2 12  1  0  0  0  0
  2 13  2  0  0  0  0
  3 11  1  0  0  0  0
  3 14  1  0  0  0  0
  3 15  1  0  0  0  0
  3 16  2  0  0  0  0
  4 17  1  0  0  0  0
  4 20  1  0  0  0  0
  5 18  1  0  0  0  0
  5 29  1  0  0  0  0
  6 21  1  0  0  0  0
  7 20  1  0  0  0  0
  7 30  1  0  0  0  0
  9 31  1  0  0  0  0
 12 32  1  0  0  0  0
 14 33  1  0  0  0  0
 15 34  1  0  0  0  0
 17 18  1  0  0  0  0
 17 21  1  0  0  0  0
 17 22  1  0  0  0  0
 18 19  1  0  0  0  0
 18 23  1  0  0  0  0
 19 20  1  0  0  0  0
 19 24  1  0  0  0  0
 19 25  1  0  0  0  0
 20 26  1  0  0  0  0
 21 27  1  0  0  0  0
 21 28  1  0  0  0  0
M  END
> <PUBCHEM_COMPOUND_CID>
443781

> <PUBCHEM_CONFORMER_RMSD>
0.8

> <PUBCHEM_CONFORMER_DIVERSEORDER>
2
96
328
71
56
166
294
125
180
9
177
305
160
168
79
336
159
132
255
288
181
286
49
318
324
111
311
29
127
27
86
310
102
84
73
326
264
323
196
119
37
205
216
338
20
239
209
292
65
95
176
91
329
173
334
85
272
218
282
256
146
106
189
248
144
100
115
170
321
302
172
62
297
75
175
332
54
235
90
61
183
88
55
340
156
94
123
260
276
335
145
320
157
148
247
246
229
52
17
116
40
120
80
253
337
24
184
301
306
273
200
33
227
57
339
124
21
23
303
18
198
41
309
122
135
193
114
169
78
233
112
293
45
93
155
308
147
13
107
300
39
77
240
1
31
236
333
15
290
126
46
268
53
325
291
121
285
213
48
87
182
220
251
51
203
317
142
47
105
211
128
252
245
26
330
82
327
319
30
63
97
269
230
163
171
226
8
141
263
7
221
162
195
261
74
152
275
38
28
99
164
151
298
64
238
304
212
5
322
101
228
262
110
104
178
215
206
237
259
58
258
296
130
295
133
22
149
150
3
270
34
66
188
154
137
289
10
204
113
70
299
103
89
312
214
165
281
187
241
69
143
129
279
81
167
278
254
280
42
277
174
208
283
140
313
284
14
192
315
36
134
158
67
68
243
207
131
35
186
210
274
222
138
108
59
257
199
271
44
307
231
219
331
185
98
249
50
265
244
190
136
287
92
118
6
139
43
11
83
314
72
267
60
191
242
109
201
225
25
179
266
316
232
217
197
161
202
194
153
32
234
223
19
224
76
12
16
117
4
250

> <PUBCHEM_MMFF94_PARTIAL_CHARGES>
26
1 1.51
10 -0.7
11 -0.54
12 -0.77
13 -0.7
14 -0.77
15 -0.77
16 -0.7
17 0.28
18 0.28
2 1.51
20 0.56
21 0.28
29 0.4
3 1.51
30 0.4
31 0.5
32 0.5
33 0.5
34 0.5
4 -0.56
5 -0.68
6 -0.55
7 -0.68
8 -0.54
9 -0.77

> <PUBCHEM_EFFECTIVE_ROTOR_COUNT>
8

> <PUBCHEM_PHARMACOPHORE_FEATURES>
14
1 10 acceptor
1 12 acceptor
1 13 acceptor
1 14 acceptor
1 15 acceptor
1 16 acceptor
1 4 acceptor
1 5 acceptor
1 5 donor
1 7 acceptor
1 7 donor
1 9 acceptor
4 3 14 15 16 anion
5 4 17 18 19 20 rings

> <PUBCHEM_HEAVY_ATOM_COUNT>
21

> <PUBCHEM_ATOM_DEF_STEREO_COUNT>
3

> <PUBCHEM_ATOM_UDEF_STEREO_COUNT>
0

> <PUBCHEM_BOND_DEF_STEREO_COUNT>
0

> <PUBCHEM_BOND_UDEF_STEREO_COUNT>
0

> <PUBCHEM_ISOTOPIC_ATOM_COUNT>
0

> <PUBCHEM_COMPONENT_COUNT>
1

> <PUBCHEM_CACTVS_TAUTO_COUNT>
1

> <PUBCHEM_CONFORMER_ID>
0006C58500000002

> <PUBCHEM_MMFF94_ENERGY>
-35.9026

> <PUBCHEM_FEATURE_SELFOVERLAP>
71.139

> <PUBCHEM_SHAPE_FINGERPRINT>
10498660 4 18265054639254630086
10759866 29 18131069338211189944
11221954 11 18266170828335283819
12553582 1 18264204699592037441
128993 33 18190169273019057168
13140716 1 18049720720019641296
14123250 116 17899697044667819001
14251757 17 17897976214786498788
14957384 54 18129394833251524792
20621476 13 17549266277509143325
20671657 1 17760086619822524761
20715895 44 17986132905228368237
21524375 3 18261953062971564615
21864079 5 18410007771165459148
22749437 52 18266750257862273469
23419403 2 15234750436523715658
238 59 17897744268644904605
3524813 1 18113614556280388642
3797600 57 16840176638572634790
44154327 71 18339355258450939212
7097593 13 17700989978848886130

> <PUBCHEM_SHAPE_MULTIPOLES>
367.42
6.96
4.07
1.4
2.42
0.93
0.15
2.96
0.38
-2.99
-0.14
0.16
-0.3
-0.16

> <PUBCHEM_SHAPE_SELFOVERLAP>
689.895

> <PUBCHEM_SHAPE_VOLUME>
229.5

> <PUBCHEM_COORDINATE_TYPE>
2
5
10

$$$$

