8109
  -OEChem-06261202353D

 19 18  0     0  0  0  0  0  0999 V2000
   -1.2118    0.2930   -0.0036 O   0  0  0  0  0  0  0  0  0  0  0  0
    3.5876    0.4074    0.0096 O   0  0  0  0  0  0  0  0  0  0  0  0
    1.1957    0.3519   -0.0138 C   0  0  0  0  0  0  0  0  0  0  0  0
   -0.0480   -0.5230   -0.0057 C   0  0  0  0  0  0  0  0  0  0  0  0
    2.4721   -0.4727    0.0035 C   0  0  0  0  0  0  0  0  0  0  0  0
   -2.3979   -0.4898    0.0040 C   0  0  0  0  0  0  0  0  0  0  0  0
   -3.5978    0.4332    0.0060 C   0  0  0  0  0  0  0  0  0  0  0  0
    1.1781    1.0351    0.8451 H   0  0  0  0  0  0  0  0  0  0  0  0
    1.1848    1.0112   -0.8911 H   0  0  0  0  0  0  0  0  0  0  0  0
   -0.0490   -1.1592    0.8874 H   0  0  0  0  0  0  0  0  0  0  0  0
   -0.0555   -1.1663   -0.8936 H   0  0  0  0  0  0  0  0  0  0  0  0
    2.5200   -1.1003    0.8991 H   0  0  0  0  0  0  0  0  0  0  0  0
    2.5369   -1.1112   -0.8832 H   0  0  0  0  0  0  0  0  0  0  0  0
   -2.4261   -1.1290   -0.8855 H   0  0  0  0  0  0  0  0  0  0  0  0
   -2.4186   -1.1231    0.8980 H   0  0  0  0  0  0  0  0  0  0  0  0
   -4.5304   -0.1379    0.0118 H   0  0  0  0  0  0  0  0  0  0  0  0
   -3.5791    1.0881    0.8834 H   0  0  0  0  0  0  0  0  0  0  0  0
   -3.5864    1.0823   -0.8758 H   0  0  0  0  0  0  0  0  0  0  0  0
    4.3873   -0.1457    0.0206 H   0  0  0  0  0  0  0  0  0  0  0  0
  1  4  1  0  0  0  0
  1  6  1  0  0  0  0
  2  5  1  0  0  0  0
  2 19  1  0  0  0  0
  3  4  1  0  0  0  0
  3  5  1  0  0  0  0
  3  8  1  0  0  0  0
  3  9  1  0  0  0  0
  4 10  1  0  0  0  0
  4 11  1  0  0  0  0
  5 12  1  0  0  0  0
  5 13  1  0  0  0  0
  6  7  1  0  0  0  0
  6 14  1  0  0  0  0
  6 15  1  0  0  0  0
  7 16  1  0  0  0  0
  7 17  1  0  0  0  0
  7 18  1  0  0  0  0
M  END
> <PUBCHEM_COMPOUND_CID>
8109

> <PUBCHEM_CONFORMER_RMSD>
0.6

> <PUBCHEM_CONFORMER_DIVERSEORDER>
1
19
7
32
29
23
4
5
11
20
26
33
24
28
14
21
30
12
10
6
8
15
13
27
9
16
18
31
2
22
25
17
3

> <PUBCHEM_MMFF94_PARTIAL_CHARGES>
6
1 -0.56
19 0.4
2 -0.68
4 0.28
5 0.28
6 0.28

> <PUBCHEM_EFFECTIVE_ROTOR_COUNT>
4

> <PUBCHEM_PHARMACOPHORE_FEATURES>
3
1 1 acceptor
1 2 acceptor
1 2 donor

> <PUBCHEM_HEAVY_ATOM_COUNT>
7

> <PUBCHEM_ATOM_DEF_STEREO_COUNT>
0

> <PUBCHEM_ATOM_UDEF_STEREO_COUNT>
0

> <PUBCHEM_BOND_DEF_STEREO_COUNT>
0

> <PUBCHEM_BOND_UDEF_STEREO_COUNT>
0

> <PUBCHEM_ISOTOPIC_ATOM_COUNT>
0

> <PUBCHEM_COMPONENT_COUNT>
1

> <PUBCHEM_CACTVS_TAUTO_COUNT>
1

> <PUBCHEM_CONFORMER_ID>
00001FAD00000001

> <PUBCHEM_MMFF94_ENERGY>
4.4199

> <PUBCHEM_FEATURE_SELFOVERLAP>
15.223

> <PUBCHEM_SHAPE_FINGERPRINT>
11062470 55 18410292514475015009
12932764 1 15625951901950869219
14325111 11 18410573989478268327
14390081 3 18335142003134689953
5460574 1 9223232944470841606

> <PUBCHEM_SHAPE_MULTIPOLES>
132.32
6.25
0.78
0.59
0.18
0.04
0
-0.85
0.03
0.03
0
0.04
0.01
0

> <PUBCHEM_SHAPE_SELFOVERLAP>
227.352

> <PUBCHEM_SHAPE_VOLUME>
89.1

> <PUBCHEM_COORDINATE_TYPE>
2
5
10

$$$$

