11954060
  -OEChem-07051213063D

 54 54  0     1  0  0  0  0  0999 V2000
   -5.6761   -1.9461   -0.3078 O   0  0  0  0  0  0  0  0  0  0  0  0
   -1.9786    3.6225   -0.5364 O   0  0  0  0  0  0  0  0  0  0  0  0
   -2.6390    3.3453    1.6189 O   0  0  0  0  0  0  0  0  0  0  0  0
    5.5977   -0.6266    2.3669 O   0  0  0  0  0  0  0  0  0  0  0  0
   -4.9583   -0.7067   -0.3629 C   0  0  2  0  0  0  0  0  0  0  0  0
   -4.4077   -1.9026    0.3584 C   0  0  2  0  0  0  0  0  0  0  0  0
   -5.5972    0.4061    0.3774 C   0  0  0  0  0  0  0  0  0  0  0  0
   -4.6016    1.4329    0.9383 C   0  0  0  0  0  0  0  0  0  0  0  0
   -3.2050   -2.5624   -0.1831 C   0  0  0  0  0  0  0  0  0  0  0  0
   -3.7412    2.0818   -0.1470 C   0  0  0  0  0  0  0  0  0  0  0  0
   -1.9377   -2.1798    0.0429 C   0  0  0  0  0  0  0  0  0  0  0  0
   -2.7524    3.0676    0.4331 C   0  0  0  0  0  0  0  0  0  0  0  0
    5.0066    1.4508   -0.7817 C   0  0  0  0  0  0  0  0  0  0  0  0
    5.6820    0.9144    0.4878 C   0  0  0  0  0  0  0  0  0  0  0  0
    3.6847    2.1762   -0.5036 C   0  0  0  0  0  0  0  0  0  0  0  0
   -0.7937   -2.8683   -0.5140 C   0  0  0  0  0  0  0  0  0  0  0  0
    4.8668   -0.1512    1.2387 C   0  0  1  0  0  0  0  0  0  0  0  0
    2.9482    2.7115   -1.7339 C   0  0  0  0  0  0  0  0  0  0  0  0
    4.5103   -1.3338    0.3827 C   0  0  0  0  0  0  0  0  0  0  0  0
    1.6786    3.4780   -1.3977 C   0  0  0  0  0  0  0  0  0  0  0  0
    0.5038   -2.5652   -0.3479 C   0  0  0  0  0  0  0  0  0  0  0  0
    3.2483   -1.7251    0.1500 C   0  0  0  0  0  0  0  0  0  0  0  0
    1.6489   -3.2542   -0.9051 C   0  0  0  0  0  0  0  0  0  0  0  0
    2.9126   -2.8650   -0.6742 C   0  0  0  0  0  0  0  0  0  0  0  0
   -4.5612   -0.4189   -1.3270 H   0  0  0  0  0  0  0  0  0  0  0  0
   -4.4433   -1.9003    1.4431 H   0  0  0  0  0  0  0  0  0  0  0  0
   -6.2997    0.9172   -0.2920 H   0  0  0  0  0  0  0  0  0  0  0  0
   -6.1953    0.0193    1.2123 H   0  0  0  0  0  0  0  0  0  0  0  0
   -3.9507    0.9395    1.6714 H   0  0  0  0  0  0  0  0  0  0  0  0
   -5.1568    2.2069    1.4823 H   0  0  0  0  0  0  0  0  0  0  0  0
   -3.3926   -3.4320   -0.8093 H   0  0  0  0  0  0  0  0  0  0  0  0
   -3.1610    1.3219   -0.6806 H   0  0  0  0  0  0  0  0  0  0  0  0
   -4.3802    2.6138   -0.8598 H   0  0  0  0  0  0  0  0  0  0  0  0
   -1.7429   -1.3133    0.6695 H   0  0  0  0  0  0  0  0  0  0  0  0
    5.6953    2.1527   -1.2681 H   0  0  0  0  0  0  0  0  0  0  0  0
    4.8399    0.6392   -1.4990 H   0  0  0  0  0  0  0  0  0  0  0  0
    6.6612    0.4961    0.2190 H   0  0  0  0  0  0  0  0  0  0  0  0
    5.9013    1.7439    1.1722 H   0  0  0  0  0  0  0  0  0  0  0  0
    3.8833    3.0114    0.1801 H   0  0  0  0  0  0  0  0  0  0  0  0
    2.9976    1.5038    0.0219 H   0  0  0  0  0  0  0  0  0  0  0  0
   -1.0305   -3.7303   -1.1378 H   0  0  0  0  0  0  0  0  0  0  0  0
    3.9648    0.3195    1.6455 H   0  0  0  0  0  0  0  0  0  0  0  0
    2.6958    1.8745   -2.3956 H   0  0  0  0  0  0  0  0  0  0  0  0
    3.6195    3.3705   -2.2971 H   0  0  0  0  0  0  0  0  0  0  0  0
    5.3385   -1.8886   -0.0535 H   0  0  0  0  0  0  0  0  0  0  0  0
    0.9692    2.8394   -0.8620 H   0  0  0  0  0  0  0  0  0  0  0  0
    1.1943    3.8333   -2.3125 H   0  0  0  0  0  0  0  0  0  0  0  0
    1.9008    4.3463   -0.7695 H   0  0  0  0  0  0  0  0  0  0  0  0
    0.6718   -1.6990    0.2818 H   0  0  0  0  0  0  0  0  0  0  0  0
   -1.3311    4.2603   -0.1671 H   0  0  0  0  0  0  0  0  0  0  0  0
    5.0317   -1.2575    2.8443 H   0  0  0  0  0  0  0  0  0  0  0  0
    2.4761   -1.1296    0.6187 H   0  0  0  0  0  0  0  0  0  0  0  0
    1.4629   -4.1199   -1.5341 H   0  0  0  0  0  0  0  0  0  0  0  0
    3.7262   -3.4276   -1.1239 H   0  0  0  0  0  0  0  0  0  0  0  0
  1  5  1  0  0  0  0
  1  6  1  0  0  0  0
  2 12  1  0  0  0  0
  2 50  1  0  0  0  0
  3 12  2  0  0  0  0
  4 17  1  0  0  0  0
  4 51  1  0  0  0  0
  5  6  1  0  0  0  0
  5  7  1  0  0  0  0
  5 25  1  0  0  0  0
  6  9  1  0  0  0  0
  6 26  1  0  0  0  0
  7  8  1  0  0  0  0
  7 27  1  0  0  0  0
  7 28  1  0  0  0  0
  8 10  1  0  0  0  0
  8 29  1  0  0  0  0
  8 30  1  0  0  0  0
  9 11  2  0  0  0  0
  9 31  1  0  0  0  0
 10 12  1  0  0  0  0
 10 32  1  0  0  0  0
 10 33  1  0  0  0  0
 11 16  1  0  0  0  0
 11 34  1  0  0  0  0
 13 14  1  0  0  0  0
 13 15  1  0  0  0  0
 13 35  1  0  0  0  0
 13 36  1  0  0  0  0
 14 17  1  0  0  0  0
 14 37  1  0  0  0  0
 14 38  1  0  0  0  0
 15 18  1  0  0  0  0
 15 39  1  0  0  0  0
 15 40  1  0  0  0  0
 16 21  2  0  0  0  0
 16 41  1  0  0  0  0
 17 19  1  0  0  0  0
 17 42  1  0  0  0  0
 18 20  1  0  0  0  0
 18 43  1  0  0  0  0
 18 44  1  0  0  0  0
 19 22  2  0  0  0  0
 19 45  1  0  0  0  0
 20 46  1  0  0  0  0
 20 47  1  0  0  0  0
 20 48  1  0  0  0  0
 21 23  1  0  0  0  0
 21 49  1  0  0  0  0
 22 24  1  0  0  0  0
 22 52  1  0  0  0  0
 23 24  2  0  0  0  0
 23 53  1  0  0  0  0
 24 54  1  0  0  0  0
M  END
> <PUBCHEM_COMPOUND_CID>
11954060

> <PUBCHEM_CONFORMER_RMSD>
1.2

> <PUBCHEM_CONFORMER_DIVERSEORDER>
1
37
33
34
31
7
25
70
21
68
10
3
13
29
61
22
44
9
38
45
5
17
62
49
16
53
47
24
32
30
67
20
46
50
36
23
41
15
55
8
12
28
27
35
14
56
57
26
69
6
58
19
2
18
4
63
39
43
54
60
59
42
52
65
11
40
51
66
64
48

> <PUBCHEM_MMFF94_PARTIAL_CHARGES>
30
1 -0.3
10 0.06
11 -0.15
12 0.66
16 -0.15
17 0.42
19 -0.29
2 -0.65
21 -0.15
22 -0.15
23 -0.15
24 -0.15
25 0.1
26 0.1
3 -0.57
31 0.15
34 0.15
4 -0.68
41 0.15
45 0.15
49 0.15
5 -0.05
50 0.5
51 0.4
52 0.15
53 0.15
54 0.15
6 0.09
7 0.09
9 -0.19

> <PUBCHEM_EFFECTIVE_ROTOR_COUNT>
13.6

> <PUBCHEM_PHARMACOPHORE_FEATURES>
8
1 1 acceptor
1 2 acceptor
1 20 hydrophobe
1 3 acceptor
1 4 acceptor
1 4 donor
3 2 3 12 anion
4 13 14 15 18 hydrophobe

> <PUBCHEM_HEAVY_ATOM_COUNT>
24

> <PUBCHEM_ATOM_DEF_STEREO_COUNT>
3

> <PUBCHEM_ATOM_UDEF_STEREO_COUNT>
0

> <PUBCHEM_BOND_DEF_STEREO_COUNT>
4

> <PUBCHEM_BOND_UDEF_STEREO_COUNT>
0

> <PUBCHEM_ISOTOPIC_ATOM_COUNT>
0

> <PUBCHEM_COMPONENT_COUNT>
1

> <PUBCHEM_CACTVS_TAUTO_COUNT>
1

> <PUBCHEM_CONFORMER_ID>
00B6678C00000001

> <PUBCHEM_MMFF94_ENERGY>
23.917

> <PUBCHEM_FEATURE_SELFOVERLAP>
40.653

> <PUBCHEM_SHAPE_FINGERPRINT>
10670039 82 18335405860551159094
10864689 126 17475792529531616892
10939801 23 18196092136828241888
12596602 18 17560806493898356371
12978246 48 18411418401623634284
13561361 72 18340491191781251916
14251764 38 18338510953785302851
15001296 14 18270399361030027356
15419008 145 18341065094386802706
15961568 22 18409166606310846287
16067690 210 18131635603478321129
21315764 268 18122905597413860151
245318 6 17843666786413439478
24941158 1 14691988230037680252
325973 47 18195520394348414749
338550 245 18412260614819838156
3493558 16 18412256233731604603
373842 8 18341327786838349159
437795 96 17912089661303927309

> <PUBCHEM_SHAPE_MULTIPOLES>
470.43
15.23
5.73
1.35
0.76
2.27
-0.36
1.59
-4.09
1.28
1.54
-1.69
0.67
-2.2

> <PUBCHEM_SHAPE_SELFOVERLAP>
908.22

> <PUBCHEM_SHAPE_VOLUME>
284.1

> <PUBCHEM_COORDINATE_TYPE>
2
5
10

$$$$

