5280844
  -OEChem-07051213112D

 42 42  0     0  0  0  0  0  0999 V2000
    2.5369   -1.3450    0.0000 O   0  0  0  0  0  0  0  0  0  0  0  0
    6.0010   -4.3450    0.0000 O   0  0  0  0  0  0  0  0  0  0  0  0
    6.8671   -2.8450    0.0000 O   0  0  0  0  0  0  0  0  0  0  0  0
    6.0010    1.6550    0.0000 C   0  0  0  0  0  0  0  0  0  0  0  0
    5.1350    1.1550    0.0000 C   0  0  0  0  0  0  0  0  0  0  0  0
    6.0010    2.6550    0.0000 C   0  0  0  0  0  0  0  0  0  0  0  0
    4.2690   -0.3450    0.0000 C   0  0  0  0  0  0  0  0  0  0  0  0
    5.1350    0.1550    0.0000 C   0  0  0  0  0  0  0  0  0  0  0  0
    4.2690   -1.3450    0.0000 C   0  0  0  0  0  0  0  0  0  0  0  0
    6.8671    3.1550    0.0000 C   0  0  0  0  0  0  0  0  0  0  0  0
    4.2690    1.6550    0.0000 C   0  0  0  0  0  0  0  0  0  0  0  0
    5.1350   -1.8450    0.0000 C   0  0  0  0  0  0  0  0  0  0  0  0
    3.4030   -1.8450    0.0000 C   0  0  0  0  0  0  0  0  0  0  0  0
    6.8671    4.1550    0.0000 C   0  0  0  0  0  0  0  0  0  0  0  0
    5.1350   -2.8450    0.0000 C   0  0  0  0  0  0  0  0  0  0  0  0
    3.4030   -2.8450    0.0000 C   0  0  0  0  0  0  0  0  0  0  0  0
    4.2690   -3.3450    0.0000 C   0  0  0  0  0  0  0  0  0  0  0  0
    7.7331    4.6550    0.0000 C   0  0  0  0  0  0  0  0  0  0  0  0
    6.0010    4.6550    0.0000 C   0  0  0  0  0  0  0  0  0  0  0  0
    6.0010   -3.3450    0.0000 C   0  0  0  0  0  0  0  0  0  0  0  0
    6.2131    1.0724    0.0000 H   0  0  0  0  0  0  0  0  0  0  0  0
    6.6116    1.7627    0.0000 H   0  0  0  0  0  0  0  0  0  0  0  0
    5.7890    3.2376    0.0000 H   0  0  0  0  0  0  0  0  0  0  0  0
    5.3905    2.5473    0.0000 H   0  0  0  0  0  0  0  0  0  0  0  0
    4.0569    0.2376    0.0000 H   0  0  0  0  0  0  0  0  0  0  0  0
    3.6584   -0.4527    0.0000 H   0  0  0  0  0  0  0  0  0  0  0  0
    5.6720   -0.1550    0.0000 H   0  0  0  0  0  0  0  0  0  0  0  0
    7.4040    2.8450    0.0000 H   0  0  0  0  0  0  0  0  0  0  0  0
    4.5790    2.1919    0.0000 H   0  0  0  0  0  0  0  0  0  0  0  0
    3.7320    1.9650    0.0000 H   0  0  0  0  0  0  0  0  0  0  0  0
    3.9590    1.1181    0.0000 H   0  0  0  0  0  0  0  0  0  0  0  0
    5.6720   -1.5350    0.0000 H   0  0  0  0  0  0  0  0  0  0  0  0
    2.8660   -3.1550    0.0000 H   0  0  0  0  0  0  0  0  0  0  0  0
    4.2690   -3.9650    0.0000 H   0  0  0  0  0  0  0  0  0  0  0  0
    8.0431    4.1181    0.0000 H   0  0  0  0  0  0  0  0  0  0  0  0
    6.3110    5.1919    0.0000 H   0  0  0  0  0  0  0  0  0  0  0  0
    5.4641    4.9650    0.0000 H   0  0  0  0  0  0  0  0  0  0  0  0
    5.6910    4.1181    0.0000 H   0  0  0  0  0  0  0  0  0  0  0  0
    8.2700    4.9650    0.0000 H   0  0  0  0  0  0  0  0  0  0  0  0
    7.4231    5.1919    0.0000 H   0  0  0  0  0  0  0  0  0  0  0  0
    2.0000   -1.6550    0.0000 H   0  0  0  0  0  0  0  0  0  0  0  0
    6.5380   -4.6550    0.0000 H   0  0  0  0  0  0  0  0  0  0  0  0
  1 13  1  0  0  0  0
  1 41  1  0  0  0  0
  2 20  1  0  0  0  0
  2 42  1  0  0  0  0
  3 20  2  0  0  0  0
  4  5  1  0  0  0  0
  4  6  1  0  0  0  0
  4 21  1  0  0  0  0
  4 22  1  0  0  0  0
  5  8  2  0  0  0  0
  5 11  1  0  0  0  0
  6 10  1  0  0  0  0
  6 23  1  0  0  0  0
  6 24  1  0  0  0  0
  7  8  1  0  0  0  0
  7  9  1  0  0  0  0
  7 25  1  0  0  0  0
  7 26  1  0  0  0  0
  8 27  1  0  0  0  0
  9 12  1  0  0  0  0
  9 13  2  0  0  0  0
 10 14  2  0  0  0  0
 10 28  1  0  0  0  0
 11 29  1  0  0  0  0
 11 30  1  0  0  0  0
 11 31  1  0  0  0  0
 12 15  2  0  0  0  0
 12 32  1  0  0  0  0
 13 16  1  0  0  0  0
 14 18  1  0  0  0  0
 14 19  1  0  0  0  0
 15 17  1  0  0  0  0
 15 20  1  0  0  0  0
 16 17  2  0  0  0  0
 16 33  1  0  0  0  0
 17 34  1  0  0  0  0
 18 35  1  0  0  0  0
 18 39  1  0  0  0  0
 18 40  1  0  0  0  0
 19 36  1  0  0  0  0
 19 37  1  0  0  0  0
 19 38  1  0  0  0  0
M  END
> <PUBCHEM_COMPOUND_CID>
5280844

> <PUBCHEM_COMPOUND_CANONICALIZED>
1

> <PUBCHEM_CACTVS_COMPLEXITY>
378

> <PUBCHEM_CACTVS_HBOND_ACCEPTOR>
3

> <PUBCHEM_CACTVS_HBOND_DONOR>
2

> <PUBCHEM_CACTVS_ROTATABLE_BOND>
6

> <PUBCHEM_CACTVS_SUBSKEYS>
AAADceB4MAAAAAAAAAAAAAAAAAAAAAAAAAAwAAAAAAAAAAABAAAAGgAACAAADASAmAAyDoAAAgCIAiDSCAACAAAkIAAIiAEGCMgIJjKCFRKAcQAkwBEImYeI7OTOIAACAAAIAABAAAQAABAAAAAAAAAAAA==

> <PUBCHEM_IUPAC_OPENEYE_NAME>
3-[(2E)-3,7-dimethylocta-2,6-dienyl]-4-hydroxy-benzoic acid

> <PUBCHEM_IUPAC_CAS_NAME>
3-[(2E)-3,7-dimethylocta-2,6-dienyl]-4-hydroxybenzoic acid

> <PUBCHEM_IUPAC_NAME>
3-[(2E)-3,7-dimethylocta-2,6-dienyl]-4-hydroxybenzoic acid

> <PUBCHEM_IUPAC_SYSTEMATIC_NAME>
3-[(2E)-3,7-dimethylocta-2,6-dienyl]-4-oxidanyl-benzoic acid

> <PUBCHEM_IUPAC_TRADITIONAL_NAME>
3-[(2E)-3,7-dimethylocta-2,6-dienyl]-4-hydroxy-benzoic acid

> <PUBCHEM_IUPAC_INCHI>
InChI=1S/C17H22O3/c1-12(2)5-4-6-13(3)7-8-14-11-15(17(19)20)9-10-16(14)18/h5,7,9-11,18H,4,6,8H2,1-3H3,(H,19,20)/b13-7+

> <PUBCHEM_IUPAC_INCHIKEY>
HKIMBCGCVPYUTJ-NTUHNPAUSA-N

> <PUBCHEM_XLOGP3_AA>
4.9

> <PUBCHEM_EXACT_MASS>
274.156895

> <PUBCHEM_MOLECULAR_FORMULA>
C17H22O3

> <PUBCHEM_MOLECULAR_WEIGHT>
274.35478

> <PUBCHEM_OPENEYE_CAN_SMILES>
CC(=CCCC(=CCC1=C(C=CC(=C1)C(=O)O)O)C)C

> <PUBCHEM_OPENEYE_ISO_SMILES>
CC(=CCC/C(=C/CC1=C(C=CC(=C1)C(=O)O)O)/C)C

> <PUBCHEM_CACTVS_TPSA>
57.5

> <PUBCHEM_MONOISOTOPIC_WEIGHT>
274.156895

> <PUBCHEM_TOTAL_CHARGE>
0

> <PUBCHEM_HEAVY_ATOM_COUNT>
20

> <PUBCHEM_ATOM_DEF_STEREO_COUNT>
0

> <PUBCHEM_ATOM_UDEF_STEREO_COUNT>
0

> <PUBCHEM_BOND_DEF_STEREO_COUNT>
1

> <PUBCHEM_BOND_UDEF_STEREO_COUNT>
0

> <PUBCHEM_ISOTOPIC_ATOM_COUNT>
0

> <PUBCHEM_COMPONENT_COUNT>
1

> <PUBCHEM_CACTVS_TAUTO_COUNT>
5

> <PUBCHEM_COORDINATE_TYPE>
1
5
255

> <PUBCHEM_BONDANNOTATIONS>
12  15  8
13  16  8
15  17  8
16  17  8
9  12  8
9  13  8

$$$$

