582957
  -OEChem-06241222442D

 27 26  0     1  0  0  0  0  0999 V2000
    5.4641    1.3450    0.0000 O   0  0  0  0  0  0  0  0  0  0  0  0
    2.8660   -0.1550    0.0000 O   0  0  0  0  0  0  0  0  0  0  0  0
    7.1962    0.3450    0.0000 O   0  0  0  0  0  0  0  0  0  0  0  0
    3.7320   -1.6550    0.0000 O   0  0  0  0  0  0  0  0  0  0  0  0
    6.3301   -1.1550    0.0000 O   0  0  0  0  0  0  0  0  0  0  0  0
    4.5981   -0.1550    0.0000 C   0  0  0  0  0  0  0  0  0  0  0  0
    5.4641    0.3450    0.0000 C   0  0  3  0  0  0  0  0  0  0  0  0
    4.0981    0.7110    0.0000 C   0  0  0  0  0  0  0  0  0  0  0  0
    5.0981   -1.0210    0.0000 C   0  0  0  0  0  0  0  0  0  0  0  0
    3.7320   -0.6550    0.0000 C   0  0  0  0  0  0  0  0  0  0  0  0
    6.3301   -0.1550    0.0000 C   0  0  0  0  0  0  0  0  0  0  0  0
    2.0000   -0.6550    0.0000 C   0  0  0  0  0  0  0  0  0  0  0  0
    8.0622   -0.1550    0.0000 C   0  0  0  0  0  0  0  0  0  0  0  0
    6.2002    0.7700    0.0000 H   0  0  0  0  0  0  0  0  0  0  0  0
    4.6350    1.0210    0.0000 H   0  0  0  0  0  0  0  0  0  0  0  0
    3.7881    1.2480    0.0000 H   0  0  0  0  0  0  0  0  0  0  0  0
    3.5611    0.4010    0.0000 H   0  0  0  0  0  0  0  0  0  0  0  0
    4.5611   -1.3310    0.0000 H   0  0  0  0  0  0  0  0  0  0  0  0
    5.4081   -1.5580    0.0000 H   0  0  0  0  0  0  0  0  0  0  0  0
    5.6350   -0.7110    0.0000 H   0  0  0  0  0  0  0  0  0  0  0  0
    6.0010    1.6550    0.0000 H   0  0  0  0  0  0  0  0  0  0  0  0
    1.6900   -0.1181    0.0000 H   0  0  0  0  0  0  0  0  0  0  0  0
    1.4631   -0.9650    0.0000 H   0  0  0  0  0  0  0  0  0  0  0  0
    2.3100   -1.1919    0.0000 H   0  0  0  0  0  0  0  0  0  0  0  0
    7.7522   -0.6919    0.0000 H   0  0  0  0  0  0  0  0  0  0  0  0
    8.5991   -0.4650    0.0000 H   0  0  0  0  0  0  0  0  0  0  0  0
    8.3722    0.3819    0.0000 H   0  0  0  0  0  0  0  0  0  0  0  0
  1  7  1  0  0  0  0
  1 21  1  0  0  0  0
  2 10  1  0  0  0  0
  2 12  1  0  0  0  0
  3 11  1  0  0  0  0
  3 13  1  0  0  0  0
  4 10  2  0  0  0  0
  5 11  2  0  0  0  0
  6  7  1  0  0  0  0
  6  8  1  0  0  0  0
  6  9  1  0  0  0  0
  6 10  1  0  0  0  0
  7 11  1  0  0  0  0
  7 14  1  0  0  0  0
  8 15  1  0  0  0  0
  8 16  1  0  0  0  0
  8 17  1  0  0  0  0
  9 18  1  0  0  0  0
  9 19  1  0  0  0  0
  9 20  1  0  0  0  0
 12 22  1  0  0  0  0
 12 23  1  0  0  0  0
 12 24  1  0  0  0  0
 13 25  1  0  0  0  0
 13 26  1  0  0  0  0
 13 27  1  0  0  0  0
M  END
> <PUBCHEM_COMPOUND_CID>
582957

> <PUBCHEM_COMPOUND_CANONICALIZED>
1

> <PUBCHEM_CACTVS_COMPLEXITY>
209

> <PUBCHEM_CACTVS_HBOND_ACCEPTOR>
5

> <PUBCHEM_CACTVS_HBOND_DONOR>
1

> <PUBCHEM_CACTVS_ROTATABLE_BOND>
5

> <PUBCHEM_CACTVS_SUBSKEYS>
AAADccBwOAAAAAAAAAAAAAAAAAAAAAAAAAAAAAAAAAAAAAAAAAAAGgAACAAADhSggAICCAAABgAIAACQCAIAAAAAAAAAAAFAAAABEBQAAAAAQAAFIAADAABDAAAJAAAAAAAAAAAAAAAAAAAAAAAAAAAAAA==

> <PUBCHEM_IUPAC_OPENEYE_NAME>
dimethyl 3-hydroxy-2,2-dimethyl-butanedioate

> <PUBCHEM_IUPAC_CAS_NAME>
3-hydroxy-2,2-dimethylbutanedioic acid dimethyl ester

> <PUBCHEM_IUPAC_NAME>
dimethyl 3-hydroxy-2,2-dimethylbutanedioate

> <PUBCHEM_IUPAC_SYSTEMATIC_NAME>
dimethyl 2,2-dimethyl-3-oxidanyl-butanedioate

> <PUBCHEM_IUPAC_TRADITIONAL_NAME>
3-hydroxy-2,2-dimethyl-succinic acid dimethyl ester

> <PUBCHEM_IUPAC_INCHI>
InChI=1S/C8H14O5/c1-8(2,7(11)13-4)5(9)6(10)12-3/h5,9H,1-4H3

> <PUBCHEM_IUPAC_INCHIKEY>
KMZCJCTWTQSWKH-UHFFFAOYSA-N

> <PUBCHEM_XLOGP3_AA>
0.3

> <PUBCHEM_EXACT_MASS>
190.084124

> <PUBCHEM_MOLECULAR_FORMULA>
C8H14O5

> <PUBCHEM_MOLECULAR_WEIGHT>
190.19376

> <PUBCHEM_OPENEYE_CAN_SMILES>
CC(C)(C(C(=O)OC)O)C(=O)OC

> <PUBCHEM_OPENEYE_ISO_SMILES>
CC(C)(C(C(=O)OC)O)C(=O)OC

> <PUBCHEM_CACTVS_TPSA>
72.8

> <PUBCHEM_MONOISOTOPIC_WEIGHT>
190.084124

> <PUBCHEM_TOTAL_CHARGE>
0

> <PUBCHEM_HEAVY_ATOM_COUNT>
13

> <PUBCHEM_ATOM_DEF_STEREO_COUNT>
0

> <PUBCHEM_ATOM_UDEF_STEREO_COUNT>
1

> <PUBCHEM_BOND_DEF_STEREO_COUNT>
0

> <PUBCHEM_BOND_UDEF_STEREO_COUNT>
0

> <PUBCHEM_ISOTOPIC_ATOM_COUNT>
0

> <PUBCHEM_COMPONENT_COUNT>
1

> <PUBCHEM_CACTVS_TAUTO_COUNT>
1

> <PUBCHEM_COORDINATE_TYPE>
1
5
255

> <PUBCHEM_BONDANNOTATIONS>
7  14  3

$$$$

