582827
  -OEChem-06241222443D

 26 26  0     0  0  0  0  0  0999 V2000
    2.8240   -0.3129   -0.0433 S   0  0  0  0  0  0  0  0  0  0  0  0
    3.1235   -1.5625    0.6283 O   0  0  0  0  0  0  0  0  0  0  0  0
    3.7935    0.3323   -0.9070 O   0  0  0  0  0  0  0  0  0  0  0  0
   -1.9445   -0.4535    0.0480 C   0  0  0  0  0  0  0  0  0  0  0  0
   -3.4341   -0.2649   -0.2961 C   0  0  0  0  0  0  0  0  0  0  0  0
   -1.0216    0.5148   -0.6961 C   0  0  0  0  0  0  0  0  0  0  0  0
    0.4033    0.3456   -0.2849 C   0  0  0  0  0  0  0  0  0  0  0  0
   -3.8578    1.1753    0.0034 C   0  0  0  0  0  0  0  0  0  0  0  0
   -4.3372   -1.2369    0.4648 C   0  0  0  0  0  0  0  0  0  0  0  0
    1.3040   -0.4515   -0.8772 C   0  0  0  0  0  0  0  0  0  0  0  0
    0.9287    1.0779    0.8490 C   0  0  0  0  0  0  0  0  0  0  0  0
    2.2182    0.8363    1.1112 C   0  0  0  0  0  0  0  0  0  0  0  0
   -1.6555   -1.4864   -0.1872 H   0  0  0  0  0  0  0  0  0  0  0  0
   -1.8086   -0.3345    1.1314 H   0  0  0  0  0  0  0  0  0  0  0  0
   -3.5729   -0.4482   -1.3692 H   0  0  0  0  0  0  0  0  0  0  0  0
   -1.1189    0.3431   -1.7759 H   0  0  0  0  0  0  0  0  0  0  0  0
   -1.3055    1.5587   -0.5277 H   0  0  0  0  0  0  0  0  0  0  0  0
   -3.5824    1.4725    1.0210 H   0  0  0  0  0  0  0  0  0  0  0  0
   -4.9440    1.2850   -0.0928 H   0  0  0  0  0  0  0  0  0  0  0  0
   -3.4138    1.8850   -0.7007 H   0  0  0  0  0  0  0  0  0  0  0  0
   -5.3849   -1.1077    0.1740 H   0  0  0  0  0  0  0  0  0  0  0  0
   -4.0550   -2.2728    0.2498 H   0  0  0  0  0  0  0  0  0  0  0  0
   -4.2622   -1.0831    1.5466 H   0  0  0  0  0  0  0  0  0  0  0  0
    1.1433   -1.0896   -1.7339 H   0  0  0  0  0  0  0  0  0  0  0  0
    0.3197    1.7584    1.4275 H   0  0  0  0  0  0  0  0  0  0  0  0
    2.8086    1.2695    1.9047 H   0  0  0  0  0  0  0  0  0  0  0  0
  1  2  2  0  0  0  0
  1  3  2  0  0  0  0
  1 10  1  0  0  0  0
  1 12  1  0  0  0  0
  4  5  1  0  0  0  0
  4  6  1  0  0  0  0
  4 13  1  0  0  0  0
  4 14  1  0  0  0  0
  5  8  1  0  0  0  0
  5  9  1  0  0  0  0
  5 15  1  0  0  0  0
  6  7  1  0  0  0  0
  6 16  1  0  0  0  0
  6 17  1  0  0  0  0
  7 10  2  0  0  0  0
  7 11  1  0  0  0  0
  8 18  1  0  0  0  0
  8 19  1  0  0  0  0
  8 20  1  0  0  0  0
  9 21  1  0  0  0  0
  9 22  1  0  0  0  0
  9 23  1  0  0  0  0
 10 24  1  0  0  0  0
 11 12  2  0  0  0  0
 11 25  1  0  0  0  0
 12 26  1  0  0  0  0
M  END
> <PUBCHEM_COMPOUND_CID>
582827

> <PUBCHEM_CONFORMER_RMSD>
0.6

> <PUBCHEM_CONFORMER_DIVERSEORDER>
2
5
7
1
3
6
4
8

> <PUBCHEM_MMFF94_PARTIAL_CHARGES>
11
1 1.33
10 -0.17
11 -0.15
12 -0.17
2 -0.65
24 0.15
25 0.15
26 0.15
3 -0.65
6 0.14
7 -0.14

> <PUBCHEM_EFFECTIVE_ROTOR_COUNT>
3

> <PUBCHEM_PHARMACOPHORE_FEATURES>
4
1 2 acceptor
1 3 acceptor
3 5 8 9 hydrophobe
5 1 7 10 11 12 rings

> <PUBCHEM_HEAVY_ATOM_COUNT>
12

> <PUBCHEM_ATOM_DEF_STEREO_COUNT>
0

> <PUBCHEM_ATOM_UDEF_STEREO_COUNT>
0

> <PUBCHEM_BOND_DEF_STEREO_COUNT>
0

> <PUBCHEM_BOND_UDEF_STEREO_COUNT>
0

> <PUBCHEM_ISOTOPIC_ATOM_COUNT>
0

> <PUBCHEM_COMPONENT_COUNT>
1

> <PUBCHEM_CACTVS_TAUTO_COUNT>
1

> <PUBCHEM_CONFORMER_ID>
0008E4AB00000002

> <PUBCHEM_MMFF94_ENERGY>
13.7849

> <PUBCHEM_FEATURE_SELFOVERLAP>
20.314

> <PUBCHEM_SHAPE_FINGERPRINT>
10219947 1 16587742044695202364
124424 183 18187935022853200005
12500047 106 18410860988352458623
12932764 1 18187091628493478357
13296908 3 18410016516045856449
13705890 14 17775287174998327790
13922767 16 17313393339290764121
14144814 61 17894911840966168977
14252887 29 17531243976607560806
14325111 11 18260833678809022173
15653759 3 18408605851275467809
18186145 218 17167861946089512831
190213 19 16415477151567023845
19422 9 18060136557047066895
20279233 1 18113616798786034503
20281407 28 18342176674102247681
20281475 54 18272936033165642287
20339313 130 17822006484666556608
20645477 70 18041005080551812031
20871998 22 17241317114164669798
22485316 2 18273497879375674679
23402539 116 17060627698082196636
42 15 18411418419220273915

> <PUBCHEM_SHAPE_MULTIPOLES>
239.07
7.88
1.26
0.99
4.87
0.03
0.03
1.45
0.52
0.18
0.28
-0.44
-0.03
0.35

> <PUBCHEM_SHAPE_SELFOVERLAP>
465.102

> <PUBCHEM_SHAPE_VOLUME>
145.9

> <PUBCHEM_COORDINATE_TYPE>
2
5
10

$$$$

