26934
  -OEChem-07051212473D

 24 24  0     1  0  0  0  0  0999 V2000
    1.4631   -0.7792   -1.4832 O   0  0  0  0  0  0  0  0  0  0  0  0
    3.4346    0.6147    0.1152 N   0  0  0  0  0  0  0  0  0  0  0  0
    1.1149    0.3433   -0.6681 C   0  0  2  0  0  0  0  0  0  0  0  0
    2.0500    0.4124    0.5603 C   0  0  1  0  0  0  0  0  0  0  0  0
   -0.3482    0.1874   -0.3121 C   0  0  0  0  0  0  0  0  0  0  0  0
    2.0069   -0.8631    1.4039 C   0  0  0  0  0  0  0  0  0  0  0  0
   -0.8786   -1.0839   -0.1781 C   0  0  0  0  0  0  0  0  0  0  0  0
   -1.1228    1.3193   -0.1280 C   0  0  0  0  0  0  0  0  0  0  0  0
   -2.2266   -1.2278    0.1501 C   0  0  0  0  0  0  0  0  0  0  0  0
   -2.4708    1.1752    0.2004 C   0  0  0  0  0  0  0  0  0  0  0  0
   -3.0226   -0.0983    0.3395 C   0  0  0  0  0  0  0  0  0  0  0  0
    1.2464    1.2391   -1.2889 H   0  0  0  0  0  0  0  0  0  0  0  0
    1.7665    1.2612    1.1936 H   0  0  0  0  0  0  0  0  0  0  0  0
    2.7436   -0.8120    2.2148 H   0  0  0  0  0  0  0  0  0  0  0  0
    1.0313   -0.9946    1.8812 H   0  0  0  0  0  0  0  0  0  0  0  0
    2.2292   -1.7599    0.8154 H   0  0  0  0  0  0  0  0  0  0  0  0
   -0.2824   -1.9821   -0.3076 H   0  0  0  0  0  0  0  0  0  0  0  0
   -0.7005    2.3144   -0.2323 H   0  0  0  0  0  0  0  0  0  0  0  0
    3.4879    1.4567   -0.4571 H   0  0  0  0  0  0  0  0  0  0  0  0
    3.7143   -0.1551   -0.4921 H   0  0  0  0  0  0  0  0  0  0  0  0
    0.9447   -0.7225   -2.3045 H   0  0  0  0  0  0  0  0  0  0  0  0
   -2.6560   -2.2192    0.2613 H   0  0  0  0  0  0  0  0  0  0  0  0
   -3.0906    2.0547    0.3486 H   0  0  0  0  0  0  0  0  0  0  0  0
   -4.0719   -0.2103    0.5961 H   0  0  0  0  0  0  0  0  0  0  0  0
  1  3  1  0  0  0  0
  1 21  1  0  0  0  0
  2  4  1  0  0  0  0
  2 19  1  0  0  0  0
  2 20  1  0  0  0  0
  3  4  1  0  0  0  0
  3  5  1  0  0  0  0
  3 12  1  0  0  0  0
  4  6  1  0  0  0  0
  4 13  1  0  0  0  0
  5  7  2  0  0  0  0
  5  8  1  0  0  0  0
  6 14  1  0  0  0  0
  6 15  1  0  0  0  0
  6 16  1  0  0  0  0
  7  9  1  0  0  0  0
  7 17  1  0  0  0  0
  8 10  2  0  0  0  0
  8 18  1  0  0  0  0
  9 11  2  0  0  0  0
  9 22  1  0  0  0  0
 10 11  1  0  0  0  0
 10 23  1  0  0  0  0
 11 24  1  0  0  0  0
M  END
> <PUBCHEM_COMPOUND_CID>
26934

> <PUBCHEM_CONFORMER_RMSD>
0.4

> <PUBCHEM_CONFORMER_DIVERSEORDER>
3
1
2
4
5

> <PUBCHEM_MMFF94_PARTIAL_CHARGES>
18
1 -0.68
10 -0.15
11 -0.15
17 0.15
18 0.15
19 0.36
2 -0.99
20 0.36
21 0.4
22 0.15
23 0.15
24 0.15
3 0.42
4 0.27
5 -0.14
7 -0.15
8 -0.15
9 -0.15

> <PUBCHEM_EFFECTIVE_ROTOR_COUNT>
2

> <PUBCHEM_PHARMACOPHORE_FEATURES>
5
1 1 acceptor
1 1 donor
1 2 cation
1 2 donor
6 5 7 8 9 10 11 rings

> <PUBCHEM_HEAVY_ATOM_COUNT>
11

> <PUBCHEM_ATOM_DEF_STEREO_COUNT>
2

> <PUBCHEM_ATOM_UDEF_STEREO_COUNT>
0

> <PUBCHEM_BOND_DEF_STEREO_COUNT>
0

> <PUBCHEM_BOND_UDEF_STEREO_COUNT>
0

> <PUBCHEM_ISOTOPIC_ATOM_COUNT>
0

> <PUBCHEM_COMPONENT_COUNT>
1

> <PUBCHEM_CACTVS_TAUTO_COUNT>
1

> <PUBCHEM_CONFORMER_ID>
0000693600000003

> <PUBCHEM_MMFF94_ENERGY>
23.7938

> <PUBCHEM_FEATURE_SELFOVERLAP>
25.374

> <PUBCHEM_SHAPE_FINGERPRINT>
10857977 72 18260548888085858577
11031198 65 16660357086923187604
12897270 3 8862652534168562808
12932764 1 17989204875595350180
13839132 238 18115020938974008413
15076042 46 18268721686505460080
15219456 202 17967524709808827366
15775835 57 18272088331069994761
16945 1 18113900438088723365
20201158 50 17894910732722240141
20645464 45 18113897182313550511
20653085 51 4823211744879998427
20871998 184 18115867404256355303
21040471 1 18195518410368650357
22445834 79 17988933309102832562
23235685 24 17748829617887744856
23402539 116 18261688008229066765
23552423 10 17915735367257310565
2748010 2 18122610911233168079
3248919 1 18041283252587823697
369184 2 18272378576559678241
5084963 1 18042107903593851157
75552 356 18341333297059733491

> <PUBCHEM_SHAPE_MULTIPOLES>
215.52
4.63
1.33
1.04
0.89
0.03
0.09
-0.26
-0.93
-0.51
-0.09
0.6
0.22
-0.22

> <PUBCHEM_SHAPE_SELFOVERLAP>
438.886

> <PUBCHEM_SHAPE_VOLUME>
125.7

> <PUBCHEM_COORDINATE_TYPE>
2
5
10

$$$$

