15969
  -OEChem-07051213133D

 20 20  0     0  0  0  0  0  0999 V2000
    3.5253   -1.9733    0.0019 Cl  0  0  0  0  0  0  0  0  0  0  0  0
    4.1976    1.1924    0.0007 Cl  0  0  0  0  0  0  0  0  0  0  0  0
   -3.6574   -0.7586   -0.0003 O   0  0  0  0  0  0  0  0  0  0  0  0
   -2.6469    1.2930    0.0009 O   0  0  0  0  0  0  0  0  0  0  0  0
   -1.4052   -0.6967   -0.0007 N   0  0  0  0  0  0  0  0  0  0  0  0
   -0.0781   -0.2664   -0.0008 C   0  0  0  0  0  0  0  0  0  0  0  0
    0.9584   -1.1999   -0.0010 C   0  0  0  0  0  0  0  0  0  0  0  0
    0.2120    1.0980   -0.0004 C   0  0  0  0  0  0  0  0  0  0  0  0
    2.2851   -0.7688   -0.0008 C   0  0  0  0  0  0  0  0  0  0  0  0
    1.5386    1.5291   -0.0001 C   0  0  0  0  0  0  0  0  0  0  0  0
    2.5751    0.5957   -0.0004 C   0  0  0  0  0  0  0  0  0  0  0  0
   -2.5675    0.0707   -0.0002 C   0  0  0  0  0  0  0  0  0  0  0  0
   -4.9370   -0.1151    0.0011 C   0  0  0  0  0  0  0  0  0  0  0  0
    0.7285   -2.2635   -0.0008 H   0  0  0  0  0  0  0  0  0  0  0  0
   -0.5365    1.8782   -0.0002 H   0  0  0  0  0  0  0  0  0  0  0  0
   -1.5447   -1.7043   -0.0011 H   0  0  0  0  0  0  0  0  0  0  0  0
    1.7477    2.5961    0.0003 H   0  0  0  0  0  0  0  0  0  0  0  0
   -5.7072   -0.8911    0.0009 H   0  0  0  0  0  0  0  0  0  0  0  0
   -5.0540    0.4961   -0.8987 H   0  0  0  0  0  0  0  0  0  0  0  0
   -5.0528    0.4947    0.9022 H   0  0  0  0  0  0  0  0  0  0  0  0
  1  9  1  0  0  0  0
  2 11  1  0  0  0  0
  3 12  1  0  0  0  0
  3 13  1  0  0  0  0
  4 12  2  0  0  0  0
  5  6  1  0  0  0  0
  5 12  1  0  0  0  0
  5 16  1  0  0  0  0
  6  7  2  0  0  0  0
  6  8  1  0  0  0  0
  7  9  1  0  0  0  0
  7 14  1  0  0  0  0
  8 10  2  0  0  0  0
  8 15  1  0  0  0  0
  9 11  2  0  0  0  0
 10 11  1  0  0  0  0
 10 17  1  0  0  0  0
 13 18  1  0  0  0  0
 13 19  1  0  0  0  0
 13 20  1  0  0  0  0
M  END
> <PUBCHEM_COMPOUND_CID>
15969

> <PUBCHEM_CONFORMER_RMSD>
0.6

> <PUBCHEM_CONFORMER_DIVERSEORDER>
1
9
8
4
6
7
2
3
10
5

> <PUBCHEM_MMFF94_PARTIAL_CHARGES>
17
1 -0.18
10 -0.15
11 0.18
12 0.78
13 0.28
14 0.15
15 0.15
16 0.37
17 0.15
2 -0.18
3 -0.43
4 -0.57
5 -0.55
6 0.12
7 -0.15
8 -0.15
9 0.18

> <PUBCHEM_EFFECTIVE_ROTOR_COUNT>
3

> <PUBCHEM_PHARMACOPHORE_FEATURES>
3
1 4 acceptor
1 5 donor
6 6 7 8 9 10 11 rings

> <PUBCHEM_HEAVY_ATOM_COUNT>
13

> <PUBCHEM_ATOM_DEF_STEREO_COUNT>
0

> <PUBCHEM_ATOM_UDEF_STEREO_COUNT>
0

> <PUBCHEM_BOND_DEF_STEREO_COUNT>
0

> <PUBCHEM_BOND_UDEF_STEREO_COUNT>
0

> <PUBCHEM_ISOTOPIC_ATOM_COUNT>
0

> <PUBCHEM_COMPONENT_COUNT>
1

> <PUBCHEM_CACTVS_TAUTO_COUNT>
2

> <PUBCHEM_CONFORMER_ID>
00003E6100000001

> <PUBCHEM_MMFF94_ENERGY>
31.8769

> <PUBCHEM_FEATURE_SELFOVERLAP>
15.223

> <PUBCHEM_SHAPE_FINGERPRINT>
10219947 1 18335136501012616830
10608611 8 18413111679616610781
10980938 120 18409448081376961098
11471102 20 18411140233645043639
12032990 46 18338232786081245958
12346645 6 18334857208327601158
12932764 1 17385735676807150241
13380535 76 18341612564745267274
14144814 61 18409446998776170801
14251717 144 18410857667905194070
14325111 11 18410575101869477761
14576447 43 18043826294276535951
15196674 1 18410856602885140965
15219456 202 18343027726056316764
15442244 35 18265049313505693512
15536298 74 18334857234049866986
15775835 57 18260265200968907981
16945 1 18338797802156432260
18186145 218 17846217803613572335
18522853 276 18335421266177025401
200 152 18186809071749400949
20279233 1 17704067378613478715
20645477 70 18410013264434321391
20871998 22 18116992402373124494
21267235 1 18337382829333606398
21501502 16 18337666546309560960
21501925 9 18338243746948477362
22485316 2 18409169896329465951
22959321 4 18410574032538691642
23402539 116 18271253720530296759
23402655 69 18335707152385764557
23557571 272 17274829072726885644
2748010 2 18267877249313041780
3071541 37 18342170043226572340
449060 50 18271525303717471692
449060 62 18335699417144240016
5104073 3 18410572920353055537
522135 26 18411417319170575934
53812653 166 18261960631167637816
7364860 26 18334576845963632826
77779 3 18410854378228932875

> <PUBCHEM_SHAPE_MULTIPOLES>
254.55
8.23
1.72
0.6
7.08
0.19
0
0.43
0
-1.74
0
-0.08
0
0

> <PUBCHEM_SHAPE_SELFOVERLAP>
507.82

> <PUBCHEM_SHAPE_VOLUME>
152.6

> <PUBCHEM_COORDINATE_TYPE>
2
5
10

$$$$

