8015
  -OEChem-06261202333D

  9  8  0     0  0  0  0  0  0999 V2000
    1.0637    0.4226    0.0045 N   0  0  0  0  0  0  0  0  0  0  0  0
   -2.2844    0.3175   -0.0019 N   0  0  0  0  0  0  0  0  0  0  0  0
    0.1317   -0.7001    0.0013 C   0  0  0  0  0  0  0  0  0  0  0  0
   -1.2139   -0.1307    0.0001 C   0  0  0  0  0  0  0  0  0  0  0  0
    2.3029    0.0908   -0.0040 C   0  0  0  0  0  0  0  0  0  0  0  0
    0.2733   -1.3242    0.8910 H   0  0  0  0  0  0  0  0  0  0  0  0
    0.2755   -1.3222   -0.8894 H   0  0  0  0  0  0  0  0  0  0  0  0
    3.0817    0.8692   -0.0025 H   0  0  0  0  0  0  0  0  0  0  0  0
    2.6478   -0.9569   -0.0129 H   0  0  0  0  0  0  0  0  0  0  0  0
  1  3  1  0  0  0  0
  1  5  2  0  0  0  0
  2  4  3  0  0  0  0
  3  4  1  0  0  0  0
  3  6  1  0  0  0  0
  3  7  1  0  0  0  0
  5  8  1  0  0  0  0
  5  9  1  0  0  0  0
M  END
> <PUBCHEM_COMPOUND_CID>
8015

> <PUBCHEM_CONFORMER_RMSD>
0.4

> <PUBCHEM_CONFORMER_DIVERSEORDER>
1
4
2
3

> <PUBCHEM_MMFF94_PARTIAL_CHARGES>
7
1 -0.7
2 -0.56
3 0.45
4 0.36
5 0.33
8 0.06
9 0.06

> <PUBCHEM_EFFECTIVE_ROTOR_COUNT>
1

> <PUBCHEM_PHARMACOPHORE_FEATURES>
2
1 1 acceptor
1 2 acceptor

> <PUBCHEM_HEAVY_ATOM_COUNT>
5

> <PUBCHEM_ATOM_DEF_STEREO_COUNT>
0

> <PUBCHEM_ATOM_UDEF_STEREO_COUNT>
0

> <PUBCHEM_BOND_DEF_STEREO_COUNT>
0

> <PUBCHEM_BOND_UDEF_STEREO_COUNT>
0

> <PUBCHEM_ISOTOPIC_ATOM_COUNT>
0

> <PUBCHEM_COMPONENT_COUNT>
1

> <PUBCHEM_CACTVS_TAUTO_COUNT>
1

> <PUBCHEM_CONFORMER_ID>
00001F4F00000001

> <PUBCHEM_MMFF94_ENERGY>
5.1134

> <PUBCHEM_FEATURE_SELFOVERLAP>
10.149

> <PUBCHEM_SHAPE_FINGERPRINT>
14390081 3 18187088334069231792
16714656 1 18342454841875064772
20096714 4 18411138004583436144
29004967 10 9079115570198551526
5460574 1 9295292737437008098

> <PUBCHEM_SHAPE_MULTIPOLES>
92.94
3.15
0.74
0.58
0.09
0.08
0
-0.5
0
0.01
0
0.02
0.01
0

> <PUBCHEM_SHAPE_SELFOVERLAP>
163.091

> <PUBCHEM_SHAPE_VOLUME>
59.4

> <PUBCHEM_COORDINATE_TYPE>
2
5
10

$$$$

