12751
  -OEChem-06261207193D

 14 14  0     1  0  0  0  0  0999 V2000
    0.8081   -1.9188   -0.6693 Cl  0  0  0  0  0  0  0  0  0  0  0  0
    1.7812    1.0328    0.1186 O   0  0  0  0  0  0  0  0  0  0  0  0
   -1.2725   -0.6869    0.6233 C   0  0  0  0  0  0  0  0  0  0  0  0
   -1.6398    0.3417   -0.4404 C   0  0  0  0  0  0  0  0  0  0  0  0
    0.2493   -0.7837    0.5688 C   0  0  2  0  0  0  0  0  0  0  0  0
   -0.5601    1.4108   -0.3233 C   0  0  0  0  0  0  0  0  0  0  0  0
    0.6338    0.6041    0.1224 C   0  0  0  0  0  0  0  0  0  0  0  0
   -1.5796   -0.3102    1.6074 H   0  0  0  0  0  0  0  0  0  0  0  0
   -1.7757   -1.6460    0.4657 H   0  0  0  0  0  0  0  0  0  0  0  0
   -2.6420    0.7538   -0.2893 H   0  0  0  0  0  0  0  0  0  0  0  0
   -1.6122   -0.1164   -1.4364 H   0  0  0  0  0  0  0  0  0  0  0  0
    0.6861   -1.0342    1.5385 H   0  0  0  0  0  0  0  0  0  0  0  0
   -0.8040    2.1421    0.4525 H   0  0  0  0  0  0  0  0  0  0  0  0
   -0.3721    1.9047   -1.2789 H   0  0  0  0  0  0  0  0  0  0  0  0
  1  5  1  0  0  0  0
  2  7  2  0  0  0  0
  3  4  1  0  0  0  0
  3  5  1  0  0  0  0
  3  8  1  0  0  0  0
  3  9  1  0  0  0  0
  4  6  1  0  0  0  0
  4 10  1  0  0  0  0
  4 11  1  0  0  0  0
  5  7  1  0  0  0  0
  5 12  1  0  0  0  0
  6  7  1  0  0  0  0
  6 13  1  0  0  0  0
  6 14  1  0  0  0  0
M  END
> <PUBCHEM_COMPOUND_CID>
12751

> <PUBCHEM_CONFORMER_RMSD>
0.4

> <PUBCHEM_CONFORMER_DIVERSEORDER>
1
2

> <PUBCHEM_MMFF94_PARTIAL_CHARGES>
5
1 -0.29
2 -0.57
5 0.35
6 0.06
7 0.45

> <PUBCHEM_EFFECTIVE_ROTOR_COUNT>
0.8

> <PUBCHEM_PHARMACOPHORE_FEATURES>
2
1 2 acceptor
5 3 4 5 6 7 rings

> <PUBCHEM_HEAVY_ATOM_COUNT>
7

> <PUBCHEM_ATOM_DEF_STEREO_COUNT>
0

> <PUBCHEM_ATOM_UDEF_STEREO_COUNT>
1

> <PUBCHEM_BOND_DEF_STEREO_COUNT>
0

> <PUBCHEM_BOND_UDEF_STEREO_COUNT>
0

> <PUBCHEM_ISOTOPIC_ATOM_COUNT>
0

> <PUBCHEM_COMPONENT_COUNT>
1

> <PUBCHEM_CACTVS_TAUTO_COUNT>
3

> <PUBCHEM_CONFORMER_ID>
000031CF00000001

> <PUBCHEM_MMFF94_ENERGY>
5.781

> <PUBCHEM_FEATURE_SELFOVERLAP>
10.148

> <PUBCHEM_SHAPE_FINGERPRINT>
137420 1 7022735686265849219
16714656 1 18053374405901753556
18185500 45 15598066831060907734
21040471 1 18341338773079953185
29004967 10 17682688671912435195
5943 1 9553234076525673027

> <PUBCHEM_SHAPE_MULTIPOLES>
140.06
1.91
1.71
0.83
0.57
0.58
-0.01
-0.43
-0.56
-0.08
0.15
0.09
-0.16
0.09

> <PUBCHEM_SHAPE_SELFOVERLAP>
269.111

> <PUBCHEM_SHAPE_VOLUME>
87.8

> <PUBCHEM_COORDINATE_TYPE>
2
5
10

$$$$

