17395997
  -OEChem-06241222532D

 40 42  0     1  0  0  0  0  0999 V2000
   10.1444   -0.8483    0.0000 S   0  0  0  0  0  0  0  0  0  0  0  0
    5.4634    1.8543    0.0000 S   0  0  0  0  0  0  0  0  0  0  0  0
    8.0567   -0.7913    0.0000 O   0  0  0  0  0  0  0  0  0  0  0  0
    8.0567   -2.5234    0.0000 O   0  0  0  0  0  0  0  0  0  0  0  0
    7.0567    0.9407    0.0000 O   0  0  0  0  0  0  0  0  0  0  0  0
    3.7020   -0.6490    0.0000 O   0  0  0  0  0  0  0  0  0  0  0  0
    5.5567    0.0747    0.0000 N   0  0  0  0  0  0  0  0  0  0  0  0
    2.4149    0.5100    0.0000 N   0  0  0  0  0  0  0  0  0  0  0  0
   12.6253   -1.6574    0.0000 C   0  0  0  0  0  0  0  0  0  0  0  0
   12.0417   -2.4621    0.0000 C   0  0  0  0  0  0  0  0  0  0  0  0
   12.0417   -0.8526    0.0000 C   0  0  0  0  0  0  0  0  0  0  0  0
   11.0955   -2.1574    0.0000 C   0  0  0  0  0  0  0  0  0  0  0  0
   11.0955   -1.1574    0.0000 C   0  0  0  0  0  0  0  0  0  0  0  0
   10.1444   -2.4664    0.0000 C   0  0  0  0  0  0  0  0  0  0  0  0
    9.5567   -1.6574    0.0000 C   0  0  0  0  0  0  0  0  0  0  0  0
    8.5567   -1.6574    0.0000 C   0  0  0  0  0  0  0  0  0  0  0  0
    7.0567   -0.7913    0.0000 C   0  0  3  0  0  0  0  0  0  0  0  0
    6.5567    0.0747    0.0000 C   0  0  0  0  0  0  0  0  0  0  0  0
    6.5567   -1.6574    0.0000 C   0  0  0  0  0  0  0  0  0  0  0  0
    5.0567    0.9407    0.0000 C   0  0  0  0  0  0  0  0  0  0  0  0
    4.0621    1.0452    0.0000 C   0  0  0  0  0  0  0  0  0  0  0  0
    3.8542    2.0234    0.0000 C   0  0  0  0  0  0  0  0  0  0  0  0
    4.7202    2.5234    0.0000 C   0  0  0  0  0  0  0  0  0  0  0  0
    3.3930    0.3021    0.0000 C   0  0  0  0  0  0  0  0  0  0  0  0
   13.0862   -2.0721    0.0000 H   0  0  0  0  0  0  0  0  0  0  0  0
   13.0862   -1.2426    0.0000 H   0  0  0  0  0  0  0  0  0  0  0  0
   11.7907   -3.0290    0.0000 H   0  0  0  0  0  0  0  0  0  0  0  0
   12.5791   -2.7713    0.0000 H   0  0  0  0  0  0  0  0  0  0  0  0
   12.5791   -0.5434    0.0000 H   0  0  0  0  0  0  0  0  0  0  0  0
   11.7907   -0.2857    0.0000 H   0  0  0  0  0  0  0  0  0  0  0  0
    9.9529   -3.0560    0.0000 H   0  0  0  0  0  0  0  0  0  0  0  0
    7.3667   -1.3283    0.0000 H   0  0  0  0  0  0  0  0  0  0  0  0
    6.0197   -1.3474    0.0000 H   0  0  0  0  0  0  0  0  0  0  0  0
    6.2467   -2.1943    0.0000 H   0  0  0  0  0  0  0  0  0  0  0  0
    7.0936   -1.9674    0.0000 H   0  0  0  0  0  0  0  0  0  0  0  0
    5.2467   -0.4622    0.0000 H   0  0  0  0  0  0  0  0  0  0  0  0
    3.2878    2.2756    0.0000 H   0  0  0  0  0  0  0  0  0  0  0  0
    4.7851    3.1400    0.0000 H   0  0  0  0  0  0  0  0  0  0  0  0
    2.0000    0.0493    0.0000 H   0  0  0  0  0  0  0  0  0  0  0  0
    2.2233    1.0997    0.0000 H   0  0  0  0  0  0  0  0  0  0  0  0
  1 13  1  0  0  0  0
  1 15  1  0  0  0  0
  2 20  1  0  0  0  0
  2 23  1  0  0  0  0
  3 16  1  0  0  0  0
  3 17  1  0  0  0  0
  4 16  2  0  0  0  0
  5 18  2  0  0  0  0
  6 24  2  0  0  0  0
  7 18  1  0  0  0  0
  7 20  1  0  0  0  0
  7 36  1  0  0  0  0
  8 24  1  0  0  0  0
  8 39  1  0  0  0  0
  8 40  1  0  0  0  0
  9 10  1  0  0  0  0
  9 11  1  0  0  0  0
  9 25  1  0  0  0  0
  9 26  1  0  0  0  0
 10 12  1  0  0  0  0
 10 27  1  0  0  0  0
 10 28  1  0  0  0  0
 11 13  1  0  0  0  0
 11 29  1  0  0  0  0
 11 30  1  0  0  0  0
 12 13  2  0  0  0  0
 12 14  1  0  0  0  0
 14 15  2  0  0  0  0
 14 31  1  0  0  0  0
 15 16  1  0  0  0  0
 17 18  1  0  0  0  0
 17 19  1  0  0  0  0
 17 32  1  0  0  0  0
 19 33  1  0  0  0  0
 19 34  1  0  0  0  0
 19 35  1  0  0  0  0
 20 21  2  0  0  0  0
 21 22  1  0  0  0  0
 21 24  1  0  0  0  0
 22 23  2  0  0  0  0
 22 37  1  0  0  0  0
 23 38  1  0  0  0  0
M  END
> <PUBCHEM_COMPOUND_CID>
17395997

> <PUBCHEM_COMPOUND_CANONICALIZED>
1

> <PUBCHEM_CACTVS_COMPLEXITY>
530

> <PUBCHEM_CACTVS_HBOND_ACCEPTOR>
6

> <PUBCHEM_CACTVS_HBOND_DONOR>
2

> <PUBCHEM_CACTVS_ROTATABLE_BOND>
6

> <PUBCHEM_CACTVS_SUBSKEYS>
AAADceB7OABgAAAAAAAAAAAAAAAAAaJEAAAAAAAAAAASAAAB4AAAHgQQAAAADBSl2AKyiYLABAiMAiHSWAKDAIBlCBlIiBlATMgKJjrg9Z2HEYhk1AH46ceIyKCOAAAAAAAAAAAAAAAAAAAAAAAAAgAAAA==

> <PUBCHEM_IUPAC_OPENEYE_NAME>
[2-[(3-carbamoyl-2-thienyl)amino]-1-methyl-2-oxo-ethyl] 5,6-dihydro-4H-cyclopenta[b]thiophene-2-carboxylate

> <PUBCHEM_IUPAC_CAS_NAME>
5,6-dihydro-4H-cyclopenta[b]thiophene-2-carboxylic acid [1-[(3-carbamoyl-2-thiophenyl)amino]-1-oxopropan-2-yl] ester

> <PUBCHEM_IUPAC_NAME>
[1-[(3-carbamoylthiophen-2-yl)amino]-1-oxopropan-2-yl] 5,6-dihydro-4H-cyclopenta[b]thiophene-2-carboxylate

> <PUBCHEM_IUPAC_SYSTEMATIC_NAME>
[1-[(3-aminocarbonylthiophen-2-yl)amino]-1-oxidanylidene-propan-2-yl] 5,6-dihydro-4H-cyclopenta[b]thiophene-2-carboxylate

> <PUBCHEM_IUPAC_TRADITIONAL_NAME>
5,6-dihydro-4H-cyclopenta[b]thiophene-2-carboxylic acid [2-[(3-carbamoyl-2-thienyl)amino]-2-keto-1-methyl-ethyl] ester

> <PUBCHEM_IUPAC_INCHI>
InChI=1S/C16H16N2O4S2/c1-8(14(20)18-15-10(13(17)19)5-6-23-15)22-16(21)12-7-9-3-2-4-11(9)24-12/h5-8H,2-4H2,1H3,(H2,17,19)(H,18,20)

> <PUBCHEM_IUPAC_INCHIKEY>
KVOGIUOQKFSJPA-UHFFFAOYSA-N

> <PUBCHEM_XLOGP3_AA>
3.2

> <PUBCHEM_EXACT_MASS>
364.055149

> <PUBCHEM_MOLECULAR_FORMULA>
C16H16N2O4S2

> <PUBCHEM_MOLECULAR_WEIGHT>
364.43924

> <PUBCHEM_OPENEYE_CAN_SMILES>
CC(C(=O)NC1=C(C=CS1)C(=O)N)OC(=O)C2=CC3=C(S2)CCC3

> <PUBCHEM_OPENEYE_ISO_SMILES>
CC(C(=O)NC1=C(C=CS1)C(=O)N)OC(=O)C2=CC3=C(S2)CCC3

> <PUBCHEM_CACTVS_TPSA>
155

> <PUBCHEM_MONOISOTOPIC_WEIGHT>
364.055149

> <PUBCHEM_TOTAL_CHARGE>
0

> <PUBCHEM_HEAVY_ATOM_COUNT>
24

> <PUBCHEM_ATOM_DEF_STEREO_COUNT>
0

> <PUBCHEM_ATOM_UDEF_STEREO_COUNT>
1

> <PUBCHEM_BOND_DEF_STEREO_COUNT>
0

> <PUBCHEM_BOND_UDEF_STEREO_COUNT>
0

> <PUBCHEM_ISOTOPIC_ATOM_COUNT>
0

> <PUBCHEM_COMPONENT_COUNT>
1

> <PUBCHEM_CACTVS_TAUTO_COUNT>
36

> <PUBCHEM_COORDINATE_TYPE>
1
5
255

> <PUBCHEM_BONDANNOTATIONS>
1  13  8
1  15  8
12  13  8
12  14  8
14  15  8
17  19  3
2  20  8
2  23  8
20  21  8
21  22  8
22  23  8

$$$$

