29575
  -OEChem-07051213113D

 22 24  0     0  0  0  0  0  0999 V2000
    2.3298   -2.8291    0.0000 Cl  0  0  0  0  0  0  0  0  0  0  0  0
   -2.3297   -2.8292   -0.0007 Cl  0  0  0  0  0  0  0  0  0  0  0  0
    5.0851   -1.2531    0.0011 Cl  0  0  0  0  0  0  0  0  0  0  0  0
   -5.0849   -1.2532    0.0014 Cl  0  0  0  0  0  0  0  0  0  0  0  0
    5.0309    1.9378    0.0001 Cl  0  0  0  0  0  0  0  0  0  0  0  0
   -5.0312    1.9378   -0.0004 Cl  0  0  0  0  0  0  0  0  0  0  0  0
   -0.0001   -1.1205   -0.0005 O   0  0  0  0  0  0  0  0  0  0  0  0
   -0.0001    1.7333   -0.0001 O   0  0  0  0  0  0  0  0  0  0  0  0
    1.1616   -0.3907   -0.0002 C   0  0  0  0  0  0  0  0  0  0  0  0
   -1.1616   -0.3906   -0.0003 C   0  0  0  0  0  0  0  0  0  0  0  0
    1.1616    1.0034   -0.0002 C   0  0  0  0  0  0  0  0  0  0  0  0
   -1.1617    1.0034   -0.0001 C   0  0  0  0  0  0  0  0  0  0  0  0
    2.3668   -1.0921   -0.0002 C   0  0  0  0  0  0  0  0  0  0  0  0
   -2.3668   -1.0921   -0.0003 C   0  0  0  0  0  0  0  0  0  0  0  0
    2.3668    1.7048   -0.0001 C   0  0  0  0  0  0  0  0  0  0  0  0
   -2.3668    1.7048    0.0003 C   0  0  0  0  0  0  0  0  0  0  0  0
    3.5734   -0.3916   -0.0001 C   0  0  0  0  0  0  0  0  0  0  0  0
   -3.5734   -0.3917    0.0000 C   0  0  0  0  0  0  0  0  0  0  0  0
    3.5734    1.0044    0.0000 C   0  0  0  0  0  0  0  0  0  0  0  0
   -3.5734    1.0044    0.0003 C   0  0  0  0  0  0  0  0  0  0  0  0
    2.3550    2.7922    0.0000 H   0  0  0  0  0  0  0  0  0  0  0  0
   -2.3550    2.7923    0.0004 H   0  0  0  0  0  0  0  0  0  0  0  0
  1 13  1  0  0  0  0
  2 14  1  0  0  0  0
  3 17  1  0  0  0  0
  4 18  1  0  0  0  0
  5 19  1  0  0  0  0
  6 20  1  0  0  0  0
  7  9  1  0  0  0  0
  7 10  1  0  0  0  0
  8 11  1  0  0  0  0
  8 12  1  0  0  0  0
  9 11  1  0  0  0  0
  9 13  2  0  0  0  0
 10 12  1  0  0  0  0
 10 14  2  0  0  0  0
 11 15  2  0  0  0  0
 12 16  2  0  0  0  0
 13 17  1  0  0  0  0
 14 18  1  0  0  0  0
 15 19  1  0  0  0  0
 15 21  1  0  0  0  0
 16 20  1  0  0  0  0
 16 22  1  0  0  0  0
 17 19  2  0  0  0  0
 18 20  2  0  0  0  0
M  END
> <PUBCHEM_COMPOUND_CID>
29575

> <PUBCHEM_CONFORMER_RMSD>
0.6

> <PUBCHEM_CONFORMER_DIVERSEORDER>
1

> <PUBCHEM_MMFF94_PARTIAL_CHARGES>
22
1 -0.18
10 0.08
11 0.08
12 0.08
13 0.18
14 0.18
15 -0.15
16 -0.15
17 0.18
18 0.18
19 0.18
2 -0.18
20 0.18
21 0.15
22 0.15
3 -0.18
4 -0.18
5 -0.18
6 -0.18
7 -0.17
8 -0.17
9 0.08

> <PUBCHEM_EFFECTIVE_ROTOR_COUNT>
0.4

> <PUBCHEM_PHARMACOPHORE_FEATURES>
5
1 7 acceptor
1 8 acceptor
6 10 12 14 16 18 20 rings
6 7 8 9 10 11 12 rings
6 9 11 13 15 17 19 rings

> <PUBCHEM_HEAVY_ATOM_COUNT>
20

> <PUBCHEM_ATOM_DEF_STEREO_COUNT>
0

> <PUBCHEM_ATOM_UDEF_STEREO_COUNT>
0

> <PUBCHEM_BOND_DEF_STEREO_COUNT>
0

> <PUBCHEM_BOND_UDEF_STEREO_COUNT>
0

> <PUBCHEM_ISOTOPIC_ATOM_COUNT>
0

> <PUBCHEM_COMPONENT_COUNT>
1

> <PUBCHEM_CACTVS_TAUTO_COUNT>
1

> <PUBCHEM_CONFORMER_ID>
0000738700000001

> <PUBCHEM_MMFF94_ENERGY>
56.8209

> <PUBCHEM_FEATURE_SELFOVERLAP>
25.449

> <PUBCHEM_SHAPE_FINGERPRINT>
10608611 8 18410858758663369921
10616163 171 18338233747922013118
10967382 1 18410575131939484614
1100329 8 16896519286655945632
11471102 20 18410577284119039628
12107183 9 17760364796333106393
12507560 40 18410011018055220357
12788726 201 17386277809175921281
13140716 1 18410300198778104370
138480 1 17689998259674426819
14790565 3 18410568487593870916
15196674 1 18410855460128330693
15442244 35 18193556894235280242
15536298 74 18407759240201655244
16945 1 18410855464423194052
17492 89 18410293653069532331
17804303 29 18408882949200520717
1813 80 17060338517686399900
18186145 218 17846503650866827910
200 152 18113902654144155041
20510252 161 18333447660306783769
20645477 70 18261108599713261710
21267235 1 18410566288570472451
21279426 13 18337672022023319188
21421861 104 17916031346433675378
21452121 103 18334305232432508736
221490 88 18340198597160774154
23366157 5 18131348657219968938
23402539 116 18334301989325816781
23402655 69 18335423469226248892
23557571 272 18260538992117341837
23558518 356 18129657483081063963
23559900 14 18263085573201996506
2871803 45 18341898471743157398
3004659 81 18342737447124415452
335352 9 18338517555355654942
34934 24 18410579487004563810
350125 39 18339640156574990300
3545911 37 18410855421478867340
4214541 1 18410573998294965281
474 4 17703505481191087724
5104073 3 18411136939415788368
559249 180 18341055215012624434
633830 44 17346876728553283928
69090 78 18410858789218387645
7364860 26 18336264647736000910
77779 3 18410854360616579492
8809292 202 18343017761706076074
9709674 26 18409725175113074735

> <PUBCHEM_SHAPE_MULTIPOLES>
411.07
10.75
2.87
0.62
0
1.04
0
-1.63
0
0
0
0
0.01
0

> <PUBCHEM_SHAPE_SELFOVERLAP>
860.298

> <PUBCHEM_SHAPE_VOLUME>
237.9

> <PUBCHEM_COORDINATE_TYPE>
2
5
10

$$$$

