442119
  -OEChem-07051212573D

 23 25  0     0  0  0  0  0  0999 V2000
    5.5068    0.0979    0.0025 Cl  0  0  0  0  0  0  0  0  0  0  0  0
   -2.1616   -1.6422   -0.0033 S   0  0  0  0  0  0  0  0  0  0  0  0
   -4.9119   -0.5119    0.0130 O   0  0  0  0  0  0  0  0  0  0  0  0
    0.6420   -1.8136   -0.0017 N   0  0  0  0  0  0  0  0  0  0  0  0
   -4.3906    1.7211   -0.0025 N   0  0  0  0  0  0  0  0  0  0  0  0
   -0.3650    0.1287   -0.0017 C   0  0  0  0  0  0  0  0  0  0  0  0
    0.9965    0.4286   -0.0006 C   0  0  0  0  0  0  0  0  0  0  0  0
    1.6310   -0.8316   -0.0006 C   0  0  0  0  0  0  0  0  0  0  0  0
   -0.5612   -1.1951   -0.0021 C   0  0  0  0  0  0  0  0  0  0  0  0
   -1.5259    0.9001   -0.0016 C   0  0  0  0  0  0  0  0  0  0  0  0
    1.7862    1.5925    0.0003 C   0  0  0  0  0  0  0  0  0  0  0  0
   -2.6233    0.0440   -0.0024 C   0  0  0  0  0  0  0  0  0  0  0  0
    3.0243   -0.9625    0.0005 C   0  0  0  0  0  0  0  0  0  0  0  0
    3.1801    1.4657    0.0014 C   0  0  0  0  0  0  0  0  0  0  0  0
    3.7863    0.2100    0.0016 C   0  0  0  0  0  0  0  0  0  0  0  0
   -4.0137    0.3682   -0.0028 C   0  0  0  0  0  0  0  0  0  0  0  0
    0.8088   -2.8110   -0.0020 H   0  0  0  0  0  0  0  0  0  0  0  0
   -1.5773    1.9807   -0.0009 H   0  0  0  0  0  0  0  0  0  0  0  0
    1.3298    2.5780    0.0003 H   0  0  0  0  0  0  0  0  0  0  0  0
    3.4889   -1.9437    0.0006 H   0  0  0  0  0  0  0  0  0  0  0  0
    3.7850    2.3700    0.0021 H   0  0  0  0  0  0  0  0  0  0  0  0
   -3.7201    2.4822   -0.0082 H   0  0  0  0  0  0  0  0  0  0  0  0
   -5.3713    1.9815    0.0033 H   0  0  0  0  0  0  0  0  0  0  0  0
  1 15  1  0  0  0  0
  2  9  1  0  0  0  0
  2 12  1  0  0  0  0
  3 16  2  0  0  0  0
  4  8  1  0  0  0  0
  4  9  1  0  0  0  0
  4 17  1  0  0  0  0
  5 16  1  0  0  0  0
  5 22  1  0  0  0  0
  5 23  1  0  0  0  0
  6  7  1  0  0  0  0
  6  9  2  0  0  0  0
  6 10  1  0  0  0  0
  7  8  2  0  0  0  0
  7 11  1  0  0  0  0
  8 13  1  0  0  0  0
 10 12  2  0  0  0  0
 10 18  1  0  0  0  0
 11 14  2  0  0  0  0
 11 19  1  0  0  0  0
 12 16  1  0  0  0  0
 13 15  2  0  0  0  0
 13 20  1  0  0  0  0
 14 15  1  0  0  0  0
 14 21  1  0  0  0  0
M  END
> <PUBCHEM_COMPOUND_CID>
442119

> <PUBCHEM_CONFORMER_RMSD>
0.6

> <PUBCHEM_CONFORMER_DIVERSEORDER>
1
2

> <PUBCHEM_MMFF94_PARTIAL_CHARGES>
21
1 -0.18
10 -0.15
11 -0.15
12 -0.05
13 -0.15
14 -0.15
15 0.18
16 0.71
17 0.27
18 0.15
19 0.15
2 -0.08
20 0.15
21 0.15
22 0.37
23 0.37
3 -0.57
4 0.03
5 -0.8
8 -0.15
9 -0.11

> <PUBCHEM_EFFECTIVE_ROTOR_COUNT>
1

> <PUBCHEM_PHARMACOPHORE_FEATURES>
7
1 3 acceptor
1 4 cation
1 4 donor
1 5 donor
5 2 6 9 10 12 rings
5 4 6 7 8 9 rings
6 7 8 11 13 14 15 rings

> <PUBCHEM_HEAVY_ATOM_COUNT>
16

> <PUBCHEM_ATOM_DEF_STEREO_COUNT>
0

> <PUBCHEM_ATOM_UDEF_STEREO_COUNT>
0

> <PUBCHEM_BOND_DEF_STEREO_COUNT>
0

> <PUBCHEM_BOND_UDEF_STEREO_COUNT>
0

> <PUBCHEM_ISOTOPIC_ATOM_COUNT>
0

> <PUBCHEM_COMPONENT_COUNT>
1

> <PUBCHEM_CACTVS_TAUTO_COUNT>
5

> <PUBCHEM_CONFORMER_ID>
0006BF0700000001

> <PUBCHEM_MMFF94_ENERGY>
35.7166

> <PUBCHEM_FEATURE_SELFOVERLAP>
35.849

> <PUBCHEM_SHAPE_FINGERPRINT>
10608611 8 18410576145615258425
10967382 1 18410575102006595334
11132069 177 18409452461905973552
11401426 45 18260552212443234682
11471102 20 18409731776646016078
12236239 1 17821447967087333261
12251169 10 18341895181861317266
12644460 14 18130226072394766346
13380535 76 18410291406474095171
13533116 47 4822941188696513908
13862211 1 18410862057314304302
13922767 16 18408042905416573120
14897335 6 18408886226387129127
14911166 2 18408598163362934380
14943859 89 18186522089859907578
15099037 51 18409728461163346246
15196674 1 18410575110438157443
15442244 35 18193274328215505186
15536298 74 18334294283869683374
16945 1 18410856602674092422
17802600 8 18411141333204501372
18186145 218 18412833473014657732
18522853 276 18334576841399802776
200 152 17822012003609471183
20645477 70 18115022017311746934
21267235 1 18410847737856383695
21501502 16 18267587909866096622
23402539 116 18187090554525080420
23402655 69 18261396688865729021
23559900 14 18261109699599565526
25 1 18412548733841858822
2748010 2 18266455417042023310
3004659 81 18271519888998243910
335352 9 18410856564509731252
34934 24 18409453591962673522
3545911 37 18408038502795454810
366044 4 18411138026280117602
4214541 1 18410855456234244545
474 4 17488738948600473428
4990 188 18040427798197318396
5104073 3 18339644426020065512
53812653 166 18409452475107373602
633830 44 17774724164994355682
6430166 295 18411420617742427924
69090 78 18335706022455996119
7364860 26 18264488554181272086
77779 3 18411698764124616015
9709674 26 18408879638002729983
9981440 41 17261032122124120216
9999458 23 17846216627457015780

> <PUBCHEM_SHAPE_MULTIPOLES>
319.16
9.42
1.71
0.61
0.03
0.04
0
-1.96
-0.02
-0.38
0
0.05
0.01
0

> <PUBCHEM_SHAPE_SELFOVERLAP>
701.557

> <PUBCHEM_SHAPE_VOLUME>
175.8

> <PUBCHEM_COORDINATE_TYPE>
2
5
10

$$$$

