656885
  -OEChem-07051213043D

 31 32  0     1  0  0  0  0  0999 V2000
   -3.4406    1.2149   -0.2991 O   0  0  0  0  0  0  0  0  0  0  0  0
   -2.2530   -0.2800   -1.5445 O   0  0  0  0  0  0  0  0  0  0  0  0
    0.5978    0.6109    0.1180 C   0  0  1  0  0  0  0  0  0  0  0  0
    1.0380   -0.8495    0.3330 C   0  0  1  0  0  0  0  0  0  0  0  0
   -0.6127    0.9512    1.0003 C   0  0  0  0  0  0  0  0  0  0  0  0
   -0.1202   -1.8102    0.0430 C   0  0  0  0  0  0  0  0  0  0  0  0
    1.7606    1.5756    0.3909 C   0  0  0  0  0  0  0  0  0  0  0  0
    2.2584   -1.1847   -0.5349 C   0  0  0  0  0  0  0  0  0  0  0  0
   -1.7796   -0.0222    0.8145 C   0  0  2  0  0  0  0  0  0  0  0  0
   -1.3497   -1.4877    0.8930 C   0  0  0  0  0  0  0  0  0  0  0  0
    2.9813    1.2351   -0.4610 C   0  0  0  0  0  0  0  0  0  0  0  0
    3.4109   -0.2171   -0.2769 C   0  0  0  0  0  0  0  0  0  0  0  0
   -2.4914    0.2636   -0.4763 C   0  0  0  0  0  0  0  0  0  0  0  0
    0.3032    0.7369   -0.9333 H   0  0  0  0  0  0  0  0  0  0  0  0
    1.3284   -0.9765    1.3859 H   0  0  0  0  0  0  0  0  0  0  0  0
   -0.9385    1.9785    0.7934 H   0  0  0  0  0  0  0  0  0  0  0  0
   -0.3062    0.9278    2.0546 H   0  0  0  0  0  0  0  0  0  0  0  0
    0.1944   -2.8393    0.2569 H   0  0  0  0  0  0  0  0  0  0  0  0
   -0.3724   -1.7861   -1.0227 H   0  0  0  0  0  0  0  0  0  0  0  0
    2.0381    1.5374    1.4519 H   0  0  0  0  0  0  0  0  0  0  0  0
    1.4493    2.6058    0.1804 H   0  0  0  0  0  0  0  0  0  0  0  0
    1.9847   -1.1461   -1.5969 H   0  0  0  0  0  0  0  0  0  0  0  0
    2.5936   -2.2084   -0.3301 H   0  0  0  0  0  0  0  0  0  0  0  0
   -2.5081    0.1401    1.6207 H   0  0  0  0  0  0  0  0  0  0  0  0
   -2.1748   -2.1476    0.5982 H   0  0  0  0  0  0  0  0  0  0  0  0
   -1.1176   -1.7269    1.9391 H   0  0  0  0  0  0  0  0  0  0  0  0
    3.8111    1.9010   -0.1983 H   0  0  0  0  0  0  0  0  0  0  0  0
    2.7496    1.4155   -1.5180 H   0  0  0  0  0  0  0  0  0  0  0  0
    4.2414   -0.4443   -0.9548 H   0  0  0  0  0  0  0  0  0  0  0  0
    3.7846   -0.3597    0.7445 H   0  0  0  0  0  0  0  0  0  0  0  0
   -3.9163    1.4173   -1.1328 H   0  0  0  0  0  0  0  0  0  0  0  0
  1 13  1  0  0  0  0
  1 31  1  0  0  0  0
  2 13  2  0  0  0  0
  3  4  1  0  0  0  0
  3  5  1  0  0  0  0
  3  7  1  0  0  0  0
  3 14  1  0  0  0  0
  4  6  1  0  0  0  0
  4  8  1  0  0  0  0
  4 15  1  0  0  0  0
  5  9  1  0  0  0  0
  5 16  1  0  0  0  0
  5 17  1  0  0  0  0
  6 10  1  0  0  0  0
  6 18  1  0  0  0  0
  6 19  1  0  0  0  0
  7 11  1  0  0  0  0
  7 20  1  0  0  0  0
  7 21  1  0  0  0  0
  8 12  1  0  0  0  0
  8 22  1  0  0  0  0
  8 23  1  0  0  0  0
  9 10  1  0  0  0  0
  9 13  1  0  0  0  0
  9 24  1  0  0  0  0
 10 25  1  0  0  0  0
 10 26  1  0  0  0  0
 11 12  1  0  0  0  0
 11 27  1  0  0  0  0
 11 28  1  0  0  0  0
 12 29  1  0  0  0  0
 12 30  1  0  0  0  0
M  END
> <PUBCHEM_COMPOUND_CID>
656885

> <PUBCHEM_CONFORMER_RMSD>
0.6

> <PUBCHEM_CONFORMER_DIVERSEORDER>
1
7
14
6
17
13
16
2
3
9
11
19
4
15
12
18
20
10
8
5

> <PUBCHEM_MMFF94_PARTIAL_CHARGES>
5
1 -0.65
13 0.66
2 -0.57
31 0.5
9 0.06

> <PUBCHEM_EFFECTIVE_ROTOR_COUNT>
2.6

> <PUBCHEM_PHARMACOPHORE_FEATURES>
5
1 1 acceptor
1 2 acceptor
3 1 2 13 anion
6 3 4 5 6 9 10 rings
6 3 4 7 8 11 12 rings

> <PUBCHEM_HEAVY_ATOM_COUNT>
13

> <PUBCHEM_ATOM_DEF_STEREO_COUNT>
0

> <PUBCHEM_ATOM_UDEF_STEREO_COUNT>
3

> <PUBCHEM_BOND_DEF_STEREO_COUNT>
0

> <PUBCHEM_BOND_UDEF_STEREO_COUNT>
0

> <PUBCHEM_ISOTOPIC_ATOM_COUNT>
0

> <PUBCHEM_COMPONENT_COUNT>
1

> <PUBCHEM_CACTVS_TAUTO_COUNT>
1

> <PUBCHEM_CONFORMER_ID>
000A05F500000001

> <PUBCHEM_MMFF94_ENERGY>
15.0916

> <PUBCHEM_FEATURE_SELFOVERLAP>
25.444

> <PUBCHEM_SHAPE_FINGERPRINT>
10608611 8 18341328881902269208
11206711 2 18049435950898109510
11769659 78 5689322282854382148
12138202 97 18130231449620019170
12423570 1 10965373002444346787
124424 183 18131073740552668490
12932764 1 17274821337722575354
13839132 238 15912779417287717351
14911166 2 18338508733661672782
15219456 202 18342450409421264600
15279308 100 18343017796213208524
15775835 57 17989203759046154450
16945 1 18261663818693700122
17844478 74 17914035530675687347
18186145 218 18341617065670371085
20201158 50 18408318912952663406
20281407 28 7276832398121619241
20653085 51 17988918942421474161
21947302 44 18343308075740909642
22802520 49 18338797814614105257
23235685 24 18342177777945876545
23402655 69 18335426802574570821
23559900 14 18335411345762602492
25 1 18269836578696024297
2748010 2 18119801422605852618
353137 74 18337672039240364833
5084963 1 17916289568140829850
528886 8 18411701006055385745
8030462 33 17968365802002735984
81228 2 17486482699126797259

> <PUBCHEM_SHAPE_MULTIPOLES>
255.8
4.92
1.74
1.02
0.53
0.24
0.11
-1.26
1.3
0.25
-0.15
-0.53
0.02
0.27

> <PUBCHEM_SHAPE_SELFOVERLAP>
523.011

> <PUBCHEM_SHAPE_VOLUME>
145

> <PUBCHEM_COORDINATE_TYPE>
2
5
10

$$$$

