12641
  -OEChem-06261207113D

 23 23  0     0  0  0  0  0  0999 V2000
    0.0575    0.3534    0.0394 O   0  0  0  0  0  0  0  0  0  0  0  0
    1.3641   -1.5330   -0.0544 O   0  0  0  0  0  0  0  0  0  0  0  0
    2.2912    0.5965    0.0881 N   0  0  0  0  0  0  0  0  0  0  0  0
    3.5493    0.2762    0.6952 C   0  0  0  0  0  0  0  0  0  0  0  0
    3.4440    0.5111   -0.7590 C   0  0  0  0  0  0  0  0  0  0  0  0
    1.2509   -0.3129    0.0172 C   0  0  0  0  0  0  0  0  0  0  0  0
   -2.3443    0.4326    0.0084 C   0  0  0  0  0  0  0  0  0  0  0  0
   -1.1157   -0.4651   -0.0273 C   0  0  0  0  0  0  0  0  0  0  0  0
   -3.6362   -0.3781   -0.0435 C   0  0  0  0  0  0  0  0  0  0  0  0
   -4.8607    0.5194    0.0358 C   0  0  0  0  0  0  0  0  0  0  0  0
    3.6487   -0.7357    1.0602 H   0  0  0  0  0  0  0  0  0  0  0  0
    3.9302    1.0637    1.3288 H   0  0  0  0  0  0  0  0  0  0  0  0
    3.7497    1.4656   -1.1614 H   0  0  0  0  0  0  0  0  0  0  0  0
    3.4616   -0.3334   -1.4328 H   0  0  0  0  0  0  0  0  0  0  0  0
   -2.3043    1.1389   -0.8302 H   0  0  0  0  0  0  0  0  0  0  0  0
   -2.3172    1.0459    0.9178 H   0  0  0  0  0  0  0  0  0  0  0  0
   -1.1251   -1.1515    0.8275 H   0  0  0  0  0  0  0  0  0  0  0  0
   -1.0995   -1.0450   -0.9574 H   0  0  0  0  0  0  0  0  0  0  0  0
   -3.6619   -1.0923    0.7877 H   0  0  0  0  0  0  0  0  0  0  0  0
   -3.6739   -0.9594   -0.9721 H   0  0  0  0  0  0  0  0  0  0  0  0
   -4.8700    1.0891    0.9705 H   0  0  0  0  0  0  0  0  0  0  0  0
   -4.8826    1.2275   -0.7988 H   0  0  0  0  0  0  0  0  0  0  0  0
   -5.7745   -0.0817   -0.0046 H   0  0  0  0  0  0  0  0  0  0  0  0
  1  6  1  0  0  0  0
  1  8  1  0  0  0  0
  2  6  2  0  0  0  0
  3  4  1  0  0  0  0
  3  5  1  0  0  0  0
  3  6  1  0  0  0  0
  4  5  1  0  0  0  0
  4 11  1  0  0  0  0
  4 12  1  0  0  0  0
  5 13  1  0  0  0  0
  5 14  1  0  0  0  0
  7  8  1  0  0  0  0
  7  9  1  0  0  0  0
  7 15  1  0  0  0  0
  7 16  1  0  0  0  0
  8 17  1  0  0  0  0
  8 18  1  0  0  0  0
  9 10  1  0  0  0  0
  9 19  1  0  0  0  0
  9 20  1  0  0  0  0
 10 21  1  0  0  0  0
 10 22  1  0  0  0  0
 10 23  1  0  0  0  0
M  END
> <PUBCHEM_COMPOUND_CID>
12641

> <PUBCHEM_CONFORMER_RMSD>
0.6

> <PUBCHEM_CONFORMER_DIVERSEORDER>
1
29
17
99
98
79
25
86
35
40
94
67
103
55
88
6
62
53
5
80
49
92
106
68
82
4
107
64
32
9
28
71
83
87
38
30
77
100
101
47
19
81
7
43
45
105
3
91
52
95
93
96
13
14
12
36
65
70
97
76
72
24
84
59
54
34
69
20
74
78
33
26
61
102
37
44
104
21
22
89
63
15
11
58
8
2
42
27
75
31
90
41
23
10
60
16
18
46
85
51
56
48
66
50
39
73
57

> <PUBCHEM_MMFF94_PARTIAL_CHARGES>
11
1 -0.43
11 0.1
12 0.1
13 0.1
14 0.1
2 -0.57
3 -0.36
4 -0.05
5 -0.05
6 0.78
8 0.28

> <PUBCHEM_EFFECTIVE_ROTOR_COUNT>
5.6

> <PUBCHEM_PHARMACOPHORE_FEATURES>
2
1 10 hydrophobe
1 2 acceptor

> <PUBCHEM_HEAVY_ATOM_COUNT>
10

> <PUBCHEM_ATOM_DEF_STEREO_COUNT>
0

> <PUBCHEM_ATOM_UDEF_STEREO_COUNT>
0

> <PUBCHEM_BOND_DEF_STEREO_COUNT>
0

> <PUBCHEM_BOND_UDEF_STEREO_COUNT>
0

> <PUBCHEM_ISOTOPIC_ATOM_COUNT>
0

> <PUBCHEM_COMPONENT_COUNT>
1

> <PUBCHEM_CACTVS_TAUTO_COUNT>
1

> <PUBCHEM_CONFORMER_ID>
0000316100000001

> <PUBCHEM_MMFF94_ENERGY>
18.7363

> <PUBCHEM_FEATURE_SELFOVERLAP>
10.148

> <PUBCHEM_SHAPE_FINGERPRINT>
10219947 1 17489587853038537382
11062470 55 17775566433745455501
12932764 1 17240779405559901857
14123238 8 17775564226506701297
14325111 11 18410293635925748391
170605 34 18343582949405815890
177051 138 12247680478378993737
17834076 25 18412824690302435325
190213 19 17022618663341563825
20279233 1 17846773023243085091
20645477 70 18262801899265516111
20719005 15 18411419501441132691
21119208 17 17168141234790784789
21293036 1 16443066088509168545
22485316 2 5256401695398933357
23402539 116 17489598839733809087
23402655 69 18260550052111842093
42 15 14549024298960098761
449060 50 18343015584631975309

> <PUBCHEM_SHAPE_MULTIPOLES>
189.08
8.73
0.95
0.71
6.1
0.24
-0.01
-1.88
0.08
-0.17
-0.03
-0.38
-0.05
-0.08

> <PUBCHEM_SHAPE_SELFOVERLAP>
357.04

> <PUBCHEM_SHAPE_VOLUME>
118.7

> <PUBCHEM_COORDINATE_TYPE>
2
5
10

$$$$

