443293
  -OEChem-07051213013D

 42 44  0     0  0  0  0  0  0999 V2000
   -0.2995    3.2247   -0.7647 S   0  0  0  0  0  0  0  0  0  0  0  0
    4.4408   -0.4590    0.2616 S   0  0  0  0  0  0  0  0  0  0  0  0
    3.1703   -0.6650   -0.7572 O   0  0  0  0  0  0  0  0  0  0  0  0
    5.7058   -1.0891   -0.5555 O   0  0  0  0  0  0  0  0  0  0  0  0
    4.6846    0.9611    0.4352 O   0  0  0  0  0  0  0  0  0  0  0  0
    4.2115   -1.3015    1.4211 O   0  0  0  0  0  0  0  0  0  0  0  0
   -1.7331    1.5663    0.5941 N   0  0  0  0  0  0  0  0  0  0  0  0
   -2.7382    3.6644    0.1883 N   0  0  0  0  0  0  0  0  0  0  0  0
   -2.9737   -3.3371   -1.0437 N   0  0  0  0  0  0  0  0  0  0  0  0
   -0.1854   -0.3895    0.6908 C   0  0  0  0  0  0  0  0  0  0  0  0
    1.0610   -0.9075    0.3267 C   0  0  0  0  0  0  0  0  0  0  0  0
   -0.5382    0.9227    0.3067 C   0  0  0  0  0  0  0  0  0  0  0  0
    0.3788    1.6743   -0.4341 C   0  0  0  0  0  0  0  0  0  0  0  0
    1.6325    1.1604   -0.8033 C   0  0  0  0  0  0  0  0  0  0  0  0
   -1.1309   -1.2374    1.4853 C   0  0  0  0  0  0  0  0  0  0  0  0
    1.9565   -0.1408   -0.4107 C   0  0  0  0  0  0  0  0  0  0  0  0
    1.4394   -2.2982    0.7318 C   0  0  0  0  0  0  0  0  0  0  0  0
   -2.2037   -1.6969    0.5290 C   0  0  0  0  0  0  0  0  0  0  0  0
    2.6168    1.9613   -1.5961 C   0  0  0  0  0  0  0  0  0  0  0  0
   -1.7156    2.7749    0.0825 C   0  0  0  0  0  0  0  0  0  0  0  0
   -3.3447   -0.9425    0.3499 C   0  0  0  0  0  0  0  0  0  0  0  0
   -2.0523   -2.8697   -0.1718 C   0  0  0  0  0  0  0  0  0  0  0  0
   -4.3157   -1.3905   -0.5388 C   0  0  0  0  0  0  0  0  0  0  0  0
   -3.9826    3.3977    0.8779 C   0  0  0  0  0  0  0  0  0  0  0  0
   -4.0843   -2.5832   -1.2050 C   0  0  0  0  0  0  0  0  0  0  0  0
   -1.5777   -0.6343    2.2874 H   0  0  0  0  0  0  0  0  0  0  0  0
   -0.6768   -2.0862    2.0046 H   0  0  0  0  0  0  0  0  0  0  0  0
    0.6740   -3.0299    0.4867 H   0  0  0  0  0  0  0  0  0  0  0  0
    2.3282   -2.6666    0.2104 H   0  0  0  0  0  0  0  0  0  0  0  0
    1.6455   -2.3377    1.8066 H   0  0  0  0  0  0  0  0  0  0  0  0
    3.1633    2.6454   -0.9400 H   0  0  0  0  0  0  0  0  0  0  0  0
    3.3357    1.3374   -2.1361 H   0  0  0  0  0  0  0  0  0  0  0  0
    2.1073    2.5564   -2.3615 H   0  0  0  0  0  0  0  0  0  0  0  0
   -3.5339   -0.0379    0.9164 H   0  0  0  0  0  0  0  0  0  0  0  0
   -1.2007   -3.5244   -0.0547 H   0  0  0  0  0  0  0  0  0  0  0  0
   -2.6475    4.5830   -0.2374 H   0  0  0  0  0  0  0  0  0  0  0  0
   -5.2299   -0.8299   -0.6961 H   0  0  0  0  0  0  0  0  0  0  0  0
   -3.8009    3.1679    1.9324 H   0  0  0  0  0  0  0  0  0  0  0  0
   -4.5103    2.5581    0.4144 H   0  0  0  0  0  0  0  0  0  0  0  0
   -4.6310    4.2776    0.8274 H   0  0  0  0  0  0  0  0  0  0  0  0
   -4.8120   -2.9775   -1.9066 H   0  0  0  0  0  0  0  0  0  0  0  0
    5.5427   -1.9687   -0.9703 H   0  0  0  0  0  0  0  0  0  0  0  0
  1 13  1  0  0  0  0
  1 20  1  0  0  0  0
  2  3  1  0  0  0  0
  2  4  1  0  0  0  0
  2  5  2  0  0  0  0
  2  6  2  0  0  0  0
  3 16  1  0  0  0  0
  4 42  1  0  0  0  0
  7 12  1  0  0  0  0
  7 20  2  0  0  0  0
  8 20  1  0  0  0  0
  8 24  1  0  0  0  0
  8 36  1  0  0  0  0
  9 22  1  0  0  0  0
  9 25  2  0  0  0  0
 10 11  2  0  0  0  0
 10 12  1  0  0  0  0
 10 15  1  0  0  0  0
 11 16  1  0  0  0  0
 11 17  1  0  0  0  0
 12 13  2  0  0  0  0
 13 14  1  0  0  0  0
 14 16  2  0  0  0  0
 14 19  1  0  0  0  0
 15 18  1  0  0  0  0
 15 26  1  0  0  0  0
 15 27  1  0  0  0  0
 17 28  1  0  0  0  0
 17 29  1  0  0  0  0
 17 30  1  0  0  0  0
 18 21  1  0  0  0  0
 18 22  2  0  0  0  0
 19 31  1  0  0  0  0
 19 32  1  0  0  0  0
 19 33  1  0  0  0  0
 21 23  2  0  0  0  0
 21 34  1  0  0  0  0
 22 35  1  0  0  0  0
 23 25  1  0  0  0  0
 23 37  1  0  0  0  0
 24 38  1  0  0  0  0
 24 39  1  0  0  0  0
 24 40  1  0  0  0  0
 25 41  1  0  0  0  0
M  END
> <PUBCHEM_COMPOUND_CID>
443293

> <PUBCHEM_CONFORMER_RMSD>
0.8

> <PUBCHEM_CONFORMER_DIVERSEORDER>
6
14
2
7
9
13
15
10
4
16
1
5
3
8
11
12

> <PUBCHEM_MMFF94_PARTIAL_CHARGES>
31
1 -0.08
10 -0.14
11 -0.14
12 0.23
13 0.04
14 -0.14
15 0.29
16 0.08
17 0.14
18 -0.14
19 0.14
2 1.67
20 0.46
21 -0.15
22 0.16
23 -0.15
24 0.37
25 0.16
3 -0.27
34 0.15
35 0.15
36 0.4
37 0.15
4 -0.68
41 0.15
42 0.5
5 -0.65
6 -0.65
7 -0.57
8 -0.85
9 -0.62

> <PUBCHEM_EFFECTIVE_ROTOR_COUNT>
5

> <PUBCHEM_PHARMACOPHORE_FEATURES>
10
1 4 acceptor
1 5 acceptor
1 6 acceptor
1 8 donor
1 9 acceptor
3 7 8 20 cation
4 2 4 5 6 anion
5 1 7 12 13 20 rings
6 10 11 12 13 14 16 rings
6 9 18 21 22 23 25 rings

> <PUBCHEM_HEAVY_ATOM_COUNT>
25

> <PUBCHEM_ATOM_DEF_STEREO_COUNT>
0

> <PUBCHEM_ATOM_UDEF_STEREO_COUNT>
0

> <PUBCHEM_BOND_DEF_STEREO_COUNT>
0

> <PUBCHEM_BOND_UDEF_STEREO_COUNT>
0

> <PUBCHEM_ISOTOPIC_ATOM_COUNT>
0

> <PUBCHEM_COMPONENT_COUNT>
1

> <PUBCHEM_CACTVS_TAUTO_COUNT>
2

> <PUBCHEM_CONFORMER_ID>
0006C39D00000006

> <PUBCHEM_MMFF94_ENERGY>
68.7523

> <PUBCHEM_FEATURE_SELFOVERLAP>
50.874

> <PUBCHEM_SHAPE_FINGERPRINT>
104564 63 18410574011396164507
10871710 139 18342170098407448170
10930396 42 17181114128139360232
1100329 8 18340480170447602513
11265709 11 18339641139974418247
11578080 2 17822018592300638681
116883 192 18408878525442131031
12035759 4 18273224105269947091
12160290 23 18122594349343948153
12293681 4 18272079458206021467
12422481 6 17978473698686552761
12553582 1 18194661701410240471
12788726 201 18338781334866964021
13004483 165 18338815432812949402
13134695 92 18049726213615031485
13140716 1 18125710202146122803
13540713 5 18272356565158800348
13583140 156 17313679230052933178
13911987 19 17191490218905828364
14790565 3 17904481058204345409
15131766 46 15407469037649588702
15420108 30 17765728205437400768
16752209 62 18342165670834093066
17349148 13 18131638863548570986
192875 21 18201155451817903926
19591789 44 17404295690760843989
20626108 58 17826240596565937671
20642791 13 18410295787535766588
21041028 32 18199170820671798067
21197605 99 18124289840368578969
21236236 1 18411979195941264408
221357 26 18198636432525533183
22620623 9 18261939847477910294
23402539 116 18410016515576715423
23419403 2 17241628155232282777
23557571 272 18113613517130378636
23558518 356 18201141170872712488
23559900 14 18054788391241278116
23598288 3 18269534131367601037
238 59 16894552763434831391
25147074 1 18202271507976579388
38695281 34 17907016532270976861
463206 1 18051978021687166551
5171179 24 18187932716440510072
56633871 153 17337332104700344314
6438718 38 18335418027871644535
7164475 11 18410570661147600708
7471813 234 18339931394149177326
81228 2 18341322357793926569

> <PUBCHEM_SHAPE_MULTIPOLES>
483.77
8.66
4.54
1.19
6.69
2.82
-0.06
-3.61
-0.66
-5.47
-0.39
0
-0.16
-2.16

> <PUBCHEM_SHAPE_SELFOVERLAP>
1028.26

> <PUBCHEM_SHAPE_VOLUME>
274.4

> <PUBCHEM_COORDINATE_TYPE>
2
5
10

$$$$

