5281855
  -OEChem-07051213003D

 28 31  0     0  0  0  0  0  0999 V2000
   -0.9834    2.3204    0.0002 O   0  0  0  0  0  0  0  0  0  0  0  0
    0.9834   -2.3204   -0.0003 O   0  0  0  0  0  0  0  0  0  0  0  0
   -3.7252    2.0000   -0.0001 O   0  0  0  0  0  0  0  0  0  0  0  0
    3.7254   -1.9999   -0.0004 O   0  0  0  0  0  0  0  0  0  0  0  0
   -4.8414   -0.5413   -0.0004 O   0  0  0  0  0  0  0  0  0  0  0  0
    4.8414    0.5412   -0.0003 O   0  0  0  0  0  0  0  0  0  0  0  0
    0.8483    3.6989    0.0010 O   0  0  0  0  0  0  0  0  0  0  0  0
   -0.8483   -3.6989    0.0022 O   0  0  0  0  0  0  0  0  0  0  0  0
   -0.7110   -0.0913    0.0000 C   0  0  0  0  0  0  0  0  0  0  0  0
    0.7110    0.0912    0.0001 C   0  0  0  0  0  0  0  0  0  0  0  0
    1.2738    1.3665    0.0001 C   0  0  0  0  0  0  0  0  0  0  0  0
   -1.2738   -1.3664   -0.0002 C   0  0  0  0  0  0  0  0  0  0  0  0
   -1.5432    1.0223    0.0001 C   0  0  0  0  0  0  0  0  0  0  0  0
    1.5432   -1.0223   -0.0001 C   0  0  0  0  0  0  0  0  0  0  0  0
   -2.9286    0.8971   -0.0003 C   0  0  0  0  0  0  0  0  0  0  0  0
    2.9287   -0.8971   -0.0004 C   0  0  0  0  0  0  0  0  0  0  0  0
    2.6657    1.5136    0.0000 C   0  0  0  0  0  0  0  0  0  0  0  0
   -2.6657   -1.5136   -0.0005 C   0  0  0  0  0  0  0  0  0  0  0  0
    0.3945    2.5620    0.0003 C   0  0  0  0  0  0  0  0  0  0  0  0
   -0.3946   -2.5620   -0.0001 C   0  0  0  0  0  0  0  0  0  0  0  0
   -3.4876   -0.3807   -0.0006 C   0  0  0  0  0  0  0  0  0  0  0  0
    3.4876    0.3807   -0.0003 C   0  0  0  0  0  0  0  0  0  0  0  0
    3.1216    2.5006   -0.0001 H   0  0  0  0  0  0  0  0  0  0  0  0
   -3.1144   -2.5040   -0.0007 H   0  0  0  0  0  0  0  0  0  0  0  0
   -4.6533    1.7079   -0.0003 H   0  0  0  0  0  0  0  0  0  0  0  0
    4.6018   -1.7710    0.3487 H   0  0  0  0  0  0  0  0  0  0  0  0
   -5.0486   -1.4916   -0.0005 H   0  0  0  0  0  0  0  0  0  0  0  0
    5.2653   -0.2586   -0.3510 H   0  0  0  0  0  0  0  0  0  0  0  0
  1 13  1  0  0  0  0
  1 19  1  0  0  0  0
  2 14  1  0  0  0  0
  2 20  1  0  0  0  0
  3 15  1  0  0  0  0
  3 25  1  0  0  0  0
  4 16  1  0  0  0  0
  4 26  1  0  0  0  0
  5 21  1  0  0  0  0
  5 27  1  0  0  0  0
  6 22  1  0  0  0  0
  6 28  1  0  0  0  0
  7 19  2  0  0  0  0
  8 20  2  0  0  0  0
  9 10  1  0  0  0  0
  9 12  1  0  0  0  0
  9 13  2  0  0  0  0
 10 11  1  0  0  0  0
 10 14  2  0  0  0  0
 11 17  2  0  0  0  0
 11 19  1  0  0  0  0
 12 18  2  0  0  0  0
 12 20  1  0  0  0  0
 13 15  1  0  0  0  0
 14 16  1  0  0  0  0
 15 21  2  0  0  0  0
 16 22  2  0  0  0  0
 17 22  1  0  0  0  0
 17 23  1  0  0  0  0
 18 21  1  0  0  0  0
 18 24  1  0  0  0  0
M  END
> <PUBCHEM_COMPOUND_CID>
5281855

> <PUBCHEM_CONFORMER_RMSD>
0.6

> <PUBCHEM_CONFORMER_DIVERSEORDER>
1

> <PUBCHEM_MMFF94_PARTIAL_CHARGES>
26
1 -0.23
11 0.09
12 0.09
13 0.08
14 0.08
15 0.08
16 0.08
17 -0.15
18 -0.15
19 0.63
2 -0.23
20 0.63
21 0.08
22 0.08
23 0.15
24 0.15
25 0.45
26 0.45
27 0.45
28 0.45
3 -0.53
4 -0.53
5 -0.53
6 -0.53
7 -0.57
8 -0.57

> <PUBCHEM_EFFECTIVE_ROTOR_COUNT>
0

> <PUBCHEM_PHARMACOPHORE_FEATURES>
10
1 3 donor
1 4 donor
1 5 donor
1 6 donor
1 7 acceptor
1 8 acceptor
6 1 9 10 11 13 19 rings
6 10 11 14 16 17 22 rings
6 2 9 10 12 14 20 rings
6 9 12 13 15 18 21 rings

> <PUBCHEM_HEAVY_ATOM_COUNT>
22

> <PUBCHEM_ATOM_DEF_STEREO_COUNT>
0

> <PUBCHEM_ATOM_UDEF_STEREO_COUNT>
0

> <PUBCHEM_BOND_DEF_STEREO_COUNT>
0

> <PUBCHEM_BOND_UDEF_STEREO_COUNT>
0

> <PUBCHEM_ISOTOPIC_ATOM_COUNT>
0

> <PUBCHEM_COMPONENT_COUNT>
1

> <PUBCHEM_CACTVS_TAUTO_COUNT>
127

> <PUBCHEM_CONFORMER_ID>
0050983F00000001

> <PUBCHEM_MMFF94_ENERGY>
83.453

> <PUBCHEM_FEATURE_SELFOVERLAP>
50.883

> <PUBCHEM_SHAPE_FINGERPRINT>
10411042 1 18266740379490668814
10693767 8 18115046185314456527
10967382 1 18410575063219936422
1100329 8 18266459802097942713
11578080 2 17198584418515533292
11680986 33 18050569534459188113
12011746 2 18410573963676615046
12403259 226 18413111632735675085
12553582 1 18338243673981311044
12838862 33 18338537256107299908
13132413 78 18408603656046195044
13140716 1 18266458895859843448
138480 1 17617940678663617711
14178342 30 18048896095284311528
14223421 5 17978508637506857579
14790565 3 18338504335225622320
15196674 1 18410575131907719173
15442244 35 18410012147621024256
15536298 74 18334576867021815862
16945 1 18194682557755293702
193761 8 17834394523141144583
19591789 44 18338799017183979023
20028762 73 18115306653754087887
20510252 161 18261956353037384680
20739085 24 18124285428324036753
20905425 154 17831016089060843926
21267235 1 18410846651197937838
21421861 104 17624128704249866433
21501502 16 17906453225291190982
221490 88 18197492926935456819
2334 1 18410855464423129095
23366157 5 17698452022739633900
23402539 116 18334304170947663542
23419403 2 16096933136431317009
23463225 33 18412544327358270452
23559900 14 18334574621582316020
238 59 17839507471770659317
2748010 2 18410575114727850071
335352 9 18338517443380511149
34934 24 18411426141133693600
350125 39 18411695449085428041
5104073 3 18410575131907720144
589210 1 17906453220985667593
7364860 26 18192150395504450000
7832392 63 18265336105884180930
9709674 26 18264203625971630406

> <PUBCHEM_SHAPE_MULTIPOLES>
405.8
6.71
3.56
0.58
0
0
0
0
0
0
0
0
0
0

> <PUBCHEM_SHAPE_SELFOVERLAP>
940.662

> <PUBCHEM_SHAPE_VOLUME>
205.5

> <PUBCHEM_COORDINATE_TYPE>
2
5
10

$$$$

