21677481
  -OEChem-07051213113D

 79 82  0     1  0  0  0  0  0999 V2000
    1.8368   -0.3938    1.4329 O   0  0  0  0  0  0  0  0  0  0  0  0
   -1.2563   -0.4825   -0.5532 O   0  0  0  0  0  0  0  0  0  0  0  0
    3.2749   -0.4062   -0.4469 O   0  0  0  0  0  0  0  0  0  0  0  0
   -3.1832    0.8302   -0.5566 O   0  0  0  0  0  0  0  0  0  0  0  0
   -0.1267   -3.0757   -1.0498 O   0  0  0  0  0  0  0  0  0  0  0  0
   -0.5386    0.2508    2.7980 O   0  0  0  0  0  0  0  0  0  0  0  0
   -4.4440   -1.1532   -0.2499 O   0  0  0  0  0  0  0  0  0  0  0  0
    5.4827   -1.8520    0.6155 O   0  0  0  0  0  0  0  0  0  0  0  0
    8.0341   -0.9941   -0.4636 O   0  0  0  0  0  0  0  0  0  0  0  0
   -4.4783    1.2820   -2.9840 O   0  0  0  0  0  0  0  0  0  0  0  0
   -7.2830    1.1443   -2.1832 O   0  0  0  0  0  0  0  0  0  0  0  0
   -4.6660   -2.0971    2.2966 O   0  0  0  0  0  0  0  0  0  0  0  0
   -2.2477    2.2635    1.7655 N   0  0  0  0  0  0  0  0  0  0  0  0
    2.7878   -3.1867   -0.8518 N   0  0  0  0  0  0  0  0  0  0  0  0
    3.5939    2.4792   -0.4254 N   0  0  0  0  0  0  0  0  0  0  0  0
    8.4396    1.8663   -0.4084 N   0  0  0  0  0  0  0  0  0  0  0  0
   -7.6443    0.5578    0.6392 N   0  0  0  0  0  0  0  0  0  0  0  0
    0.7031    0.1118    0.7285 C   0  0  1  0  0  0  0  0  0  0  0  0
   -0.1633   -1.0287    0.1894 C   0  0  2  0  0  0  0  0  0  0  0  0
    0.6689   -1.9371   -0.7191 C   0  0  1  0  0  0  0  0  0  0  0  0
   -0.1303    1.0041    1.6537 C   0  0  1  0  0  0  0  0  0  0  0  0
    1.9345   -2.3859    0.0281 C   0  0  2  0  0  0  0  0  0  0  0  0
   -1.3700    1.4905    0.8857 C   0  0  1  0  0  0  0  0  0  0  0  0
    2.6996   -1.1822    0.6030 C   0  0  2  0  0  0  0  0  0  0  0  0
   -2.1341    0.3086    0.2581 C   0  0  2  0  0  0  0  0  0  0  0  0
    4.4865    0.2255   -0.0234 C   0  0  2  0  0  0  0  0  0  0  0  0
    4.6657    1.5466   -0.7830 C   0  0  2  0  0  0  0  0  0  0  0  0
    5.6488   -0.7419   -0.2719 C   0  0  1  0  0  0  0  0  0  0  0  0
    7.0154   -0.0972   -0.0131 C   0  0  2  0  0  0  0  0  0  0  0  0
    6.0195    2.1878   -0.4664 C   0  0  0  0  0  0  0  0  0  0  0  0
    7.1721    1.2271   -0.7725 C   0  0  1  0  0  0  0  0  0  0  0  0
   -3.9167   -0.2166   -1.1901 C   0  0  1  0  0  0  0  0  0  0  0  0
   -5.0258    0.3086   -2.1017 C   0  0  1  0  0  0  0  0  0  0  0  0
   -6.1867    0.9014   -1.2989 C   0  0  2  0  0  0  0  0  0  0  0  0
   -6.6436   -0.0878   -0.2141 C   0  0  1  0  0  0  0  0  0  0  0  0
   -5.4459   -0.5935    0.6117 C   0  0  1  0  0  0  0  0  0  0  0  0
   -1.7502    3.6205    1.9234 C   0  0  0  0  0  0  0  0  0  0  0  0
   -5.8294   -1.6947    1.5982 C   0  0  0  0  0  0  0  0  0  0  0  0
    1.0451    0.7388   -0.1046 H   0  0  0  0  0  0  0  0  0  0  0  0
   -0.5677   -1.6507    0.9985 H   0  0  0  0  0  0  0  0  0  0  0  0
    0.9092   -1.4252   -1.6587 H   0  0  0  0  0  0  0  0  0  0  0  0
    0.4882    1.8301    2.0191 H   0  0  0  0  0  0  0  0  0  0  0  0
    1.6237   -3.0278    0.8636 H   0  0  0  0  0  0  0  0  0  0  0  0
   -1.0371    2.1228    0.0495 H   0  0  0  0  0  0  0  0  0  0  0  0
    3.4435   -1.5768    1.2943 H   0  0  0  0  0  0  0  0  0  0  0  0
   -2.5677   -0.3255    1.0399 H   0  0  0  0  0  0  0  0  0  0  0  0
    4.4228    0.4536    1.0517 H   0  0  0  0  0  0  0  0  0  0  0  0
    4.5929    1.3567   -1.8615 H   0  0  0  0  0  0  0  0  0  0  0  0
    5.5949   -1.1539   -1.2865 H   0  0  0  0  0  0  0  0  0  0  0  0
    7.1697    0.0466    1.0634 H   0  0  0  0  0  0  0  0  0  0  0  0
    6.1391    3.1084   -1.0534 H   0  0  0  0  0  0  0  0  0  0  0  0
    6.0530    2.4830    0.5922 H   0  0  0  0  0  0  0  0  0  0  0  0
    7.2015    1.0286   -1.8518 H   0  0  0  0  0  0  0  0  0  0  0  0
   -3.1806    2.3086    1.3548 H   0  0  0  0  0  0  0  0  0  0  0  0
   -3.2234   -0.7678   -1.8367 H   0  0  0  0  0  0  0  0  0  0  0  0
    3.5939   -3.5270   -0.3296 H   0  0  0  0  0  0  0  0  0  0  0  0
    2.2765   -4.0102   -1.1666 H   0  0  0  0  0  0  0  0  0  0  0  0
   -5.4121   -0.5131   -2.7183 H   0  0  0  0  0  0  0  0  0  0  0  0
   -0.3280   -3.5547   -0.2281 H   0  0  0  0  0  0  0  0  0  0  0  0
   -1.1901   -0.4194    2.5430 H   0  0  0  0  0  0  0  0  0  0  0  0
   -5.8951    1.8673   -0.8689 H   0  0  0  0  0  0  0  0  0  0  0  0
   -7.1250   -0.9427   -0.7080 H   0  0  0  0  0  0  0  0  0  0  0  0
   -4.9899    0.2315    1.1750 H   0  0  0  0  0  0  0  0  0  0  0  0
    2.6963    2.0888   -0.7070 H   0  0  0  0  0  0  0  0  0  0  0  0
    3.7051    3.3461   -0.9497 H   0  0  0  0  0  0  0  0  0  0  0  0
    8.5676    2.7134   -0.9605 H   0  0  0  0  0  0  0  0  0  0  0  0
    9.2136    1.2473   -0.6458 H   0  0  0  0  0  0  0  0  0  0  0  0
    5.6553   -1.5423    1.5212 H   0  0  0  0  0  0  0  0  0  0  0  0
   -0.7745    3.6500    2.4167 H   0  0  0  0  0  0  0  0  0  0  0  0
   -2.4429    4.1834    2.5576 H   0  0  0  0  0  0  0  0  0  0  0  0
   -1.6848    4.1453    0.9644 H   0  0  0  0  0  0  0  0  0  0  0  0
    7.9109   -1.1349   -1.4179 H   0  0  0  0  0  0  0  0  0  0  0  0
   -6.5654   -1.3506    2.3299 H   0  0  0  0  0  0  0  0  0  0  0  0
   -6.2234   -2.5700    1.0712 H   0  0  0  0  0  0  0  0  0  0  0  0
   -8.0594   -0.1278    1.2678 H   0  0  0  0  0  0  0  0  0  0  0  0
   -8.4073    0.9100    0.0620 H   0  0  0  0  0  0  0  0  0  0  0  0
   -3.7596    0.8567   -3.4822 H   0  0  0  0  0  0  0  0  0  0  0  0
   -7.5474    0.2962   -2.5786 H   0  0  0  0  0  0  0  0  0  0  0  0
   -4.9295   -2.8023    2.9120 H   0  0  0  0  0  0  0  0  0  0  0  0
  1 18  1  0  0  0  0
  1 24  1  0  0  0  0
  2 19  1  0  0  0  0
  2 25  1  0  0  0  0
  3 24  1  0  0  0  0
  3 26  1  0  0  0  0
  4 25  1  0  0  0  0
  4 32  1  0  0  0  0
  5 20  1  0  0  0  0
  5 59  1  0  0  0  0
  6 21  1  0  0  0  0
  6 60  1  0  0  0  0
  7 32  1  0  0  0  0
  7 36  1  0  0  0  0
  8 28  1  0  0  0  0
  8 68  1  0  0  0  0
  9 29  1  0  0  0  0
  9 72  1  0  0  0  0
 10 33  1  0  0  0  0
 10 77  1  0  0  0  0
 11 34  1  0  0  0  0
 11 78  1  0  0  0  0
 12 38  1  0  0  0  0
 12 79  1  0  0  0  0
 13 23  1  0  0  0  0
 13 37  1  0  0  0  0
 13 54  1  0  0  0  0
 14 22  1  0  0  0  0
 14 56  1  0  0  0  0
 14 57  1  0  0  0  0
 15 27  1  0  0  0  0
 15 64  1  0  0  0  0
 15 65  1  0  0  0  0
 16 31  1  0  0  0  0
 16 66  1  0  0  0  0
 16 67  1  0  0  0  0
 17 35  1  0  0  0  0
 17 75  1  0  0  0  0
 17 76  1  0  0  0  0
 18 19  1  0  0  0  0
 18 21  1  0  0  0  0
 18 39  1  0  0  0  0
 19 20  1  0  0  0  0
 19 40  1  0  0  0  0
 20 22  1  0  0  0  0
 20 41  1  0  0  0  0
 21 23  1  0  0  0  0
 21 42  1  0  0  0  0
 22 24  1  0  0  0  0
 22 43  1  0  0  0  0
 23 25  1  0  0  0  0
 23 44  1  0  0  0  0
 24 45  1  0  0  0  0
 25 46  1  0  0  0  0
 26 27  1  0  0  0  0
 26 28  1  0  0  0  0
 26 47  1  0  0  0  0
 27 30  1  0  0  0  0
 27 48  1  0  0  0  0
 28 29  1  0  0  0  0
 28 49  1  0  0  0  0
 29 31  1  0  0  0  0
 29 50  1  0  0  0  0
 30 31  1  0  0  0  0
 30 51  1  0  0  0  0
 30 52  1  0  0  0  0
 31 53  1  0  0  0  0
 32 33  1  0  0  0  0
 32 55  1  0  0  0  0
 33 34  1  0  0  0  0
 33 58  1  0  0  0  0
 34 35  1  0  0  0  0
 34 61  1  0  0  0  0
 35 36  1  0  0  0  0
 35 62  1  0  0  0  0
 36 38  1  0  0  0  0
 36 63  1  0  0  0  0
 37 69  1  0  0  0  0
 37 70  1  0  0  0  0
 37 71  1  0  0  0  0
 38 73  1  0  0  0  0
 38 74  1  0  0  0  0
M  END
> <PUBCHEM_COMPOUND_CID>
21677481

> <PUBCHEM_CONFORMER_RMSD>
1

> <PUBCHEM_CONFORMER_DIVERSEORDER>
1
47
37
54
16
60
41
36
20
61
28
15
22
56
68
31
66
53
49
34
26
57
17
45
62
40
65
48
23
32
69
38
30
46
55
52
10
25
50
21
51
67
27
70
18
11
39
42
19
35
33
7
8
12
14
43
3
59
44
13
58
64
2
9
29
5
4
63
24
6

> <PUBCHEM_MMFF94_PARTIAL_CHARGES>
53
1 -0.56
10 -0.68
11 -0.68
12 -0.68
13 -0.9
14 -0.99
15 -0.99
16 -0.99
17 -0.99
18 0.28
19 0.28
2 -0.56
20 0.28
21 0.28
22 0.27
23 0.27
24 0.56
25 0.56
26 0.28
27 0.27
28 0.28
29 0.28
3 -0.56
31 0.27
32 0.56
33 0.28
34 0.28
35 0.27
36 0.28
37 0.27
38 0.28
4 -0.56
5 -0.68
54 0.36
56 0.36
57 0.36
59 0.4
6 -0.68
60 0.4
64 0.36
65 0.36
66 0.36
67 0.36
68 0.4
7 -0.56
72 0.4
75 0.36
76 0.36
77 0.4
78 0.4
79 0.4
8 -0.68
9 -0.68

> <PUBCHEM_EFFECTIVE_ROTOR_COUNT>
10

> <PUBCHEM_PHARMACOPHORE_FEATURES>
33
1 1 acceptor
1 10 acceptor
1 10 donor
1 11 acceptor
1 11 donor
1 12 acceptor
1 12 donor
1 13 cation
1 13 donor
1 14 cation
1 14 donor
1 15 cation
1 15 donor
1 16 cation
1 16 donor
1 17 cation
1 17 donor
1 2 acceptor
1 3 acceptor
1 4 acceptor
1 5 acceptor
1 5 donor
1 6 acceptor
1 6 donor
1 7 acceptor
1 8 acceptor
1 8 donor
1 9 acceptor
1 9 donor
6 1 18 19 20 22 24 rings
6 2 18 19 21 23 25 rings
6 26 27 28 29 30 31 rings
6 7 32 33 34 35 36 rings

> <PUBCHEM_HEAVY_ATOM_COUNT>
38

> <PUBCHEM_ATOM_DEF_STEREO_COUNT>
18

> <PUBCHEM_ATOM_UDEF_STEREO_COUNT>
0

> <PUBCHEM_BOND_DEF_STEREO_COUNT>
0

> <PUBCHEM_BOND_UDEF_STEREO_COUNT>
0

> <PUBCHEM_ISOTOPIC_ATOM_COUNT>
0

> <PUBCHEM_COMPONENT_COUNT>
1

> <PUBCHEM_CACTVS_TAUTO_COUNT>
1

> <PUBCHEM_CONFORMER_ID>
014AC5A900000001

> <PUBCHEM_MMFF94_ENERGY>
91.6807

> <PUBCHEM_FEATURE_SELFOVERLAP>
167.642

> <PUBCHEM_SHAPE_FINGERPRINT>
10010297 198 17242989497310887079
10835480 77 18201443610132895245
11135926 11 18260546736260296879
12107698 1 16877662349293024536
12788726 201 18040435524780232459
13540713 5 17752763799319867090
13726171 33 17487349364046921821
13811026 1 17917996070469654780
13911987 19 18334300864176507527
14068700 675 17385729088375428256
14118638 360 18113613539132787802
14251764 18 11815894565533034468
14294032 229 17168135784625271864
14705955 166 15554183531469779564
14767858 380 18113341916167430692
14840074 17 17603305964586670743
14856354 85 17967809410839032679
150020 25 18202282506749312879
15064981 194 18123452909670555012
15131766 46 17129285465630474084
15183329 4 16225764107906257726
15537594 2 17458348559051753343
16994733 274 17346325942058580229
19319366 153 18260557752714716294
20511986 3 14907638847560945463
21033648 29 15913041037031720624
21641784 216 18188202199525722817
21792961 116 18412265060358922363
21814621 53 17203048616249897939
23522609 53 17459169902526898337
2838139 119 17846225410507140940
4073 2 17561362876730613987
4098825 35 18201723998293235381
4258327 124 17559095602929983006
4353968 344 18187362195065835484
437815 12 13984663633339109043
5265222 85 17775291573583176067
6058803 2 17608930133338820107
6371009 1 18335422361963755248
77296 10 17561084738859122218

> <PUBCHEM_SHAPE_MULTIPOLES>
686.69
21.7
2.91
1.97
10.93
0.12
0.04
4.37
-7.1
1.61
0.57
-3.91
0.63
0.54

> <PUBCHEM_SHAPE_SELFOVERLAP>
1427.052

> <PUBCHEM_SHAPE_VOLUME>
383.4

> <PUBCHEM_COORDINATE_TYPE>
2
5
10

$$$$

