10540577
  -OEChem-07051213093D

 46 45  0     1  0  0  0  0  0999 V2000
    1.1914    2.6631    1.9262 O   0  0  0  0  0  0  0  0  0  0  0  0
   -1.1394    3.7860    0.9844 O   0  0  0  0  0  0  0  0  0  0  0  0
   -6.1650   -1.6530    0.4991 O   0  0  0  0  0  0  0  0  0  0  0  0
    2.5637    0.5662    0.5151 C   0  0  0  0  0  0  0  0  0  0  0  0
    1.7739    1.6774   -0.1880 C   0  0  0  0  0  0  0  0  0  0  0  0
    3.7120    0.0127   -0.3359 C   0  0  0  0  0  0  0  0  0  0  0  0
    0.6384    2.2213    0.6859 C   0  0  2  0  0  0  0  0  0  0  0  0
    4.5517   -1.0449    0.3846 C   0  0  0  0  0  0  0  0  0  0  0  0
   -0.1563    3.3676    0.0280 C   0  0  1  0  0  0  0  0  0  0  0  0
    5.7219   -1.5113   -0.4844 C   0  0  0  0  0  0  0  0  0  0  0  0
    6.5818   -2.5402    0.2491 C   0  0  0  0  0  0  0  0  0  0  0  0
   -0.8896    3.0181   -1.2758 C   0  0  0  0  0  0  0  0  0  0  0  0
    7.7266   -3.0319   -0.6220 C   0  0  0  0  0  0  0  0  0  0  0  0
   -1.7996    1.8755   -1.1232 C   0  0  0  0  0  0  0  0  0  0  0  0
   -2.5529    0.9515   -0.9813 C   0  0  0  0  0  0  0  0  0  0  0  0
   -3.4254   -0.0893   -0.7892 C   0  0  0  0  0  0  0  0  0  0  0  0
   -4.1945   -0.9931   -0.6061 C   0  0  0  0  0  0  0  0  0  0  0  0
   -5.1353   -2.0970   -0.3775 C   0  0  1  0  0  0  0  0  0  0  0  0
   -4.3936   -3.2869    0.1681 C   0  0  0  0  0  0  0  0  0  0  0  0
   -4.6098   -3.8919    1.3427 C   0  0  0  0  0  0  0  0  0  0  0  0
    1.8835   -0.2536    0.7770 H   0  0  0  0  0  0  0  0  0  0  0  0
    2.9809    0.9461    1.4554 H   0  0  0  0  0  0  0  0  0  0  0  0
    1.3754    1.2909   -1.1322 H   0  0  0  0  0  0  0  0  0  0  0  0
    2.4657    2.4935   -0.4311 H   0  0  0  0  0  0  0  0  0  0  0  0
    3.3016   -0.4155   -1.2587 H   0  0  0  0  0  0  0  0  0  0  0  0
    4.3627    0.8439   -0.6352 H   0  0  0  0  0  0  0  0  0  0  0  0
   -0.0389    1.3976    0.9424 H   0  0  0  0  0  0  0  0  0  0  0  0
    4.9359   -0.6278    1.3233 H   0  0  0  0  0  0  0  0  0  0  0  0
    3.9176   -1.9005    0.6460 H   0  0  0  0  0  0  0  0  0  0  0  0
    0.5002    4.2284   -0.1468 H   0  0  0  0  0  0  0  0  0  0  0  0
    5.3362   -1.9474   -1.4140 H   0  0  0  0  0  0  0  0  0  0  0  0
    6.3409   -0.6501   -0.7638 H   0  0  0  0  0  0  0  0  0  0  0  0
    5.9653   -3.3961    0.5474 H   0  0  0  0  0  0  0  0  0  0  0  0
    6.9899   -2.0990    1.1658 H   0  0  0  0  0  0  0  0  0  0  0  0
   -0.1643    2.8118   -2.0700 H   0  0  0  0  0  0  0  0  0  0  0  0
   -1.4779    3.8867   -1.5964 H   0  0  0  0  0  0  0  0  0  0  0  0
    0.4537    2.8061    2.5429 H   0  0  0  0  0  0  0  0  0  0  0  0
    7.3501   -3.5096   -1.5322 H   0  0  0  0  0  0  0  0  0  0  0  0
    8.3289   -3.7659   -0.0776 H   0  0  0  0  0  0  0  0  0  0  0  0
    8.3812   -2.2043   -0.9135 H   0  0  0  0  0  0  0  0  0  0  0  0
   -0.6722    4.2460    1.7022 H   0  0  0  0  0  0  0  0  0  0  0  0
   -5.6068   -2.3761   -1.3265 H   0  0  0  0  0  0  0  0  0  0  0  0
   -3.6180   -3.7049   -0.4722 H   0  0  0  0  0  0  0  0  0  0  0  0
   -6.8545   -2.3389    0.5145 H   0  0  0  0  0  0  0  0  0  0  0  0
   -4.0170   -4.7543    1.6289 H   0  0  0  0  0  0  0  0  0  0  0  0
   -5.3665   -3.5499    2.0390 H   0  0  0  0  0  0  0  0  0  0  0  0
  1  7  1  0  0  0  0
  1 37  1  0  0  0  0
  2  9  1  0  0  0  0
  2 41  1  0  0  0  0
  3 18  1  0  0  0  0
  3 44  1  0  0  0  0
  4  5  1  0  0  0  0
  4  6  1  0  0  0  0
  4 21  1  0  0  0  0
  4 22  1  0  0  0  0
  5  7  1  0  0  0  0
  5 23  1  0  0  0  0
  5 24  1  0  0  0  0
  6  8  1  0  0  0  0
  6 25  1  0  0  0  0
  6 26  1  0  0  0  0
  7  9  1  0  0  0  0
  7 27  1  0  0  0  0
  8 10  1  0  0  0  0
  8 28  1  0  0  0  0
  8 29  1  0  0  0  0
  9 12  1  0  0  0  0
  9 30  1  0  0  0  0
 10 11  1  0  0  0  0
 10 31  1  0  0  0  0
 10 32  1  0  0  0  0
 11 13  1  0  0  0  0
 11 33  1  0  0  0  0
 11 34  1  0  0  0  0
 12 14  1  0  0  0  0
 12 35  1  0  0  0  0
 12 36  1  0  0  0  0
 13 38  1  0  0  0  0
 13 39  1  0  0  0  0
 13 40  1  0  0  0  0
 14 15  3  0  0  0  0
 15 16  1  0  0  0  0
 16 17  3  0  0  0  0
 17 18  1  0  0  0  0
 18 19  1  0  0  0  0
 18 42  1  0  0  0  0
 19 20  2  0  0  0  0
 19 43  1  0  0  0  0
 20 45  1  0  0  0  0
 20 46  1  0  0  0  0
M  END
> <PUBCHEM_COMPOUND_CID>
10540577

> <PUBCHEM_CONFORMER_RMSD>
0.8

> <PUBCHEM_CONFORMER_DIVERSEORDER>
2
64
335
206
256
334
195
217
230
6
4
46
327
17
237
283
344
297
61
162
138
287
157
172
144
293
156
31
273
228
315
202
155
153
19
271
59
23
137
84
16
251
55
140
44
181
290
274
203
214
15
127
97
63
314
20
238
339
174
224
122
341
93
1
57
305
104
270
239
207
223
205
28
349
89
98
257
151
211
337
190
86
110
333
285
265
242
321
296
308
72
169
24
74
165
204
76
326
200
306
300
22
209
197
67
81
240
52
227
71
80
289
34
191
316
282
159
196
255
170
201
263
85
322
49
246
276
311
249
279
163
30
78
188
198
247
148
266
121
298
56
3
120
343
330
27
41
258
126
317
346
10
11
58
119
130
225
66
131
244
185
229
248
51
219
320
123
281
109
294
338
218
288
220
284
73
250
135
9
302
180
235
164
345
226
243
102
348
194
136
260
65
142
192
299
125
336
147
13
252
7
175
124
286
253
69
54
5
149
35
275
291
160
303
236
268
264
145
26
77
319
107
40
213
106
21
68
332
117
193
96
318
269
161
325
12
292
261
146
254
132
82
342
37
91
272
150
60
208
295
215
233
307
262
70
312
111
18
103
267
14
8
45
222
301
141
277
87
90
331
171
39
128
304
133
101
50
310
29
108
25
183
114
328
62
129
309
184
245
83
143
48
152
88
187
33
173
323
116
241
182
79
168
42
176
139
340
167
92
112
324
347
99
38
179
259
113
189
313
166
186
278
36
75
329
43
95
212
47
221
199
216
154
115
234
118
94
134
178
105
177
100
32
232
158
280
53
210
231

> <PUBCHEM_MMFF94_PARTIAL_CHARGES>
17
1 -0.68
12 0.2
14 -0.2
17 -0.2
18 0.62
19 -0.29
2 -0.68
20 -0.3
3 -0.68
37 0.4
41 0.4
43 0.15
44 0.4
45 0.15
46 0.15
7 0.28
9 0.28

> <PUBCHEM_EFFECTIVE_ROTOR_COUNT>
9

> <PUBCHEM_PHARMACOPHORE_FEATURES>
10
1 1 acceptor
1 1 donor
1 13 hydrophobe
1 2 acceptor
1 2 donor
1 20 hydrophobe
1 3 acceptor
1 3 donor
3 4 5 6 hydrophobe
3 8 10 11 hydrophobe

> <PUBCHEM_HEAVY_ATOM_COUNT>
20

> <PUBCHEM_ATOM_DEF_STEREO_COUNT>
3

> <PUBCHEM_ATOM_UDEF_STEREO_COUNT>
0

> <PUBCHEM_BOND_DEF_STEREO_COUNT>
0

> <PUBCHEM_BOND_UDEF_STEREO_COUNT>
0

> <PUBCHEM_ISOTOPIC_ATOM_COUNT>
0

> <PUBCHEM_COMPONENT_COUNT>
1

> <PUBCHEM_CACTVS_TAUTO_COUNT>
1

> <PUBCHEM_CONFORMER_ID>
00A0D62100000002

> <PUBCHEM_MMFF94_ENERGY>
12.4829

> <PUBCHEM_FEATURE_SELFOVERLAP>
50.766

> <PUBCHEM_SHAPE_FINGERPRINT>
117089 54 18341325600416048827
11756154 5 18411709785628584158
11809386 21 18196660803139826554
12633257 1 16588864547652322261
12760667 363 18261966240147162709
13533116 47 17905327330797816363
13631057 29 18339928229212070958
13911852 28 18336272228268668423
14251731 5 18411143502300071117
14251740 57 17838899240241136691
14251740 79 18201155572156194210
14251764 30 18411981343034710862
14420673 8 18412824681987177663
14866123 147 18337951290289094953
17859628 70 17835521527366720493
20621476 21 18408324415001208422
20621476 30 18192995048743043142
20775530 9 18341907285274472627
21054139 6 18058167405622900730
21095086 4 18342450413791091811
21196832 93 18341889680858083038
21307412 95 18341628027028323943
229767 8 18056469552794520195
23379529 103 18341615871442706782
23466295 7 18410293657068756217
270888 7 9223234048193183839
3421961 26 18192716648477599913
4107672 100 17631455734264366061
484985 159 18266459982935364737
5047190 19 18338790247868790590
5486654 36 18260829323617654497
7970288 3 18411702084293143566
8217 86 18411700989571894276
9980921 52 17610354744802988911

> <PUBCHEM_SHAPE_MULTIPOLES>
393.98
17.12
5.85
1.23
21.62
0.03
0.26
-29.6
-1.57
-3.36
1.46
-0.46
0.54
2.49

> <PUBCHEM_SHAPE_SELFOVERLAP>
744.541

> <PUBCHEM_SHAPE_VOLUME>
241.3

> <PUBCHEM_COORDINATE_TYPE>
2
5
10

$$$$

