442086
  -OEChem-07051212573D

 82 87  0     1  0  0  0  0  0999 V2000
   -0.3683    1.2034   -1.6979 O   0  0  0  0  0  0  0  0  0  0  0  0
   -0.2063   -0.6605    0.9193 O   0  0  0  0  0  0  0  0  0  0  0  0
    0.0898   -1.9724   -1.0257 O   0  0  0  0  0  0  0  0  0  0  0  0
   -0.5518   -3.0131    0.8933 O   0  0  0  0  0  0  0  0  0  0  0  0
   -3.9454    1.2538   -0.0336 O   0  0  0  0  0  0  0  0  0  0  0  0
   -3.4301    3.2807   -1.7593 O   0  0  0  0  0  0  0  0  0  0  0  0
   -2.6956    2.0147   -4.2491 O   0  0  0  0  0  0  0  0  0  0  0  0
   -3.9582    3.9572    1.0336 O   0  0  0  0  0  0  0  0  0  0  0  0
   -1.8784   -0.6477   -0.9046 C   0  0  1  0  0  0  0  0  0  0  0  0
   -1.5808   -0.2880    0.5978 C   0  0  2  0  0  0  0  0  0  0  0  0
   -1.3769    0.2500   -2.0088 C   0  0  1  0  0  0  0  0  0  0  0  0
   -1.6374    1.7395   -2.1379 C   0  0  1  0  0  0  0  0  0  0  0  0
   -1.3372   -2.0793   -1.1367 C   0  0  2  0  0  0  0  0  0  0  0  0
   -1.6381    1.2468    0.8708 C   0  0  1  0  0  0  0  0  0  0  0  0
   -2.5850   -1.1469    1.4856 C   0  0  1  0  0  0  0  0  0  0  0  0
   -1.6965   -3.0423    0.0172 C   0  0  2  0  0  0  0  0  0  0  0  0
   -2.7655    2.0197    0.1574 C   0  0  1  0  0  0  0  0  0  0  0  0
   -2.2897    2.6616   -1.1469 C   0  0  2  0  0  0  0  0  0  0  0  0
   -2.8846   -2.5336    0.8344 C   0  0  0  0  0  0  0  0  0  0  0  0
    0.2267   -1.9281    0.3924 C   0  0  2  0  0  0  0  0  0  0  0  0
   -1.5124    2.3009   -3.5231 C   0  0  0  0  0  0  0  0  0  0  0  0
   -1.7219    1.7246    2.2945 C   0  0  0  0  0  0  0  0  0  0  0  0
   -2.1587   -1.3651    2.9492 C   0  0  0  0  0  0  0  0  0  0  0  0
   -3.1786    3.0315    1.2085 C   0  0  0  0  0  0  0  0  0  0  0  0
   -1.8786   -4.4506   -0.4519 C   0  0  0  0  0  0  0  0  0  0  0  0
    1.6796   -2.1305    0.7734 C   0  0  0  0  0  0  0  0  0  0  0  0
   -2.5645    2.7364    2.5138 C   0  0  0  0  0  0  0  0  0  0  0  0
    2.5760   -1.0451    0.1706 C   0  0  0  0  0  0  0  0  0  0  0  0
   -3.0651   -4.7060   -1.3334 C   0  0  0  0  0  0  0  0  0  0  0  0
   -1.0301   -5.4294   -0.1040 C   0  0  0  0  0  0  0  0  0  0  0  0
   -2.8436    3.4915    3.7530 C   0  0  0  0  0  0  0  0  0  0  0  0
    4.0591   -1.2142    0.5161 C   0  0  0  0  0  0  0  0  0  0  0  0
    4.9389   -0.0851   -0.0269 C   0  0  0  0  0  0  0  0  0  0  0  0
    6.4126   -0.2224    0.3691 C   0  0  0  0  0  0  0  0  0  0  0  0
    7.2987    0.8911   -0.1938 C   0  0  0  0  0  0  0  0  0  0  0  0
    8.7595    0.6994    0.2203 C   0  0  0  0  0  0  0  0  0  0  0  0
    9.6404    1.8310   -0.3087 C   0  0  0  0  0  0  0  0  0  0  0  0
   11.0982    1.6266    0.0721 C   0  0  0  0  0  0  0  0  0  0  0  0
   -2.9637   -0.6863   -1.0570 H   0  0  0  0  0  0  0  0  0  0  0  0
   -1.2938   -0.2896   -2.9479 H   0  0  0  0  0  0  0  0  0  0  0  0
   -1.5897   -2.4398   -2.1379 H   0  0  0  0  0  0  0  0  0  0  0  0
   -0.6676    1.6669    0.5670 H   0  0  0  0  0  0  0  0  0  0  0  0
   -3.5544   -0.6444    1.5348 H   0  0  0  0  0  0  0  0  0  0  0  0
   -1.5807    3.4699   -0.9238 H   0  0  0  0  0  0  0  0  0  0  0  0
   -3.1592   -3.2611    1.6090 H   0  0  0  0  0  0  0  0  0  0  0  0
   -3.7696   -2.4323    0.1923 H   0  0  0  0  0  0  0  0  0  0  0  0
   -1.3596    3.3856   -3.5029 H   0  0  0  0  0  0  0  0  0  0  0  0
   -0.6693    1.8594   -4.0672 H   0  0  0  0  0  0  0  0  0  0  0  0
   -1.0658    1.3399    3.0649 H   0  0  0  0  0  0  0  0  0  0  0  0
   -1.1360   -1.7390    3.0416 H   0  0  0  0  0  0  0  0  0  0  0  0
   -2.2410   -0.4524    3.5398 H   0  0  0  0  0  0  0  0  0  0  0  0
   -2.8181   -2.0894    3.4414 H   0  0  0  0  0  0  0  0  0  0  0  0
    2.0216   -3.1140    0.4276 H   0  0  0  0  0  0  0  0  0  0  0  0
    1.7820   -2.1251    1.8657 H   0  0  0  0  0  0  0  0  0  0  0  0
   -4.3241    1.0276    0.8317 H   0  0  0  0  0  0  0  0  0  0  0  0
   -3.7312    3.9947   -1.1724 H   0  0  0  0  0  0  0  0  0  0  0  0
    2.4731   -1.0396   -0.9213 H   0  0  0  0  0  0  0  0  0  0  0  0
    2.2467   -0.0598    0.5229 H   0  0  0  0  0  0  0  0  0  0  0  0
   -3.0837   -5.7417   -1.6914 H   0  0  0  0  0  0  0  0  0  0  0  0
   -3.0609   -4.0655   -2.2191 H   0  0  0  0  0  0  0  0  0  0  0  0
   -3.9997   -4.5414   -0.7886 H   0  0  0  0  0  0  0  0  0  0  0  0
   -2.5854    2.3936   -5.1378 H   0  0  0  0  0  0  0  0  0  0  0  0
   -0.1624   -5.2817    0.5278 H   0  0  0  0  0  0  0  0  0  0  0  0
   -1.1867   -6.4441   -0.4585 H   0  0  0  0  0  0  0  0  0  0  0  0
   -2.6124    4.5526    3.6173 H   0  0  0  0  0  0  0  0  0  0  0  0
   -2.2444    3.1206    4.5908 H   0  0  0  0  0  0  0  0  0  0  0  0
   -3.8992    3.3997    4.0271 H   0  0  0  0  0  0  0  0  0  0  0  0
    4.1683   -1.2590    1.6068 H   0  0  0  0  0  0  0  0  0  0  0  0
    4.4152   -2.1739    0.1220 H   0  0  0  0  0  0  0  0  0  0  0  0
    4.8586   -0.0619   -1.1206 H   0  0  0  0  0  0  0  0  0  0  0  0
    4.5595    0.8769    0.3392 H   0  0  0  0  0  0  0  0  0  0  0  0
    6.7868   -1.1927    0.0193 H   0  0  0  0  0  0  0  0  0  0  0  0
    6.4899   -0.2292    1.4634 H   0  0  0  0  0  0  0  0  0  0  0  0
    6.9365    1.8617    0.1660 H   0  0  0  0  0  0  0  0  0  0  0  0
    7.2238    0.9025   -1.2878 H   0  0  0  0  0  0  0  0  0  0  0  0
    8.8309    0.6610    1.3141 H   0  0  0  0  0  0  0  0  0  0  0  0
    9.1249   -0.2618   -0.1613 H   0  0  0  0  0  0  0  0  0  0  0  0
    9.5597    1.8866   -1.4005 H   0  0  0  0  0  0  0  0  0  0  0  0
    9.2941    2.7909    0.0918 H   0  0  0  0  0  0  0  0  0  0  0  0
   11.4846    0.6901   -0.3426 H   0  0  0  0  0  0  0  0  0  0  0  0
   11.2189    1.5967    1.1597 H   0  0  0  0  0  0  0  0  0  0  0  0
   11.7097    2.4474   -0.3152 H   0  0  0  0  0  0  0  0  0  0  0  0
  1 11  1  0  0  0  0
  1 12  1  0  0  0  0
  2 10  1  0  0  0  0
  2 20  1  0  0  0  0
  3 13  1  0  0  0  0
  3 20  1  0  0  0  0
  4 16  1  0  0  0  0
  4 20  1  0  0  0  0
  5 17  1  0  0  0  0
  5 55  1  0  0  0  0
  6 18  1  0  0  0  0
  6 56  1  0  0  0  0
  7 21  1  0  0  0  0
  7 62  1  0  0  0  0
  8 24  2  0  0  0  0
  9 10  1  0  0  0  0
  9 11  1  0  0  0  0
  9 13  1  0  0  0  0
  9 39  1  0  0  0  0
 10 14  1  0  0  0  0
 10 15  1  0  0  0  0
 11 12  1  0  0  0  0
 11 40  1  0  0  0  0
 12 18  1  0  0  0  0
 12 21  1  0  0  0  0
 13 16  1  0  0  0  0
 13 41  1  0  0  0  0
 14 17  1  0  0  0  0
 14 22  1  0  0  0  0
 14 42  1  0  0  0  0
 15 19  1  0  0  0  0
 15 23  1  0  0  0  0
 15 43  1  0  0  0  0
 16 19  1  0  0  0  0
 16 25  1  0  0  0  0
 17 18  1  0  0  0  0
 17 24  1  0  0  0  0
 18 44  1  0  0  0  0
 19 45  1  0  0  0  0
 19 46  1  0  0  0  0
 20 26  1  0  0  0  0
 21 47  1  0  0  0  0
 21 48  1  0  0  0  0
 22 27  2  0  0  0  0
 22 49  1  0  0  0  0
 23 50  1  0  0  0  0
 23 51  1  0  0  0  0
 23 52  1  0  0  0  0
 24 27  1  0  0  0  0
 25 29  1  0  0  0  0
 25 30  2  0  0  0  0
 26 28  1  0  0  0  0
 26 53  1  0  0  0  0
 26 54  1  0  0  0  0
 27 31  1  0  0  0  0
 28 32  1  0  0  0  0
 28 57  1  0  0  0  0
 28 58  1  0  0  0  0
 29 59  1  0  0  0  0
 29 60  1  0  0  0  0
 29 61  1  0  0  0  0
 30 63  1  0  0  0  0
 30 64  1  0  0  0  0
 31 65  1  0  0  0  0
 31 66  1  0  0  0  0
 31 67  1  0  0  0  0
 32 33  1  0  0  0  0
 32 68  1  0  0  0  0
 32 69  1  0  0  0  0
 33 34  1  0  0  0  0
 33 70  1  0  0  0  0
 33 71  1  0  0  0  0
 34 35  1  0  0  0  0
 34 72  1  0  0  0  0
 34 73  1  0  0  0  0
 35 36  1  0  0  0  0
 35 74  1  0  0  0  0
 35 75  1  0  0  0  0
 36 37  1  0  0  0  0
 36 76  1  0  0  0  0
 36 77  1  0  0  0  0
 37 38  1  0  0  0  0
 37 78  1  0  0  0  0
 37 79  1  0  0  0  0
 38 80  1  0  0  0  0
 38 81  1  0  0  0  0
 38 82  1  0  0  0  0
M  END
> <PUBCHEM_COMPOUND_CID>
442086

> <PUBCHEM_CONFORMER_RMSD>
1.2

> <PUBCHEM_CONFORMER_DIVERSEORDER>
2
24
17
12
21
20
13
1
16
14
4
23
22
18
3
19
8
15
11
10
6
9
7
5

> <PUBCHEM_MMFF94_PARTIAL_CHARGES>
33
1 -0.3
10 0.28
11 -0.05
12 -0.04
13 0.28
14 0.14
16 0.42
17 0.34
18 0.38
2 -0.56
20 0.84
21 0.38
22 -0.29
24 0.49
25 -0.28
27 -0.12
29 0.14
3 -0.56
30 -0.3
31 0.14
4 -0.56
40 0.1
49 0.15
5 -0.68
55 0.4
56 0.4
6 -0.68
62 0.4
63 0.15
64 0.15
7 -0.68
8 -0.57
9 0.09

> <PUBCHEM_EFFECTIVE_ROTOR_COUNT>
11.4

> <PUBCHEM_PHARMACOPHORE_FEATURES>
15
1 1 acceptor
1 2 acceptor
1 3 acceptor
1 38 hydrophobe
1 4 acceptor
1 5 acceptor
1 5 donor
1 6 acceptor
1 6 donor
1 7 acceptor
1 7 donor
1 8 acceptor
10 2 3 4 9 10 13 15 16 19 20 rings
5 14 17 22 24 27 rings
7 9 10 11 12 14 17 18 rings

> <PUBCHEM_HEAVY_ATOM_COUNT>
38

> <PUBCHEM_ATOM_DEF_STEREO_COUNT>
10

> <PUBCHEM_ATOM_UDEF_STEREO_COUNT>
1

> <PUBCHEM_BOND_DEF_STEREO_COUNT>
0

> <PUBCHEM_BOND_UDEF_STEREO_COUNT>
0

> <PUBCHEM_ISOTOPIC_ATOM_COUNT>
0

> <PUBCHEM_COMPONENT_COUNT>
1

> <PUBCHEM_CACTVS_TAUTO_COUNT>
3

> <PUBCHEM_CONFORMER_ID>
0006BEE600000002

> <PUBCHEM_MMFF94_ENERGY>
111.0618

> <PUBCHEM_FEATURE_SELFOVERLAP>
76.3

> <PUBCHEM_SHAPE_FINGERPRINT>
10930396 42 18262510390812730850
11434127 23 18040715832375541550
11582403 64 15837081443682834167
12047536 79 8465894060778216656
12082328 90 17895468139117996838
14068700 675 18123470484207498286
14118638 360 18343027649918530530
14142880 1 18272083928923753475
14747282 140 18340200890785119580
15264996 74 18130244665735394222
15324884 4 16908589640208346977
15328684 2 18058470759489793192
15513586 35 17700674187526740988
16114785 44 18410851070851745667
16992828 155 17917440860490744660
17686467 74 17982735174302097496
17980427 26 17539121070960845991
19304152 47 17203609324536325996
19309040 13 17460022101622258740
20771845 35 12390360709740033118
20771845 65 17612024876762902099
21927370 108 17773589413092156722
23523766 6 17401772921720268558
3552219 110 18196078950487034522
376196 1 16409034227871043852
469060 322 17489295387003295595
6677587 24 16333911156886726655

> <PUBCHEM_SHAPE_MULTIPOLES>
735.07
16.5
6.18
3.04
91.71
4.62
1.26
-12.49
-0.88
-10.38
-0.46
-5.18
-3.71
-1.13

> <PUBCHEM_SHAPE_SELFOVERLAP>
1576.683

> <PUBCHEM_SHAPE_VOLUME>
399.9

> <PUBCHEM_COORDINATE_TYPE>
2
5
10

$$$$

