4636
  -OEChem-07051212532D

 43 44  0     0  0  0  0  0  0999 V2000
    2.5369    1.4547    0.0000 O   0  0  0  0  0  0  0  0  0  0  0  0
    5.2395   -3.0398    0.0000 N   0  0  0  0  0  0  0  0  0  0  0  0
    6.0486   -1.6386    0.0000 N   0  0  0  0  0  0  0  0  0  0  0  0
    4.2690    2.4547    0.0000 C   0  0  0  0  0  0  0  0  0  0  0  0
    4.2690    1.4547    0.0000 C   0  0  0  0  0  0  0  0  0  0  0  0
    4.2690   -0.5453    0.0000 C   0  0  0  0  0  0  0  0  0  0  0  0
    3.4030    0.9547    0.0000 C   0  0  0  0  0  0  0  0  0  0  0  0
    3.4030   -0.0453    0.0000 C   0  0  0  0  0  0  0  0  0  0  0  0
    5.1350   -0.0453    0.0000 C   0  0  0  0  0  0  0  0  0  0  0  0
    5.1350    0.9547    0.0000 C   0  0  0  0  0  0  0  0  0  0  0  0
    4.2690    3.4547    0.0000 C   0  0  0  0  0  0  0  0  0  0  0  0
    5.2690    2.4547    0.0000 C   0  0  0  0  0  0  0  0  0  0  0  0
    3.2690    2.4547    0.0000 C   0  0  0  0  0  0  0  0  0  0  0  0
    4.2690   -1.5453    0.0000 C   0  0  0  0  0  0  0  0  0  0  0  0
    5.1350   -2.0453    0.0000 C   0  0  0  0  0  0  0  0  0  0  0  0
    2.5369   -0.5453    0.0000 C   0  0  0  0  0  0  0  0  0  0  0  0
    6.0010   -0.5453    0.0000 C   0  0  0  0  0  0  0  0  0  0  0  0
    6.2177   -3.2477    0.0000 C   0  0  0  0  0  0  0  0  0  0  0  0
    6.7177   -2.3817    0.0000 C   0  0  0  0  0  0  0  0  0  0  0  0
    5.6720    1.2647    0.0000 H   0  0  0  0  0  0  0  0  0  0  0  0
    4.8890    3.4547    0.0000 H   0  0  0  0  0  0  0  0  0  0  0  0
    4.2690    4.0747    0.0000 H   0  0  0  0  0  0  0  0  0  0  0  0
    3.6490    3.4547    0.0000 H   0  0  0  0  0  0  0  0  0  0  0  0
    5.2690    1.8347    0.0000 H   0  0  0  0  0  0  0  0  0  0  0  0
    5.8890    2.4547    0.0000 H   0  0  0  0  0  0  0  0  0  0  0  0
    5.2690    3.0747    0.0000 H   0  0  0  0  0  0  0  0  0  0  0  0
    3.2690    3.0747    0.0000 H   0  0  0  0  0  0  0  0  0  0  0  0
    2.6490    2.4547    0.0000 H   0  0  0  0  0  0  0  0  0  0  0  0
    3.2690    1.8347    0.0000 H   0  0  0  0  0  0  0  0  0  0  0  0
    3.6584   -1.4377    0.0000 H   0  0  0  0  0  0  0  0  0  0  0  0
    4.0569   -2.1279    0.0000 H   0  0  0  0  0  0  0  0  0  0  0  0
    2.2269   -0.0084    0.0000 H   0  0  0  0  0  0  0  0  0  0  0  0
    2.0000   -0.8553    0.0000 H   0  0  0  0  0  0  0  0  0  0  0  0
    2.8469   -1.0822    0.0000 H   0  0  0  0  0  0  0  0  0  0  0  0
    5.6910   -1.0822    0.0000 H   0  0  0  0  0  0  0  0  0  0  0  0
    6.5380   -0.8553    0.0000 H   0  0  0  0  0  0  0  0  0  0  0  0
    6.3110   -0.0084    0.0000 H   0  0  0  0  0  0  0  0  0  0  0  0
    6.0261   -3.8374    0.0000 H   0  0  0  0  0  0  0  0  0  0  0  0
    6.7841   -3.4999    0.0000 H   0  0  0  0  0  0  0  0  0  0  0  0
    4.7788   -3.4547    0.0000 H   0  0  0  0  0  0  0  0  0  0  0  0
    7.2193   -2.7461    0.0000 H   0  0  0  0  0  0  0  0  0  0  0  0
    7.1326   -1.9210    0.0000 H   0  0  0  0  0  0  0  0  0  0  0  0
    2.0000    1.1447    0.0000 H   0  0  0  0  0  0  0  0  0  0  0  0
  1  7  1  0  0  0  0
  1 43  1  0  0  0  0
  2 15  1  0  0  0  0
  2 18  1  0  0  0  0
  2 40  1  0  0  0  0
  3 15  2  0  0  0  0
  3 19  1  0  0  0  0
  4  5  1  0  0  0  0
  4 11  1  0  0  0  0
  4 12  1  0  0  0  0
  4 13  1  0  0  0  0
  5  7  2  0  0  0  0
  5 10  1  0  0  0  0
  6  8  2  0  0  0  0
  6  9  1  0  0  0  0
  6 14  1  0  0  0  0
  7  8  1  0  0  0  0
  8 16  1  0  0  0  0
  9 10  2  0  0  0  0
  9 17  1  0  0  0  0
 10 20  1  0  0  0  0
 11 21  1  0  0  0  0
 11 22  1  0  0  0  0
 11 23  1  0  0  0  0
 12 24  1  0  0  0  0
 12 25  1  0  0  0  0
 12 26  1  0  0  0  0
 13 27  1  0  0  0  0
 13 28  1  0  0  0  0
 13 29  1  0  0  0  0
 14 15  1  0  0  0  0
 14 30  1  0  0  0  0
 14 31  1  0  0  0  0
 16 32  1  0  0  0  0
 16 33  1  0  0  0  0
 16 34  1  0  0  0  0
 17 35  1  0  0  0  0
 17 36  1  0  0  0  0
 17 37  1  0  0  0  0
 18 19  1  0  0  0  0
 18 38  1  0  0  0  0
 18 39  1  0  0  0  0
 19 41  1  0  0  0  0
 19 42  1  0  0  0  0
M  END
> <PUBCHEM_COMPOUND_CID>
4636

> <PUBCHEM_COMPOUND_CANONICALIZED>
1

> <PUBCHEM_CACTVS_COMPLEXITY>
345

> <PUBCHEM_CACTVS_HBOND_ACCEPTOR>
2

> <PUBCHEM_CACTVS_HBOND_DONOR>
2

> <PUBCHEM_CACTVS_ROTATABLE_BOND>
3

> <PUBCHEM_CACTVS_SUBSKEYS>
AAADceB7IAAAAAAAAAAAAAAAAAAAAQAAAAAwAAAAAAAAAAABAAAAHgAQCAAADgTBmAQzBoLAAgCgAiJiJAACAAEgIAABiIA8CIgIZiKCmROUcAAk0BGImAeQ0PIP4AADAAAYAADAAAYAADAAAAAAAAAAAA==

> <PUBCHEM_IUPAC_OPENEYE_NAME>
6-tert-butyl-3-(4,5-dihydro-1H-imidazol-2-ylmethyl)-2,4-dimethyl-phenol

> <PUBCHEM_IUPAC_CAS_NAME>
6-tert-butyl-3-(4,5-dihydro-1H-imidazol-2-ylmethyl)-2,4-dimethylphenol

> <PUBCHEM_IUPAC_NAME>
6-tert-butyl-3-(4,5-dihydro-1H-imidazol-2-ylmethyl)-2,4-dimethylphenol

> <PUBCHEM_IUPAC_SYSTEMATIC_NAME>
6-tert-butyl-3-(4,5-dihydro-1H-imidazol-2-ylmethyl)-2,4-dimethyl-phenol

> <PUBCHEM_IUPAC_TRADITIONAL_NAME>
6-tert-butyl-3-(2-imidazolin-2-ylmethyl)-2,4-dimethyl-phenol

> <PUBCHEM_IUPAC_INCHI>
InChI=1S/C16H24N2O/c1-10-8-13(16(3,4)5)15(19)11(2)12(10)9-14-17-6-7-18-14/h8,19H,6-7,9H2,1-5H3,(H,17,18)

> <PUBCHEM_IUPAC_INCHIKEY>
WYWIFABBXFUGLM-UHFFFAOYSA-N

> <PUBCHEM_XLOGP3_AA>
2.9

> <PUBCHEM_EXACT_MASS>
260.188863

> <PUBCHEM_MOLECULAR_FORMULA>
C16H24N2O

> <PUBCHEM_MOLECULAR_WEIGHT>
260.37456

> <PUBCHEM_OPENEYE_CAN_SMILES>
CC1=CC(=C(C(=C1CC2=NCCN2)C)O)C(C)(C)C

> <PUBCHEM_OPENEYE_ISO_SMILES>
CC1=CC(=C(C(=C1CC2=NCCN2)C)O)C(C)(C)C

> <PUBCHEM_CACTVS_TPSA>
44.6

> <PUBCHEM_MONOISOTOPIC_WEIGHT>
260.188863

> <PUBCHEM_TOTAL_CHARGE>
0

> <PUBCHEM_HEAVY_ATOM_COUNT>
19

> <PUBCHEM_ATOM_DEF_STEREO_COUNT>
0

> <PUBCHEM_ATOM_UDEF_STEREO_COUNT>
0

> <PUBCHEM_BOND_DEF_STEREO_COUNT>
0

> <PUBCHEM_BOND_UDEF_STEREO_COUNT>
0

> <PUBCHEM_ISOTOPIC_ATOM_COUNT>
0

> <PUBCHEM_COMPONENT_COUNT>
1

> <PUBCHEM_CACTVS_TAUTO_COUNT>
13

> <PUBCHEM_COORDINATE_TYPE>
1
5
255

> <PUBCHEM_BONDANNOTATIONS>
5  10  8
5  7  8
6  8  8
6  9  8
7  8  8
9  10  8

$$$$

