5363137
  -OEChem-07051213092D

 51 52  0     1  0  0  0  0  0999 V2000
    4.5986   -2.0981    0.0000 O   0  0  0  0  0  0  0  0  0  0  0  0
   11.2321    2.7320    0.0000 O   0  0  0  0  0  0  0  0  0  0  0  0
    9.7320    3.5981    0.0000 O   0  0  0  0  0  0  0  0  0  0  0  0
    3.7320   -1.5981    0.0000 C   0  0  3  0  0  0  0  0  0  0  0  0
    3.7320   -2.5981    0.0000 C   0  0  3  0  0  0  0  0  0  0  0  0
    2.8660   -1.0981    0.0000 C   0  0  0  0  0  0  0  0  0  0  0  0
    2.8660   -3.0981    0.0000 C   0  0  0  0  0  0  0  0  0  0  0  0
    2.0000   -1.5981    0.0000 C   0  0  0  0  0  0  0  0  0  0  0  0
    2.0000   -2.5981    0.0000 C   0  0  0  0  0  0  0  0  0  0  0  0
    3.7320   -3.5981    0.0000 C   0  0  0  0  0  0  0  0  0  0  0  0
    4.2320   -0.7321    0.0000 C   0  0  0  0  0  0  0  0  0  0  0  0
    2.0000   -0.5981    0.0000 C   0  0  0  0  0  0  0  0  0  0  0  0
    2.8660   -0.0981    0.0000 C   0  0  0  0  0  0  0  0  0  0  0  0
    5.2320   -0.7321    0.0000 C   0  0  0  0  0  0  0  0  0  0  0  0
    5.7320    0.1340    0.0000 C   0  0  0  0  0  0  0  0  0  0  0  0
    5.2320    1.0000    0.0000 C   0  0  0  0  0  0  0  0  0  0  0  0
    6.7320    0.1340    0.0000 C   0  0  0  0  0  0  0  0  0  0  0  0
    7.2320    1.0000    0.0000 C   0  0  0  0  0  0  0  0  0  0  0  0
    8.2320    1.0000    0.0000 C   0  0  0  0  0  0  0  0  0  0  0  0
    8.7320    1.8660    0.0000 C   0  0  0  0  0  0  0  0  0  0  0  0
    8.2320    2.7320    0.0000 C   0  0  0  0  0  0  0  0  0  0  0  0
    9.7320    1.8660    0.0000 C   0  0  0  0  0  0  0  0  0  0  0  0
   10.2321    2.7320    0.0000 C   0  0  0  0  0  0  0  0  0  0  0  0
    2.4675   -3.5730    0.0000 H   0  0  0  0  0  0  0  0  0  0  0  0
    3.2646   -3.5730    0.0000 H   0  0  0  0  0  0  0  0  0  0  0  0
    1.7880   -1.0155    0.0000 H   0  0  0  0  0  0  0  0  0  0  0  0
    1.3894   -1.7057    0.0000 H   0  0  0  0  0  0  0  0  0  0  0  0
    1.3894   -2.4904    0.0000 H   0  0  0  0  0  0  0  0  0  0  0  0
    1.7880   -3.1807    0.0000 H   0  0  0  0  0  0  0  0  0  0  0  0
    3.1120   -3.5981    0.0000 H   0  0  0  0  0  0  0  0  0  0  0  0
    3.7320   -4.2181    0.0000 H   0  0  0  0  0  0  0  0  0  0  0  0
    4.3520   -3.5981    0.0000 H   0  0  0  0  0  0  0  0  0  0  0  0
    3.9220   -0.1951    0.0000 H   0  0  0  0  0  0  0  0  0  0  0  0
    3.4860   -0.0981    0.0000 H   0  0  0  0  0  0  0  0  0  0  0  0
    2.8660    0.5219    0.0000 H   0  0  0  0  0  0  0  0  0  0  0  0
    2.3100   -0.0611    0.0000 H   0  0  0  0  0  0  0  0  0  0  0  0
    1.4631   -0.2881    0.0000 H   0  0  0  0  0  0  0  0  0  0  0  0
    1.6900   -1.1350    0.0000 H   0  0  0  0  0  0  0  0  0  0  0  0
    2.2460   -0.0981    0.0000 H   0  0  0  0  0  0  0  0  0  0  0  0
    5.5420   -1.2690    0.0000 H   0  0  0  0  0  0  0  0  0  0  0  0
    5.7690    1.3100    0.0000 H   0  0  0  0  0  0  0  0  0  0  0  0
    4.9220    1.5369    0.0000 H   0  0  0  0  0  0  0  0  0  0  0  0
    4.6951    0.6900    0.0000 H   0  0  0  0  0  0  0  0  0  0  0  0
    7.0420   -0.4030    0.0000 H   0  0  0  0  0  0  0  0  0  0  0  0
    6.9220    1.5369    0.0000 H   0  0  0  0  0  0  0  0  0  0  0  0
    8.5420    0.4631    0.0000 H   0  0  0  0  0  0  0  0  0  0  0  0
    8.7690    3.0420    0.0000 H   0  0  0  0  0  0  0  0  0  0  0  0
    7.9220    3.2690    0.0000 H   0  0  0  0  0  0  0  0  0  0  0  0
    7.6951    2.4220    0.0000 H   0  0  0  0  0  0  0  0  0  0  0  0
   10.0421    1.3291    0.0000 H   0  0  0  0  0  0  0  0  0  0  0  0
   11.5421    3.2690    0.0000 H   0  0  0  0  0  0  0  0  0  0  0  0
  1  4  1  0  0  0  0
  1  5  1  0  0  0  0
  2 23  1  0  0  0  0
  2 51  1  0  0  0  0
  3 23  2  0  0  0  0
  4  5  1  0  0  0  0
  4  6  1  0  0  0  0
  4 11  1  0  0  0  0
  5  7  1  0  0  0  0
  5 10  1  0  0  0  0
  6  8  1  0  0  0  0
  6 12  1  0  0  0  0
  6 13  1  0  0  0  0
  7  9  1  0  0  0  0
  7 24  1  0  0  0  0
  7 25  1  0  0  0  0
  8  9  1  0  0  0  0
  8 26  1  0  0  0  0
  8 27  1  0  0  0  0
  9 28  1  0  0  0  0
  9 29  1  0  0  0  0
 10 30  1  0  0  0  0
 10 31  1  0  0  0  0
 10 32  1  0  0  0  0
 11 14  2  0  0  0  0
 11 33  1  0  0  0  0
 12 36  1  0  0  0  0
 12 37  1  0  0  0  0
 12 38  1  0  0  0  0
 13 34  1  0  0  0  0
 13 35  1  0  0  0  0
 13 39  1  0  0  0  0
 14 15  1  0  0  0  0
 14 40  1  0  0  0  0
 15 16  1  0  0  0  0
 15 17  2  0  0  0  0
 16 41  1  0  0  0  0
 16 42  1  0  0  0  0
 16 43  1  0  0  0  0
 17 18  1  0  0  0  0
 17 44  1  0  0  0  0
 18 19  2  0  0  0  0
 18 45  1  0  0  0  0
 19 20  1  0  0  0  0
 19 46  1  0  0  0  0
 20 21  1  0  0  0  0
 20 22  2  0  0  0  0
 21 47  1  0  0  0  0
 21 48  1  0  0  0  0
 21 49  1  0  0  0  0
 22 23  1  0  0  0  0
 22 50  1  0  0  0  0
M  END
> <PUBCHEM_COMPOUND_CID>
5363137

> <PUBCHEM_COMPOUND_CANONICALIZED>
1

> <PUBCHEM_CACTVS_COMPLEXITY>
606

> <PUBCHEM_CACTVS_HBOND_ACCEPTOR>
3

> <PUBCHEM_CACTVS_HBOND_DONOR>
1

> <PUBCHEM_CACTVS_ROTATABLE_BOND>
5

> <PUBCHEM_CACTVS_SUBSKEYS>
AAADceB4MAAAAAAAAAAAAAAAEgAAAAAAAAAwAAAABIAAAAAAAAAAGgAACAAADkSAgAACCAAABgCIAiDSCAAAAAAgAAAICAAAAEgIBAIAIQACEAAEwAAIsQOAwPAPgAAAAAAAAAAAAAYAADAAAAAAAAAAAA==

> <PUBCHEM_IUPAC_OPENEYE_NAME>
(2E,4E,6E,8E)-3,7-dimethyl-9-(1,5,5-trimethyl-7-oxabicyclo[4.1.0]heptan-6-yl)nona-2,4,6,8-tetraenoic acid

> <PUBCHEM_IUPAC_CAS_NAME>
(2E,4E,6E,8E)-3,7-dimethyl-9-(1,5,5-trimethyl-7-oxabicyclo[4.1.0]heptan-6-yl)nona-2,4,6,8-tetraenoic acid

> <PUBCHEM_IUPAC_NAME>
(2E,4E,6E,8E)-3,7-dimethyl-9-(1,5,5-trimethyl-7-oxabicyclo[4.1.0]heptan-6-yl)nona-2,4,6,8-tetraenoic acid

> <PUBCHEM_IUPAC_SYSTEMATIC_NAME>
(2E,4E,6E,8E)-3,7-dimethyl-9-(1,5,5-trimethyl-7-oxabicyclo[4.1.0]heptan-6-yl)nona-2,4,6,8-tetraenoic acid

> <PUBCHEM_IUPAC_TRADITIONAL_NAME>
(2E,4E,6E,8E)-3,7-dimethyl-9-(1,5,5-trimethyl-7-oxabicyclo[4.1.0]heptan-6-yl)nona-2,4,6,8-tetraenoic acid

> <PUBCHEM_IUPAC_INCHI>
InChI=1S/C20H28O3/c1-15(8-6-9-16(2)14-17(21)22)10-13-20-18(3,4)11-7-12-19(20,5)23-20/h6,8-10,13-14H,7,11-12H2,1-5H3,(H,21,22)/b9-6+,13-10+,15-8+,16-14+

> <PUBCHEM_IUPAC_INCHIKEY>
KEEHJLBAOLGBJZ-WEDZBJJJSA-N

> <PUBCHEM_XLOGP3_AA>
5

> <PUBCHEM_EXACT_MASS>
316.203845

> <PUBCHEM_MOLECULAR_FORMULA>
C20H28O3

> <PUBCHEM_MOLECULAR_WEIGHT>
316.43452

> <PUBCHEM_OPENEYE_CAN_SMILES>
CC(=CC=CC(=CC(=O)O)C)C=CC12C(CCCC1(O2)C)(C)C

> <PUBCHEM_OPENEYE_ISO_SMILES>
C/C(=C\C=C\C(=C\C(=O)O)\C)/C=C/C12C(CCCC1(O2)C)(C)C

> <PUBCHEM_CACTVS_TPSA>
49.8

> <PUBCHEM_MONOISOTOPIC_WEIGHT>
316.203845

> <PUBCHEM_TOTAL_CHARGE>
0

> <PUBCHEM_HEAVY_ATOM_COUNT>
23

> <PUBCHEM_ATOM_DEF_STEREO_COUNT>
0

> <PUBCHEM_ATOM_UDEF_STEREO_COUNT>
2

> <PUBCHEM_BOND_DEF_STEREO_COUNT>
4

> <PUBCHEM_BOND_UDEF_STEREO_COUNT>
0

> <PUBCHEM_ISOTOPIC_ATOM_COUNT>
0

> <PUBCHEM_COMPONENT_COUNT>
1

> <PUBCHEM_CACTVS_TAUTO_COUNT>
1

> <PUBCHEM_COORDINATE_TYPE>
1
5
255

> <PUBCHEM_BONDANNOTATIONS>
4  11  3
5  10  3

$$$$

