11988260
  -OEChem-07051212493D

 47 50  0     1  0  0  0  0  0999 V2000
    2.7115   -0.6332    0.0804 O   0  0  0  0  0  0  0  0  0  0  0  0
    1.8516    1.5172    0.3641 O   0  0  0  0  0  0  0  0  0  0  0  0
    6.5350    0.6543    0.8481 O   0  0  0  0  0  0  0  0  0  0  0  0
    6.1088   -1.8990   -0.4382 O   0  0  0  0  0  0  0  0  0  0  0  0
    4.4550    2.5774    0.0382 O   0  0  0  0  0  0  0  0  0  0  0  0
    2.0853   -3.1445   -0.8454 O   0  0  0  0  0  0  0  0  0  0  0  0
   -0.0573    0.6913    2.1274 O   0  0  0  0  0  0  0  0  0  0  0  0
   -2.4924   -0.0602    2.4829 O   0  0  0  0  0  0  0  0  0  0  0  0
   -3.5814    0.4776   -2.7214 O   0  0  0  0  0  0  0  0  0  0  0  0
    5.4059    0.3596    0.0242 C   0  0  1  0  0  0  0  0  0  0  0  0
    5.0825   -1.1266    0.1792 C   0  0  1  0  0  0  0  0  0  0  0  0
    4.2238    1.2305    0.4502 C   0  0  2  0  0  0  0  0  0  0  0  0
    3.7377   -1.4604   -0.4706 C   0  0  1  0  0  0  0  0  0  0  0  0
    2.9210    0.7510   -0.1895 C   0  0  1  0  0  0  0  0  0  0  0  0
    3.3381   -2.9124   -0.2278 C   0  0  0  0  0  0  0  0  0  0  0  0
    0.5938    1.2338   -0.0779 C   0  0  0  0  0  0  0  0  0  0  0  0
   -0.3946    0.8087    0.8101 C   0  0  0  0  0  0  0  0  0  0  0  0
   -1.6810    0.5198    0.3392 C   0  0  0  0  0  0  0  0  0  0  0  0
   -1.9727    0.6579   -1.0194 C   0  0  0  0  0  0  0  0  0  0  0  0
    0.3027    1.3720   -1.4336 C   0  0  0  0  0  0  0  0  0  0  0  0
   -0.9779    1.0852   -1.9071 C   0  0  0  0  0  0  0  0  0  0  0  0
   -2.7212    0.0702    1.2869 C   0  0  0  0  0  0  0  0  0  0  0  0
   -4.0740   -0.2320    0.7765 C   0  0  0  0  0  0  0  0  0  0  0  0
   -4.3655   -0.0942   -0.5823 C   0  0  0  0  0  0  0  0  0  0  0  0
   -3.3255    0.3555   -1.5299 C   0  0  0  0  0  0  0  0  0  0  0  0
   -5.0688   -0.6591    1.6641 C   0  0  0  0  0  0  0  0  0  0  0  0
   -5.6517   -0.3839   -1.0534 C   0  0  0  0  0  0  0  0  0  0  0  0
   -6.3491   -0.9468    1.1904 C   0  0  0  0  0  0  0  0  0  0  0  0
   -6.6399   -0.8098   -0.1655 C   0  0  0  0  0  0  0  0  0  0  0  0
    5.7034    0.5919   -1.0058 H   0  0  0  0  0  0  0  0  0  0  0  0
    5.0714   -1.3776    1.2479 H   0  0  0  0  0  0  0  0  0  0  0  0
    4.1403    1.2389    1.5441 H   0  0  0  0  0  0  0  0  0  0  0  0
    3.7750   -1.2960   -1.5562 H   0  0  0  0  0  0  0  0  0  0  0  0
    2.9653    0.9194   -1.2735 H   0  0  0  0  0  0  0  0  0  0  0  0
    3.2287   -3.1251    0.8408 H   0  0  0  0  0  0  0  0  0  0  0  0
    4.0590   -3.6137   -0.6558 H   0  0  0  0  0  0  0  0  0  0  0  0
    7.2629    0.0759    0.5621 H   0  0  0  0  0  0  0  0  0  0  0  0
    6.0215   -2.8148   -0.1249 H   0  0  0  0  0  0  0  0  0  0  0  0
    3.6817    3.1015    0.3089 H   0  0  0  0  0  0  0  0  0  0  0  0
    1.0536    1.7201   -2.1372 H   0  0  0  0  0  0  0  0  0  0  0  0
    1.4487   -2.5148   -0.4658 H   0  0  0  0  0  0  0  0  0  0  0  0
   -1.1809    1.2045   -2.9680 H   0  0  0  0  0  0  0  0  0  0  0  0
   -4.8693   -0.7745    2.7261 H   0  0  0  0  0  0  0  0  0  0  0  0
   -5.9037   -0.2849   -2.1058 H   0  0  0  0  0  0  0  0  0  0  0  0
   -0.8122    0.3892    2.6535 H   0  0  0  0  0  0  0  0  0  0  0  0
   -7.1204   -1.2783    1.8796 H   0  0  0  0  0  0  0  0  0  0  0  0
   -7.6375   -1.0347   -0.5316 H   0  0  0  0  0  0  0  0  0  0  0  0
  1 13  1  0  0  0  0
  1 14  1  0  0  0  0
  2 14  1  0  0  0  0
  2 16  1  0  0  0  0
  3 10  1  0  0  0  0
  3 37  1  0  0  0  0
  4 11  1  0  0  0  0
  4 38  1  0  0  0  0
  5 12  1  0  0  0  0
  5 39  1  0  0  0  0
  6 15  1  0  0  0  0
  6 41  1  0  0  0  0
  7 17  1  0  0  0  0
  7 45  1  0  0  0  0
  8 22  2  0  0  0  0
  9 25  2  0  0  0  0
 10 11  1  0  0  0  0
 10 12  1  0  0  0  0
 10 30  1  0  0  0  0
 11 13  1  0  0  0  0
 11 31  1  0  0  0  0
 12 14  1  0  0  0  0
 12 32  1  0  0  0  0
 13 15  1  0  0  0  0
 13 33  1  0  0  0  0
 14 34  1  0  0  0  0
 15 35  1  0  0  0  0
 15 36  1  0  0  0  0
 16 17  2  0  0  0  0
 16 20  1  0  0  0  0
 17 18  1  0  0  0  0
 18 19  2  0  0  0  0
 18 22  1  0  0  0  0
 19 21  1  0  0  0  0
 19 25  1  0  0  0  0
 20 21  2  0  0  0  0
 20 40  1  0  0  0  0
 21 42  1  0  0  0  0
 22 23  1  0  0  0  0
 23 24  1  0  0  0  0
 23 26  2  0  0  0  0
 24 25  1  0  0  0  0
 24 27  2  0  0  0  0
 26 28  1  0  0  0  0
 26 43  1  0  0  0  0
 27 29  1  0  0  0  0
 27 44  1  0  0  0  0
 28 29  2  0  0  0  0
 28 46  1  0  0  0  0
 29 47  1  0  0  0  0
M  END
> <PUBCHEM_COMPOUND_CID>
11988260

> <PUBCHEM_CONFORMER_RMSD>
0.8

> <PUBCHEM_CONFORMER_DIVERSEORDER>
1
54
2
62
9
7
66
15
23
60
22
49
51
70
57
50
19
55
4
64
14
6
5
53
8
45
56
67
69
26
61
32
13
27
41
18
47
21
16
3
59
65
44
43
17
10
34
24
30
11
52
12
42
58
31
40
35
37
36
33
29
68
20
28
39
46
48
38
25
63

> <PUBCHEM_MMFF94_PARTIAL_CHARGES>
40
1 -0.56
10 0.28
11 0.28
12 0.28
13 0.28
14 0.56
15 0.28
16 0.08
17 0.08
18 0.09
19 0.09
2 -0.36
20 -0.15
21 -0.15
22 0.4
23 0.09
24 0.09
25 0.4
26 -0.15
27 -0.15
28 -0.15
29 -0.15
3 -0.68
37 0.4
38 0.4
39 0.4
4 -0.68
40 0.15
41 0.4
42 0.15
43 0.15
44 0.15
45 0.45
46 0.15
47 0.15
5 -0.68
6 -0.68
7 -0.53
8 -0.57
9 -0.57

> <PUBCHEM_EFFECTIVE_ROTOR_COUNT>
4.2

> <PUBCHEM_PHARMACOPHORE_FEATURES>
17
1 1 acceptor
1 2 acceptor
1 3 acceptor
1 3 donor
1 4 acceptor
1 4 donor
1 5 acceptor
1 5 donor
1 6 acceptor
1 6 donor
1 7 donor
1 8 acceptor
1 9 acceptor
6 1 10 11 12 13 14 rings
6 16 17 18 19 20 21 rings
6 18 19 22 23 24 25 rings
6 23 24 26 27 28 29 rings

> <PUBCHEM_HEAVY_ATOM_COUNT>
29

> <PUBCHEM_ATOM_DEF_STEREO_COUNT>
5

> <PUBCHEM_ATOM_UDEF_STEREO_COUNT>
0

> <PUBCHEM_BOND_DEF_STEREO_COUNT>
0

> <PUBCHEM_BOND_UDEF_STEREO_COUNT>
0

> <PUBCHEM_ISOTOPIC_ATOM_COUNT>
0

> <PUBCHEM_COMPONENT_COUNT>
1

> <PUBCHEM_CACTVS_TAUTO_COUNT>
5

> <PUBCHEM_CONFORMER_ID>
00B6ED2400000001

> <PUBCHEM_MMFF94_ENERGY>
97.3896

> <PUBCHEM_FEATURE_SELFOVERLAP>
86.368

> <PUBCHEM_SHAPE_FINGERPRINT>
10670039 82 15195290866841314894
11421498 54 17313380184460233586
11595378 159 16588302838458853753
11828532 37 16342843336638712819
12236239 1 17458061568962364648
12516196 113 18259984864143018520
12596602 18 17312821580407041002
12616971 3 17748830713173061684
12954195 1 17274826900148666765
13402501 40 18131630084277020747
13533116 47 18187080641861679216
13583140 156 18040437715467293545
13685833 64 18342734109639544427
13782708 43 18131635599104569730
14341114 328 17167582691526582918
14386348 63 17989203750303187147
14840074 17 18186521003238528543
15131766 46 17536044260050586001
15183329 4 13973965402560221479
15537594 2 17603307041958972951
15685185 35 17318462986451410536
1813 80 18113887273782476612
19319366 153 18040724649663896462
19377110 9 17603587430583166992
20511986 3 17530972413961611025
20554085 129 13984656010457908767
20645477 70 18413392042544561592
21033650 10 15984256499245760604
21133410 230 13789257731098062234
21623969 137 18411982464084582574
21781051 124 14764048040606176809
22061861 79 18273215296049390823
22224240 67 18260833653550837280
23522609 53 17387390382005167729
23557571 272 17418093234602814276
23559900 14 16773513244570907133
23569914 152 17263041385303042199
239999 70 17846499206182610840
25147074 1 16226904224466696873
2838139 119 10519989270563746279
3004659 81 15338839737888860684
335352 9 16343430519134987575
3459 39 14924219486838745465
345986 75 17750239268982776226
34797466 226 17417806210755256188
3633792 109 18408609188934353637
4340502 62 18260267413288430952
437815 12 18131631171446994077
46194498 28 17917992750549833604
5718773 13 17987805253988129474
5758199 1 17822579305414777320
7226269 152 14562525181242758995
86090 222 18342162402275011986

> <PUBCHEM_SHAPE_MULTIPOLES>
543.98
15.94
2.09
1.81
1.15
1
-0.03
5.54
-0.91
3.12
0.69
-1.95
-0.13
2.3

> <PUBCHEM_SHAPE_SELFOVERLAP>
1204.664

> <PUBCHEM_SHAPE_VOLUME>
286.8

> <PUBCHEM_COORDINATE_TYPE>
2
5
10

$$$$

