3036914
  -OEChem-07051213063D

 29 29  0     1  0  0  0  0  0999 V2000
   -4.7109   -1.7006   -0.7068 Cl  0  0  0  0  0  0  0  0  0  0  0  0
   -4.5107    1.1964   -0.5617 Cl  0  0  0  0  0  0  0  0  0  0  0  0
   -3.8837   -0.4300    1.7739 Cl  0  0  0  0  0  0  0  0  0  0  0  0
    0.3874   -0.6664    0.0086 O   0  0  0  0  0  0  0  0  0  0  0  0
   -1.5534    0.6270    0.0660 O   0  0  0  0  0  0  0  0  0  0  0  0
    2.7571    2.6153    0.7065 O   0  0  0  0  0  0  0  0  0  0  0  0
    0.0084    2.9540   -0.2952 O   0  0  0  0  0  0  0  0  0  0  0  0
    3.9192    0.1921   -0.4007 O   0  0  0  0  0  0  0  0  0  0  0  0
    3.3888   -2.4521   -0.3519 O   0  0  0  0  0  0  0  0  0  0  0  0
    1.4233   -2.8904    0.7162 O   0  0  0  0  0  0  0  0  0  0  0  0
    2.0466    1.6767   -0.1024 C   0  0  2  0  0  0  0  0  0  0  0  0
    0.5552    1.7438    0.2283 C   0  0  2  0  0  0  0  0  0  0  0  0
    2.6174    0.2857    0.1753 C   0  0  1  0  0  0  0  0  0  0  0  0
   -0.2023    0.5686   -0.3900 C   0  0  1  0  0  0  0  0  0  0  0  0
    1.7329   -0.7931   -0.4372 C   0  0  1  0  0  0  0  0  0  0  0  0
    2.1295   -2.1498    0.0483 C   0  0  0  0  0  0  0  0  0  0  0  0
   -2.3249   -0.4376   -0.4679 C   0  0  0  0  0  0  0  0  0  0  0  0
   -3.7798   -0.3398   -0.0093 C   0  0  0  0  0  0  0  0  0  0  0  0
    2.2179    1.9741   -1.1444 H   0  0  0  0  0  0  0  0  0  0  0  0
    0.4046    1.7662    1.3148 H   0  0  0  0  0  0  0  0  0  0  0  0
    2.7297    0.1380    1.2565 H   0  0  0  0  0  0  0  0  0  0  0  0
   -0.2052    0.6494   -1.4857 H   0  0  0  0  0  0  0  0  0  0  0  0
    1.7593   -0.8017   -1.5339 H   0  0  0  0  0  0  0  0  0  0  0  0
    3.6997    2.5411    0.4786 H   0  0  0  0  0  0  0  0  0  0  0  0
    0.5154    3.6906    0.0870 H   0  0  0  0  0  0  0  0  0  0  0  0
    3.8340    0.3214   -1.3608 H   0  0  0  0  0  0  0  0  0  0  0  0
   -1.9068   -1.3988   -0.1424 H   0  0  0  0  0  0  0  0  0  0  0  0
   -2.2740   -0.4044   -1.5644 H   0  0  0  0  0  0  0  0  0  0  0  0
    3.6690   -3.3394   -0.0414 H   0  0  0  0  0  0  0  0  0  0  0  0
  1 18  1  0  0  0  0
  2 18  1  0  0  0  0
  3 18  1  0  0  0  0
  4 14  1  0  0  0  0
  4 15  1  0  0  0  0
  5 14  1  0  0  0  0
  5 17  1  0  0  0  0
  6 11  1  0  0  0  0
  6 24  1  0  0  0  0
  7 12  1  0  0  0  0
  7 25  1  0  0  0  0
  8 13  1  0  0  0  0
  8 26  1  0  0  0  0
  9 16  1  0  0  0  0
  9 29  1  0  0  0  0
 10 16  2  0  0  0  0
 11 12  1  0  0  0  0
 11 13  1  0  0  0  0
 11 19  1  0  0  0  0
 12 14  1  0  0  0  0
 12 20  1  0  0  0  0
 13 15  1  0  0  0  0
 13 21  1  0  0  0  0
 14 22  1  0  0  0  0
 15 16  1  0  0  0  0
 15 23  1  0  0  0  0
 17 18  1  0  0  0  0
 17 27  1  0  0  0  0
 17 28  1  0  0  0  0
M  END
> <PUBCHEM_COMPOUND_CID>
3036914

> <PUBCHEM_CONFORMER_RMSD>
0.6

> <PUBCHEM_CONFORMER_DIVERSEORDER>
1
7
8
9
5
6
3
12
10
11
4
13
2

> <PUBCHEM_MMFF94_PARTIAL_CHARGES>
22
1 -0.29
10 -0.57
11 0.28
12 0.28
13 0.28
14 0.56
15 0.34
16 0.66
17 0.28
18 0.87
2 -0.29
24 0.4
25 0.4
26 0.4
29 0.5
3 -0.29
4 -0.56
5 -0.56
6 -0.68
7 -0.68
8 -0.68
9 -0.65

> <PUBCHEM_EFFECTIVE_ROTOR_COUNT>
5.2

> <PUBCHEM_PHARMACOPHORE_FEATURES>
12
1 10 acceptor
1 4 acceptor
1 5 acceptor
1 6 acceptor
1 6 donor
1 7 acceptor
1 7 donor
1 8 acceptor
1 8 donor
1 9 acceptor
3 9 10 16 anion
6 4 11 12 13 14 15 rings

> <PUBCHEM_HEAVY_ATOM_COUNT>
18

> <PUBCHEM_ATOM_DEF_STEREO_COUNT>
5

> <PUBCHEM_ATOM_UDEF_STEREO_COUNT>
0

> <PUBCHEM_BOND_DEF_STEREO_COUNT>
0

> <PUBCHEM_BOND_UDEF_STEREO_COUNT>
0

> <PUBCHEM_ISOTOPIC_ATOM_COUNT>
0

> <PUBCHEM_COMPONENT_COUNT>
1

> <PUBCHEM_CACTVS_TAUTO_COUNT>
1

> <PUBCHEM_CONFORMER_ID>
002E56F200000001

> <PUBCHEM_MMFF94_ENERGY>
36.5766

> <PUBCHEM_FEATURE_SELFOVERLAP>
61.025

> <PUBCHEM_SHAPE_FINGERPRINT>
10366900 7 18130223762097901843
10967382 1 18410857616460311254
10980938 120 18337955593060211949
11471102 20 18411141358942293028
11615757 297 18113894927798592041
116883 192 18047755085413729925
12553582 1 18194679491328687579
12596599 1 17968364745509781687
13140716 1 18193846946741657680
13296908 3 18412826915042760255
13533116 47 18334294224494716755
13862211 1 18410858768044614798
14178342 30 17974025962997095963
14251717 144 18338802221398361007
14790565 3 18123746457421455412
15042514 8 17473828806349772794
15375462 189 18409160039158099051
15442244 35 18263925612959930809
16945 1 18336557074842367172
19049666 15 18202002170461129505
20645477 70 18336270123655818927
21421861 104 17843127158090191656
221490 88 18412540990269278507
2255824 54 18266456503674160533
23526113 38 18060423529708458915
23559900 14 18337120067402368673
23596394 208 18201177489553868383
23598291 2 18187357744920579831
2748010 2 18047766076688552004
2871803 45 18340484581768600278
33824 294 18339647732807473787
5104073 3 18409731759925025065
54173680 148 17617097353439746734
543358 83 18338234998126429965
7364860 26 18335143089703335006
9709674 26 18342456998513448483

> <PUBCHEM_SHAPE_MULTIPOLES>
334.96
8.47
2.96
0.95
7.78
0.12
0.35
1.94
-0.3
-2.53
0.11
0.95
0.11
0.23

> <PUBCHEM_SHAPE_SELFOVERLAP>
649.654

> <PUBCHEM_SHAPE_VOLUME>
202.5

> <PUBCHEM_COORDINATE_TYPE>
2
5
10

$$$$

