12934
  -OEChem-06261207333D

 31 32  0     0  0  0  0  0  0999 V2000
   -6.6910    1.7238    0.9981 Cl  0  0  0  0  0  0  0  0  0  0  0  0
    0.3869   -2.0631   -1.5974 S   0  0  0  0  0  0  0  0  0  0  0  0
   -2.5514   -2.2510   -1.5384 S   0  0  0  0  0  0  0  0  0  0  0  0
    2.3031   -2.0629    2.3300 O   0  5  0  0  0  0  0  0  0  0  0  0
    0.9283   -2.8779    0.8191 O   0  0  0  0  0  0  0  0  0  0  0  0
    4.7750    2.8478   -0.4671 O   0  5  0  0  0  0  0  0  0  0  0  0
    4.9140    1.8170    1.4710 O   0  0  0  0  0  0  0  0  0  0  0  0
    1.7727   -2.0338    1.1963 N   0  3  0  0  0  0  0  0  0  0  0  0
    4.4382    1.9278    0.3159 N   0  3  0  0  0  0  0  0  0  0  0  0
   -1.2989   -0.2018   -0.4642 N   0  0  0  0  0  0  0  0  0  0  0  0
    1.5941   -0.8998   -0.9854 C   0  0  0  0  0  0  0  0  0  0  0  0
    2.1453   -0.9946    0.2964 C   0  0  0  0  0  0  0  0  0  0  0  0
    3.4802    0.9754   -0.1217 C   0  0  0  0  0  0  0  0  0  0  0  0
    3.0862   -0.0591    0.7270 C   0  0  0  0  0  0  0  0  0  0  0  0
    1.9925    0.1391   -1.8317 C   0  0  0  0  0  0  0  0  0  0  0  0
    2.9334    1.0744   -1.4011 C   0  0  0  0  0  0  0  0  0  0  0  0
   -2.5746    0.2548   -0.1181 C   0  0  0  0  0  0  0  0  0  0  0  0
   -3.1384   -0.1117    1.1038 C   0  0  0  0  0  0  0  0  0  0  0  0
   -3.2834    1.0759   -0.9951 C   0  0  0  0  0  0  0  0  0  0  0  0
   -1.1244   -1.3171   -1.1078 C   0  0  0  0  0  0  0  0  0  0  0  0
   -4.4113    0.3427    1.4488 C   0  0  0  0  0  0  0  0  0  0  0  0
   -4.5562    1.5304   -0.6501 C   0  0  0  0  0  0  0  0  0  0  0  0
   -5.1202    1.1639    0.5719 C   0  0  0  0  0  0  0  0  0  0  0  0
    3.5171   -0.1295    1.7229 H   0  0  0  0  0  0  0  0  0  0  0  0
    1.5793    0.2368   -2.8331 H   0  0  0  0  0  0  0  0  0  0  0  0
    3.2161    1.8667   -2.0895 H   0  0  0  0  0  0  0  0  0  0  0  0
   -2.5932   -0.7498    1.7946 H   0  0  0  0  0  0  0  0  0  0  0  0
   -2.8519    1.3684   -1.9489 H   0  0  0  0  0  0  0  0  0  0  0  0
   -4.8380    0.0491    2.4044 H   0  0  0  0  0  0  0  0  0  0  0  0
   -5.0969    2.1697   -1.3432 H   0  0  0  0  0  0  0  0  0  0  0  0
   -1.9071   -3.2621   -2.1388 H   0  0  0  0  0  0  0  0  0  0  0  0
  1 23  1  0  0  0  0
  2 11  1  0  0  0  0
  2 20  1  0  0  0  0
  3 20  1  0  0  0  0
  3 31  1  0  0  0  0
  4  8  1  0  0  0  0
  5  8  2  0  0  0  0
  6  9  1  0  0  0  0
  7  9  2  0  0  0  0
  8 12  1  0  0  0  0
  9 13  1  0  0  0  0
 10 17  1  0  0  0  0
 10 20  2  0  0  0  0
 11 12  2  0  0  0  0
 11 15  1  0  0  0  0
 12 14  1  0  0  0  0
 13 14  2  0  0  0  0
 13 16  1  0  0  0  0
 14 24  1  0  0  0  0
 15 16  2  0  0  0  0
 15 25  1  0  0  0  0
 16 26  1  0  0  0  0
 17 18  2  0  0  0  0
 17 19  1  0  0  0  0
 18 21  1  0  0  0  0
 18 27  1  0  0  0  0
 19 22  2  0  0  0  0
 19 28  1  0  0  0  0
 21 23  2  0  0  0  0
 21 29  1  0  0  0  0
 22 23  1  0  0  0  0
 22 30  1  0  0  0  0
M  CHG  4   4  -1   6  -1   8   1   9   1
M  END
> <PUBCHEM_COMPOUND_CID>
12934

> <PUBCHEM_CONFORMER_RMSD>
0.8

> <PUBCHEM_CONFORMER_DIVERSEORDER>
1
3
10
7
9
6
8
4
2
5

> <PUBCHEM_MMFF94_PARTIAL_CHARGES>
31
1 -0.18
10 -0.63
11 0.1
12 0.13
13 0.13
14 -0.15
15 -0.15
16 -0.15
17 0.18
18 -0.15
19 -0.15
2 -0.24
20 0.73
21 -0.15
22 -0.15
23 0.18
24 0.15
25 0.15
26 0.15
27 0.15
28 0.15
29 0.15
3 -0.32
30 0.15
31 0.18
4 -0.52
5 -0.52
6 -0.52
7 -0.52
8 0.91
9 0.91

> <PUBCHEM_EFFECTIVE_ROTOR_COUNT>
5

> <PUBCHEM_PHARMACOPHORE_FEATURES>
9
1 10 acceptor
1 4 acceptor
1 4 anion
1 5 acceptor
1 6 acceptor
1 6 anion
1 7 acceptor
6 11 12 13 14 15 16 rings
6 17 18 19 21 22 23 rings

> <PUBCHEM_HEAVY_ATOM_COUNT>
23

> <PUBCHEM_ATOM_DEF_STEREO_COUNT>
0

> <PUBCHEM_ATOM_UDEF_STEREO_COUNT>
0

> <PUBCHEM_BOND_DEF_STEREO_COUNT>
0

> <PUBCHEM_BOND_UDEF_STEREO_COUNT>
0

> <PUBCHEM_ISOTOPIC_ATOM_COUNT>
0

> <PUBCHEM_COMPONENT_COUNT>
1

> <PUBCHEM_CACTVS_TAUTO_COUNT>
2

> <PUBCHEM_CONFORMER_ID>
0000328600000001

> <PUBCHEM_MMFF94_ENERGY>
83.4997

> <PUBCHEM_FEATURE_SELFOVERLAP>
45.83

> <PUBCHEM_SHAPE_FINGERPRINT>
10382601 240 18131081441423807318
10498660 4 17676483930349485097
11640471 11 18338248088997065318
12363563 72 12175619573005774407
12596602 18 18335413565648745665
12788726 201 17265513765714714350
12892183 10 17846497080068226653
13533116 47 17345463963960476283
13583140 156 17703235113136636599
13955234 65 18117263964502246359
13965767 371 18411141371922316276
14068700 675 14637095296883990078
14178342 30 17632287922352577483
1420 369 11743842456084311109
14251764 38 18051419770987175541
14251764 75 18334007268464977457
14341114 328 17489576832105340357
15210252 30 17095522898434044040
15342168 16 18041276660340499869
20388580 30 8574711308374361094
20775530 9 11022735511892906064
21401589 2 18190739735086583456
21756936 100 17842258291139663684
21864079 5 17823407361528289721
221357 26 6266901242883631857
23558518 356 17832710076007857909
23559900 14 17487602247109292135
238 59 14273742840920268311
2838139 119 17098072529167109136
3472631 163 18113336388587141125
427121 178 18342733001574781690
4340502 62 18131060542070617459
4409770 3 8855258344817306850
49207404 50 17845924221582983699
633830 44 18341614764053242870
7808743 9 18113621144723329461

> <PUBCHEM_SHAPE_MULTIPOLES>
444.48
12.09
2.84
1.84
10.11
0.55
0.48
-12.01
2.76
-1.81
-0.13
-0.83
0.68
-1.22

> <PUBCHEM_SHAPE_SELFOVERLAP>
921.972

> <PUBCHEM_SHAPE_VOLUME>
256.1

> <PUBCHEM_COORDINATE_TYPE>
2
5
10

$$$$

