11954111
  -OEChem-07051213063D

 53 56  0     1  0  0  0  0  0999 V2000
    5.4495    0.1045   -0.6765 O   0  0  0  0  0  0  0  0  0  0  0  0
   -5.3673    1.0459    1.0303 O   0  0  0  0  0  0  0  0  0  0  0  0
   -0.2615    0.4440    0.0992 C   0  0  2  0  0  0  0  0  0  0  0  0
    1.1850    0.4575   -0.5213 C   0  0  2  0  0  0  0  0  0  0  0  0
   -1.1104   -0.7615   -0.4275 C   0  0  2  0  0  0  0  0  0  0  0  0
   -2.4752   -0.7209    0.2657 C   0  0  1  0  0  0  0  0  0  0  0  0
    1.8424   -0.9222   -0.1976 C   0  0  1  0  0  0  0  0  0  0  0  0
   -3.2400    0.5800   -0.0548 C   0  0  2  0  0  0  0  0  0  0  0  0
   -1.0240    1.7927   -0.0142 C   0  0  0  0  0  0  0  0  0  0  0  0
   -0.3913   -2.0961   -0.1894 C   0  0  0  0  0  0  0  0  0  0  0  0
    1.0298   -2.1003   -0.7488 C   0  0  0  0  0  0  0  0  0  0  0  0
   -2.4576    1.7425    0.5472 C   0  0  0  0  0  0  0  0  0  0  0  0
    2.0552    1.5621    0.1414 C   0  0  0  0  0  0  0  0  0  0  0  0
   -3.4934   -1.8261    0.0078 C   0  0  0  0  0  0  0  0  0  0  0  0
    3.3134   -1.0026   -0.6394 C   0  0  0  0  0  0  0  0  0  0  0  0
    1.1267    0.7315   -2.0462 C   0  0  0  0  0  0  0  0  0  0  0  0
   -4.5574    0.2288    0.6129 C   0  0  0  0  0  0  0  0  0  0  0  0
    3.5350    1.4979   -0.2561 C   0  0  0  0  0  0  0  0  0  0  0  0
    4.1728    0.1193   -0.0354 C   0  0  2  0  0  0  0  0  0  0  0  0
   -4.7654   -1.2754    0.6695 C   0  0  0  0  0  0  0  0  0  0  0  0
   -3.5548    0.8280   -1.5419 C   0  0  0  0  0  0  0  0  0  0  0  0
    4.4013   -0.1181    1.4026 C   0  0  0  0  0  0  0  0  0  0  0  0
    4.5871   -0.3116    2.5725 C   0  0  0  0  0  0  0  0  0  0  0  0
   -0.1310    0.2795    1.1811 H   0  0  0  0  0  0  0  0  0  0  0  0
   -1.2612   -0.6639   -1.5074 H   0  0  0  0  0  0  0  0  0  0  0  0
   -2.2776   -0.7527    1.3515 H   0  0  0  0  0  0  0  0  0  0  0  0
    1.8378   -1.0382    0.8969 H   0  0  0  0  0  0  0  0  0  0  0  0
   -1.0667    2.1173   -1.0585 H   0  0  0  0  0  0  0  0  0  0  0  0
   -0.4817    2.5738    0.5301 H   0  0  0  0  0  0  0  0  0  0  0  0
   -0.9548   -2.9148   -0.6520 H   0  0  0  0  0  0  0  0  0  0  0  0
   -0.3525   -2.3094    0.8866 H   0  0  0  0  0  0  0  0  0  0  0  0
    1.5121   -3.0459   -0.4721 H   0  0  0  0  0  0  0  0  0  0  0  0
    1.0019   -2.0766   -1.8441 H   0  0  0  0  0  0  0  0  0  0  0  0
   -2.4151    1.6459    1.6401 H   0  0  0  0  0  0  0  0  0  0  0  0
   -2.9643    2.6951    0.3498 H   0  0  0  0  0  0  0  0  0  0  0  0
    1.9769    1.4854    1.2335 H   0  0  0  0  0  0  0  0  0  0  0  0
    1.6786    2.5572   -0.1239 H   0  0  0  0  0  0  0  0  0  0  0  0
   -3.2009   -2.7811    0.4550 H   0  0  0  0  0  0  0  0  0  0  0  0
   -3.6471   -1.9929   -1.0639 H   0  0  0  0  0  0  0  0  0  0  0  0
    3.7313   -1.9791   -0.3561 H   0  0  0  0  0  0  0  0  0  0  0  0
    3.3869   -0.9771   -1.7341 H   0  0  0  0  0  0  0  0  0  0  0  0
    2.1087    0.6564   -2.5213 H   0  0  0  0  0  0  0  0  0  0  0  0
    0.4731    0.0347   -2.5763 H   0  0  0  0  0  0  0  0  0  0  0  0
    0.7607    1.7425   -2.2537 H   0  0  0  0  0  0  0  0  0  0  0  0
    3.6462    1.7862   -1.3093 H   0  0  0  0  0  0  0  0  0  0  0  0
    4.0880    2.2665    0.3012 H   0  0  0  0  0  0  0  0  0  0  0  0
   -4.8292   -1.5839    1.7169 H   0  0  0  0  0  0  0  0  0  0  0  0
   -5.6632   -1.5684    0.1213 H   0  0  0  0  0  0  0  0  0  0  0  0
   -4.1696    0.0329   -1.9773 H   0  0  0  0  0  0  0  0  0  0  0  0
   -4.1264    1.7570   -1.6576 H   0  0  0  0  0  0  0  0  0  0  0  0
   -2.6561    0.9210   -2.1572 H   0  0  0  0  0  0  0  0  0  0  0  0
    5.9625    0.8643   -0.3513 H   0  0  0  0  0  0  0  0  0  0  0  0
    4.7512   -0.4833    3.6106 H   0  0  0  0  0  0  0  0  0  0  0  0
  1 19  1  0  0  0  0
  1 52  1  0  0  0  0
  2 17  2  0  0  0  0
  3  4  1  0  0  0  0
  3  5  1  0  0  0  0
  3  9  1  0  0  0  0
  3 24  1  0  0  0  0
  4  7  1  0  0  0  0
  4 13  1  0  0  0  0
  4 16  1  0  0  0  0
  5  6  1  0  0  0  0
  5 10  1  0  0  0  0
  5 25  1  0  0  0  0
  6  8  1  0  0  0  0
  6 14  1  0  0  0  0
  6 26  1  0  0  0  0
  7 11  1  0  0  0  0
  7 15  1  0  0  0  0
  7 27  1  0  0  0  0
  8 12  1  0  0  0  0
  8 17  1  0  0  0  0
  8 21  1  0  0  0  0
  9 12  1  0  0  0  0
  9 28  1  0  0  0  0
  9 29  1  0  0  0  0
 10 11  1  0  0  0  0
 10 30  1  0  0  0  0
 10 31  1  0  0  0  0
 11 32  1  0  0  0  0
 11 33  1  0  0  0  0
 12 34  1  0  0  0  0
 12 35  1  0  0  0  0
 13 18  1  0  0  0  0
 13 36  1  0  0  0  0
 13 37  1  0  0  0  0
 14 20  1  0  0  0  0
 14 38  1  0  0  0  0
 14 39  1  0  0  0  0
 15 19  1  0  0  0  0
 15 40  1  0  0  0  0
 15 41  1  0  0  0  0
 16 42  1  0  0  0  0
 16 43  1  0  0  0  0
 16 44  1  0  0  0  0
 17 20  1  0  0  0  0
 18 19  1  0  0  0  0
 18 45  1  0  0  0  0
 18 46  1  0  0  0  0
 19 22  1  0  0  0  0
 20 47  1  0  0  0  0
 20 48  1  0  0  0  0
 21 49  1  0  0  0  0
 21 50  1  0  0  0  0
 21 51  1  0  0  0  0
 22 23  3  0  0  0  0
 23 53  1  0  0  0  0
M  END
> <PUBCHEM_COMPOUND_CID>
11954111

> <PUBCHEM_CONFORMER_RMSD>
0.6

> <PUBCHEM_CONFORMER_DIVERSEORDER>
1

> <PUBCHEM_MMFF94_PARTIAL_CHARGES>
10
1 -0.68
17 0.45
19 0.48
2 -0.57
20 0.06
22 -0.2
23 -0.18
52 0.4
53 0.18
8 0.06

> <PUBCHEM_EFFECTIVE_ROTOR_COUNT>
2

> <PUBCHEM_PHARMACOPHORE_FEATURES>
8
1 1 acceptor
1 1 donor
1 2 acceptor
1 23 hydrophobe
5 6 8 14 17 20 rings
6 3 4 5 7 10 11 rings
6 3 5 6 8 9 12 rings
6 4 7 13 15 18 19 rings

> <PUBCHEM_HEAVY_ATOM_COUNT>
23

> <PUBCHEM_ATOM_DEF_STEREO_COUNT>
7

> <PUBCHEM_ATOM_UDEF_STEREO_COUNT>
0

> <PUBCHEM_BOND_DEF_STEREO_COUNT>
0

> <PUBCHEM_BOND_UDEF_STEREO_COUNT>
0

> <PUBCHEM_ISOTOPIC_ATOM_COUNT>
0

> <PUBCHEM_COMPONENT_COUNT>
1

> <PUBCHEM_CACTVS_TAUTO_COUNT>
2

> <PUBCHEM_CONFORMER_ID>
00B667BF00000001

> <PUBCHEM_MMFF94_ENERGY>
72.0549

> <PUBCHEM_FEATURE_SELFOVERLAP>
40.686

> <PUBCHEM_SHAPE_FINGERPRINT>
10062212 137 18341615871849031491
10646746 165 18187643635023307460
11132069 177 18261115170575283359
12107183 9 17413044431995909192
12236239 1 17988920063877280988
12403259 415 17894351090268410800
12403814 3 17989202638777030813
12592029 89 18342738541650395746
12596602 18 18131358483957352408
12633257 1 18409172099473836552
12670546 56 17418104195311588220
12839892 36 18410865364434114082
13140716 1 18265053539621475130
13224815 77 18411979152564245693
13544653 18 15338844187606711502
13583140 156 17274558567096369125
13675066 3 17967251987949137446
14178342 30 18193838369338929368
14341114 176 18336817675924467890
14341114 328 18272368676417539715
14787075 74 18338516322605309391
15196674 1 18336823104599541349
15536298 74 18187920728774914174
15788980 27 16988567917605253873
1601671 61 18411978066438647470
16945 1 18338797939131110407
17349148 13 18272369763012441295
17959699 21 5761659187015612706
1813 80 17346595292199449070
18681886 176 18337946793432033828
200 152 18113622279174801693
20028762 73 18042125354062813151
20715895 44 18057051431011108653
21033648 29 17676778634020568936
21267235 1 18338221704854599814
21421861 104 18058166305087698794
21637258 2 15554181336904767568
22182313 1 18266176317176907719
23402539 116 18040999527143169821
23557571 272 18041266682730810951
23559900 14 18260822735501637558
2838139 119 14852184875413665562
296302 2 15719393927749611071
3286 77 15339113516241771133
335352 9 18408316704970059229
34797466 226 14707209885955356105
34934 24 18336263539824264679
350125 39 18410004421407888748
3545911 37 18334850645322134679
3680242 22 18339920519012389923
4072396 5 18341339971391562155
465052 167 17988922284512588234
495365 180 16877667855641349862
5104073 3 18340486664558870001
633830 44 17895195480601492540
7064713 232 18333730234378221769
9709674 26 18336817641454453679

> <PUBCHEM_SHAPE_MULTIPOLES>
461.59
10.77
1.97
1.46
0.29
0.32
-0.32
-0.22
-3.89
-0.8
0.16
1.27
-0.07
-0.17

> <PUBCHEM_SHAPE_SELFOVERLAP>
986.107

> <PUBCHEM_SHAPE_VOLUME>
254.1

> <PUBCHEM_COORDINATE_TYPE>
2
5
10

$$$$

