440743
  -OEChem-07051212503D

 27 27  0     0  0  0  0  0  0999 V2000
    1.3920   -1.5304   -1.0182 O   0  0  0  0  0  0  0  0  0  0  0  0
   -1.1090    3.7172    0.0002 O   0  0  0  0  0  0  0  0  0  0  0  0
   -3.3500   -2.4016    0.3910 O   0  0  0  0  0  0  0  0  0  0  0  0
   -1.0903   -1.8312   -0.0189 N   0  0  0  0  0  0  0  0  0  0  0  0
    5.0180   -0.1023    0.7060 N   0  0  0  0  0  0  0  0  0  0  0  0
    0.1063    0.2738   -0.2301 C   0  0  0  0  0  0  0  0  0  0  0  0
    2.6918    0.2423   -0.0283 C   0  0  0  0  0  0  0  0  0  0  0  0
    1.3699   -0.4136   -0.4650 C   0  0  0  0  0  0  0  0  0  0  0  0
   -1.0768   -0.4337   -0.0168 C   0  0  0  0  0  0  0  0  0  0  0  0
    3.7805   -0.7719    0.3222 C   0  0  0  0  0  0  0  0  0  0  0  0
    0.0955    1.6687   -0.2241 C   0  0  0  0  0  0  0  0  0  0  0  0
   -2.2706    0.2536    0.2024 C   0  0  0  0  0  0  0  0  0  0  0  0
   -1.0983    2.3559   -0.0050 C   0  0  0  0  0  0  0  0  0  0  0  0
   -2.2814    1.6484    0.2081 C   0  0  0  0  0  0  0  0  0  0  0  0
   -2.1775   -2.6752    0.1765 C   0  0  0  0  0  0  0  0  0  0  0  0
    2.5034    0.8690    0.8517 H   0  0  0  0  0  0  0  0  0  0  0  0
    3.0249    0.8868   -0.8505 H   0  0  0  0  0  0  0  0  0  0  0  0
    3.4456   -1.4163    1.1426 H   0  0  0  0  0  0  0  0  0  0  0  0
    3.9832   -1.4258   -0.5330 H   0  0  0  0  0  0  0  0  0  0  0  0
    0.9989    2.2452   -0.4048 H   0  0  0  0  0  0  0  0  0  0  0  0
   -3.2263   -0.2212    0.3748 H   0  0  0  0  0  0  0  0  0  0  0  0
   -3.2174    2.1734    0.3798 H   0  0  0  0  0  0  0  0  0  0  0  0
   -0.1999   -2.2948   -0.1772 H   0  0  0  0  0  0  0  0  0  0  0  0
    4.8412    0.5129    1.4994 H   0  0  0  0  0  0  0  0  0  0  0  0
    5.3277    0.5038   -0.0530 H   0  0  0  0  0  0  0  0  0  0  0  0
   -1.8442   -3.7253    0.1139 H   0  0  0  0  0  0  0  0  0  0  0  0
   -2.0168    4.0244    0.1662 H   0  0  0  0  0  0  0  0  0  0  0  0
  1  8  2  0  0  0  0
  2 13  1  0  0  0  0
  2 27  1  0  0  0  0
  3 15  2  0  0  0  0
  4  9  1  0  0  0  0
  4 15  1  0  0  0  0
  4 23  1  0  0  0  0
  5 10  1  0  0  0  0
  5 24  1  0  0  0  0
  5 25  1  0  0  0  0
  6  8  1  0  0  0  0
  6  9  2  0  0  0  0
  6 11  1  0  0  0  0
  7  8  1  0  0  0  0
  7 10  1  0  0  0  0
  7 16  1  0  0  0  0
  7 17  1  0  0  0  0
  9 12  1  0  0  0  0
 10 18  1  0  0  0  0
 10 19  1  0  0  0  0
 11 13  2  0  0  0  0
 11 20  1  0  0  0  0
 12 14  2  0  0  0  0
 12 21  1  0  0  0  0
 13 14  1  0  0  0  0
 14 22  1  0  0  0  0
 15 26  1  0  0  0  0
M  END
> <PUBCHEM_COMPOUND_CID>
440743

> <PUBCHEM_CONFORMER_RMSD>
0.6

> <PUBCHEM_CONFORMER_DIVERSEORDER>
1
27
43
16
29
53
60
32
50
59
17
39
9
48
37
36
23
10
34
45
58
15
49
46
21
30
5
20
19
31
44
61
3
35
2
24
18
38
56
25
41
40
47
42
14
6
51
55
8
26
4
22
52
57
7
54
11
28
12
13
33

> <PUBCHEM_MMFF94_PARTIAL_CHARGES>
23
1 -0.57
10 0.27
11 -0.15
12 -0.15
13 0.08
14 -0.15
15 0.57
2 -0.53
20 0.15
21 0.15
22 0.15
23 0.37
24 0.36
25 0.36
26 0.06
27 0.45
3 -0.57
4 -0.55
5 -0.99
6 0.09
7 0.06
8 0.42
9 0.12

> <PUBCHEM_EFFECTIVE_ROTOR_COUNT>
5

> <PUBCHEM_PHARMACOPHORE_FEATURES>
7
1 1 acceptor
1 2 donor
1 3 acceptor
1 4 donor
1 5 cation
1 5 donor
6 6 9 11 12 13 14 rings

> <PUBCHEM_HEAVY_ATOM_COUNT>
15

> <PUBCHEM_ATOM_DEF_STEREO_COUNT>
0

> <PUBCHEM_ATOM_UDEF_STEREO_COUNT>
0

> <PUBCHEM_BOND_DEF_STEREO_COUNT>
0

> <PUBCHEM_BOND_UDEF_STEREO_COUNT>
0

> <PUBCHEM_ISOTOPIC_ATOM_COUNT>
0

> <PUBCHEM_COMPONENT_COUNT>
1

> <PUBCHEM_CACTVS_TAUTO_COUNT>
18

> <PUBCHEM_CONFORMER_ID>
0006B9A700000001

> <PUBCHEM_MMFF94_ENERGY>
37.2767

> <PUBCHEM_FEATURE_SELFOVERLAP>
35.52

> <PUBCHEM_SHAPE_FINGERPRINT>
1 1 17330550363686161069
10608611 8 18117843424494147284
11265709 11 18267302041080066699
11357001 24 18411984667223372914
11680986 33 18120105991611632025
12251169 10 18341895238223490724
12532896 13 17976540829673985181
12553582 1 18194104231867192239
13140716 1 18336824191231905977
13380535 76 18190747620651703006
13955234 65 16825584298734208049
14178342 30 18270130123053342858
14420673 8 17978518864911777482
15042514 8 18340762723792770883
15099037 37 18408888421384520686
15490181 7 17760923339818691655
16945 1 18338503248545434597
193761 8 18122055412995783693
19591789 44 16466419393471541780
20510252 161 18117841224853934504
20871998 184 18260265239544745918
21501502 16 18268419149009356957
21650355 55 18411985736664727506
2334 1 18121494661537850541
23402539 116 18335432282952476823
23419403 2 17679042421278004617
23557571 272 18188754120218613726
23559900 14 18191014802594749726
23598294 1 18412553110656419354
257057 1 18195249910271908439
2748010 2 18191030001713792085
305870 269 17764871690100120016
3086196 2 18412269415307976506
3091708 16 9348891721820498329
54173680 148 18411698789847076934
7097593 13 17985560085524438066
7364860 26 17688583862766432953
81228 2 18338498816381817123
90316 7 18411697673155482856
9709674 26 18261674904104972790

> <PUBCHEM_SHAPE_MULTIPOLES>
281.12
5.8
3.33
0.71
8.2
1.05
-0.04
-2.15
1.57
-3.83
0.1
0.23
-0.09
0.23

> <PUBCHEM_SHAPE_SELFOVERLAP>
581.263

> <PUBCHEM_SHAPE_VOLUME>
158.4

> <PUBCHEM_COORDINATE_TYPE>
2
5
10

$$$$

