80131
  -OEChem-07051213103D

 38 39  0     1  0  0  0  0  0999 V2000
    0.9803    0.5655   -0.3284 O   0  0  0  0  0  0  0  0  0  0  0  0
    4.6765   -1.2226   -0.4207 O   0  0  0  0  0  0  0  0  0  0  0  0
    4.4293    1.5241    0.4456 O   0  0  0  0  0  0  0  0  0  0  0  0
   -0.1024   -1.4989   -0.4281 O   0  0  0  0  0  0  0  0  0  0  0  0
    2.2970   -2.7709    0.3677 O   0  0  0  0  0  0  0  0  0  0  0  0
    0.5710    3.2388    0.1635 O   0  0  0  0  0  0  0  0  0  0  0  0
   -5.1614    0.4613    0.5436 O   0  0  0  0  0  0  0  0  0  0  0  0
    3.5079   -0.6900    0.2048 C   0  0  1  0  0  0  0  0  0  0  0  0
    3.3905    0.7826   -0.1886 C   0  0  1  0  0  0  0  0  0  0  0  0
    2.2819   -1.4832   -0.2478 C   0  0  2  0  0  0  0  0  0  0  0  0
    2.0334    1.3509    0.2330 C   0  0  1  0  0  0  0  0  0  0  0  0
    0.9853   -0.7777    0.1497 C   0  0  1  0  0  0  0  0  0  0  0  0
    1.8463    2.7850   -0.2520 C   0  0  0  0  0  0  0  0  0  0  0  0
   -1.3574   -1.0113   -0.1865 C   0  0  0  0  0  0  0  0  0  0  0  0
   -1.8184   -0.9077    1.1221 C   0  0  0  0  0  0  0  0  0  0  0  0
   -2.1643   -0.6242   -1.2521 C   0  0  0  0  0  0  0  0  0  0  0  0
   -3.0989   -0.4121    1.3677 C   0  0  0  0  0  0  0  0  0  0  0  0
   -3.4448   -0.1285   -1.0066 C   0  0  0  0  0  0  0  0  0  0  0  0
   -3.9121   -0.0225    0.3035 C   0  0  0  0  0  0  0  0  0  0  0  0
   -5.9397    0.8415   -0.5902 C   0  0  0  0  0  0  0  0  0  0  0  0
    3.6592   -0.7973    1.2860 H   0  0  0  0  0  0  0  0  0  0  0  0
    3.5306    0.8826   -1.2720 H   0  0  0  0  0  0  0  0  0  0  0  0
    2.3156   -1.6491   -1.3311 H   0  0  0  0  0  0  0  0  0  0  0  0
    1.9262    1.3463    1.3264 H   0  0  0  0  0  0  0  0  0  0  0  0
    0.8845   -0.7844    1.2429 H   0  0  0  0  0  0  0  0  0  0  0  0
    1.8828    2.8465   -1.3447 H   0  0  0  0  0  0  0  0  0  0  0  0
    2.6032    3.4556    0.1646 H   0  0  0  0  0  0  0  0  0  0  0  0
    5.4340   -0.6897   -0.1238 H   0  0  0  0  0  0  0  0  0  0  0  0
    4.3090    1.4473    1.4074 H   0  0  0  0  0  0  0  0  0  0  0  0
    2.2693   -2.6451    1.3315 H   0  0  0  0  0  0  0  0  0  0  0  0
   -0.0925    2.6312   -0.2061 H   0  0  0  0  0  0  0  0  0  0  0  0
   -1.2071   -1.2232    1.9625 H   0  0  0  0  0  0  0  0  0  0  0  0
   -1.8030   -0.7052   -2.2736 H   0  0  0  0  0  0  0  0  0  0  0  0
   -3.4590   -0.3355    2.3900 H   0  0  0  0  0  0  0  0  0  0  0  0
   -4.0231    0.1559   -1.8791 H   0  0  0  0  0  0  0  0  0  0  0  0
   -6.1506   -0.0154   -1.2391 H   0  0  0  0  0  0  0  0  0  0  0  0
   -5.4775    1.6713   -1.1355 H   0  0  0  0  0  0  0  0  0  0  0  0
   -6.9027    1.2027   -0.2148 H   0  0  0  0  0  0  0  0  0  0  0  0
  1 11  1  0  0  0  0
  1 12  1  0  0  0  0
  2  8  1  0  0  0  0
  2 28  1  0  0  0  0
  3  9  1  0  0  0  0
  3 29  1  0  0  0  0
  4 12  1  0  0  0  0
  4 14  1  0  0  0  0
  5 10  1  0  0  0  0
  5 30  1  0  0  0  0
  6 13  1  0  0  0  0
  6 31  1  0  0  0  0
  7 19  1  0  0  0  0
  7 20  1  0  0  0  0
  8  9  1  0  0  0  0
  8 10  1  0  0  0  0
  8 21  1  0  0  0  0
  9 11  1  0  0  0  0
  9 22  1  0  0  0  0
 10 12  1  0  0  0  0
 10 23  1  0  0  0  0
 11 13  1  0  0  0  0
 11 24  1  0  0  0  0
 12 25  1  0  0  0  0
 13 26  1  0  0  0  0
 13 27  1  0  0  0  0
 14 15  2  0  0  0  0
 14 16  1  0  0  0  0
 15 17  1  0  0  0  0
 15 32  1  0  0  0  0
 16 18  2  0  0  0  0
 16 33  1  0  0  0  0
 17 19  2  0  0  0  0
 17 34  1  0  0  0  0
 18 19  1  0  0  0  0
 18 35  1  0  0  0  0
 20 36  1  0  0  0  0
 20 37  1  0  0  0  0
 20 38  1  0  0  0  0
M  END
> <PUBCHEM_COMPOUND_CID>
80131

> <PUBCHEM_CONFORMER_RMSD>
0.8

> <PUBCHEM_CONFORMER_DIVERSEORDER>
1
49
39
29
14
34
9
50
8
22
44
46
37
30
7
45
43
5
6
27
18
4
19
10
38
48
24
33
41
32
31
3
36
21
35
17
42
11
47
23
28
25
2
26
16
13
15
12
40
20

> <PUBCHEM_MMFF94_PARTIAL_CHARGES>
28
1 -0.56
10 0.28
11 0.28
12 0.56
13 0.28
14 0.08
15 -0.15
16 -0.15
17 -0.15
18 -0.15
19 0.08
2 -0.68
20 0.28
28 0.4
29 0.4
3 -0.68
30 0.4
31 0.4
32 0.15
33 0.15
34 0.15
35 0.15
4 -0.36
5 -0.68
6 -0.68
7 -0.36
8 0.28
9 0.28

> <PUBCHEM_EFFECTIVE_ROTOR_COUNT>
5.2

> <PUBCHEM_PHARMACOPHORE_FEATURES>
13
1 1 acceptor
1 2 acceptor
1 2 donor
1 3 acceptor
1 3 donor
1 4 acceptor
1 5 acceptor
1 5 donor
1 6 acceptor
1 6 donor
1 7 acceptor
6 1 8 9 10 11 12 rings
6 14 15 16 17 18 19 rings

> <PUBCHEM_HEAVY_ATOM_COUNT>
20

> <PUBCHEM_ATOM_DEF_STEREO_COUNT>
5

> <PUBCHEM_ATOM_UDEF_STEREO_COUNT>
0

> <PUBCHEM_BOND_DEF_STEREO_COUNT>
0

> <PUBCHEM_BOND_UDEF_STEREO_COUNT>
0

> <PUBCHEM_ISOTOPIC_ATOM_COUNT>
0

> <PUBCHEM_COMPONENT_COUNT>
1

> <PUBCHEM_CACTVS_TAUTO_COUNT>
1

> <PUBCHEM_CONFORMER_ID>
0001390300000001

> <PUBCHEM_MMFF94_ENERGY>
71.6471

> <PUBCHEM_FEATURE_SELFOVERLAP>
66.027

> <PUBCHEM_SHAPE_FINGERPRINT>
10366900 7 17775286045401031443
104564 63 18263638644609246264
10688039 33 17988362671337858157
11045977 3 18131344194870099123
11471102 20 18410855451828455526
11578080 2 13900466293365899580
11640471 11 17749944462611882641
12236239 1 17676489458278480127
12507557 5 18409446964706582931
12633257 1 17917444072382171145
13134695 92 18411985788446993182
13140716 1 18196094331039013576
13402501 40 18272939357866443005
13583140 156 18342731906601351219
14115302 16 17240770570928556527
14790565 3 17980754940433388988
14866123 147 16253648074964407187
15081414 286 18408598141825443812
15653759 3 17275106102470271603
1601671 61 18270116812860132068
1813 80 17825938506163113422
18219364 16 18199472073376657935
18335252 114 18264219161717705373
18785283 64 17986382300424515957
19049666 15 17773888664700621639
192875 21 18113613491302884409
20157964 124 18410014347424923719
20645476 183 17895198753751733215
20645477 70 18334575771705312230
20681677 76 18270112410460384675
21033648 29 17632591456782266421
21041028 32 18196096766042662686
21641784 216 17986370378360096788
221357 26 18341337798639420005
22289505 5 18341336694437075541
23175994 123 18341886441513322671
23184049 59 18408038507132587790
23559900 14 18411981373178863243
25 1 18342459197188297498
2838139 119 18264213685523769245
3060560 45 18040710390161490566
34934 24 18335425617268721596
351380 180 18412827984690258765
3524813 1 18060146461410703877
4409770 3 15231554173713077783
474 4 18337392634448121977
5104073 3 18339646646133490298
602551 16 16128084551604338139
7832392 63 18335143029679495990
8272917 22 18335418019029100215
9971528 1 18259987080767837216
9981440 41 17250916644917466256

> <PUBCHEM_SHAPE_MULTIPOLES>
370.51
10.17
2.49
0.99
7.83
1.43
-0.05
1.6
0.28
-2.8
-0.07
0.89
-0.15
0.31

> <PUBCHEM_SHAPE_SELFOVERLAP>
772.478

> <PUBCHEM_SHAPE_VOLUME>
208.5

> <PUBCHEM_COORDINATE_TYPE>
2
5
10

$$$$

