179647
  -OEChem-07051212552D

 36 36  0     1  0  0  0  0  0999 V2000
    4.2690   -0.1550    0.0000 O   0  0  0  0  0  0  0  0  0  0  0  0
    6.0010   -0.1550    0.0000 O   0  0  0  0  0  0  0  0  0  0  0  0
    4.2690   -3.1550    0.0000 O   0  0  0  0  0  0  0  0  0  0  0  0
    2.5369   -2.1550    0.0000 O   0  0  0  0  0  0  0  0  0  0  0  0
    6.0010   -2.1550    0.0000 O   0  0  0  0  0  0  0  0  0  0  0  0
    2.5369    0.8450    0.0000 O   0  0  0  0  0  0  0  0  0  0  0  0
    7.7331    2.8450    0.0000 O   0  0  0  0  0  0  0  0  0  0  0  0
    4.2690    1.8450    0.0000 N   0  0  0  0  0  0  0  0  0  0  0  0
    4.2690   -2.1550    0.0000 C   0  0  1  0  0  0  0  0  0  0  0  0
    3.4030   -1.6550    0.0000 C   0  0  1  0  0  0  0  0  0  0  0  0
    5.1350   -1.6550    0.0000 C   0  0  2  0  0  0  0  0  0  0  0  0
    3.4030   -0.6550    0.0000 C   0  0  1  0  0  0  0  0  0  0  0  0
    5.1350   -0.6550    0.0000 C   0  0  1  0  0  0  0  0  0  0  0  0
    2.5369   -0.1550    0.0000 C   0  0  0  0  0  0  0  0  0  0  0  0
    6.0010    0.8450    0.0000 C   0  0  1  0  0  0  0  0  0  0  0  0
    6.8671    1.3450    0.0000 C   0  0  0  0  0  0  0  0  0  0  0  0
    6.8671    2.3450    0.0000 C   0  0  0  0  0  0  0  0  0  0  0  0
    5.1350    1.3450    0.0000 C   0  0  0  0  0  0  0  0  0  0  0  0
    7.7331    0.8450    0.0000 C   0  0  0  0  0  0  0  0  0  0  0  0
    4.8059   -2.4650    0.0000 H   0  0  0  0  0  0  0  0  0  0  0  0
    3.4030   -2.2750    0.0000 H   0  0  0  0  0  0  0  0  0  0  0  0
    5.1350   -2.2750    0.0000 H   0  0  0  0  0  0  0  0  0  0  0  0
    3.4030   -0.0350    0.0000 H   0  0  0  0  0  0  0  0  0  0  0  0
    5.1350   -0.0350    0.0000 H   0  0  0  0  0  0  0  0  0  0  0  0
    1.9264   -0.0473    0.0000 H   0  0  0  0  0  0  0  0  0  0  0  0
    2.3249   -0.7376    0.0000 H   0  0  0  0  0  0  0  0  0  0  0  0
    3.7320   -3.4650    0.0000 H   0  0  0  0  0  0  0  0  0  0  0  0
    2.0000   -1.8450    0.0000 H   0  0  0  0  0  0  0  0  0  0  0  0
    6.5380   -1.8450    0.0000 H   0  0  0  0  0  0  0  0  0  0  0  0
    6.5380    0.5350    0.0000 H   0  0  0  0  0  0  0  0  0  0  0  0
    2.0000    1.1550    0.0000 H   0  0  0  0  0  0  0  0  0  0  0  0
    6.6550    2.9276    0.0000 H   0  0  0  0  0  0  0  0  0  0  0  0
    6.2565    2.2373    0.0000 H   0  0  0  0  0  0  0  0  0  0  0  0
    7.7331    0.2250    0.0000 H   0  0  0  0  0  0  0  0  0  0  0  0
    8.2700    1.1550    0.0000 H   0  0  0  0  0  0  0  0  0  0  0  0
    7.7331    3.4650    0.0000 H   0  0  0  0  0  0  0  0  0  0  0  0
  1 12  1  0  0  0  0
  1 13  1  0  0  0  0
 13  2  1  1  0  0  0
 15  2  1  6  0  0  0
  9  3  1  1  0  0  0
  3 27  1  0  0  0  0
 10  4  1  6  0  0  0
  4 28  1  0  0  0  0
 11  5  1  6  0  0  0
  5 29  1  0  0  0  0
  6 14  1  0  0  0  0
  6 31  1  0  0  0  0
  7 17  1  0  0  0  0
  7 36  1  0  0  0  0
  8 18  3  0  0  0  0
  9 10  1  0  0  0  0
  9 11  1  0  0  0  0
  9 20  1  0  0  0  0
 10 12  1  0  0  0  0
 10 21  1  0  0  0  0
 11 13  1  0  0  0  0
 11 22  1  0  0  0  0
 12 14  1  1  0  0  0
 12 23  1  0  0  0  0
 13 24  1  0  0  0  0
 14 25  1  0  0  0  0
 14 26  1  0  0  0  0
 15 16  1  0  0  0  0
 15 18  1  0  0  0  0
 15 30  1  0  0  0  0
 16 17  1  0  0  0  0
 16 19  2  0  0  0  0
 17 32  1  0  0  0  0
 17 33  1  0  0  0  0
 19 34  1  0  0  0  0
 19 35  1  0  0  0  0
M  END
> <PUBCHEM_COMPOUND_CID>
179647

> <PUBCHEM_COMPOUND_CANONICALIZED>
1

> <PUBCHEM_CACTVS_COMPLEXITY>
365

> <PUBCHEM_CACTVS_HBOND_ACCEPTOR>
8

> <PUBCHEM_CACTVS_HBOND_DONOR>
5

> <PUBCHEM_CACTVS_ROTATABLE_BOND>
5

> <PUBCHEM_CACTVS_SUBSKEYS>
AAADceByOAAAAAAAAAAAAAAAAAAAAAAAAAAkAAAAAAAAAAAAAAAAHgAACAAADBSxgAMACAAABgCQBgBCAAAAAAAgAAAAAAAAAAgRlAIAIQAiQAAFAAAHMAnAYAwAAAAAAAAAAAAAAAAAAAAAAAAAAAAAAA==

> <PUBCHEM_IUPAC_OPENEYE_NAME>
(2S)-3-(hydroxymethyl)-2-[(2R,3R,4S,5S,6R)-3,4,5-trihydroxy-6-(hydroxymethyl)tetrahydropyran-2-yl]oxy-but-3-enenitrile

> <PUBCHEM_IUPAC_CAS_NAME>
(2S)-3-(hydroxymethyl)-2-[[(2R,3R,4S,5S,6R)-3,4,5-trihydroxy-6-(hydroxymethyl)-2-oxanyl]oxy]-3-butenenitrile

> <PUBCHEM_IUPAC_NAME>
(2S)-3-(hydroxymethyl)-2-[(2R,3R,4S,5S,6R)-3,4,5-trihydroxy-6-(hydroxymethyl)oxan-2-yl]oxybut-3-enenitrile

> <PUBCHEM_IUPAC_SYSTEMATIC_NAME>
(2S)-3-(hydroxymethyl)-2-[(2R,3R,4S,5S,6R)-6-(hydroxymethyl)-3,4,5-tris(oxidanyl)oxan-2-yl]oxy-but-3-enenitrile

> <PUBCHEM_IUPAC_TRADITIONAL_NAME>
(2S)-3-methylol-2-[(2R,3R,4S,5S,6R)-3,4,5-trihydroxy-6-methylol-tetrahydropyran-2-yl]oxy-but-3-enenitrile

> <PUBCHEM_IUPAC_INCHI>
InChI=1S/C11H17NO7/c1-5(3-13)6(2-12)18-11-10(17)9(16)8(15)7(4-14)19-11/h6-11,13-17H,1,3-4H2/t6-,7-,8-,9+,10-,11-/m1/s1

> <PUBCHEM_IUPAC_INCHIKEY>
MQTLCYHUTVTHFO-MPVQUNCYSA-N

> <PUBCHEM_XLOGP3_AA>
-2

> <PUBCHEM_EXACT_MASS>
275.100502

> <PUBCHEM_MOLECULAR_FORMULA>
C11H17NO7

> <PUBCHEM_MOLECULAR_WEIGHT>
275.25518

> <PUBCHEM_OPENEYE_CAN_SMILES>
C=C(CO)C(C#N)OC1C(C(C(C(O1)CO)O)O)O

> <PUBCHEM_OPENEYE_ISO_SMILES>
C=C(CO)[C@@H](C#N)O[C@H]1[C@@H]([C@H]([C@@H]([C@H](O1)CO)O)O)O

> <PUBCHEM_CACTVS_TPSA>
143

> <PUBCHEM_MONOISOTOPIC_WEIGHT>
275.100502

> <PUBCHEM_TOTAL_CHARGE>
0

> <PUBCHEM_HEAVY_ATOM_COUNT>
19

> <PUBCHEM_ATOM_DEF_STEREO_COUNT>
6

> <PUBCHEM_ATOM_UDEF_STEREO_COUNT>
0

> <PUBCHEM_BOND_DEF_STEREO_COUNT>
0

> <PUBCHEM_BOND_UDEF_STEREO_COUNT>
0

> <PUBCHEM_ISOTOPIC_ATOM_COUNT>
0

> <PUBCHEM_COMPONENT_COUNT>
1

> <PUBCHEM_CACTVS_TAUTO_COUNT>
1

> <PUBCHEM_COORDINATE_TYPE>
1
5
255

> <PUBCHEM_BONDANNOTATIONS>
12  14  5
13  2  5
15  2  6
9  3  5
10  4  6
11  5  6

$$$$

