7070
  -OEChem-07051213133D

 26 27  0     0  0  0  0  0  0999 V2000
   -3.6674    2.3055   -0.5757 Cl  0  0  0  0  0  0  0  0  0  0  0  0
    3.6675    2.3056    0.5757 Cl  0  0  0  0  0  0  0  0  0  0  0  0
   -4.9223   -0.3601    0.1865 N   0  0  0  0  0  0  0  0  0  0  0  0
    4.9223   -0.3601   -0.1865 N   0  0  0  0  0  0  0  0  0  0  0  0
   -0.7229   -0.3226    0.0273 C   0  0  0  0  0  0  0  0  0  0  0  0
    0.7229   -0.3226   -0.0274 C   0  0  0  0  0  0  0  0  0  0  0  0
   -1.4327    0.8431   -0.2606 C   0  0  0  0  0  0  0  0  0  0  0  0
    1.4327    0.8432    0.2605 C   0  0  0  0  0  0  0  0  0  0  0  0
   -1.4069   -1.4900    0.3663 C   0  0  0  0  0  0  0  0  0  0  0  0
    1.4070   -1.4900   -0.3663 C   0  0  0  0  0  0  0  0  0  0  0  0
   -3.5108   -0.3258    0.1295 C   0  0  0  0  0  0  0  0  0  0  0  0
    3.5107   -0.3259   -0.1295 C   0  0  0  0  0  0  0  0  0  0  0  0
   -2.8266    0.8415   -0.2095 C   0  0  0  0  0  0  0  0  0  0  0  0
    2.8266    0.8415    0.2095 C   0  0  0  0  0  0  0  0  0  0  0  0
   -2.8009   -1.4916    0.4174 C   0  0  0  0  0  0  0  0  0  0  0  0
    2.8008   -1.4916   -0.4174 C   0  0  0  0  0  0  0  0  0  0  0  0
   -0.9288    1.7590   -0.5598 H   0  0  0  0  0  0  0  0  0  0  0  0
    0.9288    1.7592    0.5598 H   0  0  0  0  0  0  0  0  0  0  0  0
   -0.8967   -2.4129    0.6282 H   0  0  0  0  0  0  0  0  0  0  0  0
    0.8966   -2.4128   -0.6281 H   0  0  0  0  0  0  0  0  0  0  0  0
   -3.3213   -2.4068    0.6890 H   0  0  0  0  0  0  0  0  0  0  0  0
    3.3212   -2.4067   -0.6890 H   0  0  0  0  0  0  0  0  0  0  0  0
   -5.4527    0.4773   -0.0143 H   0  0  0  0  0  0  0  0  0  0  0  0
   -5.4006   -1.2144    0.4394 H   0  0  0  0  0  0  0  0  0  0  0  0
    5.4007   -1.2146   -0.4390 H   0  0  0  0  0  0  0  0  0  0  0  0
    5.4528    0.4772    0.0146 H   0  0  0  0  0  0  0  0  0  0  0  0
  1 13  1  0  0  0  0
  2 14  1  0  0  0  0
  3 11  1  0  0  0  0
  3 23  1  0  0  0  0
  3 24  1  0  0  0  0
  4 12  1  0  0  0  0
  4 25  1  0  0  0  0
  4 26  1  0  0  0  0
  5  6  1  0  0  0  0
  5  7  2  0  0  0  0
  5  9  1  0  0  0  0
  6  8  2  0  0  0  0
  6 10  1  0  0  0  0
  7 13  1  0  0  0  0
  7 17  1  0  0  0  0
  8 14  1  0  0  0  0
  8 18  1  0  0  0  0
  9 15  2  0  0  0  0
  9 19  1  0  0  0  0
 10 16  2  0  0  0  0
 10 20  1  0  0  0  0
 11 13  2  0  0  0  0
 11 15  1  0  0  0  0
 12 14  2  0  0  0  0
 12 16  1  0  0  0  0
 15 21  1  0  0  0  0
 16 22  1  0  0  0  0
M  END
> <PUBCHEM_COMPOUND_CID>
7070

> <PUBCHEM_CONFORMER_RMSD>
0.6

> <PUBCHEM_CONFORMER_DIVERSEORDER>
1
4
3
2

> <PUBCHEM_MMFF94_PARTIAL_CHARGES>
24
1 -0.18
10 -0.15
11 0.1
12 0.1
13 0.18
14 0.18
15 -0.15
16 -0.15
17 0.15
18 0.15
19 0.15
2 -0.18
20 0.15
21 0.15
22 0.15
23 0.4
24 0.4
25 0.4
26 0.4
3 -0.9
4 -0.9
7 -0.15
8 -0.15
9 -0.15

> <PUBCHEM_EFFECTIVE_ROTOR_COUNT>
1

> <PUBCHEM_PHARMACOPHORE_FEATURES>
6
1 3 cation
1 3 donor
1 4 cation
1 4 donor
6 5 7 9 11 13 15 rings
6 6 8 10 12 14 16 rings

> <PUBCHEM_HEAVY_ATOM_COUNT>
16

> <PUBCHEM_ATOM_DEF_STEREO_COUNT>
0

> <PUBCHEM_ATOM_UDEF_STEREO_COUNT>
0

> <PUBCHEM_BOND_DEF_STEREO_COUNT>
0

> <PUBCHEM_BOND_UDEF_STEREO_COUNT>
0

> <PUBCHEM_ISOTOPIC_ATOM_COUNT>
0

> <PUBCHEM_COMPONENT_COUNT>
1

> <PUBCHEM_CACTVS_TAUTO_COUNT>
1

> <PUBCHEM_CONFORMER_ID>
00001B9E00000001

> <PUBCHEM_MMFF94_ENERGY>
69.7723

> <PUBCHEM_FEATURE_SELFOVERLAP>
30.446

> <PUBCHEM_SHAPE_FINGERPRINT>
10608611 8 18410577287981633061
10646746 165 18342740727883479988
1100329 8 14519463460500687936
11132069 177 18272092638969658569
11471102 20 18261110755818232578
11615757 297 17676482830690145010
12236239 1 15769774649856238862
12403259 415 18410857659151904549
12500047 106 18342741853033029895
12507560 40 18410295787567441012
13081056 2 18409729543136629409
14415576 193 18410290290125236420
14866123 147 16677243695962282554
15196674 1 18410856563935094657
15219456 202 18409449180471831496
15375358 24 18411141328872415947
15442244 35 18193274328458254210
15536298 74 18335700507781161532
17802600 8 18410576184174778148
18175812 5 18411135797170829710
18186145 218 18260823855896958945
200 152 17748829622377864815
20279233 1 18410849962570399682
20510252 161 18410011057364248953
20528008 55 18411419488435093395
20645477 56 18271242824325192101
20645477 70 17894907447399527694
21065198 57 18411700993360498146
21267235 1 18410845568818842887
221490 88 18337664235749069922
22854114 59 18334294227829295888
23402539 116 18412551994428964007
23402655 69 18260833760118138365
23557571 272 18341887515323757701
23559900 14 18264210386577130222
2748010 2 18410570686637751462
3545911 37 18410571786133489844
4028521 119 18272660073354097533
4214541 1 18411418440315321633
474 4 16055454073675464788
495365 180 17896340123682168376
5104073 3 18412825810777197601
5281201 14 18334288807696684516
69090 78 18335423452526563943
7364860 26 18333730204661506080
77779 3 18410854364911520814
8809292 202 18343014454591807730
9709674 26 18409162233807629847

> <PUBCHEM_SHAPE_MULTIPOLES>
323.05
8.99
2.14
0.72
0
0.87
0
1.86
0
0
0
0
0.05
1.14

> <PUBCHEM_SHAPE_SELFOVERLAP>
684.798

> <PUBCHEM_SHAPE_VOLUME>
181.5

> <PUBCHEM_COORDINATE_TYPE>
2
5
10

$$$$

