967
  -OEChem-07051212442D

 15 15  0     0  0  0  0  0  0999 V2000
    6.8671   -1.0000    0.0000 O   0  0  0  0  0  0  0  0  0  0  0  0
    5.1350    2.0000    0.0000 O   0  0  0  0  0  0  0  0  0  0  0  0
    2.5369   -0.5000    0.0000 O   0  0  0  0  0  0  0  0  0  0  0  0
    3.4030   -2.0000    0.0000 O   0  0  0  0  0  0  0  0  0  0  0  0
    5.1350   -1.0000    0.0000 N   0  0  0  0  0  0  0  0  0  0  0  0
    6.0010    0.5000    0.0000 N   0  0  0  0  0  0  0  0  0  0  0  0
    4.2690   -0.5000    0.0000 C   0  0  0  0  0  0  0  0  0  0  0  0
    4.2690    0.5000    0.0000 C   0  0  0  0  0  0  0  0  0  0  0  0
    6.0010   -0.5000    0.0000 C   0  0  0  0  0  0  0  0  0  0  0  0
    5.1350    1.0000    0.0000 C   0  0  0  0  0  0  0  0  0  0  0  0
    3.4030   -1.0000    0.0000 C   0  0  0  0  0  0  0  0  0  0  0  0
    5.1350   -1.6200    0.0000 H   0  0  0  0  0  0  0  0  0  0  0  0
    3.7320    0.8100    0.0000 H   0  0  0  0  0  0  0  0  0  0  0  0
    6.5380    0.8100    0.0000 H   0  0  0  0  0  0  0  0  0  0  0  0
    2.0000   -0.8100    0.0000 H   0  0  0  0  0  0  0  0  0  0  0  0
  1  9  2  0  0  0  0
  2 10  2  0  0  0  0
  3 11  1  0  0  0  0
  3 15  1  0  0  0  0
  4 11  2  0  0  0  0
  5  7  1  0  0  0  0
  5  9  1  0  0  0  0
  5 12  1  0  0  0  0
  6  9  1  0  0  0  0
  6 10  1  0  0  0  0
  6 14  1  0  0  0  0
  7  8  2  0  0  0  0
  7 11  1  0  0  0  0
  8 10  1  0  0  0  0
  8 13  1  0  0  0  0
M  END
> <PUBCHEM_COMPOUND_CID>
967

> <PUBCHEM_COMPOUND_CANONICALIZED>
1

> <PUBCHEM_CACTVS_COMPLEXITY>
268

> <PUBCHEM_CACTVS_HBOND_ACCEPTOR>
4

> <PUBCHEM_CACTVS_HBOND_DONOR>
3

> <PUBCHEM_CACTVS_ROTATABLE_BOND>
1

> <PUBCHEM_CACTVS_SUBSKEYS>
AAADcYBjOAAAAAAAAAAAAAAAAAAAAAAAAAAgAAAAAAAAAAAAAAAAHgAQCAAACAiBgAABCALAAgCIACXSWACAAAAAAgAACACAAECCBAAAACAAEAAIFSIQEcAAAAAAAAAAAAAAAAAAAAAAAAAAAAAAAAAAAA==

> <PUBCHEM_IUPAC_OPENEYE_NAME>
2,4-dioxo-1H-pyrimidine-6-carboxylic acid

> <PUBCHEM_IUPAC_CAS_NAME>
2,4-dioxo-1H-pyrimidine-6-carboxylic acid

> <PUBCHEM_IUPAC_NAME>
2,4-dioxo-1H-pyrimidine-6-carboxylic acid

> <PUBCHEM_IUPAC_SYSTEMATIC_NAME>
2,4-bis(oxidanylidene)-1H-pyrimidine-6-carboxylic acid

> <PUBCHEM_IUPAC_TRADITIONAL_NAME>
orotic acid

> <PUBCHEM_IUPAC_INCHI>
InChI=1S/C5H4N2O4/c8-3-1-2(4(9)10)6-5(11)7-3/h1H,(H,9,10)(H2,6,7,8,11)

> <PUBCHEM_IUPAC_INCHIKEY>
PXQPEWDEAKTCGB-UHFFFAOYSA-N

> <PUBCHEM_XLOGP3>
-1.4

> <PUBCHEM_EXACT_MASS>
156.017107

> <PUBCHEM_MOLECULAR_FORMULA>
C5H4N2O4

> <PUBCHEM_MOLECULAR_WEIGHT>
156.09626

> <PUBCHEM_OPENEYE_CAN_SMILES>
C1=C(NC(=O)NC1=O)C(=O)O

> <PUBCHEM_OPENEYE_ISO_SMILES>
C1=C(NC(=O)NC1=O)C(=O)O

> <PUBCHEM_CACTVS_TPSA>
95.5

> <PUBCHEM_MONOISOTOPIC_WEIGHT>
156.017107

> <PUBCHEM_TOTAL_CHARGE>
0

> <PUBCHEM_HEAVY_ATOM_COUNT>
11

> <PUBCHEM_ATOM_DEF_STEREO_COUNT>
0

> <PUBCHEM_ATOM_UDEF_STEREO_COUNT>
0

> <PUBCHEM_BOND_DEF_STEREO_COUNT>
0

> <PUBCHEM_BOND_UDEF_STEREO_COUNT>
0

> <PUBCHEM_ISOTOPIC_ATOM_COUNT>
0

> <PUBCHEM_COMPONENT_COUNT>
1

> <PUBCHEM_CACTVS_TAUTO_COUNT>
9

> <PUBCHEM_COORDINATE_TYPE>
1
5
255

> <PUBCHEM_BONDANNOTATIONS>
5  7  8
5  9  8
6  10  8
6  9  8
7  8  8
8  10  8

$$$$

