442756
  -OEChem-07051212593D

 30 32  0     0  0  0  0  0  0999 V2000
   -3.1486   -2.0262    0.0003 O   0  0  0  0  0  0  0  0  0  0  0  0
   -0.6420   -2.5907   -0.0012 O   0  0  0  0  0  0  0  0  0  0  0  0
    0.6550    2.5933   -0.0008 O   0  0  0  0  0  0  0  0  0  0  0  0
    3.1649    2.0276    0.0008 O   0  0  0  0  0  0  0  0  0  0  0  0
    5.0752    0.0816    0.0011 O   0  0  0  0  0  0  0  0  0  0  0  0
   -1.4022   -0.3517   -0.0002 C   0  0  0  0  0  0  0  0  0  0  0  0
   -1.0486    0.9992   -0.0006 C   0  0  0  0  0  0  0  0  0  0  0  0
    1.4146    0.3545   -0.0004 C   0  0  0  0  0  0  0  0  0  0  0  0
    1.0609   -0.9964   -0.0005 C   0  0  0  0  0  0  0  0  0  0  0  0
   -0.3603   -1.3989   -0.0007 C   0  0  0  0  0  0  0  0  0  0  0  0
    0.3727    1.4017   -0.0011 C   0  0  0  0  0  0  0  0  0  0  0  0
   -2.7530   -0.7199    0.0004 C   0  0  0  0  0  0  0  0  0  0  0  0
   -3.7435    0.2627    0.0008 C   0  0  0  0  0  0  0  0  0  0  0  0
   -2.0457    1.9820   -0.0006 C   0  0  0  0  0  0  0  0  0  0  0  0
    2.7653    0.7228    0.0003 C   0  0  0  0  0  0  0  0  0  0  0  0
    2.0581   -1.9791   -0.0001 C   0  0  0  0  0  0  0  0  0  0  0  0
   -3.3906    1.6108    0.0002 C   0  0  0  0  0  0  0  0  0  0  0  0
    3.7558   -0.2597    0.0006 C   0  0  0  0  0  0  0  0  0  0  0  0
    3.4030   -1.6078    0.0003 C   0  0  0  0  0  0  0  0  0  0  0  0
   -5.1912   -0.1059    0.0014 C   0  0  0  0  0  0  0  0  0  0  0  0
   -1.7983    3.0402   -0.0010 H   0  0  0  0  0  0  0  0  0  0  0  0
    1.8109   -3.0373   -0.0001 H   0  0  0  0  0  0  0  0  0  0  0  0
   -4.1512    2.3872    0.0003 H   0  0  0  0  0  0  0  0  0  0  0  0
    4.1714   -2.3762    0.0006 H   0  0  0  0  0  0  0  0  0  0  0  0
   -5.4343   -0.6927    0.8935 H   0  0  0  0  0  0  0  0  0  0  0  0
   -5.8390    0.7773    0.0030 H   0  0  0  0  0  0  0  0  0  0  0  0
   -5.4355   -0.6905   -0.8917 H   0  0  0  0  0  0  0  0  0  0  0  0
   -2.3848   -2.6216    0.0011 H   0  0  0  0  0  0  0  0  0  0  0  0
    2.4021    2.6244    0.0015 H   0  0  0  0  0  0  0  0  0  0  0  0
    5.1396    1.0525    0.0012 H   0  0  0  0  0  0  0  0  0  0  0  0
  1 12  1  0  0  0  0
  1 28  1  0  0  0  0
  2 10  2  0  0  0  0
  3 11  2  0  0  0  0
  4 15  1  0  0  0  0
  4 29  1  0  0  0  0
  5 18  1  0  0  0  0
  5 30  1  0  0  0  0
  6  7  2  0  0  0  0
  6 10  1  0  0  0  0
  6 12  1  0  0  0  0
  7 11  1  0  0  0  0
  7 14  1  0  0  0  0
  8  9  2  0  0  0  0
  8 11  1  0  0  0  0
  8 15  1  0  0  0  0
  9 10  1  0  0  0  0
  9 16  1  0  0  0  0
 12 13  2  0  0  0  0
 13 17  1  0  0  0  0
 13 20  1  0  0  0  0
 14 17  2  0  0  0  0
 14 21  1  0  0  0  0
 15 18  2  0  0  0  0
 16 19  2  0  0  0  0
 16 22  1  0  0  0  0
 17 23  1  0  0  0  0
 18 19  1  0  0  0  0
 19 24  1  0  0  0  0
 20 25  1  0  0  0  0
 20 26  1  0  0  0  0
 20 27  1  0  0  0  0
M  END
> <PUBCHEM_COMPOUND_CID>
442756

> <PUBCHEM_CONFORMER_RMSD>
0.6

> <PUBCHEM_CONFORMER_DIVERSEORDER>
1

> <PUBCHEM_MMFF94_PARTIAL_CHARGES>
27
1 -0.53
10 0.4
11 0.4
12 0.08
13 -0.14
14 -0.15
15 0.08
16 -0.15
17 -0.15
18 0.08
19 -0.15
2 -0.57
20 0.14
21 0.15
22 0.15
23 0.15
24 0.15
28 0.45
29 0.45
3 -0.57
30 0.45
4 -0.53
5 -0.53
6 0.09
7 0.09
8 0.09
9 0.09

> <PUBCHEM_EFFECTIVE_ROTOR_COUNT>
0

> <PUBCHEM_PHARMACOPHORE_FEATURES>
8
1 1 donor
1 2 acceptor
1 3 acceptor
1 4 donor
1 5 donor
6 6 7 12 13 14 17 rings
6 6 7 8 9 10 11 rings
6 8 9 15 16 18 19 rings

> <PUBCHEM_HEAVY_ATOM_COUNT>
20

> <PUBCHEM_ATOM_DEF_STEREO_COUNT>
0

> <PUBCHEM_ATOM_UDEF_STEREO_COUNT>
0

> <PUBCHEM_BOND_DEF_STEREO_COUNT>
0

> <PUBCHEM_BOND_UDEF_STEREO_COUNT>
0

> <PUBCHEM_ISOTOPIC_ATOM_COUNT>
0

> <PUBCHEM_COMPONENT_COUNT>
1

> <PUBCHEM_CACTVS_TAUTO_COUNT>
97

> <PUBCHEM_CONFORMER_ID>
0006C18400000001

> <PUBCHEM_MMFF94_ENERGY>
63.7511

> <PUBCHEM_FEATURE_SELFOVERLAP>
40.643

> <PUBCHEM_SHAPE_FINGERPRINT>
10411042 1 15167982675427928197
10608611 8 18410858771616726664
10616163 171 18409165493608497783
10967382 1 18410856572582739719
11132069 177 18410579508489962920
11471102 20 18411140246540514542
11806522 49 18411420618143140277
12011746 2 18410855473018351767
13140716 1 17978229357232035689
13221675 6 18410575088968790622
13862211 1 18410862070157047139
14790565 3 18411127022389730604
15196674 1 18338516464127967237
15230672 131 13154330552043916411
15442244 35 18266459991329873650
15536298 74 18334858333128887144
16945 1 18266740181857992709
19591789 44 18338797930678663367
200 152 18113624499498976069
20510252 161 18189053255821556441
21029758 11 18335144210858896713
21267235 1 18410565206254414703
21421861 104 17771911803144923866
221490 88 18341043013020793746
2334 1 18410575097547980805
23402539 116 18334866008346514038
23463225 33 18340205288366191940
23559900 14 18335425612842463856
238 59 15901262243667697605
2748010 2 18410856611179397261
2871803 45 18342180002812697919
335352 9 18410573993746673911
34934 24 18411425041564102003
350125 39 18411134757630832593
3545911 37 18410572898524731758
4214541 1 18410574032596785313
474 4 17560792187662577180
5104073 3 18410575076110068561
537710 114 18410569600100858644
69090 78 18407763637905398471
7364860 26 18335703801894769432
8809292 202 18272084968400758771
9709674 26 18408880767320549030
9981440 41 17406551407933772640

> <PUBCHEM_SHAPE_MULTIPOLES>
382.24
8.22
2.51
0.59
0.67
0.03
0
-0.14
0
-0.12
0
0.03
0
0

> <PUBCHEM_SHAPE_SELFOVERLAP>
868.413

> <PUBCHEM_SHAPE_VOLUME>
197.9

> <PUBCHEM_COORDINATE_TYPE>
2
5
10

$$$$

