11054778
  -OEChem-07051213093D

 37 40  0     1  0  0  0  0  0999 V2000
    0.0111    1.6383    0.6864 O   0  0  0  0  0  0  0  0  0  0  0  0
    2.7588    2.3022    0.2581 O   0  0  0  0  0  0  0  0  0  0  0  0
   -3.5796    2.6590   -0.7384 O   0  0  0  0  0  0  0  0  0  0  0  0
   -0.0135   -3.5638    0.3705 N   0  0  0  0  0  0  0  0  0  0  0  0
   -1.0374   -0.5246    0.2746 C   0  0  1  0  0  0  0  0  0  0  0  0
   -1.0835    0.7837    1.1152 C   0  0  2  0  0  0  0  0  0  0  0  0
    0.4412   -0.5370    0.0295 C   0  0  0  0  0  0  0  0  0  0  0  0
   -1.5459   -1.7134    1.1147 C   0  0  0  0  0  0  0  0  0  0  0  0
   -2.3940    1.5541    1.0255 C   0  0  0  0  0  0  0  0  0  0  0  0
   -1.7930   -0.3897   -1.0312 C   0  0  0  0  0  0  0  0  0  0  0  0
    0.9540    0.7381    0.2563 C   0  0  0  0  0  0  0  0  0  0  0  0
    1.2650   -1.5666   -0.4099 C   0  0  0  0  0  0  0  0  0  0  0  0
   -1.3933   -3.1031    0.4847 C   0  0  0  0  0  0  0  0  0  0  0  0
    0.7392   -2.9427   -0.7159 C   0  0  0  0  0  0  0  0  0  0  0  0
   -2.8911    1.7003   -0.3925 C   0  0  0  0  0  0  0  0  0  0  0  0
   -2.6101    0.6167   -1.3570 C   0  0  0  0  0  0  0  0  0  0  0  0
    2.2811    1.0519    0.0430 C   0  0  0  0  0  0  0  0  0  0  0  0
    2.6207   -1.2605   -0.6228 C   0  0  0  0  0  0  0  0  0  0  0  0
    3.1219    0.0330   -0.3982 C   0  0  0  0  0  0  0  0  0  0  0  0
    4.1482    2.5242    0.0075 C   0  0  0  0  0  0  0  0  0  0  0  0
   -0.8915    0.5751    2.1788 H   0  0  0  0  0  0  0  0  0  0  0  0
   -2.6109   -1.5614    1.3378 H   0  0  0  0  0  0  0  0  0  0  0  0
   -1.0367   -1.7270    2.0890 H   0  0  0  0  0  0  0  0  0  0  0  0
   -2.2572    2.5611    1.4360 H   0  0  0  0  0  0  0  0  0  0  0  0
   -3.1782    1.0441    1.5959 H   0  0  0  0  0  0  0  0  0  0  0  0
   -1.6416   -1.1654   -1.7790 H   0  0  0  0  0  0  0  0  0  0  0  0
   -1.9103   -3.8091    1.1470 H   0  0  0  0  0  0  0  0  0  0  0  0
   -1.9137   -3.1702   -0.4774 H   0  0  0  0  0  0  0  0  0  0  0  0
    0.1599   -2.9221   -1.6471 H   0  0  0  0  0  0  0  0  0  0  0  0
    1.5942   -3.6002   -0.9184 H   0  0  0  0  0  0  0  0  0  0  0  0
   -0.0346   -4.5705    0.2020 H   0  0  0  0  0  0  0  0  0  0  0  0
   -3.0948    0.6578   -2.3255 H   0  0  0  0  0  0  0  0  0  0  0  0
    3.3046   -2.0283   -0.9785 H   0  0  0  0  0  0  0  0  0  0  0  0
    4.1802    0.1737   -0.5935 H   0  0  0  0  0  0  0  0  0  0  0  0
    4.3955    2.3622   -1.0471 H   0  0  0  0  0  0  0  0  0  0  0  0
    4.7760    1.9252    0.6758 H   0  0  0  0  0  0  0  0  0  0  0  0
    4.3533    3.5765    0.2291 H   0  0  0  0  0  0  0  0  0  0  0  0
  1  6  1  0  0  0  0
  1 11  1  0  0  0  0
  2 17  1  0  0  0  0
  2 20  1  0  0  0  0
  3 15  2  0  0  0  0
  4 13  1  0  0  0  0
  4 14  1  0  0  0  0
  4 31  1  0  0  0  0
  5  6  1  0  0  0  0
  5  7  1  0  0  0  0
  5  8  1  0  0  0  0
  5 10  1  0  0  0  0
  6  9  1  0  0  0  0
  6 21  1  0  0  0  0
  7 11  1  0  0  0  0
  7 12  2  0  0  0  0
  8 13  1  0  0  0  0
  8 22  1  0  0  0  0
  8 23  1  0  0  0  0
  9 15  1  0  0  0  0
  9 24  1  0  0  0  0
  9 25  1  0  0  0  0
 10 16  2  0  0  0  0
 10 26  1  0  0  0  0
 11 17  2  0  0  0  0
 12 14  1  0  0  0  0
 12 18  1  0  0  0  0
 13 27  1  0  0  0  0
 13 28  1  0  0  0  0
 14 29  1  0  0  0  0
 14 30  1  0  0  0  0
 15 16  1  0  0  0  0
 16 32  1  0  0  0  0
 17 19  1  0  0  0  0
 18 19  2  0  0  0  0
 18 33  1  0  0  0  0
 19 34  1  0  0  0  0
 20 35  1  0  0  0  0
 20 36  1  0  0  0  0
 20 37  1  0  0  0  0
M  END
> <PUBCHEM_COMPOUND_CID>
11054778

> <PUBCHEM_CONFORMER_RMSD>
0.6

> <PUBCHEM_CONFORMER_DIVERSEORDER>
1

> <PUBCHEM_MMFF94_PARTIAL_CHARGES>
24
1 -0.36
10 -0.29
11 0.08
12 -0.14
13 0.27
14 0.41
15 0.49
16 -0.14
17 0.08
18 -0.15
19 -0.15
2 -0.36
20 0.28
26 0.15
3 -0.57
31 0.36
32 0.15
33 0.15
34 0.15
4 -0.9
5 0.28
6 0.28
7 -0.14
9 0.06

> <PUBCHEM_EFFECTIVE_ROTOR_COUNT>
2.2

> <PUBCHEM_PHARMACOPHORE_FEATURES>
9
1 1 acceptor
1 2 acceptor
1 3 acceptor
1 4 cation
1 4 donor
5 1 5 6 7 11 rings
6 5 6 9 10 15 16 rings
6 7 11 12 17 18 19 rings
7 4 5 7 8 12 13 14 rings

> <PUBCHEM_HEAVY_ATOM_COUNT>
20

> <PUBCHEM_ATOM_DEF_STEREO_COUNT>
2

> <PUBCHEM_ATOM_UDEF_STEREO_COUNT>
0

> <PUBCHEM_BOND_DEF_STEREO_COUNT>
0

> <PUBCHEM_BOND_UDEF_STEREO_COUNT>
0

> <PUBCHEM_ISOTOPIC_ATOM_COUNT>
0

> <PUBCHEM_COMPONENT_COUNT>
1

> <PUBCHEM_CACTVS_TAUTO_COUNT>
2

> <PUBCHEM_CONFORMER_ID>
00A8AEBA00000001

> <PUBCHEM_MMFF94_ENERGY>
60.3315

> <PUBCHEM_FEATURE_SELFOVERLAP>
46.072

> <PUBCHEM_SHAPE_FINGERPRINT>
10165383 225 17910070841874597012
10948715 1 18411986874889141669
10967382 1 18049431849267710170
12173636 292 18413387618533393061
12403814 3 17838897027689115290
12553582 1 17112959228784479531
12730499 353 18198619029260039865
13027679 85 17470161462540107411
13140716 1 18336817671766553682
13583140 156 17131283367524248384
14614273 12 18193548974220608354
15490181 8 18335421291904631066
15852999 172 18340225032262253906
16945 1 18120084237169306394
17357779 13 17541954086965835183
18186145 218 18264768933787958253
18219364 16 18268973448930065505
19765921 60 18335717060585152913
20510252 161 18192710051096187946
21029758 27 17043724622345009514
21041028 32 16611090487759676491
21160774 45 17975691688848481094
21639500 275 18124317370116499535
22112679 90 16963516906898006923
22182313 1 18262785264977887246
2255824 54 18119533381901819431
22907989 373 17981888536345983420
2334 1 18335414617599059272
23388829 49 17256813819534936827
23419403 2 14500237834100994857
23493267 7 18270409278483820264
23559900 14 18261097613988726494
23598291 2 17248923685660538265
238 59 18196953260274041063
25 1 18197496448681909079
2748010 2 18336531738629697994
34934 24 16896797463076673962
350125 39 18339906143994492654
352729 6 18335132094761052818
474 4 18337114586839872457
81228 2 17986100808478705459
84936 182 18189345730199345896
90316 7 17618514177034976354
9981440 41 18263381212917104808

> <PUBCHEM_SHAPE_MULTIPOLES>
389
5.23
3.8
1.08
2.85
2.08
0.04
-4.88
0.89
-0.35
-0.17
-0.7
-0.04
0.87

> <PUBCHEM_SHAPE_SELFOVERLAP>
863.672

> <PUBCHEM_SHAPE_VOLUME>
204.4

> <PUBCHEM_COORDINATE_TYPE>
2
5
10

$$$$

