9667
  -OEChem-06261203552D

  8  7  0     0  0  0  0  0  0999 V2000
    2.0000    0.2500    0.0000 F   0  0  0  0  0  0  0  0  0  0  0  0
    2.8660   -1.2500    0.0000 F   0  0  0  0  0  0  0  0  0  0  0  0
    4.5981   -0.2500    0.0000 F   0  0  0  0  0  0  0  0  0  0  0  0
    3.7320    1.2500    0.0000 F   0  0  0  0  0  0  0  0  0  0  0  0
    2.8660   -0.2500    0.0000 C   0  0  0  0  0  0  0  0  0  0  0  0
    3.7320    0.2500    0.0000 C   0  0  0  0  0  0  0  0  0  0  0  0
    2.8660    0.3700    0.0000 H   0  0  0  0  0  0  0  0  0  0  0  0
    3.7320   -0.3700    0.0000 H   0  0  0  0  0  0  0  0  0  0  0  0
  1  5  1  0  0  0  0
  2  5  1  0  0  0  0
  3  6  1  0  0  0  0
  4  6  1  0  0  0  0
  5  6  1  0  0  0  0
  5  7  1  0  0  0  0
  6  8  1  0  0  0  0
M  END
> <PUBCHEM_COMPOUND_CID>
9667

> <PUBCHEM_COMPOUND_CANONICALIZED>
1

> <PUBCHEM_CACTVS_COMPLEXITY>
26.5

> <PUBCHEM_CACTVS_HBOND_ACCEPTOR>
4

> <PUBCHEM_CACTVS_HBOND_DONOR>
0

> <PUBCHEM_CACTVS_ROTATABLE_BOND>
1

> <PUBCHEM_CACTVS_SUBSKEYS>
AAADcQBAAcAAAAAAAAAAAAAAAAAAAAAAAAAAAAAAAAAAAAAAAAAAGQAAAAAAAACAABAAAAAAAAAAAAAAAAAAAAAAAAAAAAAAAAAAAAAAAAAAAAAAAAAAAAAAAAAAAAAAAAAAAAAAAAAAAAAAAAAAAAAAAA==

> <PUBCHEM_IUPAC_OPENEYE_NAME>
1,1,2,2-tetrafluoroethane

> <PUBCHEM_IUPAC_CAS_NAME>
1,1,2,2-tetrafluoroethane

> <PUBCHEM_IUPAC_NAME>
1,1,2,2-tetrafluoroethane

> <PUBCHEM_IUPAC_SYSTEMATIC_NAME>
1,1,2,2-tetrakis(fluoranyl)ethane

> <PUBCHEM_IUPAC_TRADITIONAL_NAME>
1,1,2,2-tetrafluoroethane

> <PUBCHEM_IUPAC_INCHI>
InChI=1S/C2H2F4/c3-1(4)2(5)6/h1-2H

> <PUBCHEM_IUPAC_INCHIKEY>
WXGNWUVNYMJENI-UHFFFAOYSA-N

> <PUBCHEM_XLOGP3_AA>
1.9

> <PUBCHEM_EXACT_MASS>
102.009263

> <PUBCHEM_MOLECULAR_FORMULA>
C2H2F4

> <PUBCHEM_MOLECULAR_WEIGHT>
102.030893

> <PUBCHEM_OPENEYE_CAN_SMILES>
C(C(F)F)(F)F

> <PUBCHEM_OPENEYE_ISO_SMILES>
C(C(F)F)(F)F

> <PUBCHEM_CACTVS_TPSA>
0

> <PUBCHEM_MONOISOTOPIC_WEIGHT>
102.009263

> <PUBCHEM_TOTAL_CHARGE>
0

> <PUBCHEM_HEAVY_ATOM_COUNT>
6

> <PUBCHEM_ATOM_DEF_STEREO_COUNT>
0

> <PUBCHEM_ATOM_UDEF_STEREO_COUNT>
0

> <PUBCHEM_BOND_DEF_STEREO_COUNT>
0

> <PUBCHEM_BOND_UDEF_STEREO_COUNT>
0

> <PUBCHEM_ISOTOPIC_ATOM_COUNT>
0

> <PUBCHEM_COMPONENT_COUNT>
1

> <PUBCHEM_CACTVS_TAUTO_COUNT>
1

> <PUBCHEM_COORDINATE_TYPE>
1
5
255

$$$$

