47205283
  -OEChem-06241222582D

 37 37  0     0  0  0  0  0  0999 V2000
    2.8660   -3.5670    0.0000 S   0  0  0  0  0  0  0  0  0  0  0  0
    2.3660   -4.4330    0.0000 O   0  0  0  0  0  0  0  0  0  0  0  0
    3.3660   -4.4330    0.0000 O   0  0  0  0  0  0  0  0  0  0  0  0
    4.5981   -0.5670    0.0000 O   0  0  0  0  0  0  0  0  0  0  0  0
    5.4641    3.9330    0.0000 O   0  0  0  0  0  0  0  0  0  0  0  0
    2.8660   -1.5670    0.0000 N   0  0  0  0  0  0  0  0  0  0  0  0
    3.7320    0.9330    0.0000 N   0  0  0  0  0  0  0  0  0  0  0  0
    2.0000   -2.0670    0.0000 C   0  0  0  0  0  0  0  0  0  0  0  0
    3.7320   -2.0670    0.0000 C   0  0  0  0  0  0  0  0  0  0  0  0
    2.0000   -3.0670    0.0000 C   0  0  0  0  0  0  0  0  0  0  0  0
    3.7320   -3.0670    0.0000 C   0  0  0  0  0  0  0  0  0  0  0  0
    2.8660   -0.5670    0.0000 C   0  0  0  0  0  0  0  0  0  0  0  0
    3.7320   -0.0670    0.0000 C   0  0  0  0  0  0  0  0  0  0  0  0
    4.5981    1.4330    0.0000 C   0  0  0  0  0  0  0  0  0  0  0  0
    4.5981    2.4330    0.0000 C   0  0  0  0  0  0  0  0  0  0  0  0
    5.4641    2.9330    0.0000 C   0  0  0  0  0  0  0  0  0  0  0  0
    6.3301    4.4330    0.0000 C   0  0  0  0  0  0  0  0  0  0  0  0
    1.7880   -1.4844    0.0000 H   0  0  0  0  0  0  0  0  0  0  0  0
    1.3894   -2.1747    0.0000 H   0  0  0  0  0  0  0  0  0  0  0  0
    4.3426   -2.1747    0.0000 H   0  0  0  0  0  0  0  0  0  0  0  0
    3.9441   -1.4844    0.0000 H   0  0  0  0  0  0  0  0  0  0  0  0
    1.3894   -2.9593    0.0000 H   0  0  0  0  0  0  0  0  0  0  0  0
    1.7880   -3.6496    0.0000 H   0  0  0  0  0  0  0  0  0  0  0  0
    3.9441   -3.6496    0.0000 H   0  0  0  0  0  0  0  0  0  0  0  0
    4.3426   -2.9593    0.0000 H   0  0  0  0  0  0  0  0  0  0  0  0
    2.6540    0.0156    0.0000 H   0  0  0  0  0  0  0  0  0  0  0  0
    2.2554   -0.6746    0.0000 H   0  0  0  0  0  0  0  0  0  0  0  0
    3.1951    1.2430    0.0000 H   0  0  0  0  0  0  0  0  0  0  0  0
    4.8101    0.8504    0.0000 H   0  0  0  0  0  0  0  0  0  0  0  0
    5.2087    1.5407    0.0000 H   0  0  0  0  0  0  0  0  0  0  0  0
    4.3860    3.0156    0.0000 H   0  0  0  0  0  0  0  0  0  0  0  0
    3.9875    2.3253    0.0000 H   0  0  0  0  0  0  0  0  0  0  0  0
    5.6762    2.3504    0.0000 H   0  0  0  0  0  0  0  0  0  0  0  0
    6.0747    3.0407    0.0000 H   0  0  0  0  0  0  0  0  0  0  0  0
    6.6401    3.8961    0.0000 H   0  0  0  0  0  0  0  0  0  0  0  0
    6.8671    4.7430    0.0000 H   0  0  0  0  0  0  0  0  0  0  0  0
    6.0201    4.9700    0.0000 H   0  0  0  0  0  0  0  0  0  0  0  0
  1  2  2  0  0  0  0
  1  3  2  0  0  0  0
  1 10  1  0  0  0  0
  1 11  1  0  0  0  0
  4 13  2  0  0  0  0
  5 16  1  0  0  0  0
  5 17  1  0  0  0  0
  6  8  1  0  0  0  0
  6  9  1  0  0  0  0
  6 12  1  0  0  0  0
  7 13  1  0  0  0  0
  7 14  1  0  0  0  0
  7 28  1  0  0  0  0
  8 10  1  0  0  0  0
  8 18  1  0  0  0  0
  8 19  1  0  0  0  0
  9 11  1  0  0  0  0
  9 20  1  0  0  0  0
  9 21  1  0  0  0  0
 10 22  1  0  0  0  0
 10 23  1  0  0  0  0
 11 24  1  0  0  0  0
 11 25  1  0  0  0  0
 12 13  1  0  0  0  0
 12 26  1  0  0  0  0
 12 27  1  0  0  0  0
 14 15  1  0  0  0  0
 14 29  1  0  0  0  0
 14 30  1  0  0  0  0
 15 16  1  0  0  0  0
 15 31  1  0  0  0  0
 15 32  1  0  0  0  0
 16 33  1  0  0  0  0
 16 34  1  0  0  0  0
 17 35  1  0  0  0  0
 17 36  1  0  0  0  0
 17 37  1  0  0  0  0
M  END
> <PUBCHEM_COMPOUND_CID>
47205283

> <PUBCHEM_COMPOUND_CANONICALIZED>
1

> <PUBCHEM_CACTVS_COMPLEXITY>
323

> <PUBCHEM_CACTVS_HBOND_ACCEPTOR>
5

> <PUBCHEM_CACTVS_HBOND_DONOR>
1

> <PUBCHEM_CACTVS_ROTATABLE_BOND>
6

> <PUBCHEM_CACTVS_SUBSKEYS>
AAADceBzOABAAAAAAAAAAAAAAAAAAAAAAAAsAAAAAAAAAAAAAAAAHgQQAAAACADlwAaCAAPABAoIAAEQEHBAAAAAABAAAICIAAAAQAAAACAUAAACFgCgAAAAAAAAAAAAAAAAAAAAAAAAAAAAAAAAAAAAAA==

> <PUBCHEM_IUPAC_OPENEYE_NAME>
2-(1,1-dioxo-1,4-thiazinan-4-yl)-N-(3-methoxypropyl)acetamide

> <PUBCHEM_IUPAC_CAS_NAME>
2-(1,1-dioxo-1,4-thiazinan-4-yl)-N-(3-methoxypropyl)acetamide

> <PUBCHEM_IUPAC_NAME>
2-(1,1-dioxo-1,4-thiazinan-4-yl)-N-(3-methoxypropyl)acetamide

> <PUBCHEM_IUPAC_SYSTEMATIC_NAME>
2-[1,1-bis(oxidanylidene)-1,4-thiazinan-4-yl]-N-(3-methoxypropyl)ethanamide

> <PUBCHEM_IUPAC_TRADITIONAL_NAME>
2-(1,1-diketo-1,4-thiazinan-4-yl)-N-(3-methoxypropyl)acetamide

> <PUBCHEM_IUPAC_INCHI>
InChI=1S/C10H20N2O4S/c1-16-6-2-3-11-10(13)9-12-4-7-17(14,15)8-5-12/h2-9H2,1H3,(H,11,13)

> <PUBCHEM_IUPAC_INCHIKEY>
MOWOABFNGZSBRY-UHFFFAOYSA-N

> <PUBCHEM_XLOGP3_AA>
-1

> <PUBCHEM_EXACT_MASS>
264.114378

> <PUBCHEM_MOLECULAR_FORMULA>
C10H20N2O4S

> <PUBCHEM_MOLECULAR_WEIGHT>
264.3418

> <PUBCHEM_OPENEYE_CAN_SMILES>
COCCCNC(=O)CN1CCS(=O)(=O)CC1

> <PUBCHEM_OPENEYE_ISO_SMILES>
COCCCNC(=O)CN1CCS(=O)(=O)CC1

> <PUBCHEM_CACTVS_TPSA>
84.1

> <PUBCHEM_MONOISOTOPIC_WEIGHT>
264.114378

> <PUBCHEM_TOTAL_CHARGE>
0

> <PUBCHEM_HEAVY_ATOM_COUNT>
17

> <PUBCHEM_ATOM_DEF_STEREO_COUNT>
0

> <PUBCHEM_ATOM_UDEF_STEREO_COUNT>
0

> <PUBCHEM_BOND_DEF_STEREO_COUNT>
0

> <PUBCHEM_BOND_UDEF_STEREO_COUNT>
0

> <PUBCHEM_ISOTOPIC_ATOM_COUNT>
0

> <PUBCHEM_COMPONENT_COUNT>
1

> <PUBCHEM_CACTVS_TAUTO_COUNT>
2

> <PUBCHEM_COORDINATE_TYPE>
1
5
255

$$$$

