452855
  -OEChem-07051213003D

 52 54  0     1  0  0  0  0  0999 V2000
    0.3172    3.6480    0.6878 O   0  0  0  0  0  0  0  0  0  0  0  0
   -1.6281    1.8072   -1.5438 O   0  0  0  0  0  0  0  0  0  0  0  0
   -1.3283    4.4819   -0.6750 O   0  0  0  0  0  0  0  0  0  0  0  0
    5.5191    0.0755    0.5767 O   0  0  0  0  0  0  0  0  0  0  0  0
   -5.1878   -1.6806   -1.0999 O   0  0  0  0  0  0  0  0  0  0  0  0
    5.0867   -2.6222    0.0645 O   0  0  0  0  0  0  0  0  0  0  0  0
   -3.9938   -3.5772    0.5445 O   0  0  0  0  0  0  0  0  0  0  0  0
    0.1212    1.3753    0.1274 C   0  0  2  0  0  0  0  0  0  0  0  0
   -1.1811    2.0871   -0.2355 C   0  0  2  0  0  0  0  0  0  0  0  0
    0.7353    2.3462    1.1216 C   0  0  0  0  0  0  0  0  0  0  0  0
    1.0531    1.1579   -1.0695 C   0  0  0  0  0  0  0  0  0  0  0  0
   -2.3152    1.8066    0.7475 C   0  0  0  0  0  0  0  0  0  0  0  0
   -0.7759    3.5387   -0.1305 C   0  0  0  0  0  0  0  0  0  0  0  0
    2.1318    0.1514   -0.7650 C   0  0  0  0  0  0  0  0  0  0  0  0
   -2.7654    0.3701    0.6903 C   0  0  0  0  0  0  0  0  0  0  0  0
    3.3370    0.5834   -0.2305 C   0  0  0  0  0  0  0  0  0  0  0  0
    1.9041   -1.1923   -1.0246 C   0  0  0  0  0  0  0  0  0  0  0  0
   -3.7774    0.0066   -0.1861 C   0  0  0  0  0  0  0  0  0  0  0  0
   -2.1615   -0.5673    1.5157 C   0  0  0  0  0  0  0  0  0  0  0  0
    4.3360   -0.3485    0.0506 C   0  0  0  0  0  0  0  0  0  0  0  0
   -4.1948   -1.3234   -0.2384 C   0  0  0  0  0  0  0  0  0  0  0  0
    2.9031   -2.1242   -0.7437 C   0  0  0  0  0  0  0  0  0  0  0  0
   -2.5787   -1.8972    1.4635 C   0  0  0  0  0  0  0  0  0  0  0  0
    4.1191   -1.7023   -0.2060 C   0  0  0  0  0  0  0  0  0  0  0  0
   -3.5954   -2.2752    0.5864 C   0  0  0  0  0  0  0  0  0  0  0  0
    5.6603    1.4756    0.8088 C   0  0  0  0  0  0  0  0  0  0  0  0
   -6.5256   -1.6156   -0.6097 C   0  0  0  0  0  0  0  0  0  0  0  0
    4.7849   -3.9853   -0.2270 C   0  0  0  0  0  0  0  0  0  0  0  0
   -0.0253    0.4046    0.5995 H   0  0  0  0  0  0  0  0  0  0  0  0
    0.3435    2.1903    2.1331 H   0  0  0  0  0  0  0  0  0  0  0  0
    1.8225    2.3284    1.1851 H   0  0  0  0  0  0  0  0  0  0  0  0
    0.5002    0.7669   -1.9322 H   0  0  0  0  0  0  0  0  0  0  0  0
    1.5002    2.1002   -1.4122 H   0  0  0  0  0  0  0  0  0  0  0  0
   -2.0383    2.0690    1.7770 H   0  0  0  0  0  0  0  0  0  0  0  0
   -3.1760    2.4494    0.5142 H   0  0  0  0  0  0  0  0  0  0  0  0
   -1.0152    2.2111   -2.1807 H   0  0  0  0  0  0  0  0  0  0  0  0
    3.4646    1.6486   -0.0802 H   0  0  0  0  0  0  0  0  0  0  0  0
    0.9590   -1.5312   -1.4399 H   0  0  0  0  0  0  0  0  0  0  0  0
   -4.2479    0.7448   -0.8304 H   0  0  0  0  0  0  0  0  0  0  0  0
   -1.3879   -0.2848    2.2240 H   0  0  0  0  0  0  0  0  0  0  0  0
    2.6641   -3.1581   -0.9676 H   0  0  0  0  0  0  0  0  0  0  0  0
   -2.1118   -2.6329    2.1128 H   0  0  0  0  0  0  0  0  0  0  0  0
   -4.6754   -3.6699   -0.1431 H   0  0  0  0  0  0  0  0  0  0  0  0
    6.6567    1.6321    1.2355 H   0  0  0  0  0  0  0  0  0  0  0  0
    4.9383    1.8380    1.5486 H   0  0  0  0  0  0  0  0  0  0  0  0
    5.6229    2.0454   -0.1259 H   0  0  0  0  0  0  0  0  0  0  0  0
   -7.1967   -1.9667   -1.3983 H   0  0  0  0  0  0  0  0  0  0  0  0
   -6.6503   -2.2581    0.2676 H   0  0  0  0  0  0  0  0  0  0  0  0
   -6.7899   -0.5834   -0.3590 H   0  0  0  0  0  0  0  0  0  0  0  0
    5.6643   -4.5763    0.0493 H   0  0  0  0  0  0  0  0  0  0  0  0
    3.9513   -4.3531    0.3809 H   0  0  0  0  0  0  0  0  0  0  0  0
    4.6206   -4.1421   -1.2986 H   0  0  0  0  0  0  0  0  0  0  0  0
  1 10  1  0  0  0  0
  1 13  1  0  0  0  0
  2  9  1  0  0  0  0
  2 36  1  0  0  0  0
  3 13  2  0  0  0  0
  4 20  1  0  0  0  0
  4 26  1  0  0  0  0
  5 21  1  0  0  0  0
  5 27  1  0  0  0  0
  6 24  1  0  0  0  0
  6 28  1  0  0  0  0
  7 25  1  0  0  0  0
  7 43  1  0  0  0  0
  8  9  1  0  0  0  0
  8 10  1  0  0  0  0
  8 11  1  0  0  0  0
  8 29  1  0  0  0  0
  9 12  1  0  0  0  0
  9 13  1  0  0  0  0
 10 30  1  0  0  0  0
 10 31  1  0  0  0  0
 11 14  1  0  0  0  0
 11 32  1  0  0  0  0
 11 33  1  0  0  0  0
 12 15  1  0  0  0  0
 12 34  1  0  0  0  0
 12 35  1  0  0  0  0
 14 16  2  0  0  0  0
 14 17  1  0  0  0  0
 15 18  2  0  0  0  0
 15 19  1  0  0  0  0
 16 20  1  0  0  0  0
 16 37  1  0  0  0  0
 17 22  2  0  0  0  0
 17 38  1  0  0  0  0
 18 21  1  0  0  0  0
 18 39  1  0  0  0  0
 19 23  2  0  0  0  0
 19 40  1  0  0  0  0
 20 24  2  0  0  0  0
 21 25  2  0  0  0  0
 22 24  1  0  0  0  0
 22 41  1  0  0  0  0
 23 25  1  0  0  0  0
 23 42  1  0  0  0  0
 26 44  1  0  0  0  0
 26 45  1  0  0  0  0
 26 46  1  0  0  0  0
 27 47  1  0  0  0  0
 27 48  1  0  0  0  0
 27 49  1  0  0  0  0
 28 50  1  0  0  0  0
 28 51  1  0  0  0  0
 28 52  1  0  0  0  0
M  END
> <PUBCHEM_COMPOUND_CID>
452855

> <PUBCHEM_CONFORMER_RMSD>
1

> <PUBCHEM_CONFORMER_DIVERSEORDER>
22
62
50
30
31
85
104
28
100
112
16
55
108
58
61
27
20
95
67
32
105
59
93
87
34
33
76
113
57
101
8
96
26
73
66
81
106
48
21
68
82
92
36
11
69
23
60
51
56
98
114
15
83
89
18
109
107
53
86
97
7
52
39
45
37
63
111
38
9
13
102
103
10
77
64
84
75
43
88
79
94
74
12
3
91
17
29
49
70
5
110
78
90
40
24
2
47
72
46
99
44
25
19
1
54
14
71
6
65
41
80
4
42
35

> <PUBCHEM_MMFF94_PARTIAL_CHARGES>
35
1 -0.43
10 0.28
11 0.14
12 0.14
13 0.66
14 -0.14
15 -0.14
16 -0.15
17 -0.15
18 -0.15
19 -0.15
2 -0.68
20 0.08
21 0.08
22 -0.15
23 -0.15
24 0.08
25 0.08
26 0.28
27 0.28
28 0.28
3 -0.57
36 0.4
37 0.15
38 0.15
39 0.15
4 -0.36
40 0.15
41 0.15
42 0.15
43 0.45
5 -0.36
6 -0.36
7 -0.53
9 0.34

> <PUBCHEM_EFFECTIVE_ROTOR_COUNT>
7.8

> <PUBCHEM_PHARMACOPHORE_FEATURES>
10
1 2 acceptor
1 2 donor
1 3 acceptor
1 4 acceptor
1 5 acceptor
1 6 acceptor
1 7 donor
5 1 8 9 10 13 rings
6 14 16 17 20 22 24 rings
6 15 18 19 21 23 25 rings

> <PUBCHEM_HEAVY_ATOM_COUNT>
28

> <PUBCHEM_ATOM_DEF_STEREO_COUNT>
2

> <PUBCHEM_ATOM_UDEF_STEREO_COUNT>
0

> <PUBCHEM_BOND_DEF_STEREO_COUNT>
0

> <PUBCHEM_BOND_UDEF_STEREO_COUNT>
0

> <PUBCHEM_ISOTOPIC_ATOM_COUNT>
0

> <PUBCHEM_COMPONENT_COUNT>
1

> <PUBCHEM_CACTVS_TAUTO_COUNT>
3

> <PUBCHEM_CONFORMER_ID>
0006E8F700000016

> <PUBCHEM_MMFF94_ENERGY>
106.9136

> <PUBCHEM_FEATURE_SELFOVERLAP>
50.751

> <PUBCHEM_SHAPE_FINGERPRINT>
10483366 6 18267877258419863333
11135609 149 18118715170011618589
12293681 25 18194151605794187389
12363563 72 18339629067085190775
12553582 1 18194936626793627939
12969540 37 18123468272188232989
13004483 165 18334862727276316911
13544653 18 18411130338240970540
13631057 29 18410569622250616556
14081887 123 18339922735669116920
1454969 45 18265894658266059380
14659021 117 18341334499693086506
14844126 61 18196926897316430899
14866123 147 18265608974279089817
15352361 1 18410571764901577791
17492 89 18265054811665420446
19315092 285 17169834358644785491
20567600 70 18268431222167726939
20681677 274 18264487463707361280
21065198 57 18123185973158192948
21133410 171 17623058724966346059
21133410 52 17469046562656576502
21133410 58 18337401418596474023
21703447 108 18338807801162434594
23559900 14 18122913023628417481
23572383 38 18342740676249479330
255183 313 17976241750175669425
339767 52 18339929212021389434
3421961 26 18264208007027968305
4015057 19 17972337345334968244
4280585 95 18269847440473189457
463206 1 18342170042821235099
469060 322 17826548533173132516
5104073 3 18115030848075152848
5924683 9 18337390555631255097
6004065 56 18192158105366235751
613672 6 18342737373345632922
9709674 26 18192427700515718068

> <PUBCHEM_SHAPE_MULTIPOLES>
535.14
12.44
4.9
1.18
2.41
1.4
0.08
-12.11
-0.14
0.1
-0.04
-0.53
0.06
0.92

> <PUBCHEM_SHAPE_SELFOVERLAP>
1152.545

> <PUBCHEM_SHAPE_VOLUME>
296.8

> <PUBCHEM_COORDINATE_TYPE>
2
5
10

$$$$

