439918
  -OEChem-07051212483D

 21 20  0     1  0  0  0  0  0999 V2000
   -0.7353    2.7574    0.6661 O   0  0  0  0  0  0  0  0  0  0  0  0
    3.4065   -0.2320   -0.7419 O   0  0  0  0  0  0  0  0  0  0  0  0
   -1.9230    1.5951   -0.8790 O   0  0  0  0  0  0  0  0  0  0  0  0
    2.1703   -1.0940    0.9598 O   0  0  0  0  0  0  0  0  0  0  0  0
   -0.4672   -0.6381   -0.5629 N   0  0  0  0  0  0  0  0  0  0  0  0
   -1.8112   -2.5173   -0.7010 N   0  0  0  0  0  0  0  0  0  0  0  0
   -1.9603   -1.2786    1.2064 N   0  0  0  0  0  0  0  0  0  0  0  0
   -0.0390    0.5222    0.2273 C   0  0  1  0  0  0  0  0  0  0  0  0
    1.3850    0.8946   -0.1672 C   0  0  0  0  0  0  0  0  0  0  0  0
   -1.0037    1.6485   -0.0727 C   0  0  0  0  0  0  0  0  0  0  0  0
    2.3354   -0.2488    0.0899 C   0  0  0  0  0  0  0  0  0  0  0  0
   -1.3575   -1.4092   -0.0248 C   0  0  0  0  0  0  0  0  0  0  0  0
   -0.0546    0.3228    1.3045 H   0  0  0  0  0  0  0  0  0  0  0  0
    1.4189    1.1434   -1.2353 H   0  0  0  0  0  0  0  0  0  0  0  0
    1.7411    1.7658    0.3931 H   0  0  0  0  0  0  0  0  0  0  0  0
   -1.3609    3.4872    0.4699 H   0  0  0  0  0  0  0  0  0  0  0  0
   -1.4597   -2.7476   -1.6240 H   0  0  0  0  0  0  0  0  0  0  0  0
   -2.5080   -3.1351   -0.2999 H   0  0  0  0  0  0  0  0  0  0  0  0
   -2.6440   -1.9593    1.5204 H   0  0  0  0  0  0  0  0  0  0  0  0
   -1.7855   -0.5015    1.8318 H   0  0  0  0  0  0  0  0  0  0  0  0
    4.0209   -0.9753   -0.5626 H   0  0  0  0  0  0  0  0  0  0  0  0
  1 10  1  0  0  0  0
  1 16  1  0  0  0  0
  2 11  1  0  0  0  0
  2 21  1  0  0  0  0
  3 10  2  0  0  0  0
  4 11  2  0  0  0  0
  5  8  1  0  0  0  0
  5 12  2  0  0  0  0
  6 12  1  0  0  0  0
  6 17  1  0  0  0  0
  6 18  1  0  0  0  0
  7 12  1  0  0  0  0
  7 19  1  0  0  0  0
  7 20  1  0  0  0  0
  8  9  1  0  0  0  0
  8 10  1  0  0  0  0
  8 13  1  0  0  0  0
  9 11  1  0  0  0  0
  9 14  1  0  0  0  0
  9 15  1  0  0  0  0
M  END
> <PUBCHEM_COMPOUND_CID>
439918

> <PUBCHEM_CONFORMER_RMSD>
0.6

> <PUBCHEM_CONFORMER_DIVERSEORDER>
1
24
9
17
15
16
18
4
22
25
8
26
23
6
13
12
5
3
2
20
11
7
10
19
14
21

> <PUBCHEM_MMFF94_PARTIAL_CHARGES>
18
1 -0.65
10 0.66
11 0.66
12 0.55
16 0.5
17 0.4
18 0.4
19 0.4
2 -0.65
20 0.4
21 0.5
3 -0.57
4 -0.57
5 -0.7
6 -0.85
7 -0.85
8 0.31
9 0.06

> <PUBCHEM_EFFECTIVE_ROTOR_COUNT>
4

> <PUBCHEM_PHARMACOPHORE_FEATURES>
9
1 1 acceptor
1 2 acceptor
1 3 acceptor
1 4 acceptor
1 6 donor
1 7 donor
3 1 3 10 anion
3 2 4 11 anion
4 5 6 7 12 cation

> <PUBCHEM_HEAVY_ATOM_COUNT>
12

> <PUBCHEM_ATOM_DEF_STEREO_COUNT>
1

> <PUBCHEM_ATOM_UDEF_STEREO_COUNT>
0

> <PUBCHEM_BOND_DEF_STEREO_COUNT>
0

> <PUBCHEM_BOND_UDEF_STEREO_COUNT>
0

> <PUBCHEM_ISOTOPIC_ATOM_COUNT>
0

> <PUBCHEM_COMPONENT_COUNT>
1

> <PUBCHEM_CACTVS_TAUTO_COUNT>
2

> <PUBCHEM_CONFORMER_ID>
0006B66E00000001

> <PUBCHEM_MMFF94_ENERGY>
25.2354

> <PUBCHEM_FEATURE_SELFOVERLAP>
45.842

> <PUBCHEM_SHAPE_FINGERPRINT>
12138202 97 18339926038092896326
12423570 1 13732549254795308148
15490181 8 17834391606905940377
161256 15 18049164367094035212
16945 1 18263654011727729872
20645477 70 17255131047444397927
20653091 64 17541088771409376323
20711985 344 18409729564595615654
20871998 184 18336536200747310231
21040471 1 18048602804720830200
23552423 10 18129381510152235468
2748010 2 18264219019028651252
81228 2 18411703179361585057

> <PUBCHEM_SHAPE_MULTIPOLES>
208.53
3.57
2.56
0.93
2.77
0.79
0.1
-1.53
-0.33
-1.92
0.05
-0.15
-0.14
-0.05

> <PUBCHEM_SHAPE_SELFOVERLAP>
408.782

> <PUBCHEM_SHAPE_VOLUME>
122.4

> <PUBCHEM_COORDINATE_TYPE>
2
5
10

$$$$

