10090750
  -OEChem-07051213083D

 55 57  0     0  0  0  0  0  0999 V2000
    3.5561    1.9871    0.5616 O   0  0  0  0  0  0  0  0  0  0  0  0
   -6.0869    3.1515   -0.1513 O   0  0  0  0  0  0  0  0  0  0  0  0
    6.8728    1.3846   -0.9245 N   0  0  0  0  0  0  0  0  0  0  0  0
   -1.5891   -0.1847    0.0853 C   0  0  0  0  0  0  0  0  0  0  0  0
   -1.6973   -1.5566    0.0261 C   0  0  0  0  0  0  0  0  0  0  0  0
   -2.9878   -2.3590   -0.0507 C   0  0  0  0  0  0  0  0  0  0  0  0
   -0.2136    0.3962    0.2133 C   0  0  0  0  0  0  0  0  0  0  0  0
   -2.7560    0.6813    0.0233 C   0  0  0  0  0  0  0  0  0  0  0  0
   -0.4826   -2.4075    0.0925 C   0  0  0  0  0  0  0  0  0  0  0  0
    0.4799    0.6901   -0.9352 C   0  0  0  0  0  0  0  0  0  0  0  0
    0.2922    0.6085    1.4722 C   0  0  0  0  0  0  0  0  0  0  0  0
   -3.4383   -2.6123   -1.4845 C   0  0  0  0  0  0  0  0  0  0  0  0
   -3.4097    1.0544    1.1977 C   0  0  0  0  0  0  0  0  0  0  0  0
   -3.2217    1.1382   -1.2095 C   0  0  0  0  0  0  0  0  0  0  0  0
   -0.0333   -2.8344    1.3257 C   0  0  0  0  0  0  0  0  0  0  0  0
    0.1605   -2.7458   -1.0810 C   0  0  0  0  0  0  0  0  0  0  0  0
    2.3068    1.4601    0.4457 C   0  0  0  0  0  0  0  0  0  0  0  0
    1.7604    1.2306   -0.8171 C   0  0  0  0  0  0  0  0  0  0  0  0
    1.5726    1.1491    1.5903 C   0  0  0  0  0  0  0  0  0  0  0  0
   -4.5290    1.8847    1.1393 C   0  0  0  0  0  0  0  0  0  0  0  0
   -4.3409    1.9685   -1.2679 C   0  0  0  0  0  0  0  0  0  0  0  0
    1.1082   -3.6335    1.3883 C   0  0  0  0  0  0  0  0  0  0  0  0
    1.3020   -3.5451   -1.0183 C   0  0  0  0  0  0  0  0  0  0  0  0
   -4.9949    2.3417   -0.0936 C   0  0  0  0  0  0  0  0  0  0  0  0
    4.4854    1.6908   -0.4799 C   0  0  0  0  0  0  0  0  0  0  0  0
    1.7758   -3.9889    0.2164 C   0  0  0  0  0  0  0  0  0  0  0  0
    5.8901    1.7000    0.1015 C   0  0  0  0  0  0  0  0  0  0  0  0
    8.2182    1.3506   -0.3658 C   0  0  0  0  0  0  0  0  0  0  0  0
   -2.8776   -3.3187    0.4700 H   0  0  0  0  0  0  0  0  0  0  0  0
   -3.7888   -1.8342    0.4826 H   0  0  0  0  0  0  0  0  0  0  0  0
    0.0600    0.5216   -1.9225 H   0  0  0  0  0  0  0  0  0  0  0  0
   -0.2717    0.3707    2.3693 H   0  0  0  0  0  0  0  0  0  0  0  0
   -3.5839   -1.6792   -2.0360 H   0  0  0  0  0  0  0  0  0  0  0  0
   -4.3896   -3.1542   -1.4866 H   0  0  0  0  0  0  0  0  0  0  0  0
   -2.7092   -3.2198   -2.0300 H   0  0  0  0  0  0  0  0  0  0  0  0
   -3.0610    0.7058    2.1669 H   0  0  0  0  0  0  0  0  0  0  0  0
   -2.7238    0.8574   -2.1345 H   0  0  0  0  0  0  0  0  0  0  0  0
   -0.5467   -2.5658    2.2447 H   0  0  0  0  0  0  0  0  0  0  0  0
   -0.1982   -2.4059   -2.0485 H   0  0  0  0  0  0  0  0  0  0  0  0
    2.2865    1.4838   -1.7327 H   0  0  0  0  0  0  0  0  0  0  0  0
    1.9931    1.3253    2.5766 H   0  0  0  0  0  0  0  0  0  0  0  0
   -5.0343    2.1716    2.0575 H   0  0  0  0  0  0  0  0  0  0  0  0
   -4.6937    2.3176   -2.2346 H   0  0  0  0  0  0  0  0  0  0  0  0
    1.4770   -3.9792    2.3495 H   0  0  0  0  0  0  0  0  0  0  0  0
    1.8222   -3.8213   -1.9307 H   0  0  0  0  0  0  0  0  0  0  0  0
    4.3016    0.6969   -0.9101 H   0  0  0  0  0  0  0  0  0  0  0  0
    4.3923    2.4506   -1.2652 H   0  0  0  0  0  0  0  0  0  0  0  0
    2.6648   -4.6109    0.2651 H   0  0  0  0  0  0  0  0  0  0  0  0
    5.9382    0.9706    0.9200 H   0  0  0  0  0  0  0  0  0  0  0  0
    6.0906    2.6826    0.5471 H   0  0  0  0  0  0  0  0  0  0  0  0
    6.8311    2.0830   -1.6662 H   0  0  0  0  0  0  0  0  0  0  0  0
   -6.2681    3.3707   -1.0814 H   0  0  0  0  0  0  0  0  0  0  0  0
    8.9343    1.1053   -1.1562 H   0  0  0  0  0  0  0  0  0  0  0  0
    8.3068    0.5814    0.4083 H   0  0  0  0  0  0  0  0  0  0  0  0
    8.5020    2.3199    0.0569 H   0  0  0  0  0  0  0  0  0  0  0  0
  1 17  1  0  0  0  0
  1 25  1  0  0  0  0
  2 24  1  0  0  0  0
  2 52  1  0  0  0  0
  3 27  1  0  0  0  0
  3 28  1  0  0  0  0
  3 51  1  0  0  0  0
  4  5  2  0  0  0  0
  4  7  1  0  0  0  0
  4  8  1  0  0  0  0
  5  6  1  0  0  0  0
  5  9  1  0  0  0  0
  6 12  1  0  0  0  0
  6 29  1  0  0  0  0
  6 30  1  0  0  0  0
  7 10  2  0  0  0  0
  7 11  1  0  0  0  0
  8 13  2  0  0  0  0
  8 14  1  0  0  0  0
  9 15  2  0  0  0  0
  9 16  1  0  0  0  0
 10 18  1  0  0  0  0
 10 31  1  0  0  0  0
 11 19  2  0  0  0  0
 11 32  1  0  0  0  0
 12 33  1  0  0  0  0
 12 34  1  0  0  0  0
 12 35  1  0  0  0  0
 13 20  1  0  0  0  0
 13 36  1  0  0  0  0
 14 21  2  0  0  0  0
 14 37  1  0  0  0  0
 15 22  1  0  0  0  0
 15 38  1  0  0  0  0
 16 23  2  0  0  0  0
 16 39  1  0  0  0  0
 17 18  2  0  0  0  0
 17 19  1  0  0  0  0
 18 40  1  0  0  0  0
 19 41  1  0  0  0  0
 20 24  2  0  0  0  0
 20 42  1  0  0  0  0
 21 24  1  0  0  0  0
 21 43  1  0  0  0  0
 22 26  2  0  0  0  0
 22 44  1  0  0  0  0
 23 26  1  0  0  0  0
 23 45  1  0  0  0  0
 25 27  1  0  0  0  0
 25 46  1  0  0  0  0
 25 47  1  0  0  0  0
 26 48  1  0  0  0  0
 27 49  1  0  0  0  0
 27 50  1  0  0  0  0
 28 53  1  0  0  0  0
 28 54  1  0  0  0  0
 28 55  1  0  0  0  0
M  END
> <PUBCHEM_COMPOUND_CID>
10090750

> <PUBCHEM_CONFORMER_RMSD>
1

> <PUBCHEM_CONFORMER_DIVERSEORDER>
1
5
3
6
2
4

> <PUBCHEM_MMFF94_PARTIAL_CHARGES>
42
1 -0.36
10 -0.15
11 -0.15
13 -0.15
14 -0.15
15 -0.15
16 -0.15
17 0.08
18 -0.15
19 -0.15
2 -0.53
20 -0.15
21 -0.15
22 -0.15
23 -0.15
24 0.08
25 0.28
26 -0.15
27 0.27
28 0.27
3 -0.9
31 0.15
32 0.15
36 0.15
37 0.15
38 0.15
39 0.15
4 -0.06
40 0.15
41 0.15
42 0.15
43 0.15
44 0.15
45 0.15
48 0.15
5 -0.17
51 0.36
52 0.45
6 0.14
7 0.03
8 0.03
9 0.03

> <PUBCHEM_EFFECTIVE_ROTOR_COUNT>
8

> <PUBCHEM_PHARMACOPHORE_FEATURES>
8
1 1 acceptor
1 12 hydrophobe
1 2 donor
1 3 cation
1 3 donor
6 7 10 11 17 18 19 rings
6 8 13 14 20 21 24 rings
6 9 15 16 22 23 26 rings

> <PUBCHEM_HEAVY_ATOM_COUNT>
28

> <PUBCHEM_ATOM_DEF_STEREO_COUNT>
0

> <PUBCHEM_ATOM_UDEF_STEREO_COUNT>
0

> <PUBCHEM_BOND_DEF_STEREO_COUNT>
1

> <PUBCHEM_BOND_UDEF_STEREO_COUNT>
0

> <PUBCHEM_ISOTOPIC_ATOM_COUNT>
0

> <PUBCHEM_COMPONENT_COUNT>
1

> <PUBCHEM_CACTVS_TAUTO_COUNT>
2

> <PUBCHEM_CONFORMER_ID>
0099F8FE00000001

> <PUBCHEM_MMFF94_ENERGY>
94.8268

> <PUBCHEM_FEATURE_SELFOVERLAP>
40.594

> <PUBCHEM_SHAPE_FINGERPRINT>
10165383 225 18408880755169097585
10190206 1 18263094236335260029
10369192 42 18273492377338569797
105312 117 18413105048202878332
107951 10 18131067100512545946
1100329 8 18266179619933580458
11007060 377 18193556667172037920
11578080 2 17844830229131070015
11582403 64 15507781855459287867
12422481 6 17915200089957382914
12597179 24 18410851071193941918
12643181 29 18409164395394179796
12788726 201 17834411028806114339
12954195 1 18261115110883487327
13140716 1 18412265064226725875
13149001 5 18193828478493717055
133893 2 17983889875400407599
14713325 29 18198900319062488379
14856354 85 16200144357740872976
14955137 171 17758109681417000395
15042514 8 17763740996878679394
15230672 131 18342457054933533730
15439362 3 18267585904100824445
15664445 248 17541091399935078215
15927050 60 18409167722939416391
16752209 62 18193856841877023563
167882 2 18267024036278428851
1813 80 10879711043620014289
20554085 129 18114198452963704528
20642791 178 18339658826998572546
20642791 35 18193549184990913478
21133665 82 18409162187786608886
21279426 13 18188195573202769894
21756936 100 17418375757699654000
23419403 2 17767078298479089603
23558518 356 18343019948308809083
23559900 14 18113900408662827928
283562 15 18121791534605514835
3298306 158 18408323285419365854
3383291 50 18121219771511701434
3411729 13 18270400627976405505
350125 39 18409166589426480003
4015057 19 16951127240963123656
469060 322 18198616645853299763
5085150 59 18187653471152952390
5265222 85 18194672675943173500
5385378 56 18339917246443008377
559249 180 18410573947456906272
6371380 46 18334580123267000728
6669772 16 18411414055528453982
7495541 125 17699271477161806731

> <PUBCHEM_SHAPE_MULTIPOLES>
559.51
12.79
4.96
1.41
20.88
5.39
-0.15
-16.58
2.98
-0.97
0.02
-0.43
0.26
-0.72

> <PUBCHEM_SHAPE_SELFOVERLAP>
1199.604

> <PUBCHEM_SHAPE_VOLUME>
310.9

> <PUBCHEM_COORDINATE_TYPE>
2
5
10

$$$$

