439280
  -OEChem-07051212443D

 28 29  0     1  0  0  0  0  0999 V2000
   -2.5560   -2.7272   -0.5890 O   0  0  0  0  0  0  0  0  0  0  0  0
    1.5638   -0.6733    1.8161 O   0  0  0  0  0  0  0  0  0  0  0  0
    2.3929   -2.1309    0.2884 O   0  0  0  0  0  0  0  0  0  0  0  0
   -1.1193    2.4711    0.3975 N   0  0  0  0  0  0  0  0  0  0  0  0
    4.0305   -0.1434   -0.6597 N   0  0  0  0  0  0  0  0  0  0  0  0
    0.4783    1.2250   -0.5092 C   0  0  0  0  0  0  0  0  0  0  0  0
    1.7746    0.8030   -1.0764 C   0  0  0  0  0  0  0  0  0  0  0  0
   -0.6781    0.4128   -0.3414 C   0  0  0  0  0  0  0  0  0  0  0  0
    2.7750    0.2539   -0.0269 C   0  0  1  0  0  0  0  0  0  0  0  0
   -1.6657    1.2187    0.2292 C   0  0  0  0  0  0  0  0  0  0  0  0
    0.1759    2.4848   -0.0459 C   0  0  0  0  0  0  0  0  0  0  0  0
   -0.9803   -0.9348   -0.6210 C   0  0  0  0  0  0  0  0  0  0  0  0
   -2.9454    0.7424    0.5355 C   0  0  0  0  0  0  0  0  0  0  0  0
   -2.2563   -1.4249   -0.3202 C   0  0  0  0  0  0  0  0  0  0  0  0
   -3.2221   -0.5975    0.2492 C   0  0  0  0  0  0  0  0  0  0  0  0
    2.2321   -0.9798    0.6738 C   0  0  0  0  0  0  0  0  0  0  0  0
    1.6003    0.0414   -1.8488 H   0  0  0  0  0  0  0  0  0  0  0  0
    2.2350    1.6544   -1.5962 H   0  0  0  0  0  0  0  0  0  0  0  0
    2.9953    1.0185    0.7279 H   0  0  0  0  0  0  0  0  0  0  0  0
    0.7648    3.3898    0.0096 H   0  0  0  0  0  0  0  0  0  0  0  0
   -1.6048    3.2650    0.7916 H   0  0  0  0  0  0  0  0  0  0  0  0
   -0.2329   -1.5834   -1.0693 H   0  0  0  0  0  0  0  0  0  0  0  0
   -3.6980    1.3859    0.9788 H   0  0  0  0  0  0  0  0  0  0  0  0
   -4.2093   -0.9931    0.4771 H   0  0  0  0  0  0  0  0  0  0  0  0
    4.7074   -0.4070    0.0557 H   0  0  0  0  0  0  0  0  0  0  0  0
    4.4331    0.6542   -1.1503 H   0  0  0  0  0  0  0  0  0  0  0  0
   -1.7757   -3.1564   -0.9800 H   0  0  0  0  0  0  0  0  0  0  0  0
    1.2251   -1.4755    2.2678 H   0  0  0  0  0  0  0  0  0  0  0  0
  1 14  1  0  0  0  0
  1 27  1  0  0  0  0
  2 16  1  0  0  0  0
  2 28  1  0  0  0  0
  3 16  2  0  0  0  0
  4 10  1  0  0  0  0
  4 11  1  0  0  0  0
  4 21  1  0  0  0  0
  5  9  1  0  0  0  0
  5 25  1  0  0  0  0
  5 26  1  0  0  0  0
  6  7  1  0  0  0  0
  6  8  1  0  0  0  0
  6 11  2  0  0  0  0
  7  9  1  0  0  0  0
  7 17  1  0  0  0  0
  7 18  1  0  0  0  0
  8 10  2  0  0  0  0
  8 12  1  0  0  0  0
  9 16  1  0  0  0  0
  9 19  1  0  0  0  0
 10 13  1  0  0  0  0
 11 20  1  0  0  0  0
 12 14  2  0  0  0  0
 12 22  1  0  0  0  0
 13 15  2  0  0  0  0
 13 23  1  0  0  0  0
 14 15  1  0  0  0  0
 15 24  1  0  0  0  0
M  END
> <PUBCHEM_COMPOUND_CID>
439280

> <PUBCHEM_CONFORMER_RMSD>
0.6

> <PUBCHEM_CONFORMER_DIVERSEORDER>
1
17
7
18
15
14
16
6
5
19
8
9
3
12
13
11
4
2
10

> <PUBCHEM_MMFF94_PARTIAL_CHARGES>
24
1 -0.53
10 -0.15
11 -0.3
12 -0.15
13 -0.15
14 0.08
15 -0.15
16 0.66
2 -0.65
20 0.15
21 0.27
22 0.15
23 0.15
24 0.15
25 0.36
26 0.36
27 0.45
28 0.5
3 -0.57
4 0.03
5 -0.99
6 -0.18
7 0.18
9 0.33

> <PUBCHEM_EFFECTIVE_ROTOR_COUNT>
3

> <PUBCHEM_PHARMACOPHORE_FEATURES>
10
1 1 donor
1 2 acceptor
1 3 acceptor
1 4 cation
1 4 donor
1 5 cation
1 5 donor
3 2 3 16 anion
5 4 6 8 10 11 rings
6 8 10 12 13 14 15 rings

> <PUBCHEM_HEAVY_ATOM_COUNT>
16

> <PUBCHEM_ATOM_DEF_STEREO_COUNT>
1

> <PUBCHEM_ATOM_UDEF_STEREO_COUNT>
0

> <PUBCHEM_BOND_DEF_STEREO_COUNT>
0

> <PUBCHEM_BOND_UDEF_STEREO_COUNT>
0

> <PUBCHEM_ISOTOPIC_ATOM_COUNT>
0

> <PUBCHEM_COMPONENT_COUNT>
1

> <PUBCHEM_CACTVS_TAUTO_COUNT>
8

> <PUBCHEM_CONFORMER_ID>
0006B3F000000001

> <PUBCHEM_MMFF94_ENERGY>
22.2872

> <PUBCHEM_FEATURE_SELFOVERLAP>
50.894

> <PUBCHEM_SHAPE_FINGERPRINT>
11321824 6 18334871531822110847
11578080 2 17986701223258394076
12382932 28 18335422369703792106
12553582 1 18411422773942753987
13221675 6 18341606027577968418
13538477 17 18412828022727669180
14787075 74 18124597471084061636
15001771 113 18339925905107074225
15076042 46 18192996151800239872
15375462 189 18271802389311264019
16752209 62 18267314299175075549
16945 1 18409173237481894701
17804303 29 18045498870547802438
20291156 8 18411980234806625711
20442098 301 18410575127829192122
20510252 161 17970060252242307041
20645477 70 17761504590876486919
20871998 184 18260547874183543621
22112679 90 18261941943506456877
22445834 79 18341890818079527633
23236772 104 18201712985664746736
232386 152 18337382751702110845
23388829 49 18413106139008435820
23463225 33 18411975892678819333
23552423 10 18052253990953075645
23559900 14 18261110803432475948
23598294 1 18265325290829644745
2748010 2 18191592947577987445
3312278 4 18341610403959784564
34934 24 18412265025535135685
427121 178 16086391268585431721
6338986 31 18190761751247250135
7364860 26 17973445399467534017
74978 22 18337394821077144557

> <PUBCHEM_SHAPE_MULTIPOLES>
301.7
5.24
2.52
1
1.62
0.05
0.21
-2.14
0
-0.89
-0.04
0.38
-0.14
-0.84

> <PUBCHEM_SHAPE_SELFOVERLAP>
652.566

> <PUBCHEM_SHAPE_VOLUME>
166.1

> <PUBCHEM_COORDINATE_TYPE>
2
5
10

$$$$

