29216
  -OEChem-07051213003D

 26 27  0     0  0  0  0  0  0999 V2000
    0.6060   -1.9200    0.0041 S   0  0  0  0  0  0  0  0  0  0  0  0
   -4.0785   -0.2441   -0.0070 O   0  0  0  0  0  0  0  0  0  0  0  0
   -1.8270   -0.9577   -0.0011 N   0  0  0  0  0  0  0  0  0  0  0  0
    0.0159    0.5908   -0.0026 N   0  0  0  0  0  0  0  0  0  0  0  0
   -2.4485    1.3733    0.0024 N   0  0  0  0  0  0  0  0  0  0  0  0
    1.9142   -0.7968    0.0019 C   0  0  0  0  0  0  0  0  0  0  0  0
    1.4004    0.5035   -0.0016 C   0  0  0  0  0  0  0  0  0  0  0  0
   -0.5007   -0.6158    0.0001 C   0  0  0  0  0  0  0  0  0  0  0  0
    3.2957   -1.0483    0.0030 C   0  0  0  0  0  0  0  0  0  0  0  0
    2.3034    1.5887   -0.0038 C   0  0  0  0  0  0  0  0  0  0  0  0
   -2.2786   -2.3933    0.0024 C   0  0  0  0  0  0  0  0  0  0  0  0
   -2.8787    0.0446   -0.0057 C   0  0  0  0  0  0  0  0  0  0  0  0
    4.1675    0.0435    0.0007 C   0  0  0  0  0  0  0  0  0  0  0  0
    3.6799    1.3457   -0.0027 C   0  0  0  0  0  0  0  0  0  0  0  0
   -3.3709    2.4859    0.0099 C   0  0  0  0  0  0  0  0  0  0  0  0
    3.6836   -2.0624    0.0057 H   0  0  0  0  0  0  0  0  0  0  0  0
    1.9332    2.6101   -0.0065 H   0  0  0  0  0  0  0  0  0  0  0  0
   -1.9148   -2.8856    0.9094 H   0  0  0  0  0  0  0  0  0  0  0  0
   -1.9131   -2.8906   -0.9011 H   0  0  0  0  0  0  0  0  0  0  0  0
   -3.3696   -2.4599    0.0016 H   0  0  0  0  0  0  0  0  0  0  0  0
    5.2406   -0.1291    0.0015 H   0  0  0  0  0  0  0  0  0  0  0  0
    4.3731    2.1824   -0.0045 H   0  0  0  0  0  0  0  0  0  0  0  0
   -1.4635    1.5994    0.0507 H   0  0  0  0  0  0  0  0  0  0  0  0
   -3.8165    2.5634    1.0048 H   0  0  0  0  0  0  0  0  0  0  0  0
   -4.1575    2.3195   -0.7307 H   0  0  0  0  0  0  0  0  0  0  0  0
   -2.8202    3.3993   -0.2253 H   0  0  0  0  0  0  0  0  0  0  0  0
  1  6  1  0  0  0  0
  1  8  1  0  0  0  0
  2 12  2  0  0  0  0
  3  8  1  0  0  0  0
  3 11  1  0  0  0  0
  3 12  1  0  0  0  0
  4  7  1  0  0  0  0
  4  8  2  0  0  0  0
  5 12  1  0  0  0  0
  5 15  1  0  0  0  0
  5 23  1  0  0  0  0
  6  7  1  0  0  0  0
  6  9  2  0  0  0  0
  7 10  2  0  0  0  0
  9 13  1  0  0  0  0
  9 16  1  0  0  0  0
 10 14  1  0  0  0  0
 10 17  1  0  0  0  0
 11 18  1  0  0  0  0
 11 19  1  0  0  0  0
 11 20  1  0  0  0  0
 13 14  2  0  0  0  0
 13 21  1  0  0  0  0
 14 22  1  0  0  0  0
 15 24  1  0  0  0  0
 15 25  1  0  0  0  0
 15 26  1  0  0  0  0
M  END
> <PUBCHEM_COMPOUND_CID>
29216

> <PUBCHEM_CONFORMER_RMSD>
0.6

> <PUBCHEM_CONFORMER_DIVERSEORDER>
1
10
2
7
8
6
4
9
5
3

> <PUBCHEM_MMFF94_PARTIAL_CHARGES>
20
1 -0.08
10 -0.15
11 0.3
12 0.69
13 -0.15
14 -0.15
15 0.3
16 0.15
17 0.15
2 -0.57
21 0.15
22 0.15
23 0.37
3 -0.42
4 -0.57
5 -0.73
6 0.04
7 0.23
8 0.44
9 -0.15

> <PUBCHEM_EFFECTIVE_ROTOR_COUNT>
3

> <PUBCHEM_PHARMACOPHORE_FEATURES>
4
1 2 acceptor
1 5 donor
5 1 4 6 7 8 rings
6 6 7 9 10 13 14 rings

> <PUBCHEM_HEAVY_ATOM_COUNT>
15

> <PUBCHEM_ATOM_DEF_STEREO_COUNT>
0

> <PUBCHEM_ATOM_UDEF_STEREO_COUNT>
0

> <PUBCHEM_BOND_DEF_STEREO_COUNT>
0

> <PUBCHEM_BOND_UDEF_STEREO_COUNT>
0

> <PUBCHEM_ISOTOPIC_ATOM_COUNT>
0

> <PUBCHEM_COMPONENT_COUNT>
1

> <PUBCHEM_CACTVS_TAUTO_COUNT>
2

> <PUBCHEM_CONFORMER_ID>
0000722000000001

> <PUBCHEM_MMFF94_ENERGY>
37.9858

> <PUBCHEM_FEATURE_SELFOVERLAP>
20.368

> <PUBCHEM_SHAPE_FINGERPRINT>
10608611 8 18409451362478995056
10922523 26 18260261932688829894
10967382 1 18410856577057139526
11132069 177 18411987927261637128
11471102 20 18410859858628464126
12173636 292 18409735032136450143
12251169 10 18341895181776888774
12500047 106 18409454712442599224
12932764 1 17386852712054494230
13380535 76 18410293614050375087
14144814 61 18411982481063673328
14325111 11 18410575046356513380
14415576 193 18411133637007910716
14897335 6 18409733966921191855
15196674 1 18410574028185747492
15442244 35 18339364192257377474
15536298 74 18334857208427821246
15775835 57 18336261258431642002
16945 1 18338517542291677378
17802600 8 18409453574376628969
17834072 32 18266458892056129317
18186145 218 18114450206871824912
20510252 161 18263640671559341411
20645477 70 18187362155836500262
21267235 1 18410846668509831722
21501502 16 18413111641151516758
21524375 3 18409449184898966403
23402539 116 18335710416734943975
23402655 69 18334303101717201661
23463225 33 18413672413656674334
23559900 14 18260548978892250842
25 1 18340206400868229686
2748010 2 18409726227643397102
335352 9 18194683906739177854
4028521 119 18271817825882752837
4214541 1 18410574002426421764
474 4 17345467086053878596
5104073 3 18411982493985609736
6430166 295 18411140276837569504
69090 78 18335141973054302511
7364860 26 18264488554228692894
7832392 63 18411139160230390604
8809292 202 18342453703619391930
93112 12 18410292488889892614
9709674 26 18335697251927361327

> <PUBCHEM_SHAPE_MULTIPOLES>
291.73
7.43
2.39
0.6
0.22
0.11
0
2.37
0
1.55
-0.01
-0.06
-0.02
-0.01

> <PUBCHEM_SHAPE_SELFOVERLAP>
606.695

> <PUBCHEM_SHAPE_VOLUME>
168.6

> <PUBCHEM_COORDINATE_TYPE>
2
5
10

$$$$

