5281568
  -OEChem-07051212583D

 29 30  0     1  0  0  0  0  0999 V2000
    1.2469   -1.1770   -0.4407 O   0  0  0  0  0  0  0  0  0  0  0  0
    4.0554   -0.6704    1.0461 O   0  0  0  0  0  0  0  0  0  0  0  0
   -2.7855   -2.2463    0.2735 O   0  0  0  0  0  0  0  0  0  0  0  0
   -0.2743   -2.8087   -0.1154 O   0  0  0  0  0  0  0  0  0  0  0  0
   -4.0196    2.3318    0.2786 O   0  0  0  0  0  0  0  0  0  0  0  0
    3.0183    0.4588   -0.8075 C   0  0  0  0  0  0  0  0  0  0  0  0
    3.8017    0.6210    0.4960 C   0  0  2  0  0  0  0  0  0  0  0  0
    1.5701    0.1948   -0.5551 C   0  0  0  0  0  0  0  0  0  0  0  0
   -0.7326    0.7826   -0.1987 C   0  0  0  0  0  0  0  0  0  0  0  0
   -1.0710   -0.5688   -0.0832 C   0  0  0  0  0  0  0  0  0  0  0  0
    0.6502    1.1600   -0.4448 C   0  0  0  0  0  0  0  0  0  0  0  0
    5.1368    1.3122    0.2498 C   0  0  0  0  0  0  0  0  0  0  0  0
   -0.0280   -1.6136   -0.2102 C   0  0  0  0  0  0  0  0  0  0  0  0
   -1.7304    1.7564   -0.0761 C   0  0  0  0  0  0  0  0  0  0  0  0
   -2.3982   -0.9451    0.1535 C   0  0  0  0  0  0  0  0  0  0  0  0
   -3.0534    1.3803    0.1599 C   0  0  0  0  0  0  0  0  0  0  0  0
   -3.3864    0.0320    0.2744 C   0  0  0  0  0  0  0  0  0  0  0  0
    3.1076    1.3728   -1.4091 H   0  0  0  0  0  0  0  0  0  0  0  0
    3.4367   -0.3556   -1.4124 H   0  0  0  0  0  0  0  0  0  0  0  0
    3.2290    1.1975    1.2321 H   0  0  0  0  0  0  0  0  0  0  0  0
    0.9078    2.2094   -0.5323 H   0  0  0  0  0  0  0  0  0  0  0  0
    5.7039    1.3948    1.1833 H   0  0  0  0  0  0  0  0  0  0  0  0
    4.9962    2.3172   -0.1597 H   0  0  0  0  0  0  0  0  0  0  0  0
    5.7559    0.7323   -0.4437 H   0  0  0  0  0  0  0  0  0  0  0  0
   -1.4837    2.8124   -0.1634 H   0  0  0  0  0  0  0  0  0  0  0  0
   -4.4166   -0.2639    0.4581 H   0  0  0  0  0  0  0  0  0  0  0  0
    4.5410   -0.5443    1.8790 H   0  0  0  0  0  0  0  0  0  0  0  0
   -2.0272   -2.8410    0.1719 H   0  0  0  0  0  0  0  0  0  0  0  0
   -4.8740    1.8958    0.4396 H   0  0  0  0  0  0  0  0  0  0  0  0
  1  8  1  0  0  0  0
  1 13  1  0  0  0  0
  2  7  1  0  0  0  0
  2 27  1  0  0  0  0
  3 15  1  0  0  0  0
  3 28  1  0  0  0  0
  4 13  2  0  0  0  0
  5 16  1  0  0  0  0
  5 29  1  0  0  0  0
  6  7  1  0  0  0  0
  6  8  1  0  0  0  0
  6 18  1  0  0  0  0
  6 19  1  0  0  0  0
  7 12  1  0  0  0  0
  7 20  1  0  0  0  0
  8 11  2  0  0  0  0
  9 10  1  0  0  0  0
  9 11  1  0  0  0  0
  9 14  2  0  0  0  0
 10 13  1  0  0  0  0
 10 15  2  0  0  0  0
 11 21  1  0  0  0  0
 12 22  1  0  0  0  0
 12 23  1  0  0  0  0
 12 24  1  0  0  0  0
 14 16  1  0  0  0  0
 14 25  1  0  0  0  0
 15 17  1  0  0  0  0
 16 17  2  0  0  0  0
 17 26  1  0  0  0  0
M  END
> <PUBCHEM_COMPOUND_CID>
5281568

> <PUBCHEM_CONFORMER_RMSD>
0.6

> <PUBCHEM_CONFORMER_DIVERSEORDER>
1
5
8
7
10
9
2
3
6
4

> <PUBCHEM_MMFF94_PARTIAL_CHARGES>
22
1 -0.23
10 0.09
11 -0.18
13 0.63
14 -0.15
15 0.08
16 0.08
17 -0.15
2 -0.68
21 0.15
25 0.15
26 0.15
27 0.4
28 0.45
29 0.45
3 -0.53
4 -0.57
5 -0.53
6 0.14
7 0.28
8 -0.06
9 0.03

> <PUBCHEM_EFFECTIVE_ROTOR_COUNT>
2

> <PUBCHEM_PHARMACOPHORE_FEATURES>
7
1 2 acceptor
1 2 donor
1 3 donor
1 4 acceptor
1 5 donor
6 1 8 9 10 11 13 rings
6 9 10 14 15 16 17 rings

> <PUBCHEM_HEAVY_ATOM_COUNT>
17

> <PUBCHEM_ATOM_DEF_STEREO_COUNT>
1

> <PUBCHEM_ATOM_UDEF_STEREO_COUNT>
0

> <PUBCHEM_BOND_DEF_STEREO_COUNT>
0

> <PUBCHEM_BOND_UDEF_STEREO_COUNT>
0

> <PUBCHEM_ISOTOPIC_ATOM_COUNT>
0

> <PUBCHEM_COMPONENT_COUNT>
1

> <PUBCHEM_CACTVS_TAUTO_COUNT>
12

> <PUBCHEM_CONFORMER_ID>
0050972000000001

> <PUBCHEM_MMFF94_ENERGY>
45.6494

> <PUBCHEM_FEATURE_SELFOVERLAP>
35.546

> <PUBCHEM_SHAPE_FINGERPRINT>
10319926 262 18263097552477403776
10411042 1 17545038204392413166
10493431 412 18336254739336366961
10967382 1 18267577103907650077
11132069 177 18412820304650410741
11543360 7 15357991078476348573
11680986 33 18195795491562434855
12251169 10 18341897342752308068
12382932 28 18409443717284116977
12390115 104 18188753011980446704
13140716 1 18268425917967694251
13214271 11 18334014969050630237
13380535 76 18339922718494645727
13583140 156 17060340708251926765
14420673 8 18124882506900267810
14614273 12 18272655683792032637
14897335 6 18337954605513042125
15042514 8 18195238910961591747
15196674 1 18410009961524816662
15219456 202 18113610210074191390
15536298 74 18262233459889904406
16945 1 18338785715881162695
1741750 31 18261668285449261865
17804303 29 18336542708066005204
17846911 113 18335140911959945008
1813 80 16773515590292768494
18186145 218 17823119246468471964
19422 9 17989204807255434616
20510252 161 18260823770119036528
212916 134 18262252100163942416
2334 1 18410846685636888679
23402539 116 18263088712675403799
23463225 33 18273214209755013396
23557571 272 18041548165996392638
23559900 14 18261102020234658636
2748010 2 18266158690752664839
43471831 8 18342738533034424746
495365 180 17458912660029984326
5104073 3 18339637940255458098
53812653 166 18333732441849201336
5706482 22 18410858767590732755
573450 72 18271534134528844096
633830 44 18114462370098323556
7097593 13 18130518500113094410
7364860 26 17974568301376525318
77492 1 17703785882262197276
84936 182 17755866668494590489
90316 7 17918281973463176460
9709674 26 18335695006192124590

> <PUBCHEM_SHAPE_MULTIPOLES>
320.51
7.91
2.35
0.76
7.31
0.8
-0.01
-3.46
-1.86
-1.97
-0.06
0.43
-0.01
-0.09

> <PUBCHEM_SHAPE_SELFOVERLAP>
689.715

> <PUBCHEM_SHAPE_VOLUME>
176.4

> <PUBCHEM_COORDINATE_TYPE>
2
5
10

$$$$

