14119
  -OEChem-06241222423D

 23 24  0     0  0  0  0  0  0999 V2000
   -3.2692    1.2740   -0.4084 S   0  0  0  0  0  0  0  0  0  0  0  0
    1.3072   -0.2558    0.9271 O   0  0  0  0  0  0  0  0  0  0  0  0
    1.9543   -0.1147   -1.3019 O   0  0  0  0  0  0  0  0  0  0  0  0
    3.4543    0.3310    0.4109 N   0  0  0  0  0  0  0  0  0  0  0  0
   -0.9417    0.3692    0.2617 C   0  0  0  0  0  0  0  0  0  0  0  0
   -2.2021   -0.0588   -0.1665 C   0  0  0  0  0  0  0  0  0  0  0  0
    0.0509   -0.6108    0.5050 C   0  0  0  0  0  0  0  0  0  0  0  0
   -0.8908    1.7988    0.3797 C   0  0  0  0  0  0  0  0  0  0  0  0
   -2.4915   -1.4245   -0.3551 C   0  0  0  0  0  0  0  0  0  0  0  0
   -0.2328   -1.9664    0.3186 C   0  0  0  0  0  0  0  0  0  0  0  0
   -1.4915   -2.3666   -0.1067 C   0  0  0  0  0  0  0  0  0  0  0  0
   -2.0789    2.4055    0.0477 C   0  0  0  0  0  0  0  0  0  0  0  0
    2.2247   -0.0182   -0.1085 C   0  0  0  0  0  0  0  0  0  0  0  0
    4.6072    0.6374   -0.4035 C   0  0  0  0  0  0  0  0  0  0  0  0
   -0.0168    2.3551    0.6952 H   0  0  0  0  0  0  0  0  0  0  0  0
   -3.4739   -1.7471   -0.6880 H   0  0  0  0  0  0  0  0  0  0  0  0
    0.5321   -2.7153    0.5074 H   0  0  0  0  0  0  0  0  0  0  0  0
   -1.7031   -3.4230   -0.2487 H   0  0  0  0  0  0  0  0  0  0  0  0
   -2.3013    3.4632    0.0526 H   0  0  0  0  0  0  0  0  0  0  0  0
    3.5538    0.3764    1.4203 H   0  0  0  0  0  0  0  0  0  0  0  0
    5.4084   -0.0553   -0.1346 H   0  0  0  0  0  0  0  0  0  0  0  0
    4.9221    1.6591   -0.1778 H   0  0  0  0  0  0  0  0  0  0  0  0
    4.3794    0.5460   -1.4680 H   0  0  0  0  0  0  0  0  0  0  0  0
  1  6  1  0  0  0  0
  1 12  1  0  0  0  0
  2  7  1  0  0  0  0
  2 13  1  0  0  0  0
  3 13  2  0  0  0  0
  4 13  1  0  0  0  0
  4 14  1  0  0  0  0
  4 20  1  0  0  0  0
  5  6  1  0  0  0  0
  5  7  2  0  0  0  0
  5  8  1  0  0  0  0
  6  9  2  0  0  0  0
  7 10  1  0  0  0  0
  8 12  2  0  0  0  0
  8 15  1  0  0  0  0
  9 11  1  0  0  0  0
  9 16  1  0  0  0  0
 10 11  2  0  0  0  0
 10 17  1  0  0  0  0
 11 18  1  0  0  0  0
 12 19  1  0  0  0  0
 14 21  1  0  0  0  0
 14 22  1  0  0  0  0
 14 23  1  0  0  0  0
M  END
> <PUBCHEM_COMPOUND_CID>
14119

> <PUBCHEM_CONFORMER_RMSD>
0.6

> <PUBCHEM_CONFORMER_DIVERSEORDER>
2
11
21
10
19
7
15
20
4
9
3
12
13
17
14
8
16
18
1
6
5

> <PUBCHEM_MMFF94_PARTIAL_CHARGES>
19
1 -0.08
10 -0.15
11 -0.15
12 -0.11
13 0.78
14 0.3
15 0.15
16 0.15
17 0.15
18 0.15
19 0.15
2 -0.23
20 0.37
3 -0.57
4 -0.73
6 0.04
7 0.08
8 -0.15
9 -0.15

> <PUBCHEM_EFFECTIVE_ROTOR_COUNT>
3

> <PUBCHEM_PHARMACOPHORE_FEATURES>
4
1 3 acceptor
1 4 donor
5 1 5 6 8 12 rings
6 5 6 7 9 10 11 rings

> <PUBCHEM_HEAVY_ATOM_COUNT>
14

> <PUBCHEM_ATOM_DEF_STEREO_COUNT>
0

> <PUBCHEM_ATOM_UDEF_STEREO_COUNT>
0

> <PUBCHEM_BOND_DEF_STEREO_COUNT>
0

> <PUBCHEM_BOND_UDEF_STEREO_COUNT>
0

> <PUBCHEM_ISOTOPIC_ATOM_COUNT>
0

> <PUBCHEM_COMPONENT_COUNT>
1

> <PUBCHEM_CACTVS_TAUTO_COUNT>
2

> <PUBCHEM_CONFORMER_ID>
0000372700000002

> <PUBCHEM_MMFF94_ENERGY>
31.1554

> <PUBCHEM_FEATURE_SELFOVERLAP>
20.357

> <PUBCHEM_SHAPE_FINGERPRINT>
1 1 17835238222417157807
11206711 2 18338253582676727967
12138202 97 18260270758609246358
12716758 59 18335134340638798670
13024252 1 17775003449443033835
14614273 12 18200319938934498309
15669948 3 18410865338795867170
15775835 57 18130789000931450732
16945 1 18337402599220654587
17134986 127 17907296911582354973
1741750 31 18336265759583924168
18534176 82 18260547809874935484
19837323 101 18338227262753134523
20510252 161 18408038502906166491
20645476 183 18131636685905245175
20645477 56 18410006646137352096
20871999 31 18335711503092443151
21061003 4 16733537209418754026
21524375 3 18199750421612077968
22802520 49 18042390486413973335
23402539 116 18336274465582710598
23557571 272 18188762856155680734
23559900 14 18260832618585044458
2748010 2 18049461248735257875
305870 269 18128255786302193610
3071541 250 17764024662715459071
353137 74 18338520836773998177
53812653 8 18339929315485174233
573450 72 18270977786436029162
6333449 129 18335139782425542825
7364860 26 17759808443428423479
77492 1 17703240554601789530
81228 2 18337943494263933459

> <PUBCHEM_SHAPE_MULTIPOLES>
275.24
5.9
2.36
0.83
7.4
0.31
0.08
-2.31
1.14
-2.16
-0.07
0.22
0
-0.14

> <PUBCHEM_SHAPE_SELFOVERLAP>
578.481

> <PUBCHEM_SHAPE_VOLUME>
156.8

> <PUBCHEM_COORDINATE_TYPE>
2
5
10

$$$$

