17396096
  -OEChem-06241222543D

 47 49  0     0  0  0  0  0  0999 V2000
   -0.2299    2.7678   -0.0363 O   0  0  0  0  0  0  0  0  0  0  0  0
    5.0530   -2.0349    0.7818 O   0  0  0  0  0  0  0  0  0  0  0  0
   -5.3208   -0.7674   -0.0004 N   0  0  0  0  0  0  0  0  0  0  0  0
   -5.1804   -1.9384    0.6469 N   0  0  0  0  0  0  0  0  0  0  0  0
   -4.0086    1.1453   -0.6864 N   0  0  0  0  0  0  0  0  0  0  0  0
    0.7347    0.6312    0.0636 N   0  0  0  0  0  0  0  0  0  0  0  0
    6.6495   -0.6901   -0.2278 N   0  0  0  0  0  0  0  0  0  0  0  0
   -6.6169   -0.3877   -0.5112 C   0  0  0  0  0  0  0  0  0  0  0  0
   -4.1634   -0.0526   -0.0960 C   0  0  0  0  0  0  0  0  0  0  0  0
   -3.1918   -0.8128    0.5362 C   0  0  0  0  0  0  0  0  0  0  0  0
   -7.1158   -1.3576   -1.5840 C   0  0  0  0  0  0  0  0  0  0  0  0
   -7.6436   -0.2092    0.6089 C   0  0  0  0  0  0  0  0  0  0  0  0
   -3.8833   -1.9609    0.9710 C   0  0  0  0  0  0  0  0  0  0  0  0
   -1.8880   -0.3037    0.5833 C   0  0  0  0  0  0  0  0  0  0  0  0
   -1.6654    0.9373   -0.0134 C   0  0  0  0  0  0  0  0  0  0  0  0
   -2.7325    1.5958   -0.6152 C   0  0  0  0  0  0  0  0  0  0  0  0
   -0.3390    1.5307   -0.0051 C   0  0  0  0  0  0  0  0  0  0  0  0
    2.1220    0.9143    0.1110 C   0  0  0  0  0  0  0  0  0  0  0  0
    4.4111    0.1506    0.2253 C   0  0  0  0  0  0  0  0  0  0  0  0
    3.0454   -0.1289    0.1782 C   0  0  0  0  0  0  0  0  0  0  0  0
    2.5643    2.2370    0.0906 C   0  0  0  0  0  0  0  0  0  0  0  0
    4.8534    1.4733    0.2050 C   0  0  0  0  0  0  0  0  0  0  0  0
    3.9300    2.5166    0.1376 C   0  0  0  0  0  0  0  0  0  0  0  0
    5.3745   -0.9365    0.2948 C   0  0  0  0  0  0  0  0  0  0  0  0
    7.7067   -1.6752   -0.2533 C   0  0  0  0  0  0  0  0  0  0  0  0
    7.5347   -2.6439   -1.4051 C   0  0  0  0  0  0  0  0  0  0  0  0
   -6.4961    0.5901   -0.9941 H   0  0  0  0  0  0  0  0  0  0  0  0
   -7.2973   -2.3561   -1.1714 H   0  0  0  0  0  0  0  0  0  0  0  0
   -6.3814   -1.4592   -2.3906 H   0  0  0  0  0  0  0  0  0  0  0  0
   -8.0530   -0.9999   -2.0233 H   0  0  0  0  0  0  0  0  0  0  0  0
   -7.8492   -1.1554    1.1216 H   0  0  0  0  0  0  0  0  0  0  0  0
   -8.5904    0.1692    0.2093 H   0  0  0  0  0  0  0  0  0  0  0  0
   -7.2836    0.5041    1.3586 H   0  0  0  0  0  0  0  0  0  0  0  0
   -3.4981   -2.8143    1.5107 H   0  0  0  0  0  0  0  0  0  0  0  0
   -1.1193   -0.8657    1.1007 H   0  0  0  0  0  0  0  0  0  0  0  0
   -2.5912    2.5622   -1.0936 H   0  0  0  0  0  0  0  0  0  0  0  0
    0.5277   -0.3637    0.0462 H   0  0  0  0  0  0  0  0  0  0  0  0
    2.6937   -1.1583    0.1893 H   0  0  0  0  0  0  0  0  0  0  0  0
    1.9122    3.0973    0.0414 H   0  0  0  0  0  0  0  0  0  0  0  0
    5.9048    1.7370    0.2717 H   0  0  0  0  0  0  0  0  0  0  0  0
    4.2748    3.5467    0.1291 H   0  0  0  0  0  0  0  0  0  0  0  0
    6.8508    0.1944   -0.6817 H   0  0  0  0  0  0  0  0  0  0  0  0
    7.7054   -2.2180    0.6977 H   0  0  0  0  0  0  0  0  0  0  0  0
    8.6557   -1.1379   -0.3444 H   0  0  0  0  0  0  0  0  0  0  0  0
    6.5943   -3.1985   -1.3228 H   0  0  0  0  0  0  0  0  0  0  0  0
    7.5248   -2.1140   -2.3635 H   0  0  0  0  0  0  0  0  0  0  0  0
    8.3560   -3.3667   -1.4215 H   0  0  0  0  0  0  0  0  0  0  0  0
  1 17  2  0  0  0  0
  2 24  2  0  0  0  0
  3  4  1  0  0  0  0
  3  8  1  0  0  0  0
  3  9  1  0  0  0  0
  4 13  2  0  0  0  0
  5  9  2  0  0  0  0
  5 16  1  0  0  0  0
  6 17  1  0  0  0  0
  6 18  1  0  0  0  0
  6 37  1  0  0  0  0
  7 24  1  0  0  0  0
  7 25  1  0  0  0  0
  7 42  1  0  0  0  0
  8 11  1  0  0  0  0
  8 12  1  0  0  0  0
  8 27  1  0  0  0  0
  9 10  1  0  0  0  0
 10 13  1  0  0  0  0
 10 14  2  0  0  0  0
 11 28  1  0  0  0  0
 11 29  1  0  0  0  0
 11 30  1  0  0  0  0
 12 31  1  0  0  0  0
 12 32  1  0  0  0  0
 12 33  1  0  0  0  0
 13 34  1  0  0  0  0
 14 15  1  0  0  0  0
 14 35  1  0  0  0  0
 15 16  2  0  0  0  0
 15 17  1  0  0  0  0
 16 36  1  0  0  0  0
 18 20  1  0  0  0  0
 18 21  2  0  0  0  0
 19 20  2  0  0  0  0
 19 22  1  0  0  0  0
 19 24  1  0  0  0  0
 20 38  1  0  0  0  0
 21 23  1  0  0  0  0
 21 39  1  0  0  0  0
 22 23  2  0  0  0  0
 22 40  1  0  0  0  0
 23 41  1  0  0  0  0
 25 26  1  0  0  0  0
 25 43  1  0  0  0  0
 25 44  1  0  0  0  0
 26 45  1  0  0  0  0
 26 46  1  0  0  0  0
 26 47  1  0  0  0  0
M  END
> <PUBCHEM_COMPOUND_CID>
17396096

> <PUBCHEM_CONFORMER_RMSD>
0.8

> <PUBCHEM_CONFORMER_DIVERSEORDER>
1
58
29
48
42
35
19
11
50
46
26
16
9
10
17
66
53
18
67
40
37
32
60
8
12
41
7
24
54
63
69
52
38
21
14
64
23
70
3
62
43
44
55
30
39
61
5
36
65
22
28
4
51
33
34
15
47
56
6
49
57
31
20
2
25
45
27
13
59
68

> <PUBCHEM_MMFF94_PARTIAL_CHARGES>
31
1 -0.57
13 0.14
14 -0.15
15 0.09
16 0.16
17 0.54
18 0.12
19 0.09
2 -0.57
20 -0.15
21 -0.15
22 -0.15
23 -0.15
24 0.54
25 0.3
3 0.31
34 0.15
35 0.15
36 0.15
37 0.37
38 0.15
39 0.15
4 -0.71
40 0.15
41 0.15
42 0.37
5 -0.57
6 -0.55
7 -0.73
8 0.26
9 0.11

> <PUBCHEM_EFFECTIVE_ROTOR_COUNT>
7

> <PUBCHEM_PHARMACOPHORE_FEATURES>
10
1 1 acceptor
1 2 acceptor
1 4 acceptor
1 6 donor
1 7 donor
3 3 5 9 cation
3 8 11 12 hydrophobe
5 3 4 9 10 13 rings
6 18 19 20 21 22 23 rings
6 5 9 10 14 15 16 rings

> <PUBCHEM_HEAVY_ATOM_COUNT>
26

> <PUBCHEM_ATOM_DEF_STEREO_COUNT>
0

> <PUBCHEM_ATOM_UDEF_STEREO_COUNT>
0

> <PUBCHEM_BOND_DEF_STEREO_COUNT>
0

> <PUBCHEM_BOND_UDEF_STEREO_COUNT>
0

> <PUBCHEM_ISOTOPIC_ATOM_COUNT>
0

> <PUBCHEM_COMPONENT_COUNT>
1

> <PUBCHEM_CACTVS_TAUTO_COUNT>
4

> <PUBCHEM_CONFORMER_ID>
0109718000000001

> <PUBCHEM_MMFF94_ENERGY>
61.9171

> <PUBCHEM_FEATURE_SELFOVERLAP>
50.854

> <PUBCHEM_SHAPE_FINGERPRINT>
10 15 6627748894482675414
106641 1 8574429868696314813
10835480 77 18127697028474762581
11408170 108 17676482882942546319
11524674 6 17458063751186001607
11578080 2 16342039769738008687
117089 54 17973998746718977630
12516196 113 18260833653071328409
12760667 363 18409167714654897729
13533116 47 18334860476576570256
13668630 136 18333731351523548718
13673619 4 18342457058368788132
13685833 64 18410855464897986832
14117953 113 18334011717955787175
14123256 34 18408880763737361302
14216079 64 18408322211477179206
14556957 393 15697423555545238966
14931854 50 17846218899257890866
15064986 266 18201709661719151945
15183329 4 18202004343218748459
15198563 99 17560253508949655133
15419008 145 7060111991500566038
15510800 12 18334565871916666342
16126227 98 10087633810530516271
16728433 281 16485588717836160053
17844677 252 18412258437192752400
18603816 31 17458637683518537471
18643901 69 18272365408137156063
20028762 73 18187365437381678246
20105231 36 17561074805427695299
2026 5 18261954171595711198
21033650 10 16701744959287515861
21130935 74 18189053106003934307
21150785 3 14836118857919733562
21236236 1 18411421722546496789
21267235 1 18413103974350115337
21279426 13 18131356267664569507
21304304 249 18333729126509210134
21307412 95 18272655611142104799
21682296 61 18407755945450003950
221357 26 18343304768996114440
2215653 11 18270689671249967749
23522609 53 18120904335421706393
23559900 14 18198910210731003377
25269216 80 14835829639829282147
255183 451 18408598189565852860
3004659 81 18060422408817141376
335352 9 18344149190242871071
4073 2 17916864595431479232
439807 62 18273494593915714362
444769 64 18412822500449266099
465052 167 18260264166757405252
5104073 3 18333454265877256456
54039377 194 18261387889158221894
5470011 282 17418083326910087734
5718773 13 18334579027195492598
6138700 20 18413108364387096467
636775 8 18189605203445865814
9962374 69 18041290885388241942

> <PUBCHEM_SHAPE_MULTIPOLES>
498.42
22.86
2.69
0.94
3.49
0.29
-0.19
-17.08
-4.08
3.61
-0.25
-0.6
-0.47
1.23

> <PUBCHEM_SHAPE_SELFOVERLAP>
1072.205

> <PUBCHEM_SHAPE_VOLUME>
274.3

> <PUBCHEM_COORDINATE_TYPE>
2
5
10

$$$$

