72537
  -OEChem-07051212563D

 32 34  0     0  0  0  0  0  0999 V2000
    2.6325    1.7087    0.0000 O   0  0  0  0  0  0  0  0  0  0  0  0
    0.3848   -2.5472    0.0016 O   0  0  0  0  0  0  0  0  0  0  0  0
   -2.1797   -2.5922   -0.0011 O   0  0  0  0  0  0  0  0  0  0  0  0
   -4.5607    1.4929    0.0001 O   0  0  0  0  0  0  0  0  0  0  0  0
    2.9570   -2.3512   -0.0005 O   0  0  0  0  0  0  0  0  0  0  0  0
   -0.9062   -0.5164   -0.0001 C   0  0  0  0  0  0  0  0  0  0  0  0
   -0.9358    0.8994    0.0000 C   0  0  0  0  0  0  0  0  0  0  0  0
    1.5224   -0.4504   -0.0001 C   0  0  0  0  0  0  0  0  0  0  0  0
    1.4951    0.9406   -0.0001 C   0  0  0  0  0  0  0  0  0  0  0  0
    0.3316   -1.1813   -0.0002 C   0  0  0  0  0  0  0  0  0  0  0  0
    0.2731    1.6145   -0.0001 C   0  0  0  0  0  0  0  0  0  0  0  0
   -2.1173   -1.2276   -0.0003 C   0  0  0  0  0  0  0  0  0  0  0  0
   -2.1749    1.5602    0.0003 C   0  0  0  0  0  0  0  0  0  0  0  0
    2.8252   -1.1350    0.0002 C   0  0  0  0  0  0  0  0  0  0  0  0
   -3.3679    0.8370    0.0002 C   0  0  0  0  0  0  0  0  0  0  0  0
   -3.3392   -0.5542   -0.0002 C   0  0  0  0  0  0  0  0  0  0  0  0
    3.8606    1.0673    0.0003 C   0  0  0  0  0  0  0  0  0  0  0  0
    4.0167   -0.2646    0.0004 C   0  0  0  0  0  0  0  0  0  0  0  0
    5.0246    2.0071   -0.0006 C   0  0  0  0  0  0  0  0  0  0  0  0
   -5.7417    0.6925    0.0001 C   0  0  0  0  0  0  0  0  0  0  0  0
    0.2647    2.7031    0.0000 H   0  0  0  0  0  0  0  0  0  0  0  0
   -2.2153    2.6480    0.0004 H   0  0  0  0  0  0  0  0  0  0  0  0
   -4.2402   -1.1586   -0.0004 H   0  0  0  0  0  0  0  0  0  0  0  0
    4.9927   -0.7357    0.0002 H   0  0  0  0  0  0  0  0  0  0  0  0
    4.9939    2.6471    0.8871 H   0  0  0  0  0  0  0  0  0  0  0  0
    4.9930    2.6465   -0.8887 H   0  0  0  0  0  0  0  0  0  0  0  0
    5.9836    1.4784   -0.0009 H   0  0  0  0  0  0  0  0  0  0  0  0
   -0.4691   -2.9304    0.2513 H   0  0  0  0  0  0  0  0  0  0  0  0
   -3.1068   -2.8845   -0.0011 H   0  0  0  0  0  0  0  0  0  0  0  0
   -5.8190    0.0877    0.9100 H   0  0  0  0  0  0  0  0  0  0  0  0
   -5.8191    0.0880   -0.9101 H   0  0  0  0  0  0  0  0  0  0  0  0
   -6.5957    1.3779    0.0003 H   0  0  0  0  0  0  0  0  0  0  0  0
  1  9  1  0  0  0  0
  1 17  1  0  0  0  0
  2 10  1  0  0  0  0
  2 28  1  0  0  0  0
  3 12  1  0  0  0  0
  3 29  1  0  0  0  0
  4 15  1  0  0  0  0
  4 20  1  0  0  0  0
  5 14  2  0  0  0  0
  6  7  1  0  0  0  0
  6 10  1  0  0  0  0
  6 12  2  0  0  0  0
  7 11  1  0  0  0  0
  7 13  2  0  0  0  0
  8  9  1  0  0  0  0
  8 10  2  0  0  0  0
  8 14  1  0  0  0  0
  9 11  2  0  0  0  0
 11 21  1  0  0  0  0
 12 16  1  0  0  0  0
 13 15  1  0  0  0  0
 13 22  1  0  0  0  0
 14 18  1  0  0  0  0
 15 16  2  0  0  0  0
 16 23  1  0  0  0  0
 17 18  2  0  0  0  0
 17 19  1  0  0  0  0
 18 24  1  0  0  0  0
 19 25  1  0  0  0  0
 19 26  1  0  0  0  0
 19 27  1  0  0  0  0
 20 30  1  0  0  0  0
 20 31  1  0  0  0  0
 20 32  1  0  0  0  0
M  END
> <PUBCHEM_COMPOUND_CID>
72537

> <PUBCHEM_CONFORMER_RMSD>
0.6

> <PUBCHEM_CONFORMER_DIVERSEORDER>
1

> <PUBCHEM_MMFF94_PARTIAL_CHARGES>
24
1 -0.16
10 0.08
11 -0.15
12 0.08
13 -0.15
14 0.47
15 0.08
16 -0.15
17 -0.06
18 -0.14
19 0.14
2 -0.53
20 0.28
21 0.15
22 0.15
23 0.15
24 0.15
28 0.45
29 0.45
3 -0.53
4 -0.36
5 -0.57
8 0.09
9 0.08

> <PUBCHEM_EFFECTIVE_ROTOR_COUNT>
1

> <PUBCHEM_PHARMACOPHORE_FEATURES>
8
1 1 acceptor
1 2 donor
1 3 donor
1 4 acceptor
1 5 acceptor
6 1 8 9 14 17 18 rings
6 6 7 12 13 15 16 rings
6 6 7 8 9 10 11 rings

> <PUBCHEM_HEAVY_ATOM_COUNT>
20

> <PUBCHEM_ATOM_DEF_STEREO_COUNT>
0

> <PUBCHEM_ATOM_UDEF_STEREO_COUNT>
0

> <PUBCHEM_BOND_DEF_STEREO_COUNT>
0

> <PUBCHEM_BOND_UDEF_STEREO_COUNT>
0

> <PUBCHEM_ISOTOPIC_ATOM_COUNT>
0

> <PUBCHEM_COMPONENT_COUNT>
1

> <PUBCHEM_CACTVS_TAUTO_COUNT>
67

> <PUBCHEM_CONFORMER_ID>
00011B5900000001

> <PUBCHEM_MMFF94_ENERGY>
71.4032

> <PUBCHEM_FEATURE_SELFOVERLAP>
40.663

> <PUBCHEM_SHAPE_FINGERPRINT>
10411042 1 17401767918141091687
10493431 412 18410853248684435969
10608611 8 18410858758853196044
10616163 171 18337952268797924294
10967382 1 18410575127792151910
11132069 177 18411984645859267144
11471102 20 18410295851717410093
11578080 2 16952549982954487571
12236239 1 17895195550064702513
12403259 415 18129663131500992197
12403814 3 17775008990088054493
12788726 201 17458898348898650985
13140716 1 18412829105165189370
13675066 3 18060412526018206929
138480 1 17689999359207043175
14790565 3 18337102492629127153
15196674 1 18410855447243337863
15442244 35 18265614479941742930
15536298 74 18335138713332016548
16945 1 18266459999682307878
19591789 44 18195808694096386189
200 152 18040722476415361885
20645477 56 18342177748050170301
20645477 70 18335421326048039847
21267235 1 18337945813351276014
21421861 104 17916598664490032634
21501502 16 18410297994943208878
2334 1 18410575050519787266
23366157 5 18131631214697256242
23402539 116 18334301920284742580
23402655 69 18333733502785121388
23463225 33 18412545439833836964
23558518 356 17769656395252643849
23559900 14 18334576871860271038
2748010 2 18410851049381605598
296302 2 18407758136178782405
335352 9 18410574011633561238
33824 294 18413108394140319426
34934 24 18410015416138544270
350125 39 18267865175743416508
3545911 37 18411135831477937284
474 4 17845930741327729252
495365 180 17458359515328501344
5104073 3 18412262835032931979
69090 78 18410295830653913255
7364860 26 18335983181275430326
9709674 26 18409443674498344694

> <PUBCHEM_SHAPE_MULTIPOLES>
382.24
9.47
2.48
0.59
2.92
1.04
0
-4.3
0
-0.79
0
0
-0.02
0

> <PUBCHEM_SHAPE_SELFOVERLAP>
856.735

> <PUBCHEM_SHAPE_VOLUME>
202.5

> <PUBCHEM_COORDINATE_TYPE>
2
5
10

$$$$

