442324
  -OEChem-07051212572D

 36 38  0     1  0  0  0  0  0999 V2000
    7.3424   -0.9597    0.0000 O   0  0  0  0  0  0  0  0  0  0  0  0
    5.5301    1.8450    0.0000 O   0  0  0  0  0  0  0  0  0  0  0  0
    2.8641   -0.6758    0.0000 O   0  0  0  0  0  0  0  0  0  0  0  0
    8.9260   -0.1550    0.0000 O   0  0  0  0  0  0  0  0  0  0  0  0
    2.0000    0.8692    0.0000 O   0  0  0  0  0  0  0  0  0  0  0  0
    4.6641   -0.6550    0.0000 C   0  0  2  0  0  0  0  0  0  0  0  0
    4.6641    0.3450    0.0000 C   0  0  1  0  0  0  0  0  0  0  0  0
    6.3961    0.3450    0.0000 C   0  0  1  0  0  0  0  0  0  0  0  0
    5.5301    0.8450    0.0000 C   0  0  2  0  0  0  0  0  0  0  0  0
    6.3961   -0.6550    0.0000 C   0  0  2  0  0  0  0  0  0  0  0  0
    5.5301   -1.1550    0.0000 C   0  0  0  0  0  0  0  0  0  0  0  0
    3.7702   -1.1897    0.0000 C   0  0  0  0  0  0  0  0  0  0  0  0
    3.7702    0.8797    0.0000 C   0  0  0  0  0  0  0  0  0  0  0  0
    7.3424    0.6497    0.0000 C   0  0  0  0  0  0  0  0  0  0  0  0
    4.6641   -1.6550    0.0000 C   0  0  0  0  0  0  0  0  0  0  0  0
    7.9260   -0.1550    0.0000 C   0  0  0  0  0  0  0  0  0  0  0  0
    2.8641    0.3658    0.0000 C   0  0  0  0  0  0  0  0  0  0  0  0
    3.7817    1.8796    0.0000 C   0  0  0  0  0  0  0  0  0  0  0  0
    7.6530    1.6002    0.0000 C   0  0  0  0  0  0  0  0  0  0  0  0
    3.7981   -2.1550    0.0000 C   0  0  0  0  0  0  0  0  0  0  0  0
    4.6706    1.1950    0.0000 H   0  0  0  0  0  0  0  0  0  0  0  0
    6.4861    1.1902    0.0000 H   0  0  0  0  0  0  0  0  0  0  0  0
    6.0671    1.1550    0.0000 H   0  0  0  0  0  0  0  0  0  0  0  0
    6.4861   -1.5002    0.0000 H   0  0  0  0  0  0  0  0  0  0  0  0
    5.1316   -1.6300    0.0000 H   0  0  0  0  0  0  0  0  0  0  0  0
    5.9286   -1.6300    0.0000 H   0  0  0  0  0  0  0  0  0  0  0  0
    3.3765   -1.6687    0.0000 H   0  0  0  0  0  0  0  0  0  0  0  0
    4.1748   -1.6594    0.0000 H   0  0  0  0  0  0  0  0  0  0  0  0
    5.2010   -1.9650    0.0000 H   0  0  0  0  0  0  0  0  0  0  0  0
    6.0671    2.1550    0.0000 H   0  0  0  0  0  0  0  0  0  0  0  0
    4.3222    2.1834    0.0000 H   0  0  0  0  0  0  0  0  0  0  0  0
    3.2484    2.1958    0.0000 H   0  0  0  0  0  0  0  0  0  0  0  0
    8.2597    1.7281    0.0000 H   0  0  0  0  0  0  0  0  0  0  0  0
    7.2390    2.0617    0.0000 H   0  0  0  0  0  0  0  0  0  0  0  0
    3.2611   -1.8450    0.0000 H   0  0  0  0  0  0  0  0  0  0  0  0
    3.7981   -2.7750    0.0000 H   0  0  0  0  0  0  0  0  0  0  0  0
  1 10  1  0  0  0  0
  1 16  1  0  0  0  0
  9  2  1  1  0  0  0
  2 30  1  0  0  0  0
  3 12  1  0  0  0  0
  3 17  1  0  0  0  0
  4 16  2  0  0  0  0
  5 17  2  0  0  0  0
  6  7  1  0  0  0  0
  6 11  1  0  0  0  0
  6 12  1  0  0  0  0
  6 15  1  1  0  0  0
  7  9  1  0  0  0  0
  7 13  1  0  0  0  0
  7 21  1  1  0  0  0
  8  9  1  0  0  0  0
  8 10  1  0  0  0  0
  8 14  1  0  0  0  0
  8 22  1  1  0  0  0
  9 23  1  0  0  0  0
 10 11  1  0  0  0  0
 10 24  1  6  0  0  0
 11 25  1  0  0  0  0
 11 26  1  0  0  0  0
 12 27  1  0  0  0  0
 12 28  1  0  0  0  0
 13 17  1  0  0  0  0
 13 18  2  0  0  0  0
 14 16  1  0  0  0  0
 14 19  2  0  0  0  0
 15 20  2  0  0  0  0
 15 29  1  0  0  0  0
 18 31  1  0  0  0  0
 18 32  1  0  0  0  0
 19 33  1  0  0  0  0
 19 34  1  0  0  0  0
 20 35  1  0  0  0  0
 20 36  1  0  0  0  0
M  END
> <PUBCHEM_COMPOUND_CID>
442324

> <PUBCHEM_COMPOUND_CANONICALIZED>
1

> <PUBCHEM_CACTVS_COMPLEXITY>
549

> <PUBCHEM_CACTVS_HBOND_ACCEPTOR>
5

> <PUBCHEM_CACTVS_HBOND_DONOR>
1

> <PUBCHEM_CACTVS_ROTATABLE_BOND>
1

> <PUBCHEM_CACTVS_SUBSKEYS>
AAADceBwOAAAAAAAAAAAAAAAAAAAASAAAAA0QAAAAAAAAEiQAAAAGgAACAAADxSggAIACAAABgCIAiDSCAAAAAAgAAAIAAEAAEgAFBIAIQACQAAFwAAAIIHK7PyPgAAAAAAAAADAAAYQADAAAAAAAAAAAA==

> <PUBCHEM_IUPAC_OPENEYE_NAME>
(3aS,4R,4aR,8aR,9aS)-4-hydroxy-3,5-dimethylene-8a-vinyl-3a,4,4a,8,9,9a-hexahydrofuro[3,2-g]isochromene-2,6-dione

> <PUBCHEM_IUPAC_CAS_NAME>
(3aS,4R,4aR,8aR,9aS)-8a-ethenyl-4-hydroxy-3,5-dimethylene-3a,4,4a,8,9,9a-hexahydrofuro[3,2-g][2]benzopyran-2,6-dione

> <PUBCHEM_IUPAC_NAME>
(3aS,4R,4aR,8aR,9aS)-8a-ethenyl-4-hydroxy-3,5-dimethylidene-3a,4,4a,8,9,9a-hexahydrofuro[3,2-g]isochromene-2,6-dione

> <PUBCHEM_IUPAC_SYSTEMATIC_NAME>
(3aS,4R,4aR,8aR,9aS)-8a-ethenyl-3,5-dimethylidene-4-oxidanyl-3a,4,4a,8,9,9a-hexahydrofuro[3,2-g]isochromene-2,6-dione

> <PUBCHEM_IUPAC_TRADITIONAL_NAME>
(3aS,4R,4aR,8aR,9aS)-4-hydroxy-3,5-dimethylene-8a-vinyl-3a,4,4a,8,9,9a-hexahydrofur[3,2-g]isochromene-2,6-quinone

> <PUBCHEM_IUPAC_INCHI>
InChI=1S/C15H16O5/c1-4-15-5-9-10(7(2)14(18)20-9)12(16)11(15)8(3)13(17)19-6-15/h4,9-12,16H,1-3,5-6H2/t9-,10+,11+,12-,15+/m0/s1

> <PUBCHEM_IUPAC_INCHIKEY>
OLUMHNYQQSDTDB-MVIRXUPPSA-N

> <PUBCHEM_XLOGP3_AA>
1.3

> <PUBCHEM_EXACT_MASS>
276.099774

> <PUBCHEM_MOLECULAR_FORMULA>
C15H16O5

> <PUBCHEM_MOLECULAR_WEIGHT>
276.28454

> <PUBCHEM_OPENEYE_CAN_SMILES>
C=CC12CC3C(C(C1C(=C)C(=O)OC2)O)C(=C)C(=O)O3

> <PUBCHEM_OPENEYE_ISO_SMILES>
C=C[C@]12C[C@H]3[C@H]([C@@H]([C@H]1C(=C)C(=O)OC2)O)C(=C)C(=O)O3

> <PUBCHEM_CACTVS_TPSA>
72.8

> <PUBCHEM_MONOISOTOPIC_WEIGHT>
276.099774

> <PUBCHEM_TOTAL_CHARGE>
0

> <PUBCHEM_HEAVY_ATOM_COUNT>
20

> <PUBCHEM_ATOM_DEF_STEREO_COUNT>
5

> <PUBCHEM_ATOM_UDEF_STEREO_COUNT>
0

> <PUBCHEM_BOND_DEF_STEREO_COUNT>
0

> <PUBCHEM_BOND_UDEF_STEREO_COUNT>
0

> <PUBCHEM_ISOTOPIC_ATOM_COUNT>
0

> <PUBCHEM_COMPONENT_COUNT>
1

> <PUBCHEM_CACTVS_TAUTO_COUNT>
1

> <PUBCHEM_COORDINATE_TYPE>
1
5
255

> <PUBCHEM_BONDANNOTATIONS>
10  24  6
9  2  5
6  15  5
7  21  5
8  22  5

$$$$

