11817119
  -OEChem-07051213132D

  1  0  0     0  0  0  0  0  0999 V2000
    2.0000    0.0000    0.0000 Th  0  0  0  0  0  0  0  0  0  0  0  0
M  ISO  1   1 232
M  END
> <PUBCHEM_COMPOUND_CID>
11817119

> <PUBCHEM_COMPOUND_CANONICALIZED>
1

> <PUBCHEM_CACTVS_COMPLEXITY>
0

> <PUBCHEM_CACTVS_HBOND_ACCEPTOR>
0

> <PUBCHEM_CACTVS_HBOND_DONOR>
0

> <PUBCHEM_CACTVS_ROTATABLE_BOND>
0

> <PUBCHEM_CACTVS_SUBSKEYS>
AAADcQAAAAAAAAAAAAAAAAAAAAAAAAAAAAAAAAAAAAAAAAAAAAAAAAAAAAAAAAAAAAAAAAAAAAAAAAAAAAAAAAAAAAAAAAAAAAAAAAAAAAAAAAAAAAAAAAAAAAAAAAAAAAAAAAAAAAAAAAAAAAAAAAAAAA==

> <PUBCHEM_IUPAC_OPENEYE_NAME>
thorium-232

> <PUBCHEM_IUPAC_CAS_NAME>
thorium-232

> <PUBCHEM_IUPAC_NAME>
thorium-232

> <PUBCHEM_IUPAC_SYSTEMATIC_NAME>
thorium-232

> <PUBCHEM_IUPAC_TRADITIONAL_NAME>
thorium-232

> <PUBCHEM_IUPAC_INCHI>
InChI=1S/Th/i1+0

> <PUBCHEM_IUPAC_INCHIKEY>
ZSLUVFAKFWKJRC-IGMARMGPSA-N

> <PUBCHEM_EXACT_MASS>
232.038055

> <PUBCHEM_MOLECULAR_FORMULA>
Th

> <PUBCHEM_MOLECULAR_WEIGHT>
232.038055

> <PUBCHEM_OPENEYE_CAN_SMILES>
[Th]

> <PUBCHEM_OPENEYE_ISO_SMILES>
[232Th]

> <PUBCHEM_CACTVS_TPSA>
0

> <PUBCHEM_MONOISOTOPIC_WEIGHT>
232.038055

> <PUBCHEM_TOTAL_CHARGE>
0

> <PUBCHEM_HEAVY_ATOM_COUNT>
1

> <PUBCHEM_ATOM_DEF_STEREO_COUNT>
0

> <PUBCHEM_ATOM_UDEF_STEREO_COUNT>
0

> <PUBCHEM_BOND_DEF_STEREO_COUNT>
0

> <PUBCHEM_BOND_UDEF_STEREO_COUNT>
0

> <PUBCHEM_ISOTOPIC_ATOM_COUNT>
1

> <PUBCHEM_COMPONENT_COUNT>
1

> <PUBCHEM_CACTVS_TAUTO_COUNT>
1

> <PUBCHEM_COORDINATE_TYPE>
1
5
255

$$$$

