12674
  -OEChem-06261207143D

 21 20  0     1  0  0  0  0  0999 V2000
   -0.1075   -1.8069   -0.0292 O   0  0  0  0  0  0  0  0  0  0  0  0
   -2.3776    0.9319    0.3796 O   0  0  0  0  0  0  0  0  0  0  0  0
    2.7144    0.5921   -0.7692 O   0  0  0  0  0  0  0  0  0  0  0  0
   -2.5886   -1.0717   -0.7438 O   0  0  0  0  0  0  0  0  0  0  0  0
    2.1508   -0.2467    1.3075 O   0  0  0  0  0  0  0  0  0  0  0  0
   -0.5182   -0.5157    0.3979 C   0  0  1  0  0  0  0  0  0  0  0  0
    0.4299    0.5142   -0.2057 C   0  0  0  0  0  0  0  0  0  0  0  0
   -1.9442   -0.2857   -0.0615 C   0  0  0  0  0  0  0  0  0  0  0  0
    1.8500    0.2404    0.2254 C   0  0  0  0  0  0  0  0  0  0  0  0
   -3.7078    1.2904   -0.0078 C   0  0  0  0  0  0  0  0  0  0  0  0
    4.0989    0.3577   -0.4931 C   0  0  0  0  0  0  0  0  0  0  0  0
   -0.4923   -0.5004    1.4932 H   0  0  0  0  0  0  0  0  0  0  0  0
    0.1700    1.5347    0.0932 H   0  0  0  0  0  0  0  0  0  0  0  0
    0.3802    0.4523   -1.3001 H   0  0  0  0  0  0  0  0  0  0  0  0
   -0.6575   -2.4584    0.4386 H   0  0  0  0  0  0  0  0  0  0  0  0
   -3.7835    1.3424   -1.0981 H   0  0  0  0  0  0  0  0  0  0  0  0
   -3.9281    2.2777    0.4066 H   0  0  0  0  0  0  0  0  0  0  0  0
   -4.4268    0.5713    0.3963 H   0  0  0  0  0  0  0  0  0  0  0  0
    4.2767   -0.7091   -0.3278 H   0  0  0  0  0  0  0  0  0  0  0  0
    4.4160    0.9420    0.3760 H   0  0  0  0  0  0  0  0  0  0  0  0
    4.6782    0.6794   -1.3626 H   0  0  0  0  0  0  0  0  0  0  0  0
  1  6  1  0  0  0  0
  1 15  1  0  0  0  0
  2  8  1  0  0  0  0
  2 10  1  0  0  0  0
  3  9  1  0  0  0  0
  3 11  1  0  0  0  0
  4  8  2  0  0  0  0
  5  9  2  0  0  0  0
  6  7  1  0  0  0  0
  6  8  1  0  0  0  0
  6 12  1  0  0  0  0
  7  9  1  0  0  0  0
  7 13  1  0  0  0  0
  7 14  1  0  0  0  0
 10 16  1  0  0  0  0
 10 17  1  0  0  0  0
 10 18  1  0  0  0  0
 11 19  1  0  0  0  0
 11 20  1  0  0  0  0
 11 21  1  0  0  0  0
M  END
> <PUBCHEM_COMPOUND_CID>
12674

> <PUBCHEM_CONFORMER_RMSD>
0.6

> <PUBCHEM_CONFORMER_DIVERSEORDER>
7
37
24
39
26
19
3
38
13
23
31
34
9
41
14
15
32
6
5
18
1
36
29
21
17
35
40
27
16
11
22
28
10
33
20
8
2
12
30
25
4

> <PUBCHEM_MMFF94_PARTIAL_CHARGES>
12
1 -0.68
10 0.28
11 0.28
15 0.4
2 -0.43
3 -0.43
4 -0.57
5 -0.57
6 0.34
7 0.06
8 0.66
9 0.66

> <PUBCHEM_EFFECTIVE_ROTOR_COUNT>
5

> <PUBCHEM_PHARMACOPHORE_FEATURES>
4
1 1 acceptor
1 1 donor
1 4 acceptor
1 5 acceptor

> <PUBCHEM_HEAVY_ATOM_COUNT>
11

> <PUBCHEM_ATOM_DEF_STEREO_COUNT>
0

> <PUBCHEM_ATOM_UDEF_STEREO_COUNT>
1

> <PUBCHEM_BOND_DEF_STEREO_COUNT>
0

> <PUBCHEM_BOND_UDEF_STEREO_COUNT>
0

> <PUBCHEM_ISOTOPIC_ATOM_COUNT>
0

> <PUBCHEM_COMPONENT_COUNT>
1

> <PUBCHEM_CACTVS_TAUTO_COUNT>
1

> <PUBCHEM_CONFORMER_ID>
0000318200000007

> <PUBCHEM_MMFF94_ENERGY>
11.2788

> <PUBCHEM_FEATURE_SELFOVERLAP>
20.305

> <PUBCHEM_SHAPE_FINGERPRINT>
12716758 59 17603308141692217955
12897270 3 16660363688224455529
12932741 1 16950569847984660978
12932764 1 17676210143264195851
14325111 11 18410854356332122734
14390081 3 18040723588532251937
14993402 34 18201160966170816375
15775835 57 18272651263817224757
177051 138 8430319026252123292
18186145 218 17530685398513875409
20653085 51 18261106344607407393
20711983 171 18411982468173587748
21501925 9 9583228423024078158
23235685 24 18412544327258089141
23402539 116 18334862718918497508
29004967 10 14836410228675108940
3248919 1 17988935448049351762
5084963 1 17749104435585862955

> <PUBCHEM_SHAPE_MULTIPOLES>
197.03
6.38
1.25
0.85
1.55
0.3
-0.11
-2.36
0.88
-0.84
0.08
0.32
0.04
-0.44

> <PUBCHEM_SHAPE_SELFOVERLAP>
375.59

> <PUBCHEM_SHAPE_VOLUME>
121.4

> <PUBCHEM_COORDINATE_TYPE>
2
5
10

$$$$

