46174000
  -OEChem-07051213112D

 77 80  0     1  0  0  0  0  0999 V2000
    8.3916   -3.9771    0.0000 O   0  0  0  0  0  0  0  0  0  0  0  0
    9.6517   -2.7170    0.0000 O   0  0  0  0  0  0  0  0  0  0  0  0
    7.8916    1.5617    0.0000 O   0  0  0  0  0  0  0  0  0  0  0  0
    4.4275   -1.4383    0.0000 O   0  0  0  0  0  0  0  0  0  0  0  0
    4.4275    0.5617    0.0000 O   0  0  0  0  0  0  0  0  0  0  0  0
    5.2935    3.0617    0.0000 O   0  0  0  0  0  0  0  0  0  0  0  0
    2.7431   -3.4373    0.0000 O   0  0  0  0  0  0  0  0  0  0  0  0
    3.1590   -5.3936    0.0000 O   0  0  0  0  0  0  0  0  0  0  0  0
    8.7576    5.0617    0.0000 O   0  0  0  0  0  0  0  0  0  0  0  0
    7.0256    6.0617    0.0000 O   0  0  0  0  0  0  0  0  0  0  0  0
    7.0826   -3.0261    0.0000 C   0  0  3  0  0  0  0  0  0  0  0  0
    7.8916   -2.4383    0.0000 C   0  0  3  0  0  0  0  0  0  0  0  0
    7.8916   -1.4383    0.0000 C   0  0  0  0  0  0  0  0  0  0  0  0
    7.3916   -3.9771    0.0000 C   0  0  0  0  0  0  0  0  0  0  0  0
    6.1316   -2.7170    0.0000 C   0  0  0  0  0  0  0  0  0  0  0  0
    8.7006   -3.0261    0.0000 C   0  0  0  0  0  0  0  0  0  0  0  0
    7.0256   -0.9383    0.0000 C   0  0  0  0  0  0  0  0  0  0  0  0
    5.3884   -3.3862    0.0000 C   0  0  0  0  0  0  0  0  0  0  0  0
    6.1596    1.5617    0.0000 C   0  0  3  0  0  0  0  0  0  0  0  0
    7.0256    0.0617    0.0000 C   0  0  0  0  0  0  0  0  0  0  0  0
    6.1596    0.5617    0.0000 C   0  0  0  0  0  0  0  0  0  0  0  0
    6.1596   -1.4383    0.0000 C   0  0  0  0  0  0  0  0  0  0  0  0
    7.0256    2.0617    0.0000 C   0  0  3  0  0  0  0  0  0  0  0  0
    5.2935    0.0617    0.0000 C   0  0  0  0  0  0  0  0  0  0  0  0
    5.2935   -0.9383    0.0000 C   0  0  0  0  0  0  0  0  0  0  0  0
    4.4374   -3.0772    0.0000 C   0  0  0  0  0  0  0  0  0  0  0  0
    5.5963   -4.3643    0.0000 C   0  0  0  0  0  0  0  0  0  0  0  0
    5.2935    2.0617    0.0000 C   0  0  0  0  0  0  0  0  0  0  0  0
    7.0256    3.0617    0.0000 C   0  0  0  0  0  0  0  0  0  0  0  0
    3.6942   -3.7463    0.0000 C   0  0  0  0  0  0  0  0  0  0  0  0
    4.8532   -5.0335    0.0000 C   0  0  0  0  0  0  0  0  0  0  0  0
    3.9021   -4.7244    0.0000 C   0  0  0  0  0  0  0  0  0  0  0  0
    7.8916    3.5617    0.0000 C   0  0  0  0  0  0  0  0  0  0  0  0
    6.1596    3.5617    0.0000 C   0  0  0  0  0  0  0  0  0  0  0  0
    7.8916    4.5617    0.0000 C   0  0  0  0  0  0  0  0  0  0  0  0
    6.1596    4.5617    0.0000 C   0  0  0  0  0  0  0  0  0  0  0  0
    4.4275   -2.4383    0.0000 C   0  0  0  0  0  0  0  0  0  0  0  0
    7.0256    5.0617    0.0000 C   0  0  0  0  0  0  0  0  0  0  0  0
    2.0000   -4.1064    0.0000 C   0  0  0  0  0  0  0  0  0  0  0  0
    3.3669   -6.3717    0.0000 C   0  0  0  0  0  0  0  0  0  0  0  0
    8.7576    6.0617    0.0000 C   0  0  0  0  0  0  0  0  0  0  0  0
    6.9856   -2.4137    0.0000 H   0  0  0  0  0  0  0  0  0  0  0  0
    8.4440   -2.1568    0.0000 H   0  0  0  0  0  0  0  0  0  0  0  0
    8.5022   -1.5459    0.0000 H   0  0  0  0  0  0  0  0  0  0  0  0
    8.1037   -0.8557    0.0000 H   0  0  0  0  0  0  0  0  0  0  0  0
    6.7852   -4.1060    0.0000 H   0  0  0  0  0  0  0  0  0  0  0  0
    7.4564   -4.5937    0.0000 H   0  0  0  0  0  0  0  0  0  0  0  0
    6.4226   -2.1696    0.0000 H   0  0  0  0  0  0  0  0  0  0  0  0
    5.6430   -2.3353    0.0000 H   0  0  0  0  0  0  0  0  0  0  0  0
    6.1596    2.1817    0.0000 H   0  0  0  0  0  0  0  0  0  0  0  0
    7.5625    0.3717    0.0000 H   0  0  0  0  0  0  0  0  0  0  0  0
    6.1596   -2.0583    0.0000 H   0  0  0  0  0  0  0  0  0  0  0  0
    7.0256    1.4417    0.0000 H   0  0  0  0  0  0  0  0  0  0  0  0
    4.3084   -2.4707    0.0000 H   0  0  0  0  0  0  0  0  0  0  0  0
    6.1860   -4.5559    0.0000 H   0  0  0  0  0  0  0  0  0  0  0  0
    4.6830    2.1694    0.0000 H   0  0  0  0  0  0  0  0  0  0  0  0
    5.0815    1.4791    0.0000 H   0  0  0  0  0  0  0  0  0  0  0  0
    4.9821   -5.6399    0.0000 H   0  0  0  0  0  0  0  0  0  0  0  0
    8.4286    1.8717    0.0000 H   0  0  0  0  0  0  0  0  0  0  0  0
    8.4286    3.2517    0.0000 H   0  0  0  0  0  0  0  0  0  0  0  0
    3.8906    0.2517    0.0000 H   0  0  0  0  0  0  0  0  0  0  0  0
    5.6226    3.2517    0.0000 H   0  0  0  0  0  0  0  0  0  0  0  0
    4.7566    3.3717    0.0000 H   0  0  0  0  0  0  0  0  0  0  0  0
    5.6226    4.8717    0.0000 H   0  0  0  0  0  0  0  0  0  0  0  0
    3.8075   -2.4383    0.0000 H   0  0  0  0  0  0  0  0  0  0  0  0
    4.4275   -3.0583    0.0000 H   0  0  0  0  0  0  0  0  0  0  0  0
    5.0475   -2.4383    0.0000 H   0  0  0  0  0  0  0  0  0  0  0  0
    1.5851   -3.6457    0.0000 H   0  0  0  0  0  0  0  0  0  0  0  0
    1.5392   -4.5213    0.0000 H   0  0  0  0  0  0  0  0  0  0  0  0
    2.4149   -4.5672    0.0000 H   0  0  0  0  0  0  0  0  0  0  0  0
    2.7604   -6.5006    0.0000 H   0  0  0  0  0  0  0  0  0  0  0  0
    3.4958   -6.9782    0.0000 H   0  0  0  0  0  0  0  0  0  0  0  0
    3.9733   -6.2428    0.0000 H   0  0  0  0  0  0  0  0  0  0  0  0
    6.4887    6.3717    0.0000 H   0  0  0  0  0  0  0  0  0  0  0  0
    9.3776    6.0617    0.0000 H   0  0  0  0  0  0  0  0  0  0  0  0
    8.7576    6.6817    0.0000 H   0  0  0  0  0  0  0  0  0  0  0  0
    8.1376    6.0617    0.0000 H   0  0  0  0  0  0  0  0  0  0  0  0
  1 14  1  0  0  0  0
  1 16  1  0  0  0  0
  2 16  2  0  0  0  0
  3 23  1  0  0  0  0
  3 59  1  0  0  0  0
  4 25  1  0  0  0  0
  4 37  1  0  0  0  0
  5 24  1  0  0  0  0
  5 61  1  0  0  0  0
  6 28  1  0  0  0  0
  6 63  1  0  0  0  0
  7 30  1  0  0  0  0
  7 39  1  0  0  0  0
  8 32  1  0  0  0  0
  8 40  1  0  0  0  0
  9 35  1  0  0  0  0
  9 41  1  0  0  0  0
 10 38  1  0  0  0  0
 10 74  1  0  0  0  0
 11 12  1  0  0  0  0
 11 14  1  0  0  0  0
 11 15  1  0  0  0  0
 11 42  1  0  0  0  0
 12 13  1  0  0  0  0
 12 16  1  0  0  0  0
 12 43  1  0  0  0  0
 13 17  1  0  0  0  0
 13 44  1  0  0  0  0
 13 45  1  0  0  0  0
 14 46  1  0  0  0  0
 14 47  1  0  0  0  0
 15 18  1  0  0  0  0
 15 48  1  0  0  0  0
 15 49  1  0  0  0  0
 17 20  2  0  0  0  0
 17 22  1  0  0  0  0
 18 26  2  0  0  0  0
 18 27  1  0  0  0  0
 19 21  1  0  0  0  0
 19 23  1  0  0  0  0
 19 28  1  0  0  0  0
 19 50  1  0  0  0  0
 20 21  1  0  0  0  0
 20 51  1  0  0  0  0
 21 24  2  0  0  0  0
 22 25  2  0  0  0  0
 22 52  1  0  0  0  0
 23 29  1  0  0  0  0
 23 53  1  0  0  0  0
 24 25  1  0  0  0  0
 26 30  1  0  0  0  0
 26 54  1  0  0  0  0
 27 31  2  0  0  0  0
 27 55  1  0  0  0  0
 28 56  1  0  0  0  0
 28 57  1  0  0  0  0
 29 33  2  0  0  0  0
 29 34  1  0  0  0  0
 30 32  2  0  0  0  0
 31 32  1  0  0  0  0
 31 58  1  0  0  0  0
 33 35  1  0  0  0  0
 33 60  1  0  0  0  0
 34 36  2  0  0  0  0
 34 62  1  0  0  0  0
 35 38  2  0  0  0  0
 36 38  1  0  0  0  0
 36 64  1  0  0  0  0
 37 65  1  0  0  0  0
 37 66  1  0  0  0  0
 37 67  1  0  0  0  0
 39 68  1  0  0  0  0
 39 69  1  0  0  0  0
 39 70  1  0  0  0  0
 40 71  1  0  0  0  0
 40 72  1  0  0  0  0
 40 73  1  0  0  0  0
 41 75  1  0  0  0  0
 41 76  1  0  0  0  0
 41 77  1  0  0  0  0
M  END
> <PUBCHEM_COMPOUND_CID>
46174000

> <PUBCHEM_COMPOUND_CANONICALIZED>
1

> <PUBCHEM_CACTVS_COMPLEXITY>
812

> <PUBCHEM_CACTVS_HBOND_ACCEPTOR>
10

> <PUBCHEM_CACTVS_HBOND_DONOR>
4

> <PUBCHEM_CACTVS_ROTATABLE_BOND>
12

> <PUBCHEM_CACTVS_SUBSKEYS>
AAADcfB4PAAAAAAAAAAAAAAAAAAAASAAAAAwYMAAAAAAAAABUAAAGgAACAAADRSgmAIyDoAABgCIAiDSCAACCAAgIAAIiAEGiIgNNjKGMRqCcCMlwBELuAfK6PyOoAADAAAIQABAAAYAABCAAAAAAAAAAA==

> <PUBCHEM_IUPAC_OPENEYE_NAME>
4-[(3,4-dimethoxyphenyl)methyl]-3-[[4-hydroxy-3-[2-hydroxy-2-(4-hydroxy-3-methoxy-phenyl)-1-(hydroxymethyl)ethyl]-5-methoxy-phenyl]methyl]tetrahydrofuran-2-one

> <PUBCHEM_IUPAC_CAS_NAME>
3-[[3-[1,3-dihydroxy-1-(4-hydroxy-3-methoxyphenyl)propan-2-yl]-4-hydroxy-5-methoxyphenyl]methyl]-4-[(3,4-dimethoxyphenyl)methyl]-2-oxolanone

> <PUBCHEM_IUPAC_NAME>
3-[[3-[1,3-dihydroxy-1-(4-hydroxy-3-methoxyphenyl)propan-2-yl]-4-hydroxy-5-methoxyphenyl]methyl]-4-[(3,4-dimethoxyphenyl)methyl]oxolan-2-one

> <PUBCHEM_IUPAC_SYSTEMATIC_NAME>
4-[(3,4-dimethoxyphenyl)methyl]-3-[[3-methoxy-5-[1-(3-methoxy-4-oxidanyl-phenyl)-1,3-bis(oxidanyl)propan-2-yl]-4-oxidanyl-phenyl]methyl]oxolan-2-one

> <PUBCHEM_IUPAC_TRADITIONAL_NAME>
3-[4-hydroxy-3-[2-hydroxy-2-(4-hydroxy-3-methoxy-phenyl)-1-methylol-ethyl]-5-methoxy-benzyl]-4-veratryl-tetrahydrofuran-2-one

> <PUBCHEM_IUPAC_INCHI>
InChI=1S/C31H36O10/c1-37-25-8-5-17(12-27(25)39-3)9-20-16-41-31(36)21(20)10-18-11-22(30(35)28(13-18)40-4)23(15-32)29(34)19-6-7-24(33)26(14-19)38-2/h5-8,11-14,20-21,23,29,32-35H,9-10,15-16H2,1-4H3

> <PUBCHEM_IUPAC_INCHIKEY>
HDTODGZKAUQBPM-UHFFFAOYSA-N

> <PUBCHEM_XLOGP3_AA>
3.4

> <PUBCHEM_EXACT_MASS>
568.230847

> <PUBCHEM_MOLECULAR_FORMULA>
C31H36O10

> <PUBCHEM_MOLECULAR_WEIGHT>
568.61154

> <PUBCHEM_OPENEYE_CAN_SMILES>
COC1=C(C=C(C=C1)CC2COC(=O)C2CC3=CC(=C(C(=C3)OC)O)C(CO)C(C4=CC(=C(C=C4)O)OC)O)OC

> <PUBCHEM_OPENEYE_ISO_SMILES>
COC1=C(C=C(C=C1)CC2COC(=O)C2CC3=CC(=C(C(=C3)OC)O)C(CO)C(C4=CC(=C(C=C4)O)OC)O)OC

> <PUBCHEM_CACTVS_TPSA>
144

> <PUBCHEM_MONOISOTOPIC_WEIGHT>
568.230847

> <PUBCHEM_TOTAL_CHARGE>
0

> <PUBCHEM_HEAVY_ATOM_COUNT>
41

> <PUBCHEM_ATOM_DEF_STEREO_COUNT>
0

> <PUBCHEM_ATOM_UDEF_STEREO_COUNT>
4

> <PUBCHEM_BOND_DEF_STEREO_COUNT>
0

> <PUBCHEM_BOND_UDEF_STEREO_COUNT>
0

> <PUBCHEM_ISOTOPIC_ATOM_COUNT>
0

> <PUBCHEM_COMPONENT_COUNT>
1

> <PUBCHEM_CACTVS_TAUTO_COUNT>
16

> <PUBCHEM_COORDINATE_TYPE>
1
5
255

> <PUBCHEM_BONDANNOTATIONS>
11  15  3
12  13  3
17  20  8
17  22  8
18  26  8
18  27  8
19  28  3
20  21  8
21  24  8
22  25  8
24  25  8
26  30  8
27  31  8
29  33  8
29  34  8
23  3  3
30  32  8
31  32  8
33  35  8
34  36  8
35  38  8
36  38  8

$$$$

