46173914
  -OEChem-07051213103D

 81 85  0     1  0  0  0  0  0999 V2000
    1.4481    2.8615   -0.8446 O   0  0  0  0  0  0  0  0  0  0  0  0
    7.2973    1.0192   -0.1013 O   0  0  0  0  0  0  0  0  0  0  0  0
   -3.0145   -1.8500    1.9206 O   0  0  0  0  0  0  0  0  0  0  0  0
   -6.4928    0.2730   -1.9548 O   0  0  0  0  0  0  0  0  0  0  0  0
   -4.3925    2.2970   -0.7352 O   0  0  0  0  0  0  0  0  0  0  0  0
    1.2043   -0.8519    0.1528 C   0  0  1  0  0  0  0  0  0  0  0  0
    1.8190    0.4502   -0.5132 C   0  0  2  0  0  0  0  0  0  0  0  0
    3.4117    0.6065   -0.4072 C   0  0  2  0  0  0  0  0  0  0  0  0
   -0.3298   -0.9846   -0.2856 C   0  0  2  0  0  0  0  0  0  0  0  0
    4.1002   -0.7704   -0.0997 C   0  0  1  0  0  0  0  0  0  0  0  0
    1.9889   -2.1345   -0.2712 C   0  0  0  0  0  0  0  0  0  0  0  0
    3.3920   -1.9040   -0.8374 C   0  0  0  0  0  0  0  0  0  0  0  0
    0.9939    1.7210   -0.1205 C   0  0  2  0  0  0  0  0  0  0  0  0
    5.6610   -0.7705   -0.2114 C   0  0  0  0  0  0  0  0  0  0  0  0
   -1.0600    0.2869    0.1177 C   0  0  0  0  0  0  0  0  0  0  0  0
    3.8765    1.6000    0.6935 C   0  0  0  0  0  0  0  0  0  0  0  0
   -0.5111    1.5778   -0.3995 C   0  0  0  0  0  0  0  0  0  0  0  0
    1.2948   -0.7260    1.7122 C   0  0  0  0  0  0  0  0  0  0  0  0
   -1.1120   -2.0939    0.4577 C   0  0  0  0  0  0  0  0  0  0  0  0
    3.8789    1.1842   -1.7798 C   0  0  0  0  0  0  0  0  0  0  0  0
   -0.5505   -1.2017   -1.8069 C   0  0  0  0  0  0  0  0  0  0  0  0
    5.3172    1.4033    1.1805 C   0  0  0  0  0  0  0  0  0  0  0  0
   -2.1011    0.1171    0.9430 C   0  0  0  0  0  0  0  0  0  0  0  0
    6.1853    0.6046    0.2290 C   0  0  0  0  0  0  0  0  0  0  0  0
   -2.1766   -1.3338    1.1949 C   0  0  0  0  0  0  0  0  0  0  0  0
    6.1980   -1.1255   -1.6098 C   0  0  0  0  0  0  0  0  0  0  0  0
    6.2532   -1.7979    0.7796 C   0  0  0  0  0  0  0  0  0  0  0  0
   -3.0401    1.0772    1.5668 C   0  0  1  0  0  0  0  0  0  0  0  0
   -4.5147    0.8204    1.1690 C   0  0  0  0  0  0  0  0  0  0  0  0
   -2.9028    1.0295    3.0951 C   0  0  0  0  0  0  0  0  0  0  0  0
   -4.7908    0.9883   -0.3332 C   0  0  1  0  0  0  0  0  0  0  0  0
   -6.2474    0.7984   -0.6438 C   0  0  2  0  0  0  0  0  0  0  0  0
   -6.8302   -0.5701   -0.8458 C   0  0  0  0  0  0  0  0  0  0  0  0
   -8.2822   -0.8299   -0.6941 C   0  0  0  0  0  0  0  0  0  0  0  0
   -5.9712   -1.7717   -0.7177 C   0  0  0  0  0  0  0  0  0  0  0  0
    1.6509    0.3253   -1.5907 H   0  0  0  0  0  0  0  0  0  0  0  0
    3.9190   -0.9699    0.9635 H   0  0  0  0  0  0  0  0  0  0  0  0
    1.4414   -2.7283   -1.0074 H   0  0  0  0  0  0  0  0  0  0  0  0
    2.0808   -2.8048    0.5943 H   0  0  0  0  0  0  0  0  0  0  0  0
    1.1347    1.9433    0.9424 H   0  0  0  0  0  0  0  0  0  0  0  0
    3.3232   -1.6872   -1.9093 H   0  0  0  0  0  0  0  0  0  0  0  0
    3.9491   -2.8433   -0.7473 H   0  0  0  0  0  0  0  0  0  0  0  0
    3.7690    2.6327    0.3389 H   0  0  0  0  0  0  0  0  0  0  0  0
    3.2317    1.5262    1.5760 H   0  0  0  0  0  0  0  0  0  0  0  0
   -0.6948    1.6461   -1.4794 H   0  0  0  0  0  0  0  0  0  0  0  0
   -1.0288    2.4441    0.0267 H   0  0  0  0  0  0  0  0  0  0  0  0
    0.9960   -1.6499    2.2169 H   0  0  0  0  0  0  0  0  0  0  0  0
    2.3042   -0.5101    2.0624 H   0  0  0  0  0  0  0  0  0  0  0  0
    0.6598    0.0698    2.1111 H   0  0  0  0  0  0  0  0  0  0  0  0
   -0.5103   -2.6681    1.1637 H   0  0  0  0  0  0  0  0  0  0  0  0
   -1.6013   -2.7953   -0.2271 H   0  0  0  0  0  0  0  0  0  0  0  0
    3.3240    2.0848   -2.0554 H   0  0  0  0  0  0  0  0  0  0  0  0
    4.9289    1.4854   -1.7840 H   0  0  0  0  0  0  0  0  0  0  0  0
    3.7286    0.4633   -2.5898 H   0  0  0  0  0  0  0  0  0  0  0  0
   -0.2036   -2.1845   -2.1389 H   0  0  0  0  0  0  0  0  0  0  0  0
   -0.0580   -0.4510   -2.4295 H   0  0  0  0  0  0  0  0  0  0  0  0
   -1.6193   -1.1526   -2.0552 H   0  0  0  0  0  0  0  0  0  0  0  0
    5.7826    2.3801    1.3544 H   0  0  0  0  0  0  0  0  0  0  0  0
    5.3198    0.8775    2.1427 H   0  0  0  0  0  0  0  0  0  0  0  0
    5.9283   -2.8169    0.5453 H   0  0  0  0  0  0  0  0  0  0  0  0
    5.9574   -1.5791    1.8121 H   0  0  0  0  0  0  0  0  0  0  0  0
    7.3495   -1.7832    0.7561 H   0  0  0  0  0  0  0  0  0  0  0  0
    5.8901   -2.1295   -1.9198 H   0  0  0  0  0  0  0  0  0  0  0  0
    7.2948   -1.1127   -1.6241 H   0  0  0  0  0  0  0  0  0  0  0  0
    5.8745   -0.4247   -2.3810 H   0  0  0  0  0  0  0  0  0  0  0  0
   -2.7797    2.0997    1.2731 H   0  0  0  0  0  0  0  0  0  0  0  0
    0.9424    3.6309   -0.5318 H   0  0  0  0  0  0  0  0  0  0  0  0
   -5.1342    1.5479    1.7126 H   0  0  0  0  0  0  0  0  0  0  0  0
   -4.8494   -0.1659    1.5072 H   0  0  0  0  0  0  0  0  0  0  0  0
   -1.8590    1.1614    3.4025 H   0  0  0  0  0  0  0  0  0  0  0  0
   -3.4834    1.8391    3.5519 H   0  0  0  0  0  0  0  0  0  0  0  0
   -3.2675    0.0901    3.5224 H   0  0  0  0  0  0  0  0  0  0  0  0
   -4.1783    0.2913   -0.9129 H   0  0  0  0  0  0  0  0  0  0  0  0
   -6.8839    1.5941   -0.2803 H   0  0  0  0  0  0  0  0  0  0  0  0
   -3.4248    2.2996   -0.8250 H   0  0  0  0  0  0  0  0  0  0  0  0
   -8.6340   -1.5453   -1.4448 H   0  0  0  0  0  0  0  0  0  0  0  0
   -6.4367   -2.6342   -1.2085 H   0  0  0  0  0  0  0  0  0  0  0  0
   -8.8721    0.0861   -0.8087 H   0  0  0  0  0  0  0  0  0  0  0  0
   -8.4978   -1.2401    0.2980 H   0  0  0  0  0  0  0  0  0  0  0  0
   -5.8298   -2.0326    0.3359 H   0  0  0  0  0  0  0  0  0  0  0  0
   -4.9852   -1.6578   -1.1774 H   0  0  0  0  0  0  0  0  0  0  0  0
  1 13  1  0  0  0  0
  1 67  1  0  0  0  0
  2 24  2  0  0  0  0
  3 25  2  0  0  0  0
  4 32  1  0  0  0  0
  4 33  1  0  0  0  0
  5 31  1  0  0  0  0
  5 75  1  0  0  0  0
  6  7  1  0  0  0  0
  6  9  1  0  0  0  0
  6 11  1  0  0  0  0
  6 18  1  0  0  0  0
  7  8  1  0  0  0  0
  7 13  1  0  0  0  0
  7 36  1  0  0  0  0
  8 10  1  0  0  0  0
  8 16  1  0  0  0  0
  8 20  1  0  0  0  0
  9 15  1  0  0  0  0
  9 19  1  0  0  0  0
  9 21  1  0  0  0  0
 10 12  1  0  0  0  0
 10 14  1  0  0  0  0
 10 37  1  0  0  0  0
 11 12  1  0  0  0  0
 11 38  1  0  0  0  0
 11 39  1  0  0  0  0
 12 41  1  0  0  0  0
 12 42  1  0  0  0  0
 13 17  1  0  0  0  0
 13 40  1  0  0  0  0
 14 24  1  0  0  0  0
 14 26  1  0  0  0  0
 14 27  1  0  0  0  0
 15 17  1  0  0  0  0
 15 23  2  0  0  0  0
 16 22  1  0  0  0  0
 16 43  1  0  0  0  0
 16 44  1  0  0  0  0
 17 45  1  0  0  0  0
 17 46  1  0  0  0  0
 18 47  1  0  0  0  0
 18 48  1  0  0  0  0
 18 49  1  0  0  0  0
 19 25  1  0  0  0  0
 19 50  1  0  0  0  0
 19 51  1  0  0  0  0
 20 52  1  0  0  0  0
 20 53  1  0  0  0  0
 20 54  1  0  0  0  0
 21 55  1  0  0  0  0
 21 56  1  0  0  0  0
 21 57  1  0  0  0  0
 22 24  1  0  0  0  0
 22 58  1  0  0  0  0
 22 59  1  0  0  0  0
 23 25  1  0  0  0  0
 23 28  1  0  0  0  0
 26 63  1  0  0  0  0
 26 64  1  0  0  0  0
 26 65  1  0  0  0  0
 27 60  1  0  0  0  0
 27 61  1  0  0  0  0
 27 62  1  0  0  0  0
 28 29  1  0  0  0  0
 28 30  1  0  0  0  0
 28 66  1  0  0  0  0
 29 31  1  0  0  0  0
 29 68  1  0  0  0  0
 29 69  1  0  0  0  0
 30 70  1  0  0  0  0
 30 71  1  0  0  0  0
 30 72  1  0  0  0  0
 31 32  1  0  0  0  0
 31 73  1  0  0  0  0
 32 33  1  0  0  0  0
 32 74  1  0  0  0  0
 33 34  1  0  0  0  0
 33 35  1  0  0  0  0
 34 76  1  0  0  0  0
 34 78  1  0  0  0  0
 34 79  1  0  0  0  0
 35 77  1  0  0  0  0
 35 80  1  0  0  0  0
 35 81  1  0  0  0  0
M  END
> <PUBCHEM_COMPOUND_CID>
46173914

> <PUBCHEM_CONFORMER_RMSD>
1

> <PUBCHEM_CONFORMER_DIVERSEORDER>
1
5
17
2
10
15
4
6
3
16
11
7
13
12
14
8
9
18

> <PUBCHEM_MMFF94_PARTIAL_CHARGES>
24
1 -0.68
13 0.28
14 0.06
15 -0.28
17 0.14
19 0.06
2 -0.57
22 0.06
23 -0.12
24 0.45
25 0.49
28 0.14
3 -0.57
31 0.38
32 -0.05
33 -0.04
34 0.09
35 0.09
4 -0.3
5 -0.68
67 0.4
74 0.1
75 0.4
9 0.14

> <PUBCHEM_EFFECTIVE_ROTOR_COUNT>
6.2

> <PUBCHEM_PHARMACOPHORE_FEATURES>
14
1 1 acceptor
1 1 donor
1 2 acceptor
1 3 acceptor
1 30 hydrophobe
1 4 acceptor
1 5 acceptor
1 5 donor
3 14 26 27 hydrophobe
3 33 34 35 hydrophobe
5 9 15 19 23 25 rings
6 6 7 8 10 11 12 rings
6 6 7 9 13 15 17 rings
6 8 10 14 16 22 24 rings

> <PUBCHEM_HEAVY_ATOM_COUNT>
35

> <PUBCHEM_ATOM_DEF_STEREO_COUNT>
8

> <PUBCHEM_ATOM_UDEF_STEREO_COUNT>
1

> <PUBCHEM_BOND_DEF_STEREO_COUNT>
0

> <PUBCHEM_BOND_UDEF_STEREO_COUNT>
0

> <PUBCHEM_ISOTOPIC_ATOM_COUNT>
0

> <PUBCHEM_COMPONENT_COUNT>
1

> <PUBCHEM_CACTVS_TAUTO_COUNT>
10

> <PUBCHEM_CONFORMER_ID>
02C08EDA00000001

> <PUBCHEM_MMFF94_ENERGY>
132.4612

> <PUBCHEM_FEATURE_SELFOVERLAP>
71.165

> <PUBCHEM_SHAPE_FINGERPRINT>
10554248 39 17561077034146891606
10674148 151 11959726093258729870
10930396 42 17773899544343899816
11089746 13 17846779619975169863
11796584 16 15697990834814936728
12011746 2 18202845474146288845
12166972 35 18259985963913427529
12236239 1 17821728372543405669
12422481 6 18338788031459145200
13782708 43 17386000715170970230
13811026 1 18412827954556701768
13914758 101 17989212555423987387
14068700 675 17967251988408619521
14856354 85 12967119511266943923
15131766 46 16126099856318319388
15142383 8 15913331295327087460
15183329 4 17847063290012458643
15461852 350 17894908525446614988
1577012 14 17749381603027082224
15849732 13 18260832583212515228
17349148 13 18186791496595656193
17980427 23 17968361425478859241
18681886 176 18187937153299247945
19377110 9 14273447089677844207
21033648 29 17917136317007186033
21150785 3 18113621174740575927
21521721 280 7853563622159764838
23559900 14 18337677404203085529
23569917 315 18114176475564206430
23569943 247 17391617162648679350
23576562 1 17631156494706436927
24771293 8 18335416876989915824
3178227 256 7276829082802454054
335352 9 18343299267459357182
34797466 226 15574712465890738328
3633792 109 18335704979163902625
4015057 19 18272363149343690921
4325135 7 14201393868175053793
45266715 3 17489594493633601219
484989 97 18264488382925866947
5104073 3 18409719656834090954
6004065 56 18334860480792422504
6009941 240 16056592157929953944
6086070 43 16487251024460896821
6328613 192 13470684850140637295
6669772 16 17170418216230160745
7226269 152 14261353566122222487
77296 10 18259987046323787687

> <PUBCHEM_SHAPE_MULTIPOLES>
690.94
18.79
2.33
1.8
10.68
0.07
-0.64
-1.9
4.87
-0.56
0.05
1.25
0.25
-0.31

> <PUBCHEM_SHAPE_SELFOVERLAP>
1465.925

> <PUBCHEM_SHAPE_VOLUME>
386.5

> <PUBCHEM_COORDINATE_TYPE>
2
5
10

$$$$

