443049
  -OEChem-07051213003D

 42 42  0     1  0  0  0  0  0999 V2000
   -1.8698    0.0719   -2.7354 S   0  0  0  0  0  0  0  0  0  0  0  0
   -1.9467    0.4993   -0.8238 P   0  0  1  0  0  0  0  0  0  0  0  0
   -0.7203    1.4460   -0.3257 O   0  0  0  0  0  0  0  0  0  0  0  0
   -3.1851    1.5029   -0.4585 O   0  0  0  0  0  0  0  0  0  0  0  0
    5.4298    0.8533    0.7009 O   0  5  0  0  0  0  0  0  0  0  0  0
    4.9747   -1.1928    0.0487 O   0  0  0  0  0  0  0  0  0  0  0  0
   -2.0595   -0.7543    0.2636 N   0  0  0  0  0  0  0  0  0  0  0  0
    4.6204   -0.0177    0.3037 N   0  3  0  0  0  0  0  0  0  0  0  0
   -3.0801   -1.7874    0.0872 C   0  0  1  0  0  0  0  0  0  0  0  0
   -2.7527   -3.0436    0.9098 C   0  0  0  0  0  0  0  0  0  0  0  0
   -4.4354   -1.2163    0.5020 C   0  0  0  0  0  0  0  0  0  0  0  0
   -1.4223   -3.6867    0.5390 C   0  0  0  0  0  0  0  0  0  0  0  0
    0.5908    1.0806   -0.1733 C   0  0  0  0  0  0  0  0  0  0  0  0
   -3.2726    2.0956    0.8273 C   0  0  0  0  0  0  0  0  0  0  0  0
    0.9806   -0.2238   -0.4574 C   0  0  0  0  0  0  0  0  0  0  0  0
    2.3161   -0.5955   -0.3018 C   0  0  0  0  0  0  0  0  0  0  0  0
    1.5205    2.0176    0.2648 C   0  0  0  0  0  0  0  0  0  0  0  0
    3.2537    0.3394    0.1371 C   0  0  0  0  0  0  0  0  0  0  0  0
    2.8559    1.6459    0.4203 C   0  0  0  0  0  0  0  0  0  0  0  0
   -4.5076    2.9692    0.8844 C   0  0  0  0  0  0  0  0  0  0  0  0
    2.7094   -2.0036   -0.6129 C   0  0  0  0  0  0  0  0  0  0  0  0
   -3.1315   -2.0876   -0.9648 H   0  0  0  0  0  0  0  0  0  0  0  0
   -3.5475   -3.7857    0.7637 H   0  0  0  0  0  0  0  0  0  0  0  0
   -2.7427   -2.8029    1.9805 H   0  0  0  0  0  0  0  0  0  0  0  0
   -1.9747   -0.5205    1.2521 H   0  0  0  0  0  0  0  0  0  0  0  0
   -4.7606   -0.4123   -0.1638 H   0  0  0  0  0  0  0  0  0  0  0  0
   -4.4219   -0.8383    1.5301 H   0  0  0  0  0  0  0  0  0  0  0  0
   -5.2061   -1.9941    0.4516 H   0  0  0  0  0  0  0  0  0  0  0  0
   -1.3881   -3.9288   -0.5279 H   0  0  0  0  0  0  0  0  0  0  0  0
   -0.5798   -3.0284    0.7715 H   0  0  0  0  0  0  0  0  0  0  0  0
   -1.2839   -4.6151    1.1022 H   0  0  0  0  0  0  0  0  0  0  0  0
   -2.3868    2.7108    1.0107 H   0  0  0  0  0  0  0  0  0  0  0  0
   -3.3266    1.3228    1.5978 H   0  0  0  0  0  0  0  0  0  0  0  0
    0.2804   -0.9722   -0.8062 H   0  0  0  0  0  0  0  0  0  0  0  0
    1.2140    3.0359    0.4866 H   0  0  0  0  0  0  0  0  0  0  0  0
    3.5554    2.4034    0.7645 H   0  0  0  0  0  0  0  0  0  0  0  0
   -5.4076    2.3758    0.6926 H   0  0  0  0  0  0  0  0  0  0  0  0
   -4.4674    3.7453    0.1129 H   0  0  0  0  0  0  0  0  0  0  0  0
   -4.6028    3.4484    1.8628 H   0  0  0  0  0  0  0  0  0  0  0  0
    1.8349   -2.5811   -0.9405 H   0  0  0  0  0  0  0  0  0  0  0  0
    3.0763   -2.5321    0.2732 H   0  0  0  0  0  0  0  0  0  0  0  0
    3.4103   -2.0577   -1.4525 H   0  0  0  0  0  0  0  0  0  0  0  0
  1  2  2  0  0  0  0
  2  3  1  0  0  0  0
  2  4  1  0  0  0  0
  2  7  1  0  0  0  0
  3 13  1  0  0  0  0
  4 14  1  0  0  0  0
  5  8  1  0  0  0  0
  6  8  2  0  0  0  0
  7  9  1  0  0  0  0
  7 25  1  0  0  0  0
  8 18  1  0  0  0  0
  9 10  1  0  0  0  0
  9 11  1  0  0  0  0
  9 22  1  0  0  0  0
 10 12  1  0  0  0  0
 10 23  1  0  0  0  0
 10 24  1  0  0  0  0
 11 26  1  0  0  0  0
 11 27  1  0  0  0  0
 11 28  1  0  0  0  0
 12 29  1  0  0  0  0
 12 30  1  0  0  0  0
 12 31  1  0  0  0  0
 13 15  2  0  0  0  0
 13 17  1  0  0  0  0
 14 20  1  0  0  0  0
 14 32  1  0  0  0  0
 14 33  1  0  0  0  0
 15 16  1  0  0  0  0
 15 34  1  0  0  0  0
 16 18  2  0  0  0  0
 16 21  1  0  0  0  0
 17 19  2  0  0  0  0
 17 35  1  0  0  0  0
 18 19  1  0  0  0  0
 19 36  1  0  0  0  0
 20 37  1  0  0  0  0
 20 38  1  0  0  0  0
 20 39  1  0  0  0  0
 21 40  1  0  0  0  0
 21 41  1  0  0  0  0
 21 42  1  0  0  0  0
M  CHG  2   5  -1   8   1
M  END
> <PUBCHEM_COMPOUND_CID>
443049

> <PUBCHEM_CONFORMER_RMSD>
0.8

> <PUBCHEM_CONFORMER_DIVERSEORDER>
1
77
38
12
268
143
185
169
2
59
196
86
200
152
242
173
97
112
158
167
246
244
8
91
305
213
24
198
82
63
273
189
229
199
5
44
239
179
161
194
281
172
132
293
105
237
300
43
260
269
254
283
187
70
275
235
137
21
258
79
85
204
216
151
214
163
76
211
45
145
181
223
285
54
302
65
238
3
278
191
100
9
71
221
138
233
74
133
103
72
241
219
160
290
32
247
282
276
78
47
156
307
140
304
159
164
209
80
95
42
292
60
262
118
144
18
81
224
232
53
98
40
102
83
174
270
6
84
69
64
202
131
29
255
165
166
25
134
289
23
15
110
272
155
37
195
27
240
88
55
111
250
128
298
129
39
180
175
136
125
93
34
7
122
154
248
222
274
279
267
13
205
75
287
286
264
96
212
36
135
114
130
186
271
28
227
215
89
117
263
252
236
230
87
48
177
108
265
124
231
168
157
176
203
126
41
14
121
22
257
259
184
266
120
51
234
4
153
127
294
188
92
139
228
193
183
210
61
67
90
280
115
123
73
146
207
109
226
107
295
30
301
16
35
58
17
162
201
19
66
253
46
256
178
170
147
277
116
26
218
149
10
20
94
308
303
57
101
49
261
296
68
119
284
192
31
62
249
220
141
225
150
171
217
142
11
104
56
99
182
288
113
197
291
251
297
206
245
52
190
306
148
208
243
33
50
299
106

> <PUBCHEM_MMFF94_PARTIAL_CHARGES>
21
1 -0.68
13 0.08
14 0.28
15 -0.15
16 -0.14
17 -0.15
18 0.13
19 -0.15
2 1.49
21 0.14
25 0.36
3 -0.35
34 0.15
35 0.15
36 0.15
4 -0.55
5 -0.52
6 -0.52
7 -0.9
8 0.91
9 0.27

> <PUBCHEM_EFFECTIVE_ROTOR_COUNT>
8

> <PUBCHEM_PHARMACOPHORE_FEATURES>
5
1 12 hydrophobe
1 5 acceptor
1 5 anion
1 6 acceptor
6 13 15 16 17 18 19 rings

> <PUBCHEM_HEAVY_ATOM_COUNT>
21

> <PUBCHEM_ATOM_DEF_STEREO_COUNT>
0

> <PUBCHEM_ATOM_UDEF_STEREO_COUNT>
2

> <PUBCHEM_BOND_DEF_STEREO_COUNT>
0

> <PUBCHEM_BOND_UDEF_STEREO_COUNT>
0

> <PUBCHEM_ISOTOPIC_ATOM_COUNT>
0

> <PUBCHEM_COMPONENT_COUNT>
1

> <PUBCHEM_CACTVS_TAUTO_COUNT>
2

> <PUBCHEM_CONFORMER_ID>
0006C2A900000001

> <PUBCHEM_MMFF94_ENERGY>
40.5953

> <PUBCHEM_FEATURE_SELFOVERLAP>
25.453

> <PUBCHEM_SHAPE_FINGERPRINT>
10366900 7 18115871793707228013
10493431 412 18339356491534068153
11552529 35 18267591199568686031
12633257 1 18263627507843288307
13140716 1 18196089073841177475
13583140 156 17894915100683238857
13675066 3 17967535662244756104
14178342 30 18412827962592923728
14341114 176 18339637841608489520
15196674 1 18409167727550180064
20681677 274 18122064208671795465
221490 88 18268990882682393632
23558518 356 18128246796904202633
23559900 14 18267310837072888209
23598288 3 17968095279219335557
5104073 3 18409457994509738184
81228 2 17917143880439182963
8809292 202 18200032828739415410
9709674 26 18408037398973347503

> <PUBCHEM_SHAPE_MULTIPOLES>
406.43
9.65
3.57
1.32
7.18
1.74
1.14
-1.24
-2.78
-4.11
-1.43
-1.14
-0.07
0.43

> <PUBCHEM_SHAPE_SELFOVERLAP>
790.468

> <PUBCHEM_SHAPE_VOLUME>
249.1

> <PUBCHEM_COORDINATE_TYPE>
2
5
10

$$$$

