224008
  -OEChem-07051213073D

 63 66  0     1  0  0  0  0  0999 V2000
   -5.3176   -0.6138    0.0011 O   0  0  0  0  0  0  0  0  0  0  0  0
    5.8690   -0.7154   -0.1816 O   0  0  0  0  0  0  0  0  0  0  0  0
   -6.7101    0.7675   -1.2195 O   0  0  0  0  0  0  0  0  0  0  0  0
    6.5029    1.2204   -1.2714 O   0  0  0  0  0  0  0  0  0  0  0  0
    0.1078   -0.4949   -0.2161 C   0  0  1  0  0  0  0  0  0  0  0  0
   -0.5593    0.7606    0.4360 C   0  0  2  0  0  0  0  0  0  0  0  0
   -1.9859    0.8911   -0.1079 C   0  0  1  0  0  0  0  0  0  0  0  0
    1.6013   -0.6736    0.2479 C   0  0  2  0  0  0  0  0  0  0  0  0
   -2.8576   -0.3419    0.2053 C   0  0  2  0  0  0  0  0  0  0  0  0
    2.3572    0.6520   -0.0913 C   0  0  1  0  0  0  0  0  0  0  0  0
   -0.7689   -1.7667   -0.0627 C   0  0  0  0  0  0  0  0  0  0  0  0
   -2.2327   -1.5569   -0.4927 C   0  0  0  0  0  0  0  0  0  0  0  0
    0.2616    2.0303    0.1702 C   0  0  0  0  0  0  0  0  0  0  0  0
   -4.1901    0.1371   -0.4062 C   0  0  2  0  0  0  0  0  0  0  0  0
   -2.8519    2.0645    0.3440 C   0  0  0  0  0  0  0  0  0  0  0  0
    1.7243    1.8755    0.5804 C   0  0  0  0  0  0  0  0  0  0  0  0
    2.2876   -1.8237   -0.5433 C   0  0  0  0  0  0  0  0  0  0  0  0
   -4.2883    1.6171    0.0156 C   0  0  0  0  0  0  0  0  0  0  0  0
    3.8617    0.5715    0.1957 C   0  0  0  0  0  0  0  0  0  0  0  0
    1.6714   -1.0114    1.7594 C   0  0  0  0  0  0  0  0  0  0  0  0
   -3.0251   -0.6451    1.7157 C   0  0  0  0  0  0  0  0  0  0  0  0
    3.7971   -1.9114   -0.3081 C   0  0  0  0  0  0  0  0  0  0  0  0
    4.5048   -0.5857   -0.5678 C   0  0  2  0  0  0  0  0  0  0  0  0
   -6.5290   -0.1903   -0.4799 C   0  0  0  0  0  0  0  0  0  0  0  0
    6.6516    0.3855   -0.3894 C   0  0  0  0  0  0  0  0  0  0  0  0
   -7.6254   -1.0752    0.0309 C   0  0  0  0  0  0  0  0  0  0  0  0
    7.7438    0.4331    0.6357 C   0  0  0  0  0  0  0  0  0  0  0  0
    0.1429   -0.2979   -1.2997 H   0  0  0  0  0  0  0  0  0  0  0  0
   -0.6079    0.6297    1.5218 H   0  0  0  0  0  0  0  0  0  0  0  0
   -1.8975    0.9854   -1.2035 H   0  0  0  0  0  0  0  0  0  0  0  0
    2.2638    0.8127   -1.1770 H   0  0  0  0  0  0  0  0  0  0  0  0
   -0.7486   -2.1227    0.9716 H   0  0  0  0  0  0  0  0  0  0  0  0
   -0.3582   -2.5774   -0.6748 H   0  0  0  0  0  0  0  0  0  0  0  0
   -2.2581   -1.4200   -1.5816 H   0  0  0  0  0  0  0  0  0  0  0  0
   -2.8123   -2.4639   -0.2830 H   0  0  0  0  0  0  0  0  0  0  0  0
   -0.1698    2.8784    0.7146 H   0  0  0  0  0  0  0  0  0  0  0  0
    0.2148    2.2850   -0.8965 H   0  0  0  0  0  0  0  0  0  0  0  0
   -4.1213    0.0816   -1.5023 H   0  0  0  0  0  0  0  0  0  0  0  0
   -2.5935    2.9904   -0.1799 H   0  0  0  0  0  0  0  0  0  0  0  0
   -2.7461    2.2510    1.4184 H   0  0  0  0  0  0  0  0  0  0  0  0
    2.2671    2.7830    0.2887 H   0  0  0  0  0  0  0  0  0  0  0  0
    1.8027    1.8059    1.6713 H   0  0  0  0  0  0  0  0  0  0  0  0
    2.1112   -1.6831   -1.6178 H   0  0  0  0  0  0  0  0  0  0  0  0
    1.8454   -2.7916   -0.2794 H   0  0  0  0  0  0  0  0  0  0  0  0
   -4.9428    1.7639    0.8822 H   0  0  0  0  0  0  0  0  0  0  0  0
   -4.6881    2.2274   -0.8016 H   0  0  0  0  0  0  0  0  0  0  0  0
    4.3212    1.5242   -0.0921 H   0  0  0  0  0  0  0  0  0  0  0  0
    4.0583    0.4755    1.2704 H   0  0  0  0  0  0  0  0  0  0  0  0
    1.2281   -1.9908    1.9677 H   0  0  0  0  0  0  0  0  0  0  0  0
    2.6994   -1.0546    2.1297 H   0  0  0  0  0  0  0  0  0  0  0  0
    1.1492   -0.2799    2.3807 H   0  0  0  0  0  0  0  0  0  0  0  0
   -3.6516   -1.5330    1.8606 H   0  0  0  0  0  0  0  0  0  0  0  0
   -2.0748   -0.8407    2.2189 H   0  0  0  0  0  0  0  0  0  0  0  0
   -3.5072    0.1768    2.2544 H   0  0  0  0  0  0  0  0  0  0  0  0
    4.0069   -2.2541    0.7125 H   0  0  0  0  0  0  0  0  0  0  0  0
    4.2253   -2.6845   -0.9587 H   0  0  0  0  0  0  0  0  0  0  0  0
    4.4638   -0.3843   -1.6469 H   0  0  0  0  0  0  0  0  0  0  0  0
   -7.6555   -1.0338    1.1226 H   0  0  0  0  0  0  0  0  0  0  0  0
   -7.4633   -2.1003   -0.3116 H   0  0  0  0  0  0  0  0  0  0  0  0
   -8.5858   -0.7248   -0.3581 H   0  0  0  0  0  0  0  0  0  0  0  0
    8.3710   -0.4578    0.5508 H   0  0  0  0  0  0  0  0  0  0  0  0
    7.3093    0.5047    1.6360 H   0  0  0  0  0  0  0  0  0  0  0  0
    8.3661    1.3156    0.4620 H   0  0  0  0  0  0  0  0  0  0  0  0
  1 14  1  0  0  0  0
  1 24  1  0  0  0  0
  2 23  1  0  0  0  0
  2 25  1  0  0  0  0
  3 24  2  0  0  0  0
  4 25  2  0  0  0  0
  5  6  1  0  0  0  0
  5  8  1  0  0  0  0
  5 11  1  0  0  0  0
  5 28  1  0  0  0  0
  6  7  1  0  0  0  0
  6 13  1  0  0  0  0
  6 29  1  0  0  0  0
  7  9  1  0  0  0  0
  7 15  1  0  0  0  0
  7 30  1  0  0  0  0
  8 10  1  0  0  0  0
  8 17  1  0  0  0  0
  8 20  1  0  0  0  0
  9 12  1  0  0  0  0
  9 14  1  0  0  0  0
  9 21  1  0  0  0  0
 10 16  1  0  0  0  0
 10 19  1  0  0  0  0
 10 31  1  0  0  0  0
 11 12  1  0  0  0  0
 11 32  1  0  0  0  0
 11 33  1  0  0  0  0
 12 34  1  0  0  0  0
 12 35  1  0  0  0  0
 13 16  1  0  0  0  0
 13 36  1  0  0  0  0
 13 37  1  0  0  0  0
 14 18  1  0  0  0  0
 14 38  1  0  0  0  0
 15 18  1  0  0  0  0
 15 39  1  0  0  0  0
 15 40  1  0  0  0  0
 16 41  1  0  0  0  0
 16 42  1  0  0  0  0
 17 22  1  0  0  0  0
 17 43  1  0  0  0  0
 17 44  1  0  0  0  0
 18 45  1  0  0  0  0
 18 46  1  0  0  0  0
 19 23  1  0  0  0  0
 19 47  1  0  0  0  0
 19 48  1  0  0  0  0
 20 49  1  0  0  0  0
 20 50  1  0  0  0  0
 20 51  1  0  0  0  0
 21 52  1  0  0  0  0
 21 53  1  0  0  0  0
 21 54  1  0  0  0  0
 22 23  1  0  0  0  0
 22 55  1  0  0  0  0
 22 56  1  0  0  0  0
 23 57  1  0  0  0  0
 24 26  1  0  0  0  0
 25 27  1  0  0  0  0
 26 58  1  0  0  0  0
 26 59  1  0  0  0  0
 26 60  1  0  0  0  0
 27 61  1  0  0  0  0
 27 62  1  0  0  0  0
 27 63  1  0  0  0  0
M  END
> <PUBCHEM_COMPOUND_CID>
224008

> <PUBCHEM_CONFORMER_RMSD>
0.8

> <PUBCHEM_CONFORMER_DIVERSEORDER>
1
5
6
7
4
3
2

> <PUBCHEM_MMFF94_PARTIAL_CHARGES>
10
1 -0.43
14 0.28
2 -0.43
23 0.28
24 0.66
25 0.66
26 0.06
27 0.06
3 -0.57
4 -0.57

> <PUBCHEM_EFFECTIVE_ROTOR_COUNT>
6.2

> <PUBCHEM_PHARMACOPHORE_FEATURES>
6
1 3 acceptor
1 4 acceptor
5 7 9 14 15 18 rings
6 5 6 7 9 11 12 rings
6 5 6 8 10 13 16 rings
6 8 10 17 19 22 23 rings

> <PUBCHEM_HEAVY_ATOM_COUNT>
27

> <PUBCHEM_ATOM_DEF_STEREO_COUNT>
8

> <PUBCHEM_ATOM_UDEF_STEREO_COUNT>
0

> <PUBCHEM_BOND_DEF_STEREO_COUNT>
0

> <PUBCHEM_BOND_UDEF_STEREO_COUNT>
0

> <PUBCHEM_ISOTOPIC_ATOM_COUNT>
0

> <PUBCHEM_COMPONENT_COUNT>
1

> <PUBCHEM_CACTVS_TAUTO_COUNT>
1

> <PUBCHEM_CONFORMER_ID>
00036B0800000001

> <PUBCHEM_MMFF94_ENERGY>
86.7894

> <PUBCHEM_FEATURE_SELFOVERLAP>
30.537

> <PUBCHEM_SHAPE_FINGERPRINT>
10 15 18412268303560319608
10076449 9 18334572413599549041
10595046 47 18337388352650570856
10906281 52 18264187219507308626
10968037 39 18412544310558125055
11089746 13 14117793609769619951
11315181 36 18272365360813744985
11578080 2 17129880549553140548
11719270 70 18410859884815505954
11963148 33 18335428949747918231
12011746 2 18411420613763828869
12166972 35 17603305938453234137
12236239 1 18130788988273181314
12403259 415 17677063416248801817
12516196 113 17967252005445751736
12788726 201 18339647844898805681
12838862 33 18336001808432353620
13533116 47 16660362622983460999
13685833 64 18260546723258765587
14123256 10 18408886234945259444
14170010 4 18260551095762605776
14251764 18 18333447651162766025
14294032 229 16082470346128478355
14790565 3 18409723002471312256
15131766 46 16341150032976192702
15183329 4 18335419079822198904
15196674 1 18336545039800483398
15439362 3 17700405889278112740
15849732 13 18260268538026602653
16087824 20 18336264652754323769
18335252 98 18412539899790891955
18608769 82 18340485565490632499
18681886 176 18334584516390400753
200 152 17967254217707077145
2026 5 16444733060835111686
21049683 271 18409727322681443437
21150785 3 18409167701421862167
21236236 1 18262516005009946801
21267235 1 18335416855556621201
21521721 280 17385726864161954746
221357 26 18334860536674229689
23035841 295 8574712394769024052
23402539 116 18272089384085853838
23559900 14 18335708195830858289
23569917 315 18337666516715132766
23569943 247 16808110675377997862
24771750 20 18052528885871688436
3004659 81 18343305850921846896
3009799 131 18341896290005181604
335352 9 18335423439926005301
34797466 226 16805039602241661496
34934 24 18410013273467016634
350125 39 18335701667691577681
3545911 37 18334577931946890951
3633792 109 18113622300613137185
4073 2 18059849541457712466
4093350 32 15864070945462720520
4325135 7 18411418410856978508
484989 97 18267304227988781091
5104073 3 18267578182176622114

> <PUBCHEM_SHAPE_MULTIPOLES>
532.17
18.09
1.97
1.03
2.16
0.23
0.29
0.16
-3.55
-0.05
-0.02
0.03
-0.1
0.13

> <PUBCHEM_SHAPE_SELFOVERLAP>
1119.483

> <PUBCHEM_SHAPE_VOLUME>
296.2

> <PUBCHEM_COORDINATE_TYPE>
2
5
10

$$$$

