51090945
  -OEChem-06241223002D

 51 54  0     0  0  0  0  0  0999 V2000
    7.6279    2.7671    0.0000 O   0  0  0  0  0  0  0  0  0  0  0  0
    9.1279   -1.5630    0.0000 N   0  0  0  0  0  0  0  0  0  0  0  0
    7.6279    1.0350    0.0000 N   0  0  0  0  0  0  0  0  0  0  0  0
    5.5443    2.7058    0.0000 N   0  0  0  0  0  0  0  0  0  0  0  0
    8.6279   -0.6970    0.0000 C   0  0  0  0  0  0  0  0  0  0  0  0
    7.6279   -0.6970    0.0000 C   0  0  0  0  0  0  0  0  0  0  0  0
    9.1279    0.1690    0.0000 C   0  0  0  0  0  0  0  0  0  0  0  0
    8.6279   -2.4291    0.0000 C   0  0  0  0  0  0  0  0  0  0  0  0
   10.1279   -1.5630    0.0000 C   0  0  0  0  0  0  0  0  0  0  0  0
    8.6279    1.0350    0.0000 C   0  0  0  0  0  0  0  0  0  0  0  0
    7.1279    0.1690    0.0000 C   0  0  0  0  0  0  0  0  0  0  0  0
   10.6279   -2.4291    0.0000 C   0  0  0  0  0  0  0  0  0  0  0  0
    9.1279   -3.2951    0.0000 C   0  0  0  0  0  0  0  0  0  0  0  0
   10.1279   -3.2951    0.0000 C   0  0  0  0  0  0  0  0  0  0  0  0
    7.1279    1.9010    0.0000 C   0  0  0  0  0  0  0  0  0  0  0  0
    6.1279    1.9010    0.0000 C   0  0  0  0  0  0  0  0  0  0  0  0
    5.5443    1.0963    0.0000 C   0  0  0  0  0  0  0  0  0  0  0  0
    4.5981    2.4010    0.0000 C   0  0  0  0  0  0  0  0  0  0  0  0
    4.5981    1.4010    0.0000 C   0  0  0  0  0  0  0  0  0  0  0  0
    3.7320    2.9010    0.0000 C   0  0  0  0  0  0  0  0  0  0  0  0
    3.7320    0.9010    0.0000 C   0  0  0  0  0  0  0  0  0  0  0  0
    2.8660    2.4010    0.0000 C   0  0  0  0  0  0  0  0  0  0  0  0
    2.8660    1.4010    0.0000 C   0  0  0  0  0  0  0  0  0  0  0  0
    2.0000    2.9010    0.0000 C   0  0  0  0  0  0  0  0  0  0  0  0
    9.2479   -0.6970    0.0000 H   0  0  0  0  0  0  0  0  0  0  0  0
    9.6028   -0.2295    0.0000 H   0  0  0  0  0  0  0  0  0  0  0  0
    9.6028    0.5675    0.0000 H   0  0  0  0  0  0  0  0  0  0  0  0
    7.0453   -0.9091    0.0000 H   0  0  0  0  0  0  0  0  0  0  0  0
    7.7356   -1.3076    0.0000 H   0  0  0  0  0  0  0  0  0  0  0  0
   10.7105   -1.3510    0.0000 H   0  0  0  0  0  0  0  0  0  0  0  0
   10.0202   -0.9525    0.0000 H   0  0  0  0  0  0  0  0  0  0  0  0
    8.1530   -2.0306    0.0000 H   0  0  0  0  0  0  0  0  0  0  0  0
    8.1530   -2.8276    0.0000 H   0  0  0  0  0  0  0  0  0  0  0  0
    9.2105    1.2471    0.0000 H   0  0  0  0  0  0  0  0  0  0  0  0
    8.5202    1.6456    0.0000 H   0  0  0  0  0  0  0  0  0  0  0  0
    6.6530    0.5675    0.0000 H   0  0  0  0  0  0  0  0  0  0  0  0
    6.6530   -0.2295    0.0000 H   0  0  0  0  0  0  0  0  0  0  0  0
   11.1029   -2.8276    0.0000 H   0  0  0  0  0  0  0  0  0  0  0  0
   11.1029   -2.0306    0.0000 H   0  0  0  0  0  0  0  0  0  0  0  0
    8.5453   -3.5072    0.0000 H   0  0  0  0  0  0  0  0  0  0  0  0
    9.2356   -3.9057    0.0000 H   0  0  0  0  0  0  0  0  0  0  0  0
   10.0202   -3.9057    0.0000 H   0  0  0  0  0  0  0  0  0  0  0  0
   10.7105   -3.5072    0.0000 H   0  0  0  0  0  0  0  0  0  0  0  0
    5.7369    3.2951    0.0000 H   0  0  0  0  0  0  0  0  0  0  0  0
    5.7369    0.5070    0.0000 H   0  0  0  0  0  0  0  0  0  0  0  0
    3.7320    3.5210    0.0000 H   0  0  0  0  0  0  0  0  0  0  0  0
    3.7320    0.2810    0.0000 H   0  0  0  0  0  0  0  0  0  0  0  0
    2.3291    1.0910    0.0000 H   0  0  0  0  0  0  0  0  0  0  0  0
    2.3100    3.4380    0.0000 H   0  0  0  0  0  0  0  0  0  0  0  0
    1.4631    3.2110    0.0000 H   0  0  0  0  0  0  0  0  0  0  0  0
    1.6900    2.3641    0.0000 H   0  0  0  0  0  0  0  0  0  0  0  0
  1 15  2  0  0  0  0
  2  5  1  0  0  0  0
  2  8  1  0  0  0  0
  2  9  1  0  0  0  0
  3 10  1  0  0  0  0
  3 11  1  0  0  0  0
  3 15  1  0  0  0  0
  4 16  1  0  0  0  0
  4 18  1  0  0  0  0
  4 44  1  0  0  0  0
  5  6  1  0  0  0  0
  5  7  1  0  0  0  0
  5 25  1  0  0  0  0
  6 11  1  0  0  0  0
  6 28  1  0  0  0  0
  6 29  1  0  0  0  0
  7 10  1  0  0  0  0
  7 26  1  0  0  0  0
  7 27  1  0  0  0  0
  8 13  1  0  0  0  0
  8 32  1  0  0  0  0
  8 33  1  0  0  0  0
  9 12  1  0  0  0  0
  9 30  1  0  0  0  0
  9 31  1  0  0  0  0
 10 34  1  0  0  0  0
 10 35  1  0  0  0  0
 11 36  1  0  0  0  0
 11 37  1  0  0  0  0
 12 14  1  0  0  0  0
 12 38  1  0  0  0  0
 12 39  1  0  0  0  0
 13 14  1  0  0  0  0
 13 40  1  0  0  0  0
 13 41  1  0  0  0  0
 14 42  1  0  0  0  0
 14 43  1  0  0  0  0
 15 16  1  0  0  0  0
 16 17  2  0  0  0  0
 17 19  1  0  0  0  0
 17 45  1  0  0  0  0
 18 19  2  0  0  0  0
 18 20  1  0  0  0  0
 19 21  1  0  0  0  0
 20 22  2  0  0  0  0
 20 46  1  0  0  0  0
 21 23  2  0  0  0  0
 21 47  1  0  0  0  0
 22 23  1  0  0  0  0
 22 24  1  0  0  0  0
 23 48  1  0  0  0  0
 24 49  1  0  0  0  0
 24 50  1  0  0  0  0
 24 51  1  0  0  0  0
M  END
> <PUBCHEM_COMPOUND_CID>
51090945

> <PUBCHEM_COMPOUND_CANONICALIZED>
1

> <PUBCHEM_CACTVS_COMPLEXITY>
440

> <PUBCHEM_CACTVS_HBOND_ACCEPTOR>
2

> <PUBCHEM_CACTVS_HBOND_DONOR>
1

> <PUBCHEM_CACTVS_ROTATABLE_BOND>
2

> <PUBCHEM_CACTVS_SUBSKEYS>
AAADceB7IAAAAAAAAAAAAAAAAAAAAWAAAAA8WIAAAAAAAFgB8AAAHgAQAAAADCjBngQywPPJkACoAyVyVACCgCAnAiAImSG4ZNgIYPLA1bGUIQhglgDIyYcYicCeQAAAQAACAACAAACAAAQAAAAAAAAAAA==

> <PUBCHEM_IUPAC_OPENEYE_NAME>
(6-methyl-1H-indol-2-yl)-[4-(1-piperidyl)-1-piperidyl]methanone

> <PUBCHEM_IUPAC_CAS_NAME>
(6-methyl-1H-indol-2-yl)-[4-(1-piperidinyl)-1-piperidinyl]methanone

> <PUBCHEM_IUPAC_NAME>
(6-methyl-1H-indol-2-yl)-(4-piperidin-1-ylpiperidin-1-yl)methanone

> <PUBCHEM_IUPAC_SYSTEMATIC_NAME>
(6-methyl-1H-indol-2-yl)-(4-piperidin-1-ylpiperidin-1-yl)methanone

> <PUBCHEM_IUPAC_TRADITIONAL_NAME>
(6-methyl-1H-indol-2-yl)-(4-piperidinopiperidino)methanone

> <PUBCHEM_IUPAC_INCHI>
InChI=1S/C20H27N3O/c1-15-5-6-16-14-19(21-18(16)13-15)20(24)23-11-7-17(8-12-23)22-9-3-2-4-10-22/h5-6,13-14,17,21H,2-4,7-12H2,1H3

> <PUBCHEM_IUPAC_INCHIKEY>
DHSMYJVOUUNURQ-UHFFFAOYSA-N

> <PUBCHEM_XLOGP3_AA>
3.6

> <PUBCHEM_EXACT_MASS>
325.215412

> <PUBCHEM_MOLECULAR_FORMULA>
C20H27N3O

> <PUBCHEM_MOLECULAR_WEIGHT>
325.44788

> <PUBCHEM_OPENEYE_CAN_SMILES>
CC1=CC2=C(C=C1)C=C(N2)C(=O)N3CCC(CC3)N4CCCCC4

> <PUBCHEM_OPENEYE_ISO_SMILES>
CC1=CC2=C(C=C1)C=C(N2)C(=O)N3CCC(CC3)N4CCCCC4

> <PUBCHEM_CACTVS_TPSA>
39.3

> <PUBCHEM_MONOISOTOPIC_WEIGHT>
325.215412

> <PUBCHEM_TOTAL_CHARGE>
0

> <PUBCHEM_HEAVY_ATOM_COUNT>
24

> <PUBCHEM_ATOM_DEF_STEREO_COUNT>
0

> <PUBCHEM_ATOM_UDEF_STEREO_COUNT>
0

> <PUBCHEM_BOND_DEF_STEREO_COUNT>
0

> <PUBCHEM_BOND_UDEF_STEREO_COUNT>
0

> <PUBCHEM_ISOTOPIC_ATOM_COUNT>
0

> <PUBCHEM_COMPONENT_COUNT>
1

> <PUBCHEM_CACTVS_TAUTO_COUNT>
6

> <PUBCHEM_COORDINATE_TYPE>
1
5
255

> <PUBCHEM_BONDANNOTATIONS>
16  17  8
17  19  8
18  19  8
18  20  8
19  21  8
20  22  8
21  23  8
22  23  8
4  16  8
4  18  8

$$$$

