5281510
  -OEChem-07051212573D

 56 58  0     1  0  0  0  0  0999 V2000
    0.6329    2.9259    2.0399 O   0  0  0  0  0  0  0  0  0  0  0  0
   -2.0627   -0.0477    0.0235 O   0  0  0  0  0  0  0  0  0  0  0  0
    0.2729   -2.1404   -0.8141 O   0  0  0  0  0  0  0  0  0  0  0  0
    2.1575    1.1555   -1.2620 O   0  0  0  0  0  0  0  0  0  0  0  0
   -0.8894   -4.1182   -0.6945 O   0  0  0  0  0  0  0  0  0  0  0  0
   -3.6192    1.4140    0.8956 O   0  0  0  0  0  0  0  0  0  0  0  0
    3.4760   -0.3398   -2.4295 O   0  0  0  0  0  0  0  0  0  0  0  0
    0.0396    1.9111    1.2140 C   0  0  1  0  0  0  0  0  0  0  0  0
    1.4508    1.7860    1.7398 C   0  0  1  0  0  0  0  0  0  0  0  0
   -1.1093    1.2125    1.8775 C   0  0  0  0  0  0  0  0  0  0  0  0
    2.6593    2.1169    0.9159 C   0  0  0  0  0  0  0  0  0  0  0  0
   -1.4570   -0.1740    1.3082 C   0  0  2  0  0  0  0  0  0  0  0  0
   -0.2344    2.4505   -0.1508 C   0  0  0  0  0  0  0  0  0  0  0  0
   -0.2799   -1.1794    1.3069 C   0  0  2  0  0  0  0  0  0  0  0  0
    3.0254    1.0575   -0.1359 C   0  0  1  0  0  0  0  0  0  0  0  0
    0.6542   -1.0835    0.0932 C   0  0  1  0  0  0  0  0  0  0  0  0
    3.1078   -0.3652    0.3915 C   0  0  0  0  0  0  0  0  0  0  0  0
   -0.7657   -2.5861    1.1632 C   0  0  0  0  0  0  0  0  0  0  0  0
    2.1060   -1.2671    0.4586 C   0  0  0  0  0  0  0  0  0  0  0  0
   -0.4974   -3.0779   -0.1977 C   0  0  0  0  0  0  0  0  0  0  0  0
    4.4808   -0.7546    0.8850 C   0  0  0  0  0  0  0  0  0  0  0  0
   -3.1456    0.7860   -0.0425 C   0  0  0  0  0  0  0  0  0  0  0  0
   -1.3222   -3.3630    2.0961 C   0  0  0  0  0  0  0  0  0  0  0  0
   -3.6862    0.8081   -1.4615 C   0  0  0  0  0  0  0  0  0  0  0  0
    2.5039    0.3988   -2.3464 C   0  0  0  0  0  0  0  0  0  0  0  0
   -4.7188   -0.2992   -1.6361 C   0  0  0  0  0  0  0  0  0  0  0  0
   -4.2865    2.1724   -1.7909 C   0  0  0  0  0  0  0  0  0  0  0  0
    1.5070    0.6008   -3.4470 C   0  0  0  0  0  0  0  0  0  0  0  0
    1.6569    1.0934    2.5450 H   0  0  0  0  0  0  0  0  0  0  0  0
   -1.9242    1.9279    1.9690 H   0  0  0  0  0  0  0  0  0  0  0  0
   -0.8234    1.0362    2.9259 H   0  0  0  0  0  0  0  0  0  0  0  0
    3.5016    2.2292    1.6108 H   0  0  0  0  0  0  0  0  0  0  0  0
    2.5405    3.0901    0.4246 H   0  0  0  0  0  0  0  0  0  0  0  0
   -2.2292   -0.5844    1.9759 H   0  0  0  0  0  0  0  0  0  0  0  0
    0.5488    3.1207   -0.5166 H   0  0  0  0  0  0  0  0  0  0  0  0
   -0.3815    1.6715   -0.8996 H   0  0  0  0  0  0  0  0  0  0  0  0
   -1.1516    3.0512   -0.1319 H   0  0  0  0  0  0  0  0  0  0  0  0
    0.2706   -1.0734    2.2506 H   0  0  0  0  0  0  0  0  0  0  0  0
    4.0194    1.3453   -0.5085 H   0  0  0  0  0  0  0  0  0  0  0  0
    0.4889   -0.1639   -0.4488 H   0  0  0  0  0  0  0  0  0  0  0  0
    2.3420   -2.2520    0.8622 H   0  0  0  0  0  0  0  0  0  0  0  0
    4.8012   -0.0793    1.6851 H   0  0  0  0  0  0  0  0  0  0  0  0
    5.2081   -0.6977    0.0684 H   0  0  0  0  0  0  0  0  0  0  0  0
    4.5111   -1.7742    1.2832 H   0  0  0  0  0  0  0  0  0  0  0  0
   -1.4906   -2.9868    3.0997 H   0  0  0  0  0  0  0  0  0  0  0  0
   -1.6213   -4.3846    1.8881 H   0  0  0  0  0  0  0  0  0  0  0  0
   -2.8480    0.6407   -2.1496 H   0  0  0  0  0  0  0  0  0  0  0  0
   -5.1027   -0.3186   -2.6612 H   0  0  0  0  0  0  0  0  0  0  0  0
   -5.5663   -0.1637   -0.9549 H   0  0  0  0  0  0  0  0  0  0  0  0
   -4.2787   -1.2789   -1.4203 H   0  0  0  0  0  0  0  0  0  0  0  0
   -4.6179    2.2103   -2.8338 H   0  0  0  0  0  0  0  0  0  0  0  0
   -3.5481    2.9673   -1.6397 H   0  0  0  0  0  0  0  0  0  0  0  0
   -5.1480    2.3966   -1.1522 H   0  0  0  0  0  0  0  0  0  0  0  0
    1.4688    1.6575   -3.7231 H   0  0  0  0  0  0  0  0  0  0  0  0
    0.5231    0.2517   -3.1238 H   0  0  0  0  0  0  0  0  0  0  0  0
    1.8128    0.0233   -4.3240 H   0  0  0  0  0  0  0  0  0  0  0  0
  1  8  1  0  0  0  0
  1  9  1  0  0  0  0
  2 12  1  0  0  0  0
  2 22  1  0  0  0  0
  3 16  1  0  0  0  0
  3 20  1  0  0  0  0
  4 15  1  0  0  0  0
  4 25  1  0  0  0  0
  5 20  2  0  0  0  0
  6 22  2  0  0  0  0
  7 25  2  0  0  0  0
  8  9  1  0  0  0  0
  8 10  1  0  0  0  0
  8 13  1  0  0  0  0
  9 11  1  0  0  0  0
  9 29  1  0  0  0  0
 10 12  1  0  0  0  0
 10 30  1  0  0  0  0
 10 31  1  0  0  0  0
 11 15  1  0  0  0  0
 11 32  1  0  0  0  0
 11 33  1  0  0  0  0
 12 14  1  0  0  0  0
 12 34  1  0  0  0  0
 13 35  1  0  0  0  0
 13 36  1  0  0  0  0
 13 37  1  0  0  0  0
 14 16  1  0  0  0  0
 14 18  1  0  0  0  0
 14 38  1  0  0  0  0
 15 17  1  0  0  0  0
 15 39  1  0  0  0  0
 16 19  1  0  0  0  0
 16 40  1  0  0  0  0
 17 19  2  0  0  0  0
 17 21  1  0  0  0  0
 18 20  1  0  0  0  0
 18 23  2  0  0  0  0
 19 41  1  0  0  0  0
 21 42  1  0  0  0  0
 21 43  1  0  0  0  0
 21 44  1  0  0  0  0
 22 24  1  0  0  0  0
 23 45  1  0  0  0  0
 23 46  1  0  0  0  0
 24 26  1  0  0  0  0
 24 27  1  0  0  0  0
 24 47  1  0  0  0  0
 25 28  1  0  0  0  0
 26 48  1  0  0  0  0
 26 49  1  0  0  0  0
 26 50  1  0  0  0  0
 27 51  1  0  0  0  0
 27 52  1  0  0  0  0
 27 53  1  0  0  0  0
 28 54  1  0  0  0  0
 28 55  1  0  0  0  0
 28 56  1  0  0  0  0
M  END
> <PUBCHEM_COMPOUND_CID>
5281510

> <PUBCHEM_CONFORMER_RMSD>
0.8

> <PUBCHEM_CONFORMER_DIVERSEORDER>
1
21
6
19
14
16
5
20
23
17
18
7
22
2
12
11
9
10
13
15
3
4
8

> <PUBCHEM_MMFF94_PARTIAL_CHARGES>
30
1 -0.3
10 0.09
11 0.09
12 0.28
13 0.09
14 0.14
15 0.42
16 0.42
17 -0.28
18 -0.12
19 -0.29
2 -0.43
20 0.71
21 0.14
22 0.66
23 -0.3
24 0.06
25 0.66
28 0.06
29 0.1
3 -0.43
4 -0.43
41 0.15
45 0.15
46 0.15
5 -0.57
6 -0.57
7 -0.57
8 -0.04
9 -0.05

> <PUBCHEM_EFFECTIVE_ROTOR_COUNT>
6.2

> <PUBCHEM_PHARMACOPHORE_FEATURES>
6
1 1 acceptor
1 5 acceptor
1 6 acceptor
1 7 acceptor
3 24 26 27 hydrophobe
5 3 14 16 18 20 rings

> <PUBCHEM_HEAVY_ATOM_COUNT>
28

> <PUBCHEM_ATOM_DEF_STEREO_COUNT>
6

> <PUBCHEM_ATOM_UDEF_STEREO_COUNT>
0

> <PUBCHEM_BOND_DEF_STEREO_COUNT>
1

> <PUBCHEM_BOND_UDEF_STEREO_COUNT>
0

> <PUBCHEM_ISOTOPIC_ATOM_COUNT>
0

> <PUBCHEM_COMPONENT_COUNT>
1

> <PUBCHEM_CACTVS_TAUTO_COUNT>
1

> <PUBCHEM_CONFORMER_ID>
005096E600000001

> <PUBCHEM_MMFF94_ENERGY>
66.349

> <PUBCHEM_FEATURE_SELFOVERLAP>
30.446

> <PUBCHEM_SHAPE_FINGERPRINT>
10675989 125 18119526780475003737
108634 29 18044383729275541207
10906281 52 17967522451015375872
11578080 2 18126849296482973652
12293681 25 17749654213228470710
12596599 1 17168697665052546081
13140716 1 17617929679589496450
13149001 5 18262236603832169905
13583140 156 14979958073415414321
14251757 17 17822579304876538335
16945 1 18199732774145145514
17492 54 18411709793637587977
20600515 1 18335132099109410856
20691752 17 18262223538541863312
21452121 99 18270959029559388714
22182313 1 18045487634939450936
22393880 68 18192178021298197965
22889148 1 18124288550638290007
22907989 373 17983269583427723279
229495 10 17128134348920687456
23419403 2 16518522139782055579
23559900 14 18334853888967046384
238 59 18410303522956301257
2748010 2 18117263762569458376
3060560 45 18265078919058169145
3380486 77 18336269032813299032
484989 97 18341055099581673251
513532 50 17099504303554239765
6669772 16 17973757733678382121
81228 2 17621891890009729915

> <PUBCHEM_SHAPE_MULTIPOLES>
535.14
6.63
3.79
2.67
3.39
3.4
-1.55
-2.84
-3.04
1.38
0.95
-0.78
-1.03
0.66

> <PUBCHEM_SHAPE_SELFOVERLAP>
1118.357

> <PUBCHEM_SHAPE_VOLUME>
301.6

> <PUBCHEM_COORDINATE_TYPE>
2
5
10

$$$$

