5281839
  -OEChem-07051213002D

 46 48  0     0  0  0  0  0  0999 V2000
    8.1962   -0.1841    0.0000 O   0  0  0  0  0  0  0  0  0  0  0  0
    8.1962    1.8642    0.0000 O   0  0  0  0  0  0  0  0  0  0  0  0
    6.4144    2.8746    0.0000 O   0  0  0  0  0  0  0  0  0  0  0  0
    4.6660    2.8400    0.0000 O   0  0  0  0  0  0  0  0  0  0  0  0
    4.6660   -0.1600    0.0000 N   0  0  0  0  0  0  0  0  0  0  0  0
    5.5321    0.3400    0.0000 C   0  0  0  0  0  0  0  0  0  0  0  0
    5.5321    1.3400    0.0000 C   0  0  0  0  0  0  0  0  0  0  0  0
    3.8000    0.3400    0.0000 C   0  0  0  0  0  0  0  0  0  0  0  0
    3.8000    1.3400    0.0000 C   0  0  0  0  0  0  0  0  0  0  0  0
    4.6660    1.8400    0.0000 C   0  0  0  0  0  0  0  0  0  0  0  0
    6.4260   -0.1947    0.0000 C   0  0  0  0  0  0  0  0  0  0  0  0
    6.4260    1.8747    0.0000 C   0  0  0  0  0  0  0  0  0  0  0  0
    7.3321    0.3192    0.0000 C   0  0  0  0  0  0  0  0  0  0  0  0
    7.3321    1.3608    0.0000 C   0  0  0  0  0  0  0  0  0  0  0  0
    4.6660   -1.1600    0.0000 C   0  0  0  0  0  0  0  0  0  0  0  0
    2.9061   -0.1947    0.0000 C   0  0  0  0  0  0  0  0  0  0  0  0
    2.9061    1.8747    0.0000 C   0  0  0  0  0  0  0  0  0  0  0  0
    2.0000    0.3192    0.0000 C   0  0  0  0  0  0  0  0  0  0  0  0
    2.0000    1.3608    0.0000 C   0  0  0  0  0  0  0  0  0  0  0  0
    8.1923   -1.1841    0.0000 C   0  0  0  0  0  0  0  0  0  0  0  0
    9.0564   -1.6875    0.0000 C   0  0  0  0  0  0  0  0  0  0  0  0
    9.0641    1.3675    0.0000 C   0  0  0  0  0  0  0  0  0  0  0  0
    9.0525   -2.6875    0.0000 C   0  0  0  0  0  0  0  0  0  0  0  0
    9.9166   -3.1908    0.0000 C   0  0  0  0  0  0  0  0  0  0  0  0
    8.1846   -3.1841    0.0000 C   0  0  0  0  0  0  0  0  0  0  0  0
    6.4188   -0.8146    0.0000 H   0  0  0  0  0  0  0  0  0  0  0  0
    4.0460   -1.1600    0.0000 H   0  0  0  0  0  0  0  0  0  0  0  0
    4.6660   -1.7800    0.0000 H   0  0  0  0  0  0  0  0  0  0  0  0
    5.2860   -1.1600    0.0000 H   0  0  0  0  0  0  0  0  0  0  0  0
    2.9132   -0.8146    0.0000 H   0  0  0  0  0  0  0  0  0  0  0  0
    2.9132    2.4946    0.0000 H   0  0  0  0  0  0  0  0  0  0  0  0
    1.4643    0.0071    0.0000 H   0  0  0  0  0  0  0  0  0  0  0  0
    1.4643    1.6729    0.0000 H   0  0  0  0  0  0  0  0  0  0  0  0
    7.5821   -1.0741    0.0000 H   0  0  0  0  0  0  0  0  0  0  0  0
    7.9780   -1.7659    0.0000 H   0  0  0  0  0  0  0  0  0  0  0  0
    6.9478    3.1908    0.0000 H   0  0  0  0  0  0  0  0  0  0  0  0
    9.5945   -1.3795    0.0000 H   0  0  0  0  0  0  0  0  0  0  0  0
    8.7562    0.8294    0.0000 H   0  0  0  0  0  0  0  0  0  0  0  0
    9.6022    1.0596    0.0000 H   0  0  0  0  0  0  0  0  0  0  0  0
    9.3720    1.9056    0.0000 H   0  0  0  0  0  0  0  0  0  0  0  0
    9.6046   -3.7265    0.0000 H   0  0  0  0  0  0  0  0  0  0  0  0
    7.8767   -2.6460    0.0000 H   0  0  0  0  0  0  0  0  0  0  0  0
    7.6465   -3.4920    0.0000 H   0  0  0  0  0  0  0  0  0  0  0  0
    8.4925   -3.7222    0.0000 H   0  0  0  0  0  0  0  0  0  0  0  0
   10.4524   -3.5029    0.0000 H   0  0  0  0  0  0  0  0  0  0  0  0
   10.2287   -2.6551    0.0000 H   0  0  0  0  0  0  0  0  0  0  0  0
  1 13  1  0  0  0  0
  1 20  1  0  0  0  0
  2 14  1  0  0  0  0
  2 22  1  0  0  0  0
  3 12  1  0  0  0  0
  3 36  1  0  0  0  0
  4 10  2  0  0  0  0
  5  6  1  0  0  0  0
  5  8  1  0  0  0  0
  5 15  1  0  0  0  0
  6  7  1  0  0  0  0
  6 11  2  0  0  0  0
  7 10  1  0  0  0  0
  7 12  2  0  0  0  0
  8  9  1  0  0  0  0
  8 16  2  0  0  0  0
  9 10  1  0  0  0  0
  9 17  2  0  0  0  0
 11 13  1  0  0  0  0
 11 26  1  0  0  0  0
 12 14  1  0  0  0  0
 13 14  2  0  0  0  0
 15 27  1  0  0  0  0
 15 28  1  0  0  0  0
 15 29  1  0  0  0  0
 16 18  1  0  0  0  0
 16 30  1  0  0  0  0
 17 19  1  0  0  0  0
 17 31  1  0  0  0  0
 18 19  2  0  0  0  0
 18 32  1  0  0  0  0
 19 33  1  0  0  0  0
 20 21  1  0  0  0  0
 20 34  1  0  0  0  0
 20 35  1  0  0  0  0
 21 23  2  0  0  0  0
 21 37  1  0  0  0  0
 22 38  1  0  0  0  0
 22 39  1  0  0  0  0
 22 40  1  0  0  0  0
 23 24  1  0  0  0  0
 23 25  1  0  0  0  0
 24 41  1  0  0  0  0
 24 45  1  0  0  0  0
 24 46  1  0  0  0  0
 25 42  1  0  0  0  0
 25 43  1  0  0  0  0
 25 44  1  0  0  0  0
M  END
> <PUBCHEM_COMPOUND_CID>
5281839

> <PUBCHEM_COMPOUND_CANONICALIZED>
1

> <PUBCHEM_CACTVS_COMPLEXITY>
516

> <PUBCHEM_CACTVS_HBOND_ACCEPTOR>
5

> <PUBCHEM_CACTVS_HBOND_DONOR>
1

> <PUBCHEM_CACTVS_ROTATABLE_BOND>
4

> <PUBCHEM_CACTVS_SUBSKEYS>
AAADceB6OAAAAAAAAAAAAAAAAAAAAAAAAAA8YIAAAAAAAACxQAAAHgAACAAADAyhmAYyxoMABgCIAqRSQACCCAAlIgAIiAEO7MgNJ37GtZuGeevn4B3L+ce6/P/OIEABCgAKQABAgAIUABSAAAAAAAAAAA==

> <PUBCHEM_IUPAC_OPENEYE_NAME>
1-hydroxy-2-methoxy-10-methyl-3-(3-methylbut-2-enoxy)acridin-9-one

> <PUBCHEM_IUPAC_CAS_NAME>
1-hydroxy-2-methoxy-10-methyl-3-(3-methylbut-2-enoxy)-9-acridinone

> <PUBCHEM_IUPAC_NAME>
1-hydroxy-2-methoxy-10-methyl-3-(3-methylbut-2-enoxy)acridin-9-one

> <PUBCHEM_IUPAC_SYSTEMATIC_NAME>
2-methoxy-10-methyl-3-(3-methylbut-2-enoxy)-1-oxidanyl-acridin-9-one

> <PUBCHEM_IUPAC_TRADITIONAL_NAME>
1-hydroxy-2-methoxy-10-methyl-3-(3-methylbut-2-enoxy)acridin-9-one

> <PUBCHEM_IUPAC_INCHI>
InChI=1S/C20H21NO4/c1-12(2)9-10-25-16-11-15-17(19(23)20(16)24-4)18(22)13-7-5-6-8-14(13)21(15)3/h5-9,11,23H,10H2,1-4H3

> <PUBCHEM_IUPAC_INCHIKEY>
SKJRDJBAXQXFJY-UHFFFAOYSA-N

> <PUBCHEM_XLOGP3_AA>
4.8

> <PUBCHEM_EXACT_MASS>
339.147058

> <PUBCHEM_MOLECULAR_FORMULA>
C20H21NO4

> <PUBCHEM_MOLECULAR_WEIGHT>
339.38504

> <PUBCHEM_OPENEYE_CAN_SMILES>
CC(=CCOC1=C(C(=C2C(=C1)N(C3=CC=CC=C3C2=O)C)O)OC)C

> <PUBCHEM_OPENEYE_ISO_SMILES>
CC(=CCOC1=C(C(=C2C(=C1)N(C3=CC=CC=C3C2=O)C)O)OC)C

> <PUBCHEM_CACTVS_TPSA>
59

> <PUBCHEM_MONOISOTOPIC_WEIGHT>
339.147058

> <PUBCHEM_TOTAL_CHARGE>
0

> <PUBCHEM_HEAVY_ATOM_COUNT>
25

> <PUBCHEM_ATOM_DEF_STEREO_COUNT>
0

> <PUBCHEM_ATOM_UDEF_STEREO_COUNT>
0

> <PUBCHEM_BOND_DEF_STEREO_COUNT>
0

> <PUBCHEM_BOND_UDEF_STEREO_COUNT>
0

> <PUBCHEM_ISOTOPIC_ATOM_COUNT>
0

> <PUBCHEM_COMPONENT_COUNT>
1

> <PUBCHEM_CACTVS_TAUTO_COUNT>
5

> <PUBCHEM_COORDINATE_TYPE>
1
5
255

> <PUBCHEM_BONDANNOTATIONS>
11  13  8
12  14  8
13  14  8
16  18  8
17  19  8
18  19  8
5  6  8
5  8  8
6  11  8
6  7  8
7  10  8
7  12  8
8  16  8
8  9  8
9  10  8
9  17  8

$$$$

