7847061
  -OEChem-06241222482D

 49 51  0     0  0  0  0  0  0999 V2000
    6.3301    0.0000    0.0000 O   0  0  0  0  0  0  0  0  0  0  0  0
    5.4641   -2.5000    0.0000 O   0  0  0  0  0  0  0  0  0  0  0  0
    8.0622    0.0000    0.0000 O   0  0  0  0  0  0  0  0  0  0  0  0
    7.1962    3.5000    0.0000 N   0  0  0  0  0  0  0  0  0  0  0  0
    6.3301    2.0000    0.0000 C   0  0  0  0  0  0  0  0  0  0  0  0
    7.1962    1.5000    0.0000 C   0  0  0  0  0  0  0  0  0  0  0  0
    8.0622    2.0000    0.0000 C   0  0  0  0  0  0  0  0  0  0  0  0
    6.3301    3.0000    0.0000 C   0  0  0  0  0  0  0  0  0  0  0  0
    8.0622    3.0000    0.0000 C   0  0  0  0  0  0  0  0  0  0  0  0
    5.4641    3.5000    0.0000 C   0  0  0  0  0  0  0  0  0  0  0  0
    5.4641    1.5000    0.0000 C   0  0  0  0  0  0  0  0  0  0  0  0
    8.9561    1.4653    0.0000 C   0  0  0  0  0  0  0  0  0  0  0  0
    7.1962    0.5000    0.0000 C   0  0  0  0  0  0  0  0  0  0  0  0
    8.9561    3.5347    0.0000 C   0  0  0  0  0  0  0  0  0  0  0  0
    5.4641    4.5000    0.0000 C   0  0  0  0  0  0  0  0  0  0  0  0
    9.8622    1.9792    0.0000 C   0  0  0  0  0  0  0  0  0  0  0  0
    9.8622    3.0208    0.0000 C   0  0  0  0  0  0  0  0  0  0  0  0
    6.3301   -1.0000    0.0000 C   0  0  0  0  0  0  0  0  0  0  0  0
    5.4641   -1.5000    0.0000 C   0  0  0  0  0  0  0  0  0  0  0  0
    4.5981   -3.0000    0.0000 C   0  0  0  0  0  0  0  0  0  0  0  0
    2.8660   -3.0000    0.0000 C   0  0  0  0  0  0  0  0  0  0  0  0
    3.7320   -2.5000    0.0000 C   0  0  0  0  0  0  0  0  0  0  0  0
    4.5981   -4.0000    0.0000 C   0  0  0  0  0  0  0  0  0  0  0  0
    2.8660   -4.0000    0.0000 C   0  0  0  0  0  0  0  0  0  0  0  0
    3.7320   -4.5000    0.0000 C   0  0  0  0  0  0  0  0  0  0  0  0
    2.0000   -2.5000    0.0000 C   0  0  0  0  0  0  0  0  0  0  0  0
    4.8535    3.6077    0.0000 H   0  0  0  0  0  0  0  0  0  0  0  0
    5.2520    2.9174    0.0000 H   0  0  0  0  0  0  0  0  0  0  0  0
    5.1541    2.0369    0.0000 H   0  0  0  0  0  0  0  0  0  0  0  0
    4.9272    1.1900    0.0000 H   0  0  0  0  0  0  0  0  0  0  0  0
    5.7741    0.9631    0.0000 H   0  0  0  0  0  0  0  0  0  0  0  0
    8.9490    0.8454    0.0000 H   0  0  0  0  0  0  0  0  0  0  0  0
    8.9490    4.1546    0.0000 H   0  0  0  0  0  0  0  0  0  0  0  0
    6.0841    4.5000    0.0000 H   0  0  0  0  0  0  0  0  0  0  0  0
    5.4641    5.1200    0.0000 H   0  0  0  0  0  0  0  0  0  0  0  0
    4.8441    4.5000    0.0000 H   0  0  0  0  0  0  0  0  0  0  0  0
   10.3979    1.6671    0.0000 H   0  0  0  0  0  0  0  0  0  0  0  0
   10.3979    3.3329    0.0000 H   0  0  0  0  0  0  0  0  0  0  0  0
    6.5422   -1.5826    0.0000 H   0  0  0  0  0  0  0  0  0  0  0  0
    6.9407   -0.8923    0.0000 H   0  0  0  0  0  0  0  0  0  0  0  0
    5.2520   -0.9174    0.0000 H   0  0  0  0  0  0  0  0  0  0  0  0
    4.8535   -1.6077    0.0000 H   0  0  0  0  0  0  0  0  0  0  0  0
    3.7320   -1.8800    0.0000 H   0  0  0  0  0  0  0  0  0  0  0  0
    5.1350   -4.3100    0.0000 H   0  0  0  0  0  0  0  0  0  0  0  0
    2.3291   -4.3100    0.0000 H   0  0  0  0  0  0  0  0  0  0  0  0
    3.7320   -5.1200    0.0000 H   0  0  0  0  0  0  0  0  0  0  0  0
    2.3100   -1.9631    0.0000 H   0  0  0  0  0  0  0  0  0  0  0  0
    1.4631   -2.1900    0.0000 H   0  0  0  0  0  0  0  0  0  0  0  0
    1.6900   -3.0369    0.0000 H   0  0  0  0  0  0  0  0  0  0  0  0
  1 13  1  0  0  0  0
  1 18  1  0  0  0  0
  2 19  1  0  0  0  0
  2 20  1  0  0  0  0
  3 13  2  0  0  0  0
  4  8  2  0  0  0  0
  4  9  1  0  0  0  0
  5  6  2  0  0  0  0
  5  8  1  0  0  0  0
  5 11  1  0  0  0  0
  6  7  1  0  0  0  0
  6 13  1  0  0  0  0
  7  9  1  0  0  0  0
  7 12  2  0  0  0  0
  8 10  1  0  0  0  0
  9 14  2  0  0  0  0
 10 15  1  0  0  0  0
 10 27  1  0  0  0  0
 10 28  1  0  0  0  0
 11 29  1  0  0  0  0
 11 30  1  0  0  0  0
 11 31  1  0  0  0  0
 12 16  1  0  0  0  0
 12 32  1  0  0  0  0
 14 17  1  0  0  0  0
 14 33  1  0  0  0  0
 15 34  1  0  0  0  0
 15 35  1  0  0  0  0
 15 36  1  0  0  0  0
 16 17  2  0  0  0  0
 16 37  1  0  0  0  0
 17 38  1  0  0  0  0
 18 19  1  0  0  0  0
 18 39  1  0  0  0  0
 18 40  1  0  0  0  0
 19 41  1  0  0  0  0
 19 42  1  0  0  0  0
 20 22  1  0  0  0  0
 20 23  2  0  0  0  0
 21 22  2  0  0  0  0
 21 24  1  0  0  0  0
 21 26  1  0  0  0  0
 22 43  1  0  0  0  0
 23 25  1  0  0  0  0
 23 44  1  0  0  0  0
 24 25  2  0  0  0  0
 24 45  1  0  0  0  0
 25 46  1  0  0  0  0
 26 47  1  0  0  0  0
 26 48  1  0  0  0  0
 26 49  1  0  0  0  0
M  END
> <PUBCHEM_COMPOUND_CID>
7847061

> <PUBCHEM_COMPOUND_CANONICALIZED>
1

> <PUBCHEM_CACTVS_COMPLEXITY>
455

> <PUBCHEM_CACTVS_HBOND_ACCEPTOR>
4

> <PUBCHEM_CACTVS_HBOND_DONOR>
0

> <PUBCHEM_CACTVS_ROTATABLE_BOND>
7

> <PUBCHEM_CACTVS_SUBSKEYS>
AAADceB6MAAAAAAAAAAAAAAAAAAAAAAAAAA8YIAAAAAAAACx9AAAHgAAAAAADAyhngIyzvIIFACoAyTyTACCiCAlIiAImCE2bNgNJvLEtZuGOSjkwBHK6Qe8yPCOgAABAAACAAAAAAIAAAQAAAAAAAAAAA==

> <PUBCHEM_IUPAC_OPENEYE_NAME>
2-(3-methylphenoxy)ethyl 2-ethyl-3-methyl-quinoline-4-carboxylate

> <PUBCHEM_IUPAC_CAS_NAME>
2-ethyl-3-methyl-4-quinolinecarboxylic acid 2-(3-methylphenoxy)ethyl ester

> <PUBCHEM_IUPAC_NAME>
2-(3-methylphenoxy)ethyl 2-ethyl-3-methylquinoline-4-carboxylate

> <PUBCHEM_IUPAC_SYSTEMATIC_NAME>
2-(3-methylphenoxy)ethyl 2-ethyl-3-methyl-quinoline-4-carboxylate

> <PUBCHEM_IUPAC_TRADITIONAL_NAME>
2-ethyl-3-methyl-cinchoninic acid 2-(3-methylphenoxy)ethyl ester

> <PUBCHEM_IUPAC_INCHI>
InChI=1S/C22H23NO3/c1-4-19-16(3)21(18-10-5-6-11-20(18)23-19)22(24)26-13-12-25-17-9-7-8-15(2)14-17/h5-11,14H,4,12-13H2,1-3H3

> <PUBCHEM_IUPAC_INCHIKEY>
ZVOOVJUVNFBIDI-UHFFFAOYSA-N

> <PUBCHEM_XLOGP3_AA>
5.3

> <PUBCHEM_EXACT_MASS>
349.167794

> <PUBCHEM_MOLECULAR_FORMULA>
C22H23NO3

> <PUBCHEM_MOLECULAR_WEIGHT>
349.42292

> <PUBCHEM_OPENEYE_CAN_SMILES>
CCC1=NC2=CC=CC=C2C(=C1C)C(=O)OCCOC3=CC=CC(=C3)C

> <PUBCHEM_OPENEYE_ISO_SMILES>
CCC1=NC2=CC=CC=C2C(=C1C)C(=O)OCCOC3=CC=CC(=C3)C

> <PUBCHEM_CACTVS_TPSA>
48.4

> <PUBCHEM_MONOISOTOPIC_WEIGHT>
349.167794

> <PUBCHEM_TOTAL_CHARGE>
0

> <PUBCHEM_HEAVY_ATOM_COUNT>
26

> <PUBCHEM_ATOM_DEF_STEREO_COUNT>
0

> <PUBCHEM_ATOM_UDEF_STEREO_COUNT>
0

> <PUBCHEM_BOND_DEF_STEREO_COUNT>
0

> <PUBCHEM_BOND_UDEF_STEREO_COUNT>
0

> <PUBCHEM_ISOTOPIC_ATOM_COUNT>
0

> <PUBCHEM_COMPONENT_COUNT>
1

> <PUBCHEM_CACTVS_TAUTO_COUNT>
6

> <PUBCHEM_COORDINATE_TYPE>
1
5
255

> <PUBCHEM_BONDANNOTATIONS>
12  16  8
14  17  8
16  17  8
20  22  8
20  23  8
21  22  8
21  24  8
23  25  8
24  25  8
4  8  8
4  9  8
5  6  8
5  8  8
6  7  8
7  12  8
7  9  8
9  14  8

$$$$

