12970
  -OEChem-06261207363D

 18 17  0     0  0  0  0  0  0999 V2000
   -0.0001    0.3933    0.0001 C   0  0  0  0  0  0  0  0  0  0  0  0
    1.1279   -0.3802    0.6439 C   0  0  0  0  0  0  0  0  0  0  0  0
   -1.1275   -0.3806   -0.6438 C   0  0  0  0  0  0  0  0  0  0  0  0
    2.2658   -0.6847   -0.3204 C   0  0  0  0  0  0  0  0  0  0  0  0
   -2.2661   -0.6844    0.3204 C   0  0  0  0  0  0  0  0  0  0  0  0
    0.0000    1.7367   -0.0002 C   0  0  0  0  0  0  0  0  0  0  0  0
    0.7393   -1.3149    1.0656 H   0  0  0  0  0  0  0  0  0  0  0  0
    1.5298    0.1862    1.4938 H   0  0  0  0  0  0  0  0  0  0  0  0
   -0.7389   -1.3156   -1.0647 H   0  0  0  0  0  0  0  0  0  0  0  0
   -1.5291    0.1852   -1.4943 H   0  0  0  0  0  0  0  0  0  0  0  0
    3.0546   -1.2452    0.1913 H   0  0  0  0  0  0  0  0  0  0  0  0
    2.7074    0.2360   -0.7162 H   0  0  0  0  0  0  0  0  0  0  0  0
    1.9172   -1.2867   -1.1661 H   0  0  0  0  0  0  0  0  0  0  0  0
   -2.7079    0.2365    0.7152 H   0  0  0  0  0  0  0  0  0  0  0  0
   -1.9178   -1.2858    1.1667 H   0  0  0  0  0  0  0  0  0  0  0  0
   -3.0547   -1.2453   -0.1913 H   0  0  0  0  0  0  0  0  0  0  0  0
   -0.8059    2.3003   -0.4583 H   0  0  0  0  0  0  0  0  0  0  0  0
    0.8061    2.3005    0.4576 H   0  0  0  0  0  0  0  0  0  0  0  0
  1  2  1  0  0  0  0
  1  3  1  0  0  0  0
  1  6  2  0  0  0  0
  2  4  1  0  0  0  0
  2  7  1  0  0  0  0
  2  8  1  0  0  0  0
  3  5  1  0  0  0  0
  3  9  1  0  0  0  0
  3 10  1  0  0  0  0
  4 11  1  0  0  0  0
  4 12  1  0  0  0  0
  4 13  1  0  0  0  0
  5 14  1  0  0  0  0
  5 15  1  0  0  0  0
  5 16  1  0  0  0  0
  6 17  1  0  0  0  0
  6 18  1  0  0  0  0
M  END
> <PUBCHEM_COMPOUND_CID>
12970

> <PUBCHEM_CONFORMER_RMSD>
0.4

> <PUBCHEM_CONFORMER_DIVERSEORDER>
2
6
3
1
7
4
9
5
8

> <PUBCHEM_MMFF94_PARTIAL_CHARGES>
6
1 -0.28
17 0.15
18 0.15
2 0.14
3 0.14
6 -0.3

> <PUBCHEM_EFFECTIVE_ROTOR_COUNT>
2

> <PUBCHEM_PHARMACOPHORE_FEATURES>
3
1 4 hydrophobe
1 5 hydrophobe
1 6 hydrophobe

> <PUBCHEM_HEAVY_ATOM_COUNT>
6

> <PUBCHEM_ATOM_DEF_STEREO_COUNT>
0

> <PUBCHEM_ATOM_UDEF_STEREO_COUNT>
0

> <PUBCHEM_BOND_DEF_STEREO_COUNT>
0

> <PUBCHEM_BOND_UDEF_STEREO_COUNT>
0

> <PUBCHEM_ISOTOPIC_ATOM_COUNT>
0

> <PUBCHEM_COMPONENT_COUNT>
1

> <PUBCHEM_CACTVS_TAUTO_COUNT>
1

> <PUBCHEM_CONFORMER_ID>
000032AA00000002

> <PUBCHEM_MMFF94_ENERGY>
1.1201

> <PUBCHEM_FEATURE_SELFOVERLAP>
15.223

> <PUBCHEM_SHAPE_FINGERPRINT>
137420 1 11365031438624001257
139733 1 9223231874892077123
16714656 1 18335136556862886094
20096714 4 17758676650968882025
21040471 1 17545611509474327688
23552449 11 18197797508804500027
29004967 10 18411421678620377778
5943 1 5218171031771716984

> <PUBCHEM_SHAPE_MULTIPOLES>
123.48
2.75
1.35
0.79
0
0.76
0
-1.33
0
0
0
0
-0.08
0.07

> <PUBCHEM_SHAPE_SELFOVERLAP>
214.986

> <PUBCHEM_SHAPE_VOLUME>
83.5

> <PUBCHEM_COORDINATE_TYPE>
2
5
10

$$$$

