5281148
  -OEChem-07051212552D

 43 42  0     1  0  0  0  0  0999 V2000
    6.3301    0.2500    0.0000 O   0  0  0  0  0  0  0  0  0  0  0  0
   11.5263   -2.7500    0.0000 O   0  0  0  0  0  0  0  0  0  0  0  0
    2.8660    2.2500    0.0000 C   0  0  0  0  0  0  0  0  0  0  0  0
    3.7320    1.7500    0.0000 C   0  0  0  0  0  0  0  0  0  0  0  0
    2.8660    3.2500    0.0000 C   0  0  0  0  0  0  0  0  0  0  0  0
    3.7320    0.7500    0.0000 C   0  0  0  0  0  0  0  0  0  0  0  0
    2.0000    3.7500    0.0000 C   0  0  0  0  0  0  0  0  0  0  0  0
    4.5981    0.2500    0.0000 C   0  0  0  0  0  0  0  0  0  0  0  0
    2.0000    4.7500    0.0000 C   0  0  0  0  0  0  0  0  0  0  0  0
    4.5981   -0.7500    0.0000 C   0  0  0  0  0  0  0  0  0  0  0  0
    5.4641   -1.2500    0.0000 C   0  0  0  0  0  0  0  0  0  0  0  0
    6.3301   -0.7500    0.0000 C   0  0  1  0  0  0  0  0  0  0  0  0
    7.1962   -1.2500    0.0000 C   0  0  0  0  0  0  0  0  0  0  0  0
    8.0622   -1.7500    0.0000 C   0  0  0  0  0  0  0  0  0  0  0  0
   10.6603   -3.2500    0.0000 C   0  0  1  0  0  0  0  0  0  0  0  0
    8.9282   -2.2500    0.0000 C   0  0  0  0  0  0  0  0  0  0  0  0
    9.7942   -2.7500    0.0000 C   0  0  0  0  0  0  0  0  0  0  0  0
   10.6603   -4.2500    0.0000 C   0  0  0  0  0  0  0  0  0  0  0  0
   11.5263   -4.7500    0.0000 C   0  0  0  0  0  0  0  0  0  0  0  0
    2.2554    2.3577    0.0000 H   0  0  0  0  0  0  0  0  0  0  0  0
    2.6540    1.6674    0.0000 H   0  0  0  0  0  0  0  0  0  0  0  0
    4.3426    1.6423    0.0000 H   0  0  0  0  0  0  0  0  0  0  0  0
    3.9441    2.3326    0.0000 H   0  0  0  0  0  0  0  0  0  0  0  0
    3.4766    3.1423    0.0000 H   0  0  0  0  0  0  0  0  0  0  0  0
    3.0781    3.8326    0.0000 H   0  0  0  0  0  0  0  0  0  0  0  0
    3.1215    0.8577    0.0000 H   0  0  0  0  0  0  0  0  0  0  0  0
    3.5200    0.1674    0.0000 H   0  0  0  0  0  0  0  0  0  0  0  0
    1.3894    3.8577    0.0000 H   0  0  0  0  0  0  0  0  0  0  0  0
    1.7880    3.1674    0.0000 H   0  0  0  0  0  0  0  0  0  0  0  0
    5.2087    0.1423    0.0000 H   0  0  0  0  0  0  0  0  0  0  0  0
    4.8101    0.8326    0.0000 H   0  0  0  0  0  0  0  0  0  0  0  0
    2.6200    4.7500    0.0000 H   0  0  0  0  0  0  0  0  0  0  0  0
    2.0000    5.3700    0.0000 H   0  0  0  0  0  0  0  0  0  0  0  0
    1.3800    4.7500    0.0000 H   0  0  0  0  0  0  0  0  0  0  0  0
    4.0611   -1.0600    0.0000 H   0  0  0  0  0  0  0  0  0  0  0  0
    5.4641   -1.8700    0.0000 H   0  0  0  0  0  0  0  0  0  0  0  0
    6.8671   -0.4400    0.0000 H   0  0  0  0  0  0  0  0  0  0  0  0
    6.8671    0.5600    0.0000 H   0  0  0  0  0  0  0  0  0  0  0  0
   11.1972   -3.5600    0.0000 H   0  0  0  0  0  0  0  0  0  0  0  0
   10.1233   -4.5600    0.0000 H   0  0  0  0  0  0  0  0  0  0  0  0
   12.0632   -3.0600    0.0000 H   0  0  0  0  0  0  0  0  0  0  0  0
   11.5263   -5.3700    0.0000 H   0  0  0  0  0  0  0  0  0  0  0  0
   12.0632   -4.4400    0.0000 H   0  0  0  0  0  0  0  0  0  0  0  0
 12  1  1  6  0  0  0
  1 38  1  0  0  0  0
 15  2  1  6  0  0  0
  2 41  1  0  0  0  0
  3  4  1  0  0  0  0
  3  5  1  0  0  0  0
  3 20  1  0  0  0  0
  3 21  1  0  0  0  0
  4  6  1  0  0  0  0
  4 22  1  0  0  0  0
  4 23  1  0  0  0  0
  5  7  1  0  0  0  0
  5 24  1  0  0  0  0
  5 25  1  0  0  0  0
  6  8  1  0  0  0  0
  6 26  1  0  0  0  0
  6 27  1  0  0  0  0
  7  9  1  0  0  0  0
  7 28  1  0  0  0  0
  7 29  1  0  0  0  0
  8 10  1  0  0  0  0
  8 30  1  0  0  0  0
  8 31  1  0  0  0  0
  9 32  1  0  0  0  0
  9 33  1  0  0  0  0
  9 34  1  0  0  0  0
 10 11  2  0  0  0  0
 10 35  1  0  0  0  0
 11 12  1  0  0  0  0
 11 36  1  0  0  0  0
 12 13  1  0  0  0  0
 12 37  1  0  0  0  0
 13 14  3  0  0  0  0
 14 16  1  0  0  0  0
 15 17  1  0  0  0  0
 15 18  1  0  0  0  0
 15 39  1  0  0  0  0
 16 17  3  0  0  0  0
 18 19  2  0  0  0  0
 18 40  1  0  0  0  0
 19 42  1  0  0  0  0
 19 43  1  0  0  0  0
M  END
> <PUBCHEM_COMPOUND_CID>
5281148

> <PUBCHEM_COMPOUND_CANONICALIZED>
1

> <PUBCHEM_CACTVS_COMPLEXITY>
394

> <PUBCHEM_CACTVS_HBOND_ACCEPTOR>
2

> <PUBCHEM_CACTVS_HBOND_DONOR>
2

> <PUBCHEM_CACTVS_ROTATABLE_BOND>
9

> <PUBCHEM_CACTVS_SUBSKEYS>
AAADceB4MAAAAAAAAAAAAAAAAAAAAAAAAAAAAAAAAAAAAAAAAAAAGgAACAAACBSggAICAAAAAgDAECBCAAgAAAAgAAAICAAAAAgAFAIAAQAAEAAAgAAIEAMAgIAAAAAAAAAAAAAAAAAAAAAAAAAAAAAAAA==

> <PUBCHEM_IUPAC_OPENEYE_NAME>
(3R,8S,9Z)-heptadeca-1,9-dien-4,6-diyne-3,8-diol

> <PUBCHEM_IUPAC_CAS_NAME>
(3R,8S,9Z)-heptadeca-1,9-dien-4,6-diyne-3,8-diol

> <PUBCHEM_IUPAC_NAME>
(3R,8S,9Z)-heptadeca-1,9-dien-4,6-diyne-3,8-diol

> <PUBCHEM_IUPAC_SYSTEMATIC_NAME>
(3R,8S,9Z)-heptadeca-1,9-dien-4,6-diyne-3,8-diol

> <PUBCHEM_IUPAC_TRADITIONAL_NAME>
(3R,8S,9Z)-heptadeca-1,9-dien-4,6-diyne-3,8-diol

> <PUBCHEM_IUPAC_INCHI>
InChI=1S/C17H24O2/c1-3-5-6-7-8-9-10-14-17(19)15-12-11-13-16(18)4-2/h4,10,14,16-19H,2-3,5-9H2,1H3/b14-10-/t16-,17+/m1/s1

> <PUBCHEM_IUPAC_INCHIKEY>
QWCNQXNAFCBLLV-YWALDVPYSA-N

> <PUBCHEM_XLOGP3_AA>
4.4

> <PUBCHEM_EXACT_MASS>
260.17763

> <PUBCHEM_MOLECULAR_FORMULA>
C17H24O2

> <PUBCHEM_MOLECULAR_WEIGHT>
260.37126

> <PUBCHEM_OPENEYE_CAN_SMILES>
CCCCCCCC=CC(C#CC#CC(C=C)O)O

> <PUBCHEM_OPENEYE_ISO_SMILES>
CCCCCCC/C=C\[C@@H](C#CC#C[C@@H](C=C)O)O

> <PUBCHEM_CACTVS_TPSA>
40.5

> <PUBCHEM_MONOISOTOPIC_WEIGHT>
260.17763

> <PUBCHEM_TOTAL_CHARGE>
0

> <PUBCHEM_HEAVY_ATOM_COUNT>
19

> <PUBCHEM_ATOM_DEF_STEREO_COUNT>
2

> <PUBCHEM_ATOM_UDEF_STEREO_COUNT>
0

> <PUBCHEM_BOND_DEF_STEREO_COUNT>
1

> <PUBCHEM_BOND_UDEF_STEREO_COUNT>
0

> <PUBCHEM_ISOTOPIC_ATOM_COUNT>
0

> <PUBCHEM_COMPONENT_COUNT>
1

> <PUBCHEM_CACTVS_TAUTO_COUNT>
1

> <PUBCHEM_COORDINATE_TYPE>
1
5
255

> <PUBCHEM_BONDANNOTATIONS>
12  1  6
15  2  6

$$$$

