6635
  -OEChem-07051213133D

 26 27  0     0  0  0  0  0  0999 V2000
   -6.2494    0.5882    0.9470 Cl  0  0  0  0  0  0  0  0  0  0  0  0
    6.4284    0.1683    0.2763 Cl  0  0  0  0  0  0  0  0  0  0  0  0
   -0.3563   -0.5194   -0.8388 S   0  0  0  0  0  0  0  0  0  0  0  0
    0.5570    0.1970    0.3186 O   0  0  0  0  0  0  0  0  0  0  0  0
   -0.1886   -1.9576   -0.7572 O   0  0  0  0  0  0  0  0  0  0  0  0
   -0.1571    0.2034   -2.0812 O   0  0  0  0  0  0  0  0  0  0  0  0
   -2.0213   -0.2074   -0.3360 C   0  0  0  0  0  0  0  0  0  0  0  0
   -2.6582    0.9389   -0.7795 C   0  0  0  0  0  0  0  0  0  0  0  0
   -2.6582   -1.1144    0.4938 C   0  0  0  0  0  0  0  0  0  0  0  0
    1.9179    0.1904    0.3086 C   0  0  0  0  0  0  0  0  0  0  0  0
   -3.9719    1.1859   -0.3811 C   0  0  0  0  0  0  0  0  0  0  0  0
   -3.9720   -0.8675    0.8921 C   0  0  0  0  0  0  0  0  0  0  0  0
    2.6097   -1.0203    0.3409 C   0  0  0  0  0  0  0  0  0  0  0  0
    2.6210    1.3944    0.2663 C   0  0  0  0  0  0  0  0  0  0  0  0
   -4.6290    0.2826    0.4545 C   0  0  0  0  0  0  0  0  0  0  0  0
    4.0045   -1.0272    0.3309 C   0  0  0  0  0  0  0  0  0  0  0  0
    4.0159    1.3877    0.2563 C   0  0  0  0  0  0  0  0  0  0  0  0
    4.7076    0.1769    0.2885 C   0  0  0  0  0  0  0  0  0  0  0  0
   -2.1620    1.6587   -1.4231 H   0  0  0  0  0  0  0  0  0  0  0  0
   -2.1625   -2.0105    0.8538 H   0  0  0  0  0  0  0  0  0  0  0  0
   -4.4707    2.0874   -0.7279 H   0  0  0  0  0  0  0  0  0  0  0  0
   -4.4708   -1.5788    1.5454 H   0  0  0  0  0  0  0  0  0  0  0  0
    2.0842   -1.9683    0.3967 H   0  0  0  0  0  0  0  0  0  0  0  0
    2.0871    2.3404    0.2404 H   0  0  0  0  0  0  0  0  0  0  0  0
    4.5304   -1.9780    0.3614 H   0  0  0  0  0  0  0  0  0  0  0  0
    4.5504    2.3336    0.2230 H   0  0  0  0  0  0  0  0  0  0  0  0
  1 15  1  0  0  0  0
  2 18  1  0  0  0  0
  3  4  1  0  0  0  0
  3  5  2  0  0  0  0
  3  6  2  0  0  0  0
  3  7  1  0  0  0  0
  4 10  1  0  0  0  0
  7  8  2  0  0  0  0
  7  9  1  0  0  0  0
  8 11  1  0  0  0  0
  8 19  1  0  0  0  0
  9 12  2  0  0  0  0
  9 20  1  0  0  0  0
 10 13  2  0  0  0  0
 10 14  1  0  0  0  0
 11 15  2  0  0  0  0
 11 21  1  0  0  0  0
 12 15  1  0  0  0  0
 12 22  1  0  0  0  0
 13 16  1  0  0  0  0
 13 23  1  0  0  0  0
 14 17  2  0  0  0  0
 14 24  1  0  0  0  0
 16 18  2  0  0  0  0
 16 25  1  0  0  0  0
 17 18  1  0  0  0  0
 17 26  1  0  0  0  0
M  END
> <PUBCHEM_COMPOUND_CID>
6635

> <PUBCHEM_CONFORMER_RMSD>
0.6

> <PUBCHEM_CONFORMER_DIVERSEORDER>
1
3
2
4

> <PUBCHEM_MMFF94_PARTIAL_CHARGES>
26
1 -0.18
10 0.08
11 -0.15
12 -0.15
13 -0.15
14 -0.15
15 0.18
16 -0.15
17 -0.15
18 0.18
19 0.15
2 -0.18
20 0.15
21 0.15
22 0.15
23 0.15
24 0.15
25 0.15
26 0.15
3 1.49
4 -0.27
5 -0.65
6 -0.65
7 -0.01
8 -0.15
9 -0.15

> <PUBCHEM_EFFECTIVE_ROTOR_COUNT>
3

> <PUBCHEM_PHARMACOPHORE_FEATURES>
4
1 5 acceptor
1 6 acceptor
6 10 13 14 16 17 18 rings
6 7 8 9 11 12 15 rings

> <PUBCHEM_HEAVY_ATOM_COUNT>
18

> <PUBCHEM_ATOM_DEF_STEREO_COUNT>
0

> <PUBCHEM_ATOM_UDEF_STEREO_COUNT>
0

> <PUBCHEM_BOND_DEF_STEREO_COUNT>
0

> <PUBCHEM_BOND_UDEF_STEREO_COUNT>
0

> <PUBCHEM_ISOTOPIC_ATOM_COUNT>
0

> <PUBCHEM_COMPONENT_COUNT>
1

> <PUBCHEM_CACTVS_TAUTO_COUNT>
1

> <PUBCHEM_CONFORMER_ID>
000019EB00000001

> <PUBCHEM_MMFF94_ENERGY>
37.4717

> <PUBCHEM_FEATURE_SELFOVERLAP>
20.314

> <PUBCHEM_SHAPE_FINGERPRINT>
10354089 29 18409729565017518016
10447042 23 10231759968185240752
11045977 3 18201719518431349345
11089746 13 16877951520750402648
12107183 9 17693382547884538113
12236239 1 17530686498347308194
12251169 10 18060136527166879885
12507557 5 18040434365329044529
12507560 40 18272936059024987109
12516196 113 12823294589496426167
128620 24 13542468678594394882
13288520 33 14764626409301909041
13533116 47 5184076886350821428
1420 363 12967130527868698120
14251764 18 18410857646314131315
14341114 176 18272083920043616497
15183329 4 14273445999220361788
15527383 91 18201720643776110164
1813 80 15267058189709582046
18186145 218 5689597194910048295
18222031 100 14405183967084228726
187816 3 6411296840378172390
204376 136 18040434395573455855
21033648 29 18200612357683596997
21267235 1 18411132572246281352
22224240 67 18272653437381984763
22854114 59 18412263939029423707
23035841 295 15195567905201224352
23402539 116 13912324590273459896
23559900 14 18272937102406822880
23622692 88 17275382093417382143
347723 3 16008746922337262658
351380 3 14189574126613519905
3545911 37 18412825789360493032
42 15 18202001027440542554
4214541 1 18342740710661386969
4325135 7 15482664668296727006
5104073 3 18265625299127899098
542803 24 17530685411298647704
5924683 9 18339361838990358883
77779 3 18343585135570341920
8272917 22 18041555948604214206

> <PUBCHEM_SHAPE_MULTIPOLES>
360.41
13.8
1.41
1.07
1.88
0.12
0.36
-2.66
-4.64
0.14
0.03
-0.63
0
0.28

> <PUBCHEM_SHAPE_SELFOVERLAP>
741.211

> <PUBCHEM_SHAPE_VOLUME>
208.9

> <PUBCHEM_COORDINATE_TYPE>
2
5
10

$$$$

