6559
  -OEChem-07051212473D

 12 11  0     0  0  0  0  0  0999 V2000
    2.0388    0.0000   -0.1402 N   0  0  0  0  0  0  0  0  0  0  0  0
   -0.5408    0.0000    0.3923 C   0  0  0  0  0  0  0  0  0  0  0  0
   -1.2001    1.2558   -0.1725 C   0  0  0  0  0  0  0  0  0  0  0  0
   -1.1999   -1.2558   -0.1725 C   0  0  0  0  0  0  0  0  0  0  0  0
    0.9020    0.0002    0.0930 C   0  0  0  0  0  0  0  0  0  0  0  0
   -0.6738    0.0000    1.4809 H   0  0  0  0  0  0  0  0  0  0  0  0
   -0.7445    2.1598    0.2471 H   0  0  0  0  0  0  0  0  0  0  0  0
   -1.0959    1.3087   -1.2625 H   0  0  0  0  0  0  0  0  0  0  0  0
   -2.2685    1.2762    0.0672 H   0  0  0  0  0  0  0  0  0  0  0  0
   -2.2684   -1.2763    0.0671 H   0  0  0  0  0  0  0  0  0  0  0  0
   -1.0957   -1.3088   -1.2624 H   0  0  0  0  0  0  0  0  0  0  0  0
   -0.7443   -2.1599    0.2472 H   0  0  0  0  0  0  0  0  0  0  0  0
  1  5  3  0  0  0  0
  2  3  1  0  0  0  0
  2  4  1  0  0  0  0
  2  5  1  0  0  0  0
  2  6  1  0  0  0  0
  3  7  1  0  0  0  0
  3  8  1  0  0  0  0
  3  9  1  0  0  0  0
  4 10  1  0  0  0  0
  4 11  1  0  0  0  0
  4 12  1  0  0  0  0
M  END
> <PUBCHEM_COMPOUND_CID>
6559

> <PUBCHEM_CONFORMER_RMSD>
0.4

> <PUBCHEM_CONFORMER_DIVERSEORDER>
1

> <PUBCHEM_MMFF94_PARTIAL_CHARGES>
3
1 -0.56
2 0.2
5 0.36

> <PUBCHEM_EFFECTIVE_ROTOR_COUNT>
0

> <PUBCHEM_PHARMACOPHORE_FEATURES>
2
1 1 acceptor
3 2 3 4 hydrophobe

> <PUBCHEM_HEAVY_ATOM_COUNT>
5

> <PUBCHEM_ATOM_DEF_STEREO_COUNT>
0

> <PUBCHEM_ATOM_UDEF_STEREO_COUNT>
0

> <PUBCHEM_BOND_DEF_STEREO_COUNT>
0

> <PUBCHEM_BOND_UDEF_STEREO_COUNT>
0

> <PUBCHEM_ISOTOPIC_ATOM_COUNT>
0

> <PUBCHEM_COMPONENT_COUNT>
1

> <PUBCHEM_CACTVS_TAUTO_COUNT>
1

> <PUBCHEM_CONFORMER_ID>
0000199F00000001

> <PUBCHEM_MMFF94_ENERGY>
0.8075

> <PUBCHEM_FEATURE_SELFOVERLAP>
10.148

> <PUBCHEM_SHAPE_FINGERPRINT>
139733 1 9870935453137046915
16714656 1 18410569587373958925
20096714 4 18127690641504439400
21015797 1 8646766724721497219
21040471 1 18194406812275693865
24536 1 17312818299231082424
29004967 10 17980478958133494907
5943 1 13826131636025514321

> <PUBCHEM_SHAPE_MULTIPOLES>
97.92
2.09
1.26
0.65
1.1
0
-0.02
0
0.18
-0.76
0.11
-0.05
0
0

> <PUBCHEM_SHAPE_SELFOVERLAP>
170.66

> <PUBCHEM_SHAPE_VOLUME>
64

> <PUBCHEM_COORDINATE_TYPE>
2
5
10

$$$$

