12314049
  -OEChem-07051213102D

 49 50  0     1  0  0  0  0  0999 V2000
   11.3534    0.8457    0.0000 S   0  0  0  0  0  0  0  0  0  0  0  0
    8.6884   -1.1761    0.0000 O   0  0  0  0  0  0  0  0  0  0  0  0
   10.9933   -2.4666    0.0000 O   0  0  0  0  0  0  0  0  0  0  0  0
   12.6406   -1.9314    0.0000 O   0  0  0  0  0  0  0  0  0  0  0  0
    7.4612    0.0271    0.0000 O   0  0  0  0  0  0  0  0  0  0  0  0
   10.4024   -0.4634    0.0000 N   0  0  0  0  0  0  0  0  0  0  0  0
    8.6884    1.2493    0.0000 N   0  0  0  0  0  0  0  0  0  0  0  0
   10.4024    0.5366    0.0000 C   0  0  1  0  0  0  0  0  0  0  0  0
   11.9412    0.0366    0.0000 C   0  0  0  0  0  0  0  0  0  0  0  0
   11.3534   -0.7724    0.0000 C   0  0  2  0  0  0  0  0  0  0  0  0
    9.3941    0.5408    0.0000 C   0  0  1  0  0  0  0  0  0  0  0  0
    9.3941   -0.4675    0.0000 C   0  0  0  0  0  0  0  0  0  0  0  0
   12.7502    0.6244    0.0000 C   0  0  0  0  0  0  0  0  0  0  0  0
   12.7502   -0.5512    0.0000 C   0  0  0  0  0  0  0  0  0  0  0  0
   11.6624   -1.7234    0.0000 C   0  0  0  0  0  0  0  0  0  0  0  0
    7.7220    0.9925    0.0000 C   0  0  0  0  0  0  0  0  0  0  0  0
    7.0163    1.7011    0.0000 C   0  0  0  0  0  0  0  0  0  0  0  0
    6.0499    1.4442    0.0000 C   0  0  0  0  0  0  0  0  0  0  0  0
    5.3442    2.1528    0.0000 C   0  0  0  0  0  0  0  0  0  0  0  0
    4.3778    1.8960    0.0000 C   0  0  0  0  0  0  0  0  0  0  0  0
    3.6721    2.6045    0.0000 C   0  0  0  0  0  0  0  0  0  0  0  0
    2.7056    2.3477    0.0000 C   0  0  0  0  0  0  0  0  0  0  0  0
    2.0000    3.0562    0.0000 C   0  0  0  0  0  0  0  0  0  0  0  0
   10.2711    1.3764    0.0000 H   0  0  0  0  0  0  0  0  0  0  0  0
   10.9150   -1.2108    0.0000 H   0  0  0  0  0  0  0  0  0  0  0  0
    9.6331    1.1128    0.0000 H   0  0  0  0  0  0  0  0  0  0  0  0
   12.3858   -1.0527    0.0000 H   0  0  0  0  0  0  0  0  0  0  0  0
   13.2518   -0.9156    0.0000 H   0  0  0  0  0  0  0  0  0  0  0  0
   13.1146   -0.0496    0.0000 H   0  0  0  0  0  0  0  0  0  0  0  0
   13.1146    0.1228    0.0000 H   0  0  0  0  0  0  0  0  0  0  0  0
   13.2518    0.9888    0.0000 H   0  0  0  0  0  0  0  0  0  0  0  0
   12.3858    1.1260    0.0000 H   0  0  0  0  0  0  0  0  0  0  0  0
    8.8501    1.8479    0.0000 H   0  0  0  0  0  0  0  0  0  0  0  0
    7.5249    2.0556    0.0000 H   0  0  0  0  0  0  0  0  0  0  0  0
    6.7555    2.2635    0.0000 H   0  0  0  0  0  0  0  0  0  0  0  0
    5.5413    1.0897    0.0000 H   0  0  0  0  0  0  0  0  0  0  0  0
    6.3107    0.8818    0.0000 H   0  0  0  0  0  0  0  0  0  0  0  0
   11.1849   -3.0562    0.0000 H   0  0  0  0  0  0  0  0  0  0  0  0
    5.8528    2.5074    0.0000 H   0  0  0  0  0  0  0  0  0  0  0  0
    5.0834    2.7152    0.0000 H   0  0  0  0  0  0  0  0  0  0  0  0
    3.8692    1.5414    0.0000 H   0  0  0  0  0  0  0  0  0  0  0  0
    4.6386    1.3335    0.0000 H   0  0  0  0  0  0  0  0  0  0  0  0
    4.1807    2.9591    0.0000 H   0  0  0  0  0  0  0  0  0  0  0  0
    3.4112    3.1670    0.0000 H   0  0  0  0  0  0  0  0  0  0  0  0
    2.1970    1.9931    0.0000 H   0  0  0  0  0  0  0  0  0  0  0  0
    2.9665    1.7852    0.0000 H   0  0  0  0  0  0  0  0  0  0  0  0
    2.4393    3.4937    0.0000 H   0  0  0  0  0  0  0  0  0  0  0  0
    1.5625    3.4955    0.0000 H   0  0  0  0  0  0  0  0  0  0  0  0
    1.5607    2.6187    0.0000 H   0  0  0  0  0  0  0  0  0  0  0  0
  1  8  1  0  0  0  0
  1  9  1  0  0  0  0
  2 12  2  0  0  0  0
  3 15  1  0  0  0  0
  3 38  1  0  0  0  0
  4 15  2  0  0  0  0
  5 16  2  0  0  0  0
  6  8  1  0  0  0  0
  6 10  1  0  0  0  0
  6 12  1  0  0  0  0
 11  7  1  1  0  0  0
  7 16  1  0  0  0  0
  7 33  1  0  0  0  0
  8 11  1  0  0  0  0
  8 24  1  6  0  0  0
  9 10  1  0  0  0  0
  9 13  1  0  0  0  0
  9 14  1  0  0  0  0
 10 15  1  6  0  0  0
 10 25  1  0  0  0  0
 11 12  1  0  0  0  0
 11 26  1  0  0  0  0
 13 30  1  0  0  0  0
 13 31  1  0  0  0  0
 13 32  1  0  0  0  0
 14 27  1  0  0  0  0
 14 28  1  0  0  0  0
 14 29  1  0  0  0  0
 16 17  1  0  0  0  0
 17 18  1  0  0  0  0
 17 34  1  0  0  0  0
 17 35  1  0  0  0  0
 18 19  1  0  0  0  0
 18 36  1  0  0  0  0
 18 37  1  0  0  0  0
 19 20  1  0  0  0  0
 19 39  1  0  0  0  0
 19 40  1  0  0  0  0
 20 21  1  0  0  0  0
 20 41  1  0  0  0  0
 20 42  1  0  0  0  0
 21 22  1  0  0  0  0
 21 43  1  0  0  0  0
 21 44  1  0  0  0  0
 22 23  1  0  0  0  0
 22 45  1  0  0  0  0
 22 46  1  0  0  0  0
 23 47  1  0  0  0  0
 23 48  1  0  0  0  0
 23 49  1  0  0  0  0
M  END
> <PUBCHEM_COMPOUND_CID>
12314049

> <PUBCHEM_COMPOUND_CANONICALIZED>
1

> <PUBCHEM_CACTVS_COMPLEXITY>
495

> <PUBCHEM_CACTVS_HBOND_ACCEPTOR>
5

> <PUBCHEM_CACTVS_HBOND_DONOR>
2

> <PUBCHEM_CACTVS_ROTATABLE_BOND>
8

> <PUBCHEM_CACTVS_SUBSKEYS>
AAADceB7OABAAAAAAAAAAAAAAABYAWAAAAAAAAAABYAAAAAAAAAAHgQQCAAADCjFwASCCAPAAggIAAGQGAAAAABAABAAAIGIAAACQBoggCAUQAAEFgCwAAEYiICIAAAAAAAAAAAAAAAAAAAAAAAAAAAAAA==

> <PUBCHEM_IUPAC_OPENEYE_NAME>
(2S,5R,6R)-3,3-dimethyl-6-(octanoylamino)-7-oxo-4-thia-1-azabicyclo[3.2.0]heptane-2-carboxylic acid

> <PUBCHEM_IUPAC_CAS_NAME>
(2S,5R,6R)-3,3-dimethyl-7-oxo-6-(1-oxooctylamino)-4-thia-1-azabicyclo[3.2.0]heptane-2-carboxylic acid

> <PUBCHEM_IUPAC_NAME>
(2S,5R,6R)-3,3-dimethyl-6-(octanoylamino)-7-oxo-4-thia-1-azabicyclo[3.2.0]heptane-2-carboxylic acid

> <PUBCHEM_IUPAC_SYSTEMATIC_NAME>
(2S,5R,6R)-3,3-dimethyl-6-(octanoylamino)-7-oxidanylidene-4-thia-1-azabicyclo[3.2.0]heptane-2-carboxylic acid

> <PUBCHEM_IUPAC_TRADITIONAL_NAME>
(2S,5R,6R)-6-(caprylylamino)-7-keto-3,3-dimethyl-4-thia-1-azabicyclo[3.2.0]heptane-2-carboxylic acid

> <PUBCHEM_IUPAC_INCHI>
InChI=1S/C16H26N2O4S/c1-4-5-6-7-8-9-10(19)17-11-13(20)18-12(15(21)22)16(2,3)23-14(11)18/h11-12,14H,4-9H2,1-3H3,(H,17,19)(H,21,22)/t11-,12+,14-/m1/s1

> <PUBCHEM_IUPAC_INCHIKEY>
XVASOOUVMJAZNJ-MBNYWOFBSA-N

> <PUBCHEM_XLOGP3>
3.5

> <PUBCHEM_EXACT_MASS>
342.161328

> <PUBCHEM_MOLECULAR_FORMULA>
C16H26N2O4S

> <PUBCHEM_MOLECULAR_WEIGHT>
342.45364

> <PUBCHEM_OPENEYE_CAN_SMILES>
CCCCCCCC(=O)NC1C2N(C1=O)C(C(S2)(C)C)C(=O)O

> <PUBCHEM_OPENEYE_ISO_SMILES>
CCCCCCCC(=O)N[C@H]1[C@@H]2N(C1=O)[C@H](C(S2)(C)C)C(=O)O

> <PUBCHEM_CACTVS_TPSA>
112

> <PUBCHEM_MONOISOTOPIC_WEIGHT>
342.161328

> <PUBCHEM_TOTAL_CHARGE>
0

> <PUBCHEM_HEAVY_ATOM_COUNT>
23

> <PUBCHEM_ATOM_DEF_STEREO_COUNT>
3

> <PUBCHEM_ATOM_UDEF_STEREO_COUNT>
0

> <PUBCHEM_BOND_DEF_STEREO_COUNT>
0

> <PUBCHEM_BOND_UDEF_STEREO_COUNT>
0

> <PUBCHEM_ISOTOPIC_ATOM_COUNT>
0

> <PUBCHEM_COMPONENT_COUNT>
1

> <PUBCHEM_CACTVS_TAUTO_COUNT>
4

> <PUBCHEM_COORDINATE_TYPE>
1
5
255

> <PUBCHEM_BONDANNOTATIONS>
10  15  6
11  7  5
8  24  6

$$$$

