47205521
  -OEChem-06241222593D

 32 32  0     0  0  0  0  0  0999 V2000
    5.7521   -1.3739    0.6228 Cl  0  0  0  0  0  0  0  0  0  0  0  0
    5.6051    1.5570    0.2045 F   0  0  0  0  0  0  0  0  0  0  0  0
   -3.4787   -0.4861    1.3920 O   0  0  0  0  0  0  0  0  0  0  0  0
   -0.7663    0.7632   -0.7190 O   0  0  0  0  0  0  0  0  0  0  0  0
   -2.8979   -0.8821   -0.8204 N   0  0  0  0  0  0  0  0  0  0  0  0
    0.7063   -1.0038   -0.2416 N   0  0  0  0  0  0  0  0  0  0  0  0
   -5.0161    0.1603   -0.3630 C   0  0  0  0  0  0  0  0  0  0  0  0
   -5.9473    0.6656    0.7351 C   0  0  0  0  0  0  0  0  0  0  0  0
   -3.7313   -0.4285    0.1915 C   0  0  0  0  0  0  0  0  0  0  0  0
   -1.6139   -1.4841   -0.5499 C   0  0  0  0  0  0  0  0  0  0  0  0
   -7.2399    1.2199    0.1587 C   0  0  0  0  0  0  0  0  0  0  0  0
   -0.5285   -0.4233   -0.5187 C   0  0  0  0  0  0  0  0  0  0  0  0
    1.9587   -0.3546   -0.1279 C   0  0  0  0  0  0  0  0  0  0  0  0
    3.1057   -1.0954    0.1574 C   0  0  0  0  0  0  0  0  0  0  0  0
    2.0457    1.0268   -0.3005 C   0  0  0  0  0  0  0  0  0  0  0  0
    4.3397   -0.4549    0.2698 C   0  0  0  0  0  0  0  0  0  0  0  0
    3.2797    1.6673   -0.1879 C   0  0  0  0  0  0  0  0  0  0  0  0
    4.4267    0.9265    0.0972 C   0  0  0  0  0  0  0  0  0  0  0  0
   -4.7534    0.9828   -1.0391 H   0  0  0  0  0  0  0  0  0  0  0  0
   -5.5192   -0.6145   -0.9539 H   0  0  0  0  0  0  0  0  0  0  0  0
   -5.4463    1.4462    1.3198 H   0  0  0  0  0  0  0  0  0  0  0  0
   -6.1831   -0.1490    1.4303 H   0  0  0  0  0  0  0  0  0  0  0  0
   -1.6431   -2.0090    0.4104 H   0  0  0  0  0  0  0  0  0  0  0  0
   -1.4034   -2.1977   -1.3524 H   0  0  0  0  0  0  0  0  0  0  0  0
   -3.1828   -0.7759   -1.7898 H   0  0  0  0  0  0  0  0  0  0  0  0
   -7.7818    0.4507   -0.4007 H   0  0  0  0  0  0  0  0  0  0  0  0
   -7.8909    1.5772    0.9627 H   0  0  0  0  0  0  0  0  0  0  0  0
   -7.0405    2.0592   -0.5153 H   0  0  0  0  0  0  0  0  0  0  0  0
    0.7294   -2.0118   -0.1017 H   0  0  0  0  0  0  0  0  0  0  0  0
    3.0365   -2.1728    0.2921 H   0  0  0  0  0  0  0  0  0  0  0  0
    1.2042    1.6676   -0.5226 H   0  0  0  0  0  0  0  0  0  0  0  0
    3.3490    2.7430   -0.3216 H   0  0  0  0  0  0  0  0  0  0  0  0
  1 16  1  0  0  0  0
  2 18  1  0  0  0  0
  3  9  2  0  0  0  0
  4 12  2  0  0  0  0
  5  9  1  0  0  0  0
  5 10  1  0  0  0  0
  5 25  1  0  0  0  0
  6 12  1  0  0  0  0
  6 13  1  0  0  0  0
  6 29  1  0  0  0  0
  7  8  1  0  0  0  0
  7  9  1  0  0  0  0
  7 19  1  0  0  0  0
  7 20  1  0  0  0  0
  8 11  1  0  0  0  0
  8 21  1  0  0  0  0
  8 22  1  0  0  0  0
 10 12  1  0  0  0  0
 10 23  1  0  0  0  0
 10 24  1  0  0  0  0
 11 26  1  0  0  0  0
 11 27  1  0  0  0  0
 11 28  1  0  0  0  0
 13 14  2  0  0  0  0
 13 15  1  0  0  0  0
 14 16  1  0  0  0  0
 14 30  1  0  0  0  0
 15 17  2  0  0  0  0
 15 31  1  0  0  0  0
 16 18  2  0  0  0  0
 17 18  1  0  0  0  0
 17 32  1  0  0  0  0
M  END
> <PUBCHEM_COMPOUND_CID>
47205521

> <PUBCHEM_CONFORMER_RMSD>
0.8

> <PUBCHEM_CONFORMER_DIVERSEORDER>
1
116
77
82
133
73
29
102
95
32
11
109
119
74
44
52
92
18
63
114
87
123
21
66
69
28
110
86
71
105
4
111
93
81
98
106
79
60
107
46
25
62
34
42
103
12
122
45
118
26
132
24
68
65
23
112
59
76
9
75
135
13
20
8
100
125
22
55
72
19
37
94
128
10
117
104
54
57
51
70
130
115
33
101
124
108
35
129
17
56
121
64
61
134
3
43
85
49
91
48
30
2
96
89
58
78
40
53
131
31
38
16
83
14
80
47
5
126
113
97
15
50
84
90
7
127
6
88
36
99
41
67
27
39
120

> <PUBCHEM_MMFF94_PARTIAL_CHARGES>
21
1 -0.18
10 0.36
12 0.57
13 0.12
14 -0.15
15 -0.15
16 0.18
17 -0.15
18 0.19
2 -0.19
25 0.37
29 0.37
3 -0.57
30 0.15
31 0.15
32 0.15
4 -0.57
5 -0.73
6 -0.55
7 0.06
9 0.57

> <PUBCHEM_EFFECTIVE_ROTOR_COUNT>
7

> <PUBCHEM_PHARMACOPHORE_FEATURES>
6
1 11 hydrophobe
1 3 acceptor
1 4 acceptor
1 5 donor
1 6 donor
6 13 14 15 16 17 18 rings

> <PUBCHEM_HEAVY_ATOM_COUNT>
18

> <PUBCHEM_ATOM_DEF_STEREO_COUNT>
0

> <PUBCHEM_ATOM_UDEF_STEREO_COUNT>
0

> <PUBCHEM_BOND_DEF_STEREO_COUNT>
0

> <PUBCHEM_BOND_UDEF_STEREO_COUNT>
0

> <PUBCHEM_ISOTOPIC_ATOM_COUNT>
0

> <PUBCHEM_COMPONENT_COUNT>
1

> <PUBCHEM_CACTVS_TAUTO_COUNT>
4

> <PUBCHEM_CONFORMER_ID>
02D04C9100000001

> <PUBCHEM_MMFF94_ENERGY>
33.7963

> <PUBCHEM_FEATURE_SELFOVERLAP>
30.446

> <PUBCHEM_SHAPE_FINGERPRINT>
10299344 5 10807931583749103197
10354089 29 18342736308214354924
10688039 33 17917995000701701189
11089746 13 17822298976524213321
117890 112 18259703397951174081
12236239 1 18259988158414478879
12596602 18 18272647931465650001
13167372 99 18335137635190165625
13533116 47 16226320533878612582
13785724 45 17831577948362253238
14123256 10 9151165459318396891
14251718 22 7925910378870392547
14251764 18 18410856543166750295
14341114 176 17989487428656311956
14350574 20 9295286136568217815
15048467 5 18260267434367881977
15348495 7 17703501100334885089
15475509 35 16343159016882564936
15527383 91 18272088305479350460
15537594 2 13686300154110739481
19489759 90 15791729702582609147
20157964 124 18260544572034337215
20281389 69 18411420622570424497
20767249 213 18187082863082372979
21150785 3 6916253048707963050
21267235 1 18270683181923882474
212847 35 18113901550479933024
21637258 2 12895066281258601601
2297311 6 15267061484223746135
23035841 295 15051732005810627618
23402539 116 17458351836206433967
23402655 69 18261396594534574254
26918003 58 18060700576299632603
2767999 5 17603587448074272425
2838139 119 18334863848838112389
300161 21 17967817119777554622
312425 54 17275383205718772057
351380 3 12103845644594097289
465052 167 11887667386270404177
5104073 3 18269283378497986546
542803 24 17894632543448323543
602551 16 15769489825158400994
8272917 22 18334011722456664462

> <PUBCHEM_SHAPE_MULTIPOLES>
343.33
16.71
1.57
0.85
15.97
0.25
-0.1
4.35
-3.87
-1.39
0.05
0.49
-0.1
-0.59

> <PUBCHEM_SHAPE_SELFOVERLAP>
689.776

> <PUBCHEM_SHAPE_VOLUME>
201.9

> <PUBCHEM_COORDINATE_TYPE>
2
5
10

$$$$

