46174033
  -OEChem-07051213112D

 95 97  0     1  0  0  0  0  0999 V2000
    6.3100    3.5200    0.0000 O   0  0  0  0  0  0  0  0  0  0  0  0
    8.0420    4.5200    0.0000 O   0  0  0  0  0  0  0  0  0  0  0  0
    9.7741    3.5200    0.0000 O   0  0  0  0  0  0  0  0  0  0  0  0
    4.8100    2.6539    0.0000 O   0  0  0  0  0  0  0  0  0  0  0  0
    9.8216    4.6132    0.0000 O   0  0  0  0  0  0  0  0  0  0  0  0
    8.2695    6.6836    0.0000 O   0  0  0  0  0  0  0  0  0  0  0  0
    3.3100    5.2521    0.0000 O   0  0  0  0  0  0  0  0  0  0  0  0
    2.3100    3.5200    0.0000 O   0  0  0  0  0  0  0  0  0  0  0  0
   10.3975    7.1359    0.0000 O   0  0  0  0  0  0  0  0  0  0  0  0
    8.9081    0.0199    0.0000 O   0  0  0  0  0  0  0  0  0  0  0  0
   11.8920    4.3383    0.0000 O   0  0  0  0  0  0  0  0  0  0  0  0
   11.5062    0.5199    0.0000 O   0  0  0  0  0  0  0  0  0  0  0  0
   13.2382   -2.4800    0.0000 O   0  0  0  0  0  0  0  0  0  0  0  0
   14.1042   -6.9800    0.0000 O   0  0  0  0  0  0  0  0  0  0  0  0
   14.9703   -5.4800    0.0000 O   0  0  0  0  0  0  0  0  0  0  0  0
    9.7741    1.5200    0.0000 N   0  0  0  0  0  0  0  0  0  0  0  0
    6.6760    1.1539    0.0000 N   0  0  0  0  0  0  0  0  0  0  0  0
    5.3100    5.2520    0.0000 N   0  0  0  0  0  0  0  0  0  0  0  0
    3.8101    0.9218    0.0000 N   0  0  0  0  0  0  0  0  0  0  0  0
   11.5062   -2.4800    0.0000 N   0  0  0  0  0  0  0  0  0  0  0  0
   12.3722   -5.9800    0.0000 N   0  0  0  0  0  0  0  0  0  0  0  0
    7.1760    3.0200    0.0000 C   0  0  1  0  0  0  0  0  0  0  0  0
    8.0420    3.5200    0.0000 C   0  0  1  0  0  0  0  0  0  0  0  0
    7.1760    2.0200    0.0000 C   0  0  2  0  0  0  0  0  0  0  0  0
    8.9081    3.0200    0.0000 C   0  0  2  0  0  0  0  0  0  0  0  0
    8.9081    2.0200    0.0000 C   0  0  1  0  0  0  0  0  0  0  0  0
    8.0420    1.5200    0.0000 C   0  0  0  0  0  0  0  0  0  0  0  0
    5.3100    3.5200    0.0000 C   0  0  1  0  0  0  0  0  0  0  0  0
    8.9081    5.0200    0.0000 C   0  0  2  0  0  0  0  0  0  0  0  0
    4.8101    4.3861    0.0000 C   0  0  1  0  0  0  0  0  0  0  0  0
    9.0126    6.0145    0.0000 C   0  0  1  0  0  0  0  0  0  0  0  0
    3.8100    4.3860    0.0000 C   0  0  2  0  0  0  0  0  0  0  0  0
    3.3100    3.5200    0.0000 C   0  0  1  0  0  0  0  0  0  0  0  0
    3.8100    2.6539    0.0000 C   0  0  1  0  0  0  0  0  0  0  0  0
    9.9908    6.2224    0.0000 C   0  0  1  0  0  0  0  0  0  0  0  0
   10.4908    5.3564    0.0000 C   0  0  1  0  0  0  0  0  0  0  0  0
    9.7741    0.5199    0.0000 C   0  0  0  0  0  0  0  0  0  0  0  0
    3.3100    1.7879    0.0000 C   0  0  0  0  0  0  0  0  0  0  0  0
   11.4853    5.2518    0.0000 C   0  0  0  0  0  0  0  0  0  0  0  0
   10.6401    0.0199    0.0000 C   0  0  2  0  0  0  0  0  0  0  0  0
   10.6401   -0.9801    0.0000 C   0  0  0  0  0  0  0  0  0  0  0  0
   11.5062   -1.4800    0.0000 C   0  0  0  0  0  0  0  0  0  0  0  0
   12.3722   -2.9800    0.0000 C   0  0  0  0  0  0  0  0  0  0  0  0
   12.3722   -3.9800    0.0000 C   0  0  0  0  0  0  0  0  0  0  0  0
   13.2382   -4.4800    0.0000 C   0  0  0  0  0  0  0  0  0  0  0  0
   13.2382   -5.4800    0.0000 C   0  0  1  0  0  0  0  0  0  0  0  0
   14.1042   -5.9800    0.0000 C   0  0  0  0  0  0  0  0  0  0  0  0
    7.1760    3.6400    0.0000 H   0  0  0  0  0  0  0  0  0  0  0  0
    8.5790    3.8300    0.0000 H   0  0  0  0  0  0  0  0  0  0  0  0
    6.5772    2.1804    0.0000 H   0  0  0  0  0  0  0  0  0  0  0  0
    8.9081    3.6400    0.0000 H   0  0  0  0  0  0  0  0  0  0  0  0
    8.9081    1.4000    0.0000 H   0  0  0  0  0  0  0  0  0  0  0  0
    7.6435    1.0450    0.0000 H   0  0  0  0  0  0  0  0  0  0  0  0
    8.4406    1.0450    0.0000 H   0  0  0  0  0  0  0  0  0  0  0  0
    5.6200    4.0569    0.0000 H   0  0  0  0  0  0  0  0  0  0  0  0
    8.3881    5.3576    0.0000 H   0  0  0  0  0  0  0  0  0  0  0  0
    5.4300    4.3860    0.0000 H   0  0  0  0  0  0  0  0  0  0  0  0
   10.3110    1.8300    0.0000 H   0  0  0  0  0  0  0  0  0  0  0  0
    8.4338    5.7923    0.0000 H   0  0  0  0  0  0  0  0  0  0  0  0
    3.1900    4.3861    0.0000 H   0  0  0  0  0  0  0  0  0  0  0  0
    6.9860    0.6170    0.0000 H   0  0  0  0  0  0  0  0  0  0  0  0
    6.0560    1.1540    0.0000 H   0  0  0  0  0  0  0  0  0  0  0  0
    3.0000    4.0569    0.0000 H   0  0  0  0  0  0  0  0  0  0  0  0
    4.1200    2.1170    0.0000 H   0  0  0  0  0  0  0  0  0  0  0  0
   10.6099    6.2548    0.0000 H   0  0  0  0  0  0  0  0  0  0  0  0
   10.7129    4.7775    0.0000 H   0  0  0  0  0  0  0  0  0  0  0  0
   10.3110    3.2100    0.0000 H   0  0  0  0  0  0  0  0  0  0  0  0
    2.8351    2.1864    0.0000 H   0  0  0  0  0  0  0  0  0  0  0  0
    2.8351    1.3893    0.0000 H   0  0  0  0  0  0  0  0  0  0  0  0
    5.0000    5.7889    0.0000 H   0  0  0  0  0  0  0  0  0  0  0  0
    5.9300    5.2520    0.0000 H   0  0  0  0  0  0  0  0  0  0  0  0
   12.0869    5.4018    0.0000 H   0  0  0  0  0  0  0  0  0  0  0  0
   11.4420    5.8703    0.0000 H   0  0  0  0  0  0  0  0  0  0  0  0
   10.6401    0.6399    0.0000 H   0  0  0  0  0  0  0  0  0  0  0  0
    8.3984    7.2900    0.0000 H   0  0  0  0  0  0  0  0  0  0  0  0
    2.6900    5.2521    0.0000 H   0  0  0  0  0  0  0  0  0  0  0  0
    2.0000    2.9830    0.0000 H   0  0  0  0  0  0  0  0  0  0  0  0
   11.0141    7.2007    0.0000 H   0  0  0  0  0  0  0  0  0  0  0  0
   10.0295   -0.8724    0.0000 H   0  0  0  0  0  0  0  0  0  0  0  0
   10.4281   -1.5627    0.0000 H   0  0  0  0  0  0  0  0  0  0  0  0
    3.5001    0.3849    0.0000 H   0  0  0  0  0  0  0  0  0  0  0  0
    4.4301    0.9218    0.0000 H   0  0  0  0  0  0  0  0  0  0  0  0
   12.5086    4.2735    0.0000 H   0  0  0  0  0  0  0  0  0  0  0  0
   12.1167   -1.5877    0.0000 H   0  0  0  0  0  0  0  0  0  0  0  0
   11.7182   -0.8974    0.0000 H   0  0  0  0  0  0  0  0  0  0  0  0
   12.0431    0.2099    0.0000 H   0  0  0  0  0  0  0  0  0  0  0  0
   10.9692   -2.7900    0.0000 H   0  0  0  0  0  0  0  0  0  0  0  0
   11.7616   -3.8724    0.0000 H   0  0  0  0  0  0  0  0  0  0  0  0
   12.1601   -4.5627    0.0000 H   0  0  0  0  0  0  0  0  0  0  0  0
   13.8488   -4.5877    0.0000 H   0  0  0  0  0  0  0  0  0  0  0  0
   13.4503   -3.8974    0.0000 H   0  0  0  0  0  0  0  0  0  0  0  0
   13.2382   -6.1001    0.0000 H   0  0  0  0  0  0  0  0  0  0  0  0
   12.3722   -6.6000    0.0000 H   0  0  0  0  0  0  0  0  0  0  0  0
   11.8352   -5.6700    0.0000 H   0  0  0  0  0  0  0  0  0  0  0  0
   14.6412   -7.2900    0.0000 H   0  0  0  0  0  0  0  0  0  0  0  0
 22  1  1  1  0  0  0
 28  1  1  1  0  0  0
 23  2  1  6  0  0  0
 29  2  1  1  0  0  0
 25  3  1  1  0  0  0
  3 67  1  0  0  0  0
  4 28  1  0  0  0  0
  4 34  1  0  0  0  0
  5 29  1  0  0  0  0
  5 36  1  0  0  0  0
 31  6  1  6  0  0  0
  6 75  1  0  0  0  0
 32  7  1  6  0  0  0
  7 76  1  0  0  0  0
 33  8  1  1  0  0  0
  8 77  1  0  0  0  0
 35  9  1  6  0  0  0
  9 78  1  0  0  0  0
 10 37  2  0  0  0  0
 11 39  1  0  0  0  0
 11 83  1  0  0  0  0
 40 12  1  1  0  0  0
 12 86  1  0  0  0  0
 13 43  2  0  0  0  0
 14 47  1  0  0  0  0
 14 95  1  0  0  0  0
 15 47  2  0  0  0  0
 26 16  1  6  0  0  0
 16 37  1  0  0  0  0
 16 58  1  0  0  0  0
 24 17  1  6  0  0  0
 17 61  1  0  0  0  0
 17 62  1  0  0  0  0
 30 18  1  1  0  0  0
 18 70  1  0  0  0  0
 18 71  1  0  0  0  0
 19 38  1  0  0  0  0
 19 81  1  0  0  0  0
 19 82  1  0  0  0  0
 20 42  1  0  0  0  0
 20 43  1  0  0  0  0
 20 87  1  0  0  0  0
 46 21  1  1  0  0  0
 21 93  1  0  0  0  0
 21 94  1  0  0  0  0
 22 23  1  0  0  0  0
 22 24  1  0  0  0  0
 22 48  1  0  0  0  0
 23 25  1  0  0  0  0
 23 49  1  0  0  0  0
 24 27  1  0  0  0  0
 24 50  1  0  0  0  0
 25 26  1  0  0  0  0
 25 51  1  0  0  0  0
 26 27  1  0  0  0  0
 26 52  1  0  0  0  0
 27 53  1  0  0  0  0
 27 54  1  0  0  0  0
 28 30  1  0  0  0  0
 28 55  1  0  0  0  0
 29 31  1  0  0  0  0
 29 56  1  0  0  0  0
 30 32  1  0  0  0  0
 30 57  1  0  0  0  0
 31 35  1  0  0  0  0
 31 59  1  0  0  0  0
 32 33  1  0  0  0  0
 32 60  1  0  0  0  0
 33 34  1  0  0  0  0
 33 63  1  0  0  0  0
 34 38  1  6  0  0  0
 34 64  1  0  0  0  0
 35 36  1  0  0  0  0
 35 65  1  0  0  0  0
 36 39  1  1  0  0  0
 36 66  1  0  0  0  0
 37 40  1  0  0  0  0
 38 68  1  0  0  0  0
 38 69  1  0  0  0  0
 39 72  1  0  0  0  0
 39 73  1  0  0  0  0
 40 41  1  0  0  0  0
 40 74  1  0  0  0  0
 41 42  1  0  0  0  0
 41 79  1  0  0  0  0
 41 80  1  0  0  0  0
 42 84  1  0  0  0  0
 42 85  1  0  0  0  0
 43 44  1  0  0  0  0
 44 45  1  0  0  0  0
 44 88  1  0  0  0  0
 44 89  1  0  0  0  0
 45 46  1  0  0  0  0
 45 90  1  0  0  0  0
 45 91  1  0  0  0  0
 46 47  1  0  0  0  0
 46 92  1  0  0  0  0
M  END
> <PUBCHEM_COMPOUND_CID>
46174033

> <PUBCHEM_COMPOUND_CANONICALIZED>
1

> <PUBCHEM_CACTVS_COMPLEXITY>
1050

> <PUBCHEM_CACTVS_HBOND_ACCEPTOR>
19

> <PUBCHEM_CACTVS_HBOND_DONOR>
14

> <PUBCHEM_CACTVS_ROTATABLE_BOND>
15

> <PUBCHEM_CACTVS_SUBSKEYS>
AAADcfB7vAAAAAAAAAAAAAAAAAAAASAAAAA0QAAAAAAAAAAAAAAAHgAQCAAACDzxgAcACALABgAIAAGQGAIAAAAAAAAAAIHIAAATEBIAwAAnQAAHFgCXAAH8dw8AAAAAAAAAAAAAgAAUCACgAAAAAAAAAA==

> <PUBCHEM_IUPAC_OPENEYE_NAME>
(2S)-2-amino-5-[[(3S)-4-[[(1R,2S,3R,4R,5S)-5-amino-4-[(2R,3R,4R,5S,6R)-3-amino-6-(aminomethyl)-4,5-dihydroxy-tetrahydropyran-2-yl]oxy-3-[(2S,3R,4S,5R)-3,4-dihydroxy-5-(hydroxymethyl)tetrahydrofuran-2-yl]oxy-2-hydroxy-cyclohexyl]amino]-3-hydroxy-4-oxo-butyl]amino]-5-oxo-pentanoic acid

> <PUBCHEM_IUPAC_CAS_NAME>
(2S)-2-amino-5-[[(3S)-4-[[(1R,2S,3R,4R,5S)-5-amino-4-[[(2R,3R,4R,5S,6R)-3-amino-6-(aminomethyl)-4,5-dihydroxy-2-oxanyl]oxy]-3-[[(2S,3R,4S,5R)-3,4-dihydroxy-5-(hydroxymethyl)-2-oxolanyl]oxy]-2-hydroxycyclohexyl]amino]-3-hydroxy-4-oxobutyl]amino]-5-oxopentanoic acid

> <PUBCHEM_IUPAC_NAME>
(2S)-2-amino-5-[[(3S)-4-[[(1R,2S,3R,4R,5S)-5-amino-4-[(2R,3R,4R,5S,6R)-3-amino-6-(aminomethyl)-4,5-dihydroxyoxan-2-yl]oxy-3-[(2S,3R,4S,5R)-3,4-dihydroxy-5-(hydroxymethyl)oxolan-2-yl]oxy-2-hydroxycyclohexyl]amino]-3-hydroxy-4-oxobutyl]amino]-5-oxopentanoic acid

> <PUBCHEM_IUPAC_SYSTEMATIC_NAME>
(2S)-5-[[(3S)-4-[[(1R,2S,3R,4R,5S)-4-[(2R,3R,4R,5S,6R)-6-(aminomethyl)-3-azanyl-4,5-bis(oxidanyl)oxan-2-yl]oxy-5-azanyl-3-[(2S,3R,4S,5R)-5-(hydroxymethyl)-3,4-bis(oxidanyl)oxolan-2-yl]oxy-2-oxidanyl-cyclohexyl]amino]-3-oxidanyl-4-oxidanylidene-butyl]amino]-2-azanyl-5-oxidanylidene-pentanoic acid

> <PUBCHEM_IUPAC_TRADITIONAL_NAME>
(2S)-2-amino-5-[[(3S)-4-[[(1R,2S,3R,4R,5S)-5-amino-4-[(2R,3R,4R,5S,6R)-3-amino-6-(aminomethyl)-4,5-dihydroxy-tetrahydropyran-2-yl]oxy-3-[(2S,3R,4S,5R)-3,4-dihydroxy-5-methylol-tetrahydrofuran-2-yl]oxy-2-hydroxy-cyclohexyl]amino]-3-hydroxy-4-keto-butyl]amino]-5-keto-valeric acid

> <PUBCHEM_IUPAC_INCHI>
InChI=1S/C26H48N6O15/c27-6-12-17(37)19(39)15(30)25(44-12)46-21-9(29)5-10(16(36)22(21)47-26-20(40)18(38)13(7-33)45-26)32-23(41)11(34)3-4-31-14(35)2-1-8(28)24(42)43/h8-13,15-22,25-26,33-34,36-40H,1-7,27-30H2,(H,31,35)(H,32,41)(H,42,43)/t8-,9-,10+,11-,12+,13+,15+,16-,17+,18+,19+,20+,21+,22+,25+,26-/m0/s1

> <PUBCHEM_IUPAC_INCHIKEY>
YGLNWHGPOZHVMV-BHZFYAMWSA-N

> <PUBCHEM_XLOGP3_AA>
-10.3

> <PUBCHEM_EXACT_MASS>
684.317765

> <PUBCHEM_MOLECULAR_FORMULA>
C26H48N6O15

> <PUBCHEM_MOLECULAR_WEIGHT>
684.69052

> <PUBCHEM_OPENEYE_CAN_SMILES>
C1C(C(C(C(C1NC(=O)C(CCNC(=O)CCC(C(=O)O)N)O)O)OC2C(C(C(O2)CO)O)O)OC3C(C(C(C(O3)CN)O)O)N)N

> <PUBCHEM_OPENEYE_ISO_SMILES>
C1[C@@H]([C@H]([C@@H]([C@H]([C@@H]1NC(=O)[C@H](CCNC(=O)CC[C@@H](C(=O)O)N)O)O)O[C@H]2[C@@H]([C@@H]([C@H](O2)CO)O)O)O[C@@H]3[C@@H]([C@H]([C@@H]([C@H](O3)CN)O)O)N)N

> <PUBCHEM_CACTVS_TPSA>
378

> <PUBCHEM_MONOISOTOPIC_WEIGHT>
684.317765

> <PUBCHEM_TOTAL_CHARGE>
0

> <PUBCHEM_HEAVY_ATOM_COUNT>
47

> <PUBCHEM_ATOM_DEF_STEREO_COUNT>
16

> <PUBCHEM_ATOM_UDEF_STEREO_COUNT>
0

> <PUBCHEM_BOND_DEF_STEREO_COUNT>
0

> <PUBCHEM_BOND_UDEF_STEREO_COUNT>
0

> <PUBCHEM_ISOTOPIC_ATOM_COUNT>
0

> <PUBCHEM_COMPONENT_COUNT>
1

> <PUBCHEM_CACTVS_TAUTO_COUNT>
4

> <PUBCHEM_COORDINATE_TYPE>
1
5
255

> <PUBCHEM_BONDANNOTATIONS>
22  1  5
28  1  5
40  12  5
26  16  6
24  17  6
30  18  5
23  2  6
29  2  5
46  21  5
25  3  5
34  38  6
36  39  5
31  6  6
32  7  6
33  8  5
35  9  6

$$$$

