5355012
  -OEChem-07051213053D

 53 56  0     1  0  0  0  0  0999 V2000
    5.5600   -1.4914    0.1624 O   0  0  0  0  0  0  0  0  0  0  0  0
   -5.2421    0.8471    0.6337 O   0  0  0  0  0  0  0  0  0  0  0  0
   -5.8109   -1.6039   -0.2539 O   0  0  0  0  0  0  0  0  0  0  0  0
    1.2151    0.8700   -0.2319 C   0  0  2  0  0  0  0  0  0  0  0  0
    0.2741   -0.2476    0.3222 C   0  0  1  0  0  0  0  0  0  0  0  0
    2.6188    0.6610    0.3464 C   0  0  1  0  0  0  0  0  0  0  0  0
    3.2176   -0.7096   -0.0238 C   0  0  2  0  0  0  0  0  0  0  0  0
   -1.2061   -0.0795   -0.1903 C   0  0  2  0  0  0  0  0  0  0  0  0
    0.8681   -1.6672    0.1146 C   0  0  0  0  0  0  0  0  0  0  0  0
   -1.6854    1.3582    0.1933 C   0  0  1  0  0  0  0  0  0  0  0  0
    2.3273   -1.7983    0.5881 C   0  0  0  0  0  0  0  0  0  0  0  0
    0.6736    2.2641    0.1097 C   0  0  0  0  0  0  0  0  0  0  0  0
    3.7278    1.6445   -0.0187 C   0  0  0  0  0  0  0  0  0  0  0  0
    4.6025   -0.5642    0.6356 C   0  0  2  0  0  0  0  0  0  0  0  0
   -0.7652    2.4541   -0.3588 C   0  0  0  0  0  0  0  0  0  0  0  0
    5.0249    0.8802    0.3031 C   0  0  0  0  0  0  0  0  0  0  0  0
   -2.1444   -1.0831    0.5400 C   0  0  0  0  0  0  0  0  0  0  0  0
    3.3693   -0.9589   -1.5461 C   0  0  0  0  0  0  0  0  0  0  0  0
   -1.2995   -0.3325   -1.7167 C   0  0  0  0  0  0  0  0  0  0  0  0
   -3.1414    1.6354   -0.1990 C   0  0  0  0  0  0  0  0  0  0  0  0
   -3.6039   -0.8390    0.2813 C   0  0  0  0  0  0  0  0  0  0  0  0
   -4.0921    0.5687    0.2991 C   0  0  0  0  0  0  0  0  0  0  0  0
   -4.4879   -1.8082    0.0096 C   0  0  0  0  0  0  0  0  0  0  0  0
    1.2677    0.7995   -1.3234 H   0  0  0  0  0  0  0  0  0  0  0  0
    0.2398   -0.1066    1.4146 H   0  0  0  0  0  0  0  0  0  0  0  0
    2.5190    0.7113    1.4440 H   0  0  0  0  0  0  0  0  0  0  0  0
    0.8102   -1.9560   -0.9390 H   0  0  0  0  0  0  0  0  0  0  0  0
    0.2751   -2.4035    0.6681 H   0  0  0  0  0  0  0  0  0  0  0  0
   -1.6413    1.4310    1.2916 H   0  0  0  0  0  0  0  0  0  0  0  0
    2.3450   -1.7275    1.6835 H   0  0  0  0  0  0  0  0  0  0  0  0
    2.7081   -2.7957    0.3379 H   0  0  0  0  0  0  0  0  0  0  0  0
    1.2998    3.0359   -0.3529 H   0  0  0  0  0  0  0  0  0  0  0  0
    0.7223    2.4272    1.1940 H   0  0  0  0  0  0  0  0  0  0  0  0
    3.6596    2.5725    0.5580 H   0  0  0  0  0  0  0  0  0  0  0  0
    3.6949    1.9109   -1.0810 H   0  0  0  0  0  0  0  0  0  0  0  0
    4.5258   -0.6828    1.7239 H   0  0  0  0  0  0  0  0  0  0  0  0
   -1.1168    3.4374   -0.0227 H   0  0  0  0  0  0  0  0  0  0  0  0
   -0.7992    2.4720   -1.4544 H   0  0  0  0  0  0  0  0  0  0  0  0
    5.7215    0.9241   -0.5417 H   0  0  0  0  0  0  0  0  0  0  0  0
    5.5379    1.3278    1.1617 H   0  0  0  0  0  0  0  0  0  0  0  0
   -1.9805   -1.0163    1.6240 H   0  0  0  0  0  0  0  0  0  0  0  0
   -1.8911   -2.1103    0.2506 H   0  0  0  0  0  0  0  0  0  0  0  0
    4.0366   -0.2347   -2.0239 H   0  0  0  0  0  0  0  0  0  0  0  0
    3.7895   -1.9542   -1.7327 H   0  0  0  0  0  0  0  0  0  0  0  0
    2.4167   -0.9117   -2.0801 H   0  0  0  0  0  0  0  0  0  0  0  0
   -0.6367    0.3200   -2.2908 H   0  0  0  0  0  0  0  0  0  0  0  0
   -1.0380   -1.3662   -1.9655 H   0  0  0  0  0  0  0  0  0  0  0  0
   -2.3110   -0.1734   -2.1031 H   0  0  0  0  0  0  0  0  0  0  0  0
   -3.2628    1.7248   -1.2838 H   0  0  0  0  0  0  0  0  0  0  0  0
   -3.4529    2.5897    0.2438 H   0  0  0  0  0  0  0  0  0  0  0  0
    6.4118   -1.2689    0.5754 H   0  0  0  0  0  0  0  0  0  0  0  0
   -4.2255   -2.8567   -0.0342 H   0  0  0  0  0  0  0  0  0  0  0  0
   -6.2078   -2.4772   -0.4177 H   0  0  0  0  0  0  0  0  0  0  0  0
  1 14  1  0  0  0  0
  1 51  1  0  0  0  0
  2 22  2  0  0  0  0
  3 23  1  0  0  0  0
  3 53  1  0  0  0  0
  4  5  1  0  0  0  0
  4  6  1  0  0  0  0
  4 12  1  0  0  0  0
  4 24  1  0  0  0  0
  5  8  1  0  0  0  0
  5  9  1  0  0  0  0
  5 25  1  0  0  0  0
  6  7  1  0  0  0  0
  6 13  1  0  0  0  0
  6 26  1  0  0  0  0
  7 11  1  0  0  0  0
  7 14  1  0  0  0  0
  7 18  1  0  0  0  0
  8 10  1  0  0  0  0
  8 17  1  0  0  0  0
  8 19  1  0  0  0  0
  9 11  1  0  0  0  0
  9 27  1  0  0  0  0
  9 28  1  0  0  0  0
 10 15  1  0  0  0  0
 10 20  1  0  0  0  0
 10 29  1  0  0  0  0
 11 30  1  0  0  0  0
 11 31  1  0  0  0  0
 12 15  1  0  0  0  0
 12 32  1  0  0  0  0
 12 33  1  0  0  0  0
 13 16  1  0  0  0  0
 13 34  1  0  0  0  0
 13 35  1  0  0  0  0
 14 16  1  0  0  0  0
 14 36  1  0  0  0  0
 15 37  1  0  0  0  0
 15 38  1  0  0  0  0
 16 39  1  0  0  0  0
 16 40  1  0  0  0  0
 17 21  1  0  0  0  0
 17 41  1  0  0  0  0
 17 42  1  0  0  0  0
 18 43  1  0  0  0  0
 18 44  1  0  0  0  0
 18 45  1  0  0  0  0
 19 46  1  0  0  0  0
 19 47  1  0  0  0  0
 19 48  1  0  0  0  0
 20 22  1  0  0  0  0
 20 49  1  0  0  0  0
 20 50  1  0  0  0  0
 21 22  1  0  0  0  0
 21 23  2  0  0  0  0
 23 52  1  0  0  0  0
M  END
> <PUBCHEM_COMPOUND_CID>
5355012

> <PUBCHEM_CONFORMER_RMSD>
0.6

> <PUBCHEM_CONFORMER_DIVERSEORDER>
1

> <PUBCHEM_MMFF94_PARTIAL_CHARGES>
12
1 -0.68
14 0.28
17 0.14
2 -0.57
20 0.06
21 -0.12
22 0.49
23 -0.07
3 -0.53
51 0.4
52 0.15
53 0.45

> <PUBCHEM_EFFECTIVE_ROTOR_COUNT>
1.8

> <PUBCHEM_PHARMACOPHORE_FEATURES>
8
1 1 acceptor
1 1 donor
1 2 acceptor
1 3 donor
5 6 7 13 14 16 rings
6 4 5 6 7 9 11 rings
6 4 5 8 10 12 15 rings
6 8 10 17 20 21 22 rings

> <PUBCHEM_HEAVY_ATOM_COUNT>
23

> <PUBCHEM_ATOM_DEF_STEREO_COUNT>
7

> <PUBCHEM_ATOM_UDEF_STEREO_COUNT>
0

> <PUBCHEM_BOND_DEF_STEREO_COUNT>
1

> <PUBCHEM_BOND_UDEF_STEREO_COUNT>
0

> <PUBCHEM_ISOTOPIC_ATOM_COUNT>
0

> <PUBCHEM_COMPONENT_COUNT>
1

> <PUBCHEM_CACTVS_TAUTO_COUNT>
5

> <PUBCHEM_CONFORMER_ID>
0051B60400000001

> <PUBCHEM_MMFF94_ENERGY>
80.5042

> <PUBCHEM_FEATURE_SELFOVERLAP>
40.686

> <PUBCHEM_SHAPE_FINGERPRINT>
10366900 7 17775562057316310106
10616163 171 18338236067219800363
11578080 2 16771277061089193359
11806522 49 18413108329610301825
12011746 2 18342181042442878847
12107183 9 17762055840953177291
12166972 35 17632293493441599292
12236239 1 18040715857290432235
12403259 226 18341057423374946160
12596599 1 18114725105868853906
12596602 18 17603864472937435107
13140716 1 18411136892239894640
13224815 77 18411141341778247932
13544653 18 18272927198670907731
13675066 3 18113341907588025968
13862211 1 18413111649404068786
14223421 5 18267585886931037142
14341114 176 18411975879683206169
14787075 74 18342455902652982568
14790565 3 18124306112960763860
15196674 1 18411138030379730720
15352361 1 18411982438372469697
15536298 74 18407757036519565496
15788980 27 14764630793915197483
15848702 151 18259980474839253743
15927050 60 17398950475033208772
16945 1 18122903398174053772
17349148 13 17704072914947616410
17492 89 18267590289521318922
1813 80 17418092109236960957
19141452 34 18113900455184333215
19591789 44 18410858732919654138
200 152 18334579023153323419
20028762 73 18261115140543057702
20261772 1 18041001708860040078
21033648 29 16878238553119428091
21267235 1 18411693292299604611
21421861 104 17915465110524226674
23402539 116 18411142445679976975
23557571 272 18334572460390683926
23559900 14 18192999446430630450
239999 70 18333725828253550462
2871803 45 18272937115497362074
3004659 81 18131351916836045282
335352 9 18411981390733096861
34797466 226 16588859071125972720
34934 24 18340210786267261201
350125 39 18411417310786765912
4214541 1 18411419544195867305
4325135 7 18343019948287151724
465052 167 18263357002297778767
5104073 3 18409448080949687665
5283173 99 17987533640055597485
6913067 236 17274835622636251638
7495541 125 17821733792865947744
9709674 26 18412537717340675338

> <PUBCHEM_SHAPE_MULTIPOLES>
455.72
11.16
2.31
0.94
1.99
0.56
0.36
-3.3
-1.17
0.35
-0.03
-0.2
-0.17
-0.01

> <PUBCHEM_SHAPE_SELFOVERLAP>
974.73

> <PUBCHEM_SHAPE_VOLUME>
249.6

> <PUBCHEM_COORDINATE_TYPE>
2
5
10

$$$$

