442909
  -OEChem-07051213003D

 62 68  0     1  0  0  0  0  0999 V2000
    0.6256   -1.7561   -2.0032 O   0  0  0  0  0  0  0  0  0  0  0  0
    2.8541    0.2918   -1.4252 O   0  0  0  0  0  0  0  0  0  0  0  0
   -0.9657   -2.0327    2.3874 O   0  0  0  0  0  0  0  0  0  0  0  0
    1.8132   -0.8205    3.1103 O   0  0  0  0  0  0  0  0  0  0  0  0
   -3.7061    0.6952   -2.2680 O   0  0  0  0  0  0  0  0  0  0  0  0
   -5.6438    1.2970   -0.4128 O   0  0  0  0  0  0  0  0  0  0  0  0
   -1.4858   -0.7277   -1.5522 N   0  0  0  0  0  0  0  0  0  0  0  0
    1.6627    1.3649    2.4375 N   0  0  0  0  0  0  0  0  0  0  0  0
    2.9816   -2.1075   -0.9265 C   0  0  1  0  0  0  0  0  0  0  0  0
    2.5046   -1.8095    0.5154 C   0  0  2  0  0  0  0  0  0  0  0  0
    1.1927   -2.6063    0.2418 C   0  0  2  0  0  0  0  0  0  0  0  0
    1.5669   -2.6233   -1.2838 C   0  0  1  0  0  0  0  0  0  0  0  0
    3.6084   -0.9116   -1.6415 C   0  0  0  0  0  0  0  0  0  0  0  0
   -0.1783   -1.8867    0.1665 C   0  0  0  0  0  0  0  0  0  0  0  0
    2.3216   -0.3641    0.8390 C   0  0  0  0  0  0  0  0  0  0  0  0
   -0.4228   -1.4279   -1.1254 C   0  0  0  0  0  0  0  0  0  0  0  0
    2.4625    0.5608   -0.1298 C   0  0  0  0  0  0  0  0  0  0  0  0
    3.6367   -1.1627   -3.1529 C   0  0  0  0  0  0  0  0  0  0  0  0
    5.0535   -0.6988   -1.1589 C   0  0  0  0  0  0  0  0  0  0  0  0
   -1.1483   -1.6008    1.1079 C   0  0  0  0  0  0  0  0  0  0  0  0
    1.9157    0.0274    2.2253 C   0  0  0  0  0  0  0  0  0  0  0  0
    2.1708    1.9774    0.1470 C   0  0  0  0  0  0  0  0  0  0  0  0
   -2.2893   -0.8718    0.7295 C   0  0  0  0  0  0  0  0  0  0  0  0
    1.7732    2.3444    1.4385 C   0  0  0  0  0  0  0  0  0  0  0  0
   -2.4174   -0.4511   -0.6209 C   0  0  0  0  0  0  0  0  0  0  0  0
    2.2734    2.9779   -0.8302 C   0  0  0  0  0  0  0  0  0  0  0  0
   -3.2885   -0.5553    1.6638 C   0  0  0  0  0  0  0  0  0  0  0  0
    1.4842    3.6753    1.7542 C   0  0  0  0  0  0  0  0  0  0  0  0
   -3.5511    0.2732   -0.9755 C   0  0  0  0  0  0  0  0  0  0  0  0
    1.9846    4.3090   -0.5180 C   0  0  0  0  0  0  0  0  0  0  0  0
   -1.4786   -3.3223    2.7150 C   0  0  0  0  0  0  0  0  0  0  0  0
    1.5908    4.6571    0.7721 C   0  0  0  0  0  0  0  0  0  0  0  0
   -4.4115    0.1714    1.2778 C   0  0  0  0  0  0  0  0  0  0  0  0
   -4.5424    0.5855   -0.0420 C   0  0  0  0  0  0  0  0  0  0  0  0
   -3.1754    1.9754   -2.5932 C   0  0  0  0  0  0  0  0  0  0  0  0
   -6.7719    0.5532   -0.8690 C   0  0  0  0  0  0  0  0  0  0  0  0
    3.6859   -2.9550   -0.9447 H   0  0  0  0  0  0  0  0  0  0  0  0
    3.1463   -2.2926    1.2641 H   0  0  0  0  0  0  0  0  0  0  0  0
    1.1741   -3.6031    0.6969 H   0  0  0  0  0  0  0  0  0  0  0  0
    1.5651   -3.6238   -1.7321 H   0  0  0  0  0  0  0  0  0  0  0  0
    4.1674   -2.0887   -3.3988 H   0  0  0  0  0  0  0  0  0  0  0  0
    2.6262   -1.2305   -3.5684 H   0  0  0  0  0  0  0  0  0  0  0  0
    4.1238   -0.3318   -3.6764 H   0  0  0  0  0  0  0  0  0  0  0  0
    5.4931    0.1893   -1.6269 H   0  0  0  0  0  0  0  0  0  0  0  0
    5.1027   -0.5372   -0.0767 H   0  0  0  0  0  0  0  0  0  0  0  0
    5.6843   -1.5642   -1.3898 H   0  0  0  0  0  0  0  0  0  0  0  0
    1.3777    1.6618    3.3665 H   0  0  0  0  0  0  0  0  0  0  0  0
    2.5776    2.7430   -1.8472 H   0  0  0  0  0  0  0  0  0  0  0  0
   -3.2088   -0.8600    2.7046 H   0  0  0  0  0  0  0  0  0  0  0  0
    1.1761    3.9557    2.7580 H   0  0  0  0  0  0  0  0  0  0  0  0
    2.0676    5.0745   -1.2843 H   0  0  0  0  0  0  0  0  0  0  0  0
   -0.9561   -4.0972    2.1456 H   0  0  0  0  0  0  0  0  0  0  0  0
   -2.5543   -3.3787    2.5209 H   0  0  0  0  0  0  0  0  0  0  0  0
   -1.3068   -3.4976    3.7804 H   0  0  0  0  0  0  0  0  0  0  0  0
    1.3671    5.6924    1.0115 H   0  0  0  0  0  0  0  0  0  0  0  0
   -5.1762    0.4117    2.0111 H   0  0  0  0  0  0  0  0  0  0  0  0
   -3.6669    2.7578   -2.0063 H   0  0  0  0  0  0  0  0  0  0  0  0
   -3.3644    2.1655   -3.6533 H   0  0  0  0  0  0  0  0  0  0  0  0
   -2.0946    2.0033   -2.4220 H   0  0  0  0  0  0  0  0  0  0  0  0
   -6.5137   -0.0351   -1.7552 H   0  0  0  0  0  0  0  0  0  0  0  0
   -7.5624    1.2597   -1.1366 H   0  0  0  0  0  0  0  0  0  0  0  0
   -7.1435   -0.1042   -0.0765 H   0  0  0  0  0  0  0  0  0  0  0  0
  1 12  1  0  0  0  0
  1 16  1  0  0  0  0
  2 13  1  0  0  0  0
  2 17  1  0  0  0  0
  3 20  1  0  0  0  0
  3 31  1  0  0  0  0
  4 21  2  0  0  0  0
  5 29  1  0  0  0  0
  5 35  1  0  0  0  0
  6 34  1  0  0  0  0
  6 36  1  0  0  0  0
  7 16  2  0  0  0  0
  7 25  1  0  0  0  0
  8 21  1  0  0  0  0
  8 24  1  0  0  0  0
  8 47  1  0  0  0  0
  9 10  1  0  0  0  0
  9 12  1  0  0  0  0
  9 13  1  0  0  0  0
  9 37  1  0  0  0  0
 10 11  1  0  0  0  0
 10 15  1  0  0  0  0
 10 38  1  0  0  0  0
 11 12  1  0  0  0  0
 11 14  1  0  0  0  0
 11 39  1  0  0  0  0
 12 40  1  0  0  0  0
 13 18  1  0  0  0  0
 13 19  1  0  0  0  0
 14 16  1  0  0  0  0
 14 20  2  0  0  0  0
 15 17  2  0  0  0  0
 15 21  1  0  0  0  0
 17 22  1  0  0  0  0
 18 41  1  0  0  0  0
 18 42  1  0  0  0  0
 18 43  1  0  0  0  0
 19 44  1  0  0  0  0
 19 45  1  0  0  0  0
 19 46  1  0  0  0  0
 20 23  1  0  0  0  0
 22 24  1  0  0  0  0
 22 26  2  0  0  0  0
 23 25  2  0  0  0  0
 23 27  1  0  0  0  0
 24 28  2  0  0  0  0
 25 29  1  0  0  0  0
 26 30  1  0  0  0  0
 26 48  1  0  0  0  0
 27 33  2  0  0  0  0
 27 49  1  0  0  0  0
 28 32  1  0  0  0  0
 28 50  1  0  0  0  0
 29 34  2  0  0  0  0
 30 32  2  0  0  0  0
 30 51  1  0  0  0  0
 31 52  1  0  0  0  0
 31 53  1  0  0  0  0
 31 54  1  0  0  0  0
 32 55  1  0  0  0  0
 33 34  1  0  0  0  0
 33 56  1  0  0  0  0
 35 57  1  0  0  0  0
 35 58  1  0  0  0  0
 35 59  1  0  0  0  0
 36 60  1  0  0  0  0
 36 61  1  0  0  0  0
 36 62  1  0  0  0  0
M  END
> <PUBCHEM_COMPOUND_CID>
442909

> <PUBCHEM_CONFORMER_RMSD>
0.8

> <PUBCHEM_CONFORMER_DIVERSEORDER>
1
2

> <PUBCHEM_MMFF94_PARTIAL_CHARGES>
39
1 -0.34
10 0.12
11 0.11
12 0.26
13 0.28
14 -0.11
15 -0.1
16 0.39
17 0.05
2 -0.36
20 0.08
21 0.62
22 0.03
24 0.12
25 0.31
26 -0.15
27 -0.15
28 -0.15
29 0.08
3 -0.36
30 -0.15
31 0.28
32 -0.15
33 -0.15
34 0.08
35 0.28
36 0.28
4 -0.57
47 0.37
48 0.15
49 0.15
5 -0.36
50 0.15
51 0.15
55 0.15
56 0.15
6 -0.36
7 -0.62
8 -0.55

> <PUBCHEM_EFFECTIVE_ROTOR_COUNT>
3.6

> <PUBCHEM_PHARMACOPHORE_FEATURES>
13
1 2 acceptor
1 3 acceptor
1 4 acceptor
1 5 acceptor
1 6 acceptor
1 8 donor
3 13 18 19 hydrophobe
6 2 9 10 13 15 17 rings
6 22 24 26 28 30 32 rings
6 23 25 27 29 33 34 rings
6 7 14 16 20 23 25 rings
6 8 15 17 21 22 24 rings
7 1 9 10 11 12 14 16 rings

> <PUBCHEM_HEAVY_ATOM_COUNT>
36

> <PUBCHEM_ATOM_DEF_STEREO_COUNT>
4

> <PUBCHEM_ATOM_UDEF_STEREO_COUNT>
0

> <PUBCHEM_BOND_DEF_STEREO_COUNT>
0

> <PUBCHEM_BOND_UDEF_STEREO_COUNT>
0

> <PUBCHEM_ISOTOPIC_ATOM_COUNT>
0

> <PUBCHEM_COMPONENT_COUNT>
1

> <PUBCHEM_CACTVS_TAUTO_COUNT>
2

> <PUBCHEM_CONFORMER_ID>
0006C21D00000001

> <PUBCHEM_MMFF94_ENERGY>
155.576

> <PUBCHEM_FEATURE_SELFOVERLAP>
66.196

> <PUBCHEM_SHAPE_FINGERPRINT>
10165383 225 17108714607231753896
10483366 6 18334847291713046788
11007060 377 11309784794188034254
11115154 58 17604701309082816057
11445158 3 17464776187626245598
11456790 92 17986388009153334681
11477941 20 15308159686856376324
11578080 2 17834073547957316659
12156800 1 17473284526919614866
12166972 35 16877940576957486863
12596602 18 14476661002346063117
12788726 201 18195517328395743654
13911987 19 18119215477809388806
14068700 675 15068629335230439950
14713325 29 17042594320603077580
151778 21 18265045834682897633
15210252 30 18339630256986784868
17921350 177 18272104759478397552
19315092 285 12965729599657586393
21033648 29 17989199335641283345
21133410 62 17118043366932491653
21860390 5 18335424586054778845
23536364 44 18051675927020030054
23559900 14 18410290311805801031
238 59 17896032157173031130
25019877 29 15156112703939011958
25222932 49 13613649945218119857
340366 18 17821730537412801335
354706 35 17834431975795173541
5081480 168 18114181972931726180
6086070 43 18410576175812275019
7808743 9 17345735405134233534

> <PUBCHEM_SHAPE_MULTIPOLES>
695.69
9.1
4.46
2.91
13.35
4.91
-0.39
1.8
4.42
-3.9
-1.2
-0.39
-0.76
2.73

> <PUBCHEM_SHAPE_SELFOVERLAP>
1577.888

> <PUBCHEM_SHAPE_VOLUME>
362.2

> <PUBCHEM_COORDINATE_TYPE>
2
5
10

$$$$

