5460105
  -OEChem-07051213022D

 42 46  0     1  0  0  0  0  0999 V2000
    8.4646    2.6764    0.0000 O   0  0  0  0  0  0  0  0  0  0  0  0
    6.5117    0.1260    0.0000 N   0  0  3  0  0  0  0  0  0  0  0  0
    4.2558   -0.3082    0.0000 N   0  0  0  0  0  0  0  0  0  0  0  0
    6.5117    0.9942    0.0000 C   0  0  2  0  0  0  0  0  0  0  0  0
    6.5117   -1.6106    0.0000 C   0  0  1  0  0  0  0  0  0  0  0  0
    5.7597   -0.3082    0.0000 C   0  0  1  0  0  0  0  0  0  0  0  0
    7.2636    1.4284    0.0000 C   0  0  3  0  0  0  0  0  0  0  0  0
    5.7597   -1.1764    0.0000 C   0  0  0  0  0  0  0  0  0  0  0  0
    7.2636   -0.3082    0.0000 C   0  0  0  0  0  0  0  0  0  0  0  0
    5.7597    1.4284    0.0000 C   0  0  0  0  0  0  0  0  0  0  0  0
    7.2636   -1.1764    0.0000 C   0  0  0  0  0  0  0  0  0  0  0  0
    5.0078    0.1260    0.0000 C   0  0  0  0  0  0  0  0  0  0  0  0
    5.0078    0.9942    0.0000 C   0  0  0  0  0  0  0  0  0  0  0  0
    8.2244    1.7057    0.0000 C   0  0  0  0  0  0  0  0  0  0  0  0
    3.5039    0.9942    0.0000 C   0  0  0  0  0  0  0  0  0  0  0  0
    8.1297   -1.6764    0.0000 C   0  0  0  0  0  0  0  0  0  0  0  0
    3.5039    0.1260    0.0000 C   0  0  0  0  0  0  0  0  0  0  0  0
    2.7520    1.4284    0.0000 C   0  0  0  0  0  0  0  0  0  0  0  0
    8.1297   -2.6764    0.0000 C   0  0  0  0  0  0  0  0  0  0  0  0
    2.7520   -0.3082    0.0000 C   0  0  0  0  0  0  0  0  0  0  0  0
    2.0000    0.9942    0.0000 C   0  0  0  0  0  0  0  0  0  0  0  0
    2.0000    0.1260    0.0000 C   0  0  0  0  0  0  0  0  0  0  0  0
    6.5117    1.8442    0.0000 H   0  0  0  0  0  0  0  0  0  0  0  0
    6.5117   -2.4606    0.0000 H   0  0  0  0  0  0  0  0  0  0  0  0
    5.0902   -0.8318    0.0000 H   0  0  0  0  0  0  0  0  0  0  0  0
    7.0209    1.9989    0.0000 H   0  0  0  0  0  0  0  0  0  0  0  0
    5.1492   -1.0688    0.0000 H   0  0  0  0  0  0  0  0  0  0  0  0
    5.5477   -1.7591    0.0000 H   0  0  0  0  0  0  0  0  0  0  0  0
    6.1583    1.9033    0.0000 H   0  0  0  0  0  0  0  0  0  0  0  0
    5.3612    1.9033    0.0000 H   0  0  0  0  0  0  0  0  0  0  0  0
    7.8742   -0.4158    0.0000 H   0  0  0  0  0  0  0  0  0  0  0  0
    7.4757    0.2744    0.0000 H   0  0  0  0  0  0  0  0  0  0  0  0
    8.6712    1.2758    0.0000 H   0  0  0  0  0  0  0  0  0  0  0  0
    4.2558   -0.9282    0.0000 H   0  0  0  0  0  0  0  0  0  0  0  0
    8.6666   -1.3664    0.0000 H   0  0  0  0  0  0  0  0  0  0  0  0
    2.7520    2.0484    0.0000 H   0  0  0  0  0  0  0  0  0  0  0  0
    7.5097   -2.6764    0.0000 H   0  0  0  0  0  0  0  0  0  0  0  0
    8.1297   -3.2964    0.0000 H   0  0  0  0  0  0  0  0  0  0  0  0
    8.7497   -2.6764    0.0000 H   0  0  0  0  0  0  0  0  0  0  0  0
    2.7520   -0.9282    0.0000 H   0  0  0  0  0  0  0  0  0  0  0  0
    1.4631    1.3042    0.0000 H   0  0  0  0  0  0  0  0  0  0  0  0
    1.4631   -0.1840    0.0000 H   0  0  0  0  0  0  0  0  0  0  0  0
  1 14  2  0  0  0  0
  2  4  1  0  0  0  0
  2  6  1  0  0  0  0
  2  9  1  0  0  0  0
  3 12  1  0  0  0  0
  3 17  1  0  0  0  0
  3 34  1  0  0  0  0
  4  7  1  0  0  0  0
  4 10  1  0  0  0  0
  4 23  1  6  0  0  0
  5  7  1  0  0  0  0
  5  8  1  0  0  0  0
  5 11  1  0  0  0  0
  5 24  1  1  0  0  0
  6  8  1  0  0  0  0
  6 12  1  0  0  0  0
  6 25  1  6  0  0  0
  7 14  1  0  0  0  0
  7 26  1  0  0  0  0
  8 27  1  0  0  0  0
  8 28  1  0  0  0  0
  9 11  1  0  0  0  0
  9 31  1  0  0  0  0
  9 32  1  0  0  0  0
 10 13  1  0  0  0  0
 10 29  1  0  0  0  0
 10 30  1  0  0  0  0
 11 16  2  0  0  0  0
 12 13  2  0  0  0  0
 13 15  1  0  0  0  0
 14 33  1  0  0  0  0
 15 17  1  0  0  0  0
 15 18  2  0  0  0  0
 16 19  1  0  0  0  0
 16 35  1  0  0  0  0
 17 20  2  0  0  0  0
 18 21  1  0  0  0  0
 18 36  1  0  0  0  0
 19 37  1  0  0  0  0
 19 38  1  0  0  0  0
 19 39  1  0  0  0  0
 20 22  1  0  0  0  0
 20 40  1  0  0  0  0
 21 22  2  0  0  0  0
 21 41  1  0  0  0  0
 22 42  1  0  0  0  0
M  END
> <PUBCHEM_COMPOUND_CID>
5460105

> <PUBCHEM_COMPOUND_CANONICALIZED>
1

> <PUBCHEM_CACTVS_COMPLEXITY>
516

> <PUBCHEM_CACTVS_HBOND_ACCEPTOR>
2

> <PUBCHEM_CACTVS_HBOND_DONOR>
1

> <PUBCHEM_CACTVS_ROTATABLE_BOND>
1

> <PUBCHEM_CACTVS_SUBSKEYS>
AAADceB7IAAAAAAAAAAAAAAAAAAAAWAAAAA8WLFiAAAYAFgB8AAAHgAQAAAADSjhngYywPPJkACoAyxyxACCgCAhAiAImSE4ZJgIYPrAkZGUIAhgkADIyAcYicCegAAAAAACAAAAAAAAAAQAAAAAAAAAAA==

> <PUBCHEM_IUPAC_INCHI>
InChI=1S/C19H20N2O/c1-2-11-9-21-17-8-14-12-5-3-4-6-16(12)20-19(14)18(21)7-13(11)15(17)10-22/h2-6,10,13,15,17-18,20H,7-9H2,1H3/b11-2-/t13-,15?,17-,18-/m0/s1

> <PUBCHEM_IUPAC_INCHIKEY>
MHASSCPGKAMILD-GJKVQYCKSA-N

> <PUBCHEM_XLOGP3_AA>
2

> <PUBCHEM_EXACT_MASS>
292.157563

> <PUBCHEM_MOLECULAR_FORMULA>
C19H20N2O

> <PUBCHEM_MOLECULAR_WEIGHT>
292.3749

> <PUBCHEM_OPENEYE_CAN_SMILES>
CC=C1CN2C3CC1C(C2CC4=C3NC5=CC=CC=C45)C=O

> <PUBCHEM_OPENEYE_ISO_SMILES>
C/C=C\1/CN2[C@H]3C[C@@H]1C([C@@H]2CC4=C3NC5=CC=CC=C45)C=O

> <PUBCHEM_CACTVS_TPSA>
36.1

> <PUBCHEM_MONOISOTOPIC_WEIGHT>
292.157563

> <PUBCHEM_TOTAL_CHARGE>
0

> <PUBCHEM_HEAVY_ATOM_COUNT>
22

> <PUBCHEM_ATOM_DEF_STEREO_COUNT>
3

> <PUBCHEM_ATOM_UDEF_STEREO_COUNT>
1

> <PUBCHEM_BOND_DEF_STEREO_COUNT>
1

> <PUBCHEM_BOND_UDEF_STEREO_COUNT>
0

> <PUBCHEM_ISOTOPIC_ATOM_COUNT>
0

> <PUBCHEM_COMPONENT_COUNT>
1

> <PUBCHEM_CACTVS_TAUTO_COUNT>
1

> <PUBCHEM_COORDINATE_TYPE>
1
5
255

> <PUBCHEM_BONDANNOTATIONS>
12  13  8
13  15  8
15  17  8
15  18  8
17  20  8
18  21  8
20  22  8
21  22  8
3  12  8
3  17  8
4  23  6
5  24  5
6  25  6
7  14  3

$$$$

