130420
  -OEChem-07051212493D

 40 41  0     1  0  0  0  0  0999 V2000
    1.2942    2.8702   -0.0649 P   0  0  1  0  0  0  0  0  0  0  0  0
    0.3775    1.6158    0.3677 O   0  0  0  0  0  0  0  0  0  0  0  0
    1.5066    2.6917   -1.6595 O   0  0  0  0  0  0  0  0  0  0  0  0
    0.7947    4.2198    0.3612 O   0  0  0  0  0  0  0  0  0  0  0  0
    2.3482   -0.0766    1.8785 O   0  0  0  0  0  0  0  0  0  0  0  0
   -2.8802   -1.8770    1.3671 O   0  0  0  0  0  0  0  0  0  0  0  0
   -4.8775   -1.2692    0.4682 O   0  0  0  0  0  0  0  0  0  0  0  0
    3.2563    1.1495    0.1242 N   0  0  0  0  0  0  0  0  0  0  0  0
    2.8988    2.4643    0.6107 C   0  0  0  0  0  0  0  0  0  0  0  0
    3.3686   -1.2624    0.0589 C   0  0  0  0  0  0  0  0  0  0  0  0
    2.1718   -2.1065   -0.2940 C   0  0  0  0  0  0  0  0  0  0  0  0
    2.9470   -0.0156    0.8064 C   0  0  0  0  0  0  0  0  0  0  0  0
   -0.9493    1.4597    0.0797 C   0  0  0  0  0  0  0  0  0  0  0  0
    1.7381   -3.0806    0.5937 C   0  0  0  0  0  0  0  0  0  0  0  0
    1.5211   -1.8975   -1.5015 C   0  0  0  0  0  0  0  0  0  0  0  0
   -1.6225    0.3219    0.5155 C   0  0  0  0  0  0  0  0  0  0  0  0
   -1.6189    2.4391   -0.6483 C   0  0  0  0  0  0  0  0  0  0  0  0
   -2.9764    0.1621    0.2206 C   0  0  0  0  0  0  0  0  0  0  0  0
    0.6300   -3.8622    0.2671 C   0  0  0  0  0  0  0  0  0  0  0  0
    0.4130   -2.6793   -1.8281 C   0  0  0  0  0  0  0  0  0  0  0  0
   -2.9729    2.2792   -0.9432 C   0  0  0  0  0  0  0  0  0  0  0  0
   -3.6517    1.1407   -0.5088 C   0  0  0  0  0  0  0  0  0  0  0  0
   -0.0327   -3.6616   -0.9438 C   0  0  0  0  0  0  0  0  0  0  0  0
   -3.6838   -1.0255    0.6727 C   0  0  0  0  0  0  0  0  0  0  0  0
    3.6590    3.1715    0.2689 H   0  0  0  0  0  0  0  0  0  0  0  0
    2.8701    2.4631    1.7040 H   0  0  0  0  0  0  0  0  0  0  0  0
    4.0600   -1.8225    0.7006 H   0  0  0  0  0  0  0  0  0  0  0  0
    3.9345   -1.0176   -0.8477 H   0  0  0  0  0  0  0  0  0  0  0  0
    3.7227    1.0962   -0.7761 H   0  0  0  0  0  0  0  0  0  0  0  0
    2.2457   -3.2439    1.5401 H   0  0  0  0  0  0  0  0  0  0  0  0
    1.8583   -1.1323   -2.1950 H   0  0  0  0  0  0  0  0  0  0  0  0
   -1.0617   -0.4187    1.0794 H   0  0  0  0  0  0  0  0  0  0  0  0
   -1.1328    3.3361   -1.0128 H   0  0  0  0  0  0  0  0  0  0  0  0
    0.2821   -4.6261    0.9562 H   0  0  0  0  0  0  0  0  0  0  0  0
   -0.1043   -2.5216   -2.7700 H   0  0  0  0  0  0  0  0  0  0  0  0
   -3.4986    3.0402   -1.5126 H   0  0  0  0  0  0  0  0  0  0  0  0
   -4.7063    1.0349   -0.7495 H   0  0  0  0  0  0  0  0  0  0  0  0
    0.7717    2.9080   -2.2715 H   0  0  0  0  0  0  0  0  0  0  0  0
   -0.8966   -4.2690   -1.1972 H   0  0  0  0  0  0  0  0  0  0  0  0
   -3.3657   -2.6754    1.6658 H   0  0  0  0  0  0  0  0  0  0  0  0
  1  2  1  0  0  0  0
  1  3  1  0  0  0  0
  1  4  2  0  0  0  0
  1  9  1  0  0  0  0
  2 13  1  0  0  0  0
  3 38  1  0  0  0  0
  5 12  2  0  0  0  0
  6 24  1  0  0  0  0
  6 40  1  0  0  0  0
  7 24  2  0  0  0  0
  8  9  1  0  0  0  0
  8 12  1  0  0  0  0
  8 29  1  0  0  0  0
  9 25  1  0  0  0  0
  9 26  1  0  0  0  0
 10 11  1  0  0  0  0
 10 12  1  0  0  0  0
 10 27  1  0  0  0  0
 10 28  1  0  0  0  0
 11 14  2  0  0  0  0
 11 15  1  0  0  0  0
 13 16  1  0  0  0  0
 13 17  2  0  0  0  0
 14 19  1  0  0  0  0
 14 30  1  0  0  0  0
 15 20  2  0  0  0  0
 15 31  1  0  0  0  0
 16 18  2  0  0  0  0
 16 32  1  0  0  0  0
 17 21  1  0  0  0  0
 17 33  1  0  0  0  0
 18 22  1  0  0  0  0
 18 24  1  0  0  0  0
 19 23  2  0  0  0  0
 19 34  1  0  0  0  0
 20 23  1  0  0  0  0
 20 35  1  0  0  0  0
 21 22  2  0  0  0  0
 21 36  1  0  0  0  0
 22 37  1  0  0  0  0
 23 39  1  0  0  0  0
M  END
> <PUBCHEM_COMPOUND_CID>
130420

> <PUBCHEM_CONFORMER_RMSD>
1

> <PUBCHEM_CONFORMER_DIVERSEORDER>
1
95
55
420
502
605
91
40
538
219
398
266
253
74
476
372
383
399
194
35
473
142
180
175
19
329
260
482
73
433
408
549
290
108
471
63
438
44
475
333
12
132
468
255
9
229
148
516
294
94
244
265
208
59
485
301
414
393
48
125
52
206
11
377
77
494
456
169
380
277
453
496
30
43
604
163
69
302
51
4
522
640
461
392
326
483
84
648
2
37
465
8
26
315
425
418
41
552
24
113
168
88
344
450
209
150
27
170
424
232
161
23
534
412
363
641
218
96
109
303
13
151
446
58
3
513
111
252
119
33
236
602
632
510
292
337
405
320
455
356
409
269
28
76
362
601
201
568
311
159
521
18
5
220
92
22
80
97
42
563
299
469
282
442
620
137
32
514
156
544
610
243
29
60
15
593
586
307
67
403
217
36
443
239
407
177
102
21
634
139
46
86
588
10
230
66
374
472
439
417
291
179
511
340
486
474
16
609
385
616
200
17
448
237
123
520
636
149
154
6
370
554
223
158
47
585
103
31
7

> <PUBCHEM_MMFF94_PARTIAL_CHARGES>
36
1 1.24
10 0.2
11 -0.14
12 0.57
13 0.08
14 -0.15
15 -0.15
16 -0.15
17 -0.15
18 0.09
19 -0.15
2 -0.35
20 -0.15
21 -0.15
22 -0.15
23 -0.15
24 0.63
29 0.37
3 -0.77
30 0.15
31 0.15
32 0.15
33 0.15
34 0.15
35 0.15
36 0.15
37 0.15
38 0.5
39 0.15
4 -0.7
40 0.5
5 -0.57
6 -0.65
7 -0.57
8 -0.73
9 0.3

> <PUBCHEM_EFFECTIVE_ROTOR_COUNT>
8

> <PUBCHEM_PHARMACOPHORE_FEATURES>
9
1 3 acceptor
1 4 acceptor
1 5 acceptor
1 6 acceptor
1 7 acceptor
1 8 donor
3 6 7 24 anion
6 11 14 15 19 20 23 rings
6 13 16 17 18 21 22 rings

> <PUBCHEM_HEAVY_ATOM_COUNT>
24

> <PUBCHEM_ATOM_DEF_STEREO_COUNT>
0

> <PUBCHEM_ATOM_UDEF_STEREO_COUNT>
0

> <PUBCHEM_BOND_DEF_STEREO_COUNT>
0

> <PUBCHEM_BOND_UDEF_STEREO_COUNT>
0

> <PUBCHEM_ISOTOPIC_ATOM_COUNT>
0

> <PUBCHEM_COMPONENT_COUNT>
1

> <PUBCHEM_CACTVS_TAUTO_COUNT>
2

> <PUBCHEM_CONFORMER_ID>
0001FD7400000001

> <PUBCHEM_MMFF94_ENERGY>
38.7225

> <PUBCHEM_FEATURE_SELFOVERLAP>
45.737

> <PUBCHEM_SHAPE_FINGERPRINT>
10366900 7 17831023785715864238
104564 63 17038661371341019702
10871710 139 17185591321947590766
1100329 8 18048879598447185792
12156800 1 14251735841012897270
12553582 1 17759512666120855474
12633257 1 17835523000049893010
12788726 201 17256516947057791365
13122387 1 17400639818967517039
13140716 1 18337112388148978480
13402501 40 18411135878680405651
1361 2 18122351173207644891
13642711 20 16759473928741349005
14251705 54 18411134770531071585
14251757 5 16533110915289231566
14866123 147 18122075204568716952
15635459 17 18193276518881090459
17093844 170 17834969937406417024
17138139 8 16957070015221645911
19930381 70 18411142476066352035
21197605 99 17761200021882068915
21315764 371 16156566395326044711
23184049 29 17401769021830810846
23559900 14 18123476234888853031
238 59 18190481491429786015
3052486 1 17331108404407580204
35225 105 17317889049089468671
463206 1 18116166489026234735
5309563 4 18336548317177242805
6287921 2 18040980852689163751
6438718 38 17391915855937256254
6443956 14 18410006680323225057
81228 2 17398385815714328681
9709674 26 18048600618645981687

> <PUBCHEM_SHAPE_MULTIPOLES>
457.56
6.46
5.49
1.33
4.37
1.01
0.24
-2.22
-0.72
-1.72
0.32
-0.35
-0.38
1.56

> <PUBCHEM_SHAPE_SELFOVERLAP>
954.061

> <PUBCHEM_SHAPE_VOLUME>
258.3

> <PUBCHEM_COORDINATE_TYPE>
2
5
10

$$$$

