46174014
  -OEChem-07051213112D

 47 48  0     1  0  0  0  0  0999 V2000
    4.2690    0.5000    0.0000 O   0  0  0  0  0  0  0  0  0  0  0  0
    6.0010    0.5000    0.0000 O   0  0  0  0  0  0  0  0  0  0  0  0
    6.0010   -0.5000    0.0000 O   0  0  0  0  0  0  0  0  0  0  0  0
    2.5369   -2.5000    0.0000 O   0  0  0  0  0  0  0  0  0  0  0  0
    6.0010   -2.5000    0.0000 O   0  0  0  0  0  0  0  0  0  0  0  0
    4.2690   -3.5000    0.0000 O   0  0  0  0  0  0  0  0  0  0  0  0
    6.0010    3.5000    0.0000 O   0  0  0  0  0  0  0  0  0  0  0  0
    7.7331    2.5000    0.0000 O   0  0  0  0  0  0  0  0  0  0  0  0
    8.5991    1.0000    0.0000 O   0  0  0  0  0  0  0  0  0  0  0  0
    2.5369   -0.5000    0.0000 N   0  0  0  0  0  0  0  0  0  0  0  0
    4.2690    2.5000    0.0000 N   0  0  0  0  0  0  0  0  0  0  0  0
    4.2690   -0.5000    0.0000 C   0  0  2  0  0  0  0  0  0  0  0  0
    3.4030   -1.0000    0.0000 C   0  0  2  0  0  0  0  0  0  0  0  0
    5.1350   -1.0000    0.0000 C   0  0  1  0  0  0  0  0  0  0  0  0
    3.4030   -2.0000    0.0000 C   0  0  1  0  0  0  0  0  0  0  0  0
    5.1350   -2.0000    0.0000 C   0  0  2  0  0  0  0  0  0  0  0  0
    4.2690   -2.5000    0.0000 C   0  0  2  0  0  0  0  0  0  0  0  0
    5.1350    1.0000    0.0000 C   0  0  1  0  0  0  0  0  0  0  0  0
    5.1350    2.0000    0.0000 C   0  0  1  0  0  0  0  0  0  0  0  0
    6.0010    2.5000    0.0000 C   0  0  2  0  0  0  0  0  0  0  0  0
    6.8671    2.0000    0.0000 C   0  0  1  0  0  0  0  0  0  0  0  0
    6.8671    1.0000    0.0000 C   0  0  1  0  0  0  0  0  0  0  0  0
    7.7331    0.5000    0.0000 C   0  0  0  0  0  0  0  0  0  0  0  0
    4.8059   -0.1900    0.0000 H   0  0  0  0  0  0  0  0  0  0  0  0
    3.4030   -0.3800    0.0000 H   0  0  0  0  0  0  0  0  0  0  0  0
    5.1350   -0.3800    0.0000 H   0  0  0  0  0  0  0  0  0  0  0  0
    3.4030   -2.6200    0.0000 H   0  0  0  0  0  0  0  0  0  0  0  0
    5.1350   -2.6200    0.0000 H   0  0  0  0  0  0  0  0  0  0  0  0
    4.8059   -2.8100    0.0000 H   0  0  0  0  0  0  0  0  0  0  0  0
    5.1350    0.3800    0.0000 H   0  0  0  0  0  0  0  0  0  0  0  0
    5.1350    2.6200    0.0000 H   0  0  0  0  0  0  0  0  0  0  0  0
    6.5380    2.8100    0.0000 H   0  0  0  0  0  0  0  0  0  0  0  0
    7.4040    1.6900    0.0000 H   0  0  0  0  0  0  0  0  0  0  0  0
    6.8671    0.3800    0.0000 H   0  0  0  0  0  0  0  0  0  0  0  0
    2.0000   -0.8100    0.0000 H   0  0  0  0  0  0  0  0  0  0  0  0
    2.5369    0.1200    0.0000 H   0  0  0  0  0  0  0  0  0  0  0  0
    6.5380   -0.8100    0.0000 H   0  0  0  0  0  0  0  0  0  0  0  0
    2.5369   -3.1200    0.0000 H   0  0  0  0  0  0  0  0  0  0  0  0
    7.3346    0.0251    0.0000 H   0  0  0  0  0  0  0  0  0  0  0  0
    8.1316    0.0251    0.0000 H   0  0  0  0  0  0  0  0  0  0  0  0
    6.0010   -3.1200    0.0000 H   0  0  0  0  0  0  0  0  0  0  0  0
    4.8059   -3.8100    0.0000 H   0  0  0  0  0  0  0  0  0  0  0  0
    4.2690    3.1200    0.0000 H   0  0  0  0  0  0  0  0  0  0  0  0
    3.7320    2.1900    0.0000 H   0  0  0  0  0  0  0  0  0  0  0  0
    6.5380    3.8100    0.0000 H   0  0  0  0  0  0  0  0  0  0  0  0
    7.7331    3.1200    0.0000 H   0  0  0  0  0  0  0  0  0  0  0  0
    9.1360    0.6900    0.0000 H   0  0  0  0  0  0  0  0  0  0  0  0
 12  1  1  1  0  0  0
 18  1  1  6  0  0  0
  2 18  1  0  0  0  0
  2 22  1  0  0  0  0
 14  3  1  6  0  0  0
  3 37  1  0  0  0  0
 15  4  1  1  0  0  0
  4 38  1  0  0  0  0
 16  5  1  1  0  0  0
  5 41  1  0  0  0  0
 17  6  1  6  0  0  0
  6 42  1  0  0  0  0
 20  7  1  1  0  0  0
  7 45  1  0  0  0  0
 21  8  1  6  0  0  0
  8 46  1  0  0  0  0
  9 23  1  0  0  0  0
  9 47  1  0  0  0  0
 13 10  1  6  0  0  0
 10 35  1  0  0  0  0
 10 36  1  0  0  0  0
 19 11  1  6  0  0  0
 11 43  1  0  0  0  0
 11 44  1  0  0  0  0
 12 13  1  0  0  0  0
 12 14  1  0  0  0  0
 12 24  1  0  0  0  0
 13 15  1  0  0  0  0
 13 25  1  0  0  0  0
 14 16  1  0  0  0  0
 14 26  1  0  0  0  0
 15 17  1  0  0  0  0
 15 27  1  0  0  0  0
 16 17  1  0  0  0  0
 16 28  1  0  0  0  0
 17 29  1  0  0  0  0
 18 19  1  0  0  0  0
 18 30  1  0  0  0  0
 19 20  1  0  0  0  0
 19 31  1  0  0  0  0
 20 21  1  0  0  0  0
 20 32  1  0  0  0  0
 21 22  1  0  0  0  0
 21 33  1  0  0  0  0
 22 23  1  1  0  0  0
 22 34  1  0  0  0  0
 23 39  1  0  0  0  0
 23 40  1  0  0  0  0
M  END
> <PUBCHEM_COMPOUND_CID>
46174014

> <PUBCHEM_COMPOUND_CANONICALIZED>
1

> <PUBCHEM_CACTVS_COMPLEXITY>
403

> <PUBCHEM_CACTVS_HBOND_ACCEPTOR>
11

> <PUBCHEM_CACTVS_HBOND_DONOR>
9

> <PUBCHEM_CACTVS_ROTATABLE_BOND>
3

> <PUBCHEM_CACTVS_SUBSKEYS>
AAADceBzPAAAAAAAAAAAAAAAAAAAAAAAAAA0QAAAAAAAAAAAAAAAHgAQCAAACDzxgAcACABABgAAAAAAAAAAAAAAAAAAAIAAAAATEAIAgAAjQAAHEAAHAAHwcA0AAAAAAAAAAAACgAAUAACgAAAAAAAAAA==

> <PUBCHEM_IUPAC_OPENEYE_NAME>
(1R,2S,3R,4S,5S,6R)-5-amino-6-[(2S,3R,4R,5S,6R)-3-amino-4,5-dihydroxy-6-(hydroxymethyl)tetrahydropyran-2-yl]oxy-cyclohexane-1,2,3,4-tetrol

> <PUBCHEM_IUPAC_CAS_NAME>
(1R,2S,3R,4S,5S,6R)-5-amino-6-[[(2S,3R,4R,5S,6R)-3-amino-4,5-dihydroxy-6-(hydroxymethyl)-2-oxanyl]oxy]cyclohexane-1,2,3,4-tetrol

> <PUBCHEM_IUPAC_NAME>
(1R,2S,3R,4S,5S,6R)-5-amino-6-[(2S,3R,4R,5S,6R)-3-amino-4,5-dihydroxy-6-(hydroxymethyl)oxan-2-yl]oxycyclohexane-1,2,3,4-tetrol

> <PUBCHEM_IUPAC_SYSTEMATIC_NAME>
(1R,2S,3R,4S,5S,6R)-5-azanyl-6-[(2S,3R,4R,5S,6R)-3-azanyl-6-(hydroxymethyl)-4,5-bis(oxidanyl)oxan-2-yl]oxy-cyclohexane-1,2,3,4-tetrol

> <PUBCHEM_IUPAC_TRADITIONAL_NAME>
(1R,2S,3R,4S,5S,6R)-5-amino-6-[(2S,3R,4R,5S,6R)-3-amino-4,5-dihydroxy-6-methylol-tetrahydropyran-2-yl]oxy-cyclohexane-1,2,3,4-tetrol

> <PUBCHEM_IUPAC_INCHI>
InChI=1S/C12H24N2O9/c13-3-6(17)8(19)9(20)10(21)11(3)23-12-4(14)7(18)5(16)2(1-15)22-12/h2-12,15-21H,1,13-14H2/t2-,3+,4-,5-,6+,7-,8-,9+,10-,11-,12-/m1/s1

> <PUBCHEM_IUPAC_INCHIKEY>
RQEREARTKFHKFJ-DOPHCPJZSA-N

> <PUBCHEM_XLOGP3_AA>
-5.8

> <PUBCHEM_EXACT_MASS>
340.14818

> <PUBCHEM_MOLECULAR_FORMULA>
C12H24N2O9

> <PUBCHEM_MOLECULAR_WEIGHT>
340.32696

> <PUBCHEM_OPENEYE_CAN_SMILES>
C(C1C(C(C(C(O1)OC2C(C(C(C(C2O)O)O)O)N)N)O)O)O

> <PUBCHEM_OPENEYE_ISO_SMILES>
C([C@@H]1[C@H]([C@@H]([C@H]([C@H](O1)O[C@@H]2[C@H]([C@@H]([C@H]([C@@H]([C@H]2O)O)O)O)N)N)O)O)O

> <PUBCHEM_CACTVS_TPSA>
212

> <PUBCHEM_MONOISOTOPIC_WEIGHT>
340.14818

> <PUBCHEM_TOTAL_CHARGE>
0

> <PUBCHEM_HEAVY_ATOM_COUNT>
23

> <PUBCHEM_ATOM_DEF_STEREO_COUNT>
11

> <PUBCHEM_ATOM_UDEF_STEREO_COUNT>
0

> <PUBCHEM_BOND_DEF_STEREO_COUNT>
0

> <PUBCHEM_BOND_UDEF_STEREO_COUNT>
0

> <PUBCHEM_ISOTOPIC_ATOM_COUNT>
0

> <PUBCHEM_COMPONENT_COUNT>
1

> <PUBCHEM_CACTVS_TAUTO_COUNT>
1

> <PUBCHEM_COORDINATE_TYPE>
1
5
255

> <PUBCHEM_BONDANNOTATIONS>
12  1  5
18  1  6
13  10  6
19  11  6
22  23  5
14  3  6
15  4  5
16  5  5
17  6  6
20  7  5
21  8  6

$$$$

