441446
  -OEChem-07051212542D

 52 52  0     1  0  0  0  0  0999 V2000
    8.8712    5.7094    0.0000 O   0  0  0  0  0  0  0  0  0  0  0  0
    7.1391    5.7094    0.0000 O   0  0  0  0  0  0  0  0  0  0  0  0
    2.8090   -4.7906    0.0000 C   0  0  1  0  0  0  0  0  0  0  0  0
    2.8090   -3.7906    0.0000 C   0  0  0  0  0  0  0  0  0  0  0  0
    2.0000   -5.3784    0.0000 C   0  0  0  0  0  0  0  0  0  0  0  0
    3.6750   -3.2906    0.0000 C   0  0  0  0  0  0  0  0  0  0  0  0
    3.6750   -2.2906    0.0000 C   0  0  0  0  0  0  0  0  0  0  0  0
    4.5411   -1.7906    0.0000 C   0  0  0  0  0  0  0  0  0  0  0  0
    2.3090   -6.3294    0.0000 C   0  0  0  0  0  0  0  0  0  0  0  0
    4.5411   -0.7906    0.0000 C   0  0  0  0  0  0  0  0  0  0  0  0
    3.6180   -5.3784    0.0000 C   0  0  0  0  0  0  0  0  0  0  0  0
    5.4071   -0.2906    0.0000 C   0  0  0  0  0  0  0  0  0  0  0  0
    5.4071    0.7094    0.0000 C   0  0  0  0  0  0  0  0  0  0  0  0
    3.3090   -6.3294    0.0000 C   0  0  0  0  0  0  0  0  0  0  0  0
    6.2731    1.2094    0.0000 C   0  0  0  0  0  0  0  0  0  0  0  0
    6.2731    2.2094    0.0000 C   0  0  0  0  0  0  0  0  0  0  0  0
    7.1391    2.7094    0.0000 C   0  0  0  0  0  0  0  0  0  0  0  0
    7.1391    3.7094    0.0000 C   0  0  0  0  0  0  0  0  0  0  0  0
    8.0052    4.2094    0.0000 C   0  0  0  0  0  0  0  0  0  0  0  0
    8.0052    5.2094    0.0000 C   0  0  0  0  0  0  0  0  0  0  0  0
    3.3614   -4.5091    0.0000 H   0  0  0  0  0  0  0  0  0  0  0  0
    2.5970   -3.2080    0.0000 H   0  0  0  0  0  0  0  0  0  0  0  0
    2.1984   -3.8982    0.0000 H   0  0  0  0  0  0  0  0  0  0  0  0
    1.6900   -4.8414    0.0000 H   0  0  0  0  0  0  0  0  0  0  0  0
    1.4336   -5.6305    0.0000 H   0  0  0  0  0  0  0  0  0  0  0  0
    3.8871   -3.8732    0.0000 H   0  0  0  0  0  0  0  0  0  0  0  0
    4.2856   -3.1829    0.0000 H   0  0  0  0  0  0  0  0  0  0  0  0
    3.4630   -1.7080    0.0000 H   0  0  0  0  0  0  0  0  0  0  0  0
    3.0645   -2.3982    0.0000 H   0  0  0  0  0  0  0  0  0  0  0  0
    4.7531   -2.3732    0.0000 H   0  0  0  0  0  0  0  0  0  0  0  0
    5.1516   -1.6829    0.0000 H   0  0  0  0  0  0  0  0  0  0  0  0
    1.7026   -6.4583    0.0000 H   0  0  0  0  0  0  0  0  0  0  0  0
    2.3738   -6.9460    0.0000 H   0  0  0  0  0  0  0  0  0  0  0  0
    4.3290   -0.2080    0.0000 H   0  0  0  0  0  0  0  0  0  0  0  0
    3.9305   -0.8982    0.0000 H   0  0  0  0  0  0  0  0  0  0  0  0
    4.2077   -5.1868    0.0000 H   0  0  0  0  0  0  0  0  0  0  0  0
    5.6192   -0.8732    0.0000 H   0  0  0  0  0  0  0  0  0  0  0  0
    6.0177   -0.1829    0.0000 H   0  0  0  0  0  0  0  0  0  0  0  0
    5.1950    1.2920    0.0000 H   0  0  0  0  0  0  0  0  0  0  0  0
    4.7965    0.6018    0.0000 H   0  0  0  0  0  0  0  0  0  0  0  0
    3.6734   -6.8310    0.0000 H   0  0  0  0  0  0  0  0  0  0  0  0
    6.4852    0.6268    0.0000 H   0  0  0  0  0  0  0  0  0  0  0  0
    6.8837    1.3171    0.0000 H   0  0  0  0  0  0  0  0  0  0  0  0
    6.0611    2.7920    0.0000 H   0  0  0  0  0  0  0  0  0  0  0  0
    5.6625    2.1018    0.0000 H   0  0  0  0  0  0  0  0  0  0  0  0
    7.3512    2.1268    0.0000 H   0  0  0  0  0  0  0  0  0  0  0  0
    7.7497    2.8171    0.0000 H   0  0  0  0  0  0  0  0  0  0  0  0
    6.9271    4.2920    0.0000 H   0  0  0  0  0  0  0  0  0  0  0  0
    6.5286    3.6018    0.0000 H   0  0  0  0  0  0  0  0  0  0  0  0
    8.2172    3.6268    0.0000 H   0  0  0  0  0  0  0  0  0  0  0  0
    8.6158    4.3171    0.0000 H   0  0  0  0  0  0  0  0  0  0  0  0
    8.8712    6.3294    0.0000 H   0  0  0  0  0  0  0  0  0  0  0  0
  1 20  1  0  0  0  0
  1 52  1  0  0  0  0
  2 20  2  0  0  0  0
  3  4  1  6  0  0  0
  3  5  1  0  0  0  0
  3 11  1  0  0  0  0
  3 21  1  0  0  0  0
  4  6  1  0  0  0  0
  4 22  1  0  0  0  0
  4 23  1  0  0  0  0
  5  9  1  0  0  0  0
  5 24  1  0  0  0  0
  5 25  1  0  0  0  0
  6  7  1  0  0  0  0
  6 26  1  0  0  0  0
  6 27  1  0  0  0  0
  7  8  1  0  0  0  0
  7 28  1  0  0  0  0
  7 29  1  0  0  0  0
  8 10  1  0  0  0  0
  8 30  1  0  0  0  0
  8 31  1  0  0  0  0
  9 14  1  0  0  0  0
  9 32  1  0  0  0  0
  9 33  1  0  0  0  0
 10 12  1  0  0  0  0
 10 34  1  0  0  0  0
 10 35  1  0  0  0  0
 11 14  2  0  0  0  0
 11 36  1  0  0  0  0
 12 13  1  0  0  0  0
 12 37  1  0  0  0  0
 12 38  1  0  0  0  0
 13 15  1  0  0  0  0
 13 39  1  0  0  0  0
 13 40  1  0  0  0  0
 14 41  1  0  0  0  0
 15 16  1  0  0  0  0
 15 42  1  0  0  0  0
 15 43  1  0  0  0  0
 16 17  1  0  0  0  0
 16 44  1  0  0  0  0
 16 45  1  0  0  0  0
 17 18  1  0  0  0  0
 17 46  1  0  0  0  0
 17 47  1  0  0  0  0
 18 19  1  0  0  0  0
 18 48  1  0  0  0  0
 18 49  1  0  0  0  0
 19 20  1  0  0  0  0
 19 50  1  0  0  0  0
 19 51  1  0  0  0  0
M  END
> <PUBCHEM_COMPOUND_CID>
441446

> <PUBCHEM_COMPOUND_CANONICALIZED>
1

> <PUBCHEM_CACTVS_COMPLEXITY>
271

> <PUBCHEM_CACTVS_HBOND_ACCEPTOR>
2

> <PUBCHEM_CACTVS_HBOND_DONOR>
1

> <PUBCHEM_CACTVS_ROTATABLE_BOND>
13

> <PUBCHEM_CACTVS_SUBSKEYS>
AAADcfB4MAAAAAAAAAAAAAAAAAAAAQAAAAAAAAAAAAAAAAAAAAAAGgAACAAADQCAgAAACAAAAgCIACDSCAAAAAAgAAAICAEAAAgAABIAAQAAQAAEgAAIAAOIyOCOAAAAAAAAAAAAAAAAAAAAAAAAAAAAAA==

> <PUBCHEM_IUPAC_OPENEYE_NAME>
13-[(1S)-cyclopent-2-en-1-yl]tridecanoic acid

> <PUBCHEM_IUPAC_CAS_NAME>
13-[(1S)-1-cyclopent-2-enyl]tridecanoic acid

> <PUBCHEM_IUPAC_NAME>
13-[(1S)-cyclopent-2-en-1-yl]tridecanoic acid

> <PUBCHEM_IUPAC_SYSTEMATIC_NAME>
13-[(1S)-cyclopent-2-en-1-yl]tridecanoic acid

> <PUBCHEM_IUPAC_TRADITIONAL_NAME>
13-[(1S)-cyclopent-2-en-1-yl]tridecanoic acid

> <PUBCHEM_IUPAC_INCHI>
InChI=1S/C18H32O2/c19-18(20)16-10-8-6-4-2-1-3-5-7-9-13-17-14-11-12-15-17/h11,14,17H,1-10,12-13,15-16H2,(H,19,20)/t17-/m1/s1

> <PUBCHEM_IUPAC_INCHIKEY>
XMVQWNRDPAAMJB-QGZVFWFLSA-N

> <PUBCHEM_XLOGP3_AA>
7

> <PUBCHEM_EXACT_MASS>
280.24023

> <PUBCHEM_MOLECULAR_FORMULA>
C18H32O2

> <PUBCHEM_MOLECULAR_WEIGHT>
280.44548

> <PUBCHEM_OPENEYE_CAN_SMILES>
C1CC(C=C1)CCCCCCCCCCCCC(=O)O

> <PUBCHEM_OPENEYE_ISO_SMILES>
C1C[C@@H](C=C1)CCCCCCCCCCCCC(=O)O

> <PUBCHEM_CACTVS_TPSA>
37.3

> <PUBCHEM_MONOISOTOPIC_WEIGHT>
280.24023

> <PUBCHEM_TOTAL_CHARGE>
0

> <PUBCHEM_HEAVY_ATOM_COUNT>
20

> <PUBCHEM_ATOM_DEF_STEREO_COUNT>
1

> <PUBCHEM_ATOM_UDEF_STEREO_COUNT>
0

> <PUBCHEM_BOND_DEF_STEREO_COUNT>
0

> <PUBCHEM_BOND_UDEF_STEREO_COUNT>
0

> <PUBCHEM_ISOTOPIC_ATOM_COUNT>
0

> <PUBCHEM_COMPONENT_COUNT>
1

> <PUBCHEM_CACTVS_TAUTO_COUNT>
1

> <PUBCHEM_COORDINATE_TYPE>
1
5
255

> <PUBCHEM_BONDANNOTATIONS>
3  4  6

$$$$

