9272
  -OEChem-07051213132D

 28 28  0     0  0  0  0  0  0999 V2000
    5.0981    1.4151    0.0000 S   0  0  0  0  0  0  0  0  0  0  0  0
    4.5981    0.5490    0.0000 P   0  0  0  0  0  0  0  0  0  0  0  0
    3.7320    1.0490    0.0000 O   0  0  0  0  0  0  0  0  0  0  0  0
    4.0981   -0.3170    0.0000 O   0  0  0  0  0  0  0  0  0  0  0  0
    5.4641    0.0490    0.0000 O   0  0  0  0  0  0  0  0  0  0  0  0
    7.1962    0.0490    0.0000 N   0  0  0  0  0  0  0  0  0  0  0  0
    7.1962    2.0490    0.0000 N   0  0  0  0  0  0  0  0  0  0  0  0
    2.8660    0.5490    0.0000 C   0  0  0  0  0  0  0  0  0  0  0  0
    4.5981   -1.1830    0.0000 C   0  0  0  0  0  0  0  0  0  0  0  0
    2.0000    1.0490    0.0000 C   0  0  0  0  0  0  0  0  0  0  0  0
    4.0981   -2.0490    0.0000 C   0  0  0  0  0  0  0  0  0  0  0  0
    6.3301    0.5490    0.0000 C   0  0  0  0  0  0  0  0  0  0  0  0
    6.3301    1.5490    0.0000 C   0  0  0  0  0  0  0  0  0  0  0  0
    8.0622    0.5490    0.0000 C   0  0  0  0  0  0  0  0  0  0  0  0
    8.0622    1.5490    0.0000 C   0  0  0  0  0  0  0  0  0  0  0  0
    2.4675    0.0741    0.0000 H   0  0  0  0  0  0  0  0  0  0  0  0
    3.2646    0.0741    0.0000 H   0  0  0  0  0  0  0  0  0  0  0  0
    5.0730   -1.5815    0.0000 H   0  0  0  0  0  0  0  0  0  0  0  0
    5.0730   -0.7845    0.0000 H   0  0  0  0  0  0  0  0  0  0  0  0
    2.3100    1.5860    0.0000 H   0  0  0  0  0  0  0  0  0  0  0  0
    1.4631    1.3590    0.0000 H   0  0  0  0  0  0  0  0  0  0  0  0
    1.6900    0.5121    0.0000 H   0  0  0  0  0  0  0  0  0  0  0  0
    3.5611   -1.7390    0.0000 H   0  0  0  0  0  0  0  0  0  0  0  0
    3.7881   -2.5860    0.0000 H   0  0  0  0  0  0  0  0  0  0  0  0
    4.6350   -2.3590    0.0000 H   0  0  0  0  0  0  0  0  0  0  0  0
    5.7932    1.8590    0.0000 H   0  0  0  0  0  0  0  0  0  0  0  0
    8.5991    0.2390    0.0000 H   0  0  0  0  0  0  0  0  0  0  0  0
    8.5991    1.8590    0.0000 H   0  0  0  0  0  0  0  0  0  0  0  0
  1  2  2  0  0  0  0
  2  3  1  0  0  0  0
  2  4  1  0  0  0  0
  2  5  1  0  0  0  0
  3  8  1  0  0  0  0
  4  9  1  0  0  0  0
  5 12  1  0  0  0  0
  6 12  2  0  0  0  0
  6 14  1  0  0  0  0
  7 13  2  0  0  0  0
  7 15  1  0  0  0  0
  8 10  1  0  0  0  0
  8 16  1  0  0  0  0
  8 17  1  0  0  0  0
  9 11  1  0  0  0  0
  9 18  1  0  0  0  0
  9 19  1  0  0  0  0
 10 20  1  0  0  0  0
 10 21  1  0  0  0  0
 10 22  1  0  0  0  0
 11 23  1  0  0  0  0
 11 24  1  0  0  0  0
 11 25  1  0  0  0  0
 12 13  1  0  0  0  0
 13 26  1  0  0  0  0
 14 15  2  0  0  0  0
 14 27  1  0  0  0  0
 15 28  1  0  0  0  0
M  END
> <PUBCHEM_COMPOUND_CID>
9272

> <PUBCHEM_COMPOUND_CANONICALIZED>
1

> <PUBCHEM_CACTVS_COMPLEXITY>
220

> <PUBCHEM_CACTVS_HBOND_ACCEPTOR>
6

> <PUBCHEM_CACTVS_HBOND_DONOR>
0

> <PUBCHEM_CACTVS_ROTATABLE_BOND>
6

> <PUBCHEM_CACTVS_SUBSKEYS>
AAADccBzMAJAAAAAAAAAAAAAAAAAAAAAAAAsAAAAAAAAAAABgAAAHgAAACAAAADhggYuhBIIERCgABAnRAQAgCQRUiAIQAAbMAACQEAAAAAQAAAAAACQAAAAAAAAAAAAAAAAAAAAAAAAAAAAAAAAAAAAAA==

> <PUBCHEM_IUPAC_OPENEYE_NAME>
diethoxy-pyrazin-2-yloxy-thioxo-$l^{5}-phosphane

> <PUBCHEM_IUPAC_CAS_NAME>
diethoxy-(2-pyrazinyloxy)-sulfanylidenephosphorane

> <PUBCHEM_IUPAC_NAME>
diethoxy-pyrazin-2-yloxy-sulfanylidene-$l^{5}-phosphane

> <PUBCHEM_IUPAC_SYSTEMATIC_NAME>
diethoxy-pyrazin-2-yloxy-sulfanylidene-$l^{5}-phosphane

> <PUBCHEM_IUPAC_TRADITIONAL_NAME>
diethoxy-pyrazin-2-yloxy-thioxo-phosphorane

> <PUBCHEM_IUPAC_INCHI>
InChI=1S/C8H13N2O3PS/c1-3-11-14(15,12-4-2)13-8-7-9-5-6-10-8/h5-7H,3-4H2,1-2H3

> <PUBCHEM_IUPAC_INCHIKEY>
IRVDMKJLOCGUBJ-UHFFFAOYSA-N

> <PUBCHEM_XLOGP3_AA>
2

> <PUBCHEM_EXACT_MASS>
248.03845

> <PUBCHEM_MOLECULAR_FORMULA>
C8H13N2O3PS

> <PUBCHEM_MOLECULAR_WEIGHT>
248.239182

> <PUBCHEM_OPENEYE_CAN_SMILES>
CCOP(=S)(OCC)OC1=NC=CN=C1

> <PUBCHEM_OPENEYE_ISO_SMILES>
CCOP(=S)(OCC)OC1=NC=CN=C1

> <PUBCHEM_CACTVS_TPSA>
85.6

> <PUBCHEM_MONOISOTOPIC_WEIGHT>
248.03845

> <PUBCHEM_TOTAL_CHARGE>
0

> <PUBCHEM_HEAVY_ATOM_COUNT>
15

> <PUBCHEM_ATOM_DEF_STEREO_COUNT>
0

> <PUBCHEM_ATOM_UDEF_STEREO_COUNT>
0

> <PUBCHEM_BOND_DEF_STEREO_COUNT>
0

> <PUBCHEM_BOND_UDEF_STEREO_COUNT>
0

> <PUBCHEM_ISOTOPIC_ATOM_COUNT>
0

> <PUBCHEM_COMPONENT_COUNT>
1

> <PUBCHEM_CACTVS_TAUTO_COUNT>
1

> <PUBCHEM_COORDINATE_TYPE>
1
5
255

> <PUBCHEM_BONDANNOTATIONS>
12  13  8
14  15  8
6  12  8
6  14  8
7  13  8
7  15  8

$$$$

