17516
  -OEChem-07051213133D

 32 32  0     0  0  0  0  0  0999 V2000
    1.6702    0.0488   -0.9838 O   0  0  0  0  0  0  0  0  0  0  0  0
    2.2825   -0.2039    1.2450 O   0  0  0  0  0  0  0  0  0  0  0  0
    3.8200   -0.5543   -0.4565 N   0  0  0  0  0  0  0  0  0  0  0  0
   -2.8600   -1.3630    0.1847 C   0  0  0  0  0  0  0  0  0  0  0  0
   -1.8343   -0.2946    0.0095 C   0  0  0  0  0  0  0  0  0  0  0  0
   -2.1628    1.0365    0.2663 C   0  0  0  0  0  0  0  0  0  0  0  0
   -2.4672   -2.3842    1.2691 C   0  0  0  0  0  0  0  0  0  0  0  0
   -3.1778   -2.0961   -1.1324 C   0  0  0  0  0  0  0  0  0  0  0  0
   -0.5463   -0.6267   -0.4106 C   0  0  0  0  0  0  0  0  0  0  0  0
   -1.2034    2.0357    0.1030 C   0  0  0  0  0  0  0  0  0  0  0  0
    0.4133    0.3726   -0.5739 C   0  0  0  0  0  0  0  0  0  0  0  0
    0.0846    1.7038   -0.3171 C   0  0  0  0  0  0  0  0  0  0  0  0
   -1.5545    3.4589    0.3777 C   0  0  0  0  0  0  0  0  0  0  0  0
    2.5778   -0.2384    0.0541 C   0  0  0  0  0  0  0  0  0  0  0  0
    4.9580   -0.8952    0.3652 C   0  0  0  0  0  0  0  0  0  0  0  0
   -3.7997   -0.9019    0.5180 H   0  0  0  0  0  0  0  0  0  0  0  0
   -3.1650    1.3003    0.5959 H   0  0  0  0  0  0  0  0  0  0  0  0
   -1.5762   -2.9566    0.9895 H   0  0  0  0  0  0  0  0  0  0  0  0
   -3.2818   -3.0969    1.4380 H   0  0  0  0  0  0  0  0  0  0  0  0
   -2.2582   -1.8811    2.2197 H   0  0  0  0  0  0  0  0  0  0  0  0
   -3.4800   -1.3856   -1.9099 H   0  0  0  0  0  0  0  0  0  0  0  0
   -3.9996   -2.8058   -0.9879 H   0  0  0  0  0  0  0  0  0  0  0  0
   -2.3151   -2.6570   -1.5076 H   0  0  0  0  0  0  0  0  0  0  0  0
   -0.2752   -1.6593   -0.6152 H   0  0  0  0  0  0  0  0  0  0  0  0
    0.8371    2.4782   -0.4448 H   0  0  0  0  0  0  0  0  0  0  0  0
   -1.3833    3.6907    1.4336 H   0  0  0  0  0  0  0  0  0  0  0  0
   -0.9525    4.1407   -0.2326 H   0  0  0  0  0  0  0  0  0  0  0  0
   -2.6047    3.6589    0.1392 H   0  0  0  0  0  0  0  0  0  0  0  0
    3.9407   -0.5471   -1.4646 H   0  0  0  0  0  0  0  0  0  0  0  0
    5.2922   -1.8973    0.0858 H   0  0  0  0  0  0  0  0  0  0  0  0
    4.7045   -0.8714    1.4276 H   0  0  0  0  0  0  0  0  0  0  0  0
    5.7554   -0.1776    0.1577 H   0  0  0  0  0  0  0  0  0  0  0  0
  1 11  1  0  0  0  0
  1 14  1  0  0  0  0
  2 14  2  0  0  0  0
  3 14  1  0  0  0  0
  3 15  1  0  0  0  0
  3 29  1  0  0  0  0
  4  5  1  0  0  0  0
  4  7  1  0  0  0  0
  4  8  1  0  0  0  0
  4 16  1  0  0  0  0
  5  6  1  0  0  0  0
  5  9  2  0  0  0  0
  6 10  2  0  0  0  0
  6 17  1  0  0  0  0
  7 18  1  0  0  0  0
  7 19  1  0  0  0  0
  7 20  1  0  0  0  0
  8 21  1  0  0  0  0
  8 22  1  0  0  0  0
  8 23  1  0  0  0  0
  9 11  1  0  0  0  0
  9 24  1  0  0  0  0
 10 12  1  0  0  0  0
 10 13  1  0  0  0  0
 11 12  2  0  0  0  0
 12 25  1  0  0  0  0
 13 26  1  0  0  0  0
 13 27  1  0  0  0  0
 13 28  1  0  0  0  0
 15 30  1  0  0  0  0
 15 31  1  0  0  0  0
 15 32  1  0  0  0  0
M  END
> <PUBCHEM_COMPOUND_CID>
17516

> <PUBCHEM_CONFORMER_RMSD>
0.6

> <PUBCHEM_CONFORMER_DIVERSEORDER>
1
22
27
53
38
47
20
26
23
60
62
46
61
24
45
19
59
48
7
41
21
8
52
51
58
54
12
13
57
50
55
14
39
29
10
30
63
11
32
16
40
17
15
9
18
56
36
31
4
43
3
35
42
37
49
34
33
44
5
6
28
2
25

> <PUBCHEM_MMFF94_PARTIAL_CHARGES>
17
1 -0.23
10 -0.14
11 0.08
12 -0.15
13 0.14
14 0.78
15 0.3
17 0.15
2 -0.57
24 0.15
25 0.15
29 0.37
3 -0.73
4 0.14
5 -0.14
6 -0.15
9 -0.15

> <PUBCHEM_EFFECTIVE_ROTOR_COUNT>
4

> <PUBCHEM_PHARMACOPHORE_FEATURES>
4
1 2 acceptor
1 3 donor
3 4 7 8 hydrophobe
6 5 6 9 10 11 12 rings

> <PUBCHEM_HEAVY_ATOM_COUNT>
15

> <PUBCHEM_ATOM_DEF_STEREO_COUNT>
0

> <PUBCHEM_ATOM_UDEF_STEREO_COUNT>
0

> <PUBCHEM_BOND_DEF_STEREO_COUNT>
0

> <PUBCHEM_BOND_UDEF_STEREO_COUNT>
0

> <PUBCHEM_ISOTOPIC_ATOM_COUNT>
0

> <PUBCHEM_COMPONENT_COUNT>
1

> <PUBCHEM_CACTVS_TAUTO_COUNT>
2

> <PUBCHEM_CONFORMER_ID>
0000446C00000001

> <PUBCHEM_MMFF94_ENERGY>
36.7662

> <PUBCHEM_FEATURE_SELFOVERLAP>
20.297

> <PUBCHEM_SHAPE_FINGERPRINT>
11357001 24 18340197579005429849
12363563 72 18338514114976606967
12500047 106 18121504810835812128
12532896 13 17904195176595950509
12553582 1 18192696874226590951
13140716 1 18337380561685806953
15653759 3 18113902684504286498
16945 1 18337099181124510645
17841504 4 18051967018465653331
19422 9 18201432615011491814
20361792 2 18263642858003695519
20510252 161 18045216295864616761
20524608 308 18191302878160486933
20645477 70 17763191241808466583
20671657 53 17489590013365142990
20711985 344 18411145765900622105
20871998 184 18260543450388243359
21524375 3 17686908623557790525
21650355 55 18410292505974894265
22112679 90 18264184960159604897
2306618 200 17894909676060072043
232386 152 18341603789810427695
23402539 116 18261401091566027181
23419403 2 17834438602734051453
23526113 38 17911253727908617691
23557571 272 18188196724032705796
23559900 14 18411990152503212768
257057 1 18263930930097587013
2748010 2 18263083219501928717
3071541 236 18269558410960448941
3086196 2 18409733971442921476
633830 44 11743027748217562067
6338986 31 18263088708469912239
7364860 26 17760646967152612009
81228 2 18337662113982413157

> <PUBCHEM_SHAPE_MULTIPOLES>
291.97
6.55
2.98
1.01
9.37
2.14
0.08
-4.65
0.46
-3.38
0.49
-0.24
-0.43
-0.27

> <PUBCHEM_SHAPE_SELFOVERLAP>
593.95

> <PUBCHEM_SHAPE_VOLUME>
169.9

> <PUBCHEM_COORDINATE_TYPE>
2
5
10

$$$$

