6121984
  -OEChem-07051212473D

 39 39  0     1  0  0  0  0  0999 V2000
    1.1695    0.1379    0.2311 O   0  0  0  0  0  0  0  0  0  0  0  0
    2.2903    2.8144    0.4004 O   0  0  0  0  0  0  0  0  0  0  0  0
    3.5606   -1.5886   -1.6646 O   0  0  0  0  0  0  0  0  0  0  0  0
    3.8903    2.4209   -1.1688 O   0  0  0  0  0  0  0  0  0  0  0  0
    6.3908   -1.4833    0.9394 O   0  0  0  0  0  0  0  0  0  0  0  0
    2.2052    0.0986   -2.3459 O   0  0  0  0  0  0  0  0  0  0  0  0
    4.6424   -1.1617    2.3549 O   0  0  0  0  0  0  0  0  0  0  0  0
    0.3977   -1.7742   -0.8111 O   0  0  0  0  0  0  0  0  0  0  0  0
   -6.9837   -1.6085    0.1073 O   0  0  0  0  0  0  0  0  0  0  0  0
   -7.4367    1.0868    0.6091 O   0  0  0  0  0  0  0  0  0  0  0  0
    3.4886    0.7793    0.5939 C   0  0  1  0  0  0  0  0  0  0  0  0
    2.5133   -0.2765    0.0373 C   0  0  2  0  0  0  0  0  0  0  0  0
    4.9752    0.3951    0.5387 C   0  0  0  0  0  0  0  0  0  0  0  0
    3.2796    2.0778   -0.1666 C   0  0  0  0  0  0  0  0  0  0  0  0
    2.7311   -0.5372   -1.4417 C   0  0  0  0  0  0  0  0  0  0  0  0
    5.2963   -0.8148    1.3800 C   0  0  0  0  0  0  0  0  0  0  0  0
    0.2098   -0.7096   -0.2440 C   0  0  0  0  0  0  0  0  0  0  0  0
   -1.1137   -0.1127    0.0462 C   0  0  0  0  0  0  0  0  0  0  0  0
   -3.5974   -0.2825   -0.0734 C   0  0  0  0  0  0  0  0  0  0  0  0
   -2.2269   -0.7664   -0.3154 C   0  0  0  0  0  0  0  0  0  0  0  0
   -4.6492   -1.1837   -0.0978 C   0  0  0  0  0  0  0  0  0  0  0  0
   -3.8073    1.0644    0.1739 C   0  0  0  0  0  0  0  0  0  0  0  0
   -5.9467   -0.7257    0.1317 C   0  0  0  0  0  0  0  0  0  0  0  0
   -5.1047    1.5225    0.4032 C   0  0  0  0  0  0  0  0  0  0  0  0
   -6.1745    0.6275    0.3822 C   0  0  0  0  0  0  0  0  0  0  0  0
    3.2272    0.9802    1.6424 H   0  0  0  0  0  0  0  0  0  0  0  0
    2.6416   -1.2194    0.5831 H   0  0  0  0  0  0  0  0  0  0  0  0
    5.2786    0.1950   -0.4953 H   0  0  0  0  0  0  0  0  0  0  0  0
    5.5945    1.2230    0.9043 H   0  0  0  0  0  0  0  0  0  0  0  0
    2.1327    3.6512   -0.0865 H   0  0  0  0  0  0  0  0  0  0  0  0
   -1.1195    0.8361    0.5697 H   0  0  0  0  0  0  0  0  0  0  0  0
   -2.1555   -1.7297   -0.8155 H   0  0  0  0  0  0  0  0  0  0  0  0
    3.6861   -1.7587   -2.6225 H   0  0  0  0  0  0  0  0  0  0  0  0
    6.5882   -2.2683    1.4937 H   0  0  0  0  0  0  0  0  0  0  0  0
   -4.4734   -2.2392   -0.2916 H   0  0  0  0  0  0  0  0  0  0  0  0
   -3.0089    1.7996    0.1786 H   0  0  0  0  0  0  0  0  0  0  0  0
   -5.2767    2.5786    0.5934 H   0  0  0  0  0  0  0  0  0  0  0  0
   -6.6387   -2.4981   -0.0808 H   0  0  0  0  0  0  0  0  0  0  0  0
   -8.0502    0.3333    0.5575 H   0  0  0  0  0  0  0  0  0  0  0  0
  1 12  1  0  0  0  0
  1 17  1  0  0  0  0
  2 14  1  0  0  0  0
  2 30  1  0  0  0  0
  3 15  1  0  0  0  0
  3 33  1  0  0  0  0
  4 14  2  0  0  0  0
  5 16  1  0  0  0  0
  5 34  1  0  0  0  0
  6 15  2  0  0  0  0
  7 16  2  0  0  0  0
  8 17  2  0  0  0  0
  9 23  1  0  0  0  0
  9 38  1  0  0  0  0
 10 25  1  0  0  0  0
 10 39  1  0  0  0  0
 11 12  1  0  0  0  0
 11 13  1  0  0  0  0
 11 14  1  0  0  0  0
 11 26  1  0  0  0  0
 12 15  1  0  0  0  0
 12 27  1  0  0  0  0
 13 16  1  0  0  0  0
 13 28  1  0  0  0  0
 13 29  1  0  0  0  0
 17 18  1  0  0  0  0
 18 20  2  0  0  0  0
 18 31  1  0  0  0  0
 19 20  1  0  0  0  0
 19 21  2  0  0  0  0
 19 22  1  0  0  0  0
 20 32  1  0  0  0  0
 21 23  1  0  0  0  0
 21 35  1  0  0  0  0
 22 24  2  0  0  0  0
 22 36  1  0  0  0  0
 23 25  2  0  0  0  0
 24 25  1  0  0  0  0
 24 37  1  0  0  0  0
M  END
> <PUBCHEM_COMPOUND_CID>
6121984

> <PUBCHEM_CONFORMER_RMSD>
1

> <PUBCHEM_CONFORMER_DIVERSEORDER>
1
43
42
16
24
41
28
3
49
47
11
36
9
22
45
19
32
23
44
31
15
48
52
30
21
50
46
6
27
26
20
5
4
25
2
40
29
51
33
10
13
18
38
14
12
37
17
7
34
35
8
39

> <PUBCHEM_MMFF94_PARTIAL_CHARGES>
35
1 -0.43
10 -0.53
11 0.06
12 0.34
13 0.06
14 0.66
15 0.66
16 0.66
17 0.71
18 -0.14
19 0.03
2 -0.65
20 -0.18
21 -0.15
22 -0.15
23 0.08
24 -0.15
25 0.08
3 -0.65
30 0.5
31 0.15
32 0.15
33 0.5
34 0.5
35 0.15
36 0.15
37 0.15
38 0.45
39 0.45
4 -0.57
5 -0.65
6 -0.57
7 -0.57
8 -0.57
9 -0.53

> <PUBCHEM_EFFECTIVE_ROTOR_COUNT>
9

> <PUBCHEM_PHARMACOPHORE_FEATURES>
13
1 10 donor
1 2 acceptor
1 3 acceptor
1 4 acceptor
1 5 acceptor
1 6 acceptor
1 7 acceptor
1 8 acceptor
1 9 donor
3 2 4 14 anion
3 3 6 15 anion
3 5 7 16 anion
6 19 21 22 23 24 25 rings

> <PUBCHEM_HEAVY_ATOM_COUNT>
25

> <PUBCHEM_ATOM_DEF_STEREO_COUNT>
0

> <PUBCHEM_ATOM_UDEF_STEREO_COUNT>
0

> <PUBCHEM_BOND_DEF_STEREO_COUNT>
1

> <PUBCHEM_BOND_UDEF_STEREO_COUNT>
0

> <PUBCHEM_ISOTOPIC_ATOM_COUNT>
0

> <PUBCHEM_COMPONENT_COUNT>
1

> <PUBCHEM_CACTVS_TAUTO_COUNT>
10

> <PUBCHEM_CONFORMER_ID>
005D6A0000000001

> <PUBCHEM_MMFF94_ENERGY>
55.3657

> <PUBCHEM_FEATURE_SELFOVERLAP>
66.147

> <PUBCHEM_SHAPE_FINGERPRINT>
10 15 18261394421244290131
11646440 116 17022902332840815795
11719270 70 18113057151040640735
12166972 35 17703790314426276077
12236239 1 18060139830191987131
12596602 18 17917992733665220361
12616971 3 18335991886989315399
12778500 126 17988928915441186784
13073987 5 16660635298120470403
13150687 139 8069739759302481456
13167372 99 18410012152238147913
13533116 47 17561086916755187722
13668630 136 14692566633325656185
13673619 4 16773525472896374418
13785724 45 18122345950480485978
14251764 18 18342460322532863776
14849402 71 18200875076622547972
15183329 4 18261104171702556977
15348495 7 17988355980184271905
15537594 2 11095880462874638697
17844677 252 18187351148161912981
18222031 100 14908187442752695694
1979834 28 17385720296682367884
21150785 3 5328451602157466961
21315763 129 18409450284816867081
21315764 268 18271533009290201709
22149856 69 17604409844539714683
2215653 11 12103852241822151971
23016692 55 11743840287130906651
23081809 10 18272087163408491871
23559900 14 17895746400124833623
300161 21 15864075377436186959
3004659 81 18408598163062663060
3411729 13 18267584616249198956
345986 75 17986133996260643104
34797466 226 17241594045092757765
3545911 37 17458343030843189798
3680242 22 18411416228428341697
4072396 5 17458070374236132610
4073 2 17773874190792424168
4340502 62 16950566575515416046
5104073 3 18340763750579884593
8509985 295 18411705378907222896
960060 61 8286203863592279492

> <PUBCHEM_SHAPE_MULTIPOLES>
455.8
18.24
2.03
1.37
20.06
1.05
0.18
-0.88
-5.75
-1.16
0.15
-2.65
-0.37
-1.12

> <PUBCHEM_SHAPE_SELFOVERLAP>
957.404

> <PUBCHEM_SHAPE_VOLUME>
253.2

> <PUBCHEM_COORDINATE_TYPE>
2
5
10

$$$$

