3736
  -OEChem-06251223372D

 56 56  0     1  0  0  0  0  0999 V2000
    4.2690    0.5950    0.0000 I   0  0  0  0  0  0  0  0  0  0  0  0
    7.7331    0.5950    0.0000 I   0  0  0  0  0  0  0  0  0  0  0  0
    6.0010   -2.4050    0.0000 I   0  0  0  0  0  0  0  0  0  0  0  0
    8.5991    3.0950    0.0000 O   0  0  0  0  0  0  0  0  0  0  0  0
    5.1350    2.0950    0.0000 O   0  0  0  0  0  0  0  0  0  0  0  0
    8.5991    5.0950    0.0000 O   0  0  0  0  0  0  0  0  0  0  0  0
    4.2690   -4.4050    0.0000 O   0  0  0  0  0  0  0  0  0  0  0  0
    3.4030   -0.9050    0.0000 O   0  0  0  0  0  0  0  0  0  0  0  0
    2.5369   -5.4050    0.0000 O   0  0  0  0  0  0  0  0  0  0  0  0
    8.5991   -3.9050    0.0000 O   0  0  0  0  0  0  0  0  0  0  0  0
    6.8671   -2.9050    0.0000 O   0  0  0  0  0  0  0  0  0  0  0  0
    6.8671    2.0950    0.0000 N   0  0  0  0  0  0  0  0  0  0  0  0
    4.2690   -2.4050    0.0000 N   0  0  0  0  0  0  0  0  0  0  0  0
    7.7331   -1.4050    0.0000 N   0  0  0  0  0  0  0  0  0  0  0  0
    6.8671    3.0950    0.0000 C   0  0  0  0  0  0  0  0  0  0  0  0
    7.7331    3.5950    0.0000 C   0  0  3  0  0  0  0  0  0  0  0  0
    6.0010    0.5950    0.0000 C   0  0  0  0  0  0  0  0  0  0  0  0
    6.0010    1.5950    0.0000 C   0  0  0  0  0  0  0  0  0  0  0  0
    5.1350   -0.9050    0.0000 C   0  0  0  0  0  0  0  0  0  0  0  0
    5.1350    0.0950    0.0000 C   0  0  0  0  0  0  0  0  0  0  0  0
    6.8671    0.0950    0.0000 C   0  0  0  0  0  0  0  0  0  0  0  0
    6.8671   -0.9050    0.0000 C   0  0  0  0  0  0  0  0  0  0  0  0
    7.7331    4.5950    0.0000 C   0  0  0  0  0  0  0  0  0  0  0  0
    3.4030   -2.9050    0.0000 C   0  0  0  0  0  0  0  0  0  0  0  0
    7.7331    1.5950    0.0000 C   0  0  0  0  0  0  0  0  0  0  0  0
    6.0010   -1.4050    0.0000 C   0  0  0  0  0  0  0  0  0  0  0  0
    3.4030   -3.9050    0.0000 C   0  0  3  0  0  0  0  0  0  0  0  0
    4.2690   -1.4050    0.0000 C   0  0  0  0  0  0  0  0  0  0  0  0
    2.5369   -4.4050    0.0000 C   0  0  0  0  0  0  0  0  0  0  0  0
    7.7331   -2.4050    0.0000 C   0  0  0  0  0  0  0  0  0  0  0  0
    8.5991   -2.9050    0.0000 C   0  0  0  0  0  0  0  0  0  0  0  0
    9.4651   -4.4050    0.0000 C   0  0  0  0  0  0  0  0  0  0  0  0
    6.6550    3.6776    0.0000 H   0  0  0  0  0  0  0  0  0  0  0  0
    6.2565    2.9873    0.0000 H   0  0  0  0  0  0  0  0  0  0  0  0
    7.7331    2.9750    0.0000 H   0  0  0  0  0  0  0  0  0  0  0  0
    7.5210    5.1776    0.0000 H   0  0  0  0  0  0  0  0  0  0  0  0
    7.1225    4.4873    0.0000 H   0  0  0  0  0  0  0  0  0  0  0  0
    3.1909   -2.3224    0.0000 H   0  0  0  0  0  0  0  0  0  0  0  0
    2.7924   -3.0127    0.0000 H   0  0  0  0  0  0  0  0  0  0  0  0
    3.9399   -3.5950    0.0000 H   0  0  0  0  0  0  0  0  0  0  0  0
    7.4231    1.0581    0.0000 H   0  0  0  0  0  0  0  0  0  0  0  0
    8.2700    1.2850    0.0000 H   0  0  0  0  0  0  0  0  0  0  0  0
    8.0431    2.1319    0.0000 H   0  0  0  0  0  0  0  0  0  0  0  0
    4.8059   -2.7150    0.0000 H   0  0  0  0  0  0  0  0  0  0  0  0
    2.3249   -3.8224    0.0000 H   0  0  0  0  0  0  0  0  0  0  0  0
    1.9264   -4.5127    0.0000 H   0  0  0  0  0  0  0  0  0  0  0  0
    8.2700   -1.0950    0.0000 H   0  0  0  0  0  0  0  0  0  0  0  0
    9.1360    3.4050    0.0000 H   0  0  0  0  0  0  0  0  0  0  0  0
    8.5991    5.7150    0.0000 H   0  0  0  0  0  0  0  0  0  0  0  0
    4.2690   -5.0250    0.0000 H   0  0  0  0  0  0  0  0  0  0  0  0
    9.2097   -3.0127    0.0000 H   0  0  0  0  0  0  0  0  0  0  0  0
    8.8112   -2.3224    0.0000 H   0  0  0  0  0  0  0  0  0  0  0  0
    2.0000   -5.7150    0.0000 H   0  0  0  0  0  0  0  0  0  0  0  0
    9.1551   -4.9419    0.0000 H   0  0  0  0  0  0  0  0  0  0  0  0
   10.0021   -4.7150    0.0000 H   0  0  0  0  0  0  0  0  0  0  0  0
    9.7751   -3.8681    0.0000 H   0  0  0  0  0  0  0  0  0  0  0  0
  1 20  1  0  0  0  0
  2 21  1  0  0  0  0
  3 26  1  0  0  0  0
  4 16  1  0  0  0  0
  4 48  1  0  0  0  0
  5 18  2  0  0  0  0
  6 23  1  0  0  0  0
  6 49  1  0  0  0  0
  7 27  1  0  0  0  0
  7 50  1  0  0  0  0
  8 28  2  0  0  0  0
  9 29  1  0  0  0  0
  9 53  1  0  0  0  0
 10 31  1  0  0  0  0
 10 32  1  0  0  0  0
 11 30  2  0  0  0  0
 12 15  1  0  0  0  0
 12 18  1  0  0  0  0
 12 25  1  0  0  0  0
 13 24  1  0  0  0  0
 13 28  1  0  0  0  0
 13 44  1  0  0  0  0
 14 22  1  0  0  0  0
 14 30  1  0  0  0  0
 14 47  1  0  0  0  0
 15 16  1  0  0  0  0
 15 33  1  0  0  0  0
 15 34  1  0  0  0  0
 16 23  1  0  0  0  0
 16 35  1  0  0  0  0
 17 18  1  0  0  0  0
 17 20  1  0  0  0  0
 17 21  2  0  0  0  0
 19 20  2  0  0  0  0
 19 26  1  0  0  0  0
 19 28  1  0  0  0  0
 21 22  1  0  0  0  0
 22 26  2  0  0  0  0
 23 36  1  0  0  0  0
 23 37  1  0  0  0  0
 24 27  1  0  0  0  0
 24 38  1  0  0  0  0
 24 39  1  0  0  0  0
 25 41  1  0  0  0  0
 25 42  1  0  0  0  0
 25 43  1  0  0  0  0
 27 29  1  0  0  0  0
 27 40  1  0  0  0  0
 29 45  1  0  0  0  0
 29 46  1  0  0  0  0
 30 31  1  0  0  0  0
 31 51  1  0  0  0  0
 31 52  1  0  0  0  0
 32 54  1  0  0  0  0
 32 55  1  0  0  0  0
 32 56  1  0  0  0  0
M  END
> <PUBCHEM_COMPOUND_CID>
3736

> <PUBCHEM_COMPOUND_CANONICALIZED>
1

> <PUBCHEM_CACTVS_COMPLEXITY>
647

> <PUBCHEM_CACTVS_HBOND_ACCEPTOR>
8

> <PUBCHEM_CACTVS_HBOND_DONOR>
6

> <PUBCHEM_CACTVS_ROTATABLE_BOND>
11

> <PUBCHEM_CACTVS_SUBSKEYS>
AAADceB7PAAAAwAAAAAAAAAAAAAAAAAAAAAwAAAAAAAAAAABAAAAHgAwCAAADBzjmAYCwIPABgCIAgVQUAKCAAAlAAAAiIFIRMgLMDLAlJWFYQhilgDZyQcci0COAAACQAAAAAAAAASAAAAAAAAAAAAAAA==

> <PUBCHEM_IUPAC_OPENEYE_NAME>
N1,N3-bis(2,3-dihydroxypropyl)-2,4,6-triiodo-5-[(2-methoxyacetyl)amino]-N3-methyl-benzene-1,3-dicarboxamide

> <PUBCHEM_IUPAC_CAS_NAME>
N1,N3-bis(2,3-dihydroxypropyl)-2,4,6-triiodo-5-[(2-methoxy-1-oxoethyl)amino]-N3-methylbenzene-1,3-dicarboxamide

> <PUBCHEM_IUPAC_NAME>
1-N,3-N-bis(2,3-dihydroxypropyl)-2,4,6-triiodo-5-[(2-methoxyacetyl)amino]-3-N-methylbenzene-1,3-dicarboxamide

> <PUBCHEM_IUPAC_SYSTEMATIC_NAME>
N1,N3-bis[2,3-bis(oxidanyl)propyl]-2,4,6-tris(iodanyl)-5-(2-methoxyethanoylamino)-N3-methyl-benzene-1,3-dicarboxamide

> <PUBCHEM_IUPAC_TRADITIONAL_NAME>
N,N'-diglyceryl-2,4,6-triiodo-5-[(2-methoxyacetyl)amino]-N'-methyl-isophthalamide

> <PUBCHEM_IUPAC_INCHI>
InChI=1S/C18H24I3N3O8/c1-24(4-9(28)6-26)18(31)12-13(19)11(17(30)22-3-8(27)5-25)14(20)16(15(12)21)23-10(29)7-32-2/h8-9,25-28H,3-7H2,1-2H3,(H,22,30)(H,23,29)

> <PUBCHEM_IUPAC_INCHIKEY>
DGAIEPBNLOQYER-UHFFFAOYSA-N

> <PUBCHEM_XLOGP3>
-2.1

> <PUBCHEM_EXACT_MASS>
790.869759

> <PUBCHEM_MOLECULAR_FORMULA>
C18H24I3N3O8

> <PUBCHEM_MOLECULAR_WEIGHT>
791.11187

> <PUBCHEM_OPENEYE_CAN_SMILES>
CN(CC(CO)O)C(=O)C1=C(C(=C(C(=C1I)C(=O)NCC(CO)O)I)NC(=O)COC)I

> <PUBCHEM_OPENEYE_ISO_SMILES>
CN(CC(CO)O)C(=O)C1=C(C(=C(C(=C1I)C(=O)NCC(CO)O)I)NC(=O)COC)I

> <PUBCHEM_CACTVS_TPSA>
169

> <PUBCHEM_MONOISOTOPIC_WEIGHT>
790.869759

> <PUBCHEM_TOTAL_CHARGE>
0

> <PUBCHEM_HEAVY_ATOM_COUNT>
32

> <PUBCHEM_ATOM_DEF_STEREO_COUNT>
0

> <PUBCHEM_ATOM_UDEF_STEREO_COUNT>
2

> <PUBCHEM_BOND_DEF_STEREO_COUNT>
0

> <PUBCHEM_BOND_UDEF_STEREO_COUNT>
0

> <PUBCHEM_ISOTOPIC_ATOM_COUNT>
0

> <PUBCHEM_COMPONENT_COUNT>
1

> <PUBCHEM_CACTVS_TAUTO_COUNT>
6

> <PUBCHEM_COORDINATE_TYPE>
1
5
255

> <PUBCHEM_BONDANNOTATIONS>
17  20  8
17  21  8
19  20  8
19  26  8
21  22  8
22  26  8
16  4  3
27  7  3

$$$$

