442918
  -OEChem-07051213003D

 56 59  0     1  0  0  0  0  0999 V2000
   -0.2117    4.7127   -0.5057 O   0  0  0  0  0  0  0  0  0  0  0  0
   -1.6047    4.3065    1.2749 O   0  0  0  0  0  0  0  0  0  0  0  0
   -3.4462    0.7243    1.1546 O   0  0  0  0  0  0  0  0  0  0  0  0
   -4.4243   -1.6243    0.1750 O   0  0  0  0  0  0  0  0  0  0  0  0
    5.3272   -0.3630   -0.2194 O   0  0  0  0  0  0  0  0  0  0  0  0
   -2.7108   -3.4716   -0.9666 O   0  0  0  0  0  0  0  0  0  0  0  0
    4.1142   -2.3369    1.3147 O   0  0  0  0  0  0  0  0  0  0  0  0
    0.6553    2.5719   -0.7369 C   0  0  1  0  0  0  0  0  0  0  0  0
   -0.7020    2.4637   -0.0533 C   0  0  1  0  0  0  0  0  0  0  0  0
    1.0067    1.3955   -1.6450 C   0  0  0  0  0  0  0  0  0  0  0  0
   -0.7351    1.4496    1.0878 C   0  0  0  0  0  0  0  0  0  0  0  0
    0.4982    3.8977   -1.4512 C   0  0  0  0  0  0  0  0  0  0  0  0
   -0.9045    3.9021    0.3609 C   0  0  0  0  0  0  0  0  0  0  0  0
   -1.1912    0.1003    0.5669 C   0  0  0  0  0  0  0  0  0  0  0  0
    1.7764    0.3438   -0.8695 C   0  0  0  0  0  0  0  0  0  0  0  0
   -0.3126   -0.8409   -0.0159 C   0  0  0  0  0  0  0  0  0  0  0  0
    1.1514   -0.6562   -0.0908 C   0  0  0  0  0  0  0  0  0  0  0  0
   -2.5716   -0.1817    0.6198 C   0  0  0  0  0  0  0  0  0  0  0  0
    3.1842    0.4224   -0.8935 C   0  0  0  0  0  0  0  0  0  0  0  0
   -0.8617   -2.0380   -0.5248 C   0  0  0  0  0  0  0  0  0  0  0  0
    1.9734   -1.5460    0.6349 C   0  0  0  0  0  0  0  0  0  0  0  0
   -3.0858   -1.3733    0.1142 C   0  0  0  0  0  0  0  0  0  0  0  0
    3.9709   -0.4709   -0.1705 C   0  0  0  0  0  0  0  0  0  0  0  0
   -2.2302   -2.3017   -0.4613 C   0  0  0  0  0  0  0  0  0  0  0  0
    3.3648   -1.4557    0.5960 C   0  0  0  0  0  0  0  0  0  0  0  0
   -4.4710    1.2122    0.2952 C   0  0  0  0  0  0  0  0  0  0  0  0
   -4.9039   -2.3007    1.3350 C   0  0  0  0  0  0  0  0  0  0  0  0
    5.9467    0.4788    0.7517 C   0  0  0  0  0  0  0  0  0  0  0  0
   -3.0990   -3.4741   -2.3392 C   0  0  0  0  0  0  0  0  0  0  0  0
    4.4966   -3.5464    0.6621 C   0  0  0  0  0  0  0  0  0  0  0  0
    1.4340    2.7108    0.0289 H   0  0  0  0  0  0  0  0  0  0  0  0
   -1.4935    2.2560   -0.7877 H   0  0  0  0  0  0  0  0  0  0  0  0
    1.6310    1.7420   -2.4791 H   0  0  0  0  0  0  0  0  0  0  0  0
    0.1176    0.9572   -2.1133 H   0  0  0  0  0  0  0  0  0  0  0  0
   -1.4002    1.7845    1.8928 H   0  0  0  0  0  0  0  0  0  0  0  0
    0.2434    1.3556    1.5747 H   0  0  0  0  0  0  0  0  0  0  0  0
    1.4642    4.3602   -1.6743 H   0  0  0  0  0  0  0  0  0  0  0  0
   -0.0912    3.8300   -2.3721 H   0  0  0  0  0  0  0  0  0  0  0  0
    3.6711    1.1991   -1.4807 H   0  0  0  0  0  0  0  0  0  0  0  0
   -0.2084   -2.7815   -0.9807 H   0  0  0  0  0  0  0  0  0  0  0  0
    1.5189   -2.3252    1.2463 H   0  0  0  0  0  0  0  0  0  0  0  0
   -4.2113    1.1199   -0.7654 H   0  0  0  0  0  0  0  0  0  0  0  0
   -4.6141    2.2746    0.5147 H   0  0  0  0  0  0  0  0  0  0  0  0
   -5.4129    0.6976    0.5042 H   0  0  0  0  0  0  0  0  0  0  0  0
   -4.4541   -3.2954    1.4137 H   0  0  0  0  0  0  0  0  0  0  0  0
   -5.9875   -2.4136    1.2416 H   0  0  0  0  0  0  0  0  0  0  0  0
   -4.6895   -1.7194    2.2373 H   0  0  0  0  0  0  0  0  0  0  0  0
    7.0271    0.4554    0.5857 H   0  0  0  0  0  0  0  0  0  0  0  0
    5.7399    0.1166    1.7637 H   0  0  0  0  0  0  0  0  0  0  0  0
    5.5977    1.5106    0.6428 H   0  0  0  0  0  0  0  0  0  0  0  0
   -3.9023   -2.7514   -2.5139 H   0  0  0  0  0  0  0  0  0  0  0  0
   -3.4666   -4.4729   -2.5894 H   0  0  0  0  0  0  0  0  0  0  0  0
   -2.2417   -3.2455   -2.9803 H   0  0  0  0  0  0  0  0  0  0  0  0
    5.0915   -4.1398    1.3618 H   0  0  0  0  0  0  0  0  0  0  0  0
    5.1063   -3.3316   -0.2211 H   0  0  0  0  0  0  0  0  0  0  0  0
    3.6118   -4.1243    0.3769 H   0  0  0  0  0  0  0  0  0  0  0  0
  1 12  1  0  0  0  0
  1 13  1  0  0  0  0
  2 13  2  0  0  0  0
  3 18  1  0  0  0  0
  3 26  1  0  0  0  0
  4 22  1  0  0  0  0
  4 27  1  0  0  0  0
  5 23  1  0  0  0  0
  5 28  1  0  0  0  0
  6 24  1  0  0  0  0
  6 29  1  0  0  0  0
  7 25  1  0  0  0  0
  7 30  1  0  0  0  0
  8  9  1  0  0  0  0
  8 10  1  0  0  0  0
  8 12  1  0  0  0  0
  8 31  1  0  0  0  0
  9 11  1  0  0  0  0
  9 13  1  0  0  0  0
  9 32  1  0  0  0  0
 10 15  1  0  0  0  0
 10 33  1  0  0  0  0
 10 34  1  0  0  0  0
 11 14  1  0  0  0  0
 11 35  1  0  0  0  0
 11 36  1  0  0  0  0
 12 37  1  0  0  0  0
 12 38  1  0  0  0  0
 14 16  1  0  0  0  0
 14 18  2  0  0  0  0
 15 17  1  0  0  0  0
 15 19  2  0  0  0  0
 16 17  1  0  0  0  0
 16 20  2  0  0  0  0
 17 21  2  0  0  0  0
 18 22  1  0  0  0  0
 19 23  1  0  0  0  0
 19 39  1  0  0  0  0
 20 24  1  0  0  0  0
 20 40  1  0  0  0  0
 21 25  1  0  0  0  0
 21 41  1  0  0  0  0
 22 24  2  0  0  0  0
 23 25  2  0  0  0  0
 26 42  1  0  0  0  0
 26 43  1  0  0  0  0
 26 44  1  0  0  0  0
 27 45  1  0  0  0  0
 27 46  1  0  0  0  0
 27 47  1  0  0  0  0
 28 48  1  0  0  0  0
 28 49  1  0  0  0  0
 28 50  1  0  0  0  0
 29 51  1  0  0  0  0
 29 52  1  0  0  0  0
 29 53  1  0  0  0  0
 30 54  1  0  0  0  0
 30 55  1  0  0  0  0
 30 56  1  0  0  0  0
M  END
> <PUBCHEM_COMPOUND_CID>
442918

> <PUBCHEM_CONFORMER_RMSD>
0.8

> <PUBCHEM_CONFORMER_DIVERSEORDER>
1
6
3
2
5
4

> <PUBCHEM_MMFF94_PARTIAL_CHARGES>
30
1 -0.43
10 0.14
11 0.14
12 0.28
13 0.66
14 -0.14
15 -0.14
18 0.08
19 -0.15
2 -0.57
20 -0.15
21 -0.15
22 0.08
23 0.08
24 0.08
25 0.08
26 0.28
27 0.28
28 0.28
29 0.28
3 -0.36
30 0.28
39 0.15
4 -0.36
40 0.15
41 0.15
5 -0.36
6 -0.36
7 -0.36
9 0.06

> <PUBCHEM_EFFECTIVE_ROTOR_COUNT>
5.8

> <PUBCHEM_PHARMACOPHORE_FEATURES>
9
1 2 acceptor
1 3 acceptor
1 4 acceptor
1 5 acceptor
1 6 acceptor
1 7 acceptor
5 1 8 9 12 13 rings
6 14 16 18 20 22 24 rings
6 15 17 19 21 23 25 rings

> <PUBCHEM_HEAVY_ATOM_COUNT>
30

> <PUBCHEM_ATOM_DEF_STEREO_COUNT>
2

> <PUBCHEM_ATOM_UDEF_STEREO_COUNT>
0

> <PUBCHEM_BOND_DEF_STEREO_COUNT>
0

> <PUBCHEM_BOND_UDEF_STEREO_COUNT>
0

> <PUBCHEM_ISOTOPIC_ATOM_COUNT>
0

> <PUBCHEM_COMPONENT_COUNT>
1

> <PUBCHEM_CACTVS_TAUTO_COUNT>
2

> <PUBCHEM_CONFORMER_ID>
0006C22600000001

> <PUBCHEM_MMFF94_ENERGY>
147.4879

> <PUBCHEM_FEATURE_SELFOVERLAP>
45.684

> <PUBCHEM_SHAPE_FINGERPRINT>
1100329 8 18051686655368813018
11045515 52 18272658917411808932
11265709 11 18339637846019533820
11552529 35 18263933292656562952
11578080 2 18195555655924679836
12236239 1 18413386519032528794
12422481 6 17763998648051419665
12553582 1 18340492170881405702
12741549 16 16845022212254814636
12788726 201 18411412947289695994
13004483 165 18341339992892623008
13140716 1 18338505335878610345
13540713 5 17537149256387989223
13690498 29 18264757943737470222
13692114 37 17763761174814195845
138480 1 15169957397319851516
13965767 371 17757519182720118265
14081887 123 18337684078624539312
14955137 171 18267287768803671315
15042514 8 18268427004842086667
15230672 131 17044289234963744046
15927050 60 17114932298653851324
17818456 19 18195523912084521918
17980427 23 17751359478163180167
18336668 15 18201155442864310612
19319366 153 17695041332952572309
20600515 1 17749653113458178121
20775438 99 17328919380574723319
21033648 29 17894919529100411707
2132832 1 18044670693563399663
22113638 7 18410288129915202053
23366157 5 17835524825779855757
23559900 14 17904498311203777287
25147074 1 17681544841308786423
3178227 256 18339066143872284147
3504750 166 18267604557972356026
392239 28 18410858733716785248
4409770 3 18055364784094157213
463206 1 18197775497113477874
7471813 234 17900270705763021502
84936 182 17617932539542070197

> <PUBCHEM_SHAPE_MULTIPOLES>
576.3
9.3
5.61
1.41
6.08
4.65
-0.46
-8.08
2.65
-2.16
-0.87
-0.62
-0.32
-2.21

> <PUBCHEM_SHAPE_SELFOVERLAP>
1252.201

> <PUBCHEM_SHAPE_VOLUME>
317

> <PUBCHEM_COORDINATE_TYPE>
2
5
10

$$$$

