442715
  -OEChem-07051212593D

 43 44  0     0  0  0  0  0  0999 V2000
   -2.2136   -2.8563   -0.1564 O   0  0  0  0  0  0  0  0  0  0  0  0
   -2.5874    1.6515    1.4357 O   0  0  0  0  0  0  0  0  0  0  0  0
    1.8347   -0.3076    0.7980 C   0  0  0  0  0  0  0  0  0  0  0  0
    0.3479   -0.4110    0.7427 C   0  0  0  0  0  0  0  0  0  0  0  0
    2.4776    0.2063   -0.5055 C   0  0  0  0  0  0  0  0  0  0  0  0
   -2.4198   -0.6040    0.6396 C   0  0  0  0  0  0  0  0  0  0  0  0
   -0.2532   -1.5950    0.3156 C   0  0  0  0  0  0  0  0  0  0  0  0
   -0.4415    0.6761    1.1181 C   0  0  0  0  0  0  0  0  0  0  0  0
   -3.9234   -0.7082    0.5827 C   0  0  0  0  0  0  0  0  0  0  0  0
   -1.6438   -1.6920    0.2638 C   0  0  0  0  0  0  0  0  0  0  0  0
   -1.8320    0.5791    1.0665 C   0  0  0  0  0  0  0  0  0  0  0  0
    3.9842    0.2676   -0.4413 C   0  0  0  0  0  0  0  0  0  0  0  0
   -4.4761   -0.2831   -0.7485 C   0  0  0  0  0  0  0  0  0  0  0  0
    4.5992    1.4280    0.0025 C   0  0  0  0  0  0  0  0  0  0  0  0
    4.7266   -0.8374   -0.8275 C   0  0  0  0  0  0  0  0  0  0  0  0
   -5.3319    0.7246   -1.0056 C   0  0  0  0  0  0  0  0  0  0  0  0
    5.9916    1.4845    0.0615 C   0  0  0  0  0  0  0  0  0  0  0  0
    6.1190   -0.7809   -0.7682 C   0  0  0  0  0  0  0  0  0  0  0  0
    6.7516    0.3800   -0.3237 C   0  0  0  0  0  0  0  0  0  0  0  0
   -5.8480    1.0990   -2.3659 C   0  0  0  0  0  0  0  0  0  0  0  0
   -5.8615    1.5787    0.1158 C   0  0  0  0  0  0  0  0  0  0  0  0
    2.1244    0.3456    1.6325 H   0  0  0  0  0  0  0  0  0  0  0  0
    2.2565   -1.2894    1.0535 H   0  0  0  0  0  0  0  0  0  0  0  0
    2.0822    1.2020   -0.7482 H   0  0  0  0  0  0  0  0  0  0  0  0
    2.1770   -0.4330   -1.3466 H   0  0  0  0  0  0  0  0  0  0  0  0
    0.3570   -2.4450    0.0196 H   0  0  0  0  0  0  0  0  0  0  0  0
    0.0290    1.5992    1.4487 H   0  0  0  0  0  0  0  0  0  0  0  0
   -4.2505   -1.7364    0.7831 H   0  0  0  0  0  0  0  0  0  0  0  0
   -4.3497   -0.1656    1.4302 H   0  0  0  0  0  0  0  0  0  0  0  0
   -4.1405   -0.8756   -1.5991 H   0  0  0  0  0  0  0  0  0  0  0  0
    4.0157    2.2922    0.3066 H   0  0  0  0  0  0  0  0  0  0  0  0
    4.2429   -1.7466   -1.1730 H   0  0  0  0  0  0  0  0  0  0  0  0
    6.4842    2.3883    0.4081 H   0  0  0  0  0  0  0  0  0  0  0  0
    6.7107   -1.6409   -1.0676 H   0  0  0  0  0  0  0  0  0  0  0  0
   -3.1007   -2.6950   -0.5130 H   0  0  0  0  0  0  0  0  0  0  0  0
   -1.9990    2.3796    1.6993 H   0  0  0  0  0  0  0  0  0  0  0  0
    7.8358    0.4240   -0.2773 H   0  0  0  0  0  0  0  0  0  0  0  0
   -5.4529    0.4361   -3.1427 H   0  0  0  0  0  0  0  0  0  0  0  0
   -6.9403    1.0308   -2.3916 H   0  0  0  0  0  0  0  0  0  0  0  0
   -5.5540    2.1227   -2.6186 H   0  0  0  0  0  0  0  0  0  0  0  0
   -5.3187    1.5122    1.0577 H   0  0  0  0  0  0  0  0  0  0  0  0
   -5.8190    2.6349   -0.1755 H   0  0  0  0  0  0  0  0  0  0  0  0
   -6.9098    1.3276    0.3094 H   0  0  0  0  0  0  0  0  0  0  0  0
  1 10  1  0  0  0  0
  1 35  1  0  0  0  0
  2 11  1  0  0  0  0
  2 36  1  0  0  0  0
  3  4  1  0  0  0  0
  3  5  1  0  0  0  0
  3 22  1  0  0  0  0
  3 23  1  0  0  0  0
  4  7  2  0  0  0  0
  4  8  1  0  0  0  0
  5 12  1  0  0  0  0
  5 24  1  0  0  0  0
  5 25  1  0  0  0  0
  6  9  1  0  0  0  0
  6 10  2  0  0  0  0
  6 11  1  0  0  0  0
  7 10  1  0  0  0  0
  7 26  1  0  0  0  0
  8 11  2  0  0  0  0
  8 27  1  0  0  0  0
  9 13  1  0  0  0  0
  9 28  1  0  0  0  0
  9 29  1  0  0  0  0
 12 14  2  0  0  0  0
 12 15  1  0  0  0  0
 13 16  2  0  0  0  0
 13 30  1  0  0  0  0
 14 17  1  0  0  0  0
 14 31  1  0  0  0  0
 15 18  2  0  0  0  0
 15 32  1  0  0  0  0
 16 20  1  0  0  0  0
 16 21  1  0  0  0  0
 17 19  2  0  0  0  0
 17 33  1  0  0  0  0
 18 19  1  0  0  0  0
 18 34  1  0  0  0  0
 19 37  1  0  0  0  0
 20 38  1  0  0  0  0
 20 39  1  0  0  0  0
 20 40  1  0  0  0  0
 21 41  1  0  0  0  0
 21 42  1  0  0  0  0
 21 43  1  0  0  0  0
M  END
> <PUBCHEM_COMPOUND_CID>
442715

> <PUBCHEM_CONFORMER_RMSD>
0.8

> <PUBCHEM_CONFORMER_DIVERSEORDER>
1
30
13
15
33
14
18
17
7
2
32
19
12
26
22
11
21
31
23
9
20
36
16
6
24
10
25
8
4
27
35
5
3
29
34
28

> <PUBCHEM_MMFF94_PARTIAL_CHARGES>
31
1 -0.53
10 0.08
11 0.08
12 -0.14
13 -0.29
14 -0.15
15 -0.15
16 -0.28
17 -0.15
18 -0.15
19 -0.15
2 -0.53
20 0.14
21 0.14
26 0.15
27 0.15
3 0.14
30 0.15
31 0.15
32 0.15
33 0.15
34 0.15
35 0.45
36 0.45
37 0.15
4 -0.14
5 0.14
6 -0.14
7 -0.15
8 -0.15
9 0.28

> <PUBCHEM_EFFECTIVE_ROTOR_COUNT>
5

> <PUBCHEM_PHARMACOPHORE_FEATURES>
5
1 1 donor
1 2 donor
3 16 20 21 hydrophobe
6 12 14 15 17 18 19 rings
6 4 6 7 8 10 11 rings

> <PUBCHEM_HEAVY_ATOM_COUNT>
21

> <PUBCHEM_ATOM_DEF_STEREO_COUNT>
0

> <PUBCHEM_ATOM_UDEF_STEREO_COUNT>
0

> <PUBCHEM_BOND_DEF_STEREO_COUNT>
0

> <PUBCHEM_BOND_UDEF_STEREO_COUNT>
0

> <PUBCHEM_ISOTOPIC_ATOM_COUNT>
0

> <PUBCHEM_COMPONENT_COUNT>
1

> <PUBCHEM_CACTVS_TAUTO_COUNT>
10

> <PUBCHEM_CONFORMER_ID>
0006C15B00000001

> <PUBCHEM_MMFF94_ENERGY>
51.5912

> <PUBCHEM_FEATURE_SELFOVERLAP>
25.371

> <PUBCHEM_SHAPE_FINGERPRINT>
10014705 185 18271523104941973514
105312 117 18273217499953663767
106641 1 11527653186060310261
10835480 77 18262803960992262280
11315181 36 18335974290993587288
12107183 9 10444890406257331556
12236239 1 18059856143280888546
12293681 160 18261396680518355665
12670543 26 18187366553565954089
13257819 101 17631745970958321647
13288520 33 14345796041944935217
13533116 47 18113900515825863870
13540713 4 17826809044578177555
13540713 5 17753891920315671579
13668630 136 14634866444774916500
13690498 29 18117008689337718791
13914758 101 18131357448912262680
14251752 14 18412268345512960034
14251764 18 13326846721530437257
14674994 50 5472277682546262669
15183329 4 18411422838214022853
15238133 3 15769771385823493478
15510800 12 5111719237176493493
15716309 27 8790884081829839941
18222031 100 14706922930832289594
18769570 83 16702026391509427309
19784866 240 4678817276713936617
19958102 18 18336540624885768838
200 152 16443057296753552186
20281389 69 17489873751858177093
20511986 3 18338527348382483146
20871999 31 17967812773307828185
21150785 3 18334582317651825887
21637258 2 13912334481846977461
21859007 373 18130242518352556844
22122407 14 16128360589026364868
23198884 109 18408887356338113533
23379529 103 16519655724260870207
23402539 116 17967526891546887561
23559900 14 18114185181593705600
23845131 108 11380512219010306199
25147074 1 17824821389416392219
2838139 119 17561091301980367093
29717793 49 17894906361083739140
300161 21 18411702059119003634
3009799 131 18333734619439863840
4015057 19 17604150311521823337
4214541 1 18260818303226931992
5104073 3 12607111860782139204
5283173 99 18335422382673622856
5385378 56 15410624717763009344
542803 24 14979956948133852818
999808 66 8070031094337453044

> <PUBCHEM_SHAPE_MULTIPOLES>
420.43
17.28
1.85
1.34
10.87
0.63
0.34
-7.43
7.24
-1.19
0.05
-1.76
-0.43
0.97

> <PUBCHEM_SHAPE_SELFOVERLAP>
883.789

> <PUBCHEM_SHAPE_VOLUME>
237.1

> <PUBCHEM_COORDINATE_TYPE>
2
5
10

$$$$

