4550
  -OEChem-06261200123D

 30 32  0     0  0  0  0  0  0999 V2000
   -1.7837    3.4981   -0.4540 O   0  0  0  0  0  0  0  0  0  0  0  0
   -3.3016    2.0497    0.6566 O   0  0  0  0  0  0  0  0  0  0  0  0
    4.0261   -1.3812    0.1042 O   0  0  0  0  0  0  0  0  0  0  0  0
    4.4192    1.1834   -0.3974 O   0  0  0  0  0  0  0  0  0  0  0  0
    1.7246   -1.7453    0.0364 N   0  0  0  0  0  0  0  0  0  0  0  0
   -2.0825    2.2646    0.0656 N   0  0  0  0  0  0  0  0  0  0  0  0
    3.3364    1.4376    0.1455 N   0  0  0  0  0  0  0  0  0  0  0  0
   -0.7200   -1.1964   -0.0230 C   0  0  0  0  0  0  0  0  0  0  0  0
   -1.5927   -0.1595   -0.0442 C   0  0  0  0  0  0  0  0  0  0  0  0
   -1.1196   -2.6461   -0.0412 C   0  0  0  0  0  0  0  0  0  0  0  0
   -3.0840   -0.4263   -0.1524 C   0  0  0  0  0  0  0  0  0  0  0  0
   -2.6014   -2.8624    0.2554 C   0  0  0  0  0  0  0  0  0  0  0  0
   -3.4492   -1.8673   -0.5202 C   0  0  0  0  0  0  0  0  0  0  0  0
    0.7352   -0.9097    0.0271 C   0  0  0  0  0  0  0  0  0  0  0  0
   -1.1500    1.2583    0.0275 C   0  0  0  0  0  0  0  0  0  0  0  0
    1.1361    0.4955    0.0646 C   0  0  0  0  0  0  0  0  0  0  0  0
    0.1691    1.5427    0.0694 C   0  0  0  0  0  0  0  0  0  0  0  0
    2.4653    0.4451    0.0988 C   0  0  0  0  0  0  0  0  0  0  0  0
    2.8726   -0.9808    0.0811 C   0  0  0  0  0  0  0  0  0  0  0  0
   -0.8821   -3.0605   -1.0290 H   0  0  0  0  0  0  0  0  0  0  0  0
   -0.5358   -3.2118    0.6947 H   0  0  0  0  0  0  0  0  0  0  0  0
   -3.5510   -0.2288    0.8202 H   0  0  0  0  0  0  0  0  0  0  0  0
   -3.5442    0.2168   -0.9120 H   0  0  0  0  0  0  0  0  0  0  0  0
   -2.8854   -3.8876   -0.0072 H   0  0  0  0  0  0  0  0  0  0  0  0
   -2.7865   -2.7446    1.3307 H   0  0  0  0  0  0  0  0  0  0  0  0
   -4.5127   -2.0410   -0.3203 H   0  0  0  0  0  0  0  0  0  0  0  0
   -3.2996   -2.0208   -1.5967 H   0  0  0  0  0  0  0  0  0  0  0  0
    0.5310    2.5645    0.1292 H   0  0  0  0  0  0  0  0  0  0  0  0
   -2.6329    3.7568   -0.8500 H   0  0  0  0  0  0  0  0  0  0  0  0
   -3.3327    2.7661    1.3129 H   0  0  0  0  0  0  0  0  0  0  0  0
  1  6  1  0  0  0  0
  1 29  1  0  0  0  0
  2  6  1  0  0  0  0
  2 30  1  0  0  0  0
  3 19  2  0  0  0  0
  4  7  2  0  0  0  0
  5 14  2  0  0  0  0
  5 19  1  0  0  0  0
  6 15  1  0  0  0  0
  7 18  1  0  0  0  0
  8  9  2  0  0  0  0
  8 10  1  0  0  0  0
  8 14  1  0  0  0  0
  9 11  1  0  0  0  0
  9 15  1  0  0  0  0
 10 12  1  0  0  0  0
 10 20  1  0  0  0  0
 10 21  1  0  0  0  0
 11 13  1  0  0  0  0
 11 22  1  0  0  0  0
 11 23  1  0  0  0  0
 12 13  1  0  0  0  0
 12 24  1  0  0  0  0
 12 25  1  0  0  0  0
 13 26  1  0  0  0  0
 13 27  1  0  0  0  0
 14 16  1  0  0  0  0
 15 17  2  0  0  0  0
 16 17  1  0  0  0  0
 16 18  2  0  0  0  0
 17 28  1  0  0  0  0
 18 19  1  0  0  0  0
M  END
> <PUBCHEM_COMPOUND_CID>
4550

> <PUBCHEM_CONFORMER_RMSD>
0.6

> <PUBCHEM_CONFORMER_DIVERSEORDER>
1
2

> <PUBCHEM_MMFF94_PARTIAL_CHARGES>
20
1 -0.38
10 0.14
11 0.14
14 0.42
15 0.1
16 0.01
17 -0.15
18 0.31
19 0.77
2 -0.38
28 0.15
29 0.4
3 -0.57
30 0.4
4 -0.16
5 -0.66
6 -0.14
7 -0.13
8 -0.12
9 -0.14

> <PUBCHEM_EFFECTIVE_ROTOR_COUNT>
2.8

> <PUBCHEM_PHARMACOPHORE_FEATURES>
10
1 1 acceptor
1 1 anion
1 2 acceptor
1 2 anion
1 3 acceptor
1 5 acceptor
1 5 donor
5 5 14 16 18 19 rings
6 8 9 10 11 12 13 rings
6 8 9 14 15 16 17 rings

> <PUBCHEM_HEAVY_ATOM_COUNT>
19

> <PUBCHEM_ATOM_DEF_STEREO_COUNT>
0

> <PUBCHEM_ATOM_UDEF_STEREO_COUNT>
0

> <PUBCHEM_BOND_DEF_STEREO_COUNT>
0

> <PUBCHEM_BOND_UDEF_STEREO_COUNT>
1

> <PUBCHEM_ISOTOPIC_ATOM_COUNT>
0

> <PUBCHEM_COMPONENT_COUNT>
1

> <PUBCHEM_CACTVS_TAUTO_COUNT>
1

> <PUBCHEM_CONFORMER_ID>
000011C600000001

> <PUBCHEM_MMFF94_ENERGY>
45.6042

> <PUBCHEM_FEATURE_SELFOVERLAP>
50.979

> <PUBCHEM_SHAPE_FINGERPRINT>
10319926 262 18191896568260781970
10411042 1 17906170650898635986
104564 63 18335416820753829735
10608611 8 18408325501427155784
10616163 171 18337105679315044982
10967382 1 17762057640349398619
12173636 292 18339083812223397805
12553582 1 18193842535415001731
12730499 353 17477205398438789221
12954195 1 18190157071766166364
13027679 85 18194404381920089039
13140716 1 18266178516152573323
138480 1 16465020385447817235
14178342 30 18340503222158669776
14223421 5 18336270046251286312
14790565 3 18265046015541321361
15196674 1 18410576158669043303
15442244 35 18340209699635572418
16945 1 18338517434795876923
19591789 44 17545595016889692271
20261772 1 18337655486968877017
20510252 161 18334575741634837657
21029758 11 18193283988209286311
21041028 32 17980184306782734643
21267235 1 18267013964670258158
21501502 16 18410856581494473226
21524375 3 18117282673352764085
221490 88 17476643079565835771
2334 1 18410014372482655337
23366157 5 18131066074310513926
23402539 116 18261963933871011415
23557571 272 18187915158645319548
23558518 356 18271802441019916938
23559900 14 18116434946168314214
238 59 16762857091386055149
2748010 2 18266455593193542365
3091708 16 9276834153700086769
3312278 4 18268994189427656715
335352 9 18193838373702267206
34934 24 18193567665908127255
350125 39 18339076111267388208
352729 6 18264490765909418819
5104073 3 18409171026190650338
54173680 148 18411418388902542075
6438718 38 17894910737555297423
69090 78 18266179611722927721
7097593 13 17985001533348762482
7364860 26 17401769623305333399
81228 2 18341335496278298009
8809292 202 18342175540041588251
9709674 26 18334855043537918766

> <PUBCHEM_SHAPE_MULTIPOLES>
352.59
6.41
3.37
0.64
4.33
1.39
0
-0.94
-0.25
-2.71
-0.02
-0.13
0.02
-0.25

> <PUBCHEM_SHAPE_SELFOVERLAP>
781.162

> <PUBCHEM_SHAPE_VOLUME>
187.3

> <PUBCHEM_COORDINATE_TYPE>
2
5
10

$$$$

