439398
  -OEChem-07051212452D

 26 26  0     1  0  0  0  0  0999 V2000
    7.9575    0.1036    0.0000 P   0  0  0  0  0  0  0  0  0  0  0  0
    7.0064    0.4126    0.0000 O   0  0  0  0  0  0  0  0  0  0  0  0
    8.9086   -0.2054    0.0000 O   0  0  0  0  0  0  0  0  0  0  0  0
    8.2665    1.0546    0.0000 O   0  0  0  0  0  0  0  0  0  0  0  0
    7.6485   -0.8475    0.0000 O   0  0  0  0  0  0  0  0  0  0  0  0
    5.1043    1.0306    0.0000 N   0  0  0  0  0  0  0  0  0  0  0  0
    2.8090   -0.8954    0.0000 N   0  0  0  0  0  0  0  0  0  0  0  0
    2.3090    0.6434    0.0000 N   0  0  0  0  0  0  0  0  0  0  0  0
    5.3122    0.0525    0.0000 C   0  0  1  0  0  0  0  0  0  0  0  0
    4.5691   -0.6166    0.0000 C   0  0  0  0  0  0  0  0  0  0  0  0
    6.2633   -0.2565    0.0000 C   0  0  0  0  0  0  0  0  0  0  0  0
    3.6180   -0.3076    0.0000 C   0  0  0  0  0  0  0  0  0  0  0  0
    3.3090    0.6434    0.0000 C   0  0  0  0  0  0  0  0  0  0  0  0
    2.0000   -0.3076    0.0000 C   0  0  0  0  0  0  0  0  0  0  0  0
    4.7226    0.2441    0.0000 H   0  0  0  0  0  0  0  0  0  0  0  0
    4.2780   -1.1641    0.0000 H   0  0  0  0  0  0  0  0  0  0  0  0
    5.0577   -0.9983    0.0000 H   0  0  0  0  0  0  0  0  0  0  0  0
    5.9722   -0.8039    0.0000 H   0  0  0  0  0  0  0  0  0  0  0  0
    6.7519   -0.6382    0.0000 H   0  0  0  0  0  0  0  0  0  0  0  0
    5.5651    1.4455    0.0000 H   0  0  0  0  0  0  0  0  0  0  0  0
    4.5147    1.2222    0.0000 H   0  0  0  0  0  0  0  0  0  0  0  0
    2.8090   -1.5154    0.0000 H   0  0  0  0  0  0  0  0  0  0  0  0
    3.6734    1.1450    0.0000 H   0  0  0  0  0  0  0  0  0  0  0  0
    1.4103   -0.4992    0.0000 H   0  0  0  0  0  0  0  0  0  0  0  0
    9.3693    0.2094    0.0000 H   0  0  0  0  0  0  0  0  0  0  0  0
    7.8516    1.5154    0.0000 H   0  0  0  0  0  0  0  0  0  0  0  0
  1  2  1  0  0  0  0
  1  3  1  0  0  0  0
  1  4  1  0  0  0  0
  1  5  2  0  0  0  0
  2 11  1  0  0  0  0
  3 25  1  0  0  0  0
  4 26  1  0  0  0  0
  9  6  1  6  0  0  0
  6 20  1  0  0  0  0
  6 21  1  0  0  0  0
  7 12  1  0  0  0  0
  7 14  1  0  0  0  0
  7 22  1  0  0  0  0
  8 13  1  0  0  0  0
  8 14  2  0  0  0  0
  9 10  1  0  0  0  0
  9 11  1  0  0  0  0
  9 15  1  0  0  0  0
 10 12  1  0  0  0  0
 10 16  1  0  0  0  0
 10 17  1  0  0  0  0
 11 18  1  0  0  0  0
 11 19  1  0  0  0  0
 12 13  2  0  0  0  0
 13 23  1  0  0  0  0
 14 24  1  0  0  0  0
M  END
> <PUBCHEM_COMPOUND_CID>
439398

> <PUBCHEM_COMPOUND_CANONICALIZED>
1

> <PUBCHEM_CACTVS_COMPLEXITY>
221

> <PUBCHEM_CACTVS_HBOND_ACCEPTOR>
6

> <PUBCHEM_CACTVS_HBOND_DONOR>
4

> <PUBCHEM_CACTVS_ROTATABLE_BOND>
5

> <PUBCHEM_CACTVS_SUBSKEYS>
AAADccBjOAIAAAAAAAAAAAAAAAAAAWAAAAAAAAAAAAAAAAABgAAAHgAQCCAACCjhlgYtkBbJkRCgQRRnZIAAgC2xEqABUYA4cAiCaAJA2QGUAAAMkAJAQCCwEAIAAAAAAAAAAAAAAAAAAAAAAAAAAAAAAA==

> <PUBCHEM_IUPAC_OPENEYE_NAME>
[(2S)-2-amino-3-(1H-imidazol-5-yl)propyl] dihydrogen phosphate

> <PUBCHEM_IUPAC_CAS_NAME>
[(2S)-2-amino-3-(1H-imidazol-5-yl)propyl] dihydrogen phosphate

> <PUBCHEM_IUPAC_NAME>
[(2S)-2-amino-3-(1H-imidazol-5-yl)propyl] dihydrogen phosphate

> <PUBCHEM_IUPAC_SYSTEMATIC_NAME>
[(2S)-2-azanyl-3-(1H-imidazol-5-yl)propyl] dihydrogen phosphate

> <PUBCHEM_IUPAC_TRADITIONAL_NAME>
[(2S)-2-amino-3-(1H-imidazol-5-yl)propyl] dihydrogen phosphate

> <PUBCHEM_IUPAC_INCHI>
InChI=1S/C6H12N3O4P/c7-5(3-13-14(10,11)12)1-6-2-8-4-9-6/h2,4-5H,1,3,7H2,(H,8,9)(H2,10,11,12)/t5-/m0/s1

> <PUBCHEM_IUPAC_INCHIKEY>
CWNDERHTHMWBSI-YFKPBYRVSA-N

> <PUBCHEM_XLOGP3_AA>
-4.6

> <PUBCHEM_EXACT_MASS>
221.056543

> <PUBCHEM_MOLECULAR_FORMULA>
C6H12N3O4P

> <PUBCHEM_MOLECULAR_WEIGHT>
221.150942

> <PUBCHEM_OPENEYE_CAN_SMILES>
C1=C(NC=N1)CC(COP(=O)(O)O)N

> <PUBCHEM_OPENEYE_ISO_SMILES>
C1=C(NC=N1)C[C@@H](COP(=O)(O)O)N

> <PUBCHEM_CACTVS_TPSA>
122

> <PUBCHEM_MONOISOTOPIC_WEIGHT>
221.056543

> <PUBCHEM_TOTAL_CHARGE>
0

> <PUBCHEM_HEAVY_ATOM_COUNT>
14

> <PUBCHEM_ATOM_DEF_STEREO_COUNT>
1

> <PUBCHEM_ATOM_UDEF_STEREO_COUNT>
0

> <PUBCHEM_BOND_DEF_STEREO_COUNT>
0

> <PUBCHEM_BOND_UDEF_STEREO_COUNT>
0

> <PUBCHEM_ISOTOPIC_ATOM_COUNT>
0

> <PUBCHEM_COMPONENT_COUNT>
1

> <PUBCHEM_CACTVS_TAUTO_COUNT>
2

> <PUBCHEM_COORDINATE_TYPE>
1
5
255

> <PUBCHEM_BONDANNOTATIONS>
12  13  8
9  6  6
7  12  8
7  14  8
8  13  8
8  14  8

$$$$

