895
  -OEChem-07051212453D

 41 40  0     0  0  0  0  0  0999 V2000
   -3.5639    1.0758    1.3263 O   0  0  0  0  0  0  0  0  0  0  0  0
    5.0542   -0.1201   -0.9313 O   0  0  0  0  0  0  0  0  0  0  0  0
    4.4932    0.6450    1.1321 O   0  0  0  0  0  0  0  0  0  0  0  0
   -2.3672    1.6291   -0.5898 N   0  0  0  0  0  0  0  0  0  0  0  0
    1.0795   -4.3032    0.3194 N   0  0  0  0  0  0  0  0  0  0  0  0
   -0.3943    2.5180    0.5684 C   0  0  0  0  0  0  0  0  0  0  0  0
    0.6059    1.8500   -0.3781 C   0  0  0  0  0  0  0  0  0  0  0  0
   -2.6362   -1.2871   -1.0501 C   0  0  0  0  0  0  0  0  0  0  0  0
   -1.8588   -1.8882    0.1244 C   0  0  0  0  0  0  0  0  0  0  0  0
   -1.7352    2.8278   -0.0876 C   0  0  0  0  0  0  0  0  0  0  0  0
   -3.7539   -0.3515   -0.5929 C   0  0  0  0  0  0  0  0  0  0  0  0
    1.9403    1.5116    0.2891 C   0  0  0  0  0  0  0  0  0  0  0  0
   -0.7664   -2.8429   -0.3639 C   0  0  0  0  0  0  0  0  0  0  0  0
   -3.2310    0.8532    0.1643 C   0  0  0  0  0  0  0  0  0  0  0  0
    2.8954    0.8356   -0.6947 C   0  0  0  0  0  0  0  0  0  0  0  0
    0.0321   -3.4135    0.8069 C   0  0  0  0  0  0  0  0  0  0  0  0
    4.2061    0.4604   -0.0424 C   0  0  0  0  0  0  0  0  0  0  0  0
    0.0366    3.4509    0.9511 H   0  0  0  0  0  0  0  0  0  0  0  0
   -0.5564    1.8636    1.4343 H   0  0  0  0  0  0  0  0  0  0  0  0
    0.7859    2.5119   -1.2343 H   0  0  0  0  0  0  0  0  0  0  0  0
    0.1749    0.9246   -0.7787 H   0  0  0  0  0  0  0  0  0  0  0  0
   -3.0854   -2.0992   -1.6353 H   0  0  0  0  0  0  0  0  0  0  0  0
   -1.9423   -0.7693   -1.7217 H   0  0  0  0  0  0  0  0  0  0  0  0
   -2.5486   -2.4259    0.7862 H   0  0  0  0  0  0  0  0  0  0  0  0
   -1.3973   -1.0896    0.7170 H   0  0  0  0  0  0  0  0  0  0  0  0
   -2.4017    3.3103    0.6351 H   0  0  0  0  0  0  0  0  0  0  0  0
   -1.6010    3.5071   -0.9358 H   0  0  0  0  0  0  0  0  0  0  0  0
   -4.3145    0.0097   -1.4629 H   0  0  0  0  0  0  0  0  0  0  0  0
   -4.4604   -0.8890    0.0499 H   0  0  0  0  0  0  0  0  0  0  0  0
    2.3995    2.4264    0.6837 H   0  0  0  0  0  0  0  0  0  0  0  0
    1.7636    0.8511    1.1471 H   0  0  0  0  0  0  0  0  0  0  0  0
   -1.2236   -3.6587   -0.9379 H   0  0  0  0  0  0  0  0  0  0  0  0
   -0.0920   -2.3072   -1.0443 H   0  0  0  0  0  0  0  0  0  0  0  0
   -2.1837    1.3764   -1.5558 H   0  0  0  0  0  0  0  0  0  0  0  0
    2.4388   -0.0802   -1.0865 H   0  0  0  0  0  0  0  0  0  0  0  0
    3.1100    1.5134   -1.5283 H   0  0  0  0  0  0  0  0  0  0  0  0
    0.4931   -2.6016    1.3796 H   0  0  0  0  0  0  0  0  0  0  0  0
   -0.6291   -3.9661    1.4833 H   0  0  0  0  0  0  0  0  0  0  0  0
    0.6606   -5.0790   -0.1919 H   0  0  0  0  0  0  0  0  0  0  0  0
    1.5691   -4.7152    1.1126 H   0  0  0  0  0  0  0  0  0  0  0  0
    5.9076   -0.3660   -0.5148 H   0  0  0  0  0  0  0  0  0  0  0  0
  1 14  2  0  0  0  0
  2 17  1  0  0  0  0
  2 41  1  0  0  0  0
  3 17  2  0  0  0  0
  4 10  1  0  0  0  0
  4 14  1  0  0  0  0
  4 34  1  0  0  0  0
  5 16  1  0  0  0  0
  5 39  1  0  0  0  0
  5 40  1  0  0  0  0
  6  7  1  0  0  0  0
  6 10  1  0  0  0  0
  6 18  1  0  0  0  0
  6 19  1  0  0  0  0
  7 12  1  0  0  0  0
  7 20  1  0  0  0  0
  7 21  1  0  0  0  0
  8  9  1  0  0  0  0
  8 11  1  0  0  0  0
  8 22  1  0  0  0  0
  8 23  1  0  0  0  0
  9 13  1  0  0  0  0
  9 24  1  0  0  0  0
  9 25  1  0  0  0  0
 10 26  1  0  0  0  0
 10 27  1  0  0  0  0
 11 14  1  0  0  0  0
 11 28  1  0  0  0  0
 11 29  1  0  0  0  0
 12 15  1  0  0  0  0
 12 30  1  0  0  0  0
 12 31  1  0  0  0  0
 13 16  1  0  0  0  0
 13 32  1  0  0  0  0
 13 33  1  0  0  0  0
 15 17  1  0  0  0  0
 15 35  1  0  0  0  0
 15 36  1  0  0  0  0
 16 37  1  0  0  0  0
 16 38  1  0  0  0  0
M  END
> <PUBCHEM_COMPOUND_CID>
895

> <PUBCHEM_CONFORMER_RMSD>
1

> <PUBCHEM_CONFORMER_DIVERSEORDER>
1
113
31
239
206
257
184
293
6
143
130
266
3
19
111
131
164
147
100
78
21
108
247
259
22
229
67
135
8
12
245
216
89
307
149
179
136
85
66
309
15
183
47
295
112
61
64
260
223
271
76
73
242
59
7
156
304
129
264
110
9
173
301
104
313
97
90
116
124
185
292
267
109
289
43
175
11
176
36
128
55
316
191
38
286
298
60
274
291
96
303
141
18
194
34
159
294
151
308
98
53
77
25
224
69
32
26
106
2
152
65
283
297
148
169
228
92
261
167
81
275
269
68
10
287
114
50
63
58
75
17
219
231
270
192
16
235
296
154
238
28
237
105
306
290
82
198
230
62
166
318
14
254
214
272
132
46
280
27
234
249
282
102
211
13
233
48
248
107
94
227
276
178
140
142
262
299
122
201
83
187
255
177
52
35
252
217
232
162
41
33
39
315
181
213
80
314
311
70
244
171
170
222
163
160
86
72
186
317
23
150
265
193
121
208
281
54
133
137
302
49
71
273
253
126
225
157
20
123
24
45
37
5
134
188
87
305
127
4
204
288
215
258
99
220
168
125
51
91
138
278
40
165
202
115
190
212
199
205
226
153
29
118
174
56
189
42
203
310
161
117
196
158
277
300
241
119
218
103
146
279
312
210
180
93
250
256
155
74
182
30
246
145
207
144
44
285
197
268
57
209
240
284
79
101
84
243
120
200
95
139
251
263
172
195
221
88
236

> <PUBCHEM_MMFF94_PARTIAL_CHARGES>
15
1 -0.57
10 0.3
11 0.06
14 0.57
15 0.06
16 0.27
17 0.66
2 -0.65
3 -0.57
34 0.37
39 0.36
4 -0.73
40 0.36
41 0.5
5 -0.99

> <PUBCHEM_EFFECTIVE_ROTOR_COUNT>
12

> <PUBCHEM_PHARMACOPHORE_FEATURES>
9
1 1 acceptor
1 2 acceptor
1 3 acceptor
1 4 donor
1 5 cation
1 5 donor
3 2 3 17 anion
4 6 7 12 15 hydrophobe
4 8 9 11 13 hydrophobe

> <PUBCHEM_HEAVY_ATOM_COUNT>
17

> <PUBCHEM_ATOM_DEF_STEREO_COUNT>
0

> <PUBCHEM_ATOM_UDEF_STEREO_COUNT>
0

> <PUBCHEM_BOND_DEF_STEREO_COUNT>
0

> <PUBCHEM_BOND_UDEF_STEREO_COUNT>
0

> <PUBCHEM_ISOTOPIC_ATOM_COUNT>
0

> <PUBCHEM_COMPONENT_COUNT>
1

> <PUBCHEM_CACTVS_TAUTO_COUNT>
2

> <PUBCHEM_CONFORMER_ID>
0000037F00000001

> <PUBCHEM_MMFF94_ENERGY>
1.1873

> <PUBCHEM_FEATURE_SELFOVERLAP>
45.727

> <PUBCHEM_SHAPE_FINGERPRINT>
11458722 379 18410011035208625046
14022349 108 18048585208614410641
1420 336 17979642229948157643
14251740 79 18188478190377036634
14251745 187 18261115153632771618
14251757 5 18197198275468574246
14916288 52 17763180241737318662
15006816 218 18266742574355515990
16120349 306 18339939189551769426
16719943 64 18413109459767599122
167882 2 17764596808389456037
17859628 97 18411696586971803473
17977361 122 18411991242775851557
3084891 72 18410863122455683262
445580 42 17986397693956232682
5282940 2 18124875917686699058
602551 16 18409173190954653440
8809292 202 18335980870219164788

> <PUBCHEM_SHAPE_MULTIPOLES>
322.28
7.98
4.66
1
8.86
4.97
-0.07
-1.79
0.59
-1.24
-0.88
-0.03
0.03
-0.39

> <PUBCHEM_SHAPE_SELFOVERLAP>
600.025

> <PUBCHEM_SHAPE_VOLUME>
200.6

> <PUBCHEM_COORDINATE_TYPE>
2
5
10

$$$$

