854070
  -OEChem-06241222473D

 31 31  0     1  0  0  0  0  0999 V2000
   -1.1739   -0.5406   -0.0038 O   0  0  0  0  0  0  0  0  0  0  0  0
   -0.9914    1.7454   -0.0169 O   0  0  0  0  0  0  0  0  0  0  0  0
    0.8976    0.4162   -0.0396 N   0  0  0  0  0  0  0  0  0  0  0  0
    3.9364   -1.5544    0.1679 N   0  0  0  0  0  0  0  0  0  0  0  0
    3.0098   -0.5702   -0.3590 C   0  0  2  0  0  0  0  0  0  0  0  0
    3.1955    0.8160    0.2610 C   0  0  0  0  0  0  0  0  0  0  0  0
    1.5527   -0.8887   -0.0331 C   0  0  0  0  0  0  0  0  0  0  0  0
    1.8718    1.4979   -0.0572 C   0  0  0  0  0  0  0  0  0  0  0  0
   -2.6002   -0.4148    0.0195 C   0  0  0  0  0  0  0  0  0  0  0  0
   -0.4690    0.6331   -0.0208 C   0  0  0  0  0  0  0  0  0  0  0  0
   -3.0417    0.3438   -1.2311 C   0  0  0  0  0  0  0  0  0  0  0  0
   -3.1863   -1.8249    0.0277 C   0  0  0  0  0  0  0  0  0  0  0  0
   -3.0012    0.3413    1.2853 C   0  0  0  0  0  0  0  0  0  0  0  0
    3.1327   -0.4958   -1.4474 H   0  0  0  0  0  0  0  0  0  0  0  0
    4.0552    1.3578   -0.1444 H   0  0  0  0  0  0  0  0  0  0  0  0
    3.3205    0.7415    1.3491 H   0  0  0  0  0  0  0  0  0  0  0  0
    1.0890   -1.5626   -0.7602 H   0  0  0  0  0  0  0  0  0  0  0  0
    1.4260   -1.3121    0.9705 H   0  0  0  0  0  0  0  0  0  0  0  0
    1.6027    2.2762    0.6629 H   0  0  0  0  0  0  0  0  0  0  0  0
    1.8718    1.9301   -1.0638 H   0  0  0  0  0  0  0  0  0  0  0  0
    4.8915   -1.2902   -0.0690 H   0  0  0  0  0  0  0  0  0  0  0  0
    3.7668   -2.4577   -0.2722 H   0  0  0  0  0  0  0  0  0  0  0  0
   -2.5156   -0.0237   -2.1199 H   0  0  0  0  0  0  0  0  0  0  0  0
   -4.1170    0.2094   -1.3993 H   0  0  0  0  0  0  0  0  0  0  0  0
   -2.8863    1.4247   -1.1876 H   0  0  0  0  0  0  0  0  0  0  0  0
   -2.8314   -2.3876    0.8988 H   0  0  0  0  0  0  0  0  0  0  0  0
   -2.8610   -2.3855   -0.8562 H   0  0  0  0  0  0  0  0  0  0  0  0
   -4.2809   -1.8119    0.0462 H   0  0  0  0  0  0  0  0  0  0  0  0
   -2.8301    1.4198    1.2459 H   0  0  0  0  0  0  0  0  0  0  0  0
   -4.0737    0.2199    1.4793 H   0  0  0  0  0  0  0  0  0  0  0  0
   -2.4576   -0.0396    2.1577 H   0  0  0  0  0  0  0  0  0  0  0  0
  1  9  1  0  0  0  0
  1 10  1  0  0  0  0
  2 10  2  0  0  0  0
  3  7  1  0  0  0  0
  3  8  1  0  0  0  0
  3 10  1  0  0  0  0
  4  5  1  0  0  0  0
  4 21  1  0  0  0  0
  4 22  1  0  0  0  0
  5  6  1  0  0  0  0
  5  7  1  0  0  0  0
  5 14  1  0  0  0  0
  6  8  1  0  0  0  0
  6 15  1  0  0  0  0
  6 16  1  0  0  0  0
  7 17  1  0  0  0  0
  7 18  1  0  0  0  0
  8 19  1  0  0  0  0
  8 20  1  0  0  0  0
  9 11  1  0  0  0  0
  9 12  1  0  0  0  0
  9 13  1  0  0  0  0
 11 23  1  0  0  0  0
 11 24  1  0  0  0  0
 11 25  1  0  0  0  0
 12 26  1  0  0  0  0
 12 27  1  0  0  0  0
 12 28  1  0  0  0  0
 13 29  1  0  0  0  0
 13 30  1  0  0  0  0
 13 31  1  0  0  0  0
M  END
> <PUBCHEM_COMPOUND_CID>
854070

> <PUBCHEM_CONFORMER_RMSD>
0.6

> <PUBCHEM_CONFORMER_DIVERSEORDER>
1
15
5
8
11
12
14
13
9
7
3
10
6
4
2

> <PUBCHEM_MMFF94_PARTIAL_CHARGES>
11
1 -0.43
10 0.78
2 -0.57
21 0.36
22 0.36
3 -0.66
4 -0.99
5 0.27
7 0.3
8 0.3
9 0.28

> <PUBCHEM_EFFECTIVE_ROTOR_COUNT>
4

> <PUBCHEM_PHARMACOPHORE_FEATURES>
5
1 2 acceptor
1 4 cation
1 4 donor
4 9 11 12 13 hydrophobe
5 3 5 6 7 8 rings

> <PUBCHEM_HEAVY_ATOM_COUNT>
13

> <PUBCHEM_ATOM_DEF_STEREO_COUNT>
1

> <PUBCHEM_ATOM_UDEF_STEREO_COUNT>
0

> <PUBCHEM_BOND_DEF_STEREO_COUNT>
0

> <PUBCHEM_BOND_UDEF_STEREO_COUNT>
0

> <PUBCHEM_ISOTOPIC_ATOM_COUNT>
0

> <PUBCHEM_COMPONENT_COUNT>
1

> <PUBCHEM_CACTVS_TAUTO_COUNT>
1

> <PUBCHEM_CONFORMER_ID>
000D083600000001

> <PUBCHEM_MMFF94_ENERGY>
26.6101

> <PUBCHEM_FEATURE_SELFOVERLAP>
25.371

> <PUBCHEM_SHAPE_FINGERPRINT>
11543360 7 15913028916496867550
11769659 78 18410577279581407666
12032990 46 18413103935695396595
12251169 10 18187634838829987281
12932764 1 17847065484244803409
13296908 3 18342740697681435463
13571099 22 18413114956655233989
14144814 61 18260827090044236656
14325111 11 18410292480120531916
14445660 50 18187070742046600897
16945 1 18410854407877031028
18186145 218 18411696586739792202
19422 9 18334287639381203131
200 152 17968386658664573463
20201158 50 18411421734407655142
20279233 1 18272658930259722294
20281407 28 18412543210629830776
20281475 54 18410287017207058990
20645477 70 18410581707619116534
20711985 344 17631464525434679245
20871998 22 18044085977032200630
21501925 9 18338528516560541546
22169311 21 18339653260388003822
22485316 2 18411421691447257195
23463225 33 18408600340368151334
23557571 272 17274272647039822485
23559900 14 18339934783263378600
3248919 1 17676483951750377695
581208 293 18339083688048692712
8809292 202 18272365373603772922

> <PUBCHEM_SHAPE_MULTIPOLES>
245.83
6.84
1.63
0.87
1.47
0.16
-0.01
2.16
-0.18
0.27
-0.02
-0.74
-0.11
0.03

> <PUBCHEM_SHAPE_SELFOVERLAP>
488.169

> <PUBCHEM_SHAPE_VOLUME>
149.3

> <PUBCHEM_COORDINATE_TYPE>
2
5
10

$$$$

