9911
  -OEChem-06261204102D

 47 49  0     1  0  0  0  0  0999 V2000
   13.2089   -2.2197    0.0000 O   0  0  0  0  0  0  0  0  0  0  0  0
    2.0000   -0.5652    0.0000 O   0  5  0  0  0  0  0  0  0  0  0  0
    2.8660   -2.0652    0.0000 O   0  0  0  0  0  0  0  0  0  0  0  0
   13.2089   -0.4877    0.0000 N   0  0  0  0  0  0  0  0  0  0  0  0
    8.9282   -0.5652    0.0000 N   0  0  3  0  0  0  0  0  0  0  0  0
    2.8660   -1.0652    0.0000 N   0  3  0  0  0  0  0  0  0  0  0  0
   11.6357    1.2371    0.0000 C   0  0  3  0  0  0  0  0  0  0  0  0
   11.3769    0.2712    0.0000 C   0  0  3  0  0  0  0  0  0  0  0  0
   10.8991    2.2197    0.0000 C   0  0  0  0  0  0  0  0  0  0  0  0
   13.4677    0.4783    0.0000 C   0  0  0  0  0  0  0  0  0  0  0  0
    9.0327    0.4293    0.0000 C   0  0  0  0  0  0  0  0  0  0  0  0
    9.8417   -0.9720    0.0000 C   0  0  0  0  0  0  0  0  0  0  0  0
    8.0622   -1.0652    0.0000 C   0  0  0  0  0  0  0  0  0  0  0  0
   13.7089   -1.3537    0.0000 C   0  0  0  0  0  0  0  0  0  0  0  0
   14.7089   -1.3537    0.0000 C   0  0  0  0  0  0  0  0  0  0  0  0
    7.1962   -0.5652    0.0000 C   0  0  0  0  0  0  0  0  0  0  0  0
   15.2089   -2.2197    0.0000 C   0  0  0  0  0  0  0  0  0  0  0  0
    6.3301   -1.0652    0.0000 C   0  0  0  0  0  0  0  0  0  0  0  0
    5.4641   -0.5652    0.0000 C   0  0  0  0  0  0  0  0  0  0  0  0
    4.5981   -1.0652    0.0000 C   0  0  0  0  0  0  0  0  0  0  0  0
    5.4641    0.4348    0.0000 C   0  0  0  0  0  0  0  0  0  0  0  0
    3.7321   -0.5652    0.0000 C   0  0  0  0  0  0  0  0  0  0  0  0
    4.5981    0.9348    0.0000 C   0  0  0  0  0  0  0  0  0  0  0  0
    3.7321    0.4348    0.0000 C   0  0  0  0  0  0  0  0  0  0  0  0
   11.6073    0.6177    0.0000 H   0  0  0  0  0  0  0  0  0  0  0  0
   11.4659   -0.3424    0.0000 H   0  0  0  0  0  0  0  0  0  0  0  0
   11.2169    2.7521    0.0000 H   0  0  0  0  0  0  0  0  0  0  0  0
   10.2860    2.3117    0.0000 H   0  0  0  0  0  0  0  0  0  0  0  0
   14.0590    0.2918    0.0000 H   0  0  0  0  0  0  0  0  0  0  0  0
   13.6797    1.0609    0.0000 H   0  0  0  0  0  0  0  0  0  0  0  0
    8.4130    0.4104    0.0000 H   0  0  0  0  0  0  0  0  0  0  0  0
    8.9305    1.0408    0.0000 H   0  0  0  0  0  0  0  0  0  0  0  0
    9.5041   -1.4920    0.0000 H   0  0  0  0  0  0  0  0  0  0  0  0
   10.3025   -1.3868    0.0000 H   0  0  0  0  0  0  0  0  0  0  0  0
    7.6636   -1.5402    0.0000 H   0  0  0  0  0  0  0  0  0  0  0  0
    8.4607   -1.5402    0.0000 H   0  0  0  0  0  0  0  0  0  0  0  0
   15.2915   -1.1416    0.0000 H   0  0  0  0  0  0  0  0  0  0  0  0
   14.6012   -0.7431    0.0000 H   0  0  0  0  0  0  0  0  0  0  0  0
    7.1962    0.0548    0.0000 H   0  0  0  0  0  0  0  0  0  0  0  0
   14.6719   -2.5297    0.0000 H   0  0  0  0  0  0  0  0  0  0  0  0
   15.5189   -2.7566    0.0000 H   0  0  0  0  0  0  0  0  0  0  0  0
   15.7458   -1.9097    0.0000 H   0  0  0  0  0  0  0  0  0  0  0  0
    6.3301   -1.6852    0.0000 H   0  0  0  0  0  0  0  0  0  0  0  0
    4.5981   -1.6852    0.0000 H   0  0  0  0  0  0  0  0  0  0  0  0
    6.0010    0.7448    0.0000 H   0  0  0  0  0  0  0  0  0  0  0  0
    4.5981    1.5548    0.0000 H   0  0  0  0  0  0  0  0  0  0  0  0
    3.1951    0.7448    0.0000 H   0  0  0  0  0  0  0  0  0  0  0  0
  1 14  2  0  0  0  0
  2  6  1  0  0  0  0
  3  6  2  0  0  0  0
  4  8  1  0  0  0  0
  4 10  1  0  0  0  0
  4 14  1  0  0  0  0
  5 11  1  0  0  0  0
  5 12  1  0  0  0  0
  5 13  1  0  0  0  0
  6 22  1  0  0  0  0
  7  9  1  0  0  0  0
  7 10  1  0  0  0  0
  7 11  1  0  0  0  0
  7 25  1  0  0  0  0
  8  9  1  0  0  0  0
  8 12  1  0  0  0  0
  8 26  1  0  0  0  0
  9 27  1  0  0  0  0
  9 28  1  0  0  0  0
 10 29  1  0  0  0  0
 10 30  1  0  0  0  0
 11 31  1  0  0  0  0
 11 32  1  0  0  0  0
 12 33  1  0  0  0  0
 12 34  1  0  0  0  0
 13 16  1  0  0  0  0
 13 35  1  0  0  0  0
 13 36  1  0  0  0  0
 14 15  1  0  0  0  0
 15 17  1  0  0  0  0
 15 37  1  0  0  0  0
 15 38  1  0  0  0  0
 16 18  2  3  0  0  0
 16 39  1  0  0  0  0
 17 40  1  0  0  0  0
 17 41  1  0  0  0  0
 17 42  1  0  0  0  0
 18 19  1  0  0  0  0
 18 43  1  0  0  0  0
 19 20  2  0  0  0  0
 19 21  1  0  0  0  0
 20 22  1  0  0  0  0
 20 44  1  0  0  0  0
 21 23  2  0  0  0  0
 21 45  1  0  0  0  0
 22 24  2  0  0  0  0
 23 24  1  0  0  0  0
 23 46  1  0  0  0  0
 24 47  1  0  0  0  0
M  CHG  2   2  -1   6   1
M  END
> <PUBCHEM_COMPOUND_CID>
9911

> <PUBCHEM_COMPOUND_CANONICALIZED>
1

> <PUBCHEM_CACTVS_COMPLEXITY>
502

> <PUBCHEM_CACTVS_HBOND_ACCEPTOR>
4

> <PUBCHEM_CACTVS_HBOND_DONOR>
0

> <PUBCHEM_CACTVS_ROTATABLE_BOND>
4

> <PUBCHEM_CACTVS_SUBSKEYS>
AAADceB7MAAAAAAAAAAAAAAAAAAAAWAAAAA8QAAABYAAAAABAAAAHgAEAAAADSjBmAQywIMQQACJAiVSUwCCAAAgAgAoiAEIZIoIYCKA0ZGUIABghgCIyAcQgAAOAAAAQAAAAAAAAACAAAAAAAAAAAAAAA==

> <PUBCHEM_IUPAC_OPENEYE_NAME>
1-[3-[3-(3-nitrophenyl)allyl]-3,6-diazabicyclo[3.2.1]octan-6-yl]propan-1-one

> <PUBCHEM_IUPAC_CAS_NAME>
1-[3-[3-(3-nitrophenyl)prop-2-enyl]-3,6-diazabicyclo[3.2.1]octan-6-yl]-1-propanone

> <PUBCHEM_IUPAC_NAME>
1-[3-[3-(3-nitrophenyl)prop-2-enyl]-3,6-diazabicyclo[3.2.1]octan-6-yl]propan-1-one

> <PUBCHEM_IUPAC_SYSTEMATIC_NAME>
1-[3-[3-(3-nitrophenyl)prop-2-enyl]-3,6-diazabicyclo[3.2.1]octan-6-yl]propan-1-one

> <PUBCHEM_IUPAC_TRADITIONAL_NAME>
1-[3-[3-(3-nitrophenyl)allyl]-3,6-diazabicyclo[3.2.1]octan-6-yl]propan-1-one

> <PUBCHEM_IUPAC_INCHI>
InChI=1S/C18H23N3O3/c1-2-18(22)20-12-15-10-17(20)13-19(11-15)8-4-6-14-5-3-7-16(9-14)21(23)24/h3-7,9,15,17H,2,8,10-13H2,1H3

> <PUBCHEM_IUPAC_INCHIKEY>
NVXZSBFVRSTBNU-UHFFFAOYSA-N

> <PUBCHEM_XLOGP3_AA>
2.4

> <PUBCHEM_EXACT_MASS>
329.173942

> <PUBCHEM_MOLECULAR_FORMULA>
C18H23N3O3

> <PUBCHEM_MOLECULAR_WEIGHT>
329.39352

> <PUBCHEM_OPENEYE_CAN_SMILES>
CCC(=O)N1CC2CC1CN(C2)CC=CC3=CC(=CC=C3)[N+](=O)[O-]

> <PUBCHEM_OPENEYE_ISO_SMILES>
CCC(=O)N1CC2CC1CN(C2)CC=CC3=CC(=CC=C3)[N+](=O)[O-]

> <PUBCHEM_CACTVS_TPSA>
69.4

> <PUBCHEM_MONOISOTOPIC_WEIGHT>
329.173942

> <PUBCHEM_TOTAL_CHARGE>
0

> <PUBCHEM_HEAVY_ATOM_COUNT>
24

> <PUBCHEM_ATOM_DEF_STEREO_COUNT>
0

> <PUBCHEM_ATOM_UDEF_STEREO_COUNT>
0

> <PUBCHEM_BOND_DEF_STEREO_COUNT>
0

> <PUBCHEM_BOND_UDEF_STEREO_COUNT>
1

> <PUBCHEM_ISOTOPIC_ATOM_COUNT>
0

> <PUBCHEM_COMPONENT_COUNT>
1

> <PUBCHEM_CACTVS_TAUTO_COUNT>
1

> <PUBCHEM_COORDINATE_TYPE>
1
5
255

> <PUBCHEM_BONDANNOTATIONS>
16  18  1
19  20  8
19  21  8
20  22  8
21  23  8
22  24  8
23  24  8

$$$$

