140765
  -OEChem-07051213103D

 10 10  0     0  0  0  0  0  0999 V2000
    0.0557   -1.1632    0.0003 O   0  0  0  0  0  0  0  0  0  0  0  0
    1.9889    0.0624   -0.0003 O   0  0  0  0  0  0  0  0  0  0  0  0
   -0.1220    1.2372    0.0002 C   0  0  0  0  0  0  0  0  0  0  0  0
   -1.4379    0.5788   -0.0001 C   0  0  0  0  0  0  0  0  0  0  0  0
    0.7650    0.0151    0.0001 C   0  0  0  0  0  0  0  0  0  0  0  0
   -1.2496   -0.7302   -0.0003 C   0  0  0  0  0  0  0  0  0  0  0  0
    0.0372    1.8258   -0.9057 H   0  0  0  0  0  0  0  0  0  0  0  0
    0.0369    1.8256    0.9063 H   0  0  0  0  0  0  0  0  0  0  0  0
   -2.3941    1.0778   -0.0003 H   0  0  0  0  0  0  0  0  0  0  0  0
   -1.9883   -1.5117   -0.0005 H   0  0  0  0  0  0  0  0  0  0  0  0
  1  5  1  0  0  0  0
  1  6  1  0  0  0  0
  2  5  2  0  0  0  0
  3  4  1  0  0  0  0
  3  5  1  0  0  0  0
  3  7  1  0  0  0  0
  3  8  1  0  0  0  0
  4  6  2  0  0  0  0
  4  9  1  0  0  0  0
  6 10  1  0  0  0  0
M  END
> <PUBCHEM_COMPOUND_CID>
140765

> <PUBCHEM_CONFORMER_RMSD>
0.4

> <PUBCHEM_CONFORMER_DIVERSEORDER>
1

> <PUBCHEM_MMFF94_PARTIAL_CHARGES>
8
1 -0.23
10 0.15
2 -0.57
3 0.2
4 -0.29
5 0.66
6 -0.07
9 0.15

> <PUBCHEM_EFFECTIVE_ROTOR_COUNT>
0.4

> <PUBCHEM_PHARMACOPHORE_FEATURES>
2
1 2 acceptor
5 1 3 4 5 6 rings

> <PUBCHEM_HEAVY_ATOM_COUNT>
6

> <PUBCHEM_ATOM_DEF_STEREO_COUNT>
0

> <PUBCHEM_ATOM_UDEF_STEREO_COUNT>
0

> <PUBCHEM_BOND_DEF_STEREO_COUNT>
0

> <PUBCHEM_BOND_UDEF_STEREO_COUNT>
0

> <PUBCHEM_ISOTOPIC_ATOM_COUNT>
0

> <PUBCHEM_COMPONENT_COUNT>
1

> <PUBCHEM_CACTVS_TAUTO_COUNT>
2

> <PUBCHEM_CONFORMER_ID>
000225DD00000001

> <PUBCHEM_MMFF94_ENERGY>
0.7694

> <PUBCHEM_FEATURE_SELFOVERLAP>
10.148

> <PUBCHEM_SHAPE_FINGERPRINT>
139733 1 9295025560406445313
16714656 1 18410847768031703828
20096714 4 18338233898234942112
21015797 1 9294127263828120169
21040471 1 18266740379548034977
29004967 10 18201428164855557185
5943 1 5441154545501039481

> <PUBCHEM_SHAPE_MULTIPOLES>
111.74
1.87
1.2
0.58
0.52
0.06
0
-0.01
0
-0.2
0
-0.04
0.02
0

> <PUBCHEM_SHAPE_SELFOVERLAP>
228.649

> <PUBCHEM_SHAPE_VOLUME>
65.9

> <PUBCHEM_COORDINATE_TYPE>
2
5
10

$$$$

