51090960
  -OEChem-06241223013D

 41 43  0     1  0  0  0  0  0999 V2000
    3.1007    1.3795    1.0659 O   0  0  0  0  0  0  0  0  0  0  0  0
   -1.5082    1.6642   -1.2312 O   0  0  0  0  0  0  0  0  0  0  0  0
   -5.2613    0.5104   -0.4676 O   0  0  0  0  0  0  0  0  0  0  0  0
   -3.4156   -0.8584    0.0276 N   0  0  0  0  0  0  0  0  0  0  0  0
    0.2533    1.2836    0.2421 N   0  0  0  0  0  0  0  0  0  0  0  0
   -1.9804    0.7471    0.9244 C   0  0  2  0  0  0  0  0  0  0  0  0
   -2.1873   -0.7507    0.7804 C   0  0  0  0  0  0  0  0  0  0  0  0
   -3.3805    1.3474    0.8090 C   0  0  0  0  0  0  0  0  0  0  0  0
    1.3278    1.7340   -0.6141 C   0  0  2  0  0  0  0  0  0  0  0  0
   -1.0754    1.2890   -0.1448 C   0  0  0  0  0  0  0  0  0  0  0  0
   -4.1606    0.3155    0.0274 C   0  0  0  0  0  0  0  0  0  0  0  0
    1.8615    0.5960   -1.4800 C   0  0  0  0  0  0  0  0  0  0  0  0
    2.4656    2.3328    0.2063 C   0  0  0  0  0  0  0  0  0  0  0  0
   -3.8453   -2.1200   -0.5363 C   0  0  0  0  0  0  0  0  0  0  0  0
    2.8247   -0.2679   -0.7144 C   0  0  0  0  0  0  0  0  0  0  0  0
    3.3917    0.1718    0.4879 C   0  0  0  0  0  0  0  0  0  0  0  0
   -4.5780   -2.9636    0.4863 C   0  0  0  0  0  0  0  0  0  0  0  0
    3.1871   -1.5234   -1.2207 C   0  0  0  0  0  0  0  0  0  0  0  0
    4.2770   -0.6495    1.1913 C   0  0  0  0  0  0  0  0  0  0  0  0
    4.0809   -2.3366   -0.5233 C   0  0  0  0  0  0  0  0  0  0  0  0
    4.6225   -1.9012    0.6840 C   0  0  0  0  0  0  0  0  0  0  0  0
   -1.5475    0.9916    1.9020 H   0  0  0  0  0  0  0  0  0  0  0  0
   -2.3424   -1.2281    1.7536 H   0  0  0  0  0  0  0  0  0  0  0  0
   -1.3746   -1.2535    0.2469 H   0  0  0  0  0  0  0  0  0  0  0  0
   -3.8456    1.4379    1.7968 H   0  0  0  0  0  0  0  0  0  0  0  0
   -3.4120    2.3171    0.3050 H   0  0  0  0  0  0  0  0  0  0  0  0
    0.9151    2.5080   -1.2727 H   0  0  0  0  0  0  0  0  0  0  0  0
    1.0365   -0.0109   -1.8724 H   0  0  0  0  0  0  0  0  0  0  0  0
    2.4035    1.0179   -2.3359 H   0  0  0  0  0  0  0  0  0  0  0  0
    0.5038    0.8848    1.1425 H   0  0  0  0  0  0  0  0  0  0  0  0
    2.0868    3.1376    0.8465 H   0  0  0  0  0  0  0  0  0  0  0  0
    3.2299    2.7726   -0.4468 H   0  0  0  0  0  0  0  0  0  0  0  0
   -2.9719   -2.6484   -0.9316 H   0  0  0  0  0  0  0  0  0  0  0  0
   -4.5218   -1.9090   -1.3719 H   0  0  0  0  0  0  0  0  0  0  0  0
   -4.9161   -3.9015    0.0351 H   0  0  0  0  0  0  0  0  0  0  0  0
   -5.4545   -2.4367    0.8780 H   0  0  0  0  0  0  0  0  0  0  0  0
   -3.9301   -3.2080    1.3344 H   0  0  0  0  0  0  0  0  0  0  0  0
    2.7698   -1.8766   -2.1604 H   0  0  0  0  0  0  0  0  0  0  0  0
    4.7056   -0.3174    2.1332 H   0  0  0  0  0  0  0  0  0  0  0  0
    4.3523   -3.3102   -0.9209 H   0  0  0  0  0  0  0  0  0  0  0  0
    5.3149   -2.5359    1.2292 H   0  0  0  0  0  0  0  0  0  0  0  0
  1 13  1  0  0  0  0
  1 16  1  0  0  0  0
  2 10  2  0  0  0  0
  3 11  2  0  0  0  0
  4  7  1  0  0  0  0
  4 11  1  0  0  0  0
  4 14  1  0  0  0  0
  5  9  1  0  0  0  0
  5 10  1  0  0  0  0
  5 30  1  0  0  0  0
  6  7  1  0  0  0  0
  6  8  1  0  0  0  0
  6 10  1  0  0  0  0
  6 22  1  0  0  0  0
  7 23  1  0  0  0  0
  7 24  1  0  0  0  0
  8 11  1  0  0  0  0
  8 25  1  0  0  0  0
  8 26  1  0  0  0  0
  9 12  1  0  0  0  0
  9 13  1  0  0  0  0
  9 27  1  0  0  0  0
 12 15  1  0  0  0  0
 12 28  1  0  0  0  0
 12 29  1  0  0  0  0
 13 31  1  0  0  0  0
 13 32  1  0  0  0  0
 14 17  1  0  0  0  0
 14 33  1  0  0  0  0
 14 34  1  0  0  0  0
 15 16  1  0  0  0  0
 15 18  2  0  0  0  0
 16 19  2  0  0  0  0
 17 35  1  0  0  0  0
 17 36  1  0  0  0  0
 17 37  1  0  0  0  0
 18 20  1  0  0  0  0
 18 38  1  0  0  0  0
 19 21  1  0  0  0  0
 19 39  1  0  0  0  0
 20 21  2  0  0  0  0
 20 40  1  0  0  0  0
 21 41  1  0  0  0  0
M  END
> <PUBCHEM_COMPOUND_CID>
51090960

> <PUBCHEM_CONFORMER_RMSD>
0.8

> <PUBCHEM_CONFORMER_DIVERSEORDER>
1
53
100
54
60
91
15
52
102
88
31
50
18
71
25
65
101
43
90
76
34
29
20
93
62
28
61
26
70
24
103
73
79
69
72
46
35
68
27
86
14
67
30
17
4
55
87
40
89
38
42
37
85
13
45
32
23
58
75
22
66
41
21
98
99
97
63
94
48
33
84
57
82
77
5
49
44
78
6
64
56
7
74
16
59
83
10
80
96
8
51
2
36
9
47
81
19
11
39
95
92
12
3

> <PUBCHEM_MMFF94_PARTIAL_CHARGES>
25
1 -0.36
10 0.57
11 0.57
12 0.14
13 0.28
14 0.3
15 -0.14
16 0.08
18 -0.15
19 -0.15
2 -0.57
20 -0.15
21 -0.15
3 -0.57
30 0.37
38 0.15
39 0.15
4 -0.66
40 0.15
41 0.15
5 -0.73
6 0.06
7 0.3
8 0.06
9 0.3

> <PUBCHEM_EFFECTIVE_ROTOR_COUNT>
5.6

> <PUBCHEM_PHARMACOPHORE_FEATURES>
7
1 1 acceptor
1 2 acceptor
1 3 acceptor
1 5 donor
5 4 6 7 8 11 rings
6 1 9 12 13 15 16 rings
6 15 16 18 19 20 21 rings

> <PUBCHEM_HEAVY_ATOM_COUNT>
21

> <PUBCHEM_ATOM_DEF_STEREO_COUNT>
0

> <PUBCHEM_ATOM_UDEF_STEREO_COUNT>
2

> <PUBCHEM_BOND_DEF_STEREO_COUNT>
0

> <PUBCHEM_BOND_UDEF_STEREO_COUNT>
0

> <PUBCHEM_ISOTOPIC_ATOM_COUNT>
0

> <PUBCHEM_COMPONENT_COUNT>
1

> <PUBCHEM_CACTVS_TAUTO_COUNT>
4

> <PUBCHEM_CONFORMER_ID>
030B961000000001

> <PUBCHEM_MMFF94_ENERGY>
44.1298

> <PUBCHEM_FEATURE_SELFOVERLAP>
35.549

> <PUBCHEM_SHAPE_FINGERPRINT>
10042902 136 18339632430398466590
10670039 82 8142085373167199658
11405975 8 18334570248677855105
11595378 159 14129326404012571507
11720765 8 12174807068947624840
11796584 16 18341898531862026730
12363563 72 18341324604410046580
12410352 35 18413392054955125587
12422481 6 18117813622027661579
12555020 224 18340211877552958063
12596599 1 18261942029163255451
12596602 18 14129356086484016279
12633257 1 18189038928026700721
12892183 10 17531537567803006568
13255334 9 18410570665205457115
13533116 47 18260267443269092065
13583140 156 17531256006589645025
1420 369 18338230475462908179
14251751 18 18411985762477060682
14341114 328 14273751654599321410
14429115 67 18339360752009886687
14848178 5 18410018714921815335
151778 21 11455903467736066657
15210252 30 9294994787499513710
15239154 128 10015590501701598711
15352361 1 18410292540466624730
15422964 175 18044092578312220300
15537594 2 18270660026758118699
16752209 62 16916792936747800045
17492 89 18337387137064816311
17959699 21 9583520927524310246
1813 80 17704347762716358909
18186145 218 14476962246814975077
19141452 34 18339077194031955825
19862831 5 14836117767040478772
20281475 54 18412537700176526445
20403669 9 18339924930181386922
20626108 58 18342746169443416522
20645477 70 18343019965108473840
21315759 227 17770223760760233635
21503847 285 8141544408818452452
22646028 28 18341891891911048322
23559900 14 18334859402607860273
2637199 183 9511457844897953656
316301 35 18266462190891855562
339767 52 18409739473016914055
38570 142 14202546096827813210
44062 13 18272933830338166407
46194498 28 12607109764552976538
463206 1 18130224981542190738
5104073 3 18260542295495637353
5281201 14 11167951276626464768
633830 44 16702299040507672605
6823239 73 17822551885863408070
76465 3 18343025492778707202
7808743 9 8717954575371882854
88748 71 18342730798072579395
8988823 20 17676781898117040297
960060 61 17632289082067145878
9709674 26 18270394980210527219

> <PUBCHEM_SHAPE_MULTIPOLES>
404.6
11.21
2.83
1.19
4.64
1.2
-0.11
6.78
1.24
0.36
-0.04
-0.7
-0.03
0.21

> <PUBCHEM_SHAPE_SELFOVERLAP>
861.241

> <PUBCHEM_SHAPE_VOLUME>
224.6

> <PUBCHEM_COORDINATE_TYPE>
2
5
10

$$$$

