3918
  -OEChem-06251223463D

 42 45  0     1  0  0  0  0  0999 V2000
    4.3767   -1.3559   -0.6167 O   0  0  0  0  0  0  0  0  0  0  0  0
   -1.8289    1.8309   -0.6029 N   0  0  2  0  0  0  0  0  0  0  0  0
   -0.5355   -0.7727   -0.2306 C   0  0  2  0  0  0  0  0  0  0  0  0
   -1.4724   -0.1499    0.8440 C   0  0  1  0  0  0  0  0  0  0  0  0
   -1.3902    1.3869    0.7350 C   0  0  1  0  0  0  0  0  0  0  0  0
   -0.9428   -0.2471   -1.6355 C   0  0  0  0  0  0  0  0  0  0  0  0
   -0.6650   -2.3209   -0.1708 C   0  0  0  0  0  0  0  0  0  0  0  0
   -2.9213   -0.6622    0.7623 C   0  0  0  0  0  0  0  0  0  0  0  0
    0.9105   -0.3034    0.0360 C   0  0  0  0  0  0  0  0  0  0  0  0
    0.0284    1.8202    1.1659 C   0  0  0  0  0  0  0  0  0  0  0  0
   -1.0360    1.2839   -1.7050 C   0  0  0  0  0  0  0  0  0  0  0  0
   -2.1041   -2.8404   -0.1931 C   0  0  0  0  0  0  0  0  0  0  0  0
   -2.9703   -2.1810    0.8695 C   0  0  0  0  0  0  0  0  0  0  0  0
    1.1515    0.9333    0.6768 C   0  0  0  0  0  0  0  0  0  0  0  0
    2.0184   -1.0503   -0.4052 C   0  0  0  0  0  0  0  0  0  0  0  0
   -1.9662    3.2794   -0.7160 C   0  0  0  0  0  0  0  0  0  0  0  0
    2.4715    1.3624    0.8987 C   0  0  0  0  0  0  0  0  0  0  0  0
    3.3244   -0.6082   -0.1842 C   0  0  0  0  0  0  0  0  0  0  0  0
    3.5513    0.5951    0.4717 C   0  0  0  0  0  0  0  0  0  0  0  0
   -1.1030   -0.4393    1.8410 H   0  0  0  0  0  0  0  0  0  0  0  0
   -2.0940    1.8132    1.4632 H   0  0  0  0  0  0  0  0  0  0  0  0
   -1.9166   -0.6556   -1.9294 H   0  0  0  0  0  0  0  0  0  0  0  0
   -0.2316   -0.5932   -2.3969 H   0  0  0  0  0  0  0  0  0  0  0  0
   -0.1846   -2.6892    0.7463 H   0  0  0  0  0  0  0  0  0  0  0  0
   -0.1340   -2.7881   -1.0089 H   0  0  0  0  0  0  0  0  0  0  0  0
   -3.4062   -0.3492   -0.1692 H   0  0  0  0  0  0  0  0  0  0  0  0
   -3.5104   -0.2278    1.5792 H   0  0  0  0  0  0  0  0  0  0  0  0
    0.0639    1.7975    2.2643 H   0  0  0  0  0  0  0  0  0  0  0  0
    0.2252    2.8581    0.8765 H   0  0  0  0  0  0  0  0  0  0  0  0
   -0.0324    1.7252   -1.7313 H   0  0  0  0  0  0  0  0  0  0  0  0
   -1.5080    1.5449   -2.6607 H   0  0  0  0  0  0  0  0  0  0  0  0
   -2.0986   -3.9254   -0.0352 H   0  0  0  0  0  0  0  0  0  0  0  0
   -2.5467   -2.6766   -1.1822 H   0  0  0  0  0  0  0  0  0  0  0  0
   -4.0056   -2.5257    0.7691 H   0  0  0  0  0  0  0  0  0  0  0  0
   -2.6274   -2.4897    1.8648 H   0  0  0  0  0  0  0  0  0  0  0  0
    1.8731   -1.9858   -0.9382 H   0  0  0  0  0  0  0  0  0  0  0  0
   -1.0029    3.7995   -0.7057 H   0  0  0  0  0  0  0  0  0  0  0  0
   -2.5851    3.6779    0.0952 H   0  0  0  0  0  0  0  0  0  0  0  0
   -2.4762    3.5391   -1.6506 H   0  0  0  0  0  0  0  0  0  0  0  0
    2.6611    2.3060    1.4051 H   0  0  0  0  0  0  0  0  0  0  0  0
    4.5646    0.9446    0.6482 H   0  0  0  0  0  0  0  0  0  0  0  0
    4.0385   -2.1582   -1.0501 H   0  0  0  0  0  0  0  0  0  0  0  0
  1 18  1  0  0  0  0
  1 42  1  0  0  0  0
  2  5  1  0  0  0  0
  2 11  1  0  0  0  0
  2 16  1  0  0  0  0
  3  4  1  0  0  0  0
  3  6  1  0  0  0  0
  3  7  1  0  0  0  0
  3  9  1  0  0  0  0
  4  5  1  0  0  0  0
  4  8  1  0  0  0  0
  4 20  1  0  0  0  0
  5 10  1  0  0  0  0
  5 21  1  0  0  0  0
  6 11  1  0  0  0  0
  6 22  1  0  0  0  0
  6 23  1  0  0  0  0
  7 12  1  0  0  0  0
  7 24  1  0  0  0  0
  7 25  1  0  0  0  0
  8 13  1  0  0  0  0
  8 26  1  0  0  0  0
  8 27  1  0  0  0  0
  9 14  2  0  0  0  0
  9 15  1  0  0  0  0
 10 14  1  0  0  0  0
 10 28  1  0  0  0  0
 10 29  1  0  0  0  0
 11 30  1  0  0  0  0
 11 31  1  0  0  0  0
 12 13  1  0  0  0  0
 12 32  1  0  0  0  0
 12 33  1  0  0  0  0
 13 34  1  0  0  0  0
 13 35  1  0  0  0  0
 14 17  1  0  0  0  0
 15 18  2  0  0  0  0
 15 36  1  0  0  0  0
 16 37  1  0  0  0  0
 16 38  1  0  0  0  0
 16 39  1  0  0  0  0
 17 19  2  0  0  0  0
 17 40  1  0  0  0  0
 18 19  1  0  0  0  0
 19 41  1  0  0  0  0
M  END
> <PUBCHEM_COMPOUND_CID>
3918

> <PUBCHEM_CONFORMER_RMSD>
0.6

> <PUBCHEM_CONFORMER_DIVERSEORDER>
1
3
2
4

> <PUBCHEM_MMFF94_PARTIAL_CHARGES>
17
1 -0.53
10 0.14
11 0.27
14 -0.14
15 -0.15
16 0.27
17 -0.15
18 0.08
19 -0.15
2 -0.81
3 0.14
36 0.15
40 0.15
41 0.15
42 0.45
5 0.27
9 -0.14

> <PUBCHEM_EFFECTIVE_ROTOR_COUNT>
1.6

> <PUBCHEM_PHARMACOPHORE_FEATURES>
6
1 1 donor
1 2 cation
6 2 3 4 5 6 11 rings
6 3 4 5 9 10 14 rings
6 3 4 7 8 12 13 rings
6 9 14 15 17 18 19 rings

> <PUBCHEM_HEAVY_ATOM_COUNT>
19

> <PUBCHEM_ATOM_DEF_STEREO_COUNT>
0

> <PUBCHEM_ATOM_UDEF_STEREO_COUNT>
3

> <PUBCHEM_BOND_DEF_STEREO_COUNT>
0

> <PUBCHEM_BOND_UDEF_STEREO_COUNT>
0

> <PUBCHEM_ISOTOPIC_ATOM_COUNT>
0

> <PUBCHEM_COMPONENT_COUNT>
1

> <PUBCHEM_CACTVS_TAUTO_COUNT>
3

> <PUBCHEM_CONFORMER_ID>
00000F4E00000001

> <PUBCHEM_MMFF94_ENERGY>
53.8664

> <PUBCHEM_FEATURE_SELFOVERLAP>
32.047

> <PUBCHEM_SHAPE_FINGERPRINT>
10165383 225 17838606009269238636
10863032 1 18115582626296384531
10948715 1 17981328103343623765
11132069 177 18261674753380028410
11322862 65 18339924917264641727
12011746 2 18409728491338867591
12173636 292 18268996551601790548
12403814 3 18343018844058602312
12423570 1 10370455568873852309
12633257 1 18041539417259157531
12714826 92 18342174475216356658
12730499 353 17693093385513368781
13024252 1 14189284993572924629
13132413 78 17976810991996689509
13140716 1 18262511485981801610
13464514 151 17399797592897558541
13681431 1 17484523326429624733
14181834 199 17264978286387539711
14223421 5 18336549313683287760
14790565 3 17255678595302093849
14817 1 17897693614053771229
16945 1 18413670214401297265
17357779 13 18194703483321549391
17844478 74 18339923723168755464
1813 80 17844809174794825399
19049666 15 18336552715292293170
19868273 325 18198630925654304843
20645476 183 18126849528152250772
21330990 113 18341606045111382515
21524375 3 17769388445286262245
22182313 1 18186525393533790056
22802520 49 18335714822933779728
22907989 373 18272367576911200037
2334 1 17974569091734871218
23419403 2 17827100423712373385
23493267 7 18197499730284947152
23557571 272 18058178236770558028
23559900 14 18116433842609534918
238 59 17407711826460598941
25 1 17833276697778710404
2748010 2 18187655695370693448
3084891 72 17832434472340760760
46194498 28 16825916901028036871
598444 67 18335979860864621419
6049 1 18335141973344218920
6442390 28 18053947526791893221
6992083 37 18119516649089490779
7364860 26 17260745149482774723
74978 22 18339089297439394768
81228 2 18202005395638658025
84936 182 17329157282259154929
8809292 202 18408315597285637178
9981440 41 16884754151778430336

> <PUBCHEM_SHAPE_MULTIPOLES>
380.16
5.2
3.06
1.28
4.86
0.74
-0.3
-2.26
0.52
-2.35
-0.37
-0.4
0.4
1.1

> <PUBCHEM_SHAPE_SELFOVERLAP>
828.586

> <PUBCHEM_SHAPE_VOLUME>
204.3

> <PUBCHEM_COORDINATE_TYPE>
2
5
10

$$$$

