7847026
  -OEChem-06241222482D

 44 46  0     0  0  0  0  0  0999 V2000
    4.6783    2.8281    0.0000 S   0  0  0  0  0  0  0  0  0  0  0  0
    9.2619   -1.4407    0.0000 O   0  0  0  0  0  0  0  0  0  0  0  0
    8.2619    0.2913    0.0000 O   0  0  0  0  0  0  0  0  0  0  0  0
    8.2619    2.0234    0.0000 O   0  0  0  0  0  0  0  0  0  0  0  0
   10.7619   -0.5747    0.0000 N   0  0  0  0  0  0  0  0  0  0  0  0
   12.6001    0.0456    0.0000 N   0  0  0  0  0  0  0  0  0  0  0  0
    4.6783    1.2187    0.0000 N   0  0  0  0  0  0  0  0  0  0  0  0
   11.2619   -1.4407    0.0000 C   0  0  0  0  0  0  0  0  0  0  0  0
   10.3959   -1.9407    0.0000 C   0  0  0  0  0  0  0  0  0  0  0  0
   12.0050   -2.1098    0.0000 C   0  0  0  0  0  0  0  0  0  0  0  0
   10.6038   -2.9189    0.0000 C   0  0  0  0  0  0  0  0  0  0  0  0
   11.5983   -3.0234    0.0000 C   0  0  0  0  0  0  0  0  0  0  0  0
   11.9310   -0.6976    0.0000 C   0  0  0  0  0  0  0  0  0  0  0  0
    9.7619   -0.5747    0.0000 C   0  0  0  0  0  0  0  0  0  0  0  0
    9.2619    0.2913    0.0000 C   0  0  0  0  0  0  0  0  0  0  0  0
    6.7619    1.1574    0.0000 C   0  0  0  0  0  0  0  0  0  0  0  0
    6.2619    2.0234    0.0000 C   0  0  0  0  0  0  0  0  0  0  0  0
    7.7619    1.1574    0.0000 C   0  0  0  0  0  0  0  0  0  0  0  0
    5.2619    2.0234    0.0000 C   0  0  0  0  0  0  0  0  0  0  0  0
    3.7320    2.5234    0.0000 C   0  0  0  0  0  0  0  0  0  0  0  0
    3.7320    1.5234    0.0000 C   0  0  0  0  0  0  0  0  0  0  0  0
    2.8660    3.0234    0.0000 C   0  0  0  0  0  0  0  0  0  0  0  0
    2.8660    1.0234    0.0000 C   0  0  0  0  0  0  0  0  0  0  0  0
    2.0000    2.5234    0.0000 C   0  0  0  0  0  0  0  0  0  0  0  0
    2.0000    1.5234    0.0000 C   0  0  0  0  0  0  0  0  0  0  0  0
   12.5420   -2.4198    0.0000 H   0  0  0  0  0  0  0  0  0  0  0  0
   12.3695   -1.6082    0.0000 H   0  0  0  0  0  0  0  0  0  0  0  0
   10.1437   -1.3743    0.0000 H   0  0  0  0  0  0  0  0  0  0  0  0
    9.8062   -2.1323    0.0000 H   0  0  0  0  0  0  0  0  0  0  0  0
   11.4694   -3.6298    0.0000 H   0  0  0  0  0  0  0  0  0  0  0  0
   12.1879   -3.2150    0.0000 H   0  0  0  0  0  0  0  0  0  0  0  0
    9.9872   -2.9837    0.0000 H   0  0  0  0  0  0  0  0  0  0  0  0
   10.6038   -3.5389    0.0000 H   0  0  0  0  0  0  0  0  0  0  0  0
   11.0719   -0.0378    0.0000 H   0  0  0  0  0  0  0  0  0  0  0  0
    9.8445    0.5034    0.0000 H   0  0  0  0  0  0  0  0  0  0  0  0
    9.1542    0.9019    0.0000 H   0  0  0  0  0  0  0  0  0  0  0  0
    6.1793    0.9453    0.0000 H   0  0  0  0  0  0  0  0  0  0  0  0
    6.8695    0.5468    0.0000 H   0  0  0  0  0  0  0  0  0  0  0  0
    6.8445    2.2354    0.0000 H   0  0  0  0  0  0  0  0  0  0  0  0
    6.1542    2.6340    0.0000 H   0  0  0  0  0  0  0  0  0  0  0  0
    2.8660    3.6434    0.0000 H   0  0  0  0  0  0  0  0  0  0  0  0
    2.8660    0.4034    0.0000 H   0  0  0  0  0  0  0  0  0  0  0  0
    1.4631    2.8334    0.0000 H   0  0  0  0  0  0  0  0  0  0  0  0
    1.4631    1.2134    0.0000 H   0  0  0  0  0  0  0  0  0  0  0  0
  1 19  1  0  0  0  0
  1 20  1  0  0  0  0
  2 14  2  0  0  0  0
  3 15  1  0  0  0  0
  3 18  1  0  0  0  0
  4 18  2  0  0  0  0
  5  8  1  0  0  0  0
  5 14  1  0  0  0  0
  5 34  1  0  0  0  0
  6 13  3  0  0  0  0
  7 19  2  0  0  0  0
  7 21  1  0  0  0  0
  8  9  1  0  0  0  0
  8 10  1  0  0  0  0
  8 13  1  0  0  0  0
  9 11  1  0  0  0  0
  9 28  1  0  0  0  0
  9 29  1  0  0  0  0
 10 12  1  0  0  0  0
 10 26  1  0  0  0  0
 10 27  1  0  0  0  0
 11 12  1  0  0  0  0
 11 32  1  0  0  0  0
 11 33  1  0  0  0  0
 12 30  1  0  0  0  0
 12 31  1  0  0  0  0
 14 15  1  0  0  0  0
 15 35  1  0  0  0  0
 15 36  1  0  0  0  0
 16 17  1  0  0  0  0
 16 18  1  0  0  0  0
 16 37  1  0  0  0  0
 16 38  1  0  0  0  0
 17 19  1  0  0  0  0
 17 39  1  0  0  0  0
 17 40  1  0  0  0  0
 20 21  1  0  0  0  0
 20 22  2  0  0  0  0
 21 23  2  0  0  0  0
 22 24  1  0  0  0  0
 22 41  1  0  0  0  0
 23 25  1  0  0  0  0
 23 42  1  0  0  0  0
 24 25  2  0  0  0  0
 24 43  1  0  0  0  0
 25 44  1  0  0  0  0
M  END
> <PUBCHEM_COMPOUND_CID>
7847026

> <PUBCHEM_COMPOUND_CANONICALIZED>
1

> <PUBCHEM_CACTVS_COMPLEXITY>
553

> <PUBCHEM_CACTVS_HBOND_ACCEPTOR>
6

> <PUBCHEM_CACTVS_HBOND_DONOR>
1

> <PUBCHEM_CACTVS_ROTATABLE_BOND>
7

> <PUBCHEM_CACTVS_SUBSKEYS>
AAADceB7MABAAAAAAAAAAAAAAAAAAeIAAAAwAAAAAAAAAFgB8AAAHgQQAAAADIih1gIwybLIFAi8BSXyXAKD8KBhCjhImD1wZJgKoLLgkZWHIAhklAD4yA80AAAOAAAAAAAAAQAAAAAAAAACAAAAAAAAAA==

> <PUBCHEM_IUPAC_OPENEYE_NAME>
[2-[(1-cyanocyclopentyl)amino]-2-oxo-ethyl] 3-(1,3-benzothiazol-2-yl)propanoate

> <PUBCHEM_IUPAC_CAS_NAME>
3-(1,3-benzothiazol-2-yl)propanoic acid [2-[(1-cyanocyclopentyl)amino]-2-oxoethyl] ester

> <PUBCHEM_IUPAC_NAME>
[2-[(1-cyanocyclopentyl)amino]-2-oxoethyl] 3-(1,3-benzothiazol-2-yl)propanoate

> <PUBCHEM_IUPAC_SYSTEMATIC_NAME>
[2-[(1-cyanocyclopentyl)amino]-2-oxidanylidene-ethyl] 3-(1,3-benzothiazol-2-yl)propanoate

> <PUBCHEM_IUPAC_TRADITIONAL_NAME>
3-(1,3-benzothiazol-2-yl)propionic acid [2-[(1-cyanocyclopentyl)amino]-2-keto-ethyl] ester

> <PUBCHEM_IUPAC_INCHI>
InChI=1S/C18H19N3O3S/c19-12-18(9-3-4-10-18)21-15(22)11-24-17(23)8-7-16-20-13-5-1-2-6-14(13)25-16/h1-2,5-6H,3-4,7-11H2,(H,21,22)

> <PUBCHEM_IUPAC_INCHIKEY>
VMXHLMNVJNVPAU-UHFFFAOYSA-N

> <PUBCHEM_XLOGP3_AA>
2.7

> <PUBCHEM_EXACT_MASS>
357.114712

> <PUBCHEM_MOLECULAR_FORMULA>
C18H19N3O3S

> <PUBCHEM_MOLECULAR_WEIGHT>
357.42676

> <PUBCHEM_OPENEYE_CAN_SMILES>
C1CCC(C1)(C#N)NC(=O)COC(=O)CCC2=NC3=CC=CC=C3S2

> <PUBCHEM_OPENEYE_ISO_SMILES>
C1CCC(C1)(C#N)NC(=O)COC(=O)CCC2=NC3=CC=CC=C3S2

> <PUBCHEM_CACTVS_TPSA>
120

> <PUBCHEM_MONOISOTOPIC_WEIGHT>
357.114712

> <PUBCHEM_TOTAL_CHARGE>
0

> <PUBCHEM_HEAVY_ATOM_COUNT>
25

> <PUBCHEM_ATOM_DEF_STEREO_COUNT>
0

> <PUBCHEM_ATOM_UDEF_STEREO_COUNT>
0

> <PUBCHEM_BOND_DEF_STEREO_COUNT>
0

> <PUBCHEM_BOND_UDEF_STEREO_COUNT>
0

> <PUBCHEM_ISOTOPIC_ATOM_COUNT>
0

> <PUBCHEM_COMPONENT_COUNT>
1

> <PUBCHEM_CACTVS_TAUTO_COUNT>
4

> <PUBCHEM_COORDINATE_TYPE>
1
5
255

> <PUBCHEM_BONDANNOTATIONS>
1  19  8
1  20  8
20  21  8
20  22  8
21  23  8
22  24  8
23  25  8
24  25  8
7  19  8
7  21  8

$$$$

