441117
  -OEChem-07051212522D

 32 33  0     1  0  0  0  0  0999 V2000
    2.5369    2.0000    0.0000 Cl  0  0  0  0  0  0  0  0  0  0  0  0
    3.9030    2.3660    0.0000 Cl  0  0  0  0  0  0  0  0  0  0  0  0
    2.9030    0.6340    0.0000 Cl  0  0  0  0  0  0  0  0  0  0  0  0
    4.2690   -3.0000    0.0000 Cl  0  0  0  0  0  0  0  0  0  0  0  0
    7.7331    3.0000    0.0000 Cl  0  0  0  0  0  0  0  0  0  0  0  0
    2.5369    0.0000    0.0000 O   0  0  0  0  0  0  0  0  0  0  0  0
    2.5369   -2.0000    0.0000 O   0  0  0  0  0  0  0  0  0  0  0  0
    4.2690    1.0000    0.0000 C   0  0  3  0  0  0  0  0  0  0  0  0
    4.2690    0.0000    0.0000 C   0  0  0  0  0  0  0  0  0  0  0  0
    3.4030   -0.5000    0.0000 C   0  0  1  0  0  0  0  0  0  0  0  0
    3.4030   -1.5000    0.0000 C   0  0  1  0  0  0  0  0  0  0  0  0
    5.1350    1.5000    0.0000 C   0  0  0  0  0  0  0  0  0  0  0  0
    5.1350   -0.5000    0.0000 C   0  0  0  0  0  0  0  0  0  0  0  0
    3.4030    1.5000    0.0000 C   0  0  0  0  0  0  0  0  0  0  0  0
    4.2690   -2.0000    0.0000 C   0  0  0  0  0  0  0  0  0  0  0  0
    5.1350   -1.5000    0.0000 C   0  0  0  0  0  0  0  0  0  0  0  0
    6.0010    1.0000    0.0000 C   0  0  0  0  0  0  0  0  0  0  0  0
    5.1350    2.5000    0.0000 C   0  0  0  0  0  0  0  0  0  0  0  0
    6.8671    1.5000    0.0000 C   0  0  0  0  0  0  0  0  0  0  0  0
    6.0010    3.0000    0.0000 C   0  0  0  0  0  0  0  0  0  0  0  0
    6.8671    2.5000    0.0000 C   0  0  0  0  0  0  0  0  0  0  0  0
    4.2690    1.8500    0.0000 H   0  0  0  0  0  0  0  0  0  0  0  0
    3.4030    0.1200    0.0000 H   0  0  0  0  0  0  0  0  0  0  0  0
    3.4030   -2.1200    0.0000 H   0  0  0  0  0  0  0  0  0  0  0  0
    5.6720   -0.1900    0.0000 H   0  0  0  0  0  0  0  0  0  0  0  0
    5.6720   -1.8100    0.0000 H   0  0  0  0  0  0  0  0  0  0  0  0
    6.0010    0.3800    0.0000 H   0  0  0  0  0  0  0  0  0  0  0  0
    4.5981    2.8100    0.0000 H   0  0  0  0  0  0  0  0  0  0  0  0
    2.0000   -0.3100    0.0000 H   0  0  0  0  0  0  0  0  0  0  0  0
    2.5369   -2.6200    0.0000 H   0  0  0  0  0  0  0  0  0  0  0  0
    7.4040    1.1900    0.0000 H   0  0  0  0  0  0  0  0  0  0  0  0
    6.0010    3.6200    0.0000 H   0  0  0  0  0  0  0  0  0  0  0  0
  1 14  1  0  0  0  0
  2 14  1  0  0  0  0
  3 14  1  0  0  0  0
  4 15  1  0  0  0  0
  5 21  1  0  0  0  0
 10  6  1  1  0  0  0
  6 29  1  0  0  0  0
 11  7  1  1  0  0  0
  7 30  1  0  0  0  0
  8  9  1  0  0  0  0
  8 12  1  0  0  0  0
  8 14  1  0  0  0  0
  8 22  1  0  0  0  0
  9 10  1  0  0  0  0
  9 13  2  0  0  0  0
 10 11  1  0  0  0  0
 10 23  1  0  0  0  0
 11 15  1  0  0  0  0
 11 24  1  0  0  0  0
 12 17  2  0  0  0  0
 12 18  1  0  0  0  0
 13 16  1  0  0  0  0
 13 25  1  0  0  0  0
 15 16  2  0  0  0  0
 16 26  1  0  0  0  0
 17 19  1  0  0  0  0
 17 27  1  0  0  0  0
 18 20  2  0  0  0  0
 18 28  1  0  0  0  0
 19 21  2  0  0  0  0
 19 31  1  0  0  0  0
 20 21  1  0  0  0  0
 20 32  1  0  0  0  0
M  END
> <PUBCHEM_COMPOUND_CID>
441117

> <PUBCHEM_COMPOUND_CANONICALIZED>
1

> <PUBCHEM_CACTVS_COMPLEXITY>
435

> <PUBCHEM_CACTVS_HBOND_ACCEPTOR>
2

> <PUBCHEM_CACTVS_HBOND_DONOR>
2

> <PUBCHEM_CACTVS_ROTATABLE_BOND>
2

> <PUBCHEM_CACTVS_SUBSKEYS>
AAADccBwMAAHAAAAAAAAAAAAAAAAAAAAAAAwQAAAAAAAAAABAAAAGgIACAAADRagmKIwAIAAAgCAAiBCAAACAAAgBQAIiAAAA4gJNCKBExCAcAAkwAAJmAeAwPAOhAAAAAAAAAAIAAAAAAAAAAAAAAAAAA==

> <PUBCHEM_IUPAC_OPENEYE_NAME>
(1S,2S)-3-chloro-6-[2,2,2-trichloro-1-(4-chlorophenyl)ethyl]cyclohexa-3,5-diene-1,2-diol

> <PUBCHEM_IUPAC_CAS_NAME>
(1S,2S)-3-chloro-6-[2,2,2-trichloro-1-(4-chlorophenyl)ethyl]cyclohexa-3,5-diene-1,2-diol

> <PUBCHEM_IUPAC_NAME>
(1S,2S)-3-chloro-6-[2,2,2-trichloro-1-(4-chlorophenyl)ethyl]cyclohexa-3,5-diene-1,2-diol

> <PUBCHEM_IUPAC_SYSTEMATIC_NAME>
(1S,2S)-3-chloranyl-6-[2,2,2-tris(chloranyl)-1-(4-chlorophenyl)ethyl]cyclohexa-3,5-diene-1,2-diol

> <PUBCHEM_IUPAC_TRADITIONAL_NAME>
(1S,2S)-3-chloro-6-[2,2,2-trichloro-1-(4-chlorophenyl)ethyl]cyclohexa-3,5-diene-1,2-diol

> <PUBCHEM_IUPAC_INCHI>
InChI=1S/C14H11Cl5O2/c15-8-3-1-7(2-4-8)11(14(17,18)19)9-5-6-10(16)13(21)12(9)20/h1-6,11-13,20-21H/t11?,12-,13+/m0/s1

> <PUBCHEM_IUPAC_INCHIKEY>
GSABQSGIWIDCHM-LWNNLKQOSA-N

> <PUBCHEM_XLOGP3_AA>
4

> <PUBCHEM_EXACT_MASS>
387.917218

> <PUBCHEM_MOLECULAR_FORMULA>
C14H11Cl5O2

> <PUBCHEM_MOLECULAR_WEIGHT>
388.50094

> <PUBCHEM_OPENEYE_CAN_SMILES>
C1=CC(=CC=C1C(C2=CC=C(C(C2O)O)Cl)C(Cl)(Cl)Cl)Cl

> <PUBCHEM_OPENEYE_ISO_SMILES>
C1=CC(=CC=C1C(C2=CC=C([C@H]([C@H]2O)O)Cl)C(Cl)(Cl)Cl)Cl

> <PUBCHEM_CACTVS_TPSA>
40.5

> <PUBCHEM_MONOISOTOPIC_WEIGHT>
385.920168

> <PUBCHEM_TOTAL_CHARGE>
0

> <PUBCHEM_HEAVY_ATOM_COUNT>
21

> <PUBCHEM_ATOM_DEF_STEREO_COUNT>
2

> <PUBCHEM_ATOM_UDEF_STEREO_COUNT>
1

> <PUBCHEM_BOND_DEF_STEREO_COUNT>
0

> <PUBCHEM_BOND_UDEF_STEREO_COUNT>
0

> <PUBCHEM_ISOTOPIC_ATOM_COUNT>
0

> <PUBCHEM_COMPONENT_COUNT>
1

> <PUBCHEM_CACTVS_TAUTO_COUNT>
1

> <PUBCHEM_COORDINATE_TYPE>
1
5
255

> <PUBCHEM_BONDANNOTATIONS>
12  17  8
12  18  8
17  19  8
18  20  8
19  21  8
20  21  8
10  6  5
11  7  5
8  22  3

$$$$

