4931
  -OEChem-06261200253D

 28 28  0     0  0  0  0  0  0999 V2000
   -2.9495   -2.7530   -0.0198 Cl  0  0  0  0  0  0  0  0  0  0  0  0
   -3.0128    0.0827   -0.0075 O   0  0  0  0  0  0  0  0  0  0  0  0
   -0.7046    0.5999   -0.0023 N   0  0  0  0  0  0  0  0  0  0  0  0
   -0.8265    2.0417    0.0020 C   0  0  0  0  0  0  0  0  0  0  0  0
    0.6328    0.0135   -0.0020 C   0  0  0  0  0  0  0  0  0  0  0  0
   -0.1741    2.6043   -1.2538 C   0  0  0  0  0  0  0  0  0  0  0  0
   -0.1804    2.6030    1.2621 C   0  0  0  0  0  0  0  0  0  0  0  0
   -1.8328   -0.2756   -0.0069 C   0  0  0  0  0  0  0  0  0  0  0  0
    1.2138   -0.2367   -1.2100 C   0  0  0  0  0  0  0  0  0  0  0  0
    1.2100   -0.2444    1.2060 C   0  0  0  0  0  0  0  0  0  0  0  0
   -1.4827   -1.7531    0.0373 C   0  0  0  0  0  0  0  0  0  0  0  0
    2.4913   -0.7969   -1.2097 C   0  0  0  0  0  0  0  0  0  0  0  0
    2.4874   -0.8046    1.2063 C   0  0  0  0  0  0  0  0  0  0  0  0
    3.1280   -1.0809   -0.0016 C   0  0  0  0  0  0  0  0  0  0  0  0
   -1.8896    2.3072   -0.0004 H   0  0  0  0  0  0  0  0  0  0  0  0
   -0.3853    3.6771   -1.3320 H   0  0  0  0  0  0  0  0  0  0  0  0
    0.9157    2.5008   -1.2538 H   0  0  0  0  0  0  0  0  0  0  0  0
   -0.5697    2.1279   -2.1575 H   0  0  0  0  0  0  0  0  0  0  0  0
   -0.5804    2.1243    2.1626 H   0  0  0  0  0  0  0  0  0  0  0  0
   -0.3916    3.6756    1.3410 H   0  0  0  0  0  0  0  0  0  0  0  0
    0.9093    2.4983    1.2673 H   0  0  0  0  0  0  0  0  0  0  0  0
    0.7178   -0.0308   -2.1524 H   0  0  0  0  0  0  0  0  0  0  0  0
    0.7111   -0.0436    2.1480 H   0  0  0  0  0  0  0  0  0  0  0  0
   -0.8810   -2.0396   -0.8271 H   0  0  0  0  0  0  0  0  0  0  0  0
   -0.9687   -2.0004    0.9684 H   0  0  0  0  0  0  0  0  0  0  0  0
    2.9887   -1.0152   -2.1502 H   0  0  0  0  0  0  0  0  0  0  0  0
    2.9818   -1.0287    2.1470 H   0  0  0  0  0  0  0  0  0  0  0  0
    4.1220   -1.5185   -0.0014 H   0  0  0  0  0  0  0  0  0  0  0  0
  1 11  1  0  0  0  0
  2  8  2  0  0  0  0
  3  4  1  0  0  0  0
  3  5  1  0  0  0  0
  3  8  1  0  0  0  0
  4  6  1  0  0  0  0
  4  7  1  0  0  0  0
  4 15  1  0  0  0  0
  5  9  2  0  0  0  0
  5 10  1  0  0  0  0
  6 16  1  0  0  0  0
  6 17  1  0  0  0  0
  6 18  1  0  0  0  0
  7 19  1  0  0  0  0
  7 20  1  0  0  0  0
  7 21  1  0  0  0  0
  8 11  1  0  0  0  0
  9 12  1  0  0  0  0
  9 22  1  0  0  0  0
 10 13  2  0  0  0  0
 10 23  1  0  0  0  0
 11 24  1  0  0  0  0
 11 25  1  0  0  0  0
 12 14  2  0  0  0  0
 12 26  1  0  0  0  0
 13 14  1  0  0  0  0
 13 27  1  0  0  0  0
 14 28  1  0  0  0  0
M  END
> <PUBCHEM_COMPOUND_CID>
4931

> <PUBCHEM_CONFORMER_RMSD>
0.6

> <PUBCHEM_CONFORMER_DIVERSEORDER>
1
7
9
12
15
8
19
13
2
20
17
14
11
4
10
18
3
16
5
6

> <PUBCHEM_MMFF94_PARTIAL_CHARGES>
17
1 -0.29
10 -0.15
11 0.35
12 -0.15
13 -0.15
14 -0.15
2 -0.57
22 0.15
23 0.15
26 0.15
27 0.15
28 0.15
3 -0.48
4 0.3
5 0.12
8 0.57
9 -0.15

> <PUBCHEM_EFFECTIVE_ROTOR_COUNT>
4

> <PUBCHEM_PHARMACOPHORE_FEATURES>
3
1 2 acceptor
3 4 6 7 hydrophobe
6 5 9 10 12 13 14 rings

> <PUBCHEM_HEAVY_ATOM_COUNT>
14

> <PUBCHEM_ATOM_DEF_STEREO_COUNT>
0

> <PUBCHEM_ATOM_UDEF_STEREO_COUNT>
0

> <PUBCHEM_BOND_DEF_STEREO_COUNT>
0

> <PUBCHEM_BOND_UDEF_STEREO_COUNT>
0

> <PUBCHEM_ISOTOPIC_ATOM_COUNT>
0

> <PUBCHEM_COMPONENT_COUNT>
1

> <PUBCHEM_CACTVS_TAUTO_COUNT>
1

> <PUBCHEM_CONFORMER_ID>
0000134300000001

> <PUBCHEM_MMFF94_ENERGY>
60.5117

> <PUBCHEM_FEATURE_SELFOVERLAP>
15.223

> <PUBCHEM_SHAPE_FINGERPRINT>
1 1 17400082972136269021
11578080 2 17343540810100733756
12423570 1 7266165653521229521
12716758 59 17901665196092618402
13083527 12 17469353355880096443
13380537 58 17979642560713425916
13898156 1 17844520209516248958
14817 1 12847613720818274318
15375462 175 18265605679200507315
15775835 57 17698712937596804020
15852999 172 17688894332903770598
16945 1 18338799038674399394
17990270 104 18119527639741826967
18186145 218 12031517634661550086
18534176 82 18043818799679598388
20600515 1 18409453612983972325
20645477 70 17762623885213597599
20711985 344 18263922305449737699
21930827 45 17827354702629267744
228727 97 17916000474071354300
23402539 116 18264221368444035455
23419403 2 17763789482779801684
23552423 10 17910670969597617263
23557571 272 18260266399824076060
23559900 14 18335989782993741522
23598294 1 18125433357117705288
25 1 11383293970295016254
2748010 2 18265346022799987687
5902787 121 18340210674260774379
7364860 26 17829607262667813171
77492 1 17631724010331269230
81228 2 18336542836645842977
81539 233 17405436498725946653

> <PUBCHEM_SHAPE_MULTIPOLES>
279.13
4.16
2.96
1.27
0.64
1.51
0
-3.79
0.02
1.69
0
-0.75
0.35
-0.01

> <PUBCHEM_SHAPE_SELFOVERLAP>
560.075

> <PUBCHEM_SHAPE_VOLUME>
165.6

> <PUBCHEM_COORDINATE_TYPE>
2
5
10

$$$$

