440462
  -OEChem-07051212493D

 40 41  0     1  0  0  0  0  0999 V2000
   -0.3917   -0.6460    0.1991 O   0  0  0  0  0  0  0  0  0  0  0  0
   -1.9880    1.5096   -0.7081 O   0  0  0  0  0  0  0  0  0  0  0  0
   -2.4634   -2.0052    1.4299 O   0  0  0  0  0  0  0  0  0  0  0  0
   -4.6740   -0.9218   -0.1691 O   0  0  0  0  0  0  0  0  0  0  0  0
    1.7887   -0.1544    0.9664 O   0  0  0  0  0  0  0  0  0  0  0  0
   -3.8010    0.9887   -2.0850 O   0  0  0  0  0  0  0  0  0  0  0  0
    2.2054   -3.0430    1.0626 O   0  0  0  0  0  0  0  0  0  0  0  0
    0.7970   -2.0982   -2.1331 O   0  0  0  0  0  0  0  0  0  0  0  0
    0.4885    2.2633    1.7108 O   0  0  0  0  0  0  0  0  0  0  0  0
    0.3803    2.6118   -0.5392 O   0  0  0  0  0  0  0  0  0  0  0  0
    3.2181    1.9443    0.8527 O   0  0  0  0  0  0  0  0  0  0  0  0
    4.1245    1.4529   -1.1885 O   0  0  0  0  0  0  0  0  0  0  0  0
   -1.2664    0.0524    1.0904 C   0  0  2  0  0  0  0  0  0  0  0  0
   -2.6344   -0.6313    1.0940 C   0  0  1  0  0  0  0  0  0  0  0  0
   -3.3154   -0.4959   -0.2713 C   0  0  2  0  0  0  0  0  0  0  0  0
   -1.4269    1.4882    0.6001 C   0  0  1  0  0  0  0  0  0  0  0  0
   -3.3062    0.9618   -0.7464 C   0  0  1  0  0  0  0  0  0  0  0  0
    0.7529   -1.1457    0.8869 C   0  0  2  0  0  0  0  0  0  0  0  0
    1.2281   -2.4397    0.2157 C   0  0  1  0  0  0  0  0  0  0  0  0
    1.8392   -2.1695   -1.1639 C   0  0  2  0  0  0  0  0  0  0  0  0
   -0.1057    2.1800    0.4955 C   0  0  0  0  0  0  0  0  0  0  0  0
    2.6034   -0.8806   -1.1831 C   0  0  0  0  0  0  0  0  0  0  0  0
    2.5567   -0.0107   -0.1638 C   0  0  0  0  0  0  0  0  0  0  0  0
    3.3904    1.1889   -0.2526 C   0  0  0  0  0  0  0  0  0  0  0  0
   -0.8751    0.0593    2.1160 H   0  0  0  0  0  0  0  0  0  0  0  0
   -3.2742   -0.1895    1.8682 H   0  0  0  0  0  0  0  0  0  0  0  0
   -2.8339   -1.1503   -1.0073 H   0  0  0  0  0  0  0  0  0  0  0  0
   -2.0667    2.0795    1.2672 H   0  0  0  0  0  0  0  0  0  0  0  0
   -3.9797    1.5772   -0.1363 H   0  0  0  0  0  0  0  0  0  0  0  0
    0.5010   -1.4097    1.9225 H   0  0  0  0  0  0  0  0  0  0  0  0
    0.3885   -3.1387    0.1269 H   0  0  0  0  0  0  0  0  0  0  0  0
    2.5148   -2.9845   -1.4482 H   0  0  0  0  0  0  0  0  0  0  0  0
   -2.0329   -2.0432    2.3010 H   0  0  0  0  0  0  0  0  0  0  0  0
   -5.1183   -0.3587    0.4875 H   0  0  0  0  0  0  0  0  0  0  0  0
    3.2193   -0.6984   -2.0594 H   0  0  0  0  0  0  0  0  0  0  0  0
   -4.1638    1.8779   -2.2371 H   0  0  0  0  0  0  0  0  0  0  0  0
    2.9408   -2.4172    1.1747 H   0  0  0  0  0  0  0  0  0  0  0  0
    0.3529   -2.9631   -2.1507 H   0  0  0  0  0  0  0  0  0  0  0  0
    1.3558    2.7189    1.6649 H   0  0  0  0  0  0  0  0  0  0  0  0
    3.7619    2.7604    0.8299 H   0  0  0  0  0  0  0  0  0  0  0  0
  1 13  1  0  0  0  0
  1 18  1  0  0  0  0
  2 16  1  0  0  0  0
  2 17  1  0  0  0  0
  3 14  1  0  0  0  0
  3 33  1  0  0  0  0
  4 15  1  0  0  0  0
  4 34  1  0  0  0  0
  5 18  1  0  0  0  0
  5 23  1  0  0  0  0
  6 17  1  0  0  0  0
  6 36  1  0  0  0  0
  7 19  1  0  0  0  0
  7 37  1  0  0  0  0
  8 20  1  0  0  0  0
  8 38  1  0  0  0  0
  9 21  1  0  0  0  0
  9 39  1  0  0  0  0
 10 21  2  0  0  0  0
 11 24  1  0  0  0  0
 11 40  1  0  0  0  0
 12 24  2  0  0  0  0
 13 14  1  0  0  0  0
 13 16  1  0  0  0  0
 13 25  1  0  0  0  0
 14 15  1  0  0  0  0
 14 26  1  0  0  0  0
 15 17  1  0  0  0  0
 15 27  1  0  0  0  0
 16 21  1  0  0  0  0
 16 28  1  0  0  0  0
 17 29  1  0  0  0  0
 18 19  1  0  0  0  0
 18 30  1  0  0  0  0
 19 20  1  0  0  0  0
 19 31  1  0  0  0  0
 20 22  1  0  0  0  0
 20 32  1  0  0  0  0
 22 23  2  0  0  0  0
 22 35  1  0  0  0  0
 23 24  1  0  0  0  0
M  END
> <PUBCHEM_COMPOUND_CID>
440462

> <PUBCHEM_CONFORMER_RMSD>
0.8

> <PUBCHEM_CONFORMER_DIVERSEORDER>
1
4
14
11
22
13
28
2
26
20
19
27
9
16
6
23
15
25
18
7
10
24
17
8
3
5
12
29
21

> <PUBCHEM_MMFF94_PARTIAL_CHARGES>
32
1 -0.56
10 -0.57
11 -0.65
12 -0.57
13 0.28
14 0.28
15 0.28
16 0.34
17 0.56
18 0.56
19 0.28
2 -0.56
20 0.42
21 0.66
22 -0.29
23 0.09
24 0.71
3 -0.68
33 0.4
34 0.4
35 0.15
36 0.4
37 0.4
38 0.4
39 0.5
4 -0.68
40 0.5
5 -0.36
6 -0.68
7 -0.68
8 -0.68
9 -0.65

> <PUBCHEM_EFFECTIVE_ROTOR_COUNT>
6

> <PUBCHEM_PHARMACOPHORE_FEATURES>
21
1 1 acceptor
1 10 acceptor
1 11 acceptor
1 12 acceptor
1 2 acceptor
1 3 acceptor
1 3 donor
1 4 acceptor
1 4 donor
1 5 acceptor
1 6 acceptor
1 6 donor
1 7 acceptor
1 7 donor
1 8 acceptor
1 8 donor
1 9 acceptor
3 11 12 24 anion
3 9 10 21 anion
6 2 13 14 15 16 17 rings
6 5 18 19 20 22 23 rings

> <PUBCHEM_HEAVY_ATOM_COUNT>
24

> <PUBCHEM_ATOM_DEF_STEREO_COUNT>
8

> <PUBCHEM_ATOM_UDEF_STEREO_COUNT>
0

> <PUBCHEM_BOND_DEF_STEREO_COUNT>
0

> <PUBCHEM_BOND_UDEF_STEREO_COUNT>
0

> <PUBCHEM_ISOTOPIC_ATOM_COUNT>
0

> <PUBCHEM_COMPONENT_COUNT>
1

> <PUBCHEM_CACTVS_TAUTO_COUNT>
1

> <PUBCHEM_CONFORMER_ID>
0006B88E00000001

> <PUBCHEM_MMFF94_ENERGY>
57.2287

> <PUBCHEM_FEATURE_SELFOVERLAP>
106.809

> <PUBCHEM_SHAPE_FINGERPRINT>
10759866 29 17846214402748599248
10863032 1 17846785096074322608
11370993 70 17846786204049414359
11578080 2 17631741606812515637
11640471 11 15554441881756803544
12553582 1 17904753732591956730
13140716 1 17977940185948360947
13224815 77 18259984911302983147
13544592 271 18339924822564455825
14251745 187 18271248214155694689
15163728 17 17488722559052491772
15635459 17 18409728439540823035
16945 1 18272642437722566473
17492 54 18265614273487842500
17980427 23 17902252309685028282
18186145 218 17915744391141796549
18981168 100 15551590942764247690
192875 21 17907874137954294411
20600515 1 17476960155167183112
20905425 154 18337955700592617372
21524375 3 18335976477010816282
21731516 1 17023190486592053577
22802520 49 18119512474053834962
23227448 37 17694773026783973628
23402539 116 18336828572757618862
23419403 2 14784343719014910730
23557571 272 17346871261123050715
23558518 356 18122901190260359072
23559900 14 18198356241068784666
238 59 18261125057642837532
2748010 2 18339068311912714538
3060560 45 18114466647822011150
3323516 105 18336267860139449229
5262128 65 17972590271457652230
81228 2 17540252472609862929

> <PUBCHEM_SHAPE_MULTIPOLES>
423.48
6.5
3.06
1.57
2.75
0.25
-0.38
-0.44
-2.03
-1.76
0.31
0.29
0.24
0.67

> <PUBCHEM_SHAPE_SELFOVERLAP>
893.602

> <PUBCHEM_SHAPE_VOLUME>
230.6

> <PUBCHEM_COORDINATE_TYPE>
2
5
10

$$$$

