9176
  -OEChem-07051213143D

 36 40  0     0  0  0  0  0  0999 V2000
    1.2587    0.1837   -0.0003 C   0  0  0  0  0  0  0  0  0  0  0  0
   -1.2588    0.1836   -0.0004 C   0  0  0  0  0  0  0  0  0  0  0  0
    1.2266    1.5939   -0.0001 C   0  0  0  0  0  0  0  0  0  0  0  0
   -1.2267    1.5939   -0.0003 C   0  0  0  0  0  0  0  0  0  0  0  0
   -0.0001   -0.4784   -0.0006 C   0  0  0  0  0  0  0  0  0  0  0  0
    2.5349   -0.4888   -0.0002 C   0  0  0  0  0  0  0  0  0  0  0  0
   -2.5349   -0.4889   -0.0003 C   0  0  0  0  0  0  0  0  0  0  0  0
    0.0000    2.2734   -0.0001 C   0  0  0  0  0  0  0  0  0  0  0  0
    3.7259    0.2835    0.0003 C   0  0  0  0  0  0  0  0  0  0  0  0
   -3.7259    0.2836    0.0000 C   0  0  0  0  0  0  0  0  0  0  0  0
    2.4195    2.3231    0.0001 C   0  0  0  0  0  0  0  0  0  0  0  0
   -2.4195    2.3231    0.0000 C   0  0  0  0  0  0  0  0  0  0  0  0
    3.6509    1.6777    0.0002 C   0  0  0  0  0  0  0  0  0  0  0  0
   -3.6510    1.6777    0.0001 C   0  0  0  0  0  0  0  0  0  0  0  0
    2.6943   -1.8978   -0.0008 C   0  0  0  0  0  0  0  0  0  0  0  0
   -2.6942   -1.8979   -0.0003 C   0  0  0  0  0  0  0  0  0  0  0  0
    4.9854   -0.3402    0.0008 C   0  0  0  0  0  0  0  0  0  0  0  0
   -4.9854   -0.3402    0.0006 C   0  0  0  0  0  0  0  0  0  0  0  0
    3.9529   -2.5059   -0.0002 C   0  0  0  0  0  0  0  0  0  0  0  0
   -3.9526   -2.5060    0.0001 C   0  0  0  0  0  0  0  0  0  0  0  0
    5.0989   -1.7266    0.0007 C   0  0  0  0  0  0  0  0  0  0  0  0
   -5.0988   -1.7267    0.0009 C   0  0  0  0  0  0  0  0  0  0  0  0
    0.0000   -1.5647   -0.0008 H   0  0  0  0  0  0  0  0  0  0  0  0
    0.0000    3.3646    0.0000 H   0  0  0  0  0  0  0  0  0  0  0  0
    2.4052    3.4115    0.0002 H   0  0  0  0  0  0  0  0  0  0  0  0
   -2.4053    3.4115    0.0001 H   0  0  0  0  0  0  0  0  0  0  0  0
    4.5549    2.2838    0.0005 H   0  0  0  0  0  0  0  0  0  0  0  0
   -4.5549    2.2839    0.0004 H   0  0  0  0  0  0  0  0  0  0  0  0
    1.8336   -2.5616   -0.0015 H   0  0  0  0  0  0  0  0  0  0  0  0
   -1.8336   -2.5616   -0.0006 H   0  0  0  0  0  0  0  0  0  0  0  0
    5.8972    0.2546    0.0012 H   0  0  0  0  0  0  0  0  0  0  0  0
   -5.8973    0.2544    0.0010 H   0  0  0  0  0  0  0  0  0  0  0  0
    4.0308   -3.5892   -0.0005 H   0  0  0  0  0  0  0  0  0  0  0  0
   -4.0306   -3.5893    0.0001 H   0  0  0  0  0  0  0  0  0  0  0  0
    6.0787   -2.1940    0.0012 H   0  0  0  0  0  0  0  0  0  0  0  0
   -6.0785   -2.1943    0.0014 H   0  0  0  0  0  0  0  0  0  0  0  0
  1  3  2  0  0  0  0
  1  5  1  0  0  0  0
  1  6  1  0  0  0  0
  2  4  1  0  0  0  0
  2  5  2  0  0  0  0
  2  7  1  0  0  0  0
  3  8  1  0  0  0  0
  3 11  1  0  0  0  0
  4  8  2  0  0  0  0
  4 12  1  0  0  0  0
  5 23  1  0  0  0  0
  6  9  1  0  0  0  0
  6 15  2  0  0  0  0
  7 10  1  0  0  0  0
  7 16  2  0  0  0  0
  8 24  1  0  0  0  0
  9 13  1  0  0  0  0
  9 17  2  0  0  0  0
 10 14  1  0  0  0  0
 10 18  2  0  0  0  0
 11 13  2  0  0  0  0
 11 25  1  0  0  0  0
 12 14  2  0  0  0  0
 12 26  1  0  0  0  0
 13 27  1  0  0  0  0
 14 28  1  0  0  0  0
 15 19  1  0  0  0  0
 15 29  1  0  0  0  0
 16 20  1  0  0  0  0
 16 30  1  0  0  0  0
 17 21  1  0  0  0  0
 17 31  1  0  0  0  0
 18 22  1  0  0  0  0
 18 32  1  0  0  0  0
 19 21  2  0  0  0  0
 19 33  1  0  0  0  0
 20 22  2  0  0  0  0
 20 34  1  0  0  0  0
 21 35  1  0  0  0  0
 22 36  1  0  0  0  0
M  END
> <PUBCHEM_COMPOUND_CID>
9176

> <PUBCHEM_CONFORMER_RMSD>
0.6

> <PUBCHEM_CONFORMER_DIVERSEORDER>
1

> <PUBCHEM_MMFF94_PARTIAL_CHARGES>
28
11 -0.15
12 -0.15
13 -0.15
14 -0.15
15 -0.15
16 -0.15
17 -0.15
18 -0.15
19 -0.15
20 -0.15
21 -0.15
22 -0.15
23 0.15
24 0.15
25 0.15
26 0.15
27 0.15
28 0.15
29 0.15
30 0.15
31 0.15
32 0.15
33 0.15
34 0.15
35 0.15
36 0.15
5 -0.15
8 -0.15

> <PUBCHEM_EFFECTIVE_ROTOR_COUNT>
0

> <PUBCHEM_PHARMACOPHORE_FEATURES>
5
6 1 2 3 4 5 8 rings
6 1 3 6 9 11 13 rings
6 2 4 7 10 12 14 rings
6 6 9 15 17 19 21 rings
6 7 10 16 18 20 22 rings

> <PUBCHEM_HEAVY_ATOM_COUNT>
22

> <PUBCHEM_ATOM_DEF_STEREO_COUNT>
0

> <PUBCHEM_ATOM_UDEF_STEREO_COUNT>
0

> <PUBCHEM_BOND_DEF_STEREO_COUNT>
0

> <PUBCHEM_BOND_UDEF_STEREO_COUNT>
0

> <PUBCHEM_ISOTOPIC_ATOM_COUNT>
0

> <PUBCHEM_COMPONENT_COUNT>
1

> <PUBCHEM_CACTVS_TAUTO_COUNT>
1

> <PUBCHEM_CONFORMER_ID>
000023D800000001

> <PUBCHEM_MMFF94_ENERGY>
82.0927

> <PUBCHEM_FEATURE_SELFOVERLAP>
25.466

> <PUBCHEM_SHAPE_FINGERPRINT>
10616163 171 18408602569435390807
10622 236 17245287201872553687
10693767 8 17972901176458403415
1100329 8 16825871279335998747
11405975 8 18335417997606719049
11963148 33 18052544261717749818
12107183 9 17977099390022812545
12403259 226 18410860957687177636
12633257 1 18261662779332732993
13140716 1 18334856164160282169
13167823 11 18410576188470018275
13533116 47 18334577889366314315
13544653 18 18341888550663894851
13583140 156 17822307746599869448
138480 1 14879752311090817888
14341114 176 18409443691508895489
14866123 147 17469598976432630880
15196674 1 18410856563935036197
15320467 1 13870946187833978758
15352361 1 18410856563971900999
15442244 35 18410291453676310112
15536298 74 18408324376114270624
15927050 60 17757835520911688548
17492 89 18411136917973190667
17857418 61 18410295808741506195
1813 80 17489870427300282828
19141452 34 18339076120126802825
19591789 44 18410576184174992515
200 152 18259987075950689089
20028762 73 18187651279733760022
20261772 1 17894916200300381302
20281475 54 18410852161598936500
20645477 70 18342460305316097234
21065198 57 18410012151979723785
21267235 1 18410566288570284066
21279426 13 18341057397631211285
21673915 165 18410575063409905506
21792934 111 18408610254102217241
221490 88 18412539882172542834
22393880 68 17988093278256527389
23522609 53 18122589903900387364
23559900 14 18410019831344150513
239999 70 18187075119256442660
2871803 45 18272093772730157571
3004659 81 18201722846835811590
314194 84 18191585251255159587
335352 9 18410575128451762677
3421961 26 18336830805829473984
350125 39 18410008836196152612
4073 2 18129938983837803362
4214541 1 18410574024006688321
46194498 28 17344917321644314045
463206 1 18265333893765397263
5104073 3 18334576853910204464
559249 180 18269842076095998699
633830 44 16845283960299547308
77779 3 18410855464423174564
9709674 26 18342453695076754715
9981440 41 17477764585520772456

> <PUBCHEM_SHAPE_MULTIPOLES>
452.75
11.19
3.05
0.62
0
0.07
0
6.08
0
0
0
0
0
0

> <PUBCHEM_SHAPE_SELFOVERLAP>
1051.995

> <PUBCHEM_SHAPE_VOLUME>
208.5

> <PUBCHEM_COORDINATE_TYPE>
2
5
10

$$$$

