442147
  -OEChem-07051212572D

 38 42  0     1  0  0  0  0  0999 V2000
    7.1606   -0.4487    0.0000 O   0  0  0  0  0  0  0  0  0  0  0  0
    6.2468    2.3638    0.0000 O   0  0  0  0  0  0  0  0  0  0  0  0
    3.7556    0.9156    0.0000 O   0  0  0  0  0  0  0  0  0  0  0  0
    6.9381   -1.7782    0.0000 O   0  0  0  0  0  0  0  0  0  0  0  0
    2.0000    0.8007    0.0000 O   0  0  0  0  0  0  0  0  0  0  0  0
    6.2468   -0.0415    0.0000 C   0  0  2  0  0  0  0  0  0  0  0  0
    5.7468    1.4973    0.0000 C   0  0  2  0  0  0  0  0  0  0  0  0
    7.0558    0.5463    0.0000 C   0  0  1  0  0  0  0  0  0  0  0  0
    5.4378    0.5463    0.0000 C   0  0  2  0  0  0  0  0  0  0  0  0
    6.7468    1.4973    0.0000 C   0  0  2  0  0  0  0  0  0  0  0  0
    6.2842   -1.0216    0.0000 C   0  0  1  0  0  0  0  0  0  0  0  0
    4.4941    0.2790    0.0000 C   0  0  2  0  0  0  0  0  0  0  0  0
    4.7468    1.4973    0.0000 C   0  0  0  0  0  0  0  0  0  0  0  0
    4.1123   -0.6244    0.0000 C   0  0  1  0  0  0  0  0  0  0  0  0
    5.5430   -1.6639    0.0000 C   0  0  0  0  0  0  0  0  0  0  0  0
    4.5782   -1.4875    0.0000 C   0  0  0  0  0  0  0  0  0  0  0  0
    7.2751   -1.1562    0.0000 C   0  0  0  0  0  0  0  0  0  0  0  0
    3.1411   -0.5384    0.0000 C   0  0  0  0  0  0  0  0  0  0  0  0
    2.9211    0.4114    0.0000 C   0  0  0  0  0  0  0  0  0  0  0  0
    2.4849   -1.2930    0.0000 C   0  0  0  0  0  0  0  0  0  0  0  0
    7.8872    0.7231    0.0000 H   0  0  0  0  0  0  0  0  0  0  0  0
    4.8483    1.1586    0.0000 H   0  0  0  0  0  0  0  0  0  0  0  0
    7.5233    1.8429    0.0000 H   0  0  0  0  0  0  0  0  0  0  0  0
    4.6777    1.1089    0.0000 H   0  0  0  0  0  0  0  0  0  0  0  0
    4.7468    2.1173    0.0000 H   0  0  0  0  0  0  0  0  0  0  0  0
    4.1268    1.4973    0.0000 H   0  0  0  0  0  0  0  0  0  0  0  0
    4.7468    0.8773    0.0000 H   0  0  0  0  0  0  0  0  0  0  0  0
    3.6450   -1.3345    0.0000 H   0  0  0  0  0  0  0  0  0  0  0  0
    5.2980   -2.2335    0.0000 H   0  0  0  0  0  0  0  0  0  0  0  0
    6.0434   -2.0299    0.0000 H   0  0  0  0  0  0  0  0  0  0  0  0
    3.9806   -1.6527    0.0000 H   0  0  0  0  0  0  0  0  0  0  0  0
    4.6057   -2.1069    0.0000 H   0  0  0  0  0  0  0  0  0  0  0  0
    7.1916   -1.7706    0.0000 H   0  0  0  0  0  0  0  0  0  0  0  0
    7.8894   -1.2397    0.0000 H   0  0  0  0  0  0  0  0  0  0  0  0
    7.3586   -0.5419    0.0000 H   0  0  0  0  0  0  0  0  0  0  0  0
    6.7345   -2.3638    0.0000 H   0  0  0  0  0  0  0  0  0  0  0  0
    1.8763   -1.1746    0.0000 H   0  0  0  0  0  0  0  0  0  0  0  0
    2.6866   -1.8793    0.0000 H   0  0  0  0  0  0  0  0  0  0  0  0
  6  1  1  1  0  0  0
  1  8  1  0  0  0  0
  2  7  1  0  0  0  0
  2 10  1  0  0  0  0
  3 12  1  0  0  0  0
  3 19  1  0  0  0  0
 11  4  1  6  0  0  0
  4 36  1  0  0  0  0
  5 19  2  0  0  0  0
  6  8  1  0  0  0  0
  6  9  1  0  0  0  0
  6 11  1  0  0  0  0
  7  9  1  0  0  0  0
  7 10  1  0  0  0  0
  7 13  1  6  0  0  0
  8 10  1  0  0  0  0
  8 21  1  6  0  0  0
  9 12  1  0  0  0  0
  9 22  1  6  0  0  0
 10 23  1  6  0  0  0
 11 15  1  0  0  0  0
 11 17  1  0  0  0  0
 12 14  1  0  0  0  0
 12 24  1  1  0  0  0
 13 25  1  0  0  0  0
 13 26  1  0  0  0  0
 13 27  1  0  0  0  0
 14 16  1  0  0  0  0
 14 18  1  0  0  0  0
 14 28  1  6  0  0  0
 15 16  1  0  0  0  0
 15 29  1  0  0  0  0
 15 30  1  0  0  0  0
 16 31  1  0  0  0  0
 16 32  1  0  0  0  0
 17 33  1  0  0  0  0
 17 34  1  0  0  0  0
 17 35  1  0  0  0  0
 18 19  1  0  0  0  0
 18 20  2  0  0  0  0
 20 37  1  0  0  0  0
 20 38  1  0  0  0  0
M  END
> <PUBCHEM_COMPOUND_CID>
442147

> <PUBCHEM_COMPOUND_CANONICALIZED>
1

> <PUBCHEM_CACTVS_COMPLEXITY>
573

> <PUBCHEM_CACTVS_HBOND_ACCEPTOR>
5

> <PUBCHEM_CACTVS_HBOND_DONOR>
1

> <PUBCHEM_CACTVS_ROTATABLE_BOND>
0

> <PUBCHEM_CACTVS_SUBSKEYS>
AAADceBwOAAAAAAAAAAAAAAAEiQAAaIAAAAkSAAABgAAAADQAAAAGgAACAAADVSggAICCAAABgCIAgDSCAAAAAAgAAAAAAEAAEgBBBIAIQACQAAFwAADIIHK6PyOgAAAAAAAAAAAAAAAAAAAAYQADCAAAA==

> <PUBCHEM_IUPAC_INCHI>
InChI=1S/C15H18O5/c1-6-7-4-5-13(2,17)15-9(8(7)18-12(6)16)14(3)10(19-14)11(15)20-15/h7-11,17H,1,4-5H2,2-3H3/t7-,8-,9-,10-,11+,13+,14+,15-/m0/s1

> <PUBCHEM_IUPAC_INCHIKEY>
KXLUWEYBZBGJRZ-SSISGLGMSA-N

> <PUBCHEM_XLOGP3_AA>
0.2

> <PUBCHEM_EXACT_MASS>
278.115424

> <PUBCHEM_MOLECULAR_FORMULA>
C15H18O5

> <PUBCHEM_MOLECULAR_WEIGHT>
278.30042

> <PUBCHEM_OPENEYE_CAN_SMILES>
CC1(CCC2C(C3C14C(O4)C5C3(O5)C)OC(=O)C2=C)O

> <PUBCHEM_OPENEYE_ISO_SMILES>
C[C@]1(CC[C@@H]2[C@@H]([C@@H]3[C@]14[C@H](O4)[C@H]5[C@@]3(O5)C)OC(=O)C2=C)O

> <PUBCHEM_CACTVS_TPSA>
71.6

> <PUBCHEM_MONOISOTOPIC_WEIGHT>
278.115424

> <PUBCHEM_TOTAL_CHARGE>
0

> <PUBCHEM_HEAVY_ATOM_COUNT>
20

> <PUBCHEM_ATOM_DEF_STEREO_COUNT>
8

> <PUBCHEM_ATOM_UDEF_STEREO_COUNT>
0

> <PUBCHEM_BOND_DEF_STEREO_COUNT>
0

> <PUBCHEM_BOND_UDEF_STEREO_COUNT>
0

> <PUBCHEM_ISOTOPIC_ATOM_COUNT>
0

> <PUBCHEM_COMPONENT_COUNT>
1

> <PUBCHEM_CACTVS_TAUTO_COUNT>
1

> <PUBCHEM_COORDINATE_TYPE>
1
5
255

> <PUBCHEM_BONDANNOTATIONS>
6  1  5
10  23  6
12  24  5
14  28  6
11  4  6
7  13  6
8  21  6
9  22  6

$$$$

