439761
  -OEChem-07051212472D

 47 50  0     1  0  0  0  0  0999 V2000
    3.4022   -1.3424    0.0000 S   0  0  0  0  0  0  0  0  0  0  0  0
    4.2663   -1.8458    0.0000 O   0  0  0  0  0  0  0  0  0  0  0  0
    2.5381   -0.8391    0.0000 O   0  0  0  0  0  0  0  0  0  0  0  0
    2.8989   -2.2065    0.0000 O   0  0  0  0  0  0  0  0  0  0  0  0
    3.9056   -0.4784    0.0000 O   0  0  0  0  0  0  0  0  0  0  0  0
    9.6594    1.2065    0.0000 C   0  0  3  0  0  0  0  0  0  0  0  0
    9.6594    0.2065    0.0000 C   0  0  3  0  0  0  0  0  0  0  0  0
    8.7934   -0.2935    0.0000 C   0  0  3  0  0  0  0  0  0  0  0  0
    7.9273    0.2065    0.0000 C   0  0  3  0  0  0  0  0  0  0  0  0
    8.7934    1.7065    0.0000 C   0  0  0  0  0  0  0  0  0  0  0  0
   10.6056    1.5113    0.0000 C   0  0  0  0  0  0  0  0  0  0  0  0
   10.6056   -0.0982    0.0000 C   0  0  0  0  0  0  0  0  0  0  0  0
    7.9273    1.2065    0.0000 C   0  0  0  0  0  0  0  0  0  0  0  0
   11.1892    0.7065    0.0000 C   0  0  0  0  0  0  0  0  0  0  0  0
    8.8094   -1.3350    0.0000 C   0  0  0  0  0  0  0  0  0  0  0  0
    9.6594    2.2065    0.0000 C   0  0  0  0  0  0  0  0  0  0  0  0
    7.0173   -0.3003    0.0000 C   0  0  0  0  0  0  0  0  0  0  0  0
    7.9114   -1.8627    0.0000 C   0  0  0  0  0  0  0  0  0  0  0  0
    7.0093   -1.3419    0.0000 C   0  0  0  0  0  0  0  0  0  0  0  0
    6.0905    0.2638    0.0000 C   0  0  0  0  0  0  0  0  0  0  0  0
    6.0739   -1.8916    0.0000 C   0  0  0  0  0  0  0  0  0  0  0  0
    5.1426   -0.2642    0.0000 C   0  0  0  0  0  0  0  0  0  0  0  0
    5.1343   -1.3491    0.0000 C   0  0  0  0  0  0  0  0  0  0  0  0
    9.7493   -0.6387    0.0000 H   0  0  0  0  0  0  0  0  0  0  0  0
    9.5328   -0.7128    0.0000 H   0  0  0  0  0  0  0  0  0  0  0  0
    8.6635    0.6315    0.0000 H   0  0  0  0  0  0  0  0  0  0  0  0
    9.1919    2.1815    0.0000 H   0  0  0  0  0  0  0  0  0  0  0  0
    8.3948    2.1815    0.0000 H   0  0  0  0  0  0  0  0  0  0  0  0
   11.1430    1.8205    0.0000 H   0  0  0  0  0  0  0  0  0  0  0  0
   10.3546    2.0782    0.0000 H   0  0  0  0  0  0  0  0  0  0  0  0
   10.3546   -0.6651    0.0000 H   0  0  0  0  0  0  0  0  0  0  0  0
   11.1430   -0.4074    0.0000 H   0  0  0  0  0  0  0  0  0  0  0  0
    7.7153    1.7892    0.0000 H   0  0  0  0  0  0  0  0  0  0  0  0
    7.3168    1.0989    0.0000 H   0  0  0  0  0  0  0  0  0  0  0  0
   11.6501    0.2918    0.0000 H   0  0  0  0  0  0  0  0  0  0  0  0
   11.6501    1.1213    0.0000 H   0  0  0  0  0  0  0  0  0  0  0  0
    9.0275   -1.9154    0.0000 H   0  0  0  0  0  0  0  0  0  0  0  0
    9.4186   -1.2195    0.0000 H   0  0  0  0  0  0  0  0  0  0  0  0
   10.2794    2.2065    0.0000 H   0  0  0  0  0  0  0  0  0  0  0  0
    9.6594    2.8265    0.0000 H   0  0  0  0  0  0  0  0  0  0  0  0
    9.0394    2.2065    0.0000 H   0  0  0  0  0  0  0  0  0  0  0  0
    7.5141   -2.3387    0.0000 H   0  0  0  0  0  0  0  0  0  0  0  0
    8.3124   -2.3356    0.0000 H   0  0  0  0  0  0  0  0  0  0  0  0
    6.1024    0.8837    0.0000 H   0  0  0  0  0  0  0  0  0  0  0  0
    6.0763   -2.5116    0.0000 H   0  0  0  0  0  0  0  0  0  0  0  0
    4.6093    0.0520    0.0000 H   0  0  0  0  0  0  0  0  0  0  0  0
    2.0000   -1.1470    0.0000 H   0  0  0  0  0  0  0  0  0  0  0  0
  1  2  1  0  0  0  0
  1  3  1  0  0  0  0
  1  4  2  0  0  0  0
  1  5  2  0  0  0  0
  2 23  1  0  0  0  0
  3 47  1  0  0  0  0
  6  7  1  0  0  0  0
  6 10  1  0  0  0  0
  6 11  1  0  0  0  0
  6 16  1  0  0  0  0
  7  8  1  0  0  0  0
  7 12  1  0  0  0  0
  7 24  1  0  0  0  0
  8  9  1  0  0  0  0
  8 15  1  0  0  0  0
  8 25  1  0  0  0  0
  9 13  1  0  0  0  0
  9 17  1  0  0  0  0
  9 26  1  0  0  0  0
 10 13  1  0  0  0  0
 10 27  1  0  0  0  0
 10 28  1  0  0  0  0
 11 14  1  0  0  0  0
 11 29  1  0  0  0  0
 11 30  1  0  0  0  0
 12 14  1  0  0  0  0
 12 31  1  0  0  0  0
 12 32  1  0  0  0  0
 13 33  1  0  0  0  0
 13 34  1  0  0  0  0
 14 35  1  0  0  0  0
 14 36  1  0  0  0  0
 15 18  1  0  0  0  0
 15 37  1  0  0  0  0
 15 38  1  0  0  0  0
 16 39  1  0  0  0  0
 16 40  1  0  0  0  0
 16 41  1  0  0  0  0
 17 19  2  0  0  0  0
 17 20  1  0  0  0  0
 18 19  1  0  0  0  0
 18 42  1  0  0  0  0
 18 43  1  0  0  0  0
 19 21  1  0  0  0  0
 20 22  2  0  0  0  0
 20 44  1  0  0  0  0
 21 23  2  0  0  0  0
 21 45  1  0  0  0  0
 22 23  1  0  0  0  0
 22 46  1  0  0  0  0
M  END
> <PUBCHEM_COMPOUND_CID>
439761

> <PUBCHEM_COMPOUND_CANONICALIZED>
1

> <PUBCHEM_CACTVS_COMPLEXITY>
554

> <PUBCHEM_CACTVS_HBOND_ACCEPTOR>
4

> <PUBCHEM_CACTVS_HBOND_DONOR>
1

> <PUBCHEM_CACTVS_ROTATABLE_BOND>
2

> <PUBCHEM_CACTVS_SUBSKEYS>
AAADceB4OABAAAAAAAAAAAAAAAAAAYAAAAAwYMAAAAAAAGDBAAAAGgAACAAADwSAmAAyBoAAAICAAiBCADACAAAgIAAIiAAGCIgIJiKAERKAMAAkwBEIiAeAwPAPoAABAAAQAADAAAYAACAAAAAACAAAAA==

> <PUBCHEM_IUPAC_OPENEYE_NAME>
(13-methyl-6,7,8,9,11,12,14,15,16,17-decahydrocyclopenta[a]phenanthren-3-yl) hydrogen sulfate

> <PUBCHEM_IUPAC_CAS_NAME>
sulfuric acid (13-methyl-6,7,8,9,11,12,14,15,16,17-decahydrocyclopenta[a]phenanthren-3-yl) ester

> <PUBCHEM_IUPAC_NAME>
(13-methyl-6,7,8,9,11,12,14,15,16,17-decahydrocyclopenta[a]phenanthren-3-yl) hydrogen sulfate

> <PUBCHEM_IUPAC_SYSTEMATIC_NAME>
(13-methyl-6,7,8,9,11,12,14,15,16,17-decahydrocyclopenta[a]phenanthren-3-yl) hydrogen sulfate

> <PUBCHEM_IUPAC_TRADITIONAL_NAME>
sulfuric acid (13-methyl-6,7,8,9,11,12,14,15,16,17-decahydrocyclopenta[a]phenanthren-3-yl) ester

> <PUBCHEM_IUPAC_INCHI>
InChI=1S/C18H24O4S/c1-18-9-2-3-17(18)16-6-4-12-11-13(22-23(19,20)21)5-7-14(12)15(16)8-10-18/h5,7,11,15-17H,2-4,6,8-10H2,1H3,(H,19,20,21)

> <PUBCHEM_IUPAC_INCHIKEY>
KFFRVXQLZSOXIX-UHFFFAOYSA-N

> <PUBCHEM_XLOGP3_AA>
5

> <PUBCHEM_EXACT_MASS>
336.13953

> <PUBCHEM_MOLECULAR_FORMULA>
C18H24O4S

> <PUBCHEM_MOLECULAR_WEIGHT>
336.44576

> <PUBCHEM_OPENEYE_CAN_SMILES>
CC12CCCC1C3CCC4=C(C3CC2)C=CC(=C4)OS(=O)(=O)O

> <PUBCHEM_OPENEYE_ISO_SMILES>
CC12CCCC1C3CCC4=C(C3CC2)C=CC(=C4)OS(=O)(=O)O

> <PUBCHEM_CACTVS_TPSA>
72

> <PUBCHEM_MONOISOTOPIC_WEIGHT>
336.13953

> <PUBCHEM_TOTAL_CHARGE>
0

> <PUBCHEM_HEAVY_ATOM_COUNT>
23

> <PUBCHEM_ATOM_DEF_STEREO_COUNT>
0

> <PUBCHEM_ATOM_UDEF_STEREO_COUNT>
4

> <PUBCHEM_BOND_DEF_STEREO_COUNT>
0

> <PUBCHEM_BOND_UDEF_STEREO_COUNT>
0

> <PUBCHEM_ISOTOPIC_ATOM_COUNT>
0

> <PUBCHEM_COMPONENT_COUNT>
1

> <PUBCHEM_CACTVS_TAUTO_COUNT>
1

> <PUBCHEM_COORDINATE_TYPE>
1
5
255

> <PUBCHEM_BONDANNOTATIONS>
17  19  8
17  20  8
19  21  8
20  22  8
21  23  8
22  23  8
6  16  3
7  24  3
8  25  3
9  26  3

$$$$

