442463
  -OEChem-07051212583D

 25 26  0     1  0  0  0  0  0999 V2000
   -0.8209   -2.4869    0.3118 O   0  0  0  0  0  0  0  0  0  0  0  0
   -0.9833    0.7568    0.2107 C   0  0  0  0  0  0  0  0  0  0  0  0
   -0.9059   -0.2419   -1.0069 C   0  0  2  0  0  0  0  0  0  0  0  0
    0.1168   -0.1323    0.9121 C   0  0  1  0  0  0  0  0  0  0  0  0
   -0.6066   -1.3135    0.1305 C   0  0  0  0  0  0  0  0  0  0  0  0
    0.3236   -0.0065   -1.8948 C   0  0  0  0  0  0  0  0  0  0  0  0
    1.4805    0.0667    0.3257 C   0  0  0  0  0  0  0  0  0  0  0  0
   -0.4882    2.1553   -0.1310 C   0  0  0  0  0  0  0  0  0  0  0  0
   -2.3173    0.8829    0.9165 C   0  0  0  0  0  0  0  0  0  0  0  0
    1.5529    0.1299   -1.0195 C   0  0  0  0  0  0  0  0  0  0  0  0
    2.6483    0.1895    1.2452 C   0  0  0  0  0  0  0  0  0  0  0  0
   -1.8398   -0.3913   -1.5542 H   0  0  0  0  0  0  0  0  0  0  0  0
    0.0755   -0.1867    2.0017 H   0  0  0  0  0  0  0  0  0  0  0  0
    0.1950    0.8854   -2.5169 H   0  0  0  0  0  0  0  0  0  0  0  0
    0.4605   -0.8595   -2.5690 H   0  0  0  0  0  0  0  0  0  0  0  0
   -0.4143    2.7601    0.7819 H   0  0  0  0  0  0  0  0  0  0  0  0
    0.4774    2.2565   -0.6251 H   0  0  0  0  0  0  0  0  0  0  0  0
   -1.2112    2.6595   -0.7847 H   0  0  0  0  0  0  0  0  0  0  0  0
   -3.0575    1.3795    0.2792 H   0  0  0  0  0  0  0  0  0  0  0  0
   -2.7318   -0.0932    1.1906 H   0  0  0  0  0  0  0  0  0  0  0  0
   -2.2237    1.4638    1.8408 H   0  0  0  0  0  0  0  0  0  0  0  0
    2.5079    0.2773   -1.5143 H   0  0  0  0  0  0  0  0  0  0  0  0
    2.5134    1.0425    1.9179 H   0  0  0  0  0  0  0  0  0  0  0  0
    3.5849    0.3374    0.6979 H   0  0  0  0  0  0  0  0  0  0  0  0
    2.7516   -0.7164    1.8508 H   0  0  0  0  0  0  0  0  0  0  0  0
  1  5  2  0  0  0  0
  2  3  1  0  0  0  0
  2  4  1  0  0  0  0
  2  8  1  0  0  0  0
  2  9  1  0  0  0  0
  3  5  1  0  0  0  0
  3  6  1  0  0  0  0
  3 12  1  0  0  0  0
  4  5  1  0  0  0  0
  4  7  1  0  0  0  0
  4 13  1  0  0  0  0
  6 10  1  0  0  0  0
  6 14  1  0  0  0  0
  6 15  1  0  0  0  0
  7 10  2  0  0  0  0
  7 11  1  0  0  0  0
  8 16  1  0  0  0  0
  8 17  1  0  0  0  0
  8 18  1  0  0  0  0
  9 19  1  0  0  0  0
  9 20  1  0  0  0  0
  9 21  1  0  0  0  0
 10 22  1  0  0  0  0
 11 23  1  0  0  0  0
 11 24  1  0  0  0  0
 11 25  1  0  0  0  0
M  END
> <PUBCHEM_COMPOUND_CID>
442463

> <PUBCHEM_CONFORMER_RMSD>
0.4

> <PUBCHEM_CONFORMER_DIVERSEORDER>
2
1

> <PUBCHEM_MMFF94_PARTIAL_CHARGES>
9
1 -0.57
10 -0.29
11 0.14
22 0.15
3 0.05
4 0.17
5 0.46
6 0.14
7 -0.25

> <PUBCHEM_EFFECTIVE_ROTOR_COUNT>
0.4

> <PUBCHEM_PHARMACOPHORE_FEATURES>
3
1 1 acceptor
3 2 8 9 hydrophobe
7 2 3 4 5 6 7 10 rings

> <PUBCHEM_HEAVY_ATOM_COUNT>
11

> <PUBCHEM_ATOM_DEF_STEREO_COUNT>
0

> <PUBCHEM_ATOM_UDEF_STEREO_COUNT>
2

> <PUBCHEM_BOND_DEF_STEREO_COUNT>
0

> <PUBCHEM_BOND_UDEF_STEREO_COUNT>
0

> <PUBCHEM_ISOTOPIC_ATOM_COUNT>
0

> <PUBCHEM_COMPONENT_COUNT>
1

> <PUBCHEM_CACTVS_TAUTO_COUNT>
1

> <PUBCHEM_CONFORMER_ID>
0006C05F00000002

> <PUBCHEM_MMFF94_ENERGY>
32.8303

> <PUBCHEM_FEATURE_SELFOVERLAP>
15.223

> <PUBCHEM_SHAPE_FINGERPRINT>
10702982 57 17612350675547808254
12423570 1 11151319393608266981
13024252 1 13397523457944610216
137420 1 5100834938974276245
15557651 10 17753869899300958565
16945 1 18342458166132311428
21040471 1 18337938095336937873
21922407 69 18129658574345226032
21930827 45 18116129160726655163
23211744 41 17896605170240283648
369184 2 18195555686352869744
5084963 1 17972298866416326196
54338 74 18266761111265534544

> <PUBCHEM_SHAPE_MULTIPOLES>
220.51
2.48
1.75
1.46
0.79
0.51
0.5
-0.72
-1.02
-0.75
-0.21
0.36
0.01
0.04

> <PUBCHEM_SHAPE_SELFOVERLAP>
464.217

> <PUBCHEM_SHAPE_VOLUME>
125

> <PUBCHEM_COORDINATE_TYPE>
2
5
10

$$$$

