441697
  -OEChem-07051212553D

 33 35  0     0  0  0  0  0  0999 V2000
   -0.1951   -0.7360    0.1383 O   0  3  0  0  0  0  0  0  0  0  0  0
    0.8368    2.8008    0.0880 O   0  0  0  0  0  0  0  0  0  0  0  0
   -4.1147    2.1321   -0.1949 O   0  0  0  0  0  0  0  0  0  0  0  0
   -5.7206   -0.2980   -0.1494 O   0  0  0  0  0  0  0  0  0  0  0  0
   -4.5465   -2.6781    0.0423 O   0  0  0  0  0  0  0  0  0  0  0  0
    4.9237   -0.5526   -2.0542 O   0  0  0  0  0  0  0  0  0  0  0  0
    6.1665   -0.7700    0.4224 O   0  0  0  0  0  0  0  0  0  0  0  0
   -2.1544    0.7784   -0.0251 C   0  0  0  0  0  0  0  0  0  0  0  0
   -1.4800   -0.5507    0.0735 C   0  0  0  0  0  0  0  0  0  0  0  0
    0.6694    0.3851    0.1139 C   0  0  0  0  0  0  0  0  0  0  0  0
    2.1063    0.0834    0.1907 C   0  0  0  0  0  0  0  0  0  0  0  0
   -1.2965    1.8075   -0.0298 C   0  0  0  0  0  0  0  0  0  0  0  0
    0.1316    1.6193    0.0540 C   0  0  0  0  0  0  0  0  0  0  0  0
   -3.6014    0.8574   -0.1017 C   0  0  0  0  0  0  0  0  0  0  0  0
   -2.3889   -1.7296    0.0947 C   0  0  0  0  0  0  0  0  0  0  0  0
   -4.3458   -0.2668   -0.0798 C   0  0  0  0  0  0  0  0  0  0  0  0
   -3.7168   -1.5728    0.0222 C   0  0  0  0  0  0  0  0  0  0  0  0
    2.8490   -0.0948   -0.9786 C   0  0  0  0  0  0  0  0  0  0  0  0
    2.7334   -0.0269    1.4338 C   0  0  0  0  0  0  0  0  0  0  0  0
    4.2120   -0.3820   -0.9053 C   0  0  0  0  0  0  0  0  0  0  0  0
    4.0963   -0.3141    1.5072 C   0  0  0  0  0  0  0  0  0  0  0  0
    4.8357   -0.4915    0.3377 C   0  0  0  0  0  0  0  0  0  0  0  0
   -1.6527    2.8320   -0.0953 H   0  0  0  0  0  0  0  0  0  0  0  0
   -1.9275   -2.7075    0.1695 H   0  0  0  0  0  0  0  0  0  0  0  0
    2.3704   -0.0117   -1.9521 H   0  0  0  0  0  0  0  0  0  0  0  0
    2.1702    0.1082    2.3541 H   0  0  0  0  0  0  0  0  0  0  0  0
    4.5697   -0.3965    2.4819 H   0  0  0  0  0  0  0  0  0  0  0  0
    1.7845    2.5955    0.1525 H   0  0  0  0  0  0  0  0  0  0  0  0
   -5.0838    2.0550   -0.2393 H   0  0  0  0  0  0  0  0  0  0  0  0
   -6.0439   -1.0305    0.4018 H   0  0  0  0  0  0  0  0  0  0  0  0
   -5.3533   -2.4693   -0.4575 H   0  0  0  0  0  0  0  0  0  0  0  0
    5.8476   -0.7438   -1.8161 H   0  0  0  0  0  0  0  0  0  0  0  0
    6.4232   -0.8073    1.3597 H   0  0  0  0  0  0  0  0  0  0  0  0
  1  9  2  0  0  0  0
  1 10  1  0  0  0  0
  2 13  1  0  0  0  0
  2 28  1  0  0  0  0
  3 14  1  0  0  0  0
  3 29  1  0  0  0  0
  4 16  1  0  0  0  0
  4 30  1  0  0  0  0
  5 17  1  0  0  0  0
  5 31  1  0  0  0  0
  6 20  1  0  0  0  0
  6 32  1  0  0  0  0
  7 22  1  0  0  0  0
  7 33  1  0  0  0  0
  8  9  1  0  0  0  0
  8 12  2  0  0  0  0
  8 14  1  0  0  0  0
  9 15  1  0  0  0  0
 10 11  1  0  0  0  0
 10 13  2  0  0  0  0
 11 18  2  0  0  0  0
 11 19  1  0  0  0  0
 12 13  1  0  0  0  0
 12 23  1  0  0  0  0
 14 16  2  0  0  0  0
 15 17  2  0  0  0  0
 15 24  1  0  0  0  0
 16 17  1  0  0  0  0
 18 20  1  0  0  0  0
 18 25  1  0  0  0  0
 19 21  2  0  0  0  0
 19 26  1  0  0  0  0
 20 22  2  0  0  0  0
 21 22  1  0  0  0  0
 21 27  1  0  0  0  0
M  CHG  1   1   1
M  END
> <PUBCHEM_COMPOUND_CID>
441697

> <PUBCHEM_CONFORMER_RMSD>
0.6

> <PUBCHEM_CONFORMER_DIVERSEORDER>
1
6
4
2
5
3

> <PUBCHEM_MMFF94_PARTIAL_CHARGES>
33
1 -0.86
10 0.88
11 0.03
12 -0.15
13 0.08
14 0.08
15 -0.14
16 0.08
17 0.08
18 -0.15
19 -0.15
2 -0.53
20 0.08
21 -0.15
22 0.08
23 0.15
24 0.15
25 0.15
26 0.15
27 0.15
28 0.45
29 0.45
3 -0.53
30 0.45
31 0.45
32 0.45
33 0.45
4 -0.53
5 -0.53
6 -0.53
7 -0.53
8 0.01
9 0.92

> <PUBCHEM_EFFECTIVE_ROTOR_COUNT>
1

> <PUBCHEM_PHARMACOPHORE_FEATURES>
9
1 2 donor
1 3 donor
1 4 donor
1 5 donor
1 6 donor
1 7 donor
6 1 8 9 10 12 13 rings
6 11 18 19 20 21 22 rings
6 8 9 14 15 16 17 rings

> <PUBCHEM_HEAVY_ATOM_COUNT>
22

> <PUBCHEM_ATOM_DEF_STEREO_COUNT>
0

> <PUBCHEM_ATOM_UDEF_STEREO_COUNT>
0

> <PUBCHEM_BOND_DEF_STEREO_COUNT>
0

> <PUBCHEM_BOND_UDEF_STEREO_COUNT>
0

> <PUBCHEM_ISOTOPIC_ATOM_COUNT>
0

> <PUBCHEM_COMPONENT_COUNT>
1

> <PUBCHEM_CACTVS_TAUTO_COUNT>
996

> <PUBCHEM_CONFORMER_ID>
0006BD6100000001

> <PUBCHEM_MMFF94_ENERGY>
64.5551

> <PUBCHEM_FEATURE_SELFOVERLAP>
45.712

> <PUBCHEM_SHAPE_FINGERPRINT>
10 15 17822590335038324450
11046707 91 18412545401200308313
11552529 35 14419284022594392029
12236239 1 17775286101572872096
12553582 1 18342178860377745043
12616971 3 17203606025637121020
12788726 201 18129947908790705872
13140716 1 18337955589303523065
13288520 33 18411139134481568891
13533116 47 14851601115895425110
13544653 18 17385721400446576200
13583140 156 14851897915157172231
13675066 3 17822296760020330361
13760787 5 16845852408100601718
13862211 1 18410860953840012103
14386348 63 17967533493280717590
14573314 32 17603583066711862096
15196674 1 18339362967964974681
15537594 2 18202280316653797355
16752209 62 18343588429715637443
17492 89 18050570638714741115
17804303 29 18410576154616487313
17844677 252 18408038507259578312
18222031 100 18261111846265191743
18681886 176 18343584024038936594
19141452 34 17676771985390498263
193927 3 18335694988806338339
200 152 16702024201255109416
20028762 73 18115591414270094639
20374829 77 18410856542628920359
20871999 31 18342167873624613564
21033648 29 17168158857099545267
21033650 10 17914594284725550876
21065201 7 18335987544640358898
21267235 1 18413385419800086259
2297311 6 18335133215657937052
23175994 123 17385442111787652321
23366157 5 17914898630108323956
23402539 116 18412269458220524830
23557571 272 18260268590067623016
23559900 14 18337399227603197257
26918003 58 16950565467160567922
3004659 81 17988926704202981074
314173 85 18259697900123984056
335352 9 18411704275538302501
34797466 226 18114732760191737124
4214541 1 18411703201005388777
4325135 7 18341050732100657740
474 4 16844151356681829988
5104073 3 18264485092848419905
542803 24 17489583489335972796
559249 180 18200882884287068579
602551 16 18408606950697593690
7495541 125 18260552208570494784
8863177 126 17700400396267661547
9709674 26 18124597479472997227

> <PUBCHEM_SHAPE_MULTIPOLES>
411.66
12.26
2.03
1.06
3.85
0.49
-0.13
-4.7
-0.84
-2.61
0.01
1.86
-0.15
0.2

> <PUBCHEM_SHAPE_SELFOVERLAP>
916.901

> <PUBCHEM_SHAPE_VOLUME>
217.2

> <PUBCHEM_COORDINATE_TYPE>
2
5
10

$$$$

