493570
  -OEChem-07051212443D

 47 49  0     1  0  0  0  0  0999 V2000
    1.5771    1.7039    0.6395 O   0  0  0  0  0  0  0  0  0  0  0  0
    3.7723   -0.2458   -1.5605 O   0  0  0  0  0  0  0  0  0  0  0  0
    5.7180    1.2430   -0.2447 O   0  0  0  0  0  0  0  0  0  0  0  0
    5.5145    0.0984    2.2992 O   0  0  0  0  0  0  0  0  0  0  0  0
   -4.6591    1.6319    1.0671 O   0  0  0  0  0  0  0  0  0  0  0  0
   -1.5992    4.6697   -0.5235 O   0  0  0  0  0  0  0  0  0  0  0  0
   -0.3946    0.1687   -0.6768 N   0  0  0  0  0  0  0  0  0  0  0  0
   -2.9293   -0.3520    0.4768 N   0  0  0  0  0  0  0  0  0  0  0  0
   -1.0056    2.4739   -0.6013 N   0  0  0  0  0  0  0  0  0  0  0  0
   -3.1235    3.1865    0.2663 N   0  0  0  0  0  0  0  0  0  0  0  0
    1.9687    0.5944   -0.1701 C   0  0  1  0  0  0  0  0  0  0  0  0
    0.9205    0.4004   -1.2722 C   0  0  0  0  0  0  0  0  0  0  0  0
    3.3813    0.8488   -0.7328 C   0  0  1  0  0  0  0  0  0  0  0  0
    4.4430    1.0385    0.3673 C   0  0  1  0  0  0  0  0  0  0  0  0
   -0.7744   -1.1628   -0.3984 C   0  0  0  0  0  0  0  0  0  0  0  0
   -1.2594    1.2169   -0.3852 C   0  0  0  0  0  0  0  0  0  0  0  0
   -2.0408   -1.3962    0.1756 C   0  0  0  0  0  0  0  0  0  0  0  0
    0.0439   -2.2771   -0.6628 C   0  0  0  0  0  0  0  0  0  0  0  0
   -2.5894    0.8705    0.2258 C   0  0  0  0  0  0  0  0  0  0  0  0
    4.5400   -0.1709    1.2962 C   0  0  0  0  0  0  0  0  0  0  0  0
   -0.3785   -3.5763   -0.3690 C   0  0  0  0  0  0  0  0  0  0  0  0
   -2.4555   -2.7049    0.4666 C   0  0  0  0  0  0  0  0  0  0  0  0
   -1.6286   -3.7907    0.1958 C   0  0  0  0  0  0  0  0  0  0  0  0
   -3.5852    1.9285    0.5726 C   0  0  0  0  0  0  0  0  0  0  0  0
    0.5333   -4.7204   -0.6716 C   0  0  0  0  0  0  0  0  0  0  0  0
   -2.1039   -5.1680    0.5210 C   0  0  0  0  0  0  0  0  0  0  0  0
   -1.8857    3.4912   -0.3009 C   0  0  0  0  0  0  0  0  0  0  0  0
    1.9720   -0.3016    0.4584 H   0  0  0  0  0  0  0  0  0  0  0  0
    0.8753    1.3221   -1.8685 H   0  0  0  0  0  0  0  0  0  0  0  0
    1.2031   -0.3658   -2.0007 H   0  0  0  0  0  0  0  0  0  0  0  0
    3.3733    1.7451   -1.3654 H   0  0  0  0  0  0  0  0  0  0  0  0
    4.2237    1.9412    0.9490 H   0  0  0  0  0  0  0  0  0  0  0  0
    1.0369   -2.1606   -1.0858 H   0  0  0  0  0  0  0  0  0  0  0  0
    3.6022   -0.3935    1.8094 H   0  0  0  0  0  0  0  0  0  0  0  0
    4.8737   -1.0631    0.7577 H   0  0  0  0  0  0  0  0  0  0  0  0
   -3.4369   -2.8635    0.9096 H   0  0  0  0  0  0  0  0  0  0  0  0
    0.7995    1.4293    1.1539 H   0  0  0  0  0  0  0  0  0  0  0  0
    4.6643   -0.0534   -1.8967 H   0  0  0  0  0  0  0  0  0  0  0  0
    6.3691    1.3538    0.4693 H   0  0  0  0  0  0  0  0  0  0  0  0
    1.4773   -4.3846   -1.1148 H   0  0  0  0  0  0  0  0  0  0  0  0
    0.7840   -5.2658    0.2441 H   0  0  0  0  0  0  0  0  0  0  0  0
    0.0677   -5.4054   -1.3876 H   0  0  0  0  0  0  0  0  0  0  0  0
   -3.1083   -5.1583    0.9586 H   0  0  0  0  0  0  0  0  0  0  0  0
   -2.1525   -5.7832   -0.3833 H   0  0  0  0  0  0  0  0  0  0  0  0
   -1.4395   -5.6435    1.2498 H   0  0  0  0  0  0  0  0  0  0  0  0
   -3.7395    3.9683    0.4709 H   0  0  0  0  0  0  0  0  0  0  0  0
    5.2118    0.8746    2.8008 H   0  0  0  0  0  0  0  0  0  0  0  0
  1 11  1  0  0  0  0
  1 37  1  0  0  0  0
  2 13  1  0  0  0  0
  2 38  1  0  0  0  0
  3 14  1  0  0  0  0
  3 39  1  0  0  0  0
  4 20  1  0  0  0  0
  4 47  1  0  0  0  0
  5 24  2  0  0  0  0
  6 27  2  0  0  0  0
  7 12  1  0  0  0  0
  7 15  1  0  0  0  0
  7 16  1  0  0  0  0
  8 17  1  0  0  0  0
  8 19  2  0  0  0  0
  9 16  2  0  0  0  0
  9 27  1  0  0  0  0
 10 24  1  0  0  0  0
 10 27  1  0  0  0  0
 10 46  1  0  0  0  0
 11 12  1  0  0  0  0
 11 13  1  0  0  0  0
 11 28  1  0  0  0  0
 12 29  1  0  0  0  0
 12 30  1  0  0  0  0
 13 14  1  0  0  0  0
 13 31  1  0  0  0  0
 14 20  1  0  0  0  0
 14 32  1  0  0  0  0
 15 17  2  0  0  0  0
 15 18  1  0  0  0  0
 16 19  1  0  0  0  0
 17 22  1  0  0  0  0
 18 21  2  0  0  0  0
 18 33  1  0  0  0  0
 19 24  1  0  0  0  0
 20 34  1  0  0  0  0
 20 35  1  0  0  0  0
 21 23  1  0  0  0  0
 21 25  1  0  0  0  0
 22 23  2  0  0  0  0
 22 36  1  0  0  0  0
 23 26  1  0  0  0  0
 25 40  1  0  0  0  0
 25 41  1  0  0  0  0
 25 42  1  0  0  0  0
 26 43  1  0  0  0  0
 26 44  1  0  0  0  0
 26 45  1  0  0  0  0
M  END
> <PUBCHEM_COMPOUND_CID>
493570

> <PUBCHEM_CONFORMER_RMSD>
0.8

> <PUBCHEM_CONFORMER_DIVERSEORDER>
1
9
5
26
29
25
23
11
17
15
2
27
16
20
18
24
7
6
22
8
21
19
3
14
10
4
28
13
12

> <PUBCHEM_MMFF94_PARTIAL_CHARGES>
34
1 -0.68
10 -0.49
11 0.28
12 0.37
13 0.28
14 0.28
15 0.1
16 0.5
17 0.18
18 -0.15
19 0.45
2 -0.68
20 0.28
21 -0.14
22 -0.15
23 -0.14
24 0.63
25 0.14
26 0.14
27 0.84
3 -0.68
33 0.15
36 0.15
37 0.4
38 0.4
39 0.4
4 -0.68
46 0.37
47 0.4
5 -0.57
6 -0.57
7 -0.52
8 -0.63
9 -0.66

> <PUBCHEM_EFFECTIVE_ROTOR_COUNT>
5

> <PUBCHEM_PHARMACOPHORE_FEATURES>
16
1 1 acceptor
1 1 donor
1 10 donor
1 2 acceptor
1 2 donor
1 3 acceptor
1 3 donor
1 4 acceptor
1 4 donor
1 5 acceptor
1 6 acceptor
1 8 acceptor
1 9 donor
6 15 17 18 21 22 23 rings
6 7 8 15 16 17 19 rings
6 9 10 16 19 24 27 rings

> <PUBCHEM_HEAVY_ATOM_COUNT>
27

> <PUBCHEM_ATOM_DEF_STEREO_COUNT>
3

> <PUBCHEM_ATOM_UDEF_STEREO_COUNT>
0

> <PUBCHEM_BOND_DEF_STEREO_COUNT>
0

> <PUBCHEM_BOND_UDEF_STEREO_COUNT>
0

> <PUBCHEM_ISOTOPIC_ATOM_COUNT>
0

> <PUBCHEM_COMPONENT_COUNT>
1

> <PUBCHEM_CACTVS_TAUTO_COUNT>
3

> <PUBCHEM_CONFORMER_ID>
0007880200000001

> <PUBCHEM_MMFF94_ENERGY>
79.2049

> <PUBCHEM_FEATURE_SELFOVERLAP>
81.313

> <PUBCHEM_SHAPE_FINGERPRINT>
10074138 170 18338533940355371475
10319926 262 18334869282150557624
10411042 1 17761767373638592878
10930396 42 17611788554723848010
1100329 8 18051123706195905459
11049842 53 18196627770741552358
11582403 64 17605859094562502678
12173636 292 18411136982534434916
12553582 1 17688297993922693166
12788726 201 17910378508063200830
13004483 165 17977671909190262219
13140716 1 18122342384960446829
13540713 4 17624681746431984909
138480 1 17114377598673209439
14178342 30 18339932528516694646
14844126 61 18269559338377921490
14849402 71 16535943270243685689
14866123 147 18411139147330242730
15042514 8 18340199674844189423
15131766 46 15157932932327696499
15230672 131 18196645410653057550
15320294 125 17986129593966507194
15326921 28 17980227454177944248
15927050 60 18263637528023589055
16728300 4 17559128768018758865
19591789 44 18122893489547241767
20028762 73 18188478070572055487
20554085 129 18116173218886631297
20600515 1 18045761430651941957
21033648 29 18263367048237294888
212916 134 18261964032533719032
21650355 55 18267022747798601285
21796203 349 17191750837874530578
23559900 14 17475795832788858197
23598288 3 17985524689933748486
3091708 16 9486543980543141983
3298306 158 18120090847298120012
350125 39 17835783571895533997
4409770 3 18270973357739236461
508706 21 18334853909893282718
5265222 85 18195501862445527550
532947 4 17617105041199267030
79837 15 18411135870037801731
90316 7 18194680371696314686
9981440 41 18268715094232178161

> <PUBCHEM_SHAPE_MULTIPOLES>
500.51
8.35
6.53
1.16
14.36
3.63
-0.27
-2.75
-3.7
-8.34
0.41
1.33
0.1
-0.14

> <PUBCHEM_SHAPE_SELFOVERLAP>
1073.509

> <PUBCHEM_SHAPE_VOLUME>
273

> <PUBCHEM_COORDINATE_TYPE>
2
5
10

$$$$

