442012
  -OEChem-07051212563D

 49 54  0     1  0  0  0  0  0999 V2000
    3.5235   -2.4683   -1.1663 O   0  0  0  0  0  0  0  0  0  0  0  0
    2.2603   -1.6816    1.0307 O   0  0  0  0  0  0  0  0  0  0  0  0
    4.5498    0.7234   -0.4165 O   0  0  0  0  0  0  0  0  0  0  0  0
   -2.6341    1.4625   -0.4130 O   0  0  0  0  0  0  0  0  0  0  0  0
    4.1610   -0.7345    1.8819 O   0  0  0  0  0  0  0  0  0  0  0  0
   -1.2274    3.0534   -1.1673 O   0  0  0  0  0  0  0  0  0  0  0  0
   -5.9603   -1.6302    0.3221 O   0  0  0  0  0  0  0  0  0  0  0  0
    2.0712    0.7988   -0.4012 C   0  0  2  0  0  0  0  0  0  0  0  0
    0.8379   -0.1852   -0.2871 C   0  0  1  0  0  0  0  0  0  0  0  0
    3.3881   -0.0768   -0.3491 C   0  0  1  0  0  0  0  0  0  0  0  0
    1.3862   -1.6407   -0.1305 C   0  0  1  0  0  0  0  0  0  0  0  0
    3.3724   -1.0797   -1.4900 C   0  0  2  0  0  0  0  0  0  0  0  0
   -0.2751    0.1997    0.7613 C   0  0  1  0  0  0  0  0  0  0  0  0
    2.1911   -1.9857   -1.3635 C   0  0  1  0  0  0  0  0  0  0  0  0
    2.0683    1.8718    0.7054 C   0  0  0  0  0  0  0  0  0  0  0  0
   -0.5295    1.7348    0.7664 C   0  0  1  0  0  0  0  0  0  0  0  0
    0.7389    2.6080    0.8534 C   0  0  0  0  0  0  0  0  0  0  0  0
    2.0152    1.5509   -1.7618 C   0  0  0  0  0  0  0  0  0  0  0  0
    3.3430   -0.8389    0.9790 C   0  0  0  0  0  0  0  0  0  0  0  0
   -1.5890   -0.5642    0.3724 C   0  0  0  0  0  0  0  0  0  0  0  0
    0.0437   -0.2320    2.2167 C   0  0  0  0  0  0  0  0  0  0  0  0
   -2.8253    0.3325    0.4712 C   0  0  2  0  0  0  0  0  0  0  0  0
   -1.4578    2.1480   -0.3744 C   0  0  0  0  0  0  0  0  0  0  0  0
   -4.0891   -0.4124    0.1211 C   0  0  0  0  0  0  0  0  0  0  0  0
   -4.6537   -0.5640   -1.1637 C   0  0  0  0  0  0  0  0  0  0  0  0
   -4.9159   -1.0757    0.9917 C   0  0  0  0  0  0  0  0  0  0  0  0
   -5.7932   -1.3142   -0.9890 C   0  0  0  0  0  0  0  0  0  0  0  0
    0.3425   -0.1566   -1.2695 H   0  0  0  0  0  0  0  0  0  0  0  0
    0.5871   -2.3734    0.0138 H   0  0  0  0  0  0  0  0  0  0  0  0
    3.6840   -0.7257   -2.4598 H   0  0  0  0  0  0  0  0  0  0  0  0
    1.6316   -2.2624   -2.2427 H   0  0  0  0  0  0  0  0  0  0  0  0
    2.8553    2.6140    0.5155 H   0  0  0  0  0  0  0  0  0  0  0  0
    2.3354    1.4367    1.6724 H   0  0  0  0  0  0  0  0  0  0  0  0
   -1.1070    2.0017    1.6653 H   0  0  0  0  0  0  0  0  0  0  0  0
    0.7506    3.1037    1.8339 H   0  0  0  0  0  0  0  0  0  0  0  0
    0.7116    3.4325    0.1325 H   0  0  0  0  0  0  0  0  0  0  0  0
    1.9825    0.8632   -2.6129 H   0  0  0  0  0  0  0  0  0  0  0  0
    1.1262    2.1806   -1.8433 H   0  0  0  0  0  0  0  0  0  0  0  0
    2.8887    2.1990   -1.8932 H   0  0  0  0  0  0  0  0  0  0  0  0
   -1.7207   -1.4667    0.9831 H   0  0  0  0  0  0  0  0  0  0  0  0
   -1.5209   -0.9233   -0.6635 H   0  0  0  0  0  0  0  0  0  0  0  0
   -0.7611    0.0754    2.8958 H   0  0  0  0  0  0  0  0  0  0  0  0
    0.1239   -1.3199    2.3127 H   0  0  0  0  0  0  0  0  0  0  0  0
    0.9654    0.2025    2.6045 H   0  0  0  0  0  0  0  0  0  0  0  0
    5.3217    0.1320   -0.4271 H   0  0  0  0  0  0  0  0  0  0  0  0
   -2.9459    0.7221    1.4905 H   0  0  0  0  0  0  0  0  0  0  0  0
   -4.2834   -0.1809   -2.1038 H   0  0  0  0  0  0  0  0  0  0  0  0
   -4.9057   -1.2410    2.0593 H   0  0  0  0  0  0  0  0  0  0  0  0
   -6.5522   -1.6883   -1.6603 H   0  0  0  0  0  0  0  0  0  0  0  0
  1 12  1  0  0  0  0
  1 14  1  0  0  0  0
  2 11  1  0  0  0  0
  2 19  1  0  0  0  0
  3 10  1  0  0  0  0
  3 45  1  0  0  0  0
  4 22  1  0  0  0  0
  4 23  1  0  0  0  0
  5 19  2  0  0  0  0
  6 23  2  0  0  0  0
  7 26  1  0  0  0  0
  7 27  1  0  0  0  0
  8  9  1  0  0  0  0
  8 10  1  0  0  0  0
  8 15  1  0  0  0  0
  8 18  1  0  0  0  0
  9 11  1  0  0  0  0
  9 13  1  0  0  0  0
  9 28  1  0  0  0  0
 10 12  1  0  0  0  0
 10 19  1  0  0  0  0
 11 14  1  0  0  0  0
 11 29  1  0  0  0  0
 12 14  1  0  0  0  0
 12 30  1  0  0  0  0
 13 16  1  0  0  0  0
 13 20  1  0  0  0  0
 13 21  1  0  0  0  0
 14 31  1  0  0  0  0
 15 17  1  0  0  0  0
 15 32  1  0  0  0  0
 15 33  1  0  0  0  0
 16 17  1  0  0  0  0
 16 23  1  0  0  0  0
 16 34  1  0  0  0  0
 17 35  1  0  0  0  0
 17 36  1  0  0  0  0
 18 37  1  0  0  0  0
 18 38  1  0  0  0  0
 18 39  1  0  0  0  0
 20 22  1  0  0  0  0
 20 40  1  0  0  0  0
 20 41  1  0  0  0  0
 21 42  1  0  0  0  0
 21 43  1  0  0  0  0
 21 44  1  0  0  0  0
 22 24  1  0  0  0  0
 22 46  1  0  0  0  0
 24 25  1  0  0  0  0
 24 26  2  0  0  0  0
 25 27  2  0  0  0  0
 25 47  1  0  0  0  0
 26 48  1  0  0  0  0
 27 49  1  0  0  0  0
M  END
> <PUBCHEM_COMPOUND_CID>
442012

> <PUBCHEM_CONFORMER_RMSD>
0.6

> <PUBCHEM_CONFORMER_DIVERSEORDER>
3
7
6
8
2
4
5
1

> <PUBCHEM_MMFF94_PARTIAL_CHARGES>
25
1 -0.3
10 0.44
11 0.38
12 -0.05
14 -0.05
16 0.06
19 0.66
2 -0.43
22 0.46
23 0.66
24 -0.18
25 -0.15
26 -0.01
27 -0.01
3 -0.68
30 0.1
31 0.1
4 -0.43
45 0.4
47 0.15
48 0.15
49 0.15
5 -0.57
6 -0.57
7 -0.28

> <PUBCHEM_EFFECTIVE_ROTOR_COUNT>
2.4

> <PUBCHEM_PHARMACOPHORE_FEATURES>
10
1 1 acceptor
1 3 acceptor
1 3 donor
1 5 acceptor
1 6 acceptor
1 7 acceptor
5 7 24 25 26 27 rings
6 4 13 16 20 22 23 rings
6 8 9 13 15 16 17 rings
9 1 2 8 9 10 11 12 14 19 rings

> <PUBCHEM_HEAVY_ATOM_COUNT>
27

> <PUBCHEM_ATOM_DEF_STEREO_COUNT>
9

> <PUBCHEM_ATOM_UDEF_STEREO_COUNT>
0

> <PUBCHEM_BOND_DEF_STEREO_COUNT>
0

> <PUBCHEM_BOND_UDEF_STEREO_COUNT>
0

> <PUBCHEM_ISOTOPIC_ATOM_COUNT>
0

> <PUBCHEM_COMPONENT_COUNT>
1

> <PUBCHEM_CACTVS_TAUTO_COUNT>
1

> <PUBCHEM_CONFORMER_ID>
0006BE9C00000003

> <PUBCHEM_MMFF94_ENERGY>
97.2892

> <PUBCHEM_FEATURE_SELFOVERLAP>
50.785

> <PUBCHEM_SHAPE_FINGERPRINT>
11089746 13 11527948924212032031
12166972 35 16845857905469103006
12553582 1 18187651284354728783
12633257 1 8069749520581594012
12788726 201 18341890813816403905
13140716 1 18045794389972515258
13150687 139 18123728887379882116
13224815 77 18342171198082339865
13464513 79 18114180804784484606
13544653 18 18040434408505518459
13583140 156 15936982932754170313
14787075 74 18409165489745897704
14848178 96 10735873967772446687
14863182 85 18186514398059083030
15183329 4 18260271863586907869
15664445 248 18269823229885746517
15848702 151 18260827086303131289
16945 1 17763176247987536592
17349148 13 17489305338500529738
17357779 13 18412268341745533197
17492 54 18197761229469309388
17492 89 18268431415494483370
1813 80 18410289207999173589
192875 21 17632579383133032320
19862831 5 17132116861973101723
20626108 58 18059866115999770904
20645477 70 18337107861274105513
20691752 17 17203602726633291485
20775530 9 17752756102765502831
21285901 2 18342459235911536485
22393880 68 18128253582878463086
23419403 2 17983896399571917660
23557571 272 18262808478627425297
23559900 14 17846779568176989313
238 59 18200015236532012024
2871803 45 18343018895814442087
3004659 81 18342174462489632495
3633792 109 16415484887067186298
4340502 62 17460602424164420497
439807 62 17775005623356479795
46194498 28 17844249528414852621
463206 1 18263079920961783687
5104073 3 17969502782656294514
6913067 236 18262256450928785603
7164475 11 18058171798271553557
7495541 125 18271805653972017619
7808743 9 7348588751801499522
9709674 26 18340759420614688987

> <PUBCHEM_SHAPE_MULTIPOLES>
514.56
9.98
2.62
1.6
13.42
1.03
-0.2
-6.23
1.12
-0.74
0.62
-0.76
-0.11
0.31

> <PUBCHEM_SHAPE_SELFOVERLAP>
1153.855

> <PUBCHEM_SHAPE_VOLUME>
267.5

> <PUBCHEM_COORDINATE_TYPE>
2
5
10

$$$$

