442500
  -OEChem-07051212582D

 45 48  0     1  0  0  0  0  0999 V2000
    4.9829    1.6722    0.0000 O   0  0  0  0  0  0  0  0  0  0  0  0
    6.5131   -2.2009    0.0000 O   0  0  0  0  0  0  0  0  0  0  0  0
    2.0414   -0.7515    0.0000 O   0  0  0  0  0  0  0  0  0  0  0  0
    6.9205    0.0152    0.0000 N   0  0  3  0  0  0  0  0  0  0  0  0
    5.1884    0.0152    0.0000 C   0  0  2  0  0  0  0  0  0  0  0  0
    6.0544   -0.4848    0.0000 C   0  0  1  0  0  0  0  0  0  0  0  0
    4.4514   -0.6519    0.0000 C   0  0  2  0  0  0  0  0  0  0  0  0
    4.5055    0.7935    0.0000 C   0  0  2  0  0  0  0  0  0  0  0  0
    5.1884    1.0152    0.0000 C   0  0  0  0  0  0  0  0  0  0  0  0
    4.8565   -1.5597    0.0000 C   0  0  0  0  0  0  0  0  0  0  0  0
    6.7215   -1.2218    0.0000 C   0  0  0  0  0  0  0  0  0  0  0  0
    5.8452   -1.4566    0.0000 C   0  0  0  0  0  0  0  0  0  0  0  0
    3.4426   -0.8854    0.0000 C   0  0  0  0  0  0  0  0  0  0  0  0
    2.8860   -0.2161    0.0000 C   0  0  1  0  0  0  0  0  0  0  0  0
    3.3475    0.6765    0.0000 C   0  0  0  0  0  0  0  0  0  0  0  0
    6.0544    1.5152    0.0000 C   0  0  0  0  0  0  0  0  0  0  0  0
    6.9205    1.0152    0.0000 C   0  0  0  0  0  0  0  0  0  0  0  0
    7.8923   -0.1940    0.0000 C   0  0  0  0  0  0  0  0  0  0  0  0
    7.8123   -0.9997    0.0000 C   0  0  0  0  0  0  0  0  0  0  0  0
    2.0000    0.2477    0.0000 C   0  0  0  0  0  0  0  0  0  0  0  0
    4.0727   -1.4129    0.0000 H   0  0  0  0  0  0  0  0  0  0  0  0
    4.1621    1.3098    0.0000 H   0  0  0  0  0  0  0  0  0  0  0  0
    4.9764    1.5978    0.0000 H   0  0  0  0  0  0  0  0  0  0  0  0
    4.5778    0.9075    0.0000 H   0  0  0  0  0  0  0  0  0  0  0  0
    4.2669   -1.7514    0.0000 H   0  0  0  0  0  0  0  0  0  0  0  0
    4.9852   -2.1662    0.0000 H   0  0  0  0  0  0  0  0  0  0  0  0
    6.1954   -1.5498    0.0000 H   0  0  0  0  0  0  0  0  0  0  0  0
    6.9510   -1.7978    0.0000 H   0  0  0  0  0  0  0  0  0  0  0  0
    2.9103   -1.2033    0.0000 H   0  0  0  0  0  0  0  0  0  0  0  0
    3.6743   -1.4605    0.0000 H   0  0  0  0  0  0  0  0  0  0  0  0
    3.4044    1.2938    0.0000 H   0  0  0  0  0  0  0  0  0  0  0  0
    2.7524    0.8505    0.0000 H   0  0  0  0  0  0  0  0  0  0  0  0
    6.4530    1.9901    0.0000 H   0  0  0  0  0  0  0  0  0  0  0  0
    5.6559    1.9901    0.0000 H   0  0  0  0  0  0  0  0  0  0  0  0
    7.5311    0.9075    0.0000 H   0  0  0  0  0  0  0  0  0  0  0  0
    7.1325    1.5978    0.0000 H   0  0  0  0  0  0  0  0  0  0  0  0
    8.5065   -0.2785    0.0000 H   0  0  0  0  0  0  0  0  0  0  0  0
    7.9998    0.4166    0.0000 H   0  0  0  0  0  0  0  0  0  0  0  0
    7.8748   -1.6166    0.0000 H   0  0  0  0  0  0  0  0  0  0  0  0
    8.4323   -0.9991    0.0000 H   0  0  0  0  0  0  0  0  0  0  0  0
    2.2875    0.7969    0.0000 H   0  0  0  0  0  0  0  0  0  0  0  0
    1.4507    0.5352    0.0000 H   0  0  0  0  0  0  0  0  0  0  0  0
    1.7125   -0.3016    0.0000 H   0  0  0  0  0  0  0  0  0  0  0  0
    4.6590    2.2009    0.0000 H   0  0  0  0  0  0  0  0  0  0  0  0
    2.0670   -1.3710    0.0000 H   0  0  0  0  0  0  0  0  0  0  0  0
  8  1  1  6  0  0  0
  1 44  1  0  0  0  0
  2 12  2  0  0  0  0
 14  3  1  6  0  0  0
  3 45  1  0  0  0  0
  4  6  1  0  0  0  0
  4 17  1  0  0  0  0
  4 18  1  0  0  0  0
  5  6  1  0  0  0  0
  5  7  1  0  0  0  0
  5  8  1  0  0  0  0
  5  9  1  1  0  0  0
  6 11  1  6  0  0  0
  6 12  1  0  0  0  0
  7 10  1  0  0  0  0
  7 13  1  0  0  0  0
  7 21  1  1  0  0  0
  8 15  1  0  0  0  0
  8 22  1  0  0  0  0
  9 16  1  0  0  0  0
  9 23  1  0  0  0  0
  9 24  1  0  0  0  0
 10 12  1  0  0  0  0
 10 25  1  0  0  0  0
 10 26  1  0  0  0  0
 11 19  1  0  0  0  0
 11 27  1  0  0  0  0
 11 28  1  0  0  0  0
 13 14  1  0  0  0  0
 13 29  1  0  0  0  0
 13 30  1  0  0  0  0
 14 15  1  0  0  0  0
 14 20  1  0  0  0  0
 15 31  1  0  0  0  0
 15 32  1  0  0  0  0
 16 17  1  0  0  0  0
 16 33  1  0  0  0  0
 16 34  1  0  0  0  0
 17 35  1  0  0  0  0
 17 36  1  0  0  0  0
 18 19  1  0  0  0  0
 18 37  1  0  0  0  0
 18 38  1  0  0  0  0
 19 39  1  0  0  0  0
 19 40  1  0  0  0  0
 20 41  1  0  0  0  0
 20 42  1  0  0  0  0
 20 43  1  0  0  0  0
M  END
> <PUBCHEM_COMPOUND_CID>
442500

> <PUBCHEM_COMPOUND_CANONICALIZED>
1

> <PUBCHEM_CACTVS_COMPLEXITY>
467

> <PUBCHEM_CACTVS_HBOND_ACCEPTOR>
4

> <PUBCHEM_CACTVS_HBOND_DONOR>
2

> <PUBCHEM_CACTVS_ROTATABLE_BOND>
0

> <PUBCHEM_CACTVS_SUBSKEYS>
AAADceB6MAAAAAAAAAAAAAAAAAAAAeIAAAA8QAAAAAAAAHgAAAAAHgAACAAAD9zhgAYCAAMAAgAIAIAQAAAAAAAAAAAAAAGIAAAAEBIAgCAEQAAHAACAAAGa/fffgAAAAAAAAADAAAYQADAAASAACQAAAA==

> <PUBCHEM_IUPAC_INCHI>
InChI=1S/C16H25NO3/c1-14(20)9-11-8-12(18)16-5-3-7-17(16)6-2-4-15(11,16)13(19)10-14/h11,13,19-20H,2-10H2,1H3/t11-,13+,14+,15-,16+/m1/s1

> <PUBCHEM_IUPAC_INCHIKEY>
SWDKDXWGADMDSP-CHUNWDLHSA-N

> <PUBCHEM_XLOGP3_AA>
0.5

> <PUBCHEM_EXACT_MASS>
279.183444

> <PUBCHEM_MOLECULAR_FORMULA>
C16H25NO3

> <PUBCHEM_MOLECULAR_WEIGHT>
279.3746

> <PUBCHEM_OPENEYE_CAN_SMILES>
CC1(CC2CC(=O)C34C2(CCCN3CCC4)C(C1)O)O

> <PUBCHEM_OPENEYE_ISO_SMILES>
C[C@@]1(C[C@H]2CC(=O)[C@@]34[C@@]2(CCCN3CCC4)[C@H](C1)O)O

> <PUBCHEM_CACTVS_TPSA>
60.8

> <PUBCHEM_MONOISOTOPIC_WEIGHT>
279.183444

> <PUBCHEM_TOTAL_CHARGE>
0

> <PUBCHEM_HEAVY_ATOM_COUNT>
20

> <PUBCHEM_ATOM_DEF_STEREO_COUNT>
5

> <PUBCHEM_ATOM_UDEF_STEREO_COUNT>
0

> <PUBCHEM_BOND_DEF_STEREO_COUNT>
0

> <PUBCHEM_BOND_UDEF_STEREO_COUNT>
0

> <PUBCHEM_ISOTOPIC_ATOM_COUNT>
0

> <PUBCHEM_COMPONENT_COUNT>
1

> <PUBCHEM_CACTVS_TAUTO_COUNT>
2

> <PUBCHEM_COORDINATE_TYPE>
1
5
255

> <PUBCHEM_BONDANNOTATIONS>
8  1  6
14  3  6
5  9  5
6  11  6
7  21  5

$$$$

