10953804
  -OEChem-07051213153D

 23 22  0     1  0  0  0  0  0999 V2000
    0.2170   -2.6487    0.8331 O   0  0  0  0  0  0  0  0  0  0  0  0
    0.7696   -1.9659   -1.2584 O   0  0  0  0  0  0  0  0  0  0  0  0
    2.1957    0.8034    1.2337 O   0  0  0  0  0  0  0  0  0  0  0  0
    0.5378    0.6181   -0.3902 N   0  0  0  0  0  0  0  0  0  0  0  0
   -3.7417    1.1776   -0.1044 N   0  0  0  0  0  0  0  0  0  0  0  0
   -0.2720   -0.3802    0.2657 C   0  0  1  0  0  0  0  0  0  0  0  0
   -1.7401   -0.2387   -0.1376 C   0  0  0  0  0  0  0  0  0  0  0  0
   -2.3438    1.0949    0.3051 C   0  0  0  0  0  0  0  0  0  0  0  0
    0.3045   -1.7187   -0.1527 C   0  0  0  0  0  0  0  0  0  0  0  0
    1.7065    1.1250    0.1539 C   0  0  0  0  0  0  0  0  0  0  0  0
    2.3666    2.1332   -0.7481 C   0  0  0  0  0  0  0  0  0  0  0  0
   -0.1500   -0.2686    1.3496 H   0  0  0  0  0  0  0  0  0  0  0  0
   -1.8367   -0.3444   -1.2270 H   0  0  0  0  0  0  0  0  0  0  0  0
   -2.3134   -1.0655    0.3023 H   0  0  0  0  0  0  0  0  0  0  0  0
   -2.2836    1.1902    1.3945 H   0  0  0  0  0  0  0  0  0  0  0  0
   -1.7968    1.9356   -0.1344 H   0  0  0  0  0  0  0  0  0  0  0  0
    0.2738    0.9040   -1.3292 H   0  0  0  0  0  0  0  0  0  0  0  0
   -3.8057    1.1212   -1.1202 H   0  0  0  0  0  0  0  0  0  0  0  0
   -4.1163    2.0892    0.1551 H   0  0  0  0  0  0  0  0  0  0  0  0
    3.1215    2.6904   -0.1864 H   0  0  0  0  0  0  0  0  0  0  0  0
    2.8468    1.6146   -1.5824 H   0  0  0  0  0  0  0  0  0  0  0  0
    1.6275    2.8405   -1.1353 H   0  0  0  0  0  0  0  0  0  0  0  0
    0.5759   -3.5166    0.5498 H   0  0  0  0  0  0  0  0  0  0  0  0
  1  9  1  0  0  0  0
  1 23  1  0  0  0  0
  2  9  2  0  0  0  0
  3 10  2  0  0  0  0
  4  6  1  0  0  0  0
  4 10  1  0  0  0  0
  4 17  1  0  0  0  0
  5  8  1  0  0  0  0
  5 18  1  0  0  0  0
  5 19  1  0  0  0  0
  6  7  1  0  0  0  0
  6  9  1  0  0  0  0
  6 12  1  0  0  0  0
  7  8  1  0  0  0  0
  7 13  1  0  0  0  0
  7 14  1  0  0  0  0
  8 15  1  0  0  0  0
  8 16  1  0  0  0  0
 10 11  1  0  0  0  0
 11 20  1  0  0  0  0
 11 21  1  0  0  0  0
 11 22  1  0  0  0  0
M  END
> <PUBCHEM_COMPOUND_CID>
10953804

> <PUBCHEM_CONFORMER_RMSD>
0.6

> <PUBCHEM_CONFORMER_DIVERSEORDER>
1
40
26
36
41
10
33
12
39
34
11
28
37
9
31
29
27
30
15
20
35
22
14
4
38
21
5
17
18
24
6
25
23
19
32
13
2
16
7
8
3

> <PUBCHEM_MMFF94_PARTIAL_CHARGES>
14
1 -0.65
10 0.57
11 0.06
17 0.37
18 0.36
19 0.36
2 -0.57
23 0.5
3 -0.57
4 -0.73
5 -0.99
6 0.36
8 0.27
9 0.66

> <PUBCHEM_EFFECTIVE_ROTOR_COUNT>
5

> <PUBCHEM_PHARMACOPHORE_FEATURES>
7
1 1 acceptor
1 2 acceptor
1 3 acceptor
1 4 donor
1 5 cation
1 5 donor
3 1 2 9 anion

> <PUBCHEM_HEAVY_ATOM_COUNT>
11

> <PUBCHEM_ATOM_DEF_STEREO_COUNT>
1

> <PUBCHEM_ATOM_UDEF_STEREO_COUNT>
0

> <PUBCHEM_BOND_DEF_STEREO_COUNT>
0

> <PUBCHEM_BOND_UDEF_STEREO_COUNT>
0

> <PUBCHEM_ISOTOPIC_ATOM_COUNT>
0

> <PUBCHEM_COMPONENT_COUNT>
1

> <PUBCHEM_CACTVS_TAUTO_COUNT>
2

> <PUBCHEM_CONFORMER_ID>
00A7244C00000001

> <PUBCHEM_MMFF94_ENERGY>
9.9868

> <PUBCHEM_FEATURE_SELFOVERLAP>
35.579

> <PUBCHEM_SHAPE_FINGERPRINT>
1 1 18409172137948921164
12423570 1 15456874655961146634
170605 34 18411698798943439729
19021347 4 18340486651695001475
20653091 64 18047465909665879729
20711985 344 17688593762513088974
20871998 184 17687167704405831654
21028194 46 18335136436614481289
21040471 1 18264208019680553736
21524375 3 18337395945978904189
230 275 18336828688315833305
23552423 10 18337670948866985789
23552449 11 18121787398277416443
23595355 12 18410005567826234782
7364860 26 17969787564931603319
81228 2 17615976508340010147
81539 233 18342179981517365541

> <PUBCHEM_SHAPE_MULTIPOLES>
198.8
3.89
2.6
0.95
2.19
1.55
0.01
-3.79
0
-0.42
-0.19
-0.45
0.19
-0.07

> <PUBCHEM_SHAPE_SELFOVERLAP>
375.135

> <PUBCHEM_SHAPE_VOLUME>
122.8

> <PUBCHEM_COORDINATE_TYPE>
2
5
10

$$$$

