7124
  -OEChem-07051212513D

 20 21  0     0  0  0  0  0  0999 V2000
   -3.0109   -1.6162   -0.0008 O   0  0  0  0  0  0  0  0  0  0  0  0
   -3.8439    0.4986    0.0002 O   0  0  0  0  0  0  0  0  0  0  0  0
   -0.5685   -0.8501    0.0004 N   0  0  0  0  0  0  0  0  0  0  0  0
    1.1716    0.8170   -0.0002 C   0  0  0  0  0  0  0  0  0  0  0  0
    0.7382   -0.5254    0.0001 C   0  0  0  0  0  0  0  0  0  0  0  0
    0.1978    1.8247   -0.0002 C   0  0  0  0  0  0  0  0  0  0  0  0
    2.5439    1.1197   -0.0002 C   0  0  0  0  0  0  0  0  0  0  0  0
    1.7062   -1.5260    0.0001 C   0  0  0  0  0  0  0  0  0  0  0  0
   -1.4767    0.1525    0.0002 C   0  0  0  0  0  0  0  0  0  0  0  0
   -1.1494    1.4933    0.0000 C   0  0  0  0  0  0  0  0  0  0  0  0
    3.4903    0.0990    0.0000 C   0  0  0  0  0  0  0  0  0  0  0  0
    3.0705   -1.2253    0.0001 C   0  0  0  0  0  0  0  0  0  0  0  0
   -2.8692   -0.2617    0.0003 C   0  0  0  0  0  0  0  0  0  0  0  0
    0.4843    2.8738   -0.0004 H   0  0  0  0  0  0  0  0  0  0  0  0
    2.8831    2.1532   -0.0004 H   0  0  0  0  0  0  0  0  0  0  0  0
    1.4032   -2.5715    0.0002 H   0  0  0  0  0  0  0  0  0  0  0  0
   -1.9013    2.2747   -0.0001 H   0  0  0  0  0  0  0  0  0  0  0  0
    4.5495    0.3367    0.0000 H   0  0  0  0  0  0  0  0  0  0  0  0
    3.8021   -2.0281    0.0001 H   0  0  0  0  0  0  0  0  0  0  0  0
   -3.9547   -1.8841   -0.0013 H   0  0  0  0  0  0  0  0  0  0  0  0
  1 13  1  0  0  0  0
  1 20  1  0  0  0  0
  2 13  2  0  0  0  0
  3  5  1  0  0  0  0
  3  9  2  0  0  0  0
  4  5  1  0  0  0  0
  4  6  1  0  0  0  0
  4  7  2  0  0  0  0
  5  8  2  0  0  0  0
  6 10  2  0  0  0  0
  6 14  1  0  0  0  0
  7 11  1  0  0  0  0
  7 15  1  0  0  0  0
  8 12  1  0  0  0  0
  8 16  1  0  0  0  0
  9 10  1  0  0  0  0
  9 13  1  0  0  0  0
 10 17  1  0  0  0  0
 11 12  2  0  0  0  0
 11 18  1  0  0  0  0
 12 19  1  0  0  0  0
M  END
> <PUBCHEM_COMPOUND_CID>
7124

> <PUBCHEM_CONFORMER_RMSD>
0.4

> <PUBCHEM_CONFORMER_DIVERSEORDER>
1
2

> <PUBCHEM_MMFF94_PARTIAL_CHARGES>
19
1 -0.65
10 -0.15
11 -0.15
12 -0.15
13 0.63
14 0.15
15 0.15
16 0.15
17 0.15
18 0.15
19 0.15
2 -0.57
20 0.5
3 -0.62
5 0.31
6 -0.15
7 -0.15
8 -0.15
9 0.4

> <PUBCHEM_EFFECTIVE_ROTOR_COUNT>
1

> <PUBCHEM_PHARMACOPHORE_FEATURES>
6
1 1 acceptor
1 2 acceptor
1 3 acceptor
3 1 2 13 anion
6 3 4 5 6 9 10 rings
6 4 5 7 8 11 12 rings

> <PUBCHEM_HEAVY_ATOM_COUNT>
13

> <PUBCHEM_ATOM_DEF_STEREO_COUNT>
0

> <PUBCHEM_ATOM_UDEF_STEREO_COUNT>
0

> <PUBCHEM_BOND_DEF_STEREO_COUNT>
0

> <PUBCHEM_BOND_UDEF_STEREO_COUNT>
0

> <PUBCHEM_ISOTOPIC_ATOM_COUNT>
0

> <PUBCHEM_COMPONENT_COUNT>
1

> <PUBCHEM_CACTVS_TAUTO_COUNT>
1

> <PUBCHEM_CONFORMER_ID>
00001BD400000001

> <PUBCHEM_MMFF94_ENERGY>
37.5255

> <PUBCHEM_FEATURE_SELFOVERLAP>
30.549

> <PUBCHEM_SHAPE_FINGERPRINT>
10219947 1 18333448746342535710
10608611 8 18411986870541835989
10967382 1 18410574023843216486
11132069 177 18409173207474827762
11471102 20 18411142441284724541
11769659 78 18411706490781473938
11806522 49 18265901242002375311
12032990 46 18410849958343835270
12932764 1 17346328110784254067
14144814 61 18408321098795462195
14325111 11 18410573955107844033
15536298 74 18333449842049774040
16945 1 18410855464702885828
17844478 74 18060415833053438565
18186145 218 17775570844418496647
193761 8 17762337324271856384
200 152 18113628897318582069
20201158 50 18413389847346937347
20645477 70 18409452522315545479
20871998 22 18189610725802896262
21267235 1 18410283718450941375
21501502 16 18267017439551592488
21501925 9 18410302380046627058
23402539 116 18411147930685575422
23402655 69 18409735092440156485
23463225 33 18411699898133158244
23552423 10 18272085045657188444
23559900 14 18337961215842471362
2748010 2 18338240495552758724
3312278 4 18410571777759820217
528886 8 18409453570081453938
53812653 166 18261398797668395144
581208 293 18409453548796573344
7364860 26 18263645061200949616
8809292 202 18272646848601569675

> <PUBCHEM_SHAPE_MULTIPOLES>
250.81
5.65
1.76
0.6
1.84
0.1
0
-1.2
0
-0.14
0
-0.06
0.02
0

> <PUBCHEM_SHAPE_SELFOVERLAP>
553.821

> <PUBCHEM_SHAPE_VOLUME>
134.2

> <PUBCHEM_COORDINATE_TYPE>
2
5
10

$$$$

