17395824
  -OEChem-06241222522D

 51 53  0     1  0  0  0  0  0999 V2000
    6.7541    0.9128    0.0000 O   0  0  0  0  0  0  0  0  0  0  0  0
    4.3987    3.5288    0.0000 O   0  0  0  0  0  0  0  0  0  0  0  0
    2.8660   -2.9136    0.0000 O   0  0  0  0  0  0  0  0  0  0  0  0
    6.3862    4.4136    0.0000 O   0  0  0  0  0  0  0  0  0  0  0  0
    3.6750    1.6741    0.0000 N   0  0  3  0  0  0  0  0  0  0  0  0
    5.3692    2.0342    0.0000 N   0  0  0  0  0  0  0  0  0  0  0  0
    6.8474    2.6924    0.0000 N   0  0  0  0  0  0  0  0  0  0  0  0
    2.8660    1.0864    0.0000 C   0  0  3  0  0  0  0  0  0  0  0  0
    2.0570    1.6741    0.0000 C   0  0  0  0  0  0  0  0  0  0  0  0
    3.3660    2.6252    0.0000 C   0  0  0  0  0  0  0  0  0  0  0  0
    2.3660    2.6252    0.0000 C   0  0  0  0  0  0  0  0  0  0  0  0
    4.6261    1.3651    0.0000 C   0  0  0  0  0  0  0  0  0  0  0  0
    2.8660    0.0863    0.0000 C   0  0  0  0  0  0  0  0  0  0  0  0
    2.0000   -0.4137    0.0000 C   0  0  0  0  0  0  0  0  0  0  0  0
    3.7320   -0.4137    0.0000 C   0  0  0  0  0  0  0  0  0  0  0  0
    6.3474    1.8263    0.0000 C   0  0  0  0  0  0  0  0  0  0  0  0
    5.2647    3.0288    0.0000 C   0  0  0  0  0  0  0  0  0  0  0  0
    6.1783    3.4355    0.0000 C   0  0  0  0  0  0  0  0  0  0  0  0
    2.0000   -1.4136    0.0000 C   0  0  0  0  0  0  0  0  0  0  0  0
    3.7320   -1.4136    0.0000 C   0  0  0  0  0  0  0  0  0  0  0  0
    7.8419    2.7969    0.0000 C   0  0  0  0  0  0  0  0  0  0  0  0
    2.8660   -1.9136    0.0000 C   0  0  0  0  0  0  0  0  0  0  0  0
    8.2486    3.7104    0.0000 C   0  0  0  0  0  0  0  0  0  0  0  0
    9.2432    3.8150    0.0000 C   0  0  0  0  0  0  0  0  0  0  0  0
    2.0000   -3.4136    0.0000 C   0  0  0  0  0  0  0  0  0  0  0  0
    2.0000   -4.4136    0.0000 C   0  0  0  0  0  0  0  0  0  0  0  0
    3.4184    0.8049    0.0000 H   0  0  0  0  0  0  0  0  0  0  0  0
    1.4906    1.9263    0.0000 H   0  0  0  0  0  0  0  0  0  0  0  0
    1.7470    1.1372    0.0000 H   0  0  0  0  0  0  0  0  0  0  0  0
    3.9725    2.7541    0.0000 H   0  0  0  0  0  0  0  0  0  0  0  0
    3.3012    3.2418    0.0000 H   0  0  0  0  0  0  0  0  0  0  0  0
    2.4308    3.2418    0.0000 H   0  0  0  0  0  0  0  0  0  0  0  0
    1.7596    2.7541    0.0000 H   0  0  0  0  0  0  0  0  0  0  0  0
    4.3350    0.8177    0.0000 H   0  0  0  0  0  0  0  0  0  0  0  0
    5.1147    0.9834    0.0000 H   0  0  0  0  0  0  0  0  0  0  0  0
    1.4631   -0.1037    0.0000 H   0  0  0  0  0  0  0  0  0  0  0  0
    4.2690   -0.1037    0.0000 H   0  0  0  0  0  0  0  0  0  0  0  0
    1.4631   -1.7236    0.0000 H   0  0  0  0  0  0  0  0  0  0  0  0
    4.2690   -1.7236    0.0000 H   0  0  0  0  0  0  0  0  0  0  0  0
    7.7987    2.1784    0.0000 H   0  0  0  0  0  0  0  0  0  0  0  0
    8.4435    2.6469    0.0000 H   0  0  0  0  0  0  0  0  0  0  0  0
    8.2919    4.3289    0.0000 H   0  0  0  0  0  0  0  0  0  0  0  0
    7.6471    3.8604    0.0000 H   0  0  0  0  0  0  0  0  0  0  0  0
    9.3080    3.1984    0.0000 H   0  0  0  0  0  0  0  0  0  0  0  0
    9.8598    3.8798    0.0000 H   0  0  0  0  0  0  0  0  0  0  0  0
    9.1784    4.4316    0.0000 H   0  0  0  0  0  0  0  0  0  0  0  0
    1.7880   -2.8310    0.0000 H   0  0  0  0  0  0  0  0  0  0  0  0
    1.3894   -3.5213    0.0000 H   0  0  0  0  0  0  0  0  0  0  0  0
    1.3800   -4.4136    0.0000 H   0  0  0  0  0  0  0  0  0  0  0  0
    2.0000   -5.0336    0.0000 H   0  0  0  0  0  0  0  0  0  0  0  0
    2.6200   -4.4136    0.0000 H   0  0  0  0  0  0  0  0  0  0  0  0
  1 16  2  0  0  0  0
  2 17  2  0  0  0  0
  3 22  1  0  0  0  0
  3 25  1  0  0  0  0
  4 18  2  0  0  0  0
  5  8  1  0  0  0  0
  5 10  1  0  0  0  0
  5 12  1  0  0  0  0
  6 12  1  0  0  0  0
  6 16  1  0  0  0  0
  6 17  1  0  0  0  0
  7 16  1  0  0  0  0
  7 18  1  0  0  0  0
  7 21  1  0  0  0  0
  8  9  1  0  0  0  0
  8 13  1  0  0  0  0
  8 27  1  0  0  0  0
  9 11  1  0  0  0  0
  9 28  1  0  0  0  0
  9 29  1  0  0  0  0
 10 11  1  0  0  0  0
 10 30  1  0  0  0  0
 10 31  1  0  0  0  0
 11 32  1  0  0  0  0
 11 33  1  0  0  0  0
 12 34  1  0  0  0  0
 12 35  1  0  0  0  0
 13 14  2  0  0  0  0
 13 15  1  0  0  0  0
 14 19  1  0  0  0  0
 14 36  1  0  0  0  0
 15 20  2  0  0  0  0
 15 37  1  0  0  0  0
 17 18  1  0  0  0  0
 19 22  2  0  0  0  0
 19 38  1  0  0  0  0
 20 22  1  0  0  0  0
 20 39  1  0  0  0  0
 21 23  1  0  0  0  0
 21 40  1  0  0  0  0
 21 41  1  0  0  0  0
 23 24  1  0  0  0  0
 23 42  1  0  0  0  0
 23 43  1  0  0  0  0
 24 44  1  0  0  0  0
 24 45  1  0  0  0  0
 24 46  1  0  0  0  0
 25 26  1  0  0  0  0
 25 47  1  0  0  0  0
 25 48  1  0  0  0  0
 26 49  1  0  0  0  0
 26 50  1  0  0  0  0
 26 51  1  0  0  0  0
M  END
> <PUBCHEM_COMPOUND_CID>
17395824

> <PUBCHEM_COMPOUND_CANONICALIZED>
1

> <PUBCHEM_CACTVS_COMPLEXITY>
545

> <PUBCHEM_CACTVS_HBOND_ACCEPTOR>
5

> <PUBCHEM_CACTVS_HBOND_DONOR>
0

> <PUBCHEM_CACTVS_ROTATABLE_BOND>
7

> <PUBCHEM_CACTVS_SUBSKEYS>
AAADceB7OAAAAAAAAAAAAAAAAAAAAWLAAAAwAAAAAAAAAAABAAAAHgAAAAAADCzhmAYzBoMABACIAiFSEACCCAAgIAAIiACODIiMZiKEsTuWOCjsxzOIqAeQ0KMOIAAAAAAAAABAAAAAAAAAAAAAAAAAAA==

> <PUBCHEM_IUPAC_OPENEYE_NAME>
1-[[2-(4-ethoxyphenyl)pyrrolidin-1-yl]methyl]-3-propyl-imidazolidine-2,4,5-trione

> <PUBCHEM_IUPAC_CAS_NAME>
1-[[2-(4-ethoxyphenyl)-1-pyrrolidinyl]methyl]-3-propylimidazolidine-2,4,5-trione

> <PUBCHEM_IUPAC_NAME>
1-[[2-(4-ethoxyphenyl)pyrrolidin-1-yl]methyl]-3-propylimidazolidine-2,4,5-trione

> <PUBCHEM_IUPAC_SYSTEMATIC_NAME>
1-[[2-(4-ethoxyphenyl)pyrrolidin-1-yl]methyl]-3-propyl-imidazolidine-2,4,5-trione

> <PUBCHEM_IUPAC_TRADITIONAL_NAME>
1-[(2-p-phenetylpyrrolidino)methyl]-3-propyl-imidazolidine-2,4,5-trione

> <PUBCHEM_IUPAC_INCHI>
InChI=1S/C19H25N3O4/c1-3-11-21-17(23)18(24)22(19(21)25)13-20-12-5-6-16(20)14-7-9-15(10-8-14)26-4-2/h7-10,16H,3-6,11-13H2,1-2H3

> <PUBCHEM_IUPAC_INCHIKEY>
XANKOWIUHXVUNG-UHFFFAOYSA-N

> <PUBCHEM_XLOGP3_AA>
2.8

> <PUBCHEM_EXACT_MASS>
359.184506

> <PUBCHEM_MOLECULAR_FORMULA>
C19H25N3O4

> <PUBCHEM_MOLECULAR_WEIGHT>
359.4195

> <PUBCHEM_OPENEYE_CAN_SMILES>
CCCN1C(=O)C(=O)N(C1=O)CN2CCCC2C3=CC=C(C=C3)OCC

> <PUBCHEM_OPENEYE_ISO_SMILES>
CCCN1C(=O)C(=O)N(C1=O)CN2CCCC2C3=CC=C(C=C3)OCC

> <PUBCHEM_CACTVS_TPSA>
70.2

> <PUBCHEM_MONOISOTOPIC_WEIGHT>
359.184506

> <PUBCHEM_TOTAL_CHARGE>
0

> <PUBCHEM_HEAVY_ATOM_COUNT>
26

> <PUBCHEM_ATOM_DEF_STEREO_COUNT>
0

> <PUBCHEM_ATOM_UDEF_STEREO_COUNT>
1

> <PUBCHEM_BOND_DEF_STEREO_COUNT>
0

> <PUBCHEM_BOND_UDEF_STEREO_COUNT>
0

> <PUBCHEM_ISOTOPIC_ATOM_COUNT>
0

> <PUBCHEM_COMPONENT_COUNT>
1

> <PUBCHEM_CACTVS_TAUTO_COUNT>
1

> <PUBCHEM_COORDINATE_TYPE>
1
5
255

> <PUBCHEM_BONDANNOTATIONS>
13  14  8
13  15  8
14  19  8
15  20  8
19  22  8
20  22  8
8  13  3

$$$$

