5281310
  -OEChem-07051212562D

 87 92  0     1  0  0  0  0  0999 V2000
    3.6747   -1.5356    0.0000 O   0  0  0  0  0  0  0  0  0  0  0  0
    5.7330   -2.8614    0.0000 O   0  0  0  0  0  0  0  0  0  0  0  0
    6.4116    1.6418    0.0000 O   0  0  0  0  0  0  0  0  0  0  0  0
    2.8718    1.6555    0.0000 O   0  0  0  0  0  0  0  0  0  0  0  0
    8.9879    0.1104    0.0000 O   0  0  0  0  0  0  0  0  0  0  0  0
    8.1219   -1.3896    0.0000 O   0  0  0  0  0  0  0  0  0  0  0  0
    5.5630    3.1518    0.0000 O   0  0  0  0  0  0  0  0  0  0  0  0
   10.8353   -3.7084    0.0000 O   0  0  0  0  0  0  0  0  0  0  0  0
    3.7320    3.1588    0.0000 O   0  0  0  0  0  0  0  0  0  0  0  0
    5.5238    0.1104    0.0000 C   0  0  1  0  0  0  0  0  0  0  0  0
    4.6578   -0.3896    0.0000 C   0  0  2  0  0  0  0  0  0  0  0  0
    6.3898   -1.3896    0.0000 C   0  0  1  0  0  0  0  0  0  0  0  0
    6.3898   -0.3896    0.0000 C   0  0  1  0  0  0  0  0  0  0  0  0
    3.7478    0.1172    0.0000 C   0  0  1  0  0  0  0  0  0  0  0  0
    4.6578   -1.3896    0.0000 C   0  0  2  0  0  0  0  0  0  0  0  0
    5.5238   -1.8896    0.0000 C   0  0  1  0  0  0  0  0  0  0  0  0
    5.5399    1.1519    0.0000 C   0  0  2  0  0  0  0  0  0  0  0  0
    3.7398    1.1588    0.0000 C   0  0  1  0  0  0  0  0  0  0  0  0
    7.1268   -2.0567    0.0000 C   0  0  0  0  0  0  0  0  0  0  0  0
    3.1610   -0.6849    0.0000 C   0  0  0  0  0  0  0  0  0  0  0  0
    4.6418    1.6796    0.0000 C   0  0  0  0  0  0  0  0  0  0  0  0
    6.7217   -2.9645    0.0000 C   0  0  1  0  0  0  0  0  0  0  0  0
    6.3898    0.6104    0.0000 C   0  0  0  0  0  0  0  0  0  0  0  0
    7.2558    0.1104    0.0000 C   0  0  0  0  0  0  0  0  0  0  0  0
    7.2558   -0.8896    0.0000 C   0  0  0  0  0  0  0  0  0  0  0  0
    2.7478    0.1057    0.0000 C   0  0  0  0  0  0  0  0  0  0  0  0
    8.1093   -2.1634    0.0000 C   0  0  0  0  0  0  0  0  0  0  0  0
    7.4572   -3.6245    0.0000 C   0  0  0  0  0  0  0  0  0  0  0  0
    8.3130   -3.1304    0.0000 C   0  0  1  0  0  0  0  0  0  0  0  0
    8.1219   -0.3896    0.0000 C   0  0  0  0  0  0  0  0  0  0  0  0
    8.7803   -1.4220    0.0000 C   0  0  0  0  0  0  0  0  0  0  0  0
    9.2262   -3.5379    0.0000 C   0  0  0  0  0  0  0  0  0  0  0  0
    6.4232    2.6418    0.0000 C   0  0  0  0  0  0  0  0  0  0  0  0
    2.8680    2.6555    0.0000 C   0  0  0  0  0  0  0  0  0  0  0  0
    9.4333   -4.5162    0.0000 C   0  0  0  0  0  0  0  0  0  0  0  0
   10.0927   -3.0386    0.0000 C   0  0  0  0  0  0  0  0  0  0  0  0
    7.2949    3.1317    0.0000 C   0  0  0  0  0  0  0  0  0  0  0  0
    2.0000    3.1521    0.0000 C   0  0  0  0  0  0  0  0  0  0  0  0
   10.4277   -4.6216    0.0000 C   0  0  0  0  0  0  0  0  0  0  0  0
    9.8539   -0.3896    0.0000 C   0  0  0  0  0  0  0  0  0  0  0  0
    8.1551    2.6217    0.0000 C   0  0  0  0  0  0  0  0  0  0  0  0
    7.3065    4.1316    0.0000 C   0  0  0  0  0  0  0  0  0  0  0  0
    8.1782    4.6216    0.0000 C   0  0  0  0  0  0  0  0  0  0  0  0
    4.6578    0.4604    0.0000 H   0  0  0  0  0  0  0  0  0  0  0  0
    6.3898    0.2304    0.0000 H   0  0  0  0  0  0  0  0  0  0  0  0
    4.4988   -2.2246    0.0000 H   0  0  0  0  0  0  0  0  0  0  0  0
    4.8368   -2.3901    0.0000 H   0  0  0  0  0  0  0  0  0  0  0  0
    5.5458    1.7718    0.0000 H   0  0  0  0  0  0  0  0  0  0  0  0
    3.7386    1.7788    0.0000 H   0  0  0  0  0  0  0  0  0  0  0  0
    2.7131   -0.2561    0.0000 H   0  0  0  0  0  0  0  0  0  0  0  0
    2.6770   -1.0724    0.0000 H   0  0  0  0  0  0  0  0  0  0  0  0
    5.0428    2.1525    0.0000 H   0  0  0  0  0  0  0  0  0  0  0  0
    4.2445    2.1556    0.0000 H   0  0  0  0  0  0  0  0  0  0  0  0
    6.3770   -3.7415    0.0000 H   0  0  0  0  0  0  0  0  0  0  0  0
    6.6998    0.0734    0.0000 H   0  0  0  0  0  0  0  0  0  0  0  0
    6.9268    0.9204    0.0000 H   0  0  0  0  0  0  0  0  0  0  0  0
    6.0798    1.1473    0.0000 H   0  0  0  0  0  0  0  0  0  0  0  0
    7.6544    0.5853    0.0000 H   0  0  0  0  0  0  0  0  0  0  0  0
    6.8573    0.5853    0.0000 H   0  0  0  0  0  0  0  0  0  0  0  0
    7.5658   -1.4266    0.0000 H   0  0  0  0  0  0  0  0  0  0  0  0
    7.7928   -0.5796    0.0000 H   0  0  0  0  0  0  0  0  0  0  0  0
    6.9458   -0.3527    0.0000 H   0  0  0  0  0  0  0  0  0  0  0  0
    2.7407    0.7256    0.0000 H   0  0  0  0  0  0  0  0  0  0  0  0
    2.1279    0.0985    0.0000 H   0  0  0  0  0  0  0  0  0  0  0  0
    2.7550   -0.5143    0.0000 H   0  0  0  0  0  0  0  0  0  0  0  0
    6.9970   -4.0399    0.0000 H   0  0  0  0  0  0  0  0  0  0  0  0
    7.8220   -4.1258    0.0000 H   0  0  0  0  0  0  0  0  0  0  0  0
    8.3452   -3.7495    0.0000 H   0  0  0  0  0  0  0  0  0  0  0  0
    9.2400   -1.8381    0.0000 H   0  0  0  0  0  0  0  0  0  0  0  0
    9.1964   -0.9623    0.0000 H   0  0  0  0  0  0  0  0  0  0  0  0
    8.3206   -1.0059    0.0000 H   0  0  0  0  0  0  0  0  0  0  0  0
    9.0180   -4.9766    0.0000 H   0  0  0  0  0  0  0  0  0  0  0  0
   10.1580   -2.4221    0.0000 H   0  0  0  0  0  0  0  0  0  0  0  0
    2.3079    3.6902    0.0000 H   0  0  0  0  0  0  0  0  0  0  0  0
    1.4619    3.4601    0.0000 H   0  0  0  0  0  0  0  0  0  0  0  0
    1.6921    2.6140    0.0000 H   0  0  0  0  0  0  0  0  0  0  0  0
   10.7373   -5.1588    0.0000 H   0  0  0  0  0  0  0  0  0  0  0  0
    9.5439   -0.9266    0.0000 H   0  0  0  0  0  0  0  0  0  0  0  0
   10.3909   -0.6996    0.0000 H   0  0  0  0  0  0  0  0  0  0  0  0
   10.1639    0.1473    0.0000 H   0  0  0  0  0  0  0  0  0  0  0  0
    7.8389    2.0884    0.0000 H   0  0  0  0  0  0  0  0  0  0  0  0
    8.6884    2.3056    0.0000 H   0  0  0  0  0  0  0  0  0  0  0  0
    8.4713    3.1550    0.0000 H   0  0  0  0  0  0  0  0  0  0  0  0
    6.7732    4.4478    0.0000 H   0  0  0  0  0  0  0  0  0  0  0  0
    8.4820    4.0811    0.0000 H   0  0  0  0  0  0  0  0  0  0  0  0
    8.7187    4.9254    0.0000 H   0  0  0  0  0  0  0  0  0  0  0  0
    7.8745    5.1621    0.0000 H   0  0  0  0  0  0  0  0  0  0  0  0
  1 15  1  0  0  0  0
  1 20  1  0  0  0  0
  2 16  1  0  0  0  0
  2 22  1  0  0  0  0
 17  3  1  6  0  0  0
  3 33  1  0  0  0  0
 18  4  1  6  0  0  0
  4 34  1  0  0  0  0
  5 30  1  0  0  0  0
  5 40  1  0  0  0  0
  6 30  2  0  0  0  0
  7 33  2  0  0  0  0
  8 36  1  0  0  0  0
  8 39  1  0  0  0  0
  9 34  2  0  0  0  0
 10 11  1  0  0  0  0
 10 13  1  0  0  0  0
 10 17  1  0  0  0  0
 10 23  1  1  0  0  0
 11 14  1  0  0  0  0
 11 15  1  0  0  0  0
 11 44  1  6  0  0  0
 12 13  1  0  0  0  0
 12 16  1  0  0  0  0
 12 19  1  0  0  0  0
 12 25  1  1  0  0  0
 13 24  1  6  0  0  0
 13 45  1  0  0  0  0
 14 18  1  0  0  0  0
 14 20  1  0  0  0  0
 14 26  1  1  0  0  0
 15 16  1  0  0  0  0
 15 46  1  1  0  0  0
 16 47  1  1  0  0  0
 17 21  1  0  0  0  0
 17 48  1  0  0  0  0
 18 21  1  0  0  0  0
 18 49  1  0  0  0  0
 19 22  1  0  0  0  0
 19 27  2  0  0  0  0
 20 50  1  0  0  0  0
 20 51  1  0  0  0  0
 21 52  1  0  0  0  0
 21 53  1  0  0  0  0
 22 28  1  0  0  0  0
 22 54  1  6  0  0  0
 23 55  1  0  0  0  0
 23 56  1  0  0  0  0
 23 57  1  0  0  0  0
 24 30  1  0  0  0  0
 24 58  1  0  0  0  0
 24 59  1  0  0  0  0
 25 60  1  0  0  0  0
 25 61  1  0  0  0  0
 25 62  1  0  0  0  0
 26 63  1  0  0  0  0
 26 64  1  0  0  0  0
 26 65  1  0  0  0  0
 27 29  1  0  0  0  0
 27 31  1  0  0  0  0
 28 29  1  0  0  0  0
 28 66  1  0  0  0  0
 28 67  1  0  0  0  0
 29 32  1  6  0  0  0
 29 68  1  0  0  0  0
 31 69  1  0  0  0  0
 31 70  1  0  0  0  0
 31 71  1  0  0  0  0
 32 35  1  0  0  0  0
 32 36  2  0  0  0  0
 33 37  1  0  0  0  0
 34 38  1  0  0  0  0
 35 39  2  0  0  0  0
 35 72  1  0  0  0  0
 36 73  1  0  0  0  0
 37 41  1  0  0  0  0
 37 42  2  0  0  0  0
 38 74  1  0  0  0  0
 38 75  1  0  0  0  0
 38 76  1  0  0  0  0
 39 77  1  0  0  0  0
 40 78  1  0  0  0  0
 40 79  1  0  0  0  0
 40 80  1  0  0  0  0
 41 81  1  0  0  0  0
 41 82  1  0  0  0  0
 41 83  1  0  0  0  0
 42 43  1  0  0  0  0
 42 84  1  0  0  0  0
 43 85  1  0  0  0  0
 43 86  1  0  0  0  0
 43 87  1  0  0  0  0
M  END
> <PUBCHEM_COMPOUND_CID>
5281310

> <PUBCHEM_COMPOUND_CANONICALIZED>
1

> <PUBCHEM_CACTVS_COMPLEXITY>
1250

> <PUBCHEM_CACTVS_HBOND_ACCEPTOR>
9

> <PUBCHEM_CACTVS_HBOND_DONOR>
0

> <PUBCHEM_CACTVS_ROTATABLE_BOND>
9

> <PUBCHEM_CACTVS_SUBSKEYS>
AAADcfB8PAAAAAAAAAAAAAAAAAAAASJEiAAwYAAAAAAQAEjBgAAAGgAAAAAADxSgmAIyDIAABECIAijSiAACCAAkIAAIiAEGCMgNJhIENQqCGSClwBEKKYPI7PzPgAAAAAAAAADAAAYQADCAAAAAAAAAAA==

> <PUBCHEM_IUPAC_INCHI>
InChI=1S/C34H44O9/c1-9-17(2)31(37)43-25-14-24(41-19(4)35)32(5)16-40-28-29(32)33(25,6)23(13-26(36)38-8)34(7)27-18(3)21(20-10-11-39-15-20)12-22(27)42-30(28)34/h9-11,15,21-25,28-30H,12-14,16H2,1-8H3/b17-9+/t21-,22-,23+,24-,25+,28-,29+,30-,32-,33+,34-/m1/s1

> <PUBCHEM_IUPAC_INCHIKEY>
CJHBVBNPNXOWBA-HLIKQWNHSA-N

> <PUBCHEM_XLOGP3_AA>
3.9

> <PUBCHEM_EXACT_MASS>
596.298533

> <PUBCHEM_MOLECULAR_FORMULA>
C34H44O9

> <PUBCHEM_MOLECULAR_WEIGHT>
596.70776

> <PUBCHEM_OPENEYE_CAN_SMILES>
CC=C(C)C(=O)OC1CC(C2(COC3C2C1(C(C4(C3OC5C4=C(C(C5)C6=COC=C6)C)C)CC(=O)OC)C)C)OC(=O)C

> <PUBCHEM_OPENEYE_ISO_SMILES>
C/C=C(\C)/C(=O)O[C@H]1C[C@H]([C@]2(CO[C@@H]3[C@@H]2[C@]1([C@@H]([C@]4([C@@H]3O[C@H]5C4=C([C@@H](C5)C6=COC=C6)C)C)CC(=O)OC)C)C)OC(=O)C

> <PUBCHEM_CACTVS_TPSA>
111

> <PUBCHEM_MONOISOTOPIC_WEIGHT>
596.298533

> <PUBCHEM_TOTAL_CHARGE>
0

> <PUBCHEM_HEAVY_ATOM_COUNT>
43

> <PUBCHEM_ATOM_DEF_STEREO_COUNT>
11

> <PUBCHEM_ATOM_UDEF_STEREO_COUNT>
0

> <PUBCHEM_BOND_DEF_STEREO_COUNT>
1

> <PUBCHEM_BOND_UDEF_STEREO_COUNT>
0

> <PUBCHEM_ISOTOPIC_ATOM_COUNT>
0

> <PUBCHEM_COMPONENT_COUNT>
1

> <PUBCHEM_CACTVS_TAUTO_COUNT>
1

> <PUBCHEM_COORDINATE_TYPE>
1
5
255

> <PUBCHEM_BONDANNOTATIONS>
10  23  5
11  44  6
12  25  5
13  24  6
14  26  5
15  46  5
16  47  5
22  54  6
29  32  6
17  3  6
32  35  8
32  36  8
35  39  8
18  4  6
8  36  8
8  39  8

$$$$

