443823
  -OEChem-07051213033D

 47 49  0     1  0  0  0  0  0999 V2000
    0.0176    2.6181   -0.1776 O   0  0  0  0  0  0  0  0  0  0  0  0
   -2.4882    2.3838    0.1812 O   0  0  0  0  0  0  0  0  0  0  0  0
   -2.2631   -2.9243   -0.3950 O   0  0  0  0  0  0  0  0  0  0  0  0
    2.8298    1.8826   -1.7786 O   0  0  0  0  0  0  0  0  0  0  0  0
    5.3204    0.7078   -0.3087 O   0  0  0  0  0  0  0  0  0  0  0  0
   -5.0180    2.3229    0.5643 O   0  0  0  0  0  0  0  0  0  0  0  0
    4.5183   -2.4455   -0.0782 O   0  0  0  0  0  0  0  0  0  0  0  0
    2.9140   -1.7060    1.4050 O   0  0  0  0  0  0  0  0  0  0  0  0
   -1.1456    0.4966   -0.2173 C   0  0  0  0  0  0  0  0  0  0  0  0
   -1.0875   -0.8904   -0.3683 C   0  0  0  0  0  0  0  0  0  0  0  0
    1.2448    0.6340   -0.5720 C   0  0  0  0  0  0  0  0  0  0  0  0
    1.3028   -0.7500   -0.7231 C   0  0  0  0  0  0  0  0  0  0  0  0
    0.0238    1.2597   -0.3195 C   0  0  0  0  0  0  0  0  0  0  0  0
    0.1400   -1.5144   -0.6219 C   0  0  0  0  0  0  0  0  0  0  0  0
   -3.6600    0.3506    0.1554 C   0  0  0  0  0  0  0  0  0  0  0  0
   -3.6019   -1.0365    0.0048 C   0  0  0  0  0  0  0  0  0  0  0  0
   -2.4341    1.1679    0.0495 C   0  0  0  0  0  0  0  0  0  0  0  0
   -2.3134   -1.7076   -0.2625 C   0  0  0  0  0  0  0  0  0  0  0  0
    2.4650    1.4285   -0.6780 C   0  0  0  0  0  0  0  0  0  0  0  0
    3.3061    1.7096    0.5814 C   0  0  0  0  0  0  0  0  0  0  0  0
    2.5978   -1.4454   -0.9933 C   0  0  0  0  0  0  0  0  0  0  0  0
    4.8014    1.8889    0.2994 C   0  0  1  0  0  0  0  0  0  0  0  0
   -4.8875    0.9746    0.4082 C   0  0  0  0  0  0  0  0  0  0  0  0
   -4.7711   -1.7996    0.1070 C   0  0  0  0  0  0  0  0  0  0  0  0
   -6.0504    0.2103    0.5093 C   0  0  0  0  0  0  0  0  0  0  0  0
   -5.9924   -1.1738    0.3588 C   0  0  0  0  0  0  0  0  0  0  0  0
    5.5786    2.1182    1.5883 C   0  0  0  0  0  0  0  0  0  0  0  0
    3.3297   -1.8649    0.2652 C   0  0  0  0  0  0  0  0  0  0  0  0
    5.3231   -2.8958    1.0163 C   0  0  0  0  0  0  0  0  0  0  0  0
    0.1961   -2.5941   -0.7381 H   0  0  0  0  0  0  0  0  0  0  0  0
    3.1588    0.8798    1.2796 H   0  0  0  0  0  0  0  0  0  0  0  0
    2.9019    2.6158    1.0471 H   0  0  0  0  0  0  0  0  0  0  0  0
    2.4048   -2.3543   -1.5784 H   0  0  0  0  0  0  0  0  0  0  0  0
    3.2596   -0.8279   -1.6083 H   0  0  0  0  0  0  0  0  0  0  0  0
    4.9720    2.7262   -0.3864 H   0  0  0  0  0  0  0  0  0  0  0  0
   -4.7525   -2.8802   -0.0063 H   0  0  0  0  0  0  0  0  0  0  0  0
   -7.0071    0.6874    0.7050 H   0  0  0  0  0  0  0  0  0  0  0  0
    5.2355    3.0200    2.1042 H   0  0  0  0  0  0  0  0  0  0  0  0
    6.6479    2.2235    1.3750 H   0  0  0  0  0  0  0  0  0  0  0  0
    5.4769    1.2636    2.2666 H   0  0  0  0  0  0  0  0  0  0  0  0
   -6.8991   -1.7665    0.4377 H   0  0  0  0  0  0  0  0  0  0  0  0
    0.8848    3.0052   -0.3736 H   0  0  0  0  0  0  0  0  0  0  0  0
    4.9524    0.6551   -1.2067 H   0  0  0  0  0  0  0  0  0  0  0  0
   -4.1602    2.7644    0.4773 H   0  0  0  0  0  0  0  0  0  0  0  0
    6.2366   -3.3361    0.6081 H   0  0  0  0  0  0  0  0  0  0  0  0
    4.7898   -3.6604    1.5893 H   0  0  0  0  0  0  0  0  0  0  0  0
    5.5960   -2.0517    1.6570 H   0  0  0  0  0  0  0  0  0  0  0  0
  1 13  1  0  0  0  0
  1 42  1  0  0  0  0
  2 17  2  0  0  0  0
  3 18  2  0  0  0  0
  4 19  2  0  0  0  0
  5 22  1  0  0  0  0
  5 43  1  0  0  0  0
  6 23  1  0  0  0  0
  6 44  1  0  0  0  0
  7 28  1  0  0  0  0
  7 29  1  0  0  0  0
  8 28  2  0  0  0  0
  9 10  2  0  0  0  0
  9 13  1  0  0  0  0
  9 17  1  0  0  0  0
 10 14  1  0  0  0  0
 10 18  1  0  0  0  0
 11 12  1  0  0  0  0
 11 13  2  0  0  0  0
 11 19  1  0  0  0  0
 12 14  2  0  0  0  0
 12 21  1  0  0  0  0
 14 30  1  0  0  0  0
 15 16  2  0  0  0  0
 15 17  1  0  0  0  0
 15 23  1  0  0  0  0
 16 18  1  0  0  0  0
 16 24  1  0  0  0  0
 19 20  1  0  0  0  0
 20 22  1  0  0  0  0
 20 31  1  0  0  0  0
 20 32  1  0  0  0  0
 21 28  1  0  0  0  0
 21 33  1  0  0  0  0
 21 34  1  0  0  0  0
 22 27  1  0  0  0  0
 22 35  1  0  0  0  0
 23 25  2  0  0  0  0
 24 26  2  0  0  0  0
 24 36  1  0  0  0  0
 25 26  1  0  0  0  0
 25 37  1  0  0  0  0
 26 41  1  0  0  0  0
 27 38  1  0  0  0  0
 27 39  1  0  0  0  0
 27 40  1  0  0  0  0
 29 45  1  0  0  0  0
 29 46  1  0  0  0  0
 29 47  1  0  0  0  0
M  END
> <PUBCHEM_COMPOUND_CID>
443823

> <PUBCHEM_CONFORMER_RMSD>
0.8

> <PUBCHEM_CONFORMER_DIVERSEORDER>
1
37
44
12
39
38
29
30
46
40
45
31
43
11
34
33
42
48
3
16
13
32
22
41
21
47
4
18
6
27
20
17
28
14
8
35
25
26
2
9
24
36
10
5
19
23
7
15

> <PUBCHEM_MMFF94_PARTIAL_CHARGES>
35
1 -0.53
10 0.09
11 0.09
12 -0.14
13 0.08
14 -0.15
15 0.09
16 0.09
17 0.4
18 0.4
19 0.42
2 -0.57
20 0.06
21 0.2
22 0.28
23 0.08
24 -0.15
25 -0.15
26 -0.15
28 0.66
29 0.28
3 -0.57
30 0.15
36 0.15
37 0.15
4 -0.57
41 0.15
42 0.45
43 0.4
44 0.45
5 -0.68
6 -0.53
7 -0.43
8 -0.57
9 0.09

> <PUBCHEM_EFFECTIVE_ROTOR_COUNT>
6

> <PUBCHEM_PHARMACOPHORE_FEATURES>
11
1 1 donor
1 2 acceptor
1 3 acceptor
1 4 acceptor
1 5 acceptor
1 5 donor
1 6 donor
1 8 acceptor
6 15 16 23 24 25 26 rings
6 9 10 11 12 13 14 rings
6 9 10 15 16 17 18 rings

> <PUBCHEM_HEAVY_ATOM_COUNT>
29

> <PUBCHEM_ATOM_DEF_STEREO_COUNT>
0

> <PUBCHEM_ATOM_UDEF_STEREO_COUNT>
1

> <PUBCHEM_BOND_DEF_STEREO_COUNT>
0

> <PUBCHEM_BOND_UDEF_STEREO_COUNT>
0

> <PUBCHEM_ISOTOPIC_ATOM_COUNT>
0

> <PUBCHEM_COMPONENT_COUNT>
1

> <PUBCHEM_CACTVS_TAUTO_COUNT>
191

> <PUBCHEM_CONFORMER_ID>
0006C5AF00000001

> <PUBCHEM_MMFF94_ENERGY>
86.4251

> <PUBCHEM_FEATURE_SELFOVERLAP>
55.86

> <PUBCHEM_SHAPE_FINGERPRINT>
10 15 18265900164087215488
11756154 67 17979351182102047030
11963148 33 18198346143501133418
12107183 9 18123187072142177153
12236239 1 17916870101653801405
12422481 6 18411142467149590600
12788726 201 17167854300947805545
13073987 5 18410570678707154411
13140716 1 18337672022023266839
13533116 47 18412263947756807346
14341114 176 18412260657526775050
14739800 52 17967822600404069768
14955137 171 18042124435524698086
15196674 1 18409725175708511087
16112460 7 18262501689714800601
16992610 120 18054781790758402868
17349148 13 18187085078842594191
17492 89 18341327808403584131
1813 80 17131834270046587684
20511986 3 18337685147949823191
20691752 17 17489304209251061214
20739085 24 18342451569189035348
21033648 29 17460044985477180816
21267235 1 18339913917669293583
21421861 104 18202292415713482290
21452121 103 18334294253978868654
21792934 111 18412262874684799041
21859007 373 17772767193295763893
23559900 14 17970336238340510447
3004659 81 18339632425570366047
335352 9 18339357591346097221
3411729 13 18335985281915117880
34797466 226 16950271889192701645
34934 24 18263081037294253255
350125 39 18411133675298600052
3633792 109 18129400275481874895
3680242 22 18410844478403389833
4073 2 18201431416088109426
4093350 32 17313098658128362382
4340502 62 18261108543673068676
5104073 3 18336817659214013403

> <PUBCHEM_SHAPE_MULTIPOLES>
549.85
13.79
3.29
1.03
2.96
0.59
0.03
0.07
4.65
-2.66
0.42
-1.18
-0.11
-0.5

> <PUBCHEM_SHAPE_SELFOVERLAP>
1208.605

> <PUBCHEM_SHAPE_VOLUME>
295.7

> <PUBCHEM_COORDINATE_TYPE>
2
5
10

$$$$

