13671
  -OEChem-06241222393D

 20 20  0     0  0  0  0  0  0999 V2000
    3.8538    0.9608   -0.0012 O   0  5  0  0  0  0  0  0  0  0  0  0
    3.7364   -1.2313    0.0015 O   0  0  0  0  0  0  0  0  0  0  0  0
   -4.4164   -0.7508    0.0011 O   0  0  0  0  0  0  0  0  0  0  0  0
   -2.4237    0.2011   -0.0006 N   0  0  0  0  0  0  0  0  0  0  0  0
    3.1879   -0.1027    0.0003 N   0  3  0  0  0  0  0  0  0  0  0  0
   -3.1950   -0.9358   -0.0004 N   0  0  0  0  0  0  0  0  0  0  0  0
   -1.0156    0.1247   -0.0023 C   0  0  0  0  0  0  0  0  0  0  0  0
   -0.2537    1.2931   -0.0012 C   0  0  0  0  0  0  0  0  0  0  0  0
   -0.3848   -1.1194   -0.0015 C   0  0  0  0  0  0  0  0  0  0  0  0
    1.7700   -0.0267    0.0013 C   0  0  0  0  0  0  0  0  0  0  0  0
    1.1391    1.2173    0.0005 C   0  0  0  0  0  0  0  0  0  0  0  0
    1.0081   -1.1950    0.0003 C   0  0  0  0  0  0  0  0  0  0  0  0
   -3.0060    1.5647    0.0022 C   0  0  0  0  0  0  0  0  0  0  0  0
   -0.6797    2.2907   -0.0014 H   0  0  0  0  0  0  0  0  0  0  0  0
   -0.9375   -2.0548   -0.0019 H   0  0  0  0  0  0  0  0  0  0  0  0
    1.7013    2.1478    0.0010 H   0  0  0  0  0  0  0  0  0  0  0  0
    1.4659   -2.1810    0.0006 H   0  0  0  0  0  0  0  0  0  0  0  0
   -2.7124    2.1151    0.9034 H   0  0  0  0  0  0  0  0  0  0  0  0
   -4.1018    1.5470    0.0036 H   0  0  0  0  0  0  0  0  0  0  0  0
   -2.7149    2.1178   -0.8983 H   0  0  0  0  0  0  0  0  0  0  0  0
  1  5  1  0  0  0  0
  2  5  2  0  0  0  0
  3  6  2  0  0  0  0
  4  6  1  0  0  0  0
  4  7  1  0  0  0  0
  4 13  1  0  0  0  0
  5 10  1  0  0  0  0
  7  8  2  0  0  0  0
  7  9  1  0  0  0  0
  8 11  1  0  0  0  0
  8 14  1  0  0  0  0
  9 12  2  0  0  0  0
  9 15  1  0  0  0  0
 10 11  2  0  0  0  0
 10 12  1  0  0  0  0
 11 16  1  0  0  0  0
 12 17  1  0  0  0  0
 13 18  1  0  0  0  0
 13 19  1  0  0  0  0
 13 20  1  0  0  0  0
M  CHG  2   1  -1   5   1
M  END
> <PUBCHEM_COMPOUND_CID>
13671

> <PUBCHEM_CONFORMER_RMSD>
0.6

> <PUBCHEM_CONFORMER_DIVERSEORDER>
1
3
4
2

> <PUBCHEM_MMFF94_PARTIAL_CHARGES>
16
1 -0.52
10 0.13
11 -0.15
12 -0.15
13 0.37
14 0.15
15 0.15
16 0.15
17 0.15
2 -0.52
3 -0.16
4 -0.3
5 0.91
7 0.1
8 -0.15
9 -0.15

> <PUBCHEM_EFFECTIVE_ROTOR_COUNT>
3

> <PUBCHEM_PHARMACOPHORE_FEATURES>
4
1 1 acceptor
1 1 anion
1 2 acceptor
6 7 8 9 10 11 12 rings

> <PUBCHEM_HEAVY_ATOM_COUNT>
13

> <PUBCHEM_ATOM_DEF_STEREO_COUNT>
0

> <PUBCHEM_ATOM_UDEF_STEREO_COUNT>
0

> <PUBCHEM_BOND_DEF_STEREO_COUNT>
0

> <PUBCHEM_BOND_UDEF_STEREO_COUNT>
0

> <PUBCHEM_ISOTOPIC_ATOM_COUNT>
0

> <PUBCHEM_COMPONENT_COUNT>
1

> <PUBCHEM_CACTVS_TAUTO_COUNT>
1

> <PUBCHEM_CONFORMER_ID>
0000356700000001

> <PUBCHEM_MMFF94_ENERGY>
47.1111

> <PUBCHEM_FEATURE_SELFOVERLAP>
20.379

> <PUBCHEM_SHAPE_FINGERPRINT>
10219947 1 18408601452812173150
10608611 8 18410296925475415536
11132069 177 18338241560625494320
11806522 49 18339082584157773143
12032990 46 18409444812643260702
12932764 1 17095536092399100148
13690532 89 18412265042746458386
14144814 61 18411419526773093209
14325111 11 18410855477471717184
14993402 34 18272083877352250652
16945 1 18410576145525295271
18186145 218 18130508634177336100
18522853 276 18408322177164764217
193761 8 17617940231754325708
19422 9 18411415137485367080
200 152 18114190722544414341
20201158 50 18413669106458230891
20645477 70 18335423516502752247
21501925 9 18411426093862530288
23402539 116 18261402151710552334
23402655 69 18192165991337804309
23463225 33 18340769333752584030
2748010 2 18194119839751238126
3312278 4 18336264647509225705
5104073 3 18410012164779769376
8809292 202 18129657496461792699

> <PUBCHEM_SHAPE_MULTIPOLES>
234.98
6.72
1.54
0.57
0.75
0.18
0
-0.72
0
0.23
0
0.01
0.02
0

> <PUBCHEM_SHAPE_SELFOVERLAP>
487.147

> <PUBCHEM_SHAPE_VOLUME>
135.4

> <PUBCHEM_COORDINATE_TYPE>
2
5
10

$$$$

