441843
  -OEChem-07051212563D

 83 88  0     1  0  0  0  0  0999 V2000
   -3.7889   -1.2951   -0.9669 O   0  0  0  0  0  0  0  0  0  0  0  0
    2.3640    0.2701   -2.2405 O   0  0  0  0  0  0  0  0  0  0  0  0
   -3.6159    3.1425    1.1246 O   0  0  0  0  0  0  0  0  0  0  0  0
    3.9603    0.7663    0.0131 O   0  0  0  0  0  0  0  0  0  0  0  0
   -8.2610   -0.5676    0.1237 O   0  0  0  0  0  0  0  0  0  0  0  0
    5.7411    0.4038    1.4699 O   0  0  0  0  0  0  0  0  0  0  0  0
   -8.1367   -2.7943   -0.4439 O   0  0  0  0  0  0  0  0  0  0  0  0
    5.1897   -0.8601   -1.9243 O   0  0  0  0  0  0  0  0  0  0  0  0
    6.7303   -2.5001   -0.3365 O   0  0  0  0  0  0  0  0  0  0  0  0
    8.5004    0.5848    0.3963 O   0  0  0  0  0  0  0  0  0  0  0  0
   -3.0032   -0.4031   -0.1603 C   0  0  1  0  0  0  0  0  0  0  0  0
   -1.6988   -0.0758   -0.9414 C   0  0  1  0  0  0  0  0  0  0  0  0
   -0.8282    1.0174   -0.2632 C   0  0  1  0  0  0  0  0  0  0  0  0
   -3.8430    0.8485    0.2340 C   0  0  2  0  0  0  0  0  0  0  0  0
    0.4886    1.3377   -1.0816 C   0  0  2  0  0  0  0  0  0  0  0  0
    1.2862    0.0064   -1.3277 C   0  0  1  0  0  0  0  0  0  0  0  0
   -2.9155    1.9185    0.8938 C   0  0  1  0  0  0  0  0  0  0  0  0
   -1.6894    2.2559    0.0421 C   0  0  0  0  0  0  0  0  0  0  0  0
   -4.8235    0.2703    1.3098 C   0  0  2  0  0  0  0  0  0  0  0  0
   -0.8832   -1.3511   -1.2278 C   0  0  0  0  0  0  0  0  0  0  0  0
   -2.7858   -1.1295    1.1808 C   0  0  0  0  0  0  0  0  0  0  0  0
    0.4028   -1.0648   -1.9914 C   0  0  0  0  0  0  0  0  0  0  0  0
   -3.9793   -0.7652    2.0746 C   0  0  0  0  0  0  0  0  0  0  0  0
    1.4186    2.3374   -0.3268 C   0  0  0  0  0  0  0  0  0  0  0  0
    1.9158   -0.5460   -0.0202 C   0  0  0  0  0  0  0  0  0  0  0  0
   -4.5995    1.4740   -0.9593 C   0  0  0  0  0  0  0  0  0  0  0  0
    0.1435    2.0253   -2.4329 C   0  0  0  0  0  0  0  0  0  0  0  0
    2.0078    1.7816    0.9690 C   0  0  0  0  0  0  0  0  0  0  0  0
    2.7653    0.4797    0.7361 C   0  0  2  0  0  0  0  0  0  0  0  0
   -6.0787   -0.3686    0.7864 C   0  0  0  0  0  0  0  0  0  0  0  0
   -7.3356    0.3936    0.6423 C   0  0  0  0  0  0  0  0  0  0  0  0
   -6.2355   -1.6321    0.4007 C   0  0  0  0  0  0  0  0  0  0  0  0
    5.0121   -0.1333    0.3679 C   0  0  2  0  0  0  0  0  0  0  0  0
   -7.6293   -1.7685   -0.0245 C   0  0  0  0  0  0  0  0  0  0  0  0
    5.9244   -0.2837   -0.8482 C   0  0  1  0  0  0  0  0  0  0  0  0
    7.1446   -1.1490   -0.5244 C   0  0  1  0  0  0  0  0  0  0  0  0
    6.8705   -0.3660    1.8972 C   0  0  2  0  0  0  0  0  0  0  0  0
    7.8434   -0.6396    0.7365 C   0  0  2  0  0  0  0  0  0  0  0  0
    6.4219   -1.6203    2.6432 C   0  0  0  0  0  0  0  0  0  0  0  0
   -2.0146    0.3078   -1.9211 H   0  0  0  0  0  0  0  0  0  0  0  0
   -0.5156    0.6206    0.7091 H   0  0  0  0  0  0  0  0  0  0  0  0
   -2.5585    1.5777    1.8727 H   0  0  0  0  0  0  0  0  0  0  0  0
   -1.1057    3.0063    0.5867 H   0  0  0  0  0  0  0  0  0  0  0  0
   -2.0128    2.7536   -0.8779 H   0  0  0  0  0  0  0  0  0  0  0  0
   -5.1366    1.0446    2.0205 H   0  0  0  0  0  0  0  0  0  0  0  0
   -1.4836   -2.0554   -1.8161 H   0  0  0  0  0  0  0  0  0  0  0  0
   -0.6403   -1.8678   -0.2930 H   0  0  0  0  0  0  0  0  0  0  0  0
   -1.8643   -0.8174    1.6820 H   0  0  0  0  0  0  0  0  0  0  0  0
   -2.7369   -2.2169    1.0518 H   0  0  0  0  0  0  0  0  0  0  0  0
    0.9735   -1.9959   -2.1067 H   0  0  0  0  0  0  0  0  0  0  0  0
    0.1498   -0.7698   -3.0177 H   0  0  0  0  0  0  0  0  0  0  0  0
   -4.5253   -1.6546    2.4068 H   0  0  0  0  0  0  0  0  0  0  0  0
   -3.5934   -0.3055    2.9944 H   0  0  0  0  0  0  0  0  0  0  0  0
    0.8941    3.2740   -0.1092 H   0  0  0  0  0  0  0  0  0  0  0  0
    2.2516    2.6255   -0.9831 H   0  0  0  0  0  0  0  0  0  0  0  0
    2.5406   -1.4101   -0.2777 H   0  0  0  0  0  0  0  0  0  0  0  0
    1.1379   -0.9079    0.6601 H   0  0  0  0  0  0  0  0  0  0  0  0
   -5.2430    0.7579   -1.4792 H   0  0  0  0  0  0  0  0  0  0  0  0
   -5.2318    2.3085   -0.6384 H   0  0  0  0  0  0  0  0  0  0  0  0
   -3.9059    1.8611   -1.7122 H   0  0  0  0  0  0  0  0  0  0  0  0
   -0.4945    1.4088   -3.0706 H   0  0  0  0  0  0  0  0  0  0  0  0
   -0.3702    2.9793   -2.2768 H   0  0  0  0  0  0  0  0  0  0  0  0
    1.0440    2.2657   -3.0090 H   0  0  0  0  0  0  0  0  0  0  0  0
    2.6883    2.5325    1.3889 H   0  0  0  0  0  0  0  0  0  0  0  0
    1.2121    1.6260    1.7056 H   0  0  0  0  0  0  0  0  0  0  0  0
    3.0230    0.0772    1.7253 H   0  0  0  0  0  0  0  0  0  0  0  0
   -3.8578   -0.9192   -1.8604 H   0  0  0  0  0  0  0  0  0  0  0  0
    2.0063    0.3428   -3.1408 H   0  0  0  0  0  0  0  0  0  0  0  0
   -4.3266    2.9667    1.7626 H   0  0  0  0  0  0  0  0  0  0  0  0
   -7.7085    0.7588    1.6039 H   0  0  0  0  0  0  0  0  0  0  0  0
   -7.2631    1.2242   -0.0629 H   0  0  0  0  0  0  0  0  0  0  0  0
   -5.5330   -2.4469    0.3976 H   0  0  0  0  0  0  0  0  0  0  0  0
    4.5910   -1.1110    0.6304 H   0  0  0  0  0  0  0  0  0  0  0  0
    6.2540    0.7108   -1.1742 H   0  0  0  0  0  0  0  0  0  0  0  0
    7.8236   -1.1415   -1.3853 H   0  0  0  0  0  0  0  0  0  0  0  0
    7.3877    0.2711    2.6255 H   0  0  0  0  0  0  0  0  0  0  0  0
    8.6157   -1.3431    1.0682 H   0  0  0  0  0  0  0  0  0  0  0  0
    5.7954   -0.9437   -2.6805 H   0  0  0  0  0  0  0  0  0  0  0  0
    5.7645   -1.3448    3.4753 H   0  0  0  0  0  0  0  0  0  0  0  0
    5.8494   -2.3074    2.0160 H   0  0  0  0  0  0  0  0  0  0  0  0
    7.2823   -2.1624    3.0480 H   0  0  0  0  0  0  0  0  0  0  0  0
    7.5250   -3.0257   -0.1421 H   0  0  0  0  0  0  0  0  0  0  0  0
    9.1568    0.3841   -0.2924 H   0  0  0  0  0  0  0  0  0  0  0  0
  1 11  1  0  0  0  0
  1 67  1  0  0  0  0
  2 16  1  0  0  0  0
  2 68  1  0  0  0  0
  3 17  1  0  0  0  0
  3 69  1  0  0  0  0
  4 29  1  0  0  0  0
  4 33  1  0  0  0  0
  5 31  1  0  0  0  0
  5 34  1  0  0  0  0
  6 33  1  0  0  0  0
  6 37  1  0  0  0  0
  7 34  2  0  0  0  0
  8 35  1  0  0  0  0
  8 78  1  0  0  0  0
  9 36  1  0  0  0  0
  9 82  1  0  0  0  0
 10 38  1  0  0  0  0
 10 83  1  0  0  0  0
 11 12  1  0  0  0  0
 11 14  1  0  0  0  0
 11 21  1  0  0  0  0
 12 13  1  0  0  0  0
 12 20  1  0  0  0  0
 12 40  1  0  0  0  0
 13 15  1  0  0  0  0
 13 18  1  0  0  0  0
 13 41  1  0  0  0  0
 14 17  1  0  0  0  0
 14 19  1  0  0  0  0
 14 26  1  0  0  0  0
 15 16  1  0  0  0  0
 15 24  1  0  0  0  0
 15 27  1  0  0  0  0
 16 22  1  0  0  0  0
 16 25  1  0  0  0  0
 17 18  1  0  0  0  0
 17 42  1  0  0  0  0
 18 43  1  0  0  0  0
 18 44  1  0  0  0  0
 19 23  1  0  0  0  0
 19 30  1  0  0  0  0
 19 45  1  0  0  0  0
 20 22  1  0  0  0  0
 20 46  1  0  0  0  0
 20 47  1  0  0  0  0
 21 23  1  0  0  0  0
 21 48  1  0  0  0  0
 21 49  1  0  0  0  0
 22 50  1  0  0  0  0
 22 51  1  0  0  0  0
 23 52  1  0  0  0  0
 23 53  1  0  0  0  0
 24 28  1  0  0  0  0
 24 54  1  0  0  0  0
 24 55  1  0  0  0  0
 25 29  1  0  0  0  0
 25 56  1  0  0  0  0
 25 57  1  0  0  0  0
 26 58  1  0  0  0  0
 26 59  1  0  0  0  0
 26 60  1  0  0  0  0
 27 61  1  0  0  0  0
 27 62  1  0  0  0  0
 27 63  1  0  0  0  0
 28 29  1  0  0  0  0
 28 64  1  0  0  0  0
 28 65  1  0  0  0  0
 29 66  1  0  0  0  0
 30 31  1  0  0  0  0
 30 32  2  0  0  0  0
 31 70  1  0  0  0  0
 31 71  1  0  0  0  0
 32 34  1  0  0  0  0
 32 72  1  0  0  0  0
 33 35  1  0  0  0  0
 33 73  1  0  0  0  0
 35 36  1  0  0  0  0
 35 74  1  0  0  0  0
 36 38  1  0  0  0  0
 36 75  1  0  0  0  0
 37 38  1  0  0  0  0
 37 39  1  0  0  0  0
 37 76  1  0  0  0  0
 38 77  1  0  0  0  0
 39 79  1  0  0  0  0
 39 80  1  0  0  0  0
 39 81  1  0  0  0  0
M  END
> <PUBCHEM_COMPOUND_CID>
441843

> <PUBCHEM_CONFORMER_RMSD>
1

> <PUBCHEM_CONFORMER_DIVERSEORDER>
6
13
9
16
14
7
5
10
11
8
3
15
2
12
4
1

> <PUBCHEM_MMFF94_PARTIAL_CHARGES>
31
1 -0.68
10 -0.68
11 0.28
16 0.28
17 0.28
19 0.14
2 -0.68
29 0.28
3 -0.68
30 -0.28
31 0.42
32 -0.14
33 0.56
34 0.71
35 0.28
36 0.28
37 0.28
38 0.28
4 -0.56
5 -0.43
6 -0.56
67 0.4
68 0.4
69 0.4
7 -0.57
72 0.15
78 0.4
8 -0.68
82 0.4
83 0.4
9 -0.68

> <PUBCHEM_EFFECTIVE_ROTOR_COUNT>
6.8

> <PUBCHEM_PHARMACOPHORE_FEATURES>
21
1 1 acceptor
1 1 donor
1 10 acceptor
1 10 donor
1 2 acceptor
1 2 donor
1 3 acceptor
1 3 donor
1 4 acceptor
1 6 acceptor
1 7 acceptor
1 8 acceptor
1 8 donor
1 9 acceptor
1 9 donor
5 11 14 19 21 23 rings
5 5 30 31 32 34 rings
6 11 12 13 14 17 18 rings
6 12 13 15 16 20 22 rings
6 15 16 24 25 28 29 rings
6 6 33 35 36 37 38 rings

> <PUBCHEM_HEAVY_ATOM_COUNT>
39

> <PUBCHEM_ATOM_DEF_STEREO_COUNT>
14

> <PUBCHEM_ATOM_UDEF_STEREO_COUNT>
0

> <PUBCHEM_BOND_DEF_STEREO_COUNT>
0

> <PUBCHEM_BOND_UDEF_STEREO_COUNT>
0

> <PUBCHEM_ISOTOPIC_ATOM_COUNT>
0

> <PUBCHEM_COMPONENT_COUNT>
1

> <PUBCHEM_CACTVS_TAUTO_COUNT>
1

> <PUBCHEM_CONFORMER_ID>
0006BDF300000006

> <PUBCHEM_MMFF94_ENERGY>
143.2235

> <PUBCHEM_FEATURE_SELFOVERLAP>
106.863

> <PUBCHEM_SHAPE_FINGERPRINT>
10 15 17458062664331999286
10076449 9 16343989100579291071
10165383 225 9079121051362954217
10299344 5 17060337435433638714
10391435 84 16271642287585741360
10533779 47 17749934640581657955
10674148 151 12823302286214938463
11135609 99 18269552745977940695
11135926 11 12535350142488114472
11456790 92 16153709868982190842
117089 54 14834400231552562921
12107698 1 18412262822507024465
12166972 35 18201998790359297917
12422481 6 18040719208151082220
12788726 201 13254532946216301047
13383668 362 17825680958063489416
13540713 5 17753903714037546596
13560911 43 18113899334113733385
13673619 4 17918278644895073036
13782708 43 18409445894811294072
13811026 1 17967812761003012157
14068700 675 18342736295810053205
14251764 18 17603587417840624766
14849402 71 15285650854315637042
14856354 85 17346308315111415674
14931854 50 12895080625800705457
15064981 113 16343439340824435343
15064986 96 16950275239784580198
15082195 135 11959717292945237118
15183329 4 16272206401480288370
15198563 99 13757803675914428286
15301273 46 18260548948041346818
15392192 104 17822009753732553598
15439362 3 12965691176695891838
1577012 14 5256399488049695092
15840311 113 14634866453570352000
16728433 281 13397537674894159575
16994733 274 7565074852233629111
18393751 57 14996283608763129341
18603816 31 18059861606622428491
20105231 36 18114455756946115598
20505436 4 7637407302740834981
21033648 29 17822568420986629473
21130935 74 17531513399579394591
21304304 249 18410571760770134519
21792965 131 16009047102571977037
21987483 16 17900828150396732707
22122407 14 14345799306152307386
23522609 53 17557957767162338804
23559900 14 17130698380526108813
23569917 315 18129373810147351787
23576562 1 10951467264756995859
2838139 119 4678811732180163754
3383291 50 18409167693017154715
3633792 109 17060341821128082245
4112364 45 16950851293725445128
474113 269 18130517391895792439
504579 68 13973968705236766454
5219985 9 17775286062306724300
5265222 85 11455879253068972617
5758199 1 6699811977631147989
6081469 158 17561086908186410223
9962374 69 18336834074289023780

> <PUBCHEM_SHAPE_MULTIPOLES>
743.91
23.65
2.36
1.94
9.77
0.56
-0.13
-15.1
5.96
-1.79
0.09
1.63
-0.13
-1.22

> <PUBCHEM_SHAPE_SELFOVERLAP>
1605.712

> <PUBCHEM_SHAPE_VOLUME>
404.3

> <PUBCHEM_COORDINATE_TYPE>
2
5
10

$$$$

