39425
  -OEChem-07051213123D

 36 38  0     0  0  0  0  0  0999 V2000
    0.7523    1.4601   -0.0003 N   0  3  0  0  0  0  0  0  0  0  0  0
   -0.6978    1.4066   -0.0006 N   0  0  0  0  0  0  0  0  0  0  0  0
    1.1511    0.1405   -0.0004 C   0  0  0  0  0  0  0  0  0  0  0  0
   -1.1447    0.0977   -0.0009 C   0  0  0  0  0  0  0  0  0  0  0  0
   -0.0061   -0.7215   -0.0008 C   0  0  0  0  0  0  0  0  0  0  0  0
    2.5330   -0.2563    0.0000 C   0  0  0  0  0  0  0  0  0  0  0  0
   -2.5394   -0.2709   -0.0008 C   0  0  0  0  0  0  0  0  0  0  0  0
    1.5642    2.6381    0.0008 C   0  0  0  0  0  0  0  0  0  0  0  0
   -1.5250    2.5931   -0.0007 C   0  0  0  0  0  0  0  0  0  0  0  0
    3.2019   -0.4482   -1.2079 C   0  0  0  0  0  0  0  0  0  0  0  0
    3.2012   -0.4484    1.2081 C   0  0  0  0  0  0  0  0  0  0  0  0
   -3.2130   -0.4486    1.2078 C   0  0  0  0  0  0  0  0  0  0  0  0
   -3.2143   -0.4502   -1.2084 C   0  0  0  0  0  0  0  0  0  0  0  0
    4.5424   -0.8335   -1.2077 C   0  0  0  0  0  0  0  0  0  0  0  0
    4.5419   -0.8336    1.2083 C   0  0  0  0  0  0  0  0  0  0  0  0
   -4.5613   -0.8059    1.2087 C   0  0  0  0  0  0  0  0  0  0  0  0
   -4.5627   -0.8075   -1.2071 C   0  0  0  0  0  0  0  0  0  0  0  0
    5.2124   -1.0260    0.0004 C   0  0  0  0  0  0  0  0  0  0  0  0
   -5.2361   -0.9853    0.0014 C   0  0  0  0  0  0  0  0  0  0  0  0
   -0.0082   -1.8034   -0.0008 H   0  0  0  0  0  0  0  0  0  0  0  0
    2.4606    2.4891    0.6083 H   0  0  0  0  0  0  0  0  0  0  0  0
    1.8545    2.8735   -1.0265 H   0  0  0  0  0  0  0  0  0  0  0  0
    1.0139    3.4834    0.4210 H   0  0  0  0  0  0  0  0  0  0  0  0
   -1.4264    3.0676    0.9781 H   0  0  0  0  0  0  0  0  0  0  0  0
   -1.1605    3.2573   -0.7878 H   0  0  0  0  0  0  0  0  0  0  0  0
   -2.5691    2.3462   -0.1949 H   0  0  0  0  0  0  0  0  0  0  0  0
    2.6937   -0.3011   -2.1579 H   0  0  0  0  0  0  0  0  0  0  0  0
    2.6926   -0.3014    2.1580 H   0  0  0  0  0  0  0  0  0  0  0  0
   -2.7014   -0.3121    2.1577 H   0  0  0  0  0  0  0  0  0  0  0  0
   -2.7039   -0.3150   -2.1590 H   0  0  0  0  0  0  0  0  0  0  0  0
    5.0648   -0.9831   -2.1481 H   0  0  0  0  0  0  0  0  0  0  0  0
    5.0638   -0.9832    2.1489 H   0  0  0  0  0  0  0  0  0  0  0  0
   -5.0858   -0.9442    2.1497 H   0  0  0  0  0  0  0  0  0  0  0  0
   -5.0884   -0.9470   -2.1472 H   0  0  0  0  0  0  0  0  0  0  0  0
    6.2563   -1.3257    0.0006 H   0  0  0  0  0  0  0  0  0  0  0  0
   -6.2860   -1.2634    0.0022 H   0  0  0  0  0  0  0  0  0  0  0  0
  1  2  1  0  0  0  0
  1  3  2  0  0  0  0
  1  8  1  0  0  0  0
  2  4  1  0  0  0  0
  2  9  1  0  0  0  0
  3  5  1  0  0  0  0
  3  6  1  0  0  0  0
  4  5  2  0  0  0  0
  4  7  1  0  0  0  0
  5 20  1  0  0  0  0
  6 10  2  0  0  0  0
  6 11  1  0  0  0  0
  7 12  2  0  0  0  0
  7 13  1  0  0  0  0
  8 21  1  0  0  0  0
  8 22  1  0  0  0  0
  8 23  1  0  0  0  0
  9 24  1  0  0  0  0
  9 25  1  0  0  0  0
  9 26  1  0  0  0  0
 10 14  1  0  0  0  0
 10 27  1  0  0  0  0
 11 15  2  0  0  0  0
 11 28  1  0  0  0  0
 12 16  1  0  0  0  0
 12 29  1  0  0  0  0
 13 17  2  0  0  0  0
 13 30  1  0  0  0  0
 14 18  2  0  0  0  0
 14 31  1  0  0  0  0
 15 18  1  0  0  0  0
 15 32  1  0  0  0  0
 16 19  2  0  0  0  0
 16 33  1  0  0  0  0
 17 19  1  0  0  0  0
 17 34  1  0  0  0  0
 18 35  1  0  0  0  0
 19 36  1  0  0  0  0
M  CHG  1   1   1
M  END
> <PUBCHEM_COMPOUND_CID>
39425

> <PUBCHEM_CONFORMER_RMSD>
0.6

> <PUBCHEM_CONFORMER_DIVERSEORDER>
1
2

> <PUBCHEM_MMFF94_PARTIAL_CHARGES>
30
1 -0.26
10 -0.15
11 -0.15
12 -0.15
13 -0.15
14 -0.15
15 -0.15
16 -0.15
17 -0.15
18 -0.15
19 -0.15
2 0.31
20 0.15
27 0.15
28 0.15
29 0.15
3 0.28
30 0.15
31 0.15
32 0.15
33 0.15
34 0.15
35 0.15
36 0.15
4 -0.2
5 -0.15
6 0.05
7 0.05
8 0.51
9 0.26

> <PUBCHEM_EFFECTIVE_ROTOR_COUNT>
2

> <PUBCHEM_PHARMACOPHORE_FEATURES>
3
5 1 2 3 4 5 rings
6 6 10 11 14 15 18 rings
6 7 12 13 16 17 19 rings

> <PUBCHEM_HEAVY_ATOM_COUNT>
19

> <PUBCHEM_ATOM_DEF_STEREO_COUNT>
0

> <PUBCHEM_ATOM_UDEF_STEREO_COUNT>
0

> <PUBCHEM_BOND_DEF_STEREO_COUNT>
0

> <PUBCHEM_BOND_UDEF_STEREO_COUNT>
0

> <PUBCHEM_ISOTOPIC_ATOM_COUNT>
0

> <PUBCHEM_COMPONENT_COUNT>
1

> <PUBCHEM_CACTVS_TAUTO_COUNT>
1

> <PUBCHEM_CONFORMER_ID>
00009A0100000001

> <PUBCHEM_MMFF94_ENERGY>
64.6363

> <PUBCHEM_FEATURE_SELFOVERLAP>
15.223

> <PUBCHEM_SHAPE_FINGERPRINT>
11045515 52 16559029398200513021
11543360 7 15697996323171190978
11796584 16 17346883359729913227
12107183 9 15144301122367303663
12363563 72 18411695487022423108
12553582 1 18410572889945684462
12596602 18 15647053763424106903
12707595 3 18342739598222542272
12892183 10 15719108071711306950
13140716 1 18265053526731733787
13675066 3 17385718097790896403
13685833 64 18341609283648859011
13760787 5 18341326717217321901
13862211 1 18410579487010455687
14252887 29 18113899381727449466
14341114 176 15502371214531663978
14366163 111 14045747018889258598
15188451 53 17168156602679986823
15848700 24 18334859415750757204
16752209 62 18272098239464419099
17349148 13 18113896035631388807
1813 80 18261384559693507884
18186145 218 17846782867234235225
18222031 100 18333734606501980590
19141452 34 17603307033680508863
193927 3 18410846668330223819
200 152 17989489636216721963
20028762 73 18115024074818009207
20369508 70 18272937089975406616
20645477 70 18339928099898653191
20671657 53 18272371966362728373
21033648 29 17168440366277738817
22182313 1 17896593088602600229
23175994 123 18272368655559848877
23402539 116 18409732893200473455
23402655 69 14045749235182203495
23536379 177 15769781272774982543
23557571 272 18114455777534228220
23559900 14 17346600724974498757
23845131 108 16887208562316507969
25147074 1 18338498803223355529
3004659 81 16845299375596348386
312423 11 18340756092136808636
314173 85 18261109681807532721
32948 21 17275114946050462605
34797466 226 16415184672605143430
351380 3 18410856563940557798
42 15 16660359285814626287
465052 167 18339633460747531475
4990 188 14117520947707039418
5104073 3 18409728465121288793
7495541 125 17846211112065094179
7970288 3 18410575088959118054
8863177 126 17843670072728669667
9841814 1 18341902857400762704
9971528 1 18040434378182232512

> <PUBCHEM_SHAPE_MULTIPOLES>
381.05
11.39
1.85
1.24
0.24
2.01
0
-6.67
0
-0.08
0
0
-0.39
0

> <PUBCHEM_SHAPE_SELFOVERLAP>
826.176

> <PUBCHEM_SHAPE_VOLUME>
210.6

> <PUBCHEM_COORDINATE_TYPE>
2
5
10

$$$$

