10081
  -OEChem-06261204183D

 34 35  0     1  0  0  0  0  0999 V2000
    3.6025   -2.6040    0.2339 S   0  0  0  0  0  0  0  0  0  0  0  0
    0.6472    0.1850   -2.4945 O   0  0  0  0  0  0  0  0  0  0  0  0
    0.7942    0.9570    2.1200 O   0  0  0  0  0  0  0  0  0  0  0  0
    1.9653   -1.0609   -1.0902 N   0  0  0  0  0  0  0  0  0  0  0  0
    1.9453   -0.8152    1.2659 N   0  0  0  0  0  0  0  0  0  0  0  0
   -1.0185   -0.6498    0.0558 C   0  0  1  0  0  0  0  0  0  0  0  0
    0.1841    0.2792   -0.1116 C   0  0  2  0  0  0  0  0  0  0  0  0
   -1.7973   -0.2803    1.3315 C   0  0  0  0  0  0  0  0  0  0  0  0
   -3.1605   -0.9662    1.3682 C   0  0  0  0  0  0  0  0  0  0  0  0
   -0.3056    1.7201   -0.3212 C   0  0  0  0  0  0  0  0  0  0  0  0
   -1.8903   -0.6274   -1.1744 C   0  0  0  0  0  0  0  0  0  0  0  0
   -4.0067   -0.5773    0.1546 C   0  0  0  0  0  0  0  0  0  0  0  0
    0.9488   -0.1659   -1.3553 C   0  0  0  0  0  0  0  0  0  0  0  0
    1.0118    0.1949    1.1791 C   0  0  0  0  0  0  0  0  0  0  0  0
   -3.2291   -0.5796   -1.1270 C   0  0  0  0  0  0  0  0  0  0  0  0
    0.8466    2.6527   -0.5047 C   0  0  0  0  0  0  0  0  0  0  0  0
    2.3771   -1.3662    0.1823 C   0  0  0  0  0  0  0  0  0  0  0  0
    1.0850    3.7038    0.2875 C   0  0  0  0  0  0  0  0  0  0  0  0
   -0.6693   -1.6870    0.1659 H   0  0  0  0  0  0  0  0  0  0  0  0
   -1.9848    0.7886    1.4482 H   0  0  0  0  0  0  0  0  0  0  0  0
   -1.2440   -0.6053    2.2205 H   0  0  0  0  0  0  0  0  0  0  0  0
   -3.6927   -0.7035    2.2897 H   0  0  0  0  0  0  0  0  0  0  0  0
   -3.0191   -2.0547    1.3838 H   0  0  0  0  0  0  0  0  0  0  0  0
   -0.9099    2.0961    0.5083 H   0  0  0  0  0  0  0  0  0  0  0  0
   -0.9319    1.8122   -1.2173 H   0  0  0  0  0  0  0  0  0  0  0  0
   -1.4561   -0.7280   -2.1619 H   0  0  0  0  0  0  0  0  0  0  0  0
   -4.4291    0.4237    0.3016 H   0  0  0  0  0  0  0  0  0  0  0  0
   -4.8495   -1.2728    0.0707 H   0  0  0  0  0  0  0  0  0  0  0  0
   -3.7937   -0.5764   -2.0550 H   0  0  0  0  0  0  0  0  0  0  0  0
    2.4451   -1.4822   -1.8792 H   0  0  0  0  0  0  0  0  0  0  0  0
    1.5127    2.4968   -1.3490 H   0  0  0  0  0  0  0  0  0  0  0  0
    1.9289    4.3568    0.0932 H   0  0  0  0  0  0  0  0  0  0  0  0
    0.4521    3.9323    1.1378 H   0  0  0  0  0  0  0  0  0  0  0  0
    3.6644   -2.8641   -1.0795 H   0  0  0  0  0  0  0  0  0  0  0  0
  1 17  1  0  0  0  0
  1 34  1  0  0  0  0
  2 13  2  0  0  0  0
  3 14  2  0  0  0  0
  4 13  1  0  0  0  0
  4 17  1  0  0  0  0
  4 30  1  0  0  0  0
  5 14  1  0  0  0  0
  5 17  2  0  0  0  0
  6  7  1  0  0  0  0
  6  8  1  0  0  0  0
  6 11  1  0  0  0  0
  6 19  1  0  0  0  0
  7 10  1  0  0  0  0
  7 13  1  0  0  0  0
  7 14  1  0  0  0  0
  8  9  1  0  0  0  0
  8 20  1  0  0  0  0
  8 21  1  0  0  0  0
  9 12  1  0  0  0  0
  9 22  1  0  0  0  0
  9 23  1  0  0  0  0
 10 16  1  0  0  0  0
 10 24  1  0  0  0  0
 10 25  1  0  0  0  0
 11 15  2  0  0  0  0
 11 26  1  0  0  0  0
 12 15  1  0  0  0  0
 12 27  1  0  0  0  0
 12 28  1  0  0  0  0
 15 29  1  0  0  0  0
 16 18  2  0  0  0  0
 16 31  1  0  0  0  0
 18 32  1  0  0  0  0
 18 33  1  0  0  0  0
M  END
> <PUBCHEM_COMPOUND_CID>
10081

> <PUBCHEM_CONFORMER_RMSD>
0.6

> <PUBCHEM_CONFORMER_DIVERSEORDER>
1
3
10
8
7
9
13
4
11
6
12
2
5

> <PUBCHEM_MMFF94_PARTIAL_CHARGES>
23
1 -0.32
10 0.14
11 -0.29
12 0.14
13 0.57
14 0.72
15 -0.29
16 -0.29
17 0.65
18 -0.3
2 -0.57
26 0.15
29 0.15
3 -0.57
30 0.37
31 0.15
32 0.15
33 0.15
34 0.18
4 -0.49
5 -0.66
6 0.14
7 0.12

> <PUBCHEM_EFFECTIVE_ROTOR_COUNT>
4.2

> <PUBCHEM_PHARMACOPHORE_FEATURES>
7
1 18 hydrophobe
1 2 acceptor
1 3 acceptor
1 4 donor
1 5 donor
6 4 5 7 13 14 17 rings
6 6 8 9 11 12 15 rings

> <PUBCHEM_HEAVY_ATOM_COUNT>
18

> <PUBCHEM_ATOM_DEF_STEREO_COUNT>
0

> <PUBCHEM_ATOM_UDEF_STEREO_COUNT>
2

> <PUBCHEM_BOND_DEF_STEREO_COUNT>
0

> <PUBCHEM_BOND_UDEF_STEREO_COUNT>
0

> <PUBCHEM_ISOTOPIC_ATOM_COUNT>
0

> <PUBCHEM_COMPONENT_COUNT>
1

> <PUBCHEM_CACTVS_TAUTO_COUNT>
5

> <PUBCHEM_CONFORMER_ID>
0000276100000001

> <PUBCHEM_MMFF94_ENERGY>
43.3305

> <PUBCHEM_FEATURE_SELFOVERLAP>
35.557

> <PUBCHEM_SHAPE_FINGERPRINT>
10702982 57 17186458840927845028
12251169 10 16443354203379322343
12326174 3 18266451006115943573
12423570 1 5464399282253347340
12725867 57 18411707577360733585
13134695 92 18412267237516763165
14181834 199 17822300037122633589
14817 1 12783448434177072396
15375462 478 15068917381227408763
15906896 17 17620753224906234008
16945 1 18265895765750137776
17980427 26 13452787012711931724
1813 80 18188194507476146646
19765921 60 17538269649550302345
20361792 2 18409165545264039431
20600515 1 18187073001025448330
20711985 344 17980775048894236090
21069387 34 18189071849347157303
21296965 67 18340491169837105358
21524375 3 17467908571794478317
22112679 90 18048846836035575728
23175994 123 18342455993174479587
23419403 2 17557463987276715796
23526113 38 18129961042911193399
23557571 272 18127149673836918776
23559900 14 15697708290892996294
3286 77 18272645719705529075
430814 3 17685780112020545145
6786 2 17190626028477728908
7364860 26 18268709415900043641
74978 22 18339919321339246259
81228 2 17980770646605836344
84936 31 18194130624662181048

> <PUBCHEM_SHAPE_MULTIPOLES>
352.58
5.03
2.84
1.76
2.51
3.17
0.18
-4.57
-0.4
-2.63
-0.28
0.11
-0.03
0.12

> <PUBCHEM_SHAPE_SELFOVERLAP>
735.052

> <PUBCHEM_SHAPE_VOLUME>
201.1

> <PUBCHEM_COORDINATE_TYPE>
2
5
10

$$$$

