189453
  -OEChem-07051212563D

 64 66  0     0  0  0  0  0  0999 V2000
   -3.9671    0.4430    0.5082 O   0  0  0  0  0  0  0  0  0  0  0  0
    0.2121    2.7254   -0.3483 O   0  0  0  0  0  0  0  0  0  0  0  0
   -0.5843   -1.6481   -2.0668 O   0  0  0  0  0  0  0  0  0  0  0  0
    2.8460    2.6686   -1.0056 O   0  0  0  0  0  0  0  0  0  0  0  0
   -3.9340   -1.8087   -1.8781 O   0  0  0  0  0  0  0  0  0  0  0  0
    1.7555   -1.9730   -0.7020 O   0  0  0  0  0  0  0  0  0  0  0  0
    5.3957   -0.1972    1.8424 O   0  0  0  0  0  0  0  0  0  0  0  0
    4.6145   -3.2208    0.5734 O   0  0  0  0  0  0  0  0  0  0  0  0
   -4.4831    1.5484    1.2809 C   0  0  0  0  0  0  0  0  0  0  0  0
   -2.7152    0.5331   -0.0314 C   0  0  0  0  0  0  0  0  0  0  0  0
   -1.8879    1.6483    0.1154 C   0  0  0  0  0  0  0  0  0  0  0  0
   -0.1839    0.5419   -1.2072 C   0  0  0  0  0  0  0  0  0  0  0  0
   -2.2777   -0.5734   -0.7641 C   0  0  0  0  0  0  0  0  0  0  0  0
    1.1730    0.5470   -1.8369 C   0  0  0  0  0  0  0  0  0  0  0  0
   -0.6188    1.6483   -0.4761 C   0  0  0  0  0  0  0  0  0  0  0  0
   -1.0130   -0.5683   -1.3511 C   0  0  0  0  0  0  0  0  0  0  0  0
   -3.5678    2.7420    1.4216 C   0  0  0  0  0  0  0  0  0  0  0  0
   -2.3503    2.7950    0.8778 C   0  0  0  0  0  0  0  0  0  0  0  0
    2.3040    0.3464   -0.8512 C   0  0  0  0  0  0  0  0  0  0  0  0
   -5.7821    1.9854    0.5938 C   0  0  0  0  0  0  0  0  0  0  0  0
   -4.8019    0.9891    2.6725 C   0  0  0  0  0  0  0  0  0  0  0  0
   -3.1388   -1.7422   -0.9206 C   0  0  0  0  0  0  0  0  0  0  0  0
   -3.0928   -2.9035    0.0959 C   0  0  0  0  0  0  0  0  0  0  0  0
    3.0866    1.4304   -0.4861 C   0  0  0  0  0  0  0  0  0  0  0  0
    2.5366   -0.9171   -0.3316 C   0  0  0  0  0  0  0  0  0  0  0  0
    4.1289    1.2458    0.4226 C   0  0  0  0  0  0  0  0  0  0  0  0
    3.5789   -1.1016    0.5770 C   0  0  0  0  0  0  0  0  0  0  0  0
   -4.4674   -3.0889    0.7311 C   0  0  0  0  0  0  0  0  0  0  0  0
   -2.6347   -4.1993   -0.5754 C   0  0  0  0  0  0  0  0  0  0  0  0
    4.3751   -0.0202    0.9539 C   0  0  0  0  0  0  0  0  0  0  0  0
    4.9824    2.4055    0.8264 C   0  0  0  0  0  0  0  0  0  0  0  0
    3.8367   -2.4259    1.1324 C   0  0  0  0  0  0  0  0  0  0  0  0
    3.1497   -2.8615    2.4194 C   0  0  0  0  0  0  0  0  0  0  0  0
    3.5254    3.0062   -2.2123 C   0  0  0  0  0  0  0  0  0  0  0  0
    1.2593   -0.2380   -2.6012 H   0  0  0  0  0  0  0  0  0  0  0  0
    1.2910    1.4483   -2.4478 H   0  0  0  0  0  0  0  0  0  0  0  0
   -3.9233    3.5950    1.9947 H   0  0  0  0  0  0  0  0  0  0  0  0
   -1.7236    3.6696    1.0020 H   0  0  0  0  0  0  0  0  0  0  0  0
   -6.2942    2.7792    1.1486 H   0  0  0  0  0  0  0  0  0  0  0  0
   -5.5829    2.3487   -0.4217 H   0  0  0  0  0  0  0  0  0  0  0  0
   -6.4714    1.1393    0.4877 H   0  0  0  0  0  0  0  0  0  0  0  0
   -3.8918    0.6251    3.1645 H   0  0  0  0  0  0  0  0  0  0  0  0
   -5.2667    1.7399    3.3210 H   0  0  0  0  0  0  0  0  0  0  0  0
   -5.4780    0.1289    2.6024 H   0  0  0  0  0  0  0  0  0  0  0  0
   -2.3752   -2.6425    0.8832 H   0  0  0  0  0  0  0  0  0  0  0  0
   -5.2204   -3.3667   -0.0147 H   0  0  0  0  0  0  0  0  0  0  0  0
   -4.8045   -2.1633    1.2087 H   0  0  0  0  0  0  0  0  0  0  0  0
   -4.4410   -3.8724    1.4955 H   0  0  0  0  0  0  0  0  0  0  0  0
   -2.6166   -5.0252    0.1433 H   0  0  0  0  0  0  0  0  0  0  0  0
   -3.2980   -4.4781   -1.4013 H   0  0  0  0  0  0  0  0  0  0  0  0
   -1.6257   -4.0899   -0.9849 H   0  0  0  0  0  0  0  0  0  0  0  0
    0.7640    2.8224   -1.1391 H   0  0  0  0  0  0  0  0  0  0  0  0
   -1.3241   -2.2455   -2.2590 H   0  0  0  0  0  0  0  0  0  0  0  0
    5.0675    2.4642    1.9173 H   0  0  0  0  0  0  0  0  0  0  0  0
    5.9810    2.3125    0.3871 H   0  0  0  0  0  0  0  0  0  0  0  0
    4.5712    3.3704    0.5147 H   0  0  0  0  0  0  0  0  0  0  0  0
    2.0508   -2.7913   -0.2724 H   0  0  0  0  0  0  0  0  0  0  0  0
    5.9836    0.5735    1.8612 H   0  0  0  0  0  0  0  0  0  0  0  0
    2.5478   -3.7520    2.2216 H   0  0  0  0  0  0  0  0  0  0  0  0
    2.4931   -2.0691    2.7896 H   0  0  0  0  0  0  0  0  0  0  0  0
    3.9079   -3.0731    3.1774 H   0  0  0  0  0  0  0  0  0  0  0  0
    3.4683    2.1985   -2.9492 H   0  0  0  0  0  0  0  0  0  0  0  0
    4.5742    3.2370   -2.0030 H   0  0  0  0  0  0  0  0  0  0  0  0
    3.0510    3.8969   -2.6335 H   0  0  0  0  0  0  0  0  0  0  0  0
  1  9  1  0  0  0  0
  1 10  1  0  0  0  0
  2 15  1  0  0  0  0
  2 52  1  0  0  0  0
  3 16  1  0  0  0  0
  3 53  1  0  0  0  0
  4 24  1  0  0  0  0
  4 34  1  0  0  0  0
  5 22  2  0  0  0  0
  6 25  1  0  0  0  0
  6 57  1  0  0  0  0
  7 30  1  0  0  0  0
  7 58  1  0  0  0  0
  8 32  2  0  0  0  0
  9 17  1  0  0  0  0
  9 20  1  0  0  0  0
  9 21  1  0  0  0  0
 10 11  1  0  0  0  0
 10 13  2  0  0  0  0
 11 15  2  0  0  0  0
 11 18  1  0  0  0  0
 12 14  1  0  0  0  0
 12 15  1  0  0  0  0
 12 16  2  0  0  0  0
 13 16  1  0  0  0  0
 13 22  1  0  0  0  0
 14 19  1  0  0  0  0
 14 35  1  0  0  0  0
 14 36  1  0  0  0  0
 17 18  2  0  0  0  0
 17 37  1  0  0  0  0
 18 38  1  0  0  0  0
 19 24  2  0  0  0  0
 19 25  1  0  0  0  0
 20 39  1  0  0  0  0
 20 40  1  0  0  0  0
 20 41  1  0  0  0  0
 21 42  1  0  0  0  0
 21 43  1  0  0  0  0
 21 44  1  0  0  0  0
 22 23  1  0  0  0  0
 23 28  1  0  0  0  0
 23 29  1  0  0  0  0
 23 45  1  0  0  0  0
 24 26  1  0  0  0  0
 25 27  2  0  0  0  0
 26 30  2  0  0  0  0
 26 31  1  0  0  0  0
 27 30  1  0  0  0  0
 27 32  1  0  0  0  0
 28 46  1  0  0  0  0
 28 47  1  0  0  0  0
 28 48  1  0  0  0  0
 29 49  1  0  0  0  0
 29 50  1  0  0  0  0
 29 51  1  0  0  0  0
 31 54  1  0  0  0  0
 31 55  1  0  0  0  0
 31 56  1  0  0  0  0
 32 33  1  0  0  0  0
 33 59  1  0  0  0  0
 33 60  1  0  0  0  0
 33 61  1  0  0  0  0
 34 62  1  0  0  0  0
 34 63  1  0  0  0  0
 34 64  1  0  0  0  0
M  END
> <PUBCHEM_COMPOUND_CID>
189453

> <PUBCHEM_CONFORMER_RMSD>
1

> <PUBCHEM_CONFORMER_DIVERSEORDER>
1
27
3
11
25
24
12
21
31
13
23
29
28
10
22
8
14
30
20
9
17
16
4
15
6
26
18
19
5
7
2

> <PUBCHEM_MMFF94_PARTIAL_CHARGES>
36
1 -0.36
10 0.08
11 0.03
12 -0.14
13 0.09
14 0.29
15 0.08
16 0.08
17 -0.29
18 -0.18
19 -0.14
2 -0.53
22 0.42
23 0.06
24 0.08
25 0.08
26 -0.14
27 0.09
3 -0.53
30 0.08
31 0.14
32 0.42
33 0.06
34 0.28
37 0.15
38 0.15
4 -0.36
5 -0.57
52 0.45
53 0.45
57 0.45
58 0.45
6 -0.53
7 -0.53
8 -0.57
9 0.42

> <PUBCHEM_EFFECTIVE_ROTOR_COUNT>
6.4

> <PUBCHEM_PHARMACOPHORE_FEATURES>
13
1 1 acceptor
1 2 donor
1 3 donor
1 4 acceptor
1 5 acceptor
1 6 donor
1 7 donor
1 8 acceptor
3 23 28 29 hydrophobe
3 9 20 21 hydrophobe
6 1 9 10 11 17 18 rings
6 10 11 12 13 15 16 rings
6 19 24 25 26 27 30 rings

> <PUBCHEM_HEAVY_ATOM_COUNT>
34

> <PUBCHEM_ATOM_DEF_STEREO_COUNT>
0

> <PUBCHEM_ATOM_UDEF_STEREO_COUNT>
0

> <PUBCHEM_BOND_DEF_STEREO_COUNT>
0

> <PUBCHEM_BOND_UDEF_STEREO_COUNT>
0

> <PUBCHEM_ISOTOPIC_ATOM_COUNT>
0

> <PUBCHEM_COMPONENT_COUNT>
1

> <PUBCHEM_CACTVS_TAUTO_COUNT>
594

> <PUBCHEM_CONFORMER_ID>
0002E40D00000001

> <PUBCHEM_MMFF94_ENERGY>
132.1943

> <PUBCHEM_FEATURE_SELFOVERLAP>
66.002

> <PUBCHEM_SHAPE_FINGERPRINT>
10319926 262 18114175354845532638
10928967 22 17629490949745675786
11552529 35 18335995155196248454
12107183 9 18193839468612823195
12422481 6 18192430981427821937
12633257 1 18189903182652169586
12788726 201 18191014604656982039
13140716 1 18336545005472634174
13726171 33 17459455676803257080
13782708 43 16127505122742929105
14341114 328 18409731738218436584
14705955 166 16953672859051191568
14787075 74 17692528910254915214
14950920 106 18336551637075992160
15250474 111 18340771437927856426
15347590 135 17831302692186256648
15537594 2 18201148953601197166
16067690 210 17023188270241185282
16110190 28 18265057010767732282
16728300 4 17915738889663328403
1813 80 17274812614718344196
19246450 95 17617667995336854096
19319366 153 17331961621156743013
19377110 9 18268985388928956016
20511986 3 18337689541469453357
21033648 29 17610357299716730928
21859007 373 17771352156201448245
23559900 14 17823680027299963780
24771750 20 8137797256655162835
3117164 225 18338234993467427034
3633792 109 18197803140044780335
392239 28 17903648384456722290
460360 51 18343581837288686111
5104073 3 18335427837772179912
6823239 73 17896298346856969148
7097593 13 18340772640988288868
86090 222 16557606698667724826
9849439 229 17461142516956657305

> <PUBCHEM_SHAPE_MULTIPOLES>
652.75
11.91
4.63
2.04
0.67
2.55
-0.28
-0.83
-6.08
-1.14
-0.42
0.12
0.05
-3.89

> <PUBCHEM_SHAPE_SELFOVERLAP>
1416.332

> <PUBCHEM_SHAPE_VOLUME>
359.7

> <PUBCHEM_COORDINATE_TYPE>
2
5
10

$$$$

