3660
  -OEChem-06251223342D

 29 31  0     1  0  0  0  0  0999 V2000
    6.7204   -1.4977    0.0000 Br  0  0  0  0  0  0  0  0  0  0  0  0
    3.6418   -3.6115    0.0000 O   0  0  0  0  0  0  0  0  0  0  0  0
    5.3994    0.4743    0.0000 O   0  0  0  0  0  0  0  0  0  0  0  0
    2.4384   -2.4201    0.0000 N   0  0  0  0  0  0  0  0  0  0  0  0
    5.1408   -2.3104    0.0000 N   0  0  0  0  0  0  0  0  0  0  0  0
    2.9592    1.3350    0.0000 N   0  0  0  0  0  0  0  0  0  0  0  0
    4.4438    1.9784    0.0000 N   0  0  0  0  0  0  0  0  0  0  0  0
    3.0702    3.1136    0.0000 N   0  0  0  0  0  0  0  0  0  0  0  0
    3.4032   -0.3908    0.0000 C   0  0  3  0  0  0  0  0  0  0  0  0
    4.1881   -1.0104    0.0000 C   0  0  3  0  0  0  0  0  0  0  0  0
    2.4294   -0.6181    0.0000 C   0  0  0  0  0  0  0  0  0  0  0  0
    4.1931   -2.0103    0.0000 C   0  0  0  0  0  0  0  0  0  0  0  0
    2.0000   -1.5213    0.0000 C   0  0  0  0  0  0  0  0  0  0  0  0
    3.6208    0.5853    0.0000 C   0  0  0  0  0  0  0  0  0  0  0  0
    5.1328   -0.7009    0.0000 C   0  0  0  0  0  0  0  0  0  0  0  0
    3.4144   -2.6377    0.0000 C   0  0  0  0  0  0  0  0  0  0  0  0
    5.7204   -1.5027    0.0000 C   0  0  0  0  0  0  0  0  0  0  0  0
    4.5384    0.9829    0.0000 C   0  0  0  0  0  0  0  0  0  0  0  0
    3.4678    2.1960    0.0000 C   0  0  0  0  0  0  0  0  0  0  0  0
    2.9626    0.0454    0.0000 H   0  0  0  0  0  0  0  0  0  0  0  0
    4.2966   -0.3999    0.0000 H   0  0  0  0  0  0  0  0  0  0  0  0
    2.4263    0.0018    0.0000 H   0  0  0  0  0  0  0  0  0  0  0  0
    1.8242   -0.4832    0.0000 H   0  0  0  0  0  0  0  0  0  0  0  0
    1.5133   -1.1371    0.0000 H   0  0  0  0  0  0  0  0  0  0  0  0
    1.5172   -1.9102    0.0000 H   0  0  0  0  0  0  0  0  0  0  0  0
    5.3225   -0.1106    0.0000 H   0  0  0  0  0  0  0  0  0  0  0  0
    2.0542   -2.9067    0.0000 H   0  0  0  0  0  0  0  0  0  0  0  0
    3.4396    3.6115    0.0000 H   0  0  0  0  0  0  0  0  0  0  0  0
    2.4542    3.1846    0.0000 H   0  0  0  0  0  0  0  0  0  0  0  0
  1 17  1  0  0  0  0
  2 16  2  0  0  0  0
  3 18  2  0  0  0  0
  4 13  1  0  0  0  0
  4 16  1  0  0  0  0
  4 27  1  0  0  0  0
  5 12  2  0  0  0  0
  5 17  1  0  0  0  0
  6 14  2  0  0  0  0
  6 19  1  0  0  0  0
  7 18  1  0  0  0  0
  7 19  2  0  0  0  0
  8 19  1  0  0  0  0
  8 28  1  0  0  0  0
  8 29  1  0  0  0  0
  9 10  1  0  0  0  0
  9 11  1  0  0  0  0
  9 14  1  0  0  0  0
  9 20  1  0  0  0  0
 10 12  1  0  0  0  0
 10 15  1  0  0  0  0
 10 21  1  0  0  0  0
 11 13  1  0  0  0  0
 11 22  1  0  0  0  0
 11 23  1  0  0  0  0
 12 16  1  0  0  0  0
 13 24  1  0  0  0  0
 13 25  1  0  0  0  0
 14 18  1  0  0  0  0
 15 17  2  0  0  0  0
 15 26  1  0  0  0  0
M  END
> <PUBCHEM_COMPOUND_CID>
3660

> <PUBCHEM_COMPOUND_CANONICALIZED>
1

> <PUBCHEM_CACTVS_COMPLEXITY>
604

> <PUBCHEM_CACTVS_HBOND_ACCEPTOR>
3

> <PUBCHEM_CACTVS_HBOND_DONOR>
2

> <PUBCHEM_CACTVS_ROTATABLE_BOND>
1

> <PUBCHEM_CACTVS_SUBSKEYS>
AAADccBzsAAAEAAAAAAAAAAAAAAAAQIAAAAAAAAABYAAAACAAAAAHgBQAAABDQjBgAQBAALAAACoASFydAAAAAEgAgAAAIE4AAgAABIAgAAEAAAAlgCAAAEYCQAOgAAAAAAAAAAAAAAAAAAAAAAAAAAAAA==

> <PUBCHEM_IUPAC_OPENEYE_NAME>
4-(2-amino-5-oxo-imidazol-4-yl)-2-bromo-4,5,6,7-tetrahydro-3aH-pyrrolo[2,3-c]azepin-8-one

> <PUBCHEM_IUPAC_CAS_NAME>
4-(2-amino-5-oxo-4-imidazolyl)-2-bromo-4,5,6,7-tetrahydro-3aH-pyrrolo[2,3-c]azepin-8-one

> <PUBCHEM_IUPAC_NAME>
4-(2-amino-5-oxoimidazol-4-yl)-2-bromo-4,5,6,7-tetrahydro-3aH-pyrrolo[2,3-c]azepin-8-one

> <PUBCHEM_IUPAC_SYSTEMATIC_NAME>
4-(2-azanyl-5-oxidanylidene-imidazol-4-yl)-2-bromanyl-4,5,6,7-tetrahydro-3aH-pyrrolo[2,3-c]azepin-8-one

> <PUBCHEM_IUPAC_TRADITIONAL_NAME>
4-(2-amino-5-keto-imidazol-4-yl)-2-bromo-4,5,6,7-tetrahydro-3aH-pyrrol[2,3-c]azepin-8-one

> <PUBCHEM_IUPAC_INCHI>
InChI=1S/C11H10BrN5O2/c12-6-3-5-4(7-10(19)17-11(13)16-7)1-2-14-9(18)8(5)15-6/h3-5H,1-2H2,(H,14,18)(H2,13,17,19)

> <PUBCHEM_IUPAC_INCHIKEY>
QPCBNXNDVYOBIP-UHFFFAOYSA-N

> <PUBCHEM_XLOGP3_AA>
-0.6

> <PUBCHEM_EXACT_MASS>
323.001787

> <PUBCHEM_MOLECULAR_FORMULA>
C11H10BrN5O2

> <PUBCHEM_MOLECULAR_WEIGHT>
324.1334

> <PUBCHEM_OPENEYE_CAN_SMILES>
C1CNC(=O)C2=NC(=CC2C1C3=NC(=NC3=O)N)Br

> <PUBCHEM_OPENEYE_ISO_SMILES>
C1CNC(=O)C2=NC(=CC2C1C3=NC(=NC3=O)N)Br

> <PUBCHEM_CACTVS_TPSA>
109

> <PUBCHEM_MONOISOTOPIC_WEIGHT>
323.001787

> <PUBCHEM_TOTAL_CHARGE>
0

> <PUBCHEM_HEAVY_ATOM_COUNT>
19

> <PUBCHEM_ATOM_DEF_STEREO_COUNT>
0

> <PUBCHEM_ATOM_UDEF_STEREO_COUNT>
2

> <PUBCHEM_BOND_DEF_STEREO_COUNT>
0

> <PUBCHEM_BOND_UDEF_STEREO_COUNT>
0

> <PUBCHEM_ISOTOPIC_ATOM_COUNT>
0

> <PUBCHEM_COMPONENT_COUNT>
1

> <PUBCHEM_CACTVS_TAUTO_COUNT>
21

> <PUBCHEM_COORDINATE_TYPE>
1
5
255

> <PUBCHEM_BONDANNOTATIONS>
10  15  3
9  14  3

$$$$

