151315
  -OEChem-07051213113D

 30 33  0     1  0  0  0  0  0999 V2000
    0.7473   -2.5023   -1.6407 O   0  0  0  0  0  0  0  0  0  0  0  0
   -0.7100   -2.4920    1.6523 O   0  0  0  0  0  0  0  0  0  0  0  0
    0.7345   -2.2060   -0.2425 C   0  0  2  0  0  0  0  0  0  0  0  0
   -0.7192   -2.2091    0.2506 C   0  0  2  0  0  0  0  0  0  0  0  0
    0.7044    0.3148    0.0262 C   0  0  0  0  0  0  0  0  0  0  0  0
   -0.7098    0.3096   -0.0214 C   0  0  0  0  0  0  0  0  0  0  0  0
    1.4429   -0.8882   -0.0152 C   0  0  0  0  0  0  0  0  0  0  0  0
   -1.4391   -0.8988    0.0151 C   0  0  0  0  0  0  0  0  0  0  0  0
    1.4021    1.5451    0.0884 C   0  0  0  0  0  0  0  0  0  0  0  0
   -1.4162    1.5348   -0.0857 C   0  0  0  0  0  0  0  0  0  0  0  0
    2.8428   -0.8607    0.0531 C   0  0  0  0  0  0  0  0  0  0  0  0
   -2.8386   -0.8820   -0.0663 C   0  0  0  0  0  0  0  0  0  0  0  0
    0.6836    2.7460    0.0549 C   0  0  0  0  0  0  0  0  0  0  0  0
   -0.7067    2.7409   -0.0487 C   0  0  0  0  0  0  0  0  0  0  0  0
    2.8033    1.5466    0.1667 C   0  0  0  0  0  0  0  0  0  0  0  0
   -2.8169    1.5259   -0.1721 C   0  0  0  0  0  0  0  0  0  0  0  0
    3.5177    0.3509    0.1572 C   0  0  0  0  0  0  0  0  0  0  0  0
   -3.5221    0.3246   -0.1720 C   0  0  0  0  0  0  0  0  0  0  0  0
    1.2866   -3.0073    0.2638 H   0  0  0  0  0  0  0  0  0  0  0  0
   -1.2654   -3.0207   -0.2458 H   0  0  0  0  0  0  0  0  0  0  0  0
    3.4134   -1.7849    0.0104 H   0  0  0  0  0  0  0  0  0  0  0  0
   -3.4022   -1.8108   -0.0296 H   0  0  0  0  0  0  0  0  0  0  0  0
    1.2007    3.7026    0.0934 H   0  0  0  0  0  0  0  0  0  0  0  0
   -1.2309    3.6937   -0.0874 H   0  0  0  0  0  0  0  0  0  0  0  0
    3.3533    2.4837    0.2254 H   0  0  0  0  0  0  0  0  0  0  0  0
   -3.3737    2.4588   -0.2324 H   0  0  0  0  0  0  0  0  0  0  0  0
    4.6024    0.3662    0.2099 H   0  0  0  0  0  0  0  0  0  0  0  0
   -4.6065    0.3315   -0.2328 H   0  0  0  0  0  0  0  0  0  0  0  0
    0.4094   -1.7270   -2.1209 H   0  0  0  0  0  0  0  0  0  0  0  0
   -1.5980   -2.3164    2.0071 H   0  0  0  0  0  0  0  0  0  0  0  0
  1  3  1  0  0  0  0
  1 29  1  0  0  0  0
  2  4  1  0  0  0  0
  2 30  1  0  0  0  0
  3  4  1  0  0  0  0
  3  7  1  0  0  0  0
  3 19  1  0  0  0  0
  4  8  1  0  0  0  0
  4 20  1  0  0  0  0
  5  6  1  0  0  0  0
  5  7  1  0  0  0  0
  5  9  2  0  0  0  0
  6  8  1  0  0  0  0
  6 10  2  0  0  0  0
  7 11  2  0  0  0  0
  8 12  2  0  0  0  0
  9 13  1  0  0  0  0
  9 15  1  0  0  0  0
 10 14  1  0  0  0  0
 10 16  1  0  0  0  0
 11 17  1  0  0  0  0
 11 21  1  0  0  0  0
 12 18  1  0  0  0  0
 12 22  1  0  0  0  0
 13 14  2  0  0  0  0
 13 23  1  0  0  0  0
 14 24  1  0  0  0  0
 15 17  2  0  0  0  0
 15 25  1  0  0  0  0
 16 18  2  0  0  0  0
 16 26  1  0  0  0  0
 17 27  1  0  0  0  0
 18 28  1  0  0  0  0
M  END
> <PUBCHEM_COMPOUND_CID>
151315

> <PUBCHEM_CONFORMER_RMSD>
0.6

> <PUBCHEM_CONFORMER_DIVERSEORDER>
1

> <PUBCHEM_MMFF94_PARTIAL_CHARGES>
24
1 -0.68
11 -0.15
12 -0.15
13 -0.15
14 -0.15
15 -0.15
16 -0.15
17 -0.15
18 -0.15
2 -0.68
21 0.15
22 0.15
23 0.15
24 0.15
25 0.15
26 0.15
27 0.15
28 0.15
29 0.4
3 0.42
30 0.4
4 0.42
7 -0.14
8 -0.14

> <PUBCHEM_EFFECTIVE_ROTOR_COUNT>
0.4

> <PUBCHEM_PHARMACOPHORE_FEATURES>
8
1 1 acceptor
1 1 donor
1 2 acceptor
1 2 donor
6 3 4 5 6 7 8 rings
6 5 6 9 10 13 14 rings
6 5 7 9 11 15 17 rings
6 6 8 10 12 16 18 rings

> <PUBCHEM_HEAVY_ATOM_COUNT>
18

> <PUBCHEM_ATOM_DEF_STEREO_COUNT>
2

> <PUBCHEM_ATOM_UDEF_STEREO_COUNT>
0

> <PUBCHEM_BOND_DEF_STEREO_COUNT>
0

> <PUBCHEM_BOND_UDEF_STEREO_COUNT>
0

> <PUBCHEM_ISOTOPIC_ATOM_COUNT>
0

> <PUBCHEM_COMPONENT_COUNT>
1

> <PUBCHEM_CACTVS_TAUTO_COUNT>
1

> <PUBCHEM_CONFORMER_ID>
00024F1300000001

> <PUBCHEM_MMFF94_ENERGY>
59.704

> <PUBCHEM_FEATURE_SELFOVERLAP>
40.717

> <PUBCHEM_SHAPE_FINGERPRINT>
10967382 1 18410576188501484901
11132069 177 18336554883976497152
11680986 33 17979637831690773417
12011746 2 18410856525454306812
13140716 1 18338801224781429817
13380535 76 18410858758668423810
14178342 30 17976268155328234224
14790565 3 18338496599910647777
15196674 1 18410576184174953549
16945 1 18409737282577857103
193761 8 17762058039702385256
19591789 44 18410854360622172547
20510252 161 18334297590984504352
20511035 2 18124311601732788940
20588541 1 18410570690911755981
20905425 154 18048038768035168678
21197605 99 17906437841779595251
21267235 1 18410567392376716743
22344851 341 17906735052471070418
2334 1 18410858737204370689
23402539 116 18336279988900058134
23419403 2 15110363609617426427
23463225 33 18412830200418616856
23559900 14 18335133139193207348
238 59 17838100109735357517
25 1 18411985792683944645
2748010 2 18265610974937238452
335352 9 18050006885069153212
589210 1 17690844454009115856
7364860 26 18116997899456048398
8809292 202 18342736291182114018

> <PUBCHEM_SHAPE_MULTIPOLES>
358.69
4.54
3.28
0.84
0.01
0.03
0
-0.84
-0.02
-0.01
0
0
0.56
0.4

> <PUBCHEM_SHAPE_SELFOVERLAP>
826.539

> <PUBCHEM_SHAPE_VOLUME>
184.9

> <PUBCHEM_COORDINATE_TYPE>
2
5
10

$$$$

