184515
  -OEChem-07051213102D

 67 71  0     1  0  0  0  0  0999 V2000
    4.4455    0.3496    0.0000 O   0  0  0  0  0  0  0  0  0  0  0  0
    8.8435   -0.1296    0.0000 O   0  0  0  0  0  0  0  0  0  0  0  0
    9.7477    1.3672    0.0000 O   0  0  0  0  0  0  0  0  0  0  0  0
    5.3631   -1.1642    0.0000 O   0  0  0  0  0  0  0  0  0  0  0  0
   10.5756   -0.1296    0.0000 O   0  0  0  0  0  0  0  0  0  0  0  0
    2.0000    2.2370    0.0000 O   0  0  0  0  0  0  0  0  0  0  0  0
    8.8435   -2.1296    0.0000 O   0  0  0  0  0  0  0  0  0  0  0  0
   10.5756   -3.1296    0.0000 O   0  0  0  0  0  0  0  0  0  0  0  0
   12.3076   -2.1296    0.0000 O   0  0  0  0  0  0  0  0  0  0  0  0
   13.1737   -0.6296    0.0000 O   0  0  0  0  0  0  0  0  0  0  0  0
    6.2455    1.3704    0.0000 C   0  0  1  0  0  0  0  0  0  0  0  0
    7.1115    1.8704    0.0000 C   0  0  1  0  0  0  0  0  0  0  0  0
    7.9775    1.3704    0.0000 C   0  0  2  0  0  0  0  0  0  0  0  0
    6.2455    0.3704    0.0000 C   0  0  1  0  0  0  0  0  0  0  0  0
    7.9775    0.3704    0.0000 C   0  0  0  0  0  0  0  0  0  0  0  0
    7.1115   -0.1296    0.0000 C   0  0  0  0  0  0  0  0  0  0  0  0
    5.3515    1.9050    0.0000 C   0  0  0  0  0  0  0  0  0  0  0  0
    7.0954    2.9119    0.0000 C   0  0  0  0  0  0  0  0  0  0  0  0
    6.2455    2.3704    0.0000 C   0  0  0  0  0  0  0  0  0  0  0  0
    8.8435    0.8704    0.0000 C   0  0  0  0  0  0  0  0  0  0  0  0
    8.8875    1.8772    0.0000 C   0  0  0  0  0  0  0  0  0  0  0  0
    4.4455    1.3912    0.0000 C   0  0  1  0  0  0  0  0  0  0  0  0
    5.3515   -0.1643    0.0000 C   0  0  0  0  0  0  0  0  0  0  0  0
    7.9935    3.4396    0.0000 C   0  0  0  0  0  0  0  0  0  0  0  0
    8.8956    2.9188    0.0000 C   0  0  0  0  0  0  0  0  0  0  0  0
    3.5814    1.8945    0.0000 C   0  0  0  0  0  0  0  0  0  0  0  0
    9.7096   -0.6296    0.0000 C   0  0  2  0  0  0  0  0  0  0  0  0
    9.7096   -1.6296    0.0000 C   0  0  1  0  0  0  0  0  0  0  0  0
    3.4807    2.8894    0.0000 C   0  0  0  0  0  0  0  0  0  0  0  0
    2.6663    1.4913    0.0000 C   0  0  0  0  0  0  0  0  0  0  0  0
   10.5756   -2.1296    0.0000 C   0  0  2  0  0  0  0  0  0  0  0  0
   11.4416   -0.6296    0.0000 C   0  0  1  0  0  0  0  0  0  0  0  0
   11.4416   -1.6296    0.0000 C   0  0  1  0  0  0  0  0  0  0  0  0
    2.5033    3.1011    0.0000 C   0  0  0  0  0  0  0  0  0  0  0  0
   12.3076   -0.1296    0.0000 C   0  0  0  0  0  0  0  0  0  0  0  0
    7.8443    2.3010    0.0000 H   0  0  0  0  0  0  0  0  0  0  0  0
    6.2520   -0.4796    0.0000 H   0  0  0  0  0  0  0  0  0  0  0  0
    8.1896   -0.2122    0.0000 H   0  0  0  0  0  0  0  0  0  0  0  0
    8.5881    0.4780    0.0000 H   0  0  0  0  0  0  0  0  0  0  0  0
    6.7130   -0.6046    0.0000 H   0  0  0  0  0  0  0  0  0  0  0  0
    7.5100   -0.6046    0.0000 H   0  0  0  0  0  0  0  0  0  0  0  0
    5.7561    2.3748    0.0000 H   0  0  0  0  0  0  0  0  0  0  0  0
    4.9579    2.3840    0.0000 H   0  0  0  0  0  0  0  0  0  0  0  0
    6.8774    3.4923    0.0000 H   0  0  0  0  0  0  0  0  0  0  0  0
    6.4863    2.7964    0.0000 H   0  0  0  0  0  0  0  0  0  0  0  0
    6.8655    2.3704    0.0000 H   0  0  0  0  0  0  0  0  0  0  0  0
    6.2455    2.9904    0.0000 H   0  0  0  0  0  0  0  0  0  0  0  0
    5.6255    2.3704    0.0000 H   0  0  0  0  0  0  0  0  0  0  0  0
    9.4541    0.7627    0.0000 H   0  0  0  0  0  0  0  0  0  0  0  0
    9.0556    1.4530    0.0000 H   0  0  0  0  0  0  0  0  0  0  0  0
    3.9079    1.0822    0.0000 H   0  0  0  0  0  0  0  0  0  0  0  0
    7.9911    4.0596    0.0000 H   0  0  0  0  0  0  0  0  0  0  0  0
    9.4337    3.2267    0.0000 H   0  0  0  0  0  0  0  0  0  0  0  0
    9.7096   -0.0096    0.0000 H   0  0  0  0  0  0  0  0  0  0  0  0
    9.7096   -2.2496    0.0000 H   0  0  0  0  0  0  0  0  0  0  0  0
    3.9430    3.3025    0.0000 H   0  0  0  0  0  0  0  0  0  0  0  0
    2.5350    0.8854    0.0000 H   0  0  0  0  0  0  0  0  0  0  0  0
   10.0387   -2.4396    0.0000 H   0  0  0  0  0  0  0  0  0  0  0  0
   11.4416   -0.0096    0.0000 H   0  0  0  0  0  0  0  0  0  0  0  0
   11.9786   -1.3196    0.0000 H   0  0  0  0  0  0  0  0  0  0  0  0
    2.2533    3.6685    0.0000 H   0  0  0  0  0  0  0  0  0  0  0  0
   12.7062    0.3453    0.0000 H   0  0  0  0  0  0  0  0  0  0  0  0
   11.9091    0.3453    0.0000 H   0  0  0  0  0  0  0  0  0  0  0  0
    8.8435   -2.7496    0.0000 H   0  0  0  0  0  0  0  0  0  0  0  0
   11.1125   -3.4396    0.0000 H   0  0  0  0  0  0  0  0  0  0  0  0
   12.3076   -2.7496    0.0000 H   0  0  0  0  0  0  0  0  0  0  0  0
   13.7106   -0.3196    0.0000 H   0  0  0  0  0  0  0  0  0  0  0  0
  1 22  1  0  0  0  0
  1 23  1  0  0  0  0
  2 20  1  0  0  0  0
 27  2  1  6  0  0  0
  3 21  2  0  0  0  0
  4 23  2  0  0  0  0
  5 27  1  0  0  0  0
  5 32  1  0  0  0  0
  6 30  1  0  0  0  0
  6 34  1  0  0  0  0
 28  7  1  1  0  0  0
  7 64  1  0  0  0  0
 31  8  1  6  0  0  0
  8 65  1  0  0  0  0
 33  9  1  1  0  0  0
  9 66  1  0  0  0  0
 10 35  1  0  0  0  0
 10 67  1  0  0  0  0
 11 12  1  0  0  0  0
 11 14  1  0  0  0  0
 11 17  1  0  0  0  0
 11 19  1  6  0  0  0
 12 13  1  0  0  0  0
 12 18  1  0  0  0  0
 12 36  1  1  0  0  0
 13 15  1  0  0  0  0
 13 20  1  1  0  0  0
 13 21  1  0  0  0  0
 14 16  1  0  0  0  0
 14 23  1  0  0  0  0
 14 37  1  6  0  0  0
 15 16  1  0  0  0  0
 15 38  1  0  0  0  0
 15 39  1  0  0  0  0
 16 40  1  0  0  0  0
 16 41  1  0  0  0  0
 17 22  1  0  0  0  0
 17 42  1  0  0  0  0
 17 43  1  0  0  0  0
 18 24  1  0  0  0  0
 18 44  1  0  0  0  0
 18 45  1  0  0  0  0
 19 46  1  0  0  0  0
 19 47  1  0  0  0  0
 19 48  1  0  0  0  0
 20 49  1  0  0  0  0
 20 50  1  0  0  0  0
 21 25  1  0  0  0  0
 22 26  1  6  0  0  0
 22 51  1  0  0  0  0
 24 25  2  0  0  0  0
 24 52  1  0  0  0  0
 25 53  1  0  0  0  0
 26 29  1  0  0  0  0
 26 30  2  0  0  0  0
 27 28  1  0  0  0  0
 27 54  1  0  0  0  0
 28 31  1  0  0  0  0
 28 55  1  0  0  0  0
 29 34  2  0  0  0  0
 29 56  1  0  0  0  0
 30 57  1  0  0  0  0
 31 33  1  0  0  0  0
 31 58  1  0  0  0  0
 32 33  1  0  0  0  0
 32 35  1  6  0  0  0
 32 59  1  0  0  0  0
 33 60  1  0  0  0  0
 34 61  1  0  0  0  0
 35 62  1  0  0  0  0
 35 63  1  0  0  0  0
M  END
> <PUBCHEM_COMPOUND_CID>
184515

> <PUBCHEM_COMPOUND_CANONICALIZED>
1

> <PUBCHEM_CACTVS_COMPLEXITY>
861

> <PUBCHEM_CACTVS_HBOND_ACCEPTOR>
10

> <PUBCHEM_CACTVS_HBOND_DONOR>
4

> <PUBCHEM_CACTVS_ROTATABLE_BOND>
5

> <PUBCHEM_CACTVS_SUBSKEYS>
AAADcfB4PAAAAAAAAAAAAAAAAAAAASAAAAA0SIEAAAAAAACRgAAAGgAACAAADxSwmAMyDIAABkCIAqjSiAACCAAkIAAIiAEGCMgdNxYENQqiWSCl4BEPKYPK7PzPgAAAAAAAAACAAAQAACAAAAAAAAAAAA==

> <PUBCHEM_IUPAC_OPENEYE_NAME>
(2S,4aR,6aR,10aS,10bS)-2-(3-furyl)-10b-methyl-6a-[[(2R,3R,4S,5S,6R)-3,4,5-trihydroxy-6-(hydroxymethyl)tetrahydropyran-2-yl]oxymethyl]-2,4a,5,6,10,10a-hexahydro-1H-benzo[f]isochromene-4,7-dione

> <PUBCHEM_IUPAC_CAS_NAME>
(2S,4aR,6aR,10aS,10bS)-2-(3-furanyl)-10b-methyl-6a-[[(2R,3R,4S,5S,6R)-3,4,5-trihydroxy-6-(hydroxymethyl)-2-oxanyl]oxymethyl]-2,4a,5,6,10,10a-hexahydro-1H-benzo[f][2]benzopyran-4,7-dione

> <PUBCHEM_IUPAC_NAME>
(2S,4aR,6aR,10aS,10bS)-2-(furan-3-yl)-10b-methyl-6a-[[(2R,3R,4S,5S,6R)-3,4,5-trihydroxy-6-(hydroxymethyl)oxan-2-yl]oxymethyl]-2,4a,5,6,10,10a-hexahydro-1H-benzo[f]isochromene-4,7-dione

> <PUBCHEM_IUPAC_SYSTEMATIC_NAME>
(2S,4aR,6aR,10aS,10bS)-2-(furan-3-yl)-6a-[[(2R,3R,4S,5S,6R)-6-(hydroxymethyl)-3,4,5-tris(oxidanyl)oxan-2-yl]oxymethyl]-10b-methyl-2,4a,5,6,10,10a-hexahydro-1H-benzo[f]isochromene-4,7-dione

> <PUBCHEM_IUPAC_TRADITIONAL_NAME>
(2S,4aR,6aR,10aS,10bS)-2-(3-furyl)-10b-methyl-6a-[[(2R,3R,4S,5S,6R)-3,4,5-trihydroxy-6-methylol-tetrahydropyran-2-yl]oxymethyl]-2,4a,5,6,10,10a-hexahydro-1H-benz[f]isochromene-4,7-quinone

> <PUBCHEM_IUPAC_INCHI>
InChI=1S/C25H32O10/c1-24-9-15(13-6-8-32-11-13)34-22(31)14(24)5-7-25(17(24)3-2-4-18(25)27)12-33-23-21(30)20(29)19(28)16(10-26)35-23/h2,4,6,8,11,14-17,19-21,23,26,28-30H,3,5,7,9-10,12H2,1H3/t14-,15-,16+,17-,19+,20-,21+,23+,24+,25-/m0/s1

> <PUBCHEM_IUPAC_INCHIKEY>
YROXDMYKXGMKSM-YUOSKFACSA-N

> <PUBCHEM_XLOGP3_AA>
0.1

> <PUBCHEM_EXACT_MASS>
492.199547

> <PUBCHEM_MOLECULAR_FORMULA>
C25H32O10

> <PUBCHEM_MOLECULAR_WEIGHT>
492.51558

> <PUBCHEM_OPENEYE_CAN_SMILES>
CC12CC(OC(=O)C1CCC3(C2CC=CC3=O)COC4C(C(C(C(O4)CO)O)O)O)C5=COC=C5

> <PUBCHEM_OPENEYE_ISO_SMILES>
C[C@@]12C[C@H](OC(=O)[C@@H]1CC[C@@]3([C@H]2CC=CC3=O)CO[C@H]4[C@@H]([C@H]([C@@H]([C@H](O4)CO)O)O)O)C5=COC=C5

> <PUBCHEM_CACTVS_TPSA>
156

> <PUBCHEM_MONOISOTOPIC_WEIGHT>
492.199547

> <PUBCHEM_TOTAL_CHARGE>
0

> <PUBCHEM_HEAVY_ATOM_COUNT>
35

> <PUBCHEM_ATOM_DEF_STEREO_COUNT>
10

> <PUBCHEM_ATOM_UDEF_STEREO_COUNT>
0

> <PUBCHEM_BOND_DEF_STEREO_COUNT>
0

> <PUBCHEM_BOND_UDEF_STEREO_COUNT>
0

> <PUBCHEM_ISOTOPIC_ATOM_COUNT>
0

> <PUBCHEM_COMPONENT_COUNT>
1

> <PUBCHEM_CACTVS_TAUTO_COUNT>
6

> <PUBCHEM_COORDINATE_TYPE>
1
5
255

> <PUBCHEM_BONDANNOTATIONS>
11  19  6
12  36  5
13  20  5
14  37  6
27  2  6
22  26  6
26  29  8
26  30  8
29  34  8
32  35  6
6  30  8
6  34  8
28  7  5
31  8  6
33  9  5

$$$$

