14135317
  -OEChem-07051213113D

 48 47  0     0  0  0  0  0  0999 V2000
   -5.5799    0.6367    1.5129 O   0  0  0  0  0  0  0  0  0  0  0  0
   -4.1069   -1.5498   -0.0456 O   0  0  0  0  0  0  0  0  0  0  0  0
   -4.2499    0.5312   -1.0700 N   0  0  0  0  0  0  0  0  0  0  0  0
   -6.0335    1.4293    0.4130 C   0  0  0  0  0  0  0  0  0  0  0  0
   -5.6726    0.7216   -0.9013 C   0  0  0  0  0  0  0  0  0  0  0  0
   -5.3754    2.8054    0.5284 C   0  0  0  0  0  0  0  0  0  0  0  0
   -7.5540    1.5681    0.5305 C   0  0  0  0  0  0  0  0  0  0  0  0
   -3.5880   -0.5994   -0.6222 C   0  0  0  0  0  0  0  0  0  0  0  0
    2.3862   -2.5737   -0.7460 C   0  0  0  0  0  0  0  0  0  0  0  0
   -2.1307   -0.5444   -0.9256 C   0  0  0  0  0  0  0  0  0  0  0  0
    3.2243   -2.6923    0.5347 C   0  0  0  0  0  0  0  0  0  0  0  0
    0.9069   -2.5614   -0.4746 C   0  0  0  0  0  0  0  0  0  0  0  0
   -1.3284   -1.5557   -0.5648 C   0  0  0  0  0  0  0  0  0  0  0  0
    0.0931   -1.5560   -0.8302 C   0  0  0  0  0  0  0  0  0  0  0  0
    3.1138   -1.6018    1.5690 C   0  0  0  0  0  0  0  0  0  0  0  0
    3.8014   -0.4505    1.6172 C   0  0  0  0  0  0  0  0  0  0  0  0
    4.7934   -0.0825    0.6301 C   0  0  0  0  0  0  0  0  0  0  0  0
    5.4801    1.0692    0.6796 C   0  0  0  0  0  0  0  0  0  0  0  0
    6.4724    1.4378   -0.3058 C   0  0  0  0  0  0  0  0  0  0  0  0
    7.1604    2.5879   -0.2591 C   0  0  0  0  0  0  0  0  0  0  0  0
    8.1872    2.9803   -1.2703 C   0  0  0  0  0  0  0  0  0  0  0  0
   -6.0227    1.3008   -1.7630 H   0  0  0  0  0  0  0  0  0  0  0  0
   -6.1498   -0.2649   -0.9388 H   0  0  0  0  0  0  0  0  0  0  0  0
   -5.6527    3.4547   -0.3084 H   0  0  0  0  0  0  0  0  0  0  0  0
   -5.6681    3.3024    1.4607 H   0  0  0  0  0  0  0  0  0  0  0  0
   -4.2832    2.7233    0.5598 H   0  0  0  0  0  0  0  0  0  0  0  0
   -7.9681    2.1694   -0.2855 H   0  0  0  0  0  0  0  0  0  0  0  0
   -7.8347    2.0352    1.4816 H   0  0  0  0  0  0  0  0  0  0  0  0
   -8.0361    0.5839    0.5167 H   0  0  0  0  0  0  0  0  0  0  0  0
   -3.7319    1.2706   -1.5358 H   0  0  0  0  0  0  0  0  0  0  0  0
   -5.8286    1.0910    2.3360 H   0  0  0  0  0  0  0  0  0  0  0  0
    2.6884   -1.6756   -1.2984 H   0  0  0  0  0  0  0  0  0  0  0  0
    2.6073   -3.4303   -1.3941 H   0  0  0  0  0  0  0  0  0  0  0  0
   -1.7422    0.3293   -1.4398 H   0  0  0  0  0  0  0  0  0  0  0  0
    4.2753   -2.8247    0.2487 H   0  0  0  0  0  0  0  0  0  0  0  0
    2.9638   -3.6353    1.0361 H   0  0  0  0  0  0  0  0  0  0  0  0
    0.5008   -3.4348    0.0312 H   0  0  0  0  0  0  0  0  0  0  0  0
   -1.7308   -2.4244   -0.0499 H   0  0  0  0  0  0  0  0  0  0  0  0
    0.5056   -0.6890   -1.3402 H   0  0  0  0  0  0  0  0  0  0  0  0
    2.3784   -1.7748    2.3531 H   0  0  0  0  0  0  0  0  0  0  0  0
    3.6060    0.2454    2.4286 H   0  0  0  0  0  0  0  0  0  0  0  0
    4.9826   -0.7690   -0.1901 H   0  0  0  0  0  0  0  0  0  0  0  0
    5.3026    1.7729    1.4899 H   0  0  0  0  0  0  0  0  0  0  0  0
    6.6559    0.7367   -1.1162 H   0  0  0  0  0  0  0  0  0  0  0  0
    6.9844    3.2961    0.5472 H   0  0  0  0  0  0  0  0  0  0  0  0
    9.1545    3.1285   -0.7806 H   0  0  0  0  0  0  0  0  0  0  0  0
    8.3125    2.2231   -2.0508 H   0  0  0  0  0  0  0  0  0  0  0  0
    7.8970    3.9199   -1.7502 H   0  0  0  0  0  0  0  0  0  0  0  0
  1  4  1  0  0  0  0
  1 31  1  0  0  0  0
  2  8  2  0  0  0  0
  3  5  1  0  0  0  0
  3  8  1  0  0  0  0
  3 30  1  0  0  0  0
  4  5  1  0  0  0  0
  4  6  1  0  0  0  0
  4  7  1  0  0  0  0
  5 22  1  0  0  0  0
  5 23  1  0  0  0  0
  6 24  1  0  0  0  0
  6 25  1  0  0  0  0
  6 26  1  0  0  0  0
  7 27  1  0  0  0  0
  7 28  1  0  0  0  0
  7 29  1  0  0  0  0
  8 10  1  0  0  0  0
  9 11  1  0  0  0  0
  9 12  1  0  0  0  0
  9 32  1  0  0  0  0
  9 33  1  0  0  0  0
 10 13  2  0  0  0  0
 10 34  1  0  0  0  0
 11 15  1  0  0  0  0
 11 35  1  0  0  0  0
 11 36  1  0  0  0  0
 12 14  2  0  0  0  0
 12 37  1  0  0  0  0
 13 14  1  0  0  0  0
 13 38  1  0  0  0  0
 14 39  1  0  0  0  0
 15 16  2  0  0  0  0
 15 40  1  0  0  0  0
 16 17  1  0  0  0  0
 16 41  1  0  0  0  0
 17 18  2  0  0  0  0
 17 42  1  0  0  0  0
 18 19  1  0  0  0  0
 18 43  1  0  0  0  0
 19 20  2  0  0  0  0
 19 44  1  0  0  0  0
 20 21  1  0  0  0  0
 20 45  1  0  0  0  0
 21 46  1  0  0  0  0
 21 47  1  0  0  0  0
 21 48  1  0  0  0  0
M  END
> <PUBCHEM_COMPOUND_CID>
14135317

> <PUBCHEM_CONFORMER_RMSD>
1.2

> <PUBCHEM_CONFORMER_DIVERSEORDER>
1
42
36
58
22
37
64
18
17
11
51
41
68
65
63
50
38
74
27
6
75
3
71
44
31
25
40
43
61
57
21
9
26
28
23
16
29
5
47
4
24
70
66
7
33
72
62
55
15
49
45
48
53
35
10
73
59
34
39
14
20
52
67
12
69
2
60
8
56
30
19
76
54
32
46
13

> <PUBCHEM_MMFF94_PARTIAL_CHARGES>
31
1 -0.68
10 -0.14
11 0.14
12 -0.29
13 -0.15
14 -0.15
15 -0.29
16 -0.15
17 -0.15
18 -0.15
19 -0.15
2 -0.57
20 -0.29
21 0.14
3 -0.73
30 0.37
31 0.4
34 0.15
37 0.15
38 0.15
39 0.15
4 0.28
40 0.15
41 0.15
42 0.15
43 0.15
44 0.15
45 0.15
5 0.3
8 0.62
9 0.14

> <PUBCHEM_EFFECTIVE_ROTOR_COUNT>
10

> <PUBCHEM_PHARMACOPHORE_FEATURES>
7
1 1 acceptor
1 1 donor
1 2 acceptor
1 21 hydrophobe
1 3 donor
3 4 6 7 hydrophobe
4 9 11 12 15 hydrophobe

> <PUBCHEM_HEAVY_ATOM_COUNT>
21

> <PUBCHEM_ATOM_DEF_STEREO_COUNT>
0

> <PUBCHEM_ATOM_UDEF_STEREO_COUNT>
0

> <PUBCHEM_BOND_DEF_STEREO_COUNT>
5

> <PUBCHEM_BOND_UDEF_STEREO_COUNT>
0

> <PUBCHEM_ISOTOPIC_ATOM_COUNT>
0

> <PUBCHEM_COMPONENT_COUNT>
1

> <PUBCHEM_CACTVS_TAUTO_COUNT>
2

> <PUBCHEM_CONFORMER_ID>
00D7B01500000001

> <PUBCHEM_MMFF94_ENERGY>
24.2883

> <PUBCHEM_FEATURE_SELFOVERLAP>
35.523

> <PUBCHEM_SHAPE_FINGERPRINT>
10 15 18341610439184660443
10674148 151 18187644671065682316
10730089 47 9943517531638793431
11476731 99 17686338665052289968
12596602 18 18201158862423007251
13944108 23 18261111919992409584
14251751 18 10735879477988542966
14251764 75 18412266125400197970
14347332 77 10592042488299096287
14428016 204 18343582936684425261
14931854 50 17458054951082360984
14951699 99 18410853274158671719
15183329 4 14923941262508952522
15188451 53 10015590501970559116
15350500 16 6555421886511995820
15519825 34 15769206142552663177
16992752 21 17970358027595989231
16993427 108 8357995325210725740
20526848 3 18410857633998889644
20567600 247 9223231862371126966
21344244 78 15482666909663384574
21585482 111 18341896350251606884
270888 7 18410578353824404718
4169191 19 18341620317161457941
531348 171 9223231858730572903
5718773 13 9223239537788992476
5911458 16 18410852149120573852
6438161 24 9151169844189888436
9689198 14 18342450410170318254

> <PUBCHEM_SHAPE_MULTIPOLES>
415.45
24.15
3.71
1.35
2.51
0.42
0.28
29.14
0.25
4.67
-0.52
0.55
-0.04
-3.25

> <PUBCHEM_SHAPE_SELFOVERLAP>
798.169

> <PUBCHEM_SHAPE_VOLUME>
252

> <PUBCHEM_COORDINATE_TYPE>
2
5
10

$$$$

