442754
  -OEChem-07051212592D

 36 38  0     0  0  0  0  0  0999 V2000
    3.9061    0.7624    0.0000 O   0  0  0  0  0  0  0  0  0  0  0  0
    5.6660   -2.2723    0.0000 O   0  0  0  0  0  0  0  0  0  0  0  0
    5.6660    1.7277    0.0000 O   0  0  0  0  0  0  0  0  0  0  0  0
    7.4144    1.7623    0.0000 O   0  0  0  0  0  0  0  0  0  0  0  0
    3.0000    0.2485    0.0000 C   0  0  0  0  0  0  0  0  0  0  0  0
    3.0000   -0.7931    0.0000 C   0  0  0  0  0  0  0  0  0  0  0  0
    3.9061   -1.3070    0.0000 C   0  0  0  0  0  0  0  0  0  0  0  0
    4.8000   -0.7723    0.0000 C   0  0  0  0  0  0  0  0  0  0  0  0
    4.8000    0.2277    0.0000 C   0  0  0  0  0  0  0  0  0  0  0  0
    2.0000    0.2524    0.0000 C   0  0  0  0  0  0  0  0  0  0  0  0
    2.5033    1.1165    0.0000 C   0  0  0  0  0  0  0  0  0  0  0  0
    5.6660   -1.2723    0.0000 C   0  0  0  0  0  0  0  0  0  0  0  0
    5.6660    0.7277    0.0000 C   0  0  0  0  0  0  0  0  0  0  0  0
    6.5320   -0.7723    0.0000 C   0  0  0  0  0  0  0  0  0  0  0  0
    6.5320    0.2277    0.0000 C   0  0  0  0  0  0  0  0  0  0  0  0
    7.4260    0.7624    0.0000 C   0  0  0  0  0  0  0  0  0  0  0  0
    7.4260   -1.3070    0.0000 C   0  0  0  0  0  0  0  0  0  0  0  0
    8.3321    0.2485    0.0000 C   0  0  0  0  0  0  0  0  0  0  0  0
    8.3321   -0.7931    0.0000 C   0  0  0  0  0  0  0  0  0  0  0  0
    8.2746    2.2723    0.0000 C   0  0  0  0  0  0  0  0  0  0  0  0
    2.3891   -0.6870    0.0000 H   0  0  0  0  0  0  0  0  0  0  0  0
    2.7909   -1.3768    0.0000 H   0  0  0  0  0  0  0  0  0  0  0  0
    3.5124   -1.7860    0.0000 H   0  0  0  0  0  0  0  0  0  0  0  0
    4.3107   -1.7767    0.0000 H   0  0  0  0  0  0  0  0  0  0  0  0
    3.0415    1.4244    0.0000 H   0  0  0  0  0  0  0  0  0  0  0  0
    2.1954    1.6546    0.0000 H   0  0  0  0  0  0  0  0  0  0  0  0
    1.9652    0.8085    0.0000 H   0  0  0  0  0  0  0  0  0  0  0  0
    2.0024    0.8724    0.0000 H   0  0  0  0  0  0  0  0  0  0  0  0
    1.3800    0.2548    0.0000 H   0  0  0  0  0  0  0  0  0  0  0  0
    1.9976   -0.3676    0.0000 H   0  0  0  0  0  0  0  0  0  0  0  0
    7.4188   -1.9269    0.0000 H   0  0  0  0  0  0  0  0  0  0  0  0
    8.8678    0.5606    0.0000 H   0  0  0  0  0  0  0  0  0  0  0  0
    8.8678   -1.1052    0.0000 H   0  0  0  0  0  0  0  0  0  0  0  0
    8.5908    1.7390    0.0000 H   0  0  0  0  0  0  0  0  0  0  0  0
    8.8079    2.5885    0.0000 H   0  0  0  0  0  0  0  0  0  0  0  0
    7.9584    2.8056    0.0000 H   0  0  0  0  0  0  0  0  0  0  0  0
  1  5  1  0  0  0  0
  1  9  1  0  0  0  0
  2 12  2  0  0  0  0
  3 13  2  0  0  0  0
  4 16  1  0  0  0  0
  4 20  1  0  0  0  0
  5  6  1  0  0  0  0
  5 10  1  0  0  0  0
  5 11  1  0  0  0  0
  6  7  1  0  0  0  0
  6 21  1  0  0  0  0
  6 22  1  0  0  0  0
  7  8  1  0  0  0  0
  7 23  1  0  0  0  0
  7 24  1  0  0  0  0
  8  9  2  0  0  0  0
  8 12  1  0  0  0  0
  9 13  1  0  0  0  0
 10 28  1  0  0  0  0
 10 29  1  0  0  0  0
 10 30  1  0  0  0  0
 11 25  1  0  0  0  0
 11 26  1  0  0  0  0
 11 27  1  0  0  0  0
 12 14  1  0  0  0  0
 13 15  1  0  0  0  0
 14 15  2  0  0  0  0
 14 17  1  0  0  0  0
 15 16  1  0  0  0  0
 16 18  2  0  0  0  0
 17 19  2  0  0  0  0
 17 31  1  0  0  0  0
 18 19  1  0  0  0  0
 18 32  1  0  0  0  0
 19 33  1  0  0  0  0
 20 34  1  0  0  0  0
 20 35  1  0  0  0  0
 20 36  1  0  0  0  0
M  END
> <PUBCHEM_COMPOUND_CID>
442754

> <PUBCHEM_COMPOUND_CANONICALIZED>
1

> <PUBCHEM_CACTVS_COMPLEXITY>
489

> <PUBCHEM_CACTVS_HBOND_ACCEPTOR>
4

> <PUBCHEM_CACTVS_HBOND_DONOR>
0

> <PUBCHEM_CACTVS_ROTATABLE_BOND>
1

> <PUBCHEM_CACTVS_SUBSKEYS>
AAADceB4OAAAAAAAAAAAAAAAAAAAAAAAAAAwQIAAAAAAAACRAAAAGgAAAAAADESAmAIyBoAABACIAqBSAAICCAAkIAAIiAFGCMgMJjaENR6CMWAk4BEIqYfLzPDOgAABAAAYAAAAAAIAADAAAAAAAAAAAA==

> <PUBCHEM_IUPAC_OPENEYE_NAME>
9-methoxy-2,2-dimethyl-3,4-dihydrobenzo[g]chromene-5,10-dione

> <PUBCHEM_IUPAC_CAS_NAME>
9-methoxy-2,2-dimethyl-3,4-dihydrobenzo[g][1]benzopyran-5,10-dione

> <PUBCHEM_IUPAC_NAME>
9-methoxy-2,2-dimethyl-3,4-dihydrobenzo[g]chromene-5,10-dione

> <PUBCHEM_IUPAC_SYSTEMATIC_NAME>
9-methoxy-2,2-dimethyl-3,4-dihydrobenzo[g]chromene-5,10-dione

> <PUBCHEM_IUPAC_TRADITIONAL_NAME>
9-methoxy-2,2-dimethyl-3,4-dihydrobenzo[g]chromene-5,10-quinone

> <PUBCHEM_IUPAC_INCHI>
InChI=1S/C16H16O4/c1-16(2)8-7-10-13(17)9-5-4-6-11(19-3)12(9)14(18)15(10)20-16/h4-6H,7-8H2,1-3H3

> <PUBCHEM_IUPAC_INCHIKEY>
PZZDIQYEWIHAEX-UHFFFAOYSA-N

> <PUBCHEM_XLOGP3_AA>
2.6

> <PUBCHEM_EXACT_MASS>
272.104859

> <PUBCHEM_MOLECULAR_FORMULA>
C16H16O4

> <PUBCHEM_MOLECULAR_WEIGHT>
272.29584

> <PUBCHEM_OPENEYE_CAN_SMILES>
CC1(CCC2=C(O1)C(=O)C3=C(C2=O)C=CC=C3OC)C

> <PUBCHEM_OPENEYE_ISO_SMILES>
CC1(CCC2=C(O1)C(=O)C3=C(C2=O)C=CC=C3OC)C

> <PUBCHEM_CACTVS_TPSA>
52.6

> <PUBCHEM_MONOISOTOPIC_WEIGHT>
272.104859

> <PUBCHEM_TOTAL_CHARGE>
0

> <PUBCHEM_HEAVY_ATOM_COUNT>
20

> <PUBCHEM_ATOM_DEF_STEREO_COUNT>
0

> <PUBCHEM_ATOM_UDEF_STEREO_COUNT>
0

> <PUBCHEM_BOND_DEF_STEREO_COUNT>
0

> <PUBCHEM_BOND_UDEF_STEREO_COUNT>
0

> <PUBCHEM_ISOTOPIC_ATOM_COUNT>
0

> <PUBCHEM_COMPONENT_COUNT>
1

> <PUBCHEM_CACTVS_TAUTO_COUNT>
7

> <PUBCHEM_COORDINATE_TYPE>
1
5
255

> <PUBCHEM_BONDANNOTATIONS>
14  15  8
14  17  8
15  16  8
16  18  8
17  19  8
18  19  8

$$$$

