73110
  -OEChem-07051213153D

 60 66  0     1  0  0  0  0  0999 V2000
    0.8729    4.6415    0.1665 Cl  0  0  0  0  0  0  0  0  0  0  0  0
    3.4960   -2.6954    0.1292 Cl  0  0  0  0  0  0  0  0  0  0  0  0
    1.8677    1.0813   -1.0736 O   0  0  0  0  0  0  0  0  0  0  0  0
    1.5325    1.6327    2.5410 O   0  0  0  0  0  0  0  0  0  0  0  0
    5.3754    0.6082   -0.1361 O   0  0  0  0  0  0  0  0  0  0  0  0
    3.9214    0.0158    2.3327 O   0  0  0  0  0  0  0  0  0  0  0  0
    3.0109    1.3916   -3.5483 O   0  0  0  0  0  0  0  0  0  0  0  0
   -5.5672    0.6065   -0.0996 O   0  0  0  0  0  0  0  0  0  0  0  0
   -4.0115   -3.7383   -0.1271 O   0  0  0  0  0  0  0  0  0  0  0  0
   -0.1527    1.5714    0.0868 N   0  0  0  0  0  0  0  0  0  0  0  0
    0.7857   -1.0493    0.0724 N   0  0  0  0  0  0  0  0  0  0  0  0
   -5.1567   -1.6973   -0.1261 N   0  0  0  0  0  0  0  0  0  0  0  0
    1.3603    1.6576    0.1343 C   0  0  1  0  0  0  0  0  0  0  0  0
    1.9374    0.9378    1.3615 C   0  0  1  0  0  0  0  0  0  0  0  0
    3.4666    0.9043    1.3103 C   0  0  2  0  0  0  0  0  0  0  0  0
    3.9662    0.4152   -0.0495 C   0  0  1  0  0  0  0  0  0  0  0  0
   -1.0126    0.5288    0.0426 C   0  0  0  0  0  0  0  0  0  0  0  0
    3.2877    1.1873   -1.1842 C   0  0  1  0  0  0  0  0  0  0  0  0
   -2.4369    0.6998    0.0007 C   0  0  0  0  0  0  0  0  0  0  0  0
   -1.0368    2.6399    0.0763 C   0  0  0  0  0  0  0  0  0  0  0  0
   -0.5407   -0.7890    0.0350 C   0  0  0  0  0  0  0  0  0  0  0  0
   -2.3921    2.1688    0.0263 C   0  0  0  0  0  0  0  0  0  0  0  0
   -1.5330   -1.8248   -0.0141 C   0  0  0  0  0  0  0  0  0  0  0  0
   -3.3791   -0.3236   -0.0461 C   0  0  0  0  0  0  0  0  0  0  0  0
   -2.9109   -1.6313   -0.0541 C   0  0  0  0  0  0  0  0  0  0  0  0
    3.6812    0.6403   -2.5528 C   0  0  0  0  0  0  0  0  0  0  0  0
   -0.5660   -2.9317   -0.0030 C   0  0  0  0  0  0  0  0  0  0  0  0
   -0.7315    4.0090    0.1075 C   0  0  0  0  0  0  0  0  0  0  0  0
    0.7804   -2.4360    0.0481 C   0  0  0  0  0  0  0  0  0  0  0  0
   -3.4157    3.1470    0.0103 C   0  0  0  0  0  0  0  0  0  0  0  0
   -4.8305   -0.3595   -0.0926 C   0  0  0  0  0  0  0  0  0  0  0  0
   -4.0553   -2.5244   -0.1061 C   0  0  0  0  0  0  0  0  0  0  0  0
   -1.7780    4.9319    0.0896 C   0  0  0  0  0  0  0  0  0  0  0  0
   -3.1001    4.5096    0.0419 C   0  0  0  0  0  0  0  0  0  0  0  0
   -0.7363   -4.3370   -0.0330 C   0  0  0  0  0  0  0  0  0  0  0  0
    1.8854   -3.3007    0.0678 C   0  0  0  0  0  0  0  0  0  0  0  0
    6.0814   -0.4200    0.5420 C   0  0  0  0  0  0  0  0  0  0  0  0
    0.3725   -5.1899   -0.0132 C   0  0  0  0  0  0  0  0  0  0  0  0
    1.6624   -4.6777    0.0365 C   0  0  0  0  0  0  0  0  0  0  0  0
    1.7119    2.6579    0.1613 H   0  0  0  0  0  0  0  0  0  0  0  0
    1.6007   -0.0475    1.6452 H   0  0  0  0  0  0  0  0  0  0  0  0
    3.8901    1.8867    1.5502 H   0  0  0  0  0  0  0  0  0  0  0  0
    3.7379   -0.5947   -0.2421 H   0  0  0  0  0  0  0  0  0  0  0  0
    3.5637    2.2502   -1.1539 H   0  0  0  0  0  0  0  0  0  0  0  0
    4.7596    0.7157   -2.7214 H   0  0  0  0  0  0  0  0  0  0  0  0
    3.3701   -0.4043   -2.6602 H   0  0  0  0  0  0  0  0  0  0  0  0
    1.5699   -0.4983   -0.2091 H   0  0  0  0  0  0  0  0  0  0  0  0
    1.8398    2.5525    2.4692 H   0  0  0  0  0  0  0  0  0  0  0  0
   -4.4604    2.8554   -0.0270 H   0  0  0  0  0  0  0  0  0  0  0  0
    3.6012   -0.8778    2.1204 H   0  0  0  0  0  0  0  0  0  0  0  0
   -6.1107   -2.0387   -0.1625 H   0  0  0  0  0  0  0  0  0  0  0  0
   -1.5739    6.0004    0.1128 H   0  0  0  0  0  0  0  0  0  0  0  0
   -3.9009    5.2443    0.0287 H   0  0  0  0  0  0  0  0  0  0  0  0
   -1.7287   -4.7744   -0.0720 H   0  0  0  0  0  0  0  0  0  0  0  0
    7.1425   -0.2706    0.3139 H   0  0  0  0  0  0  0  0  0  0  0  0
    5.8306   -1.4112    0.1672 H   0  0  0  0  0  0  0  0  0  0  0  0
    6.0035   -0.3559    1.6265 H   0  0  0  0  0  0  0  0  0  0  0  0
    3.2716    1.0238   -4.4098 H   0  0  0  0  0  0  0  0  0  0  0  0
    0.2200   -6.2657   -0.0370 H   0  0  0  0  0  0  0  0  0  0  0  0
    2.5012   -5.3702    0.0508 H   0  0  0  0  0  0  0  0  0  0  0  0
  1 28  1  0  0  0  0
  2 36  1  0  0  0  0
  3 13  1  0  0  0  0
  3 18  1  0  0  0  0
  4 14  1  0  0  0  0
  4 48  1  0  0  0  0
  5 16  1  0  0  0  0
  5 37  1  0  0  0  0
  6 15  1  0  0  0  0
  6 50  1  0  0  0  0
  7 26  1  0  0  0  0
  7 58  1  0  0  0  0
  8 31  2  0  0  0  0
  9 32  2  0  0  0  0
 10 13  1  0  0  0  0
 10 17  1  0  0  0  0
 10 20  1  0  0  0  0
 11 21  1  0  0  0  0
 11 29  1  0  0  0  0
 11 47  1  0  0  0  0
 12 31  1  0  0  0  0
 12 32  1  0  0  0  0
 12 51  1  0  0  0  0
 13 14  1  0  0  0  0
 13 40  1  0  0  0  0
 14 15  1  0  0  0  0
 14 41  1  0  0  0  0
 15 16  1  0  0  0  0
 15 42  1  0  0  0  0
 16 18  1  0  0  0  0
 16 43  1  0  0  0  0
 17 19  1  0  0  0  0
 17 21  2  0  0  0  0
 18 26  1  0  0  0  0
 18 44  1  0  0  0  0
 19 22  1  0  0  0  0
 19 24  2  0  0  0  0
 20 22  2  0  0  0  0
 20 28  1  0  0  0  0
 21 23  1  0  0  0  0
 22 30  1  0  0  0  0
 23 25  2  0  0  0  0
 23 27  1  0  0  0  0
 24 25  1  0  0  0  0
 24 31  1  0  0  0  0
 25 32  1  0  0  0  0
 26 45  1  0  0  0  0
 26 46  1  0  0  0  0
 27 29  2  0  0  0  0
 27 35  1  0  0  0  0
 28 33  2  0  0  0  0
 29 36  1  0  0  0  0
 30 34  2  0  0  0  0
 30 49  1  0  0  0  0
 33 34  1  0  0  0  0
 33 52  1  0  0  0  0
 34 53  1  0  0  0  0
 35 38  2  0  0  0  0
 35 54  1  0  0  0  0
 36 39  2  0  0  0  0
 37 55  1  0  0  0  0
 37 56  1  0  0  0  0
 37 57  1  0  0  0  0
 38 39  1  0  0  0  0
 38 59  1  0  0  0  0
 39 60  1  0  0  0  0
M  END
> <PUBCHEM_COMPOUND_CID>
73110

> <PUBCHEM_CONFORMER_RMSD>
0.8

> <PUBCHEM_CONFORMER_DIVERSEORDER>
2

> <PUBCHEM_MMFF94_PARTIAL_CHARGES>
48
1 -0.18
10 -0.04
11 -0.05
12 -0.49
13 0.54
14 0.28
15 0.28
16 0.28
17 -0.05
18 0.28
19 -0.01
2 -0.18
20 -0.15
21 -0.05
23 -0.01
24 0.09
25 0.09
26 0.28
28 0.18
29 -0.15
3 -0.56
30 -0.15
31 0.54
32 0.54
33 -0.15
34 -0.15
35 -0.15
36 0.18
37 0.28
38 -0.15
39 -0.15
4 -0.68
47 0.27
48 0.4
49 0.15
5 -0.56
50 0.4
51 0.37
52 0.15
53 0.15
54 0.15
58 0.4
59 0.15
6 -0.68
60 0.15
7 -0.68
8 -0.57
9 -0.57

> <PUBCHEM_EFFECTIVE_ROTOR_COUNT>
4.4

> <PUBCHEM_PHARMACOPHORE_FEATURES>
21
1 10 cation
1 11 cation
1 11 donor
1 12 donor
1 3 acceptor
1 4 acceptor
1 4 donor
1 5 acceptor
1 6 acceptor
1 6 donor
1 7 acceptor
1 7 donor
1 8 acceptor
1 9 acceptor
5 10 17 19 20 22 rings
5 11 21 23 27 29 rings
5 12 24 25 31 32 rings
6 17 19 21 23 24 25 rings
6 20 22 28 30 33 34 rings
6 27 29 35 36 38 39 rings
6 3 13 14 15 16 18 rings

> <PUBCHEM_HEAVY_ATOM_COUNT>
39

> <PUBCHEM_ATOM_DEF_STEREO_COUNT>
5

> <PUBCHEM_ATOM_UDEF_STEREO_COUNT>
0

> <PUBCHEM_BOND_DEF_STEREO_COUNT>
0

> <PUBCHEM_BOND_UDEF_STEREO_COUNT>
0

> <PUBCHEM_ISOTOPIC_ATOM_COUNT>
0

> <PUBCHEM_COMPONENT_COUNT>
1

> <PUBCHEM_CACTVS_TAUTO_COUNT>
21

> <PUBCHEM_CONFORMER_ID>
00011D9600000002

> <PUBCHEM_MMFF94_ENERGY>
197.4621

> <PUBCHEM_FEATURE_SELFOVERLAP>
107.042

> <PUBCHEM_SHAPE_FINGERPRINT>
10190108 129 18121466203854544825
1100329 8 18050569538838778683
11582403 64 16882214370391966936
12422481 6 17697334159079878594
12788726 201 18197479767298307812
13140716 1 18051137981949610427
13617811 41 18413106148184017549
13911987 19 18270400478058699941
14394314 77 18337952294435937360
144659 178 18340204094660644076
14725015 67 18335705992153575249
14790565 3 18267297638991841305
14955137 171 18125154940548352939
15320467 1 18410295813041624914
15439362 3 17619355745944536860
15927050 60 18119813770246503471
16112460 7 17902491715662699329
19591789 44 18122626055182865103
20028762 73 17827921724745280487
20600515 1 18045786675952873184
20642791 178 18055055821453300702
20764821 26 18267305520129819709
20775438 99 17395016448525936991
20905425 154 18262233434088400190
21796203 349 17839148880524208681
22311459 1 18410577293199980793
23559900 14 18267872868161796879
3178227 256 18124298425638814699
338550 245 18270394009589960324
350125 39 18337954605143952403
463206 1 18268993081278952838
469060 322 18337659867751662377
5265222 85 18409442601742496476
9961470 85 17905901627132122464

> <PUBCHEM_SHAPE_MULTIPOLES>
750.31
9.25
7.33
1.43
1.26
2.19
0.69
-0.48
0.23
-3.54
-0.06
2.37
-1.14
-0.6

> <PUBCHEM_SHAPE_SELFOVERLAP>
1694.858

> <PUBCHEM_SHAPE_VOLUME>
394.2

> <PUBCHEM_COORDINATE_TYPE>
2
5
10

$$$$

