17396382
  -OEChem-06241222562D

 43 45  0     0  0  0  0  0  0999 V2000
    4.6456   -0.8963    0.0000 S   0  0  0  0  0  0  0  0  0  0  0  0
    2.8660   -4.9896    0.0000 S   0  0  0  0  0  0  0  0  0  0  0  0
    3.0934    1.1740    0.0000 O   0  0  0  0  0  0  0  0  0  0  0  0
    6.3092   -0.2577    0.0000 O   0  0  0  0  0  0  0  0  0  0  0  0
    8.2050    1.9400    0.0000 O   0  0  0  0  0  0  0  0  0  0  0  0
    4.8147    0.7128    0.0000 N   0  0  0  0  0  0  0  0  0  0  0  0
    6.6227    2.6444    0.0000 N   0  0  0  0  0  0  0  0  0  0  0  0
    7.4362    4.4715    0.0000 N   0  0  0  0  0  0  0  0  0  0  0  0
    9.4252    4.6806    0.0000 N   0  0  0  0  0  0  0  0  0  0  0  0
    5.2215    1.6264    0.0000 C   0  0  0  0  0  0  0  0  0  0  0  0
    6.2160    1.7309    0.0000 C   0  0  0  0  0  0  0  0  0  0  0  0
    3.8366    0.5049    0.0000 C   0  0  0  0  0  0  0  0  0  0  0  0
    3.7320   -0.4896    0.0000 C   0  0  0  0  0  0  0  0  0  0  0  0
    5.3147   -0.1532    0.0000 C   0  0  0  0  0  0  0  0  0  0  0  0
    2.8660   -0.9896    0.0000 C   0  0  0  0  0  0  0  0  0  0  0  0
    2.8660   -1.9896    0.0000 C   0  0  0  0  0  0  0  0  0  0  0  0
    7.6172    2.7490    0.0000 C   0  0  0  0  0  0  0  0  0  0  0  0
    2.0000   -2.4896    0.0000 C   0  0  0  0  0  0  0  0  0  0  0  0
    3.7320   -2.4896    0.0000 C   0  0  0  0  0  0  0  0  0  0  0  0
    2.0000   -3.4896    0.0000 C   0  0  0  0  0  0  0  0  0  0  0  0
    3.7320   -3.4896    0.0000 C   0  0  0  0  0  0  0  0  0  0  0  0
    2.8660   -3.9896    0.0000 C   0  0  0  0  0  0  0  0  0  0  0  0
    8.0240    3.6625    0.0000 C   0  0  0  0  0  0  0  0  0  0  0  0
    9.0185    3.7670    0.0000 C   0  0  0  0  0  0  0  0  0  0  0  0
    7.8429    5.3851    0.0000 C   0  0  0  0  0  0  0  0  0  0  0  0
    2.0000   -5.4896    0.0000 C   0  0  0  0  0  0  0  0  0  0  0  0
    8.8374    5.4896    0.0000 C   0  0  0  0  0  0  0  0  0  0  0  0
    5.2647    2.2449    0.0000 H   0  0  0  0  0  0  0  0  0  0  0  0
    4.6199    1.7764    0.0000 H   0  0  0  0  0  0  0  0  0  0  0  0
    6.1727    1.1124    0.0000 H   0  0  0  0  0  0  0  0  0  0  0  0
    6.8176    1.5809    0.0000 H   0  0  0  0  0  0  0  0  0  0  0  0
    6.2583    3.1460    0.0000 H   0  0  0  0  0  0  0  0  0  0  0  0
    2.3291   -0.6796    0.0000 H   0  0  0  0  0  0  0  0  0  0  0  0
    1.4631   -2.1796    0.0000 H   0  0  0  0  0  0  0  0  0  0  0  0
    4.2690   -2.1796    0.0000 H   0  0  0  0  0  0  0  0  0  0  0  0
    1.4631   -3.7996    0.0000 H   0  0  0  0  0  0  0  0  0  0  0  0
    4.2690   -3.7996    0.0000 H   0  0  0  0  0  0  0  0  0  0  0  0
    9.3829    3.2655    0.0000 H   0  0  0  0  0  0  0  0  0  0  0  0
    7.4785    5.8867    0.0000 H   0  0  0  0  0  0  0  0  0  0  0  0
    1.6900   -4.9527    0.0000 H   0  0  0  0  0  0  0  0  0  0  0  0
    1.4631   -5.7996    0.0000 H   0  0  0  0  0  0  0  0  0  0  0  0
    2.3100   -6.0265    0.0000 H   0  0  0  0  0  0  0  0  0  0  0  0
    9.0896    6.0560    0.0000 H   0  0  0  0  0  0  0  0  0  0  0  0
  1 13  1  0  0  0  0
  1 14  1  0  0  0  0
  2 22  1  0  0  0  0
  2 26  1  0  0  0  0
  3 12  2  0  0  0  0
  4 14  2  0  0  0  0
  5 17  2  0  0  0  0
  6 10  1  0  0  0  0
  6 12  1  0  0  0  0
  6 14  1  0  0  0  0
  7 11  1  0  0  0  0
  7 17  1  0  0  0  0
  7 32  1  0  0  0  0
  8 23  2  0  0  0  0
  8 25  1  0  0  0  0
  9 24  2  0  0  0  0
  9 27  1  0  0  0  0
 10 11  1  0  0  0  0
 10 28  1  0  0  0  0
 10 29  1  0  0  0  0
 11 30  1  0  0  0  0
 11 31  1  0  0  0  0
 12 13  1  0  0  0  0
 13 15  2  0  0  0  0
 15 16  1  0  0  0  0
 15 33  1  0  0  0  0
 16 18  2  0  0  0  0
 16 19  1  0  0  0  0
 17 23  1  0  0  0  0
 18 20  1  0  0  0  0
 18 34  1  0  0  0  0
 19 21  2  0  0  0  0
 19 35  1  0  0  0  0
 20 22  2  0  0  0  0
 20 36  1  0  0  0  0
 21 22  1  0  0  0  0
 21 37  1  0  0  0  0
 23 24  1  0  0  0  0
 24 38  1  0  0  0  0
 25 27  2  0  0  0  0
 25 39  1  0  0  0  0
 26 40  1  0  0  0  0
 26 41  1  0  0  0  0
 26 42  1  0  0  0  0
 27 43  1  0  0  0  0
M  END
> <PUBCHEM_COMPOUND_CID>
17396382

> <PUBCHEM_COMPOUND_CANONICALIZED>
1

> <PUBCHEM_CACTVS_COMPLEXITY>
605

> <PUBCHEM_CACTVS_HBOND_ACCEPTOR>
7

> <PUBCHEM_CACTVS_HBOND_DONOR>
1

> <PUBCHEM_CACTVS_ROTATABLE_BOND>
6

> <PUBCHEM_CACTVS_SUBSKEYS>
AAADceB7sABgAAAAAAAAAAAAAAAAAWAAAAA8QAAAAAAAAAABwAAAHgQQAAAADAjB3gS+gZPIEAioAzV3VACCgCR3GjAI2Jm4dMgIYGrgUTCUIIggliDIiccAgAAOEAAAAAAAAAAgAAAAAAAAAAAAAAAAAA==

> <PUBCHEM_IUPAC_OPENEYE_NAME>
N-[2-[(5Z)-5-[(4-methylsulfanylphenyl)methylene]-2,4-dioxo-thiazolidin-3-yl]ethyl]pyrazine-2-carboxamide

> <PUBCHEM_IUPAC_CAS_NAME>
N-[2-[(5Z)-5-[[4-(methylthio)phenyl]methylidene]-2,4-dioxo-3-thiazolidinyl]ethyl]-2-pyrazinecarboxamide

> <PUBCHEM_IUPAC_NAME>
N-[2-[(5Z)-5-[(4-methylsulfanylphenyl)methylidene]-2,4-dioxo-1,3-thiazolidin-3-yl]ethyl]pyrazine-2-carboxamide

> <PUBCHEM_IUPAC_SYSTEMATIC_NAME>
N-[2-[(5Z)-5-[(4-methylsulfanylphenyl)methylidene]-2,4-bis(oxidanylidene)-1,3-thiazolidin-3-yl]ethyl]pyrazine-2-carboxamide

> <PUBCHEM_IUPAC_TRADITIONAL_NAME>
N-[2-[(5Z)-2,4-diketo-5-[4-(methylthio)benzylidene]thiazolidin-3-yl]ethyl]pyrazinamide

> <PUBCHEM_IUPAC_INCHI>
InChI=1S/C18H16N4O3S2/c1-26-13-4-2-12(3-5-13)10-15-17(24)22(18(25)27-15)9-8-21-16(23)14-11-19-6-7-20-14/h2-7,10-11H,8-9H2,1H3,(H,21,23)/b15-10-

> <PUBCHEM_IUPAC_INCHIKEY>
ZAAZAKXCVJPUTF-GDNBJRDFSA-N

> <PUBCHEM_XLOGP3_AA>
2.1

> <PUBCHEM_EXACT_MASS>
400.066382

> <PUBCHEM_MOLECULAR_FORMULA>
C18H16N4O3S2

> <PUBCHEM_MOLECULAR_WEIGHT>
400.47464

> <PUBCHEM_OPENEYE_CAN_SMILES>
CSC1=CC=C(C=C1)C=C2C(=O)N(C(=O)S2)CCNC(=O)C3=NC=CN=C3

> <PUBCHEM_OPENEYE_ISO_SMILES>
CSC1=CC=C(C=C1)/C=C\2/C(=O)N(C(=O)S2)CCNC(=O)C3=NC=CN=C3

> <PUBCHEM_CACTVS_TPSA>
143

> <PUBCHEM_MONOISOTOPIC_WEIGHT>
400.066382

> <PUBCHEM_TOTAL_CHARGE>
0

> <PUBCHEM_HEAVY_ATOM_COUNT>
27

> <PUBCHEM_ATOM_DEF_STEREO_COUNT>
0

> <PUBCHEM_ATOM_UDEF_STEREO_COUNT>
0

> <PUBCHEM_BOND_DEF_STEREO_COUNT>
1

> <PUBCHEM_BOND_UDEF_STEREO_COUNT>
0

> <PUBCHEM_ISOTOPIC_ATOM_COUNT>
0

> <PUBCHEM_COMPONENT_COUNT>
1

> <PUBCHEM_CACTVS_TAUTO_COUNT>
2

> <PUBCHEM_COORDINATE_TYPE>
1
5
255

> <PUBCHEM_BONDANNOTATIONS>
16  18  8
16  19  8
18  20  8
19  21  8
20  22  8
21  22  8
23  24  8
25  27  8
8  23  8
8  25  8
9  24  8
9  27  8

$$$$

