14007
  -OEChem-06241222412D

 55 58  0     0  0  0  0  0  0999 V2000
    6.3301    2.4263    0.0000 S   0  0  0  0  0  0  0  0  0  0  0  0
   11.5923    2.4504    0.0000 S   0  0  0  0  0  0  0  0  0  0  0  0
    9.8106   -0.6083    0.0000 O   0  0  0  0  0  0  0  0  0  0  0  0
    5.4641    2.9263    0.0000 O   0  0  0  0  0  0  0  0  0  0  0  0
   12.4564    2.9537    0.0000 O   0  0  0  0  0  0  0  0  0  0  0  0
    5.8301    1.5602    0.0000 O   0  0  0  0  0  0  0  0  0  0  0  0
    6.8301    3.2923    0.0000 O   0  0  0  0  0  0  0  0  0  0  0  0
   12.0956    1.5863    0.0000 O   0  0  0  0  0  0  0  0  0  0  0  0
   11.0890    3.3145    0.0000 O   0  0  0  0  0  0  0  0  0  0  0  0
    2.8660   -3.5737    0.0000 O   0  5  0  0  0  0  0  0  0  0  0  0
    2.0000   -2.0737    0.0000 O   0  0  0  0  0  0  0  0  0  0  0  0
    6.3301    0.4263    0.0000 N   0  0  0  0  0  0  0  0  0  0  0  0
   11.5923    0.4021    0.0000 N   0  0  0  0  0  0  0  0  0  0  0  0
    8.0622   -0.5737    0.0000 N   0  0  0  0  0  0  0  0  0  0  0  0
    6.3301   -0.5737    0.0000 N   0  0  0  0  0  0  0  0  0  0  0  0
   11.5884   -0.5979    0.0000 N   0  0  0  0  0  0  0  0  0  0  0  0
    2.8660   -2.5737    0.0000 N   0  3  0  0  0  0  0  0  0  0  0  0
    8.9282    1.9263    0.0000 C   0  0  0  0  0  0  0  0  0  0  0  0
    8.9282    0.9263    0.0000 C   0  0  0  0  0  0  0  0  0  0  0  0
    7.1962    1.9263    0.0000 C   0  0  0  0  0  0  0  0  0  0  0  0
   10.7282    1.9471    0.0000 C   0  0  0  0  0  0  0  0  0  0  0  0
    8.0622    2.4263    0.0000 C   0  0  0  0  0  0  0  0  0  0  0  0
    8.0622    0.4263    0.0000 C   0  0  0  0  0  0  0  0  0  0  0  0
    9.8221    2.4609    0.0000 C   0  0  0  0  0  0  0  0  0  0  0  0
    7.1962    0.9263    0.0000 C   0  0  0  0  0  0  0  0  0  0  0  0
    9.8221    0.3916    0.0000 C   0  0  0  0  0  0  0  0  0  0  0  0
   10.7282    0.9054    0.0000 C   0  0  0  0  0  0  0  0  0  0  0  0
    5.4641   -1.0737    0.0000 C   0  0  0  0  0  0  0  0  0  0  0  0
   12.4525   -1.1012    0.0000 C   0  0  0  0  0  0  0  0  0  0  0  0
    5.4641   -2.0737    0.0000 C   0  0  0  0  0  0  0  0  0  0  0  0
    4.5981   -0.5737    0.0000 C   0  0  0  0  0  0  0  0  0  0  0  0
    4.5981   -2.5737    0.0000 C   0  0  0  0  0  0  0  0  0  0  0  0
    3.7321   -1.0737    0.0000 C   0  0  0  0  0  0  0  0  0  0  0  0
    3.7321   -2.0737    0.0000 C   0  0  0  0  0  0  0  0  0  0  0  0
   13.3205   -0.6046    0.0000 C   0  0  0  0  0  0  0  0  0  0  0  0
   12.4487   -2.1012    0.0000 C   0  0  0  0  0  0  0  0  0  0  0  0
   14.1846   -1.1079    0.0000 C   0  0  0  0  0  0  0  0  0  0  0  0
   13.3128   -2.6045    0.0000 C   0  0  0  0  0  0  0  0  0  0  0  0
   14.1807   -2.1079    0.0000 C   0  0  0  0  0  0  0  0  0  0  0  0
    8.0622    3.0463    0.0000 H   0  0  0  0  0  0  0  0  0  0  0  0
    9.8150    3.0809    0.0000 H   0  0  0  0  0  0  0  0  0  0  0  0
    7.5252   -0.8837    0.0000 H   0  0  0  0  0  0  0  0  0  0  0  0
    6.8671   -0.8837    0.0000 H   0  0  0  0  0  0  0  0  0  0  0  0
   11.0503   -0.9058    0.0000 H   0  0  0  0  0  0  0  0  0  0  0  0
    5.4641    3.5463    0.0000 H   0  0  0  0  0  0  0  0  0  0  0  0
   12.4540    3.5737    0.0000 H   0  0  0  0  0  0  0  0  0  0  0  0
    6.0010   -2.3837    0.0000 H   0  0  0  0  0  0  0  0  0  0  0  0
    4.5981    0.0463    0.0000 H   0  0  0  0  0  0  0  0  0  0  0  0
    4.5981   -3.1937    0.0000 H   0  0  0  0  0  0  0  0  0  0  0  0
    3.1951   -0.7637    0.0000 H   0  0  0  0  0  0  0  0  0  0  0  0
   13.3229    0.0154    0.0000 H   0  0  0  0  0  0  0  0  0  0  0  0
   11.9106   -2.4091    0.0000 H   0  0  0  0  0  0  0  0  0  0  0  0
   14.7227   -0.8000    0.0000 H   0  0  0  0  0  0  0  0  0  0  0  0
   13.3104   -3.2245    0.0000 H   0  0  0  0  0  0  0  0  0  0  0  0
   14.7165   -2.4200    0.0000 H   0  0  0  0  0  0  0  0  0  0  0  0
  1  4  1  0  0  0  0
  1  6  2  0  0  0  0
  1  7  2  0  0  0  0
  1 20  1  0  0  0  0
  2  5  1  0  0  0  0
  2  8  2  0  0  0  0
  2  9  2  0  0  0  0
  2 21  1  0  0  0  0
  3 26  2  0  0  0  0
  4 45  1  0  0  0  0
  5 46  1  0  0  0  0
 10 17  1  0  0  0  0
 11 17  2  0  0  0  0
 12 15  1  0  0  0  0
 12 25  2  3  0  0  0
 13 16  1  0  0  0  0
 13 27  2  3  0  0  0
 14 23  2  0  0  0  0
 14 42  1  0  0  0  0
 15 28  1  0  0  0  0
 15 43  1  0  0  0  0
 16 29  1  0  0  0  0
 16 44  1  0  0  0  0
 17 34  1  0  0  0  0
 18 19  2  0  0  0  0
 18 22  1  0  0  0  0
 18 24  1  0  0  0  0
 19 23  1  0  0  0  0
 19 26  1  0  0  0  0
 20 22  2  0  0  0  0
 20 25  1  0  0  0  0
 21 24  2  0  0  0  0
 21 27  1  0  0  0  0
 22 40  1  0  0  0  0
 23 25  1  0  0  0  0
 24 41  1  0  0  0  0
 26 27  1  0  0  0  0
 28 30  2  0  0  0  0
 28 31  1  0  0  0  0
 29 35  2  0  0  0  0
 29 36  1  0  0  0  0
 30 32  1  0  0  0  0
 30 47  1  0  0  0  0
 31 33  2  0  0  0  0
 31 48  1  0  0  0  0
 32 34  2  0  0  0  0
 32 49  1  0  0  0  0
 33 34  1  0  0  0  0
 33 50  1  0  0  0  0
 35 37  1  0  0  0  0
 35 51  1  0  0  0  0
 36 38  2  0  0  0  0
 36 52  1  0  0  0  0
 37 39  2  0  0  0  0
 37 53  1  0  0  0  0
 38 39  1  0  0  0  0
 38 54  1  0  0  0  0
 39 55  1  0  0  0  0
M  CHG  2  10  -1  17   1
M  END
> <PUBCHEM_COMPOUND_CID>
14007

> <PUBCHEM_COMPOUND_CANONICALIZED>
1

> <PUBCHEM_CACTVS_COMPLEXITY>
1440

> <PUBCHEM_CACTVS_HBOND_ACCEPTOR>
14

> <PUBCHEM_CACTVS_HBOND_DONOR>
5

> <PUBCHEM_CACTVS_ROTATABLE_BOND>
6

> <PUBCHEM_CACTVS_SUBSKEYS>
AAADceB7vABgAAAAAAAAAAAAAAAAAAAAAAAwYIEAAAAAAACBQAAAHgQcCAAADAyB0AAwwIByQIKpA6RyQ3DSBAAgAgA4iAEgZNoIIDKAkZGAIABgmAAIyQcYgAAAAACAAAAAAAAAAQAAAAAAAAAAAAAAAA==

> <PUBCHEM_IUPAC_OPENEYE_NAME>
4-imino-3-[(4-nitrophenyl)hydrazono]-5-oxo-6-(phenylhydrazono)naphthalene-2,7-disulfonic acid

> <PUBCHEM_IUPAC_CAS_NAME>
4-imino-3-[(4-nitrophenyl)hydrazinylidene]-5-oxo-6-(phenylhydrazinylidene)naphthalene-2,7-disulfonic acid

> <PUBCHEM_IUPAC_NAME>
4-imino-3-[(4-nitrophenyl)hydrazinylidene]-5-oxo-6-(phenylhydrazinylidene)naphthalene-2,7-disulfonic acid

> <PUBCHEM_IUPAC_SYSTEMATIC_NAME>
4-azanylidene-3-[(4-nitrophenyl)hydrazinylidene]-5-oxidanylidene-6-(phenylhydrazinylidene)naphthalene-2,7-disulfonic acid

> <PUBCHEM_IUPAC_TRADITIONAL_NAME>
4-imino-5-keto-3-[(4-nitrophenyl)hydrazono]-6-(phenylhydrazono)naphthalene-2,7-disulfonic acid

> <PUBCHEM_IUPAC_INCHI>
InChI=1S/C22H16N6O9S2/c23-19-18-12(11-17(39(35,36)37)21(22(18)29)27-24-13-4-2-1-3-5-13)10-16(38(32,33)34)20(19)26-25-14-6-8-15(9-7-14)28(30)31/h1-11,23-25H,(H,32,33,34)(H,35,36,37)

> <PUBCHEM_IUPAC_INCHIKEY>
SJKYEOAJEUYKOJ-UHFFFAOYSA-N

> <PUBCHEM_XLOGP3_AA>
1.8

> <PUBCHEM_EXACT_MASS>
572.042018

> <PUBCHEM_MOLECULAR_FORMULA>
C22H16N6O9S2

> <PUBCHEM_MOLECULAR_WEIGHT>
572.52724

> <PUBCHEM_OPENEYE_CAN_SMILES>
C1=CC=C(C=C1)NN=C2C(=CC3=C(C2=O)C(=N)C(=NNC4=CC=C(C=C4)[N+](=O)[O-])C(=C3)S(=O)(=O)O)S(=O)(=O)O

> <PUBCHEM_OPENEYE_ISO_SMILES>
C1=CC=C(C=C1)NN=C2C(=CC3=C(C2=O)C(=N)C(=NNC4=CC=C(C=C4)[N+](=O)[O-])C(=C3)S(=O)(=O)O)S(=O)(=O)O

> <PUBCHEM_CACTVS_TPSA>
261

> <PUBCHEM_MONOISOTOPIC_WEIGHT>
572.042018

> <PUBCHEM_TOTAL_CHARGE>
0

> <PUBCHEM_HEAVY_ATOM_COUNT>
39

> <PUBCHEM_ATOM_DEF_STEREO_COUNT>
0

> <PUBCHEM_ATOM_UDEF_STEREO_COUNT>
0

> <PUBCHEM_BOND_DEF_STEREO_COUNT>
0

> <PUBCHEM_BOND_UDEF_STEREO_COUNT>
2

> <PUBCHEM_ISOTOPIC_ATOM_COUNT>
0

> <PUBCHEM_COMPONENT_COUNT>
1

> <PUBCHEM_CACTVS_TAUTO_COUNT>
1

> <PUBCHEM_COORDINATE_TYPE>
1
5
255

> <PUBCHEM_BONDANNOTATIONS>
12  25  1
13  27  1
18  22  8
18  24  8
19  23  8
19  26  8
20  22  8
20  25  8
21  24  8
21  27  8
23  25  8
26  27  8
28  30  8
28  31  8
29  35  8
29  36  8
30  32  8
31  33  8
32  34  8
33  34  8
35  37  8
36  38  8
37  39  8
38  39  8

$$$$

