46173970
  -OEChem-07051213103D

 58 62  0     1  0  0  0  0  0999 V2000
   -0.7104   -1.2301   -1.3581 O   0  0  0  0  0  0  0  0  0  0  0  0
    1.1073   -1.2409    1.7196 O   0  0  0  0  0  0  0  0  0  0  0  0
   -2.3940    1.4836    1.5644 O   0  0  0  0  0  0  0  0  0  0  0  0
    0.7678   -0.5181   -3.0602 O   0  0  0  0  0  0  0  0  0  0  0  0
   -4.8834    0.3387    0.9821 O   0  0  0  0  0  0  0  0  0  0  0  0
    5.1210   -1.0001    1.7185 O   0  0  0  0  0  0  0  0  0  0  0  0
    0.5547   -0.6245    0.5738 C   0  0  2  0  0  0  0  0  0  0  0  0
    1.4643   -0.6504   -0.6635 C   0  0  1  0  0  0  0  0  0  0  0  0
    0.4104    0.8971    0.8247 C   0  0  2  0  0  0  0  0  0  0  0  0
   -0.6539    1.4779   -0.1564 C   0  0  2  0  0  0  0  0  0  0  0  0
   -0.7260   -1.3241    0.0846 C   0  0  1  0  0  0  0  0  0  0  0  0
   -2.0362    0.8697    0.3029 C   0  0  1  0  0  0  0  0  0  0  0  0
    0.3573   -0.3369   -1.7132 C   0  0  2  0  0  0  0  0  0  0  0  0
   -1.9936   -0.6544    0.6140 C   0  0  1  0  0  0  0  0  0  0  0  0
    2.4779    0.5088   -0.4654 C   0  0  1  0  0  0  0  0  0  0  0  0
   -0.2228    1.0898   -1.6027 C   0  0  0  0  0  0  0  0  0  0  0  0
    1.8455    1.4063    0.6160 C   0  0  0  0  0  0  0  0  0  0  0  0
   -3.2887   -1.2462   -0.0073 C   0  0  2  0  0  0  0  0  0  0  0  0
   -3.2431    1.0551   -0.6390 C   0  0  0  0  0  0  0  0  0  0  0  0
    2.1247   -2.0188   -0.9093 C   0  0  0  0  0  0  0  0  0  0  0  0
   -0.7139    3.0206   -0.0813 C   0  0  0  0  0  0  0  0  0  0  0  0
   -4.2166   -0.0448   -0.2118 C   0  0  2  0  0  0  0  0  0  0  0  0
    3.8935    0.1122   -0.0434 C   0  0  2  0  0  0  0  0  0  0  0  0
   -3.8774   -2.3696    0.8368 C   0  0  0  0  0  0  0  0  0  0  0  0
    3.9560   -0.2319    1.4475 C   0  0  0  0  0  0  0  0  0  0  0  0
    4.8794    1.2312   -0.3731 C   0  0  0  0  0  0  0  0  0  0  0  0
    0.1412    1.1075    1.8653 H   0  0  0  0  0  0  0  0  0  0  0  0
   -0.7261   -2.3888    0.3444 H   0  0  0  0  0  0  0  0  0  0  0  0
   -2.0182   -0.8172    1.7005 H   0  0  0  0  0  0  0  0  0  0  0  0
    2.5553    1.0580   -1.4122 H   0  0  0  0  0  0  0  0  0  0  0  0
    0.5290    1.7987   -1.9751 H   0  0  0  0  0  0  0  0  0  0  0  0
   -1.0590    1.2101   -2.2987 H   0  0  0  0  0  0  0  0  0  0  0  0
    2.3268    1.4198    1.5915 H   0  0  0  0  0  0  0  0  0  0  0  0
    1.8780    2.4502    0.2907 H   0  0  0  0  0  0  0  0  0  0  0  0
   -3.0688   -1.6598   -0.9999 H   0  0  0  0  0  0  0  0  0  0  0  0
   -3.6904    2.0485   -0.5292 H   0  0  0  0  0  0  0  0  0  0  0  0
   -2.9807    0.8925   -1.6866 H   0  0  0  0  0  0  0  0  0  0  0  0
    1.3769   -2.8013   -1.0800 H   0  0  0  0  0  0  0  0  0  0  0  0
    2.7303   -2.3532   -0.0620 H   0  0  0  0  0  0  0  0  0  0  0  0
    2.7586   -1.9903   -1.8022 H   0  0  0  0  0  0  0  0  0  0  0  0
   -0.8154    3.3700    0.9517 H   0  0  0  0  0  0  0  0  0  0  0  0
   -1.5662    3.4046   -0.6526 H   0  0  0  0  0  0  0  0  0  0  0  0
    0.1803    3.4955   -0.4968 H   0  0  0  0  0  0  0  0  0  0  0  0
   -4.9733   -0.2440   -0.9773 H   0  0  0  0  0  0  0  0  0  0  0  0
    4.2485   -0.7434   -0.6275 H   0  0  0  0  0  0  0  0  0  0  0  0
    0.4438   -1.1949    2.4288 H   0  0  0  0  0  0  0  0  0  0  0  0
   -1.7881    1.1810    2.2590 H   0  0  0  0  0  0  0  0  0  0  0  0
    0.1550   -0.0399   -3.6431 H   0  0  0  0  0  0  0  0  0  0  0  0
   -4.1015   -2.0380    1.8560 H   0  0  0  0  0  0  0  0  0  0  0  0
   -3.1773   -3.2087    0.9043 H   0  0  0  0  0  0  0  0  0  0  0  0
   -4.8059   -2.7394    0.3899 H   0  0  0  0  0  0  0  0  0  0  0  0
    3.1489   -0.8528    1.7943 H   0  0  0  0  0  0  0  0  0  0  0  0
    4.0443    0.6553    2.0810 H   0  0  0  0  0  0  0  0  0  0  0  0
    5.8999    0.9489   -0.0925 H   0  0  0  0  0  0  0  0  0  0  0  0
    4.8821    1.4469   -1.4471 H   0  0  0  0  0  0  0  0  0  0  0  0
    4.6315    2.1575    0.1561 H   0  0  0  0  0  0  0  0  0  0  0  0
   -5.4030    1.1362    0.7837 H   0  0  0  0  0  0  0  0  0  0  0  0
    5.1319   -1.1822    2.6738 H   0  0  0  0  0  0  0  0  0  0  0  0
  1 11  1  0  0  0  0
  1 13  1  0  0  0  0
  2  7  1  0  0  0  0
  2 46  1  0  0  0  0
  3 12  1  0  0  0  0
  3 47  1  0  0  0  0
  4 13  1  0  0  0  0
  4 48  1  0  0  0  0
  5 22  1  0  0  0  0
  5 57  1  0  0  0  0
  6 25  1  0  0  0  0
  6 58  1  0  0  0  0
  7  8  1  0  0  0  0
  7  9  1  0  0  0  0
  7 11  1  0  0  0  0
  8 13  1  0  0  0  0
  8 15  1  0  0  0  0
  8 20  1  0  0  0  0
  9 10  1  0  0  0  0
  9 17  1  0  0  0  0
  9 27  1  0  0  0  0
 10 12  1  0  0  0  0
 10 16  1  0  0  0  0
 10 21  1  0  0  0  0
 11 14  1  0  0  0  0
 11 28  1  0  0  0  0
 12 14  1  0  0  0  0
 12 19  1  0  0  0  0
 13 16  1  0  0  0  0
 14 18  1  0  0  0  0
 14 29  1  0  0  0  0
 15 17  1  0  0  0  0
 15 23  1  0  0  0  0
 15 30  1  0  0  0  0
 16 31  1  0  0  0  0
 16 32  1  0  0  0  0
 17 33  1  0  0  0  0
 17 34  1  0  0  0  0
 18 22  1  0  0  0  0
 18 24  1  0  0  0  0
 18 35  1  0  0  0  0
 19 22  1  0  0  0  0
 19 36  1  0  0  0  0
 19 37  1  0  0  0  0
 20 38  1  0  0  0  0
 20 39  1  0  0  0  0
 20 40  1  0  0  0  0
 21 41  1  0  0  0  0
 21 42  1  0  0  0  0
 21 43  1  0  0  0  0
 22 44  1  0  0  0  0
 23 25  1  0  0  0  0
 23 26  1  0  0  0  0
 23 45  1  0  0  0  0
 24 49  1  0  0  0  0
 24 50  1  0  0  0  0
 24 51  1  0  0  0  0
 25 52  1  0  0  0  0
 25 53  1  0  0  0  0
 26 54  1  0  0  0  0
 26 55  1  0  0  0  0
 26 56  1  0  0  0  0
M  END
> <PUBCHEM_COMPOUND_CID>
46173970

> <PUBCHEM_CONFORMER_RMSD>
0.8

> <PUBCHEM_CONFORMER_DIVERSEORDER>
1
2
3
4

> <PUBCHEM_MMFF94_PARTIAL_CHARGES>
17
1 -0.56
11 0.28
12 0.28
13 0.56
2 -0.68
22 0.28
25 0.28
3 -0.68
4 -0.68
46 0.4
47 0.4
48 0.4
5 -0.68
57 0.4
58 0.4
6 -0.68
7 0.28

> <PUBCHEM_EFFECTIVE_ROTOR_COUNT>
3.4

> <PUBCHEM_PHARMACOPHORE_FEATURES>
15
1 1 acceptor
1 2 acceptor
1 2 donor
1 26 hydrophobe
1 3 acceptor
1 3 donor
1 4 acceptor
1 4 donor
1 5 acceptor
1 5 donor
1 6 acceptor
1 6 donor
10 1 7 8 9 10 11 13 15 16 17 rings
5 12 14 18 19 22 rings
9 1 7 9 10 11 12 13 14 16 rings

> <PUBCHEM_HEAVY_ATOM_COUNT>
26

> <PUBCHEM_ATOM_DEF_STEREO_COUNT>
8

> <PUBCHEM_ATOM_UDEF_STEREO_COUNT>
4

> <PUBCHEM_BOND_DEF_STEREO_COUNT>
0

> <PUBCHEM_BOND_UDEF_STEREO_COUNT>
0

> <PUBCHEM_ISOTOPIC_ATOM_COUNT>
0

> <PUBCHEM_COMPONENT_COUNT>
1

> <PUBCHEM_CACTVS_TAUTO_COUNT>
1

> <PUBCHEM_CONFORMER_ID>
02C08F1200000001

> <PUBCHEM_MMFF94_ENERGY>
142.8236

> <PUBCHEM_FEATURE_SELFOVERLAP>
79.569

> <PUBCHEM_SHAPE_FINGERPRINT>
10863032 1 17968370276989250252
10906281 52 18188197797817032713
10948715 1 6483085058393754948
11132069 177 17530969059512882045
11578080 2 17559403658710598748
12011746 2 18260546718842752125
12236239 1 17489588961171787217
12403814 3 18187941576741263156
12592029 89 17967249806369715990
12633257 1 18409727378404612480
12788726 201 18341607148807773152
12969540 114 16081094783403235132
13132413 78 18201439147192701005
13140716 1 17970079850356920008
13224815 77 18343578551306336328
13544653 18 17275386486519943016
13583140 156 18190203302545863370
14181834 199 17345458302344189396
14223421 5 18335419127003457654
14341114 328 18341891892132737672
14787075 74 18129656375095227568
15309172 13 16877947139408909454
15788980 27 17346881152337800899
15848702 151 16558754524572568274
1601671 61 18187076248026031504
16945 1 17967811609228953860
17349148 13 16630803326569718425
17980427 23 17988072279939878389
1813 80 16773793740352959774
19010151 120 18341610395486141497
200 152 16056886844573888560
20691752 17 18195504077867552713
21033648 29 17167864157723442323
21069387 34 16558746784909684115
21421861 104 18057887037671489362
22182313 1 17823123670010597621
23175994 123 14117515458543598030
23402539 116 18334018263564768247
23419403 2 15001688708993185620
23557571 272 18188756362086319813
23559900 14 18264765648544386310
2748010 2 17896586461520718717
296302 2 18130503063436077997
3286 77 18130234778736456480
34934 24 18411419522995109967
5104073 3 18410856521074872608
633830 44 13840257087682754282

> <PUBCHEM_SHAPE_MULTIPOLES>
499.85
7.87
2.16
1.7
1.95
0.42
-0.72
-1.24
2.85
-0.8
0.19
0.73
-0.31
-0.14

> <PUBCHEM_SHAPE_SELFOVERLAP>
1107.959

> <PUBCHEM_SHAPE_VOLUME>
269.8

> <PUBCHEM_COORDINATE_TYPE>
2
5
10

$$$$

