5281879
  -OEChem-07051213012D

 58 62  0     1  0  0  0  0  0999 V2000
    6.8671    0.2723    0.0000 O   0  0  0  0  0  0  0  0  0  0  0  0
    6.8671   -1.7277    0.0000 O   0  0  0  0  0  0  0  0  0  0  0  0
    5.1350   -2.7277    0.0000 O   0  0  0  0  0  0  0  0  0  0  0  0
    8.6155   -2.7623    0.0000 O   0  0  0  0  0  0  0  0  0  0  0  0
   11.2651   -0.2002    0.0000 O   0  0  0  0  0  0  0  0  0  0  0  0
    4.2690    2.7723    0.0000 O   0  0  0  0  0  0  0  0  0  0  0  0
    2.5369    1.7723    0.0000 O   0  0  0  0  0  0  0  0  0  0  0  0
   11.2536    2.7998    0.0000 O   0  0  0  0  0  0  0  0  0  0  0  0
   13.0018    2.8411    0.0000 O   0  0  0  0  0  0  0  0  0  0  0  0
   14.7953   -0.2108    0.0000 O   0  0  0  0  0  0  0  0  0  0  0  0
    6.0010   -0.2277    0.0000 C   0  0  1  0  0  0  0  0  0  0  0  0
    6.0010   -1.2277    0.0000 C   0  0  1  0  0  0  0  0  0  0  0  0
    5.1350    0.2723    0.0000 C   0  0  0  0  0  0  0  0  0  0  0  0
    7.7331   -0.2277    0.0000 C   0  0  0  0  0  0  0  0  0  0  0  0
    7.7331   -1.2277    0.0000 C   0  0  0  0  0  0  0  0  0  0  0  0
    5.1350   -1.7277    0.0000 C   0  0  0  0  0  0  0  0  0  0  0  0
    8.6270   -1.7624    0.0000 C   0  0  0  0  0  0  0  0  0  0  0  0
    8.6270    0.3069    0.0000 C   0  0  0  0  0  0  0  0  0  0  0  0
    9.5331   -0.2069    0.0000 C   0  0  0  0  0  0  0  0  0  0  0  0
    5.1350    1.2723    0.0000 C   0  0  0  0  0  0  0  0  0  0  0  0
    4.2690   -0.2277    0.0000 C   0  0  0  0  0  0  0  0  0  0  0  0
    9.5331   -1.2485    0.0000 C   0  0  0  0  0  0  0  0  0  0  0  0
   10.3972    0.2964    0.0000 C   0  0  0  0  0  0  0  0  0  0  0  0
    4.2690    1.7723    0.0000 C   0  0  0  0  0  0  0  0  0  0  0  0
    3.4030    0.2723    0.0000 C   0  0  0  0  0  0  0  0  0  0  0  0
    3.4030    1.2723    0.0000 C   0  0  0  0  0  0  0  0  0  0  0  0
   10.3933    1.2964    0.0000 C   0  0  0  0  0  0  0  0  0  0  0  0
   12.1292    0.3031    0.0000 C   0  0  0  0  0  0  0  0  0  0  0  0
   12.1254    1.3031    0.0000 C   0  0  0  0  0  0  0  0  0  0  0  0
   11.2574    1.7998    0.0000 C   0  0  0  0  0  0  0  0  0  0  0  0
   13.0172    1.8412    0.0000 C   0  0  0  0  0  0  0  0  0  0  0  0
   13.0252   -0.2281    0.0000 C   0  0  0  0  0  0  0  0  0  0  0  0
    9.4756   -3.2723    0.0000 C   0  0  0  0  0  0  0  0  0  0  0  0
   13.9293    0.2892    0.0000 C   0  0  0  0  0  0  0  0  0  0  0  0
   13.9253    1.3309    0.0000 C   0  0  0  0  0  0  0  0  0  0  0  0
    3.4030    3.2723    0.0000 C   0  0  0  0  0  0  0  0  0  0  0  0
    5.4641   -0.5377    0.0000 H   0  0  0  0  0  0  0  0  0  0  0  0
    6.0010   -1.8477    0.0000 H   0  0  0  0  0  0  0  0  0  0  0  0
    4.9230   -1.1451    0.0000 H   0  0  0  0  0  0  0  0  0  0  0  0
    4.5244   -1.8354    0.0000 H   0  0  0  0  0  0  0  0  0  0  0  0
    8.6199    0.9269    0.0000 H   0  0  0  0  0  0  0  0  0  0  0  0
    5.6720    1.5823    0.0000 H   0  0  0  0  0  0  0  0  0  0  0  0
    4.2690   -0.8477    0.0000 H   0  0  0  0  0  0  0  0  0  0  0  0
   10.0688   -1.5606    0.0000 H   0  0  0  0  0  0  0  0  0  0  0  0
    2.8660   -0.0377    0.0000 H   0  0  0  0  0  0  0  0  0  0  0  0
    4.5981   -3.0377    0.0000 H   0  0  0  0  0  0  0  0  0  0  0  0
    9.8552    1.6044    0.0000 H   0  0  0  0  0  0  0  0  0  0  0  0
   13.0204   -0.8481    0.0000 H   0  0  0  0  0  0  0  0  0  0  0  0
    9.1595   -3.8056    0.0000 H   0  0  0  0  0  0  0  0  0  0  0  0
   10.0090   -3.5885    0.0000 H   0  0  0  0  0  0  0  0  0  0  0  0
    9.7918   -2.7390    0.0000 H   0  0  0  0  0  0  0  0  0  0  0  0
   14.4598    1.6450    0.0000 H   0  0  0  0  0  0  0  0  0  0  0  0
    2.0000    1.4623    0.0000 H   0  0  0  0  0  0  0  0  0  0  0  0
    3.7130    3.8092    0.0000 H   0  0  0  0  0  0  0  0  0  0  0  0
    2.8660    3.5823    0.0000 H   0  0  0  0  0  0  0  0  0  0  0  0
    3.0930    2.7354    0.0000 H   0  0  0  0  0  0  0  0  0  0  0  0
   13.5339    3.1593    0.0000 H   0  0  0  0  0  0  0  0  0  0  0  0
   15.3323    0.0992    0.0000 H   0  0  0  0  0  0  0  0  0  0  0  0
  1 11  1  0  0  0  0
  1 14  1  0  0  0  0
  2 12  1  0  0  0  0
  2 15  1  0  0  0  0
  3 16  1  0  0  0  0
  3 46  1  0  0  0  0
  4 17  1  0  0  0  0
  4 33  1  0  0  0  0
  5 23  1  0  0  0  0
  5 28  1  0  0  0  0
  6 24  1  0  0  0  0
  6 36  1  0  0  0  0
  7 26  1  0  0  0  0
  7 53  1  0  0  0  0
  8 30  2  0  0  0  0
  9 31  1  0  0  0  0
  9 57  1  0  0  0  0
 10 34  1  0  0  0  0
 10 58  1  0  0  0  0
 11 12  1  0  0  0  0
 11 13  1  1  0  0  0
 11 37  1  0  0  0  0
 12 16  1  6  0  0  0
 12 38  1  0  0  0  0
 13 20  2  0  0  0  0
 13 21  1  0  0  0  0
 14 15  2  0  0  0  0
 14 18  1  0  0  0  0
 15 17  1  0  0  0  0
 16 39  1  0  0  0  0
 16 40  1  0  0  0  0
 17 22  2  0  0  0  0
 18 19  2  0  0  0  0
 18 41  1  0  0  0  0
 19 22  1  0  0  0  0
 19 23  1  0  0  0  0
 20 24  1  0  0  0  0
 20 42  1  0  0  0  0
 21 25  2  0  0  0  0
 21 43  1  0  0  0  0
 22 44  1  0  0  0  0
 23 27  2  0  0  0  0
 24 26  2  0  0  0  0
 25 26  1  0  0  0  0
 25 45  1  0  0  0  0
 27 30  1  0  0  0  0
 27 47  1  0  0  0  0
 28 29  1  0  0  0  0
 28 32  2  0  0  0  0
 29 30  1  0  0  0  0
 29 31  2  0  0  0  0
 31 35  1  0  0  0  0
 32 34  1  0  0  0  0
 32 48  1  0  0  0  0
 33 49  1  0  0  0  0
 33 50  1  0  0  0  0
 33 51  1  0  0  0  0
 34 35  2  0  0  0  0
 35 52  1  0  0  0  0
 36 54  1  0  0  0  0
 36 55  1  0  0  0  0
 36 56  1  0  0  0  0
M  END
> <PUBCHEM_COMPOUND_CID>
5281879

> <PUBCHEM_COMPOUND_CANONICALIZED>
1

> <PUBCHEM_CACTVS_COMPLEXITY>
819

> <PUBCHEM_CACTVS_HBOND_ACCEPTOR>
10

> <PUBCHEM_CACTVS_HBOND_DONOR>
4

> <PUBCHEM_CACTVS_ROTATABLE_BOND>
5

> <PUBCHEM_CACTVS_SUBSKEYS>
AAADceB4PAAAAAAAAAAAAAAAAAAAAAAAAAA0YMECAAAAAACRUAAAGgAACAAADBSgmAIyBoAABgCIAqBSAAACCAAkIAAIiAEGiMgNNzaGNRqCeWOl4BULuQfI7LzOIAABCAAIQABAAAIQABCAAAAAAAAAAA==

> <PUBCHEM_IUPAC_OPENEYE_NAME>
5,7-dihydroxy-2-[(2R,3R)-2-(4-hydroxy-3-methoxy-phenyl)-3-(hydroxymethyl)-5-methoxy-2,3-dihydro-1,4-benzodioxin-7-yl]chromen-4-one

> <PUBCHEM_IUPAC_CAS_NAME>
5,7-dihydroxy-2-[(2R,3R)-2-(4-hydroxy-3-methoxyphenyl)-3-(hydroxymethyl)-5-methoxy-2,3-dihydro-1,4-benzodioxin-7-yl]-1-benzopyran-4-one

> <PUBCHEM_IUPAC_NAME>
5,7-dihydroxy-2-[(2R,3R)-2-(4-hydroxy-3-methoxyphenyl)-3-(hydroxymethyl)-5-methoxy-2,3-dihydro-1,4-benzodioxin-7-yl]chromen-4-one

> <PUBCHEM_IUPAC_SYSTEMATIC_NAME>
2-[(2R,3R)-3-(hydroxymethyl)-5-methoxy-2-(3-methoxy-4-oxidanyl-phenyl)-2,3-dihydro-1,4-benzodioxin-7-yl]-5,7-bis(oxidanyl)chromen-4-one

> <PUBCHEM_IUPAC_TRADITIONAL_NAME>
5,7-dihydroxy-2-[(2R,3R)-2-(4-hydroxy-3-methoxy-phenyl)-5-methoxy-3-methylol-2,3-dihydro-1,4-benzodioxin-7-yl]chromone

> <PUBCHEM_IUPAC_INCHI>
InChI=1S/C26H22O10/c1-32-19-5-12(3-4-15(19)29)25-23(11-27)36-26-21(33-2)6-13(7-22(26)35-25)18-10-17(31)24-16(30)8-14(28)9-20(24)34-18/h3-10,23,25,27-30H,11H2,1-2H3/t23-,25-/m1/s1

> <PUBCHEM_IUPAC_INCHIKEY>
NIOAGUZTTGFPGK-ILBGXUMGSA-N

> <PUBCHEM_XLOGP3_AA>
3.2

> <PUBCHEM_EXACT_MASS>
494.121297

> <PUBCHEM_MOLECULAR_FORMULA>
C26H22O10

> <PUBCHEM_MOLECULAR_WEIGHT>
494.44688

> <PUBCHEM_OPENEYE_CAN_SMILES>
COC1=CC(=CC2=C1OC(C(O2)C3=CC(=C(C=C3)O)OC)CO)C4=CC(=O)C5=C(C=C(C=C5O4)O)O

> <PUBCHEM_OPENEYE_ISO_SMILES>
COC1=CC(=CC2=C1O[C@@H]([C@H](O2)C3=CC(=C(C=C3)O)OC)CO)C4=CC(=O)C5=C(C=C(C=C5O4)O)O

> <PUBCHEM_CACTVS_TPSA>
144

> <PUBCHEM_MONOISOTOPIC_WEIGHT>
494.121297

> <PUBCHEM_TOTAL_CHARGE>
0

> <PUBCHEM_HEAVY_ATOM_COUNT>
36

> <PUBCHEM_ATOM_DEF_STEREO_COUNT>
2

> <PUBCHEM_ATOM_UDEF_STEREO_COUNT>
0

> <PUBCHEM_BOND_DEF_STEREO_COUNT>
0

> <PUBCHEM_BOND_UDEF_STEREO_COUNT>
0

> <PUBCHEM_ISOTOPIC_ATOM_COUNT>
0

> <PUBCHEM_COMPONENT_COUNT>
1

> <PUBCHEM_CACTVS_TAUTO_COUNT>
36

> <PUBCHEM_COORDINATE_TYPE>
1
5
255

> <PUBCHEM_BONDANNOTATIONS>
11  13  5
12  16  6
13  20  8
13  21  8
14  15  8
14  18  8
15  17  8
17  22  8
18  19  8
19  22  8
20  24  8
21  25  8
23  27  8
24  26  8
25  26  8
27  30  8
28  29  8
28  32  8
29  30  8
29  31  8
31  35  8
32  34  8
34  35  8
5  23  8
5  28  8

$$$$

