47205522
  -OEChem-06241222593D

 33 33  0     0  0  0  0  0  0999 V2000
   -3.4662   -0.7117    1.3327 O   0  0  0  0  0  0  0  0  0  0  0  0
   -0.8746    0.9637   -0.6297 O   0  0  0  0  0  0  0  0  0  0  0  0
   -2.8866   -0.8061   -0.9133 N   0  0  0  0  0  0  0  0  0  0  0  0
    0.7241   -0.7376   -0.3676 N   0  0  0  0  0  0  0  0  0  0  0  0
    6.5440   -1.2672    0.5413 N   0  0  0  0  0  0  0  0  0  0  0  0
   -5.0669    0.0231   -0.3286 C   0  0  0  0  0  0  0  0  0  0  0  0
   -6.0175    0.3300    0.8248 C   0  0  0  0  0  0  0  0  0  0  0  0
   -3.7372   -0.5333    0.1481 C   0  0  0  0  0  0  0  0  0  0  0  0
   -1.5604   -1.3426   -0.7202 C   0  0  0  0  0  0  0  0  0  0  0  0
   -7.3528    0.8542    0.3224 C   0  0  0  0  0  0  0  0  0  0  0  0
   -0.5517   -0.2182   -0.5700 C   0  0  0  0  0  0  0  0  0  0  0  0
    1.9292   -0.0187   -0.1843 C   0  0  0  0  0  0  0  0  0  0  0  0
    3.1288   -0.7044    0.0069 C   0  0  0  0  0  0  0  0  0  0  0  0
    1.9171    1.3761   -0.1951 C   0  0  0  0  0  0  0  0  0  0  0  0
    4.3163    0.0048    0.1875 C   0  0  0  0  0  0  0  0  0  0  0  0
    3.1046    2.0852   -0.0145 C   0  0  0  0  0  0  0  0  0  0  0  0
    4.3042    1.3996    0.1769 C   0  0  0  0  0  0  0  0  0  0  0  0
    5.5456   -0.6971    0.3827 C   0  0  0  0  0  0  0  0  0  0  0  0
   -5.5218   -0.7118   -1.0036 H   0  0  0  0  0  0  0  0  0  0  0  0
   -4.8709    0.9350   -0.9053 H   0  0  0  0  0  0  0  0  0  0  0  0
   -5.5652    1.0712    1.4945 H   0  0  0  0  0  0  0  0  0  0  0  0
   -6.1869   -0.5744    1.4213 H   0  0  0  0  0  0  0  0  0  0  0  0
   -1.5407   -1.9761    0.1725 H   0  0  0  0  0  0  0  0  0  0  0  0
   -1.3103   -1.9415   -1.6012 H   0  0  0  0  0  0  0  0  0  0  0  0
   -3.1903   -0.6087   -1.8625 H   0  0  0  0  0  0  0  0  0  0  0  0
   -7.8464    0.1186   -0.3206 H   0  0  0  0  0  0  0  0  0  0  0  0
   -8.0173    1.0686    1.1653 H   0  0  0  0  0  0  0  0  0  0  0  0
   -7.2212    1.7780   -0.2499 H   0  0  0  0  0  0  0  0  0  0  0  0
    0.8196   -1.7508   -0.3465 H   0  0  0  0  0  0  0  0  0  0  0  0
    3.1362   -1.7927    0.0148 H   0  0  0  0  0  0  0  0  0  0  0  0
    1.0300    1.9769   -0.3370 H   0  0  0  0  0  0  0  0  0  0  0  0
    3.0965    3.1714   -0.0227 H   0  0  0  0  0  0  0  0  0  0  0  0
    5.2216    1.9665    0.3161 H   0  0  0  0  0  0  0  0  0  0  0  0
  1  8  2  0  0  0  0
  2 11  2  0  0  0  0
  3  8  1  0  0  0  0
  3  9  1  0  0  0  0
  3 25  1  0  0  0  0
  4 11  1  0  0  0  0
  4 12  1  0  0  0  0
  4 29  1  0  0  0  0
  5 18  3  0  0  0  0
  6  7  1  0  0  0  0
  6  8  1  0  0  0  0
  6 19  1  0  0  0  0
  6 20  1  0  0  0  0
  7 10  1  0  0  0  0
  7 21  1  0  0  0  0
  7 22  1  0  0  0  0
  9 11  1  0  0  0  0
  9 23  1  0  0  0  0
  9 24  1  0  0  0  0
 10 26  1  0  0  0  0
 10 27  1  0  0  0  0
 10 28  1  0  0  0  0
 12 13  1  0  0  0  0
 12 14  2  0  0  0  0
 13 15  2  0  0  0  0
 13 30  1  0  0  0  0
 14 16  1  0  0  0  0
 14 31  1  0  0  0  0
 15 17  1  0  0  0  0
 15 18  1  0  0  0  0
 16 17  2  0  0  0  0
 16 32  1  0  0  0  0
 17 33  1  0  0  0  0
M  END
> <PUBCHEM_COMPOUND_CID>
47205522

> <PUBCHEM_CONFORMER_RMSD>
0.8

> <PUBCHEM_CONFORMER_DIVERSEORDER>
1
132
71
76
160
133
28
120
18
68
80
70
7
156
89
38
140
12
99
16
159
21
149
15
142
129
62
4
53
36
96
75
107
2
139
114
35
37
55
73
87
82
43
69
78
6
110
131
65
161
83
113
150
39
61
74
93
27
85
111
153
95
91
108
72
155
13
88
102
23
94
34
10
52
104
44
143
66
3
135
122
63
79
151
112
31
105
57
125
40
126
47
128
60
84
22
49
145
14
58
86
92
118
17
134
67
32
158
59
42
154
124
138
100
64
121
147
146
98
20
54
123
48
56
144
46
157
77
115
9
90
148
106
24
33
8
152
117
109
130
5
11
19
41
141
137
45
127
29
103
116
119
25
30
81
101
136
97
51
50
26

> <PUBCHEM_MMFF94_PARTIAL_CHARGES>
22
1 -0.57
11 0.57
12 0.12
13 -0.15
14 -0.15
15 0.07
16 -0.15
17 -0.15
18 0.48
2 -0.57
25 0.37
29 0.37
3 -0.73
30 0.15
31 0.15
32 0.15
33 0.15
4 -0.55
5 -0.56
6 0.06
8 0.57
9 0.36

> <PUBCHEM_EFFECTIVE_ROTOR_COUNT>
7

> <PUBCHEM_PHARMACOPHORE_FEATURES>
7
1 1 acceptor
1 10 hydrophobe
1 2 acceptor
1 3 donor
1 4 donor
1 5 acceptor
6 12 13 14 15 16 17 rings

> <PUBCHEM_HEAVY_ATOM_COUNT>
18

> <PUBCHEM_ATOM_DEF_STEREO_COUNT>
0

> <PUBCHEM_ATOM_UDEF_STEREO_COUNT>
0

> <PUBCHEM_BOND_DEF_STEREO_COUNT>
0

> <PUBCHEM_BOND_UDEF_STEREO_COUNT>
0

> <PUBCHEM_ISOTOPIC_ATOM_COUNT>
0

> <PUBCHEM_COMPONENT_COUNT>
1

> <PUBCHEM_CACTVS_TAUTO_COUNT>
4

> <PUBCHEM_CONFORMER_ID>
02D04C9200000001

> <PUBCHEM_MMFF94_ENERGY>
34.119

> <PUBCHEM_FEATURE_SELFOVERLAP>
35.52

> <PUBCHEM_SHAPE_FINGERPRINT>
10968037 39 10231752293384312817
11089746 13 17530689796855928201
11458722 120 18333170561526993126
12236239 1 18113621157592472167
12596602 18 18272365335618649521
12616971 3 18334861584603818445
12714333 28 14057001628870314759
13167372 99 18261108595392167377
13533116 47 17775011235860163043
14123256 10 9799688203679846683
1420 363 16702303455406673978
14251718 22 8646769997507630189
14251764 18 18335703810763824213
14341114 176 17989487407139433436
14350574 20 10592039155266934703
14617045 38 16128656370517617251
15348495 7 18059569132022651233
15475509 35 16772973488158017160
15527383 91 18341894086882092212
15537594 2 13901912176651655921
18335252 98 7925622328758227141
19141452 34 18335706005213005622
19489759 90 15791729698298210839
20281389 69 18408042901375112257
21150785 3 8142078762937730323
21267235 1 18340769343044242558
212847 35 18040715835947633472
2297311 6 15769777974488026055
23035841 295 15698000742766313986
23402539 116 17240207616780076589
23503953 91 18114188492960729702
26918003 58 18343581828429790819
2767999 5 17385441034067293865
2838139 119 18260553342589982421
33382 64 16128383713393426272
351380 3 13038907711907634073
4072396 5 17385724707840380750
4325135 7 9223227447097267433
5104073 3 18266187140795329882
5207 217 8286193959566655997

> <PUBCHEM_SHAPE_MULTIPOLES>
343.75
17.1
1.51
0.86
14.41
0.51
-0.07
0.76
-4.7
-1.44
0.06
0.56
-0.11
-0.57

> <PUBCHEM_SHAPE_SELFOVERLAP>
699.02

> <PUBCHEM_SHAPE_VOLUME>
196.8

> <PUBCHEM_COORDINATE_TYPE>
2
5
10

$$$$

