5319688
  -OEChem-07051213073D

 34 35  0     0  0  0  0  0  0999 V2000
   -3.4158   -2.0171   -0.1309 O   0  0  0  0  0  0  0  0  0  0  0  0
   -5.5115    2.2558   -0.3537 O   0  0  0  0  0  0  0  0  0  0  0  0
   -1.0166   -1.9606    1.0175 O   0  0  0  0  0  0  0  0  0  0  0  0
    6.6949    1.0971   -0.5354 O   0  0  0  0  0  0  0  0  0  0  0  0
   -2.1421   -0.0311    0.3003 C   0  0  0  0  0  0  0  0  0  0  0  0
   -3.3281   -0.6612   -0.0238 C   0  0  0  0  0  0  0  0  0  0  0  0
   -2.0523    1.3435    0.4126 C   0  0  0  0  0  0  0  0  0  0  0  0
   -0.9196   -0.8341    0.5436 C   0  0  0  0  0  0  0  0  0  0  0  0
    2.8805   -0.3667    0.1956 C   0  0  0  0  0  0  0  0  0  0  0  0
   -4.4679    0.1121   -0.2445 C   0  0  0  0  0  0  0  0  0  0  0  0
   -4.3997    1.5012   -0.1366 C   0  0  0  0  0  0  0  0  0  0  0  0
   -3.1919    2.1168    0.1919 C   0  0  0  0  0  0  0  0  0  0  0  0
    0.3936   -0.2085    0.2228 C   0  0  0  0  0  0  0  0  0  0  0  0
    1.5442   -0.8805    0.4522 C   0  0  0  0  0  0  0  0  0  0  0  0
    3.0897    1.0072    0.0784 C   0  0  0  0  0  0  0  0  0  0  0  0
    3.9532   -1.2491    0.0671 C   0  0  0  0  0  0  0  0  0  0  0  0
    4.3716    1.4990   -0.1676 C   0  0  0  0  0  0  0  0  0  0  0  0
    5.2353   -0.7574   -0.1787 C   0  0  0  0  0  0  0  0  0  0  0  0
    5.4444    0.6168   -0.2959 C   0  0  0  0  0  0  0  0  0  0  0  0
   -3.1622   -2.5830   -1.4149 C   0  0  0  0  0  0  0  0  0  0  0  0
   -1.1462    1.8618    0.7082 H   0  0  0  0  0  0  0  0  0  0  0  0
   -5.4070   -0.3730   -0.4992 H   0  0  0  0  0  0  0  0  0  0  0  0
   -3.1355    3.1979    0.2863 H   0  0  0  0  0  0  0  0  0  0  0  0
    0.4026    0.7622   -0.2558 H   0  0  0  0  0  0  0  0  0  0  0  0
    1.5044   -1.8789    0.8824 H   0  0  0  0  0  0  0  0  0  0  0  0
    2.2895    1.7327    0.1922 H   0  0  0  0  0  0  0  0  0  0  0  0
    3.8093   -2.3235    0.1540 H   0  0  0  0  0  0  0  0  0  0  0  0
    4.5227    2.5719   -0.2524 H   0  0  0  0  0  0  0  0  0  0  0  0
    6.0670   -1.4496   -0.2781 H   0  0  0  0  0  0  0  0  0  0  0  0
   -3.9176   -2.2498   -2.1336 H   0  0  0  0  0  0  0  0  0  0  0  0
   -3.2199   -3.6714   -1.3268 H   0  0  0  0  0  0  0  0  0  0  0  0
   -2.1627   -2.3137   -1.7706 H   0  0  0  0  0  0  0  0  0  0  0  0
   -6.2549    1.6670   -0.5702 H   0  0  0  0  0  0  0  0  0  0  0  0
    6.6553    2.0677   -0.5869 H   0  0  0  0  0  0  0  0  0  0  0  0
  1  6  1  0  0  0  0
  1 20  1  0  0  0  0
  2 11  1  0  0  0  0
  2 33  1  0  0  0  0
  3  8  2  0  0  0  0
  4 19  1  0  0  0  0
  4 34  1  0  0  0  0
  5  6  2  0  0  0  0
  5  7  1  0  0  0  0
  5  8  1  0  0  0  0
  6 10  1  0  0  0  0
  7 12  2  0  0  0  0
  7 21  1  0  0  0  0
  8 13  1  0  0  0  0
  9 14  1  0  0  0  0
  9 15  2  0  0  0  0
  9 16  1  0  0  0  0
 10 11  2  0  0  0  0
 10 22  1  0  0  0  0
 11 12  1  0  0  0  0
 12 23  1  0  0  0  0
 13 14  2  0  0  0  0
 13 24  1  0  0  0  0
 14 25  1  0  0  0  0
 15 17  1  0  0  0  0
 15 26  1  0  0  0  0
 16 18  2  0  0  0  0
 16 27  1  0  0  0  0
 17 19  2  0  0  0  0
 17 28  1  0  0  0  0
 18 19  1  0  0  0  0
 18 29  1  0  0  0  0
 20 30  1  0  0  0  0
 20 31  1  0  0  0  0
 20 32  1  0  0  0  0
M  END
> <PUBCHEM_COMPOUND_CID>
5319688

> <PUBCHEM_CONFORMER_RMSD>
0.6

> <PUBCHEM_CONFORMER_DIVERSEORDER>
4
22
17
29
27
5
13
38
10
34
26
31
30
23
12
32
2
25
9
15
20
3
16
24
11
14
8
35
1
36
19
6
18
33
7
28
21
37

> <PUBCHEM_MMFF94_PARTIAL_CHARGES>
31
1 -0.36
10 -0.15
11 0.08
12 -0.15
13 -0.14
14 -0.18
15 -0.15
16 -0.15
17 -0.15
18 -0.15
19 0.08
2 -0.53
20 0.28
21 0.15
22 0.15
23 0.15
24 0.15
25 0.15
26 0.15
27 0.15
28 0.15
29 0.15
3 -0.57
33 0.45
34 0.45
4 -0.53
5 0.09
6 0.08
7 -0.15
8 0.47
9 0.03

> <PUBCHEM_EFFECTIVE_ROTOR_COUNT>
4

> <PUBCHEM_PHARMACOPHORE_FEATURES>
6
1 1 acceptor
1 2 donor
1 3 acceptor
1 4 donor
6 5 6 7 10 11 12 rings
6 9 15 16 17 18 19 rings

> <PUBCHEM_HEAVY_ATOM_COUNT>
20

> <PUBCHEM_ATOM_DEF_STEREO_COUNT>
0

> <PUBCHEM_ATOM_UDEF_STEREO_COUNT>
0

> <PUBCHEM_BOND_DEF_STEREO_COUNT>
1

> <PUBCHEM_BOND_UDEF_STEREO_COUNT>
0

> <PUBCHEM_ISOTOPIC_ATOM_COUNT>
0

> <PUBCHEM_COMPONENT_COUNT>
1

> <PUBCHEM_CACTVS_TAUTO_COUNT>
10

> <PUBCHEM_CONFORMER_ID>
00512C0800000004

> <PUBCHEM_MMFF94_ENERGY>
72.3111

> <PUBCHEM_FEATURE_SELFOVERLAP>
30.454

> <PUBCHEM_SHAPE_FINGERPRINT>
10014705 185 18342174479226344425
10366900 7 16733270135356577923
10411042 1 17979353059081941539
10595046 47 18411420566624891574
12107183 9 17835524099999104586
12236239 1 18130790078878389506
12403259 415 18041001700459756474
13073987 5 18130787845796492074
13167823 11 18410014329839392182
14251764 75 17759517068880228513
14528608 73 18411135806261774772
15183329 4 18338229475304798542
15196674 1 18412825789608451800
15250474 111 18338251409218489418
17834072 33 18409167684632240102
17844677 252 18339353068255014568
17959699 21 18413388731019476368
18222031 100 14490475301034627490
19427546 20 18340772555447762671
19784866 240 5833980668487353169
200 152 17676206874772802890
20300324 65 18335702715288778803
20645477 56 18409447020678288105
20645477 70 17822562919982797774
20871999 31 18261403221790671471
21709351 56 18411420575336022420
22393880 68 18187647973183005990
23198884 109 17313099787230118081
23227448 37 18410857663947707325
23402539 116 18411985745439375838
23402655 69 18410294722489157786
23557571 272 18260260815796775255
23559900 14 18187653483373164424
245318 6 16841051751751772252
268830 7 17846509135930585090
300161 21 18412829092643842392
3004659 81 18341329002978888210
3472631 163 18411699928425016885
34797466 226 17822002078399226708
351380 180 18410012147985202960
3545911 37 18410008844880980848
4073 2 18060131012867137834
4214541 1 18410011044025386768
441001 317 18411699872310730512
474 4 17704067374397736320
5104073 3 18272933825800204080
542803 24 18131350812865984808
6327066 14 18269843184899655709
633830 44 17989207049128526322
77779 3 18410291411090530082
9709674 26 18410284801194448970

> <PUBCHEM_SHAPE_MULTIPOLES>
388.11
14.13
2.36
0.82
12.71
0.3
0.07
-5.26
3.05
-2.84
0.39
-0.27
0.31
-0.68

> <PUBCHEM_SHAPE_SELFOVERLAP>
836.196

> <PUBCHEM_SHAPE_VOLUME>
213.7

> <PUBCHEM_COORDINATE_TYPE>
2
5
10

$$$$

