5282199
  -OEChem-07051213033D

 62 61  0     0  0  0  0  0  0999 V2000
    0.7674   -4.6577   -0.0191 O   0  0  0  0  0  0  0  0  0  0  0  0
    0.8682    2.9471   -0.4129 C   0  0  0  0  0  0  0  0  0  0  0  0
   -0.0918    1.7487   -0.4271 C   0  0  0  0  0  0  0  0  0  0  0  0
    2.3033    2.5446   -0.6747 C   0  0  0  0  0  0  0  0  0  0  0  0
    4.6309    1.7780    0.0973 C   0  0  0  0  0  0  0  0  0  0  0  0
    4.9393    0.4595    0.8193 C   0  0  0  0  0  0  0  0  0  0  0  0
    3.2077    2.2299    0.2735 C   0  0  0  0  0  0  0  0  0  0  0  0
   -2.3412    1.8407    0.8075 C   0  0  0  0  0  0  0  0  0  0  0  0
   -3.7334    2.4423    0.8767 C   0  0  0  0  0  0  0  0  0  0  0  0
    4.1008   -0.7162    0.3649 C   0  0  0  0  0  0  0  0  0  0  0  0
   -1.5050    2.2012   -0.1855 C   0  0  0  0  0  0  0  0  0  0  0  0
   -4.8512    1.3906    0.8755 C   0  0  0  0  0  0  0  0  0  0  0  0
    2.6859    2.4596   -2.1310 C   0  0  0  0  0  0  0  0  0  0  0  0
    3.2747   -1.4283    1.1562 C   0  0  0  0  0  0  0  0  0  0  0  0
    2.4719   -2.6494    0.7969 C   0  0  0  0  0  0  0  0  0  0  0  0
   -2.0086    0.8763    1.9117 C   0  0  0  0  0  0  0  0  0  0  0  0
    4.2987   -1.1302   -1.0711 C   0  0  0  0  0  0  0  0  0  0  0  0
    1.1133   -2.2936    0.1956 C   0  0  0  0  0  0  0  0  0  0  0  0
   -4.8905    0.6007   -0.4048 C   0  0  0  0  0  0  0  0  0  0  0  0
   -4.8476   -0.7359   -0.5611 C   0  0  0  0  0  0  0  0  0  0  0  0
    0.3072   -3.5252   -0.1616 C   0  0  0  0  0  0  0  0  0  0  0  0
   -4.9063   -1.3429   -1.9378 C   0  0  0  0  0  0  0  0  0  0  0  0
   -4.7278   -1.7388    0.5504 C   0  0  0  0  0  0  0  0  0  0  0  0
   -1.0657   -3.3012   -0.7389 C   0  0  0  0  0  0  0  0  0  0  0  0
    0.8112    3.4370    0.5689 H   0  0  0  0  0  0  0  0  0  0  0  0
    0.5550    3.7076   -1.1393 H   0  0  0  0  0  0  0  0  0  0  0  0
   -0.0568    1.2594   -1.4086 H   0  0  0  0  0  0  0  0  0  0  0  0
    0.2346    0.9997    0.3002 H   0  0  0  0  0  0  0  0  0  0  0  0
    4.9264    1.6818   -0.9495 H   0  0  0  0  0  0  0  0  0  0  0  0
    5.2794    2.5565    0.5189 H   0  0  0  0  0  0  0  0  0  0  0  0
    4.8127    0.6082    1.9000 H   0  0  0  0  0  0  0  0  0  0  0  0
    5.9987    0.2133    0.6736 H   0  0  0  0  0  0  0  0  0  0  0  0
    2.8820    2.3050    1.3107 H   0  0  0  0  0  0  0  0  0  0  0  0
   -3.8083    3.0349    1.7976 H   0  0  0  0  0  0  0  0  0  0  0  0
   -3.9000    3.1475    0.0518 H   0  0  0  0  0  0  0  0  0  0  0  0
   -1.8746    2.9078   -0.9284 H   0  0  0  0  0  0  0  0  0  0  0  0
   -4.7749    0.7586    1.7635 H   0  0  0  0  0  0  0  0  0  0  0  0
   -5.8109    1.9152    0.9676 H   0  0  0  0  0  0  0  0  0  0  0  0
    3.7529    2.5870   -2.3225 H   0  0  0  0  0  0  0  0  0  0  0  0
    2.1941    3.2592   -2.6969 H   0  0  0  0  0  0  0  0  0  0  0  0
    2.3598    1.5034   -2.5521 H   0  0  0  0  0  0  0  0  0  0  0  0
    3.1652   -1.1035    2.1900 H   0  0  0  0  0  0  0  0  0  0  0  0
    3.0368   -3.3122    0.1317 H   0  0  0  0  0  0  0  0  0  0  0  0
    2.3232   -3.2358    1.7134 H   0  0  0  0  0  0  0  0  0  0  0  0
   -2.4545   -0.1030    1.7193 H   0  0  0  0  0  0  0  0  0  0  0  0
   -0.9328    0.7345    2.0406 H   0  0  0  0  0  0  0  0  0  0  0  0
   -2.3856    1.2489    2.8705 H   0  0  0  0  0  0  0  0  0  0  0  0
    3.7376   -2.0155   -1.3753 H   0  0  0  0  0  0  0  0  0  0  0  0
    5.3576   -1.3432   -1.2535 H   0  0  0  0  0  0  0  0  0  0  0  0
    3.9929   -0.3255   -1.7461 H   0  0  0  0  0  0  0  0  0  0  0  0
    0.5298   -1.7031    0.9117 H   0  0  0  0  0  0  0  0  0  0  0  0
    1.2406   -1.7012   -0.7176 H   0  0  0  0  0  0  0  0  0  0  0  0
   -4.9858    1.2131   -1.3012 H   0  0  0  0  0  0  0  0  0  0  0  0
   -4.9891   -0.5866   -2.7254 H   0  0  0  0  0  0  0  0  0  0  0  0
   -4.0007   -1.9268   -2.1331 H   0  0  0  0  0  0  0  0  0  0  0  0
   -5.7732   -2.0064   -2.0226 H   0  0  0  0  0  0  0  0  0  0  0  0
   -4.6635   -1.2934    1.5443 H   0  0  0  0  0  0  0  0  0  0  0  0
   -5.6009   -2.4004    0.5492 H   0  0  0  0  0  0  0  0  0  0  0  0
   -3.8359   -2.3555    0.4115 H   0  0  0  0  0  0  0  0  0  0  0  0
   -1.6187   -4.2439   -0.7580 H   0  0  0  0  0  0  0  0  0  0  0  0
   -0.9743   -2.9111   -1.7552 H   0  0  0  0  0  0  0  0  0  0  0  0
   -1.6073   -2.5892   -0.1130 H   0  0  0  0  0  0  0  0  0  0  0  0
  1 21  2  0  0  0  0
  2  3  1  0  0  0  0
  2  4  1  0  0  0  0
  2 25  1  0  0  0  0
  2 26  1  0  0  0  0
  3 11  1  0  0  0  0
  3 27  1  0  0  0  0
  3 28  1  0  0  0  0
  4  7  2  0  0  0  0
  4 13  1  0  0  0  0
  5  6  1  0  0  0  0
  5  7  1  0  0  0  0
  5 29  1  0  0  0  0
  5 30  1  0  0  0  0
  6 10  1  0  0  0  0
  6 31  1  0  0  0  0
  6 32  1  0  0  0  0
  7 33  1  0  0  0  0
  8  9  1  0  0  0  0
  8 11  2  0  0  0  0
  8 16  1  0  0  0  0
  9 12  1  0  0  0  0
  9 34  1  0  0  0  0
  9 35  1  0  0  0  0
 10 14  2  0  0  0  0
 10 17  1  0  0  0  0
 11 36  1  0  0  0  0
 12 19  1  0  0  0  0
 12 37  1  0  0  0  0
 12 38  1  0  0  0  0
 13 39  1  0  0  0  0
 13 40  1  0  0  0  0
 13 41  1  0  0  0  0
 14 15  1  0  0  0  0
 14 42  1  0  0  0  0
 15 18  1  0  0  0  0
 15 43  1  0  0  0  0
 15 44  1  0  0  0  0
 16 45  1  0  0  0  0
 16 46  1  0  0  0  0
 16 47  1  0  0  0  0
 17 48  1  0  0  0  0
 17 49  1  0  0  0  0
 17 50  1  0  0  0  0
 18 21  1  0  0  0  0
 18 51  1  0  0  0  0
 18 52  1  0  0  0  0
 19 20  2  0  0  0  0
 19 53  1  0  0  0  0
 20 22  1  0  0  0  0
 20 23  1  0  0  0  0
 21 24  1  0  0  0  0
 22 54  1  0  0  0  0
 22 55  1  0  0  0  0
 22 56  1  0  0  0  0
 23 57  1  0  0  0  0
 23 58  1  0  0  0  0
 23 59  1  0  0  0  0
 24 60  1  0  0  0  0
 24 61  1  0  0  0  0
 24 62  1  0  0  0  0
M  END
> <PUBCHEM_COMPOUND_CID>
5282199

> <PUBCHEM_CONFORMER_RMSD>
1.4

> <PUBCHEM_CONFORMER_DIVERSEORDER>
18
40
534
160
71
422
133
269
474
258
168
332
67
280
153
176
533
169
327
136
425
460
221
28
334
196
365
222
329
185
496
129
285
494
452
39
108
450
149
308
62
393
310
84
445
304
392
548
130
281
170
400
117
515
472
462
415
554
53
379
404
219
320
242
368
43
98
504
35
77
247
321
89
148
346
408
8
121
305
237
254
493
33
385
42
91
501
355
227
68
111
499
38
293
314
49
88
195
194
107
114
211
380
442
44
122
22
315
245
30
435
338
31
311
360
307
427
82
14
384
260
6
54
4
187
438
353
510
300
7
357
323
76
32
498
66
52
546
5
81
431
383
475
11
312
99
301
132
48
229
453
63
125
189
74
389
433
50
397
69
12
144
159
51
487
340
127
519
345
163
527
23
90
135
540
17
46
72
253
322
351
270
217
1
377
350
123
372
13
313
15
419
79
10
3
423
394
80
20
265
373
2
75

> <PUBCHEM_MMFF94_PARTIAL_CHARGES>
28
1 -0.57
10 -0.28
11 -0.29
12 0.14
13 0.14
14 -0.29
15 0.14
16 0.14
17 0.14
18 0.06
19 -0.29
2 0.14
20 -0.28
21 0.45
22 0.14
23 0.14
24 0.06
3 0.14
33 0.15
36 0.15
4 -0.28
42 0.15
5 0.14
53 0.15
6 0.14
7 -0.29
8 -0.28
9 0.14

> <PUBCHEM_EFFECTIVE_ROTOR_COUNT>
12

> <PUBCHEM_PHARMACOPHORE_FEATURES>
8
1 1 acceptor
1 13 hydrophobe
1 16 hydrophobe
1 17 hydrophobe
3 20 22 23 hydrophobe
4 2 3 4 11 hydrophobe
4 5 6 7 10 hydrophobe
4 8 9 12 19 hydrophobe

> <PUBCHEM_HEAVY_ATOM_COUNT>
24

> <PUBCHEM_ATOM_DEF_STEREO_COUNT>
0

> <PUBCHEM_ATOM_UDEF_STEREO_COUNT>
0

> <PUBCHEM_BOND_DEF_STEREO_COUNT>
3

> <PUBCHEM_BOND_UDEF_STEREO_COUNT>
0

> <PUBCHEM_ISOTOPIC_ATOM_COUNT>
0

> <PUBCHEM_COMPONENT_COUNT>
1

> <PUBCHEM_CACTVS_TAUTO_COUNT>
3

> <PUBCHEM_CONFORMER_ID>
0050999700000012

> <PUBCHEM_MMFF94_ENERGY>
21.7281

> <PUBCHEM_FEATURE_SELFOVERLAP>
40.637

> <PUBCHEM_SHAPE_FINGERPRINT>
10708813 3 18409729577406476118
11513181 2 18040152941734362031
12596602 18 17675926486861324568
12978246 48 18339641135911800147
1361 2 18411699910891401513
14117953 113 17760936538195365095
15001296 14 18340491071421992793
152267 14 17260198107730372995
16067690 210 15936965361810913035
17138139 8 17898302610230006869
17857418 61 18411422808408364161
17977149 70 17682382999322588542
20028762 73 18261116300616289622
20645477 70 17703500009097401560
21315764 371 18113339721465744056
245318 6 18059284345177873207
338550 245 18341891827560593548
373842 8 18270116803890545515
437795 70 18116129200078129286
45266715 3 17395047278238640613
463206 1 18411133606827400545
5312544 6 18341048532075075916
581034 39 17167869651387891695
6287921 2 18118120505117921115

> <PUBCHEM_SHAPE_MULTIPOLES>
488.04
11.89
5.26
1.47
6.46
4.19
-0.32
-1.29
-0.2
-1.5
-0.6
0.41
-0.33
-2.24

> <PUBCHEM_SHAPE_SELFOVERLAP>
926.714

> <PUBCHEM_SHAPE_VOLUME>
301.3

> <PUBCHEM_COORDINATE_TYPE>
2
5
10

$$$$

