443031
  -OEChem-07051213003D

 49 51  0     0  0  0  0  0  0999 V2000
    2.0144   -1.3083   -0.3499 O   0  0  0  0  0  0  0  0  0  0  0  0
   -2.0226    1.2867   -0.3750 O   0  0  0  0  0  0  0  0  0  0  0  0
    0.6771    1.0655    1.6375 O   0  0  0  0  0  0  0  0  0  0  0  0
    6.2303   -1.1108    1.5632 O   0  0  0  0  0  0  0  0  0  0  0  0
   -6.2375    1.1307    1.5444 O   0  0  0  0  0  0  0  0  0  0  0  0
    4.3287    2.7029   -0.5138 O   0  0  0  0  0  0  0  0  0  0  0  0
   -4.3397   -2.7255   -0.4565 O   0  0  0  0  0  0  0  0  0  0  0  0
   -0.5487   -0.8366    1.8521 O   0  0  0  0  0  0  0  0  0  0  0  0
    4.1189   -1.2328    0.6125 N   0  0  0  0  0  0  0  0  0  0  0  0
   -4.1266    1.2319    0.5901 N   0  0  0  0  0  0  0  0  0  0  0  0
    3.1522    0.7059   -0.4431 N   0  0  0  0  0  0  0  0  0  0  0  0
   -3.1619   -0.7283   -0.4267 N   0  0  0  0  0  0  0  0  0  0  0  0
   -0.0046   -0.0114   -0.3267 C   0  0  0  0  0  0  0  0  0  0  0  0
    1.0117   -0.6711   -1.0177 C   0  0  0  0  0  0  0  0  0  0  0  0
   -1.0208    0.6349   -1.0305 C   0  0  0  0  0  0  0  0  0  0  0  0
    1.0120   -0.6842   -2.4124 C   0  0  0  0  0  0  0  0  0  0  0  0
   -1.0207    0.6217   -2.4253 C   0  0  0  0  0  0  0  0  0  0  0  0
   -0.0042   -0.0379   -3.1162 C   0  0  0  0  0  0  0  0  0  0  0  0
   -0.0044    0.0030    1.1318 C   0  0  0  0  0  0  0  0  0  0  0  0
    3.1492   -0.5769   -0.0457 C   0  0  0  0  0  0  0  0  0  0  0  0
   -3.1577    0.5623   -0.0554 C   0  0  0  0  0  0  0  0  0  0  0  0
    5.2098   -0.4901    0.8927 C   0  0  0  0  0  0  0  0  0  0  0  0
   -5.2179    0.4959    0.8860 C   0  0  0  0  0  0  0  0  0  0  0  0
    4.2729    1.3891   -0.1304 C   0  0  0  0  0  0  0  0  0  0  0  0
   -4.2829   -1.4042   -0.0997 C   0  0  0  0  0  0  0  0  0  0  0  0
    5.3441    0.8378    0.5424 C   0  0  0  0  0  0  0  0  0  0  0  0
   -5.3532   -0.8389    0.5625 C   0  0  0  0  0  0  0  0  0  0  0  0
    6.0371   -2.4800    1.8986 C   0  0  0  0  0  0  0  0  0  0  0  0
   -6.0431    2.5061    1.8521 C   0  0  0  0  0  0  0  0  0  0  0  0
    3.1958    3.2174   -1.2041 C   0  0  0  0  0  0  0  0  0  0  0  0
   -3.2077   -3.2547   -1.1370 C   0  0  0  0  0  0  0  0  0  0  0  0
    1.7996   -1.1966   -2.9585 H   0  0  0  0  0  0  0  0  0  0  0  0
   -1.8079    1.1240   -2.9812 H   0  0  0  0  0  0  0  0  0  0  0  0
   -0.0039   -0.0481   -4.2022 H   0  0  0  0  0  0  0  0  0  0  0  0
    6.2320    1.4100    0.7800 H   0  0  0  0  0  0  0  0  0  0  0  0
   -6.2414   -1.4055    0.8122 H   0  0  0  0  0  0  0  0  0  0  0  0
    0.6746    1.0677    2.6185 H   0  0  0  0  0  0  0  0  0  0  0  0
    6.9312   -2.8270    2.4252 H   0  0  0  0  0  0  0  0  0  0  0  0
    5.1810   -2.6026    2.5706 H   0  0  0  0  0  0  0  0  0  0  0  0
    5.9172   -3.0918    0.9982 H   0  0  0  0  0  0  0  0  0  0  0  0
   -6.9366    2.8642    2.3721 H   0  0  0  0  0  0  0  0  0  0  0  0
   -5.1865    2.6417    2.5208 H   0  0  0  0  0  0  0  0  0  0  0  0
   -5.9234    3.0996    0.9395 H   0  0  0  0  0  0  0  0  0  0  0  0
    2.2996    3.1729   -0.5758 H   0  0  0  0  0  0  0  0  0  0  0  0
    3.3921    4.2678   -1.4381 H   0  0  0  0  0  0  0  0  0  0  0  0
    3.0359    2.6850   -2.1478 H   0  0  0  0  0  0  0  0  0  0  0  0
   -2.3110   -3.1980   -0.5106 H   0  0  0  0  0  0  0  0  0  0  0  0
   -3.4050   -4.3096   -1.3494 H   0  0  0  0  0  0  0  0  0  0  0  0
   -3.0483   -2.7418   -2.0915 H   0  0  0  0  0  0  0  0  0  0  0  0
  1 14  1  0  0  0  0
  1 20  1  0  0  0  0
  2 15  1  0  0  0  0
  2 21  1  0  0  0  0
  3 19  1  0  0  0  0
  3 37  1  0  0  0  0
  4 22  1  0  0  0  0
  4 28  1  0  0  0  0
  5 23  1  0  0  0  0
  5 29  1  0  0  0  0
  6 24  1  0  0  0  0
  6 30  1  0  0  0  0
  7 25  1  0  0  0  0
  7 31  1  0  0  0  0
  8 19  2  0  0  0  0
  9 20  1  0  0  0  0
  9 22  2  0  0  0  0
 10 21  1  0  0  0  0
 10 23  2  0  0  0  0
 11 20  2  0  0  0  0
 11 24  1  0  0  0  0
 12 21  2  0  0  0  0
 12 25  1  0  0  0  0
 13 14  2  0  0  0  0
 13 15  1  0  0  0  0
 13 19  1  0  0  0  0
 14 16  1  0  0  0  0
 15 17  2  0  0  0  0
 16 18  2  0  0  0  0
 16 32  1  0  0  0  0
 17 18  1  0  0  0  0
 17 33  1  0  0  0  0
 18 34  1  0  0  0  0
 22 26  1  0  0  0  0
 23 27  1  0  0  0  0
 24 26  2  0  0  0  0
 25 27  2  0  0  0  0
 26 35  1  0  0  0  0
 27 36  1  0  0  0  0
 28 38  1  0  0  0  0
 28 39  1  0  0  0  0
 28 40  1  0  0  0  0
 29 41  1  0  0  0  0
 29 42  1  0  0  0  0
 29 43  1  0  0  0  0
 30 44  1  0  0  0  0
 30 45  1  0  0  0  0
 30 46  1  0  0  0  0
 31 47  1  0  0  0  0
 31 48  1  0  0  0  0
 31 49  1  0  0  0  0
M  END
> <PUBCHEM_COMPOUND_CID>
443031

> <PUBCHEM_CONFORMER_RMSD>
1

> <PUBCHEM_CONFORMER_DIVERSEORDER>
1
63
47
6
35
26
62
44
11
13
61
24
48
50
12
38
49
54
34
28
8
43
23
58
64
5
9
31
51
10
36
55
16
3
20
18
19
45
27
56
60
25
32
52
37
57
2
29
53
15
59
46
41
7
17
39
22
30
33
40
21
42
14
4

> <PUBCHEM_MMFF94_PARTIAL_CHARGES>
37
1 -0.17
10 -0.62
11 -0.62
12 -0.62
13 0.09
14 0.08
15 0.08
16 -0.15
17 -0.15
18 -0.15
19 0.63
2 -0.17
20 0.7
21 0.7
22 0.39
23 0.39
24 0.39
25 0.39
26 -0.15
27 -0.15
28 0.28
29 0.28
3 -0.65
30 0.28
31 0.28
32 0.15
33 0.15
34 0.15
35 0.15
36 0.15
37 0.5
4 -0.36
5 -0.36
6 -0.36
7 -0.36
8 -0.57
9 -0.62

> <PUBCHEM_EFFECTIVE_ROTOR_COUNT>
9

> <PUBCHEM_PHARMACOPHORE_FEATURES>
10
1 3 acceptor
1 6 acceptor
1 7 acceptor
1 8 acceptor
3 10 12 21 cation
3 3 8 19 anion
3 9 11 20 cation
6 10 12 21 23 25 27 rings
6 13 14 15 16 17 18 rings
6 9 11 20 22 24 26 rings

> <PUBCHEM_HEAVY_ATOM_COUNT>
31

> <PUBCHEM_ATOM_DEF_STEREO_COUNT>
0

> <PUBCHEM_ATOM_UDEF_STEREO_COUNT>
0

> <PUBCHEM_BOND_DEF_STEREO_COUNT>
0

> <PUBCHEM_BOND_UDEF_STEREO_COUNT>
0

> <PUBCHEM_ISOTOPIC_ATOM_COUNT>
0

> <PUBCHEM_COMPONENT_COUNT>
1

> <PUBCHEM_CACTVS_TAUTO_COUNT>
1

> <PUBCHEM_CONFORMER_ID>
0006C29700000001

> <PUBCHEM_MMFF94_ENERGY>
121.2535

> <PUBCHEM_FEATURE_SELFOVERLAP>
50.801

> <PUBCHEM_SHAPE_FINGERPRINT>
10675989 125 17174032616415376225
12107183 9 18338799034326613531
12166972 35 13542452189883064974
12403259 118 17894635833356511501
12422481 6 17895194432676990436
12616971 3 18343582940694315161
12633257 1 18410855464428410407
13533116 47 17917711297369465392
13673619 4 17346599738033970734
13782708 43 16844743052998874450
14341114 328 18335979792034381588
14950920 106 18410864239051890338
14955137 171 16271915013539983161
15238133 3 17967811660853224064
1601671 61 16950558895902764041
17349148 13 16774072968787091183
17980427 23 18058157345986126165
18222031 100 15482671282108369876
23402539 116 16988851604458785479
23522609 53 18199162075728701300
23559900 14 17751334369890077695
23569914 152 15976442304304390590
23569943 247 17345204478372881499
3633792 109 18201170884442617959
392239 28 18343584053154466641
4340502 62 18187358869970117215
5104073 3 18410856525280051832
86090 222 16199862985832465058

> <PUBCHEM_SHAPE_MULTIPOLES>
571.09
14.83
2.77
2.24
0.14
0.02
-1.04
-0.03
10.17
0.07
-0.03
-0.06
0.02
-3.74

> <PUBCHEM_SHAPE_SELFOVERLAP>
1234.955

> <PUBCHEM_SHAPE_VOLUME>
310.7

> <PUBCHEM_COORDINATE_TYPE>
2
5
10

$$$$

