168809
  -OEChem-07051212483D

 55 57  0     1  0  0  0  0  0999 V2000
   -8.0075   -1.0789    0.4190 O   0  0  0  0  0  0  0  0  0  0  0  0
   -3.4803   -0.4391    2.5412 O   0  0  0  0  0  0  0  0  0  0  0  0
   -6.3920   -1.9629   -0.9073 O   0  0  0  0  0  0  0  0  0  0  0  0
    6.9832   -1.0276   -0.1831 O   0  0  0  0  0  0  0  0  0  0  0  0
   -6.0892    3.6811   -2.0781 O   0  0  0  0  0  0  0  0  0  0  0  0
    3.5767   -3.6761   -0.5731 O   0  0  0  0  0  0  0  0  0  0  0  0
   -6.4286    3.9437    0.1497 O   0  0  0  0  0  0  0  0  0  0  0  0
    1.7571   -2.1947   -0.7468 N   0  0  0  0  0  0  0  0  0  0  0  0
    3.3121    1.9105   -0.3538 N   0  0  0  0  0  0  0  0  0  0  0  0
   -4.4245   -0.7236    0.4426 N   0  0  0  0  0  0  0  0  0  0  0  0
    4.3727   -0.6081   -0.8760 N   0  0  0  0  0  0  0  0  0  0  0  0
    5.4530    2.5591    0.5580 N   0  0  0  0  0  0  0  0  0  0  0  0
    7.2938    1.0897    0.6454 N   0  0  0  0  0  0  0  0  0  0  0  0
    7.4407    3.2953    1.4495 N   0  0  0  0  0  0  0  0  0  0  0  0
    3.1364   -0.3632   -1.1935 C   0  0  0  0  0  0  0  0  0  0  0  0
    2.3319   -1.4679   -1.8306 C   0  0  0  0  0  0  0  0  0  0  0  0
   -5.7718   -0.3549    0.8135 C   0  0  1  0  0  0  0  0  0  0  0  0
    2.4278    0.9597   -0.9752 C   0  0  0  0  0  0  0  0  0  0  0  0
   -6.0303    1.1512    0.6851 C   0  0  0  0  0  0  0  0  0  0  0  0
    4.6199    1.6348   -0.0276 C   0  0  0  0  0  0  0  0  0  0  0  0
    0.4474   -1.8215   -0.2113 C   0  0  0  0  0  0  0  0  0  0  0  0
    5.1012    0.4025   -0.2960 C   0  0  0  0  0  0  0  0  0  0  0  0
   -5.9061    1.7323   -0.7293 C   0  0  0  0  0  0  0  0  0  0  0  0
   -2.0502   -1.1123    0.8092 C   0  0  0  0  0  0  0  0  0  0  0  0
   -3.3518   -0.7422    1.3417 C   0  0  0  0  0  0  0  0  0  0  0  0
   -0.5079   -1.2414   -1.0460 C   0  0  0  0  0  0  0  0  0  0  0  0
    0.1538   -2.0471    1.1336 C   0  0  0  0  0  0  0  0  0  0  0  0
   -1.7567   -0.8869   -0.5357 C   0  0  0  0  0  0  0  0  0  0  0  0
   -1.0950   -1.6925    1.6438 C   0  0  0  0  0  0  0  0  0  0  0  0
   -6.7215   -1.2098   -0.0001 C   0  0  0  0  0  0  0  0  0  0  0  0
    6.5347    0.0909    0.0581 C   0  0  0  0  0  0  0  0  0  0  0  0
    2.4745   -3.2810   -0.1996 C   0  0  0  0  0  0  0  0  0  0  0  0
    6.7547    2.2580    0.8732 C   0  0  0  0  0  0  0  0  0  0  0  0
   -6.1582    3.2229   -0.8007 C   0  0  0  0  0  0  0  0  0  0  0  0
    3.0113   -2.1117   -2.4014 H   0  0  0  0  0  0  0  0  0  0  0  0
    1.6136   -1.0588   -2.5404 H   0  0  0  0  0  0  0  0  0  0  0  0
   -5.9092   -0.6459    1.8626 H   0  0  0  0  0  0  0  0  0  0  0  0
    1.5559    0.8084   -0.3350 H   0  0  0  0  0  0  0  0  0  0  0  0
    2.0891    1.3414   -1.9434 H   0  0  0  0  0  0  0  0  0  0  0  0
   -7.0363    1.3747    1.0638 H   0  0  0  0  0  0  0  0  0  0  0  0
   -5.3347    1.6876    1.3441 H   0  0  0  0  0  0  0  0  0  0  0  0
    2.9723    2.8425   -0.1433 H   0  0  0  0  0  0  0  0  0  0  0  0
   -4.2794   -1.0097   -0.5202 H   0  0  0  0  0  0  0  0  0  0  0  0
   -6.6292    1.2426   -1.3907 H   0  0  0  0  0  0  0  0  0  0  0  0
   -4.8970    1.5503   -1.1151 H   0  0  0  0  0  0  0  0  0  0  0  0
   -0.3389   -1.0686   -2.1028 H   0  0  0  0  0  0  0  0  0  0  0  0
    0.8821   -2.4622    1.8237 H   0  0  0  0  0  0  0  0  0  0  0  0
   -2.4613   -0.4147   -1.2141 H   0  0  0  0  0  0  0  0  0  0  0  0
   -1.3035   -1.8726    2.6953 H   0  0  0  0  0  0  0  0  0  0  0  0
    5.0610    3.4748    0.7462 H   0  0  0  0  0  0  0  0  0  0  0  0
    1.9321   -3.8119    0.5953 H   0  0  0  0  0  0  0  0  0  0  0  0
   -8.6196   -1.6451   -0.0978 H   0  0  0  0  0  0  0  0  0  0  0  0
    7.0000    4.1935    1.6159 H   0  0  0  0  0  0  0  0  0  0  0  0
    8.4110    3.1936    1.7263 H   0  0  0  0  0  0  0  0  0  0  0  0
   -6.2697    4.6439   -2.1311 H   0  0  0  0  0  0  0  0  0  0  0  0
  1 30  1  0  0  0  0
  1 52  1  0  0  0  0
  2 25  2  0  0  0  0
  3 30  2  0  0  0  0
  4 31  2  0  0  0  0
  5 34  1  0  0  0  0
  5 55  1  0  0  0  0
  6 32  2  0  0  0  0
  7 34  2  0  0  0  0
  8 16  1  0  0  0  0
  8 21  1  0  0  0  0
  8 32  1  0  0  0  0
  9 18  1  0  0  0  0
  9 20  1  0  0  0  0
  9 42  1  0  0  0  0
 10 17  1  0  0  0  0
 10 25  1  0  0  0  0
 10 43  1  0  0  0  0
 11 15  2  0  0  0  0
 11 22  1  0  0  0  0
 12 20  1  0  0  0  0
 12 33  1  0  0  0  0
 12 50  1  0  0  0  0
 13 31  1  0  0  0  0
 13 33  2  0  0  0  0
 14 33  1  0  0  0  0
 14 53  1  0  0  0  0
 14 54  1  0  0  0  0
 15 16  1  0  0  0  0
 15 18  1  0  0  0  0
 16 35  1  0  0  0  0
 16 36  1  0  0  0  0
 17 19  1  0  0  0  0
 17 30  1  0  0  0  0
 17 37  1  0  0  0  0
 18 38  1  0  0  0  0
 18 39  1  0  0  0  0
 19 23  1  0  0  0  0
 19 40  1  0  0  0  0
 19 41  1  0  0  0  0
 20 22  2  0  0  0  0
 21 26  2  0  0  0  0
 21 27  1  0  0  0  0
 22 31  1  0  0  0  0
 23 34  1  0  0  0  0
 23 44  1  0  0  0  0
 23 45  1  0  0  0  0
 24 25  1  0  0  0  0
 24 28  2  0  0  0  0
 24 29  1  0  0  0  0
 26 28  1  0  0  0  0
 26 46  1  0  0  0  0
 27 29  2  0  0  0  0
 27 47  1  0  0  0  0
 28 48  1  0  0  0  0
 29 49  1  0  0  0  0
 32 51  1  0  0  0  0
M  END
> <PUBCHEM_COMPOUND_CID>
168809

> <PUBCHEM_CONFORMER_RMSD>
1.2

> <PUBCHEM_CONFORMER_DIVERSEORDER>
4
10
30
111
43
112
105
29
52
6
11
56
64
72
13
58
55
36
60
27
104
94
41
26
90
107
84
106
51
69
83
65
97
70
103
95
37
102
39
62
17
100
42
98
1
109
31
66
8
24
20
76
86
5
68
50
21
15
25
67
35
49
2
88
81
9
38
91
77
78
71
59
92
63
85
48
99
22
40
73
80
44
18
46
101
79
93
23
74
3
75
7
12
19
61
28
33
54
34
16
87
47
45
110
57
89
108
32
14
96
82
53

> <PUBCHEM_MMFF94_PARTIAL_CHARGES>
45
1 -0.65
10 -0.73
11 -0.62
12 -0.55
13 -0.66
14 -0.85
15 0.33
16 0.36
17 0.36
18 0.43
2 -0.57
20 0.2
21 0.12
22 0.19
23 0.06
24 0.09
25 0.54
26 -0.15
27 -0.15
28 -0.15
29 -0.15
3 -0.57
30 0.66
31 0.77
32 0.57
33 0.55
34 0.66
4 -0.57
42 0.4
43 0.37
46 0.15
47 0.15
48 0.15
49 0.15
5 -0.65
50 0.4
51 0.06
52 0.5
53 0.4
54 0.4
55 0.5
6 -0.57
7 -0.57
8 -0.48
9 -0.87

> <PUBCHEM_EFFECTIVE_ROTOR_COUNT>
11.4

> <PUBCHEM_PHARMACOPHORE_FEATURES>
19
1 1 acceptor
1 10 donor
1 11 acceptor
1 12 donor
1 13 donor
1 14 donor
1 2 acceptor
1 3 acceptor
1 4 acceptor
1 5 acceptor
1 6 acceptor
1 7 acceptor
1 9 cation
1 9 donor
3 1 3 30 anion
3 5 7 34 anion
6 12 13 20 22 31 33 rings
6 21 24 26 27 28 29 rings
6 9 11 15 18 20 22 rings

> <PUBCHEM_HEAVY_ATOM_COUNT>
34

> <PUBCHEM_ATOM_DEF_STEREO_COUNT>
1

> <PUBCHEM_ATOM_UDEF_STEREO_COUNT>
0

> <PUBCHEM_BOND_DEF_STEREO_COUNT>
0

> <PUBCHEM_BOND_UDEF_STEREO_COUNT>
0

> <PUBCHEM_ISOTOPIC_ATOM_COUNT>
0

> <PUBCHEM_COMPONENT_COUNT>
1

> <PUBCHEM_CACTVS_TAUTO_COUNT>
66

> <PUBCHEM_CONFORMER_ID>
0002936900000004

> <PUBCHEM_MMFF94_ENERGY>
102.8591

> <PUBCHEM_FEATURE_SELFOVERLAP>
96.726

> <PUBCHEM_SHAPE_FINGERPRINT>
10319926 262 17560791088014085386
11135609 127 18262806305917279119
11374522 165 18341062903115367568
12592606 108 12319459844973706963
13165053 68 18190181187338607831
13673619 4 8646503898620055682
13878862 14 17603874399530327152
14556957 393 17023743562869576849
14767858 380 16081364154988162355
15183329 4 16988844968939937553
15289351 153 18341904029810412970
17686467 74 18412540982744655899
19246450 95 14764086596052605101
19304144 158 18334295362344591103
20157964 124 17968086513576128038
20511986 3 17749115465547364302
21033648 29 17988067976709830983
21403212 168 18335140869981092826
21859007 373 18272087248806743228
23569914 2 17838941231868079485
2838139 119 18411699868289907367
439807 62 9655313526876273832
5104073 3 17631726197113377203
54039377 194 12463033017252344416
999808 66 9943806699012850577

> <PUBCHEM_SHAPE_MULTIPOLES>
623.75
23.65
4.17
1.53
6.1
2.6
-0.19
18.32
-2.22
1.1
0.59
0.73
0.1
4.05

> <PUBCHEM_SHAPE_SELFOVERLAP>
1330.467

> <PUBCHEM_SHAPE_VOLUME>
339.9

> <PUBCHEM_COORDINATE_TYPE>
2
5
10

$$$$

