66095
  -OEChem-07051212492D

 29 29  0     0  0  0  0  0  0999 V2000
    2.5369    0.3100    0.0000 O   0  0  0  0  0  0  0  0  0  0  0  0
    2.5369   -1.6900    0.0000 O   0  0  0  0  0  0  0  0  0  0  0  0
    4.2690    1.3100    0.0000 C   0  0  0  0  0  0  0  0  0  0  0  0
    4.2690    0.3100    0.0000 C   0  0  0  0  0  0  0  0  0  0  0  0
    4.2690    2.3100    0.0000 C   0  0  0  0  0  0  0  0  0  0  0  0
    5.2690    1.3100    0.0000 C   0  0  0  0  0  0  0  0  0  0  0  0
    3.2690    1.3100    0.0000 C   0  0  0  0  0  0  0  0  0  0  0  0
    5.1350   -0.1900    0.0000 C   0  0  0  0  0  0  0  0  0  0  0  0
    3.4030   -0.1900    0.0000 C   0  0  0  0  0  0  0  0  0  0  0  0
    5.1350   -1.1900    0.0000 C   0  0  0  0  0  0  0  0  0  0  0  0
    3.4030   -1.1900    0.0000 C   0  0  0  0  0  0  0  0  0  0  0  0
    4.2690   -1.6900    0.0000 C   0  0  0  0  0  0  0  0  0  0  0  0
    6.0010   -1.6900    0.0000 C   0  0  0  0  0  0  0  0  0  0  0  0
    4.8890    2.3100    0.0000 H   0  0  0  0  0  0  0  0  0  0  0  0
    4.2690    2.9300    0.0000 H   0  0  0  0  0  0  0  0  0  0  0  0
    3.6490    2.3100    0.0000 H   0  0  0  0  0  0  0  0  0  0  0  0
    5.2690    0.6900    0.0000 H   0  0  0  0  0  0  0  0  0  0  0  0
    5.8890    1.3100    0.0000 H   0  0  0  0  0  0  0  0  0  0  0  0
    5.2690    1.9300    0.0000 H   0  0  0  0  0  0  0  0  0  0  0  0
    3.2690    1.9300    0.0000 H   0  0  0  0  0  0  0  0  0  0  0  0
    2.6490    1.3100    0.0000 H   0  0  0  0  0  0  0  0  0  0  0  0
    3.2690    0.6900    0.0000 H   0  0  0  0  0  0  0  0  0  0  0  0
    5.6720    0.1200    0.0000 H   0  0  0  0  0  0  0  0  0  0  0  0
    4.2690   -2.3100    0.0000 H   0  0  0  0  0  0  0  0  0  0  0  0
    5.6910   -2.2269    0.0000 H   0  0  0  0  0  0  0  0  0  0  0  0
    6.5380   -2.0000    0.0000 H   0  0  0  0  0  0  0  0  0  0  0  0
    6.3110   -1.1531    0.0000 H   0  0  0  0  0  0  0  0  0  0  0  0
    2.0000    0.0000    0.0000 H   0  0  0  0  0  0  0  0  0  0  0  0
    2.5369   -2.3100    0.0000 H   0  0  0  0  0  0  0  0  0  0  0  0
  1  9  1  0  0  0  0
  1 28  1  0  0  0  0
  2 11  1  0  0  0  0
  2 29  1  0  0  0  0
  3  4  1  0  0  0  0
  3  5  1  0  0  0  0
  3  6  1  0  0  0  0
  3  7  1  0  0  0  0
  4  8  1  0  0  0  0
  4  9  2  0  0  0  0
  5 14  1  0  0  0  0
  5 15  1  0  0  0  0
  5 16  1  0  0  0  0
  6 17  1  0  0  0  0
  6 18  1  0  0  0  0
  6 19  1  0  0  0  0
  7 20  1  0  0  0  0
  7 21  1  0  0  0  0
  7 22  1  0  0  0  0
  8 10  2  0  0  0  0
  8 23  1  0  0  0  0
  9 11  1  0  0  0  0
 10 12  1  0  0  0  0
 10 13  1  0  0  0  0
 11 12  2  0  0  0  0
 12 24  1  0  0  0  0
 13 25  1  0  0  0  0
 13 26  1  0  0  0  0
 13 27  1  0  0  0  0
M  END
> <PUBCHEM_COMPOUND_CID>
66095

> <PUBCHEM_COMPOUND_CANONICALIZED>
1

> <PUBCHEM_CACTVS_COMPLEXITY>
171

> <PUBCHEM_CACTVS_HBOND_ACCEPTOR>
2

> <PUBCHEM_CACTVS_HBOND_DONOR>
2

> <PUBCHEM_CACTVS_ROTATABLE_BOND>
1

> <PUBCHEM_CACTVS_SUBSKEYS>
AAADceBwMAAAAAAAAAAAAAAAAAAAAAAAAAAwAAAAAAAAAAABAAAAGgAACAAADgSAmAAyBoAAAgCAAiBCAAACAAAgIAAAiAAGiIgJJiKCERKAcAEkwBEJmAeAwPAPoAADAAAIQABAAAYAABCAAAAAAAAAAA==

> <PUBCHEM_IUPAC_OPENEYE_NAME>
3-tert-butyl-5-methyl-benzene-1,2-diol

> <PUBCHEM_IUPAC_CAS_NAME>
3-tert-butyl-5-methylbenzene-1,2-diol

> <PUBCHEM_IUPAC_NAME>
3-tert-butyl-5-methylbenzene-1,2-diol

> <PUBCHEM_IUPAC_SYSTEMATIC_NAME>
3-tert-butyl-5-methyl-benzene-1,2-diol

> <PUBCHEM_IUPAC_TRADITIONAL_NAME>
3-tert-butyl-5-methyl-pyrocatechol

> <PUBCHEM_IUPAC_INCHI>
InChI=1S/C11H16O2/c1-7-5-8(11(2,3)4)10(13)9(12)6-7/h5-6,12-13H,1-4H3

> <PUBCHEM_IUPAC_INCHIKEY>
YKYXORJDSTUCTN-UHFFFAOYSA-N

> <PUBCHEM_XLOGP3_AA>
3.2

> <PUBCHEM_EXACT_MASS>
180.11503

> <PUBCHEM_MOLECULAR_FORMULA>
C11H16O2

> <PUBCHEM_MOLECULAR_WEIGHT>
180.24354

> <PUBCHEM_OPENEYE_CAN_SMILES>
CC1=CC(=C(C(=C1)O)O)C(C)(C)C

> <PUBCHEM_OPENEYE_ISO_SMILES>
CC1=CC(=C(C(=C1)O)O)C(C)(C)C

> <PUBCHEM_CACTVS_TPSA>
40.5

> <PUBCHEM_MONOISOTOPIC_WEIGHT>
180.11503

> <PUBCHEM_TOTAL_CHARGE>
0

> <PUBCHEM_HEAVY_ATOM_COUNT>
13

> <PUBCHEM_ATOM_DEF_STEREO_COUNT>
0

> <PUBCHEM_ATOM_UDEF_STEREO_COUNT>
0

> <PUBCHEM_BOND_DEF_STEREO_COUNT>
0

> <PUBCHEM_BOND_UDEF_STEREO_COUNT>
0

> <PUBCHEM_ISOTOPIC_ATOM_COUNT>
0

> <PUBCHEM_COMPONENT_COUNT>
1

> <PUBCHEM_CACTVS_TAUTO_COUNT>
18

> <PUBCHEM_COORDINATE_TYPE>
1
5
255

> <PUBCHEM_BONDANNOTATIONS>
10  12  8
11  12  8
4  8  8
4  9  8
8  10  8
9  11  8

$$$$

