440001
  -OEChem-07051212483D

 41 41  0     1  0  0  0  0  0999 V2000
   -1.4733    0.0335    0.1931 O   0  0  0  0  0  0  0  0  0  0  0  0
    0.9075   -3.3452    0.1523 O   0  0  0  0  0  0  0  0  0  0  0  0
    0.5013    1.4253    1.6026 O   0  0  0  0  0  0  0  0  0  0  0  0
   -2.4352   -1.1158   -1.6486 O   0  0  0  0  0  0  0  0  0  0  0  0
   -0.7975    2.7901   -1.5357 O   0  0  0  0  0  0  0  0  0  0  0  0
   -4.1264   -2.2896    0.0938 O   0  0  0  0  0  0  0  0  0  0  0  0
   -1.0428    5.0971   -0.0508 O   0  0  0  0  0  0  0  0  0  0  0  0
   -3.8214   -0.3274    1.2132 O   0  0  0  0  0  0  0  0  0  0  0  0
    3.3278   -0.6798    1.3459 O   0  0  0  0  0  0  0  0  0  0  0  0
    5.6297   -0.3995   -0.0211 O   0  0  0  0  0  0  0  0  0  0  0  0
    2.0665   -0.7650   -0.6066 N   0  0  0  0  0  0  0  0  0  0  0  0
    0.7688   -0.9268    0.0099 C   0  0  1  0  0  0  0  0  0  0  0  0
   -0.1660    0.2379   -0.3561 C   0  0  2  0  0  0  0  0  0  0  0  0
    0.1534   -2.2701   -0.4030 C   0  0  2  0  0  0  0  0  0  0  0  0
   -1.2820   -2.3872    0.1061 C   0  0  0  0  0  0  0  0  0  0  0  0
   -2.1034   -1.1559   -0.2684 C   0  0  1  0  0  0  0  0  0  0  0  0
    0.3348    1.5707    0.1948 C   0  0  1  0  0  0  0  0  0  0  0  0
   -0.6118    2.7367   -0.1166 C   0  0  1  0  0  0  0  0  0  0  0  0
   -3.4239   -1.1817    0.4350 C   0  0  0  0  0  0  0  0  0  0  0  0
   -0.0911    4.1037    0.3212 C   0  0  0  0  0  0  0  0  0  0  0  0
    3.2405   -0.6549    0.1212 C   0  0  0  0  0  0  0  0  0  0  0  0
    4.4446   -0.4963   -0.7823 C   0  0  0  0  0  0  0  0  0  0  0  0
    0.9032   -0.9601    1.0986 H   0  0  0  0  0  0  0  0  0  0  0  0
   -0.2523    0.3104   -1.4483 H   0  0  0  0  0  0  0  0  0  0  0  0
    0.1781   -2.3846   -1.4929 H   0  0  0  0  0  0  0  0  0  0  0  0
   -1.2633   -2.5077    1.1982 H   0  0  0  0  0  0  0  0  0  0  0  0
   -1.7259   -3.3076   -0.2942 H   0  0  0  0  0  0  0  0  0  0  0  0
    1.3196    1.7912   -0.2333 H   0  0  0  0  0  0  0  0  0  0  0  0
   -1.5965    2.5754    0.3380 H   0  0  0  0  0  0  0  0  0  0  0  0
    2.1089   -0.7314   -1.6213 H   0  0  0  0  0  0  0  0  0  0  0  0
    0.9155   -3.2425    1.1192 H   0  0  0  0  0  0  0  0  0  0  0  0
    0.8512    4.3423   -0.1827 H   0  0  0  0  0  0  0  0  0  0  0  0
    0.0542    4.1449    1.4048 H   0  0  0  0  0  0  0  0  0  0  0  0
   -0.3731    1.2408    1.9865 H   0  0  0  0  0  0  0  0  0  0  0  0
   -1.9204   -1.7920   -2.1187 H   0  0  0  0  0  0  0  0  0  0  0  0
   -1.4140    3.5189   -1.7218 H   0  0  0  0  0  0  0  0  0  0  0  0
    4.5227   -1.3695   -1.4368 H   0  0  0  0  0  0  0  0  0  0  0  0
    4.3362    0.4029   -1.3967 H   0  0  0  0  0  0  0  0  0  0  0  0
   -4.9958   -2.3262    0.5467 H   0  0  0  0  0  0  0  0  0  0  0  0
   -0.6857    5.9545    0.2369 H   0  0  0  0  0  0  0  0  0  0  0  0
    5.5829    0.4269    0.4893 H   0  0  0  0  0  0  0  0  0  0  0  0
  1 13  1  0  0  0  0
  1 16  1  0  0  0  0
  2 14  1  0  0  0  0
  2 31  1  0  0  0  0
  3 17  1  0  0  0  0
  3 34  1  0  0  0  0
  4 16  1  0  0  0  0
  4 35  1  0  0  0  0
  5 18  1  0  0  0  0
  5 36  1  0  0  0  0
  6 19  1  0  0  0  0
  6 39  1  0  0  0  0
  7 20  1  0  0  0  0
  7 40  1  0  0  0  0
  8 19  2  0  0  0  0
  9 21  2  0  0  0  0
 10 22  1  0  0  0  0
 10 41  1  0  0  0  0
 11 12  1  0  0  0  0
 11 21  1  0  0  0  0
 11 30  1  0  0  0  0
 12 13  1  0  0  0  0
 12 14  1  0  0  0  0
 12 23  1  0  0  0  0
 13 17  1  0  0  0  0
 13 24  1  0  0  0  0
 14 15  1  0  0  0  0
 14 25  1  0  0  0  0
 15 16  1  0  0  0  0
 15 26  1  0  0  0  0
 15 27  1  0  0  0  0
 16 19  1  0  0  0  0
 17 18  1  0  0  0  0
 17 28  1  0  0  0  0
 18 20  1  0  0  0  0
 18 29  1  0  0  0  0
 20 32  1  0  0  0  0
 20 33  1  0  0  0  0
 21 22  1  0  0  0  0
 22 37  1  0  0  0  0
 22 38  1  0  0  0  0
M  END
> <PUBCHEM_COMPOUND_CID>
440001

> <PUBCHEM_CONFORMER_RMSD>
0.8

> <PUBCHEM_CONFORMER_DIVERSEORDER>
1
108
110
70
41
75
112
107
91
93
87
25
63
66
109
83
26
46
65
99
74
84
30
69
106
53
95
82
77
111
85
102
58
78
94
104
62
51
56
96
43
34
6
97
7
88
19
73
55
33
42
100
105
103
60
79
48
92
98
11
24
12
40
72
67
59
68
44
101
16
64
39
37
49
80
90
9
86
36
22
89
20
23
5
45
61
38
71
18
29
4
57
50
52
31
3
27
54
28
21
2
32
10
14
8
15
81
17
35
76
13
47

> <PUBCHEM_MMFF94_PARTIAL_CHARGES>
29
1 -0.56
10 -0.68
11 -0.73
12 0.3
13 0.28
14 0.28
16 0.62
17 0.28
18 0.28
19 0.66
2 -0.68
20 0.28
21 0.57
22 0.34
3 -0.68
30 0.37
31 0.4
34 0.4
35 0.4
36 0.4
39 0.5
4 -0.68
40 0.4
41 0.4
5 -0.68
6 -0.65
7 -0.68
8 -0.57
9 -0.57

> <PUBCHEM_EFFECTIVE_ROTOR_COUNT>
8.2

> <PUBCHEM_PHARMACOPHORE_FEATURES>
19
1 1 acceptor
1 10 acceptor
1 10 donor
1 11 donor
1 2 acceptor
1 2 donor
1 3 acceptor
1 3 donor
1 4 acceptor
1 4 donor
1 5 acceptor
1 5 donor
1 6 acceptor
1 7 acceptor
1 7 donor
1 8 acceptor
1 9 acceptor
3 6 8 19 anion
6 1 12 13 14 15 16 rings

> <PUBCHEM_HEAVY_ATOM_COUNT>
22

> <PUBCHEM_ATOM_DEF_STEREO_COUNT>
5

> <PUBCHEM_ATOM_UDEF_STEREO_COUNT>
1

> <PUBCHEM_BOND_DEF_STEREO_COUNT>
0

> <PUBCHEM_BOND_UDEF_STEREO_COUNT>
0

> <PUBCHEM_ISOTOPIC_ATOM_COUNT>
0

> <PUBCHEM_COMPONENT_COUNT>
1

> <PUBCHEM_CACTVS_TAUTO_COUNT>
2

> <PUBCHEM_CONFORMER_ID>
0006B6C100000001

> <PUBCHEM_MMFF94_ENERGY>
40.8746

> <PUBCHEM_FEATURE_SELFOVERLAP>
96.55

> <PUBCHEM_SHAPE_FINGERPRINT>
104564 63 18338236084389061574
11680986 33 17906171750346668131
12553582 1 18411427189221985930
12788726 201 18343865541548751554
13132413 78 18334286561623915181
13140716 1 18410860970656137969
13965767 371 17321505678294315531
14790565 3 18338221713423825056
14955137 171 18267562651147975059
16945 1 18412832399305001806
17876694 64 18059842987701219588
1813 80 18261376820204398214
18785283 64 17764022471986479409
19427546 62 17259337198884797513
20028762 73 17898847942450639815
20097449 115 18410010992259062328
20510252 161 18336263539613248658
20511035 2 17610056772011828654
20600515 1 18189039920322466598
20671657 1 17906725908791645631
20739085 24 18265876000284346281
21029758 27 18340762641850833894
21041028 32 18337945706414949985
21285901 2 17896299437757823238
21330990 113 18336542810733666576
22907989 373 18341336698969608348
23366157 5 17694509143597187390
23402539 116 18333452032325339974
23419403 2 17749973075531567328
23558518 356 18056189413699616634
23559900 14 18123193394798857803
266924 87 18265618860698018134
2748010 2 18193583132190738269
283562 15 18341048609748484082
3071541 12 17905322927422350165
34934 24 18337670936008782587
350125 39 17835231247659723123
352729 6 17760377981919621210
4175511 71 18337950069763748939
4409770 3 18198915879739369317
589210 1 17907299110632029490
68521 5 18410569617470489020
7364860 26 17905324022665488309
81228 2 18268697488654523896
90316 7 18410865368638994938
9981440 41 17250949995512436906

> <PUBCHEM_SHAPE_MULTIPOLES>
389.08
6.56
4.86
1.07
6.05
7.6
-0.03
-4.85
0.45
-2.24
-0.21
-0.12
0.18
0.13

> <PUBCHEM_SHAPE_SELFOVERLAP>
789.755

> <PUBCHEM_SHAPE_VOLUME>
222.2

> <PUBCHEM_COORDINATE_TYPE>
2
5
10

$$$$

