17396405
  -OEChem-06241222562D

 39 41  0     0  0  0  0  0  0999 V2000
    7.7414    0.6042    0.0000 S   0  0  0  0  0  0  0  0  0  0  0  0
    3.5827    2.2678    0.0000 S   0  0  0  0  0  0  0  0  0  0  0  0
    9.9709    2.6116    0.0000 O   0  0  0  0  0  0  0  0  0  0  0  0
    5.9814    0.3254    0.0000 N   0  0  0  0  0  0  0  0  0  0  0  0
    5.4814    1.8643    0.0000 N   0  0  0  0  0  0  0  0  0  0  0  0
    6.4814    1.8643    0.0000 N   0  0  0  0  0  0  0  0  0  0  0  0
   11.1298    1.3244    0.0000 N   0  0  0  0  0  0  0  0  0  0  0  0
    5.1724    0.9132    0.0000 C   0  0  0  0  0  0  0  0  0  0  0  0
    4.2213    0.6042    0.0000 C   0  0  0  0  0  0  0  0  0  0  0  0
    5.9814   -0.6746    0.0000 C   0  0  0  0  0  0  0  0  0  0  0  0
    6.7904    0.9132    0.0000 C   0  0  0  0  0  0  0  0  0  0  0  0
    3.4782    1.2733    0.0000 C   0  0  0  0  0  0  0  0  0  0  0  0
    5.1153   -1.1746    0.0000 C   0  0  0  0  0  0  0  0  0  0  0  0
    6.8474   -1.1746    0.0000 C   0  0  0  0  0  0  0  0  0  0  0  0
    8.4846    1.2733    0.0000 C   0  0  0  0  0  0  0  0  0  0  0  0
    2.5000    1.0654    0.0000 C   0  0  0  0  0  0  0  0  0  0  0  0
    9.4356    0.9643    0.0000 C   0  0  0  0  0  0  0  0  0  0  0  0
    5.1153   -2.1746    0.0000 C   0  0  0  0  0  0  0  0  0  0  0  0
    6.8474   -2.1746    0.0000 C   0  0  0  0  0  0  0  0  0  0  0  0
    5.9814   -2.6746    0.0000 C   0  0  0  0  0  0  0  0  0  0  0  0
    2.0000    1.9314    0.0000 C   0  0  0  0  0  0  0  0  0  0  0  0
    2.6691    2.6746    0.0000 C   0  0  0  0  0  0  0  0  0  0  0  0
   10.1788    1.6334    0.0000 C   0  0  0  0  0  0  0  0  0  0  0  0
    3.7327    0.2225    0.0000 H   0  0  0  0  0  0  0  0  0  0  0  0
    4.5124    0.0568    0.0000 H   0  0  0  0  0  0  0  0  0  0  0  0
    8.7757    1.8208    0.0000 H   0  0  0  0  0  0  0  0  0  0  0  0
    7.9960    1.6550    0.0000 H   0  0  0  0  0  0  0  0  0  0  0  0
    4.5784   -0.8646    0.0000 H   0  0  0  0  0  0  0  0  0  0  0  0
    7.3843   -0.8646    0.0000 H   0  0  0  0  0  0  0  0  0  0  0  0
    9.1446    0.4169    0.0000 H   0  0  0  0  0  0  0  0  0  0  0  0
    9.9242    0.5826    0.0000 H   0  0  0  0  0  0  0  0  0  0  0  0
    2.2478    0.4990    0.0000 H   0  0  0  0  0  0  0  0  0  0  0  0
    4.5784   -2.4846    0.0000 H   0  0  0  0  0  0  0  0  0  0  0  0
    7.3843   -2.4846    0.0000 H   0  0  0  0  0  0  0  0  0  0  0  0
    5.9814   -3.2946    0.0000 H   0  0  0  0  0  0  0  0  0  0  0  0
    1.3834    1.9962    0.0000 H   0  0  0  0  0  0  0  0  0  0  0  0
    2.5402    3.2810    0.0000 H   0  0  0  0  0  0  0  0  0  0  0  0
   11.5906    1.7393    0.0000 H   0  0  0  0  0  0  0  0  0  0  0  0
   11.2587    0.7180    0.0000 H   0  0  0  0  0  0  0  0  0  0  0  0
  1 11  1  0  0  0  0
  1 15  1  0  0  0  0
  2 12  1  0  0  0  0
  2 22  1  0  0  0  0
  3 23  2  0  0  0  0
  4  8  1  0  0  0  0
  4 10  1  0  0  0  0
  4 11  1  0  0  0  0
  5  6  1  0  0  0  0
  5  8  2  0  0  0  0
  6 11  2  0  0  0  0
  7 23  1  0  0  0  0
  7 38  1  0  0  0  0
  7 39  1  0  0  0  0
  8  9  1  0  0  0  0
  9 12  1  0  0  0  0
  9 24  1  0  0  0  0
  9 25  1  0  0  0  0
 10 13  2  0  0  0  0
 10 14  1  0  0  0  0
 12 16  2  0  0  0  0
 13 18  1  0  0  0  0
 13 28  1  0  0  0  0
 14 19  2  0  0  0  0
 14 29  1  0  0  0  0
 15 17  1  0  0  0  0
 15 26  1  0  0  0  0
 15 27  1  0  0  0  0
 16 21  1  0  0  0  0
 16 32  1  0  0  0  0
 17 23  1  0  0  0  0
 17 30  1  0  0  0  0
 17 31  1  0  0  0  0
 18 20  2  0  0  0  0
 18 33  1  0  0  0  0
 19 20  1  0  0  0  0
 19 34  1  0  0  0  0
 20 35  1  0  0  0  0
 21 22  2  0  0  0  0
 21 36  1  0  0  0  0
 22 37  1  0  0  0  0
M  END
> <PUBCHEM_COMPOUND_CID>
17396405

> <PUBCHEM_COMPOUND_CANONICALIZED>
1

> <PUBCHEM_CACTVS_COMPLEXITY>
392

> <PUBCHEM_CACTVS_HBOND_ACCEPTOR>
5

> <PUBCHEM_CACTVS_HBOND_DONOR>
1

> <PUBCHEM_CACTVS_ROTATABLE_BOND>
7

> <PUBCHEM_CACTVS_SUBSKEYS>
AAADceB7oABgAAAAAAAAAAAAAAAAAWJAAAAwAAAAAAAAAAAB8AAAHgQYAAAACAiF0wCx0YdMEAiuACdydACT0KthCrBdiBkwZIiIKCLgmZGEIAhgmALoyCcQAAAAAAAAAAAAAAAAAAAAAAAAAAAAAAAAAA==

> <PUBCHEM_IUPAC_OPENEYE_NAME>
3-[[4-phenyl-5-(2-thienylmethyl)-1,2,4-triazol-3-yl]sulfanyl]propanamide

> <PUBCHEM_IUPAC_CAS_NAME>
3-[[4-phenyl-5-(thiophen-2-ylmethyl)-1,2,4-triazol-3-yl]thio]propanamide

> <PUBCHEM_IUPAC_NAME>
3-[[4-phenyl-5-(thiophen-2-ylmethyl)-1,2,4-triazol-3-yl]sulfanyl]propanamide

> <PUBCHEM_IUPAC_SYSTEMATIC_NAME>
3-[[4-phenyl-5-(thiophen-2-ylmethyl)-1,2,4-triazol-3-yl]sulfanyl]propanamide

> <PUBCHEM_IUPAC_TRADITIONAL_NAME>
3-[[4-phenyl-5-(2-thenyl)-1,2,4-triazol-3-yl]thio]propionamide

> <PUBCHEM_IUPAC_INCHI>
InChI=1S/C16H16N4OS2/c17-14(21)8-10-23-16-19-18-15(11-13-7-4-9-22-13)20(16)12-5-2-1-3-6-12/h1-7,9H,8,10-11H2,(H2,17,21)

> <PUBCHEM_IUPAC_INCHIKEY>
XLFSLEOQPINWQN-UHFFFAOYSA-N

> <PUBCHEM_XLOGP3_AA>
2.4

> <PUBCHEM_EXACT_MASS>
344.076553

> <PUBCHEM_MOLECULAR_FORMULA>
C16H16N4OS2

> <PUBCHEM_MOLECULAR_WEIGHT>
344.45444

> <PUBCHEM_OPENEYE_CAN_SMILES>
C1=CC=C(C=C1)N2C(=NN=C2SCCC(=O)N)CC3=CC=CS3

> <PUBCHEM_OPENEYE_ISO_SMILES>
C1=CC=C(C=C1)N2C(=NN=C2SCCC(=O)N)CC3=CC=CS3

> <PUBCHEM_CACTVS_TPSA>
127

> <PUBCHEM_MONOISOTOPIC_WEIGHT>
344.076553

> <PUBCHEM_TOTAL_CHARGE>
0

> <PUBCHEM_HEAVY_ATOM_COUNT>
23

> <PUBCHEM_ATOM_DEF_STEREO_COUNT>
0

> <PUBCHEM_ATOM_UDEF_STEREO_COUNT>
0

> <PUBCHEM_BOND_DEF_STEREO_COUNT>
0

> <PUBCHEM_BOND_UDEF_STEREO_COUNT>
0

> <PUBCHEM_ISOTOPIC_ATOM_COUNT>
0

> <PUBCHEM_COMPONENT_COUNT>
1

> <PUBCHEM_CACTVS_TAUTO_COUNT>
3

> <PUBCHEM_COORDINATE_TYPE>
1
5
255

> <PUBCHEM_BONDANNOTATIONS>
10  13  8
10  14  8
12  16  8
13  18  8
14  19  8
16  21  8
18  20  8
19  20  8
2  12  8
2  22  8
21  22  8
4  11  8
4  8  8
5  6  8
5  8  8
6  11  8

$$$$

