444941
  -OEChem-07051212492D

 43 45  0     1  0  0  0  0  0999 V2000
    5.9134    2.8034    0.0000 P   0  0  0  0  0  0  0  0  0  0  0  0
    5.2686   -0.6498    0.0000 O   0  0  0  0  0  0  0  0  0  0  0  0
    7.6146   -1.7416    0.0000 O   0  0  0  0  0  0  0  0  0  0  0  0
    7.6183    0.4340    0.0000 O   0  0  0  0  0  0  0  0  0  0  0  0
    6.2208    1.8518    0.0000 O   0  0  0  0  0  0  0  0  0  0  0  0
    5.6061    3.7550    0.0000 O   0  0  0  0  0  0  0  0  0  0  0  0
    6.8650    3.1108    0.0000 O   0  0  0  0  0  0  0  0  0  0  0  0
    4.9618    2.4960    0.0000 O   0  0  0  0  0  0  0  0  0  0  0  0
    5.5443   -2.4103    0.0000 N   0  0  0  0  0  0  0  0  0  0  0  0
    5.5443   -4.0198    0.0000 N   0  0  0  0  0  0  0  0  0  0  0  0
    5.8550   -1.4598    0.0000 C   0  0  2  0  0  0  0  0  0  0  0  0
    6.8066   -1.1524    0.0000 C   0  0  1  0  0  0  0  0  0  0  0  0
    6.8083   -0.1524    0.0000 C   0  0  1  0  0  0  0  0  0  0  0  0
    5.8578    0.1582    0.0000 C   0  0  1  0  0  0  0  0  0  0  0  0
    5.5504    1.1098    0.0000 C   0  0  0  0  0  0  0  0  0  0  0  0
    4.5981   -2.7150    0.0000 C   0  0  0  0  0  0  0  0  0  0  0  0
    6.1279   -3.2150    0.0000 C   0  0  0  0  0  0  0  0  0  0  0  0
    4.5981   -3.7150    0.0000 C   0  0  0  0  0  0  0  0  0  0  0  0
    3.7320   -2.2150    0.0000 C   0  0  0  0  0  0  0  0  0  0  0  0
    2.8660   -2.7150    0.0000 C   0  0  0  0  0  0  0  0  0  0  0  0
    3.7320   -4.2150    0.0000 C   0  0  0  0  0  0  0  0  0  0  0  0
    2.8660   -3.7150    0.0000 C   0  0  0  0  0  0  0  0  0  0  0  0
    2.0000   -2.2150    0.0000 C   0  0  0  0  0  0  0  0  0  0  0  0
    2.0000   -4.2150    0.0000 C   0  0  0  0  0  0  0  0  0  0  0  0
    6.2926   -1.8990    0.0000 H   0  0  0  0  0  0  0  0  0  0  0  0
    7.3595   -0.8719    0.0000 H   0  0  0  0  0  0  0  0  0  0  0  0
    7.3602   -0.4348    0.0000 H   0  0  0  0  0  0  0  0  0  0  0  0
    5.2456    0.2563    0.0000 H   0  0  0  0  0  0  0  0  0  0  0  0
    5.1695    1.5991    0.0000 H   0  0  0  0  0  0  0  0  0  0  0  0
    5.0025    0.8197    0.0000 H   0  0  0  0  0  0  0  0  0  0  0  0
    8.1814   -1.4904    0.0000 H   0  0  0  0  0  0  0  0  0  0  0  0
    6.7479   -3.2150    0.0000 H   0  0  0  0  0  0  0  0  0  0  0  0
    8.1843    0.1808    0.0000 H   0  0  0  0  0  0  0  0  0  0  0  0
    3.7320   -1.5950    0.0000 H   0  0  0  0  0  0  0  0  0  0  0  0
    3.7320   -4.8350    0.0000 H   0  0  0  0  0  0  0  0  0  0  0  0
    2.3100   -1.6781    0.0000 H   0  0  0  0  0  0  0  0  0  0  0  0
    1.4631   -1.9050    0.0000 H   0  0  0  0  0  0  0  0  0  0  0  0
    1.6900   -2.7520    0.0000 H   0  0  0  0  0  0  0  0  0  0  0  0
    1.6900   -3.6781    0.0000 H   0  0  0  0  0  0  0  0  0  0  0  0
    1.4631   -4.5250    0.0000 H   0  0  0  0  0  0  0  0  0  0  0  0
    2.3100   -4.7520    0.0000 H   0  0  0  0  0  0  0  0  0  0  0  0
    6.9950    3.7170    0.0000 H   0  0  0  0  0  0  0  0  0  0  0  0
    6.0217    4.2150    0.0000 H   0  0  0  0  0  0  0  0  0  0  0  0
  1  5  1  0  0  0  0
  1  6  1  0  0  0  0
  1  7  1  0  0  0  0
  1  8  2  0  0  0  0
  2 11  1  0  0  0  0
  2 14  1  0  0  0  0
 12  3  1  1  0  0  0
  3 31  1  0  0  0  0
 13  4  1  1  0  0  0
  4 33  1  0  0  0  0
  5 15  1  0  0  0  0
  6 43  1  0  0  0  0
  7 42  1  0  0  0  0
 11  9  1  1  0  0  0
  9 16  1  0  0  0  0
  9 17  1  0  0  0  0
 10 17  2  0  0  0  0
 10 18  1  0  0  0  0
 11 12  1  0  0  0  0
 11 25  1  0  0  0  0
 12 13  1  0  0  0  0
 12 26  1  0  0  0  0
 13 14  1  0  0  0  0
 13 27  1  0  0  0  0
 14 15  1  6  0  0  0
 14 28  1  0  0  0  0
 15 29  1  0  0  0  0
 15 30  1  0  0  0  0
 16 18  2  0  0  0  0
 16 19  1  0  0  0  0
 17 32  1  0  0  0  0
 18 21  1  0  0  0  0
 19 20  2  0  0  0  0
 19 34  1  0  0  0  0
 20 22  1  0  0  0  0
 20 23  1  0  0  0  0
 21 22  2  0  0  0  0
 21 35  1  0  0  0  0
 22 24  1  0  0  0  0
 23 36  1  0  0  0  0
 23 37  1  0  0  0  0
 23 38  1  0  0  0  0
 24 39  1  0  0  0  0
 24 40  1  0  0  0  0
 24 41  1  0  0  0  0
M  END
> <PUBCHEM_COMPOUND_CID>
444941

> <PUBCHEM_COMPOUND_CANONICALIZED>
1

> <PUBCHEM_CACTVS_COMPLEXITY>
504

> <PUBCHEM_CACTVS_HBOND_ACCEPTOR>
8

> <PUBCHEM_CACTVS_HBOND_DONOR>
4

> <PUBCHEM_CACTVS_ROTATABLE_BOND>
4

> <PUBCHEM_CACTVS_SUBSKEYS>
AAADceBzOAIAAAAAAAAAAAAAAAAAAWJAAAAwAAAAAAAAAFgB8AAAHgAACCAADBzhngY30LcMFxCgQyRjZICCgC0xEqAB2CA4dJiLeKLAmZGeYAhvgALbyCfwsIIOiAAAQAAQACAQAACAACAAQAAAAAAAAA==

> <PUBCHEM_IUPAC_OPENEYE_NAME>
[(2R,3S,4R,5S)-5-(5,6-dimethylbenzimidazol-1-yl)-3,4-dihydroxy-tetrahydrofuran-2-yl]methyl dihydrogen phosphate

> <PUBCHEM_IUPAC_CAS_NAME>
[(2R,3S,4R,5S)-5-(5,6-dimethyl-1-benzimidazolyl)-3,4-dihydroxy-2-oxolanyl]methyl dihydrogen phosphate

> <PUBCHEM_IUPAC_NAME>
[(2R,3S,4R,5S)-5-(5,6-dimethylbenzimidazol-1-yl)-3,4-dihydroxyoxolan-2-yl]methyl dihydrogen phosphate

> <PUBCHEM_IUPAC_SYSTEMATIC_NAME>
[(2R,3S,4R,5S)-5-(5,6-dimethylbenzimidazol-1-yl)-3,4-bis(oxidanyl)oxolan-2-yl]methyl dihydrogen phosphate

> <PUBCHEM_IUPAC_TRADITIONAL_NAME>
[(2R,3S,4R,5S)-5-(5,6-dimethylbenzimidazol-1-yl)-3,4-dihydroxy-tetrahydrofuran-2-yl]methyl dihydrogen phosphate

> <PUBCHEM_IUPAC_INCHI>
InChI=1S/C14H19N2O7P/c1-7-3-9-10(4-8(7)2)16(6-15-9)14-13(18)12(17)11(23-14)5-22-24(19,20)21/h3-4,6,11-14,17-18H,5H2,1-2H3,(H2,19,20,21)/t11-,12-,13-,14+/m1/s1

> <PUBCHEM_IUPAC_INCHIKEY>
ZMRGXEJKZPRBPJ-SYQHCUMBSA-N

> <PUBCHEM_XLOGP3_AA>
-1.1

> <PUBCHEM_EXACT_MASS>
358.092988

> <PUBCHEM_MOLECULAR_FORMULA>
C14H19N2O7P

> <PUBCHEM_MOLECULAR_WEIGHT>
358.283622

> <PUBCHEM_OPENEYE_CAN_SMILES>
CC1=CC2=C(C=C1C)N(C=N2)C3C(C(C(O3)COP(=O)(O)O)O)O

> <PUBCHEM_OPENEYE_ISO_SMILES>
CC1=CC2=C(C=C1C)N(C=N2)[C@@H]3[C@@H]([C@@H]([C@H](O3)COP(=O)(O)O)O)O

> <PUBCHEM_CACTVS_TPSA>
134

> <PUBCHEM_MONOISOTOPIC_WEIGHT>
358.092988

> <PUBCHEM_TOTAL_CHARGE>
0

> <PUBCHEM_HEAVY_ATOM_COUNT>
24

> <PUBCHEM_ATOM_DEF_STEREO_COUNT>
4

> <PUBCHEM_ATOM_UDEF_STEREO_COUNT>
0

> <PUBCHEM_BOND_DEF_STEREO_COUNT>
0

> <PUBCHEM_BOND_UDEF_STEREO_COUNT>
0

> <PUBCHEM_ISOTOPIC_ATOM_COUNT>
0

> <PUBCHEM_COMPONENT_COUNT>
1

> <PUBCHEM_CACTVS_TAUTO_COUNT>
1

> <PUBCHEM_COORDINATE_TYPE>
1
5
255

> <PUBCHEM_BONDANNOTATIONS>
10  17  8
10  18  8
14  15  6
16  18  8
16  19  8
18  21  8
19  20  8
20  22  8
21  22  8
12  3  5
13  4  5
11  9  5
9  16  8
9  17  8

$$$$

