132448
  -OEChem-07051213103D

 31 32  0     1  0  0  0  0  0999 V2000
    2.2813   -0.4589   -1.2365 S   0  0  0  0  0  0  0  0  0  0  0  0
   -2.7357    1.8663   -0.3880 O   0  0  0  0  0  0  0  0  0  0  0  0
   -4.3083   -2.4370    0.1684 O   0  0  0  0  0  0  0  0  0  0  0  0
    0.1134    2.6536    1.1824 O   0  0  0  0  0  0  0  0  0  0  0  0
    1.3636    2.5546   -0.7300 O   0  0  0  0  0  0  0  0  0  0  0  0
   -1.1313    0.3663    0.4763 N   0  0  0  0  0  0  0  0  0  0  0  0
    5.5499   -1.3287    0.9964 N   0  0  0  0  0  0  0  0  0  0  0  0
   -1.3829   -1.0841    0.3291 C   0  0  1  0  0  0  0  0  0  0  0  0
   -2.7482   -0.6884   -0.2959 C   0  0  2  0  0  0  0  0  0  0  0  0
   -0.1848   -1.5975   -0.4774 C   0  0  0  0  0  0  0  0  0  0  0  0
   -2.3042    0.7763   -0.0857 C   0  0  0  0  0  0  0  0  0  0  0  0
    0.1170    0.6722    0.0133 C   0  0  0  0  0  0  0  0  0  0  0  0
    0.7243   -0.3952   -0.5199 C   0  0  0  0  0  0  0  0  0  0  0  0
   -4.0009   -1.0789    0.4512 C   0  0  0  0  0  0  0  0  0  0  0  0
    0.6117    2.0432    0.0846 C   0  0  0  0  0  0  0  0  0  0  0  0
    3.2857   -0.8561    0.2135 C   0  0  0  0  0  0  0  0  0  0  0  0
    4.7493   -1.0078   -0.1814 C   0  0  0  0  0  0  0  0  0  0  0  0
   -1.4594   -1.5667    1.3127 H   0  0  0  0  0  0  0  0  0  0  0  0
   -2.8247   -0.9258   -1.3659 H   0  0  0  0  0  0  0  0  0  0  0  0
   -0.4814   -1.9103   -1.4840 H   0  0  0  0  0  0  0  0  0  0  0  0
    0.2941   -2.4381    0.0356 H   0  0  0  0  0  0  0  0  0  0  0  0
   -4.8488   -0.4692    0.1222 H   0  0  0  0  0  0  0  0  0  0  0  0
   -3.8872   -0.9593    1.5337 H   0  0  0  0  0  0  0  0  0  0  0  0
   -5.1219   -2.6528    0.6551 H   0  0  0  0  0  0  0  0  0  0  0  0
    3.1723   -0.0570    0.9550 H   0  0  0  0  0  0  0  0  0  0  0  0
    2.9147   -1.7859    0.6599 H   0  0  0  0  0  0  0  0  0  0  0  0
    4.8760   -1.8083   -0.9189 H   0  0  0  0  0  0  0  0  0  0  0  0
    5.1341   -0.0823   -0.6241 H   0  0  0  0  0  0  0  0  0  0  0  0
    0.4261    3.5800    1.2623 H   0  0  0  0  0  0  0  0  0  0  0  0
    5.1994   -2.1841    1.4261 H   0  0  0  0  0  0  0  0  0  0  0  0
    5.4368   -0.5970    1.6971 H   0  0  0  0  0  0  0  0  0  0  0  0
  1 13  1  0  0  0  0
  1 16  1  0  0  0  0
  2 11  2  0  0  0  0
  3 14  1  0  0  0  0
  3 24  1  0  0  0  0
  4 15  1  0  0  0  0
  4 29  1  0  0  0  0
  5 15  2  0  0  0  0
  6  8  1  0  0  0  0
  6 11  1  0  0  0  0
  6 12  1  0  0  0  0
  7 17  1  0  0  0  0
  7 30  1  0  0  0  0
  7 31  1  0  0  0  0
  8  9  1  0  0  0  0
  8 10  1  0  0  0  0
  8 18  1  0  0  0  0
  9 11  1  0  0  0  0
  9 14  1  0  0  0  0
  9 19  1  0  0  0  0
 10 13  1  0  0  0  0
 10 20  1  0  0  0  0
 10 21  1  0  0  0  0
 12 13  2  0  0  0  0
 12 15  1  0  0  0  0
 14 22  1  0  0  0  0
 14 23  1  0  0  0  0
 16 17  1  0  0  0  0
 16 25  1  0  0  0  0
 16 26  1  0  0  0  0
 17 27  1  0  0  0  0
 17 28  1  0  0  0  0
M  END
> <PUBCHEM_COMPOUND_CID>
132448

> <PUBCHEM_CONFORMER_RMSD>
0.6

> <PUBCHEM_CONFORMER_DIVERSEORDER>
1
47
56
16
58
18
11
37
53
19
35
22
15
57
4
55
54
7
45
48
23
43
42
40
28
50
21
25
3
52
29
41
49
12
38
36
24
5
46
8
51
30
39
9
33
26
13
6
27
2
31
14
32
44
17
10
20
34

> <PUBCHEM_MMFF94_PARTIAL_CHARGES>
21
1 -0.33
10 0.14
11 0.58
12 0.12
13 -0.04
14 0.28
15 0.71
16 0.23
17 0.27
2 -0.57
24 0.4
29 0.5
3 -0.68
30 0.36
31 0.36
4 -0.65
5 -0.57
6 -0.39
7 -0.99
8 0.22
9 0.05

> <PUBCHEM_EFFECTIVE_ROTOR_COUNT>
5.4

> <PUBCHEM_PHARMACOPHORE_FEATURES>
9
1 2 acceptor
1 3 acceptor
1 3 donor
1 4 acceptor
1 5 acceptor
1 7 cation
1 7 donor
3 4 5 15 anion
7 6 8 9 10 11 12 13 rings

> <PUBCHEM_HEAVY_ATOM_COUNT>
17

> <PUBCHEM_ATOM_DEF_STEREO_COUNT>
2

> <PUBCHEM_ATOM_UDEF_STEREO_COUNT>
0

> <PUBCHEM_BOND_DEF_STEREO_COUNT>
0

> <PUBCHEM_BOND_UDEF_STEREO_COUNT>
0

> <PUBCHEM_ISOTOPIC_ATOM_COUNT>
0

> <PUBCHEM_COMPONENT_COUNT>
1

> <PUBCHEM_CACTVS_TAUTO_COUNT>
1

> <PUBCHEM_CONFORMER_ID>
0002056000000001

> <PUBCHEM_MMFF94_ENERGY>
52.5437

> <PUBCHEM_FEATURE_SELFOVERLAP>
45.723

> <PUBCHEM_SHAPE_FINGERPRINT>
10062212 137 18342457075258214455
10465860 250 18411983580849776474
11132069 177 18262514939546418260
12032990 46 18335414677549545702
12293681 25 17053855582666284347
13140716 1 18335133207015735969
13214271 11 18188496885947696262
14178342 30 18042668671640810019
14420673 8 17472421427857814602
16945 1 18411130338546997271
200 152 17560799965980374618
20600515 1 18262794211263565044
21029758 27 18412821369844374790
21041028 32 18259977163588494561
21296965 67 18409727365667143262
21339142 51 18339365274246283757
21501502 16 18337939096481367517
2297311 6 18261100920865708814
23366157 5 17985824835539892676
23402539 116 18335429014419359822
23532345 42 18260826012445490334
23557571 272 18115572881205728046
23559900 14 18200597977610194339
2748010 2 18338524036809860293
3286 77 18342455890016007287
43471831 8 17472425348623826632
5104073 3 18045484341275171899
5493415 88 18410011018213430445
633830 44 11887666230755974350
7364860 26 18117556223909312688
76465 3 18339925909508134271
81228 2 17975109231322542784

> <PUBCHEM_SHAPE_MULTIPOLES>
320.26
8.01
2.55
0.92
6.3
1.53
-0.03
-6.06
1.63
-0.88
0.24
0.53
0.07
-0.11

> <PUBCHEM_SHAPE_SELFOVERLAP>
656.238

> <PUBCHEM_SHAPE_VOLUME>
187.7

> <PUBCHEM_COORDINATE_TYPE>
2
5
10

$$$$

