20055073
  -OEChem-07051213093D

 41 46  0     0  0  0  0  0  0999 V2000
    4.5589   -2.2680   -0.4157 O   0  0  0  0  0  0  0  0  0  0  0  0
    5.9506   -0.3949    0.1815 O   0  0  0  0  0  0  0  0  0  0  0  0
   -5.2437   -1.9319    0.2012 O   0  0  0  0  0  0  0  0  0  0  0  0
   -5.9733    0.3471   -0.0758 O   0  0  0  0  0  0  0  0  0  0  0  0
   -0.0560    1.6961   -0.2179 N   0  3  0  0  0  0  0  0  0  0  0  0
    0.3947    0.4153   -0.0790 C   0  0  0  0  0  0  0  0  0  0  0  0
    0.8892    2.8293   -0.3864 C   0  0  0  0  0  0  0  0  0  0  0  0
    2.0676    2.6582    0.5525 C   0  0  0  0  0  0  0  0  0  0  0  0
    1.8585    0.2251   -0.0355 C   0  0  0  0  0  0  0  0  0  0  0  0
    2.7031    1.3221    0.2894 C   0  0  0  0  0  0  0  0  0  0  0  0
   -0.5416   -0.6256    0.0475 C   0  0  0  0  0  0  0  0  0  0  0  0
   -1.9140   -0.3637    0.0158 C   0  0  0  0  0  0  0  0  0  0  0  0
   -2.3445    0.9731   -0.1445 C   0  0  0  0  0  0  0  0  0  0  0  0
   -1.3801    1.9714   -0.2599 C   0  0  0  0  0  0  0  0  0  0  0  0
    2.4622   -1.0213   -0.2938 C   0  0  0  0  0  0  0  0  0  0  0  0
    4.0958    1.1743    0.3936 C   0  0  0  0  0  0  0  0  0  0  0  0
    3.8370   -1.1340   -0.1991 C   0  0  0  0  0  0  0  0  0  0  0  0
    4.6309   -0.0676    0.1396 C   0  0  0  0  0  0  0  0  0  0  0  0
   -2.8628   -1.3955    0.1400 C   0  0  0  0  0  0  0  0  0  0  0  0
   -0.1303   -2.0330    0.3736 C   0  0  0  0  0  0  0  0  0  0  0  0
   -3.7175    1.2740   -0.1842 C   0  0  0  0  0  0  0  0  0  0  0  0
   -4.2014   -1.0632    0.0979 C   0  0  0  0  0  0  0  0  0  0  0  0
   -4.6172    0.2355   -0.0603 C   0  0  0  0  0  0  0  0  0  0  0  0
    5.8981   -1.7919   -0.1718 C   0  0  0  0  0  0  0  0  0  0  0  0
   -6.3642   -1.0309    0.0913 C   0  0  0  0  0  0  0  0  0  0  0  0
    0.3712    3.7684   -0.1665 H   0  0  0  0  0  0  0  0  0  0  0  0
    1.1868    2.8244   -1.4420 H   0  0  0  0  0  0  0  0  0  0  0  0
    1.7424    2.6974    1.5987 H   0  0  0  0  0  0  0  0  0  0  0  0
    2.7831    3.4711    0.3863 H   0  0  0  0  0  0  0  0  0  0  0  0
   -1.6486    3.0143   -0.3933 H   0  0  0  0  0  0  0  0  0  0  0  0
    1.9426   -1.8814   -0.6897 H   0  0  0  0  0  0  0  0  0  0  0  0
    4.7324    2.0121    0.6577 H   0  0  0  0  0  0  0  0  0  0  0  0
   -2.6200   -2.4478    0.2224 H   0  0  0  0  0  0  0  0  0  0  0  0
   -0.0193   -2.6373   -0.5315 H   0  0  0  0  0  0  0  0  0  0  0  0
    0.7586   -2.0750    1.0085 H   0  0  0  0  0  0  0  0  0  0  0  0
   -0.8382   -2.5432    1.0345 H   0  0  0  0  0  0  0  0  0  0  0  0
   -4.0693    2.2939   -0.3073 H   0  0  0  0  0  0  0  0  0  0  0  0
    6.3355   -2.3775    0.6451 H   0  0  0  0  0  0  0  0  0  0  0  0
    6.4965   -1.9481   -1.0767 H   0  0  0  0  0  0  0  0  0  0  0  0
   -6.9733   -1.1157    0.9986 H   0  0  0  0  0  0  0  0  0  0  0  0
   -6.9723   -1.3302   -0.7701 H   0  0  0  0  0  0  0  0  0  0  0  0
  1 17  1  0  0  0  0
  1 24  1  0  0  0  0
  2 18  1  0  0  0  0
  2 24  1  0  0  0  0
  3 22  1  0  0  0  0
  3 25  1  0  0  0  0
  4 23  1  0  0  0  0
  4 25  1  0  0  0  0
  5  6  1  0  0  0  0
  5  7  1  0  0  0  0
  5 14  2  0  0  0  0
  6  9  1  0  0  0  0
  6 11  2  0  0  0  0
  7  8  1  0  0  0  0
  7 26  1  0  0  0  0
  7 27  1  0  0  0  0
  8 10  1  0  0  0  0
  8 28  1  0  0  0  0
  8 29  1  0  0  0  0
  9 10  1  0  0  0  0
  9 15  2  0  0  0  0
 10 16  2  0  0  0  0
 11 12  1  0  0  0  0
 11 20  1  0  0  0  0
 12 13  1  0  0  0  0
 12 19  2  0  0  0  0
 13 14  1  0  0  0  0
 13 21  2  0  0  0  0
 14 30  1  0  0  0  0
 15 17  1  0  0  0  0
 15 31  1  0  0  0  0
 16 18  1  0  0  0  0
 16 32  1  0  0  0  0
 17 18  2  0  0  0  0
 19 22  1  0  0  0  0
 19 33  1  0  0  0  0
 20 34  1  0  0  0  0
 20 35  1  0  0  0  0
 20 36  1  0  0  0  0
 21 23  1  0  0  0  0
 21 37  1  0  0  0  0
 22 23  2  0  0  0  0
 24 38  1  0  0  0  0
 24 39  1  0  0  0  0
 25 40  1  0  0  0  0
 25 41  1  0  0  0  0
M  CHG  1   5   1
M  END
> <PUBCHEM_COMPOUND_CID>
20055073

> <PUBCHEM_CONFORMER_RMSD>
0.6

> <PUBCHEM_CONFORMER_DIVERSEORDER>
1

> <PUBCHEM_MMFF94_PARTIAL_CHARGES>
27
1 -0.36
10 -0.14
11 -0.14
14 0.21
15 -0.15
16 -0.15
17 0.08
18 0.08
19 -0.15
2 -0.36
20 0.14
21 -0.15
22 0.08
23 0.08
24 0.56
25 0.56
3 -0.36
30 0.15
31 0.15
32 0.15
33 0.15
37 0.15
4 -0.36
5 -0.21
6 0.36
7 0.49
8 0.14

> <PUBCHEM_EFFECTIVE_ROTOR_COUNT>
1.6

> <PUBCHEM_PHARMACOPHORE_FEATURES>
10
1 1 acceptor
1 2 acceptor
1 3 acceptor
1 4 acceptor
5 1 2 17 18 24 rings
5 3 4 22 23 25 rings
6 12 13 19 21 22 23 rings
6 5 6 11 12 13 14 rings
6 5 6 7 8 9 10 rings
6 9 10 15 16 17 18 rings

> <PUBCHEM_HEAVY_ATOM_COUNT>
25

> <PUBCHEM_ATOM_DEF_STEREO_COUNT>
0

> <PUBCHEM_ATOM_UDEF_STEREO_COUNT>
0

> <PUBCHEM_BOND_DEF_STEREO_COUNT>
0

> <PUBCHEM_BOND_UDEF_STEREO_COUNT>
0

> <PUBCHEM_ISOTOPIC_ATOM_COUNT>
0

> <PUBCHEM_COMPONENT_COUNT>
1

> <PUBCHEM_CACTVS_TAUTO_COUNT>
1

> <PUBCHEM_CONFORMER_ID>
0132042100000001

> <PUBCHEM_MMFF94_ENERGY>
93.4063

> <PUBCHEM_FEATURE_SELFOVERLAP>
51.133

> <PUBCHEM_SHAPE_FINGERPRINT>
10 15 18337121077664085424
10411042 1 18337953493364380198
10622 236 17462308849617066015
11524674 6 16805324392379543135
11578080 2 16735253491467558210
12166972 35 17774999098677885460
12236239 1 17894911811281270939
12403259 226 18411423907856720965
12403259 415 18201167597991114333
12516196 113 18334858325013784248
13288520 33 18411698803232943973
13402501 40 18411418423109260606
13533116 47 18187646855922063496
13685833 64 18411416211142925099
13862211 1 18412828005495214818
14294032 229 16414089671774340597
14341114 176 18409727335729128721
14866123 147 17830167270458211568
15196674 1 18411138030369259053
15352361 1 18410574006932333700
15927050 60 17685214980983386484
17349148 13 17821723918947123837
17492 89 18123187901319440683
17844677 252 18408035217319839129
1813 80 17418097602658531020
19141452 34 18187649068115064015
19591789 44 18411984693008968290
1979834 28 17748826332781264470
200 152 17967817158258148105
20028762 73 18187650176222408111
20832881 197 18409165515098944417
21033650 10 16701744968156966965
21130935 74 18187364311699131515
21236236 1 18336827601963491889
21267235 1 18411131446136681158
21279426 13 18340491182985693261
21682296 61 18335413603918666847
21781051 124 17559935664163448859
221357 26 18411702097029793740
221490 88 18269269080082021416
22182313 1 18198928979036668460
22393880 68 18130238133106012133
23402539 116 18408890641560872607
23522609 53 18122873586579991540
23559900 14 18411424977514106665
3004659 81 18202562891574268638
335352 9 18411701002557016621
3411729 13 18266466395849409528
3421961 26 18335986380957780024
350125 39 18410854356496127285
4073 2 18129940066217268627
4093350 32 16733259068038732776
4214541 1 18410012156670089601
46194498 28 17560520603758445756
465052 167 18260826008118861654
5104073 3 18261117430308402064
6138700 20 18341331188305131402
636775 8 18117267272587433494
8863177 126 17915446217327536643
9709674 26 18269835307422693123

> <PUBCHEM_SHAPE_MULTIPOLES>
486.03
13.64
2.63
0.66
4.04
0.84
-0.01
-7.06
-0.17
-1.31
0.02
-0.1
0.05
0.7

> <PUBCHEM_SHAPE_SELFOVERLAP>
1130.979

> <PUBCHEM_SHAPE_VOLUME>
248.3

> <PUBCHEM_COORDINATE_TYPE>
2
5
10

$$$$

