13815
  -OEChem-06241222402D

 81 84  0     1  0  0  0  0  0999 V2000
   10.3983    0.0942    0.0000 O   0  0  0  0  0  0  0  0  0  0  0  0
   13.5143   -3.3122    0.0000 O   0  0  0  0  0  0  0  0  0  0  0  0
   11.2644    0.5942    0.0000 O   0  0  0  0  0  0  0  0  0  0  0  0
   13.0128    0.6288    0.0000 O   0  0  0  0  0  0  0  0  0  0  0  0
    9.0144    0.5006    0.0000 O   0  0  0  0  0  0  0  0  0  0  0  0
    7.7342   -2.4300    0.0000 O   0  0  0  0  0  0  0  0  0  0  0  0
   14.8500    0.6718    0.0000 O   0  0  0  0  0  0  0  0  0  0  0  0
    7.7381    0.6183    0.0000 O   0  0  0  0  0  0  0  0  0  0  0  0
    2.5381   -0.3616    0.0000 O   0  0  0  0  0  0  0  0  0  0  0  0
    3.3984   -1.8650    0.0000 O   0  0  0  0  0  0  0  0  0  0  0  0
    9.5160   -3.4404    0.0000 N   0  0  0  0  0  0  0  0  0  0  0  0
    6.8663   -0.8783    0.0000 N   0  0  0  0  0  0  0  0  0  0  0  0
    5.1343   -0.8717    0.0000 N   0  0  0  0  0  0  0  0  0  0  0  0
    2.5535    3.6383    0.0000 N   0  0  0  0  0  0  0  0  0  0  0  0
   10.3983   -1.9058    0.0000 C   0  0  2  0  0  0  0  0  0  0  0  0
   12.1304   -1.9058    0.0000 C   0  0  3  0  0  0  0  0  0  0  0  0
   11.2644   -2.4058    0.0000 C   0  0  0  0  0  0  0  0  0  0  0  0
   10.3983   -0.9058    0.0000 C   0  0  1  0  0  0  0  0  0  0  0  0
    9.5044   -2.4405    0.0000 C   0  0  3  0  0  0  0  0  0  0  0  0
   13.0243   -2.4405    0.0000 C   0  0  1  0  0  0  0  0  0  0  0  0
   12.1304   -0.9058    0.0000 C   0  0  0  0  0  0  0  0  0  0  0  0
   11.2644   -0.4058    0.0000 C   0  0  0  0  0  0  0  0  0  0  0  0
    9.5044   -0.3712    0.0000 C   0  0  0  0  0  0  0  0  0  0  0  0
   13.9304   -1.9266    0.0000 C   0  0  0  0  0  0  0  0  0  0  0  0
    8.5983   -1.9266    0.0000 C   0  0  0  0  0  0  0  0  0  0  0  0
   13.0243   -0.3712    0.0000 C   0  0  0  0  0  0  0  0  0  0  0  0
    8.5983   -0.8850    0.0000 C   0  0  0  0  0  0  0  0  0  0  0  0
   13.9304   -0.8850    0.0000 C   0  0  0  0  0  0  0  0  0  0  0  0
   12.5144   -3.3007    0.0000 C   0  0  0  0  0  0  0  0  0  0  0  0
   14.8616   -2.4836    0.0000 C   0  0  0  0  0  0  0  0  0  0  0  0
    8.6558   -3.9504    0.0000 C   0  0  0  0  0  0  0  0  0  0  0  0
   10.3877   -3.9304    0.0000 C   0  0  0  0  0  0  0  0  0  0  0  0
   14.8616   -0.3281    0.0000 C   0  0  0  0  0  0  0  0  0  0  0  0
    7.7342   -0.3817    0.0000 C   0  0  0  0  0  0  0  0  0  0  0  0
   15.8053   -1.9483    0.0000 C   0  0  0  0  0  0  0  0  0  0  0  0
   15.8053   -0.8633    0.0000 C   0  0  0  0  0  0  0  0  0  0  0  0
    6.0022   -0.3750    0.0000 C   0  0  0  0  0  0  0  0  0  0  0  0
    4.2702   -0.3683    0.0000 C   0  0  3  0  0  0  0  0  0  0  0  0
    4.2740    0.6317    0.0000 C   0  0  0  0  0  0  0  0  0  0  0  0
    3.4099    1.1350    0.0000 C   0  0  0  0  0  0  0  0  0  0  0  0
    3.4022   -0.8650    0.0000 C   0  0  0  0  0  0  0  0  0  0  0  0
    3.4138    2.1350    0.0000 C   0  0  0  0  0  0  0  0  0  0  0  0
    2.5497    2.6383    0.0000 C   0  0  0  0  0  0  0  0  0  0  0  0
   10.4045   -2.7058    0.0000 H   0  0  0  0  0  0  0  0  0  0  0  0
   12.1256   -2.5258    0.0000 H   0  0  0  0  0  0  0  0  0  0  0  0
   10.8658   -2.8808    0.0000 H   0  0  0  0  0  0  0  0  0  0  0  0
   11.6629   -2.8808    0.0000 H   0  0  0  0  0  0  0  0  0  0  0  0
    8.9705   -2.7556    0.0000 H   0  0  0  0  0  0  0  0  0  0  0  0
   11.9810   -2.9845    0.0000 H   0  0  0  0  0  0  0  0  0  0  0  0
   12.1982   -3.8340    0.0000 H   0  0  0  0  0  0  0  0  0  0  0  0
   13.0477   -3.6169    0.0000 H   0  0  0  0  0  0  0  0  0  0  0  0
   10.0883    0.6311    0.0000 H   0  0  0  0  0  0  0  0  0  0  0  0
   13.1981   -3.8455    0.0000 H   0  0  0  0  0  0  0  0  0  0  0  0
   14.8544   -3.1035    0.0000 H   0  0  0  0  0  0  0  0  0  0  0  0
    8.3396   -3.4171    0.0000 H   0  0  0  0  0  0  0  0  0  0  0  0
    8.1225   -4.2666    0.0000 H   0  0  0  0  0  0  0  0  0  0  0  0
    8.9720   -4.4837    0.0000 H   0  0  0  0  0  0  0  0  0  0  0  0
   10.0839   -4.4709    0.0000 H   0  0  0  0  0  0  0  0  0  0  0  0
   10.9282   -4.2341    0.0000 H   0  0  0  0  0  0  0  0  0  0  0  0
   10.6915   -3.3899    0.0000 H   0  0  0  0  0  0  0  0  0  0  0  0
   13.5461    0.9450    0.0000 H   0  0  0  0  0  0  0  0  0  0  0  0
   16.3411   -2.2604    0.0000 H   0  0  0  0  0  0  0  0  0  0  0  0
   16.3411   -0.5513    0.0000 H   0  0  0  0  0  0  0  0  0  0  0  0
    6.8639   -1.4983    0.0000 H   0  0  0  0  0  0  0  0  0  0  0  0
   15.3833    0.9880    0.0000 H   0  0  0  0  0  0  0  0  0  0  0  0
    7.2024    0.9304    0.0000 H   0  0  0  0  0  0  0  0  0  0  0  0
    6.4026    0.0984    0.0000 H   0  0  0  0  0  0  0  0  0  0  0  0
    5.6055    0.1015    0.0000 H   0  0  0  0  0  0  0  0  0  0  0  0
    5.1319   -1.4916    0.0000 H   0  0  0  0  0  0  0  0  0  0  0  0
    4.2678   -0.9883    0.0000 H   0  0  0  0  0  0  0  0  0  0  0  0
    4.8842    0.5217    0.0000 H   0  0  0  0  0  0  0  0  0  0  0  0
    4.4883    1.2135    0.0000 H   0  0  0  0  0  0  0  0  0  0  0  0
    2.7998    1.2450    0.0000 H   0  0  0  0  0  0  0  0  0  0  0  0
    3.1956    0.5532    0.0000 H   0  0  0  0  0  0  0  0  0  0  0  0
    4.0239    2.0250    0.0000 H   0  0  0  0  0  0  0  0  0  0  0  0
    3.6281    2.7168    0.0000 H   0  0  0  0  0  0  0  0  0  0  0  0
    1.9395    2.7484    0.0000 H   0  0  0  0  0  0  0  0  0  0  0  0
    2.3354    2.0565    0.0000 H   0  0  0  0  0  0  0  0  0  0  0  0
    2.0000   -0.6696    0.0000 H   0  0  0  0  0  0  0  0  0  0  0  0
    2.0178    3.9504    0.0000 H   0  0  0  0  0  0  0  0  0  0  0  0
    3.0917    3.9463    0.0000 H   0  0  0  0  0  0  0  0  0  0  0  0
  1 18  1  0  0  0  0
  1 52  1  0  0  0  0
  2 20  1  0  0  0  0
  2 53  1  0  0  0  0
  3 22  2  0  0  0  0
  4 26  1  0  0  0  0
  4 61  1  0  0  0  0
  5 23  2  0  0  0  0
  6 25  2  0  0  0  0
  7 33  1  0  0  0  0
  7 65  1  0  0  0  0
  8 34  1  0  0  0  0
  8 66  1  0  0  0  0
  9 41  1  0  0  0  0
  9 79  1  0  0  0  0
 10 41  2  0  0  0  0
 11 19  1  0  0  0  0
 11 31  1  0  0  0  0
 11 32  1  0  0  0  0
 12 34  1  0  0  0  0
 12 37  1  0  0  0  0
 12 64  1  0  0  0  0
 13 37  1  0  0  0  0
 13 38  1  0  0  0  0
 13 69  1  0  0  0  0
 14 43  1  0  0  0  0
 14 80  1  0  0  0  0
 14 81  1  0  0  0  0
 15 17  1  0  0  0  0
 15 18  1  0  0  0  0
 15 19  1  0  0  0  0
 15 44  1  0  0  0  0
 16 17  1  0  0  0  0
 16 20  1  0  0  0  0
 16 21  1  0  0  0  0
 16 45  1  0  0  0  0
 17 46  1  0  0  0  0
 17 47  1  0  0  0  0
 18 22  1  0  0  0  0
 18 23  1  0  0  0  0
 19 25  1  0  0  0  0
 19 48  1  0  0  0  0
 20 24  1  0  0  0  0
 20 29  1  0  0  0  0
 21 22  1  0  0  0  0
 21 26  2  0  0  0  0
 23 27  1  0  0  0  0
 24 28  2  0  0  0  0
 24 30  1  0  0  0  0
 25 27  1  0  0  0  0
 26 28  1  0  0  0  0
 27 34  2  3  0  0  0
 28 33  1  0  0  0  0
 29 49  1  0  0  0  0
 29 50  1  0  0  0  0
 29 51  1  0  0  0  0
 30 35  2  0  0  0  0
 30 54  1  0  0  0  0
 31 55  1  0  0  0  0
 31 56  1  0  0  0  0
 31 57  1  0  0  0  0
 32 58  1  0  0  0  0
 32 59  1  0  0  0  0
 32 60  1  0  0  0  0
 33 36  2  0  0  0  0
 35 36  1  0  0  0  0
 35 62  1  0  0  0  0
 36 63  1  0  0  0  0
 37 67  1  0  0  0  0
 37 68  1  0  0  0  0
 38 39  1  0  0  0  0
 38 41  1  0  0  0  0
 38 70  1  0  0  0  0
 39 40  1  0  0  0  0
 39 71  1  0  0  0  0
 39 72  1  0  0  0  0
 40 42  1  0  0  0  0
 40 73  1  0  0  0  0
 40 74  1  0  0  0  0
 42 43  1  0  0  0  0
 42 75  1  0  0  0  0
 42 76  1  0  0  0  0
 43 77  1  0  0  0  0
 43 78  1  0  0  0  0
M  END
> <PUBCHEM_COMPOUND_CID>
13815

> <PUBCHEM_COMPOUND_CANONICALIZED>
1

> <PUBCHEM_CACTVS_COMPLEXITY>
1230

> <PUBCHEM_CACTVS_HBOND_ACCEPTOR>
14

> <PUBCHEM_CACTVS_HBOND_DONOR>
9

> <PUBCHEM_CACTVS_ROTATABLE_BOND>
10

> <PUBCHEM_CACTVS_SUBSKEYS>
AAADcfB7vAAAAAAAAAAAAAAAAAAAAAAAAAAwYMEAAAAAAADBAAAAHgAQCAAADWzBmAQzDoPAAgCIAqDSSAICAAAgIAAIiIHOCMmKJzKKkTKEcAAv0BMYmUfe+veugAABAAAYAADAAAaEADQAAAAAAAAAAA==

> <PUBCHEM_IUPAC_OPENEYE_NAME>
2-[[[[(4aS,6S,12aS)-4-(dimethylamino)-6,10,11,12a-tetrahydroxy-6-methyl-1,3,12-trioxo-4,4a,5,5a-tetrahydrotetracen-2-ylidene]-hydroxy-methyl]amino]methylamino]-6-amino-hexanoic acid

> <PUBCHEM_IUPAC_CAS_NAME>
2-[[[[(4aS,6S,12aS)-4-(dimethylamino)-6,10,11,12a-tetrahydroxy-6-methyl-1,3,12-trioxo-4,4a,5,5a-tetrahydrotetracen-2-ylidene]-hydroxymethyl]amino]methylamino]-6-aminohexanoic acid

> <PUBCHEM_IUPAC_NAME>
2-[[[[(4aS,6S,12aS)-4-(dimethylamino)-6,10,11,12a-tetrahydroxy-6-methyl-1,3,12-trioxo-4,4a,5,5a-tetrahydrotetracen-2-ylidene]-hydroxymethyl]amino]methylamino]-6-aminohexanoic acid

> <PUBCHEM_IUPAC_SYSTEMATIC_NAME>
2-[[[[(4aS,6S,12aS)-4-(dimethylamino)-6-methyl-6,10,11,12a-tetrakis(oxidanyl)-1,3,12-tris(oxidanylidene)-4,4a,5,5a-tetrahydrotetracen-2-ylidene]-oxidanyl-methyl]amino]methylamino]-6-azanyl-hexanoic acid

> <PUBCHEM_IUPAC_TRADITIONAL_NAME>
2-[[[[(4aS,6S,12aS)-4-(dimethylamino)-6,10,11,12a-tetrahydroxy-1,3,12-triketo-6-methyl-4,4a,5,5a-tetrahydrotetracen-2-ylidene]-hydroxy-methyl]amino]methylamino]-6-amino-hexanoic acid

> <PUBCHEM_IUPAC_INCHI>
InChI=1S/C29H38N4O10/c1-28(42)13-7-6-9-17(34)18(13)22(35)19-14(28)11-15-21(33(2)3)23(36)20(25(38)29(15,43)24(19)37)26(39)32-12-31-16(27(40)41)8-4-5-10-30/h6-7,9,14-16,21,31-32,34-35,39,42-43H,4-5,8,10-12,30H2,1-3H3,(H,40,41)/t14?,15-,16?,21?,28+,29-/m0/s1

> <PUBCHEM_IUPAC_INCHIKEY>
NKQBBDWEXUNSIS-LPPJYXCGSA-N

> <PUBCHEM_XLOGP3>
-3.5

> <PUBCHEM_EXACT_MASS>
602.258793

> <PUBCHEM_MOLECULAR_FORMULA>
C29H38N4O10

> <PUBCHEM_MOLECULAR_WEIGHT>
602.63282

> <PUBCHEM_OPENEYE_CAN_SMILES>
CC1(C2CC3C(C(=O)C(=C(NCNC(CCCCN)C(=O)O)O)C(=O)C3(C(=O)C2=C(C4=C1C=CC=C4O)O)O)N(C)C)O

> <PUBCHEM_OPENEYE_ISO_SMILES>
C[C@@]1(C2C[C@H]3C(C(=O)C(=C(NCNC(CCCCN)C(=O)O)O)C(=O)[C@]3(C(=O)C2=C(C4=C1C=CC=C4O)O)O)N(C)C)O

> <PUBCHEM_CACTVS_TPSA>
243

> <PUBCHEM_MONOISOTOPIC_WEIGHT>
602.258793

> <PUBCHEM_TOTAL_CHARGE>
0

> <PUBCHEM_HEAVY_ATOM_COUNT>
43

> <PUBCHEM_ATOM_DEF_STEREO_COUNT>
3

> <PUBCHEM_ATOM_UDEF_STEREO_COUNT>
3

> <PUBCHEM_BOND_DEF_STEREO_COUNT>
0

> <PUBCHEM_BOND_UDEF_STEREO_COUNT>
1

> <PUBCHEM_ISOTOPIC_ATOM_COUNT>
0

> <PUBCHEM_COMPONENT_COUNT>
1

> <PUBCHEM_CACTVS_TAUTO_COUNT>
168

> <PUBCHEM_COORDINATE_TYPE>
1
5
255

> <PUBCHEM_BONDANNOTATIONS>
18  1  3
19  11  3
38  13  3
15  44  3
16  45  3
20  2  3
20  29  3
24  28  8
24  30  8
27  34  1
28  33  8
30  35  8
33  36  8
35  36  8

$$$$

