185556
  -OEChem-07051213093D

 65 68  0     1  0  0  0  0  0999 V2000
   -0.3488   -3.1388   -0.6412 O   0  0  0  0  0  0  0  0  0  0  0  0
    0.8743    2.1329   -0.3109 O   0  0  0  0  0  0  0  0  0  0  0  0
    3.5813    1.5807    0.1019 O   0  0  0  0  0  0  0  0  0  0  0  0
   -1.2990    1.5550   -1.5145 O   0  0  0  0  0  0  0  0  0  0  0  0
   -3.9241    2.3821   -1.1611 O   0  0  0  0  0  0  0  0  0  0  0  0
    0.6411   -4.0634   -2.4343 O   0  0  0  0  0  0  0  0  0  0  0  0
    2.1276    3.7193    0.8070 O   0  0  0  0  0  0  0  0  0  0  0  0
    0.7844   -1.5065    0.8683 C   0  0  2  0  0  0  0  0  0  0  0  0
    0.2318   -0.2020    0.1742 C   0  0  1  0  0  0  0  0  0  0  0  0
   -1.2735    0.1653    0.5244 C   0  0  1  0  0  0  0  0  0  0  0  0
    2.1169   -1.9310    0.1805 C   0  0  2  0  0  0  0  0  0  0  0  0
   -0.1999   -2.6759    0.7203 C   0  0  1  0  0  0  0  0  0  0  0  0
   -2.1827   -1.1162    0.4611 C   0  0  1  0  0  0  0  0  0  0  0  0
    1.2894    0.9341    0.3395 C   0  0  1  0  0  0  0  0  0  0  0  0
    3.1863   -0.8074    0.2679 C   0  0  2  0  0  0  0  0  0  0  0  0
   -1.6043   -2.3194    1.2175 C   0  0  0  0  0  0  0  0  0  0  0  0
    2.6584    0.5442   -0.2491 C   0  0  2  0  0  0  0  0  0  0  0  0
    1.0733   -1.3360    2.3888 C   0  0  0  0  0  0  0  0  0  0  0  0
    1.8902   -2.4105   -1.2565 C   0  0  0  0  0  0  0  0  0  0  0  0
   -3.6523   -0.8060    0.8730 C   0  0  1  0  0  0  0  0  0  0  0  0
   -1.3775    0.9284    1.8635 C   0  0  0  0  0  0  0  0  0  0  0  0
   -1.9185    1.0579   -0.5768 C   0  0  0  0  0  0  0  0  0  0  0  0
    4.4988   -1.2006   -0.4257 C   0  0  0  0  0  0  0  0  0  0  0  0
    0.7016   -3.3048   -1.4692 C   0  0  0  0  0  0  0  0  0  0  0  0
   -4.1589    0.4434    0.1883 C   0  0  0  0  0  0  0  0  0  0  0  0
   -3.3906    1.2972   -0.5033 C   0  0  0  0  0  0  0  0  0  0  0  0
   -4.6037   -1.9647    0.5471 C   0  0  0  0  0  0  0  0  0  0  0  0
    1.7421    3.1839   -0.2235 C   0  0  0  0  0  0  0  0  0  0  0  0
    3.7449    1.6652    1.5073 C   0  0  0  0  0  0  0  0  0  0  0  0
    2.1698    3.6027   -1.5974 C   0  0  0  0  0  0  0  0  0  0  0  0
   -3.3783    3.5911   -0.6672 C   0  0  0  0  0  0  0  0  0  0  0  0
    0.1943   -0.4034   -0.9058 H   0  0  0  0  0  0  0  0  0  0  0  0
    2.5134   -2.8000    0.7281 H   0  0  0  0  0  0  0  0  0  0  0  0
    0.1503   -3.5442    1.2942 H   0  0  0  0  0  0  0  0  0  0  0  0
   -2.2226   -1.4206   -0.5983 H   0  0  0  0  0  0  0  0  0  0  0  0
    1.2959    1.1696    1.3985 H   0  0  0  0  0  0  0  0  0  0  0  0
    3.4434   -0.7462    1.3285 H   0  0  0  0  0  0  0  0  0  0  0  0
   -1.6175   -2.1343    2.2957 H   0  0  0  0  0  0  0  0  0  0  0  0
   -2.2416   -3.1947    1.0473 H   0  0  0  0  0  0  0  0  0  0  0  0
    2.6025    0.5337   -1.3437 H   0  0  0  0  0  0  0  0  0  0  0  0
    1.7061   -0.4792    2.6243 H   0  0  0  0  0  0  0  0  0  0  0  0
    0.1716   -1.2379    2.9918 H   0  0  0  0  0  0  0  0  0  0  0  0
    1.5924   -2.2212    2.7781 H   0  0  0  0  0  0  0  0  0  0  0  0
    2.7699   -2.9813   -1.5789 H   0  0  0  0  0  0  0  0  0  0  0  0
    1.7789   -1.5694   -1.9486 H   0  0  0  0  0  0  0  0  0  0  0  0
   -3.7029   -0.6380    1.9563 H   0  0  0  0  0  0  0  0  0  0  0  0
   -0.7548    1.8284    1.8626 H   0  0  0  0  0  0  0  0  0  0  0  0
   -2.3878    1.2933    2.0722 H   0  0  0  0  0  0  0  0  0  0  0  0
   -1.0947    0.3180    2.7193 H   0  0  0  0  0  0  0  0  0  0  0  0
    5.2940   -0.4863   -0.1881 H   0  0  0  0  0  0  0  0  0  0  0  0
    4.8342   -2.1889   -0.0938 H   0  0  0  0  0  0  0  0  0  0  0  0
    4.3917   -1.2214   -1.5150 H   0  0  0  0  0  0  0  0  0  0  0  0
   -5.2247    0.6503    0.2608 H   0  0  0  0  0  0  0  0  0  0  0  0
   -5.6454   -1.6913    0.7524 H   0  0  0  0  0  0  0  0  0  0  0  0
   -4.5362   -2.2542   -0.5075 H   0  0  0  0  0  0  0  0  0  0  0  0
   -4.3855   -2.8453    1.1583 H   0  0  0  0  0  0  0  0  0  0  0  0
    4.4593    0.9137    1.8579 H   0  0  0  0  0  0  0  0  0  0  0  0
    2.8688    1.6632    2.1503 H   0  0  0  0  0  0  0  0  0  0  0  0
    4.2537    2.6175    1.7007 H   0  0  0  0  0  0  0  0  0  0  0  0
    1.4261    4.2853   -2.0154 H   0  0  0  0  0  0  0  0  0  0  0  0
    2.2877    2.7372   -2.2540 H   0  0  0  0  0  0  0  0  0  0  0  0
    3.1372    4.1092   -1.5351 H   0  0  0  0  0  0  0  0  0  0  0  0
   -4.0019    4.4136   -1.0316 H   0  0  0  0  0  0  0  0  0  0  0  0
   -2.3643    3.7614   -1.0415 H   0  0  0  0  0  0  0  0  0  0  0  0
   -3.3898    3.6272    0.4286 H   0  0  0  0  0  0  0  0  0  0  0  0
  1 12  1  0  0  0  0
  1 24  1  0  0  0  0
  2 14  1  0  0  0  0
  2 28  1  0  0  0  0
  3 17  1  0  0  0  0
  3 29  1  0  0  0  0
  4 22  2  0  0  0  0
  5 26  1  0  0  0  0
  5 31  1  0  0  0  0
  6 24  2  0  0  0  0
  7 28  2  0  0  0  0
  8  9  1  0  0  0  0
  8 11  1  0  0  0  0
  8 12  1  0  0  0  0
  8 18  1  0  0  0  0
  9 10  1  0  0  0  0
  9 14  1  0  0  0  0
  9 32  1  0  0  0  0
 10 13  1  0  0  0  0
 10 21  1  0  0  0  0
 10 22  1  0  0  0  0
 11 15  1  0  0  0  0
 11 19  1  0  0  0  0
 11 33  1  0  0  0  0
 12 16  1  0  0  0  0
 12 34  1  0  0  0  0
 13 16  1  0  0  0  0
 13 20  1  0  0  0  0
 13 35  1  0  0  0  0
 14 17  1  0  0  0  0
 14 36  1  0  0  0  0
 15 17  1  0  0  0  0
 15 23  1  0  0  0  0
 15 37  1  0  0  0  0
 16 38  1  0  0  0  0
 16 39  1  0  0  0  0
 17 40  1  0  0  0  0
 18 41  1  0  0  0  0
 18 42  1  0  0  0  0
 18 43  1  0  0  0  0
 19 24  1  0  0  0  0
 19 44  1  0  0  0  0
 19 45  1  0  0  0  0
 20 25  1  0  0  0  0
 20 27  1  0  0  0  0
 20 46  1  0  0  0  0
 21 47  1  0  0  0  0
 21 48  1  0  0  0  0
 21 49  1  0  0  0  0
 22 26  1  0  0  0  0
 23 50  1  0  0  0  0
 23 51  1  0  0  0  0
 23 52  1  0  0  0  0
 25 26  2  0  0  0  0
 25 53  1  0  0  0  0
 27 54  1  0  0  0  0
 27 55  1  0  0  0  0
 27 56  1  0  0  0  0
 28 30  1  0  0  0  0
 29 57  1  0  0  0  0
 29 58  1  0  0  0  0
 29 59  1  0  0  0  0
 30 60  1  0  0  0  0
 30 61  1  0  0  0  0
 30 62  1  0  0  0  0
 31 63  1  0  0  0  0
 31 64  1  0  0  0  0
 31 65  1  0  0  0  0
M  END
> <PUBCHEM_COMPOUND_CID>
185556

> <PUBCHEM_CONFORMER_RMSD>
0.8

> <PUBCHEM_CONFORMER_DIVERSEORDER>
1
2

> <PUBCHEM_MMFF94_PARTIAL_CHARGES>
22
1 -0.43
10 0.06
12 0.28
14 0.28
17 0.28
19 0.06
2 -0.43
20 0.14
22 0.49
24 0.66
25 -0.29
26 0.09
28 0.66
29 0.28
3 -0.56
30 0.06
31 0.28
4 -0.57
5 -0.36
53 0.15
6 -0.57
7 -0.57

> <PUBCHEM_EFFECTIVE_ROTOR_COUNT>
5.4

> <PUBCHEM_PHARMACOPHORE_FEATURES>
9
1 3 acceptor
1 4 acceptor
1 5 acceptor
1 6 acceptor
1 7 acceptor
6 1 8 11 12 19 24 rings
6 10 13 20 22 25 26 rings
6 8 9 10 12 13 16 rings
6 8 9 11 14 15 17 rings

> <PUBCHEM_HEAVY_ATOM_COUNT>
31

> <PUBCHEM_ATOM_DEF_STEREO_COUNT>
10

> <PUBCHEM_ATOM_UDEF_STEREO_COUNT>
0

> <PUBCHEM_BOND_DEF_STEREO_COUNT>
0

> <PUBCHEM_BOND_UDEF_STEREO_COUNT>
0

> <PUBCHEM_ISOTOPIC_ATOM_COUNT>
0

> <PUBCHEM_COMPONENT_COUNT>
1

> <PUBCHEM_CACTVS_TAUTO_COUNT>
3

> <PUBCHEM_CONFORMER_ID>
0002D4D400000001

> <PUBCHEM_MMFF94_ENERGY>
149.4091

> <PUBCHEM_FEATURE_SELFOVERLAP>
45.866

> <PUBCHEM_SHAPE_FINGERPRINT>
10675989 125 15671834170402477167
10863032 1 18200599223351410819
10871710 139 17042876894479493148
10906281 52 18050839211646059240
11370993 70 18337961077744193553
12156800 1 9214270047862112589
12403259 226 18343301470023127777
12422481 6 18051950568772987763
12553582 1 17327161651696353499
13140716 1 17839185108457383296
13402501 40 18269835479010193526
14223421 5 18271239405151124217
14790565 3 17404015319549569901
15210252 30 17482254320745252684
16945 1 18200031720637827282
17980427 23 17763509287919610339
19591789 44 18342737369277122377
20600515 1 17767148739973733210
20691752 17 16773512274060726241
20775438 99 16753289179581443501
20905425 154 18057893643552411186
21033648 29 18042425589651383936
21197605 99 17979906126146764587
21524375 3 18196087750837736984
22182313 1 18408316679733336242
23227448 37 18268148656258857803
23559900 14 18409171025874365841
238 59 18194711265780885431
2748010 2 18410851092536993930
3380486 77 17263021641184933611
350125 39 18342167835139070169
35225 105 17975965467138672980
4280585 95 17470727079589969158
495365 180 18042708228131357296
5081480 168 17536849424124313879
5265222 85 17476062542233326572
5939293 188 18270129044288297800
6287921 2 18335686231441887911
9709674 26 18342172216005588843
9862522 239 18194701284044832640

> <PUBCHEM_SHAPE_MULTIPOLES>
596.88
7.01
5.02
1.67
3.1
1.33
0.02
2.27
-0.13
-1.01
2.25
-0.43
-0.69
1.53

> <PUBCHEM_SHAPE_SELFOVERLAP>
1277.01

> <PUBCHEM_SHAPE_VOLUME>
322.6

> <PUBCHEM_COORDINATE_TYPE>
2
5
10

$$$$

