5904
  -OEChem-07051212503D

 41 43  0     1  0  0  0  0  0999 V2000
   -0.8019    1.2308    0.5170 S   0  0  0  0  0  0  0  0  0  0  0  0
   -2.2842   -2.5451   -1.2026 O   0  0  0  0  0  0  0  0  0  0  0  0
   -5.3517    1.0760   -0.8170 O   0  0  0  0  0  0  0  0  0  0  0  0
   -5.1157   -0.6970    0.5961 O   0  0  0  0  0  0  0  0  0  0  0  0
    2.1598   -2.0405    1.2167 O   0  0  0  0  0  0  0  0  0  0  0  0
   -2.4781   -0.7369    0.3018 N   0  0  0  0  0  0  0  0  0  0  0  0
    0.5677   -1.3807   -0.3375 N   0  0  0  0  0  0  0  0  0  0  0  0
   -1.3100   -0.4177    1.1279 C   0  0  1  0  0  0  0  0  0  0  0  0
   -2.5670    1.6679    0.1134 C   0  0  0  0  0  0  0  0  0  0  0  0
   -3.1671    0.3360   -0.3862 C   0  0  2  0  0  0  0  0  0  0  0  0
   -0.6142   -1.6325    0.4990 C   0  0  1  0  0  0  0  0  0  0  0  0
   -1.9181   -1.8261   -0.3007 C   0  0  0  0  0  0  0  0  0  0  0  0
   -3.2193    2.2224    1.3871 C   0  0  0  0  0  0  0  0  0  0  0  0
   -2.5771    2.7313   -0.9863 C   0  0  0  0  0  0  0  0  0  0  0  0
   -4.6296    0.1576   -0.1297 C   0  0  0  0  0  0  0  0  0  0  0  0
    1.8730   -1.6107    0.1024 C   0  0  0  0  0  0  0  0  0  0  0  0
    2.9020   -1.2655   -0.9563 C   0  0  0  0  0  0  0  0  0  0  0  0
    3.8679   -0.1949   -0.5225 C   0  0  0  0  0  0  0  0  0  0  0  0
    3.5670    1.1373   -0.7687 C   0  0  0  0  0  0  0  0  0  0  0  0
    5.0457   -0.5556    0.1171 C   0  0  0  0  0  0  0  0  0  0  0  0
    4.4619    2.1290   -0.3670 C   0  0  0  0  0  0  0  0  0  0  0  0
    5.9405    0.4362    0.5190 C   0  0  0  0  0  0  0  0  0  0  0  0
    5.6486    1.7786    0.2769 C   0  0  0  0  0  0  0  0  0  0  0  0
   -1.5167   -0.4852    2.1999 H   0  0  0  0  0  0  0  0  0  0  0  0
   -2.9961    0.1926   -1.4616 H   0  0  0  0  0  0  0  0  0  0  0  0
   -0.4509   -2.4585    1.2025 H   0  0  0  0  0  0  0  0  0  0  0  0
   -3.2655    1.4761    2.1882 H   0  0  0  0  0  0  0  0  0  0  0  0
   -2.6724    3.0921    1.7709 H   0  0  0  0  0  0  0  0  0  0  0  0
   -4.2446    2.5572    1.1944 H   0  0  0  0  0  0  0  0  0  0  0  0
   -2.0666    3.6467   -0.6644 H   0  0  0  0  0  0  0  0  0  0  0  0
   -2.0842    2.3779   -1.8995 H   0  0  0  0  0  0  0  0  0  0  0  0
   -3.6008    3.0119   -1.2561 H   0  0  0  0  0  0  0  0  0  0  0  0
    0.4359   -1.0113   -1.2762 H   0  0  0  0  0  0  0  0  0  0  0  0
   -6.3150    0.9762   -0.6611 H   0  0  0  0  0  0  0  0  0  0  0  0
    3.4453   -2.1891   -1.1950 H   0  0  0  0  0  0  0  0  0  0  0  0
    2.4229   -0.9646   -1.8960 H   0  0  0  0  0  0  0  0  0  0  0  0
    2.6443    1.4206   -1.2675 H   0  0  0  0  0  0  0  0  0  0  0  0
    5.2818   -1.5979    0.3120 H   0  0  0  0  0  0  0  0  0  0  0  0
    4.2343    3.1743   -0.5548 H   0  0  0  0  0  0  0  0  0  0  0  0
    6.8642    0.1634    1.0209 H   0  0  0  0  0  0  0  0  0  0  0  0
    6.3451    2.5508    0.5901 H   0  0  0  0  0  0  0  0  0  0  0  0
  1  8  1  0  0  0  0
  1  9  1  0  0  0  0
  2 12  2  0  0  0  0
  3 15  1  0  0  0  0
  3 34  1  0  0  0  0
  4 15  2  0  0  0  0
  5 16  2  0  0  0  0
  6  8  1  0  0  0  0
  6 10  1  0  0  0  0
  6 12  1  0  0  0  0
  7 11  1  0  0  0  0
  7 16  1  0  0  0  0
  7 33  1  0  0  0  0
  8 11  1  0  0  0  0
  8 24  1  0  0  0  0
  9 10  1  0  0  0  0
  9 13  1  0  0  0  0
  9 14  1  0  0  0  0
 10 15  1  0  0  0  0
 10 25  1  0  0  0  0
 11 12  1  0  0  0  0
 11 26  1  0  0  0  0
 13 27  1  0  0  0  0
 13 28  1  0  0  0  0
 13 29  1  0  0  0  0
 14 30  1  0  0  0  0
 14 31  1  0  0  0  0
 14 32  1  0  0  0  0
 16 17  1  0  0  0  0
 17 18  1  0  0  0  0
 17 35  1  0  0  0  0
 17 36  1  0  0  0  0
 18 19  2  0  0  0  0
 18 20  1  0  0  0  0
 19 21  1  0  0  0  0
 19 37  1  0  0  0  0
 20 22  2  0  0  0  0
 20 38  1  0  0  0  0
 21 23  2  0  0  0  0
 21 39  1  0  0  0  0
 22 23  1  0  0  0  0
 22 40  1  0  0  0  0
 23 41  1  0  0  0  0
M  END
> <PUBCHEM_COMPOUND_CID>
5904

> <PUBCHEM_CONFORMER_RMSD>
0.8

> <PUBCHEM_CONFORMER_DIVERSEORDER>
9
22
15
3
14
16
18
6
26
25
2
21
24
20
5
13
12
23
19
7
10
11
27
4
8
17
1

> <PUBCHEM_MMFF94_PARTIAL_CHARGES>
28
1 -0.45
10 0.36
11 0.28
12 0.58
15 0.66
16 0.57
17 0.2
18 -0.14
19 -0.15
2 -0.57
20 -0.15
21 -0.15
22 -0.15
23 -0.15
3 -0.65
33 0.37
34 0.5
37 0.15
38 0.15
39 0.15
4 -0.57
40 0.15
41 0.15
5 -0.57
6 -0.59
7 -0.65
8 0.44
9 0.23

> <PUBCHEM_EFFECTIVE_ROTOR_COUNT>
5.8

> <PUBCHEM_PHARMACOPHORE_FEATURES>
9
1 2 acceptor
1 3 acceptor
1 4 acceptor
1 5 acceptor
1 7 donor
3 3 4 15 anion
3 9 13 14 hydrophobe
6 18 19 20 21 22 23 rings
7 1 6 8 9 10 11 12 rings

> <PUBCHEM_HEAVY_ATOM_COUNT>
23

> <PUBCHEM_ATOM_DEF_STEREO_COUNT>
3

> <PUBCHEM_ATOM_UDEF_STEREO_COUNT>
0

> <PUBCHEM_BOND_DEF_STEREO_COUNT>
0

> <PUBCHEM_BOND_UDEF_STEREO_COUNT>
0

> <PUBCHEM_ISOTOPIC_ATOM_COUNT>
0

> <PUBCHEM_COMPONENT_COUNT>
1

> <PUBCHEM_CACTVS_TAUTO_COUNT>
2

> <PUBCHEM_CONFORMER_ID>
0000171000000009

> <PUBCHEM_MMFF94_ENERGY>
62.154

> <PUBCHEM_FEATURE_SELFOVERLAP>
45.725

> <PUBCHEM_SHAPE_FINGERPRINT>
10498660 4 18261107440161547802
10670039 82 18200009829885832940
10906281 52 18116429440267770809
11370993 70 18412545427202331156
12596602 18 16630241403694223256
12788726 201 17604147137773178097
13402501 40 18411420596637330804
13533116 47 17632302327963058738
13583140 156 17489581290112472057
14251764 38 18410006607794311504
14466204 15 18342184375786049528
14739800 52 18263662735523551850
14767858 380 18188788188384580503
14790565 3 18189324840137723281
15196674 1 18410007775697855208
15463212 79 18409739434526135038
15537594 2 8862941680379285780
15840311 113 17900239087253492585
17959699 21 18410292519081173266
20511986 3 18339658762721144956
20715895 44 18341334478170920012
21033648 29 16845296097913529951
21315764 268 18341900680037128452
21623110 236 18410002243754033145
21652331 79 18412824681195484156
23227448 37 18409729525909190415
235170 7 15719384062563686164
23559900 14 17970906889608156014
2838139 119 18340495550724892228
351380 180 18413951676820179620
351380 3 8286201643442542116
3545911 37 18334571352700630326
3680242 22 18341330093562965264
4340502 62 17131826586587569483
46194498 28 4750863858709101258
474 4 18060413595707676154
5104073 3 18200024178717142203
9981440 41 18343302531329106146

> <PUBCHEM_SHAPE_MULTIPOLES>
443.74
12.86
2.8
1.07
9.03
0.36
0.07
5.28
-0.21
-0.63
-0.23
-0.35
0.06
-0.24

> <PUBCHEM_SHAPE_SELFOVERLAP>
931.394

> <PUBCHEM_SHAPE_VOLUME>
252.2

> <PUBCHEM_COORDINATE_TYPE>
2
5
10

$$$$

