14080
  -OEChem-06241222422D

 12 12  0     0  0  0  0  0  0999 V2000
    5.3122    0.5282    0.0000 O   0  0  0  0  0  0  0  0  0  0  0  0
    4.7770   -1.1191    0.0000 O   0  0  0  0  0  0  0  0  0  0  0  0
    2.8090   -0.4197    0.0000 N   0  0  0  0  0  0  0  0  0  0  0  0
    2.3090    1.1191    0.0000 N   0  0  0  0  0  0  0  0  0  0  0  0
    3.6180    0.1681    0.0000 C   0  0  0  0  0  0  0  0  0  0  0  0
    3.3090    1.1191    0.0000 C   0  0  0  0  0  0  0  0  0  0  0  0
    2.0000    0.1681    0.0000 C   0  0  0  0  0  0  0  0  0  0  0  0
    4.5691   -0.1410    0.0000 C   0  0  0  0  0  0  0  0  0  0  0  0
    2.8090   -1.0397    0.0000 H   0  0  0  0  0  0  0  0  0  0  0  0
    3.6734    1.6207    0.0000 H   0  0  0  0  0  0  0  0  0  0  0  0
    1.4103   -0.0235    0.0000 H   0  0  0  0  0  0  0  0  0  0  0  0
    5.9019    0.3366    0.0000 H   0  0  0  0  0  0  0  0  0  0  0  0
  1  8  1  0  0  0  0
  1 12  1  0  0  0  0
  2  8  2  0  0  0  0
  3  5  1  0  0  0  0
  3  7  1  0  0  0  0
  3  9  1  0  0  0  0
  4  6  1  0  0  0  0
  4  7  2  0  0  0  0
  5  6  2  0  0  0  0
  5  8  1  0  0  0  0
  6 10  1  0  0  0  0
  7 11  1  0  0  0  0
M  END
> <PUBCHEM_COMPOUND_CID>
14080

> <PUBCHEM_COMPOUND_CANONICALIZED>
1

> <PUBCHEM_CACTVS_COMPLEXITY>
104

> <PUBCHEM_CACTVS_HBOND_ACCEPTOR>
3

> <PUBCHEM_CACTVS_HBOND_DONOR>
2

> <PUBCHEM_CACTVS_ROTATABLE_BOND>
1

> <PUBCHEM_CACTVS_SUBSKEYS>
AAADcYBjMAAAAAAAAAAAAAAAAAAAAWAAAAAAAAAAAAAAAAABgAAAHgAQCAAACAjBlgQtmBbJkgCoART3bAQAgC2XEqABUYG4eECCTAhACCAUQIAKEAJQEOAAAAAAAAAAAAAAAAAAAAAAAAAAAAAAAAAAAA==

> <PUBCHEM_IUPAC_OPENEYE_NAME>
1H-imidazole-5-carboxylic acid

> <PUBCHEM_IUPAC_CAS_NAME>
1H-imidazole-5-carboxylic acid

> <PUBCHEM_IUPAC_NAME>
1H-imidazole-5-carboxylic acid

> <PUBCHEM_IUPAC_SYSTEMATIC_NAME>
1H-imidazole-5-carboxylic acid

> <PUBCHEM_IUPAC_TRADITIONAL_NAME>
1H-imidazole-5-carboxylic acid

> <PUBCHEM_IUPAC_INCHI>
InChI=1S/C4H4N2O2/c7-4(8)3-1-5-2-6-3/h1-2H,(H,5,6)(H,7,8)

> <PUBCHEM_IUPAC_INCHIKEY>
NKWCGTOZTHZDHB-UHFFFAOYSA-N

> <PUBCHEM_XLOGP3_AA>
-0.1

> <PUBCHEM_EXACT_MASS>
112.027277

> <PUBCHEM_MOLECULAR_FORMULA>
C4H4N2O2

> <PUBCHEM_MOLECULAR_WEIGHT>
112.08676

> <PUBCHEM_OPENEYE_CAN_SMILES>
C1=C(NC=N1)C(=O)O

> <PUBCHEM_OPENEYE_ISO_SMILES>
C1=C(NC=N1)C(=O)O

> <PUBCHEM_CACTVS_TPSA>
66

> <PUBCHEM_MONOISOTOPIC_WEIGHT>
112.027277

> <PUBCHEM_TOTAL_CHARGE>
0

> <PUBCHEM_HEAVY_ATOM_COUNT>
8

> <PUBCHEM_ATOM_DEF_STEREO_COUNT>
0

> <PUBCHEM_ATOM_UDEF_STEREO_COUNT>
0

> <PUBCHEM_BOND_DEF_STEREO_COUNT>
0

> <PUBCHEM_BOND_UDEF_STEREO_COUNT>
0

> <PUBCHEM_ISOTOPIC_ATOM_COUNT>
0

> <PUBCHEM_COMPONENT_COUNT>
1

> <PUBCHEM_CACTVS_TAUTO_COUNT>
4

> <PUBCHEM_COORDINATE_TYPE>
1
5
255

> <PUBCHEM_BONDANNOTATIONS>
3  5  8
3  7  8
4  6  8
4  7  8
5  6  8

$$$$

