3867
  -OEChem-06251223442D

 25 24  0     1  0  0  0  0  0999 V2000
    4.2690   -2.6900    0.0000 S   0  0  0  0  0  0  0  0  0  0  0  0
    6.8671    1.8100    0.0000 O   0  0  0  0  0  0  0  0  0  0  0  0
    6.0010    3.3100    0.0000 O   0  0  0  0  0  0  0  0  0  0  0  0
    4.2690    2.3100    0.0000 N   0  0  0  0  0  0  0  0  0  0  0  0
    3.4030   -1.1900    0.0000 N   0  0  0  0  0  0  0  0  0  0  0  0
    2.5369   -2.6900    0.0000 N   0  0  0  0  0  0  0  0  0  0  0  0
    5.1350    0.8100    0.0000 C   0  0  0  0  0  0  0  0  0  0  0  0
    4.2690    0.3100    0.0000 C   0  0  0  0  0  0  0  0  0  0  0  0
    5.1350    1.8100    0.0000 C   0  0  3  0  0  0  0  0  0  0  0  0
    4.2690   -0.6900    0.0000 C   0  0  0  0  0  0  0  0  0  0  0  0
    6.0010    2.3100    0.0000 C   0  0  0  0  0  0  0  0  0  0  0  0
    3.4030   -2.1900    0.0000 C   0  0  0  0  0  0  0  0  0  0  0  0
    5.3471    0.2274    0.0000 H   0  0  0  0  0  0  0  0  0  0  0  0
    5.7456    0.9177    0.0000 H   0  0  0  0  0  0  0  0  0  0  0  0
    4.0569    0.8926    0.0000 H   0  0  0  0  0  0  0  0  0  0  0  0
    3.6584    0.2023    0.0000 H   0  0  0  0  0  0  0  0  0  0  0  0
    5.1350    2.4300    0.0000 H   0  0  0  0  0  0  0  0  0  0  0  0
    4.4810   -1.2726    0.0000 H   0  0  0  0  0  0  0  0  0  0  0  0
    4.8796   -0.5823    0.0000 H   0  0  0  0  0  0  0  0  0  0  0  0
    3.7321    2.0000    0.0000 H   0  0  0  0  0  0  0  0  0  0  0  0
    4.2690    2.9300    0.0000 H   0  0  0  0  0  0  0  0  0  0  0  0
    7.4040    2.1200    0.0000 H   0  0  0  0  0  0  0  0  0  0  0  0
    2.5369   -3.3100    0.0000 H   0  0  0  0  0  0  0  0  0  0  0  0
    2.0000   -2.3800    0.0000 H   0  0  0  0  0  0  0  0  0  0  0  0
    4.2690   -3.3100    0.0000 H   0  0  0  0  0  0  0  0  0  0  0  0
  1 12  1  0  0  0  0
  1 25  1  0  0  0  0
  2 11  1  0  0  0  0
  2 22  1  0  0  0  0
  3 11  2  0  0  0  0
  4  9  1  0  0  0  0
  4 20  1  0  0  0  0
  4 21  1  0  0  0  0
  5 10  1  0  0  0  0
  5 12  2  0  0  0  0
  6 12  1  0  0  0  0
  6 23  1  0  0  0  0
  6 24  1  0  0  0  0
  7  8  1  0  0  0  0
  7  9  1  0  0  0  0
  7 13  1  0  0  0  0
  7 14  1  0  0  0  0
  8 10  1  0  0  0  0
  8 15  1  0  0  0  0
  8 16  1  0  0  0  0
  9 11  1  0  0  0  0
  9 17  1  0  0  0  0
 10 18  1  0  0  0  0
 10 19  1  0  0  0  0
M  END
> <PUBCHEM_COMPOUND_CID>
3867

> <PUBCHEM_COMPOUND_CANONICALIZED>
1

> <PUBCHEM_CACTVS_COMPLEXITY>
184

> <PUBCHEM_CACTVS_HBOND_ACCEPTOR>
5

> <PUBCHEM_CACTVS_HBOND_DONOR>
4

> <PUBCHEM_CACTVS_ROTATABLE_BOND>
5

> <PUBCHEM_CACTVS_SUBSKEYS>
AAADccBjMABAAAAAAAAAAAAAAAAAAAAAAAAAAAAAAAAAAAAAAAAAHgQQCAAACCjBgAQBCAJAAgQoAACQLAAAEAEAAAAAAIGAAAACABIAgAAAQAAEEAAAAACYEQAAAAAAAAAAAAAAAAAAAAAAAAAAAAAAAA==

> <PUBCHEM_IUPAC_OPENEYE_NAME>
2-amino-5-[[amino(sulfanyl)methylene]amino]pentanoic acid

> <PUBCHEM_IUPAC_CAS_NAME>
2-amino-5-[[amino(mercapto)methylidene]amino]pentanoic acid

> <PUBCHEM_IUPAC_NAME>
2-amino-5-[[amino(sulfanyl)methylidene]amino]pentanoic acid

> <PUBCHEM_IUPAC_SYSTEMATIC_NAME>
2-azanyl-5-[[azanyl(sulfanyl)methylidene]amino]pentanoic acid

> <PUBCHEM_IUPAC_TRADITIONAL_NAME>
2-amino-5-(3-isothioureido)valeric acid

> <PUBCHEM_IUPAC_INCHI>
InChI=1S/C6H13N3O2S/c7-4(5(10)11)2-1-3-9-6(8)12/h4H,1-3,7H2,(H,10,11)(H3,8,9,12)

> <PUBCHEM_IUPAC_INCHIKEY>
BKGWACHYAMTLAF-UHFFFAOYSA-N

> <PUBCHEM_XLOGP3>
-3

> <PUBCHEM_EXACT_MASS>
191.072848

> <PUBCHEM_MOLECULAR_FORMULA>
C6H13N3O2S

> <PUBCHEM_MOLECULAR_WEIGHT>
191.25132

> <PUBCHEM_OPENEYE_CAN_SMILES>
C(CC(C(=O)O)N)CN=C(N)S

> <PUBCHEM_OPENEYE_ISO_SMILES>
C(CC(C(=O)O)N)CN=C(N)S

> <PUBCHEM_CACTVS_TPSA>
103

> <PUBCHEM_MONOISOTOPIC_WEIGHT>
191.072848

> <PUBCHEM_TOTAL_CHARGE>
0

> <PUBCHEM_HEAVY_ATOM_COUNT>
12

> <PUBCHEM_ATOM_DEF_STEREO_COUNT>
0

> <PUBCHEM_ATOM_UDEF_STEREO_COUNT>
1

> <PUBCHEM_BOND_DEF_STEREO_COUNT>
0

> <PUBCHEM_BOND_UDEF_STEREO_COUNT>
0

> <PUBCHEM_ISOTOPIC_ATOM_COUNT>
0

> <PUBCHEM_COMPONENT_COUNT>
1

> <PUBCHEM_CACTVS_TAUTO_COUNT>
3

> <PUBCHEM_COORDINATE_TYPE>
1
5
255

> <PUBCHEM_BONDANNOTATIONS>
9  4  3

$$$$

