641301
  -OEChem-07051212503D

 19 19  0     0  0  0  0  0  0999 V2000
    4.0754    0.4856    0.1253 O   0  0  0  0  0  0  0  0  0  0  0  0
   -4.7437    0.5437    0.1889 O   0  0  0  0  0  0  0  0  0  0  0  0
    0.0160   -0.3483   -0.1053 C   0  0  0  0  0  0  0  0  0  0  0  0
    0.4601    0.9732   -0.1480 C   0  0  0  0  0  0  0  0  0  0  0  0
    0.9360   -1.3899    0.0149 C   0  0  0  0  0  0  0  0  0  0  0  0
    1.8244    1.2532   -0.0706 C   0  0  0  0  0  0  0  0  0  0  0  0
    2.3004   -1.1100    0.0923 C   0  0  0  0  0  0  0  0  0  0  0  0
    2.7446    0.2117    0.0496 C   0  0  0  0  0  0  0  0  0  0  0  0
   -1.4064   -0.6414   -0.1857 C   0  0  0  0  0  0  0  0  0  0  0  0
   -2.4015    0.2331    0.0765 C   0  0  0  0  0  0  0  0  0  0  0  0
   -3.8053   -0.2109   -0.0379 C   0  0  0  0  0  0  0  0  0  0  0  0
   -0.2186    1.8138   -0.2592 H   0  0  0  0  0  0  0  0  0  0  0  0
    0.6087   -2.4262    0.0512 H   0  0  0  0  0  0  0  0  0  0  0  0
    2.1584    2.2866   -0.1090 H   0  0  0  0  0  0  0  0  0  0  0  0
    3.0124   -1.9253    0.1862 H   0  0  0  0  0  0  0  0  0  0  0  0
   -1.6598   -1.6607   -0.4705 H   0  0  0  0  0  0  0  0  0  0  0  0
   -2.2419    1.2579    0.3880 H   0  0  0  0  0  0  0  0  0  0  0  0
    4.2021    1.4490    0.0810 H   0  0  0  0  0  0  0  0  0  0  0  0
   -3.9628   -1.2595   -0.3404 H   0  0  0  0  0  0  0  0  0  0  0  0
  1  8  1  0  0  0  0
  1 18  1  0  0  0  0
  2 11  2  0  0  0  0
  3  4  2  0  0  0  0
  3  5  1  0  0  0  0
  3  9  1  0  0  0  0
  4  6  1  0  0  0  0
  4 12  1  0  0  0  0
  5  7  2  0  0  0  0
  5 13  1  0  0  0  0
  6  8  2  0  0  0  0
  6 14  1  0  0  0  0
  7  8  1  0  0  0  0
  7 15  1  0  0  0  0
  9 10  2  0  0  0  0
  9 16  1  0  0  0  0
 10 11  1  0  0  0  0
 10 17  1  0  0  0  0
 11 19  1  0  0  0  0
M  END
> <PUBCHEM_COMPOUND_CID>
641301

> <PUBCHEM_CONFORMER_RMSD>
0.4

> <PUBCHEM_CONFORMER_DIVERSEORDER>
1
2

> <PUBCHEM_MMFF94_PARTIAL_CHARGES>
19
1 -0.53
10 -0.14
11 0.5
12 0.15
13 0.15
14 0.15
15 0.15
16 0.15
17 0.15
18 0.45
19 0.06
2 -0.57
3 0.03
4 -0.15
5 -0.15
6 -0.15
7 -0.15
8 0.08
9 -0.18

> <PUBCHEM_EFFECTIVE_ROTOR_COUNT>
2

> <PUBCHEM_PHARMACOPHORE_FEATURES>
3
1 1 donor
1 2 acceptor
6 3 4 5 6 7 8 rings

> <PUBCHEM_HEAVY_ATOM_COUNT>
11

> <PUBCHEM_ATOM_DEF_STEREO_COUNT>
0

> <PUBCHEM_ATOM_UDEF_STEREO_COUNT>
0

> <PUBCHEM_BOND_DEF_STEREO_COUNT>
1

> <PUBCHEM_BOND_UDEF_STEREO_COUNT>
0

> <PUBCHEM_ISOTOPIC_ATOM_COUNT>
0

> <PUBCHEM_COMPONENT_COUNT>
1

> <PUBCHEM_CACTVS_TAUTO_COUNT>
2

> <PUBCHEM_CONFORMER_ID>
0009C91500000001

> <PUBCHEM_MMFF94_ENERGY>
25.1535

> <PUBCHEM_FEATURE_SELFOVERLAP>
15.223

> <PUBCHEM_SHAPE_FINGERPRINT>
10219947 1 18411698794152509318
11062470 55 18113337509446517273
11471102 20 18411422825344912807
12346645 6 18260828228284754630
12932764 1 16805619091523010191
13380535 76 18410855438806858283
13922767 16 18408043991763821641
14144814 61 18408602591273782395
14325111 11 18410573959819562247
15775835 57 18260830375778620645
20201158 50 18272087205851821115
20279233 1 17703784825953528027
20645477 70 18338521957882340655
20871998 22 18047189936695970454
23402539 116 16587747546748930885
23402655 69 18335145323450456037
528886 8 18410016507266095826
53812653 166 18336551529838933248

> <PUBCHEM_SHAPE_MULTIPOLES>
214.64
7.06
1.24
0.61
6.06
0.1
-0.01
-1.19
0.52
-0.65
-0.01
0.01
0.01
-0.08

> <PUBCHEM_SHAPE_SELFOVERLAP>
444.625

> <PUBCHEM_SHAPE_VOLUME>
122.9

> <PUBCHEM_COORDINATE_TYPE>
2
5
10

$$$$

