2346
  -OEChem-07051212483D

 17 17  0     0  0  0  0  0  0999 V2000
    4.6171   -0.0446   -0.0098 S   0  0  0  0  0  0  0  0  0  0  0  0
    1.8973    0.0431   -0.5032 N   0  0  0  0  0  0  0  0  0  0  0  0
   -0.4106    0.0137    0.3416 C   0  0  0  0  0  0  0  0  0  0  0  0
    1.0399    0.0355    0.6887 C   0  0  0  0  0  0  0  0  0  0  0  0
   -1.1059    1.2114    0.1751 C   0  0  0  0  0  0  0  0  0  0  0  0
   -1.0717   -1.2042    0.1838 C   0  0  0  0  0  0  0  0  0  0  0  0
   -2.4625    1.1911   -0.1490 C   0  0  0  0  0  0  0  0  0  0  0  0
   -2.4282   -1.2247   -0.1405 C   0  0  0  0  0  0  0  0  0  0  0  0
   -3.1236   -0.0269   -0.3069 C   0  0  0  0  0  0  0  0  0  0  0  0
    3.0482    0.0056   -0.2797 C   0  0  0  0  0  0  0  0  0  0  0  0
    1.2466    0.9190    1.3104 H   0  0  0  0  0  0  0  0  0  0  0  0
    1.2681   -0.8348    1.3219 H   0  0  0  0  0  0  0  0  0  0  0  0
   -0.6020    2.1670    0.2933 H   0  0  0  0  0  0  0  0  0  0  0  0
   -0.5409   -2.1443    0.3088 H   0  0  0  0  0  0  0  0  0  0  0  0
   -3.0039    2.1236   -0.2792 H   0  0  0  0  0  0  0  0  0  0  0  0
   -2.9430   -2.1730   -0.2640 H   0  0  0  0  0  0  0  0  0  0  0  0
   -4.1797   -0.0428   -0.5598 H   0  0  0  0  0  0  0  0  0  0  0  0
  1 10  2  0  0  0  0
  2  4  1  0  0  0  0
  2 10  2  0  0  0  0
  3  4  1  0  0  0  0
  3  5  2  0  0  0  0
  3  6  1  0  0  0  0
  4 11  1  0  0  0  0
  4 12  1  0  0  0  0
  5  7  1  0  0  0  0
  5 13  1  0  0  0  0
  6  8  2  0  0  0  0
  6 14  1  0  0  0  0
  7  9  2  0  0  0  0
  7 15  1  0  0  0  0
  8  9  1  0  0  0  0
  8 16  1  0  0  0  0
  9 17  1  0  0  0  0
M  END
> <PUBCHEM_COMPOUND_CID>
2346

> <PUBCHEM_CONFORMER_RMSD>
0.4

> <PUBCHEM_CONFORMER_DIVERSEORDER>
1
11
10
8
9
3
6
5
13
2
12
7
4

> <PUBCHEM_MMFF94_PARTIAL_CHARGES>
15
1 -0.27
10 0.57
13 0.15
14 0.15
15 0.15
16 0.15
17 0.15
2 -0.55
3 -0.14
4 0.39
5 -0.15
6 -0.15
7 -0.15
8 -0.15
9 -0.15

> <PUBCHEM_EFFECTIVE_ROTOR_COUNT>
2

> <PUBCHEM_PHARMACOPHORE_FEATURES>
3
1 1 acceptor
1 2 acceptor
6 3 5 6 7 8 9 rings

> <PUBCHEM_HEAVY_ATOM_COUNT>
10

> <PUBCHEM_ATOM_DEF_STEREO_COUNT>
0

> <PUBCHEM_ATOM_UDEF_STEREO_COUNT>
0

> <PUBCHEM_BOND_DEF_STEREO_COUNT>
0

> <PUBCHEM_BOND_UDEF_STEREO_COUNT>
0

> <PUBCHEM_ISOTOPIC_ATOM_COUNT>
0

> <PUBCHEM_COMPONENT_COUNT>
1

> <PUBCHEM_CACTVS_TAUTO_COUNT>
1

> <PUBCHEM_CONFORMER_ID>
0000092A00000001

> <PUBCHEM_MMFF94_ENERGY>
19.4972

> <PUBCHEM_FEATURE_SELFOVERLAP>
15.228

> <PUBCHEM_SHAPE_FINGERPRINT>
11062470 55 17676487254828174008
12897270 3 18410012121824762230
12932764 1 17846508031992186096
13024252 1 17704351061504027123
14325111 11 18411699915492342954
14911166 2 18410304601198788517
15775835 57 17988644146150544316
20201158 50 17894909637621747822
20279233 1 17676483956388327454
20645476 183 17846788394709744539
20645477 56 18338231669152586469
21061003 4 16877657933517504890
21119208 17 18131634486797359918
23402539 116 18336555979108703365
23552423 10 18128258891621414881
23559900 14 18260833735207989146
573450 72 18271257100801505778
6333449 129 18334859419882285029

> <PUBCHEM_SHAPE_MULTIPOLES>
204.66
6.92
1.2
0.72
8.26
0.01
-0.03
0.09
0.88
-1.03
-0.01
0.09
0
0

> <PUBCHEM_SHAPE_SELFOVERLAP>
409.896

> <PUBCHEM_SHAPE_VOLUME>
120.9

> <PUBCHEM_COORDINATE_TYPE>
2
5
10

$$$$

