34781
  -OEChem-07051213113D

 51 54  0     0  0  0  0  0  0999 V2000
    4.4956    1.6154   -0.2162 O   0  0  0  0  0  0  0  0  0  0  0  0
   -4.6453   -2.1278   -0.5924 O   0  0  0  0  0  0  0  0  0  0  0  0
   -5.9756    0.2454   -0.0393 O   0  0  0  0  0  0  0  0  0  0  0  0
    6.0251   -0.6328    0.1707 O   0  0  0  0  0  0  0  0  0  0  0  0
    0.3138    1.3334   -0.2590 N   0  3  0  0  0  0  0  0  0  0  0  0
   -0.3109    0.1301   -0.1023 C   0  0  0  0  0  0  0  0  0  0  0  0
   -0.4615    2.5756   -0.5071 C   0  0  0  0  0  0  0  0  0  0  0  0
   -1.6977    2.5943    0.3716 C   0  0  0  0  0  0  0  0  0  0  0  0
   -1.7864    0.1402   -0.1200 C   0  0  0  0  0  0  0  0  0  0  0  0
   -2.4857    1.3403    0.1225 C   0  0  0  0  0  0  0  0  0  0  0  0
    0.4715   -1.0200    0.0981 C   0  0  0  0  0  0  0  0  0  0  0  0
    1.8678   -0.9416    0.1213 C   0  0  0  0  0  0  0  0  0  0  0  0
    1.6637    1.4261   -0.2478 C   0  0  0  0  0  0  0  0  0  0  0  0
    2.4766    0.3099   -0.0576 C   0  0  0  0  0  0  0  0  0  0  0  0
   -2.5489   -1.0170   -0.3602 C   0  0  0  0  0  0  0  0  0  0  0  0
   -3.8871    1.3661    0.1626 C   0  0  0  0  0  0  0  0  0  0  0  0
   -0.1352   -2.3492    0.4455 C   0  0  0  0  0  0  0  0  0  0  0  0
    3.8777    0.4088   -0.0410 C   0  0  0  0  0  0  0  0  0  0  0  0
    2.6734   -2.0762    0.3190 C   0  0  0  0  0  0  0  0  0  0  0  0
   -3.9466   -0.9857   -0.3362 C   0  0  0  0  0  0  0  0  0  0  0  0
   -4.6151    0.2038   -0.0693 C   0  0  0  0  0  0  0  0  0  0  0  0
    4.6660   -0.7251    0.1544 C   0  0  0  0  0  0  0  0  0  0  0  0
    4.0643   -1.9669    0.3350 C   0  0  0  0  0  0  0  0  0  0  0  0
    4.7578    2.3803    0.9561 C   0  0  0  0  0  0  0  0  0  0  0  0
   -4.9768   -2.9482    0.5258 C   0  0  0  0  0  0  0  0  0  0  0  0
   -6.5802    1.5064    0.2421 C   0  0  0  0  0  0  0  0  0  0  0  0
    6.6999   -0.7855   -1.0765 C   0  0  0  0  0  0  0  0  0  0  0  0
   -0.7053    2.5743   -1.5764 H   0  0  0  0  0  0  0  0  0  0  0  0
    0.1661    3.4448   -0.2853 H   0  0  0  0  0  0  0  0  0  0  0  0
   -2.2914    3.4852    0.1386 H   0  0  0  0  0  0  0  0  0  0  0  0
   -1.4214    2.6356    1.4318 H   0  0  0  0  0  0  0  0  0  0  0  0
    2.0659    2.4203   -0.4070 H   0  0  0  0  0  0  0  0  0  0  0  0
   -2.1174   -1.9461   -0.7090 H   0  0  0  0  0  0  0  0  0  0  0  0
   -4.3471    2.3256    0.3743 H   0  0  0  0  0  0  0  0  0  0  0  0
    0.4721   -2.9251    1.1510 H   0  0  0  0  0  0  0  0  0  0  0  0
   -1.0472   -2.2523    1.0403 H   0  0  0  0  0  0  0  0  0  0  0  0
   -0.2893   -2.9638   -0.4463 H   0  0  0  0  0  0  0  0  0  0  0  0
    2.2826   -3.0834    0.4191 H   0  0  0  0  0  0  0  0  0  0  0  0
    4.6717   -2.8565    0.4789 H   0  0  0  0  0  0  0  0  0  0  0  0
    3.8375    2.5730    1.5165 H   0  0  0  0  0  0  0  0  0  0  0  0
    5.1858    3.3390    0.6504 H   0  0  0  0  0  0  0  0  0  0  0  0
    5.4815    1.8646    1.5952 H   0  0  0  0  0  0  0  0  0  0  0  0
   -5.5332   -3.8160    0.1613 H   0  0  0  0  0  0  0  0  0  0  0  0
   -5.6072   -2.4001    1.2330 H   0  0  0  0  0  0  0  0  0  0  0  0
   -4.0685   -3.2993    1.0259 H   0  0  0  0  0  0  0  0  0  0  0  0
   -6.3546    2.2446   -0.5351 H   0  0  0  0  0  0  0  0  0  0  0  0
   -6.3217    1.8633    1.2449 H   0  0  0  0  0  0  0  0  0  0  0  0
   -7.6645    1.3536    0.2294 H   0  0  0  0  0  0  0  0  0  0  0  0
    6.5134   -1.7801   -1.4938 H   0  0  0  0  0  0  0  0  0  0  0  0
    7.7735   -0.6756   -0.9008 H   0  0  0  0  0  0  0  0  0  0  0  0
    6.3807   -0.0146   -1.7850 H   0  0  0  0  0  0  0  0  0  0  0  0
  1 18  1  0  0  0  0
  1 24  1  0  0  0  0
  2 20  1  0  0  0  0
  2 25  1  0  0  0  0
  3 21  1  0  0  0  0
  3 26  1  0  0  0  0
  4 22  1  0  0  0  0
  4 27  1  0  0  0  0
  5  6  2  0  0  0  0
  5  7  1  0  0  0  0
  5 13  1  0  0  0  0
  6  9  1  0  0  0  0
  6 11  1  0  0  0  0
  7  8  1  0  0  0  0
  7 28  1  0  0  0  0
  7 29  1  0  0  0  0
  8 10  1  0  0  0  0
  8 30  1  0  0  0  0
  8 31  1  0  0  0  0
  9 10  1  0  0  0  0
  9 15  2  0  0  0  0
 10 16  2  0  0  0  0
 11 12  2  0  0  0  0
 11 17  1  0  0  0  0
 12 14  1  0  0  0  0
 12 19  1  0  0  0  0
 13 14  2  0  0  0  0
 13 32  1  0  0  0  0
 14 18  1  0  0  0  0
 15 20  1  0  0  0  0
 15 33  1  0  0  0  0
 16 21  1  0  0  0  0
 16 34  1  0  0  0  0
 17 35  1  0  0  0  0
 17 36  1  0  0  0  0
 17 37  1  0  0  0  0
 18 22  2  0  0  0  0
 19 23  2  0  0  0  0
 19 38  1  0  0  0  0
 20 21  2  0  0  0  0
 22 23  1  0  0  0  0
 23 39  1  0  0  0  0
 24 40  1  0  0  0  0
 24 41  1  0  0  0  0
 24 42  1  0  0  0  0
 25 43  1  0  0  0  0
 25 44  1  0  0  0  0
 25 45  1  0  0  0  0
 26 46  1  0  0  0  0
 26 47  1  0  0  0  0
 26 48  1  0  0  0  0
 27 49  1  0  0  0  0
 27 50  1  0  0  0  0
 27 51  1  0  0  0  0
M  CHG  1   5   1
M  END
> <PUBCHEM_COMPOUND_CID>
34781

> <PUBCHEM_CONFORMER_RMSD>
0.8

> <PUBCHEM_CONFORMER_DIVERSEORDER>
1
2

> <PUBCHEM_MMFF94_PARTIAL_CHARGES>
29
1 -0.36
10 -0.14
11 -0.14
13 0.21
15 -0.15
16 -0.15
17 0.14
18 0.08
19 -0.15
2 -0.36
20 0.08
21 0.08
22 0.08
23 -0.15
24 0.28
25 0.28
26 0.28
27 0.28
3 -0.36
32 0.15
33 0.15
34 0.15
38 0.15
39 0.15
4 -0.36
5 -0.21
6 0.36
7 0.49
8 0.14

> <PUBCHEM_EFFECTIVE_ROTOR_COUNT>
4.4

> <PUBCHEM_PHARMACOPHORE_FEATURES>
8
1 1 acceptor
1 2 acceptor
1 3 acceptor
1 4 acceptor
6 12 14 18 19 22 23 rings
6 5 6 11 12 13 14 rings
6 5 6 7 8 9 10 rings
6 9 10 15 16 20 21 rings

> <PUBCHEM_HEAVY_ATOM_COUNT>
27

> <PUBCHEM_ATOM_DEF_STEREO_COUNT>
0

> <PUBCHEM_ATOM_UDEF_STEREO_COUNT>
0

> <PUBCHEM_BOND_DEF_STEREO_COUNT>
0

> <PUBCHEM_BOND_UDEF_STEREO_COUNT>
0

> <PUBCHEM_ISOTOPIC_ATOM_COUNT>
0

> <PUBCHEM_COMPONENT_COUNT>
1

> <PUBCHEM_CACTVS_TAUTO_COUNT>
1

> <PUBCHEM_CONFORMER_ID>
000087DD00000001

> <PUBCHEM_MMFF94_ENERGY>
142.5588

> <PUBCHEM_FEATURE_SELFOVERLAP>
40.684

> <PUBCHEM_SHAPE_FINGERPRINT>
10906281 52 18338498838183545191
11135609 12 17844798197533572811
11524674 6 16660650678076604759
11578080 2 16951992552392783154
11963148 33 18412268328703531838
12107183 9 17617096253511245306
12166972 35 17775282738339335772
12236239 1 18187085048930790749
12403259 415 18272098218285495052
12788726 201 18270685406089389937
12838862 33 18267884911598118061
13140716 1 18338518641776606835
13533116 47 17632021965345694730
14341114 176 18411414025415839649
14787075 74 18271808986386383290
14790565 3 18410008866661960809
15196674 1 18410857633418556335
15927050 60 17614844011638149268
16087824 20 18195808686525680733
17349148 13 17918274255554079456
17492 89 18337955692045640846
1813 80 17346597491022601893
18608769 82 18410857655647714882
18681886 176 18334018277061651898
20028762 73 18334018280787576318
21236236 1 18410573959983475899
21267235 1 18410848884549101415
21279426 13 18410295800130342885
21792934 111 18338812224657106385
221357 26 18334574689985086796
22149856 69 18266725914599381779
23402539 116 18409452479170511727
23522609 53 18125410199303606308
23559900 14 18408611348322163648
239999 70 18259701208103357446
3004659 81 18343584049254910780
335352 9 18411139156568491437
34797466 226 17313380106438801628
34934 24 18410015451236767461
350125 39 18411139173352792716
3545911 37 18411981390184269045
4073 2 18201716210969064419
4214541 1 18409731797989198053
4325135 7 18342735260685407734
4340502 62 16056875862253037394
5104073 3 18410014325343569411
7495541 125 17603592893881709880
9709674 26 18338230570089429574
9981440 41 17476360496345222953

> <PUBCHEM_SHAPE_MULTIPOLES>
527.19
14.7
3
0.76
0.48
0.14
0.01
1.63
0.43
-1.18
-0.41
0.36
-0.01
0.21

> <PUBCHEM_SHAPE_SELFOVERLAP>
1163.96

> <PUBCHEM_SHAPE_VOLUME>
286.1

> <PUBCHEM_COORDINATE_TYPE>
2
5
10

$$$$

