5280837
  -OEChem-07051212502D

124124  0     0  0  0  0  0  0999 V2000
    2.5369  -10.5000    0.0000 O   0  0  0  0  0  0  0  0  0  0  0  0
    2.5369  -12.5000    0.0000 O   0  0  0  0  0  0  0  0  0  0  0  0
    6.0010  -12.5000    0.0000 O   0  0  0  0  0  0  0  0  0  0  0  0
    4.2690  -13.5000    0.0000 O   0  0  0  0  0  0  0  0  0  0  0  0
   11.1972    1.5000    0.0000 C   0  0  0  0  0  0  0  0  0  0  0  0
    9.4651   -1.5000    0.0000 C   0  0  0  0  0  0  0  0  0  0  0  0
    9.4651   -0.5000    0.0000 C   0  0  0  0  0  0  0  0  0  0  0  0
   11.1972    2.5000    0.0000 C   0  0  0  0  0  0  0  0  0  0  0  0
   12.9292    4.5000    0.0000 C   0  0  0  0  0  0  0  0  0  0  0  0
    7.7331   -4.5000    0.0000 C   0  0  0  0  0  0  0  0  0  0  0  0
    7.7331   -3.5000    0.0000 C   0  0  0  0  0  0  0  0  0  0  0  0
   10.3312    1.0000    0.0000 C   0  0  0  0  0  0  0  0  0  0  0  0
    8.5991   -2.0000    0.0000 C   0  0  0  0  0  0  0  0  0  0  0  0
   12.9292    5.5000    0.0000 C   0  0  0  0  0  0  0  0  0  0  0  0
   12.0632    4.0000    0.0000 C   0  0  0  0  0  0  0  0  0  0  0  0
    6.8671   -5.0000    0.0000 C   0  0  0  0  0  0  0  0  0  0  0  0
   10.3312    0.0000    0.0000 C   0  0  0  0  0  0  0  0  0  0  0  0
    6.0010   -6.5000    0.0000 C   0  0  0  0  0  0  0  0  0  0  0  0
   14.6613    7.5000    0.0000 C   0  0  0  0  0  0  0  0  0  0  0  0
    6.0010   -7.5000    0.0000 C   0  0  0  0  0  0  0  0  0  0  0  0
   12.0632    3.0000    0.0000 C   0  0  0  0  0  0  0  0  0  0  0  0
    8.5991   -3.0000    0.0000 C   0  0  0  0  0  0  0  0  0  0  0  0
   13.7953    7.0000    0.0000 C   0  0  0  0  0  0  0  0  0  0  0  0
   14.6613    8.5000    0.0000 C   0  0  0  0  0  0  0  0  0  0  0  0
   13.7953    6.0000    0.0000 C   0  0  0  0  0  0  0  0  0  0  0  0
    6.8671   -6.0000    0.0000 C   0  0  0  0  0  0  0  0  0  0  0  0
    5.1350   -8.0000    0.0000 C   0  0  0  0  0  0  0  0  0  0  0  0
    9.4651    1.5000    0.0000 C   0  0  0  0  0  0  0  0  0  0  0  0
    7.7331   -1.5000    0.0000 C   0  0  0  0  0  0  0  0  0  0  0  0
    4.2690   -9.5000    0.0000 C   0  0  0  0  0  0  0  0  0  0  0  0
   15.5273    9.0000    0.0000 C   0  0  0  0  0  0  0  0  0  0  0  0
   11.1972    4.5000    0.0000 C   0  0  0  0  0  0  0  0  0  0  0  0
   15.5273   10.0000    0.0000 C   0  0  0  0  0  0  0  0  0  0  0  0
    5.1350   -9.0000    0.0000 C   0  0  0  0  0  0  0  0  0  0  0  0
    6.0010   -4.5000    0.0000 C   0  0  0  0  0  0  0  0  0  0  0  0
   16.3933   10.5000    0.0000 C   0  0  0  0  0  0  0  0  0  0  0  0
    4.2690  -10.5000    0.0000 C   0  0  0  0  0  0  0  0  0  0  0  0
   12.9292    7.5000    0.0000 C   0  0  0  0  0  0  0  0  0  0  0  0
    4.2690   -7.5000    0.0000 C   0  0  0  0  0  0  0  0  0  0  0  0
   16.3933   11.5000    0.0000 C   0  0  0  0  0  0  0  0  0  0  0  0
    5.1350  -11.0000    0.0000 C   0  0  0  0  0  0  0  0  0  0  0  0
    3.4030  -11.0000    0.0000 C   0  0  0  0  0  0  0  0  0  0  0  0
   14.6613   10.5000    0.0000 C   0  0  0  0  0  0  0  0  0  0  0  0
    5.1350  -12.0000    0.0000 C   0  0  0  0  0  0  0  0  0  0  0  0
    3.4030  -12.0000    0.0000 C   0  0  0  0  0  0  0  0  0  0  0  0
   17.2594   12.0000    0.0000 C   0  0  0  0  0  0  0  0  0  0  0  0
    6.0010  -10.5000    0.0000 C   0  0  0  0  0  0  0  0  0  0  0  0
    4.2690  -12.5000    0.0000 C   0  0  0  0  0  0  0  0  0  0  0  0
   17.2594   13.0000    0.0000 C   0  0  0  0  0  0  0  0  0  0  0  0
   18.1254   13.5000    0.0000 C   0  0  0  0  0  0  0  0  0  0  0  0
   16.3933   13.5000    0.0000 C   0  0  0  0  0  0  0  0  0  0  0  0
    2.5369  -13.5000    0.0000 C   0  0  0  0  0  0  0  0  0  0  0  0
   11.4092    0.9174    0.0000 H   0  0  0  0  0  0  0  0  0  0  0  0
   11.8078    1.6077    0.0000 H   0  0  0  0  0  0  0  0  0  0  0  0
    9.6772   -2.0826    0.0000 H   0  0  0  0  0  0  0  0  0  0  0  0
   10.0757   -1.3923    0.0000 H   0  0  0  0  0  0  0  0  0  0  0  0
    9.2531    0.0826    0.0000 H   0  0  0  0  0  0  0  0  0  0  0  0
    8.8546   -0.6077    0.0000 H   0  0  0  0  0  0  0  0  0  0  0  0
   10.9851    3.0826    0.0000 H   0  0  0  0  0  0  0  0  0  0  0  0
   10.5866    2.3923    0.0000 H   0  0  0  0  0  0  0  0  0  0  0  0
   13.1413    3.9174    0.0000 H   0  0  0  0  0  0  0  0  0  0  0  0
   13.5398    4.6077    0.0000 H   0  0  0  0  0  0  0  0  0  0  0  0
    7.9451   -5.0826    0.0000 H   0  0  0  0  0  0  0  0  0  0  0  0
    8.3437   -4.3923    0.0000 H   0  0  0  0  0  0  0  0  0  0  0  0
    7.5210   -2.9174    0.0000 H   0  0  0  0  0  0  0  0  0  0  0  0
    7.1225   -3.6077    0.0000 H   0  0  0  0  0  0  0  0  0  0  0  0
   12.7172    6.0826    0.0000 H   0  0  0  0  0  0  0  0  0  0  0  0
   12.3187    5.3923    0.0000 H   0  0  0  0  0  0  0  0  0  0  0  0
   10.8681   -0.3100    0.0000 H   0  0  0  0  0  0  0  0  0  0  0  0
    5.7890   -5.9174    0.0000 H   0  0  0  0  0  0  0  0  0  0  0  0
    5.3905   -6.6077    0.0000 H   0  0  0  0  0  0  0  0  0  0  0  0
   14.8733    6.9174    0.0000 H   0  0  0  0  0  0  0  0  0  0  0  0
   15.2719    7.6077    0.0000 H   0  0  0  0  0  0  0  0  0  0  0  0
    6.2131   -8.0826    0.0000 H   0  0  0  0  0  0  0  0  0  0  0  0
    6.6116   -7.3923    0.0000 H   0  0  0  0  0  0  0  0  0  0  0  0
   12.6002    2.6900    0.0000 H   0  0  0  0  0  0  0  0  0  0  0  0
    9.1360   -3.3100    0.0000 H   0  0  0  0  0  0  0  0  0  0  0  0
   14.4492    9.0826    0.0000 H   0  0  0  0  0  0  0  0  0  0  0  0
   14.0507    8.3923    0.0000 H   0  0  0  0  0  0  0  0  0  0  0  0
   14.3322    5.6900    0.0000 H   0  0  0  0  0  0  0  0  0  0  0  0
    7.4040   -6.3100    0.0000 H   0  0  0  0  0  0  0  0  0  0  0  0
    9.7751    2.0369    0.0000 H   0  0  0  0  0  0  0  0  0  0  0  0
    8.9282    1.8100    0.0000 H   0  0  0  0  0  0  0  0  0  0  0  0
    9.1551    0.9631    0.0000 H   0  0  0  0  0  0  0  0  0  0  0  0
    8.0431   -0.9631    0.0000 H   0  0  0  0  0  0  0  0  0  0  0  0
    7.1962   -1.1900    0.0000 H   0  0  0  0  0  0  0  0  0  0  0  0
    7.4231   -2.0369    0.0000 H   0  0  0  0  0  0  0  0  0  0  0  0
    4.0569   -8.9174    0.0000 H   0  0  0  0  0  0  0  0  0  0  0  0
    3.6584   -9.6077    0.0000 H   0  0  0  0  0  0  0  0  0  0  0  0
   16.0643    8.6900    0.0000 H   0  0  0  0  0  0  0  0  0  0  0  0
   11.5072    5.0369    0.0000 H   0  0  0  0  0  0  0  0  0  0  0  0
   10.6603    4.8100    0.0000 H   0  0  0  0  0  0  0  0  0  0  0  0
   10.8872    3.9631    0.0000 H   0  0  0  0  0  0  0  0  0  0  0  0
    5.6720   -9.3100    0.0000 H   0  0  0  0  0  0  0  0  0  0  0  0
    6.3110   -3.9631    0.0000 H   0  0  0  0  0  0  0  0  0  0  0  0
    5.4641   -4.1900    0.0000 H   0  0  0  0  0  0  0  0  0  0  0  0
    5.6910   -5.0369    0.0000 H   0  0  0  0  0  0  0  0  0  0  0  0
   16.6054    9.9174    0.0000 H   0  0  0  0  0  0  0  0  0  0  0  0
   17.0039   10.6077    0.0000 H   0  0  0  0  0  0  0  0  0  0  0  0
   13.2392    8.0369    0.0000 H   0  0  0  0  0  0  0  0  0  0  0  0
   12.3923    7.8100    0.0000 H   0  0  0  0  0  0  0  0  0  0  0  0
   12.6192    6.9631    0.0000 H   0  0  0  0  0  0  0  0  0  0  0  0
    4.5790   -6.9631    0.0000 H   0  0  0  0  0  0  0  0  0  0  0  0
    3.7320   -7.1900    0.0000 H   0  0  0  0  0  0  0  0  0  0  0  0
    3.9590   -8.0369    0.0000 H   0  0  0  0  0  0  0  0  0  0  0  0
   16.1813   12.0826    0.0000 H   0  0  0  0  0  0  0  0  0  0  0  0
   15.7828   11.3923    0.0000 H   0  0  0  0  0  0  0  0  0  0  0  0
   14.9713   11.0369    0.0000 H   0  0  0  0  0  0  0  0  0  0  0  0
   14.1244   10.8100    0.0000 H   0  0  0  0  0  0  0  0  0  0  0  0
   14.3513    9.9631    0.0000 H   0  0  0  0  0  0  0  0  0  0  0  0
   17.7963   11.6900    0.0000 H   0  0  0  0  0  0  0  0  0  0  0  0
    6.3110  -11.0369    0.0000 H   0  0  0  0  0  0  0  0  0  0  0  0
    6.5380  -10.1900    0.0000 H   0  0  0  0  0  0  0  0  0  0  0  0
    5.6910   -9.9631    0.0000 H   0  0  0  0  0  0  0  0  0  0  0  0
    2.0000  -10.8100    0.0000 H   0  0  0  0  0  0  0  0  0  0  0  0
   16.7033   14.0369    0.0000 H   0  0  0  0  0  0  0  0  0  0  0  0
   15.8564   13.8100    0.0000 H   0  0  0  0  0  0  0  0  0  0  0  0
   16.0833   12.9631    0.0000 H   0  0  0  0  0  0  0  0  0  0  0  0
   18.4354   12.9631    0.0000 H   0  0  0  0  0  0  0  0  0  0  0  0
   18.6623   13.8100    0.0000 H   0  0  0  0  0  0  0  0  0  0  0  0
   17.8154   14.0369    0.0000 H   0  0  0  0  0  0  0  0  0  0  0  0
    1.9169  -13.5000    0.0000 H   0  0  0  0  0  0  0  0  0  0  0  0
    2.5369  -14.1200    0.0000 H   0  0  0  0  0  0  0  0  0  0  0  0
    3.1569  -13.5000    0.0000 H   0  0  0  0  0  0  0  0  0  0  0  0
  1 42  1  0  0  0  0
  1115  1  0  0  0  0
  2 45  1  0  0  0  0
  2 52  1  0  0  0  0
  3 44  2  0  0  0  0
  4 48  2  0  0  0  0
  5  8  1  0  0  0  0
  5 12  1  0  0  0  0
  5 53  1  0  0  0  0
  5 54  1  0  0  0  0
  6  7  1  0  0  0  0
  6 13  1  0  0  0  0
  6 55  1  0  0  0  0
  6 56  1  0  0  0  0
  7 17  1  0  0  0  0
  7 57  1  0  0  0  0
  7 58  1  0  0  0  0
  8 21  1  0  0  0  0
  8 59  1  0  0  0  0
  8 60  1  0  0  0  0
  9 14  1  0  0  0  0
  9 15  1  0  0  0  0
  9 61  1  0  0  0  0
  9 62  1  0  0  0  0
 10 11  1  0  0  0  0
 10 16  1  0  0  0  0
 10 63  1  0  0  0  0
 10 64  1  0  0  0  0
 11 22  1  0  0  0  0
 11 65  1  0  0  0  0
 11 66  1  0  0  0  0
 12 17  2  0  0  0  0
 12 28  1  0  0  0  0
 13 22  2  0  0  0  0
 13 29  1  0  0  0  0
 14 25  1  0  0  0  0
 14 67  1  0  0  0  0
 14 68  1  0  0  0  0
 15 21  2  0  0  0  0
 15 32  1  0  0  0  0
 16 26  2  0  0  0  0
 16 35  1  0  0  0  0
 17 69  1  0  0  0  0
 18 20  1  0  0  0  0
 18 26  1  0  0  0  0
 18 70  1  0  0  0  0
 18 71  1  0  0  0  0
 19 23  1  0  0  0  0
 19 24  1  0  0  0  0
 19 72  1  0  0  0  0
 19 73  1  0  0  0  0
 20 27  1  0  0  0  0
 20 74  1  0  0  0  0
 20 75  1  0  0  0  0
 21 76  1  0  0  0  0
 22 77  1  0  0  0  0
 23 25  2  0  0  0  0
 23 38  1  0  0  0  0
 24 31  1  0  0  0  0
 24 78  1  0  0  0  0
 24 79  1  0  0  0  0
 25 80  1  0  0  0  0
 26 81  1  0  0  0  0
 27 34  2  0  0  0  0
 27 39  1  0  0  0  0
 28 82  1  0  0  0  0
 28 83  1  0  0  0  0
 28 84  1  0  0  0  0
 29 85  1  0  0  0  0
 29 86  1  0  0  0  0
 29 87  1  0  0  0  0
 30 34  1  0  0  0  0
 30 37  1  0  0  0  0
 30 88  1  0  0  0  0
 30 89  1  0  0  0  0
 31 33  2  0  0  0  0
 31 90  1  0  0  0  0
 32 91  1  0  0  0  0
 32 92  1  0  0  0  0
 32 93  1  0  0  0  0
 33 36  1  0  0  0  0
 33 43  1  0  0  0  0
 34 94  1  0  0  0  0
 35 95  1  0  0  0  0
 35 96  1  0  0  0  0
 35 97  1  0  0  0  0
 36 40  1  0  0  0  0
 36 98  1  0  0  0  0
 36 99  1  0  0  0  0
 37 41  2  0  0  0  0
 37 42  1  0  0  0  0
 38100  1  0  0  0  0
 38101  1  0  0  0  0
 38102  1  0  0  0  0
 39103  1  0  0  0  0
 39104  1  0  0  0  0
 39105  1  0  0  0  0
 40 46  1  0  0  0  0
 40106  1  0  0  0  0
 40107  1  0  0  0  0
 41 44  1  0  0  0  0
 41 47  1  0  0  0  0
 42 45  2  0  0  0  0
 43108  1  0  0  0  0
 43109  1  0  0  0  0
 43110  1  0  0  0  0
 44 48  1  0  0  0  0
 45 48  1  0  0  0  0
 46 49  2  0  0  0  0
 46111  1  0  0  0  0
 47112  1  0  0  0  0
 47113  1  0  0  0  0
 47114  1  0  0  0  0
 49 50  1  0  0  0  0
 49 51  1  0  0  0  0
 50119  1  0  0  0  0
 50120  1  0  0  0  0
 50121  1  0  0  0  0
 51116  1  0  0  0  0
 51117  1  0  0  0  0
 51118  1  0  0  0  0
 52122  1  0  0  0  0
 52123  1  0  0  0  0
 52124  1  0  0  0  0
M  END
> <PUBCHEM_COMPOUND_CID>
5280837

> <PUBCHEM_COMPOUND_CANONICALIZED>
1

> <PUBCHEM_CACTVS_COMPLEXITY>
1500

> <PUBCHEM_CACTVS_HBOND_ACCEPTOR>
4

> <PUBCHEM_CACTVS_HBOND_DONOR>
1

> <PUBCHEM_CACTVS_ROTATABLE_BOND>
24

> <PUBCHEM_CACTVS_SUBSKEYS>
AAADcfB8OAAAAAAAAAAAAAAAAAAAAAAAAAAgAAAAAAAAAAAAAAAAGgAACAAADASAgAICAAAABgCIAqBSAAIACAAgIAAACAFAAEgIBBYAAQQAUAAEoAAIkQKAAAAAAAAAAAAAAAAAAAAAAAAAAAAAAAAAAA==

> <PUBCHEM_IUPAC_OPENEYE_NAME>
4-hydroxy-3-methoxy-6-methyl-5-[(2E,6E,10E,14E,18E,22E,26E)-3,7,11,15,19,23,27,31-octamethyldotriaconta-2,6,10,14,18,22,26,30-octaenyl]-1,2-benzoquinone

> <PUBCHEM_IUPAC_CAS_NAME>
4-hydroxy-3-methoxy-6-methyl-5-[(2E,6E,10E,14E,18E,22E,26E)-3,7,11,15,19,23,27,31-octamethyldotriaconta-2,6,10,14,18,22,26,30-octaenyl]cyclohexa-3,5-diene-1,2-dione

> <PUBCHEM_IUPAC_NAME>
4-hydroxy-3-methoxy-6-methyl-5-[(2E,6E,10E,14E,18E,22E,26E)-3,7,11,15,19,23,27,31-octamethyldotriaconta-2,6,10,14,18,22,26,30-octaenyl]cyclohexa-3,5-diene-1,2-dione

> <PUBCHEM_IUPAC_SYSTEMATIC_NAME>
3-methoxy-6-methyl-5-[(2E,6E,10E,14E,18E,22E,26E)-3,7,11,15,19,23,27,31-octamethyldotriaconta-2,6,10,14,18,22,26,30-octaenyl]-4-oxidanyl-cyclohexa-3,5-diene-1,2-dione

> <PUBCHEM_IUPAC_TRADITIONAL_NAME>
4-hydroxy-3-methoxy-6-methyl-5-[(2E,6E,10E,14E,18E,22E,26E)-3,7,11,15,19,23,27,31-octamethyldotriaconta-2,6,10,14,18,22,26,30-octaenyl]-o-benzoquinone

> <PUBCHEM_IUPAC_INCHI>
InChI=1S/C48H72O4/c1-35(2)19-12-20-36(3)21-13-22-37(4)23-14-24-38(5)25-15-26-39(6)27-16-28-40(7)29-17-30-41(8)31-18-32-42(9)33-34-44-43(10)45(49)47(51)48(52-11)46(44)50/h19,21,23,25,27,29,31,33,50H,12-18,20,22,24,26,28,30,32,34H2,1-11H3/b36-21+,37-23+,38-25+,39-27+,40-29+,41-31+,42-33+

> <PUBCHEM_IUPAC_INCHIKEY>
DQJWFZUHRQXFGB-WDXILIIOSA-N

> <PUBCHEM_XLOGP3_AA>
14.8

> <PUBCHEM_EXACT_MASS>
712.543061

> <PUBCHEM_MOLECULAR_FORMULA>
C48H72O4

> <PUBCHEM_MOLECULAR_WEIGHT>
713.08288

> <PUBCHEM_OPENEYE_CAN_SMILES>
CC1=C(C(=C(C(=O)C1=O)OC)O)CC=C(C)CCC=C(C)CCC=C(C)CCC=C(C)CCC=C(C)CCC=C(C)CCC=C(C)CCC=C(C)C

> <PUBCHEM_OPENEYE_ISO_SMILES>
CC1=C(C(=C(C(=O)C1=O)OC)O)C/C=C(\C)/CC/C=C(\C)/CC/C=C(\C)/CC/C=C(\C)/CC/C=C(\C)/CC/C=C(\C)/CC/C=C(\C)/CCC=C(C)C

> <PUBCHEM_CACTVS_TPSA>
63.6

> <PUBCHEM_MONOISOTOPIC_WEIGHT>
712.543061

> <PUBCHEM_TOTAL_CHARGE>
0

> <PUBCHEM_HEAVY_ATOM_COUNT>
52

> <PUBCHEM_ATOM_DEF_STEREO_COUNT>
0

> <PUBCHEM_ATOM_UDEF_STEREO_COUNT>
0

> <PUBCHEM_BOND_DEF_STEREO_COUNT>
7

> <PUBCHEM_BOND_UDEF_STEREO_COUNT>
0

> <PUBCHEM_ISOTOPIC_ATOM_COUNT>
0

> <PUBCHEM_COMPONENT_COUNT>
1

> <PUBCHEM_CACTVS_TAUTO_COUNT>
128

> <PUBCHEM_COORDINATE_TYPE>
1
5
255

$$$$

