563
  -OEChem-07051212542D

 15 14  0     0  0  0  0  0  0999 V2000
    6.0010    0.7500    0.0000 S   0  0  0  0  0  0  0  0  0  0  0  0
    2.5369    0.7500    0.0000 O   0  0  0  0  0  0  0  0  0  0  0  0
    3.4030   -0.7500    0.0000 O   0  0  0  0  0  0  0  0  0  0  0  0
    4.2690    0.7500    0.0000 C   0  0  0  0  0  0  0  0  0  0  0  0
    5.1350    0.2500    0.0000 C   0  0  0  0  0  0  0  0  0  0  0  0
    3.4030    0.2500    0.0000 C   0  0  0  0  0  0  0  0  0  0  0  0
    6.8671    0.2500    0.0000 C   0  0  0  0  0  0  0  0  0  0  0  0
    4.6675    1.2250    0.0000 H   0  0  0  0  0  0  0  0  0  0  0  0
    3.8705    1.2250    0.0000 H   0  0  0  0  0  0  0  0  0  0  0  0
    4.7365   -0.2249    0.0000 H   0  0  0  0  0  0  0  0  0  0  0  0
    5.5335   -0.2249    0.0000 H   0  0  0  0  0  0  0  0  0  0  0  0
    6.5571   -0.2869    0.0000 H   0  0  0  0  0  0  0  0  0  0  0  0
    7.4040   -0.0600    0.0000 H   0  0  0  0  0  0  0  0  0  0  0  0
    7.1771    0.7869    0.0000 H   0  0  0  0  0  0  0  0  0  0  0  0
    2.0000    0.4400    0.0000 H   0  0  0  0  0  0  0  0  0  0  0  0
  1  5  1  0  0  0  0
  1  7  1  0  0  0  0
  2  6  1  0  0  0  0
  2 15  1  0  0  0  0
  3  6  2  0  0  0  0
  4  5  1  0  0  0  0
  4  6  1  0  0  0  0
  4  8  1  0  0  0  0
  4  9  1  0  0  0  0
  5 10  1  0  0  0  0
  5 11  1  0  0  0  0
  7 12  1  0  0  0  0
  7 13  1  0  0  0  0
  7 14  1  0  0  0  0
M  END
> <PUBCHEM_COMPOUND_CID>
563

> <PUBCHEM_COMPOUND_CANONICALIZED>
1

> <PUBCHEM_CACTVS_COMPLEXITY>
62.7

> <PUBCHEM_CACTVS_HBOND_ACCEPTOR>
3

> <PUBCHEM_CACTVS_HBOND_DONOR>
1

> <PUBCHEM_CACTVS_ROTATABLE_BOND>
3

> <PUBCHEM_CACTVS_SUBSKEYS>
AAADccBgMABAAAAAAAAAAAAAAAAAAAAAAAAAAAAAAAAAAAAAAAAAGgQACAAACACEwACCCAAAAggIAACQCAAAAAAAABAAAAEAAAAAAAAgAAAAQAAAAAAAAAAAAAAAAAAAAAAAAAAAAAAAAAAAAAAAAAAAAA==

> <PUBCHEM_IUPAC_OPENEYE_NAME>
3-methylsulfanylpropanoic acid

> <PUBCHEM_IUPAC_CAS_NAME>
3-(methylthio)propanoic acid

> <PUBCHEM_IUPAC_NAME>
3-methylsulfanylpropanoic acid

> <PUBCHEM_IUPAC_SYSTEMATIC_NAME>
3-methylsulfanylpropanoic acid

> <PUBCHEM_IUPAC_TRADITIONAL_NAME>
3-(methylthio)propionic acid

> <PUBCHEM_IUPAC_INCHI>
InChI=1S/C4H8O2S/c1-7-3-2-4(5)6/h2-3H2,1H3,(H,5,6)

> <PUBCHEM_IUPAC_INCHIKEY>
CAOMCZAIALVUPA-UHFFFAOYSA-N

> <PUBCHEM_XLOGP3_AA>
0.4

> <PUBCHEM_EXACT_MASS>
120.0245

> <PUBCHEM_MOLECULAR_FORMULA>
C4H8O2S

> <PUBCHEM_MOLECULAR_WEIGHT>
120.17012

> <PUBCHEM_OPENEYE_CAN_SMILES>
CSCCC(=O)O

> <PUBCHEM_OPENEYE_ISO_SMILES>
CSCCC(=O)O

> <PUBCHEM_CACTVS_TPSA>
62.6

> <PUBCHEM_MONOISOTOPIC_WEIGHT>
120.0245

> <PUBCHEM_TOTAL_CHARGE>
0

> <PUBCHEM_HEAVY_ATOM_COUNT>
7

> <PUBCHEM_ATOM_DEF_STEREO_COUNT>
0

> <PUBCHEM_ATOM_UDEF_STEREO_COUNT>
0

> <PUBCHEM_BOND_DEF_STEREO_COUNT>
0

> <PUBCHEM_BOND_UDEF_STEREO_COUNT>
0

> <PUBCHEM_ISOTOPIC_ATOM_COUNT>
0

> <PUBCHEM_COMPONENT_COUNT>
1

> <PUBCHEM_CACTVS_TAUTO_COUNT>
1

> <PUBCHEM_COORDINATE_TYPE>
1
5
255

$$$$

