14993
  -OEChem-07051213133D

 48 51  0     0  0  0  0  0  0999 V2000
   -3.1032    0.0319    2.7402 O   0  0  0  0  0  0  0  0  0  0  0  0
   -0.6484    0.0111    1.2995 N   0  0  0  0  0  0  0  0  0  0  0  0
    0.1270   -0.0006    0.0609 C   0  0  0  0  0  0  0  0  0  0  0  0
   -1.4806    1.2194    1.3827 C   0  0  0  0  0  0  0  0  0  0  0  0
   -1.4913   -1.1886    1.3989 C   0  0  0  0  0  0  0  0  0  0  0  0
    1.0597    1.2501    0.0047 C   0  0  0  0  0  0  0  0  0  0  0  0
    1.0798   -1.2369    0.0397 C   0  0  0  0  0  0  0  0  0  0  0  0
   -0.9591   -0.0254   -1.0597 C   0  0  0  0  0  0  0  0  0  0  0  0
   -2.2886    1.2032    2.6772 C   0  0  0  0  0  0  0  0  0  0  0  0
   -2.3000   -1.1481    2.6923 C   0  0  0  0  0  0  0  0  0  0  0  0
    1.3853    1.7356   -1.2248 C   0  0  0  0  0  0  0  0  0  0  0  0
    1.5124   -1.7168    1.2380 C   0  0  0  0  0  0  0  0  0  0  0  0
   -1.4137    1.1724   -1.5207 C   0  0  0  0  0  0  0  0  0  0  0  0
    1.4839    1.7708    1.1890 C   0  0  0  0  0  0  0  0  0  0  0  0
    1.4133   -1.7519   -1.1758 C   0  0  0  0  0  0  0  0  0  0  0  0
   -1.3787   -1.2433   -1.5011 C   0  0  0  0  0  0  0  0  0  0  0  0
    2.2186    2.8532   -1.2752 C   0  0  0  0  0  0  0  0  0  0  0  0
    2.3637   -2.8217    1.2191 C   0  0  0  0  0  0  0  0  0  0  0  0
   -2.3842    1.1503   -2.5222 C   0  0  0  0  0  0  0  0  0  0  0  0
    2.3171    2.8884    1.1385 C   0  0  0  0  0  0  0  0  0  0  0  0
    2.2644   -2.8570   -1.1945 C   0  0  0  0  0  0  0  0  0  0  0  0
   -2.3492   -1.2653   -2.5028 C   0  0  0  0  0  0  0  0  0  0  0  0
    2.6842    3.4295   -0.0936 C   0  0  0  0  0  0  0  0  0  0  0  0
    2.7395   -3.3917    0.0030 C   0  0  0  0  0  0  0  0  0  0  0  0
   -2.8519   -0.0684   -3.0133 C   0  0  0  0  0  0  0  0  0  0  0  0
   -2.2690    1.2532    0.6278 H   0  0  0  0  0  0  0  0  0  0  0  0
   -0.9412    2.1684    1.3579 H   0  0  0  0  0  0  0  0  0  0  0  0
   -0.9512   -2.1382    1.3889 H   0  0  0  0  0  0  0  0  0  0  0  0
   -2.2782   -1.2296    0.6424 H   0  0  0  0  0  0  0  0  0  0  0  0
   -1.6385    1.2467    3.5596 H   0  0  0  0  0  0  0  0  0  0  0  0
   -2.9551    2.0713    2.7158 H   0  0  0  0  0  0  0  0  0  0  0  0
   -2.9747   -2.0093    2.7417 H   0  0  0  0  0  0  0  0  0  0  0  0
   -1.6508   -1.1863    3.5756 H   0  0  0  0  0  0  0  0  0  0  0  0
    1.0963    1.2782   -2.1639 H   0  0  0  0  0  0  0  0  0  0  0  0
    1.2695   -1.2816    2.2007 H   0  0  0  0  0  0  0  0  0  0  0  0
   -1.1152    2.1471   -1.1532 H   0  0  0  0  0  0  0  0  0  0  0  0
    1.2508    1.3578    2.1639 H   0  0  0  0  0  0  0  0  0  0  0  0
    1.1202   -1.3248   -2.1279 H   0  0  0  0  0  0  0  0  0  0  0  0
   -1.0603   -2.2031   -1.1121 H   0  0  0  0  0  0  0  0  0  0  0  0
    2.5171    3.2656   -2.2346 H   0  0  0  0  0  0  0  0  0  0  0  0
    2.7406   -3.2333    2.1509 H   0  0  0  0  0  0  0  0  0  0  0  0
   -2.7827    2.0818   -2.9138 H   0  0  0  0  0  0  0  0  0  0  0  0
    2.6876    3.3321    2.0581 H   0  0  0  0  0  0  0  0  0  0  0  0
    2.5703   -3.2915   -2.1418 H   0  0  0  0  0  0  0  0  0  0  0  0
   -2.7221   -2.2139   -2.8780 H   0  0  0  0  0  0  0  0  0  0  0  0
    3.3373    4.2963   -0.1330 H   0  0  0  0  0  0  0  0  0  0  0  0
    3.4065   -4.2487   -0.0119 H   0  0  0  0  0  0  0  0  0  0  0  0
   -3.6109   -0.0856   -3.7899 H   0  0  0  0  0  0  0  0  0  0  0  0
  1  9  1  0  0  0  0
  1 10  1  0  0  0  0
  2  3  1  0  0  0  0
  2  4  1  0  0  0  0
  2  5  1  0  0  0  0
  3  6  1  0  0  0  0
  3  7  1  0  0  0  0
  3  8  1  0  0  0  0
  4  9  1  0  0  0  0
  4 26  1  0  0  0  0
  4 27  1  0  0  0  0
  5 10  1  0  0  0  0
  5 28  1  0  0  0  0
  5 29  1  0  0  0  0
  6 11  2  0  0  0  0
  6 14  1  0  0  0  0
  7 12  2  0  0  0  0
  7 15  1  0  0  0  0
  8 13  2  0  0  0  0
  8 16  1  0  0  0  0
  9 30  1  0  0  0  0
  9 31  1  0  0  0  0
 10 32  1  0  0  0  0
 10 33  1  0  0  0  0
 11 17  1  0  0  0  0
 11 34  1  0  0  0  0
 12 18  1  0  0  0  0
 12 35  1  0  0  0  0
 13 19  1  0  0  0  0
 13 36  1  0  0  0  0
 14 20  2  0  0  0  0
 14 37  1  0  0  0  0
 15 21  2  0  0  0  0
 15 38  1  0  0  0  0
 16 22  2  0  0  0  0
 16 39  1  0  0  0  0
 17 23  2  0  0  0  0
 17 40  1  0  0  0  0
 18 24  2  0  0  0  0
 18 41  1  0  0  0  0
 19 25  2  0  0  0  0
 19 42  1  0  0  0  0
 20 23  1  0  0  0  0
 20 43  1  0  0  0  0
 21 24  1  0  0  0  0
 21 44  1  0  0  0  0
 22 25  1  0  0  0  0
 22 45  1  0  0  0  0
 23 46  1  0  0  0  0
 24 47  1  0  0  0  0
 25 48  1  0  0  0  0
M  END
> <PUBCHEM_COMPOUND_CID>
14993

> <PUBCHEM_CONFORMER_RMSD>
0.8

> <PUBCHEM_CONFORMER_DIVERSEORDER>
1

> <PUBCHEM_MMFF94_PARTIAL_CHARGES>
40
1 -0.56
10 0.28
11 -0.15
12 -0.15
13 -0.15
14 -0.15
15 -0.15
16 -0.15
17 -0.15
18 -0.15
19 -0.15
2 -0.81
20 -0.15
21 -0.15
22 -0.15
23 -0.15
24 -0.15
25 -0.15
3 0.7
34 0.15
35 0.15
36 0.15
37 0.15
38 0.15
39 0.15
4 0.27
40 0.15
41 0.15
42 0.15
43 0.15
44 0.15
45 0.15
46 0.15
47 0.15
48 0.15
5 0.27
6 -0.14
7 -0.14
8 -0.14
9 0.28

> <PUBCHEM_EFFECTIVE_ROTOR_COUNT>
5.2

> <PUBCHEM_PHARMACOPHORE_FEATURES>
6
1 1 acceptor
1 2 cation
6 1 2 4 5 9 10 rings
6 6 11 14 17 20 23 rings
6 7 12 15 18 21 24 rings
6 8 13 16 19 22 25 rings

> <PUBCHEM_HEAVY_ATOM_COUNT>
25

> <PUBCHEM_ATOM_DEF_STEREO_COUNT>
0

> <PUBCHEM_ATOM_UDEF_STEREO_COUNT>
0

> <PUBCHEM_BOND_DEF_STEREO_COUNT>
0

> <PUBCHEM_BOND_UDEF_STEREO_COUNT>
0

> <PUBCHEM_ISOTOPIC_ATOM_COUNT>
0

> <PUBCHEM_COMPONENT_COUNT>
1

> <PUBCHEM_CACTVS_TAUTO_COUNT>
1

> <PUBCHEM_CONFORMER_ID>
00003A9100000001

> <PUBCHEM_MMFF94_ENERGY>
132.3297

> <PUBCHEM_FEATURE_SELFOVERLAP>
30.446

> <PUBCHEM_SHAPE_FINGERPRINT>
11421498 54 17827076200292548663
11578080 2 17559934658302032437
11582403 64 17101384313285384601
12035759 4 17822018574988594556
12160290 23 17113821250706708818
12592029 89 18053695523510872366
12788726 201 17333392571411598106
13149001 5 17773887573747078583
133893 2 18409737252898110502
13681431 1 18265636422924377174
14817 1 14954152775475590775
14955137 171 17897977309839712490
16945 1 17906499576641552996
17980427 26 18118374320674121980
1813 80 17973749130896136367
18915476 22 18341622477329293927
20600515 1 17535789421711283366
20602899 9 17904498302634506756
20691752 17 16843577415215832922
20905425 154 17541608011401862513
21330990 113 17484478362453984716
229495 10 17843090796849766271
23419403 2 17989196088118428295
25222932 49 17465347878729918243
266924 78 18408887308813872527
298252 57 17408287622254857708
3493558 16 17029145458716848969
394222 165 18050601493326610122
404807 14 17899164834237869290
68419 9 17458062646856575161
6992083 37 17534351329131464095
81228 2 17390249339448398463
9981440 41 17840339655575245292

> <PUBCHEM_SHAPE_MULTIPOLES>
503.64
4.41
3.99
3.21
0.78
0.08
-1.13
-0.09
0.74
-5.45
0.45
3.95
0.01
-0.12

> <PUBCHEM_SHAPE_SELFOVERLAP>
1120.882

> <PUBCHEM_SHAPE_VOLUME>
265.8

> <PUBCHEM_COORDINATE_TYPE>
2
5
10

$$$$

