5281304
  -OEChem-07051212563D

 75 79  0     1  0  0  0  0  0999 V2000
   -0.4236    2.9860    1.2938 O   0  0  0  0  0  0  0  0  0  0  0  0
   -0.5060   -1.7129    1.3514 O   0  0  0  0  0  0  0  0  0  0  0  0
   -2.4834    3.0385   -0.7433 O   0  0  0  0  0  0  0  0  0  0  0  0
    0.6401    1.7736   -2.0015 O   0  0  0  0  0  0  0  0  0  0  0  0
    2.4543   -0.1086    0.1025 O   0  0  0  0  0  0  0  0  0  0  0  0
    2.5269    2.7353   -0.6002 O   0  0  0  0  0  0  0  0  0  0  0  0
    2.0958    3.6248    1.4877 O   0  0  0  0  0  0  0  0  0  0  0  0
    1.5078   -2.5508    0.7811 O   0  0  0  0  0  0  0  0  0  0  0  0
   -6.8034   -2.3354   -0.6388 O   0  0  0  0  0  0  0  0  0  0  0  0
   -5.9977   -0.6563   -2.5750 O   0  0  0  0  0  0  0  0  0  0  0  0
    2.7630   -1.7193   -1.5221 O   0  0  0  0  0  0  0  0  0  0  0  0
   -1.0834    0.6966    1.1054 C   0  0  2  0  0  0  0  0  0  0  0  0
   -1.8544    0.6760   -0.2744 C   0  0  1  0  0  0  0  0  0  0  0  0
    0.4215    0.8681    0.8943 C   0  0  2  0  0  0  0  0  0  0  0  0
   -3.3540    0.1570   -0.1812 C   0  0  2  0  0  0  0  0  0  0  0  0
    0.4408    2.2906    0.3586 C   0  0  1  0  0  0  0  0  0  0  0  0
   -1.2783   -0.5943    1.8981 C   0  0  1  0  0  0  0  0  0  0  0  0
   -1.6183    1.9723   -1.1138 C   0  0  2  0  0  0  0  0  0  0  0  0
   -3.3374   -1.2334    0.5421 C   0  0  1  0  0  0  0  0  0  0  0  0
   -1.3078    2.0004    1.8910 C   0  0  0  0  0  0  0  0  0  0  0  0
   -0.1559    2.4663   -1.0465 C   0  0  2  0  0  0  0  0  0  0  0  0
   -2.7308   -1.0762    1.9580 C   0  0  0  0  0  0  0  0  0  0  0  0
    1.0463   -0.2801    0.1340 C   0  0  2  0  0  0  0  0  0  0  0  0
   -3.8932   -0.0797   -1.6097 C   0  0  0  0  0  0  0  0  0  0  0  0
   -4.3247    1.1340    0.5352 C   0  0  0  0  0  0  0  0  0  0  0  0
   -4.6865   -1.9633    0.4799 C   0  0  0  0  0  0  0  0  0  0  0  0
    1.7684    2.9681    0.5086 C   0  0  0  0  0  0  0  0  0  0  0  0
    0.7328   -1.5984    0.8084 C   0  0  0  0  0  0  0  0  0  0  0  0
   -5.2211   -0.8017   -1.6301 C   0  0  0  0  0  0  0  0  0  0  0  0
   -5.5659   -1.7390   -0.5221 C   0  0  0  0  0  0  0  0  0  0  0  0
   -4.9267   -3.0070    1.5446 C   0  0  0  0  0  0  0  0  0  0  0  0
    3.1587   -1.0681   -0.5696 C   0  0  0  0  0  0  0  0  0  0  0  0
    3.8290    3.3291   -0.5905 C   0  0  0  0  0  0  0  0  0  0  0  0
    4.4858   -1.1935    0.0792 C   0  0  0  0  0  0  0  0  0  0  0  0
    5.6185   -1.5904   -0.5338 C   0  0  0  0  0  0  0  0  0  0  0  0
    6.9114   -1.6593    0.2787 C   0  0  0  0  0  0  0  0  0  0  0  0
    5.7124   -1.9721   -1.9887 C   0  0  0  0  0  0  0  0  0  0  0  0
    7.4661   -3.0841    0.3618 C   0  0  0  0  0  0  0  0  0  0  0  0
    7.9727   -0.6924   -0.2531 C   0  0  0  0  0  0  0  0  0  0  0  0
   -1.3623   -0.1068   -0.8676 H   0  0  0  0  0  0  0  0  0  0  0  0
    0.9220    0.8845    1.8793 H   0  0  0  0  0  0  0  0  0  0  0  0
   -0.9189   -0.4720    2.9275 H   0  0  0  0  0  0  0  0  0  0  0  0
   -1.8532    1.7394   -2.1597 H   0  0  0  0  0  0  0  0  0  0  0  0
   -2.6565   -1.8949   -0.0165 H   0  0  0  0  0  0  0  0  0  0  0  0
   -1.0142    1.9033    2.9427 H   0  0  0  0  0  0  0  0  0  0  0  0
   -2.3181    2.4010    1.8674 H   0  0  0  0  0  0  0  0  0  0  0  0
   -0.1356    3.5292   -1.3217 H   0  0  0  0  0  0  0  0  0  0  0  0
   -3.3327   -0.4022    2.5758 H   0  0  0  0  0  0  0  0  0  0  0  0
   -2.7261   -2.0448    2.4711 H   0  0  0  0  0  0  0  0  0  0  0  0
    0.6821   -0.3534   -0.8932 H   0  0  0  0  0  0  0  0  0  0  0  0
   -3.1921   -0.6799   -2.2026 H   0  0  0  0  0  0  0  0  0  0  0  0
   -4.0337    0.8782   -2.1243 H   0  0  0  0  0  0  0  0  0  0  0  0
   -4.0119    1.3795    1.5489 H   0  0  0  0  0  0  0  0  0  0  0  0
   -4.4555    2.0668   -0.0174 H   0  0  0  0  0  0  0  0  0  0  0  0
   -5.3320    0.7173    0.6383 H   0  0  0  0  0  0  0  0  0  0  0  0
   -2.3469    3.7656   -1.3742 H   0  0  0  0  0  0  0  0  0  0  0  0
    1.4790    2.2533   -2.0992 H   0  0  0  0  0  0  0  0  0  0  0  0
   -5.1048   -2.5295    2.5133 H   0  0  0  0  0  0  0  0  0  0  0  0
   -4.0561   -3.6670    1.6269 H   0  0  0  0  0  0  0  0  0  0  0  0
   -5.7742   -3.6649    1.3395 H   0  0  0  0  0  0  0  0  0  0  0  0
   -7.0270   -2.7906    0.1871 H   0  0  0  0  0  0  0  0  0  0  0  0
    4.3259    3.0721   -1.5297 H   0  0  0  0  0  0  0  0  0  0  0  0
    3.7487    4.4179   -0.5211 H   0  0  0  0  0  0  0  0  0  0  0  0
    4.4197    2.9299    0.2396 H   0  0  0  0  0  0  0  0  0  0  0  0
    4.5133   -0.9066    1.1281 H   0  0  0  0  0  0  0  0  0  0  0  0
    6.6985   -1.3482    1.3109 H   0  0  0  0  0  0  0  0  0  0  0  0
    5.7652   -3.0605   -2.0912 H   0  0  0  0  0  0  0  0  0  0  0  0
    6.6028   -1.5418   -2.4554 H   0  0  0  0  0  0  0  0  0  0  0  0
    4.8718   -1.6132   -2.5859 H   0  0  0  0  0  0  0  0  0  0  0  0
    6.7122   -3.7758    0.7536 H   0  0  0  0  0  0  0  0  0  0  0  0
    8.3328   -3.1205    1.0307 H   0  0  0  0  0  0  0  0  0  0  0  0
    7.7877   -3.4524   -0.6184 H   0  0  0  0  0  0  0  0  0  0  0  0
    7.5649    0.3177   -0.3691 H   0  0  0  0  0  0  0  0  0  0  0  0
    8.3785   -1.0122   -1.2182 H   0  0  0  0  0  0  0  0  0  0  0  0
    8.8138   -0.6317    0.4467 H   0  0  0  0  0  0  0  0  0  0  0  0
  1 16  1  0  0  0  0
  1 20  1  0  0  0  0
  2 17  1  0  0  0  0
  2 28  1  0  0  0  0
  3 18  1  0  0  0  0
  3 56  1  0  0  0  0
  4 21  1  0  0  0  0
  4 57  1  0  0  0  0
  5 23  1  0  0  0  0
  5 32  1  0  0  0  0
  6 27  1  0  0  0  0
  6 33  1  0  0  0  0
  7 27  2  0  0  0  0
  8 28  2  0  0  0  0
  9 30  1  0  0  0  0
  9 61  1  0  0  0  0
 10 29  2  0  0  0  0
 11 32  2  0  0  0  0
 12 13  1  0  0  0  0
 12 14  1  0  0  0  0
 12 17  1  0  0  0  0
 12 20  1  0  0  0  0
 13 15  1  0  0  0  0
 13 18  1  0  0  0  0
 13 40  1  0  0  0  0
 14 16  1  0  0  0  0
 14 23  1  0  0  0  0
 14 41  1  0  0  0  0
 15 19  1  0  0  0  0
 15 24  1  0  0  0  0
 15 25  1  0  0  0  0
 16 21  1  0  0  0  0
 16 27  1  0  0  0  0
 17 22  1  0  0  0  0
 17 42  1  0  0  0  0
 18 21  1  0  0  0  0
 18 43  1  0  0  0  0
 19 22  1  0  0  0  0
 19 26  1  0  0  0  0
 19 44  1  0  0  0  0
 20 45  1  0  0  0  0
 20 46  1  0  0  0  0
 21 47  1  0  0  0  0
 22 48  1  0  0  0  0
 22 49  1  0  0  0  0
 23 28  1  0  0  0  0
 23 50  1  0  0  0  0
 24 29  1  0  0  0  0
 24 51  1  0  0  0  0
 24 52  1  0  0  0  0
 25 53  1  0  0  0  0
 25 54  1  0  0  0  0
 25 55  1  0  0  0  0
 26 30  2  0  0  0  0
 26 31  1  0  0  0  0
 29 30  1  0  0  0  0
 31 58  1  0  0  0  0
 31 59  1  0  0  0  0
 31 60  1  0  0  0  0
 32 34  1  0  0  0  0
 33 62  1  0  0  0  0
 33 63  1  0  0  0  0
 33 64  1  0  0  0  0
 34 35  2  0  0  0  0
 34 65  1  0  0  0  0
 35 36  1  0  0  0  0
 35 37  1  0  0  0  0
 36 38  1  0  0  0  0
 36 39  1  0  0  0  0
 36 66  1  0  0  0  0
 37 67  1  0  0  0  0
 37 68  1  0  0  0  0
 37 69  1  0  0  0  0
 38 70  1  0  0  0  0
 38 71  1  0  0  0  0
 38 72  1  0  0  0  0
 39 73  1  0  0  0  0
 39 74  1  0  0  0  0
 39 75  1  0  0  0  0
M  END
> <PUBCHEM_COMPOUND_CID>
5281304

> <PUBCHEM_CONFORMER_RMSD>
1

> <PUBCHEM_CONFORMER_DIVERSEORDER>
1
5
9
6
3
4
8
2
7

> <PUBCHEM_MMFF94_PARTIAL_CHARGES>
35
1 -0.56
10 -0.57
11 -0.57
16 0.34
17 0.28
18 0.28
19 0.14
2 -0.43
20 0.28
21 0.28
23 0.34
24 0.06
26 -0.28
27 0.66
28 0.66
29 0.49
3 -0.68
30 0.09
31 0.14
32 0.71
33 0.28
34 -0.14
35 -0.28
36 0.14
37 0.14
4 -0.68
5 -0.43
56 0.4
57 0.4
6 -0.43
61 0.45
65 0.15
7 -0.57
8 -0.57
9 -0.53

> <PUBCHEM_EFFECTIVE_ROTOR_COUNT>
7.6

> <PUBCHEM_PHARMACOPHORE_FEATURES>
16
1 1 acceptor
1 10 acceptor
1 11 acceptor
1 3 acceptor
1 3 donor
1 37 hydrophobe
1 4 acceptor
1 4 donor
1 7 acceptor
1 8 acceptor
1 9 donor
3 36 38 39 hydrophobe
6 12 13 15 17 19 22 rings
6 15 19 24 26 29 30 rings
6 2 12 14 17 23 28 rings
8 1 12 13 14 16 18 20 21 rings

> <PUBCHEM_HEAVY_ATOM_COUNT>
39

> <PUBCHEM_ATOM_DEF_STEREO_COUNT>
10

> <PUBCHEM_ATOM_UDEF_STEREO_COUNT>
0

> <PUBCHEM_BOND_DEF_STEREO_COUNT>
1

> <PUBCHEM_BOND_UDEF_STEREO_COUNT>
0

> <PUBCHEM_ISOTOPIC_ATOM_COUNT>
0

> <PUBCHEM_COMPONENT_COUNT>
1

> <PUBCHEM_CACTVS_TAUTO_COUNT>
17

> <PUBCHEM_CONFORMER_ID>
0050961800000001

> <PUBCHEM_MMFF94_ENERGY>
153.8666

> <PUBCHEM_FEATURE_SELFOVERLAP>
81.37

> <PUBCHEM_SHAPE_FINGERPRINT>
10369192 42 7997963587942358298
11007060 377 8718244803038632442
11115154 58 18042422351916078349
11135926 11 18059011812371214227
11963148 33 17977386027825428438
1200032 147 14835573603917329335
12166972 35 17988634216977362622
12857493 111 18413112749338417276
13782708 43 18059569140117304770
13811026 1 18413113836417764976
14068700 675 18334858337687774216
14790565 3 17186438491341784792
15082195 135 17488169410320260028
15183329 4 15913325815002351234
15324884 4 17843964741512064793
15461852 350 18338794628930546654
15975801 100 14116980030809754007
17686467 74 18408889547483565210
19958102 18 17774437321573198074
20609170 92 18059293155042566284
20691752 17 17346605158056267361
20721686 56 18341328917190338232
20775438 99 17975997370219499479
21033650 10 16630537249779050205
21057603 130 17531252720987402775
21344244 246 18193559969321165806
22182313 1 17986950739836193561
22393880 68 17988372481491262355
23559900 14 18130225960625512660
249057 3 18334857273047879801
2838139 119 14620792716876507758
4280585 95 18342178886021149510
484989 97 18129656396723363450
4938544 92 15936683878429234355
5171179 24 18335711528662501432
56638632 10 10519691289943580895
6669772 16 17973446495074746920

> <PUBCHEM_SHAPE_MULTIPOLES>
738.04
15.73
4.19
1.85
17.98
2.55
-0.31
-16.98
-5.22
1.93
0.59
-1.66
-0.08
0.61

> <PUBCHEM_SHAPE_SELFOVERLAP>
1600.565

> <PUBCHEM_SHAPE_VOLUME>
396.7

> <PUBCHEM_COORDINATE_TYPE>
2
5
10

$$$$

