439686
  -OEChem-07051212473D

 34 36  0     1  0  0  0  0  0999 V2000
    2.2245   -0.4709   -0.9771 O   0  0  0  0  0  0  0  0  0  0  0  0
    1.3008    2.2210    1.2186 O   0  0  0  0  0  0  0  0  0  0  0  0
    3.4973    2.2353   -0.3816 O   0  0  0  0  0  0  0  0  0  0  0  0
    4.1113   -2.4789   -0.4569 O   0  0  0  0  0  0  0  0  0  0  0  0
   -4.1545   -1.7306    0.8108 O   0  0  0  0  0  0  0  0  0  0  0  0
    0.0013   -0.3355   -0.1593 N   0  0  0  0  0  0  0  0  0  0  0  0
   -1.3193   -2.0539    0.3522 N   0  0  0  0  0  0  0  0  0  0  0  0
   -1.5638    1.4450   -0.3741 N   0  0  0  0  0  0  0  0  0  0  0  0
   -4.0145    1.4948   -0.2720 N   0  0  0  0  0  0  0  0  0  0  0  0
    1.2385    0.4045   -0.3970 C   0  0  1  0  0  0  0  0  0  0  0  0
    1.8698    0.9775    0.8627 C   0  0  1  0  0  0  0  0  0  0  0  0
    3.3240    1.0868    0.4484 C   0  0  1  0  0  0  0  0  0  0  0  0
    3.5154   -0.1665   -0.3999 C   0  0  1  0  0  0  0  0  0  0  0  0
    3.9733   -1.3692    0.4131 C   0  0  0  0  0  0  0  0  0  0  0  0
   -1.2767    0.1431   -0.1837 C   0  0  0  0  0  0  0  0  0  0  0  0
   -0.0750   -1.6607    0.1778 C   0  0  0  0  0  0  0  0  0  0  0  0
   -2.0780   -0.9364    0.1024 C   0  0  0  0  0  0  0  0  0  0  0  0
   -3.5221   -0.9069    0.1549 C   0  0  0  0  0  0  0  0  0  0  0  0
   -4.2256    0.1172   -0.7095 C   0  0  0  0  0  0  0  0  0  0  0  0
   -2.8267    1.9841   -0.2297 C   0  0  0  0  0  0  0  0  0  0  0  0
    1.0161    1.1761   -1.1432 H   0  0  0  0  0  0  0  0  0  0  0  0
    1.7657    0.2890    1.7092 H   0  0  0  0  0  0  0  0  0  0  0  0
    4.0113    1.1779    1.2943 H   0  0  0  0  0  0  0  0  0  0  0  0
    4.2016   -0.0009   -1.2383 H   0  0  0  0  0  0  0  0  0  0  0  0
    3.2503   -1.6422    1.1881 H   0  0  0  0  0  0  0  0  0  0  0  0
    4.9413   -1.1796    0.8860 H   0  0  0  0  0  0  0  0  0  0  0  0
    1.4445    2.8393    0.4820 H   0  0  0  0  0  0  0  0  0  0  0  0
    0.7977   -2.2892    0.2913 H   0  0  0  0  0  0  0  0  0  0  0  0
    4.4270    2.2493   -0.6666 H   0  0  0  0  0  0  0  0  0  0  0  0
   -0.8021    2.1130   -0.4659 H   0  0  0  0  0  0  0  0  0  0  0  0
    3.2462   -2.6345   -0.8732 H   0  0  0  0  0  0  0  0  0  0  0  0
   -3.9222   -0.0131   -1.7552 H   0  0  0  0  0  0  0  0  0  0  0  0
   -5.3007   -0.0921   -0.6702 H   0  0  0  0  0  0  0  0  0  0  0  0
   -2.7453    3.0615   -0.0073 H   0  0  0  0  0  0  0  0  0  0  0  0
  1 10  1  0  0  0  0
  1 13  1  0  0  0  0
  2 11  1  0  0  0  0
  2 27  1  0  0  0  0
  3 12  1  0  0  0  0
  3 29  1  0  0  0  0
  4 14  1  0  0  0  0
  4 31  1  0  0  0  0
  5 18  2  0  0  0  0
  6 10  1  0  0  0  0
  6 15  1  0  0  0  0
  6 16  1  0  0  0  0
  7 16  2  0  0  0  0
  7 17  1  0  0  0  0
  8 15  1  0  0  0  0
  8 20  1  0  0  0  0
  8 30  1  0  0  0  0
  9 19  1  0  0  0  0
  9 20  2  0  0  0  0
 10 11  1  0  0  0  0
 10 21  1  0  0  0  0
 11 12  1  0  0  0  0
 11 22  1  0  0  0  0
 12 13  1  0  0  0  0
 12 23  1  0  0  0  0
 13 14  1  0  0  0  0
 13 24  1  0  0  0  0
 14 25  1  0  0  0  0
 14 26  1  0  0  0  0
 15 17  2  0  0  0  0
 16 28  1  0  0  0  0
 17 18  1  0  0  0  0
 18 19  1  0  0  0  0
 19 32  1  0  0  0  0
 19 33  1  0  0  0  0
 20 34  1  0  0  0  0
M  END
> <PUBCHEM_COMPOUND_CID>
439686

> <PUBCHEM_CONFORMER_RMSD>
0.6

> <PUBCHEM_CONFORMER_DIVERSEORDER>
1
17
10
20
19
13
18
6
4
3
12
2
8
11
16
21
9
14
7
15
5

> <PUBCHEM_MMFF94_PARTIAL_CHARGES>
26
1 -0.56
10 0.54
11 0.28
12 0.28
13 0.28
14 0.28
15 -0.07
16 0.04
17 0.14
18 0.6
19 0.31
2 -0.68
20 0.44
27 0.4
28 0.15
29 0.4
3 -0.68
30 0.4
31 0.4
34 0.06
4 -0.68
5 -0.57
6 0.05
7 -0.57
8 -0.53
9 -0.7

> <PUBCHEM_EFFECTIVE_ROTOR_COUNT>
3.4

> <PUBCHEM_PHARMACOPHORE_FEATURES>
14
1 1 acceptor
1 2 acceptor
1 2 donor
1 3 acceptor
1 3 donor
1 4 acceptor
1 4 donor
1 5 acceptor
1 8 donor
3 6 7 16 cation
3 8 9 20 cation
5 1 10 11 12 13 rings
5 6 7 15 16 17 rings
7 8 9 15 17 18 19 20 rings

> <PUBCHEM_HEAVY_ATOM_COUNT>
20

> <PUBCHEM_ATOM_DEF_STEREO_COUNT>
4

> <PUBCHEM_ATOM_UDEF_STEREO_COUNT>
0

> <PUBCHEM_BOND_DEF_STEREO_COUNT>
0

> <PUBCHEM_BOND_UDEF_STEREO_COUNT>
0

> <PUBCHEM_ISOTOPIC_ATOM_COUNT>
0

> <PUBCHEM_COMPONENT_COUNT>
1

> <PUBCHEM_CACTVS_TAUTO_COUNT>
7

> <PUBCHEM_CONFORMER_ID>
0006B58600000001

> <PUBCHEM_MMFF94_ENERGY>
49.0315

> <PUBCHEM_FEATURE_SELFOVERLAP>
71.098

> <PUBCHEM_SHAPE_FINGERPRINT>
10498660 4 18273503364197085741
10608611 8 18409169870153662096
10646746 165 18412265055536330405
10759866 29 18341887455748226732
1100329 8 16607727085805798888
11405975 8 18336825385401352961
11578080 2 13841101628740768154
12403259 226 18409172095315798209
12403259 415 18272092729459566181
12403260 363 18336555992183398607
12507560 40 18409733941568035032
13134695 92 17603882142865660440
13140716 1 18335979873633777952
13675066 3 18409733958363094218
14866123 147 16892290552436258778
15196674 1 18411982455626315253
15219456 202 18334577918988097085
15442244 35 18411138082299107320
15536298 74 18411141346273889722
16945 1 18192159191465012177
17492 89 18412825754969872578
17804303 29 18412259570989771950
18186145 218 18187072962396889131
19049666 15 18409168796648896872
19591789 44 18411701002035186099
200 152 17530972397113901607
20510252 161 18410853218646025905
20645477 70 18333449846176306982
221490 88 18411414012304272810
23402539 116 18335150803337940013
23493267 7 17561085826102493771
23559900 14 18410014355756356436
3004659 81 18057597871506090590
3286 77 18335708247016732684
335352 9 18267022949820423941
350125 39 18341045324040213941
351380 180 18334866034295418917
4214541 1 18413108380986372636
474 4 16342006547870640284
5104073 3 18411418418745436577
633830 44 18342747320663619343
69090 78 18187089420943962095
7364860 26 18121786285828587447
77779 3 18413107255705019012
9709674 26 18412259506613085902

> <PUBCHEM_SHAPE_MULTIPOLES>
362.32
8.62
2.45
0.85
0.53
0.06
-0.06
-0.94
0.47
-0.6
-0.25
-0.16
0.09
0.84

> <PUBCHEM_SHAPE_SELFOVERLAP>
782.314

> <PUBCHEM_SHAPE_VOLUME>
197.1

> <PUBCHEM_COORDINATE_TYPE>
2
5
10

$$$$

