13418
  -OEChem-06261214042D

 12 12  0     0  0  0  0  0  0999 V2000
    5.4641    1.5000    0.0000 Cl  0  0  0  0  0  0  0  0  0  0  0  0
    7.1962   -1.5000    0.0000 Cl  0  0  0  0  0  0  0  0  0  0  0  0
    2.0000   -1.5000    0.0000 Cl  0  0  0  0  0  0  0  0  0  0  0  0
    2.8660    0.0000    0.0000 Cl  0  0  0  0  0  0  0  0  0  0  0  0
    5.4641   -1.5000    0.0000 N   0  0  0  0  0  0  0  0  0  0  0  0
    4.5981    0.0000    0.0000 N   0  0  0  0  0  0  0  0  0  0  0  0
    6.3301    0.0000    0.0000 N   0  0  0  0  0  0  0  0  0  0  0  0
    3.7320   -1.5000    0.0000 N   0  0  0  0  0  0  0  0  0  0  0  0
    4.5981   -1.0000    0.0000 C   0  0  0  0  0  0  0  0  0  0  0  0
    5.4641    0.5000    0.0000 C   0  0  0  0  0  0  0  0  0  0  0  0
    6.3301   -1.0000    0.0000 C   0  0  0  0  0  0  0  0  0  0  0  0
    2.8660   -1.0000    0.0000 C   0  0  0  0  0  0  0  0  0  0  0  0
  1 10  1  0  0  0  0
  2 11  1  0  0  0  0
  3 12  1  0  0  0  0
  4 12  1  0  0  0  0
  5  9  2  0  0  0  0
  5 11  1  0  0  0  0
  6  9  1  0  0  0  0
  6 10  2  0  0  0  0
  7 10  1  0  0  0  0
  7 11  2  0  0  0  0
  8  9  1  0  0  0  0
  8 12  2  0  0  0  0
M  END
> <PUBCHEM_COMPOUND_CID>
13418

> <PUBCHEM_COMPOUND_CANONICALIZED>
1

> <PUBCHEM_CACTVS_COMPLEXITY>
172

> <PUBCHEM_CACTVS_HBOND_ACCEPTOR>
4

> <PUBCHEM_CACTVS_HBOND_DONOR>
0

> <PUBCHEM_CACTVS_ROTATABLE_BOND>
1

> <PUBCHEM_CACTVS_SUBSKEYS>
AAADcQBjgAAHAAAAAAAAAAAAAAAAAAAAAAAsAAAAAAAAAAABgAAABAIAAAAAAAAAAIABEAYIEAAgAAAAJAAAAAkAAIABAAAAAACACAAAAAAAAAAIAAAAAAAAAAAAAAAAAAAAAAAAAAAAAAAAAAAAAAAAAA==

> <PUBCHEM_IUPAC_OPENEYE_NAME>
1,1-dichloro-N-(4,6-dichloro-1,3,5-triazin-2-yl)methanimine

> <PUBCHEM_IUPAC_CAS_NAME>
1,1-dichloro-N-(4,6-dichloro-1,3,5-triazin-2-yl)methanimine

> <PUBCHEM_IUPAC_NAME>
1,1-dichloro-N-(4,6-dichloro-1,3,5-triazin-2-yl)methanimine

> <PUBCHEM_IUPAC_SYSTEMATIC_NAME>
N-[4,6-bis(chloranyl)-1,3,5-triazin-2-yl]-1,1-bis(chloranyl)methanimine

> <PUBCHEM_IUPAC_TRADITIONAL_NAME>
dichloromethylene-(4,6-dichloro-s-triazin-2-yl)amine

> <PUBCHEM_IUPAC_INCHI>
InChI=1S/C4Cl4N4/c5-1(6)9-4-11-2(7)10-3(8)12-4

> <PUBCHEM_IUPAC_INCHIKEY>
IDCMMUIWYZMPIM-UHFFFAOYSA-N

> <PUBCHEM_XLOGP3_AA>
4

> <PUBCHEM_EXACT_MASS>
245.884757

> <PUBCHEM_MOLECULAR_FORMULA>
C4Cl4N4

> <PUBCHEM_MOLECULAR_WEIGHT>
245.8816

> <PUBCHEM_OPENEYE_CAN_SMILES>
C1(=NC(=NC(=N1)Cl)Cl)N=C(Cl)Cl

> <PUBCHEM_OPENEYE_ISO_SMILES>
C1(=NC(=NC(=N1)Cl)Cl)N=C(Cl)Cl

> <PUBCHEM_CACTVS_TPSA>
51

> <PUBCHEM_MONOISOTOPIC_WEIGHT>
243.887707

> <PUBCHEM_TOTAL_CHARGE>
0

> <PUBCHEM_HEAVY_ATOM_COUNT>
12

> <PUBCHEM_ATOM_DEF_STEREO_COUNT>
0

> <PUBCHEM_ATOM_UDEF_STEREO_COUNT>
0

> <PUBCHEM_BOND_DEF_STEREO_COUNT>
0

> <PUBCHEM_BOND_UDEF_STEREO_COUNT>
0

> <PUBCHEM_ISOTOPIC_ATOM_COUNT>
0

> <PUBCHEM_COMPONENT_COUNT>
1

> <PUBCHEM_CACTVS_TAUTO_COUNT>
1

> <PUBCHEM_COORDINATE_TYPE>
1
5
255

> <PUBCHEM_BONDANNOTATIONS>
5  11  8
5  9  8
6  10  8
6  9  8
7  10  8
7  11  8

$$$$

