854322
  -OEChem-06241222473D

 37 39  0     0  0  0  0  0  0999 V2000
   -3.8260   -1.1702   -1.0141 O   0  0  0  0  0  0  0  0  0  0  0  0
    0.2119    1.0830    0.2137 O   0  0  0  0  0  0  0  0  0  0  0  0
   -0.5391    2.9698   -0.9309 O   0  0  0  0  0  0  0  0  0  0  0  0
    2.8052    0.2150   -2.1124 O   0  0  0  0  0  0  0  0  0  0  0  0
   -5.7668   -2.2438   -1.5857 O   0  0  0  0  0  0  0  0  0  0  0  0
    2.7358    1.6156   -0.2640 N   0  0  0  0  0  0  0  0  0  0  0  0
   -3.7486    0.1143    1.0519 C   0  0  0  0  0  0  0  0  0  0  0  0
   -3.1260   -0.3545   -0.1019 C   0  0  0  0  0  0  0  0  0  0  0  0
   -1.0837    0.7635    0.4833 C   0  0  0  0  0  0  0  0  0  0  0  0
   -1.8014   -0.0408   -0.3992 C   0  0  0  0  0  0  0  0  0  0  0  0
   -3.0219    0.9198    1.9313 C   0  0  0  0  0  0  0  0  0  0  0  0
   -1.6920    1.2428    1.6459 C   0  0  0  0  0  0  0  0  0  0  0  0
   -5.1327   -0.2518    1.2993 C   0  0  0  0  0  0  0  0  0  0  0  0
    1.8288    2.5814   -0.8125 C   0  0  0  0  0  0  0  0  0  0  0  0
    4.0784   -0.4264   -0.2507 C   0  0  0  0  0  0  0  0  0  0  0  0
   -5.7888   -1.0251    0.4307 C   0  0  0  0  0  0  0  0  0  0  0  0
    0.3785    2.2591   -0.5329 C   0  0  0  0  0  0  0  0  0  0  0  0
    3.1579    0.4921   -0.9689 C   0  0  0  0  0  0  0  0  0  0  0  0
   -5.1511   -1.5340   -0.7978 C   0  0  0  0  0  0  0  0  0  0  0  0
    4.0965   -1.7602   -0.6023 C   0  0  0  0  0  0  0  0  0  0  0  0
    4.8859    0.0838    0.7446 C   0  0  0  0  0  0  0  0  0  0  0  0
    4.9609   -2.6227    0.0719 C   0  0  0  0  0  0  0  0  0  0  0  0
    5.7504   -0.7788    1.4186 C   0  0  0  0  0  0  0  0  0  0  0  0
    5.7878   -2.1320    1.0822 C   0  0  0  0  0  0  0  0  0  0  0  0
   -1.3350   -0.4180   -1.3048 H   0  0  0  0  0  0  0  0  0  0  0  0
   -3.4766    1.3030    2.8413 H   0  0  0  0  0  0  0  0  0  0  0  0
   -1.1342    1.8699    2.3365 H   0  0  0  0  0  0  0  0  0  0  0  0
   -5.6211    0.1116    2.1967 H   0  0  0  0  0  0  0  0  0  0  0  0
    1.9676    2.6371   -1.8963 H   0  0  0  0  0  0  0  0  0  0  0  0
    2.0634    3.5460   -0.3536 H   0  0  0  0  0  0  0  0  0  0  0  0
    2.9946    1.7401    0.7087 H   0  0  0  0  0  0  0  0  0  0  0  0
   -6.8220   -1.3027    0.6087 H   0  0  0  0  0  0  0  0  0  0  0  0
    3.4555   -2.1591   -1.3827 H   0  0  0  0  0  0  0  0  0  0  0  0
    4.9114    1.1348    1.0125 H   0  0  0  0  0  0  0  0  0  0  0  0
    4.9896   -3.6766   -0.1891 H   0  0  0  0  0  0  0  0  0  0  0  0
    6.4004   -0.3959    2.2001 H   0  0  0  0  0  0  0  0  0  0  0  0
    6.4620   -2.8033    1.6060 H   0  0  0  0  0  0  0  0  0  0  0  0
  1  8  1  0  0  0  0
  1 19  1  0  0  0  0
  2  9  1  0  0  0  0
  2 17  1  0  0  0  0
  3 17  2  0  0  0  0
  4 18  2  0  0  0  0
  5 19  2  0  0  0  0
  6 14  1  0  0  0  0
  6 18  1  0  0  0  0
  6 31  1  0  0  0  0
  7  8  2  0  0  0  0
  7 11  1  0  0  0  0
  7 13  1  0  0  0  0
  8 10  1  0  0  0  0
  9 10  2  0  0  0  0
  9 12  1  0  0  0  0
 10 25  1  0  0  0  0
 11 12  2  0  0  0  0
 11 26  1  0  0  0  0
 12 27  1  0  0  0  0
 13 16  2  0  0  0  0
 13 28  1  0  0  0  0
 14 17  1  0  0  0  0
 14 29  1  0  0  0  0
 14 30  1  0  0  0  0
 15 18  1  0  0  0  0
 15 20  2  0  0  0  0
 15 21  1  0  0  0  0
 16 19  1  0  0  0  0
 16 32  1  0  0  0  0
 20 22  1  0  0  0  0
 20 33  1  0  0  0  0
 21 23  2  0  0  0  0
 21 34  1  0  0  0  0
 22 24  2  0  0  0  0
 22 35  1  0  0  0  0
 23 24  1  0  0  0  0
 23 36  1  0  0  0  0
 24 37  1  0  0  0  0
M  END
> <PUBCHEM_COMPOUND_CID>
854322

> <PUBCHEM_CONFORMER_RMSD>
0.8

> <PUBCHEM_CONFORMER_DIVERSEORDER>
1
132
23
85
58
99
244
19
107
73
165
137
295
54
306
228
294
269
102
124
166
184
272
291
337
252
163
321
162
248
119
285
288
258
135
260
9
101
222
237
204
303
87
167
179
120
22
219
323
227
81
67
93
104
217
146
114
89
262
15
251
105
239
83
202
182
97
304
229
310
263
234
205
297
195
241
298
53
164
235
42
329
94
181
261
147
60
187
59
268
123
313
40
199
176
28
110
170
33
68
27
138
151
233
293
90
6
153
245
274
257
312
148
95
240
275
62
281
47
70
220
289
299
198
111
253
72
196
150
29
75
41
326
161
186
319
36
25
12
173
335
249
174
156
203
175
246
194
16
325
270
34
116
224
328
279
206
13
121
315
211
254
256
259
96
74
223
140
201
284
226
207
69
145
338
17
318
71
290
149
88
5
200
91
82
316
332
4
236
301
113
305
178
212
142
155
192
131
300
210
309
327
57
322
48
38
154
209
308
225
52
143
108
273
118
190
242
172
3
180
267
193
311
282
250
84
278
49
79
183
136
130
216
78
238
221
286
61
169
264
314
292
44
66
77
302
218
214
277
125
139
65
24
100
115
317
35
152
106
320
112
296
191
213
307
64
330
122
56
283
168
334
30
2
280
189
43
324
331
80
171
276
247
127
26
255
50
197
92
126
177
159
133
333
7
160
208
188
18
45
141
8
20
158
265
271
10
128
109
32
76
103
14
230
185
117
215
11
157
55
46
21
39
98
266
336
86
243
232
31
287
134
51
37
231
144
129
63

> <PUBCHEM_MMFF94_PARTIAL_CHARGES>
35
1 -0.23
10 -0.15
11 -0.15
12 -0.15
13 -0.18
14 0.36
15 0.09
16 -0.14
17 0.66
18 0.54
19 0.71
2 -0.23
20 -0.15
21 -0.15
22 -0.15
23 -0.15
24 -0.15
25 0.15
26 0.15
27 0.15
28 0.15
3 -0.57
31 0.37
32 0.15
33 0.15
34 0.15
35 0.15
36 0.15
37 0.15
4 -0.57
5 -0.57
6 -0.73
7 0.03
8 0.08
9 0.08

> <PUBCHEM_EFFECTIVE_ROTOR_COUNT>
6

> <PUBCHEM_PHARMACOPHORE_FEATURES>
7
1 3 acceptor
1 4 acceptor
1 5 acceptor
1 6 donor
6 1 7 8 13 16 19 rings
6 15 20 21 22 23 24 rings
6 7 8 9 10 11 12 rings

> <PUBCHEM_HEAVY_ATOM_COUNT>
24

> <PUBCHEM_ATOM_DEF_STEREO_COUNT>
0

> <PUBCHEM_ATOM_UDEF_STEREO_COUNT>
0

> <PUBCHEM_BOND_DEF_STEREO_COUNT>
0

> <PUBCHEM_BOND_UDEF_STEREO_COUNT>
0

> <PUBCHEM_ISOTOPIC_ATOM_COUNT>
0

> <PUBCHEM_COMPONENT_COUNT>
1

> <PUBCHEM_CACTVS_TAUTO_COUNT>
2

> <PUBCHEM_CONFORMER_ID>
000D093200000001

> <PUBCHEM_MMFF94_ENERGY>
76.0715

> <PUBCHEM_FEATURE_SELFOVERLAP>
35.548

> <PUBCHEM_SHAPE_FINGERPRINT>
10319688 67 16443889688129658323
10319926 262 16660912413525728352
10447042 23 18131348605669493740
11135926 11 17629735939233383780
11991303 11 17343223236045752573
12363563 72 18059563746328996344
12422481 6 17969211403548172391
12523318 42 17095520712712096251
12596602 18 17530683216997881170
12616971 3 18337379483775258809
12760667 363 18202564011890884960
12839892 36 17385715903199771791
12892183 10 16370998663476034672
13533116 47 18335701598629164552
13583140 156 16298677190763157592
13692114 37 17758949716664398009
13885169 86 7204474654969583994
1420 369 18341890835850299002
14251740 57 18041271162809150702
14251751 18 18259707804460954601
14341114 328 16805327691209194770
14347332 77 18410573977316150477
14429115 67 18410290337327568206
1454969 45 18341046329854066628
14848178 5 18409732863146342778
14950920 106 17387420245249938306
15183329 4 15267348448078580654
15188451 53 18113344119317004211
15210252 30 9583226237593399190
15250474 111 18188490160140154879
15475509 8 16128657470741251941
17349148 13 18261943081730598167
17857418 61 18334012774633487131
1813 80 18411125948673968852
18222031 100 18336254709055051732
18681886 176 16517349008431393780
20028762 73 18334577966861420518
20621476 91 15719680857798972821
20645477 70 17846208922016999040
21315764 119 13973692762447153986
21315764 371 17313093168474881882
21458453 9 15142110650423169879
21728266 224 17822008692785752553
22061861 79 17203607073250737523
23366157 5 17535752889294717185
23536364 44 17417543500675388573
23559900 14 15985099674166309796
3004659 81 18042111099070976013
3014063 24 18408328782497638694
312425 54 17386559288415872122
312425 83 14476093615522931542
3298306 158 15769779047950022536
3472631 163 10519982673166562050
34797466 226 15625650597431913245
3729539 64 17274830198282870931
46194498 28 15409462426197093852
463206 1 18272929392951453034
5104073 3 17459179682763530243
56633871 153 18046897453316815666
6443934 186 17458349589849023496
76465 3 18413108376960703580
7970288 3 18272087240507634530
960060 61 17774992462790077420

> <PUBCHEM_SHAPE_MULTIPOLES>
459.58
15.57
2.72
1.61
0.86
0.61
0.13
-13.4
2.29
1.43
-0.83
-0.56
0.01
-2.3

> <PUBCHEM_SHAPE_SELFOVERLAP>
1002.987

> <PUBCHEM_SHAPE_VOLUME>
245.8

> <PUBCHEM_COORDINATE_TYPE>
2
5
10

$$$$

