5321047
  -OEChem-07051213093D

 24 24  0     0  0  0  0  0  0999 V2000
    4.1973    0.8335    0.0862 O   0  0  0  0  0  0  0  0  0  0  0  0
    3.5112   -0.3240   -0.0026 C   0  0  0  0  0  0  0  0  0  0  0  0
    4.3419   -1.4033   -0.0764 C   0  0  0  0  0  0  0  0  0  0  0  0
    5.6538   -0.8743   -0.0298 C   0  0  0  0  0  0  0  0  0  0  0  0
    5.5120    0.4902    0.0691 C   0  0  0  0  0  0  0  0  0  0  0  0
    2.0782   -0.3455   -0.0110 C   0  0  0  0  0  0  0  0  0  0  0  0
    1.3133    0.7560    0.0258 C   0  0  0  0  0  0  0  0  0  0  0  0
   -7.4228   -0.9253    0.0815 C   0  0  0  0  0  0  0  0  0  0  0  0
   -5.9355   -0.7924    0.1009 C   0  0  0  0  0  0  0  0  0  0  0  0
   -0.1065    0.6660   -0.0012 C   0  0  0  0  0  0  0  0  0  0  0  0
   -5.2910    0.3650   -0.0986 C   0  0  0  0  0  0  0  0  0  0  0  0
   -3.8728    0.4433   -0.0712 C   0  0  0  0  0  0  0  0  0  0  0  0
   -1.3049    0.5959   -0.0236 C   0  0  0  0  0  0  0  0  0  0  0  0
   -2.6745    0.5149   -0.0492 C   0  0  0  0  0  0  0  0  0  0  0  0
    4.0599   -2.4442   -0.1538 H   0  0  0  0  0  0  0  0  0  0  0  0
    6.5860   -1.4193   -0.0640 H   0  0  0  0  0  0  0  0  0  0  0  0
    6.2104    1.3118    0.1335 H   0  0  0  0  0  0  0  0  0  0  0  0
    1.6026   -1.3234   -0.0602 H   0  0  0  0  0  0  0  0  0  0  0  0
    1.7510    1.7482    0.0710 H   0  0  0  0  0  0  0  0  0  0  0  0
   -7.9225    0.0289   -0.1138 H   0  0  0  0  0  0  0  0  0  0  0  0
   -7.7233   -1.6333   -0.6969 H   0  0  0  0  0  0  0  0  0  0  0  0
   -7.7754   -1.3039    1.0458 H   0  0  0  0  0  0  0  0  0  0  0  0
   -5.3725   -1.7036    0.2899 H   0  0  0  0  0  0  0  0  0  0  0  0
   -5.8451    1.2787   -0.2879 H   0  0  0  0  0  0  0  0  0  0  0  0
  1  2  1  0  0  0  0
  1  5  1  0  0  0  0
  2  3  2  0  0  0  0
  2  6  1  0  0  0  0
  3  4  1  0  0  0  0
  3 15  1  0  0  0  0
  4  5  2  0  0  0  0
  4 16  1  0  0  0  0
  5 17  1  0  0  0  0
  6  7  2  0  0  0  0
  6 18  1  0  0  0  0
  7 10  1  0  0  0  0
  7 19  1  0  0  0  0
  8  9  1  0  0  0  0
  8 20  1  0  0  0  0
  8 21  1  0  0  0  0
  8 22  1  0  0  0  0
  9 11  2  0  0  0  0
  9 23  1  0  0  0  0
 10 13  3  0  0  0  0
 11 12  1  0  0  0  0
 11 24  1  0  0  0  0
 12 14  3  0  0  0  0
 13 14  1  0  0  0  0
M  END
> <PUBCHEM_COMPOUND_CID>
5321047

> <PUBCHEM_CONFORMER_RMSD>
0.4

> <PUBCHEM_CONFORMER_DIVERSEORDER>
1
3
2
4

> <PUBCHEM_MMFF94_PARTIAL_CHARGES>
19
1 -0.28
10 -0.06
11 -0.09
12 -0.06
15 0.15
16 0.15
17 0.15
18 0.15
19 0.15
2 0.09
23 0.15
24 0.15
3 -0.15
4 -0.15
5 -0.01
6 -0.11
7 -0.09
8 0.14
9 -0.29

> <PUBCHEM_EFFECTIVE_ROTOR_COUNT>
1

> <PUBCHEM_PHARMACOPHORE_FEATURES>
3
1 1 acceptor
1 8 hydrophobe
5 1 2 3 4 5 rings

> <PUBCHEM_HEAVY_ATOM_COUNT>
14

> <PUBCHEM_ATOM_DEF_STEREO_COUNT>
0

> <PUBCHEM_ATOM_UDEF_STEREO_COUNT>
0

> <PUBCHEM_BOND_DEF_STEREO_COUNT>
2

> <PUBCHEM_BOND_UDEF_STEREO_COUNT>
0

> <PUBCHEM_ISOTOPIC_ATOM_COUNT>
0

> <PUBCHEM_COMPONENT_COUNT>
1

> <PUBCHEM_CACTVS_TAUTO_COUNT>
1

> <PUBCHEM_CONFORMER_ID>
0051315700000001

> <PUBCHEM_MMFF94_ENERGY>
6.8475

> <PUBCHEM_FEATURE_SELFOVERLAP>
15.223

> <PUBCHEM_SHAPE_FINGERPRINT>
10354089 29 13840264792664192194
11287383 113 18343301457175363432
117890 112 8862941680136237927
12091667 2 17346597496119285365
12714333 28 12247679370530586949
13288520 33 18413670206708116005
13533116 47 5328474652709083044
13668630 136 18131912655103303451
13685833 64 18411697678088694971
13885169 127 18411138070226790149
13964095 4 17703515463417465037
13968360 50 14476971094183822905
14123238 8 18343020003631252269
14123256 10 16630528432232030363
1420 363 18408882940905855319
14251718 22 18201720656581728273
14251732 16 18409167679931318313
14251764 18 17822010879166881415
14251764 46 18410576188469673995
14350574 20 18344146982123518925
14729087 3 9295291621299782431
15048467 5 8718822089613467211
15501527 16 8862943879702773453
15690457 1 17968382256829848151
15716309 27 18114181930662060711
17834072 33 18334577923298999092
17834076 25 8286201648011627469
17844677 252 18410851079520697309
18006028 8 18113621179958956097
20281389 69 7565348626344235083
20645477 70 18339361989324562246
20767249 213 9655576314571410231
21130983 4 7204771505796844891
21150785 3 17275380988930220798
21267235 1 18186797020123987422
212847 35 10087632702840605462
220451 1 14996286924345980708
22224240 67 15213304123517035885
22896161 15 18411699855062230909
23035841 295 18411138035276130267
23402539 116 18272373096545652525
23536379 177 18409448115763261865
23559900 14 18200878349577200489
246663 6 17530676633155712798
351380 3 18407764737759930623
42788 4 18410856576941198933
465052 167 18186518821838143142
8209 1 18202565076889812901

> <PUBCHEM_SHAPE_MULTIPOLES>
282.24
19.15
1.13
0.61
17.62
0.21
0
6.37
0.34
-0.32
0
0.03
0.01
0.18

> <PUBCHEM_SHAPE_SELFOVERLAP>
575.37

> <PUBCHEM_SHAPE_VOLUME>
162.9

> <PUBCHEM_COORDINATE_TYPE>
2
5
10

$$$$

