6324770
  -OEChem-07051212553D

 44 46  0     1  0  0  0  0  0999 V2000
   -1.6205   -1.8084   -2.1640 O   0  5  0  0  0  0  0  0  0  0  0  0
   -0.3047   -3.3783   -1.1451 O   0  0  0  0  0  0  0  0  0  0  0  0
   -6.7042    1.3495   -0.0541 O   0  0  0  0  0  0  0  0  0  0  0  0
   -4.6337    3.0948    0.5460 O   0  0  0  0  0  0  0  0  0  0  0  0
    2.1678    3.5783   -1.0733 O   0  0  0  0  0  0  0  0  0  0  0  0
    4.3543    3.4372   -0.4445 O   0  0  0  0  0  0  0  0  0  0  0  0
    6.5308   -0.4318   -0.0931 O   0  0  0  0  0  0  0  0  0  0  0  0
    5.6596   -2.2936    0.9095 O   0  0  0  0  0  0  0  0  0  0  0  0
   -1.6479   -0.7797    0.4809 N   0  3  0  0  0  0  0  0  0  0  0  0
    4.2653    0.7700   -0.2968 N   0  0  0  0  0  0  0  0  0  0  0  0
   -1.8872   -2.2145    0.1364 C   0  0  1  0  0  0  0  0  0  0  0  0
   -3.4090   -2.3589    0.0011 C   0  0  0  0  0  0  0  0  0  0  0  0
   -3.8891   -0.9454    0.0848 C   0  0  0  0  0  0  0  0  0  0  0  0
   -2.8525   -0.0658    0.3876 C   0  0  0  0  0  0  0  0  0  0  0  0
   -0.5333   -0.2473    0.8334 C   0  0  0  0  0  0  0  0  0  0  0  0
   -5.1883   -0.4862   -0.0639 C   0  0  0  0  0  0  0  0  0  0  0  0
   -3.0765    1.2930    0.5495 C   0  0  0  0  0  0  0  0  0  0  0  0
    1.9323    1.1049    0.3674 C   0  0  0  0  0  0  0  0  0  0  0  0
    3.0257    1.4349   -0.6623 C   0  0  1  0  0  0  0  0  0  0  0  0
    1.8740   -0.3765    0.6940 C   0  0  0  0  0  0  0  0  0  0  0  0
   -1.2046   -2.4933   -1.1888 C   0  0  0  0  0  0  0  0  0  0  0  0
    0.7160   -1.0118    0.9248 C   0  0  0  0  0  0  0  0  0  0  0  0
   -5.4322    0.8799    0.0907 C   0  0  0  0  0  0  0  0  0  0  0  0
   -4.3841    1.7621    0.3957 C   0  0  0  0  0  0  0  0  0  0  0  0
    3.1560   -1.0664    0.7657 C   0  0  0  0  0  0  0  0  0  0  0  0
    4.2649   -0.4667    0.3034 C   0  0  0  0  0  0  0  0  0  0  0  0
    3.2854    2.9053   -0.7055 C   0  0  0  0  0  0  0  0  0  0  0  0
    5.5357   -1.1851    0.4203 C   0  0  0  0  0  0  0  0  0  0  0  0
   -1.5069   -2.8470    0.9468 H   0  0  0  0  0  0  0  0  0  0  0  0
   -3.8129   -2.9312    0.8444 H   0  0  0  0  0  0  0  0  0  0  0  0
   -3.7238   -2.8395   -0.9310 H   0  0  0  0  0  0  0  0  0  0  0  0
   -0.5128    0.8150    1.1109 H   0  0  0  0  0  0  0  0  0  0  0  0
    0.9959    1.4915   -0.0456 H   0  0  0  0  0  0  0  0  0  0  0  0
    2.1185    1.6548    1.3008 H   0  0  0  0  0  0  0  0  0  0  0  0
   -5.9971   -1.1734   -0.2910 H   0  0  0  0  0  0  0  0  0  0  0  0
   -2.2766    1.9880    0.7798 H   0  0  0  0  0  0  0  0  0  0  0  0
    2.7341    1.1006   -1.6654 H   0  0  0  0  0  0  0  0  0  0  0  0
    0.6850   -2.0733    1.1412 H   0  0  0  0  0  0  0  0  0  0  0  0
    5.1420    1.1016   -0.6857 H   0  0  0  0  0  0  0  0  0  0  0  0
    3.1705   -2.0650    1.1918 H   0  0  0  0  0  0  0  0  0  0  0  0
   -6.6923    2.3122    0.0867 H   0  0  0  0  0  0  0  0  0  0  0  0
   -3.8009    3.5524    0.7534 H   0  0  0  0  0  0  0  0  0  0  0  0
    2.3175    4.5473   -1.1056 H   0  0  0  0  0  0  0  0  0  0  0  0
    7.4013   -0.8801   -0.0331 H   0  0  0  0  0  0  0  0  0  0  0  0
  1 21  1  0  0  0  0
  2 21  2  0  0  0  0
  3 23  1  0  0  0  0
  3 41  1  0  0  0  0
  4 24  1  0  0  0  0
  4 42  1  0  0  0  0
  5 27  1  0  0  0  0
  5 43  1  0  0  0  0
  6 27  2  0  0  0  0
  7 28  1  0  0  0  0
  7 44  1  0  0  0  0
  8 28  2  0  0  0  0
  9 11  1  0  0  0  0
  9 14  1  0  0  0  0
  9 15  2  0  0  0  0
 10 19  1  0  0  0  0
 10 26  1  0  0  0  0
 10 39  1  0  0  0  0
 11 12  1  0  0  0  0
 11 21  1  0  0  0  0
 11 29  1  0  0  0  0
 12 13  1  0  0  0  0
 12 30  1  0  0  0  0
 12 31  1  0  0  0  0
 13 14  1  0  0  0  0
 13 16  2  0  0  0  0
 14 17  2  0  0  0  0
 15 22  1  0  0  0  0
 15 32  1  0  0  0  0
 16 23  1  0  0  0  0
 16 35  1  0  0  0  0
 17 24  1  0  0  0  0
 17 36  1  0  0  0  0
 18 19  1  0  0  0  0
 18 20  1  0  0  0  0
 18 33  1  0  0  0  0
 18 34  1  0  0  0  0
 19 27  1  0  0  0  0
 19 37  1  0  0  0  0
 20 22  2  0  0  0  0
 20 25  1  0  0  0  0
 22 38  1  0  0  0  0
 23 24  2  0  0  0  0
 25 26  2  0  0  0  0
 25 40  1  0  0  0  0
 26 28  1  0  0  0  0
M  CHG  2   1  -1   9   1
M  END
> <PUBCHEM_COMPOUND_CID>
6324770

> <PUBCHEM_CONFORMER_RMSD>
0.8

> <PUBCHEM_CONFORMER_DIVERSEORDER>
1
2
4
3

> <PUBCHEM_MMFF94_PARTIAL_CHARGES>
38
1 -0.9
10 -0.87
11 0.24
12 0.14
13 -0.14
14 0.3
15 0.33
16 -0.15
17 -0.15
18 0.14
19 0.43
2 -0.9
20 -0.14
21 0.91
22 -0.14
23 0.08
24 0.08
25 -0.15
26 0.11
27 0.66
28 0.71
3 -0.53
32 0.06
35 0.15
36 0.15
38 0.15
39 0.4
4 -0.53
40 0.15
41 0.45
42 0.45
43 0.5
44 0.5
5 -0.65
6 -0.57
7 -0.65
8 -0.57
9 -0.04

> <PUBCHEM_EFFECTIVE_ROTOR_COUNT>
5

> <PUBCHEM_PHARMACOPHORE_FEATURES>
16
1 1 acceptor
1 10 cation
1 10 donor
1 2 acceptor
1 3 donor
1 4 donor
1 5 acceptor
1 6 acceptor
1 7 acceptor
1 8 acceptor
3 1 2 21 anion
3 5 6 27 anion
3 7 8 28 anion
5 9 11 12 13 14 rings
6 10 18 19 20 25 26 rings
6 13 14 16 17 23 24 rings

> <PUBCHEM_HEAVY_ATOM_COUNT>
28

> <PUBCHEM_ATOM_DEF_STEREO_COUNT>
2

> <PUBCHEM_ATOM_UDEF_STEREO_COUNT>
0

> <PUBCHEM_BOND_DEF_STEREO_COUNT>
1

> <PUBCHEM_BOND_UDEF_STEREO_COUNT>
0

> <PUBCHEM_ISOTOPIC_ATOM_COUNT>
0

> <PUBCHEM_COMPONENT_COUNT>
1

> <PUBCHEM_CACTVS_TAUTO_COUNT>
12

> <PUBCHEM_CONFORMER_ID>
0060822200000001

> <PUBCHEM_MMFF94_ENERGY>
81.5415

> <PUBCHEM_FEATURE_SELFOVERLAP>
81.444

> <PUBCHEM_SHAPE_FINGERPRINT>
10595046 47 18267584602662027418
10763959 59 17917436466227562301
10906281 52 17916863492833230696
11578080 2 17678475077515277552
12107183 9 18339924930265568944
12166972 35 18408324401784127600
12173636 292 18262526866570677879
12236239 1 18342459248459068411
12788726 201 17749376070930311833
13583140 156 17917419965237167179
13590594 115 18130221679108036776
14117953 113 18266179607581279477
15183329 4 18410288146809786202
15420108 30 17400071367583451328
15849732 13 18335142029163073486
17492 89 18197495126027907938
17818456 19 18333731334138048856
17844677 252 18270673173684725587
18335252 114 18271817864484801957
18681886 176 18335709342523556840
19611394 137 18058152957436911195
20511986 3 18261120621685308912
20715895 44 18335699515775740905
21033648 144 18131078082273864757
21033648 29 17823156616979149186
21033650 10 16009845338838082272
21781055 127 17242147214851368649
22122407 14 18272359906548248969
22393880 68 18044645400791260564
23559900 14 18334021579089610690
24771293 8 18193570982978764336
249057 3 18409729569264947482
25265897 201 17830414385791480957
2838139 119 18342462577828849637
3004659 81 18335138696342240082
3298306 158 17967250922950670863
335352 9 18413107286112597110
340366 18 18409727352977524350
4017518 198 17603583063235385550
4073 2 17917424268942181674
469060 322 14116961184973144179
474 4 17702665415199190760
5104073 3 18060139782346039000
54446538 1 18413108372802814937
559249 180 18335424603382802514
633830 44 18059300851101272698
7288768 16 17487902194112290480
9981440 41 17477485301346362344

> <PUBCHEM_SHAPE_MULTIPOLES>
519.31
14.34
3.75
1.07
2.53
1.79
-0.35
3.94
1.12
0.99
-1.23
0.09
-0.38
-2.17

> <PUBCHEM_SHAPE_SELFOVERLAP>
1134.972

> <PUBCHEM_SHAPE_VOLUME>
280.1

> <PUBCHEM_COORDINATE_TYPE>
2
5
10

$$$$

