13080
  -OEChem-06261207442D

 38 39  0     1  0  0  0  0  0999 V2000
    3.7320    0.6488    0.0000 O   0  0  0  0  0  0  0  0  0  0  0  0
    2.0000   -0.3512    0.0000 O   0  0  0  0  0  0  0  0  0  0  0  0
    5.4641    2.6488    0.0000 N   0  0  0  0  0  0  0  0  0  0  0  0
    6.3776    2.2420    0.0000 C   0  0  0  0  0  0  0  0  0  0  0  0
    5.5686    3.6433    0.0000 C   0  0  0  0  0  0  0  0  0  0  0  0
    7.0468    2.9852    0.0000 C   0  0  0  0  0  0  0  0  0  0  0  0
    6.5468    3.8512    0.0000 C   0  0  0  0  0  0  0  0  0  0  0  0
    4.5981    2.1488    0.0000 C   0  0  0  0  0  0  0  0  0  0  0  0
    4.5981    1.1488    0.0000 C   0  0  0  0  0  0  0  0  0  0  0  0
    3.7320   -0.3512    0.0000 C   0  0  0  0  0  0  0  0  0  0  0  0
    2.8660   -0.8512    0.0000 C   0  0  3  0  0  0  0  0  0  0  0  0
    2.8660   -1.8512    0.0000 C   0  0  0  0  0  0  0  0  0  0  0  0
    2.0000   -2.3512    0.0000 C   0  0  0  0  0  0  0  0  0  0  0  0
    3.7320   -2.3512    0.0000 C   0  0  0  0  0  0  0  0  0  0  0  0
    2.0000   -3.3512    0.0000 C   0  0  0  0  0  0  0  0  0  0  0  0
    3.7320   -3.3512    0.0000 C   0  0  0  0  0  0  0  0  0  0  0  0
    2.8660   -3.8512    0.0000 C   0  0  0  0  0  0  0  0  0  0  0  0
    6.0677    1.7051    0.0000 H   0  0  0  0  0  0  0  0  0  0  0  0
    6.8792    1.8776    0.0000 H   0  0  0  0  0  0  0  0  0  0  0  0
    5.5038    4.2599    0.0000 H   0  0  0  0  0  0  0  0  0  0  0  0
    4.9486    3.6433    0.0000 H   0  0  0  0  0  0  0  0  0  0  0  0
    7.4616    2.5244    0.0000 H   0  0  0  0  0  0  0  0  0  0  0  0
    7.5484    3.3496    0.0000 H   0  0  0  0  0  0  0  0  0  0  0  0
    7.1132    4.1034    0.0000 H   0  0  0  0  0  0  0  0  0  0  0  0
    6.3552    4.4409    0.0000 H   0  0  0  0  0  0  0  0  0  0  0  0
    4.3860    2.7314    0.0000 H   0  0  0  0  0  0  0  0  0  0  0  0
    3.9875    2.0411    0.0000 H   0  0  0  0  0  0  0  0  0  0  0  0
    4.8101    0.5662    0.0000 H   0  0  0  0  0  0  0  0  0  0  0  0
    5.2087    1.2564    0.0000 H   0  0  0  0  0  0  0  0  0  0  0  0
    3.9441   -0.9338    0.0000 H   0  0  0  0  0  0  0  0  0  0  0  0
    4.3426   -0.2436    0.0000 H   0  0  0  0  0  0  0  0  0  0  0  0
    2.8660   -0.2312    0.0000 H   0  0  0  0  0  0  0  0  0  0  0  0
    1.4631   -2.0412    0.0000 H   0  0  0  0  0  0  0  0  0  0  0  0
    4.2690   -2.0412    0.0000 H   0  0  0  0  0  0  0  0  0  0  0  0
    2.0000    0.2688    0.0000 H   0  0  0  0  0  0  0  0  0  0  0  0
    1.4631   -3.6612    0.0000 H   0  0  0  0  0  0  0  0  0  0  0  0
    4.2690   -3.6612    0.0000 H   0  0  0  0  0  0  0  0  0  0  0  0
    2.8660   -4.4712    0.0000 H   0  0  0  0  0  0  0  0  0  0  0  0
  1  9  1  0  0  0  0
  1 10  1  0  0  0  0
  2 11  1  0  0  0  0
  2 35  1  0  0  0  0
  3  4  1  0  0  0  0
  3  5  1  0  0  0  0
  3  8  1  0  0  0  0
  4  6  1  0  0  0  0
  4 18  1  0  0  0  0
  4 19  1  0  0  0  0
  5  7  1  0  0  0  0
  5 20  1  0  0  0  0
  5 21  1  0  0  0  0
  6  7  1  0  0  0  0
  6 22  1  0  0  0  0
  6 23  1  0  0  0  0
  7 24  1  0  0  0  0
  7 25  1  0  0  0  0
  8  9  1  0  0  0  0
  8 26  1  0  0  0  0
  8 27  1  0  0  0  0
  9 28  1  0  0  0  0
  9 29  1  0  0  0  0
 10 11  1  0  0  0  0
 10 30  1  0  0  0  0
 10 31  1  0  0  0  0
 11 12  1  0  0  0  0
 11 32  1  0  0  0  0
 12 13  2  0  0  0  0
 12 14  1  0  0  0  0
 13 15  1  0  0  0  0
 13 33  1  0  0  0  0
 14 16  2  0  0  0  0
 14 34  1  0  0  0  0
 15 17  2  0  0  0  0
 15 36  1  0  0  0  0
 16 17  1  0  0  0  0
 16 37  1  0  0  0  0
 17 38  1  0  0  0  0
M  END
> <PUBCHEM_COMPOUND_CID>
13080

> <PUBCHEM_COMPOUND_CANONICALIZED>
1

> <PUBCHEM_CACTVS_COMPLEXITY>
198

> <PUBCHEM_CACTVS_HBOND_ACCEPTOR>
3

> <PUBCHEM_CACTVS_HBOND_DONOR>
1

> <PUBCHEM_CACTVS_ROTATABLE_BOND>
6

> <PUBCHEM_CACTVS_SUBSKEYS>
AAADceByMAAAAAAAAAAAAAAAAAAAAWAAAAAwAAAAAAAAAAABAAAAHgAACAAADBThmAYwAIMABgCAAiBCAAACAAAgAAAIiAAICIgLNiKAkRCHcAAkwAGbmAeAwKAOAAAAAAAAAAAAAAAAAAAAAAAAAAAAAA==

> <PUBCHEM_IUPAC_OPENEYE_NAME>
1-phenyl-2-(2-pyrrolidin-1-ylethoxy)ethanol

> <PUBCHEM_IUPAC_CAS_NAME>
1-phenyl-2-[2-(1-pyrrolidinyl)ethoxy]ethanol

> <PUBCHEM_IUPAC_NAME>
1-phenyl-2-(2-pyrrolidin-1-ylethoxy)ethanol

> <PUBCHEM_IUPAC_SYSTEMATIC_NAME>
1-phenyl-2-(2-pyrrolidin-1-ylethoxy)ethanol

> <PUBCHEM_IUPAC_TRADITIONAL_NAME>
1-phenyl-2-(2-pyrrolidinoethoxy)ethanol

> <PUBCHEM_IUPAC_INCHI>
InChI=1S/C14H21NO2/c16-14(13-6-2-1-3-7-13)12-17-11-10-15-8-4-5-9-15/h1-3,6-7,14,16H,4-5,8-12H2

> <PUBCHEM_IUPAC_INCHIKEY>
GISQOONCPYNURT-UHFFFAOYSA-N

> <PUBCHEM_XLOGP3_AA>
1.4

> <PUBCHEM_EXACT_MASS>
235.157229

> <PUBCHEM_MOLECULAR_FORMULA>
C14H21NO2

> <PUBCHEM_MOLECULAR_WEIGHT>
235.32204

> <PUBCHEM_OPENEYE_CAN_SMILES>
C1CCN(C1)CCOCC(C2=CC=CC=C2)O

> <PUBCHEM_OPENEYE_ISO_SMILES>
C1CCN(C1)CCOCC(C2=CC=CC=C2)O

> <PUBCHEM_CACTVS_TPSA>
32.7

> <PUBCHEM_MONOISOTOPIC_WEIGHT>
235.157229

> <PUBCHEM_TOTAL_CHARGE>
0

> <PUBCHEM_HEAVY_ATOM_COUNT>
17

> <PUBCHEM_ATOM_DEF_STEREO_COUNT>
0

> <PUBCHEM_ATOM_UDEF_STEREO_COUNT>
1

> <PUBCHEM_BOND_DEF_STEREO_COUNT>
0

> <PUBCHEM_BOND_UDEF_STEREO_COUNT>
0

> <PUBCHEM_ISOTOPIC_ATOM_COUNT>
0

> <PUBCHEM_COMPONENT_COUNT>
1

> <PUBCHEM_CACTVS_TAUTO_COUNT>
1

> <PUBCHEM_COORDINATE_TYPE>
1
5
255

> <PUBCHEM_BONDANNOTATIONS>
12  13  8
12  14  8
13  15  8
14  16  8
15  17  8
16  17  8
11  2  3

$$$$

