46173965
  -OEChem-07051213103D

 54 57  0     1  0  0  0  0  0999 V2000
   -0.8949    0.9030    1.1987 O   0  0  0  0  0  0  0  0  0  0  0  0
   -1.5073   -1.5988   -1.4234 O   0  0  0  0  0  0  0  0  0  0  0  0
    0.9298    1.2121    2.6558 O   0  0  0  0  0  0  0  0  0  0  0  0
   -2.2903    2.5312   -0.5903 O   0  0  0  0  0  0  0  0  0  0  0  0
    0.2028    1.0218   -2.0359 O   0  0  0  0  0  0  0  0  0  0  0  0
    1.0394   -2.7153   -1.5015 O   0  0  0  0  0  0  0  0  0  0  0  0
   -1.1782    0.4210   -0.1356 C   0  0  1  0  0  0  0  0  0  0  0  0
   -1.2831   -1.1234   -0.0898 C   0  0  2  0  0  0  0  0  0  0  0  0
    0.0354   -1.7626    0.5050 C   0  0  2  0  0  0  0  0  0  0  0  0
    0.4845    0.5833    1.4601 C   0  0  2  0  0  0  0  0  0  0  0  0
    1.2155    1.0791    0.1852 C   0  0  2  0  0  0  0  0  0  0  0  0
    0.5273   -0.9346    1.7164 C   0  0  0  0  0  0  0  0  0  0  0  0
   -2.4340    1.1117   -0.6747 C   0  0  1  0  0  0  0  0  0  0  0  0
    0.0936    0.8673   -0.8254 C   0  0  0  0  0  0  0  0  0  0  0  0
   -2.5505   -1.4935    0.7274 C   0  0  0  0  0  0  0  0  0  0  0  0
   -3.6841    0.7097    0.1281 C   0  0  2  0  0  0  0  0  0  0  0  0
   -3.8191   -0.8151    0.1966 C   0  0  0  0  0  0  0  0  0  0  0  0
    2.4250    0.2382   -0.1938 C   0  0  0  0  0  0  0  0  0  0  0  0
    1.1306   -1.8877   -0.5901 C   0  0  0  0  0  0  0  0  0  0  0  0
   -0.1745   -3.2176    0.9935 C   0  0  0  0  0  0  0  0  0  0  0  0
    1.4580    2.6028    0.1783 C   0  0  0  0  0  0  0  0  0  0  0  0
    2.3645   -1.0583   -0.5498 C   0  0  0  0  0  0  0  0  0  0  0  0
    3.7803    0.9010   -0.1654 C   0  0  0  0  0  0  0  0  0  0  0  0
   -4.9530    1.3278   -0.4661 C   0  0  0  0  0  0  0  0  0  0  0  0
    4.6762    0.2063    0.8500 C   0  0  0  0  0  0  0  0  0  0  0  0
    4.4062    0.8907   -1.5536 C   0  0  0  0  0  0  0  0  0  0  0  0
    1.5305   -1.2445    2.0384 H   0  0  0  0  0  0  0  0  0  0  0  0
   -0.1240   -1.1511    2.5758 H   0  0  0  0  0  0  0  0  0  0  0  0
   -2.5647    0.8602   -1.7349 H   0  0  0  0  0  0  0  0  0  0  0  0
   -2.7295   -2.5740    0.6759 H   0  0  0  0  0  0  0  0  0  0  0  0
   -2.4206   -1.2320    1.7841 H   0  0  0  0  0  0  0  0  0  0  0  0
   -3.5909    1.1000    1.1508 H   0  0  0  0  0  0  0  0  0  0  0  0
   -4.6616   -1.0831    0.8460 H   0  0  0  0  0  0  0  0  0  0  0  0
   -4.0560   -1.2132   -0.7984 H   0  0  0  0  0  0  0  0  0  0  0  0
   -0.6207   -3.8418    0.2108 H   0  0  0  0  0  0  0  0  0  0  0  0
    0.7804   -3.6798    1.2725 H   0  0  0  0  0  0  0  0  0  0  0  0
   -0.8245   -3.2668    1.8735 H   0  0  0  0  0  0  0  0  0  0  0  0
    0.5139    3.1526    0.2824 H   0  0  0  0  0  0  0  0  0  0  0  0
    1.9069    2.9413   -0.7631 H   0  0  0  0  0  0  0  0  0  0  0  0
    2.0930    2.9217    1.0118 H   0  0  0  0  0  0  0  0  0  0  0  0
    3.2537   -1.5986   -0.8626 H   0  0  0  0  0  0  0  0  0  0  0  0
   -0.8280   -1.2246   -2.0083 H   0  0  0  0  0  0  0  0  0  0  0  0
    0.6415    0.6844    3.4187 H   0  0  0  0  0  0  0  0  0  0  0  0
    3.7348    1.9436    0.1494 H   0  0  0  0  0  0  0  0  0  0  0  0
   -5.8397    0.9903    0.0817 H   0  0  0  0  0  0  0  0  0  0  0  0
   -4.9324    2.4204   -0.4063 H   0  0  0  0  0  0  0  0  0  0  0  0
   -5.0783    1.0449   -1.5167 H   0  0  0  0  0  0  0  0  0  0  0  0
   -2.9499    2.9322   -1.1807 H   0  0  0  0  0  0  0  0  0  0  0  0
    3.7403    1.3521   -2.2918 H   0  0  0  0  0  0  0  0  0  0  0  0
    5.3390    1.4664   -1.5511 H   0  0  0  0  0  0  0  0  0  0  0  0
    4.6561   -0.1167   -1.9031 H   0  0  0  0  0  0  0  0  0  0  0  0
    5.6245    0.7471    0.9503 H   0  0  0  0  0  0  0  0  0  0  0  0
    4.2084    0.1823    1.8410 H   0  0  0  0  0  0  0  0  0  0  0  0
    4.9257   -0.8220    0.5670 H   0  0  0  0  0  0  0  0  0  0  0  0
  1  7  1  0  0  0  0
  1 10  1  0  0  0  0
  2  8  1  0  0  0  0
  2 42  1  0  0  0  0
  3 10  1  0  0  0  0
  3 43  1  0  0  0  0
  4 13  1  0  0  0  0
  4 48  1  0  0  0  0
  5 14  2  0  0  0  0
  6 19  2  0  0  0  0
  7  8  1  0  0  0  0
  7 13  1  0  0  0  0
  7 14  1  0  0  0  0
  8  9  1  0  0  0  0
  8 15  1  0  0  0  0
  9 12  1  0  0  0  0
  9 19  1  0  0  0  0
  9 20  1  0  0  0  0
 10 11  1  0  0  0  0
 10 12  1  0  0  0  0
 11 14  1  0  0  0  0
 11 18  1  0  0  0  0
 11 21  1  0  0  0  0
 12 27  1  0  0  0  0
 12 28  1  0  0  0  0
 13 16  1  0  0  0  0
 13 29  1  0  0  0  0
 15 17  1  0  0  0  0
 15 30  1  0  0  0  0
 15 31  1  0  0  0  0
 16 17  1  0  0  0  0
 16 24  1  0  0  0  0
 16 32  1  0  0  0  0
 17 33  1  0  0  0  0
 17 34  1  0  0  0  0
 18 22  2  0  0  0  0
 18 23  1  0  0  0  0
 19 22  1  0  0  0  0
 20 35  1  0  0  0  0
 20 36  1  0  0  0  0
 20 37  1  0  0  0  0
 21 38  1  0  0  0  0
 21 39  1  0  0  0  0
 21 40  1  0  0  0  0
 22 41  1  0  0  0  0
 23 25  1  0  0  0  0
 23 26  1  0  0  0  0
 23 44  1  0  0  0  0
 24 45  1  0  0  0  0
 24 46  1  0  0  0  0
 24 47  1  0  0  0  0
 25 52  1  0  0  0  0
 25 53  1  0  0  0  0
 25 54  1  0  0  0  0
 26 49  1  0  0  0  0
 26 50  1  0  0  0  0
 26 51  1  0  0  0  0
M  END
> <PUBCHEM_COMPOUND_CID>
46173965

> <PUBCHEM_CONFORMER_RMSD>
0.6

> <PUBCHEM_CONFORMER_DIVERSEORDER>
1

> <PUBCHEM_MMFF94_PARTIAL_CHARGES>
21
1 -0.56
10 0.56
11 0.2
13 0.28
14 0.45
18 -0.28
19 0.49
2 -0.68
22 -0.14
23 0.14
3 -0.68
4 -0.68
41 0.15
42 0.4
43 0.4
48 0.4
5 -0.57
6 -0.57
7 0.34
8 0.28
9 0.06

> <PUBCHEM_EFFECTIVE_ROTOR_COUNT>
2.2

> <PUBCHEM_PHARMACOPHORE_FEATURES>
13
1 1 acceptor
1 2 acceptor
1 2 donor
1 3 acceptor
1 3 donor
1 4 acceptor
1 4 donor
1 5 acceptor
1 6 acceptor
3 23 25 26 hydrophobe
6 7 8 13 15 16 17 rings
7 9 10 11 12 18 19 22 rings
8 1 7 8 9 10 11 12 14 rings

> <PUBCHEM_HEAVY_ATOM_COUNT>
26

> <PUBCHEM_ATOM_DEF_STEREO_COUNT>
6

> <PUBCHEM_ATOM_UDEF_STEREO_COUNT>
1

> <PUBCHEM_BOND_DEF_STEREO_COUNT>
0

> <PUBCHEM_BOND_UDEF_STEREO_COUNT>
0

> <PUBCHEM_ISOTOPIC_ATOM_COUNT>
0

> <PUBCHEM_COMPONENT_COUNT>
1

> <PUBCHEM_CACTVS_TAUTO_COUNT>
3

> <PUBCHEM_CONFORMER_ID>
02C08F0D00000001

> <PUBCHEM_MMFF94_ENERGY>
97.8921

> <PUBCHEM_FEATURE_SELFOVERLAP>
67.439

> <PUBCHEM_SHAPE_FINGERPRINT>
10863032 1 18343298201679836838
10948715 1 18273213118627611316
10967382 1 18340769359448521813
11315181 36 18040702647073725788
11370993 70 18410295804451696828
11578080 2 15767825357674709975
12011746 2 18336537257836701644
12403814 3 17988649570746876500
12422481 6 17771931560120916976
12423570 1 6282192051995492056
12592029 89 18272651289776764178
13140716 1 18194397780033154811
14251745 187 18411140233845549243
144361 1 18411138051960159803
14790565 3 18342731949013363253
1601671 61 18413108376654793821
16945 1 18336256877623113318
20691752 17 18126869113002731935
20905425 154 18265615566199301287
22344851 341 18268428116906495299
23227448 37 18195523688778209084
23402539 116 18273221871797308452
23419403 2 16537138349277091226
23493267 7 18059859415818997931
23559900 14 18041273289044490232
23566358 2 18119246405267474013
238 59 18121250737892706613
25 1 18408603677499633527
2748010 2 18265880518600594734
296302 2 18413382137933258669
298252 57 18273213097237236224
3323516 105 18334006211670199374
350125 39 18190738640181282347
4340502 62 18412262878388708049
5845 1 16823365994889785711
81228 2 17471599640976561051

> <PUBCHEM_SHAPE_MULTIPOLES>
499.85
6.69
2.73
1.6
0.19
1.12
0.36
-2.9
-1.02
0.51
-0.17
-0.74
0
0.35

> <PUBCHEM_SHAPE_SELFOVERLAP>
1099.065

> <PUBCHEM_SHAPE_VOLUME>
268.1

> <PUBCHEM_COORDINATE_TYPE>
2
5
10

$$$$

