11954125
  -OEChem-07051213073D

 22 24  0     0  0  0  0  0  0999 V2000
   -2.5329   -2.9966    0.0000 Cl  0  0  0  0  0  0  0  0  0  0  0  0
    3.0385   -2.3014   -0.0001 Cl  0  0  0  0  0  0  0  0  0  0  0  0
    5.0384    0.2567   -0.0011 Cl  0  0  0  0  0  0  0  0  0  0  0  0
    0.1164   -1.3583    0.0004 O   0  0  0  0  0  0  0  0  0  0  0  0
   -4.3631    1.7632   -0.0002 O   0  0  0  0  0  0  0  0  0  0  0  0
   -0.8646    0.6794    0.0003 C   0  0  0  0  0  0  0  0  0  0  0  0
    0.5495    0.8613    0.0007 C   0  0  0  0  0  0  0  0  0  0  0  0
   -1.0739   -0.6962    0.0004 C   0  0  0  0  0  0  0  0  0  0  0  0
    1.1003   -0.4164    0.0004 C   0  0  0  0  0  0  0  0  0  0  0  0
   -1.9876    1.5270   -0.0007 C   0  0  0  0  0  0  0  0  0  0  0  0
    1.4215    1.9655    0.0009 C   0  0  0  0  0  0  0  0  0  0  0  0
   -2.3324   -1.2953   -0.0001 C   0  0  0  0  0  0  0  0  0  0  0  0
    2.4695   -0.6777    0.0000 C   0  0  0  0  0  0  0  0  0  0  0  0
   -3.2662    0.9532   -0.0006 C   0  0  0  0  0  0  0  0  0  0  0  0
    2.8037    1.7342    0.0003 C   0  0  0  0  0  0  0  0  0  0  0  0
   -3.4329   -0.4334   -0.0001 C   0  0  0  0  0  0  0  0  0  0  0  0
    3.3160    0.4347   -0.0004 C   0  0  0  0  0  0  0  0  0  0  0  0
   -1.8683    2.6067   -0.0010 H   0  0  0  0  0  0  0  0  0  0  0  0
    1.0389    2.9818    0.0010 H   0  0  0  0  0  0  0  0  0  0  0  0
    3.4719    2.5929    0.0002 H   0  0  0  0  0  0  0  0  0  0  0  0
   -4.4379   -0.8520    0.0000 H   0  0  0  0  0  0  0  0  0  0  0  0
   -5.1640    1.2114   -0.0001 H   0  0  0  0  0  0  0  0  0  0  0  0
  1 12  1  0  0  0  0
  2 13  1  0  0  0  0
  3 17  1  0  0  0  0
  4  8  1  0  0  0  0
  4  9  1  0  0  0  0
  5 14  1  0  0  0  0
  5 22  1  0  0  0  0
  6  7  1  0  0  0  0
  6  8  2  0  0  0  0
  6 10  1  0  0  0  0
  7  9  2  0  0  0  0
  7 11  1  0  0  0  0
  8 12  1  0  0  0  0
  9 13  1  0  0  0  0
 10 14  2  0  0  0  0
 10 18  1  0  0  0  0
 11 15  2  0  0  0  0
 11 19  1  0  0  0  0
 12 16  2  0  0  0  0
 13 17  2  0  0  0  0
 14 16  1  0  0  0  0
 15 17  1  0  0  0  0
 15 20  1  0  0  0  0
 16 21  1  0  0  0  0
M  END
> <PUBCHEM_COMPOUND_CID>
11954125

> <PUBCHEM_CONFORMER_RMSD>
0.4

> <PUBCHEM_CONFORMER_DIVERSEORDER>
1

> <PUBCHEM_MMFF94_PARTIAL_CHARGES>
20
1 -0.18
10 -0.15
11 -0.15
12 0.18
13 0.18
14 0.08
15 -0.15
16 -0.15
17 0.18
18 0.15
19 0.15
2 -0.18
20 0.15
21 0.15
22 0.45
3 -0.18
4 -0.28
5 -0.53
8 0.14
9 0.14

> <PUBCHEM_EFFECTIVE_ROTOR_COUNT>
0

> <PUBCHEM_PHARMACOPHORE_FEATURES>
5
1 4 acceptor
1 5 donor
5 4 6 7 8 9 rings
6 6 8 10 12 14 16 rings
6 7 9 11 13 15 17 rings

> <PUBCHEM_HEAVY_ATOM_COUNT>
17

> <PUBCHEM_ATOM_DEF_STEREO_COUNT>
0

> <PUBCHEM_ATOM_UDEF_STEREO_COUNT>
0

> <PUBCHEM_BOND_DEF_STEREO_COUNT>
0

> <PUBCHEM_BOND_UDEF_STEREO_COUNT>
0

> <PUBCHEM_ISOTOPIC_ATOM_COUNT>
0

> <PUBCHEM_COMPONENT_COUNT>
1

> <PUBCHEM_CACTVS_TAUTO_COUNT>
3

> <PUBCHEM_CONFORMER_ID>
00B667CD00000001

> <PUBCHEM_MMFF94_ENERGY>
33.3391

> <PUBCHEM_FEATURE_SELFOVERLAP>
25.573

> <PUBCHEM_SHAPE_FINGERPRINT>
10062212 137 18340214011666511178
10608611 8 18409732820175778649
10616163 171 18337389340266851814
10967382 1 18410855503083116006
11132069 177 18411140238145927608
11471102 20 18338520849374180508
11578080 2 17097228138116089755
12251169 10 18411135835677757673
12500047 106 18410579487226239829
13140716 1 18410860949128027984
13380535 21 18411694370330835221
13380535 76 18335702771313270735
13760787 19 18272086102382770982
14144814 61 18410575093274164640
14178342 30 18339378361322689402
14790565 3 18049995890032606968
14965852 173 18410576149915286063
15196674 1 18410856598294521222
15219456 202 18409163328949923983
15420108 30 15228477748282763248
15442244 35 18337954618186901914
15536298 74 18334858359442159278
16945 1 18410855438669175557
17492 89 18410856533876345466
17804303 29 18409727344208429836
18186145 218 18271247217501495709
19591789 44 17907014337035617269
200 152 17895198783262310541
20510252 161 18333446565105902113
20645477 56 18413671327024894597
20645477 70 18263083369393163646
21267235 1 18339071605878654979
21421861 104 17773043170850978970
21501502 16 18340207397047389262
221490 88 18267579109678508738
2334 1 18338516326736512515
23402539 116 18260838106561913836
23402655 69 18262525900240128533
23463225 33 18411701014940667236
23557571 272 18187919543347843350
23558518 356 17986388880287494073
23559900 14 18334577971371593458
2748010 2 18410009892768377757
2871803 45 18195816163023947711
3312278 4 18335980895999102274
335352 9 18266459995376759031
34934 24 18410579508917334650
350125 39 18267017267578820841
3545911 37 18409446994412768032
4214541 1 18410575076073170304
5104073 3 18410575089026631954
53812653 166 18408045108887861304
69090 78 18410578409516366269
7364860 26 18335702784388219438
74978 22 18410573993889208723
7832392 63 18410295800246510660
8809292 202 18271241603963662466
9709674 26 18408600348958573238

> <PUBCHEM_SHAPE_MULTIPOLES>
343.72
7.83
2.62
0.61
2.33
1.26
0
-0.6
0
-1.03
0
0.04
0.02
0

> <PUBCHEM_SHAPE_SELFOVERLAP>
748.258

> <PUBCHEM_SHAPE_VOLUME>
191.9

> <PUBCHEM_COORDINATE_TYPE>
2
5
10

$$$$

