9140
  -OEChem-06261203273D

 36 40  0     0  0  0  0  0  0999 V2000
    0.5678    0.0294   -0.0707 C   0  0  0  0  0  0  0  0  0  0  0  0
   -0.1327   -1.2034   -0.1765 C   0  0  0  0  0  0  0  0  0  0  0  0
   -0.2301    1.2378   -0.1240 C   0  0  0  0  0  0  0  0  0  0  0  0
   -1.5613   -1.2626   -0.0344 C   0  0  0  0  0  0  0  0  0  0  0  0
   -1.6432    1.1918    0.0351 C   0  0  0  0  0  0  0  0  0  0  0  0
   -2.3083   -0.0687    0.1203 C   0  0  0  0  0  0  0  0  0  0  0  0
    2.0308   -0.0294    0.0786 C   0  0  0  0  0  0  0  0  0  0  0  0
    2.7268   -1.2343   -0.1864 C   0  0  0  0  0  0  0  0  0  0  0  0
    0.6259   -2.3706   -0.4228 C   0  0  0  0  0  0  0  0  0  0  0  0
    2.0131   -2.3811   -0.4785 C   0  0  0  0  0  0  0  0  0  0  0  0
    0.3278    2.5141   -0.4123 C   0  0  0  0  0  0  0  0  0  0  0  0
   -2.2837   -2.4921   -0.0075 C   0  0  0  0  0  0  0  0  0  0  0  0
   -2.3548    2.4258    0.0694 C   0  0  0  0  0  0  0  0  0  0  0  0
   -3.7159   -0.1853    0.3110 C   0  0  0  0  0  0  0  0  0  0  0  0
    2.8560    1.0289    0.5506 C   0  0  0  0  0  0  0  0  0  0  0  0
    4.1305   -1.3140   -0.1271 C   0  0  0  0  0  0  0  0  0  0  0  0
   -0.3997    3.7032   -0.4000 C   0  0  0  0  0  0  0  0  0  0  0  0
   -1.7462    3.6614   -0.1274 C   0  0  0  0  0  0  0  0  0  0  0  0
   -3.6636   -2.5676    0.1722 C   0  0  0  0  0  0  0  0  0  0  0  0
   -4.3837   -1.4072    0.3378 C   0  0  0  0  0  0  0  0  0  0  0  0
    4.2516    0.9464    0.6282 C   0  0  0  0  0  0  0  0  0  0  0  0
    4.8929   -0.2225    0.2644 C   0  0  0  0  0  0  0  0  0  0  0  0
    0.1521   -3.3328   -0.5978 H   0  0  0  0  0  0  0  0  0  0  0  0
    2.5177   -3.3224   -0.6868 H   0  0  0  0  0  0  0  0  0  0  0  0
    1.3659    2.6138   -0.7177 H   0  0  0  0  0  0  0  0  0  0  0  0
   -1.7791   -3.4495   -0.1061 H   0  0  0  0  0  0  0  0  0  0  0  0
   -3.4297    2.4587    0.2246 H   0  0  0  0  0  0  0  0  0  0  0  0
   -4.3453    0.6904    0.4448 H   0  0  0  0  0  0  0  0  0  0  0  0
    2.4202    1.9495    0.9297 H   0  0  0  0  0  0  0  0  0  0  0  0
    4.6435   -2.2451   -0.3623 H   0  0  0  0  0  0  0  0  0  0  0  0
    0.0911    4.6469   -0.6159 H   0  0  0  0  0  0  0  0  0  0  0  0
   -2.3352    4.5726   -0.1077 H   0  0  0  0  0  0  0  0  0  0  0  0
   -4.1607   -3.5325    0.1904 H   0  0  0  0  0  0  0  0  0  0  0  0
   -5.4585   -1.4407    0.4849 H   0  0  0  0  0  0  0  0  0  0  0  0
    4.8252    1.7956    0.9877 H   0  0  0  0  0  0  0  0  0  0  0  0
    5.9740   -0.2986    0.3199 H   0  0  0  0  0  0  0  0  0  0  0  0
  1  2  2  0  0  0  0
  1  3  1  0  0  0  0
  1  7  1  0  0  0  0
  2  4  1  0  0  0  0
  2  9  1  0  0  0  0
  3  5  1  0  0  0  0
  3 11  2  0  0  0  0
  4  6  1  0  0  0  0
  4 12  2  0  0  0  0
  5  6  1  0  0  0  0
  5 13  2  0  0  0  0
  6 14  2  0  0  0  0
  7  8  1  0  0  0  0
  7 15  2  0  0  0  0
  8 10  1  0  0  0  0
  8 16  2  0  0  0  0
  9 10  2  0  0  0  0
  9 23  1  0  0  0  0
 10 24  1  0  0  0  0
 11 17  1  0  0  0  0
 11 25  1  0  0  0  0
 12 19  1  0  0  0  0
 12 26  1  0  0  0  0
 13 18  1  0  0  0  0
 13 27  1  0  0  0  0
 14 20  1  0  0  0  0
 14 28  1  0  0  0  0
 15 21  1  0  0  0  0
 15 29  1  0  0  0  0
 16 22  1  0  0  0  0
 16 30  1  0  0  0  0
 17 18  2  0  0  0  0
 17 31  1  0  0  0  0
 18 32  1  0  0  0  0
 19 20  2  0  0  0  0
 19 33  1  0  0  0  0
 20 34  1  0  0  0  0
 21 22  2  0  0  0  0
 21 35  1  0  0  0  0
 22 36  1  0  0  0  0
M  END
> <PUBCHEM_COMPOUND_CID>
9140

> <PUBCHEM_CONFORMER_RMSD>
0.6

> <PUBCHEM_CONFORMER_DIVERSEORDER>
1

> <PUBCHEM_MMFF94_PARTIAL_CHARGES>
28
10 -0.15
11 -0.15
12 -0.15
13 -0.15
14 -0.15
15 -0.15
16 -0.15
17 -0.15
18 -0.15
19 -0.15
20 -0.15
21 -0.15
22 -0.15
23 0.15
24 0.15
25 0.15
26 0.15
27 0.15
28 0.15
29 0.15
30 0.15
31 0.15
32 0.15
33 0.15
34 0.15
35 0.15
36 0.15
9 -0.15

> <PUBCHEM_EFFECTIVE_ROTOR_COUNT>
0

> <PUBCHEM_PHARMACOPHORE_FEATURES>
5
6 1 2 3 4 5 6 rings
6 1 2 7 8 9 10 rings
6 3 5 11 13 17 18 rings
6 4 6 12 14 19 20 rings
6 7 8 15 16 21 22 rings

> <PUBCHEM_HEAVY_ATOM_COUNT>
22

> <PUBCHEM_ATOM_DEF_STEREO_COUNT>
0

> <PUBCHEM_ATOM_UDEF_STEREO_COUNT>
0

> <PUBCHEM_BOND_DEF_STEREO_COUNT>
0

> <PUBCHEM_BOND_UDEF_STEREO_COUNT>
0

> <PUBCHEM_ISOTOPIC_ATOM_COUNT>
0

> <PUBCHEM_COMPONENT_COUNT>
1

> <PUBCHEM_CACTVS_TAUTO_COUNT>
1

> <PUBCHEM_CONFORMER_ID>
000023B400000001

> <PUBCHEM_MMFF94_ENERGY>
104.2975

> <PUBCHEM_FEATURE_SELFOVERLAP>
25.459

> <PUBCHEM_SHAPE_FINGERPRINT>
10006869 2 18125163990392306363
10319926 262 18193296285138615866
10411042 1 18339359639434320735
10608611 8 18264490774752547996
10616163 171 18338516443017173134
10670039 82 18341879798238237556
10906281 52 18268973350573085369
10967382 1 18122342372101931717
1100329 8 17402330369941174996
11115154 58 17678204675803175437
11578080 2 5254200469278852955
11595378 159 18199493037787296264
12107183 9 17623018206676528706
12173636 292 17979635959159074109
12293681 4 18129934590197295923
12403259 226 18335143102883564722
12553582 1 18267565962751980183
12623949 98 17531791498574868862
12730499 353 17045138057655200005
12788726 201 18272373087538694562
13004483 165 18339655506967597299
13140716 1 18193832640042025409
133893 2 16198430218922922476
138480 1 15600893362102830621
14081887 123 18337958986100070304
14178342 30 18269847569870678442
14223421 5 18336263560766429182
14787075 74 17987516996719383546
14790565 3 17403732251203360869
15042514 8 18340205301108662632
15196674 1 18409166593230791330
16087824 20 18339641261452723933
16945 1 18338794627748228815
17357779 13 18337972116063118245
17492 89 18340770467661770218
18785283 64 17766828443357443035
19591789 44 18265615377400107588
20510252 161 18335421330374590737
20739085 24 18053644911896188745
20905425 154 18336262456965193438
21029758 11 18411424969034779367
21267235 1 18338507552219203211
22182313 1 18335134349234066911
2334 1 18410011009528524390
23366157 5 17554612794569703669
23402539 116 18336554841048170055
23557571 272 18334848459436891414
23558518 356 18199742720830518786
23559900 14 17829894583623216502
238 59 16329376899730393309
23845131 108 17545308040493029441
2748010 2 18194674002634172869
3091708 16 9279081529671252145
335352 9 18411418389397992327
34934 24 18411425024901392363
350125 39 18408602544467245360
3524813 1 18041569057112952992
352729 6 17905891735906309597
5104073 3 18335708303595197602
7097593 13 17410510083595779170
7364860 26 17906732501603601969
81228 2 18200300134676707537
9709674 26 18118686753822523246
9777508 108 18193279817168463513

> <PUBCHEM_SHAPE_MULTIPOLES>
452.75
7.64
4.1
0.7
4.06
2.98
0.01
-3.36
1.38
-2.72
-0.57
0.12
0.02
0.57

> <PUBCHEM_SHAPE_SELFOVERLAP>
1049.508

> <PUBCHEM_SHAPE_VOLUME>
210.2

> <PUBCHEM_COORDINATE_TYPE>
2
5
10

$$$$

