13599
  -OEChem-06241222392D

 10 10  0     0  0  0  0  0  0999 V2000
    4.0823    1.6307    0.0000 S   0  0  0  0  0  0  0  0  0  0  0  0
    2.0000   -0.6126    0.0000 O   0  5  0  0  0  0  0  0  0  0  0  0
    3.4013   -1.6307    0.0000 O   0  0  0  0  0  0  0  0  0  0  0  0
    2.9945   -0.7172    0.0000 N   0  3  0  0  0  0  0  0  0  0  0  0
    4.8913    1.0429    0.0000 N   0  0  0  0  0  0  0  0  0  0  0  0
    3.5823    0.0919    0.0000 C   0  0  0  0  0  0  0  0  0  0  0  0
    3.2733    1.0429    0.0000 C   0  0  0  0  0  0  0  0  0  0  0  0
    4.5823    0.0919    0.0000 C   0  0  0  0  0  0  0  0  0  0  0  0
    2.6836    1.2345    0.0000 H   0  0  0  0  0  0  0  0  0  0  0  0
    4.9467   -0.4097    0.0000 H   0  0  0  0  0  0  0  0  0  0  0  0
  1  5  1  0  0  0  0
  1  7  1  0  0  0  0
  2  4  1  0  0  0  0
  3  4  2  0  0  0  0
  4  6  1  0  0  0  0
  5  8  2  0  0  0  0
  6  7  2  0  0  0  0
  6  8  1  0  0  0  0
  7  9  1  0  0  0  0
  8 10  1  0  0  0  0
M  CHG  2   2  -1   4   1
M  END
> <PUBCHEM_COMPOUND_CID>
13599

> <PUBCHEM_COMPOUND_CANONICALIZED>
1

> <PUBCHEM_CACTVS_COMPLEXITY>
102

> <PUBCHEM_CACTVS_HBOND_ACCEPTOR>
4

> <PUBCHEM_CACTVS_HBOND_DONOR>
0

> <PUBCHEM_CACTVS_ROTATABLE_BOND>
0

> <PUBCHEM_CACTVS_SUBSKEYS>
AAADcQBDMABAAAAAAAAAAAAAAAAAAWAAAAAAAAAAAAAAAAABgAAAHAQEQAAACAjFUgSswZAQQAClABRnQwCBABAAEgAgEDQgdBIAQIAAAQAAAAQAAIAAAAAAAAAAAAAAAAAAAAAAAAAAAAAAAAAAAAAAAA==

> <PUBCHEM_IUPAC_OPENEYE_NAME>
4-nitroisothiazole

> <PUBCHEM_IUPAC_CAS_NAME>
4-nitroisothiazole

> <PUBCHEM_IUPAC_NAME>
4-nitro-1,2-thiazole

> <PUBCHEM_IUPAC_SYSTEMATIC_NAME>
4-nitro-1,2-thiazole

> <PUBCHEM_IUPAC_TRADITIONAL_NAME>
4-nitroisothiazole

> <PUBCHEM_IUPAC_INCHI>
InChI=1S/C3H2N2O2S/c6-5(7)3-1-4-8-2-3/h1-2H

> <PUBCHEM_IUPAC_INCHIKEY>
FNXPAYVHLSTHQY-UHFFFAOYSA-N

> <PUBCHEM_XLOGP3_AA>
0.8

> <PUBCHEM_EXACT_MASS>
129.983698

> <PUBCHEM_MOLECULAR_FORMULA>
C3H2N2O2S

> <PUBCHEM_MOLECULAR_WEIGHT>
130.12518

> <PUBCHEM_OPENEYE_CAN_SMILES>
C1=C(C=NS1)[N+](=O)[O-]

> <PUBCHEM_OPENEYE_ISO_SMILES>
C1=C(C=NS1)[N+](=O)[O-]

> <PUBCHEM_CACTVS_TPSA>
87

> <PUBCHEM_MONOISOTOPIC_WEIGHT>
129.983698

> <PUBCHEM_TOTAL_CHARGE>
0

> <PUBCHEM_HEAVY_ATOM_COUNT>
8

> <PUBCHEM_ATOM_DEF_STEREO_COUNT>
0

> <PUBCHEM_ATOM_UDEF_STEREO_COUNT>
0

> <PUBCHEM_BOND_DEF_STEREO_COUNT>
0

> <PUBCHEM_BOND_UDEF_STEREO_COUNT>
0

> <PUBCHEM_ISOTOPIC_ATOM_COUNT>
0

> <PUBCHEM_COMPONENT_COUNT>
1

> <PUBCHEM_CACTVS_TAUTO_COUNT>
1

> <PUBCHEM_COORDINATE_TYPE>
1
5
255

> <PUBCHEM_BONDANNOTATIONS>
1  5  8
1  7  8
5  8  8
6  7  8
6  8  8

$$$$

