11149
  -OEChem-06261205203D

 21 21  0     0  0  0  0  0  0999 V2000
    2.4651    1.4009    0.0022 O   0  0  0  0  0  0  0  0  0  0  0  0
    1.1914   -0.5825   -0.0004 N   0  0  0  0  0  0  0  0  0  0  0  0
   -0.9797   -2.4169    0.0015 N   0  0  0  0  0  0  0  0  0  0  0  0
   -0.1298   -0.1264    0.0000 C   0  0  0  0  0  0  0  0  0  0  0  0
   -1.1997   -1.0213   -0.0001 C   0  0  0  0  0  0  0  0  0  0  0  0
   -0.3699    1.2476   -0.0001 C   0  0  0  0  0  0  0  0  0  0  0  0
   -2.5097   -0.5423   -0.0004 C   0  0  0  0  0  0  0  0  0  0  0  0
   -1.6800    1.7268   -0.0002 C   0  0  0  0  0  0  0  0  0  0  0  0
   -2.7498    0.8318   -0.0004 C   0  0  0  0  0  0  0  0  0  0  0  0
    2.3665    0.1780   -0.0008 C   0  0  0  0  0  0  0  0  0  0  0  0
    3.5957   -0.6957   -0.0012 C   0  0  0  0  0  0  0  0  0  0  0  0
    0.3982    2.0072   -0.0003 H   0  0  0  0  0  0  0  0  0  0  0  0
    1.3158   -1.5899   -0.0007 H   0  0  0  0  0  0  0  0  0  0  0  0
   -3.3530   -1.2283   -0.0003 H   0  0  0  0  0  0  0  0  0  0  0  0
   -1.8686    2.7965   -0.0001 H   0  0  0  0  0  0  0  0  0  0  0  0
   -3.7698    1.2050   -0.0006 H   0  0  0  0  0  0  0  0  0  0  0  0
   -1.7744   -3.0435   -0.0003 H   0  0  0  0  0  0  0  0  0  0  0  0
   -0.0500   -2.8082   -0.0012 H   0  0  0  0  0  0  0  0  0  0  0  0
    3.6126   -1.3103    0.9033 H   0  0  0  0  0  0  0  0  0  0  0  0
    4.4937   -0.0721   -0.0240 H   0  0  0  0  0  0  0  0  0  0  0  0
    3.5913   -1.3425   -0.8830 H   0  0  0  0  0  0  0  0  0  0  0  0
  1 10  2  0  0  0  0
  2  4  1  0  0  0  0
  2 10  1  0  0  0  0
  2 13  1  0  0  0  0
  3  5  1  0  0  0  0
  3 17  1  0  0  0  0
  3 18  1  0  0  0  0
  4  5  1  0  0  0  0
  4  6  2  0  0  0  0
  5  7  2  0  0  0  0
  6  8  1  0  0  0  0
  6 12  1  0  0  0  0
  7  9  1  0  0  0  0
  7 14  1  0  0  0  0
  8  9  2  0  0  0  0
  8 15  1  0  0  0  0
  9 16  1  0  0  0  0
 10 11  1  0  0  0  0
 11 19  1  0  0  0  0
 11 20  1  0  0  0  0
 11 21  1  0  0  0  0
M  END
> <PUBCHEM_COMPOUND_CID>
11149

> <PUBCHEM_CONFORMER_RMSD>
0.4

> <PUBCHEM_CONFORMER_DIVERSEORDER>
1
2
3

> <PUBCHEM_MMFF94_PARTIAL_CHARGES>
18
1 -0.57
10 0.57
11 0.06
12 0.15
13 0.37
14 0.15
15 0.15
16 0.15
17 0.4
18 0.4
2 -0.55
3 -0.9
4 0.12
5 0.1
6 -0.15
7 -0.15
8 -0.15
9 -0.15

> <PUBCHEM_EFFECTIVE_ROTOR_COUNT>
2

> <PUBCHEM_PHARMACOPHORE_FEATURES>
5
1 1 acceptor
1 2 donor
1 3 cation
1 3 donor
6 4 5 6 7 8 9 rings

> <PUBCHEM_HEAVY_ATOM_COUNT>
11

> <PUBCHEM_ATOM_DEF_STEREO_COUNT>
0

> <PUBCHEM_ATOM_UDEF_STEREO_COUNT>
0

> <PUBCHEM_BOND_DEF_STEREO_COUNT>
0

> <PUBCHEM_BOND_UDEF_STEREO_COUNT>
0

> <PUBCHEM_ISOTOPIC_ATOM_COUNT>
0

> <PUBCHEM_COMPONENT_COUNT>
1

> <PUBCHEM_CACTVS_TAUTO_COUNT>
2

> <PUBCHEM_CONFORMER_ID>
00002B8D00000001

> <PUBCHEM_MMFF94_ENERGY>
42.3418

> <PUBCHEM_FEATURE_SELFOVERLAP>
25.374

> <PUBCHEM_SHAPE_FINGERPRINT>
12716758 59 18409453578550043330
12932764 1 17489879245195058588
13024252 1 14692568832021934981
13380535 76 18336267945733028574
14144814 61 18340488962645733170
14325111 11 18410574011063926564
15775835 57 18129377262371583280
16945 1 18410856542549669125
193761 8 17690280413661327141
19973954 147 18338515244705720108
20201158 50 18186518847418088118
20645464 45 18187079585178378838
20871998 184 18188484658213111047
21040471 1 18410855503193957249
23402539 116 18261967309620009765
23463225 33 18198626725440332378
23552423 10 18128817443507252116
23559900 14 18261392291605084398
2748010 2 17905613198629187613
369184 2 18411138026105803865
5084963 1 18114466759253888056
6333449 129 18409450288721158421

> <PUBCHEM_SHAPE_MULTIPOLES>
210.54
4.79
1.87
0.59
3.56
0.46
0
-0.3
0
-0.69
0
-0.03
-0.01
0

> <PUBCHEM_SHAPE_SELFOVERLAP>
433.92

> <PUBCHEM_SHAPE_VOLUME>
120.5

> <PUBCHEM_COORDINATE_TYPE>
2
5
10

$$$$

