11988260
  -OEChem-07051212492D

 47 50  0     1  0  0  0  0  0999 V2000
    9.9282    0.9940    0.0000 O   0  0  0  0  0  0  0  0  0  0  0  0
    8.1962    0.9873    0.0000 O   0  0  0  0  0  0  0  0  0  0  0  0
    9.9398   -2.0060    0.0000 O   0  0  0  0  0  0  0  0  0  0  0  0
   11.6679   -0.9993    0.0000 O   0  0  0  0  0  0  0  0  0  0  0  0
    8.2039   -1.0127    0.0000 O   0  0  0  0  0  0  0  0  0  0  0  0
   11.6564    2.0006    0.0000 O   0  0  0  0  0  0  0  0  0  0  0  0
    6.4144    1.9977    0.0000 O   0  0  0  0  0  0  0  0  0  0  0  0
    4.6660    1.9632    0.0000 O   0  0  0  0  0  0  0  0  0  0  0  0
    4.6660   -2.0368    0.0000 O   0  0  0  0  0  0  0  0  0  0  0  0
    9.9359   -1.0060    0.0000 C   0  0  1  0  0  0  0  0  0  0  0  0
   10.8000   -0.5027    0.0000 C   0  0  1  0  0  0  0  0  0  0  0  0
    9.0680   -0.5094    0.0000 C   0  0  2  0  0  0  0  0  0  0  0  0
   10.7961    0.4973    0.0000 C   0  0  1  0  0  0  0  0  0  0  0  0
    9.0641    0.4906    0.0000 C   0  0  1  0  0  0  0  0  0  0  0  0
   11.6602    1.0006    0.0000 C   0  0  0  0  0  0  0  0  0  0  0  0
    7.3321    0.4840    0.0000 C   0  0  0  0  0  0  0  0  0  0  0  0
    6.4260    0.9978    0.0000 C   0  0  0  0  0  0  0  0  0  0  0  0
    5.5321    0.4631    0.0000 C   0  0  0  0  0  0  0  0  0  0  0  0
    5.5321   -0.5369    0.0000 C   0  0  0  0  0  0  0  0  0  0  0  0
    7.3321   -0.5577    0.0000 C   0  0  0  0  0  0  0  0  0  0  0  0
    6.4260   -1.0715    0.0000 C   0  0  0  0  0  0  0  0  0  0  0  0
    4.6660    0.9631    0.0000 C   0  0  0  0  0  0  0  0  0  0  0  0
    3.8000    0.4631    0.0000 C   0  0  0  0  0  0  0  0  0  0  0  0
    3.8000   -0.5369    0.0000 C   0  0  0  0  0  0  0  0  0  0  0  0
    4.6660   -1.0368    0.0000 C   0  0  0  0  0  0  0  0  0  0  0  0
    2.9061    0.9978    0.0000 C   0  0  0  0  0  0  0  0  0  0  0  0
    2.9061   -1.0715    0.0000 C   0  0  0  0  0  0  0  0  0  0  0  0
    2.0000    0.4840    0.0000 C   0  0  0  0  0  0  0  0  0  0  0  0
    2.0000   -0.5577    0.0000 C   0  0  0  0  0  0  0  0  0  0  0  0
   10.4740   -1.3139    0.0000 H   0  0  0  0  0  0  0  0  0  0  0  0
   11.3357   -0.1906    0.0000 H   0  0  0  0  0  0  0  0  0  0  0  0
    9.0704   -1.1294    0.0000 H   0  0  0  0  0  0  0  0  0  0  0  0
   10.7938    1.1173    0.0000 H   0  0  0  0  0  0  0  0  0  0  0  0
    8.5284    0.1786    0.0000 H   0  0  0  0  0  0  0  0  0  0  0  0
   11.8745    0.4189    0.0000 H   0  0  0  0  0  0  0  0  0  0  0  0
   12.2704    1.1107    0.0000 H   0  0  0  0  0  0  0  0  0  0  0  0
   10.4779   -2.3139    0.0000 H   0  0  0  0  0  0  0  0  0  0  0  0
   12.2037   -0.6873    0.0000 H   0  0  0  0  0  0  0  0  0  0  0  0
    8.2063   -1.6327    0.0000 H   0  0  0  0  0  0  0  0  0  0  0  0
    7.8678   -0.8697    0.0000 H   0  0  0  0  0  0  0  0  0  0  0  0
   12.1921    2.3127    0.0000 H   0  0  0  0  0  0  0  0  0  0  0  0
    6.4188   -1.6915    0.0000 H   0  0  0  0  0  0  0  0  0  0  0  0
    2.9132    1.6178    0.0000 H   0  0  0  0  0  0  0  0  0  0  0  0
    2.9132   -1.6915    0.0000 H   0  0  0  0  0  0  0  0  0  0  0  0
    6.9478    2.3139    0.0000 H   0  0  0  0  0  0  0  0  0  0  0  0
    1.4643    0.7960    0.0000 H   0  0  0  0  0  0  0  0  0  0  0  0
    1.4643   -0.8697    0.0000 H   0  0  0  0  0  0  0  0  0  0  0  0
  1 13  1  0  0  0  0
  1 14  1  0  0  0  0
 14  2  1  6  0  0  0
  2 16  1  0  0  0  0
 10  3  1  6  0  0  0
  3 37  1  0  0  0  0
 11  4  1  1  0  0  0
  4 38  1  0  0  0  0
 12  5  1  1  0  0  0
  5 39  1  0  0  0  0
  6 15  1  0  0  0  0
  6 41  1  0  0  0  0
  7 17  1  0  0  0  0
  7 45  1  0  0  0  0
  8 22  2  0  0  0  0
  9 25  2  0  0  0  0
 10 11  1  0  0  0  0
 10 12  1  0  0  0  0
 10 30  1  0  0  0  0
 11 13  1  0  0  0  0
 11 31  1  0  0  0  0
 12 14  1  0  0  0  0
 12 32  1  0  0  0  0
 13 15  1  6  0  0  0
 13 33  1  0  0  0  0
 14 34  1  0  0  0  0
 15 35  1  0  0  0  0
 15 36  1  0  0  0  0
 16 17  2  0  0  0  0
 16 20  1  0  0  0  0
 17 18  1  0  0  0  0
 18 19  2  0  0  0  0
 18 22  1  0  0  0  0
 19 21  1  0  0  0  0
 19 25  1  0  0  0  0
 20 21  2  0  0  0  0
 20 40  1  0  0  0  0
 21 42  1  0  0  0  0
 22 23  1  0  0  0  0
 23 24  1  0  0  0  0
 23 26  2  0  0  0  0
 24 25  1  0  0  0  0
 24 27  2  0  0  0  0
 26 28  1  0  0  0  0
 26 43  1  0  0  0  0
 27 29  1  0  0  0  0
 27 44  1  0  0  0  0
 28 29  2  0  0  0  0
 28 46  1  0  0  0  0
 29 47  1  0  0  0  0
M  END
> <PUBCHEM_COMPOUND_CID>
11988260

> <PUBCHEM_COMPOUND_CANONICALIZED>
1

> <PUBCHEM_CACTVS_COMPLEXITY>
639

> <PUBCHEM_CACTVS_HBOND_ACCEPTOR>
9

> <PUBCHEM_CACTVS_HBOND_DONOR>
5

> <PUBCHEM_CACTVS_ROTATABLE_BOND>
3

> <PUBCHEM_CACTVS_SUBSKEYS>
AAADceB4PAAAAAAAAAAAAAAAAAAAAAAAAAA0YMEAAAAAAADBQAAAGgAACAAADBSwmAMwDoAABgCIAqBSAAACCAAkIAAIiAEGiMgdNjaGNRqieWOl4BEPuYfL7PzOoAABAAAYQADAAAYAADCAAAAAAAAAAA==

> <PUBCHEM_IUPAC_OPENEYE_NAME>
1-hydroxy-2-[(2S,3R,4S,5S,6R)-3,4,5-trihydroxy-6-(hydroxymethyl)tetrahydropyran-2-yl]oxy-anthracene-9,10-dione

> <PUBCHEM_IUPAC_CAS_NAME>
1-hydroxy-2-[[(2S,3R,4S,5S,6R)-3,4,5-trihydroxy-6-(hydroxymethyl)-2-oxanyl]oxy]anthracene-9,10-dione

> <PUBCHEM_IUPAC_NAME>
1-hydroxy-2-[(2S,3R,4S,5S,6R)-3,4,5-trihydroxy-6-(hydroxymethyl)oxan-2-yl]oxyanthracene-9,10-dione

> <PUBCHEM_IUPAC_SYSTEMATIC_NAME>
2-[(2S,3R,4S,5S,6R)-6-(hydroxymethyl)-3,4,5-tris(oxidanyl)oxan-2-yl]oxy-1-oxidanyl-anthracene-9,10-dione

> <PUBCHEM_IUPAC_TRADITIONAL_NAME>
1-hydroxy-2-[(2S,3R,4S,5S,6R)-3,4,5-trihydroxy-6-methylol-tetrahydropyran-2-yl]oxy-9,10-anthraquinone

> <PUBCHEM_IUPAC_INCHI>
InChI=1S/C20H18O9/c21-7-12-17(25)18(26)19(27)20(29-12)28-11-6-5-10-13(16(11)24)15(23)9-4-2-1-3-8(9)14(10)22/h1-6,12,17-21,24-27H,7H2/t12-,17-,18+,19-,20-/m1/s1

> <PUBCHEM_IUPAC_INCHIKEY>
LPUCQUKLBVSNAF-UJXPUUNTSA-N

> <PUBCHEM_XLOGP3_AA>
0.9

> <PUBCHEM_EXACT_MASS>
402.095082

> <PUBCHEM_MOLECULAR_FORMULA>
C20H18O9

> <PUBCHEM_MOLECULAR_WEIGHT>
402.35152

> <PUBCHEM_OPENEYE_CAN_SMILES>
C1=CC=C2C(=C1)C(=O)C3=C(C2=O)C(=C(C=C3)OC4C(C(C(C(O4)CO)O)O)O)O

> <PUBCHEM_OPENEYE_ISO_SMILES>
C1=CC=C2C(=C1)C(=O)C3=C(C2=O)C(=C(C=C3)O[C@H]4[C@@H]([C@H]([C@@H]([C@H](O4)CO)O)O)O)O

> <PUBCHEM_CACTVS_TPSA>
154

> <PUBCHEM_MONOISOTOPIC_WEIGHT>
402.095082

> <PUBCHEM_TOTAL_CHARGE>
0

> <PUBCHEM_HEAVY_ATOM_COUNT>
29

> <PUBCHEM_ATOM_DEF_STEREO_COUNT>
5

> <PUBCHEM_ATOM_UDEF_STEREO_COUNT>
0

> <PUBCHEM_BOND_DEF_STEREO_COUNT>
0

> <PUBCHEM_BOND_UDEF_STEREO_COUNT>
0

> <PUBCHEM_ISOTOPIC_ATOM_COUNT>
0

> <PUBCHEM_COMPONENT_COUNT>
1

> <PUBCHEM_CACTVS_TAUTO_COUNT>
5

> <PUBCHEM_COORDINATE_TYPE>
1
5
255

> <PUBCHEM_BONDANNOTATIONS>
13  15  6
16  17  8
16  20  8
17  18  8
18  19  8
19  21  8
14  2  6
20  21  8
23  24  8
23  26  8
24  27  8
26  28  8
27  29  8
28  29  8
10  3  6
11  4  5
12  5  5

$$$$

