47205580
  -OEChem-06241222592D

 35 36  0     1  0  0  0  0  0999 V2000
    6.3301   -0.1012    0.0000 O   0  0  0  0  0  0  0  0  0  0  0  0
    6.3301    1.8988    0.0000 N   0  0  0  0  0  0  0  0  0  0  0  0
    4.5981   -0.1012    0.0000 N   0  0  0  0  0  0  0  0  0  0  0  0
    7.4128    3.1012    0.0000 N   0  0  0  0  0  0  0  0  0  0  0  0
    5.4641    1.3988    0.0000 C   0  0  3  0  0  0  0  0  0  0  0  0
    5.4641    0.3988    0.0000 C   0  0  0  0  0  0  0  0  0  0  0  0
    4.5981   -1.1012    0.0000 C   0  0  0  0  0  0  0  0  0  0  0  0
    3.7320   -1.6012    0.0000 C   0  0  0  0  0  0  0  0  0  0  0  0
    4.5981    1.8988    0.0000 C   0  0  0  0  0  0  0  0  0  0  0  0
    2.8660   -1.1012    0.0000 C   0  0  0  0  0  0  0  0  0  0  0  0
    7.2437    1.4921    0.0000 C   0  0  0  0  0  0  0  0  0  0  0  0
    5.4641   -1.6012    0.0000 C   0  0  0  0  0  0  0  0  0  0  0  0
    3.7320   -2.6012    0.0000 C   0  0  0  0  0  0  0  0  0  0  0  0
    6.4347    2.8933    0.0000 C   0  0  0  0  0  0  0  0  0  0  0  0
    2.0000   -1.6012    0.0000 C   0  0  0  0  0  0  0  0  0  0  0  0
    5.4641   -2.6012    0.0000 C   0  0  0  0  0  0  0  0  0  0  0  0
    4.5981   -3.1012    0.0000 C   0  0  0  0  0  0  0  0  0  0  0  0
    7.9128    2.2352    0.0000 C   0  0  0  0  0  0  0  0  0  0  0  0
    5.4641    2.0188    0.0000 H   0  0  0  0  0  0  0  0  0  0  0  0
    4.9081    2.4357    0.0000 H   0  0  0  0  0  0  0  0  0  0  0  0
    4.0611    2.2088    0.0000 H   0  0  0  0  0  0  0  0  0  0  0  0
    4.2881    1.3618    0.0000 H   0  0  0  0  0  0  0  0  0  0  0  0
    4.0611    0.2088    0.0000 H   0  0  0  0  0  0  0  0  0  0  0  0
    3.2646   -0.6263    0.0000 H   0  0  0  0  0  0  0  0  0  0  0  0
    2.4675   -0.6263    0.0000 H   0  0  0  0  0  0  0  0  0  0  0  0
    7.3726    0.8856    0.0000 H   0  0  0  0  0  0  0  0  0  0  0  0
    6.0010   -1.2912    0.0000 H   0  0  0  0  0  0  0  0  0  0  0  0
    3.1951   -2.9112    0.0000 H   0  0  0  0  0  0  0  0  0  0  0  0
    5.9739    3.3082    0.0000 H   0  0  0  0  0  0  0  0  0  0  0  0
    1.6900   -1.0643    0.0000 H   0  0  0  0  0  0  0  0  0  0  0  0
    1.4631   -1.9112    0.0000 H   0  0  0  0  0  0  0  0  0  0  0  0
    2.3100   -2.1382    0.0000 H   0  0  0  0  0  0  0  0  0  0  0  0
    6.0010   -2.9112    0.0000 H   0  0  0  0  0  0  0  0  0  0  0  0
    4.5981   -3.7212    0.0000 H   0  0  0  0  0  0  0  0  0  0  0  0
    8.5294    2.1704    0.0000 H   0  0  0  0  0  0  0  0  0  0  0  0
  1  6  2  0  0  0  0
  2  5  1  0  0  0  0
  2 11  1  0  0  0  0
  2 14  1  0  0  0  0
  3  6  1  0  0  0  0
  3  7  1  0  0  0  0
  3 23  1  0  0  0  0
  4 14  2  0  0  0  0
  4 18  1  0  0  0  0
  5  6  1  0  0  0  0
  5  9  1  0  0  0  0
  5 19  1  0  0  0  0
  7  8  1  0  0  0  0
  7 12  2  0  0  0  0
  8 10  1  0  0  0  0
  8 13  2  0  0  0  0
  9 20  1  0  0  0  0
  9 21  1  0  0  0  0
  9 22  1  0  0  0  0
 10 15  1  0  0  0  0
 10 24  1  0  0  0  0
 10 25  1  0  0  0  0
 11 18  2  0  0  0  0
 11 26  1  0  0  0  0
 12 16  1  0  0  0  0
 12 27  1  0  0  0  0
 13 17  1  0  0  0  0
 13 28  1  0  0  0  0
 14 29  1  0  0  0  0
 15 30  1  0  0  0  0
 15 31  1  0  0  0  0
 15 32  1  0  0  0  0
 16 17  2  0  0  0  0
 16 33  1  0  0  0  0
 17 34  1  0  0  0  0
 18 35  1  0  0  0  0
M  END
> <PUBCHEM_COMPOUND_CID>
47205580

> <PUBCHEM_COMPOUND_CANONICALIZED>
1

> <PUBCHEM_CACTVS_COMPLEXITY>
282

> <PUBCHEM_CACTVS_HBOND_ACCEPTOR>
2

> <PUBCHEM_CACTVS_HBOND_DONOR>
1

> <PUBCHEM_CACTVS_ROTATABLE_BOND>
4

> <PUBCHEM_CACTVS_SUBSKEYS>
AAADceBzIAAAAAAAAAAAAAAAAAAAAWAAAAAwAAAAAAAAAAABwAAAHgAQAAAADCjBmgQ/0JfMEACoAjV3dACCgC0xEqAJyAGYdIiIaCLAmbGUIAholALIyCcQgIAOAAAAAAACAAAAAAAAAAQAAAAAAAAAAA==

> <PUBCHEM_IUPAC_OPENEYE_NAME>
N-(2-ethylphenyl)-2-imidazol-1-yl-propanamide

> <PUBCHEM_IUPAC_CAS_NAME>
N-(2-ethylphenyl)-2-(1-imidazolyl)propanamide

> <PUBCHEM_IUPAC_NAME>
N-(2-ethylphenyl)-2-imidazol-1-ylpropanamide

> <PUBCHEM_IUPAC_SYSTEMATIC_NAME>
N-(2-ethylphenyl)-2-imidazol-1-yl-propanamide

> <PUBCHEM_IUPAC_TRADITIONAL_NAME>
N-(2-ethylphenyl)-2-imidazol-1-yl-propionamide

> <PUBCHEM_IUPAC_INCHI>
InChI=1S/C14H17N3O/c1-3-12-6-4-5-7-13(12)16-14(18)11(2)17-9-8-15-10-17/h4-11H,3H2,1-2H3,(H,16,18)

> <PUBCHEM_IUPAC_INCHIKEY>
VVXDXALJOWNVDT-UHFFFAOYSA-N

> <PUBCHEM_XLOGP3_AA>
2.2

> <PUBCHEM_EXACT_MASS>
243.137162

> <PUBCHEM_MOLECULAR_FORMULA>
C14H17N3O

> <PUBCHEM_MOLECULAR_WEIGHT>
243.30428

> <PUBCHEM_OPENEYE_CAN_SMILES>
CCC1=CC=CC=C1NC(=O)C(C)N2C=CN=C2

> <PUBCHEM_OPENEYE_ISO_SMILES>
CCC1=CC=CC=C1NC(=O)C(C)N2C=CN=C2

> <PUBCHEM_CACTVS_TPSA>
46.9

> <PUBCHEM_MONOISOTOPIC_WEIGHT>
243.137162

> <PUBCHEM_TOTAL_CHARGE>
0

> <PUBCHEM_HEAVY_ATOM_COUNT>
18

> <PUBCHEM_ATOM_DEF_STEREO_COUNT>
0

> <PUBCHEM_ATOM_UDEF_STEREO_COUNT>
1

> <PUBCHEM_BOND_DEF_STEREO_COUNT>
0

> <PUBCHEM_BOND_UDEF_STEREO_COUNT>
0

> <PUBCHEM_ISOTOPIC_ATOM_COUNT>
0

> <PUBCHEM_COMPONENT_COUNT>
1

> <PUBCHEM_CACTVS_TAUTO_COUNT>
3

> <PUBCHEM_COORDINATE_TYPE>
1
5
255

> <PUBCHEM_BONDANNOTATIONS>
11  18  8
12  16  8
13  17  8
16  17  8
2  11  8
2  14  8
4  14  8
4  18  8
5  9  3
7  12  8
7  8  8
8  13  8

$$$$

