148524
  -OEChem-07051213082D

 39 40  0     0  0  0  0  0  0999 V2000
    7.1962    1.0000    0.0000 O   0  5  0  0  0  0  0  0  0  0  0  0
    5.4641    4.0000    0.0000 O   0  5  0  0  0  0  0  0  0  0  0  0
    2.8660   -0.5000    0.0000 O   0  5  0  0  0  0  0  0  0  0  0  0
    3.7320    4.0000    0.0000 O   0  0  0  0  0  0  0  0  0  0  0  0
    2.0000    1.0000    0.0000 O   0  0  0  0  0  0  0  0  0  0  0  0
    8.9282   -4.0000    0.0000 O   0  5  0  0  0  0  0  0  0  0  0  0
    7.1962   -4.0000    0.0000 O   0  0  0  0  0  0  0  0  0  0  0  0
   10.6603   -1.0000    0.0000 O   0  5  0  0  0  0  0  0  0  0  0  0
    9.7942    0.5000    0.0000 O   0  0  0  0  0  0  0  0  0  0  0  0
    6.3301    0.5000    0.0000 N   0  3  0  0  0  0  0  0  0  0  0  0
    6.3301   -0.5000    0.0000 N   0  0  0  0  0  0  0  0  0  0  0  0
    4.5981    3.5000    0.0000 N   0  3  0  0  0  0  0  0  0  0  0  0
    2.8660    0.5000    0.0000 N   0  3  0  0  0  0  0  0  0  0  0  0
    8.0622   -3.5000    0.0000 N   0  3  0  0  0  0  0  0  0  0  0  0
    9.7942   -0.5000    0.0000 N   0  3  0  0  0  0  0  0  0  0  0  0
    3.7320    2.0000    0.0000 C   0  0  0  0  0  0  0  0  0  0  0  0
    5.4641    1.0000    0.0000 C   0  0  0  0  0  0  0  0  0  0  0  0
    7.1962   -2.0000    0.0000 C   0  0  0  0  0  0  0  0  0  0  0  0
    4.5981    2.5000    0.0000 C   0  0  0  0  0  0  0  0  0  0  0  0
    3.7320    1.0000    0.0000 C   0  0  0  0  0  0  0  0  0  0  0  0
    7.1962   -1.0000    0.0000 C   0  0  0  0  0  0  0  0  0  0  0  0
    5.4641    2.0000    0.0000 C   0  0  0  0  0  0  0  0  0  0  0  0
    4.5981    0.5000    0.0000 C   0  0  0  0  0  0  0  0  0  0  0  0
    8.0622   -2.5000    0.0000 C   0  0  0  0  0  0  0  0  0  0  0  0
    8.0622   -0.5000    0.0000 C   0  0  0  0  0  0  0  0  0  0  0  0
    8.9282   -1.0000    0.0000 C   0  0  0  0  0  0  0  0  0  0  0  0
    8.9282   -2.0000    0.0000 C   0  0  0  0  0  0  0  0  0  0  0  0
    2.8660    2.5000    0.0000 C   0  0  0  0  0  0  0  0  0  0  0  0
    6.3301   -2.5000    0.0000 C   0  0  0  0  0  0  0  0  0  0  0  0
    6.0010    2.3100    0.0000 H   0  0  0  0  0  0  0  0  0  0  0  0
    4.5981   -0.1200    0.0000 H   0  0  0  0  0  0  0  0  0  0  0  0
    8.0622    0.1200    0.0000 H   0  0  0  0  0  0  0  0  0  0  0  0
    9.4651   -2.3100    0.0000 H   0  0  0  0  0  0  0  0  0  0  0  0
    3.1760    3.0369    0.0000 H   0  0  0  0  0  0  0  0  0  0  0  0
    2.3291    2.8100    0.0000 H   0  0  0  0  0  0  0  0  0  0  0  0
    2.5560    1.9631    0.0000 H   0  0  0  0  0  0  0  0  0  0  0  0
    6.0201   -1.9631    0.0000 H   0  0  0  0  0  0  0  0  0  0  0  0
    5.7932   -2.8100    0.0000 H   0  0  0  0  0  0  0  0  0  0  0  0
    6.6401   -3.0369    0.0000 H   0  0  0  0  0  0  0  0  0  0  0  0
  1 10  1  0  0  0  0
  2 12  1  0  0  0  0
  3 13  1  0  0  0  0
  4 12  2  0  0  0  0
  5 13  2  0  0  0  0
  6 14  1  0  0  0  0
  7 14  2  0  0  0  0
  8 15  1  0  0  0  0
  9 15  2  0  0  0  0
 10 11  2  0  0  0  0
 10 17  1  0  0  0  0
 11 21  1  0  0  0  0
 12 19  1  0  0  0  0
 13 20  1  0  0  0  0
 14 24  1  0  0  0  0
 15 26  1  0  0  0  0
 16 19  2  0  0  0  0
 16 20  1  0  0  0  0
 16 28  1  0  0  0  0
 17 22  2  0  0  0  0
 17 23  1  0  0  0  0
 18 21  2  0  0  0  0
 18 24  1  0  0  0  0
 18 29  1  0  0  0  0
 19 22  1  0  0  0  0
 20 23  2  0  0  0  0
 21 25  1  0  0  0  0
 22 30  1  0  0  0  0
 23 31  1  0  0  0  0
 24 27  2  0  0  0  0
 25 26  2  0  0  0  0
 25 32  1  0  0  0  0
 26 27  1  0  0  0  0
 27 33  1  0  0  0  0
 28 34  1  0  0  0  0
 28 35  1  0  0  0  0
 28 36  1  0  0  0  0
 29 37  1  0  0  0  0
 29 38  1  0  0  0  0
 29 39  1  0  0  0  0
M  CHG  8   1  -1   2  -1   3  -1   6  -1   8  -1  10   1  12   1  13   1
M  CHG  2  14   1  15   1
M  END
> <PUBCHEM_COMPOUND_CID>
148524

> <PUBCHEM_COMPOUND_CANONICALIZED>
1

> <PUBCHEM_CACTVS_COMPLEXITY>
684

> <PUBCHEM_CACTVS_HBOND_ACCEPTOR>
10

> <PUBCHEM_CACTVS_HBOND_DONOR>
0

> <PUBCHEM_CACTVS_ROTATABLE_BOND>
2

> <PUBCHEM_CACTVS_SUBSKEYS>
AAADccBzvAAAAAAAAAAAAAAAAAAAAAAAAAAwYAAAAAAAAAABQAAAHAAMAAAADAiBGAAywIAQQACDAiRCQwCCAAAgAgAgiAAAZIoIICKA0dGAIABggAAIyAcQgAAOCAAAAAQCAAAQAAAACAQAAAAAAAAAAA==

> <PUBCHEM_IUPAC_OPENEYE_NAME>
(4-methyl-3,5-dinitro-phenyl)-(2-methyl-3,5-dinitro-phenyl)imino-oxido-ammonium

> <PUBCHEM_IUPAC_CAS_NAME>
(4-methyl-3,5-dinitrophenyl)-(2-methyl-3,5-dinitrophenyl)imino-oxidoammonium

> <PUBCHEM_IUPAC_NAME>
(4-methyl-3,5-dinitrophenyl)-(2-methyl-3,5-dinitrophenyl)imino-oxidoazanium

> <PUBCHEM_IUPAC_SYSTEMATIC_NAME>
(4-methyl-3,5-dinitro-phenyl)-(2-methyl-3,5-dinitro-phenyl)imino-oxidanidyl-azanium

> <PUBCHEM_IUPAC_TRADITIONAL_NAME>
(4-methyl-3,5-dinitro-phenyl)-(2-methyl-3,5-dinitro-phenyl)imino-oxido-ammonium

> <PUBCHEM_IUPAC_INCHI>
InChI=1S/C14H10N6O9/c1-7-11(3-10(17(22)23)6-12(7)18(24)25)15-16(21)9-4-13(19(26)27)8(2)14(5-9)20(28)29/h3-6H,1-2H3

> <PUBCHEM_IUPAC_INCHIKEY>
XDCFBFUDTDVION-UHFFFAOYSA-N

> <PUBCHEM_XLOGP3_AA>
3.2

> <PUBCHEM_EXACT_MASS>
406.050926

> <PUBCHEM_MOLECULAR_FORMULA>
C14H10N6O9

> <PUBCHEM_MOLECULAR_WEIGHT>
406.264

> <PUBCHEM_OPENEYE_CAN_SMILES>
CC1=C(C=C(C=C1N=[N+](C2=CC(=C(C(=C2)[N+](=O)[O-])C)[N+](=O)[O-])[O-])[N+](=O)[O-])[N+](=O)[O-]

> <PUBCHEM_OPENEYE_ISO_SMILES>
CC1=C(C=C(C=C1N=[N+](C2=CC(=C(C(=C2)[N+](=O)[O-])C)[N+](=O)[O-])[O-])[N+](=O)[O-])[N+](=O)[O-]

> <PUBCHEM_CACTVS_TPSA>
224

> <PUBCHEM_MONOISOTOPIC_WEIGHT>
406.050926

> <PUBCHEM_TOTAL_CHARGE>
0

> <PUBCHEM_HEAVY_ATOM_COUNT>
29

> <PUBCHEM_ATOM_DEF_STEREO_COUNT>
0

> <PUBCHEM_ATOM_UDEF_STEREO_COUNT>
0

> <PUBCHEM_BOND_DEF_STEREO_COUNT>
0

> <PUBCHEM_BOND_UDEF_STEREO_COUNT>
0

> <PUBCHEM_ISOTOPIC_ATOM_COUNT>
0

> <PUBCHEM_COMPONENT_COUNT>
1

> <PUBCHEM_CACTVS_TAUTO_COUNT>
1

> <PUBCHEM_COORDINATE_TYPE>
1
5
255

> <PUBCHEM_BONDANNOTATIONS>
16  19  8
16  20  8
17  22  8
17  23  8
18  21  8
18  24  8
19  22  8
20  23  8
21  25  8
24  27  8
25  26  8
26  27  8

$$$$

