586246
  -OEChem-06241222463D

 41 41  0     0  0  0  0  0  0999 V2000
   -5.3296    1.2712    0.4188 O   0  0  0  0  0  0  0  0  0  0  0  0
   -5.0275   -0.7015   -0.6776 O   0  0  0  0  0  0  0  0  0  0  0  0
    2.4054   -1.0860   -0.1229 C   0  0  0  0  0  0  0  0  0  0  0  0
    3.9273   -0.7850   -0.1496 C   0  0  0  0  0  0  0  0  0  0  0  0
    1.5703    0.1960   -0.3230 C   0  0  0  0  0  0  0  0  0  0  0  0
    4.2845    0.4303    0.6897 C   0  0  0  0  0  0  0  0  0  0  0  0
    3.5614    1.6633    0.1660 C   0  0  0  0  0  0  0  0  0  0  0  0
    2.1155    1.4328   -0.2167 C   0  0  0  0  0  0  0  0  0  0  0  0
    2.0407   -1.7320    1.2321 C   0  0  0  0  0  0  0  0  0  0  0  0
    2.1354   -2.1141   -1.2437 C   0  0  0  0  0  0  0  0  0  0  0  0
    0.1039   -0.0107   -0.6336 C   0  0  0  0  0  0  0  0  0  0  0  0
   -0.7286   -0.0229    0.6412 C   0  0  0  0  0  0  0  0  0  0  0  0
    1.3740    2.7189   -0.4851 C   0  0  0  0  0  0  0  0  0  0  0  0
   -2.1815   -0.3261    0.3470 C   0  0  0  0  0  0  0  0  0  0  0  0
   -2.5229   -1.7952    0.3173 C   0  0  0  0  0  0  0  0  0  0  0  0
   -3.1521    0.5851    0.1477 C   0  0  0  0  0  0  0  0  0  0  0  0
   -4.5762    0.2758   -0.1075 C   0  0  0  0  0  0  0  0  0  0  0  0
    4.2541   -0.6034   -1.1832 H   0  0  0  0  0  0  0  0  0  0  0  0
    4.4994   -1.6524    0.2030 H   0  0  0  0  0  0  0  0  0  0  0  0
    5.3671    0.6004    0.6638 H   0  0  0  0  0  0  0  0  0  0  0  0
    4.0201    0.2584    1.7397 H   0  0  0  0  0  0  0  0  0  0  0  0
    4.0913    2.0409   -0.7181 H   0  0  0  0  0  0  0  0  0  0  0  0
    3.6244    2.4460    0.9318 H   0  0  0  0  0  0  0  0  0  0  0  0
   -0.0637   -0.9328   -1.1953 H   0  0  0  0  0  0  0  0  0  0  0  0
   -0.2641    0.7602   -1.3207 H   0  0  0  0  0  0  0  0  0  0  0  0
    2.0119   -0.9979    2.0447 H   0  0  0  0  0  0  0  0  0  0  0  0
    1.0736   -2.2432    1.1942 H   0  0  0  0  0  0  0  0  0  0  0  0
    2.7747   -2.4983    1.5089 H   0  0  0  0  0  0  0  0  0  0  0  0
    1.1589   -2.6004   -1.1489 H   0  0  0  0  0  0  0  0  0  0  0  0
    2.1955   -1.6508   -2.2353 H   0  0  0  0  0  0  0  0  0  0  0  0
    2.8773   -2.9219   -1.2142 H   0  0  0  0  0  0  0  0  0  0  0  0
   -0.6698    0.9666    1.1153 H   0  0  0  0  0  0  0  0  0  0  0  0
   -0.3641   -0.7172    1.4001 H   0  0  0  0  0  0  0  0  0  0  0  0
    0.2989    2.6044   -0.6297 H   0  0  0  0  0  0  0  0  0  0  0  0
    1.7818    3.2044   -1.3780 H   0  0  0  0  0  0  0  0  0  0  0  0
    1.4963    3.4036    0.3617 H   0  0  0  0  0  0  0  0  0  0  0  0
   -1.8005   -2.3768    0.9011 H   0  0  0  0  0  0  0  0  0  0  0  0
   -2.4949   -2.1717   -0.7102 H   0  0  0  0  0  0  0  0  0  0  0  0
   -3.4988   -2.0138    0.7611 H   0  0  0  0  0  0  0  0  0  0  0  0
   -2.9008    1.6411    0.2113 H   0  0  0  0  0  0  0  0  0  0  0  0
   -6.2888    1.1162    0.2835 H   0  0  0  0  0  0  0  0  0  0  0  0
  1 17  1  0  0  0  0
  1 41  1  0  0  0  0
  2 17  2  0  0  0  0
  3  4  1  0  0  0  0
  3  5  1  0  0  0  0
  3  9  1  0  0  0  0
  3 10  1  0  0  0  0
  4  6  1  0  0  0  0
  4 18  1  0  0  0  0
  4 19  1  0  0  0  0
  5  8  2  0  0  0  0
  5 11  1  0  0  0  0
  6  7  1  0  0  0  0
  6 20  1  0  0  0  0
  6 21  1  0  0  0  0
  7  8  1  0  0  0  0
  7 22  1  0  0  0  0
  7 23  1  0  0  0  0
  8 13  1  0  0  0  0
  9 26  1  0  0  0  0
  9 27  1  0  0  0  0
  9 28  1  0  0  0  0
 10 29  1  0  0  0  0
 10 30  1  0  0  0  0
 10 31  1  0  0  0  0
 11 12  1  0  0  0  0
 11 24  1  0  0  0  0
 11 25  1  0  0  0  0
 12 14  1  0  0  0  0
 12 32  1  0  0  0  0
 12 33  1  0  0  0  0
 13 34  1  0  0  0  0
 13 35  1  0  0  0  0
 13 36  1  0  0  0  0
 14 15  1  0  0  0  0
 14 16  2  0  0  0  0
 15 37  1  0  0  0  0
 15 38  1  0  0  0  0
 15 39  1  0  0  0  0
 16 17  1  0  0  0  0
 16 40  1  0  0  0  0
M  END
> <PUBCHEM_COMPOUND_CID>
586246

> <PUBCHEM_CONFORMER_RMSD>
0.6

> <PUBCHEM_CONFORMER_DIVERSEORDER>
1
26
43
17
39
30
42
23
15
28
14
38
31
9
32
27
13
45
34
40
22
16
29
20
35
8
25
18
33
5
24
12
3
44
21
36
4
11
37
6
2
41
19
7
10

> <PUBCHEM_MMFF94_PARTIAL_CHARGES>
15
1 -0.65
11 0.14
12 0.14
13 0.14
14 -0.28
15 0.14
16 -0.14
17 0.71
2 -0.57
3 0.14
40 0.15
41 0.5
5 -0.28
7 0.14
8 -0.28

> <PUBCHEM_EFFECTIVE_ROTOR_COUNT>
4.8

> <PUBCHEM_PHARMACOPHORE_FEATURES>
6
1 1 acceptor
1 15 hydrophobe
1 2 acceptor
3 1 2 17 anion
3 3 9 10 hydrophobe
6 3 4 5 6 7 8 rings

> <PUBCHEM_HEAVY_ATOM_COUNT>
17

> <PUBCHEM_ATOM_DEF_STEREO_COUNT>
0

> <PUBCHEM_ATOM_UDEF_STEREO_COUNT>
0

> <PUBCHEM_BOND_DEF_STEREO_COUNT>
0

> <PUBCHEM_BOND_UDEF_STEREO_COUNT>
1

> <PUBCHEM_ISOTOPIC_ATOM_COUNT>
0

> <PUBCHEM_COMPONENT_COUNT>
1

> <PUBCHEM_CACTVS_TAUTO_COUNT>
1

> <PUBCHEM_CONFORMER_ID>
0008F20600000001

> <PUBCHEM_MMFF94_ENERGY>
37.4144

> <PUBCHEM_FEATURE_SELFOVERLAP>
30.502

> <PUBCHEM_SHAPE_FINGERPRINT>
11370993 70 18409450258704347279
11471102 20 18413108346890521252
116883 192 18265046019297724900
12236239 1 17822013103416459188
12346645 6 18333731317000026750
12633257 1 17916882235115332232
13167823 11 18335424547853890399
13675066 3 17203608190295421905
14251717 144 18411419501272405598
14252887 29 18336822091282879394
15375358 24 18411416202590154163
17834072 33 18260551095625325743
18186145 218 18272652372472434751
200 152 18040436577305649811
20157964 124 18408326618593361229
20279233 1 17989483017856754851
20645477 56 18344143683704595613
20645477 70 18409165519441494719
21421861 104 17702675500151440304
22289505 5 18342182210130924533
23402539 116 18334864935163820141
23402655 69 18409445856351773814
23559900 14 18259983816181625470
300161 21 18261118491254896673
3060560 45 18187077361055505894
33824 294 18412546513750052674
34934 24 18409732846066479442
351380 180 18412547604745598845
3545911 37 18409444765525091073
4072396 5 18342189860190007920
4214541 1 18411136927169013627
474 4 18200876154094531512
5104073 3 18341612573087074961
543358 83 18411416249776382419
5939293 188 18341334388456635008
69090 78 18412547604729742031
7364860 26 18334572438984315292
8272917 22 18260260893079994895
9709674 26 18410567358434313967
9971528 1 18336262431221549036
9999458 23 17560802105111205006

> <PUBCHEM_SHAPE_MULTIPOLES>
338.11
9.75
2.25
0.94
12.08
0.44
0.01
1.24
-0.44
-1.48
0.24
-0.36
-0.33
-0.01

> <PUBCHEM_SHAPE_SELFOVERLAP>
673.933

> <PUBCHEM_SHAPE_VOLUME>
200.2

> <PUBCHEM_COORDINATE_TYPE>
2
5
10

$$$$

