5281062
  -OEChem-07051212543D

 27 27  0     0  0  0  0  0  0999 V2000
   -2.5995    0.5586    2.1329 O   0  0  0  0  0  0  0  0  0  0  0  0
   -1.0461    2.0790   -0.5362 O   0  0  0  0  0  0  0  0  0  0  0  0
    4.0092    1.4202   -0.2835 O   0  0  0  0  0  0  0  0  0  0  0  0
    6.0839   -0.0663    0.0477 O   0  0  0  0  0  0  0  0  0  0  0  0
    4.7678   -1.9093    0.3420 O   0  0  0  0  0  0  0  0  0  0  0  0
   -2.4796    0.1422   -0.2304 C   0  0  0  0  0  0  0  0  0  0  0  0
   -3.1537    0.0884    0.9790 C   0  0  0  0  0  0  0  0  0  0  0  0
   -1.1242    0.7185   -0.3045 C   0  0  0  0  0  0  0  0  0  0  0  0
   -3.0536   -0.3393   -1.3967 C   0  0  0  0  0  0  0  0  0  0  0  0
   -4.4350   -0.4610    1.0238 C   0  0  0  0  0  0  0  0  0  0  0  0
   -4.3349   -0.8888   -1.3518 C   0  0  0  0  0  0  0  0  0  0  0  0
   -5.0257   -0.9497   -0.1415 C   0  0  0  0  0  0  0  0  0  0  0  0
   -0.0257   -0.0384   -0.1352 C   0  0  0  0  0  0  0  0  0  0  0  0
    1.3339    0.4601   -0.1872 C   0  0  0  0  0  0  0  0  0  0  0  0
    2.4002   -0.3326   -0.0123 C   0  0  0  0  0  0  0  0  0  0  0  0
    3.7670    0.2412   -0.0775 C   0  0  0  0  0  0  0  0  0  0  0  0
    4.9160   -0.7227    0.1314 C   0  0  0  0  0  0  0  0  0  0  0  0
   -2.5274   -0.2973   -2.3468 H   0  0  0  0  0  0  0  0  0  0  0  0
   -4.9854   -0.5152    1.9594 H   0  0  0  0  0  0  0  0  0  0  0  0
   -4.7950   -1.2691   -2.2592 H   0  0  0  0  0  0  0  0  0  0  0  0
   -6.0234   -1.3775   -0.1067 H   0  0  0  0  0  0  0  0  0  0  0  0
   -0.1413   -1.1046    0.0538 H   0  0  0  0  0  0  0  0  0  0  0  0
    1.4660    1.5218   -0.3769 H   0  0  0  0  0  0  0  0  0  0  0  0
    2.2935   -1.3948    0.1781 H   0  0  0  0  0  0  0  0  0  0  0  0
   -3.2278    0.4294    2.8640 H   0  0  0  0  0  0  0  0  0  0  0  0
   -1.9514    2.4253   -0.6195 H   0  0  0  0  0  0  0  0  0  0  0  0
    6.8535   -0.6603    0.1785 H   0  0  0  0  0  0  0  0  0  0  0  0
  1  7  1  0  0  0  0
  1 25  1  0  0  0  0
  2  8  1  0  0  0  0
  2 26  1  0  0  0  0
  3 16  2  0  0  0  0
  4 17  1  0  0  0  0
  4 27  1  0  0  0  0
  5 17  2  0  0  0  0
  6  7  1  0  0  0  0
  6  8  1  0  0  0  0
  6  9  2  0  0  0  0
  7 10  2  0  0  0  0
  8 13  2  0  0  0  0
  9 11  1  0  0  0  0
  9 18  1  0  0  0  0
 10 12  1  0  0  0  0
 10 19  1  0  0  0  0
 11 12  2  0  0  0  0
 11 20  1  0  0  0  0
 12 21  1  0  0  0  0
 13 14  1  0  0  0  0
 13 22  1  0  0  0  0
 14 15  2  0  0  0  0
 14 23  1  0  0  0  0
 15 16  1  0  0  0  0
 15 24  1  0  0  0  0
 16 17  1  0  0  0  0
M  END
> <PUBCHEM_COMPOUND_CID>
5281062

> <PUBCHEM_CONFORMER_RMSD>
0.6

> <PUBCHEM_CONFORMER_DIVERSEORDER>
2
22
25
4
20
3
12
21
10
27
19
23
7
16
14
28
13
17
26
9
15
18
5
1
11
24
6
8

> <PUBCHEM_MMFF94_PARTIAL_CHARGES>
27
1 -0.53
10 -0.15
11 -0.15
12 -0.15
13 -0.15
14 -0.15
15 -0.14
16 0.56
17 0.72
18 0.15
19 0.15
2 -0.53
20 0.15
21 0.15
22 0.15
23 0.15
24 0.15
25 0.45
26 0.45
27 0.5
3 -0.57
4 -0.65
5 -0.57
6 0.03
7 0.08
8 0.05
9 -0.15

> <PUBCHEM_EFFECTIVE_ROTOR_COUNT>
4

> <PUBCHEM_PHARMACOPHORE_FEATURES>
7
1 1 donor
1 2 donor
1 3 acceptor
1 4 acceptor
1 5 acceptor
3 4 5 17 anion
6 6 7 9 10 11 12 rings

> <PUBCHEM_HEAVY_ATOM_COUNT>
17

> <PUBCHEM_ATOM_DEF_STEREO_COUNT>
0

> <PUBCHEM_ATOM_UDEF_STEREO_COUNT>
0

> <PUBCHEM_BOND_DEF_STEREO_COUNT>
2

> <PUBCHEM_BOND_UDEF_STEREO_COUNT>
0

> <PUBCHEM_ISOTOPIC_ATOM_COUNT>
0

> <PUBCHEM_COMPONENT_COUNT>
1

> <PUBCHEM_CACTVS_TAUTO_COUNT>
19

> <PUBCHEM_CONFORMER_ID>
0050952600000002

> <PUBCHEM_MMFF94_ENERGY>
41.4486

> <PUBCHEM_FEATURE_SELFOVERLAP>
35.588

> <PUBCHEM_SHAPE_FINGERPRINT>
10680689 15 14908175361225976285
10803635 8 15698005132249407267
10912923 1 17895191086934019776
11315181 36 17749392546234259433
12107183 9 16883267861039237634
12236239 1 18113335297353782489
12596602 18 17458067062637181714
13167823 11 18113901576223700790
13288520 33 18334295370448806733
13760787 5 18411980234875152308
1420 363 18131911555264335662
14251718 22 16343981399613180414
14528608 73 13254788028360871526
14573314 32 16271932639964550418
14848160 23 17561085795779395994
15242439 84 16630811001855643756
17834072 33 17894912888927815016
17844677 252 18272929427617023148
17870717 6 16415474978324466051
1813 80 18336531776931398692
19050596 39 17313104133330579509
19489759 90 15985110708026840519
200 152 18343868822407789181
20325693 3 14908181950201492083
20432913 95 18413103987588425722
20645477 70 18130792282808814754
20871999 31 15339125628429282375
22646028 1 18333734628340755446
22849339 104 15051432925947834691
2297311 6 15985100821460602543
23175994 123 17775564217816923637
23402539 116 18413390955464298061
23402655 69 12103850055261662014
23466295 7 17628627566967198683
23557571 272 16630250297964598423
23559900 14 16486973947282849260
23596394 208 16845019021421452970
34797466 226 16200138890157535558
351380 3 18333453144853472038
5104073 3 18267030629870925912
542803 24 15574717989344943632
573450 72 17603304877284932067
5924683 9 13912903990110160461

> <PUBCHEM_SHAPE_MULTIPOLES>
320.51
13.14
1.28
1.2
13.01
0.08
0.25
-4.43
1.28
0.33
-0.1
-1.5
0.11
-1.09

> <PUBCHEM_SHAPE_SELFOVERLAP>
671.889

> <PUBCHEM_SHAPE_VOLUME>
179.3

> <PUBCHEM_COORDINATE_TYPE>
2
5
10

$$$$

