854324
  -OEChem-06241222472D

 38 42  0     1  0  0  0  0  0999 V2000
    3.2390    0.2229    0.0000 S   0  0  0  0  0  0  0  0  0  0  0  0
    5.8370   -1.2771    0.0000 O   0  0  0  0  0  0  0  0  0  0  0  0
    4.1050   -1.2771    0.0000 N   0  0  0  0  0  0  0  0  0  0  0  0
    4.3142    1.6947    0.0000 N   0  0  0  0  0  0  0  0  0  0  0  0
    5.3029    1.7978    0.0000 N   0  0  0  0  0  0  0  0  0  0  0  0
    2.5020   -1.4442    0.0000 N   0  0  0  0  0  0  0  0  0  0  0  0
    4.9710   -0.7771    0.0000 C   0  0  1  0  0  0  0  0  0  0  0  0
    4.9710    0.2229    0.0000 C   0  0  0  0  0  0  0  0  0  0  0  0
    4.1050    0.7229    0.0000 C   0  0  0  0  0  0  0  0  0  0  0  0
    3.8958   -2.2489    0.0000 C   0  0  0  0  0  0  0  0  0  0  0  0
    3.2390   -0.7771    0.0000 C   0  0  0  0  0  0  0  0  0  0  0  0
    5.7080    0.8900    0.0000 C   0  0  0  0  0  0  0  0  0  0  0  0
    2.9071   -2.3520    0.0000 C   0  0  0  0  0  0  0  0  0  0  0  0
    4.5165   -3.0777    0.0000 C   0  0  0  0  0  0  0  0  0  0  0  0
    3.6464    2.4390    0.0000 C   0  0  0  0  0  0  0  0  0  0  0  0
    6.6865    0.6838    0.0000 C   0  0  0  0  0  0  0  0  0  0  0  0
    2.4705   -3.2909    0.0000 C   0  0  0  0  0  0  0  0  0  0  0  0
    4.1019   -4.0265    0.0000 C   0  0  0  0  0  0  0  0  0  0  0  0
    3.0720   -4.1338    0.0000 C   0  0  0  0  0  0  0  0  0  0  0  0
    3.9570    3.3895    0.0000 C   0  0  0  0  0  0  0  0  0  0  0  0
    2.6678    2.2328    0.0000 C   0  0  0  0  0  0  0  0  0  0  0  0
    3.2892    4.1338    0.0000 C   0  0  0  0  0  0  0  0  0  0  0  0
    2.0000    2.9771    0.0000 C   0  0  0  0  0  0  0  0  0  0  0  0
    2.3107    3.9276    0.0000 C   0  0  0  0  0  0  0  0  0  0  0  0
    5.5080   -0.4671    0.0000 H   0  0  0  0  0  0  0  0  0  0  0  0
    5.1324   -3.0063    0.0000 H   0  0  0  0  0  0  0  0  0  0  0  0
    6.5587    0.0771    0.0000 H   0  0  0  0  0  0  0  0  0  0  0  0
    7.2932    0.5559    0.0000 H   0  0  0  0  0  0  0  0  0  0  0  0
    6.8144    1.2904    0.0000 H   0  0  0  0  0  0  0  0  0  0  0  0
    6.3740   -0.9671    0.0000 H   0  0  0  0  0  0  0  0  0  0  0  0
    1.8532   -3.3481    0.0000 H   0  0  0  0  0  0  0  0  0  0  0  0
    4.4678   -4.5270    0.0000 H   0  0  0  0  0  0  0  0  0  0  0  0
    2.8171   -4.6990    0.0000 H   0  0  0  0  0  0  0  0  0  0  0  0
    4.5637    3.5174    0.0000 H   0  0  0  0  0  0  0  0  0  0  0  0
    2.4752    1.6435    0.0000 H   0  0  0  0  0  0  0  0  0  0  0  0
    3.4818    4.7232    0.0000 H   0  0  0  0  0  0  0  0  0  0  0  0
    1.3933    2.8492    0.0000 H   0  0  0  0  0  0  0  0  0  0  0  0
    1.8966    4.3891    0.0000 H   0  0  0  0  0  0  0  0  0  0  0  0
  1  9  1  0  0  0  0
  1 11  1  0  0  0  0
  7  2  1  1  0  0  0
  2 30  1  0  0  0  0
  3  7  1  0  0  0  0
  3 10  1  0  0  0  0
  3 11  1  0  0  0  0
  4  5  1  0  0  0  0
  4  9  1  0  0  0  0
  4 15  1  0  0  0  0
  5 12  2  0  0  0  0
  6 11  2  0  0  0  0
  6 13  1  0  0  0  0
  7  8  1  0  0  0  0
  7 25  1  0  0  0  0
  8  9  2  0  0  0  0
  8 12  1  0  0  0  0
 10 13  1  0  0  0  0
 10 14  2  0  0  0  0
 12 16  1  0  0  0  0
 13 17  2  0  0  0  0
 14 18  1  0  0  0  0
 14 26  1  0  0  0  0
 15 20  2  0  0  0  0
 15 21  1  0  0  0  0
 16 27  1  0  0  0  0
 16 28  1  0  0  0  0
 16 29  1  0  0  0  0
 17 19  1  0  0  0  0
 17 31  1  0  0  0  0
 18 19  2  0  0  0  0
 18 32  1  0  0  0  0
 19 33  1  0  0  0  0
 20 22  1  0  0  0  0
 20 34  1  0  0  0  0
 21 23  2  0  0  0  0
 21 35  1  0  0  0  0
 22 24  2  0  0  0  0
 22 36  1  0  0  0  0
 23 24  1  0  0  0  0
 23 37  1  0  0  0  0
 24 38  1  0  0  0  0
M  END
> <PUBCHEM_COMPOUND_CID>
854324

> <PUBCHEM_COMPOUND_CANONICALIZED>
1

> <PUBCHEM_CACTVS_COMPLEXITY>
474

> <PUBCHEM_CACTVS_HBOND_ACCEPTOR>
4

> <PUBCHEM_CACTVS_HBOND_DONOR>
1

> <PUBCHEM_CACTVS_ROTATABLE_BOND>
1

> <PUBCHEM_CACTVS_SUBSKEYS>
AAADccB7oABAAAAAAAAAAAAAAAAAAWLAAAA8YIAAAAAAAFgB/AAAHgQICAAADAjh3gYz0bcMEgiiAyRiZACS1C1hGrAZ2DA4fJiIfuLg2dGU9AxuiALI2CcQAAAIAAAAAAAAACAAAAAAAAAAQAAAAAAAAA==

> <PUBCHEM_IUPAC_INCHI>
InChI=1S/C18H14N4OS/c1-11-15-16(23)21-14-10-6-5-9-13(14)19-18(21)24-17(15)22(20-11)12-7-3-2-4-8-12/h2-10,16,23H,1H3/t16-/m1/s1

> <PUBCHEM_IUPAC_INCHIKEY>
SBMNGBYQULPGSK-MRXNPFEDSA-N

> <PUBCHEM_XLOGP3_AA>
3.7

> <PUBCHEM_EXACT_MASS>
334.088832

> <PUBCHEM_MOLECULAR_FORMULA>
C18H14N4OS

> <PUBCHEM_MOLECULAR_WEIGHT>
334.39496

> <PUBCHEM_OPENEYE_CAN_SMILES>
CC1=NN(C2=C1C(N3C4=CC=CC=C4N=C3S2)O)C5=CC=CC=C5

> <PUBCHEM_OPENEYE_ISO_SMILES>
CC1=NN(C2=C1[C@H](N3C4=CC=CC=C4N=C3S2)O)C5=CC=CC=C5

> <PUBCHEM_CACTVS_TPSA>
81.2

> <PUBCHEM_MONOISOTOPIC_WEIGHT>
334.088832

> <PUBCHEM_TOTAL_CHARGE>
0

> <PUBCHEM_HEAVY_ATOM_COUNT>
24

> <PUBCHEM_ATOM_DEF_STEREO_COUNT>
1

> <PUBCHEM_ATOM_UDEF_STEREO_COUNT>
0

> <PUBCHEM_BOND_DEF_STEREO_COUNT>
0

> <PUBCHEM_BOND_UDEF_STEREO_COUNT>
0

> <PUBCHEM_ISOTOPIC_ATOM_COUNT>
0

> <PUBCHEM_COMPONENT_COUNT>
1

> <PUBCHEM_CACTVS_TAUTO_COUNT>
1

> <PUBCHEM_COORDINATE_TYPE>
1
5
255

> <PUBCHEM_BONDANNOTATIONS>
10  13  8
10  14  8
13  17  8
14  18  8
15  20  8
15  21  8
17  19  8
18  19  8
7  2  5
20  22  8
21  23  8
22  24  8
23  24  8
3  10  8
3  11  8
4  5  8
4  9  8
5  12  8
6  11  8
6  13  8
8  12  8
8  9  8

$$$$

