23724591
  -OEChem-07051213083D

 81 84  0     1  0  0  0  0  0999 V2000
   -8.4834    0.9329   -0.1293 O   0  0  0  0  0  0  0  0  0  0  0  0
    3.7747   -0.9172   -2.3437 O   0  0  0  0  0  0  0  0  0  0  0  0
    6.3201   -0.7059   -1.5889 O   0  0  0  0  0  0  0  0  0  0  0  0
    0.2013   -0.1007    0.0577 C   0  0  1  0  0  0  0  0  0  0  0  0
   -0.7774   -1.2836   -0.1079 C   0  0  2  0  0  0  0  0  0  0  0  0
   -2.1714   -0.9889    0.4573 C   0  0  1  0  0  0  0  0  0  0  0  0
   -2.7613    0.2482   -0.2951 C   0  0  1  0  0  0  0  0  0  0  0  0
   -4.2198    0.5892    0.1889 C   0  0  2  0  0  0  0  0  0  0  0  0
    1.4725   -0.7462   -0.5461 C   0  0  2  0  0  0  0  0  0  0  0  0
   -0.3579    1.0870   -0.7384 C   0  0  0  0  0  0  0  0  0  0  0  0
   -5.0870   -0.6973   -0.0012 C   0  0  1  0  0  0  0  0  0  0  0  0
   -1.7841    1.4534   -0.2881 C   0  0  0  0  0  0  0  0  0  0  0  0
    0.0059   -2.4759    0.4327 C   0  0  0  0  0  0  0  0  0  0  0  0
   -3.0964   -2.2083    0.3363 C   0  0  0  0  0  0  0  0  0  0  0  0
    1.4626   -2.1819    0.0294 C   0  0  0  0  0  0  0  0  0  0  0  0
   -4.5282   -1.8992    0.7681 C   0  0  0  0  0  0  0  0  0  0  0  0
   -4.8413    1.7113   -0.6911 C   0  0  0  0  0  0  0  0  0  0  0  0
    0.4376    0.3245    1.5289 C   0  0  0  0  0  0  0  0  0  0  0  0
    2.7875   -0.0197   -0.3027 C   0  0  1  0  0  0  0  0  0  0  0  0
   -6.5702   -0.4698    0.3166 C   0  0  0  0  0  0  0  0  0  0  0  0
   -4.2121    1.0721    1.6620 C   0  0  0  0  0  0  0  0  0  0  0  0
   -6.3306    1.9416   -0.4258 C   0  0  0  0  0  0  0  0  0  0  0  0
   -7.1473    0.6585   -0.5375 C   0  0  2  0  0  0  0  0  0  0  0  0
    4.0153   -0.7178   -0.9436 C   0  0  2  0  0  0  0  0  0  0  0  0
    2.6743    1.4279   -0.8071 C   0  0  0  0  0  0  0  0  0  0  0  0
    5.3682    0.0202   -0.8048 C   0  0  1  0  0  0  0  0  0  0  0  0
    5.8885    0.2118    0.6481 C   0  0  2  0  0  0  0  0  0  0  0  0
    7.1866    1.0820    0.6775 C   0  0  0  0  0  0  0  0  0  0  0  0
    6.0378   -1.1169    1.4017 C   0  0  0  0  0  0  0  0  0  0  0  0
    7.1030    2.4126   -0.0753 C   0  0  0  0  0  0  0  0  0  0  0  0
    7.6325    1.3563    2.1215 C   0  0  0  0  0  0  0  0  0  0  0  0
   -0.9115   -1.4747   -1.1861 H   0  0  0  0  0  0  0  0  0  0  0  0
   -2.0789   -0.7627    1.5242 H   0  0  0  0  0  0  0  0  0  0  0  0
   -2.8485   -0.0466   -1.3533 H   0  0  0  0  0  0  0  0  0  0  0  0
    1.3211   -0.8341   -1.6326 H   0  0  0  0  0  0  0  0  0  0  0  0
   -0.3809    0.8463   -1.8090 H   0  0  0  0  0  0  0  0  0  0  0  0
    0.2267    1.9997   -0.6368 H   0  0  0  0  0  0  0  0  0  0  0  0
   -5.0436   -0.9659   -1.0685 H   0  0  0  0  0  0  0  0  0  0  0  0
   -2.1537    2.2342   -0.9623 H   0  0  0  0  0  0  0  0  0  0  0  0
   -1.7393    1.9030    0.7086 H   0  0  0  0  0  0  0  0  0  0  0  0
   -0.0810   -2.5531    1.5223 H   0  0  0  0  0  0  0  0  0  0  0  0
   -0.3410   -3.4221    0.0049 H   0  0  0  0  0  0  0  0  0  0  0  0
   -2.7138   -3.0335    0.9482 H   0  0  0  0  0  0  0  0  0  0  0  0
   -3.1054   -2.5648   -0.7018 H   0  0  0  0  0  0  0  0  0  0  0  0
    2.1136   -2.2829    0.9053 H   0  0  0  0  0  0  0  0  0  0  0  0
    1.8105   -2.8991   -0.7225 H   0  0  0  0  0  0  0  0  0  0  0  0
   -4.5640   -1.7217    1.8489 H   0  0  0  0  0  0  0  0  0  0  0  0
   -5.1496   -2.7831    0.5792 H   0  0  0  0  0  0  0  0  0  0  0  0
   -4.7131    1.4565   -1.7514 H   0  0  0  0  0  0  0  0  0  0  0  0
   -4.3169    2.6609   -0.5334 H   0  0  0  0  0  0  0  0  0  0  0  0
    0.9046   -0.4688    2.1214 H   0  0  0  0  0  0  0  0  0  0  0  0
    1.0845    1.2031    1.6029 H   0  0  0  0  0  0  0  0  0  0  0  0
   -0.4905    0.5902    2.0421 H   0  0  0  0  0  0  0  0  0  0  0  0
    2.9841    0.0231    0.7753 H   0  0  0  0  0  0  0  0  0  0  0  0
   -6.7248   -0.2599    1.3816 H   0  0  0  0  0  0  0  0  0  0  0  0
   -7.1432   -1.3859    0.1221 H   0  0  0  0  0  0  0  0  0  0  0  0
   -3.7277    0.3625    2.3370 H   0  0  0  0  0  0  0  0  0  0  0  0
   -3.6873    2.0278    1.7632 H   0  0  0  0  0  0  0  0  0  0  0  0
   -5.2206    1.2325    2.0532 H   0  0  0  0  0  0  0  0  0  0  0  0
   -6.7168    2.6823   -1.1374 H   0  0  0  0  0  0  0  0  0  0  0  0
   -6.4786    2.3952    0.5619 H   0  0  0  0  0  0  0  0  0  0  0  0
   -7.1812    0.3343   -1.5848 H   0  0  0  0  0  0  0  0  0  0  0  0
    4.1126   -1.7282   -0.5338 H   0  0  0  0  0  0  0  0  0  0  0  0
    3.6350    1.9444   -0.8390 H   0  0  0  0  0  0  0  0  0  0  0  0
    2.2473    1.4820   -1.8135 H   0  0  0  0  0  0  0  0  0  0  0  0
    2.1001    2.0466   -0.1176 H   0  0  0  0  0  0  0  0  0  0  0  0
    5.2873    0.9794   -1.3177 H   0  0  0  0  0  0  0  0  0  0  0  0
   -8.8288    1.6355   -0.7060 H   0  0  0  0  0  0  0  0  0  0  0  0
    5.1221    0.7882    1.1838 H   0  0  0  0  0  0  0  0  0  0  0  0
    4.5436   -1.3882   -2.7078 H   0  0  0  0  0  0  0  0  0  0  0  0
    7.9953    0.5031    0.2118 H   0  0  0  0  0  0  0  0  0  0  0  0
    7.1147   -0.1550   -1.6835 H   0  0  0  0  0  0  0  0  0  0  0  0
    5.1088   -1.6936    1.3924 H   0  0  0  0  0  0  0  0  0  0  0  0
    6.8274   -1.7332    0.9600 H   0  0  0  0  0  0  0  0  0  0  0  0
    6.2792   -0.9575    2.4564 H   0  0  0  0  0  0  0  0  0  0  0  0
    7.0179    2.2609   -1.1550 H   0  0  0  0  0  0  0  0  0  0  0  0
    6.2418    2.9995    0.2609 H   0  0  0  0  0  0  0  0  0  0  0  0
    8.0048    3.0138    0.0849 H   0  0  0  0  0  0  0  0  0  0  0  0
    7.9354    0.4383    2.6333 H   0  0  0  0  0  0  0  0  0  0  0  0
    6.8316    1.8294    2.6996 H   0  0  0  0  0  0  0  0  0  0  0  0
    8.5012    2.0238    2.1426 H   0  0  0  0  0  0  0  0  0  0  0  0
  1 23  1  0  0  0  0
  1 68  1  0  0  0  0
  2 24  1  0  0  0  0
  2 70  1  0  0  0  0
  3 26  1  0  0  0  0
  3 72  1  0  0  0  0
  4  5  1  0  0  0  0
  4  9  1  0  0  0  0
  4 10  1  0  0  0  0
  4 18  1  0  0  0  0
  5  6  1  0  0  0  0
  5 13  1  0  0  0  0
  5 32  1  0  0  0  0
  6  7  1  0  0  0  0
  6 14  1  0  0  0  0
  6 33  1  0  0  0  0
  7  8  1  0  0  0  0
  7 12  1  0  0  0  0
  7 34  1  0  0  0  0
  8 11  1  0  0  0  0
  8 17  1  0  0  0  0
  8 21  1  0  0  0  0
  9 15  1  0  0  0  0
  9 19  1  0  0  0  0
  9 35  1  0  0  0  0
 10 12  1  0  0  0  0
 10 36  1  0  0  0  0
 10 37  1  0  0  0  0
 11 16  1  0  0  0  0
 11 20  1  0  0  0  0
 11 38  1  0  0  0  0
 12 39  1  0  0  0  0
 12 40  1  0  0  0  0
 13 15  1  0  0  0  0
 13 41  1  0  0  0  0
 13 42  1  0  0  0  0
 14 16  1  0  0  0  0
 14 43  1  0  0  0  0
 14 44  1  0  0  0  0
 15 45  1  0  0  0  0
 15 46  1  0  0  0  0
 16 47  1  0  0  0  0
 16 48  1  0  0  0  0
 17 22  1  0  0  0  0
 17 49  1  0  0  0  0
 17 50  1  0  0  0  0
 18 51  1  0  0  0  0
 18 52  1  0  0  0  0
 18 53  1  0  0  0  0
 19 24  1  0  0  0  0
 19 25  1  0  0  0  0
 19 54  1  0  0  0  0
 20 23  1  0  0  0  0
 20 55  1  0  0  0  0
 20 56  1  0  0  0  0
 21 57  1  0  0  0  0
 21 58  1  0  0  0  0
 21 59  1  0  0  0  0
 22 23  1  0  0  0  0
 22 60  1  0  0  0  0
 22 61  1  0  0  0  0
 23 62  1  0  0  0  0
 24 26  1  0  0  0  0
 24 63  1  0  0  0  0
 25 64  1  0  0  0  0
 25 65  1  0  0  0  0
 25 66  1  0  0  0  0
 26 27  1  0  0  0  0
 26 67  1  0  0  0  0
 27 28  1  0  0  0  0
 27 29  1  0  0  0  0
 27 69  1  0  0  0  0
 28 30  1  0  0  0  0
 28 31  1  0  0  0  0
 28 71  1  0  0  0  0
 29 73  1  0  0  0  0
 29 74  1  0  0  0  0
 29 75  1  0  0  0  0
 30 76  1  0  0  0  0
 30 77  1  0  0  0  0
 30 78  1  0  0  0  0
 31 79  1  0  0  0  0
 31 80  1  0  0  0  0
 31 81  1  0  0  0  0
M  END
> <PUBCHEM_COMPOUND_CID>
23724591

> <PUBCHEM_CONFORMER_RMSD>
1

> <PUBCHEM_CONFORMER_DIVERSEORDER>
2
8
3
6
4
9
11
7
1
5
10

> <PUBCHEM_MMFF94_PARTIAL_CHARGES>
9
1 -0.68
2 -0.68
23 0.28
24 0.28
26 0.28
3 -0.68
68 0.4
70 0.4
72 0.4

> <PUBCHEM_EFFECTIVE_ROTOR_COUNT>
7.2

> <PUBCHEM_PHARMACOPHORE_FEATURES>
13
1 1 acceptor
1 1 donor
1 2 acceptor
1 2 donor
1 25 hydrophobe
1 29 hydrophobe
1 3 acceptor
1 3 donor
3 28 30 31 hydrophobe
5 4 5 9 13 15 rings
6 4 5 6 7 10 12 rings
6 6 7 8 11 14 16 rings
6 8 11 17 20 22 23 rings

> <PUBCHEM_HEAVY_ATOM_COUNT>
31

> <PUBCHEM_ATOM_DEF_STEREO_COUNT>
11

> <PUBCHEM_ATOM_UDEF_STEREO_COUNT>
1

> <PUBCHEM_BOND_DEF_STEREO_COUNT>
0

> <PUBCHEM_BOND_UDEF_STEREO_COUNT>
0

> <PUBCHEM_ISOTOPIC_ATOM_COUNT>
0

> <PUBCHEM_COMPONENT_COUNT>
1

> <PUBCHEM_CACTVS_TAUTO_COUNT>
1

> <PUBCHEM_CONFORMER_ID>
016A022F00000002

> <PUBCHEM_MMFF94_ENERGY>
112.4635

> <PUBCHEM_FEATURE_SELFOVERLAP>
66.074

> <PUBCHEM_SHAPE_FINGERPRINT>
10 15 18131351891209081984
10835480 77 18186800266860962624
11135609 187 18339361989777781841
11135926 11 17917722309618756507
11181472 205 15430859064677053603
11315181 36 17967530169461476721
11331351 85 11671778269388148095
11719270 70 18341895229249012426
12236239 1 17275101730109278750
12516196 113 18113898281999569849
12616971 3 16558742404127626830
12838862 33 18271820029575515541
13533116 47 15792003524607996614
13673619 4 11527954456799945918
13685833 64 11959731581873473812
13811026 1 18187082867366836272
13914758 101 15123515838775546437
14028597 1 16773808029661895336
14251764 18 17989488506666612438
14294032 229 17702377540710979028
15183329 4 18272643562993337958
15328829 1 17131840888390814969
15461852 350 17895479128936935919
1577012 14 16917341511825282302
15840311 113 18130510820585033386
18608769 82 18341887460639364627
18681886 176 18412263905123417953
19611394 137 17416385595294332881
20281389 69 18201721768835865716
20511986 3 18272378593550111155
20554085 129 18334306361676728378
21033648 29 18115605746849189712
21130935 74 18411982481502329090
21150785 3 15502378923955476177
21521721 280 17676204675865819070
21792934 111 18131360738672919828
21859007 373 18059869392986517444
22224240 67 18342741823079028515
23081809 10 16773789273507649318
23559900 14 18335704914882019529
24771293 8 18408038520065631509
3004659 81 18130777950597634340
3009799 131 17749108893777688673
335352 9 18343579638444772151
34797466 226 17458340870611692822
350125 39 18343023284986324932
4073 2 17988637463276715602
4093350 32 17386001801665600062
4258327 124 16009319678207786728
4403749 210 17460326447621769166
5104073 3 18271796870357631208
54039377 194 12319472013265143568

> <PUBCHEM_SHAPE_MULTIPOLES>
620.36
22.23
2.25
1.39
7.58
0.36
-0.12
-10.29
-3.16
-0.38
-0.1
2.26
-0.08
1.35

> <PUBCHEM_SHAPE_SELFOVERLAP>
1279.964

> <PUBCHEM_SHAPE_VOLUME>
355.7

> <PUBCHEM_COORDINATE_TYPE>
2
5
10

$$$$

