11954056
  -OEChem-07051213063D

 58 59  0     1  0  0  0  0  0999 V2000
    0.5562    0.8835    0.0954 S   0  0  0  0  0  0  0  0  0  0  0  0
   -1.8332    1.3364   -3.0773 O   0  0  0  0  0  0  0  0  0  0  0  0
    4.0985    1.0354    1.4237 O   0  0  0  0  0  0  0  0  0  0  0  0
    3.3490   -2.7999   -1.3072 O   0  0  0  0  0  0  0  0  0  0  0  0
   -4.9060    1.3223    2.5777 O   0  5  0  0  0  0  0  0  0  0  0  0
   -6.0352    2.3216    0.9823 O   0  0  0  0  0  0  0  0  0  0  0  0
    1.1298   -4.9371   -1.1187 O   0  0  0  0  0  0  0  0  0  0  0  0
   -0.0440   -5.9311    0.5472 O   0  0  0  0  0  0  0  0  0  0  0  0
    2.3746    3.9810    0.3714 O   0  0  0  0  0  0  0  0  0  0  0  0
    3.9627    5.5065    0.9174 O   0  0  0  0  0  0  0  0  0  0  0  0
    3.0390   -1.1793    0.3275 N   0  0  0  0  0  0  0  0  0  0  0  0
   -5.1856    1.4865    1.3682 N   0  3  0  0  0  0  0  0  0  0  0  0
    4.0528    2.2161   -0.5728 N   0  0  0  0  0  0  0  0  0  0  0  0
   -0.8026   -3.4384    1.4463 N   0  0  0  0  0  0  0  0  0  0  0  0
   -0.6000    1.7432   -1.0354 C   0  0  1  0  0  0  0  0  0  0  0  0
   -1.4273    0.7238   -1.8486 C   0  0  1  0  0  0  0  0  0  0  0  0
   -2.6882    0.2686   -1.1517 C   0  0  0  0  0  0  0  0  0  0  0  0
   -3.3109    1.0991   -0.2008 C   0  0  0  0  0  0  0  0  0  0  0  0
   -1.4510    2.6733   -0.2126 C   0  0  0  0  0  0  0  0  0  0  0  0
    3.1417   -0.0268   -0.5373 C   0  0  1  0  0  0  0  0  0  0  0  0
    1.7926    0.3702   -1.1418 C   0  0  0  0  0  0  0  0  0  0  0  0
   -2.7064    2.3850    0.1576 C   0  0  0  0  0  0  0  0  0  0  0  0
   -3.2788   -0.9569   -1.4901 C   0  0  0  0  0  0  0  0  0  0  0  0
   -4.5114    0.6936    0.3944 C   0  0  0  0  0  0  0  0  0  0  0  0
    2.9945   -3.4915    0.9860 C   0  0  0  0  0  0  0  0  0  0  0  0
    3.8196    1.1074    0.2286 C   0  0  0  0  0  0  0  0  0  0  0  0
   -4.4698   -1.3562   -0.8848 C   0  0  0  0  0  0  0  0  0  0  0  0
   -5.0855   -0.5319    0.0547 C   0  0  0  0  0  0  0  0  0  0  0  0
    1.6343   -3.3857    1.6786 C   0  0  0  0  0  0  0  0  0  0  0  0
    3.1528   -2.4813   -0.1377 C   0  0  0  0  0  0  0  0  0  0  0  0
    0.4584   -3.5517    0.7096 C   0  0  1  0  0  0  0  0  0  0  0  0
    4.6614    3.4259   -0.0710 C   0  0  0  0  0  0  0  0  0  0  0  0
    0.4641   -4.9263    0.0655 C   0  0  0  0  0  0  0  0  0  0  0  0
    3.6537    4.4148    0.4558 C   0  0  0  0  0  0  0  0  0  0  0  0
   -0.0123    2.3702   -1.7166 H   0  0  0  0  0  0  0  0  0  0  0  0
   -0.8277   -0.1500   -2.1263 H   0  0  0  0  0  0  0  0  0  0  0  0
   -1.0203    3.6267    0.0837 H   0  0  0  0  0  0  0  0  0  0  0  0
    3.8157   -0.2938   -1.3623 H   0  0  0  0  0  0  0  0  0  0  0  0
    1.3825   -0.4837   -1.6912 H   0  0  0  0  0  0  0  0  0  0  0  0
    1.9307    1.1838   -1.8601 H   0  0  0  0  0  0  0  0  0  0  0  0
   -3.2624    3.1061    0.7452 H   0  0  0  0  0  0  0  0  0  0  0  0
   -2.8160   -1.6041   -2.2308 H   0  0  0  0  0  0  0  0  0  0  0  0
    2.8927   -1.0132    1.3186 H   0  0  0  0  0  0  0  0  0  0  0  0
   -1.0266    1.5570   -3.5738 H   0  0  0  0  0  0  0  0  0  0  0  0
    3.7925   -3.3152    1.7174 H   0  0  0  0  0  0  0  0  0  0  0  0
    3.1567   -4.4961    0.5815 H   0  0  0  0  0  0  0  0  0  0  0  0
   -4.9203   -2.3082   -1.1501 H   0  0  0  0  0  0  0  0  0  0  0  0
    1.5474   -2.4259    2.2023 H   0  0  0  0  0  0  0  0  0  0  0  0
    1.5925   -4.1626    2.4540 H   0  0  0  0  0  0  0  0  0  0  0  0
   -6.0152   -0.8595    0.5144 H   0  0  0  0  0  0  0  0  0  0  0  0
    0.4605   -2.7848   -0.0721 H   0  0  0  0  0  0  0  0  0  0  0  0
    3.8098    2.1866   -1.5580 H   0  0  0  0  0  0  0  0  0  0  0  0
    5.1997    3.8867   -0.9040 H   0  0  0  0  0  0  0  0  0  0  0  0
    5.3571    3.1739    0.7348 H   0  0  0  0  0  0  0  0  0  0  0  0
   -0.8512   -2.5272    1.9008 H   0  0  0  0  0  0  0  0  0  0  0  0
   -1.5842   -3.4689    0.7920 H   0  0  0  0  0  0  0  0  0  0  0  0
    1.1417   -5.8307   -1.5232 H   0  0  0  0  0  0  0  0  0  0  0  0
    1.7381    4.6408    0.7203 H   0  0  0  0  0  0  0  0  0  0  0  0
  1 15  1  0  0  0  0
  1 21  1  0  0  0  0
  2 16  1  0  0  0  0
  2 44  1  0  0  0  0
  3 26  2  0  0  0  0
  4 30  2  0  0  0  0
  5 12  1  0  0  0  0
  6 12  2  0  0  0  0
  7 33  1  0  0  0  0
  7 57  1  0  0  0  0
  8 33  2  0  0  0  0
  9 34  1  0  0  0  0
  9 58  1  0  0  0  0
 10 34  2  0  0  0  0
 11 20  1  0  0  0  0
 11 30  1  0  0  0  0
 11 43  1  0  0  0  0
 12 24  1  0  0  0  0
 13 26  1  0  0  0  0
 13 32  1  0  0  0  0
 13 52  1  0  0  0  0
 14 31  1  0  0  0  0
 14 55  1  0  0  0  0
 14 56  1  0  0  0  0
 15 16  1  0  0  0  0
 15 19  1  0  0  0  0
 15 35  1  0  0  0  0
 16 17  1  0  0  0  0
 16 36  1  0  0  0  0
 17 18  2  0  0  0  0
 17 23  1  0  0  0  0
 18 22  1  0  0  0  0
 18 24  1  0  0  0  0
 19 22  2  0  0  0  0
 19 37  1  0  0  0  0
 20 21  1  0  0  0  0
 20 26  1  0  0  0  0
 20 38  1  0  0  0  0
 21 39  1  0  0  0  0
 21 40  1  0  0  0  0
 22 41  1  0  0  0  0
 23 27  2  0  0  0  0
 23 42  1  0  0  0  0
 24 28  2  0  0  0  0
 25 29  1  0  0  0  0
 25 30  1  0  0  0  0
 25 45  1  0  0  0  0
 25 46  1  0  0  0  0
 27 28  1  0  0  0  0
 27 47  1  0  0  0  0
 28 50  1  0  0  0  0
 29 31  1  0  0  0  0
 29 48  1  0  0  0  0
 29 49  1  0  0  0  0
 31 33  1  0  0  0  0
 31 51  1  0  0  0  0
 32 34  1  0  0  0  0
 32 53  1  0  0  0  0
 32 54  1  0  0  0  0
M  CHG  2   5  -1  12   1
M  END
> <PUBCHEM_COMPOUND_CID>
11954056

> <PUBCHEM_CONFORMER_RMSD>
1.2

> <PUBCHEM_CONFORMER_DIVERSEORDER>
1
9
141
135
118
32
137
185
75
70
179
116
178
101
189
102
49
29
80
192
168
150
94
112
151
107
194
55
62
81
22
182
96
176
38
181
103
155
84
7
160
171
57
122
79
130
66
149
109
60
41
87
17
37
140
5
134
56
133
187
92
180
197
139
111
128
124
115
195
157
142
191
127
193
54
91
152
18
105
82
166
117
78
121
69
52
61
64
170
16
71
31
39
156
97
108
198
153
188
26
147
186
65
68
143
138
77
165
30
36
183
99
148
27
125
50
129
196
63
110
23
161
24
45
113
43
72
123
11
85
100
163
73
33
199
44
154
48
173
172
83
10
42
190
67
59
136
19
159
86
167
177
28
158
12
145
15
47
95
169
20
53
126
175
76
114
88
164
98
144
89
74
200
146
90
21
35
3
104
119
174
106
40
2
14
162
131
8
93
58
6
120
132
184
34
46
25
51
13
4

> <PUBCHEM_MMFF94_PARTIAL_CHARGES>
45
1 -0.46
10 -0.57
11 -0.73
12 0.91
13 -0.73
14 -0.99
15 0.37
16 0.42
17 -0.14
18 0.03
19 -0.29
2 -0.68
20 0.36
21 0.23
22 -0.18
23 -0.15
24 0.13
25 0.06
26 0.57
27 -0.15
28 -0.15
3 -0.57
30 0.57
31 0.33
32 0.36
33 0.66
34 0.66
37 0.15
4 -0.57
41 0.15
42 0.15
43 0.37
44 0.4
47 0.15
5 -0.52
50 0.15
52 0.37
55 0.36
56 0.36
57 0.5
58 0.5
6 -0.52
7 -0.65
8 -0.57
9 -0.65

> <PUBCHEM_EFFECTIVE_ROTOR_COUNT>
14.4

> <PUBCHEM_PHARMACOPHORE_FEATURES>
19
1 10 acceptor
1 11 donor
1 13 donor
1 14 cation
1 14 donor
1 2 acceptor
1 2 donor
1 3 acceptor
1 4 acceptor
1 5 acceptor
1 5 anion
1 6 acceptor
1 7 acceptor
1 8 acceptor
1 9 acceptor
3 7 8 33 anion
3 9 10 34 anion
6 15 16 17 18 19 22 rings
6 17 18 23 24 27 28 rings

> <PUBCHEM_HEAVY_ATOM_COUNT>
34

> <PUBCHEM_ATOM_DEF_STEREO_COUNT>
2

> <PUBCHEM_ATOM_UDEF_STEREO_COUNT>
2

> <PUBCHEM_BOND_DEF_STEREO_COUNT>
0

> <PUBCHEM_BOND_UDEF_STEREO_COUNT>
0

> <PUBCHEM_ISOTOPIC_ATOM_COUNT>
0

> <PUBCHEM_COMPONENT_COUNT>
1

> <PUBCHEM_CACTVS_TAUTO_COUNT>
4

> <PUBCHEM_CONFORMER_ID>
00B6678800000001

> <PUBCHEM_MMFF94_ENERGY>
72.1677

> <PUBCHEM_FEATURE_SELFOVERLAP>
96.637

> <PUBCHEM_SHAPE_FINGERPRINT>
10816530 23 18267583498977012312
12553582 1 17690575499358081990
12788726 201 17044879122940178056
13583140 156 18267876153521888605
16067690 210 16588014753880961977
19319366 153 18260828198162292873
21796203 349 18126271172362538882
23559900 14 18267316502076748860
23845131 108 18266744580210998088
4015057 19 17622472827212347077
463206 1 17694221471025340842
5776283 40 18265028346224935318
613672 6 17548441626850859590
6287921 2 18195253436540779179
653340 110 17762899866688889408
79837 15 17979074873305978256
86090 222 17487589014214625923
9777508 108 18050568435448960624

> <PUBCHEM_SHAPE_MULTIPOLES>
630.81
10.84
7.93
1.73
7.87
6.42
-0.24
-9.4
3.07
-9.86
2.24
1.47
-0.06
-0.35

> <PUBCHEM_SHAPE_SELFOVERLAP>
1298.64

> <PUBCHEM_SHAPE_VOLUME>
361.9

> <PUBCHEM_COORDINATE_TYPE>
2
5
10

$$$$

