5985
  -OEChem-06261201022D

 66 67  0     1  0  0  0  0  0999 V2000
   10.0240    5.5005    0.0000 S   0  0  0  0  0  0  0  0  0  0  0  0
    3.5010    8.9860    0.0000 O   0  0  0  0  0  0  0  0  0  0  0  0
    4.0010    2.1200    0.0000 O   0  0  0  0  0  0  0  0  0  0  0  0
    4.8671    3.6200    0.0000 O   0  0  0  0  0  0  0  0  0  0  0  0
    9.1580    5.0005    0.0000 O   0  0  0  0  0  0  0  0  0  0  0  0
    9.5240    6.3665    0.0000 O   0  0  0  0  0  0  0  0  0  0  0  0
   10.5240    4.6345    0.0000 O   0  0  0  0  0  0  0  0  0  0  0  0
    4.0010    6.1200    0.0000 N   0  0  0  0  0  0  0  0  0  0  0  0
    3.1350    3.6200    0.0000 N   0  0  0  0  0  0  0  0  0  0  0  0
   10.8900    6.0005    0.0000 N   0  0  0  0  0  0  0  0  0  0  0  0
    4.0010    8.1200    0.0000 C   0  0  0  0  0  0  0  0  0  0  0  0
    3.1350    7.6200    0.0000 C   0  0  0  0  0  0  0  0  0  0  0  0
    4.8671    7.6200    0.0000 C   0  0  0  0  0  0  0  0  0  0  0  0
    4.8671    6.6200    0.0000 C   0  0  0  0  0  0  0  0  0  0  0  0
    3.1350    6.6200    0.0000 C   0  0  0  0  0  0  0  0  0  0  0  0
    4.0010    5.1200    0.0000 C   0  0  0  0  0  0  0  0  0  0  0  0
    4.5010    8.9860    0.0000 C   0  0  0  0  0  0  0  0  0  0  0  0
    3.1350    4.6200    0.0000 C   0  0  3  0  0  0  0  0  0  0  0  0
    5.5010    8.9860    0.0000 C   0  0  0  0  0  0  0  0  0  0  0  0
    4.0010    9.8520    0.0000 C   0  0  0  0  0  0  0  0  0  0  0  0
    2.2690    5.1200    0.0000 C   0  0  0  0  0  0  0  0  0  0  0  0
    6.0010    9.8520    0.0000 C   0  0  0  0  0  0  0  0  0  0  0  0
    4.5010   10.7181    0.0000 C   0  0  0  0  0  0  0  0  0  0  0  0
    2.2690    3.1200    0.0000 C   0  0  0  0  0  0  0  0  0  0  0  0
    4.0010    3.1200    0.0000 C   0  0  0  0  0  0  0  0  0  0  0  0
    5.5010   10.7181    0.0000 C   0  0  0  0  0  0  0  0  0  0  0  0
    1.4030    3.6200    0.0000 C   0  0  0  0  0  0  0  0  0  0  0  0
    2.2690    2.1200    0.0000 C   0  0  0  0  0  0  0  0  0  0  0  0
    0.5369    3.1200    0.0000 C   0  0  0  0  0  0  0  0  0  0  0  0
    1.4030    1.6200    0.0000 C   0  0  0  0  0  0  0  0  0  0  0  0
    0.5369    2.1200    0.0000 C   0  0  0  0  0  0  0  0  0  0  0  0
    4.8671    1.6200    0.0000 C   0  0  0  0  0  0  0  0  0  0  0  0
    4.8671    0.6200    0.0000 C   0  0  0  0  0  0  0  0  0  0  0  0
    2.9230    8.2026    0.0000 H   0  0  0  0  0  0  0  0  0  0  0  0
    2.5244    7.5123    0.0000 H   0  0  0  0  0  0  0  0  0  0  0  0
    5.4776    7.5123    0.0000 H   0  0  0  0  0  0  0  0  0  0  0  0
    5.0791    8.2026    0.0000 H   0  0  0  0  0  0  0  0  0  0  0  0
    2.5244    6.7277    0.0000 H   0  0  0  0  0  0  0  0  0  0  0  0
    2.9230    6.0374    0.0000 H   0  0  0  0  0  0  0  0  0  0  0  0
    5.0791    6.0374    0.0000 H   0  0  0  0  0  0  0  0  0  0  0  0
    5.4776    6.7277    0.0000 H   0  0  0  0  0  0  0  0  0  0  0  0
    4.2131    4.5374    0.0000 H   0  0  0  0  0  0  0  0  0  0  0  0
    4.6116    5.2277    0.0000 H   0  0  0  0  0  0  0  0  0  0  0  0
    2.5981    4.3100    0.0000 H   0  0  0  0  0  0  0  0  0  0  0  0
    2.8810    8.9860    0.0000 H   0  0  0  0  0  0  0  0  0  0  0  0
    5.8110    8.4491    0.0000 H   0  0  0  0  0  0  0  0  0  0  0  0
    3.3810    9.8520    0.0000 H   0  0  0  0  0  0  0  0  0  0  0  0
    2.5790    5.6569    0.0000 H   0  0  0  0  0  0  0  0  0  0  0  0
    1.7320    5.4300    0.0000 H   0  0  0  0  0  0  0  0  0  0  0  0
    1.9590    4.5831    0.0000 H   0  0  0  0  0  0  0  0  0  0  0  0
    6.6210    9.8520    0.0000 H   0  0  0  0  0  0  0  0  0  0  0  0
    4.1910   11.2550    0.0000 H   0  0  0  0  0  0  0  0  0  0  0  0
    5.8110   11.2550    0.0000 H   0  0  0  0  0  0  0  0  0  0  0  0
    1.4030    4.2400    0.0000 H   0  0  0  0  0  0  0  0  0  0  0  0
    2.8059    1.8100    0.0000 H   0  0  0  0  0  0  0  0  0  0  0  0
    0.0000    3.4300    0.0000 H   0  0  0  0  0  0  0  0  0  0  0  0
    1.4030    1.0000    0.0000 H   0  0  0  0  0  0  0  0  0  0  0  0
    0.0000    1.8100    0.0000 H   0  0  0  0  0  0  0  0  0  0  0  0
    5.4776    1.5123    0.0000 H   0  0  0  0  0  0  0  0  0  0  0  0
    5.0791    2.2026    0.0000 H   0  0  0  0  0  0  0  0  0  0  0  0
    4.2471    0.6200    0.0000 H   0  0  0  0  0  0  0  0  0  0  0  0
    4.8671    0.0000    0.0000 H   0  0  0  0  0  0  0  0  0  0  0  0
    5.4871    0.6200    0.0000 H   0  0  0  0  0  0  0  0  0  0  0  0
   11.4270    5.6905    0.0000 H   0  0  0  0  0  0  0  0  0  0  0  0
   10.8900    6.6205    0.0000 H   0  0  0  0  0  0  0  0  0  0  0  0
    8.6210    5.3105    0.0000 H   0  0  0  0  0  0  0  0  0  0  0  0
  1  5  1  0  0  0  0
  1  6  2  0  0  0  0
  1  7  2  0  0  0  0
  1 10  1  0  0  0  0
  2 11  1  0  0  0  0
  2 45  1  0  0  0  0
  3 25  1  0  0  0  0
  3 32  1  0  0  0  0
  4 25  2  0  0  0  0
  5 66  1  0  0  0  0
  8 14  1  0  0  0  0
  8 15  1  0  0  0  0
  8 16  1  0  0  0  0
  9 18  1  0  0  0  0
  9 24  1  0  0  0  0
  9 25  1  0  0  0  0
 10 64  1  0  0  0  0
 10 65  1  0  0  0  0
 11 12  1  0  0  0  0
 11 13  1  0  0  0  0
 11 17  1  0  0  0  0
 12 15  1  0  0  0  0
 12 34  1  0  0  0  0
 12 35  1  0  0  0  0
 13 14  1  0  0  0  0
 13 36  1  0  0  0  0
 13 37  1  0  0  0  0
 14 40  1  0  0  0  0
 14 41  1  0  0  0  0
 15 38  1  0  0  0  0
 15 39  1  0  0  0  0
 16 18  1  0  0  0  0
 16 42  1  0  0  0  0
 16 43  1  0  0  0  0
 17 19  2  0  0  0  0
 17 20  1  0  0  0  0
 18 21  1  0  0  0  0
 18 44  1  0  0  0  0
 19 22  1  0  0  0  0
 19 46  1  0  0  0  0
 20 23  2  0  0  0  0
 20 47  1  0  0  0  0
 21 48  1  0  0  0  0
 21 49  1  0  0  0  0
 21 50  1  0  0  0  0
 22 26  2  0  0  0  0
 22 51  1  0  0  0  0
 23 26  1  0  0  0  0
 23 52  1  0  0  0  0
 24 27  2  0  0  0  0
 24 28  1  0  0  0  0
 26 53  1  0  0  0  0
 27 29  1  0  0  0  0
 27 54  1  0  0  0  0
 28 30  2  0  0  0  0
 28 55  1  0  0  0  0
 29 31  2  0  0  0  0
 29 56  1  0  0  0  0
 30 31  1  0  0  0  0
 30 57  1  0  0  0  0
 31 58  1  0  0  0  0
 32 33  1  0  0  0  0
 32 59  1  0  0  0  0
 32 60  1  0  0  0  0
 33 61  1  0  0  0  0
 33 62  1  0  0  0  0
 33 63  1  0  0  0  0
M  END
> <PUBCHEM_COMPOUND_CID>
5985

> <PUBCHEM_COMPOUND_CANONICALIZED>
1

> <PUBCHEM_CACTVS_COMPLEXITY>
571

> <PUBCHEM_CACTVS_HBOND_ACCEPTOR>
8

> <PUBCHEM_CACTVS_HBOND_DONOR>
3

> <PUBCHEM_CACTVS_ROTATABLE_BOND>
7

> <PUBCHEM_CACTVS_SUBSKEYS>
AAADcfB7OABAAAAAAAAAAAAAAAAAAAAAAAA8YIAAAAAAAAABQAAAHgAQSAAADGzhmAYyyIMABoCIAiRCWDCCAAAhAgAIiAAIbIgIZiLAkZGccAhmxgHI2AeQwOAOgAAAAAAAAAAAAAAAAAAAAAAAAAAAAA==

> <PUBCHEM_IUPAC_OPENEYE_NAME>
ethyl N-[2-(4-hydroxy-4-phenyl-1-piperidyl)-1-methyl-ethyl]-N-phenyl-carbamate; sulfamic acid

> <PUBCHEM_IUPAC_CAS_NAME>
N-[1-(4-hydroxy-4-phenyl-1-piperidinyl)propan-2-yl]-N-phenylcarbamic acid ethyl ester; sulfamic acid

> <PUBCHEM_IUPAC_NAME>
ethyl N-[1-(4-hydroxy-4-phenylpiperidin-1-yl)propan-2-yl]-N-phenylcarbamate; sulfamic acid

> <PUBCHEM_IUPAC_SYSTEMATIC_NAME>
ethyl N-[1-(4-oxidanyl-4-phenyl-piperidin-1-yl)propan-2-yl]-N-phenyl-carbamate; sulfamic acid

> <PUBCHEM_IUPAC_TRADITIONAL_NAME>
N-[2-(4-hydroxy-4-phenyl-piperidino)-1-methyl-ethyl]-N-phenyl-carbamic acid ethyl ester; sulfamic acid

> <PUBCHEM_IUPAC_INCHI>
InChI=1S/C23H30N2O3.H3NO3S/c1-3-28-22(26)25(21-12-8-5-9-13-21)19(2)18-24-16-14-23(27,15-17-24)20-10-6-4-7-11-20;1-5(2,3)4/h4-13,19,27H,3,14-18H2,1-2H3;(H3,1,2,3,4)

> <PUBCHEM_IUPAC_INCHIKEY>
WTBBQSREXFAQOR-UHFFFAOYSA-N

> <PUBCHEM_EXACT_MASS>
479.209007

> <PUBCHEM_MOLECULAR_FORMULA>
C23H33N3O6S

> <PUBCHEM_MOLECULAR_WEIGHT>
479.58962

> <PUBCHEM_OPENEYE_CAN_SMILES>
CCOC(=O)N(C1=CC=CC=C1)C(C)CN2CCC(CC2)(C3=CC=CC=C3)O.NS(=O)(=O)O

> <PUBCHEM_OPENEYE_ISO_SMILES>
CCOC(=O)N(C1=CC=CC=C1)C(C)CN2CCC(CC2)(C3=CC=CC=C3)O.NS(=O)(=O)O

> <PUBCHEM_CACTVS_TPSA>
142

> <PUBCHEM_MONOISOTOPIC_WEIGHT>
479.209007

> <PUBCHEM_TOTAL_CHARGE>
0

> <PUBCHEM_HEAVY_ATOM_COUNT>
33

> <PUBCHEM_ATOM_DEF_STEREO_COUNT>
0

> <PUBCHEM_ATOM_UDEF_STEREO_COUNT>
1

> <PUBCHEM_BOND_DEF_STEREO_COUNT>
0

> <PUBCHEM_BOND_UDEF_STEREO_COUNT>
0

> <PUBCHEM_ISOTOPIC_ATOM_COUNT>
0

> <PUBCHEM_COMPONENT_COUNT>
2

> <PUBCHEM_CACTVS_TAUTO_COUNT>
1

> <PUBCHEM_COORDINATE_TYPE>
1
5
255

> <PUBCHEM_BONDANNOTATIONS>
17  19  8
17  20  8
18  21  3
19  22  8
20  23  8
22  26  8
23  26  8
24  27  8
24  28  8
27  29  8
28  30  8
29  31  8
30  31  8

$$$$

