163913
  -OEChem-07051213063D

 42 41  0     1  0  0  0  0  0999 V2000
    3.0664    5.5268    0.1297 Cl  0  0  0  0  0  0  0  0  0  0  0  0
    1.6529    1.4571    0.4183 S   0  0  0  0  0  0  0  0  0  0  0  0
   -1.7938   -0.7082   -2.1828 O   0  0  0  0  0  0  0  0  0  0  0  0
    1.4370   -2.2855    0.9483 O   0  0  0  0  0  0  0  0  0  0  0  0
   -4.8443    0.0810    2.3022 O   0  0  0  0  0  0  0  0  0  0  0  0
   -5.9494    1.4804    0.9016 O   0  0  0  0  0  0  0  0  0  0  0  0
    2.2493    3.2304   -1.4428 O   0  0  0  0  0  0  0  0  0  0  0  0
    4.5826   -0.5981    0.8300 O   0  0  0  0  0  0  0  0  0  0  0  0
    5.9261   -2.3714    1.2757 O   0  0  0  0  0  0  0  0  0  0  0  0
   -0.4977   -0.8636   -0.2616 N   0  0  0  0  0  0  0  0  0  0  0  0
    2.9707   -1.9108   -0.7516 N   0  0  0  0  0  0  0  0  0  0  0  0
   -6.6639   -0.6902   -0.6397 N   0  0  0  0  0  0  0  0  0  0  0  0
    0.7921   -0.8672   -0.9123 C   0  0  1  0  0  0  0  0  0  0  0  0
   -4.2192   -0.7023   -0.7771 C   0  0  0  0  0  0  0  0  0  0  0  0
   -2.8895   -0.7899   -0.0252 C   0  0  0  0  0  0  0  0  0  0  0  0
   -5.4351   -0.7813    0.1527 C   0  0  1  0  0  0  0  0  0  0  0  0
   -1.6929   -0.7835   -0.9613 C   0  0  0  0  0  0  0  0  0  0  0  0
    1.3392    0.5458   -1.1289 C   0  0  0  0  0  0  0  0  0  0  0  0
    1.7402   -1.7700   -0.1258 C   0  0  0  0  0  0  0  0  0  0  0  0
   -5.4596    0.3811    1.1287 C   0  0  0  0  0  0  0  0  0  0  0  0
    4.0448   -2.6965   -0.1904 C   0  0  0  0  0  0  0  0  0  0  0  0
    2.1770    3.0099   -0.2410 C   0  0  0  0  0  0  0  0  0  0  0  0
    4.9507   -1.8947    0.7083 C   0  0  0  0  0  0  0  0  0  0  0  0
    2.5161    4.0006    0.8449 C   0  0  0  0  0  0  0  0  0  0  0  0
    0.6620   -1.3332   -1.8982 H   0  0  0  0  0  0  0  0  0  0  0  0
   -4.2702   -1.5148   -1.5142 H   0  0  0  0  0  0  0  0  0  0  0  0
   -4.2404    0.2367   -1.3473 H   0  0  0  0  0  0  0  0  0  0  0  0
   -2.8550   -1.7104    0.5696 H   0  0  0  0  0  0  0  0  0  0  0  0
   -2.7748    0.0618    0.6545 H   0  0  0  0  0  0  0  0  0  0  0  0
   -5.4455   -1.7250    0.7092 H   0  0  0  0  0  0  0  0  0  0  0  0
   -0.5220   -0.8980    0.7539 H   0  0  0  0  0  0  0  0  0  0  0  0
    2.2726    0.5172   -1.7002 H   0  0  0  0  0  0  0  0  0  0  0  0
    0.6159    1.1229   -1.7167 H   0  0  0  0  0  0  0  0  0  0  0  0
    3.1340   -1.4654   -1.6492 H   0  0  0  0  0  0  0  0  0  0  0  0
   -7.4721   -0.8250   -0.0329 H   0  0  0  0  0  0  0  0  0  0  0  0
   -6.6897   -1.4508   -1.3178 H   0  0  0  0  0  0  0  0  0  0  0  0
    4.6351   -3.0816   -1.0266 H   0  0  0  0  0  0  0  0  0  0  0  0
    3.6240   -3.5245    0.3875 H   0  0  0  0  0  0  0  0  0  0  0  0
   -4.8516    0.8402    2.9232 H   0  0  0  0  0  0  0  0  0  0  0  0
    3.3251    3.6159    1.4718 H   0  0  0  0  0  0  0  0  0  0  0  0
    1.6325    4.2151    1.4520 H   0  0  0  0  0  0  0  0  0  0  0  0
    5.1864   -0.0984    1.4200 H   0  0  0  0  0  0  0  0  0  0  0  0
  1 24  1  0  0  0  0
  2 18  1  0  0  0  0
  2 22  1  0  0  0  0
  3 17  2  0  0  0  0
  4 19  2  0  0  0  0
  5 20  1  0  0  0  0
  5 39  1  0  0  0  0
  6 20  2  0  0  0  0
  7 22  2  0  0  0  0
  8 23  1  0  0  0  0
  8 42  1  0  0  0  0
  9 23  2  0  0  0  0
 10 13  1  0  0  0  0
 10 17  1  0  0  0  0
 10 31  1  0  0  0  0
 11 19  1  0  0  0  0
 11 21  1  0  0  0  0
 11 34  1  0  0  0  0
 12 16  1  0  0  0  0
 12 35  1  0  0  0  0
 12 36  1  0  0  0  0
 13 18  1  0  0  0  0
 13 19  1  0  0  0  0
 13 25  1  0  0  0  0
 14 15  1  0  0  0  0
 14 16  1  0  0  0  0
 14 26  1  0  0  0  0
 14 27  1  0  0  0  0
 15 17  1  0  0  0  0
 15 28  1  0  0  0  0
 15 29  1  0  0  0  0
 16 20  1  0  0  0  0
 16 30  1  0  0  0  0
 18 32  1  0  0  0  0
 18 33  1  0  0  0  0
 21 23  1  0  0  0  0
 21 37  1  0  0  0  0
 21 38  1  0  0  0  0
 22 24  1  0  0  0  0
 24 40  1  0  0  0  0
 24 41  1  0  0  0  0
M  END
> <PUBCHEM_COMPOUND_CID>
163913

> <PUBCHEM_CONFORMER_RMSD>
1.2

> <PUBCHEM_CONFORMER_DIVERSEORDER>
1
16
35
32
12
24
50
47
49
45
54
15
34
14
6
55
40
58
53
10
23
26
36
41
18
27
46
2
31
19
8
21
11
5
39
43
52
57
59
17
13
25
37
4
44
7
42
3
38
33
20
48
56
51
22
28
30
9
29

> <PUBCHEM_MMFF94_PARTIAL_CHARGES>
29
1 -0.29
10 -0.73
11 -0.73
12 -0.99
13 0.36
15 0.06
16 0.33
17 0.57
18 0.23
19 0.57
2 -0.37
20 0.66
21 0.36
22 0.65
23 0.66
24 0.35
3 -0.57
31 0.37
34 0.37
35 0.36
36 0.36
39 0.5
4 -0.57
42 0.5
5 -0.65
6 -0.57
7 -0.57
8 -0.65
9 -0.57

> <PUBCHEM_EFFECTIVE_ROTOR_COUNT>
14

> <PUBCHEM_PHARMACOPHORE_FEATURES>
12
1 10 donor
1 11 donor
1 12 cation
1 12 donor
1 3 acceptor
1 4 acceptor
1 5 acceptor
1 6 acceptor
1 8 acceptor
1 9 acceptor
3 5 6 20 anion
3 8 9 23 anion

> <PUBCHEM_HEAVY_ATOM_COUNT>
24

> <PUBCHEM_ATOM_DEF_STEREO_COUNT>
2

> <PUBCHEM_ATOM_UDEF_STEREO_COUNT>
0

> <PUBCHEM_BOND_DEF_STEREO_COUNT>
0

> <PUBCHEM_BOND_UDEF_STEREO_COUNT>
0

> <PUBCHEM_ISOTOPIC_ATOM_COUNT>
0

> <PUBCHEM_COMPONENT_COUNT>
1

> <PUBCHEM_CACTVS_TAUTO_COUNT>
4

> <PUBCHEM_CONFORMER_ID>
0002804900000001

> <PUBCHEM_MMFF94_ENERGY>
31.4202

> <PUBCHEM_FEATURE_SELFOVERLAP>
61.01

> <PUBCHEM_SHAPE_FINGERPRINT>
11049842 53 16878207710895991911
11405975 8 18340199709647325331
12403259 118 18040992977961465423
12616971 3 18187352243563177123
13540713 5 17970924258081264303
13590594 115 18338512070403336665
13899415 154 18411975871926890334
13955234 65 18340768139545934522
14466204 15 18194962074733293761
14739800 52 17605563149809823481
14849402 71 18339638949836964128
14955137 171 18336258054692325918
15081414 286 18409176515227477508
17138139 8 12390928087277118529
17980427 23 17604161392500451965
17980427 26 18119258259735946724
1813 80 18262793094450554238
18785283 64 18271244907141477780
21033648 29 17388281149489550099
21304253 13 18336269024328527738
249057 25 17967813830592137677
25147074 1 17896051948788715087
5104073 3 18339349774553539515
5895379 119 17024565975849606217
6823239 73 16200144374798740501
6898599 12 8139221201586230954
9841814 1 18412819205492269398
9981440 41 17762342413903165208

> <PUBCHEM_SHAPE_MULTIPOLES>
443.6
14.02
5.18
1.45
20.26
8.86
-0.06
-3.3
-5.25
-12.16
-0.5
0.86
-0.04
-1.9

> <PUBCHEM_SHAPE_SELFOVERLAP>
848.552

> <PUBCHEM_SHAPE_VOLUME>
270.5

> <PUBCHEM_COORDINATE_TYPE>
2
5
10

$$$$

