38479
  -OEChem-07051213003D

 39 39  0     0  0  0  0  0  0999 V2000
   -1.8280    3.0913   -0.0652 O   0  5  0  0  0  0  0  0  0  0  0  0
    0.2835    2.6709   -0.4937 O   0  0  0  0  0  0  0  0  0  0  0  0
    0.3597   -3.5767   -0.4360 O   0  5  0  0  0  0  0  0  0  0  0  0
    1.8095   -1.9591   -0.7528 O   0  0  0  0  0  0  0  0  0  0  0  0
    1.1950    0.4236   -0.6573 N   0  0  0  0  0  0  0  0  0  0  0  0
   -0.8838    2.2905   -0.2504 N   0  3  0  0  0  0  0  0  0  0  0  0
    0.6474   -2.3594   -0.5095 N   0  3  0  0  0  0  0  0  0  0  0  0
    2.1808    0.6952    0.3698 C   0  0  0  0  0  0  0  0  0  0  0  0
    3.5875    0.4451   -0.1934 C   0  0  0  0  0  0  0  0  0  0  0  0
    1.9192   -0.2059    1.5863 C   0  0  0  0  0  0  0  0  0  0  0  0
   -0.0871   -0.0182   -0.3875 C   0  0  0  0  0  0  0  0  0  0  0  0
   -1.1485    0.8907   -0.1811 C   0  0  0  0  0  0  0  0  0  0  0  0
   -0.3827   -1.3971   -0.3100 C   0  0  0  0  0  0  0  0  0  0  0  0
   -2.4416    0.4425    0.0891 C   0  0  0  0  0  0  0  0  0  0  0  0
    3.9006    1.3127   -1.4062 C   0  0  0  0  0  0  0  0  0  0  0  0
    2.9055    0.0370    2.7219 C   0  0  0  0  0  0  0  0  0  0  0  0
   -2.7051   -0.9255    0.1599 C   0  0  0  0  0  0  0  0  0  0  0  0
   -1.6758   -1.8451   -0.0397 C   0  0  0  0  0  0  0  0  0  0  0  0
   -3.5556    1.4191    0.3068 C   0  0  0  0  0  0  0  0  0  0  0  0
   -4.0806   -1.4317    0.4490 C   0  0  0  0  0  0  0  0  0  0  0  0
    2.1198    1.7390    0.6965 H   0  0  0  0  0  0  0  0  0  0  0  0
    4.3355    0.6921    0.5686 H   0  0  0  0  0  0  0  0  0  0  0  0
    3.7540   -0.6033   -0.4556 H   0  0  0  0  0  0  0  0  0  0  0  0
    1.9837   -1.2726    1.3824 H   0  0  0  0  0  0  0  0  0  0  0  0
    0.9201   -0.0108    1.9949 H   0  0  0  0  0  0  0  0  0  0  0  0
    1.2455    1.0405   -1.4639 H   0  0  0  0  0  0  0  0  0  0  0  0
    3.3044    1.0219   -2.2763 H   0  0  0  0  0  0  0  0  0  0  0  0
    3.7162    2.3706   -1.1936 H   0  0  0  0  0  0  0  0  0  0  0  0
    4.9548    1.2033   -1.6815 H   0  0  0  0  0  0  0  0  0  0  0  0
    3.9057   -0.3340    2.4799 H   0  0  0  0  0  0  0  0  0  0  0  0
    2.9742    1.1015    2.9674 H   0  0  0  0  0  0  0  0  0  0  0  0
    2.5750   -0.4930    3.6218 H   0  0  0  0  0  0  0  0  0  0  0  0
   -1.9047   -2.9067    0.0205 H   0  0  0  0  0  0  0  0  0  0  0  0
   -3.3866    2.0334    1.1985 H   0  0  0  0  0  0  0  0  0  0  0  0
   -3.7528    2.0148   -0.5917 H   0  0  0  0  0  0  0  0  0  0  0  0
   -4.5183    0.9410    0.5085 H   0  0  0  0  0  0  0  0  0  0  0  0
   -4.1096   -2.5273    0.4684 H   0  0  0  0  0  0  0  0  0  0  0  0
   -4.4232   -1.0930    1.4324 H   0  0  0  0  0  0  0  0  0  0  0  0
   -4.7849   -1.1148   -0.3273 H   0  0  0  0  0  0  0  0  0  0  0  0
  1  6  1  0  0  0  0
  2  6  2  0  0  0  0
  3  7  1  0  0  0  0
  4  7  2  0  0  0  0
  5  8  1  0  0  0  0
  5 11  1  0  0  0  0
  5 26  1  0  0  0  0
  6 12  1  0  0  0  0
  7 13  1  0  0  0  0
  8  9  1  0  0  0  0
  8 10  1  0  0  0  0
  8 21  1  0  0  0  0
  9 15  1  0  0  0  0
  9 22  1  0  0  0  0
  9 23  1  0  0  0  0
 10 16  1  0  0  0  0
 10 24  1  0  0  0  0
 10 25  1  0  0  0  0
 11 12  1  0  0  0  0
 11 13  2  0  0  0  0
 12 14  2  0  0  0  0
 13 18  1  0  0  0  0
 14 17  1  0  0  0  0
 14 19  1  0  0  0  0
 15 27  1  0  0  0  0
 15 28  1  0  0  0  0
 15 29  1  0  0  0  0
 16 30  1  0  0  0  0
 16 31  1  0  0  0  0
 16 32  1  0  0  0  0
 17 18  2  0  0  0  0
 17 20  1  0  0  0  0
 18 33  1  0  0  0  0
 19 34  1  0  0  0  0
 19 35  1  0  0  0  0
 19 36  1  0  0  0  0
 20 37  1  0  0  0  0
 20 38  1  0  0  0  0
 20 39  1  0  0  0  0
M  CHG  4   1  -1   3  -1   6   1   7   1
M  END
> <PUBCHEM_COMPOUND_CID>
38479

> <PUBCHEM_CONFORMER_RMSD>
0.8

> <PUBCHEM_CONFORMER_DIVERSEORDER>
1
2

> <PUBCHEM_MMFF94_PARTIAL_CHARGES>
18
1 -0.52
11 0.1
12 0.13
13 0.13
14 -0.14
17 -0.14
18 -0.15
19 0.14
2 -0.52
20 0.14
26 0.4
3 -0.52
33 0.15
4 -0.52
5 -0.87
6 0.91
7 0.91
8 0.37

> <PUBCHEM_EFFECTIVE_ROTOR_COUNT>
6

> <PUBCHEM_PHARMACOPHORE_FEATURES>
11
1 1 acceptor
1 1 anion
1 15 hydrophobe
1 16 hydrophobe
1 2 acceptor
1 3 acceptor
1 3 anion
1 4 acceptor
1 5 cation
1 5 donor
6 11 12 13 14 17 18 rings

> <PUBCHEM_HEAVY_ATOM_COUNT>
20

> <PUBCHEM_ATOM_DEF_STEREO_COUNT>
0

> <PUBCHEM_ATOM_UDEF_STEREO_COUNT>
0

> <PUBCHEM_BOND_DEF_STEREO_COUNT>
0

> <PUBCHEM_BOND_UDEF_STEREO_COUNT>
0

> <PUBCHEM_ISOTOPIC_ATOM_COUNT>
0

> <PUBCHEM_COMPONENT_COUNT>
1

> <PUBCHEM_CACTVS_TAUTO_COUNT>
1

> <PUBCHEM_CONFORMER_ID>
0000964F00000001

> <PUBCHEM_MMFF94_ENERGY>
104.1697

> <PUBCHEM_FEATURE_SELFOVERLAP>
55.981

> <PUBCHEM_SHAPE_FINGERPRINT>
10498660 4 18411976962041605013
10764073 3 11155044457621125668
10967382 1 18266170635045899015
11680986 33 17976548530497560183
12236239 1 17846218804910664684
12382932 28 18412266164075677825
12553582 1 18267307526027512803
13140716 1 18195233641400235979
13583140 156 16558464309517368997
14178342 30 18335703858203708499
14251745 187 18260821618466937214
14787075 74 16911140089960984418
14790565 3 18194380239777919861
15309172 13 18409161086966387555
15375462 175 18408887321751482784
15375462 189 17917155970276132376
15852999 172 17621642648140316948
16752209 62 18338246972204964695
16945 1 18335146341072731919
18186145 218 17095522859710531882
193761 8 18122338244860016959
19591789 44 18266166245383535750
19765921 60 17127611961013241476
20028762 73 17754163186124413079
20510252 161 18261386724225318577
20511035 2 17757004654285786486
20905425 154 18262511623409952223
21501502 16 18265049313547936911
22112679 90 17980504277340257650
2334 1 18409726287968254519
23366157 5 18057874943281226366
23388829 49 18264778657926069927
23402539 116 18261393274039674902
23419403 2 15956160885301811394
23493267 7 18202273684949796994
23526113 38 17676477393878778668
23559900 14 18194404621868883238
23598294 1 18341052917310259000
2748010 2 18337104687504588863
3286 77 16515957065148062806
34934 24 17980200777618408692
350125 39 17904752633296743057
43471831 8 18412542128224680390
465052 167 17986387794283871275
484985 159 15402789752174348986
589210 1 18122061176435290895
7097593 13 17699873987367960642
7364860 26 18046060724941821494
77492 1 17845943935382535096
81228 2 17611212380418616622
90316 7 18129119933680301777

> <PUBCHEM_SHAPE_MULTIPOLES>
373.17
6.04
3.1
1.35
0.27
0.26
-1.03
-0.86
-0.68
-1.23
0.82
1.89
0.1
-0.33

> <PUBCHEM_SHAPE_SELFOVERLAP>
774.152

> <PUBCHEM_SHAPE_VOLUME>
213.5

> <PUBCHEM_COORDINATE_TYPE>
2
5
10

$$$$

