440659
  -OEChem-07051212503D

 43 44  0     1  0  0  0  0  0999 V2000
   -0.2040   -0.4210   -0.8099 O   0  0  0  0  0  0  0  0  0  0  0  0
   -3.7194   -0.6674    0.1878 O   0  0  0  0  0  0  0  0  0  0  0  0
    1.7928    0.7785   -0.6648 O   0  0  0  0  0  0  0  0  0  0  0  0
   -0.6987    2.0946    0.5253 O   0  0  0  0  0  0  0  0  0  0  0  0
   -3.4729    2.9761    0.0700 O   0  0  0  0  0  0  0  0  0  0  0  0
   -5.3414    0.9381    0.6730 O   0  0  0  0  0  0  0  0  0  0  0  0
    0.9920   -2.5018    0.7288 O   0  0  0  0  0  0  0  0  0  0  0  0
   -3.3743   -3.2234   -0.7630 O   0  0  0  0  0  0  0  0  0  0  0  0
    4.3565   -0.4900   -1.1725 O   0  0  0  0  0  0  0  0  0  0  0  0
    3.5679   -2.1416    1.4462 O   0  0  0  0  0  0  0  0  0  0  0  0
    4.8123    2.5897    0.1873 O   0  0  0  0  0  0  0  0  0  0  0  0
   -1.3651   -0.1350   -0.0344 C   0  0  1  0  0  0  0  0  0  0  0  0
   -1.7052    1.3500   -0.1623 C   0  0  1  0  0  0  0  0  0  0  0  0
   -2.5270   -1.0025   -0.5242 C   0  0  1  0  0  0  0  0  0  0  0  0
   -3.0726    1.6590    0.4473 C   0  0  2  0  0  0  0  0  0  0  0  0
    0.9891   -0.2304   -0.0503 C   0  0  2  0  0  0  0  0  0  0  0  0
   -4.1355    0.6763   -0.0442 C   0  0  1  0  0  0  0  0  0  0  0  0
    1.7383   -1.5591   -0.0177 C   0  0  1  0  0  0  0  0  0  0  0  0
    2.9785    1.0614    0.0901 C   0  0  1  0  0  0  0  0  0  0  0  0
   -2.2580   -2.4869   -0.2980 C   0  0  0  0  0  0  0  0  0  0  0  0
    3.8900   -0.1669    0.1263 C   0  0  1  0  0  0  0  0  0  0  0  0
    3.1006   -1.3585    0.6213 C   0  0  0  0  0  0  0  0  0  0  0  0
    3.6561    2.2606   -0.5621 C   0  0  0  0  0  0  0  0  0  0  0  0
   -1.2000   -0.3781    1.0255 H   0  0  0  0  0  0  0  0  0  0  0  0
   -1.6631    1.6654   -1.2120 H   0  0  0  0  0  0  0  0  0  0  0  0
   -2.7053   -0.8489   -1.5973 H   0  0  0  0  0  0  0  0  0  0  0  0
   -2.9965    1.6472    1.5418 H   0  0  0  0  0  0  0  0  0  0  0  0
    0.7722    0.0827    0.9798 H   0  0  0  0  0  0  0  0  0  0  0  0
   -4.3615    0.8179   -1.1075 H   0  0  0  0  0  0  0  0  0  0  0  0
    1.8811   -1.9535   -1.0300 H   0  0  0  0  0  0  0  0  0  0  0  0
    2.6896    1.3292    1.1156 H   0  0  0  0  0  0  0  0  0  0  0  0
   -2.1259   -2.7148    0.7648 H   0  0  0  0  0  0  0  0  0  0  0  0
   -1.3740   -2.8252   -0.8456 H   0  0  0  0  0  0  0  0  0  0  0  0
    4.7526   -0.0056    0.7802 H   0  0  0  0  0  0  0  0  0  0  0  0
   -0.9369    3.0350    0.4579 H   0  0  0  0  0  0  0  0  0  0  0  0
    2.9841    3.1256   -0.5847 H   0  0  0  0  0  0  0  0  0  0  0  0
    3.9450    2.0567   -1.5982 H   0  0  0  0  0  0  0  0  0  0  0  0
   -4.3452    3.1409    0.4671 H   0  0  0  0  0  0  0  0  0  0  0  0
   -5.1133    1.1452    1.5946 H   0  0  0  0  0  0  0  0  0  0  0  0
    1.4485   -3.3577    0.6597 H   0  0  0  0  0  0  0  0  0  0  0  0
   -4.1554   -2.9147   -0.2726 H   0  0  0  0  0  0  0  0  0  0  0  0
    3.5996   -0.4755   -1.7827 H   0  0  0  0  0  0  0  0  0  0  0  0
    4.5258    2.8178    1.0880 H   0  0  0  0  0  0  0  0  0  0  0  0
  1 12  1  0  0  0  0
  1 16  1  0  0  0  0
  2 14  1  0  0  0  0
  2 17  1  0  0  0  0
  3 16  1  0  0  0  0
  3 19  1  0  0  0  0
  4 13  1  0  0  0  0
  4 35  1  0  0  0  0
  5 15  1  0  0  0  0
  5 38  1  0  0  0  0
  6 17  1  0  0  0  0
  6 39  1  0  0  0  0
  7 18  1  0  0  0  0
  7 40  1  0  0  0  0
  8 20  1  0  0  0  0
  8 41  1  0  0  0  0
  9 21  1  0  0  0  0
  9 42  1  0  0  0  0
 10 22  2  0  0  0  0
 11 23  1  0  0  0  0
 11 43  1  0  0  0  0
 12 13  1  0  0  0  0
 12 14  1  0  0  0  0
 12 24  1  0  0  0  0
 13 15  1  0  0  0  0
 13 25  1  0  0  0  0
 14 20  1  0  0  0  0
 14 26  1  0  0  0  0
 15 17  1  0  0  0  0
 15 27  1  0  0  0  0
 16 18  1  0  0  0  0
 16 28  1  0  0  0  0
 17 29  1  0  0  0  0
 18 22  1  0  0  0  0
 18 30  1  0  0  0  0
 19 21  1  0  0  0  0
 19 23  1  0  0  0  0
 19 31  1  0  0  0  0
 20 32  1  0  0  0  0
 20 33  1  0  0  0  0
 21 22  1  0  0  0  0
 21 34  1  0  0  0  0
 23 36  1  0  0  0  0
 23 37  1  0  0  0  0
M  END
> <PUBCHEM_COMPOUND_CID>
440659

> <PUBCHEM_CONFORMER_RMSD>
0.8

> <PUBCHEM_CONFORMER_DIVERSEORDER>
8
89
11
120
44
19
74
152
107
90
73
135
101
96
92
39
33
91
48
163
24
2
128
49
141
34
26
122
52
146
94
67
76
55
125
117
124
36
30
23
106
14
95
38
105
75
145
53
85
144
123
138
22
81
129
65
133
158
15
155
72
114
9
113
84
66
127
79
142
147
151
47
150
63
100
57
7
13
40
159
149
50
27
86
16
143
1
160
42
21
156
69
61
116
115
110
119
29
32
70
3
154
68
103
136
139
104
130
64
28
83
43
6
80
137
109
97
111
59
5
62
134
25
35
20
4
87
112
56
12
46
41
99
157
121
108
58
153
78
82
37
131
18
118
98
54
60
93
148
10
17
51
132
126
88
77
71
102
140
31
45
162
161

> <PUBCHEM_MMFF94_PARTIAL_CHARGES>
30
1 -0.56
10 -0.57
11 -0.68
12 0.28
13 0.28
14 0.28
15 0.28
16 0.56
17 0.56
18 0.34
19 0.28
2 -0.56
20 0.28
21 0.34
22 0.45
23 0.28
3 -0.56
35 0.4
38 0.4
39 0.4
4 -0.68
40 0.4
41 0.4
42 0.4
43 0.4
5 -0.68
6 -0.68
7 -0.68
8 -0.68
9 -0.68

> <PUBCHEM_EFFECTIVE_ROTOR_COUNT>
6.2

> <PUBCHEM_PHARMACOPHORE_FEATURES>
20
1 1 acceptor
1 10 acceptor
1 11 acceptor
1 11 donor
1 2 acceptor
1 3 acceptor
1 4 acceptor
1 4 donor
1 5 acceptor
1 5 donor
1 6 acceptor
1 6 donor
1 7 acceptor
1 7 donor
1 8 acceptor
1 8 donor
1 9 acceptor
1 9 donor
6 2 12 13 14 15 17 rings
6 3 16 18 19 21 22 rings

> <PUBCHEM_HEAVY_ATOM_COUNT>
23

> <PUBCHEM_ATOM_DEF_STEREO_COUNT>
8

> <PUBCHEM_ATOM_UDEF_STEREO_COUNT>
1

> <PUBCHEM_BOND_DEF_STEREO_COUNT>
0

> <PUBCHEM_BOND_UDEF_STEREO_COUNT>
0

> <PUBCHEM_ISOTOPIC_ATOM_COUNT>
0

> <PUBCHEM_COMPONENT_COUNT>
1

> <PUBCHEM_CACTVS_TAUTO_COUNT>
7

> <PUBCHEM_CONFORMER_ID>
0006B95300000008

> <PUBCHEM_MMFF94_ENERGY>
54.0579

> <PUBCHEM_FEATURE_SELFOVERLAP>
101.608

> <PUBCHEM_SHAPE_FINGERPRINT>
10616163 171 18408885113896043879
11578080 2 17774184373061938460
12107183 9 17979922935909328016
12251169 10 18339365278583487903
12633257 1 18337958990284494986
12788726 201 17385995226356176185
13140716 1 18342177782119843090
13167823 11 18413388752130159946
13224815 77 18409453557180649734
13533116 47 17916865837004166275
13583140 156 17488749024714555665
14178342 30 18267043772096441354
14289901 80 18340491079806082450
14787075 74 17907300949041140518
14790565 3 18190734427098407825
15042514 8 18337383856448020583
15196674 1 18409446942809701124
15442244 35 18340492291245536850
15536298 74 18408321077727073916
17492 89 18411420604953329130
18186145 218 18342179960052870838
19050596 39 18341899588645663994
20715895 44 17762342818079451297
21267235 1 18338788009251234735
21501502 16 18411706469348939450
22393880 68 18410006629126099916
23227448 37 18408604742894454141
23503953 91 18338809990983695714
23558518 356 18200305503639210386
23559900 14 18114455786071714390
23598288 3 18187090528918755383
34934 24 18409168779669572061
350125 39 18413388756989707580
4340502 62 17489580174222581593
4409770 3 16835178594479648942
474 4 17988355967183799380
5104073 3 18412826858765145914
633830 44 18408886213766043350
7097593 13 18054801834051415818
9709674 26 18261951946348470847
9981440 41 18127416636050597490

> <PUBCHEM_SHAPE_MULTIPOLES>
408.77
9.8
3.28
0.87
0.05
0.32
0.03
-3.02
0.48
0.61
0.13
-0.4
0.25
-1.39

> <PUBCHEM_SHAPE_SELFOVERLAP>
842.432

> <PUBCHEM_SHAPE_VOLUME>
229.6

> <PUBCHEM_COORDINATE_TYPE>
2
5
10

$$$$

