17396064
  -OEChem-06241222543D

 46 49  0     0  0  0  0  0  0999 V2000
    4.7135    1.3709    0.7268 O   0  0  0  0  0  0  0  0  0  0  0  0
    4.3235    2.7774   -1.1909 O   0  0  0  0  0  0  0  0  0  0  0  0
   -5.5714    1.0593   -0.4140 O   0  0  0  0  0  0  0  0  0  0  0  0
   -1.5391    1.8159    0.8839 O   0  0  0  0  0  0  0  0  0  0  0  0
    0.0435    0.0790    0.9656 N   0  0  0  0  0  0  0  0  0  0  0  0
   -5.0838    0.4772   -1.5778 N   0  0  0  0  0  0  0  0  0  0  0  0
    2.0659   -4.1232   -0.9739 N   0  0  0  0  0  0  0  0  0  0  0  0
    1.1079    0.7778    0.3941 C   0  0  0  0  0  0  0  0  0  0  0  0
    0.2703   -1.2322    1.6492 C   0  0  0  0  0  0  0  0  0  0  0  0
   -2.4511   -0.3947    0.9159 C   0  0  0  0  0  0  0  0  0  0  0  0
   -1.2976    0.6060    0.9095 C   0  0  0  0  0  0  0  0  0  0  0  0
   -3.6409    0.0919    0.1415 C   0  0  0  0  0  0  0  0  0  0  0  0
    2.3889    0.6554    0.9374 C   0  0  0  0  0  0  0  0  0  0  0  0
    3.4092    1.3649    0.3380 C   0  0  0  0  0  0  0  0  0  0  0  0
    0.8977   -2.2425    0.7326 C   0  0  0  0  0  0  0  0  0  0  0  0
    0.8804    1.5986   -0.7246 C   0  0  0  0  0  0  0  0  0  0  0  0
    3.1866    2.1682   -0.7570 C   0  0  0  0  0  0  0  0  0  0  0  0
   -4.7034    0.8232    0.6028 C   0  0  0  0  0  0  0  0  0  0  0  0
   -3.9302   -0.0946   -1.2213 C   0  0  0  0  0  0  0  0  0  0  0  0
    1.9314    2.3064   -1.3128 C   0  0  0  0  0  0  0  0  0  0  0  0
    5.2869    2.2674   -0.2467 C   0  0  0  0  0  0  0  0  0  0  0  0
    1.9577   -3.0249    1.1772 C   0  0  0  0  0  0  0  0  0  0  0  0
    0.4212   -2.3993   -0.5643 C   0  0  0  0  0  0  0  0  0  0  0  0
   -5.0698    1.3751    1.9138 C   0  0  0  0  0  0  0  0  0  0  0  0
   -3.1334   -0.8157   -2.2275 C   0  0  0  0  0  0  0  0  0  0  0  0
    2.5019   -3.9425    0.2930 C   0  0  0  0  0  0  0  0  0  0  0  0
    1.0343   -3.3448   -1.3705 C   0  0  0  0  0  0  0  0  0  0  0  0
    0.8961   -1.0383    2.5283 H   0  0  0  0  0  0  0  0  0  0  0  0
   -0.6597   -1.6419    2.0521 H   0  0  0  0  0  0  0  0  0  0  0  0
   -2.7329   -0.5745    1.9599 H   0  0  0  0  0  0  0  0  0  0  0  0
   -2.1393   -1.3508    0.4889 H   0  0  0  0  0  0  0  0  0  0  0  0
    2.6111    0.0536    1.8103 H   0  0  0  0  0  0  0  0  0  0  0  0
   -0.1017    1.6804   -1.1834 H   0  0  0  0  0  0  0  0  0  0  0  0
    1.7619    2.9345   -2.1800 H   0  0  0  0  0  0  0  0  0  0  0  0
    6.0694    1.7330   -0.7976 H   0  0  0  0  0  0  0  0  0  0  0  0
    5.7428    3.1130    0.2809 H   0  0  0  0  0  0  0  0  0  0  0  0
    2.3545   -2.9300    2.1821 H   0  0  0  0  0  0  0  0  0  0  0  0
   -0.4006   -1.8147   -0.9587 H   0  0  0  0  0  0  0  0  0  0  0  0
   -4.1803    1.6032    2.5092 H   0  0  0  0  0  0  0  0  0  0  0  0
   -5.6439    2.3007    1.8052 H   0  0  0  0  0  0  0  0  0  0  0  0
   -5.6796    0.6579    2.4714 H   0  0  0  0  0  0  0  0  0  0  0  0
   -3.0164   -1.8669   -1.9448 H   0  0  0  0  0  0  0  0  0  0  0  0
   -3.6015   -0.7867   -3.2172 H   0  0  0  0  0  0  0  0  0  0  0  0
   -2.1367   -0.3713   -2.3177 H   0  0  0  0  0  0  0  0  0  0  0  0
    3.3302   -4.5768    0.5909 H   0  0  0  0  0  0  0  0  0  0  0  0
    0.7003   -3.5054   -2.3903 H   0  0  0  0  0  0  0  0  0  0  0  0
  1 14  1  0  0  0  0
  1 21  1  0  0  0  0
  2 17  1  0  0  0  0
  2 21  1  0  0  0  0
  3  6  1  0  0  0  0
  3 18  1  0  0  0  0
  4 11  2  0  0  0  0
  5  8  1  0  0  0  0
  5  9  1  0  0  0  0
  5 11  1  0  0  0  0
  6 19  2  0  0  0  0
  7 26  2  0  0  0  0
  7 27  1  0  0  0  0
  8 13  2  0  0  0  0
  8 16  1  0  0  0  0
  9 15  1  0  0  0  0
  9 28  1  0  0  0  0
  9 29  1  0  0  0  0
 10 11  1  0  0  0  0
 10 12  1  0  0  0  0
 10 30  1  0  0  0  0
 10 31  1  0  0  0  0
 12 18  2  0  0  0  0
 12 19  1  0  0  0  0
 13 14  1  0  0  0  0
 13 32  1  0  0  0  0
 14 17  2  0  0  0  0
 15 22  2  0  0  0  0
 15 23  1  0  0  0  0
 16 20  2  0  0  0  0
 16 33  1  0  0  0  0
 17 20  1  0  0  0  0
 18 24  1  0  0  0  0
 19 25  1  0  0  0  0
 20 34  1  0  0  0  0
 21 35  1  0  0  0  0
 21 36  1  0  0  0  0
 22 26  1  0  0  0  0
 22 37  1  0  0  0  0
 23 27  2  0  0  0  0
 23 38  1  0  0  0  0
 24 39  1  0  0  0  0
 24 40  1  0  0  0  0
 24 41  1  0  0  0  0
 25 42  1  0  0  0  0
 25 43  1  0  0  0  0
 25 44  1  0  0  0  0
 26 45  1  0  0  0  0
 27 46  1  0  0  0  0
M  END
> <PUBCHEM_COMPOUND_CID>
17396064

> <PUBCHEM_CONFORMER_RMSD>
1

> <PUBCHEM_CONFORMER_DIVERSEORDER>
2
120
109
229
123
60
152
132
272
192
247
164
243
86
267
223
212
71
119
134
80
250
253
74
244
184
121
257
90
37
35
225
195
232
140
107
69
156
178
154
231
200
207
142
64
106
182
214
82
226
20
129
172
93
151
274
61
206
176
9
258
180
194
79
100
168
112
73
24
150
28
233
165
72
25
227
146
103
221
201
174
18
89
237
85
76
198
162
141
270
101
26
265
161
31
135
10
261
29
105
211
70
222
215
251
160
249
104
147
92
205
264
114
216
58
127
65
149
45
130
49
268
44
155
252
111
276
32
269
204
144
228
145
246
113
256
126
131
68
153
87
54
203
83
217
53
16
62
173
22
48
255
183
136
159
110
266
138
41
39
19
170
275
13
260
118
239
171
125
189
59
163
50
27
122
139
248
6
128
88
40
36
95
158
235
273
241
193
187
263
14
219
63
21
56
66
209
57
179
42
75
175
78
97
202
185
177
181
143
137
188
199
186
124
157
17
167
148
220
133
210
51
3
77
11
15
196
116
38
43
8
224
81
12
94
271
91
30
5
108
117
115
190
238
84
34
208
55
262
46
98
96
191
230
7
236
245
67
102
4
1
169
218
254
23
52
242
259
234
47
197
166
33
240
99
213

> <PUBCHEM_MMFF94_PARTIAL_CHARGES>
34
1 -0.36
10 0.24
11 0.57
12 -0.18
13 -0.15
14 0.08
15 -0.14
16 -0.15
17 0.08
18 -0.04
19 0.11
2 -0.36
20 -0.15
21 0.56
22 -0.15
23 -0.15
24 0.18
25 0.18
26 0.16
27 0.16
3 -0.02
32 0.15
33 0.15
34 0.15
37 0.15
38 0.15
4 -0.57
45 0.15
46 0.15
5 -0.48
6 -0.41
7 -0.62
8 0.12
9 0.44

> <PUBCHEM_EFFECTIVE_ROTOR_COUNT>
6.6

> <PUBCHEM_PHARMACOPHORE_FEATURES>
9
1 1 acceptor
1 2 acceptor
1 4 acceptor
1 6 acceptor
1 7 acceptor
5 1 2 14 17 21 rings
5 3 6 12 18 19 rings
6 7 15 22 23 26 27 rings
6 8 13 14 16 17 20 rings

> <PUBCHEM_HEAVY_ATOM_COUNT>
27

> <PUBCHEM_ATOM_DEF_STEREO_COUNT>
0

> <PUBCHEM_ATOM_UDEF_STEREO_COUNT>
0

> <PUBCHEM_BOND_DEF_STEREO_COUNT>
0

> <PUBCHEM_BOND_UDEF_STEREO_COUNT>
0

> <PUBCHEM_ISOTOPIC_ATOM_COUNT>
0

> <PUBCHEM_COMPONENT_COUNT>
1

> <PUBCHEM_CACTVS_TAUTO_COUNT>
1

> <PUBCHEM_CONFORMER_ID>
0109716000000002

> <PUBCHEM_MMFF94_ENERGY>
76.8169

> <PUBCHEM_FEATURE_SELFOVERLAP>
45.825

> <PUBCHEM_SHAPE_FINGERPRINT>
10369192 42 18057021541900854085
105312 117 18199741441236206980
10764073 3 14401577650676161544
11049842 53 15940604857215978369
11477941 20 17398932256784877142
11488393 25 18198636616781663550
12422481 6 17979672161881420146
13149001 5 17986087799118224923
13257819 101 17274557454699878806
133893 2 18195788864274637570
14713325 29 17983292634317468323
15439362 3 18341049709032953216
15664445 248 17977942719879500699
16752209 62 17977391534126015242
167882 2 18412259554247915018
17138139 8 17608960610717137055
17818456 19 17317885007995157985
1813 80 17975976784615036715
20197701 30 18338801096348739266
21033648 144 17916590812915905237
21344244 246 18335135414993046518
21421861 104 18044364148640795713
23419403 2 17701836590043959094
24893989 43 16397816988807100172
25147074 1 17968935435194367209
376196 1 18059019375839985345
38695281 34 18410576158510664390
4017518 198 18261105250530593966
4280585 95 17907870843936320938
46194498 28 18198358427765957023
474 4 18342458127556694793
5081480 168 18054499472832796261
53917941 68 18050578335274679208
6669772 16 18410849941955413230
9841814 1 17985547990126535954

> <PUBCHEM_SHAPE_MULTIPOLES>
517.23
10.28
4.4
1.73
8.54
5.05
-0.3
-8.35
-0.92
-6.8
-0.97
1.37
0.2
-1.39

> <PUBCHEM_SHAPE_SELFOVERLAP>
1131.599

> <PUBCHEM_SHAPE_VOLUME>
279.6

> <PUBCHEM_COORDINATE_TYPE>
2
5
10

$$$$

