13738
  -OEChem-06241222402D

 37 38  0     0  0  0  0  0  0999 V2000
    2.3660    0.1424    0.0000 O   0  0  0  0  0  0  0  0  0  0  0  0
    4.1349    2.6739    0.0000 N   0  0  0  0  0  0  0  0  0  0  0  0
    3.6750   -0.8087    0.0000 N   0  0  0  0  0  0  0  0  0  0  0  0
    2.0570   -0.8087    0.0000 N   0  0  0  0  0  0  0  0  0  0  0  0
    3.5471    1.8649    0.0000 C   0  0  0  0  0  0  0  0  0  0  0  0
    3.9538    0.9514    0.0000 C   0  0  0  0  0  0  0  0  0  0  0  0
    3.7281    3.5875    0.0000 C   0  0  0  0  0  0  0  0  0  0  0  0
    5.1294    2.5694    0.0000 C   0  0  0  0  0  0  0  0  0  0  0  0
    3.3660    0.1424    0.0000 C   0  0  0  0  0  0  0  0  0  0  0  0
    5.7172    3.3784    0.0000 C   0  0  0  0  0  0  0  0  0  0  0  0
    4.3159    4.3965    0.0000 C   0  0  0  0  0  0  0  0  0  0  0  0
    2.8660   -1.3965    0.0000 C   0  0  0  0  0  0  0  0  0  0  0  0
    2.8660   -2.3965    0.0000 C   0  0  0  0  0  0  0  0  0  0  0  0
    2.0000   -2.8965    0.0000 C   0  0  0  0  0  0  0  0  0  0  0  0
    3.7320   -2.8965    0.0000 C   0  0  0  0  0  0  0  0  0  0  0  0
    2.0000   -3.8965    0.0000 C   0  0  0  0  0  0  0  0  0  0  0  0
    3.7320   -3.8965    0.0000 C   0  0  0  0  0  0  0  0  0  0  0  0
    2.8660   -4.3965    0.0000 C   0  0  0  0  0  0  0  0  0  0  0  0
    3.1164    2.3109    0.0000 H   0  0  0  0  0  0  0  0  0  0  0  0
    3.0331    1.5182    0.0000 H   0  0  0  0  0  0  0  0  0  0  0  0
    4.3845    0.5054    0.0000 H   0  0  0  0  0  0  0  0  0  0  0  0
    4.4678    1.2981    0.0000 H   0  0  0  0  0  0  0  0  0  0  0  0
    3.2974    4.0335    0.0000 H   0  0  0  0  0  0  0  0  0  0  0  0
    3.2141    3.2408    0.0000 H   0  0  0  0  0  0  0  0  0  0  0  0
    4.9585    1.9734    0.0000 H   0  0  0  0  0  0  0  0  0  0  0  0
    5.6866    2.2976    0.0000 H   0  0  0  0  0  0  0  0  0  0  0  0
    6.2188    3.0140    0.0000 H   0  0  0  0  0  0  0  0  0  0  0  0
    6.0816    3.8800    0.0000 H   0  0  0  0  0  0  0  0  0  0  0  0
    5.2156    3.7428    0.0000 H   0  0  0  0  0  0  0  0  0  0  0  0
    4.8175    4.0321    0.0000 H   0  0  0  0  0  0  0  0  0  0  0  0
    4.6803    4.8981    0.0000 H   0  0  0  0  0  0  0  0  0  0  0  0
    3.8143    4.7609    0.0000 H   0  0  0  0  0  0  0  0  0  0  0  0
    1.4631   -2.5865    0.0000 H   0  0  0  0  0  0  0  0  0  0  0  0
    4.2690   -2.5865    0.0000 H   0  0  0  0  0  0  0  0  0  0  0  0
    1.4631   -4.2065    0.0000 H   0  0  0  0  0  0  0  0  0  0  0  0
    4.2690   -4.2065    0.0000 H   0  0  0  0  0  0  0  0  0  0  0  0
    2.8660   -5.0165    0.0000 H   0  0  0  0  0  0  0  0  0  0  0  0
  1  4  1  0  0  0  0
  1  9  1  0  0  0  0
  2  5  1  0  0  0  0
  2  7  1  0  0  0  0
  2  8  1  0  0  0  0
  3  9  2  0  0  0  0
  3 12  1  0  0  0  0
  4 12  2  0  0  0  0
  5  6  1  0  0  0  0
  5 19  1  0  0  0  0
  5 20  1  0  0  0  0
  6  9  1  0  0  0  0
  6 21  1  0  0  0  0
  6 22  1  0  0  0  0
  7 11  1  0  0  0  0
  7 23  1  0  0  0  0
  7 24  1  0  0  0  0
  8 10  1  0  0  0  0
  8 25  1  0  0  0  0
  8 26  1  0  0  0  0
 10 27  1  0  0  0  0
 10 28  1  0  0  0  0
 10 29  1  0  0  0  0
 11 30  1  0  0  0  0
 11 31  1  0  0  0  0
 11 32  1  0  0  0  0
 12 13  1  0  0  0  0
 13 14  2  0  0  0  0
 13 15  1  0  0  0  0
 14 16  1  0  0  0  0
 14 33  1  0  0  0  0
 15 17  2  0  0  0  0
 15 34  1  0  0  0  0
 16 18  2  0  0  0  0
 16 35  1  0  0  0  0
 17 18  1  0  0  0  0
 17 36  1  0  0  0  0
 18 37  1  0  0  0  0
M  END
> <PUBCHEM_COMPOUND_CID>
13738

> <PUBCHEM_COMPOUND_CANONICALIZED>
1

> <PUBCHEM_CACTVS_COMPLEXITY>
227

> <PUBCHEM_CACTVS_HBOND_ACCEPTOR>
4

> <PUBCHEM_CACTVS_HBOND_DONOR>
0

> <PUBCHEM_CACTVS_ROTATABLE_BOND>
6

> <PUBCHEM_CACTVS_SUBSKEYS>
AAADceBzIAAAAAAAAAAAAAAAAAAAAWAAAAAwAAAAAAAAAAABwAAAHgAEAAAADADBmwQzEIcYEACpAiNyNgCCgAkgAKApiCE4BJiIKKqA2RGEIAhihQKIiAcQgAAOAAAAAAAAAAAAAAAAAAAAAAAAAAAAAA==

> <PUBCHEM_IUPAC_OPENEYE_NAME>
N,N-diethyl-2-(3-phenyl-1,2,4-oxadiazol-5-yl)ethanamine

> <PUBCHEM_IUPAC_CAS_NAME>
N,N-diethyl-2-(3-phenyl-1,2,4-oxadiazol-5-yl)ethanamine

> <PUBCHEM_IUPAC_NAME>
N,N-diethyl-2-(3-phenyl-1,2,4-oxadiazol-5-yl)ethanamine

> <PUBCHEM_IUPAC_SYSTEMATIC_NAME>
N,N-diethyl-2-(3-phenyl-1,2,4-oxadiazol-5-yl)ethanamine

> <PUBCHEM_IUPAC_TRADITIONAL_NAME>
diethyl-[2-(3-phenyl-1,2,4-oxadiazol-5-yl)ethyl]amine

> <PUBCHEM_IUPAC_INCHI>
InChI=1S/C14H19N3O/c1-3-17(4-2)11-10-13-15-14(16-18-13)12-8-6-5-7-9-12/h5-9H,3-4,10-11H2,1-2H3

> <PUBCHEM_IUPAC_INCHIKEY>
IDCHQQSVJAAUQQ-UHFFFAOYSA-N

> <PUBCHEM_XLOGP3_AA>
2.9

> <PUBCHEM_EXACT_MASS>
245.152812

> <PUBCHEM_MOLECULAR_FORMULA>
C14H19N3O

> <PUBCHEM_MOLECULAR_WEIGHT>
245.32016

> <PUBCHEM_OPENEYE_CAN_SMILES>
CCN(CC)CCC1=NC(=NO1)C2=CC=CC=C2

> <PUBCHEM_OPENEYE_ISO_SMILES>
CCN(CC)CCC1=NC(=NO1)C2=CC=CC=C2

> <PUBCHEM_CACTVS_TPSA>
42.2

> <PUBCHEM_MONOISOTOPIC_WEIGHT>
245.152812

> <PUBCHEM_TOTAL_CHARGE>
0

> <PUBCHEM_HEAVY_ATOM_COUNT>
18

> <PUBCHEM_ATOM_DEF_STEREO_COUNT>
0

> <PUBCHEM_ATOM_UDEF_STEREO_COUNT>
0

> <PUBCHEM_BOND_DEF_STEREO_COUNT>
0

> <PUBCHEM_BOND_UDEF_STEREO_COUNT>
0

> <PUBCHEM_ISOTOPIC_ATOM_COUNT>
0

> <PUBCHEM_COMPONENT_COUNT>
1

> <PUBCHEM_CACTVS_TAUTO_COUNT>
3

> <PUBCHEM_COORDINATE_TYPE>
1
5
255

> <PUBCHEM_BONDANNOTATIONS>
1  4  8
1  9  8
13  14  8
13  15  8
14  16  8
15  17  8
16  18  8
17  18  8
3  12  8
3  9  8
4  12  8

$$$$

