155094
  -OEChem-07051212583D

 45 47  0     1  0  0  0  0  0999 V2000
   -1.3581   -0.7177    0.0076 O   0  0  0  0  0  0  0  0  0  0  0  0
    2.4730    2.2225    0.4613 O   0  0  0  0  0  0  0  0  0  0  0  0
    0.0917    3.1202    0.0045 O   0  0  0  0  0  0  0  0  0  0  0  0
    2.9701   -2.5170    0.6628 O   0  0  0  0  0  0  0  0  0  0  0  0
   -7.5872   -0.9698   -0.6407 O   0  0  0  0  0  0  0  0  0  0  0  0
   -2.1887    0.3809    0.4148 C   0  0  1  0  0  0  0  0  0  0  0  0
   -1.7907    1.6661   -0.3084 C   0  0  0  0  0  0  0  0  0  0  0  0
    0.5302    0.8105    0.2230 C   0  0  0  0  0  0  0  0  0  0  0  0
   -0.0217   -0.4736    0.1926 C   0  0  0  0  0  0  0  0  0  0  0  0
   -0.3487    1.9768   -0.0016 C   0  0  0  0  0  0  0  0  0  0  0  0
   -3.6319    0.0202    0.1326 C   0  0  0  0  0  0  0  0  0  0  0  0
    1.9023    0.9845    0.4203 C   0  0  0  0  0  0  0  0  0  0  0  0
    2.7231   -0.1334    0.5738 C   0  0  0  0  0  0  0  0  0  0  0  0
    0.8072   -1.5882    0.3263 C   0  0  0  0  0  0  0  0  0  0  0  0
    2.1779   -1.4168    0.5221 C   0  0  0  0  0  0  0  0  0  0  0  0
    4.1937    0.0388    0.7877 C   0  0  0  0  0  0  0  0  0  0  0  0
   -4.5400   -0.0946    1.1846 C   0  0  0  0  0  0  0  0  0  0  0  0
   -4.0515   -0.1976   -1.1792 C   0  0  0  0  0  0  0  0  0  0  0  0
    4.9715    0.0750   -0.5031 C   0  0  0  0  0  0  0  0  0  0  0  0
   -5.8693   -0.4277    0.9243 C   0  0  0  0  0  0  0  0  0  0  0  0
   -5.3808   -0.5307   -1.4395 C   0  0  0  0  0  0  0  0  0  0  0  0
   -6.2897   -0.6457   -0.3877 C   0  0  0  0  0  0  0  0  0  0  0  0
    6.2290   -0.3520   -0.7266 C   0  0  0  0  0  0  0  0  0  0  0  0
    6.9466   -0.2855   -2.0448 C   0  0  0  0  0  0  0  0  0  0  0  0
    7.0421   -0.9454    0.3932 C   0  0  0  0  0  0  0  0  0  0  0  0
   -2.0598    0.5120    1.4995 H   0  0  0  0  0  0  0  0  0  0  0  0
   -2.4132    2.5023    0.0296 H   0  0  0  0  0  0  0  0  0  0  0  0
   -1.8714    1.5814   -1.3979 H   0  0  0  0  0  0  0  0  0  0  0  0
    0.3855   -2.5897    0.2890 H   0  0  0  0  0  0  0  0  0  0  0  0
    4.3948    0.9626    1.3448 H   0  0  0  0  0  0  0  0  0  0  0  0
    4.5542   -0.7422    1.4658 H   0  0  0  0  0  0  0  0  0  0  0  0
   -4.2278    0.0721    2.2119 H   0  0  0  0  0  0  0  0  0  0  0  0
   -3.3566   -0.1245   -2.0111 H   0  0  0  0  0  0  0  0  0  0  0  0
    4.4508    0.5185   -1.3521 H   0  0  0  0  0  0  0  0  0  0  0  0
   -6.5728   -0.5157    1.7477 H   0  0  0  0  0  0  0  0  0  0  0  0
   -5.6953   -0.7005   -2.4657 H   0  0  0  0  0  0  0  0  0  0  0  0
    3.3747    2.1920    0.1042 H   0  0  0  0  0  0  0  0  0  0  0  0
    3.8849   -2.3128    0.4126 H   0  0  0  0  0  0  0  0  0  0  0  0
    6.3096    0.1363   -2.8292 H   0  0  0  0  0  0  0  0  0  0  0  0
    7.8389    0.3434   -1.9644 H   0  0  0  0  0  0  0  0  0  0  0  0
    7.2505   -1.2876   -2.3640 H   0  0  0  0  0  0  0  0  0  0  0  0
    6.6558   -0.7279    1.3915 H   0  0  0  0  0  0  0  0  0  0  0  0
    7.1058   -2.0319    0.2752 H   0  0  0  0  0  0  0  0  0  0  0  0
    8.0607   -0.5414    0.3702 H   0  0  0  0  0  0  0  0  0  0  0  0
   -7.7019   -1.0842   -1.5998 H   0  0  0  0  0  0  0  0  0  0  0  0
  1  6  1  0  0  0  0
  1  9  1  0  0  0  0
  2 12  1  0  0  0  0
  2 37  1  0  0  0  0
  3 10  2  0  0  0  0
  4 15  1  0  0  0  0
  4 38  1  0  0  0  0
  5 22  1  0  0  0  0
  5 45  1  0  0  0  0
  6  7  1  0  0  0  0
  6 11  1  0  0  0  0
  6 26  1  0  0  0  0
  7 10  1  0  0  0  0
  7 27  1  0  0  0  0
  7 28  1  0  0  0  0
  8  9  2  0  0  0  0
  8 10  1  0  0  0  0
  8 12  1  0  0  0  0
  9 14  1  0  0  0  0
 11 17  2  0  0  0  0
 11 18  1  0  0  0  0
 12 13  2  0  0  0  0
 13 15  1  0  0  0  0
 13 16  1  0  0  0  0
 14 15  2  0  0  0  0
 14 29  1  0  0  0  0
 16 19  1  0  0  0  0
 16 30  1  0  0  0  0
 16 31  1  0  0  0  0
 17 20  1  0  0  0  0
 17 32  1  0  0  0  0
 18 21  2  0  0  0  0
 18 33  1  0  0  0  0
 19 23  2  0  0  0  0
 19 34  1  0  0  0  0
 20 22  2  0  0  0  0
 20 35  1  0  0  0  0
 21 22  1  0  0  0  0
 21 36  1  0  0  0  0
 23 24  1  0  0  0  0
 23 25  1  0  0  0  0
 24 39  1  0  0  0  0
 24 40  1  0  0  0  0
 24 41  1  0  0  0  0
 25 42  1  0  0  0  0
 25 43  1  0  0  0  0
 25 44  1  0  0  0  0
M  END
> <PUBCHEM_COMPOUND_CID>
155094

> <PUBCHEM_CONFORMER_RMSD>
0.8

> <PUBCHEM_CONFORMER_DIVERSEORDER>
1
18
13
15
12
9
8
19
10
3
14
5
17
21
2
11
4
6
20
7
16

> <PUBCHEM_MMFF94_PARTIAL_CHARGES>
34
1 -0.36
10 0.42
11 -0.14
12 0.08
13 -0.14
14 -0.15
15 0.08
16 0.28
17 -0.15
18 -0.15
19 -0.29
2 -0.53
20 -0.15
21 -0.15
22 0.08
23 -0.28
24 0.14
25 0.14
29 0.15
3 -0.57
32 0.15
33 0.15
34 0.15
35 0.15
36 0.15
37 0.45
38 0.45
4 -0.53
45 0.45
5 -0.53
6 0.42
7 0.06
8 0.09
9 0.08

> <PUBCHEM_EFFECTIVE_ROTOR_COUNT>
3.6

> <PUBCHEM_PHARMACOPHORE_FEATURES>
9
1 1 acceptor
1 2 donor
1 3 acceptor
1 4 donor
1 5 donor
3 23 24 25 hydrophobe
6 1 6 7 8 9 10 rings
6 11 17 18 20 21 22 rings
6 8 9 12 13 14 15 rings

> <PUBCHEM_HEAVY_ATOM_COUNT>
25

> <PUBCHEM_ATOM_DEF_STEREO_COUNT>
1

> <PUBCHEM_ATOM_UDEF_STEREO_COUNT>
0

> <PUBCHEM_BOND_DEF_STEREO_COUNT>
0

> <PUBCHEM_BOND_UDEF_STEREO_COUNT>
0

> <PUBCHEM_ISOTOPIC_ATOM_COUNT>
0

> <PUBCHEM_COMPONENT_COUNT>
1

> <PUBCHEM_CACTVS_TAUTO_COUNT>
42

> <PUBCHEM_CONFORMER_ID>
00025DD600000001

> <PUBCHEM_MMFF94_ENERGY>
71.4728

> <PUBCHEM_FEATURE_SELFOVERLAP>
45.699

> <PUBCHEM_SHAPE_FINGERPRINT>
10087517 78 13182746952598690975
10366900 7 18272087205930968856
11963148 33 18342745100261616458
11991303 11 17846492583132895018
12011746 2 18343019982193235210
12166972 35 17775562035904991764
12236239 1 17748827389274355049
12516196 113 18408326583706283865
12596602 18 17095527262394720251
12788726 201 18201445830008950104
13533116 47 17603586288512685280
13540713 5 17982732167313430624
13668630 136 18114184108152646207
13685833 64 16877940551519986070
13862211 1 18410295826411765098
14123256 10 18343303673668586598
14251764 18 7565334340702487033
14347332 77 18190458462500979534
14767858 380 18343576352873905374
14849402 71 17313956190850822576
15142383 8 13984659291522753282
15183329 4 18259980475140168110
15537594 2 18408328786850823319
16087824 20 18267024041893162581
16728300 4 5182964116016870316
17492 89 17979639258353801458
1813 80 18334286591952703653
18222031 100 18408612452112791601
18681886 176 17749115465019882715
19319366 153 18131636699107457610
200 152 18335148592163044313
20028762 73 18040156192966361494
2026 5 17679570402368319462
20511986 3 12175637152623479751
20554085 129 11959733720583130228
21049683 271 18059568049570112621
21150785 3 17060338509212515903
21267235 1 18407757023998394105
21344244 181 17676476273188500350
21403212 168 8358262514223973485
21424621 283 12679470815083564037
21521721 280 18335415726191381832
21641784 216 17988070201418937036
21792961 116 17846221097874620018
221357 26 18335419080487051436
23035841 295 17967814946529637535
23522609 53 18118936240062902000
23536379 177 15864068780329568338
23559900 14 18200032828771103057
23569943 247 17679006347796009974
3004659 81 18060143119662468001
33382 64 16370719375128197742
335352 9 18411138004562486782
34797466 226 17603303740141880912
4325135 7 18202565085527512863
5104073 3 18266188411715194809
5265222 85 16414906453250183491
5486654 2 18273492368822273530

> <PUBCHEM_SHAPE_MULTIPOLES>
485.14
17.99
1.93
1.18
0.01
1.02
-0.42
-7.26
-5.62
0.79
0.24
0.29
-0.18
-0.36

> <PUBCHEM_SHAPE_SELFOVERLAP>
1054.253

> <PUBCHEM_SHAPE_VOLUME>
264.8

> <PUBCHEM_COORDINATE_TYPE>
2
5
10

$$$$

