13703
  -OEChem-06241222403D

 18 18  0     0  0  0  0  0  0999 V2000
   -3.3944    0.2960    1.4646 Cl  0  0  0  0  0  0  0  0  0  0  0  0
   -2.2787    2.5103   -0.0045 Cl  0  0  0  0  0  0  0  0  0  0  0  0
   -3.3931    0.2829   -1.4619 Cl  0  0  0  0  0  0  0  0  0  0  0  0
    3.3939    0.2960   -1.4651 Cl  0  0  0  0  0  0  0  0  0  0  0  0
    2.2788    2.5103    0.0045 Cl  0  0  0  0  0  0  0  0  0  0  0  0
    3.3936    0.2829    1.4615 Cl  0  0  0  0  0  0  0  0  0  0  0  0
    0.0000    0.6989    0.0004 N   0  0  0  0  0  0  0  0  0  0  0  0
    1.1998   -1.3792    0.0004 N   0  0  0  0  0  0  0  0  0  0  0  0
   -1.1998   -1.3791   -0.0001 N   0  0  0  0  0  0  0  0  0  0  0  0
   -1.1221   -0.0386    0.0000 C   0  0  0  0  0  0  0  0  0  0  0  0
    1.1221   -0.0387    0.0004 C   0  0  0  0  0  0  0  0  0  0  0  0
    0.0000   -1.9822    0.0001 C   0  0  0  0  0  0  0  0  0  0  0  0
   -2.4131    0.7068   -0.0006 C   0  0  0  0  0  0  0  0  0  0  0  0
    2.4132    0.7068    0.0004 C   0  0  0  0  0  0  0  0  0  0  0  0
    0.0000   -3.4731   -0.0002 C   0  0  0  0  0  0  0  0  0  0  0  0
    0.8963   -3.8626    0.4925 H   0  0  0  0  0  0  0  0  0  0  0  0
   -0.8747   -3.8611    0.5310 H   0  0  0  0  0  0  0  0  0  0  0  0
   -0.0225   -3.8420   -1.0298 H   0  0  0  0  0  0  0  0  0  0  0  0
  1 13  1  0  0  0  0
  2 13  1  0  0  0  0
  3 13  1  0  0  0  0
  4 14  1  0  0  0  0
  5 14  1  0  0  0  0
  6 14  1  0  0  0  0
  7 10  2  0  0  0  0
  7 11  1  0  0  0  0
  8 11  2  0  0  0  0
  8 12  1  0  0  0  0
  9 10  1  0  0  0  0
  9 12  2  0  0  0  0
 10 13  1  0  0  0  0
 11 14  1  0  0  0  0
 12 15  1  0  0  0  0
 15 16  1  0  0  0  0
 15 17  1  0  0  0  0
 15 18  1  0  0  0  0
M  END
> <PUBCHEM_COMPOUND_CID>
13703

> <PUBCHEM_CONFORMER_RMSD>
0.6

> <PUBCHEM_CONFORMER_DIVERSEORDER>
1
3
2

> <PUBCHEM_MMFF94_PARTIAL_CHARGES>
15
1 -0.29
10 0.48
11 0.48
12 0.48
13 1.01
14 1.01
15 0.14
2 -0.29
3 -0.29
4 -0.29
5 -0.29
6 -0.29
7 -0.62
8 -0.62
9 -0.62

> <PUBCHEM_EFFECTIVE_ROTOR_COUNT>
2

> <PUBCHEM_PHARMACOPHORE_FEATURES>
4
3 7 8 11 cation
3 7 9 10 cation
3 8 9 12 cation
6 7 8 9 10 11 12 rings

> <PUBCHEM_HEAVY_ATOM_COUNT>
15

> <PUBCHEM_ATOM_DEF_STEREO_COUNT>
0

> <PUBCHEM_ATOM_UDEF_STEREO_COUNT>
0

> <PUBCHEM_BOND_DEF_STEREO_COUNT>
0

> <PUBCHEM_BOND_UDEF_STEREO_COUNT>
0

> <PUBCHEM_ISOTOPIC_ATOM_COUNT>
0

> <PUBCHEM_COMPONENT_COUNT>
1

> <PUBCHEM_CACTVS_TAUTO_COUNT>
1

> <PUBCHEM_CONFORMER_ID>
0000358700000001

> <PUBCHEM_MMFF94_ENERGY>
25.5225

> <PUBCHEM_FEATURE_SELFOVERLAP>
23.07

> <PUBCHEM_SHAPE_FINGERPRINT>
12932764 1 17968659444558538001
13140716 1 18267303127521812881
13380535 76 18410868658568339915
13538477 17 18129106623903166186
13583140 156 17203058378246389945
14289901 80 15697711536774954949
14648413 74 17908699880150891073
15309172 13 18411693275414881265
16945 1 18410855460128194276
18186145 218 18186234043683506288
20233049 118 18343577465297282924
20510252 161 18119243969799204683
20645476 183 17846212199055895094
20645477 56 18267011783296104012
20671657 1 17757835902441292585
21501502 16 18049161073207436760
21524375 3 18272939335795058838
2334 1 17978511927420300581
23402539 116 18117302292367701205
23493267 7 17703494593132318872
23526113 38 17677314070835582348
23557571 272 17830735357514051084
23559900 14 18261940875040769612
23598291 2 17752768210615016957
23598294 1 18125716786336255738
25 1 18336814390263917710
2748010 2 18048877390279769812
305870 269 18266187308008650330
3060560 45 18411427232044694956
3071541 236 18268444433571668306
352729 6 18338802199712618790
458136 41 18194656345760128267
633830 44 18186793686675861021
7364860 26 17974577097458828923
74978 22 18339926992066232964
7832392 63 17903360651586593141
81228 2 17904481800980057659
88987 49 18267306426731786180

> <PUBCHEM_SHAPE_MULTIPOLES>
304.97
5.88
2.93
1.25
0
1.63
0
-2.9
0
0
0
0
-0.17
-0.01

> <PUBCHEM_SHAPE_SELFOVERLAP>
567.671

> <PUBCHEM_SHAPE_VOLUME>
187.1

> <PUBCHEM_COORDINATE_TYPE>
2
5
10

$$$$

