17395930
  -OEChem-06241222532D

 40 43  0     0  0  0  0  0  0999 V2000
    2.0000   -0.4650    0.0000 Cl  0  0  0  0  0  0  0  0  0  0  0  0
    5.5301    2.5591    0.0000 O   0  0  0  0  0  0  0  0  0  0  0  0
   10.9457   -0.1200    0.0000 O   0  0  0  0  0  0  0  0  0  0  0  0
   11.5671   -2.0210    0.0000 O   0  0  0  0  0  0  0  0  0  0  0  0
    6.3961    1.0591    0.0000 N   0  0  0  0  0  0  0  0  0  0  0  0
    5.5301   -0.4409    0.0000 N   0  0  0  0  0  0  0  0  0  0  0  0
    7.3424    1.3638    0.0000 C   0  0  0  0  0  0  0  0  0  0  0  0
    7.9260    0.5591    0.0000 C   0  0  0  0  0  0  0  0  0  0  0  0
    6.3961    0.0591    0.0000 C   0  0  0  0  0  0  0  0  0  0  0  0
    7.3424   -0.2456    0.0000 C   0  0  0  0  0  0  0  0  0  0  0  0
    5.5301    1.5591    0.0000 C   0  0  0  0  0  0  0  0  0  0  0  0
    4.6641    1.0591    0.0000 C   0  0  0  0  0  0  0  0  0  0  0  0
    4.6641    0.0591    0.0000 C   0  0  0  0  0  0  0  0  0  0  0  0
    7.6530   -1.1962    0.0000 C   0  0  0  0  0  0  0  0  0  0  0  0
    3.7702    1.5938    0.0000 C   0  0  0  0  0  0  0  0  0  0  0  0
    3.7702   -0.4756    0.0000 C   0  0  0  0  0  0  0  0  0  0  0  0
    8.6315   -1.4024    0.0000 C   0  0  0  0  0  0  0  0  0  0  0  0
    2.8641    1.0799    0.0000 C   0  0  0  0  0  0  0  0  0  0  0  0
    2.8641    0.0383    0.0000 C   0  0  0  0  0  0  0  0  0  0  0  0
    9.2994   -0.6581    0.0000 C   0  0  0  0  0  0  0  0  0  0  0  0
    8.9422   -2.3529    0.0000 C   0  0  0  0  0  0  0  0  0  0  0  0
   10.2779   -0.8643    0.0000 C   0  0  0  0  0  0  0  0  0  0  0  0
    9.9207   -2.5591    0.0000 C   0  0  0  0  0  0  0  0  0  0  0  0
   10.5886   -1.8148    0.0000 C   0  0  0  0  0  0  0  0  0  0  0  0
   11.9242   -0.3262    0.0000 C   0  0  0  0  0  0  0  0  0  0  0  0
    7.8798    1.6731    0.0000 H   0  0  0  0  0  0  0  0  0  0  0  0
    7.0913    1.9307    0.0000 H   0  0  0  0  0  0  0  0  0  0  0  0
    8.3869    0.1444    0.0000 H   0  0  0  0  0  0  0  0  0  0  0  0
    8.3869    0.9738    0.0000 H   0  0  0  0  0  0  0  0  0  0  0  0
    5.5301   -1.0609    0.0000 H   0  0  0  0  0  0  0  0  0  0  0  0
    7.2390   -1.6576    0.0000 H   0  0  0  0  0  0  0  0  0  0  0  0
    3.7773    2.2137    0.0000 H   0  0  0  0  0  0  0  0  0  0  0  0
    3.7773   -1.0955    0.0000 H   0  0  0  0  0  0  0  0  0  0  0  0
    2.3284    1.3920    0.0000 H   0  0  0  0  0  0  0  0  0  0  0  0
    9.1068   -0.0687    0.0000 H   0  0  0  0  0  0  0  0  0  0  0  0
    8.5281   -2.8144    0.0000 H   0  0  0  0  0  0  0  0  0  0  0  0
   10.1133   -3.1484    0.0000 H   0  0  0  0  0  0  0  0  0  0  0  0
   11.7964   -0.9329    0.0000 H   0  0  0  0  0  0  0  0  0  0  0  0
   12.5309   -0.4541    0.0000 H   0  0  0  0  0  0  0  0  0  0  0  0
   12.0521    0.2805    0.0000 H   0  0  0  0  0  0  0  0  0  0  0  0
  1 19  1  0  0  0  0
  2 11  2  0  0  0  0
  3 22  1  0  0  0  0
  3 25  1  0  0  0  0
  4 24  2  0  0  0  0
  5  7  1  0  0  0  0
  5  9  1  0  0  0  0
  5 11  1  0  0  0  0
  6  9  1  0  0  0  0
  6 13  1  0  0  0  0
  6 30  1  0  0  0  0
  7  8  1  0  0  0  0
  7 26  1  0  0  0  0
  7 27  1  0  0  0  0
  8 10  1  0  0  0  0
  8 28  1  0  0  0  0
  8 29  1  0  0  0  0
  9 10  2  0  0  0  0
 10 14  1  0  0  0  0
 11 12  1  0  0  0  0
 12 13  2  0  0  0  0
 12 15  1  0  0  0  0
 13 16  1  0  0  0  0
 14 17  2  0  0  0  0
 14 31  1  0  0  0  0
 15 18  2  0  0  0  0
 15 32  1  0  0  0  0
 16 19  2  0  0  0  0
 16 33  1  0  0  0  0
 17 20  1  0  0  0  0
 17 21  1  0  0  0  0
 18 19  1  0  0  0  0
 18 34  1  0  0  0  0
 20 22  2  0  0  0  0
 20 35  1  0  0  0  0
 21 23  2  0  0  0  0
 21 36  1  0  0  0  0
 22 24  1  0  0  0  0
 23 24  1  0  0  0  0
 23 37  1  0  0  0  0
 25 38  1  0  0  0  0
 25 39  1  0  0  0  0
 25 40  1  0  0  0  0
M  END
> <PUBCHEM_COMPOUND_CID>
17395930

> <PUBCHEM_COMPOUND_CANONICALIZED>
1

> <PUBCHEM_CACTVS_COMPLEXITY>
750

> <PUBCHEM_CACTVS_HBOND_ACCEPTOR>
4

> <PUBCHEM_CACTVS_HBOND_DONOR>
1

> <PUBCHEM_CACTVS_ROTATABLE_BOND>
2

> <PUBCHEM_CACTVS_SUBSKEYS>
AAADccB7MAAEAAAAAAAAAAAAAAAAAQAAAAA8QIAAAAAAAECxAAAAHgIQAAAADA7BmCYzwIPABACIAqVSUAKCCAAlJwAIiAFIZsiIIDrB15WEIYho1wLIyecYiACOBAAAAAICAAAIAAAABAQAAAAAAAAAAA==

> <PUBCHEM_IUPAC_OPENEYE_NAME>
6-chloro-3-[(Z)-(3-methoxy-4-oxo-cyclohexa-2,5-dien-1-ylidene)methyl]-2,4-dihydro-1H-pyrrolo[2,1-b]quinazolin-9-one

> <PUBCHEM_IUPAC_CAS_NAME>
6-chloro-3-[(Z)-(3-methoxy-4-oxo-1-cyclohexa-2,5-dienylidene)methyl]-2,4-dihydro-1H-pyrrolo[2,1-b]quinazolin-9-one

> <PUBCHEM_IUPAC_NAME>
6-chloro-3-[(Z)-(3-methoxy-4-oxocyclohexa-2,5-dien-1-ylidene)methyl]-2,4-dihydro-1H-pyrrolo[2,1-b]quinazolin-9-one

> <PUBCHEM_IUPAC_SYSTEMATIC_NAME>
6-chloranyl-3-[(Z)-(3-methoxy-4-oxidanylidene-cyclohexa-2,5-dien-1-ylidene)methyl]-2,4-dihydro-1H-pyrrolo[2,1-b]quinazolin-9-one

> <PUBCHEM_IUPAC_TRADITIONAL_NAME>
6-chloro-3-[(Z)-(4-keto-3-methoxy-cyclohexa-2,5-dien-1-ylidene)methyl]-2,4-dihydro-1H-pyrrolo[2,1-b]quinazolin-9-one

> <PUBCHEM_IUPAC_INCHI>
InChI=1S/C19H15ClN2O3/c1-25-17-9-11(2-5-16(17)23)8-12-6-7-22-18(12)21-15-10-13(20)3-4-14(15)19(22)24/h2-5,8-10,21H,6-7H2,1H3/b11-8-

> <PUBCHEM_IUPAC_INCHIKEY>
VPOHODFVDJVGJU-FLIBITNWSA-N

> <PUBCHEM_XLOGP3_AA>
2.8

> <PUBCHEM_EXACT_MASS>
354.07712

> <PUBCHEM_MOLECULAR_FORMULA>
C19H15ClN2O3

> <PUBCHEM_MOLECULAR_WEIGHT>
354.787

> <PUBCHEM_OPENEYE_CAN_SMILES>
COC1=CC(=CC2=C3NC4=C(C=CC(=C4)Cl)C(=O)N3CC2)C=CC1=O

> <PUBCHEM_OPENEYE_ISO_SMILES>
COC1=C/C(=C\C2=C3NC4=C(C=CC(=C4)Cl)C(=O)N3CC2)/C=CC1=O

> <PUBCHEM_CACTVS_TPSA>
58.6

> <PUBCHEM_MONOISOTOPIC_WEIGHT>
354.07712

> <PUBCHEM_TOTAL_CHARGE>
0

> <PUBCHEM_HEAVY_ATOM_COUNT>
25

> <PUBCHEM_ATOM_DEF_STEREO_COUNT>
0

> <PUBCHEM_ATOM_UDEF_STEREO_COUNT>
0

> <PUBCHEM_BOND_DEF_STEREO_COUNT>
1

> <PUBCHEM_BOND_UDEF_STEREO_COUNT>
0

> <PUBCHEM_ISOTOPIC_ATOM_COUNT>
0

> <PUBCHEM_COMPONENT_COUNT>
1

> <PUBCHEM_CACTVS_TAUTO_COUNT>
8

> <PUBCHEM_COORDINATE_TYPE>
1
5
255

> <PUBCHEM_BONDANNOTATIONS>
12  13  8
12  15  8
13  16  8
15  18  8
16  19  8
18  19  8

$$$$

