17396143
  -OEChem-06241222543D

 43 46  0     1  0  0  0  0  0999 V2000
   -1.8741    2.7689    0.9331 S   0  0  0  0  0  0  0  0  0  0  0  0
   -3.9497    0.1086    1.1026 O   0  0  0  0  0  0  0  0  0  0  0  0
   -0.9949   -1.4051   -2.0213 N   0  0  0  0  0  0  0  0  0  0  0  0
    0.6121    1.5964    0.6636 N   0  0  0  0  0  0  0  0  0  0  0  0
   -0.0688    2.6158   -1.1488 N   0  0  0  0  0  0  0  0  0  0  0  0
    1.1755    2.0713   -1.3967 N   0  0  0  0  0  0  0  0  0  0  0  0
    4.8983    0.5370    1.0888 N   0  0  0  0  0  0  0  0  0  0  0  0
   -2.2562   -0.4833   -0.4443 C   0  0  0  0  0  0  0  0  0  0  0  0
   -1.7081   -1.6901    0.0734 C   0  0  0  0  0  0  0  0  0  0  0  0
   -3.0950    1.9536   -0.1466 C   0  0  1  0  0  0  0  0  0  0  0  0
   -0.9207   -2.2487   -0.9359 C   0  0  0  0  0  0  0  0  0  0  0  0
   -3.1296    0.4467    0.2138 C   0  0  0  0  0  0  0  0  0  0  0  0
   -1.7996   -0.3354   -1.7338 C   0  0  0  0  0  0  0  0  0  0  0  0
   -1.8063   -2.3629    1.3075 C   0  0  0  0  0  0  0  0  0  0  0  0
   -4.4553    2.6254    0.0249 C   0  0  0  0  0  0  0  0  0  0  0  0
   -0.3891    2.3205    0.0907 C   0  0  0  0  0  0  0  0  0  0  0  0
   -0.2241   -3.4512   -0.7719 C   0  0  0  0  0  0  0  0  0  0  0  0
    1.5667    1.4648   -0.2988 C   0  0  0  0  0  0  0  0  0  0  0  0
   -1.1150   -3.5667    1.4858 C   0  0  0  0  0  0  0  0  0  0  0  0
   -0.3367   -4.1007    0.4608 C   0  0  0  0  0  0  0  0  0  0  0  0
    2.8124    0.7608   -0.1127 C   0  0  0  0  0  0  0  0  0  0  0  0
    0.6654    1.0714    2.0095 C   0  0  0  0  0  0  0  0  0  0  0  0
    3.1424   -0.3337   -0.9044 C   0  0  0  0  0  0  0  0  0  0  0  0
    3.7164    1.1528    0.8614 C   0  0  0  0  0  0  0  0  0  0  0  0
    4.3494   -0.9933   -0.7005 C   0  0  0  0  0  0  0  0  0  0  0  0
    5.1847   -0.5228    0.2999 C   0  0  0  0  0  0  0  0  0  0  0  0
   -2.8092    2.0845   -1.1939 H   0  0  0  0  0  0  0  0  0  0  0  0
   -1.9715    0.4222   -2.4854 H   0  0  0  0  0  0  0  0  0  0  0  0
   -0.5234   -1.5548   -2.9025 H   0  0  0  0  0  0  0  0  0  0  0  0
   -2.4053   -1.9612    2.1196 H   0  0  0  0  0  0  0  0  0  0  0  0
   -4.8102    2.5858    1.0612 H   0  0  0  0  0  0  0  0  0  0  0  0
   -4.4222    3.6753   -0.2869 H   0  0  0  0  0  0  0  0  0  0  0  0
   -5.2069    2.1200   -0.5922 H   0  0  0  0  0  0  0  0  0  0  0  0
    0.3829   -3.8672   -1.5691 H   0  0  0  0  0  0  0  0  0  0  0  0
   -1.1862   -4.0895    2.4360 H   0  0  0  0  0  0  0  0  0  0  0  0
    0.1925   -5.0366    0.6211 H   0  0  0  0  0  0  0  0  0  0  0  0
    1.1171    1.8286    2.6547 H   0  0  0  0  0  0  0  0  0  0  0  0
   -0.3423    0.8302    2.3548 H   0  0  0  0  0  0  0  0  0  0  0  0
    1.2510    0.1492    2.0263 H   0  0  0  0  0  0  0  0  0  0  0  0
    2.4688   -0.6856   -1.6818 H   0  0  0  0  0  0  0  0  0  0  0  0
    3.5265    2.0042    1.5087 H   0  0  0  0  0  0  0  0  0  0  0  0
    4.6270   -1.8492   -1.3049 H   0  0  0  0  0  0  0  0  0  0  0  0
    6.1372   -1.0026    0.4991 H   0  0  0  0  0  0  0  0  0  0  0  0
  1 10  1  0  0  0  0
  1 16  1  0  0  0  0
  2 12  2  0  0  0  0
  3 11  1  0  0  0  0
  3 13  1  0  0  0  0
  3 29  1  0  0  0  0
  4 16  1  0  0  0  0
  4 18  1  0  0  0  0
  4 22  1  0  0  0  0
  5  6  1  0  0  0  0
  5 16  2  0  0  0  0
  6 18  2  0  0  0  0
  7 24  1  0  0  0  0
  7 26  2  0  0  0  0
  8  9  1  0  0  0  0
  8 12  1  0  0  0  0
  8 13  2  0  0  0  0
  9 11  1  0  0  0  0
  9 14  2  0  0  0  0
 10 12  1  0  0  0  0
 10 15  1  0  0  0  0
 10 27  1  0  0  0  0
 11 17  2  0  0  0  0
 13 28  1  0  0  0  0
 14 19  1  0  0  0  0
 14 30  1  0  0  0  0
 15 31  1  0  0  0  0
 15 32  1  0  0  0  0
 15 33  1  0  0  0  0
 17 20  1  0  0  0  0
 17 34  1  0  0  0  0
 18 21  1  0  0  0  0
 19 20  2  0  0  0  0
 19 35  1  0  0  0  0
 20 36  1  0  0  0  0
 21 23  1  0  0  0  0
 21 24  2  0  0  0  0
 22 37  1  0  0  0  0
 22 38  1  0  0  0  0
 22 39  1  0  0  0  0
 23 25  2  0  0  0  0
 23 40  1  0  0  0  0
 24 41  1  0  0  0  0
 25 26  1  0  0  0  0
 25 42  1  0  0  0  0
 26 43  1  0  0  0  0
M  END
> <PUBCHEM_COMPOUND_CID>
17396143

> <PUBCHEM_CONFORMER_RMSD>
1.2

> <PUBCHEM_CONFORMER_DIVERSEORDER>
1
69
10
47
102
60
91
99
24
101
28
35
15
110
93
67
43
105
42
14
112
104
64
83
77
98
17
100
6
117
26
107
119
84
20
52
53
39
95
34
40
31
36
113
30
90
81
109
16
12
48
89
122
22
4
13
116
115
118
73
121
65
33
38
79
2
3
97
111
120
49
37
80
106
56
85
55
61
11
71
8
62
108
27
51
18
19
66
45
72
54
23
94
7
68
46
25
96
86
63
58
5
114
92
9
59
29
87
44
76
103
75
57
41
21
82
88
74
32
50
70
78

> <PUBCHEM_MMFF94_PARTIAL_CHARGES>
34
1 -0.29
10 0.29
11 -0.15
12 0.6
13 -0.3
14 -0.15
16 0.24
17 -0.15
18 0.13
19 -0.15
2 -0.57
20 -0.15
21 0.05
22 0.26
23 -0.15
24 0.16
25 -0.15
26 0.16
28 0.15
29 0.27
3 0.03
30 0.15
34 0.15
35 0.15
36 0.15
4 0.05
40 0.15
41 0.15
42 0.15
43 0.15
5 -0.34
6 -0.34
7 -0.62
8 -0.09

> <PUBCHEM_EFFECTIVE_ROTOR_COUNT>
5

> <PUBCHEM_PHARMACOPHORE_FEATURES>
11
1 15 hydrophobe
1 2 acceptor
1 3 cation
1 3 donor
1 7 acceptor
3 4 5 16 cation
3 4 6 18 cation
5 3 8 9 11 13 rings
5 4 5 6 16 18 rings
6 7 21 23 24 25 26 rings
6 9 11 14 17 19 20 rings

> <PUBCHEM_HEAVY_ATOM_COUNT>
26

> <PUBCHEM_ATOM_DEF_STEREO_COUNT>
0

> <PUBCHEM_ATOM_UDEF_STEREO_COUNT>
1

> <PUBCHEM_BOND_DEF_STEREO_COUNT>
0

> <PUBCHEM_BOND_UDEF_STEREO_COUNT>
0

> <PUBCHEM_ISOTOPIC_ATOM_COUNT>
0

> <PUBCHEM_COMPONENT_COUNT>
1

> <PUBCHEM_CACTVS_TAUTO_COUNT>
5

> <PUBCHEM_CONFORMER_ID>
010971AF00000001

> <PUBCHEM_MMFF94_ENERGY>
57.7407

> <PUBCHEM_FEATURE_SELFOVERLAP>
58.412

> <PUBCHEM_SHAPE_FINGERPRINT>
107951 10 18341328993629376235
11370993 70 18261395615029160728
11578080 2 17242177833684038033
12156800 1 15980829244129534771
12422481 6 17910123743229251984
12553582 1 17473253284789504486
12592029 89 18195519522776060993
12633257 1 18050540998907925179
13140716 1 18194682571020023376
13402501 40 18189888911093303302
14251751 93 18409169930736599113
14251757 5 18339344289532019356
15420108 30 17898576629750393453
20197701 30 18262805197504831077
20905425 154 17829604312273389309
21330990 113 18198334263552280524
23419403 2 5975810040708890173
23728640 28 18336268955097582091
3298306 158 18050293857651702597
3411729 13 17901379323449835249
35225 105 17626904734760679490
445580 42 18270691865783331010
5265222 85 18339350951074235892
5364581 5 17900283931007024272
5385378 56 18050279564660093617
7097593 13 17617924847339967467
9953998 17 18336846238491124448

> <PUBCHEM_SHAPE_MULTIPOLES>
508.14
7.57
4.62
1.57
7.76
3.79
0.01
-3.43
-1.01
-2.97
-0.72
-0.14
0.32
0.38

> <PUBCHEM_SHAPE_SELFOVERLAP>
1106.208

> <PUBCHEM_SHAPE_VOLUME>
281

> <PUBCHEM_COORDINATE_TYPE>
2
5
10

$$$$

