47205749
  -OEChem-06241223003D

 31 32  0     0  0  0  0  0  0999 V2000
   -3.1540    0.6784   -1.9806 F   0  0  0  0  0  0  0  0  0  0  0  0
   -0.9519    0.9400    0.2305 O   0  0  0  0  0  0  0  0  0  0  0  0
    4.5443   -1.8282    0.5399 O   0  0  0  0  0  0  0  0  0  0  0  0
    1.8016    2.1225   -0.9275 O   0  0  0  0  0  0  0  0  0  0  0  0
   -0.1717    2.9961    0.9823 O   0  0  0  0  0  0  0  0  0  0  0  0
    1.7326    0.3088    0.5949 N   0  0  0  0  0  0  0  0  0  0  0  0
    3.2999   -1.4765    1.0484 N   0  0  0  0  0  0  0  0  0  0  0  0
   -3.1739    0.0966    0.3206 C   0  0  0  0  0  0  0  0  0  0  0  0
   -2.2783    1.2445    0.6440 C   0  0  0  0  0  0  0  0  0  0  0  0
   -3.5710   -0.1311   -0.9971 C   0  0  0  0  0  0  0  0  0  0  0  0
   -3.6134   -0.7509    1.3378 C   0  0  0  0  0  0  0  0  0  0  0  0
    2.9499   -0.3765    0.3756 C   0  0  0  0  0  0  0  0  0  0  0  0
    4.9055   -0.9364   -0.4179 C   0  0  0  0  0  0  0  0  0  0  0  0
   -4.4075   -1.2059   -1.2977 C   0  0  0  0  0  0  0  0  0  0  0  0
   -4.4499   -1.8260    1.0370 C   0  0  0  0  0  0  0  0  0  0  0  0
    3.9244    0.0088   -0.5612 C   0  0  0  0  0  0  0  0  0  0  0  0
   -4.8471   -2.0535   -0.2806 C   0  0  0  0  0  0  0  0  0  0  0  0
    1.2931    1.4450   -0.0504 C   0  0  0  0  0  0  0  0  0  0  0  0
   -0.0368    1.9035    0.4677 C   0  0  0  0  0  0  0  0  0  0  0  0
    6.2039   -1.1593   -1.0658 C   0  0  0  0  0  0  0  0  0  0  0  0
   -2.6333    2.1462    0.1287 H   0  0  0  0  0  0  0  0  0  0  0  0
   -2.2875    1.4522    1.7214 H   0  0  0  0  0  0  0  0  0  0  0  0
   -3.3106   -0.5875    2.3686 H   0  0  0  0  0  0  0  0  0  0  0  0
    3.9385    0.8410   -1.2484 H   0  0  0  0  0  0  0  0  0  0  0  0
   -4.7166   -1.3828   -2.3236 H   0  0  0  0  0  0  0  0  0  0  0  0
   -4.7916   -2.4863    1.8287 H   0  0  0  0  0  0  0  0  0  0  0  0
   -5.4983   -2.8905   -0.5147 H   0  0  0  0  0  0  0  0  0  0  0  0
    1.1460   -0.1073    1.3139 H   0  0  0  0  0  0  0  0  0  0  0  0
    7.0120   -1.1303   -0.3284 H   0  0  0  0  0  0  0  0  0  0  0  0
    6.2245   -2.1352   -1.5607 H   0  0  0  0  0  0  0  0  0  0  0  0
    6.4061   -0.3926   -1.8202 H   0  0  0  0  0  0  0  0  0  0  0  0
  1 10  1  0  0  0  0
  2  9  1  0  0  0  0
  2 19  1  0  0  0  0
  3  7  1  0  0  0  0
  3 13  1  0  0  0  0
  4 18  2  0  0  0  0
  5 19  2  0  0  0  0
  6 12  1  0  0  0  0
  6 18  1  0  0  0  0
  6 28  1  0  0  0  0
  7 12  2  0  0  0  0
  8  9  1  0  0  0  0
  8 10  1  0  0  0  0
  8 11  2  0  0  0  0
  9 21  1  0  0  0  0
  9 22  1  0  0  0  0
 10 14  2  0  0  0  0
 11 15  1  0  0  0  0
 11 23  1  0  0  0  0
 12 16  1  0  0  0  0
 13 16  2  0  0  0  0
 13 20  1  0  0  0  0
 14 17  1  0  0  0  0
 14 25  1  0  0  0  0
 15 17  2  0  0  0  0
 15 26  1  0  0  0  0
 16 24  1  0  0  0  0
 17 27  1  0  0  0  0
 18 19  1  0  0  0  0
 20 29  1  0  0  0  0
 20 30  1  0  0  0  0
 20 31  1  0  0  0  0
M  END
> <PUBCHEM_COMPOUND_CID>
47205749

> <PUBCHEM_CONFORMER_RMSD>
0.8

> <PUBCHEM_CONFORMER_DIVERSEORDER>
1
135
27
125
59
146
126
90
116
18
2
55
144
81
133
141
33
112
56
4
134
63
14
138
3
107
82
42
21
15
51
128
109
38
46
53
94
61
74
43
95
40
142
60
131
102
9
136
78
24
143
114
8
104
103
39
5
99
16
101
120
79
145
36
37
44
75
28
122
111
92
117
119
22
47
121
68
25
110
66
72
118
31
32
132
45
91
98
17
49
97
13
127
23
129
58
11
89
108
7
86
34
148
6
140
88
85
73
80
48
113
30
19
69
130
35
70
115
87
93
57
137
106
96
123
139
65
124
41
50
83
100
12
62
71
84
77
76
52
10
105
54
20
67
29
147
64
26

> <PUBCHEM_MMFF94_PARTIAL_CHARGES>
26
1 -0.19
10 0.19
11 -0.15
12 0.35
13 -0.04
14 -0.15
15 -0.15
16 -0.15
17 -0.15
18 0.63
19 0.72
2 -0.43
20 0.18
23 0.15
24 0.15
25 0.15
26 0.15
27 0.15
28 0.37
3 -0.02
4 -0.57
5 -0.57
6 -0.49
7 -0.41
8 -0.14
9 0.42

> <PUBCHEM_EFFECTIVE_ROTOR_COUNT>
6

> <PUBCHEM_PHARMACOPHORE_FEATURES>
5
1 4 acceptor
1 5 acceptor
1 6 donor
5 3 7 12 13 16 rings
6 8 10 11 14 15 17 rings

> <PUBCHEM_HEAVY_ATOM_COUNT>
20

> <PUBCHEM_ATOM_DEF_STEREO_COUNT>
0

> <PUBCHEM_ATOM_UDEF_STEREO_COUNT>
0

> <PUBCHEM_BOND_DEF_STEREO_COUNT>
0

> <PUBCHEM_BOND_UDEF_STEREO_COUNT>
0

> <PUBCHEM_ISOTOPIC_ATOM_COUNT>
0

> <PUBCHEM_COMPONENT_COUNT>
1

> <PUBCHEM_CACTVS_TAUTO_COUNT>
8

> <PUBCHEM_CONFORMER_ID>
02D04D7500000001

> <PUBCHEM_MMFF94_ENERGY>
32.6184

> <PUBCHEM_FEATURE_SELFOVERLAP>
25.374

> <PUBCHEM_SHAPE_FINGERPRINT>
10042902 136 18040715831700139326
10319926 262 4895285835961299797
11046707 91 18261113010391447344
11135609 201 11527948971941735933
11370993 144 14346063269818877508
12363563 72 18408038502937840729
12403259 118 7132426934765589299
12553582 1 18408326600717335178
12592606 108 18334293138026493075
12596602 18 16732704917550213362
12633257 1 14851608747783154347
13103583 49 17676754427584966507
13533116 47 18118402835684608915
13544653 18 18407763637953059784
13583140 156 14418417753460598408
14123255 352 9295288330779710346
14178342 30 17096066091848924817
1420 369 18260548904996884235
14251764 30 17968369135172002382
14251764 38 11814453050287430758
14576447 43 18343861135065214834
14767858 380 18199168652109011148
14931854 50 18060139851124290803
14950920 106 14996292417736018662
15188451 53 16298395617677218183
15342168 16 10663559114173358203
15352361 1 18409729555979430891
15475509 8 17703524208050131311
15537594 2 18340760545928087826
1741750 31 10375861983306509104
17780758 139 17095517430966776563
17870717 6 17917714591551566847
1813 80 17895463761180369308
18222031 100 18260556614573852958
193927 3 18334850615146580854
19784866 240 18187367597796973151
19784866 34 10951778477554240677
20291156 8 18408886234871536385
20388580 30 18341609287548232748
20645477 70 18200878348901778865
20693207 138 18059021579527011733
20871999 31 17561082522618645016
21054139 6 18272645792989232410
21713013 43 17846502495995346565
22646028 28 18334295336315902001
22950370 63 18333723624497341096
23402539 116 18340482378603215200
23403322 49 18412829079674654891
235170 7 16558752325328195206
23559900 14 17987807298096682101
270888 7 10663831771129042783
27216 239 7781514841605594837
2838139 119 12607401070868297350
2916195 48 11743825946604253694
3004659 81 18272090487058960096
312425 83 15912218679153230742
314194 84 18334292020411414386
351380 3 18334572442989489510
3737641 26 17387116766950295374
38570 142 4894122626396510570
4259306 186 18343021085994724315
44062 13 18341339954860364343
46194498 28 17130704972820483949
474 4 9655311323363034329
5486654 36 18338222813567975497
559249 180 18260828237597102649
6328613 192 8862358939886860994
633830 44 11959468828427371089
636775 72 9292704479642509578
6431902 208 18409728499829263886
6669772 16 17834665012357423764
7970288 3 18260829271872715071
9981440 41 8790889579651950765

> <PUBCHEM_SHAPE_MULTIPOLES>
370.88
13.17
2.46
1.32
8.5
1.06
-0.29
-11
-2.43
-0.13
0.38
-1.01
-0.14
-0.05

> <PUBCHEM_SHAPE_SELFOVERLAP>
788.748

> <PUBCHEM_SHAPE_VOLUME>
206.1

> <PUBCHEM_COORDINATE_TYPE>
2
5
10

$$$$

