5440
  -OEChem-07051212523D

 56 59  0     0  0  0  0  0  0999 V2000
   -2.4841   -0.1625   -2.2022 S   0  0  0  0  0  0  0  0  0  0  0  0
   -0.0129    4.8763    0.7776 S   0  0  0  0  0  0  0  0  0  0  0  0
    2.4276   -1.6217    0.6693 N   0  0  0  0  0  0  0  0  0  0  0  0
    4.8261   -1.6872   -0.9437 N   0  0  0  0  0  0  0  0  0  0  0  0
   -1.6510   -0.0926    0.7919 N   0  0  0  0  0  0  0  0  0  0  0  0
    2.7825   -2.8071   -0.1207 C   0  0  0  0  0  0  0  0  0  0  0  0
    2.9521   -0.4070    0.0336 C   0  0  0  0  0  0  0  0  0  0  0  0
    0.9799   -1.5309    0.8471 C   0  0  0  0  0  0  0  0  0  0  0  0
    4.3005   -2.9024   -0.3097 C   0  0  0  0  0  0  0  0  0  0  0  0
    4.4702   -0.5019   -0.1542 C   0  0  0  0  0  0  0  0  0  0  0  0
    0.5886   -0.3823    1.7822 C   0  0  0  0  0  0  0  0  0  0  0  0
   -0.9114   -0.2624    2.0493 C   0  0  0  0  0  0  0  0  0  0  0  0
    6.2742   -1.7782   -1.1195 C   0  0  0  0  0  0  0  0  0  0  0  0
   -1.4393    1.1072    0.0668 C   0  0  0  0  0  0  0  0  0  0  0  0
   -2.5712   -1.1100    0.4333 C   0  0  0  0  0  0  0  0  0  0  0  0
   -1.7982    1.2072   -1.2920 C   0  0  0  0  0  0  0  0  0  0  0  0
   -3.0425   -1.2296   -0.8890 C   0  0  0  0  0  0  0  0  0  0  0  0
   -0.8972    2.2616    0.6729 C   0  0  0  0  0  0  0  0  0  0  0  0
   -3.0842   -2.0223    1.3813 C   0  0  0  0  0  0  0  0  0  0  0  0
   -1.5931    2.4020   -2.0046 C   0  0  0  0  0  0  0  0  0  0  0  0
   -0.7003    3.4482   -0.0387 C   0  0  0  0  0  0  0  0  0  0  0  0
   -3.9616   -2.2353   -1.2375 C   0  0  0  0  0  0  0  0  0  0  0  0
   -1.0457    3.5175   -1.3797 C   0  0  0  0  0  0  0  0  0  0  0  0
   -4.0014   -3.0168    1.0306 C   0  0  0  0  0  0  0  0  0  0  0  0
   -4.4383   -3.1253   -0.2809 C   0  0  0  0  0  0  0  0  0  0  0  0
    1.6039    4.2509    1.3152 C   0  0  0  0  0  0  0  0  0  0  0  0
    2.4263    3.8046    0.1213 C   0  0  0  0  0  0  0  0  0  0  0  0
    2.2892   -2.7862   -1.1020 H   0  0  0  0  0  0  0  0  0  0  0  0
    2.4433   -3.7132    0.3959 H   0  0  0  0  0  0  0  0  0  0  0  0
    2.7918    0.4777    0.6558 H   0  0  0  0  0  0  0  0  0  0  0  0
    2.4674   -0.2255   -0.9352 H   0  0  0  0  0  0  0  0  0  0  0  0
    0.4857   -1.4189   -0.1257 H   0  0  0  0  0  0  0  0  0  0  0  0
    0.6090   -2.4648    1.2885 H   0  0  0  0  0  0  0  0  0  0  0  0
    4.5151   -3.7727   -0.9418 H   0  0  0  0  0  0  0  0  0  0  0  0
    4.7827   -3.0774    0.6618 H   0  0  0  0  0  0  0  0  0  0  0  0
    4.9637   -0.5225    0.8272 H   0  0  0  0  0  0  0  0  0  0  0  0
    4.8111    0.4033   -0.6717 H   0  0  0  0  0  0  0  0  0  0  0  0
    1.0919   -0.5264    2.7479 H   0  0  0  0  0  0  0  0  0  0  0  0
    0.9523    0.5732    1.4025 H   0  0  0  0  0  0  0  0  0  0  0  0
   -1.1536   -1.1696    2.6042 H   0  0  0  0  0  0  0  0  0  0  0  0
   -1.1319    0.5450    2.7572 H   0  0  0  0  0  0  0  0  0  0  0  0
    6.6554   -0.8890   -1.6337 H   0  0  0  0  0  0  0  0  0  0  0  0
    6.8029   -1.8773   -0.1645 H   0  0  0  0  0  0  0  0  0  0  0  0
    6.5318   -2.6386   -1.7470 H   0  0  0  0  0  0  0  0  0  0  0  0
   -0.6455    2.2661    1.7298 H   0  0  0  0  0  0  0  0  0  0  0  0
   -2.8506   -1.9689    2.4394 H   0  0  0  0  0  0  0  0  0  0  0  0
   -1.8592    2.4760   -3.0572 H   0  0  0  0  0  0  0  0  0  0  0  0
   -4.3176   -2.3350   -2.2610 H   0  0  0  0  0  0  0  0  0  0  0  0
   -0.9004    4.4283   -1.9546 H   0  0  0  0  0  0  0  0  0  0  0  0
   -4.3826   -3.6949    1.7887 H   0  0  0  0  0  0  0  0  0  0  0  0
   -5.1517   -3.8951   -0.5584 H   0  0  0  0  0  0  0  0  0  0  0  0
    1.4787    3.4298    2.0275 H   0  0  0  0  0  0  0  0  0  0  0  0
    2.1218    5.0617    1.8371 H   0  0  0  0  0  0  0  0  0  0  0  0
    2.0000    2.9295   -0.3785 H   0  0  0  0  0  0  0  0  0  0  0  0
    2.5440    4.6073   -0.6148 H   0  0  0  0  0  0  0  0  0  0  0  0
    3.4300    3.5195    0.4557 H   0  0  0  0  0  0  0  0  0  0  0  0
  1 16  1  0  0  0  0
  1 17  1  0  0  0  0
  2 21  1  0  0  0  0
  2 26  1  0  0  0  0
  3  6  1  0  0  0  0
  3  7  1  0  0  0  0
  3  8  1  0  0  0  0
  4  9  1  0  0  0  0
  4 10  1  0  0  0  0
  4 13  1  0  0  0  0
  5 12  1  0  0  0  0
  5 14  1  0  0  0  0
  5 15  1  0  0  0  0
  6  9  1  0  0  0  0
  6 28  1  0  0  0  0
  6 29  1  0  0  0  0
  7 10  1  0  0  0  0
  7 30  1  0  0  0  0
  7 31  1  0  0  0  0
  8 11  1  0  0  0  0
  8 32  1  0  0  0  0
  8 33  1  0  0  0  0
  9 34  1  0  0  0  0
  9 35  1  0  0  0  0
 10 36  1  0  0  0  0
 10 37  1  0  0  0  0
 11 12  1  0  0  0  0
 11 38  1  0  0  0  0
 11 39  1  0  0  0  0
 12 40  1  0  0  0  0
 12 41  1  0  0  0  0
 13 42  1  0  0  0  0
 13 43  1  0  0  0  0
 13 44  1  0  0  0  0
 14 16  2  0  0  0  0
 14 18  1  0  0  0  0
 15 17  1  0  0  0  0
 15 19  2  0  0  0  0
 16 20  1  0  0  0  0
 17 22  2  0  0  0  0
 18 21  2  0  0  0  0
 18 45  1  0  0  0  0
 19 24  1  0  0  0  0
 19 46  1  0  0  0  0
 20 23  2  0  0  0  0
 20 47  1  0  0  0  0
 21 23  1  0  0  0  0
 22 25  1  0  0  0  0
 22 48  1  0  0  0  0
 23 49  1  0  0  0  0
 24 25  2  0  0  0  0
 24 50  1  0  0  0  0
 25 51  1  0  0  0  0
 26 27  1  0  0  0  0
 26 52  1  0  0  0  0
 26 53  1  0  0  0  0
 27 54  1  0  0  0  0
 27 55  1  0  0  0  0
 27 56  1  0  0  0  0
M  END
> <PUBCHEM_COMPOUND_CID>
5440

> <PUBCHEM_CONFORMER_RMSD>
0.8

> <PUBCHEM_CONFORMER_DIVERSEORDER>
1
108
149
129
66
37
19
7
144
86
143
81
55
45
18
116
96
44
110
57
147
135
94
78
56
34
22
88
63
102
31
36
79
132
131
62
33
111
83
3
39
41
10
114
112
103
134
105
138
21
92
146
126
84
69
24
71
16
136
49
148
139
106
117
90
25
58
109
5
133
40
9
51
77
101
72
67
46
61
100
2
119
54
137
4
53
42
120
15
85
52
125
47
97
140
13
73
121
23
14
127
74
87
28
68
82
80
20
50
60
91
65
89
104
95
113
93
32
115
142
35
38
48
17
141
128
118
12
27
98
124
43
11
123
26
59
76
29
107
130
75
70
6
30
99
122
8
145
64

> <PUBCHEM_MMFF94_PARTIAL_CHARGES>
32
1 -0.2
10 0.27
12 0.37
13 0.27
14 0.1
15 0.1
16 0.1
17 0.1
18 -0.15
19 -0.15
2 -0.33
20 -0.15
21 0.1
22 -0.15
23 -0.15
24 -0.15
25 -0.15
26 0.23
3 -0.81
4 -0.81
45 0.15
46 0.15
47 0.15
48 0.15
49 0.15
5 -0.57
50 0.15
51 0.15
6 0.27
7 0.27
8 0.27
9 0.27

> <PUBCHEM_EFFECTIVE_ROTOR_COUNT>
7.6

> <PUBCHEM_PHARMACOPHORE_FEATURES>
8
1 27 hydrophobe
1 3 cation
1 4 cation
1 5 cation
6 1 5 14 15 16 17 rings
6 14 16 18 20 21 23 rings
6 15 17 19 22 24 25 rings
6 3 4 6 7 9 10 rings

> <PUBCHEM_HEAVY_ATOM_COUNT>
27

> <PUBCHEM_ATOM_DEF_STEREO_COUNT>
0

> <PUBCHEM_ATOM_UDEF_STEREO_COUNT>
0

> <PUBCHEM_BOND_DEF_STEREO_COUNT>
0

> <PUBCHEM_BOND_UDEF_STEREO_COUNT>
0

> <PUBCHEM_ISOTOPIC_ATOM_COUNT>
0

> <PUBCHEM_COMPONENT_COUNT>
1

> <PUBCHEM_CACTVS_TAUTO_COUNT>
1

> <PUBCHEM_CONFORMER_ID>
0000154000000001

> <PUBCHEM_MMFF94_ENERGY>
82.0745

> <PUBCHEM_FEATURE_SELFOVERLAP>
40.628

> <PUBCHEM_SHAPE_FINGERPRINT>
11045515 52 18343298146014190471
11101153 10 18271509920093923892
11477941 20 18342163480606280574
11488393 25 18053114929541727299
11607047 141 18050546471598821211
12788726 201 18125732415970152403
1361 2 17904482905197726192
13761468 95 17122251167728549444
14251757 5 18194968662712056967
14659021 117 17833571341868455722
14713325 29 18192424388779895934
14955137 171 18270377453103185379
15463212 79 17401221456428924184
15475509 8 18338813286130960319
15849732 13 18340190991353851243
15876981 60 18269259314085981356
16991981 162 18050280668202340168
16994733 274 14189305893622863935
1813 80 18116133520472330407
19930381 70 18265896852530013568
20101258 96 18336256920641234856
20775438 99 17833881236348560389
20905425 154 17412507616997780497
21344244 246 17833270818131863070
21599406 157 17754144769773750942
22182313 1 17414176620315082283
22393880 68 18194959876080264790
22907989 373 18195819680638976119
23557571 272 18194711317067337418
24893989 43 16464261348963069741
38695281 34 17545331778517856011
4017518 198 17256239351191813052
469060 322 17822309992778147303
497634 4 17968082171063485546
5309563 4 18336264548724789534
532947 4 18051697637731661337
6287921 2 17975139746838152571
6669772 16 17614840713229866508
84936 31 17834403315561737235

> <PUBCHEM_SHAPE_MULTIPOLES>
548.4
9
6.46
1.84
9.27
7.77
-0.23
-13.18
-2.96
1.98
0.59
-1.09
0.31
2.08

> <PUBCHEM_SHAPE_SELFOVERLAP>
1129.636

> <PUBCHEM_SHAPE_VOLUME>
316.1

> <PUBCHEM_COORDINATE_TYPE>
2
5
10

$$$$

