14356
  -OEChem-06241222433D

 29 29  0     0  0  0  0  0  0999 V2000
    3.6091    3.5798    0.0420 Cl  0  0  0  0  0  0  0  0  0  0  0  0
    3.6888   -3.5291   -0.0226 Cl  0  0  0  0  0  0  0  0  0  0  0  0
   -4.4557    1.1827    0.1544 O   0  0  0  0  0  0  0  0  0  0  0  0
   -4.6266   -1.0665   -0.1258 O   0  0  0  0  0  0  0  0  0  0  0  0
    1.7325    0.0041   -0.0087 N   0  0  0  0  0  0  0  0  0  0  0  0
    2.4531    1.1635   -0.4958 C   0  0  0  0  0  0  0  0  0  0  0  0
    2.4798   -1.1334    0.4902 C   0  0  0  0  0  0  0  0  0  0  0  0
    0.3223   -0.0118   -0.0074 C   0  0  0  0  0  0  0  0  0  0  0  0
   -0.3622   -1.1323    0.4635 C   0  0  0  0  0  0  0  0  0  0  0  0
   -0.3882    1.0931   -0.4769 C   0  0  0  0  0  0  0  0  0  0  0  0
    2.7144    2.1548    0.6271 C   0  0  0  0  0  0  0  0  0  0  0  0
    2.7615   -2.1312   -0.6220 C   0  0  0  0  0  0  0  0  0  0  0  0
   -1.7570   -1.1481    0.4647 C   0  0  0  0  0  0  0  0  0  0  0  0
   -1.7829    1.0772   -0.4756 C   0  0  0  0  0  0  0  0  0  0  0  0
   -2.4673   -0.0434   -0.0047 C   0  0  0  0  0  0  0  0  0  0  0  0
   -3.9215   -0.0595   -0.0027 C   0  0  0  0  0  0  0  0  0  0  0  0
    3.4277    0.8300   -0.8801 H   0  0  0  0  0  0  0  0  0  0  0  0
    1.9871    1.6307   -1.3701 H   0  0  0  0  0  0  0  0  0  0  0  0
    3.4474   -0.7752    0.8698 H   0  0  0  0  0  0  0  0  0  0  0  0
    2.0240   -1.6009    1.3699 H   0  0  0  0  0  0  0  0  0  0  0  0
    0.1272   -2.0301    0.8234 H   0  0  0  0  0  0  0  0  0  0  0  0
    0.0800    2.0011   -0.8393 H   0  0  0  0  0  0  0  0  0  0  0  0
    1.7813    2.5169    1.0688 H   0  0  0  0  0  0  0  0  0  0  0  0
    3.3077    1.7007    1.4272 H   0  0  0  0  0  0  0  0  0  0  0  0
    1.8364   -2.5190   -1.0587 H   0  0  0  0  0  0  0  0  0  0  0  0
    3.3435   -1.6724   -1.4276 H   0  0  0  0  0  0  0  0  0  0  0  0
   -2.2761   -2.0293    0.8331 H   0  0  0  0  0  0  0  0  0  0  0  0
   -2.3113    1.9488   -0.8533 H   0  0  0  0  0  0  0  0  0  0  0  0
   -5.4365    1.1608    0.1546 H   0  0  0  0  0  0  0  0  0  0  0  0
  1 11  1  0  0  0  0
  2 12  1  0  0  0  0
  3 16  1  0  0  0  0
  3 29  1  0  0  0  0
  4 16  2  0  0  0  0
  5  6  1  0  0  0  0
  5  7  1  0  0  0  0
  5  8  1  0  0  0  0
  6 11  1  0  0  0  0
  6 17  1  0  0  0  0
  6 18  1  0  0  0  0
  7 12  1  0  0  0  0
  7 19  1  0  0  0  0
  7 20  1  0  0  0  0
  8  9  2  0  0  0  0
  8 10  1  0  0  0  0
  9 13  1  0  0  0  0
  9 21  1  0  0  0  0
 10 14  2  0  0  0  0
 10 22  1  0  0  0  0
 11 23  1  0  0  0  0
 11 24  1  0  0  0  0
 12 25  1  0  0  0  0
 12 26  1  0  0  0  0
 13 15  2  0  0  0  0
 13 27  1  0  0  0  0
 14 15  1  0  0  0  0
 14 28  1  0  0  0  0
 15 16  1  0  0  0  0
M  END
> <PUBCHEM_COMPOUND_CID>
14356

> <PUBCHEM_CONFORMER_RMSD>
0.8

> <PUBCHEM_CONFORMER_DIVERSEORDER>
2
1
11
13
10
14
4
9
12
7
18
15
3
16
17
19
8
5
6

> <PUBCHEM_MMFF94_PARTIAL_CHARGES>
21
1 -0.29
10 -0.15
11 0.29
12 0.29
13 -0.15
14 -0.15
15 0.09
16 0.63
2 -0.29
21 0.15
22 0.15
27 0.15
28 0.15
29 0.5
3 -0.65
4 -0.57
5 -0.84
6 0.37
7 0.37
8 0.1
9 -0.15

> <PUBCHEM_EFFECTIVE_ROTOR_COUNT>
6

> <PUBCHEM_PHARMACOPHORE_FEATURES>
5
1 3 acceptor
1 4 acceptor
1 5 cation
3 3 4 16 anion
6 8 9 10 13 14 15 rings

> <PUBCHEM_HEAVY_ATOM_COUNT>
16

> <PUBCHEM_ATOM_DEF_STEREO_COUNT>
0

> <PUBCHEM_ATOM_UDEF_STEREO_COUNT>
0

> <PUBCHEM_BOND_DEF_STEREO_COUNT>
0

> <PUBCHEM_BOND_UDEF_STEREO_COUNT>
0

> <PUBCHEM_ISOTOPIC_ATOM_COUNT>
0

> <PUBCHEM_COMPONENT_COUNT>
1

> <PUBCHEM_CACTVS_TAUTO_COUNT>
1

> <PUBCHEM_CONFORMER_ID>
0000381400000002

> <PUBCHEM_MMFF94_ENERGY>
51.7083

> <PUBCHEM_FEATURE_SELFOVERLAP>
25.429

> <PUBCHEM_SHAPE_FINGERPRINT>
10608611 8 18341898493429146421
12032990 46 18271238417604363275
12916754 54 18410292540920175491
13380535 76 18198909102075072304
13955234 65 18409444765572674754
14178000 15 18263082270440496976
14866123 147 16607445615325067866
15442244 35 18264485259682458081
15536298 74 18411700984817847879
17804303 29 18198057178142759879
18186145 218 17917996113619748607
18785283 64 18341898455317655776
19026448 5 17822009809519388931
19422 9 18333730239068847167
20645477 70 18412831291488198119
20671657 1 18409725166802214790
20671657 53 18191864733261419906
20832881 197 18126279989581997083
21452121 103 18411991255729747728
221490 88 18341324556817636611
2255824 54 18335419080202331902
23526113 38 18200587116165677346
23559900 14 18410298042361877098
23566358 27 18335706005355443542
2748010 2 18202845448175992599
3286 77 18341048635164762870
449060 62 18336543798645086328
5104073 3 18342735218010145841
633830 44 18341901818171378159
7364860 26 18409449185389206534
77188 2 18193556899247529302
81539 233 18268150868657489420
9709674 26 18413387631355147059
9981440 41 18122348978104797984

> <PUBCHEM_SHAPE_MULTIPOLES>
316.29
8.12
3.61
0.75
6.54
0.15
0
-0.13
-0.02
-7.23
-0.03
-0.19
0
0.45

> <PUBCHEM_SHAPE_SELFOVERLAP>
624.679

> <PUBCHEM_SHAPE_VOLUME>
191.2

> <PUBCHEM_COORDINATE_TYPE>
2
5
10

$$$$

