440163
  -OEChem-07051212493D

 27 28  0     1  0  0  0  0  0999 V2000
   -3.5618   -0.5994   -0.0029 O   0  0  0  0  0  0  0  0  0  0  0  0
   -3.4185    1.7036   -1.0073 O   0  0  0  0  0  0  0  0  0  0  0  0
   -1.2619    1.9361   -0.2586 O   0  0  0  0  0  0  0  0  0  0  0  0
    1.2798   -1.4262   -1.5024 N   0  0  0  0  0  0  0  0  0  0  0  0
   -0.0948   -0.7849    0.1181 C   0  0  0  0  0  0  0  0  0  0  0  0
   -1.2969   -0.6515    0.9660 C   0  0  2  0  0  0  0  0  0  0  0  0
    1.1518   -0.1244    0.3049 C   0  0  0  0  0  0  0  0  0  0  0  0
    1.9963   -0.5442   -0.7251 C   0  0  0  0  0  0  0  0  0  0  0  0
    0.0151   -1.5779   -1.0008 C   0  0  0  0  0  0  0  0  0  0  0  0
   -1.7164   -1.9781    1.6328 C   0  0  0  0  0  0  0  0  0  0  0  0
    1.6442    0.7930    1.2543 C   0  0  0  0  0  0  0  0  0  0  0  0
   -2.4850   -0.0565    0.2005 C   0  0  0  0  0  0  0  0  0  0  0  0
    3.3140   -0.0906   -0.8536 C   0  0  0  0  0  0  0  0  0  0  0  0
    2.9601    1.2554    1.1382 C   0  0  0  0  0  0  0  0  0  0  0  0
    3.7804    0.8190    0.0997 C   0  0  0  0  0  0  0  0  0  0  0  0
   -2.3067    1.3266   -0.3638 C   0  0  0  0  0  0  0  0  0  0  0  0
   -1.1012    0.0487    1.7887 H   0  0  0  0  0  0  0  0  0  0  0  0
   -0.6909   -2.2365   -1.4875 H   0  0  0  0  0  0  0  0  0  0  0  0
    1.6367   -1.8934   -2.3244 H   0  0  0  0  0  0  0  0  0  0  0  0
   -2.5776   -1.8253    2.2925 H   0  0  0  0  0  0  0  0  0  0  0  0
   -0.8960   -2.3880    2.2321 H   0  0  0  0  0  0  0  0  0  0  0  0
   -1.9992   -2.7312    0.8885 H   0  0  0  0  0  0  0  0  0  0  0  0
    1.0209    1.1456    2.0708 H   0  0  0  0  0  0  0  0  0  0  0  0
    3.9533   -0.4297   -1.6618 H   0  0  0  0  0  0  0  0  0  0  0  0
    3.3453    1.9632    1.8674 H   0  0  0  0  0  0  0  0  0  0  0  0
    4.7993    1.1911    0.0286 H   0  0  0  0  0  0  0  0  0  0  0  0
   -3.3311    2.5935   -1.4106 H   0  0  0  0  0  0  0  0  0  0  0  0
  1 12  2  0  0  0  0
  2 16  1  0  0  0  0
  2 27  1  0  0  0  0
  3 16  2  0  0  0  0
  4  8  1  0  0  0  0
  4  9  1  0  0  0  0
  4 19  1  0  0  0  0
  5  6  1  0  0  0  0
  5  7  1  0  0  0  0
  5  9  2  0  0  0  0
  6 10  1  0  0  0  0
  6 12  1  0  0  0  0
  6 17  1  0  0  0  0
  7  8  1  0  0  0  0
  7 11  2  0  0  0  0
  8 13  2  0  0  0  0
  9 18  1  0  0  0  0
 10 20  1  0  0  0  0
 10 21  1  0  0  0  0
 10 22  1  0  0  0  0
 11 14  1  0  0  0  0
 11 23  1  0  0  0  0
 12 16  1  0  0  0  0
 13 15  1  0  0  0  0
 13 24  1  0  0  0  0
 14 15  2  0  0  0  0
 14 25  1  0  0  0  0
 15 26  1  0  0  0  0
M  END
> <PUBCHEM_COMPOUND_CID>
440163

> <PUBCHEM_CONFORMER_RMSD>
0.6

> <PUBCHEM_CONFORMER_DIVERSEORDER>
1
4
9
22
8
15
10
20
13
18
2
11
5
6
3
16
19
21
14
17
7
12

> <PUBCHEM_MMFF94_PARTIAL_CHARGES>
21
1 -0.57
11 -0.15
12 0.51
13 -0.15
14 -0.15
15 -0.15
16 0.72
18 0.15
19 0.27
2 -0.65
23 0.15
24 0.15
25 0.15
26 0.15
27 0.5
3 -0.57
4 0.03
5 -0.18
6 0.24
8 -0.15
9 -0.3

> <PUBCHEM_EFFECTIVE_ROTOR_COUNT>
3

> <PUBCHEM_PHARMACOPHORE_FEATURES>
9
1 1 acceptor
1 10 hydrophobe
1 2 acceptor
1 3 acceptor
1 4 cation
1 4 donor
3 2 3 16 anion
5 4 5 7 8 9 rings
6 7 8 11 13 14 15 rings

> <PUBCHEM_HEAVY_ATOM_COUNT>
16

> <PUBCHEM_ATOM_DEF_STEREO_COUNT>
1

> <PUBCHEM_ATOM_UDEF_STEREO_COUNT>
0

> <PUBCHEM_BOND_DEF_STEREO_COUNT>
0

> <PUBCHEM_BOND_UDEF_STEREO_COUNT>
0

> <PUBCHEM_ISOTOPIC_ATOM_COUNT>
0

> <PUBCHEM_COMPONENT_COUNT>
1

> <PUBCHEM_CACTVS_TAUTO_COUNT>
4

> <PUBCHEM_CONFORMER_ID>
0006B76300000001

> <PUBCHEM_MMFF94_ENERGY>
28.4646

> <PUBCHEM_FEATURE_SELFOVERLAP>
45.831

> <PUBCHEM_SHAPE_FINGERPRINT>
10608611 8 18407760347881412880
10871710 139 16679513560287277268
11640471 11 16486963003526603605
12077114 3 18337400365795501640
12138202 97 18412826893209422479
124424 183 18408885174589659594
12730499 353 18261389009864863879
13294875 104 17480592975886732465
13464514 151 18047463719148363848
13538477 17 17274540923407711938
13583140 156 18266752294414835144
13764800 53 18202273719425579881
13839132 238 18271524311680045159
14787075 74 15545405842065825082
15219456 202 18334011722044583765
15775835 57 17821727204401894212
15852999 172 18342176721252078839
16945 1 18131344176893605779
17357779 13 17027716957321618607
17357990 137 16486393516701477671
17844478 74 18264191544101578066
18186145 218 17458340832173238628
18219364 16 17895186654517324938
19049666 15 18267291200577297986
200 152 16660362592891763539
21639500 275 17312824853435565688
21947302 44 18263650734593674104
22802520 49 18191574461774669949
23402539 116 18272377421519775047
23493267 7 18272364278771740712
23557571 272 18340474596006651043
23559900 14 18272649073805994406
23598291 2 14926438335083489662
25 1 17967809483320362600
25610 171 18129931304631209905
2748010 2 17387410130464545694
305870 269 17702952585497513667
77492 1 16200148759796929842
81228 2 18057862720120423643

> <PUBCHEM_SHAPE_MULTIPOLES>
306.68
5.81
1.86
1.36
0.58
0.15
0.19
2.05
-0.29
-1.01
-0.11
0.09
-0.35
1.49

> <PUBCHEM_SHAPE_SELFOVERLAP>
666.726

> <PUBCHEM_SHAPE_VOLUME>
167.4

> <PUBCHEM_COORDINATE_TYPE>
2
5
10

$$$$

