6498
  -OEChem-06261201212D

 13 13  0     0  0  0  0  0  0999 V2000
    2.8090    0.3649    0.0000 S   0  0  0  0  0  0  0  0  0  0  0  0
    3.3968    1.1739    0.0000 O   0  0  0  0  0  0  0  0  0  0  0  0
    2.2212    1.1739    0.0000 O   0  0  0  0  0  0  0  0  0  0  0  0
    2.0000   -0.2229    0.0000 C   0  0  0  0  0  0  0  0  0  0  0  0
    3.6180   -0.2229    0.0000 C   0  0  0  0  0  0  0  0  0  0  0  0
    3.3090   -1.1739    0.0000 C   0  0  0  0  0  0  0  0  0  0  0  0
    2.3090   -1.1739    0.0000 C   0  0  0  0  0  0  0  0  0  0  0  0
    1.6900    0.3141    0.0000 H   0  0  0  0  0  0  0  0  0  0  0  0
    1.4336   -0.4750    0.0000 H   0  0  0  0  0  0  0  0  0  0  0  0
    4.1844   -0.4750    0.0000 H   0  0  0  0  0  0  0  0  0  0  0  0
    3.9280    0.3141    0.0000 H   0  0  0  0  0  0  0  0  0  0  0  0
    3.6734   -1.6755    0.0000 H   0  0  0  0  0  0  0  0  0  0  0  0
    1.9446   -1.6755    0.0000 H   0  0  0  0  0  0  0  0  0  0  0  0
  1  2  2  0  0  0  0
  1  3  2  0  0  0  0
  1  4  1  0  0  0  0
  1  5  1  0  0  0  0
  4  7  1  0  0  0  0
  4  8  1  0  0  0  0
  4  9  1  0  0  0  0
  5  6  1  0  0  0  0
  5 10  1  0  0  0  0
  5 11  1  0  0  0  0
  6  7  2  0  0  0  0
  6 12  1  0  0  0  0
  7 13  1  0  0  0  0
M  END
> <PUBCHEM_COMPOUND_CID>
6498

> <PUBCHEM_COMPOUND_CANONICALIZED>
1

> <PUBCHEM_CACTVS_COMPLEXITY>
156

> <PUBCHEM_CACTVS_HBOND_ACCEPTOR>
2

> <PUBCHEM_CACTVS_HBOND_DONOR>
0

> <PUBCHEM_CACTVS_ROTATABLE_BOND>
0

> <PUBCHEM_CACTVS_SUBSKEYS>
AAADcYBgMABAAAAAAAAAAAAAAAAAAQAAAAAAAAAAAAAAAAAAAAAAGAQAAAAACACEQACAAAAAAAqAACBCAHBAAAAAABAICAAAAAAAAAAAAQAAAAAAAAAgAAAAAAAAAAAAAAAAAAAAAAAAAAAAAAAAAAAAAA==

> <PUBCHEM_IUPAC_OPENEYE_NAME>
2,5-dihydrothiophene 1,1-dioxide

> <PUBCHEM_IUPAC_CAS_NAME>
2,5-dihydrothiophene 1,1-dioxide

> <PUBCHEM_IUPAC_NAME>
2,5-dihydrothiophene 1,1-dioxide

> <PUBCHEM_IUPAC_SYSTEMATIC_NAME>
2,5-dihydrothiophene 1,1-dioxide

> <PUBCHEM_IUPAC_TRADITIONAL_NAME>
2,5-dihydrothiophene 1,1-dioxide

> <PUBCHEM_IUPAC_INCHI>
InChI=1S/C4H6O2S/c5-7(6)3-1-2-4-7/h1-2H,3-4H2

> <PUBCHEM_IUPAC_INCHIKEY>
MBDNRNMVTZADMQ-UHFFFAOYSA-N

> <PUBCHEM_XLOGP3_AA>
-0.2

> <PUBCHEM_EXACT_MASS>
118.00885

> <PUBCHEM_MOLECULAR_FORMULA>
C4H6O2S

> <PUBCHEM_MOLECULAR_WEIGHT>
118.15424

> <PUBCHEM_OPENEYE_CAN_SMILES>
C1C=CCS1(=O)=O

> <PUBCHEM_OPENEYE_ISO_SMILES>
C1C=CCS1(=O)=O

> <PUBCHEM_CACTVS_TPSA>
42.5

> <PUBCHEM_MONOISOTOPIC_WEIGHT>
118.00885

> <PUBCHEM_TOTAL_CHARGE>
0

> <PUBCHEM_HEAVY_ATOM_COUNT>
7

> <PUBCHEM_ATOM_DEF_STEREO_COUNT>
0

> <PUBCHEM_ATOM_UDEF_STEREO_COUNT>
0

> <PUBCHEM_BOND_DEF_STEREO_COUNT>
0

> <PUBCHEM_BOND_UDEF_STEREO_COUNT>
0

> <PUBCHEM_ISOTOPIC_ATOM_COUNT>
0

> <PUBCHEM_COMPONENT_COUNT>
1

> <PUBCHEM_CACTVS_TAUTO_COUNT>
1

> <PUBCHEM_COORDINATE_TYPE>
1
5
255

$$$$

