5462441
  -OEChem-07051212582D

 49 52  0     1  0  0  0  0  0999 V2000
    3.7894    2.5369    0.0000 O   0  0  0  0  0  0  0  0  0  0  0  0
    4.6500   -2.0292    0.0000 N   0  0  0  0  0  0  0  0  0  0  0  0
    2.9061    1.0470    0.0000 N   0  0  0  0  0  0  0  0  0  0  0  0
    4.6660   -0.9877    0.0000 C   0  0  1  0  0  0  0  0  0  0  0  0
    5.5321   -0.4877    0.0000 C   0  0  1  0  0  0  0  0  0  0  0  0
    5.5321    0.5123    0.0000 C   0  0  1  0  0  0  0  0  0  0  0  0
    4.4629   -0.6177    0.0000 C   0  0  0  0  0  0  0  0  0  0  0  0
    5.1102    0.5033    0.0000 C   0  0  0  0  0  0  0  0  0  0  0  0
    3.8000   -0.4877    0.0000 C   0  0  0  0  0  0  0  0  0  0  0  0
    4.3793    0.1779    0.0000 C   0  0  1  0  0  0  0  0  0  0  0  0
    6.4421   -0.9945    0.0000 C   0  0  0  0  0  0  0  0  0  0  0  0
    4.6660    1.0123    0.0000 C   0  0  0  0  0  0  0  0  0  0  0  0
    3.8000    0.5123    0.0000 C   0  0  0  0  0  0  0  0  0  0  0  0
    6.4501   -2.0361    0.0000 C   0  0  0  0  0  0  0  0  0  0  0  0
    5.5480   -2.5569    0.0000 C   0  0  0  0  0  0  0  0  0  0  0  0
    2.9061   -1.0223    0.0000 C   0  0  0  0  0  0  0  0  0  0  0  0
    4.0373    1.1176    0.0000 C   0  0  0  0  0  0  0  0  0  0  0  0
    2.0000   -0.5085    0.0000 C   0  0  0  0  0  0  0  0  0  0  0  0
    2.0000    0.5332    0.0000 C   0  0  0  0  0  0  0  0  0  0  0  0
    2.9176    2.0469    0.0000 C   0  0  0  0  0  0  0  0  0  0  0  0
    2.0574    2.5569    0.0000 C   0  0  0  0  0  0  0  0  0  0  0  0
    6.2682   -0.0627    0.0000 H   0  0  0  0  0  0  0  0  0  0  0  0
    5.9571    1.2485    0.0000 H   0  0  0  0  0  0  0  0  0  0  0  0
    3.8682   -0.4426    0.0000 H   0  0  0  0  0  0  0  0  0  0  0  0
    5.0546   -0.4325    0.0000 H   0  0  0  0  0  0  0  0  0  0  0  0
    5.3341    1.0814    0.0000 H   0  0  0  0  0  0  0  0  0  0  0  0
    5.2456   -0.1018    0.0000 H   0  0  0  0  0  0  0  0  0  0  0  0
    3.7752    0.0384    0.0000 H   0  0  0  0  0  0  0  0  0  0  0  0
    7.0537   -1.0959    0.0000 H   0  0  0  0  0  0  0  0  0  0  0  0
    6.6466   -0.4092    0.0000 H   0  0  0  0  0  0  0  0  0  0  0  0
    5.0646    1.4873    0.0000 H   0  0  0  0  0  0  0  0  0  0  0  0
    4.2675    1.4873    0.0000 H   0  0  0  0  0  0  0  0  0  0  0  0
    4.1095   -2.3329    0.0000 H   0  0  0  0  0  0  0  0  0  0  0  0
    6.6636   -2.6182    0.0000 H   0  0  0  0  0  0  0  0  0  0  0  0
    7.0601   -1.9253    0.0000 H   0  0  0  0  0  0  0  0  0  0  0  0
    5.1470   -3.0298    0.0000 H   0  0  0  0  0  0  0  0  0  0  0  0
    5.9453   -3.0329    0.0000 H   0  0  0  0  0  0  0  0  0  0  0  0
    2.5124   -1.5013    0.0000 H   0  0  0  0  0  0  0  0  0  0  0  0
    3.3107   -1.4921    0.0000 H   0  0  0  0  0  0  0  0  0  0  0  0
    4.6199    1.3296    0.0000 H   0  0  0  0  0  0  0  0  0  0  0  0
    3.8252    1.7002    0.0000 H   0  0  0  0  0  0  0  0  0  0  0  0
    3.4547    0.9055    0.0000 H   0  0  0  0  0  0  0  0  0  0  0  0
    1.3891   -0.4024    0.0000 H   0  0  0  0  0  0  0  0  0  0  0  0
    1.7909   -1.0922    0.0000 H   0  0  0  0  0  0  0  0  0  0  0  0
    1.7909    1.1168    0.0000 H   0  0  0  0  0  0  0  0  0  0  0  0
    1.3891    0.4271    0.0000 H   0  0  0  0  0  0  0  0  0  0  0  0
    2.3736    3.0902    0.0000 H   0  0  0  0  0  0  0  0  0  0  0  0
    1.5241    2.8731    0.0000 H   0  0  0  0  0  0  0  0  0  0  0  0
    1.7413    2.0236    0.0000 H   0  0  0  0  0  0  0  0  0  0  0  0
  1 20  2  0  0  0  0
  4  2  1  6  0  0  0
  2 15  1  0  0  0  0
  2 33  1  0  0  0  0
  3 13  1  0  0  0  0
  3 19  1  0  0  0  0
  3 20  1  0  0  0  0
  4  5  1  0  0  0  0
  4  7  1  0  0  0  0
  4  9  1  0  0  0  0
  5  6  1  0  0  0  0
  5 11  1  0  0  0  0
  5 22  1  6  0  0  0
  6  8  1  0  0  0  0
  6 12  1  0  0  0  0
  6 23  1  6  0  0  0
  7 10  1  0  0  0  0
  7 24  1  0  0  0  0
  7 25  1  0  0  0  0
  8 10  1  0  0  0  0
  8 26  1  0  0  0  0
  8 27  1  0  0  0  0
  9 13  2  0  0  0  0
  9 16  1  0  0  0  0
 10 17  1  6  0  0  0
 10 28  1  0  0  0  0
 11 14  1  0  0  0  0
 11 29  1  0  0  0  0
 11 30  1  0  0  0  0
 12 13  1  0  0  0  0
 12 31  1  0  0  0  0
 12 32  1  0  0  0  0
 14 15  1  0  0  0  0
 14 34  1  0  0  0  0
 14 35  1  0  0  0  0
 15 36  1  0  0  0  0
 15 37  1  0  0  0  0
 16 18  1  0  0  0  0
 16 38  1  0  0  0  0
 16 39  1  0  0  0  0
 17 40  1  0  0  0  0
 17 41  1  0  0  0  0
 17 42  1  0  0  0  0
 18 19  1  0  0  0  0
 18 43  1  0  0  0  0
 18 44  1  0  0  0  0
 19 45  1  0  0  0  0
 19 46  1  0  0  0  0
 20 21  1  0  0  0  0
 21 47  1  0  0  0  0
 21 48  1  0  0  0  0
 21 49  1  0  0  0  0
M  END
> <PUBCHEM_COMPOUND_CID>
5462441

> <PUBCHEM_COMPOUND_CANONICALIZED>
1

> <PUBCHEM_CACTVS_COMPLEXITY>
497

> <PUBCHEM_CACTVS_HBOND_ACCEPTOR>
2

> <PUBCHEM_CACTVS_HBOND_DONOR>
1

> <PUBCHEM_CACTVS_ROTATABLE_BOND>
0

> <PUBCHEM_CACTVS_SUBSKEYS>
AAADceB7IAAAAAAAAAAAAAAAAAAAAAAAAAA8QIEAAAAQAACwAAAAHgAQAAAADYjBgAQCAAPAAACIAgVQUACAAAAgAAAACIAIAAgAAAIAgAAEAAAAlgCIAAMQgMAOgAAAAAAAAACAAASAACQAAAAAAAAAAA==

> <PUBCHEM_IUPAC_INCHI>
InChI=1S/C18H28N2O/c1-12-9-14-10-17-16(6-4-8-20(17)13(2)21)18(11-12)15(14)5-3-7-19-18/h12,14-15,19H,3-11H2,1-2H3/t12-,14+,15-,18-/m1/s1

> <PUBCHEM_IUPAC_INCHIKEY>
RBQBCMDKPKIDLR-MJXUCMMTSA-N

> <PUBCHEM_XLOGP3_AA>
1.8

> <PUBCHEM_EXACT_MASS>
288.220164

> <PUBCHEM_MOLECULAR_FORMULA>
C18H28N2O

> <PUBCHEM_MOLECULAR_WEIGHT>
288.42772

> <PUBCHEM_OPENEYE_CAN_SMILES>
CC1CC2CC3=C(CCCN3C(=O)C)C4(C1)C2CCCN4

> <PUBCHEM_OPENEYE_ISO_SMILES>
C[C@@H]1C[C@H]2CC3=C(CCCN3C(=O)C)[C@@]4(C1)[C@@H]2CCCN4

> <PUBCHEM_CACTVS_TPSA>
32.3

> <PUBCHEM_MONOISOTOPIC_WEIGHT>
288.220164

> <PUBCHEM_TOTAL_CHARGE>
0

> <PUBCHEM_HEAVY_ATOM_COUNT>
21

> <PUBCHEM_ATOM_DEF_STEREO_COUNT>
4

> <PUBCHEM_ATOM_UDEF_STEREO_COUNT>
0

> <PUBCHEM_BOND_DEF_STEREO_COUNT>
0

> <PUBCHEM_BOND_UDEF_STEREO_COUNT>
0

> <PUBCHEM_ISOTOPIC_ATOM_COUNT>
0

> <PUBCHEM_COMPONENT_COUNT>
1

> <PUBCHEM_CACTVS_TAUTO_COUNT>
1

> <PUBCHEM_COORDINATE_TYPE>
1
5
255

> <PUBCHEM_BONDANNOTATIONS>
10  17  6
4  2  6
5  22  6
6  23  6

$$$$

