42030
  -OEChem-07051213053D

 33 37  0     0  0  0  0  0  0999 V2000
    1.7775    3.4582   -0.0005 O   0  0  0  0  0  0  0  0  0  0  0  0
    0.2010   -0.4005   -0.0001 C   0  0  0  0  0  0  0  0  0  0  0  0
    1.6130   -0.2198    0.0000 C   0  0  0  0  0  0  0  0  0  0  0  0
   -0.6792    0.7144   -0.0001 C   0  0  0  0  0  0  0  0  0  0  0  0
   -0.3173   -1.7136   -0.0001 C   0  0  0  0  0  0  0  0  0  0  0  0
    2.1626    1.0804    0.0000 C   0  0  0  0  0  0  0  0  0  0  0  0
   -2.1007    0.4947   -0.0001 C   0  0  0  0  0  0  0  0  0  0  0  0
    2.4811   -1.3388    0.0001 C   0  0  0  0  0  0  0  0  0  0  0  0
   -2.5933   -0.8339   -0.0002 C   0  0  0  0  0  0  0  0  0  0  0  0
   -1.7009   -1.9108   -0.0003 C   0  0  0  0  0  0  0  0  0  0  0  0
   -0.0835    1.9965    0.0001 C   0  0  0  0  0  0  0  0  0  0  0  0
    1.3020    2.1775    0.0001 C   0  0  0  0  0  0  0  0  0  0  0  0
    0.5555   -2.8101    0.0001 C   0  0  0  0  0  0  0  0  0  0  0  0
    1.9368   -2.6261    0.0001 C   0  0  0  0  0  0  0  0  0  0  0  0
    3.5554    1.2496    0.0001 C   0  0  0  0  0  0  0  0  0  0  0  0
    3.8698   -1.1419    0.0001 C   0  0  0  0  0  0  0  0  0  0  0  0
   -3.0684    1.5316    0.0002 C   0  0  0  0  0  0  0  0  0  0  0  0
   -3.9770   -1.0835   -0.0001 C   0  0  0  0  0  0  0  0  0  0  0  0
    4.4026    0.1447    0.0001 C   0  0  0  0  0  0  0  0  0  0  0  0
   -4.4411    1.2701    0.0004 C   0  0  0  0  0  0  0  0  0  0  0  0
   -4.8958   -0.0388    0.0002 C   0  0  0  0  0  0  0  0  0  0  0  0
   -2.0924   -2.9288   -0.0003 H   0  0  0  0  0  0  0  0  0  0  0  0
   -0.6973    2.8943    0.0000 H   0  0  0  0  0  0  0  0  0  0  0  0
    0.1672   -3.8268    0.0002 H   0  0  0  0  0  0  0  0  0  0  0  0
    2.5817   -3.5023    0.0001 H   0  0  0  0  0  0  0  0  0  0  0  0
    4.0262    2.2282    0.0171 H   0  0  0  0  0  0  0  0  0  0  0  0
    4.5503   -1.9908    0.0011 H   0  0  0  0  0  0  0  0  0  0  0  0
   -2.7727    2.5775    0.0004 H   0  0  0  0  0  0  0  0  0  0  0  0
   -4.3546   -2.1046   -0.0003 H   0  0  0  0  0  0  0  0  0  0  0  0
    5.4796    0.2856    0.0040 H   0  0  0  0  0  0  0  0  0  0  0  0
   -5.1496    2.0933    0.0006 H   0  0  0  0  0  0  0  0  0  0  0  0
   -5.9610   -0.2485    0.0003 H   0  0  0  0  0  0  0  0  0  0  0  0
    2.6358    3.4984   -0.4504 H   0  0  0  0  0  0  0  0  0  0  0  0
  1 12  1  0  0  0  0
  1 33  1  0  0  0  0
  2  3  1  0  0  0  0
  2  4  2  0  0  0  0
  2  5  1  0  0  0  0
  3  6  1  0  0  0  0
  3  8  2  0  0  0  0
  4  7  1  0  0  0  0
  4 11  1  0  0  0  0
  5 10  2  0  0  0  0
  5 13  1  0  0  0  0
  6 12  1  0  0  0  0
  6 15  2  0  0  0  0
  7  9  1  0  0  0  0
  7 17  2  0  0  0  0
  8 14  1  0  0  0  0
  8 16  1  0  0  0  0
  9 10  1  0  0  0  0
  9 18  2  0  0  0  0
 10 22  1  0  0  0  0
 11 12  2  0  0  0  0
 11 23  1  0  0  0  0
 13 14  2  0  0  0  0
 13 24  1  0  0  0  0
 14 25  1  0  0  0  0
 15 19  1  0  0  0  0
 15 26  1  0  0  0  0
 16 19  2  0  0  0  0
 16 27  1  0  0  0  0
 17 20  1  0  0  0  0
 17 28  1  0  0  0  0
 18 21  1  0  0  0  0
 18 29  1  0  0  0  0
 19 30  1  0  0  0  0
 20 21  2  0  0  0  0
 20 31  1  0  0  0  0
 21 32  1  0  0  0  0
M  END
> <PUBCHEM_COMPOUND_CID>
42030

> <PUBCHEM_CONFORMER_RMSD>
0.6

> <PUBCHEM_CONFORMER_DIVERSEORDER>
1

> <PUBCHEM_MMFF94_PARTIAL_CHARGES>
25
1 -0.53
10 -0.15
11 -0.15
12 0.08
13 -0.15
14 -0.15
15 -0.15
16 -0.15
17 -0.15
18 -0.15
19 -0.15
20 -0.15
21 -0.15
22 0.15
23 0.15
24 0.15
25 0.15
26 0.15
27 0.15
28 0.15
29 0.15
30 0.15
31 0.15
32 0.15
33 0.45

> <PUBCHEM_EFFECTIVE_ROTOR_COUNT>
0

> <PUBCHEM_PHARMACOPHORE_FEATURES>
6
1 1 donor
6 2 3 4 6 11 12 rings
6 2 3 5 8 13 14 rings
6 2 4 5 7 9 10 rings
6 3 6 8 15 16 19 rings
6 7 9 17 18 20 21 rings

> <PUBCHEM_HEAVY_ATOM_COUNT>
21

> <PUBCHEM_ATOM_DEF_STEREO_COUNT>
0

> <PUBCHEM_ATOM_UDEF_STEREO_COUNT>
0

> <PUBCHEM_BOND_DEF_STEREO_COUNT>
0

> <PUBCHEM_BOND_UDEF_STEREO_COUNT>
0

> <PUBCHEM_ISOTOPIC_ATOM_COUNT>
0

> <PUBCHEM_COMPONENT_COUNT>
1

> <PUBCHEM_CACTVS_TAUTO_COUNT>
3

> <PUBCHEM_CONFORMER_ID>
0000A42E00000001

> <PUBCHEM_MMFF94_ENERGY>
80.0399

> <PUBCHEM_FEATURE_SELFOVERLAP>
30.598

> <PUBCHEM_SHAPE_FINGERPRINT>
10411042 1 17834113426206965383
10616163 171 18337670806948909991
10906281 52 18339906174444073856
10967382 1 18338516447006159302
1100329 8 18338519634230706186
11471102 20 18410577292329062191
12011746 2 18411417332118716662
12236239 1 17749390378035326161
12403259 226 18413112757885471725
12403260 363 18266188231416329135
12553582 1 18339088197342269430
12592029 89 18411978057416423691
12838862 33 18338537290846768464
13132413 78 18335984258905922933
13140716 1 18267588996302762776
138480 1 18194683893743720098
13862211 1 18410861000958246714
14178342 30 17617674158926250560
14790565 3 18339914918845332836
15081414 286 18335691797302492712
15196674 1 18410575097558686214
15442244 35 18265050417512703153
15536298 74 18334575754324495398
1601671 61 18410855490409308152
16945 1 18194402178248626498
19591789 44 18266739091210878967
200 152 18113623382939218007
20028762 73 18115309960594075759
20739085 24 17905580526871340345
20905425 154 18048034361609778102
21197605 99 18050557457745232507
21267235 1 18410002264912176398
21421861 104 17770783712472307946
221490 88 18341043013300498523
23227448 37 18335703806374457327
2334 1 17185594616287869866
23402539 116 18334021600991844606
23558518 356 17767127501576692674
23559900 14 18335425642664394936
238 59 17838663055298645117
2748010 2 17329707618278171574
335352 9 18338799017189013846
34934 24 18338241560514776342
350125 39 18267297638917553065
3680242 22 18270401731830681514
474 4 18411700963374725011
484985 159 14538370302102661466
5104073 3 18411136952480129299
5939293 188 18409733950131647808
6138700 20 18338513157810764670
6443956 14 18339357564970086412
7364860 26 18408886234808096231
7832392 63 18408609136561679614
9709674 26 18410569570258055863
9981440 41 17474677152506198280

> <PUBCHEM_SHAPE_MULTIPOLES>
426.3
7.95
3.08
0.61
4.22
0.34
0
0.74
0
-1.41
0
0.01
-0.02
0

> <PUBCHEM_SHAPE_SELFOVERLAP>
1005.413

> <PUBCHEM_SHAPE_VOLUME>
216

> <PUBCHEM_COORDINATE_TYPE>
2
5
10

$$$$

