11227154
  -OEChem-07051213083D

 70 74  0     1  0  0  0  0  0999 V2000
    2.3075    1.3267    0.0321 O   0  0  0  0  0  0  0  0  0  0  0  0
    3.0830   -0.4023    1.3933 O   0  0  0  0  0  0  0  0  0  0  0  0
    3.0470    4.9117   -0.0893 O   0  0  0  0  0  0  0  0  0  0  0  0
    5.3868    3.7884    1.1832 O   0  0  0  0  0  0  0  0  0  0  0  0
    4.6467    1.4640    2.8355 O   0  0  0  0  0  0  0  0  0  0  0  0
    0.1495    2.1487   -1.4591 O   0  0  0  0  0  0  0  0  0  0  0  0
    0.6625   -2.6866   -0.2220 O   0  3  0  0  0  0  0  0  0  0  0  0
   -1.0474    3.9214   -0.5859 O   0  0  0  0  0  0  0  0  0  0  0  0
   -1.4869   -0.7734    3.6923 O   0  0  0  0  0  0  0  0  0  0  0  0
   -3.8719   -3.7780    0.8787 O   0  0  0  0  0  0  0  0  0  0  0  0
    6.2117   -2.7682   -3.2992 O   0  0  0  0  0  0  0  0  0  0  0  0
   -8.1498    1.7112   -0.7384 O   0  0  0  0  0  0  0  0  0  0  0  0
   -7.8853   -1.0532   -0.8587 O   0  0  0  0  0  0  0  0  0  0  0  0
    3.3409    3.5185   -0.0293 C   0  0  1  0  0  0  0  0  0  0  0  0
    4.0821    3.2138    1.2726 C   0  0  1  0  0  0  0  0  0  0  0  0
    2.0365    2.7222   -0.1108 C   0  0  1  0  0  0  0  0  0  0  0  0
    4.2040    1.7071    1.5004 C   0  0  2  0  0  0  0  0  0  0  0  0
    2.8602    1.0048    1.3063 C   0  0  1  0  0  0  0  0  0  0  0  0
    1.3370    2.9198   -1.4519 C   0  0  0  0  0  0  0  0  0  0  0  0
    1.9163   -1.1110    1.2215 C   0  0  0  0  0  0  0  0  0  0  0  0
    1.7633   -2.0493    0.0647 C   0  0  0  0  0  0  0  0  0  0  0  0
    0.8540   -0.9714    2.0249 C   0  0  0  0  0  0  0  0  0  0  0  0
   -0.3825   -1.6976    1.7587 C   0  0  0  0  0  0  0  0  0  0  0  0
   -0.9751    2.7745   -0.9976 C   0  0  0  0  0  0  0  0  0  0  0  0
   -0.4440   -2.5259    0.6332 C   0  0  0  0  0  0  0  0  0  0  0  0
    2.9357   -2.2377   -0.8214 C   0  0  0  0  0  0  0  0  0  0  0  0
   -1.5017   -1.5720    2.5870 C   0  0  0  0  0  0  0  0  0  0  0  0
   -1.6153   -3.2242    0.3376 C   0  0  0  0  0  0  0  0  0  0  0  0
   -2.1027    1.8185   -1.0800 C   0  0  0  0  0  0  0  0  0  0  0  0
    3.1042   -1.4107   -1.9263 C   0  0  0  0  0  0  0  0  0  0  0  0
    3.8563   -3.2407   -0.5397 C   0  0  0  0  0  0  0  0  0  0  0  0
   -2.6721   -2.2725    2.2897 C   0  0  0  0  0  0  0  0  0  0  0  0
   -2.7289   -3.0970    1.1662 C   0  0  0  0  0  0  0  0  0  0  0  0
    4.2079   -1.5890   -2.7604 C   0  0  0  0  0  0  0  0  0  0  0  0
    4.9600   -3.4190   -1.3740 C   0  0  0  0  0  0  0  0  0  0  0  0
   -3.3262    2.2051   -0.6918 C   0  0  0  0  0  0  0  0  0  0  0  0
    5.1358   -2.5932   -2.4842 C   0  0  0  0  0  0  0  0  0  0  0  0
   -4.5266    1.3516   -0.7356 C   0  0  0  0  0  0  0  0  0  0  0  0
   -5.7798    1.9418   -0.7161 C   0  0  0  0  0  0  0  0  0  0  0  0
   -4.3785   -0.0247   -0.7951 C   0  0  0  0  0  0  0  0  0  0  0  0
   -6.9161    1.1338   -0.7574 C   0  0  0  0  0  0  0  0  0  0  0  0
   -5.5146   -0.8328   -0.8364 C   0  0  0  0  0  0  0  0  0  0  0  0
   -6.7834   -0.2534   -0.8175 C   0  0  0  0  0  0  0  0  0  0  0  0
    3.9935    3.2774   -0.8786 H   0  0  0  0  0  0  0  0  0  0  0  0
    3.5910    3.6993    2.1242 H   0  0  0  0  0  0  0  0  0  0  0  0
    1.3485    3.0286    0.6885 H   0  0  0  0  0  0  0  0  0  0  0  0
    4.9611    1.2827    0.8292 H   0  0  0  0  0  0  0  0  0  0  0  0
    2.1777    1.3239    2.1058 H   0  0  0  0  0  0  0  0  0  0  0  0
    1.1290    3.9721   -1.6731 H   0  0  0  0  0  0  0  0  0  0  0  0
    1.9636    2.5349   -2.2645 H   0  0  0  0  0  0  0  0  0  0  0  0
    2.8248    5.1301   -1.0097 H   0  0  0  0  0  0  0  0  0  0  0  0
    5.8553    3.3625    0.4453 H   0  0  0  0  0  0  0  0  0  0  0  0
    4.6983    0.5001    2.9541 H   0  0  0  0  0  0  0  0  0  0  0  0
    0.9219   -0.3251    2.8905 H   0  0  0  0  0  0  0  0  0  0  0  0
   -1.6457   -3.8640   -0.5401 H   0  0  0  0  0  0  0  0  0  0  0  0
   -1.8832    0.8353   -1.4793 H   0  0  0  0  0  0  0  0  0  0  0  0
    2.3850   -0.6278   -2.1513 H   0  0  0  0  0  0  0  0  0  0  0  0
    3.7267   -3.8889    0.3227 H   0  0  0  0  0  0  0  0  0  0  0  0
   -3.5428   -2.1740    2.9336 H   0  0  0  0  0  0  0  0  0  0  0  0
    4.3389   -0.9430   -3.6242 H   0  0  0  0  0  0  0  0  0  0  0  0
    5.6755   -4.2052   -1.1480 H   0  0  0  0  0  0  0  0  0  0  0  0
   -3.4876    3.2156   -0.3230 H   0  0  0  0  0  0  0  0  0  0  0  0
   -0.8556   -0.0468    3.5767 H   0  0  0  0  0  0  0  0  0  0  0  0
   -3.7361   -4.2919    0.0643 H   0  0  0  0  0  0  0  0  0  0  0  0
   -5.8927    3.0224   -0.6707 H   0  0  0  0  0  0  0  0  0  0  0  0
   -3.4122   -0.5184   -0.7924 H   0  0  0  0  0  0  0  0  0  0  0  0
    6.7475   -3.5056   -2.9597 H   0  0  0  0  0  0  0  0  0  0  0  0
   -5.3981   -1.9122   -0.8809 H   0  0  0  0  0  0  0  0  0  0  0  0
   -8.8184    1.0051   -0.7728 H   0  0  0  0  0  0  0  0  0  0  0  0
   -7.6009   -1.9825   -0.8978 H   0  0  0  0  0  0  0  0  0  0  0  0
  1 16  1  0  0  0  0
  1 18  1  0  0  0  0
  2 18  1  0  0  0  0
  2 20  1  0  0  0  0
  3 14  1  0  0  0  0
  3 51  1  0  0  0  0
  4 15  1  0  0  0  0
  4 52  1  0  0  0  0
  5 17  1  0  0  0  0
  5 53  1  0  0  0  0
  6 19  1  0  0  0  0
  6 24  1  0  0  0  0
  7 21  2  0  0  0  0
  7 25  1  0  0  0  0
  8 24  2  0  0  0  0
  9 27  1  0  0  0  0
  9 63  1  0  0  0  0
 10 33  1  0  0  0  0
 10 64  1  0  0  0  0
 11 37  1  0  0  0  0
 11 67  1  0  0  0  0
 12 41  1  0  0  0  0
 12 69  1  0  0  0  0
 13 43  1  0  0  0  0
 13 70  1  0  0  0  0
 14 15  1  0  0  0  0
 14 16  1  0  0  0  0
 14 44  1  0  0  0  0
 15 17  1  0  0  0  0
 15 45  1  0  0  0  0
 16 19  1  0  0  0  0
 16 46  1  0  0  0  0
 17 18  1  0  0  0  0
 17 47  1  0  0  0  0
 18 48  1  0  0  0  0
 19 49  1  0  0  0  0
 19 50  1  0  0  0  0
 20 21  1  0  0  0  0
 20 22  2  0  0  0  0
 21 26  1  0  0  0  0
 22 23  1  0  0  0  0
 22 54  1  0  0  0  0
 23 25  1  0  0  0  0
 23 27  2  0  0  0  0
 24 29  1  0  0  0  0
 25 28  2  0  0  0  0
 26 30  2  0  0  0  0
 26 31  1  0  0  0  0
 27 32  1  0  0  0  0
 28 33  1  0  0  0  0
 28 55  1  0  0  0  0
 29 36  2  0  0  0  0
 29 56  1  0  0  0  0
 30 34  1  0  0  0  0
 30 57  1  0  0  0  0
 31 35  2  0  0  0  0
 31 58  1  0  0  0  0
 32 33  2  0  0  0  0
 32 59  1  0  0  0  0
 34 37  2  0  0  0  0
 34 60  1  0  0  0  0
 35 37  1  0  0  0  0
 35 61  1  0  0  0  0
 36 38  1  0  0  0  0
 36 62  1  0  0  0  0
 38 39  2  0  0  0  0
 38 40  1  0  0  0  0
 39 41  1  0  0  0  0
 39 65  1  0  0  0  0
 40 42  2  0  0  0  0
 40 66  1  0  0  0  0
 41 43  2  0  0  0  0
 42 43  1  0  0  0  0
 42 68  1  0  0  0  0
M  CHG  1   7   1
M  END
> <PUBCHEM_COMPOUND_CID>
11227154

> <PUBCHEM_CONFORMER_RMSD>
1.2

> <PUBCHEM_CONFORMER_DIVERSEORDER>
1
249
222
110
125
339
361
357
267
208
314
66
288
315
221
145
325
76
204
344
37
99
165
12
108
126
286
319
219
212
280
164
149
338
368
282
134
230
370
178
231
218
274
372
284
175
246
131
351
382
232
65
259
195
16
350
166
239
50
147
107
57
56
155
348
127
303
38
91
122
32
252
328
241
340
144
304
22
102
275
234
342
329
161
190
87
289
26
116
135
179
80
227
326
94
63
251
172
237
363
337
158
298
41
143
21
10
292
378
317
78
81
201
177
187
25
150
371
11
74
207
279
311
276
29
360
45
39
336
30
23
243
20
310
226
365
48
240
353
98
58
333
79
290
62
181
180
35
185
137
200
186
49
151
117
138
40
132
349
358
114
383
163
258
86
173
248
28
112
202
376
305
182
2
105
194
53
3
260
111
123
89
356
223
69
14
294
193
377
254
269
236
367
196
15
104
291
168
323
68
235
244
335
4
278
83
354
106
54
313
287
167
157
374
95
174
188
75
46
247
113
346
366
210
225
115
43
306
213
327
197
224
320
85
272
154
93
169
331
343
51
176
152
271
13
146
129
379
233
256
215
214
24
5
205
27
183
189
124
386
120
355
295
312
384
300
156
84
216
293
96
71
332
82
334
160
128
198
90
263
385
148
52
192
88
309
101
297
273
153
119
36
347
345
92
266
72
171
257
255
270
277
341
211
9
220
61
283
262
55
170
324
17
253
130
141
133
184
42
60
245
139
307
203
229
321
302
301
59
8
330
375
162
31
369
206
380
44
265
77
6
191
19
70
33
228
364
261
159
299
242
118
97
7
142
109
34
318
381
67
103
199
209
322
352
217
238
359
264
18
285
316
64
140
121
100
136
73
281
296
362
268
373
47
308
250

> <PUBCHEM_MMFF94_PARTIAL_CHARGES>
63
1 -0.56
10 -0.53
11 -0.53
12 -0.53
13 -0.53
14 0.28
15 0.28
16 0.28
17 0.28
18 0.56
19 0.28
2 -0.36
20 0.09
21 0.85
22 -0.18
23 0.03
24 0.71
25 0.92
26 0.09
27 0.08
28 -0.15
29 -0.14
3 -0.68
30 -0.15
31 -0.15
32 -0.15
33 0.08
34 -0.15
35 -0.15
36 -0.18
37 0.08
38 0.03
39 -0.15
4 -0.68
40 -0.15
41 0.08
42 -0.15
43 0.08
5 -0.68
51 0.4
52 0.4
53 0.4
54 0.15
55 0.15
56 0.15
57 0.15
58 0.15
59 0.15
6 -0.43
60 0.15
61 0.15
62 0.15
63 0.45
64 0.45
65 0.15
66 0.15
67 0.45
68 0.15
69 0.45
7 -0.87
70 0.45
8 -0.57
9 -0.53

> <PUBCHEM_EFFECTIVE_ROTOR_COUNT>
9.2

> <PUBCHEM_PHARMACOPHORE_FEATURES>
19
1 1 acceptor
1 10 donor
1 11 donor
1 12 donor
1 13 donor
1 2 acceptor
1 3 acceptor
1 3 donor
1 4 acceptor
1 4 donor
1 5 acceptor
1 5 donor
1 8 acceptor
1 9 donor
6 1 14 15 16 17 18 rings
6 23 25 27 28 32 33 rings
6 26 30 31 34 35 37 rings
6 38 39 40 41 42 43 rings
6 7 20 21 22 23 25 rings

> <PUBCHEM_HEAVY_ATOM_COUNT>
43

> <PUBCHEM_ATOM_DEF_STEREO_COUNT>
5

> <PUBCHEM_ATOM_UDEF_STEREO_COUNT>
0

> <PUBCHEM_BOND_DEF_STEREO_COUNT>
1

> <PUBCHEM_BOND_UDEF_STEREO_COUNT>
0

> <PUBCHEM_ISOTOPIC_ATOM_COUNT>
0

> <PUBCHEM_COMPONENT_COUNT>
1

> <PUBCHEM_CACTVS_TAUTO_COUNT>
410

> <PUBCHEM_CONFORMER_ID>
00AB501200000001

> <PUBCHEM_MMFF94_ENERGY>
133.6991

> <PUBCHEM_FEATURE_SELFOVERLAP>
96.503

> <PUBCHEM_SHAPE_FINGERPRINT>
10032420 55 17843399837058542589
10169797 241 18343297097783389625
10653451 467 18335146389151244400
10864689 126 18127698338876910591
11411753 29 18198605675901301211
11513181 2 18263366880358706223
11578080 2 18337390444221178766
12156800 1 16915926397210175464
12758862 65 18041552646206842086
13751561 76 18341614828314098330
14068700 675 17897443015290898848
14725015 67 17986407778444569241
15001296 14 18271536329874466589
15219648 60 17988922318314028611
15721738 202 17385728053203224892
15968369 153 18199744753315654147
15975801 100 17130989943747840054
17909252 39 18190181371920876734
20764821 26 18201141170798463423
20775438 99 18337688424841650175
21197605 99 18199476471982383977
25223398 141 16700077043197573108
3388396 114 17676756583463987960
437795 70 18339915038866754695
5081480 168 18190715648878455566
508180 173 18267572684022513426
513532 50 18409733962937305196
5171179 24 18338502071956737982
5776283 40 18341040900145090174
6086070 43 18412255164480654642
6823239 73 18192443088961929740
86090 222 18272939361712886973

> <PUBCHEM_SHAPE_MULTIPOLES>
808.62
15.58
6.09
2.77
23.94
3.1
-0.76
0.55
8.48
-6.09
0.24
-3.32
-1.61
6.46

> <PUBCHEM_SHAPE_SELFOVERLAP>
1773.512

> <PUBCHEM_SHAPE_VOLUME>
432.4

> <PUBCHEM_COORDINATE_TYPE>
2
5
10

$$$$

