167852
  -OEChem-07051212573D

 38 40  0     1  0  0  0  0  0999 V2000
   -2.6311   -1.2601    0.0829 O   0  0  0  0  0  0  0  0  0  0  0  0
    2.1599    2.7513    0.3988 O   0  0  0  0  0  0  0  0  0  0  0  0
   -4.4958    0.0149    0.4988 O   0  0  0  0  0  0  0  0  0  0  0  0
    1.3329    0.4511    0.5370 C   0  0  2  0  0  0  0  0  0  0  0  0
    1.6315   -0.5775   -0.5882 C   0  0  2  0  0  0  0  0  0  0  0  0
    1.0738   -2.0015   -0.4302 C   0  0  2  0  0  0  0  0  0  0  0  0
   -0.1498    0.8906    0.6422 C   0  0  0  0  0  0  0  0  0  0  0  0
   -1.0648    0.4357   -0.5078 C   0  0  1  0  0  0  0  0  0  0  0  0
    3.1346   -0.4373   -0.8477 C   0  0  0  0  0  0  0  0  0  0  0  0
   -1.3492   -1.0701   -0.5619 C   0  0  1  0  0  0  0  0  0  0  0  0
   -0.3604   -2.0193    0.1253 C   0  0  0  0  0  0  0  0  0  0  0  0
    2.2565    1.5773    0.0608 C   0  0  0  0  0  0  0  0  0  0  0  0
    3.3450    1.0754   -0.8648 C   0  0  0  0  0  0  0  0  0  0  0  0
    1.8489    0.0702    1.9364 C   0  0  0  0  0  0  0  0  0  0  0  0
    1.9606   -2.9599    0.3700 C   0  0  0  0  0  0  0  0  0  0  0  0
   -2.4508    0.9662   -0.3521 C   0  0  0  0  0  0  0  0  0  0  0  0
   -3.3437   -0.1022    0.1233 C   0  0  0  0  0  0  0  0  0  0  0  0
   -2.8979    2.1950   -0.6226 C   0  0  0  0  0  0  0  0  0  0  0  0
    1.1795   -0.2008   -1.5183 H   0  0  0  0  0  0  0  0  0  0  0  0
    1.0253   -2.4261   -1.4437 H   0  0  0  0  0  0  0  0  0  0  0  0
   -0.2005    1.9847    0.7199 H   0  0  0  0  0  0  0  0  0  0  0  0
   -0.5780    0.5243    1.5861 H   0  0  0  0  0  0  0  0  0  0  0  0
   -0.6556    0.7821   -1.4639 H   0  0  0  0  0  0  0  0  0  0  0  0
    3.4361   -0.8930   -1.7963 H   0  0  0  0  0  0  0  0  0  0  0  0
    3.7364   -0.8903   -0.0532 H   0  0  0  0  0  0  0  0  0  0  0  0
   -1.4758   -1.3877   -1.6057 H   0  0  0  0  0  0  0  0  0  0  0  0
   -0.7579   -3.0405    0.0355 H   0  0  0  0  0  0  0  0  0  0  0  0
   -0.3624   -1.8335    1.2061 H   0  0  0  0  0  0  0  0  0  0  0  0
    3.1770    1.4882   -1.8638 H   0  0  0  0  0  0  0  0  0  0  0  0
    4.3346    1.3497   -0.4933 H   0  0  0  0  0  0  0  0  0  0  0  0
    2.9058   -0.2151    1.9335 H   0  0  0  0  0  0  0  0  0  0  0  0
    1.7594    0.9212    2.6233 H   0  0  0  0  0  0  0  0  0  0  0  0
    1.2783   -0.7544    2.3719 H   0  0  0  0  0  0  0  0  0  0  0  0
    2.1176   -2.6230    1.3968 H   0  0  0  0  0  0  0  0  0  0  0  0
    1.5037   -3.9549    0.4168 H   0  0  0  0  0  0  0  0  0  0  0  0
    2.9395   -3.0826   -0.1039 H   0  0  0  0  0  0  0  0  0  0  0  0
   -2.2221    2.9605   -0.9894 H   0  0  0  0  0  0  0  0  0  0  0  0
   -3.9387    2.4690   -0.4877 H   0  0  0  0  0  0  0  0  0  0  0  0
  1 10  1  0  0  0  0
  1 17  1  0  0  0  0
  2 12  2  0  0  0  0
  3 17  2  0  0  0  0
  4  5  1  0  0  0  0
  4  7  1  0  0  0  0
  4 12  1  0  0  0  0
  4 14  1  0  0  0  0
  5  6  1  0  0  0  0
  5  9  1  0  0  0  0
  5 19  1  0  0  0  0
  6 11  1  0  0  0  0
  6 15  1  0  0  0  0
  6 20  1  0  0  0  0
  7  8  1  0  0  0  0
  7 21  1  0  0  0  0
  7 22  1  0  0  0  0
  8 10  1  0  0  0  0
  8 16  1  0  0  0  0
  8 23  1  0  0  0  0
  9 13  1  0  0  0  0
  9 24  1  0  0  0  0
  9 25  1  0  0  0  0
 10 11  1  0  0  0  0
 10 26  1  0  0  0  0
 11 27  1  0  0  0  0
 11 28  1  0  0  0  0
 12 13  1  0  0  0  0
 13 29  1  0  0  0  0
 13 30  1  0  0  0  0
 14 31  1  0  0  0  0
 14 32  1  0  0  0  0
 14 33  1  0  0  0  0
 15 34  1  0  0  0  0
 15 35  1  0  0  0  0
 15 36  1  0  0  0  0
 16 17  1  0  0  0  0
 16 18  2  0  0  0  0
 18 37  1  0  0  0  0
 18 38  1  0  0  0  0
M  END
> <PUBCHEM_COMPOUND_CID>
167852

> <PUBCHEM_CONFORMER_RMSD>
0.6

> <PUBCHEM_CONFORMER_DIVERSEORDER>
2
1
3

> <PUBCHEM_MMFF94_PARTIAL_CHARGES>
13
1 -0.43
10 0.28
12 0.45
13 0.06
16 -0.12
17 0.71
18 -0.3
2 -0.57
3 -0.57
37 0.15
38 0.15
4 0.06
8 0.14

> <PUBCHEM_EFFECTIVE_ROTOR_COUNT>
1.2

> <PUBCHEM_PHARMACOPHORE_FEATURES>
5
1 2 acceptor
1 3 acceptor
5 1 8 10 16 17 rings
5 4 5 9 12 13 rings
7 4 5 6 7 8 10 11 rings

> <PUBCHEM_HEAVY_ATOM_COUNT>
18

> <PUBCHEM_ATOM_DEF_STEREO_COUNT>
5

> <PUBCHEM_ATOM_UDEF_STEREO_COUNT>
0

> <PUBCHEM_BOND_DEF_STEREO_COUNT>
0

> <PUBCHEM_BOND_UDEF_STEREO_COUNT>
0

> <PUBCHEM_ISOTOPIC_ATOM_COUNT>
0

> <PUBCHEM_COMPONENT_COUNT>
1

> <PUBCHEM_CACTVS_TAUTO_COUNT>
2

> <PUBCHEM_CONFORMER_ID>
00028FAC00000002

> <PUBCHEM_MMFF94_ENERGY>
57.8774

> <PUBCHEM_FEATURE_SELFOVERLAP>
25.443

> <PUBCHEM_SHAPE_FINGERPRINT>
104564 63 17109602419763449038
10498660 4 18340775823553722213
10608611 8 18412265073080307005
10967382 1 18410291414963361381
10980938 120 18333732446381597351
11471102 20 18335136501049384343
12592029 89 18341889701831389474
12644460 14 18341320188935766475
12654215 9 18264777734223258268
12932764 1 17894923944337028973
13132413 78 18263939902458477938
13134695 92 17462872069846671498
13140716 1 18265338300279854842
13380536 305 18336542729524887468
13897977 150 18409730634258626911
14223421 5 18342739615713719203
14289901 80 16056884628339303565
14386348 128 18333730221609370745
14648413 74 18340490083342124841
15219456 202 18341050834615039197
15309172 13 18337666413212722819
15375462 6 18341610438704716389
15490181 7 18263373511724523790
15775835 57 18334851697557603695
16945 1 18338248097491846295
1813 80 16986610890868340834
18186145 218 18187078447049202524
18981168 100 18268731517891452469
20510252 161 17902789665617070211
20511035 2 18116454697762617870
20559304 39 18340773735925250994
20645477 70 18261394494316769679
20671657 1 18407762551236539498
21501502 16 18339080522663083399
21524375 3 18190183390761188558
22802520 49 18046050576366383782
22854114 111 18408885143991943607
2334 1 17904487307085406798
23419403 2 16964967102927118376
23493267 7 18060696203985989091
23559900 14 18268436917737518375
238 59 18120968171904723101
25 1 18408879629396347494
2748010 2 17833273012807202407
2871803 45 18337115549387313783
3060560 45 18410856538465815804
3323516 105 18336815463900305126
350125 39 18268143330942080741
353137 74 18260257577502385768
458136 41 18340186527817232762
53812653 166 18333733511406756282
549884 4 17821728312503449896
6442390 28 18194953042038002779
7364860 26 18410576231736208910
81228 2 17326627898803775994
9999458 23 18411410683461850317

> <PUBCHEM_SHAPE_MULTIPOLES>
352.82
5.87
2.67
1.07
4.33
0.44
0.33
-1.37
-0.45
-1.26
0.02
-0.6
-0.1
0.23

> <PUBCHEM_SHAPE_SELFOVERLAP>
754.28

> <PUBCHEM_SHAPE_VOLUME>
197.2

> <PUBCHEM_COORDINATE_TYPE>
2
5
10

$$$$

