440429
  -OEChem-07051212492D

 33 34  0     1  0  0  0  0  0999 V2000
    5.0298   -1.9491    0.0000 O   0  0  0  0  0  0  0  0  0  0  0  0
    2.4608   -1.6400    0.0000 O   0  0  0  0  0  0  0  0  0  0  0  0
    3.1330   -3.7091    0.0000 O   0  0  0  0  0  0  0  0  0  0  0  0
    6.3031   -3.6046    0.0000 O   0  0  0  0  0  0  0  0  0  0  0  0
    5.4897    3.7091    0.0000 O   0  0  0  0  0  0  0  0  0  0  0  0
    3.9074    3.0046    0.0000 O   0  0  0  0  0  0  0  0  0  0  0  0
    4.2208   -0.3613    0.0000 N   0  0  0  0  0  0  0  0  0  0  0  0
    3.7208    1.1776    0.0000 N   0  0  0  0  0  0  0  0  0  0  0  0
    5.9809   -0.0825    0.0000 N   0  0  0  0  0  0  0  0  0  0  0  0
    5.3086    1.9866    0.0000 N   0  0  0  0  0  0  0  0  0  0  0  0
    3.4118   -1.9491    0.0000 C   0  0  1  0  0  0  0  0  0  0  0  0
    4.2208   -1.3613    0.0000 C   0  0  1  0  0  0  0  0  0  0  0  0
    3.7208   -2.9001    0.0000 C   0  0  1  0  0  0  0  0  0  0  0  0
    4.7208   -2.9001    0.0000 C   0  0  1  0  0  0  0  0  0  0  0  0
    5.3086   -3.7091    0.0000 C   0  0  0  0  0  0  0  0  0  0  0  0
    5.0298    0.2265    0.0000 C   0  0  0  0  0  0  0  0  0  0  0  0
    3.4118    0.2265    0.0000 C   0  0  0  0  0  0  0  0  0  0  0  0
    4.7208    1.1776    0.0000 C   0  0  0  0  0  0  0  0  0  0  0  0
    4.9019    2.9001    0.0000 C   0  0  0  0  0  0  0  0  0  0  0  0
    2.9734   -2.3875    0.0000 H   0  0  0  0  0  0  0  0  0  0  0  0
    3.6684   -1.0798    0.0000 H   0  0  0  0  0  0  0  0  0  0  0  0
    3.1085   -2.8031    0.0000 H   0  0  0  0  0  0  0  0  0  0  0  0
    5.3332   -2.8031    0.0000 H   0  0  0  0  0  0  0  0  0  0  0  0
    4.7514   -3.9809    0.0000 H   0  0  0  0  0  0  0  0  0  0  0  0
    5.4795   -4.3051    0.0000 H   0  0  0  0  0  0  0  0  0  0  0  0
    2.0000   -2.0549    0.0000 H   0  0  0  0  0  0  0  0  0  0  0  0
    3.3852   -4.2755    0.0000 H   0  0  0  0  0  0  0  0  0  0  0  0
    2.8222    0.0349    0.0000 H   0  0  0  0  0  0  0  0  0  0  0  0
    6.6676   -4.1062    0.0000 H   0  0  0  0  0  0  0  0  0  0  0  0
    6.4416    0.3323    0.0000 H   0  0  0  0  0  0  0  0  0  0  0  0
    6.1098   -0.6890    0.0000 H   0  0  0  0  0  0  0  0  0  0  0  0
    5.9252    1.9218    0.0000 H   0  0  0  0  0  0  0  0  0  0  0  0
    5.2375    4.2755    0.0000 H   0  0  0  0  0  0  0  0  0  0  0  0
  1 12  1  0  0  0  0
  1 14  1  0  0  0  0
 11  2  1  1  0  0  0
  2 26  1  0  0  0  0
 13  3  1  1  0  0  0
  3 27  1  0  0  0  0
  4 15  1  0  0  0  0
  4 29  1  0  0  0  0
  5 19  1  0  0  0  0
  5 33  1  0  0  0  0
  6 19  2  0  0  0  0
 12  7  1  6  0  0  0
  7 16  1  0  0  0  0
  7 17  1  0  0  0  0
  8 17  2  0  0  0  0
  8 18  1  0  0  0  0
  9 16  1  0  0  0  0
  9 30  1  0  0  0  0
  9 31  1  0  0  0  0
 10 18  1  0  0  0  0
 10 19  1  0  0  0  0
 10 32  1  0  0  0  0
 11 12  1  0  0  0  0
 11 13  1  0  0  0  0
 11 20  1  0  0  0  0
 12 21  1  0  0  0  0
 13 14  1  0  0  0  0
 13 22  1  0  0  0  0
 14 15  1  6  0  0  0
 14 23  1  0  0  0  0
 15 24  1  0  0  0  0
 15 25  1  0  0  0  0
 16 18  2  0  0  0  0
 17 28  1  0  0  0  0
M  END
> <PUBCHEM_COMPOUND_CID>
440429

> <PUBCHEM_COMPOUND_CANONICALIZED>
1

> <PUBCHEM_CACTVS_COMPLEXITY>
345

> <PUBCHEM_CACTVS_HBOND_ACCEPTOR>
8

> <PUBCHEM_CACTVS_HBOND_DONOR>
6

> <PUBCHEM_CACTVS_ROTATABLE_BOND>
3

> <PUBCHEM_CACTVS_SUBSKEYS>
AAADccBzuAAAAAAAAAAAAAAAAAAAAWJAAAAAAAAAAAAAAAABgAAAHgAQCAAACBThggYFuBfMFgCoAAIhfAAAgC0REKABQAAIEAGDWAIAiAAeQAAPBQKTACDwMAIAAAAAAAAAAAAAAAAAAAAAAAAAAAAAAA==

> <PUBCHEM_IUPAC_OPENEYE_NAME>
[5-amino-1-[(2R,3R,4S,5R)-3,4-dihydroxy-5-(hydroxymethyl)tetrahydrofuran-2-yl]imidazol-4-yl]carbamic acid

> <PUBCHEM_IUPAC_CAS_NAME>
[5-amino-1-[(2R,3R,4S,5R)-3,4-dihydroxy-5-(hydroxymethyl)-2-oxolanyl]-4-imidazolyl]carbamic acid

> <PUBCHEM_IUPAC_NAME>
[5-amino-1-[(2R,3R,4S,5R)-3,4-dihydroxy-5-(hydroxymethyl)oxolan-2-yl]imidazol-4-yl]carbamic acid

> <PUBCHEM_IUPAC_SYSTEMATIC_NAME>
[5-azanyl-1-[(2R,3R,4S,5R)-5-(hydroxymethyl)-3,4-bis(oxidanyl)oxolan-2-yl]imidazol-4-yl]carbamic acid

> <PUBCHEM_IUPAC_TRADITIONAL_NAME>
[5-amino-1-[(2R,3R,4S,5R)-3,4-dihydroxy-5-methylol-tetrahydrofuran-2-yl]imidazol-4-yl]carbamic acid

> <PUBCHEM_IUPAC_INCHI>
InChI=1S/C9H14N4O6/c10-6-7(12-9(17)18)11-2-13(6)8-5(16)4(15)3(1-14)19-8/h2-5,8,12,14-16H,1,10H2,(H,17,18)/t3-,4-,5-,8-/m1/s1

> <PUBCHEM_IUPAC_INCHIKEY>
XKACFVWLVYRWGZ-AFCXAGJDSA-N

> <PUBCHEM_XLOGP3_AA>
-2.4

> <PUBCHEM_EXACT_MASS>
274.091334

> <PUBCHEM_MOLECULAR_FORMULA>
C9H14N4O6

> <PUBCHEM_MOLECULAR_WEIGHT>
274.23066

> <PUBCHEM_OPENEYE_CAN_SMILES>
C1=NC(=C(N1C2C(C(C(O2)CO)O)O)N)NC(=O)O

> <PUBCHEM_OPENEYE_ISO_SMILES>
C1=NC(=C(N1[C@H]2[C@@H]([C@@H]([C@H](O2)CO)O)O)N)NC(=O)O

> <PUBCHEM_CACTVS_TPSA>
163

> <PUBCHEM_MONOISOTOPIC_WEIGHT>
274.091334

> <PUBCHEM_TOTAL_CHARGE>
0

> <PUBCHEM_HEAVY_ATOM_COUNT>
19

> <PUBCHEM_ATOM_DEF_STEREO_COUNT>
4

> <PUBCHEM_ATOM_UDEF_STEREO_COUNT>
0

> <PUBCHEM_BOND_DEF_STEREO_COUNT>
0

> <PUBCHEM_BOND_UDEF_STEREO_COUNT>
0

> <PUBCHEM_ISOTOPIC_ATOM_COUNT>
0

> <PUBCHEM_COMPONENT_COUNT>
1

> <PUBCHEM_CACTVS_TAUTO_COUNT>
2

> <PUBCHEM_COORDINATE_TYPE>
1
5
255

> <PUBCHEM_BONDANNOTATIONS>
14  15  6
16  18  8
11  2  5
13  3  5
12  7  6
7  16  8
7  17  8
8  17  8
8  18  8

$$$$

