5281031
  -OEChem-07051212532D

 52 51  0     1  0  0  0  0  0999 V2000
    8.5991    3.1550    0.0000 O   0  0  0  0  0  0  0  0  0  0  0  0
    9.4651    0.6550    0.0000 O   0  0  0  0  0  0  0  0  0  0  0  0
    2.5369    1.6550    0.0000 O   0  0  0  0  0  0  0  0  0  0  0  0
    3.4030    3.1550    0.0000 O   0  0  0  0  0  0  0  0  0  0  0  0
    7.7331    1.6550    0.0000 C   0  0  0  0  0  0  0  0  0  0  0  0
    6.8671    2.1550    0.0000 C   0  0  0  0  0  0  0  0  0  0  0  0
    8.5991    2.1550    0.0000 C   0  0  2  0  0  0  0  0  0  0  0  0
    6.0010    1.6550    0.0000 C   0  0  0  0  0  0  0  0  0  0  0  0
    9.4651    1.6550    0.0000 C   0  0  2  0  0  0  0  0  0  0  0  0
    5.1350    2.1550    0.0000 C   0  0  0  0  0  0  0  0  0  0  0  0
    4.2690    1.6550    0.0000 C   0  0  0  0  0  0  0  0  0  0  0  0
   10.3312    2.1550    0.0000 C   0  0  0  0  0  0  0  0  0  0  0  0
   11.1972    1.6550    0.0000 C   0  0  0  0  0  0  0  0  0  0  0  0
    3.4030    2.1550    0.0000 C   0  0  0  0  0  0  0  0  0  0  0  0
   11.1972    0.6550    0.0000 C   0  0  0  0  0  0  0  0  0  0  0  0
   12.0632    0.1550    0.0000 C   0  0  0  0  0  0  0  0  0  0  0  0
   12.0632   -0.8450    0.0000 C   0  0  0  0  0  0  0  0  0  0  0  0
   11.1972   -1.3450    0.0000 C   0  0  0  0  0  0  0  0  0  0  0  0
   11.1972   -2.3450    0.0000 C   0  0  0  0  0  0  0  0  0  0  0  0
   10.3312   -2.8450    0.0000 C   0  0  0  0  0  0  0  0  0  0  0  0
    9.4651   -2.3450    0.0000 C   0  0  0  0  0  0  0  0  0  0  0  0
    8.5991   -2.8450    0.0000 C   0  0  0  0  0  0  0  0  0  0  0  0
    7.3346    1.1800    0.0000 H   0  0  0  0  0  0  0  0  0  0  0  0
    8.1316    1.1800    0.0000 H   0  0  0  0  0  0  0  0  0  0  0  0
    7.2656    2.6300    0.0000 H   0  0  0  0  0  0  0  0  0  0  0  0
    6.4685    2.6300    0.0000 H   0  0  0  0  0  0  0  0  0  0  0  0
    8.0622    2.4650    0.0000 H   0  0  0  0  0  0  0  0  0  0  0  0
    5.6025    1.1800    0.0000 H   0  0  0  0  0  0  0  0  0  0  0  0
    6.3996    1.1800    0.0000 H   0  0  0  0  0  0  0  0  0  0  0  0
   10.0021    1.3450    0.0000 H   0  0  0  0  0  0  0  0  0  0  0  0
    5.5335    2.6300    0.0000 H   0  0  0  0  0  0  0  0  0  0  0  0
    4.7365    2.6300    0.0000 H   0  0  0  0  0  0  0  0  0  0  0  0
    3.8705    1.1800    0.0000 H   0  0  0  0  0  0  0  0  0  0  0  0
    4.6675    1.1800    0.0000 H   0  0  0  0  0  0  0  0  0  0  0  0
   10.3312    2.7750    0.0000 H   0  0  0  0  0  0  0  0  0  0  0  0
    8.0622    3.4650    0.0000 H   0  0  0  0  0  0  0  0  0  0  0  0
    8.9282    0.3450    0.0000 H   0  0  0  0  0  0  0  0  0  0  0  0
   11.7341    1.9650    0.0000 H   0  0  0  0  0  0  0  0  0  0  0  0
   10.5866    0.7627    0.0000 H   0  0  0  0  0  0  0  0  0  0  0  0
   10.9851    0.0724    0.0000 H   0  0  0  0  0  0  0  0  0  0  0  0
   12.6002    0.4650    0.0000 H   0  0  0  0  0  0  0  0  0  0  0  0
   12.6002   -1.1550    0.0000 H   0  0  0  0  0  0  0  0  0  0  0  0
    2.0000    1.9650    0.0000 H   0  0  0  0  0  0  0  0  0  0  0  0
   10.9851   -0.7624    0.0000 H   0  0  0  0  0  0  0  0  0  0  0  0
   10.5866   -1.4527    0.0000 H   0  0  0  0  0  0  0  0  0  0  0  0
   11.7341   -2.6550    0.0000 H   0  0  0  0  0  0  0  0  0  0  0  0
   10.3312   -3.4650    0.0000 H   0  0  0  0  0  0  0  0  0  0  0  0
    9.8637   -1.8700    0.0000 H   0  0  0  0  0  0  0  0  0  0  0  0
    9.0666   -1.8700    0.0000 H   0  0  0  0  0  0  0  0  0  0  0  0
    8.2891   -2.3081    0.0000 H   0  0  0  0  0  0  0  0  0  0  0  0
    8.0622   -3.1550    0.0000 H   0  0  0  0  0  0  0  0  0  0  0  0
    8.9091   -3.3819    0.0000 H   0  0  0  0  0  0  0  0  0  0  0  0
  7  1  1  1  0  0  0
  1 36  1  0  0  0  0
  9  2  1  6  0  0  0
  2 37  1  0  0  0  0
  3 14  1  0  0  0  0
  3 43  1  0  0  0  0
  4 14  2  0  0  0  0
  5  6  1  0  0  0  0
  5  7  1  0  0  0  0
  5 23  1  0  0  0  0
  5 24  1  0  0  0  0
  6  8  1  0  0  0  0
  6 25  1  0  0  0  0
  6 26  1  0  0  0  0
  7  9  1  0  0  0  0
  7 27  1  0  0  0  0
  8 10  1  0  0  0  0
  8 28  1  0  0  0  0
  8 29  1  0  0  0  0
  9 12  1  0  0  0  0
  9 30  1  0  0  0  0
 10 11  1  0  0  0  0
 10 31  1  0  0  0  0
 10 32  1  0  0  0  0
 11 14  1  0  0  0  0
 11 33  1  0  0  0  0
 11 34  1  0  0  0  0
 12 13  2  0  0  0  0
 12 35  1  0  0  0  0
 13 15  1  0  0  0  0
 13 38  1  0  0  0  0
 15 16  1  0  0  0  0
 15 39  1  0  0  0  0
 15 40  1  0  0  0  0
 16 17  2  0  0  0  0
 16 41  1  0  0  0  0
 17 18  1  0  0  0  0
 17 42  1  0  0  0  0
 18 19  1  0  0  0  0
 18 44  1  0  0  0  0
 18 45  1  0  0  0  0
 19 20  2  0  0  0  0
 19 46  1  0  0  0  0
 20 21  1  0  0  0  0
 20 47  1  0  0  0  0
 21 22  1  0  0  0  0
 21 48  1  0  0  0  0
 21 49  1  0  0  0  0
 22 50  1  0  0  0  0
 22 51  1  0  0  0  0
 22 52  1  0  0  0  0
M  END
> <PUBCHEM_COMPOUND_CID>
5281031

> <PUBCHEM_COMPOUND_CANONICALIZED>
1

> <PUBCHEM_CACTVS_COMPLEXITY>
358

> <PUBCHEM_CACTVS_HBOND_ACCEPTOR>
4

> <PUBCHEM_CACTVS_HBOND_DONOR>
3

> <PUBCHEM_CACTVS_ROTATABLE_BOND>
13

> <PUBCHEM_CACTVS_SUBSKEYS>
AAADceB4OAAAAAAAAAAAAAAAAAAAAAAAAAAAAAAAAAAAAAAAAAAAGgAACAAACBSggAICCAAAAgCIACDSCAAAAAAgAAAICAEAAAgBFBIAAQAAUAAEwAAJEAOIyKCAAAAAAAAAAAAAAAAAAAAAAAAAAAAAAA==

> <PUBCHEM_IUPAC_OPENEYE_NAME>
(7R,8S,9Z,12Z,15Z)-7,8-dihydroxyoctadeca-9,12,15-trienoic acid

> <PUBCHEM_IUPAC_CAS_NAME>
(7R,8S,9Z,12Z,15Z)-7,8-dihydroxyoctadeca-9,12,15-trienoic acid

> <PUBCHEM_IUPAC_NAME>
(7R,8S,9Z,12Z,15Z)-7,8-dihydroxyoctadeca-9,12,15-trienoic acid

> <PUBCHEM_IUPAC_SYSTEMATIC_NAME>
(7R,8S,9Z,12Z,15Z)-7,8-bis(oxidanyl)octadeca-9,12,15-trienoic acid

> <PUBCHEM_IUPAC_TRADITIONAL_NAME>
(7R,8S,9Z,12Z,15Z)-7,8-dihydroxyoctadeca-9,12,15-trienoic acid

> <PUBCHEM_IUPAC_INCHI>
InChI=1S/C18H30O4/c1-2-3-4-5-6-7-8-10-13-16(19)17(20)14-11-9-12-15-18(21)22/h3-4,6-7,10,13,16-17,19-20H,2,5,8-9,11-12,14-15H2,1H3,(H,21,22)/b4-3-,7-6-,13-10-/t16-,17+/m0/s1

> <PUBCHEM_IUPAC_INCHIKEY>
VWKNCZXDXPBMJN-SEACIKGESA-N

> <PUBCHEM_XLOGP3_AA>
3.3

> <PUBCHEM_EXACT_MASS>
310.214409

> <PUBCHEM_MOLECULAR_FORMULA>
C18H30O4

> <PUBCHEM_MOLECULAR_WEIGHT>
310.4284

> <PUBCHEM_OPENEYE_CAN_SMILES>
CCC=CCC=CCC=CC(C(CCCCCC(=O)O)O)O

> <PUBCHEM_OPENEYE_ISO_SMILES>
CC/C=C\C/C=C\C/C=C\[C@@H]([C@@H](CCCCCC(=O)O)O)O

> <PUBCHEM_CACTVS_TPSA>
77.8

> <PUBCHEM_MONOISOTOPIC_WEIGHT>
310.214409

> <PUBCHEM_TOTAL_CHARGE>
0

> <PUBCHEM_HEAVY_ATOM_COUNT>
22

> <PUBCHEM_ATOM_DEF_STEREO_COUNT>
2

> <PUBCHEM_ATOM_UDEF_STEREO_COUNT>
0

> <PUBCHEM_BOND_DEF_STEREO_COUNT>
3

> <PUBCHEM_BOND_UDEF_STEREO_COUNT>
0

> <PUBCHEM_ISOTOPIC_ATOM_COUNT>
0

> <PUBCHEM_COMPONENT_COUNT>
1

> <PUBCHEM_CACTVS_TAUTO_COUNT>
1

> <PUBCHEM_COORDINATE_TYPE>
1
5
255

> <PUBCHEM_BONDANNOTATIONS>
7  1  5
9  2  6

$$$$

