37248
  -OEChem-07051213043D

 22 23  0     0  0  0  0  0  0999 V2000
   -0.3680    1.9641    2.0232 Cl  0  0  0  0  0  0  0  0  0  0  0  0
    0.3680    1.9646   -2.0227 Cl  0  0  0  0  0  0  0  0  0  0  0  0
   -3.8690   -1.9446   -1.3529 Cl  0  0  0  0  0  0  0  0  0  0  0  0
    3.8691   -1.9449    1.3525 Cl  0  0  0  0  0  0  0  0  0  0  0  0
   -0.7155    0.0280    0.1196 C   0  0  0  0  0  0  0  0  0  0  0  0
    0.7155    0.0280   -0.1196 C   0  0  0  0  0  0  0  0  0  0  0  0
   -1.3022    0.8659    1.0679 C   0  0  0  0  0  0  0  0  0  0  0  0
    1.3021    0.8661   -1.0677 C   0  0  0  0  0  0  0  0  0  0  0  0
   -1.5089   -0.8412   -0.6292 C   0  0  0  0  0  0  0  0  0  0  0  0
    1.5090   -0.8414    0.6290 C   0  0  0  0  0  0  0  0  0  0  0  0
   -2.8891   -0.8725   -0.4295 C   0  0  0  0  0  0  0  0  0  0  0  0
    2.8891   -0.8726    0.4293 C   0  0  0  0  0  0  0  0  0  0  0  0
   -2.6823    0.8346    1.2675 C   0  0  0  0  0  0  0  0  0  0  0  0
    2.6823    0.8349   -1.2673 C   0  0  0  0  0  0  0  0  0  0  0  0
   -3.4758   -0.0347    0.5188 C   0  0  0  0  0  0  0  0  0  0  0  0
    3.4758   -0.0345   -0.5188 C   0  0  0  0  0  0  0  0  0  0  0  0
   -1.0560   -1.4970   -1.3708 H   0  0  0  0  0  0  0  0  0  0  0  0
    1.0560   -1.4974    1.3703 H   0  0  0  0  0  0  0  0  0  0  0  0
   -3.1558    1.4811    2.0021 H   0  0  0  0  0  0  0  0  0  0  0  0
    3.1559    1.4815   -2.0018 H   0  0  0  0  0  0  0  0  0  0  0  0
   -4.5499   -0.0483    0.6849 H   0  0  0  0  0  0  0  0  0  0  0  0
    4.5500   -0.0480   -0.6850 H   0  0  0  0  0  0  0  0  0  0  0  0
  1  7  1  0  0  0  0
  2  8  1  0  0  0  0
  3 11  1  0  0  0  0
  4 12  1  0  0  0  0
  5  6  1  0  0  0  0
  5  7  2  0  0  0  0
  5  9  1  0  0  0  0
  6  8  2  0  0  0  0
  6 10  1  0  0  0  0
  7 13  1  0  0  0  0
  8 14  1  0  0  0  0
  9 11  2  0  0  0  0
  9 17  1  0  0  0  0
 10 12  2  0  0  0  0
 10 18  1  0  0  0  0
 11 15  1  0  0  0  0
 12 16  1  0  0  0  0
 13 15  2  0  0  0  0
 13 19  1  0  0  0  0
 14 16  2  0  0  0  0
 14 20  1  0  0  0  0
 15 21  1  0  0  0  0
 16 22  1  0  0  0  0
M  END
> <PUBCHEM_COMPOUND_CID>
37248

> <PUBCHEM_CONFORMER_RMSD>
0.6

> <PUBCHEM_CONFORMER_DIVERSEORDER>
1
2

> <PUBCHEM_MMFF94_PARTIAL_CHARGES>
20
1 -0.18
10 -0.15
11 0.18
12 0.18
13 -0.15
14 -0.15
15 -0.15
16 -0.15
17 0.15
18 0.15
19 0.15
2 -0.18
20 0.15
21 0.15
22 0.15
3 -0.18
4 -0.18
7 0.18
8 0.18
9 -0.15

> <PUBCHEM_EFFECTIVE_ROTOR_COUNT>
1

> <PUBCHEM_PHARMACOPHORE_FEATURES>
2
6 5 7 9 11 13 15 rings
6 6 8 10 12 14 16 rings

> <PUBCHEM_HEAVY_ATOM_COUNT>
16

> <PUBCHEM_ATOM_DEF_STEREO_COUNT>
0

> <PUBCHEM_ATOM_UDEF_STEREO_COUNT>
0

> <PUBCHEM_BOND_DEF_STEREO_COUNT>
0

> <PUBCHEM_BOND_UDEF_STEREO_COUNT>
0

> <PUBCHEM_ISOTOPIC_ATOM_COUNT>
0

> <PUBCHEM_COMPONENT_COUNT>
1

> <PUBCHEM_CACTVS_TAUTO_COUNT>
1

> <PUBCHEM_CONFORMER_ID>
0000918000000001

> <PUBCHEM_MMFF94_ENERGY>
43.7754

> <PUBCHEM_FEATURE_SELFOVERLAP>
10.149

> <PUBCHEM_SHAPE_FINGERPRINT>
10062212 137 18409729582171195371
10610426 29 18338535082811214881
11578080 2 18194714568147434245
11769659 78 18410863156709855046
12236239 1 18410846668330126370
12553582 1 17750230314530098551
13009979 54 18336819875042968034
13083527 12 16373571349086526079
13134695 92 17704073984299618988
13296908 3 16558743525029519426
13296909 8 18043540610178848184
13538477 17 18187919612130630009
13583140 156 16589451867403369442
14115302 16 18337391522626858727
14178342 30 16878209914668225527
14787075 74 17899139313015045632
14817 1 11409132914433656101
15219456 202 16056591028390114148
15375462 189 18335974286139528915
16945 1 18410291419253151237
1813 80 17984969639079799614
18175812 5 15647049382456692517
18186145 218 15339121268451966367
19049666 15 15698004049827983960
200 152 18202568383998897451
20361792 2 17988640839205035574
20600515 1 17531247300706708769
20626108 58 18198926754428062747
20645477 70 17346601880558429202
20671657 53 18131357405398386247
20715346 28 15574712508180729290
20905425 154 17314505929131536249
21069387 34 18202566180733779483
21639500 275 17630595739428640188
21650355 55 17822583784253095395
22112679 90 18335403690901922088
23175994 123 16630517475179588668
232386 152 18040994008183949847
23366157 5 17973172733843450281
23419403 2 17756189718585784469
23526113 38 16128363853290952560
23532345 42 16950286165452866723
23557571 272 16805590504099661273
23559900 14 17241031232572567012
23598291 2 18342170085464426703
23728640 28 15108063624302651434
25 1 15769507507564982317
2748010 2 16983746383546257676
474 4 18053940659065392396
5902787 121 17749954349795474635
6442390 28 16231349777705664217
6992083 37 18268140027790600157
7615 1 18410570690911794945
77492 1 18410845564523518319
81228 2 16951662844569276497
90316 7 17967812811799055777

> <PUBCHEM_SHAPE_MULTIPOLES>
336.75
6.56
2
1.86
0
0.03
0
-4.15
0
0
0
0
0.87
-2.22

> <PUBCHEM_SHAPE_SELFOVERLAP>
694.731

> <PUBCHEM_SHAPE_VOLUME>
188.2

> <PUBCHEM_COORDINATE_TYPE>
2
5
10

$$$$

