443797
  -OEChem-07051213032D

 86 91  0     1  0  0  0  0  0999 V2000
    6.1748   -1.9173    0.0000 O   0  0  0  0  0  0  0  0  0  0  0  0
    4.8480   -0.8039    0.0000 O   0  0  0  0  0  0  0  0  0  0  0  0
    4.6497   -5.2179    0.0000 O   0  0  0  0  0  0  0  0  0  0  0  0
    6.7764    1.4942    0.0000 O   0  0  0  0  0  0  0  0  0  0  0  0
    4.0042   -1.3752    0.0000 O   0  0  0  0  0  0  0  0  0  0  0  0
    6.3981   -1.1833    0.0000 O   0  0  0  0  0  0  0  0  0  0  0  0
    5.4495    2.6075    0.0000 O   0  0  0  0  0  0  0  0  0  0  0  0
    4.8068    1.8415    0.0000 O   0  0  0  0  0  0  0  0  0  0  0  0
    2.8680   -4.2075    0.0000 O   0  0  0  0  0  0  0  0  0  0  0  0
    8.1465   -1.1487    0.0000 O   0  0  0  0  0  0  0  0  0  0  0  0
    7.3779    4.9057    0.0000 O   0  0  0  0  0  0  0  0  0  0  0  0
    5.4083    5.2530    0.0000 O   0  0  0  0  0  0  0  0  0  0  0  0
    2.8718   -1.1592    0.0000 O   0  0  0  0  0  0  0  0  0  0  0  0
    9.9837   -1.1057    0.0000 O   0  0  0  0  0  0  0  0  0  0  0  0
   11.8031   -4.2292    0.0000 O   0  0  0  0  0  0  0  0  0  0  0  0
    5.5320   -3.6833    0.0000 C   0  0  1  0  0  0  0  0  0  0  0  0
    5.5320   -2.6833    0.0000 C   0  0  1  0  0  0  0  0  0  0  0  0
    6.3981   -4.1833    0.0000 C   0  0  0  0  0  0  0  0  0  0  0  0
    4.6381   -4.2180    0.0000 C   0  0  1  0  0  0  0  0  0  0  0  0
    6.3981   -2.1833    0.0000 C   0  0  0  0  0  0  0  0  0  0  0  0
    5.8328   -0.9776    0.0000 C   0  0  2  0  0  0  0  0  0  0  0  0
    4.6381   -2.1487    0.0000 C   0  0  0  0  0  0  0  0  0  0  0  0
    7.2641   -3.6833    0.0000 C   0  0  0  0  0  0  0  0  0  0  0  0
    6.1336    0.7281    0.0000 C   0  0  2  0  0  0  0  0  0  0  0  0
    6.4756   -0.2115    0.0000 C   0  0  0  0  0  0  0  0  0  0  0  0
    7.2641   -2.6833    0.0000 C   0  0  0  0  0  0  0  0  0  0  0  0
    5.1488    0.9018    0.0000 C   0  0  1  0  0  0  0  0  0  0  0  0
    3.7320   -3.7042    0.0000 C   0  0  0  0  0  0  0  0  0  0  0  0
    3.7320   -2.6625    0.0000 C   0  0  0  0  0  0  0  0  0  0  0  0
    4.5060    0.1357    0.0000 C   0  0  1  0  0  0  0  0  0  0  0  0
    8.1580   -4.2180    0.0000 C   0  0  0  0  0  0  0  0  0  0  0  0
    8.1580   -2.1487    0.0000 C   0  0  0  0  0  0  0  0  0  0  0  0
    6.4344    2.4339    0.0000 C   0  0  2  0  0  0  0  0  0  0  0  0
    7.0771    3.1999    0.0000 C   0  0  0  0  0  0  0  0  0  0  0  0
    9.0641   -3.7042    0.0000 C   0  0  0  0  0  0  0  0  0  0  0  0
    9.0641   -2.6625    0.0000 C   0  0  0  0  0  0  0  0  0  0  0  0
    3.5212    0.3094    0.0000 C   0  0  0  0  0  0  0  0  0  0  0  0
    6.7351    4.1396    0.0000 C   0  0  2  0  0  0  0  0  0  0  0  0
    5.7503    4.3133    0.0000 C   0  0  2  0  0  0  0  0  0  0  0  0
    2.8680   -2.1592    0.0000 C   0  0  0  0  0  0  0  0  0  0  0  0
    5.1075    3.5472    0.0000 C   0  0  1  0  0  0  0  0  0  0  0  0
    3.7895   -5.7279    0.0000 C   0  0  0  0  0  0  0  0  0  0  0  0
    9.9953   -2.1056    0.0000 C   0  0  0  0  0  0  0  0  0  0  0  0
    9.9953   -4.2611    0.0000 C   0  0  0  0  0  0  0  0  0  0  0  0
    4.1227    3.7209    0.0000 C   0  0  0  0  0  0  0  0  0  0  0  0
    2.0000   -2.6558    0.0000 C   0  0  0  0  0  0  0  0  0  0  0  0
   10.9391   -3.7258    0.0000 C   0  0  0  0  0  0  0  0  0  0  0  0
   10.9391   -2.6408    0.0000 C   0  0  0  0  0  0  0  0  0  0  0  0
    5.5386   -4.5333    0.0000 H   0  0  0  0  0  0  0  0  0  0  0  0
    5.9995   -4.6583    0.0000 H   0  0  0  0  0  0  0  0  0  0  0  0
    6.7966   -4.6583    0.0000 H   0  0  0  0  0  0  0  0  0  0  0  0
    4.1042   -4.5332    0.0000 H   0  0  0  0  0  0  0  0  0  0  0  0
    6.4434   -1.0853    0.0000 H   0  0  0  0  0  0  0  0  0  0  0  0
    6.7442    0.6205    0.0000 H   0  0  0  0  0  0  0  0  0  0  0  0
    6.8741   -0.6865    0.0000 H   0  0  0  0  0  0  0  0  0  0  0  0
    7.0125    0.0985    0.0000 H   0  0  0  0  0  0  0  0  0  0  0  0
    5.5473    1.3767    0.0000 H   0  0  0  0  0  0  0  0  0  0  0  0
    4.1075   -0.3392    0.0000 H   0  0  0  0  0  0  0  0  0  0  0  0
    8.1509   -4.8380    0.0000 H   0  0  0  0  0  0  0  0  0  0  0  0
    6.0358    1.9589    0.0000 H   0  0  0  0  0  0  0  0  0  0  0  0
    7.4757    2.7250    0.0000 H   0  0  0  0  0  0  0  0  0  0  0  0
    7.6141    3.5099    0.0000 H   0  0  0  0  0  0  0  0  0  0  0  0
    3.6288    0.9200    0.0000 H   0  0  0  0  0  0  0  0  0  0  0  0
    2.9106    0.4171    0.0000 H   0  0  0  0  0  0  0  0  0  0  0  0
    3.4135   -0.3012    0.0000 H   0  0  0  0  0  0  0  0  0  0  0  0
    6.5231    4.7222    0.0000 H   0  0  0  0  0  0  0  0  0  0  0  0
    6.1488    4.7882    0.0000 H   0  0  0  0  0  0  0  0  0  0  0  0
    4.7090    3.0723    0.0000 H   0  0  0  0  0  0  0  0  0  0  0  0
    4.2230   -0.7951    0.0000 H   0  0  0  0  0  0  0  0  0  0  0  0
    4.1962    1.9492    0.0000 H   0  0  0  0  0  0  0  0  0  0  0  0
    3.4733   -5.1946    0.0000 H   0  0  0  0  0  0  0  0  0  0  0  0
    3.2562   -6.0441    0.0000 H   0  0  0  0  0  0  0  0  0  0  0  0
    4.1057   -6.2612    0.0000 H   0  0  0  0  0  0  0  0  0  0  0  0
    9.9881   -4.8810    0.0000 H   0  0  0  0  0  0  0  0  0  0  0  0
    4.2304    4.3314    0.0000 H   0  0  0  0  0  0  0  0  0  0  0  0
    3.5121    3.8285    0.0000 H   0  0  0  0  0  0  0  0  0  0  0  0
    4.0150    3.1103    0.0000 H   0  0  0  0  0  0  0  0  0  0  0  0
    1.6921   -2.1177    0.0000 H   0  0  0  0  0  0  0  0  0  0  0  0
    1.4619   -2.9638    0.0000 H   0  0  0  0  0  0  0  0  0  0  0  0
    2.3079   -3.1940    0.0000 H   0  0  0  0  0  0  0  0  0  0  0  0
    8.6798   -0.8325    0.0000 H   0  0  0  0  0  0  0  0  0  0  0  0
    7.9885    4.7980    0.0000 H   0  0  0  0  0  0  0  0  0  0  0  0
   11.4748   -2.3288    0.0000 H   0  0  0  0  0  0  0  0  0  0  0  0
    5.8068    5.7279    0.0000 H   0  0  0  0  0  0  0  0  0  0  0  0
   10.5170   -0.7895    0.0000 H   0  0  0  0  0  0  0  0  0  0  0  0
   12.3413   -3.9212    0.0000 H   0  0  0  0  0  0  0  0  0  0  0  0
 17  1  1  6  0  0  0
 21  1  1  6  0  0  0
  2 21  1  0  0  0  0
  2 30  1  0  0  0  0
 19  3  1  6  0  0  0
  3 42  1  0  0  0  0
 24  4  1  6  0  0  0
 33  4  1  6  0  0  0
  5 22  1  0  0  0  0
  5 69  1  0  0  0  0
  6 20  2  0  0  0  0
  7 33  1  0  0  0  0
  7 41  1  0  0  0  0
 27  8  1  1  0  0  0
  8 70  1  0  0  0  0
  9 28  2  0  0  0  0
 10 32  1  0  0  0  0
 10 81  1  0  0  0  0
 38 11  1  6  0  0  0
 11 82  1  0  0  0  0
 39 12  1  6  0  0  0
 12 84  1  0  0  0  0
 13 40  2  0  0  0  0
 14 43  1  0  0  0  0
 14 85  1  0  0  0  0
 15 47  1  0  0  0  0
 15 86  1  0  0  0  0
 16 17  1  0  0  0  0
 16 18  1  0  0  0  0
 16 19  1  0  0  0  0
 16 49  1  6  0  0  0
 17 20  1  0  0  0  0
 17 22  1  0  0  0  0
 18 23  1  0  0  0  0
 18 50  1  0  0  0  0
 18 51  1  0  0  0  0
 19 28  1  0  0  0  0
 19 52  1  0  0  0  0
 20 26  1  0  0  0  0
 21 25  1  0  0  0  0
 21 53  1  0  0  0  0
 22 29  2  0  0  0  0
 23 26  1  0  0  0  0
 23 31  2  0  0  0  0
 24 25  1  0  0  0  0
 24 27  1  0  0  0  0
 24 54  1  0  0  0  0
 25 55  1  0  0  0  0
 25 56  1  0  0  0  0
 26 32  2  0  0  0  0
 27 30  1  0  0  0  0
 27 57  1  0  0  0  0
 28 29  1  0  0  0  0
 29 40  1  0  0  0  0
 30 37  1  6  0  0  0
 30 58  1  0  0  0  0
 31 35  1  0  0  0  0
 31 59  1  0  0  0  0
 32 36  1  0  0  0  0
 33 34  1  0  0  0  0
 33 60  1  0  0  0  0
 34 38  1  0  0  0  0
 34 61  1  0  0  0  0
 34 62  1  0  0  0  0
 35 36  1  0  0  0  0
 35 44  2  0  0  0  0
 36 43  2  0  0  0  0
 37 63  1  0  0  0  0
 37 64  1  0  0  0  0
 37 65  1  0  0  0  0
 38 39  1  0  0  0  0
 38 66  1  0  0  0  0
 39 41  1  0  0  0  0
 39 67  1  0  0  0  0
 40 46  1  0  0  0  0
 41 45  1  6  0  0  0
 41 68  1  0  0  0  0
 42 71  1  0  0  0  0
 42 72  1  0  0  0  0
 42 73  1  0  0  0  0
 43 48  1  0  0  0  0
 44 47  1  0  0  0  0
 44 74  1  0  0  0  0
 45 75  1  0  0  0  0
 45 76  1  0  0  0  0
 45 77  1  0  0  0  0
 46 78  1  0  0  0  0
 46 79  1  0  0  0  0
 46 80  1  0  0  0  0
 47 48  2  0  0  0  0
 48 83  1  0  0  0  0
M  END
> <PUBCHEM_COMPOUND_CID>
443797

> <PUBCHEM_COMPOUND_CANONICALIZED>
1

> <PUBCHEM_CACTVS_COMPLEXITY>
1300

> <PUBCHEM_CACTVS_HBOND_ACCEPTOR>
15

> <PUBCHEM_CACTVS_HBOND_DONOR>
7

> <PUBCHEM_CACTVS_ROTATABLE_BOND>
6

> <PUBCHEM_CACTVS_SUBSKEYS>
AAADcfB8PAAAAAAAAAAAAAAAAAAAAAAAAAA0aMECAAAAAADBUAAAGgAACAAADVSwmAMyDsAABgCIAqBSAAICAAAkIAAAiAFGCMgZNzaKNRaicUAl4BUPuQfK7vzu4AADCAAYAADAAAYQADAAAAAAAAAAAA==

> <PUBCHEM_IUPAC_OPENEYE_NAME>
(1S,4aR,12aS)-3-acetyl-4a-[(2S,4R,5R,6R)-4-[(2S,4R,5R,6R)-4,5-dihydroxy-6-methyl-tetrahydropyran-2-yl]oxy-5-hydroxy-6-methyl-tetrahydropyran-2-yl]oxy-4,6,7,9-tetrahydroxy-1-methoxy-12,12a-dihydro-1H-tetracene-2,5-dione

> <PUBCHEM_IUPAC_CAS_NAME>
(1S,4aR,12aS)-3-acetyl-4a-[[(2S,4R,5R,6R)-4-[[(2S,4R,5R,6R)-4,5-dihydroxy-6-methyl-2-oxanyl]oxy]-5-hydroxy-6-methyl-2-oxanyl]oxy]-4,6,7,9-tetrahydroxy-1-methoxy-12,12a-dihydro-1H-tetracene-2,5-dione

> <PUBCHEM_IUPAC_NAME>
(1S,4aR,12aS)-3-acetyl-4a-[(2S,4R,5R,6R)-4-[(2S,4R,5R,6R)-4,5-dihydroxy-6-methyloxan-2-yl]oxy-5-hydroxy-6-methyloxan-2-yl]oxy-4,6,7,9-tetrahydroxy-1-methoxy-12,12a-dihydro-1H-tetracene-2,5-dione

> <PUBCHEM_IUPAC_SYSTEMATIC_NAME>
(1S,4aR,12aS)-3-ethanoyl-1-methoxy-4a-[(2S,4R,5R,6R)-6-methyl-4-[(2S,4R,5R,6R)-6-methyl-4,5-bis(oxidanyl)oxan-2-yl]oxy-5-oxidanyl-oxan-2-yl]oxy-4,6,7,9-tetrakis(oxidanyl)-12,12a-dihydro-1H-tetracene-2,5-dione

> <PUBCHEM_IUPAC_TRADITIONAL_NAME>
(1S,4aR,12aS)-3-acetyl-4a-[(2S,4R,5R,6R)-4-[(2S,4R,5R,6R)-4,5-dihydroxy-6-methyl-tetrahydropyran-2-yl]oxy-5-hydroxy-6-methyl-tetrahydropyran-2-yl]oxy-4,6,7,9-tetrahydroxy-1-methoxy-12,12a-dihydro-1H-tetracene-2,5-quinone

> <PUBCHEM_IUPAC_INCHI>
InChI=1S/C33H38O15/c1-11(34)23-29(41)30(44-4)17-7-15-5-14-6-16(35)8-18(36)24(14)28(40)25(15)32(43)33(17,31(23)42)48-22-10-20(27(39)13(3)46-22)47-21-9-19(37)26(38)12(2)45-21/h5-6,8,12-13,17,19-22,26-27,30,35-40,42H,7,9-10H2,1-4H3/t12-,13-,17+,19-,20-,21+,22+,26+,27-,30+,33-/m1/s1

> <PUBCHEM_IUPAC_INCHIKEY>
MSZWVMYMDWJNJY-JYVXNHNOSA-N

> <PUBCHEM_XLOGP3_AA>
1.5

> <PUBCHEM_EXACT_MASS>
674.221071

> <PUBCHEM_MOLECULAR_FORMULA>
C33H38O15

> <PUBCHEM_MOLECULAR_WEIGHT>
674.64582

> <PUBCHEM_OPENEYE_CAN_SMILES>
CC1C(C(CC(O1)OC2CC(OC(C2O)C)OC34C(CC5=C(C3=O)C(=C6C(=C5)C=C(C=C6O)O)O)C(C(=O)C(=C4O)C(=O)C)OC)O)O

> <PUBCHEM_OPENEYE_ISO_SMILES>
C[C@@H]1[C@@H]([C@@H](C[C@@H](O1)O[C@@H]2C[C@@H](O[C@@H]([C@H]2O)C)O[C@@]34[C@@H](CC5=C(C3=O)C(=C6C(=C5)C=C(C=C6O)O)O)[C@@H](C(=O)C(=C4O)C(=O)C)OC)O)O

> <PUBCHEM_CACTVS_TPSA>
239

> <PUBCHEM_MONOISOTOPIC_WEIGHT>
674.221071

> <PUBCHEM_TOTAL_CHARGE>
0

> <PUBCHEM_HEAVY_ATOM_COUNT>
48

> <PUBCHEM_ATOM_DEF_STEREO_COUNT>
11

> <PUBCHEM_ATOM_UDEF_STEREO_COUNT>
0

> <PUBCHEM_BOND_DEF_STEREO_COUNT>
0

> <PUBCHEM_BOND_UDEF_STEREO_COUNT>
0

> <PUBCHEM_ISOTOPIC_ATOM_COUNT>
0

> <PUBCHEM_COMPONENT_COUNT>
1

> <PUBCHEM_CACTVS_TAUTO_COUNT>
999

> <PUBCHEM_COORDINATE_TYPE>
1
5
255

> <PUBCHEM_BONDANNOTATIONS>
17  1  6
21  1  6
38  11  6
39  12  6
16  49  6
23  26  8
23  31  8
26  32  8
19  3  6
30  37  6
31  35  8
32  36  8
35  36  8
35  44  8
36  43  8
24  4  6
33  4  6
41  45  6
43  48  8
44  47  8
47  48  8
27  8  5

$$$$

