6746
  -OEChem-06261201293D

 78 81  0     1  0  0  0  0  0999 V2000
    8.4147   -0.1505    0.4017 O   0  0  0  0  0  0  0  0  0  0  0  0
   -0.2768    0.5414   -0.2402 C   0  0  1  0  0  0  0  0  0  0  0  0
    0.4460   -0.7299    0.2477 C   0  0  2  0  0  0  0  0  0  0  0  0
    1.8956   -0.8269   -0.2386 C   0  0  1  0  0  0  0  0  0  0  0  0
    2.6888    0.4243    0.2388 C   0  0  1  0  0  0  0  0  0  0  0  0
   -1.6768    0.2787    0.3662 C   0  0  2  0  0  0  0  0  0  0  0  0
    0.4640    1.7488    0.3513 C   0  0  0  0  0  0  0  0  0  0  0  0
    4.1851    0.3904   -0.2719 C   0  0  2  0  0  0  0  0  0  0  0  0
   -0.5235   -1.8550   -0.1014 C   0  0  0  0  0  0  0  0  0  0  0  0
    1.9466    1.7562   -0.0597 C   0  0  0  0  0  0  0  0  0  0  0  0
   -1.9150   -1.2262    0.0988 C   0  0  0  0  0  0  0  0  0  0  0  0
    2.5612   -2.1074    0.2874 C   0  0  0  0  0  0  0  0  0  0  0  0
   -0.3513    0.6719   -1.7819 C   0  0  0  0  0  0  0  0  0  0  0  0
    4.7931   -1.0072   -0.0880 C   0  0  0  0  0  0  0  0  0  0  0  0
   -2.8130    1.1568   -0.1382 C   0  0  2  0  0  0  0  0  0  0  0  0
    5.0082    1.4181    0.5610 C   0  0  0  0  0  0  0  0  0  0  0  0
    4.0519   -2.0978    0.1736 C   0  0  0  0  0  0  0  0  0  0  0  0
    4.2759    0.7573   -1.7728 C   0  0  0  0  0  0  0  0  0  0  0  0
    6.2952   -1.1270   -0.2048 C   0  0  0  0  0  0  0  0  0  0  0  0
    6.5211    1.3121    0.3745 C   0  0  0  0  0  0  0  0  0  0  0  0
    7.0160   -0.1004    0.6645 C   0  0  2  0  0  0  0  0  0  0  0  0
   -2.5261    2.6327    0.1470 C   0  0  0  0  0  0  0  0  0  0  0  0
   -4.1168    0.7505    0.5050 C   0  0  0  0  0  0  0  0  0  0  0  0
   -5.1830    0.3108   -0.1814 C   0  0  0  0  0  0  0  0  0  0  0  0
   -6.4930   -0.0911    0.4648 C   0  0  2  0  0  0  0  0  0  0  0  0
   -6.8474   -1.5891    0.2286 C   0  0  0  0  0  0  0  0  0  0  0  0
   -7.5882    0.8915   -0.0059 C   0  0  0  0  0  0  0  0  0  0  0  0
   -5.8228   -2.5747    0.7996 C   0  0  0  0  0  0  0  0  0  0  0  0
   -7.0745   -1.8885   -1.2597 C   0  0  0  0  0  0  0  0  0  0  0  0
   -7.3552    2.3302    0.4339 C   0  0  0  0  0  0  0  0  0  0  0  0
    0.4885   -0.6981    1.3498 H   0  0  0  0  0  0  0  0  0  0  0  0
    1.9084   -0.8734   -1.3333 H   0  0  0  0  0  0  0  0  0  0  0  0
    2.7252    0.3534    1.3383 H   0  0  0  0  0  0  0  0  0  0  0  0
   -1.6054    0.4005    1.4590 H   0  0  0  0  0  0  0  0  0  0  0  0
    0.4026    1.7336    1.4470 H   0  0  0  0  0  0  0  0  0  0  0  0
    0.0440    2.7016    0.0273 H   0  0  0  0  0  0  0  0  0  0  0  0
   -0.3856   -2.7295    0.5426 H   0  0  0  0  0  0  0  0  0  0  0  0
   -0.3989   -2.1844   -1.1391 H   0  0  0  0  0  0  0  0  0  0  0  0
    2.0056    1.9983   -1.1248 H   0  0  0  0  0  0  0  0  0  0  0  0
    2.4400    2.5795    0.4694 H   0  0  0  0  0  0  0  0  0  0  0  0
   -2.5248   -1.4010   -0.7950 H   0  0  0  0  0  0  0  0  0  0  0  0
   -2.4305   -1.6919    0.9462 H   0  0  0  0  0  0  0  0  0  0  0  0
    2.1715   -2.9679   -0.2699 H   0  0  0  0  0  0  0  0  0  0  0  0
    2.3056   -2.2711    1.3418 H   0  0  0  0  0  0  0  0  0  0  0  0
    0.6337    0.6358   -2.2550 H   0  0  0  0  0  0  0  0  0  0  0  0
   -0.9465   -0.1244   -2.2400 H   0  0  0  0  0  0  0  0  0  0  0  0
   -0.8003    1.6247   -2.0800 H   0  0  0  0  0  0  0  0  0  0  0  0
   -2.9224    1.0449   -1.2242 H   0  0  0  0  0  0  0  0  0  0  0  0
    4.7915    1.2822    1.6294 H   0  0  0  0  0  0  0  0  0  0  0  0
    4.7039    2.4419    0.3127 H   0  0  0  0  0  0  0  0  0  0  0  0
    4.5423   -3.0580    0.3150 H   0  0  0  0  0  0  0  0  0  0  0  0
    5.2901    0.6413   -2.1693 H   0  0  0  0  0  0  0  0  0  0  0  0
    3.6240    0.1264   -2.3857 H   0  0  0  0  0  0  0  0  0  0  0  0
    3.9986    1.8012   -1.9516 H   0  0  0  0  0  0  0  0  0  0  0  0
    6.6449   -2.1298    0.0730 H   0  0  0  0  0  0  0  0  0  0  0  0
    6.5917   -1.0074   -1.2545 H   0  0  0  0  0  0  0  0  0  0  0  0
    6.8050    1.6162   -0.6407 H   0  0  0  0  0  0  0  0  0  0  0  0
    7.0273    2.0215    1.0411 H   0  0  0  0  0  0  0  0  0  0  0  0
    6.8703   -0.3365    1.7251 H   0  0  0  0  0  0  0  0  0  0  0  0
   -1.8618    3.0657   -0.6039 H   0  0  0  0  0  0  0  0  0  0  0  0
   -3.4496    3.2229    0.0902 H   0  0  0  0  0  0  0  0  0  0  0  0
   -2.1087    2.7903    1.1471 H   0  0  0  0  0  0  0  0  0  0  0  0
   -4.1757    0.8231    1.5887 H   0  0  0  0  0  0  0  0  0  0  0  0
   -5.1218    0.2520   -1.2652 H   0  0  0  0  0  0  0  0  0  0  0  0
    8.5522    0.0497   -0.5399 H   0  0  0  0  0  0  0  0  0  0  0  0
   -6.4009    0.0322    1.5537 H   0  0  0  0  0  0  0  0  0  0  0  0
   -7.7969   -1.7814    0.7468 H   0  0  0  0  0  0  0  0  0  0  0  0
   -7.6815    0.8799   -1.0984 H   0  0  0  0  0  0  0  0  0  0  0  0
   -8.5542    0.5628    0.3969 H   0  0  0  0  0  0  0  0  0  0  0  0
   -5.6409   -2.3719    1.8600 H   0  0  0  0  0  0  0  0  0  0  0  0
   -4.8663   -2.5151    0.2710 H   0  0  0  0  0  0  0  0  0  0  0  0
   -6.1875   -3.6040    0.7138 H   0  0  0  0  0  0  0  0  0  0  0  0
   -6.1682   -1.7402   -1.8547 H   0  0  0  0  0  0  0  0  0  0  0  0
   -7.8734   -1.2729   -1.6823 H   0  0  0  0  0  0  0  0  0  0  0  0
   -7.3791   -2.9333   -1.3904 H   0  0  0  0  0  0  0  0  0  0  0  0
   -7.2345    2.3945    1.5199 H   0  0  0  0  0  0  0  0  0  0  0  0
   -6.4686    2.7623   -0.0399 H   0  0  0  0  0  0  0  0  0  0  0  0
   -8.2129    2.9503    0.1534 H   0  0  0  0  0  0  0  0  0  0  0  0
  1 21  1  0  0  0  0
  1 65  1  0  0  0  0
  2  3  1  0  0  0  0
  2  6  1  0  0  0  0
  2  7  1  0  0  0  0
  2 13  1  0  0  0  0
  3  4  1  0  0  0  0
  3  9  1  0  0  0  0
  3 31  1  0  0  0  0
  4  5  1  0  0  0  0
  4 12  1  0  0  0  0
  4 32  1  0  0  0  0
  5  8  1  0  0  0  0
  5 10  1  0  0  0  0
  5 33  1  0  0  0  0
  6 11  1  0  0  0  0
  6 15  1  0  0  0  0
  6 34  1  0  0  0  0
  7 10  1  0  0  0  0
  7 35  1  0  0  0  0
  7 36  1  0  0  0  0
  8 14  1  0  0  0  0
  8 16  1  0  0  0  0
  8 18  1  0  0  0  0
  9 11  1  0  0  0  0
  9 37  1  0  0  0  0
  9 38  1  0  0  0  0
 10 39  1  0  0  0  0
 10 40  1  0  0  0  0
 11 41  1  0  0  0  0
 11 42  1  0  0  0  0
 12 17  1  0  0  0  0
 12 43  1  0  0  0  0
 12 44  1  0  0  0  0
 13 45  1  0  0  0  0
 13 46  1  0  0  0  0
 13 47  1  0  0  0  0
 14 17  2  0  0  0  0
 14 19  1  0  0  0  0
 15 22  1  0  0  0  0
 15 23  1  0  0  0  0
 15 48  1  0  0  0  0
 16 20  1  0  0  0  0
 16 49  1  0  0  0  0
 16 50  1  0  0  0  0
 17 51  1  0  0  0  0
 18 52  1  0  0  0  0
 18 53  1  0  0  0  0
 18 54  1  0  0  0  0
 19 21  1  0  0  0  0
 19 55  1  0  0  0  0
 19 56  1  0  0  0  0
 20 21  1  0  0  0  0
 20 57  1  0  0  0  0
 20 58  1  0  0  0  0
 21 59  1  0  0  0  0
 22 60  1  0  0  0  0
 22 61  1  0  0  0  0
 22 62  1  0  0  0  0
 23 24  2  0  0  0  0
 23 63  1  0  0  0  0
 24 25  1  0  0  0  0
 24 64  1  0  0  0  0
 25 26  1  0  0  0  0
 25 27  1  0  0  0  0
 25 66  1  0  0  0  0
 26 28  1  0  0  0  0
 26 29  1  0  0  0  0
 26 67  1  0  0  0  0
 27 30  1  0  0  0  0
 27 68  1  0  0  0  0
 27 69  1  0  0  0  0
 28 70  1  0  0  0  0
 28 71  1  0  0  0  0
 28 72  1  0  0  0  0
 29 73  1  0  0  0  0
 29 74  1  0  0  0  0
 29 75  1  0  0  0  0
 30 76  1  0  0  0  0
 30 77  1  0  0  0  0
 30 78  1  0  0  0  0
M  END
> <PUBCHEM_COMPOUND_CID>
6746

> <PUBCHEM_CONFORMER_RMSD>
0.8

> <PUBCHEM_CONFORMER_DIVERSEORDER>
1
18
10
13
19
8
15
17
2
11
16
5
4
12
9
6
7
14
3

> <PUBCHEM_MMFF94_PARTIAL_CHARGES>
15
1 -0.68
12 0.14
14 -0.28
15 0.14
17 -0.29
19 0.14
21 0.28
23 -0.29
24 -0.29
25 0.14
51 0.15
63 0.15
64 0.15
65 0.4
8 0.14

> <PUBCHEM_EFFECTIVE_ROTOR_COUNT>
7

> <PUBCHEM_PHARMACOPHORE_FEATURES>
10
1 1 acceptor
1 1 donor
1 22 hydrophobe
1 30 hydrophobe
3 26 28 29 hydrophobe
4 24 25 26 27 hydrophobe
5 2 3 6 9 11 rings
6 2 3 4 5 7 10 rings
6 4 5 8 12 14 17 rings
6 8 14 16 19 20 21 rings

> <PUBCHEM_HEAVY_ATOM_COUNT>
30

> <PUBCHEM_ATOM_DEF_STEREO_COUNT>
9

> <PUBCHEM_ATOM_UDEF_STEREO_COUNT>
0

> <PUBCHEM_BOND_DEF_STEREO_COUNT>
0

> <PUBCHEM_BOND_UDEF_STEREO_COUNT>
1

> <PUBCHEM_ISOTOPIC_ATOM_COUNT>
0

> <PUBCHEM_COMPONENT_COUNT>
1

> <PUBCHEM_CACTVS_TAUTO_COUNT>
1

> <PUBCHEM_CONFORMER_ID>
00001A5A00000001

> <PUBCHEM_MMFF94_ENERGY>
83.5074

> <PUBCHEM_FEATURE_SELFOVERLAP>
51.115

> <PUBCHEM_SHAPE_FINGERPRINT>
10 15 18272091574667180088
10050765 1 18122062275888935345
11135926 11 18131636699418264947
11578080 2 16662635163594768786
11724838 91 18341897381380626942
11963148 33 18341619204364754834
12166972 35 17917989460499565149
12236239 1 18259704502026716629
12516196 113 18407758140336723217
12838862 33 18338533996733251736
14251764 18 18411418388875843550
14394314 77 18408320017108035585
14849402 71 18114179670966704809
14856354 85 15213304097837246909
15183329 4 15841555163296539659
15849732 13 18187083953160151700
18608769 82 18410014308031772339
18681886 176 18334864887892546555
19315958 150 18043523019021341113
19841028 212 18129665330619615978
20028762 73 18260269642467103343
21130935 74 18333730247163462027
21267235 1 18408599293018681726
22149856 69 18261660558755481243
22224240 67 18343023277050355898
23522609 53 18193806372149715169
23559900 14 18411704253984727977
23569917 315 18341888606800300226
24771293 8 18273211967545273676
335352 9 18411416203650067646
34797466 226 17022899039413568028
350125 39 18410294704918872497
397830 11 16371869361074648323
4073 2 18201712934584218387
4325135 7 18411982472531806503
4340502 62 18412263943646222430
4625314 4 18335983155009579062
5104073 3 18268706293422026856
99344 41 18410012160912439315

> <PUBCHEM_SHAPE_MULTIPOLES>
611.52
22.6
2.52
0.99
9.5
0.25
-0.39
1.69
2.2
2.57
0.24
-0.03
-0.03
-0.38

> <PUBCHEM_SHAPE_SELFOVERLAP>
1265.929

> <PUBCHEM_SHAPE_VOLUME>
349.8

> <PUBCHEM_COORDINATE_TYPE>
2
5
10

$$$$

