447315
  -OEChem-07051212443D

 16 15  0     1  0  0  0  0  0999 V2000
   -0.2212   -1.4190    1.2602 O   0  0  0  0  0  0  0  0  0  0  0  0
    1.7261   -1.4529   -0.7059 O   0  0  0  0  0  0  0  0  0  0  0  0
   -2.0667    0.3929   -1.2931 O   0  0  0  0  0  0  0  0  0  0  0  0
    0.4686    1.8341    0.0140 O   0  0  0  0  0  0  0  0  0  0  0  0
   -2.1903    0.4498    0.9710 O   0  0  0  0  0  0  0  0  0  0  0  0
    2.4179    0.8051    0.5530 O   0  0  0  0  0  0  0  0  0  0  0  0
   -0.5282   -0.9839   -0.0531 C   0  0  2  0  0  0  0  0  0  0  0  0
    0.7387   -0.4291   -0.7062 C   0  0  1  0  0  0  0  0  0  0  0  0
   -1.6652    0.0260   -0.0516 C   0  0  0  0  0  0  0  0  0  0  0  0
    1.3203    0.7769    0.0116 C   0  0  0  0  0  0  0  0  0  0  0  0
   -0.8726   -1.8732   -0.5926 H   0  0  0  0  0  0  0  0  0  0  0  0
    0.5630   -0.1438   -1.7488 H   0  0  0  0  0  0  0  0  0  0  0  0
    0.0738   -0.6496    1.7759 H   0  0  0  0  0  0  0  0  0  0  0  0
    1.8391   -1.7590    0.2105 H   0  0  0  0  0  0  0  0  0  0  0  0
   -2.8085    1.0341   -1.2638 H   0  0  0  0  0  0  0  0  0  0  0  0
    0.8439    2.6054    0.4900 H   0  0  0  0  0  0  0  0  0  0  0  0
  1  7  1  0  0  0  0
  1 13  1  0  0  0  0
  2  8  1  0  0  0  0
  2 14  1  0  0  0  0
  3  9  1  0  0  0  0
  3 15  1  0  0  0  0
  4 10  1  0  0  0  0
  4 16  1  0  0  0  0
  5  9  2  0  0  0  0
  6 10  2  0  0  0  0
  7  8  1  0  0  0  0
  7  9  1  0  0  0  0
  7 11  1  0  0  0  0
  8 10  1  0  0  0  0
  8 12  1  0  0  0  0
M  END
> <PUBCHEM_COMPOUND_CID>
447315

> <PUBCHEM_CONFORMER_RMSD>
0.6

> <PUBCHEM_CONFORMER_DIVERSEORDER>
1
5
7
6
10
11
4
2
8
3
9

> <PUBCHEM_MMFF94_PARTIAL_CHARGES>
14
1 -0.68
10 0.66
13 0.4
14 0.4
15 0.5
16 0.5
2 -0.68
3 -0.65
4 -0.65
5 -0.57
6 -0.57
7 0.34
8 0.34
9 0.66

> <PUBCHEM_EFFECTIVE_ROTOR_COUNT>
3

> <PUBCHEM_PHARMACOPHORE_FEATURES>
10
1 1 acceptor
1 1 donor
1 2 acceptor
1 2 donor
1 3 acceptor
1 4 acceptor
1 5 acceptor
1 6 acceptor
3 3 5 9 anion
3 4 6 10 anion

> <PUBCHEM_HEAVY_ATOM_COUNT>
10

> <PUBCHEM_ATOM_DEF_STEREO_COUNT>
2

> <PUBCHEM_ATOM_UDEF_STEREO_COUNT>
0

> <PUBCHEM_BOND_DEF_STEREO_COUNT>
0

> <PUBCHEM_BOND_UDEF_STEREO_COUNT>
0

> <PUBCHEM_ISOTOPIC_ATOM_COUNT>
0

> <PUBCHEM_COMPONENT_COUNT>
1

> <PUBCHEM_CACTVS_TAUTO_COUNT>
1

> <PUBCHEM_CONFORMER_ID>
0006D35300000001

> <PUBCHEM_MMFF94_ENERGY>
7.2995

> <PUBCHEM_FEATURE_SELFOVERLAP>
50.885

> <PUBCHEM_SHAPE_FINGERPRINT>
12423570 1 8911204631199608423
20653085 51 16951387846118495600
21040471 1 18263353720567737388
23235685 24 18336540517184427864
241688 4 18120643892993841456
24536 1 18263916653209446625
29004967 10 18409157831491920890
5084963 1 18126297345518264741

> <PUBCHEM_SHAPE_MULTIPOLES>
170.58
2.76
1.5
1.04
0.17
0.01
-0.02
0.58
-0.02
-0.52
-0.1
0.35
-0.15
0.3

> <PUBCHEM_SHAPE_SELFOVERLAP>
333.348

> <PUBCHEM_SHAPE_VOLUME>
101.4

> <PUBCHEM_COORDINATE_TYPE>
2
5
10

$$$$

