439190
  -OEChem-07051212443D

 25 24  0     1  0  0  0  0  0999 V2000
   -3.5241   -0.2673   -0.0051 P   0  0  0  0  0  0  0  0  0  0  0  0
   -1.9624   -0.5858   -0.2696 O   0  0  0  0  0  0  0  0  0  0  0  0
    0.4950   -0.1661   -1.4915 O   0  0  0  0  0  0  0  0  0  0  0  0
    1.3178    1.9972    0.1893 O   0  0  0  0  0  0  0  0  0  0  0  0
    3.6637    0.9571   -0.4711 O   0  0  0  0  0  0  0  0  0  0  0  0
    4.6337   -1.4743    0.0597 O   0  0  0  0  0  0  0  0  0  0  0  0
   -3.6798    1.2836   -0.4358 O   0  0  0  0  0  0  0  0  0  0  0  0
   -3.6074   -0.2152    1.6090 O   0  0  0  0  0  0  0  0  0  0  0  0
   -4.4868   -1.2146   -0.6592 O   0  0  0  0  0  0  0  0  0  0  0  0
    0.4035   -0.2217   -0.0653 C   0  0  1  0  0  0  0  0  0  0  0  0
    1.5057    0.6394    0.5614 C   0  0  1  0  0  0  0  0  0  0  0  0
   -0.9900    0.2716    0.3201 C   0  0  0  0  0  0  0  0  0  0  0  0
    2.9049    0.2006    0.1360 C   0  0  0  0  0  0  0  0  0  0  0  0
    3.3261   -1.2044    0.5222 C   0  0  0  0  0  0  0  0  0  0  0  0
    0.5129   -1.2732    0.2202 H   0  0  0  0  0  0  0  0  0  0  0  0
    1.4587    0.5913    1.6546 H   0  0  0  0  0  0  0  0  0  0  0  0
   -1.1069    0.2646    1.4080 H   0  0  0  0  0  0  0  0  0  0  0  0
   -1.1589    1.2855   -0.0560 H   0  0  0  0  0  0  0  0  0  0  0  0
    3.3176   -1.2921    1.6116 H   0  0  0  0  0  0  0  0  0  0  0  0
    2.6501   -1.9423    0.0854 H   0  0  0  0  0  0  0  0  0  0  0  0
   -0.2207   -0.7174   -1.8514 H   0  0  0  0  0  0  0  0  0  0  0  0
    1.2878    2.0378   -0.7820 H   0  0  0  0  0  0  0  0  0  0  0  0
    4.6068   -1.4705   -0.9124 H   0  0  0  0  0  0  0  0  0  0  0  0
   -4.5707    1.6935   -0.4194 H   0  0  0  0  0  0  0  0  0  0  0  0
   -4.4857   -0.1242    2.0362 H   0  0  0  0  0  0  0  0  0  0  0  0
  1  2  1  0  0  0  0
  1  7  1  0  0  0  0
  1  8  1  0  0  0  0
  1  9  2  0  0  0  0
  2 12  1  0  0  0  0
  3 10  1  0  0  0  0
  3 21  1  0  0  0  0
  4 11  1  0  0  0  0
  4 22  1  0  0  0  0
  5 13  2  0  0  0  0
  6 14  1  0  0  0  0
  6 23  1  0  0  0  0
  7 24  1  0  0  0  0
  8 25  1  0  0  0  0
 10 11  1  0  0  0  0
 10 12  1  0  0  0  0
 10 15  1  0  0  0  0
 11 13  1  0  0  0  0
 11 16  1  0  0  0  0
 12 17  1  0  0  0  0
 12 18  1  0  0  0  0
 13 14  1  0  0  0  0
 14 19  1  0  0  0  0
 14 20  1  0  0  0  0
M  END
> <PUBCHEM_COMPOUND_CID>
439190

> <PUBCHEM_CONFORMER_RMSD>
0.6

> <PUBCHEM_CONFORMER_DIVERSEORDER>
1
174
148
126
118
176
61
194
27
155
144
153
16
188
147
34
175
172
108
129
186
4
146
12
127
14
192
142
58
52
72
119
131
117
64
41
196
38
92
26
50
10
18
51
132
185
13
23
98
121
137
124
183
170
2
139
97
21
24
122
42
56
152
46
28
91
120
47
15
154
19
195
11
158
65
110
177
35
57
59
78
134
106
100
22
17
71
93
112
163
30
107
95
31
187
102
136
43
69
37
173
181
6
130
45
76
88
166
180
90
111
94
178
167
3
25
7
125
70
191
182
164
157
8
96
67
168
81
190
29
62
73
161
48
20
9
109
116
82
115
84
33
104
77
160
145
54
138
103
60
171
128
68
66
87
39
32
133
74
75
5
36
149
83
99
189
40
193
135
165
85
114
140
55
113
80
151
162
123
143
159
89
101
79
49
141
44
179
156
86
184
105
150
169
53
63

> <PUBCHEM_MMFF94_PARTIAL_CHARGES>
19
1 1.51
10 0.28
11 0.34
12 0.28
13 0.45
14 0.34
2 -0.55
21 0.4
22 0.4
23 0.4
24 0.5
25 0.5
3 -0.68
4 -0.68
5 -0.57
6 -0.68
7 -0.77
8 -0.77
9 -0.7

> <PUBCHEM_EFFECTIVE_ROTOR_COUNT>
6

> <PUBCHEM_PHARMACOPHORE_FEATURES>
11
1 3 acceptor
1 3 donor
1 4 acceptor
1 4 donor
1 5 acceptor
1 6 acceptor
1 6 donor
1 7 acceptor
1 8 acceptor
1 9 acceptor
4 1 7 8 9 anion

> <PUBCHEM_HEAVY_ATOM_COUNT>
14

> <PUBCHEM_ATOM_DEF_STEREO_COUNT>
2

> <PUBCHEM_ATOM_UDEF_STEREO_COUNT>
0

> <PUBCHEM_BOND_DEF_STEREO_COUNT>
0

> <PUBCHEM_BOND_UDEF_STEREO_COUNT>
0

> <PUBCHEM_ISOTOPIC_ATOM_COUNT>
0

> <PUBCHEM_COMPONENT_COUNT>
1

> <PUBCHEM_CACTVS_TAUTO_COUNT>
8

> <PUBCHEM_CONFORMER_ID>
0006B39600000001

> <PUBCHEM_MMFF94_ENERGY>
-19.1045

> <PUBCHEM_FEATURE_SELFOVERLAP>
55.877

> <PUBCHEM_SHAPE_FINGERPRINT>
10219947 1 18333448742205758956
124424 183 18411141367848900961
12916754 54 18335705984307458683
12932764 1 18335985272565638385
13690532 89 18334017189538198415
14144814 61 18040714762078929579
14251717 144 18412268349966644170
14252887 29 18187645851580223954
17834072 33 18409168779774963198
17834074 16 17989486316270507426
18186145 218 17967811622113998881
190213 19 16917349220990618511
19026448 4 17775565325301086297
1986462 14 18411703197010881133
20645477 70 18341618135254799902
20871998 22 18115583906771943878
22485316 2 18411142432947919490
2306618 200 18040997388777204697
23402539 116 17894640266379816029
4047638 21 7493288863020469750
42 15 18334858328897418283
449060 50 17845365566517821588

> <PUBCHEM_SHAPE_MULTIPOLES>
245.01
8.98
1.38
0.97
2.37
0.25
-0.06
-2.69
-0.16
-0.7
0.01
0.52
-0.07
-0.22

> <PUBCHEM_SHAPE_SELFOVERLAP>
456.732

> <PUBCHEM_SHAPE_VOLUME>
153.2

> <PUBCHEM_COORDINATE_TYPE>
2
5
10

$$$$

