11481
  -OEChem-06261205432D

 37 37  0     0  0  0  0  0  0999 V2000
    9.1360    4.1200    0.0000 Br  0  5  0  0  0  0  0  0  0  0  0  0
    2.2690    5.6200    0.0000 O   0  0  0  0  0  0  0  0  0  0  0  0
    3.1350    7.1200    0.0000 O   0  0  0  0  0  0  0  0  0  0  0  0
    4.0010    3.6200    0.0000 N   0  3  0  0  0  0  0  0  0  0  0  0
    1.4030    7.1200    0.0000 N   0  0  0  0  0  0  0  0  0  0  0  0
    4.0010    2.6200    0.0000 C   0  0  0  0  0  0  0  0  0  0  0  0
    4.8671    2.1200    0.0000 C   0  0  0  0  0  0  0  0  0  0  0  0
    3.1350    4.1200    0.0000 C   0  0  0  0  0  0  0  0  0  0  0  0
    4.8671    4.1200    0.0000 C   0  0  0  0  0  0  0  0  0  0  0  0
    3.1350    5.1200    0.0000 C   0  0  0  0  0  0  0  0  0  0  0  0
    4.8671    1.1200    0.0000 C   0  0  0  0  0  0  0  0  0  0  0  0
    5.7331    2.6200    0.0000 C   0  0  0  0  0  0  0  0  0  0  0  0
    4.8671    5.1200    0.0000 C   0  0  0  0  0  0  0  0  0  0  0  0
    4.0010    5.6200    0.0000 C   0  0  0  0  0  0  0  0  0  0  0  0
    5.7331    0.6200    0.0000 C   0  0  0  0  0  0  0  0  0  0  0  0
    6.5991    2.1200    0.0000 C   0  0  0  0  0  0  0  0  0  0  0  0
    6.5991    1.1200    0.0000 C   0  0  0  0  0  0  0  0  0  0  0  0
    2.2690    6.6200    0.0000 C   0  0  0  0  0  0  0  0  0  0  0  0
    1.4030    8.1200    0.0000 C   0  0  0  0  0  0  0  0  0  0  0  0
    0.5369    6.6200    0.0000 C   0  0  0  0  0  0  0  0  0  0  0  0
    3.3905    2.7277    0.0000 H   0  0  0  0  0  0  0  0  0  0  0  0
    3.7890    2.0374    0.0000 H   0  0  0  0  0  0  0  0  0  0  0  0
    2.5981    3.8100    0.0000 H   0  0  0  0  0  0  0  0  0  0  0  0
    5.4040    3.8100    0.0000 H   0  0  0  0  0  0  0  0  0  0  0  0
    4.3301    0.8100    0.0000 H   0  0  0  0  0  0  0  0  0  0  0  0
    5.7331    3.2400    0.0000 H   0  0  0  0  0  0  0  0  0  0  0  0
    5.4040    5.4300    0.0000 H   0  0  0  0  0  0  0  0  0  0  0  0
    4.0010    6.2400    0.0000 H   0  0  0  0  0  0  0  0  0  0  0  0
    5.7331    0.0000    0.0000 H   0  0  0  0  0  0  0  0  0  0  0  0
    7.1360    2.4300    0.0000 H   0  0  0  0  0  0  0  0  0  0  0  0
    7.1360    0.8100    0.0000 H   0  0  0  0  0  0  0  0  0  0  0  0
    0.2269    7.1569    0.0000 H   0  0  0  0  0  0  0  0  0  0  0  0
    2.0230    8.1200    0.0000 H   0  0  0  0  0  0  0  0  0  0  0  0
    1.4030    8.7400    0.0000 H   0  0  0  0  0  0  0  0  0  0  0  0
    0.7830    8.1200    0.0000 H   0  0  0  0  0  0  0  0  0  0  0  0
    0.0000    6.3100    0.0000 H   0  0  0  0  0  0  0  0  0  0  0  0
    0.8469    6.0831    0.0000 H   0  0  0  0  0  0  0  0  0  0  0  0
  2 10  1  0  0  0  0
  2 18  1  0  0  0  0
  3 18  2  0  0  0  0
  4  6  1  0  0  0  0
  4  8  1  0  0  0  0
  4  9  2  0  0  0  0
  5 18  1  0  0  0  0
  5 19  1  0  0  0  0
  5 20  1  0  0  0  0
  6  7  1  0  0  0  0
  6 21  1  0  0  0  0
  6 22  1  0  0  0  0
  7 11  2  0  0  0  0
  7 12  1  0  0  0  0
  8 10  2  0  0  0  0
  8 23  1  0  0  0  0
  9 13  1  0  0  0  0
  9 24  1  0  0  0  0
 10 14  1  0  0  0  0
 11 15  1  0  0  0  0
 11 25  1  0  0  0  0
 12 16  2  0  0  0  0
 12 26  1  0  0  0  0
 13 14  2  0  0  0  0
 13 27  1  0  0  0  0
 14 28  1  0  0  0  0
 15 17  2  0  0  0  0
 15 29  1  0  0  0  0
 16 17  1  0  0  0  0
 16 30  1  0  0  0  0
 17 31  1  0  0  0  0
 19 33  1  0  0  0  0
 19 34  1  0  0  0  0
 19 35  1  0  0  0  0
 20 32  1  0  0  0  0
 20 36  1  0  0  0  0
 20 37  1  0  0  0  0
M  CHG  2   1  -1   4   1
M  END
> <PUBCHEM_COMPOUND_CID>
11481

> <PUBCHEM_COMPOUND_CANONICALIZED>
1

> <PUBCHEM_CACTVS_COMPLEXITY>
288

> <PUBCHEM_CACTVS_HBOND_ACCEPTOR>
3

> <PUBCHEM_CACTVS_HBOND_DONOR>
0

> <PUBCHEM_CACTVS_ROTATABLE_BOND>
4

> <PUBCHEM_CACTVS_SUBSKEYS>
AAADceBzMAAAEAAAAAAAAAAAAAAAAAAAAAA8QAAAAAAAAAABwAAAHgAAAAAADATBmgQ+jpMMFACoAjBnXASCiCAxYiAI2CA/bJgOJuLEsZuNMihkwhHY6AcwgAAOAAAAAAAAAAAAAAAAAAAAAAAAAAAAAA==

> <PUBCHEM_IUPAC_OPENEYE_NAME>
(1-benzylpyridin-1-ium-3-yl) N,N-dimethylcarbamate bromide

> <PUBCHEM_IUPAC_CAS_NAME>
N,N-dimethylcarbamic acid [1-(phenylmethyl)-3-pyridin-1-iumyl] ester bromide

> <PUBCHEM_IUPAC_NAME>
(1-benzylpyridin-1-ium-3-yl) N,N-dimethylcarbamate bromide

> <PUBCHEM_IUPAC_SYSTEMATIC_NAME>
[1-(phenylmethyl)pyridin-1-ium-3-yl] N,N-dimethylcarbamate bromide

> <PUBCHEM_IUPAC_TRADITIONAL_NAME>
N,N-dimethylcarbamic acid (1-benzylpyridin-1-ium-3-yl) ester bromide

> <PUBCHEM_IUPAC_INCHI>
InChI=1S/C15H17N2O2.BrH/c1-16(2)15(18)19-14-9-6-10-17(12-14)11-13-7-4-3-5-8-13;/h3-10,12H,11H2,1-2H3;1H/q+1;/p-1

> <PUBCHEM_IUPAC_INCHIKEY>
YIUNVJGEMXODJX-UHFFFAOYSA-M

> <PUBCHEM_EXACT_MASS>
336.04734

> <PUBCHEM_MOLECULAR_FORMULA>
C15H17BrN2O2

> <PUBCHEM_MOLECULAR_WEIGHT>
337.21168

> <PUBCHEM_OPENEYE_CAN_SMILES>
CN(C)C(=O)OC1=C[N+](=CC=C1)CC2=CC=CC=C2.[Br-]

> <PUBCHEM_OPENEYE_ISO_SMILES>
CN(C)C(=O)OC1=C[N+](=CC=C1)CC2=CC=CC=C2.[Br-]

> <PUBCHEM_CACTVS_TPSA>
33.4

> <PUBCHEM_MONOISOTOPIC_WEIGHT>
336.04734

> <PUBCHEM_TOTAL_CHARGE>
0

> <PUBCHEM_HEAVY_ATOM_COUNT>
20

> <PUBCHEM_ATOM_DEF_STEREO_COUNT>
0

> <PUBCHEM_ATOM_UDEF_STEREO_COUNT>
0

> <PUBCHEM_BOND_DEF_STEREO_COUNT>
0

> <PUBCHEM_BOND_UDEF_STEREO_COUNT>
0

> <PUBCHEM_ISOTOPIC_ATOM_COUNT>
0

> <PUBCHEM_COMPONENT_COUNT>
2

> <PUBCHEM_CACTVS_TAUTO_COUNT>
1

> <PUBCHEM_COORDINATE_TYPE>
1
5
255

> <PUBCHEM_BONDANNOTATIONS>
10  14  8
11  15  8
12  16  8
13  14  8
15  17  8
16  17  8
4  8  8
4  9  8
7  11  8
7  12  8
8  10  8
9  13  8

$$$$

