947
  -OEChem-07051212442D

  2  1  0     0  0  0  0  0  0999 V2000
    2.0000    0.0000    0.0000 N   0  0  0  0  0  0  0  0  0  0  0  0
    3.0000    0.0000    0.0000 N   0  0  0  0  0  0  0  0  0  0  0  0
  1  2  3  0  0  0  0
M  END
> <PUBCHEM_COMPOUND_CID>
947

> <PUBCHEM_COMPOUND_CANONICALIZED>
1

> <PUBCHEM_CACTVS_COMPLEXITY>
8

> <PUBCHEM_CACTVS_HBOND_ACCEPTOR>
2

> <PUBCHEM_CACTVS_HBOND_DONOR>
0

> <PUBCHEM_CACTVS_ROTATABLE_BOND>
0

> <PUBCHEM_CACTVS_SUBSKEYS>
AAADcQADAAAAAAAAAAAAAAAAAAAAAAAAAAAAAAAAAAAAAAAAAAAAAAAIAAAAAAAAAAAAAAAAAAAAAAAAAAAAAAAAAAAAAAAAAAAAAAAAAAAAAAAAAAAAAAAAAAAAAAAAAAAAAAAAAAAAAAAAAAAAAAAAAA==

> <PUBCHEM_IUPAC_OPENEYE_NAME>
molecular nitrogen

> <PUBCHEM_IUPAC_CAS_NAME>
molecular nitrogen

> <PUBCHEM_IUPAC_NAME>
molecular nitrogen

> <PUBCHEM_IUPAC_SYSTEMATIC_NAME>
molecular nitrogen

> <PUBCHEM_IUPAC_TRADITIONAL_NAME>
molecular nitrogen

> <PUBCHEM_IUPAC_INCHI>
InChI=1S/N2/c1-2

> <PUBCHEM_IUPAC_INCHIKEY>
IJGRMHOSHXDMSA-UHFFFAOYSA-N

> <PUBCHEM_XLOGP3_AA>
0.1

> <PUBCHEM_EXACT_MASS>
28.006148

> <PUBCHEM_MOLECULAR_FORMULA>
N2

> <PUBCHEM_MOLECULAR_WEIGHT>
28.0134

> <PUBCHEM_OPENEYE_CAN_SMILES>
N#N

> <PUBCHEM_OPENEYE_ISO_SMILES>
N#N

> <PUBCHEM_CACTVS_TPSA>
47.6

> <PUBCHEM_MONOISOTOPIC_WEIGHT>
28.006148

> <PUBCHEM_TOTAL_CHARGE>
0

> <PUBCHEM_HEAVY_ATOM_COUNT>
2

> <PUBCHEM_ATOM_DEF_STEREO_COUNT>
0

> <PUBCHEM_ATOM_UDEF_STEREO_COUNT>
0

> <PUBCHEM_BOND_DEF_STEREO_COUNT>
0

> <PUBCHEM_BOND_UDEF_STEREO_COUNT>
0

> <PUBCHEM_ISOTOPIC_ATOM_COUNT>
0

> <PUBCHEM_COMPONENT_COUNT>
1

> <PUBCHEM_CACTVS_TAUTO_COUNT>
1

> <PUBCHEM_COORDINATE_TYPE>
1
5
255

$$$$

