440570
  -OEChem-07051212503D

 16 16  0     1  0  0  0  0  0999 V2000
    1.9452    1.8461   -0.3158 O   0  0  0  0  0  0  0  0  0  0  0  0
   -3.1422    0.6913    0.6816 O   0  0  0  0  0  0  0  0  0  0  0  0
   -2.3509   -0.8650   -0.7788 O   0  0  0  0  0  0  0  0  0  0  0  0
    0.4680   -1.3719   -0.0318 N   0  0  0  0  0  0  0  0  0  0  0  0
    2.4181   -0.3263    0.3629 N   0  0  0  0  0  0  0  0  0  0  0  0
    0.3111    0.0411   -0.4643 C   0  0  1  0  0  0  0  0  0  0  0  0
   -0.8209    0.6914    0.3058 C   0  0  0  0  0  0  0  0  0  0  0  0
    1.6474    0.6752   -0.1468 C   0  0  0  0  0  0  0  0  0  0  0  0
    1.6808   -1.4487    0.4000 C   0  0  0  0  0  0  0  0  0  0  0  0
   -2.1565    0.0669   -0.0128 C   0  0  0  0  0  0  0  0  0  0  0  0
    0.1474    0.0709   -1.5475 H   0  0  0  0  0  0  0  0  0  0  0  0
   -0.6519    0.6004    1.3858 H   0  0  0  0  0  0  0  0  0  0  0  0
   -0.8750    1.7569    0.0543 H   0  0  0  0  0  0  0  0  0  0  0  0
    3.3776   -0.2320    0.6742 H   0  0  0  0  0  0  0  0  0  0  0  0
    2.1593   -2.3520    0.7989 H   0  0  0  0  0  0  0  0  0  0  0  0
   -4.0237    0.3042    0.4932 H   0  0  0  0  0  0  0  0  0  0  0  0
  1  8  2  0  0  0  0
  2 10  1  0  0  0  0
  2 16  1  0  0  0  0
  3 10  2  0  0  0  0
  4  6  1  0  0  0  0
  4  9  2  0  0  0  0
  5  8  1  0  0  0  0
  5  9  1  0  0  0  0
  5 14  1  0  0  0  0
  6  7  1  0  0  0  0
  6  8  1  0  0  0  0
  6 11  1  0  0  0  0
  7 10  1  0  0  0  0
  7 12  1  0  0  0  0
  7 13  1  0  0  0  0
  9 15  1  0  0  0  0
M  END
> <PUBCHEM_COMPOUND_CID>
440570

> <PUBCHEM_CONFORMER_RMSD>
0.6

> <PUBCHEM_CONFORMER_DIVERSEORDER>
1
3
6
5
4
2

> <PUBCHEM_MMFF94_PARTIAL_CHARGES>
13
1 -0.57
10 0.66
14 0.37
15 0.06
16 0.5
2 -0.65
3 -0.57
4 -0.7
5 -0.49
6 0.31
7 0.06
8 0.57
9 0.45

> <PUBCHEM_EFFECTIVE_ROTOR_COUNT>
2.4

> <PUBCHEM_PHARMACOPHORE_FEATURES>
6
1 1 acceptor
1 2 acceptor
1 3 acceptor
1 5 donor
3 2 3 10 anion
5 4 5 6 8 9 rings

> <PUBCHEM_HEAVY_ATOM_COUNT>
10

> <PUBCHEM_ATOM_DEF_STEREO_COUNT>
0

> <PUBCHEM_ATOM_UDEF_STEREO_COUNT>
1

> <PUBCHEM_BOND_DEF_STEREO_COUNT>
0

> <PUBCHEM_BOND_UDEF_STEREO_COUNT>
0

> <PUBCHEM_ISOTOPIC_ATOM_COUNT>
0

> <PUBCHEM_COMPONENT_COUNT>
1

> <PUBCHEM_CACTVS_TAUTO_COUNT>
3

> <PUBCHEM_CONFORMER_ID>
0006B8FA00000001

> <PUBCHEM_MMFF94_ENERGY>
13.5842

> <PUBCHEM_FEATURE_SELFOVERLAP>
30.503

> <PUBCHEM_SHAPE_FINGERPRINT>
12932764 1 18130787884355719143
14325111 11 18338233769407087196
15775835 57 18334570209611757353
16945 1 18343308084441698474
18185500 45 18335424607466194811
20871998 22 17904481049719593718
21040471 1 18196088833528230324
23552333 60 18335134332001307233
23552423 10 18410576192949465591
29004967 10 17917147298742364730
5084963 1 18333737913726908328

> <PUBCHEM_SHAPE_MULTIPOLES>
178.23
3.95
1.47
0.73
2.29
0.08
0.01
0.28
-0.41
-0.84
0.04
0.18
-0.03
-0.49

> <PUBCHEM_SHAPE_SELFOVERLAP>
366.996

> <PUBCHEM_SHAPE_VOLUME>
103.3

> <PUBCHEM_COORDINATE_TYPE>
2
5
10

$$$$

