71616
  -OEChem-07051212543D

 39 41  0     1  0  0  0  0  0999 V2000
   -0.9996    1.2212   -1.9654 F   0  0  0  0  0  0  0  0  0  0  0  0
    2.8701    1.3731   -2.1001 F   0  0  0  0  0  0  0  0  0  0  0  0
   -5.1539    2.1719    0.0905 F   0  0  0  0  0  0  0  0  0  0  0  0
    0.2829   -0.4647    1.7018 O   0  0  0  0  0  0  0  0  0  0  0  0
   -0.6493   -2.2307   -0.4379 N   0  0  0  0  0  0  0  0  0  0  0  0
    2.9682    0.1732    1.3242 N   0  0  0  0  0  0  0  0  0  0  0  0
   -0.2755   -3.2364    0.3458 N   0  0  0  0  0  0  0  0  0  0  0  0
   -2.3465   -3.5614   -0.5698 N   0  0  0  0  0  0  0  0  0  0  0  0
    5.1028   -0.2105    0.2737 N   0  0  0  0  0  0  0  0  0  0  0  0
    0.0549    0.0832    0.3958 C   0  0  1  0  0  0  0  0  0  0  0  0
    1.1314    1.2132    0.1432 C   0  0  1  0  0  0  0  0  0  0  0  0
    0.2421   -1.0819   -0.6282 C   0  0  0  0  0  0  0  0  0  0  0  0
   -1.3688    0.6549    0.3097 C   0  0  0  0  0  0  0  0  0  0  0  0
    1.0004    2.4174    1.0931 C   0  0  0  0  0  0  0  0  0  0  0  0
    2.5737    0.7041    0.1673 C   0  0  0  0  0  0  0  0  0  0  0  0
   -1.7896    1.1878   -0.8833 C   0  0  0  0  0  0  0  0  0  0  0  0
   -2.1569    0.6066    1.4329 C   0  0  0  0  0  0  0  0  0  0  0  0
    3.3202    0.8303   -0.9645 C   0  0  0  0  0  0  0  0  0  0  0  0
   -3.0825    1.7060   -0.9582 C   0  0  0  0  0  0  0  0  0  0  0  0
   -3.4496    1.1249    1.3580 C   0  0  0  0  0  0  0  0  0  0  0  0
   -1.8655   -2.4114   -0.9816 C   0  0  0  0  0  0  0  0  0  0  0  0
   -3.9125    1.6745    0.1625 C   0  0  0  0  0  0  0  0  0  0  0  0
    4.6070    0.3450   -0.8515 C   0  0  0  0  0  0  0  0  0  0  0  0
    4.2419   -0.2638    1.3080 C   0  0  0  0  0  0  0  0  0  0  0  0
   -1.3454   -4.0265    0.2341 C   0  0  0  0  0  0  0  0  0  0  0  0
    0.9522    1.6211   -0.8592 H   0  0  0  0  0  0  0  0  0  0  0  0
    1.2517   -1.5041   -0.5475 H   0  0  0  0  0  0  0  0  0  0  0  0
    0.1182   -0.7585   -1.6671 H   0  0  0  0  0  0  0  0  0  0  0  0
    1.1099    2.1166    2.1409 H   0  0  0  0  0  0  0  0  0  0  0  0
    0.0320    2.9149    0.9840 H   0  0  0  0  0  0  0  0  0  0  0  0
    1.7739    3.1654    0.8829 H   0  0  0  0  0  0  0  0  0  0  0  0
   -0.2405   -1.2769    1.8043 H   0  0  0  0  0  0  0  0  0  0  0  0
   -1.8345    0.1958    2.3827 H   0  0  0  0  0  0  0  0  0  0  0  0
   -3.4430    2.1335   -1.8890 H   0  0  0  0  0  0  0  0  0  0  0  0
   -4.0960    1.1023    2.2305 H   0  0  0  0  0  0  0  0  0  0  0  0
   -2.3514   -1.7188   -1.6539 H   0  0  0  0  0  0  0  0  0  0  0  0
    5.2955    0.3907   -1.6885 H   0  0  0  0  0  0  0  0  0  0  0  0
    4.6135   -0.7054    2.2245 H   0  0  0  0  0  0  0  0  0  0  0  0
   -1.3975   -4.9707    0.7555 H   0  0  0  0  0  0  0  0  0  0  0  0
  1 16  1  0  0  0  0
  2 18  1  0  0  0  0
  3 22  1  0  0  0  0
  4 10  1  0  0  0  0
  4 32  1  0  0  0  0
  5  7  1  0  0  0  0
  5 12  1  0  0  0  0
  5 21  1  0  0  0  0
  6 15  2  0  0  0  0
  6 24  1  0  0  0  0
  7 25  2  0  0  0  0
  8 21  2  0  0  0  0
  8 25  1  0  0  0  0
  9 23  1  0  0  0  0
  9 24  2  0  0  0  0
 10 11  1  0  0  0  0
 10 12  1  0  0  0  0
 10 13  1  0  0  0  0
 11 14  1  0  0  0  0
 11 15  1  0  0  0  0
 11 26  1  0  0  0  0
 12 27  1  0  0  0  0
 12 28  1  0  0  0  0
 13 16  2  0  0  0  0
 13 17  1  0  0  0  0
 14 29  1  0  0  0  0
 14 30  1  0  0  0  0
 14 31  1  0  0  0  0
 15 18  1  0  0  0  0
 16 19  1  0  0  0  0
 17 20  2  0  0  0  0
 17 33  1  0  0  0  0
 18 23  2  0  0  0  0
 19 22  2  0  0  0  0
 19 34  1  0  0  0  0
 20 22  1  0  0  0  0
 20 35  1  0  0  0  0
 21 36  1  0  0  0  0
 23 37  1  0  0  0  0
 24 38  1  0  0  0  0
 25 39  1  0  0  0  0
M  END
> <PUBCHEM_COMPOUND_CID>
71616

> <PUBCHEM_CONFORMER_RMSD>
0.8

> <PUBCHEM_CONFORMER_DIVERSEORDER>
1
10
25
30
28
15
20
21
11
22
31
9
13
4
19
32
24
7
5
27
26
18
23
3
17
8
29
12
16
6
14
2

> <PUBCHEM_MMFF94_PARTIAL_CHARGES>
32
1 -0.19
10 0.42
11 0.14
12 0.26
13 -0.14
15 0.17
16 0.19
17 -0.15
18 0.19
19 -0.15
2 -0.19
20 -0.15
21 0.04
22 0.19
23 0.16
24 0.47
25 0.37
3 -0.19
32 0.4
33 0.15
34 0.15
35 0.15
36 0.15
37 0.15
38 0.15
39 0.15
4 -0.68
5 0.31
6 -0.62
7 -0.71
8 -0.57
9 -0.62

> <PUBCHEM_EFFECTIVE_ROTOR_COUNT>
5

> <PUBCHEM_PHARMACOPHORE_FEATURES>
10
1 14 hydrophobe
1 4 acceptor
1 4 donor
1 6 acceptor
3 5 8 21 cation
3 6 9 24 cation
3 7 8 25 cation
5 5 7 8 21 25 rings
6 13 16 17 19 20 22 rings
6 6 9 15 18 23 24 rings

> <PUBCHEM_HEAVY_ATOM_COUNT>
25

> <PUBCHEM_ATOM_DEF_STEREO_COUNT>
2

> <PUBCHEM_ATOM_UDEF_STEREO_COUNT>
0

> <PUBCHEM_BOND_DEF_STEREO_COUNT>
0

> <PUBCHEM_BOND_UDEF_STEREO_COUNT>
0

> <PUBCHEM_ISOTOPIC_ATOM_COUNT>
0

> <PUBCHEM_COMPONENT_COUNT>
1

> <PUBCHEM_CACTVS_TAUTO_COUNT>
3

> <PUBCHEM_CONFORMER_ID>
000117C000000001

> <PUBCHEM_MMFF94_ENERGY>
64.6278

> <PUBCHEM_FEATURE_SELFOVERLAP>
53.524

> <PUBCHEM_SHAPE_FINGERPRINT>
104564 63 18265050224033946647
10906281 52 17603577522495198000
121448 382 18186529812706874063
12592029 89 18268148836858169275
12633257 1 17897423035430157283
12643181 29 18261668286299198886
12714826 92 17971180444401051766
12715332 25 18413109489409798848
12788726 201 18123462778719690166
13052359 8 18409166593367993491
13140716 1 18261399888922443344
13149001 5 18113907009130652640
133893 2 17759794137082206603
13583140 156 16773805830363644399
13681431 1 17473541833772510827
14115302 16 18409724071939281004
14223421 5 17756996605670424856
14790565 3 18264202685205416360
14866123 147 18410579469878423363
15309172 13 18410572928806131673
15664445 248 17114377040454288973
16752209 62 18264780878044879882
20600515 1 17263314746474275187
21033648 29 18193581028063556272
22907989 373 18194399992104901445
22956985 138 17911797195875340043
23184049 29 18047478824706404688
23419403 2 13848345116754808107
23557571 272 18116721716522832720
23558518 356 18125441908302626416
298252 57 18412261774286714401
3729539 64 17832681832456342630
3759504 43 18411134749304180891
404807 14 4673228210323849566
4340502 62 18187924036648538825
7164475 11 18122910828335438294
81228 2 17981335490702807547

> <PUBCHEM_SHAPE_MULTIPOLES>
461.89
7.94
3.61
1.52
5.01
5.05
0.15
-3.93
-0.06
-4.06
0.16
0.39
-0.49
-0.53

> <PUBCHEM_SHAPE_SELFOVERLAP>
1009.622

> <PUBCHEM_SHAPE_VOLUME>
250.8

> <PUBCHEM_COORDINATE_TYPE>
2
5
10

$$$$

