443234
  -OEChem-07051213012D

 30 32  0     1  0  0  0  0  0999 V2000
    5.9405    0.8252    0.0000 O   0  0  0  0  0  0  0  0  0  0  0  0
    3.4026    1.3296    0.0000 O   0  0  0  0  0  0  0  0  0  0  0  0
    4.6844    3.0874    0.0000 O   0  0  0  0  0  0  0  0  0  0  0  0
    7.6651    2.0032    0.0000 O   0  0  0  0  0  0  0  0  0  0  0  0
    4.6783   -0.4327    0.0000 N   0  0  0  0  0  0  0  0  0  0  0  0
    4.6783   -2.0422    0.0000 N   0  0  0  0  0  0  0  0  0  0  0  0
    2.8660   -0.2375    0.0000 N   0  0  0  0  0  0  0  0  0  0  0  0
    2.0000   -1.7374    0.0000 N   0  0  0  0  0  0  0  0  0  0  0  0
    2.8660   -3.2374    0.0000 N   0  0  0  0  0  0  0  0  0  0  0  0
    4.9889    0.5178    0.0000 C   0  0  1  0  0  0  0  0  0  0  0  0
    4.4026    1.3278    0.0000 C   0  0  1  0  0  0  0  0  0  0  0  0
    4.9917    2.1358    0.0000 C   0  0  1  0  0  0  0  0  0  0  0  0
    5.9422    1.8252    0.0000 C   0  0  1  0  0  0  0  0  0  0  0  0
    3.7320   -0.7375    0.0000 C   0  0  0  0  0  0  0  0  0  0  0  0
    6.7523    2.4116    0.0000 C   0  0  0  0  0  0  0  0  0  0  0  0
    5.2619   -1.2374    0.0000 C   0  0  0  0  0  0  0  0  0  0  0  0
    3.7320   -1.7374    0.0000 C   0  0  0  0  0  0  0  0  0  0  0  0
    2.8660   -2.2374    0.0000 C   0  0  0  0  0  0  0  0  0  0  0  0
    2.0000   -0.7375    0.0000 C   0  0  0  0  0  0  0  0  0  0  0  0
    5.4266    0.0786    0.0000 H   0  0  0  0  0  0  0  0  0  0  0  0
    4.1220    1.8807    0.0000 H   0  0  0  0  0  0  0  0  0  0  0  0
    5.4309    2.5735    0.0000 H   0  0  0  0  0  0  0  0  0  0  0  0
    6.4942    1.5427    0.0000 H   0  0  0  0  0  0  0  0  0  0  0  0
    6.6886    3.0283    0.0000 H   0  0  0  0  0  0  0  0  0  0  0  0
    5.8819   -1.2374    0.0000 H   0  0  0  0  0  0  0  0  0  0  0  0
    3.0935    1.8670    0.0000 H   0  0  0  0  0  0  0  0  0  0  0  0
    5.1000    3.5474    0.0000 H   0  0  0  0  0  0  0  0  0  0  0  0
    1.4631   -0.4275    0.0000 H   0  0  0  0  0  0  0  0  0  0  0  0
    2.3291   -3.5474    0.0000 H   0  0  0  0  0  0  0  0  0  0  0  0
    3.4030   -3.5474    0.0000 H   0  0  0  0  0  0  0  0  0  0  0  0
  1 10  1  0  0  0  0
  1 13  1  0  0  0  0
 11  2  1  6  0  0  0
  2 26  1  0  0  0  0
 12  3  1  6  0  0  0
  3 27  1  0  0  0  0
  4 15  2  0  0  0  0
 10  5  1  1  0  0  0
  5 14  1  0  0  0  0
  5 16  1  0  0  0  0
  6 16  2  0  0  0  0
  6 17  1  0  0  0  0
  7 14  1  0  0  0  0
  7 19  2  0  0  0  0
  8 18  2  0  0  0  0
  8 19  1  0  0  0  0
  9 18  1  0  0  0  0
  9 29  1  0  0  0  0
  9 30  1  0  0  0  0
 10 11  1  0  0  0  0
 10 20  1  0  0  0  0
 11 12  1  0  0  0  0
 11 21  1  0  0  0  0
 12 13  1  0  0  0  0
 12 22  1  0  0  0  0
 13 15  1  1  0  0  0
 13 23  1  0  0  0  0
 14 17  2  0  0  0  0
 15 24  1  0  0  0  0
 16 25  1  0  0  0  0
 17 18  1  0  0  0  0
 19 28  1  0  0  0  0
M  END
> <PUBCHEM_COMPOUND_CID>
443234

> <PUBCHEM_COMPOUND_CANONICALIZED>
1

> <PUBCHEM_CACTVS_COMPLEXITY>
359

> <PUBCHEM_CACTVS_HBOND_ACCEPTOR>
8

> <PUBCHEM_CACTVS_HBOND_DONOR>
3

> <PUBCHEM_CACTVS_ROTATABLE_BOND>
2

> <PUBCHEM_CACTVS_SUBSKEYS>
AAADccBzuAAAAAAAAAAAAAAAAAAAAWJAAAAsAAAAAAAAAFgB+AAAHgAQCAAACBzhlwYF8L9MFgCoAQ5x5AKAgC0REKABUCFoVBCDWBZAyEQeRAgPIALTACC6BQAAAAAAAAAAAAAAAAAAAAAAAAAAAAAAAA==

> <PUBCHEM_IUPAC_OPENEYE_NAME>
(2S,3S,4R,5R)-5-(6-aminopurin-9-yl)-3,4-dihydroxy-tetrahydrofuran-2-carbaldehyde

> <PUBCHEM_IUPAC_CAS_NAME>
(2S,3S,4R,5R)-5-(6-aminopurin-9-yl)-3,4-dihydroxy-2-oxolanecarboxaldehyde

> <PUBCHEM_IUPAC_NAME>
(2S,3S,4R,5R)-5-(6-aminopurin-9-yl)-3,4-dihydroxyoxolane-2-carbaldehyde

> <PUBCHEM_IUPAC_SYSTEMATIC_NAME>
(2S,3S,4R,5R)-5-(6-aminopurin-9-yl)-3,4-bis(oxidanyl)oxolane-2-carbaldehyde

> <PUBCHEM_IUPAC_TRADITIONAL_NAME>
(2S,3S,4R,5R)-5-adenin-9-yl-3,4-dihydroxy-tetrahydrofuran-2-carbaldehyde

> <PUBCHEM_IUPAC_INCHI>
InChI=1S/C10H11N5O4/c11-8-5-9(13-2-12-8)15(3-14-5)10-7(18)6(17)4(1-16)19-10/h1-4,6-7,10,17-18H,(H2,11,12,13)/t4-,6-,7-,10-/m1/s1

> <PUBCHEM_IUPAC_INCHIKEY>
CWNMDMYGRVHXDR-KQYNXXCUSA-N

> <PUBCHEM_XLOGP3>
-0.9

> <PUBCHEM_EXACT_MASS>
265.081104

> <PUBCHEM_MOLECULAR_FORMULA>
C10H11N5O4

> <PUBCHEM_MOLECULAR_WEIGHT>
265.22544

> <PUBCHEM_OPENEYE_CAN_SMILES>
C1=NC2=C(C(=N1)N)N=CN2C3C(C(C(O3)C=O)O)O

> <PUBCHEM_OPENEYE_ISO_SMILES>
C1=NC2=C(C(=N1)N)N=CN2[C@H]3[C@@H]([C@@H]([C@H](O3)C=O)O)O

> <PUBCHEM_CACTVS_TPSA>
136

> <PUBCHEM_MONOISOTOPIC_WEIGHT>
265.081104

> <PUBCHEM_TOTAL_CHARGE>
0

> <PUBCHEM_HEAVY_ATOM_COUNT>
19

> <PUBCHEM_ATOM_DEF_STEREO_COUNT>
4

> <PUBCHEM_ATOM_UDEF_STEREO_COUNT>
0

> <PUBCHEM_BOND_DEF_STEREO_COUNT>
0

> <PUBCHEM_BOND_UDEF_STEREO_COUNT>
0

> <PUBCHEM_ISOTOPIC_ATOM_COUNT>
0

> <PUBCHEM_COMPONENT_COUNT>
1

> <PUBCHEM_CACTVS_TAUTO_COUNT>
6

> <PUBCHEM_COORDINATE_TYPE>
1
5
255

> <PUBCHEM_BONDANNOTATIONS>
13  15  5
14  17  8
17  18  8
11  2  6
12  3  6
10  5  5
5  14  8
5  16  8
6  16  8
6  17  8
7  14  8
7  19  8
8  18  8
8  19  8

$$$$

