164980
  -OEChem-07051212542D

 27 26  0     1  0  0  0  0  0999 V2000
    6.0010   -1.2500    0.0000 O   0  0  0  0  0  0  0  0  0  0  0  0
    9.4651   -0.2500    0.0000 O   0  0  0  0  0  0  0  0  0  0  0  0
    8.5991    1.2500    0.0000 O   0  0  0  0  0  0  0  0  0  0  0  0
    7.7331   -1.2500    0.0000 N   0  0  0  0  0  0  0  0  0  0  0  0
    4.2690   -0.2500    0.0000 N   0  0  0  0  0  0  0  0  0  0  0  0
    2.5369   -0.2500    0.0000 N   0  0  0  0  0  0  0  0  0  0  0  0
    3.4030    1.2500    0.0000 N   0  0  0  0  0  0  0  0  0  0  0  0
    6.8671    0.2500    0.0000 C   0  0  0  0  0  0  0  0  0  0  0  0
    6.0010   -0.2500    0.0000 C   0  0  3  0  0  0  0  0  0  0  0  0
    7.7331   -0.2500    0.0000 C   0  0  1  0  0  0  0  0  0  0  0  0
    5.1350    0.2500    0.0000 C   0  0  0  0  0  0  0  0  0  0  0  0
    8.5991    0.2500    0.0000 C   0  0  0  0  0  0  0  0  0  0  0  0
    3.4030    0.2500    0.0000 C   0  0  0  0  0  0  0  0  0  0  0  0
    7.2656    0.7249    0.0000 H   0  0  0  0  0  0  0  0  0  0  0  0
    6.4685    0.7249    0.0000 H   0  0  0  0  0  0  0  0  0  0  0  0
    6.5380   -0.5600    0.0000 H   0  0  0  0  0  0  0  0  0  0  0  0
    8.2700   -0.5600    0.0000 H   0  0  0  0  0  0  0  0  0  0  0  0
    5.5335    0.7249    0.0000 H   0  0  0  0  0  0  0  0  0  0  0  0
    4.7365    0.7249    0.0000 H   0  0  0  0  0  0  0  0  0  0  0  0
    7.1962   -1.5600    0.0000 H   0  0  0  0  0  0  0  0  0  0  0  0
    8.2700   -1.5600    0.0000 H   0  0  0  0  0  0  0  0  0  0  0  0
    5.4641   -1.5600    0.0000 H   0  0  0  0  0  0  0  0  0  0  0  0
   10.0021    0.0600    0.0000 H   0  0  0  0  0  0  0  0  0  0  0  0
    2.0000    0.0600    0.0000 H   0  0  0  0  0  0  0  0  0  0  0  0
    2.5369   -0.8700    0.0000 H   0  0  0  0  0  0  0  0  0  0  0  0
    2.8660    1.5600    0.0000 H   0  0  0  0  0  0  0  0  0  0  0  0
    3.9399    1.5600    0.0000 H   0  0  0  0  0  0  0  0  0  0  0  0
  1  9  1  0  0  0  0
  1 22  1  0  0  0  0
  2 12  1  0  0  0  0
  2 23  1  0  0  0  0
  3 12  2  0  0  0  0
 10  4  1  1  0  0  0
  4 20  1  0  0  0  0
  4 21  1  0  0  0  0
  5 11  1  0  0  0  0
  5 13  2  0  0  0  0
  6 13  1  0  0  0  0
  6 24  1  0  0  0  0
  6 25  1  0  0  0  0
  7 13  1  0  0  0  0
  7 26  1  0  0  0  0
  7 27  1  0  0  0  0
  8  9  1  0  0  0  0
  8 10  1  0  0  0  0
  8 14  1  0  0  0  0
  8 15  1  0  0  0  0
  9 11  1  0  0  0  0
  9 16  1  0  0  0  0
 10 12  1  0  0  0  0
 10 17  1  0  0  0  0
 11 18  1  0  0  0  0
 11 19  1  0  0  0  0
M  END
> <PUBCHEM_COMPOUND_CID>
164980

> <PUBCHEM_COMPOUND_CANONICALIZED>
1

> <PUBCHEM_CACTVS_COMPLEXITY>
202

> <PUBCHEM_CACTVS_HBOND_ACCEPTOR>
5

> <PUBCHEM_CACTVS_HBOND_DONOR>
5

> <PUBCHEM_CACTVS_ROTATABLE_BOND>
5

> <PUBCHEM_CACTVS_SUBSKEYS>
AAADccBjsAAAAAAAAAAAAAAAAAAAAAAAAAAAAAAAAAAAAAAAAAAAHgAQCAAACDzhgAYBCAJAAgAoAACQLAAAAAEAAAAAAIGAAAACEBIAgAAAQAAGEAAAAADaEQAAAAAAAAAAAAAAAAAAAAAAAAAAAAAAAA==

> <PUBCHEM_IUPAC_OPENEYE_NAME>
(2S)-2-amino-5-guanidino-4-hydroxy-pentanoic acid

> <PUBCHEM_IUPAC_CAS_NAME>
(2S)-2-amino-5-(diaminomethylideneamino)-4-hydroxypentanoic acid

> <PUBCHEM_IUPAC_NAME>
(2S)-2-amino-5-(diaminomethylideneamino)-4-hydroxypentanoic acid

> <PUBCHEM_IUPAC_SYSTEMATIC_NAME>
(2S)-2-azanyl-5-[bis(azanyl)methylideneamino]-4-oxidanyl-pentanoic acid

> <PUBCHEM_IUPAC_TRADITIONAL_NAME>
(2S)-2-amino-5-guanidino-4-hydroxy-valeric acid

> <PUBCHEM_IUPAC_INCHI>
InChI=1S/C6H14N4O3/c7-4(5(12)13)1-3(11)2-10-6(8)9/h3-4,11H,1-2,7H2,(H,12,13)(H4,8,9,10)/t3?,4-/m0/s1

> <PUBCHEM_IUPAC_INCHIKEY>
OPCBKDJCJYBGTQ-BKLSDQPFSA-N

> <PUBCHEM_XLOGP3_AA>
-5.2

> <PUBCHEM_EXACT_MASS>
190.10659

> <PUBCHEM_MOLECULAR_FORMULA>
C6H14N4O3

> <PUBCHEM_MOLECULAR_WEIGHT>
190.20036

> <PUBCHEM_OPENEYE_CAN_SMILES>
C(C(CN=C(N)N)O)C(C(=O)O)N

> <PUBCHEM_OPENEYE_ISO_SMILES>
C([C@@H](C(=O)O)N)C(CN=C(N)N)O

> <PUBCHEM_CACTVS_TPSA>
148

> <PUBCHEM_MONOISOTOPIC_WEIGHT>
190.10659

> <PUBCHEM_TOTAL_CHARGE>
0

> <PUBCHEM_HEAVY_ATOM_COUNT>
13

> <PUBCHEM_ATOM_DEF_STEREO_COUNT>
1

> <PUBCHEM_ATOM_UDEF_STEREO_COUNT>
1

> <PUBCHEM_BOND_DEF_STEREO_COUNT>
0

> <PUBCHEM_BOND_UDEF_STEREO_COUNT>
0

> <PUBCHEM_ISOTOPIC_ATOM_COUNT>
0

> <PUBCHEM_COMPONENT_COUNT>
1

> <PUBCHEM_CACTVS_TAUTO_COUNT>
2

> <PUBCHEM_COORDINATE_TYPE>
1
5
255

> <PUBCHEM_BONDANNOTATIONS>
9  1  3
10  4  5

$$$$

