586133
  -OEChem-06241222453D

 47 49  0     1  0  0  0  0  0999 V2000
    0.6199   -3.9752    0.6942 Cl  0  0  0  0  0  0  0  0  0  0  0  0
    1.1894    3.7080    1.2226 O   0  0  0  0  0  0  0  0  0  0  0  0
   -2.2462    1.7872    1.3034 O   0  0  0  0  0  0  0  0  0  0  0  0
    5.2687   -1.3129    0.1581 O   0  0  0  0  0  0  0  0  0  0  0  0
    0.7450    1.9285   -0.2991 N   0  0  0  0  0  0  0  0  0  0  0  0
   -3.4385    1.1860   -0.6035 N   0  0  0  0  0  0  0  0  0  0  0  0
   -1.4675    2.5294   -0.8291 C   0  0  2  0  0  0  0  0  0  0  0  0
   -0.3123    1.6427   -1.2515 C   0  0  0  0  0  0  0  0  0  0  0  0
   -0.8123    3.6888   -0.0997 C   0  0  0  0  0  0  0  0  0  0  0  0
    0.5018    3.1263    0.3953 C   0  0  0  0  0  0  0  0  0  0  0  0
   -2.4135    1.8099    0.0868 C   0  0  0  0  0  0  0  0  0  0  0  0
    1.9020    1.0999   -0.1826 C   0  0  0  0  0  0  0  0  0  0  0  0
   -4.4688    0.4074    0.0449 C   0  0  0  0  0  0  0  0  0  0  0  0
    2.0079   -0.0699   -0.9399 C   0  0  0  0  0  0  0  0  0  0  0  0
    2.9350    1.4540    0.6895 C   0  0  0  0  0  0  0  0  0  0  0  0
   -4.4948   -1.0428   -0.4319 C   0  0  0  0  0  0  0  0  0  0  0  0
    3.1380   -0.8795   -0.8258 C   0  0  0  0  0  0  0  0  0  0  0  0
    4.0651    0.6445    0.8035 C   0  0  0  0  0  0  0  0  0  0  0  0
   -3.2083   -1.7788   -0.1483 C   0  0  0  0  0  0  0  0  0  0  0  0
    4.1667   -0.5222    0.0458 C   0  0  0  0  0  0  0  0  0  0  0  0
   -2.1952   -1.7665   -1.0942 C   0  0  0  0  0  0  0  0  0  0  0  0
   -3.0628   -2.4554    1.0529 C   0  0  0  0  0  0  0  0  0  0  0  0
   -1.0066   -2.4481   -0.8323 C   0  0  0  0  0  0  0  0  0  0  0  0
   -1.8742   -3.1368    1.3145 C   0  0  0  0  0  0  0  0  0  0  0  0
   -0.8461   -3.1332    0.3720 C   0  0  0  0  0  0  0  0  0  0  0  0
    5.3074   -2.4912   -0.6457 C   0  0  0  0  0  0  0  0  0  0  0  0
   -2.0275    2.8932   -1.6987 H   0  0  0  0  0  0  0  0  0  0  0  0
   -0.5926    0.5889   -1.2276 H   0  0  0  0  0  0  0  0  0  0  0  0
    0.0478    1.9142   -2.2503 H   0  0  0  0  0  0  0  0  0  0  0  0
   -0.5810    4.5027   -0.7960 H   0  0  0  0  0  0  0  0  0  0  0  0
   -1.3984    4.0880    0.7329 H   0  0  0  0  0  0  0  0  0  0  0  0
   -3.4962    1.2890   -1.6124 H   0  0  0  0  0  0  0  0  0  0  0  0
   -5.4237    0.8869   -0.1953 H   0  0  0  0  0  0  0  0  0  0  0  0
   -4.3400    0.4514    1.1320 H   0  0  0  0  0  0  0  0  0  0  0  0
    1.2450   -0.3784   -1.6464 H   0  0  0  0  0  0  0  0  0  0  0  0
    2.9238    2.3421    1.3063 H   0  0  0  0  0  0  0  0  0  0  0  0
   -4.6992   -1.0766   -1.5102 H   0  0  0  0  0  0  0  0  0  0  0  0
   -5.3319   -1.5685    0.0446 H   0  0  0  0  0  0  0  0  0  0  0  0
    3.1538   -1.7695   -1.4457 H   0  0  0  0  0  0  0  0  0  0  0  0
    4.8638    0.9267    1.4842 H   0  0  0  0  0  0  0  0  0  0  0  0
   -2.3113   -1.2413   -2.0379 H   0  0  0  0  0  0  0  0  0  0  0  0
   -3.8572   -2.4622    1.7937 H   0  0  0  0  0  0  0  0  0  0  0  0
   -0.2172   -2.4433   -1.5791 H   0  0  0  0  0  0  0  0  0  0  0  0
   -1.7630   -3.6660    2.2575 H   0  0  0  0  0  0  0  0  0  0  0  0
    6.2527   -2.9995   -0.4290 H   0  0  0  0  0  0  0  0  0  0  0  0
    4.5029   -3.1857   -0.3805 H   0  0  0  0  0  0  0  0  0  0  0  0
    5.3118   -2.2495   -1.7140 H   0  0  0  0  0  0  0  0  0  0  0  0
  1 25  1  0  0  0  0
  2 10  2  0  0  0  0
  3 11  2  0  0  0  0
  4 20  1  0  0  0  0
  4 26  1  0  0  0  0
  5  8  1  0  0  0  0
  5 10  1  0  0  0  0
  5 12  1  0  0  0  0
  6 11  1  0  0  0  0
  6 13  1  0  0  0  0
  6 32  1  0  0  0  0
  7  8  1  0  0  0  0
  7  9  1  0  0  0  0
  7 11  1  0  0  0  0
  7 27  1  0  0  0  0
  8 28  1  0  0  0  0
  8 29  1  0  0  0  0
  9 10  1  0  0  0  0
  9 30  1  0  0  0  0
  9 31  1  0  0  0  0
 12 14  2  0  0  0  0
 12 15  1  0  0  0  0
 13 16  1  0  0  0  0
 13 33  1  0  0  0  0
 13 34  1  0  0  0  0
 14 17  1  0  0  0  0
 14 35  1  0  0  0  0
 15 18  2  0  0  0  0
 15 36  1  0  0  0  0
 16 19  1  0  0  0  0
 16 37  1  0  0  0  0
 16 38  1  0  0  0  0
 17 20  2  0  0  0  0
 17 39  1  0  0  0  0
 18 20  1  0  0  0  0
 18 40  1  0  0  0  0
 19 21  2  0  0  0  0
 19 22  1  0  0  0  0
 21 23  1  0  0  0  0
 21 41  1  0  0  0  0
 22 24  2  0  0  0  0
 22 42  1  0  0  0  0
 23 25  2  0  0  0  0
 23 43  1  0  0  0  0
 24 25  1  0  0  0  0
 24 44  1  0  0  0  0
 26 45  1  0  0  0  0
 26 46  1  0  0  0  0
 26 47  1  0  0  0  0
M  END
> <PUBCHEM_COMPOUND_CID>
586133

> <PUBCHEM_CONFORMER_RMSD>
0.8

> <PUBCHEM_CONFORMER_DIVERSEORDER>
1
109
161
226
61
44
136
107
190
196
275
217
39
17
9
272
43
263
21
240
273
24
247
165
153
262
178
23
54
94
111
184
155
265
2
35
213
119
20
53
204
248
227
199
123
19
168
216
242
133
110
78
147
244
149
41
104
277
202
14
259
203
83
59
100
121
260
65
150
36
112
127
167
276
126
274
64
88
95
231
106
5
230
87
235
249
210
27
135
57
188
84
254
174
81
52
45
102
175
85
233
140
42
69
166
71
177
186
134
30
267
137
22
220
11
138
92
130
158
46
72
221
63
146
245
191
91
122
129
194
28
34
154
148
238
37
197
73
163
89
139
132
108
179
128
205
256
183
209
180
159
207
252
113
214
181
211
156
90
182
50
66
176
239
219
12
13
18
15
234
151
48
223
80
131
243
29
7
187
208
258
98
117
162
68
229
264
141
246
3
195
115
38
55
51
270
193
261
224
142
206
124
97
145
222
26
157
171
125
225
200
114
143
228
152
96
160
173
25
16
118
251
10
120
169
82
236
32
212
99
56
268
58
101
253
93
170
241
70
192
62
116
60
201
33
77
257
198
4
172
266
31
67
144
6
237
271
79
218
269
47
76
164
75
40
250
185
8
103
86
215
49
255
189
232
74
105

> <PUBCHEM_MMFF94_PARTIAL_CHARGES>
35
1 -0.18
10 0.57
11 0.57
12 0.12
13 0.3
14 -0.15
15 -0.15
16 0.14
17 -0.15
18 -0.15
19 -0.14
2 -0.57
20 0.08
21 -0.15
22 -0.15
23 -0.15
24 -0.15
25 0.18
26 0.28
3 -0.57
32 0.37
35 0.15
36 0.15
39 0.15
4 -0.36
40 0.15
41 0.15
42 0.15
43 0.15
44 0.15
5 -0.48
6 -0.73
7 0.06
8 0.3
9 0.06

> <PUBCHEM_EFFECTIVE_ROTOR_COUNT>
7.8

> <PUBCHEM_PHARMACOPHORE_FEATURES>
7
1 2 acceptor
1 3 acceptor
1 4 acceptor
1 6 donor
5 5 7 8 9 10 rings
6 12 14 15 17 18 20 rings
6 19 21 22 23 24 25 rings

> <PUBCHEM_HEAVY_ATOM_COUNT>
26

> <PUBCHEM_ATOM_DEF_STEREO_COUNT>
0

> <PUBCHEM_ATOM_UDEF_STEREO_COUNT>
1

> <PUBCHEM_BOND_DEF_STEREO_COUNT>
0

> <PUBCHEM_BOND_UDEF_STEREO_COUNT>
0

> <PUBCHEM_ISOTOPIC_ATOM_COUNT>
0

> <PUBCHEM_COMPONENT_COUNT>
1

> <PUBCHEM_CACTVS_TAUTO_COUNT>
4

> <PUBCHEM_CONFORMER_ID>
0008F19500000001

> <PUBCHEM_MMFF94_ENERGY>
74.3272

> <PUBCHEM_FEATURE_SELFOVERLAP>
35.52

> <PUBCHEM_SHAPE_FINGERPRINT>
10006869 2 18049448338222042655
10693767 8 17682984098009190807
1100329 8 18410570682796536101
12422481 6 18192967432118855899
12553582 1 18122056494873413758
12633257 1 18188195576690966129
12645989 146 18260550021847436598
12788726 201 18412819210204227750
13122387 1 18050852418179968499
13140716 1 18410004442449864084
13402501 40 18408604785617254239
14251740 79 18337388374136301266
14251757 5 18341877585929237534
144659 178 18268981163482496812
14725015 67 18341056212125649091
15420108 30 17681828846211099761
15927050 60 17688032329153297421
16112460 7 18262784220889995209
17093844 170 18411422816929148814
17627616 140 17767686427157210298
19591789 44 18338801246562078118
19930381 70 17331681250172100611
20775438 99 16890929928425230399
20905425 154 18120934172922566959
23559900 14 18194126204893615153
24893992 56 18343303657612467071
3027735 51 18269566094640955023
3298306 158 18198076952778930477
4403749 210 16894578073403989201
56633871 153 18336256839507172947
6138700 20 18411703218686437567
6433294 58 18195246620443257600
9709674 26 18122347878640427839

> <PUBCHEM_SHAPE_MULTIPOLES>
509.37
8.74
5.46
1.16
6.13
0.04
0.06
-4.6
-0.22
-0.87
1.24
-0.13
-0.09
1.08

> <PUBCHEM_SHAPE_SELFOVERLAP>
1079.397

> <PUBCHEM_SHAPE_VOLUME>
286.8

> <PUBCHEM_COORDINATE_TYPE>
2
5
10

$$$$

