5281664
  -OEChem-07051212583D

 48 51  0     1  0  0  0  0  0999 V2000
    3.0658    0.1135    0.6852 O   0  0  0  0  0  0  0  0  0  0  0  0
    2.2220    1.0532   -1.2766 O   0  0  0  0  0  0  0  0  0  0  0  0
    6.7056   -0.6108   -1.0736 O   0  0  0  0  0  0  0  0  0  0  0  0
    5.9980   -1.9687    1.3782 O   0  0  0  0  0  0  0  0  0  0  0  0
    4.3137   -0.1715   -2.7369 O   0  0  0  0  0  0  0  0  0  0  0  0
    2.3323   -0.8314    3.1603 O   0  0  0  0  0  0  0  0  0  0  0  0
   -2.0581   -0.9393   -0.9070 O   0  0  0  0  0  0  0  0  0  0  0  0
    1.3169    3.3404    0.0137 O   0  0  0  0  0  0  0  0  0  0  0  0
   -3.5503    2.3562    1.0049 O   0  0  0  0  0  0  0  0  0  0  0  0
   -5.9046    1.1850    1.1715 O   0  0  0  0  0  0  0  0  0  0  0  0
   -6.2337   -3.1742   -0.6803 O   0  0  0  0  0  0  0  0  0  0  0  0
    5.3627   -0.9184   -0.6961 C   0  0  1  0  0  0  0  0  0  0  0  0
    5.2772   -0.8684    0.8295 C   0  0  1  0  0  0  0  0  0  0  0  0
    4.4099    0.0908   -1.3372 C   0  0  2  0  0  0  0  0  0  0  0  0
    3.8205   -0.9356    1.2942 C   0  0  1  0  0  0  0  0  0  0  0  0
    3.0087   -0.0069   -0.7342 C   0  0  1  0  0  0  0  0  0  0  0  0
    3.7018   -0.7697    2.8060 C   0  0  0  0  0  0  0  0  0  0  0  0
    0.9296    1.1435   -0.8546 C   0  0  0  0  0  0  0  0  0  0  0  0
    0.0607    0.0746   -1.0769 C   0  0  0  0  0  0  0  0  0  0  0  0
    0.4747    2.2922   -0.2068 C   0  0  0  0  0  0  0  0  0  0  0  0
   -1.2668    0.1533   -0.6511 C   0  0  0  0  0  0  0  0  0  0  0  0
   -1.7168    1.3038   -0.0040 C   0  0  0  0  0  0  0  0  0  0  0  0
   -0.8503    2.3767    0.2212 C   0  0  0  0  0  0  0  0  0  0  0  0
   -3.1192    1.3644    0.4356 C   0  0  0  0  0  0  0  0  0  0  0  0
   -3.9502    0.1844    0.1517 C   0  0  0  0  0  0  0  0  0  0  0  0
   -3.3704   -0.9011   -0.5044 C   0  0  0  0  0  0  0  0  0  0  0  0
   -5.2948    0.1493    0.5307 C   0  0  0  0  0  0  0  0  0  0  0  0
   -4.1411   -2.0314   -0.7840 C   0  0  0  0  0  0  0  0  0  0  0  0
   -6.0596   -0.9827    0.2485 C   0  0  0  0  0  0  0  0  0  0  0  0
   -5.4841   -2.0712   -0.4075 C   0  0  0  0  0  0  0  0  0  0  0  0
    5.1605   -1.9304   -1.0684 H   0  0  0  0  0  0  0  0  0  0  0  0
    5.7554    0.0501    1.1913 H   0  0  0  0  0  0  0  0  0  0  0  0
    4.8065    1.1076   -1.2315 H   0  0  0  0  0  0  0  0  0  0  0  0
    3.3634   -1.8968    1.0219 H   0  0  0  0  0  0  0  0  0  0  0  0
    2.5580   -0.9698   -1.0082 H   0  0  0  0  0  0  0  0  0  0  0  0
    4.0882    0.2010    3.1342 H   0  0  0  0  0  0  0  0  0  0  0  0
    4.2328   -1.5607    3.3434 H   0  0  0  0  0  0  0  0  0  0  0  0
    7.2857   -1.2601   -0.6403 H   0  0  0  0  0  0  0  0  0  0  0  0
    5.5763   -2.7884    1.0685 H   0  0  0  0  0  0  0  0  0  0  0  0
    3.9646   -1.0717   -2.8521 H   0  0  0  0  0  0  0  0  0  0  0  0
    1.8697   -0.1295    2.6711 H   0  0  0  0  0  0  0  0  0  0  0  0
    0.4001   -0.8173   -1.5974 H   0  0  0  0  0  0  0  0  0  0  0  0
   -1.1991    3.2742    0.7254 H   0  0  0  0  0  0  0  0  0  0  0  0
   -3.6968   -2.8821   -1.2950 H   0  0  0  0  0  0  0  0  0  0  0  0
    0.8314    4.0467    0.4734 H   0  0  0  0  0  0  0  0  0  0  0  0
   -7.1062   -1.0118    0.5426 H   0  0  0  0  0  0  0  0  0  0  0  0
   -5.2789    1.9119    1.3130 H   0  0  0  0  0  0  0  0  0  0  0  0
   -7.1375   -3.0308   -0.3507 H   0  0  0  0  0  0  0  0  0  0  0  0
  1 15  1  0  0  0  0
  1 16  1  0  0  0  0
  2 16  1  0  0  0  0
  2 18  1  0  0  0  0
  3 12  1  0  0  0  0
  3 38  1  0  0  0  0
  4 13  1  0  0  0  0
  4 39  1  0  0  0  0
  5 14  1  0  0  0  0
  5 40  1  0  0  0  0
  6 17  1  0  0  0  0
  6 41  1  0  0  0  0
  7 21  1  0  0  0  0
  7 26  1  0  0  0  0
  8 20  1  0  0  0  0
  8 45  1  0  0  0  0
  9 24  2  0  0  0  0
 10 27  1  0  0  0  0
 10 47  1  0  0  0  0
 11 30  1  0  0  0  0
 11 48  1  0  0  0  0
 12 13  1  0  0  0  0
 12 14  1  0  0  0  0
 12 31  1  0  0  0  0
 13 15  1  0  0  0  0
 13 32  1  0  0  0  0
 14 16  1  0  0  0  0
 14 33  1  0  0  0  0
 15 17  1  0  0  0  0
 15 34  1  0  0  0  0
 16 35  1  0  0  0  0
 17 36  1  0  0  0  0
 17 37  1  0  0  0  0
 18 19  1  0  0  0  0
 18 20  2  0  0  0  0
 19 21  2  0  0  0  0
 19 42  1  0  0  0  0
 20 23  1  0  0  0  0
 21 22  1  0  0  0  0
 22 23  2  0  0  0  0
 22 24  1  0  0  0  0
 23 43  1  0  0  0  0
 24 25  1  0  0  0  0
 25 26  1  0  0  0  0
 25 27  2  0  0  0  0
 26 28  2  0  0  0  0
 27 29  1  0  0  0  0
 28 30  1  0  0  0  0
 28 44  1  0  0  0  0
 29 30  2  0  0  0  0
 29 46  1  0  0  0  0
M  END
> <PUBCHEM_COMPOUND_CID>
5281664

> <PUBCHEM_CONFORMER_RMSD>
0.8

> <PUBCHEM_CONFORMER_DIVERSEORDER>
1
10
64
74
44
67
73
9
11
59
21
40
58
45
6
72
31
62
69
68
38
54
12
57
32
43
8
48
34
75
42
71
3
70
2
19
61
60
30
65
51
33
26
7
50
4
29
36
14
5
53
56
27
55
28
49
23
46
66
39
20
41
18
24
63
37
22
47
16
17
25
35
15
13
52

> <PUBCHEM_MMFF94_PARTIAL_CHARGES>
41
1 -0.56
10 -0.53
11 -0.53
12 0.28
13 0.28
14 0.28
15 0.28
16 0.56
17 0.28
18 0.08
19 -0.15
2 -0.36
20 0.08
21 0.08
22 0.09
23 -0.15
24 0.4
25 0.09
26 0.08
27 0.08
28 -0.15
29 -0.15
3 -0.68
30 0.08
38 0.4
39 0.4
4 -0.68
40 0.4
41 0.4
42 0.15
43 0.15
44 0.15
45 0.45
46 0.15
47 0.45
48 0.45
5 -0.68
6 -0.68
7 -0.17
8 -0.53
9 -0.57

> <PUBCHEM_EFFECTIVE_ROTOR_COUNT>
4.2

> <PUBCHEM_PHARMACOPHORE_FEATURES>
19
1 1 acceptor
1 10 donor
1 11 donor
1 2 acceptor
1 3 acceptor
1 3 donor
1 4 acceptor
1 4 donor
1 5 acceptor
1 5 donor
1 6 acceptor
1 6 donor
1 7 acceptor
1 8 donor
1 9 acceptor
6 1 12 13 14 15 16 rings
6 18 19 20 21 22 23 rings
6 25 26 27 28 29 30 rings
6 7 21 22 24 25 26 rings

> <PUBCHEM_HEAVY_ATOM_COUNT>
30

> <PUBCHEM_ATOM_DEF_STEREO_COUNT>
5

> <PUBCHEM_ATOM_UDEF_STEREO_COUNT>
0

> <PUBCHEM_BOND_DEF_STEREO_COUNT>
0

> <PUBCHEM_BOND_UDEF_STEREO_COUNT>
0

> <PUBCHEM_ISOTOPIC_ATOM_COUNT>
0

> <PUBCHEM_COMPONENT_COUNT>
1

> <PUBCHEM_CACTVS_TAUTO_COUNT>
36

> <PUBCHEM_CONFORMER_ID>
0050978000000001

> <PUBCHEM_MMFF94_ENERGY>
98.6076

> <PUBCHEM_FEATURE_SELFOVERLAP>
96.532

> <PUBCHEM_SHAPE_FINGERPRINT>
10319926 262 17822010921620513331
10622 236 17201098112607834738
11045977 3 16732985336011817971
11069576 57 17346047778512113698
11545043 162 17676487267401872154
11607047 403 15654685229621029235
11963148 33 17326337628346551583
11991303 11 16698668616485252981
12128747 34 16444459289948281113
12236239 1 18130783481803439116
12422481 6 17313099735790627245
12553582 1 18412554218557183532
12596602 18 18410579470009584320
12788726 201 18199744902590152441
13540713 5 18191566602650072469
13583140 156 16226048928688950293
13782708 43 17313387837490750214
13911987 19 15696560383383312494
14705955 166 17240765120335341083
15001296 14 18200879448344958178
15183329 4 15841558491753879773
15188451 53 18041005007922522079
15348495 7 16660368039111183759
15537594 2 18059853982437532883
15721738 202 17821723897973733784
15927050 60 17686620139389196852
17134984 74 16917071001441318123
17138139 8 17916868993700043018
17349148 13 18342453729805641263
17492 89 18046904880053787975
17857418 61 18272650151404656663
1813 80 18130797728168223229
19319366 153 17418098689818221386
19841028 212 18121502350600961863
20028762 73 18115025204209460711
21033648 29 16877949377065823657
22061861 79 15698281118168274895
23522609 53 18055602158326223509
23559900 14 18113894936325749285
23569914 152 14544572432494020451
2838139 119 6411296818930034499
3004659 81 18342172237343119605
335352 9 18334004000785805397
3383291 50 18337951182578205323
3411729 13 18044097856859559032
345986 75 18058746812825345088
3472631 163 9943514224846460318
351380 3 18202003243633286858
3882209 13 16667717020429279607
392239 28 15502376699489678951
397830 11 16226336910704884935
5104073 3 18042112173387605265
559249 180 18410291420207920559
6086070 43 18270979981206807957
7970288 3 18412833498996315418

> <PUBCHEM_SHAPE_MULTIPOLES>
552.82
16.2
2.6
1.91
0.42
0.74
-0.96
-11.03
-0.63
2.62
-0.14
-3.33
-0.61
-2.48

> <PUBCHEM_SHAPE_SELFOVERLAP>
1222.859

> <PUBCHEM_SHAPE_VOLUME>
293

> <PUBCHEM_COORDINATE_TYPE>
2
5
10

$$$$

