4685
  -OEChem-07051212523D

 12 12  0     0  0  0  0  0  0999 V2000
    3.1157    0.0000    0.0001 Cl  0  0  0  0  0  0  0  0  0  0  0  0
   -3.1157    0.0000    0.0000 Cl  0  0  0  0  0  0  0  0  0  0  0  0
    1.3949    0.0000    0.0000 C   0  0  0  0  0  0  0  0  0  0  0  0
   -1.3949    0.0000    0.0000 C   0  0  0  0  0  0  0  0  0  0  0  0
    0.6975    1.2080   -0.0001 C   0  0  0  0  0  0  0  0  0  0  0  0
   -0.6974    1.2079    0.0001 C   0  0  0  0  0  0  0  0  0  0  0  0
    0.6974   -1.2080    0.0000 C   0  0  0  0  0  0  0  0  0  0  0  0
   -0.6975   -1.2079    0.0000 C   0  0  0  0  0  0  0  0  0  0  0  0
    1.2278    2.1569   -0.0001 H   0  0  0  0  0  0  0  0  0  0  0  0
   -1.2277    2.1568    0.0001 H   0  0  0  0  0  0  0  0  0  0  0  0
    1.2277   -2.1569    0.0000 H   0  0  0  0  0  0  0  0  0  0  0  0
   -1.2278   -2.1568    0.0000 H   0  0  0  0  0  0  0  0  0  0  0  0
  1  3  1  0  0  0  0
  2  4  1  0  0  0  0
  3  5  2  0  0  0  0
  3  7  1  0  0  0  0
  4  6  2  0  0  0  0
  4  8  1  0  0  0  0
  5  6  1  0  0  0  0
  5  9  1  0  0  0  0
  6 10  1  0  0  0  0
  7  8  2  0  0  0  0
  7 11  1  0  0  0  0
  8 12  1  0  0  0  0
M  END
> <PUBCHEM_COMPOUND_CID>
4685

> <PUBCHEM_CONFORMER_RMSD>
0.4

> <PUBCHEM_CONFORMER_DIVERSEORDER>
1

> <PUBCHEM_MMFF94_PARTIAL_CHARGES>
12
1 -0.18
10 0.15
11 0.15
12 0.15
2 -0.18
3 0.18
4 0.18
5 -0.15
6 -0.15
7 -0.15
8 -0.15
9 0.15

> <PUBCHEM_EFFECTIVE_ROTOR_COUNT>
0

> <PUBCHEM_PHARMACOPHORE_FEATURES>
1
6 3 4 5 6 7 8 rings

> <PUBCHEM_HEAVY_ATOM_COUNT>
8

> <PUBCHEM_ATOM_DEF_STEREO_COUNT>
0

> <PUBCHEM_ATOM_UDEF_STEREO_COUNT>
0

> <PUBCHEM_BOND_DEF_STEREO_COUNT>
0

> <PUBCHEM_BOND_UDEF_STEREO_COUNT>
0

> <PUBCHEM_ISOTOPIC_ATOM_COUNT>
0

> <PUBCHEM_COMPONENT_COUNT>
1

> <PUBCHEM_CACTVS_TAUTO_COUNT>
1

> <PUBCHEM_CONFORMER_ID>
0000124D00000001

> <PUBCHEM_MMFF94_ENERGY>
14.7576

> <PUBCHEM_FEATURE_SELFOVERLAP>
5.074

> <PUBCHEM_SHAPE_FINGERPRINT>
14325111 11 18410575093258392192
15310529 11 16630537240597985540
16714656 1 18410572885887743262
16945 1 18410856559639789574
193761 8 17617941773589445790
21040471 1 18266459793650510693
21293036 1 18412544292829675332
23235685 24 18410578383198014212
23402655 69 18193576669130362141
23552423 10 18056760919069051284
2748010 2 18122343471560786007
29004967 10 18343577460558716617
5084963 1 18333450941044482721

> <PUBCHEM_SHAPE_MULTIPOLES>
168.38
3.93
1.34
0.63
0
0
0
0
0
0
0
0
0
0

> <PUBCHEM_SHAPE_SELFOVERLAP>
329.916

> <PUBCHEM_SHAPE_VOLUME>
101.4

> <PUBCHEM_COORDINATE_TYPE>
2
5
10

$$$$

