5460449
  -OEChem-07051213072D

 71 73  0     1  0  0  0  0  0999 V2000
    5.8826   -0.3221    0.0000 O   0  0  0  0  0  0  0  0  0  0  0  0
    7.2051    1.8231    0.0000 O   0  0  0  0  0  0  0  0  0  0  0  0
    2.6206    2.9399    0.0000 O   0  0  0  0  0  0  0  0  0  0  0  0
    3.7164   -2.6596    0.0000 O   0  0  0  0  0  0  0  0  0  0  0  0
    7.1073    0.9026    0.0000 O   0  0  0  0  0  0  0  0  0  0  0  0
    7.5991    3.5097    0.0000 O   0  0  0  0  0  0  0  0  0  0  0  0
    2.0000   -2.8923    0.0000 O   0  0  0  0  0  0  0  0  0  0  0  0
    3.3277    0.3850    0.0000 C   0  0  2  0  0  0  0  0  0  0  0  0
    4.2516    0.0023    0.0000 C   0  0  2  0  0  0  0  0  0  0  0  0
    5.5582    1.3089    0.0000 C   0  0  2  0  0  0  0  0  0  0  0  0
    5.1755    2.2327    0.0000 C   0  0  0  0  0  0  0  0  0  0  0  0
    5.1755    0.3850    0.0000 C   0  0  1  0  0  0  0  0  0  0  0  0
    2.9450    1.3089    0.0000 C   0  0  0  0  0  0  0  0  0  0  0  0
    4.2516    2.6154    0.0000 C   0  0  0  0  0  0  0  0  0  0  0  0
    6.2313    2.0506    0.0000 C   0  0  2  0  0  0  0  0  0  0  0  0
    2.4917   -0.2363    0.0000 C   0  0  0  0  0  0  0  0  0  0  0  0
    3.3277    2.2327    0.0000 C   0  0  1  0  0  0  0  0  0  0  0  0
    4.4035   -1.0282    0.0000 C   0  0  0  0  0  0  0  0  0  0  0  0
    2.6197   -1.2700    0.0000 C   0  0  0  0  0  0  0  0  0  0  0  0
    5.9565    3.0137    0.0000 C   0  0  0  0  0  0  0  0  0  0  0  0
    3.5820   -1.6686    0.0000 C   0  0  2  0  0  0  0  0  0  0  0  0
    2.4038    0.7677    0.0000 C   0  0  0  0  0  0  0  0  0  0  0  0
    4.9933    3.2886    0.0000 C   0  0  0  0  0  0  0  0  0  0  0  0
    5.4731    3.3436    0.0000 C   0  0  0  0  0  0  0  0  0  0  0  0
    6.2863    2.5304    0.0000 C   0  0  0  0  0  0  0  0  0  0  0  0
    4.7658    4.2623    0.0000 C   0  0  0  0  0  0  0  0  0  0  0  0
    5.3317   -1.4002    0.0000 C   0  0  0  0  0  0  0  0  0  0  0  0
    6.8485   -0.0633    0.0000 C   0  0  0  0  0  0  0  0  0  0  0  0
    7.8890    2.5526    0.0000 C   0  0  0  0  0  0  0  0  0  0  0  0
    2.9254   -3.2714    0.0000 C   0  0  0  0  0  0  0  0  0  0  0  0
    7.5556   -0.7704    0.0000 C   0  0  0  0  0  0  0  0  0  0  0  0
    8.8628    2.3251    0.0000 C   0  0  0  0  0  0  0  0  0  0  0  0
    3.0597   -4.2623    0.0000 C   0  0  0  0  0  0  0  0  0  0  0  0
    5.0369   -0.3230    0.0000 H   0  0  0  0  0  0  0  0  0  0  0  0
    5.8834    0.5236    0.0000 H   0  0  0  0  0  0  0  0  0  0  0  0
    5.7836    0.5059    0.0000 H   0  0  0  0  0  0  0  0  0  0  0  0
    2.4532    1.6863    0.0000 H   0  0  0  0  0  0  0  0  0  0  0  0
    2.4532    0.9314    0.0000 H   0  0  0  0  0  0  0  0  0  0  0  0
    6.6590    2.4995    0.0000 H   0  0  0  0  0  0  0  0  0  0  0  0
    2.2125    0.3173    0.0000 H   0  0  0  0  0  0  0  0  0  0  0  0
    1.8985   -0.4166    0.0000 H   0  0  0  0  0  0  0  0  0  0  0  0
    2.7196    2.1118    0.0000 H   0  0  0  0  0  0  0  0  0  0  0  0
    2.0004   -1.2398    0.0000 H   0  0  0  0  0  0  0  0  0  0  0  0
    2.4839   -1.8750    0.0000 H   0  0  0  0  0  0  0  0  0  0  0  0
    6.5738    3.0711    0.0000 H   0  0  0  0  0  0  0  0  0  0  0  0
    6.0138    3.6311    0.0000 H   0  0  0  0  0  0  0  0  0  0  0  0
    3.0908   -2.0470    0.0000 H   0  0  0  0  0  0  0  0  0  0  0  0
    2.6411    1.3405    0.0000 H   0  0  0  0  0  0  0  0  0  0  0  0
    1.8310    1.0049    0.0000 H   0  0  0  0  0  0  0  0  0  0  0  0
    2.1666    0.1949    0.0000 H   0  0  0  0  0  0  0  0  0  0  0  0
    6.0720    3.1831    0.0000 H   0  0  0  0  0  0  0  0  0  0  0  0
    5.6336    3.9424    0.0000 H   0  0  0  0  0  0  0  0  0  0  0  0
    4.8742    3.5040    0.0000 H   0  0  0  0  0  0  0  0  0  0  0  0
    6.4468    1.9315    0.0000 H   0  0  0  0  0  0  0  0  0  0  0  0
    6.8852    2.6909    0.0000 H   0  0  0  0  0  0  0  0  0  0  0  0
    6.1258    3.1293    0.0000 H   0  0  0  0  0  0  0  0  0  0  0  0
    5.3696    4.4034    0.0000 H   0  0  0  0  0  0  0  0  0  0  0  0
    4.6248    4.8661    0.0000 H   0  0  0  0  0  0  0  0  0  0  0  0
    4.1621    4.1213    0.0000 H   0  0  0  0  0  0  0  0  0  0  0  0
    5.4197   -2.0139    0.0000 H   0  0  0  0  0  0  0  0  0  0  0  0
    5.8192   -1.0171    0.0000 H   0  0  0  0  0  0  0  0  0  0  0  0
    2.0217    2.7794    0.0000 H   0  0  0  0  0  0  0  0  0  0  0  0
    7.1172   -1.2088    0.0000 H   0  0  0  0  0  0  0  0  0  0  0  0
    7.9940   -1.2088    0.0000 H   0  0  0  0  0  0  0  0  0  0  0  0
    7.9940   -0.3320    0.0000 H   0  0  0  0  0  0  0  0  0  0  0  0
    8.7217    1.7214    0.0000 H   0  0  0  0  0  0  0  0  0  0  0  0
    9.4665    2.1841    0.0000 H   0  0  0  0  0  0  0  0  0  0  0  0
    9.0038    2.9289    0.0000 H   0  0  0  0  0  0  0  0  0  0  0  0
    2.4453   -4.3456    0.0000 H   0  0  0  0  0  0  0  0  0  0  0  0
    3.1430   -4.8767    0.0000 H   0  0  0  0  0  0  0  0  0  0  0  0
    3.6741   -4.1790    0.0000 H   0  0  0  0  0  0  0  0  0  0  0  0
 12  1  1  1  0  0  0
  1 28  1  0  0  0  0
 15  2  1  6  0  0  0
  2 29  1  0  0  0  0
 17  3  1  6  0  0  0
  3 62  1  0  0  0  0
 21  4  1  1  0  0  0
  4 30  1  0  0  0  0
  5 28  2  0  0  0  0
  6 29  2  0  0  0  0
  7 30  2  0  0  0  0
  8  9  1  0  0  0  0
  8 13  1  0  0  0  0
  8 16  1  0  0  0  0
  8 22  1  6  0  0  0
  9 12  1  0  0  0  0
  9 18  1  0  0  0  0
  9 34  1  1  0  0  0
 10 11  1  0  0  0  0
 10 12  1  0  0  0  0
 10 15  1  0  0  0  0
 10 35  1  6  0  0  0
 11 14  1  0  0  0  0
 11 24  1  0  0  0  0
 11 25  1  0  0  0  0
 12 36  1  0  0  0  0
 13 17  1  0  0  0  0
 13 37  1  0  0  0  0
 13 38  1  0  0  0  0
 14 17  1  0  0  0  0
 14 23  2  0  0  0  0
 15 20  1  0  0  0  0
 15 39  1  0  0  0  0
 16 19  1  0  0  0  0
 16 40  1  0  0  0  0
 16 41  1  0  0  0  0
 17 42  1  0  0  0  0
 18 21  1  0  0  0  0
 18 27  2  0  0  0  0
 19 21  1  0  0  0  0
 19 43  1  0  0  0  0
 19 44  1  0  0  0  0
 20 23  1  0  0  0  0
 20 45  1  0  0  0  0
 20 46  1  0  0  0  0
 21 47  1  0  0  0  0
 22 48  1  0  0  0  0
 22 49  1  0  0  0  0
 22 50  1  0  0  0  0
 23 26  1  0  0  0  0
 24 51  1  0  0  0  0
 24 52  1  0  0  0  0
 24 53  1  0  0  0  0
 25 54  1  0  0  0  0
 25 55  1  0  0  0  0
 25 56  1  0  0  0  0
 26 57  1  0  0  0  0
 26 58  1  0  0  0  0
 26 59  1  0  0  0  0
 27 60  1  0  0  0  0
 27 61  1  0  0  0  0
 28 31  1  0  0  0  0
 29 32  1  0  0  0  0
 30 33  1  0  0  0  0
 31 63  1  0  0  0  0
 31 64  1  0  0  0  0
 31 65  1  0  0  0  0
 32 66  1  0  0  0  0
 32 67  1  0  0  0  0
 32 68  1  0  0  0  0
 33 69  1  0  0  0  0
 33 70  1  0  0  0  0
 33 71  1  0  0  0  0
M  END
> <PUBCHEM_COMPOUND_CID>
5460449

> <PUBCHEM_COMPOUND_CANONICALIZED>
1

> <PUBCHEM_CACTVS_COMPLEXITY>
885

> <PUBCHEM_CACTVS_HBOND_ACCEPTOR>
7

> <PUBCHEM_CACTVS_HBOND_DONOR>
1

> <PUBCHEM_CACTVS_ROTATABLE_BOND>
6

> <PUBCHEM_CACTVS_SUBSKEYS>
AAADcfB4OAAAAAAAAAAAAAAAAAAAAAAAAAAwQAAAAAAYAACAAAAAGgAACAAADxSggAICCAAABgCIAgDSCAAAAAAgAAAACAAAAAgAFAIAIQACUAAFwAAIMAPA4PwPgAAAAAAAAABAAAIAACAAAAAAAAAAAA==

> <PUBCHEM_IUPAC_INCHI>
InChI=1S/C26H38O7/c1-13-11-20(32-16(4)28)23-24(33-17(5)29)22-14(2)19(31-15(3)27)9-10-26(22,8)12-18(30)21(13)25(23,6)7/h18-20,22-24,30H,2,9-12H2,1,3-8H3/t18-,19-,20-,22-,23-,24-,26-/m0/s1

> <PUBCHEM_IUPAC_INCHIKEY>
RAKDXBHPGCOTQG-SFPMZPPXSA-N

> <PUBCHEM_XLOGP3_AA>
2.6

> <PUBCHEM_EXACT_MASS>
462.261754

> <PUBCHEM_MOLECULAR_FORMULA>
C26H38O7

> <PUBCHEM_MOLECULAR_WEIGHT>
462.57572

> <PUBCHEM_OPENEYE_CAN_SMILES>
CC1=C2C(CC3(CCC(C(=C)C3C(C(C2(C)C)C(C1)OC(=O)C)OC(=O)C)OC(=O)C)C)O

> <PUBCHEM_OPENEYE_ISO_SMILES>
CC1=C2[C@H](C[C@@]3(CC[C@@H](C(=C)[C@H]3[C@@H]([C@@H](C2(C)C)[C@H](C1)OC(=O)C)OC(=O)C)OC(=O)C)C)O

> <PUBCHEM_CACTVS_TPSA>
99.1

> <PUBCHEM_MONOISOTOPIC_WEIGHT>
462.261754

> <PUBCHEM_TOTAL_CHARGE>
0

> <PUBCHEM_HEAVY_ATOM_COUNT>
33

> <PUBCHEM_ATOM_DEF_STEREO_COUNT>
7

> <PUBCHEM_ATOM_UDEF_STEREO_COUNT>
0

> <PUBCHEM_BOND_DEF_STEREO_COUNT>
0

> <PUBCHEM_BOND_UDEF_STEREO_COUNT>
0

> <PUBCHEM_ISOTOPIC_ATOM_COUNT>
0

> <PUBCHEM_COMPONENT_COUNT>
1

> <PUBCHEM_CACTVS_TAUTO_COUNT>
1

> <PUBCHEM_COORDINATE_TYPE>
1
5
255

> <PUBCHEM_BONDANNOTATIONS>
12  1  5
10  35  6
15  2  6
17  3  6
21  4  5
8  22  6
9  34  5

$$$$

