443002
  -OEChem-07051213003D

 43 45  0     1  0  0  0  0  0999 V2000
    0.6419   -0.1813   -0.4574 O   0  0  0  0  0  0  0  0  0  0  0  0
    5.7577    1.4886    0.6174 O   0  0  0  0  0  0  0  0  0  0  0  0
    0.3913   -2.0951    0.7971 O   0  0  0  0  0  0  0  0  0  0  0  0
   -3.7185    2.0561   -0.0753 O   0  0  0  0  0  0  0  0  0  0  0  0
   -5.5627   -0.0217   -0.0112 O   0  0  0  0  0  0  0  0  0  0  0  0
    4.3493    1.1910    0.4074 N   0  0  0  0  0  0  0  0  0  0  0  0
    4.1187   -0.1326    1.0195 C   0  0  2  0  0  0  0  0  0  0  0  0
    4.2060    0.9022   -1.0334 C   0  0  1  0  0  0  0  0  0  0  0  0
    4.8948   -1.1104    0.1285 C   0  0  0  0  0  0  0  0  0  0  0  0
    4.9526   -0.4220   -1.2376 C   0  0  0  0  0  0  0  0  0  0  0  0
    2.5996   -0.3823    0.9639 C   0  0  0  0  0  0  0  0  0  0  0  0
    2.6959    0.7617   -1.3031 C   0  0  0  0  0  0  0  0  0  0  0  0
    2.0534   -0.3571   -0.4713 C   0  0  0  0  0  0  0  0  0  0  0  0
   -0.0710   -1.1262    0.2150 C   0  0  0  0  0  0  0  0  0  0  0  0
   -1.5246   -0.8301    0.1538 C   0  0  0  0  0  0  0  0  0  0  0  0
   -1.9348    0.4846    0.0666 C   0  0  0  0  0  0  0  0  0  0  0  0
   -2.4208   -1.8789    0.1876 C   0  0  0  0  0  0  0  0  0  0  0  0
   -3.3006    0.7626    0.0107 C   0  0  0  0  0  0  0  0  0  0  0  0
   -3.7864   -1.6011    0.1318 C   0  0  0  0  0  0  0  0  0  0  0  0
   -4.2264   -0.2804    0.0432 C   0  0  0  0  0  0  0  0  0  0  0  0
   -3.9543    2.7441    1.1517 C   0  0  0  0  0  0  0  0  0  0  0  0
   -6.1611    0.0286   -1.3049 C   0  0  0  0  0  0  0  0  0  0  0  0
    4.4571   -0.1700    2.0609 H   0  0  0  0  0  0  0  0  0  0  0  0
    4.6146    1.7038   -1.6584 H   0  0  0  0  0  0  0  0  0  0  0  0
    4.4235   -2.0969    0.0698 H   0  0  0  0  0  0  0  0  0  0  0  0
    5.9138   -1.2526    0.5078 H   0  0  0  0  0  0  0  0  0  0  0  0
    5.9993   -0.2371   -1.5078 H   0  0  0  0  0  0  0  0  0  0  0  0
    4.5122   -1.0403   -2.0266 H   0  0  0  0  0  0  0  0  0  0  0  0
    2.4164   -1.3469    1.4468 H   0  0  0  0  0  0  0  0  0  0  0  0
    2.0793    0.3674    1.5755 H   0  0  0  0  0  0  0  0  0  0  0  0
    2.1923    1.7148   -1.0909 H   0  0  0  0  0  0  0  0  0  0  0  0
    2.5172    0.5664   -2.3680 H   0  0  0  0  0  0  0  0  0  0  0  0
    2.2692   -1.3148   -0.9633 H   0  0  0  0  0  0  0  0  0  0  0  0
    5.6740    2.3549    1.0505 H   0  0  0  0  0  0  0  0  0  0  0  0
   -1.2287    1.3103    0.0530 H   0  0  0  0  0  0  0  0  0  0  0  0
   -2.0904   -2.9113    0.2534 H   0  0  0  0  0  0  0  0  0  0  0  0
   -4.5021   -2.4185    0.1575 H   0  0  0  0  0  0  0  0  0  0  0  0
   -3.0332    2.8054    1.7400 H   0  0  0  0  0  0  0  0  0  0  0  0
   -4.7373    2.2435    1.7300 H   0  0  0  0  0  0  0  0  0  0  0  0
   -4.2877    3.7587    0.9169 H   0  0  0  0  0  0  0  0  0  0  0  0
   -5.7060    0.8193   -1.9097 H   0  0  0  0  0  0  0  0  0  0  0  0
   -7.2246    0.2508   -1.1820 H   0  0  0  0  0  0  0  0  0  0  0  0
   -6.0612   -0.9368   -1.8112 H   0  0  0  0  0  0  0  0  0  0  0  0
  1 13  1  0  0  0  0
  1 14  1  0  0  0  0
  2  6  1  0  0  0  0
  2 34  1  0  0  0  0
  3 14  2  0  0  0  0
  4 18  1  0  0  0  0
  4 21  1  0  0  0  0
  5 20  1  0  0  0  0
  5 22  1  0  0  0  0
  6  7  1  0  0  0  0
  6  8  1  0  0  0  0
  7  9  1  0  0  0  0
  7 11  1  0  0  0  0
  7 23  1  0  0  0  0
  8 10  1  0  0  0  0
  8 12  1  0  0  0  0
  8 24  1  0  0  0  0
  9 10  1  0  0  0  0
  9 25  1  0  0  0  0
  9 26  1  0  0  0  0
 10 27  1  0  0  0  0
 10 28  1  0  0  0  0
 11 13  1  0  0  0  0
 11 29  1  0  0  0  0
 11 30  1  0  0  0  0
 12 13  1  0  0  0  0
 12 31  1  0  0  0  0
 12 32  1  0  0  0  0
 13 33  1  0  0  0  0
 14 15  1  0  0  0  0
 15 16  2  0  0  0  0
 15 17  1  0  0  0  0
 16 18  1  0  0  0  0
 16 35  1  0  0  0  0
 17 19  2  0  0  0  0
 17 36  1  0  0  0  0
 18 20  2  0  0  0  0
 19 20  1  0  0  0  0
 19 37  1  0  0  0  0
 21 38  1  0  0  0  0
 21 39  1  0  0  0  0
 21 40  1  0  0  0  0
 22 41  1  0  0  0  0
 22 42  1  0  0  0  0
 22 43  1  0  0  0  0
M  END
> <PUBCHEM_COMPOUND_CID>
443002

> <PUBCHEM_CONFORMER_RMSD>
0.8

> <PUBCHEM_CONFORMER_DIVERSEORDER>
13
26
55
32
5
43
77
67
27
42
68
38
75
40
18
50
49
54
62
14
72
28
48
20
41
73
3
60
61
56
51
70
34
74
35
33
11
63
59
15
1
78
65
66
53
44
45
22
24
71
57
76
25
29
21
23
69
30
39
46
52
17
16
58
19
9
12
64
2
37
47
4
31
36
10
6
7
8

> <PUBCHEM_MMFF94_PARTIAL_CHARGES>
22
1 -0.43
13 0.28
14 0.63
15 0.09
16 -0.15
17 -0.15
18 0.08
19 -0.15
2 -0.3
20 0.08
21 0.28
22 0.28
3 -0.57
34 0.4
35 0.15
36 0.15
37 0.15
4 -0.36
5 -0.36
6 -0.64
7 0.27
8 0.27

> <PUBCHEM_EFFECTIVE_ROTOR_COUNT>
6.2

> <PUBCHEM_PHARMACOPHORE_FEATURES>
6
1 2 anion
1 3 acceptor
1 4 acceptor
1 5 acceptor
6 15 16 17 18 19 20 rings
8 6 7 8 9 10 11 12 13 rings

> <PUBCHEM_HEAVY_ATOM_COUNT>
22

> <PUBCHEM_ATOM_DEF_STEREO_COUNT>
0

> <PUBCHEM_ATOM_UDEF_STEREO_COUNT>
2

> <PUBCHEM_BOND_DEF_STEREO_COUNT>
0

> <PUBCHEM_BOND_UDEF_STEREO_COUNT>
0

> <PUBCHEM_ISOTOPIC_ATOM_COUNT>
0

> <PUBCHEM_COMPONENT_COUNT>
1

> <PUBCHEM_CACTVS_TAUTO_COUNT>
1

> <PUBCHEM_CONFORMER_ID>
0006C27A0000000D

> <PUBCHEM_MMFF94_ENERGY>
76.6268

> <PUBCHEM_FEATURE_SELFOVERLAP>
30.45

> <PUBCHEM_SHAPE_FINGERPRINT>
10498660 4 18261953054349786897
10646746 165 18408038520307535944
10670039 82 18341043120764540292
11315181 36 18272083885900045452
11552529 35 16342270498863357496
12107183 9 17766004174197187306
12166972 35 18335134302232389776
12236239 1 17846782888266077011
12390115 104 18042392707798353889
12403259 415 18040989636097062034
12507557 5 17775284941784132677
12596602 18 17060054804984365529
12633257 1 16343705396408915794
12670546 56 18343587351915878394
12916748 109 18410851040722969410
13533116 47 18409168852753113962
13583140 156 17604151428598753350
14251764 18 18342459270761910786
14251764 38 18334292024654407528
14251764 75 17829319539010664073
14573314 32 18260823826117200142
14739800 52 18336565840886521480
15183329 4 18272081747560577550
15348495 7 12679172791344634700
15788980 27 18201997720410826082
17844677 252 18333724715482506808
1813 80 5184073655733645939
19489759 90 18334013908583825111
200 152 4895557363693610186
20645477 70 16298374791185510718
21033648 29 17458355147130522688
21315764 268 18410863152589286020
220451 1 9943521938111436080
22061861 79 16443341005128918836
22122407 14 16200141110777045005
221357 26 17894633651639855793
22950370 63 7997969085294287719
23402539 116 18410862023376663455
235170 7 16588299522981978389
23557571 272 18040425620701899885
23559900 14 18335985259670252104
239999 70 9871753499227282016
26918003 58 13830132793030119221
300161 21 18130514054252230494
3004659 81 18341612646798045354
341906 21 18409167705859364784
34797466 226 17603861174381582204
351380 180 18409449154712648789
3545911 37 18342736325373430479
4214541 1 18411698807021554477
441001 317 18335419088876448145
474 4 17775844622755933707
5104073 3 18271523190688488826
5281201 14 17313094268139133056
542803 24 17458339732308248027
54446538 1 18411139151519156240
6328613 192 18201707433063356668
633830 44 18409451401492449150
7495541 125 16515693195100081563
90127 26 18336816538079842674
9971528 1 18059856160708489174
9981440 41 18343297089848115635

> <PUBCHEM_SHAPE_MULTIPOLES>
418.42
14.38
1.99
1.11
0.25
0.64
0.16
3.55
1.8
1.71
-0.6
-0.49
0.2
-0.52

> <PUBCHEM_SHAPE_SELFOVERLAP>
893.522

> <PUBCHEM_SHAPE_VOLUME>
233.9

> <PUBCHEM_COORDINATE_TYPE>
2
5
10

$$$$

