115022
  -OEChem-07051213032D

  7  3  0     0  0  0  0  0  0999 V2000
    3.7320    0.5000    0.0000 Fe  0  1  0  0  0  0  0  0  0  0  0  0
    5.4641    1.5000    0.0000 N   0  0  0  0  0  0  0  0  0  0  0  0
    2.0000    1.5000    0.0000 N   0  0  0  0  0  0  0  0  0  0  0  0
    3.7320   -1.5000    0.0000 N   0  0  0  0  0  0  0  0  0  0  0  0
    4.5981    1.0000    0.0000 C   0  5  0  0  0  0  0  0  0  0  0  0
    2.8660    1.0000    0.0000 C   0  5  0  0  0  0  0  0  0  0  0  0
    3.7320   -0.5000    0.0000 C   0  5  0  0  0  0  0  0  0  0  0  0
  2  5  3  0  0  0  0
  3  6  3  0  0  0  0
  4  7  3  0  0  0  0
M  CHG  4   1   3   5  -1   6  -1   7  -1
M  END
> <PUBCHEM_COMPOUND_CID>
115022

> <PUBCHEM_COMPOUND_CANONICALIZED>
1

> <PUBCHEM_CACTVS_COMPLEXITY>
53.2

> <PUBCHEM_CACTVS_HBOND_ACCEPTOR>
6

> <PUBCHEM_CACTVS_HBOND_DONOR>
0

> <PUBCHEM_CACTVS_ROTATABLE_BOND>
0

> <PUBCHEM_CACTVS_SUBSKEYS>
AAADcQBDAAAAAAAgAAAAAAAAAAAAAAAAAAAAAAAAAAAAAAAAAAAABAAAAAAAAAAAAAAAAAAAAAAQAAAAAAAAAAAAAAAAAAAAAAAAAAAAAAAAAAAAAAAAAAAAAAAAAAAAAAAAAAAAAAAAAAAAAAAAAAAAAA==

> <PUBCHEM_IUPAC_OPENEYE_NAME>
ferric tricyanide

> <PUBCHEM_IUPAC_CAS_NAME>
iron(3+) tricyanide

> <PUBCHEM_IUPAC_NAME>
iron(3+) tricyanide

> <PUBCHEM_IUPAC_SYSTEMATIC_NAME>
iron(3+) tricyanide

> <PUBCHEM_IUPAC_TRADITIONAL_NAME>
ferric tricyanide

> <PUBCHEM_IUPAC_INCHI>
InChI=1S/3CN.Fe/c3*1-2;/q3*-1;+3

> <PUBCHEM_IUPAC_INCHIKEY>
XYZXOFUXTBSQQI-UHFFFAOYSA-N

> <PUBCHEM_EXACT_MASS>
133.94416

> <PUBCHEM_MOLECULAR_FORMULA>
C3FeN3

> <PUBCHEM_MOLECULAR_WEIGHT>
133.8972

> <PUBCHEM_OPENEYE_CAN_SMILES>
[C-]#N.[C-]#N.[C-]#N.[Fe+3]

> <PUBCHEM_OPENEYE_ISO_SMILES>
[C-]#N.[C-]#N.[C-]#N.[Fe+3]

> <PUBCHEM_CACTVS_TPSA>
71.4

> <PUBCHEM_MONOISOTOPIC_WEIGHT>
133.94416

> <PUBCHEM_TOTAL_CHARGE>
0

> <PUBCHEM_HEAVY_ATOM_COUNT>
7

> <PUBCHEM_ATOM_DEF_STEREO_COUNT>
0

> <PUBCHEM_ATOM_UDEF_STEREO_COUNT>
0

> <PUBCHEM_BOND_DEF_STEREO_COUNT>
0

> <PUBCHEM_BOND_UDEF_STEREO_COUNT>
0

> <PUBCHEM_ISOTOPIC_ATOM_COUNT>
0

> <PUBCHEM_COMPONENT_COUNT>
4

> <PUBCHEM_CACTVS_TAUTO_COUNT>
1

> <PUBCHEM_NONSTANDARDBOND>
1  5  6
1  6  6
1  7  6

> <PUBCHEM_COORDINATE_TYPE>
1
5
255

$$$$

