179630
  -OEChem-07051213153D

 23 24  0     1  0  0  0  0  0999 V2000
    1.4923    0.2278   -1.0818 O   0  0  0  0  0  0  0  0  0  0  0  0
    2.7486    1.5580    0.3995 O   0  0  0  0  0  0  0  0  0  0  0  0
   -2.2660    1.4526    0.2480 N   0  0  0  0  0  0  0  0  0  0  0  0
    0.7180   -0.7855   -0.4099 C   0  0  1  0  0  0  0  0  0  0  0  0
    1.4554   -1.1084    0.8829 C   0  0  0  0  0  0  0  0  0  0  0  0
    2.8906   -0.8317    0.4997 C   0  0  0  0  0  0  0  0  0  0  0  0
    2.7459    0.3810   -0.4007 C   0  0  1  0  0  0  0  0  0  0  0  0
   -0.7057   -0.3420   -0.1891 C   0  0  0  0  0  0  0  0  0  0  0  0
   -1.7528   -1.2568   -0.2096 C   0  0  0  0  0  0  0  0  0  0  0  0
   -1.0128    0.9894    0.0417 C   0  0  0  0  0  0  0  0  0  0  0  0
   -3.0560   -0.8186   -0.0016 C   0  0  0  0  0  0  0  0  0  0  0  0
   -3.2575    0.5340    0.2209 C   0  0  0  0  0  0  0  0  0  0  0  0
    0.7291   -1.6574   -1.0762 H   0  0  0  0  0  0  0  0  0  0  0  0
    1.2870   -2.1354    1.2206 H   0  0  0  0  0  0  0  0  0  0  0  0
    1.1545   -0.4366    1.6967 H   0  0  0  0  0  0  0  0  0  0  0  0
    3.5327   -0.6621    1.3684 H   0  0  0  0  0  0  0  0  0  0  0  0
    3.2807   -1.6812   -0.0730 H   0  0  0  0  0  0  0  0  0  0  0  0
    3.5608    0.4464   -1.1285 H   0  0  0  0  0  0  0  0  0  0  0  0
   -1.5647   -2.3125   -0.3845 H   0  0  0  0  0  0  0  0  0  0  0  0
   -0.2452    1.7558    0.0791 H   0  0  0  0  0  0  0  0  0  0  0  0
    2.9896    2.2981   -0.1830 H   0  0  0  0  0  0  0  0  0  0  0  0
   -3.8875   -1.5138   -0.0126 H   0  0  0  0  0  0  0  0  0  0  0  0
   -4.2550    0.9265    0.3888 H   0  0  0  0  0  0  0  0  0  0  0  0
  1  4  1  0  0  0  0
  1  7  1  0  0  0  0
  2  7  1  0  0  0  0
  2 21  1  0  0  0  0
  3 10  1  0  0  0  0
  3 12  2  0  0  0  0
  4  5  1  0  0  0  0
  4  8  1  0  0  0  0
  4 13  1  0  0  0  0
  5  6  1  0  0  0  0
  5 14  1  0  0  0  0
  5 15  1  0  0  0  0
  6  7  1  0  0  0  0
  6 16  1  0  0  0  0
  6 17  1  0  0  0  0
  7 18  1  0  0  0  0
  8  9  1  0  0  0  0
  8 10  2  0  0  0  0
  9 11  2  0  0  0  0
  9 19  1  0  0  0  0
 10 20  1  0  0  0  0
 11 12  1  0  0  0  0
 11 22  1  0  0  0  0
 12 23  1  0  0  0  0
M  END
> <PUBCHEM_COMPOUND_CID>
179630

> <PUBCHEM_CONFORMER_RMSD>
0.6

> <PUBCHEM_CONFORMER_DIVERSEORDER>
1
3
11
8
13
12
6
2
7
9
4
5
10

> <PUBCHEM_MMFF94_PARTIAL_CHARGES>
15
1 -0.56
10 0.16
11 -0.15
12 0.16
19 0.15
2 -0.68
20 0.15
21 0.4
22 0.15
23 0.15
3 -0.62
4 0.42
7 0.56
8 -0.14
9 -0.15

> <PUBCHEM_EFFECTIVE_ROTOR_COUNT>
2

> <PUBCHEM_PHARMACOPHORE_FEATURES>
6
1 1 acceptor
1 2 acceptor
1 2 donor
1 3 acceptor
5 1 4 5 6 7 rings
6 3 8 9 10 11 12 rings

> <PUBCHEM_HEAVY_ATOM_COUNT>
12

> <PUBCHEM_ATOM_DEF_STEREO_COUNT>
0

> <PUBCHEM_ATOM_UDEF_STEREO_COUNT>
2

> <PUBCHEM_BOND_DEF_STEREO_COUNT>
0

> <PUBCHEM_BOND_UDEF_STEREO_COUNT>
0

> <PUBCHEM_ISOTOPIC_ATOM_COUNT>
0

> <PUBCHEM_COMPONENT_COUNT>
1

> <PUBCHEM_CACTVS_TAUTO_COUNT>
1

> <PUBCHEM_CONFORMER_ID>
0002BDAE00000001

> <PUBCHEM_MMFF94_ENERGY>
24.8952

> <PUBCHEM_FEATURE_SELFOVERLAP>
30.485

> <PUBCHEM_SHAPE_FINGERPRINT>
10219947 1 16702583818255958414
10857977 72 18186524289236526107
11031198 65 15864066580968494780
12162725 195 18335704957092830729
12251169 10 18340211885504666930
12696612 119 18343016688111756748
12932764 1 18059573636979081743
14144814 61 18413388756483181947
14325111 11 18410855468728652431
14390081 3 18407758131693878509
15669948 3 18261678077742848167
15775835 57 18412820300460918872
16945 1 18335983172252790703
19973954 147 18261670471297491016
20528008 55 18411144632129391605
20559304 39 18339644541899922106
20871998 184 18114176372774420119
22445834 79 18130230487542213443
23552423 10 18126843798829466837
2748010 2 17114666774489118287
3248919 1 17603585265793003391
369184 2 18202566198224417231
5084963 1 17846500348200650630
7364860 26 18335983189707349710
8030462 33 18272927223982016022

> <PUBCHEM_SHAPE_MULTIPOLES>
230.23
5.41
1.45
0.82
0.39
0.21
0.02
0.55
-0.5
0.04
-0.16
-0.3
-0.06
-0.31

> <PUBCHEM_SHAPE_SELFOVERLAP>
485.907

> <PUBCHEM_SHAPE_VOLUME>
128.6

> <PUBCHEM_COORDINATE_TYPE>
2
5
10

$$$$

