5281803
  -OEChem-07051212593D

 34 36  0     0  0  0  0  0  0999 V2000
    1.7067   -2.0321   -0.0492 O   0  0  0  0  0  0  0  0  0  0  0  0
    0.4976    1.8626    0.0846 O   0  0  0  0  0  0  0  0  0  0  0  0
    2.9785    2.6425    0.0908 O   0  0  0  0  0  0  0  0  0  0  0  0
   -5.6737    0.4204    0.3712 O   0  0  0  0  0  0  0  0  0  0  0  0
    6.2816   -0.7628   -0.0985 O   0  0  0  0  0  0  0  0  0  0  0  0
   -4.4204    0.2672   -2.1051 O   0  0  0  0  0  0  0  0  0  0  0  0
   -0.1208   -0.4367    0.0642 C   0  0  0  0  0  0  0  0  0  0  0  0
    2.2796    0.3253    0.0242 C   0  0  0  0  0  0  0  0  0  0  0  0
   -1.5736   -0.2124    0.1410 C   0  0  0  0  0  0  0  0  0  0  0  0
    0.8516    0.6909    0.0643 C   0  0  0  0  0  0  0  0  0  0  0  0
    2.6342   -1.0221   -0.0318 C   0  0  0  0  0  0  0  0  0  0  0  0
    3.2685    1.3125    0.0382 C   0  0  0  0  0  0  0  0  0  0  0  0
    0.3801   -1.6801    0.0096 C   0  0  0  0  0  0  0  0  0  0  0  0
   -2.3243   -0.0764   -1.0286 C   0  0  0  0  0  0  0  0  0  0  0  0
    3.9793   -1.3902   -0.0740 C   0  0  0  0  0  0  0  0  0  0  0  0
   -2.2057   -0.1348    1.3837 C   0  0  0  0  0  0  0  0  0  0  0  0
    4.6133    0.9418   -0.0036 C   0  0  0  0  0  0  0  0  0  0  0  0
    4.9682   -0.4066   -0.0597 C   0  0  0  0  0  0  0  0  0  0  0  0
   -3.7009    0.1362   -0.9557 C   0  0  0  0  0  0  0  0  0  0  0  0
   -4.3298    0.2134    0.2869 C   0  0  0  0  0  0  0  0  0  0  0  0
   -3.5822    0.0779    1.4567 C   0  0  0  0  0  0  0  0  0  0  0  0
   -6.5076   -0.7364    0.3907 C   0  0  0  0  0  0  0  0  0  0  0  0
   -0.2304   -2.5749    0.0083 H   0  0  0  0  0  0  0  0  0  0  0  0
   -1.8422   -0.1342   -2.0023 H   0  0  0  0  0  0  0  0  0  0  0  0
    4.2579   -2.4401   -0.1176 H   0  0  0  0  0  0  0  0  0  0  0  0
   -1.6366   -0.2373    2.3047 H   0  0  0  0  0  0  0  0  0  0  0  0
    5.3832    1.7099    0.0076 H   0  0  0  0  0  0  0  0  0  0  0  0
   -4.0654    0.1379    2.4281 H   0  0  0  0  0  0  0  0  0  0  0  0
    2.0203    2.7815    0.1359 H   0  0  0  0  0  0  0  0  0  0  0  0
    6.8273    0.0421   -0.0809 H   0  0  0  0  0  0  0  0  0  0  0  0
   -5.3470    0.4482   -1.8710 H   0  0  0  0  0  0  0  0  0  0  0  0
   -6.3049   -1.3375    1.2828 H   0  0  0  0  0  0  0  0  0  0  0  0
   -6.3572   -1.3398   -0.5101 H   0  0  0  0  0  0  0  0  0  0  0  0
   -7.5498   -0.4068    0.4206 H   0  0  0  0  0  0  0  0  0  0  0  0
  1 11  1  0  0  0  0
  1 13  1  0  0  0  0
  2 10  2  0  0  0  0
  3 12  1  0  0  0  0
  3 29  1  0  0  0  0
  4 20  1  0  0  0  0
  4 22  1  0  0  0  0
  5 18  1  0  0  0  0
  5 30  1  0  0  0  0
  6 19  1  0  0  0  0
  6 31  1  0  0  0  0
  7  9  1  0  0  0  0
  7 10  1  0  0  0  0
  7 13  2  0  0  0  0
  8 10  1  0  0  0  0
  8 11  1  0  0  0  0
  8 12  2  0  0  0  0
  9 14  2  0  0  0  0
  9 16  1  0  0  0  0
 11 15  2  0  0  0  0
 12 17  1  0  0  0  0
 13 23  1  0  0  0  0
 14 19  1  0  0  0  0
 14 24  1  0  0  0  0
 15 18  1  0  0  0  0
 15 25  1  0  0  0  0
 16 21  2  0  0  0  0
 16 26  1  0  0  0  0
 17 18  2  0  0  0  0
 17 27  1  0  0  0  0
 19 20  2  0  0  0  0
 20 21  1  0  0  0  0
 21 28  1  0  0  0  0
 22 32  1  0  0  0  0
 22 33  1  0  0  0  0
 22 34  1  0  0  0  0
M  END
> <PUBCHEM_COMPOUND_CID>
5281803

> <PUBCHEM_CONFORMER_RMSD>
0.6

> <PUBCHEM_CONFORMER_DIVERSEORDER>
2
5
4
1
3
6

> <PUBCHEM_MMFF94_PARTIAL_CHARGES>
31
1 -0.16
10 0.47
11 0.08
12 0.08
13 -0.07
14 -0.15
15 -0.15
16 -0.15
17 -0.15
18 0.08
19 0.08
2 -0.57
20 0.08
21 -0.15
22 0.28
23 0.15
24 0.15
25 0.15
26 0.15
27 0.15
28 0.15
29 0.45
3 -0.53
30 0.45
31 0.45
4 -0.36
5 -0.53
6 -0.53
7 -0.01
8 0.09
9 0.03

> <PUBCHEM_EFFECTIVE_ROTOR_COUNT>
2

> <PUBCHEM_PHARMACOPHORE_FEATURES>
9
1 1 acceptor
1 2 acceptor
1 3 donor
1 4 acceptor
1 5 donor
1 6 donor
6 1 7 8 10 11 13 rings
6 8 11 12 15 17 18 rings
6 9 14 16 19 20 21 rings

> <PUBCHEM_HEAVY_ATOM_COUNT>
22

> <PUBCHEM_ATOM_DEF_STEREO_COUNT>
0

> <PUBCHEM_ATOM_UDEF_STEREO_COUNT>
0

> <PUBCHEM_BOND_DEF_STEREO_COUNT>
0

> <PUBCHEM_BOND_UDEF_STEREO_COUNT>
0

> <PUBCHEM_ISOTOPIC_ATOM_COUNT>
0

> <PUBCHEM_COMPONENT_COUNT>
1

> <PUBCHEM_CACTVS_TAUTO_COUNT>
36

> <PUBCHEM_CONFORMER_ID>
0050980B00000002

> <PUBCHEM_MMFF94_ENERGY>
78.4644

> <PUBCHEM_FEATURE_SELFOVERLAP>
45.697

> <PUBCHEM_SHAPE_FINGERPRINT>
10 15 17846219896117473808
10411042 1 18049721012996049022
11045977 3 18130780127381350650
11471102 20 18410856560256961556
11796584 16 14634866448811187748
12107183 9 17394435240745459971
12166972 35 18340764858376088801
12236239 1 17676486155385111627
12403259 415 17989212538122987541
12616971 3 17967253079034458541
12916748 109 16008740316862119459
13140716 1 18338516314606166898
13583140 156 17846497015169171690
13760787 5 18334297556450224652
13862211 1 18410012182782895210
14294032 229 16299224778853197929
14386348 63 17846494842121051475
14573314 32 16988565735746264155
15196674 1 18337952281999155330
15788980 27 18131634478075686262
17349148 13 18113056043038798202
17834072 33 18260547801554208075
19489759 90 16343984719654535603
200 152 18187086173995834105
20612939 158 18409165489682704628
20645477 70 18411980295099847594
21033648 144 18263372408039371644
21033648 29 17917162636134350237
21033650 10 15938065900088813776
21267235 1 18336540608148731406
21641784 216 18129643323302110956
21792961 116 17917706959822001702
221357 26 18341619230540077885
2297311 6 16702299074703491221
23175994 123 18202277005207754789
23402539 116 16298392365880513885
23557571 272 16917067793427386119
23559900 14 16702013167209891034
23569943 247 17680972304846527270
29717793 49 17313099765902851196
335352 9 18410006625253262182
345986 75 18042695081832492282
34797466 226 14996280284616658896
3545911 37 18342174462136327867
4073 2 18059568040879795411
4325135 7 18335702720322653119
474 4 18334853892259303858
5104073 3 18338803295488299914
542803 24 17603301562013115803
602551 16 16271636789716119290
7495541 125 17775275037125200843
9999458 23 18059855035332189790

> <PUBCHEM_SHAPE_MULTIPOLES>
417.53
13.39
1.63
1.06
5.38
0.34
0.18
-0.75
0.14
-2.07
-0.03
1.64
0.05
0.24

> <PUBCHEM_SHAPE_SELFOVERLAP>
929.002

> <PUBCHEM_SHAPE_VOLUME>
222

> <PUBCHEM_COORDINATE_TYPE>
2
5
10

$$$$

