122841
  -OEChem-07051213003D

 32 32  0     0  0  0  0  0  0999 V2000
    3.7440    0.2270   -0.1680 O   0  0  0  0  0  0  0  0  0  0  0  0
   -0.3672   -2.1049    0.5840 O   0  0  0  0  0  0  0  0  0  0  0  0
   -0.3267    2.6653    0.1354 O   0  0  0  0  0  0  0  0  0  0  0  0
   -2.2777    0.4130    1.6845 O   0  0  0  0  0  0  0  0  0  0  0  0
   -0.3400    0.2759    0.3593 C   0  0  0  0  0  0  0  0  0  0  0  0
   -2.7160    0.1935   -0.6755 C   0  0  0  0  0  0  0  0  0  0  0  0
   -1.8203    0.3031    0.5492 C   0  0  0  0  0  0  0  0  0  0  0  0
    1.6956   -0.9611    0.2092 C   0  0  0  0  0  0  0  0  0  0  0  0
    0.3122   -0.9379    0.3871 C   0  0  0  0  0  0  0  0  0  0  0  0
   -4.0570   -0.4662   -0.3533 C   0  0  0  0  0  0  0  0  0  0  0  0
    0.3236    1.4677    0.1620 C   0  0  0  0  0  0  0  0  0  0  0  0
    2.3928    0.2301    0.0076 C   0  0  0  0  0  0  0  0  0  0  0  0
    1.7067    1.4445   -0.0159 C   0  0  0  0  0  0  0  0  0  0  0  0
    2.4328   -2.2617    0.2339 C   0  0  0  0  0  0  0  0  0  0  0  0
   -4.9259   -0.5973   -1.5936 C   0  0  0  0  0  0  0  0  0  0  0  0
    4.2231    0.1090   -1.5059 C   0  0  0  0  0  0  0  0  0  0  0  0
   -2.1952   -0.3894   -1.4438 H   0  0  0  0  0  0  0  0  0  0  0  0
   -2.8736    1.2058   -1.0642 H   0  0  0  0  0  0  0  0  0  0  0  0
   -4.5929    0.1221    0.4009 H   0  0  0  0  0  0  0  0  0  0  0  0
   -3.8879   -1.4587    0.0811 H   0  0  0  0  0  0  0  0  0  0  0  0
    2.2570    2.3692   -0.1726 H   0  0  0  0  0  0  0  0  0  0  0  0
    3.4685   -2.1405    0.5678 H   0  0  0  0  0  0  0  0  0  0  0  0
    1.9738   -2.9693    0.9328 H   0  0  0  0  0  0  0  0  0  0  0  0
    2.4370   -2.7090   -0.7651 H   0  0  0  0  0  0  0  0  0  0  0  0
   -5.1372    0.3843   -2.0297 H   0  0  0  0  0  0  0  0  0  0  0  0
   -5.8802   -1.0692   -1.3399 H   0  0  0  0  0  0  0  0  0  0  0  0
   -4.4341   -1.2127   -2.3537 H   0  0  0  0  0  0  0  0  0  0  0  0
   -1.3128   -1.9352    0.7199 H   0  0  0  0  0  0  0  0  0  0  0  0
    0.3201    3.3756   -0.0159 H   0  0  0  0  0  0  0  0  0  0  0  0
    3.9092    0.9726   -2.1008 H   0  0  0  0  0  0  0  0  0  0  0  0
    3.8644   -0.8152   -1.9696 H   0  0  0  0  0  0  0  0  0  0  0  0
    5.3158    0.0835   -1.4771 H   0  0  0  0  0  0  0  0  0  0  0  0
  1 12  1  0  0  0  0
  1 16  1  0  0  0  0
  2  9  1  0  0  0  0
  2 28  1  0  0  0  0
  3 11  1  0  0  0  0
  3 29  1  0  0  0  0
  4  7  2  0  0  0  0
  5  7  1  0  0  0  0
  5  9  2  0  0  0  0
  5 11  1  0  0  0  0
  6  7  1  0  0  0  0
  6 10  1  0  0  0  0
  6 17  1  0  0  0  0
  6 18  1  0  0  0  0
  8  9  1  0  0  0  0
  8 12  2  0  0  0  0
  8 14  1  0  0  0  0
 10 15  1  0  0  0  0
 10 19  1  0  0  0  0
 10 20  1  0  0  0  0
 11 13  2  0  0  0  0
 12 13  1  0  0  0  0
 13 21  1  0  0  0  0
 14 22  1  0  0  0  0
 14 23  1  0  0  0  0
 14 24  1  0  0  0  0
 15 25  1  0  0  0  0
 15 26  1  0  0  0  0
 15 27  1  0  0  0  0
 16 30  1  0  0  0  0
 16 31  1  0  0  0  0
 16 32  1  0  0  0  0
M  END
> <PUBCHEM_COMPOUND_CID>
122841

> <PUBCHEM_CONFORMER_RMSD>
0.6

> <PUBCHEM_CONFORMER_DIVERSEORDER>
1
24
18
28
30
11
32
25
33
13
27
34
29
20
2
16
15
10
17
12
19
31
35
9
8
23
22
36
4
26
14
21
5
7
6
3

> <PUBCHEM_MMFF94_PARTIAL_CHARGES>
17
1 -0.36
11 0.08
12 0.08
13 -0.15
14 0.14
16 0.28
2 -0.53
21 0.15
28 0.45
29 0.45
3 -0.53
4 -0.57
5 0.09
6 0.06
7 0.42
8 -0.14
9 0.08

> <PUBCHEM_EFFECTIVE_ROTOR_COUNT>
4

> <PUBCHEM_PHARMACOPHORE_FEATURES>
6
1 1 acceptor
1 15 hydrophobe
1 2 donor
1 3 donor
1 4 acceptor
6 5 8 9 11 12 13 rings

> <PUBCHEM_HEAVY_ATOM_COUNT>
16

> <PUBCHEM_ATOM_DEF_STEREO_COUNT>
0

> <PUBCHEM_ATOM_UDEF_STEREO_COUNT>
0

> <PUBCHEM_BOND_DEF_STEREO_COUNT>
0

> <PUBCHEM_BOND_UDEF_STEREO_COUNT>
0

> <PUBCHEM_ISOTOPIC_ATOM_COUNT>
0

> <PUBCHEM_COMPONENT_COUNT>
1

> <PUBCHEM_CACTVS_TAUTO_COUNT>
22

> <PUBCHEM_CONFORMER_ID>
0001DFD900000001

> <PUBCHEM_MMFF94_ENERGY>
51.9823

> <PUBCHEM_FEATURE_SELFOVERLAP>
30.446

> <PUBCHEM_SHAPE_FINGERPRINT>
11206711 2 18341040926025767356
11471102 20 18341618100599168788
11806522 49 18041285369969751433
12138202 97 17346312661729050475
12236239 1 17894342281506543665
13140716 1 18195516013972162864
13675066 3 11743840278572497125
13760787 5 18272358802646207504
14251717 144 18412271635742810359
14576447 43 18261684687908441863
14911166 2 18412822461024478860
14993402 34 18408322172526821119
15477762 27 18336837411562943735
15757776 16 18408328791055580455
16945 1 18412535518702197392
18186145 218 18337397045949253533
19026448 4 15697988639859703656
200 152 18187085035961395371
20645477 70 18114750326327993661
21256008 61 18260554394081081229
21501502 16 18124591144306753128
21634736 98 18044671797464985703
21637258 2 16153712054597623158
221490 88 18124034529588602179
22182313 1 17979062796057940928
22713019 99 18261108552151967278
2334 1 17907285564737408928
23379529 103 17533778204633375279
23402539 116 18335697286766679844
23402655 69 18341622555102864149
23493267 7 17131826569133458344
23526113 38 17917716828828380897
23559900 14 18265030485556114996
25 1 18202007637922796811
25147074 1 18125151891073703592
2748010 2 18051400778540825128
2838139 119 16056313908921731966
2871803 45 18409452491928676677
3060560 45 18339091401377524519
77492 1 17894907438941260361

> <PUBCHEM_SHAPE_MULTIPOLES>
305.8
7.38
1.97
1.15
4.62
0.05
0.21
-1.53
4.23
-0.88
-0.31
0.51
-0.05
-0.57

> <PUBCHEM_SHAPE_SELFOVERLAP>
632.127

> <PUBCHEM_SHAPE_VOLUME>
177.4

> <PUBCHEM_COORDINATE_TYPE>
2
5
10

$$$$

