441926
  -OEChem-07051212562D

 59 61  0     1  0  0  0  0  0999 V2000
    6.3718    0.6142    0.0000 O   0  0  0  0  0  0  0  0  0  0  0  0
    7.2368   -2.6568    0.0000 O   0  0  0  0  0  0  0  0  0  0  0  0
    5.5068   -2.6568    0.0000 O   0  0  0  0  0  0  0  0  0  0  0  0
    9.8765   -0.2984    0.0000 O   0  0  0  0  0  0  0  0  0  0  0  0
    2.8671   -0.2984    0.0000 O   0  0  0  0  0  0  0  0  0  0  0  0
    7.8165    1.9486    0.0000 O   0  0  0  0  0  0  0  0  0  0  0  0
    4.9270    1.9486    0.0000 O   0  0  0  0  0  0  0  0  0  0  0  0
    6.8718   -0.9247    0.0000 C   0  0  0  0  0  0  0  0  0  0  0  0
    5.8718   -0.9247    0.0000 C   0  0  0  0  0  0  0  0  0  0  0  0
    7.1808    0.0264    0.0000 C   0  0  0  0  0  0  0  0  0  0  0  0
    5.5628    0.0264    0.0000 C   0  0  0  0  0  0  0  0  0  0  0  0
    8.1962    0.2586    0.0000 C   0  0  0  0  0  0  0  0  0  0  0  0
    4.5474    0.2586    0.0000 C   0  0  0  0  0  0  0  0  0  0  0  0
    9.4699    1.4324    0.0000 C   0  0  3  0  0  0  0  0  0  0  0  0
    7.5568   -1.7094    0.0000 C   0  0  0  0  0  0  0  0  0  0  0  0
    5.1868   -1.7094    0.0000 C   0  0  0  0  0  0  0  0  0  0  0  0
    8.4942    1.2132    0.0000 C   0  0  0  0  0  0  0  0  0  0  0  0
    8.5773   -1.5007    0.0000 C   0  0  0  0  0  0  0  0  0  0  0  0
    8.8991   -0.5100    0.0000 C   0  0  0  0  0  0  0  0  0  0  0  0
    4.1663   -1.5007    0.0000 C   0  0  0  0  0  0  0  0  0  0  0  0
    3.8444   -0.5100    0.0000 C   0  0  0  0  0  0  0  0  0  0  0  0
    3.2737    1.4324    0.0000 C   0  0  0  0  0  0  0  0  0  0  0  0
    4.2494    1.2132    0.0000 C   0  0  0  0  0  0  0  0  0  0  0  0
    2.9757    2.3870    0.0000 C   0  0  0  0  0  0  0  0  0  0  0  0
    9.7679    2.3870    0.0000 C   0  0  0  0  0  0  0  0  0  0  0  0
   10.1476    0.6971    0.0000 C   0  0  0  0  0  0  0  0  0  0  0  0
    9.2435   -2.2464    0.0000 C   0  0  0  0  0  0  0  0  0  0  0  0
    3.5000   -2.2464    0.0000 C   0  0  0  0  0  0  0  0  0  0  0  0
    2.0000    2.6062    0.0000 C   0  0  0  0  0  0  0  0  0  0  0  0
    3.6534    3.1223    0.0000 C   0  0  0  0  0  0  0  0  0  0  0  0
   10.7436    2.6062    0.0000 C   0  0  0  0  0  0  0  0  0  0  0  0
   10.0748    1.5683    0.0000 H   0  0  0  0  0  0  0  0  0  0  0  0
    2.6588    1.3532    0.0000 H   0  0  0  0  0  0  0  0  0  0  0  0
    3.2449    0.8131    0.0000 H   0  0  0  0  0  0  0  0  0  0  0  0
    2.5555    1.9311    0.0000 H   0  0  0  0  0  0  0  0  0  0  0  0
    9.7391    3.0063    0.0000 H   0  0  0  0  0  0  0  0  0  0  0  0
    9.1530    2.4662    0.0000 H   0  0  0  0  0  0  0  0  0  0  0  0
    9.6916    0.2769    0.0000 H   0  0  0  0  0  0  0  0  0  0  0  0
   10.5677    0.2411    0.0000 H   0  0  0  0  0  0  0  0  0  0  0  0
   10.6035    1.1172    0.0000 H   0  0  0  0  0  0  0  0  0  0  0  0
    8.7812   -2.6595    0.0000 H   0  0  0  0  0  0  0  0  0  0  0  0
    9.6566   -2.7088    0.0000 H   0  0  0  0  0  0  0  0  0  0  0  0
    9.7059   -1.8333    0.0000 H   0  0  0  0  0  0  0  0  0  0  0  0
    3.0377   -1.8333    0.0000 H   0  0  0  0  0  0  0  0  0  0  0  0
    3.0870   -2.7088    0.0000 H   0  0  0  0  0  0  0  0  0  0  0  0
    3.9624   -2.6595    0.0000 H   0  0  0  0  0  0  0  0  0  0  0  0
    4.1093    2.7022    0.0000 H   0  0  0  0  0  0  0  0  0  0  0  0
    4.0735    3.5783    0.0000 H   0  0  0  0  0  0  0  0  0  0  0  0
    3.1974    3.5425    0.0000 H   0  0  0  0  0  0  0  0  0  0  0  0
    2.1359    3.2111    0.0000 H   0  0  0  0  0  0  0  0  0  0  0  0
    1.3951    2.7421    0.0000 H   0  0  0  0  0  0  0  0  0  0  0  0
    1.8641    2.0013    0.0000 H   0  0  0  0  0  0  0  0  0  0  0  0
   10.8795    2.0013    0.0000 H   0  0  0  0  0  0  0  0  0  0  0  0
   11.3485    2.7421    0.0000 H   0  0  0  0  0  0  0  0  0  0  0  0
   10.6077    3.2111    0.0000 H   0  0  0  0  0  0  0  0  0  0  0  0
    7.6463   -3.1223    0.0000 H   0  0  0  0  0  0  0  0  0  0  0  0
    5.0973   -3.1223    0.0000 H   0  0  0  0  0  0  0  0  0  0  0  0
   10.2931   -0.7575    0.0000 H   0  0  0  0  0  0  0  0  0  0  0  0
    2.4504   -0.7575    0.0000 H   0  0  0  0  0  0  0  0  0  0  0  0
  1 10  1  0  0  0  0
  1 11  1  0  0  0  0
  2 15  1  0  0  0  0
  2 56  1  0  0  0  0
  3 16  1  0  0  0  0
  3 57  1  0  0  0  0
  4 19  1  0  0  0  0
  4 58  1  0  0  0  0
  5 21  1  0  0  0  0
  5 59  1  0  0  0  0
  6 17  2  0  0  0  0
  7 23  2  0  0  0  0
  8  9  1  0  0  0  0
  8 10  2  0  0  0  0
  8 15  1  0  0  0  0
  9 11  2  0  0  0  0
  9 16  1  0  0  0  0
 10 12  1  0  0  0  0
 11 13  1  0  0  0  0
 12 17  1  0  0  0  0
 12 19  2  0  0  0  0
 13 21  2  0  0  0  0
 13 23  1  0  0  0  0
 14 17  1  0  0  0  0
 14 25  1  0  0  0  0
 14 26  1  0  0  0  0
 14 32  1  0  0  0  0
 15 18  2  0  0  0  0
 16 20  2  0  0  0  0
 18 19  1  0  0  0  0
 18 27  1  0  0  0  0
 20 21  1  0  0  0  0
 20 28  1  0  0  0  0
 22 23  1  0  0  0  0
 22 24  1  0  0  0  0
 22 33  1  0  0  0  0
 22 34  1  0  0  0  0
 24 29  1  0  0  0  0
 24 30  1  0  0  0  0
 24 35  1  0  0  0  0
 25 31  1  0  0  0  0
 25 36  1  0  0  0  0
 25 37  1  0  0  0  0
 26 38  1  0  0  0  0
 26 39  1  0  0  0  0
 26 40  1  0  0  0  0
 27 41  1  0  0  0  0
 27 42  1  0  0  0  0
 27 43  1  0  0  0  0
 28 44  1  0  0  0  0
 28 45  1  0  0  0  0
 28 46  1  0  0  0  0
 29 50  1  0  0  0  0
 29 51  1  0  0  0  0
 29 52  1  0  0  0  0
 30 47  1  0  0  0  0
 30 48  1  0  0  0  0
 30 49  1  0  0  0  0
 31 53  1  0  0  0  0
 31 54  1  0  0  0  0
 31 55  1  0  0  0  0
M  END
> <PUBCHEM_COMPOUND_CID>
441926

> <PUBCHEM_COMPOUND_CANONICALIZED>
1

> <PUBCHEM_CACTVS_COMPLEXITY>
679

> <PUBCHEM_CACTVS_HBOND_ACCEPTOR>
7

> <PUBCHEM_CACTVS_HBOND_DONOR>
4

> <PUBCHEM_CACTVS_ROTATABLE_BOND>
6

> <PUBCHEM_CACTVS_SUBSKEYS>
AAADceB4OAAAAAAAAAAAAAAAAAAAASAAAAAwYAAAAAAAAEgB/AAAGgAACAAADQSAmAACBsAABkCIAoBQAAACCAAkIAAAiAEECMgMJzaONBqCeWCl4BUIuQfK7PzOoAACCAAIAABAAAQQABAAAAAAAAAAAA==

> <PUBCHEM_IUPAC_OPENEYE_NAME>
2-methyl-1-[1,3,7,9-tetrahydroxy-2,8-dimethyl-6-(3-methylbutanoyl)dibenzofuran-4-yl]butan-1-one

> <PUBCHEM_IUPAC_CAS_NAME>
2-methyl-1-[1,3,7,9-tetrahydroxy-2,8-dimethyl-6-(3-methyl-1-oxobutyl)-4-dibenzofuranyl]-1-butanone

> <PUBCHEM_IUPAC_NAME>
2-methyl-1-[1,3,7,9-tetrahydroxy-2,8-dimethyl-6-(3-methylbutanoyl)dibenzofuran-4-yl]butan-1-one

> <PUBCHEM_IUPAC_SYSTEMATIC_NAME>
1-[2,8-dimethyl-6-(3-methylbutanoyl)-1,3,7,9-tetrakis(oxidanyl)dibenzofuran-4-yl]-2-methyl-butan-1-one

> <PUBCHEM_IUPAC_TRADITIONAL_NAME>
2-methyl-1-(1,3,7,9-tetrahydroxy-6-isovaleryl-2,8-dimethyl-dibenzofuran-4-yl)butan-1-one

> <PUBCHEM_IUPAC_INCHI>
InChI=1S/C24H28O7/c1-7-10(4)18(26)17-22(30)12(6)21(29)16-15-20(28)11(5)19(27)14(13(25)8-9(2)3)23(15)31-24(16)17/h9-10,27-30H,7-8H2,1-6H3

> <PUBCHEM_IUPAC_INCHIKEY>
VQBYYZVWUPSKDT-UHFFFAOYSA-N

> <PUBCHEM_XLOGP3_AA>
6.1

> <PUBCHEM_EXACT_MASS>
428.183503

> <PUBCHEM_MOLECULAR_FORMULA>
C24H28O7

> <PUBCHEM_MOLECULAR_WEIGHT>
428.47492

> <PUBCHEM_OPENEYE_CAN_SMILES>
CCC(C)C(=O)C1=C(C(=C(C2=C1OC3=C2C(=C(C(=C3C(=O)CC(C)C)O)C)O)O)C)O

> <PUBCHEM_OPENEYE_ISO_SMILES>
CCC(C)C(=O)C1=C(C(=C(C2=C1OC3=C2C(=C(C(=C3C(=O)CC(C)C)O)C)O)O)C)O

> <PUBCHEM_CACTVS_TPSA>
128

> <PUBCHEM_MONOISOTOPIC_WEIGHT>
428.183503

> <PUBCHEM_TOTAL_CHARGE>
0

> <PUBCHEM_HEAVY_ATOM_COUNT>
31

> <PUBCHEM_ATOM_DEF_STEREO_COUNT>
0

> <PUBCHEM_ATOM_UDEF_STEREO_COUNT>
1

> <PUBCHEM_BOND_DEF_STEREO_COUNT>
0

> <PUBCHEM_BOND_UDEF_STEREO_COUNT>
0

> <PUBCHEM_ISOTOPIC_ATOM_COUNT>
0

> <PUBCHEM_COMPONENT_COUNT>
1

> <PUBCHEM_CACTVS_TAUTO_COUNT>
441

> <PUBCHEM_COORDINATE_TYPE>
1
5
255

> <PUBCHEM_BONDANNOTATIONS>
1  10  8
1  11  8
10  12  8
11  13  8
12  19  8
13  21  8
14  26  3
15  18  8
16  20  8
18  19  8
20  21  8
8  10  8
8  15  8
8  9  8
9  11  8
9  16  8

$$$$

