5280699
  -OEChem-07051212493D

 42 44  0     0  0  0  0  0  0999 V2000
    0.2101    0.8454    0.0561 O   0  0  0  0  0  0  0  0  0  0  0  0
    1.6213   -2.5282    0.5203 O   0  0  0  0  0  0  0  0  0  0  0  0
   -5.2424   -0.0230   -0.0781 O   0  0  0  0  0  0  0  0  0  0  0  0
   -4.2055    2.5277   -0.3247 O   0  0  0  0  0  0  0  0  0  0  0  0
   -3.5799   -2.1618    0.2369 O   0  0  0  0  0  0  0  0  0  0  0  0
   -1.1210   -2.9864    0.4436 O   0  0  0  0  0  0  0  0  0  0  0  0
    5.2607    0.7122   -2.1279 O   0  0  0  0  0  0  0  0  0  0  0  0
    6.4790    1.4030    0.2731 O   0  0  0  0  0  0  0  0  0  0  0  0
   -1.6531   -0.7073    0.1530 C   0  0  0  0  0  0  0  0  0  0  0  0
   -1.1345    0.5797    0.0282 C   0  0  0  0  0  0  0  0  0  0  0  0
    1.0908   -0.2146    0.2032 C   0  0  0  0  0  0  0  0  0  0  0  0
    0.7203   -1.5006    0.3426 C   0  0  0  0  0  0  0  0  0  0  0  0
   -0.7241   -1.8351    0.3231 C   0  0  0  0  0  0  0  0  0  0  0  0
   -3.0338   -0.9182    0.1185 C   0  0  0  0  0  0  0  0  0  0  0  0
    2.5023    0.2087    0.2180 C   0  0  0  0  0  0  0  0  0  0  0  0
   -1.9949    1.6662   -0.1317 C   0  0  0  0  0  0  0  0  0  0  0  0
   -3.8922    0.1701   -0.0422 C   0  0  0  0  0  0  0  0  0  0  0  0
   -3.3740    1.4598   -0.1670 C   0  0  0  0  0  0  0  0  0  0  0  0
    3.2274    0.2630   -0.9727 C   0  0  0  0  0  0  0  0  0  0  0  0
    3.1145    0.5553    1.4229 C   0  0  0  0  0  0  0  0  0  0  0  0
    4.5634    0.6635   -0.9586 C   0  0  0  0  0  0  0  0  0  0  0  0
    4.4504    0.9558    1.4371 C   0  0  0  0  0  0  0  0  0  0  0  0
    5.1749    1.0099    0.2462 C   0  0  0  0  0  0  0  0  0  0  0  0
    2.0231   -3.0665   -0.7250 C   0  0  0  0  0  0  0  0  0  0  0  0
   -5.8276   -0.2582   -1.3562 C   0  0  0  0  0  0  0  0  0  0  0  0
   -4.6552    3.1793    0.8614 C   0  0  0  0  0  0  0  0  0  0  0  0
   -1.5924    2.6714   -0.2298 H   0  0  0  0  0  0  0  0  0  0  0  0
    2.7568    0.0053   -1.9190 H   0  0  0  0  0  0  0  0  0  0  0  0
    2.5625    0.5185    2.3590 H   0  0  0  0  0  0  0  0  0  0  0  0
    4.9210    1.2245    2.3789 H   0  0  0  0  0  0  0  0  0  0  0  0
   -2.8880   -2.8336    0.3312 H   0  0  0  0  0  0  0  0  0  0  0  0
    2.5435   -2.3391   -1.3511 H   0  0  0  0  0  0  0  0  0  0  0  0
    1.1677   -3.4795   -1.2716 H   0  0  0  0  0  0  0  0  0  0  0  0
    2.7176   -3.8888   -0.5274 H   0  0  0  0  0  0  0  0  0  0  0  0
   -5.6679    0.5997   -2.0169 H   0  0  0  0  0  0  0  0  0  0  0  0
   -6.9035   -0.3976   -1.2197 H   0  0  0  0  0  0  0  0  0  0  0  0
   -5.4130   -1.1635   -1.8105 H   0  0  0  0  0  0  0  0  0  0  0  0
   -5.2191    2.4854    1.4927 H   0  0  0  0  0  0  0  0  0  0  0  0
   -5.3142    4.0023    0.5714 H   0  0  0  0  0  0  0  0  0  0  0  0
   -3.8069    3.5896    1.4184 H   0  0  0  0  0  0  0  0  0  0  0  0
    6.0165    1.3140   -2.0334 H   0  0  0  0  0  0  0  0  0  0  0  0
    6.9377    1.0693   -0.5147 H   0  0  0  0  0  0  0  0  0  0  0  0
  1 10  1  0  0  0  0
  1 11  1  0  0  0  0
  2 12  1  0  0  0  0
  2 24  1  0  0  0  0
  3 17  1  0  0  0  0
  3 25  1  0  0  0  0
  4 18  1  0  0  0  0
  4 26  1  0  0  0  0
  5 14  1  0  0  0  0
  5 31  1  0  0  0  0
  6 13  2  0  0  0  0
  7 21  1  0  0  0  0
  7 41  1  0  0  0  0
  8 23  1  0  0  0  0
  8 42  1  0  0  0  0
  9 10  1  0  0  0  0
  9 13  1  0  0  0  0
  9 14  2  0  0  0  0
 10 16  2  0  0  0  0
 11 12  2  0  0  0  0
 11 15  1  0  0  0  0
 12 13  1  0  0  0  0
 14 17  1  0  0  0  0
 15 19  2  0  0  0  0
 15 20  1  0  0  0  0
 16 18  1  0  0  0  0
 16 27  1  0  0  0  0
 17 18  2  0  0  0  0
 19 21  1  0  0  0  0
 19 28  1  0  0  0  0
 20 22  2  0  0  0  0
 20 29  1  0  0  0  0
 21 23  2  0  0  0  0
 22 23  1  0  0  0  0
 22 30  1  0  0  0  0
 24 32  1  0  0  0  0
 24 33  1  0  0  0  0
 24 34  1  0  0  0  0
 25 35  1  0  0  0  0
 25 36  1  0  0  0  0
 25 37  1  0  0  0  0
 26 38  1  0  0  0  0
 26 39  1  0  0  0  0
 26 40  1  0  0  0  0
M  END
> <PUBCHEM_COMPOUND_CID>
5280699

> <PUBCHEM_CONFORMER_RMSD>
0.8

> <PUBCHEM_CONFORMER_DIVERSEORDER>
1
4
6
2
3
8
7
5

> <PUBCHEM_MMFF94_PARTIAL_CHARGES>
33
1 -0.16
10 0.08
11 0.05
12 0.09
13 0.47
14 0.08
15 0.03
16 -0.15
17 0.08
18 0.08
19 -0.15
2 -0.36
20 -0.15
21 0.08
22 -0.15
23 0.08
24 0.28
25 0.28
26 0.28
27 0.15
28 0.15
29 0.15
3 -0.36
30 0.15
31 0.45
4 -0.36
41 0.45
42 0.45
5 -0.53
6 -0.57
7 -0.53
8 -0.53
9 0.09

> <PUBCHEM_EFFECTIVE_ROTOR_COUNT>
4

> <PUBCHEM_PHARMACOPHORE_FEATURES>
11
1 1 acceptor
1 2 acceptor
1 3 acceptor
1 4 acceptor
1 5 donor
1 6 acceptor
1 7 donor
1 8 donor
6 1 9 10 11 12 13 rings
6 15 19 20 21 22 23 rings
6 9 10 14 16 17 18 rings

> <PUBCHEM_HEAVY_ATOM_COUNT>
26

> <PUBCHEM_ATOM_DEF_STEREO_COUNT>
0

> <PUBCHEM_ATOM_UDEF_STEREO_COUNT>
0

> <PUBCHEM_BOND_DEF_STEREO_COUNT>
0

> <PUBCHEM_BOND_UDEF_STEREO_COUNT>
0

> <PUBCHEM_ISOTOPIC_ATOM_COUNT>
0

> <PUBCHEM_COMPONENT_COUNT>
1

> <PUBCHEM_CACTVS_TAUTO_COUNT>
57

> <PUBCHEM_CONFORMER_ID>
005093BB00000001

> <PUBCHEM_MMFF94_ENERGY>
108.7637

> <PUBCHEM_FEATURE_SELFOVERLAP>
55.859

> <PUBCHEM_SHAPE_FINGERPRINT>
10366900 7 18334303041613831977
10411042 1 17619629077394528035
10498660 4 18409448119831746016
10591671 39 18272647914064441967
10670039 82 18343014528081077172
10906281 52 18131339817786890145
11963148 33 18270125582867781579
12236239 1 17560807576820353984
12390115 104 18262226824650962769
12403259 415 18114182995629496624
12596602 18 16630525094283072216
12788726 201 17342082703438442386
13140716 1 17908701735534877043
13540713 5 18120670269274028003
14341114 328 17489874825673815424
14790565 3 18412819170874639636
14840074 17 17274529971325809212
15131766 46 16055460645049190134
15196674 1 18338801242530640531
1601671 61 18343300383861112764
173720 79 18131083618655696034
17980427 23 17846212224619906068
18608769 82 18338230467352930803
200 152 14779257610168753408
20645477 70 16732973242032811396
20691752 17 17488738024944945731
21033648 29 17676780802910955872
21279426 13 18261669393656150382
22122407 14 16128654154420325589
22182313 1 18267279028582394003
22393880 68 18041276646938763462
23366157 5 17915461807932337066
23402539 116 18339932502013577206
23559900 14 18263643974658496344
23569914 152 16667953857778786045
23569917 315 18272936028734597546
25147074 1 18339935929671870427
34797466 226 17749667398577686732
350125 39 18412544289279019601
469060 322 18269534084502789393
474 4 17703789223672971866
5104073 3 18269552913655102835
5265222 85 18192424183639031830
633830 44 18192153922136330271
7808743 9 18413388730882508176
8863177 126 6338088122797523853
9981440 41 18272367563979234619

> <PUBCHEM_SHAPE_MULTIPOLES>
488.11
12.96
2.94
1.14
2.99
1.07
0.26
-7.76
2.4
-2.06
-0.41
1.17
-0.21
-0.1

> <PUBCHEM_SHAPE_SELFOVERLAP>
1074.842

> <PUBCHEM_SHAPE_VOLUME>
263

> <PUBCHEM_COORDINATE_TYPE>
2
5
10

$$$$

