3938
  -OEChem-06251223462D

 51 54  0     1  0  0  0  0  0999 V2000
    5.4641    2.6286    0.0000 O   0  0  0  0  0  0  0  0  0  0  0  0
    7.2719    0.6217    0.0000 N   0  0  3  0  0  0  0  0  0  0  0  0
    4.6038    1.1253    0.0000 N   0  0  0  0  0  0  0  0  0  0  0  0
    8.2599   -3.5685    0.0000 N   0  0  0  0  0  0  0  0  0  0  0  0
    3.7320    2.6219    0.0000 N   0  0  0  0  0  0  0  0  0  0  0  0
    7.2558   -0.4198    0.0000 C   0  0  3  0  0  0  0  0  0  0  0  0
    6.3898   -0.9198    0.0000 C   0  0  0  0  0  0  0  0  0  0  0  0
    8.1219   -0.9198    0.0000 C   0  0  0  0  0  0  0  0  0  0  0  0
    5.4718    0.6286    0.0000 C   0  0  3  0  0  0  0  0  0  0  0  0
    6.3739    1.1494    0.0000 C   0  0  0  0  0  0  0  0  0  0  0  0
    8.1219   -1.9198    0.0000 C   0  0  0  0  0  0  0  0  0  0  0  0
    6.3898   -1.9198    0.0000 C   0  0  0  0  0  0  0  0  0  0  0  0
    7.2558   -2.4198    0.0000 C   0  0  0  0  0  0  0  0  0  0  0  0
    5.4798   -0.4130    0.0000 C   0  0  0  0  0  0  0  0  0  0  0  0
    7.2719   -3.4613    0.0000 C   0  0  0  0  0  0  0  0  0  0  0  0
    8.1436    1.1116    0.0000 C   0  0  0  0  0  0  0  0  0  0  0  0
    8.7398   -2.6982    0.0000 C   0  0  0  0  0  0  0  0  0  0  0  0
    5.4798   -2.4267    0.0000 C   0  0  0  0  0  0  0  0  0  0  0  0
    6.3739   -3.9891    0.0000 C   0  0  0  0  0  0  0  0  0  0  0  0
    5.4718   -3.4683    0.0000 C   0  0  0  0  0  0  0  0  0  0  0  0
    4.6000    2.1253    0.0000 C   0  0  0  0  0  0  0  0  0  0  0  0
    3.7282    3.6219    0.0000 C   0  0  0  0  0  0  0  0  0  0  0  0
    2.8680    2.1186    0.0000 C   0  0  0  0  0  0  0  0  0  0  0  0
    2.0000    2.6152    0.0000 C   0  0  0  0  0  0  0  0  0  0  0  0
    2.8602    4.1186    0.0000 C   0  0  0  0  0  0  0  0  0  0  0  0
    7.7952   -0.1140    0.0000 H   0  0  0  0  0  0  0  0  0  0  0  0
    8.7324   -1.0275    0.0000 H   0  0  0  0  0  0  0  0  0  0  0  0
    8.3339   -0.3372    0.0000 H   0  0  0  0  0  0  0  0  0  0  0  0
    5.4706    1.2486    0.0000 H   0  0  0  0  0  0  0  0  0  0  0  0
    6.7748    1.6223    0.0000 H   0  0  0  0  0  0  0  0  0  0  0  0
    5.9766    1.6254    0.0000 H   0  0  0  0  0  0  0  0  0  0  0  0
    4.9465   -0.7292    0.0000 H   0  0  0  0  0  0  0  0  0  0  0  0
    8.4474    0.5711    0.0000 H   0  0  0  0  0  0  0  0  0  0  0  0
    8.6841    1.4154    0.0000 H   0  0  0  0  0  0  0  0  0  0  0  0
    7.8399    1.6521    0.0000 H   0  0  0  0  0  0  0  0  0  0  0  0
    9.3576   -2.6465    0.0000 H   0  0  0  0  0  0  0  0  0  0  0  0
    4.0681    0.8132    0.0000 H   0  0  0  0  0  0  0  0  0  0  0  0
    4.9465   -2.1105    0.0000 H   0  0  0  0  0  0  0  0  0  0  0  0
    8.5459   -4.1186    0.0000 H   0  0  0  0  0  0  0  0  0  0  0  0
    6.3762   -4.6091    0.0000 H   0  0  0  0  0  0  0  0  0  0  0  0
    4.9337   -3.7762    0.0000 H   0  0  0  0  0  0  0  0  0  0  0  0
    4.3392    3.5166    0.0000 H   0  0  0  0  0  0  0  0  0  0  0  0
    3.9380    4.2053    0.0000 H   0  0  0  0  0  0  0  0  0  0  0  0
    2.4712    1.6421    0.0000 H   0  0  0  0  0  0  0  0  0  0  0  0
    3.2683    1.6452    0.0000 H   0  0  0  0  0  0  0  0  0  0  0  0
    2.3079    3.1534    0.0000 H   0  0  0  0  0  0  0  0  0  0  0  0
    3.1682    4.6567    0.0000 H   0  0  0  0  0  0  0  0  0  0  0  0
    2.3221    4.4265    0.0000 H   0  0  0  0  0  0  0  0  0  0  0  0
    2.5523    3.5804    0.0000 H   0  0  0  0  0  0  0  0  0  0  0  0
    1.4619    2.9232    0.0000 H   0  0  0  0  0  0  0  0  0  0  0  0
    1.6921    2.0771    0.0000 H   0  0  0  0  0  0  0  0  0  0  0  0
  1 21  2  0  0  0  0
  2  6  1  0  0  0  0
  2 10  1  0  0  0  0
  2 16  1  0  0  0  0
  3  9  1  0  0  0  0
  3 21  1  0  0  0  0
  3 37  1  0  0  0  0
  4 15  1  0  0  0  0
  4 17  1  0  0  0  0
  4 39  1  0  0  0  0
  5 21  1  0  0  0  0
  5 22  1  0  0  0  0
  5 23  1  0  0  0  0
  6  7  1  0  0  0  0
  6  8  1  0  0  0  0
  6 26  1  0  0  0  0
  7 12  1  0  0  0  0
  7 14  2  0  0  0  0
  8 11  1  0  0  0  0
  8 27  1  0  0  0  0
  8 28  1  0  0  0  0
  9 10  1  0  0  0  0
  9 14  1  0  0  0  0
  9 29  1  0  0  0  0
 10 30  1  0  0  0  0
 10 31  1  0  0  0  0
 11 13  1  0  0  0  0
 11 17  2  0  0  0  0
 12 13  2  0  0  0  0
 12 18  1  0  0  0  0
 13 15  1  0  0  0  0
 14 32  1  0  0  0  0
 15 19  2  0  0  0  0
 16 33  1  0  0  0  0
 16 34  1  0  0  0  0
 16 35  1  0  0  0  0
 17 36  1  0  0  0  0
 18 20  2  0  0  0  0
 18 38  1  0  0  0  0
 19 20  1  0  0  0  0
 19 40  1  0  0  0  0
 20 41  1  0  0  0  0
 22 25  1  0  0  0  0
 22 42  1  0  0  0  0
 22 43  1  0  0  0  0
 23 24  1  0  0  0  0
 23 44  1  0  0  0  0
 23 45  1  0  0  0  0
 24 46  1  0  0  0  0
 24 50  1  0  0  0  0
 24 51  1  0  0  0  0
 25 47  1  0  0  0  0
 25 48  1  0  0  0  0
 25 49  1  0  0  0  0
M  END
> <PUBCHEM_COMPOUND_CID>
3938

> <PUBCHEM_COMPOUND_CANONICALIZED>
1

> <PUBCHEM_CACTVS_COMPLEXITY>
544

> <PUBCHEM_CACTVS_HBOND_ACCEPTOR>
2

> <PUBCHEM_CACTVS_HBOND_DONOR>
2

> <PUBCHEM_CACTVS_ROTATABLE_BOND>
3

> <PUBCHEM_CACTVS_SUBSKEYS>
AAADceB7oAAAAAAAAAAAAAAAAAAAAWAAAAAwYIAAAAAAAFjB8AAAHgAQAAAADCjBHgQ/wPPJkACoAzRnVACCgCAxAiAI2aA4ZJiIYOLAkZGUIAholgLIyAcQgMAOgAAAQAASAAAQAASAACQAAAAAAAAAAA==

> <PUBCHEM_IUPAC_OPENEYE_NAME>
1,1-diethyl-3-(7-methyl-6,6a,8,9-tetrahydro-4H-indolo[4,3-fg]quinoline-9-yl)urea

> <PUBCHEM_IUPAC_CAS_NAME>
1,1-diethyl-3-(7-methyl-6,6a,8,9-tetrahydro-4H-indolo[4,3-fg]quinoline-9-yl)urea

> <PUBCHEM_IUPAC_NAME>
1,1-diethyl-3-(7-methyl-6,6a,8,9-tetrahydro-4H-indolo[4,3-fg]quinoline-9-yl)urea

> <PUBCHEM_IUPAC_SYSTEMATIC_NAME>
1,1-diethyl-3-(7-methyl-6,6a,8,9-tetrahydro-4H-indolo[4,3-fg]quinoline-9-yl)urea

> <PUBCHEM_IUPAC_TRADITIONAL_NAME>
1,1-diethyl-3-(7-methyl-6,6a,8,9-tetrahydro-4H-indolo[4,3-fg]quinoline-9-yl)urea

> <PUBCHEM_IUPAC_INCHI>
InChI=1S/C20H26N4O/c1-4-24(5-2)20(25)22-14-10-16-15-7-6-8-17-19(15)13(11-21-17)9-18(16)23(3)12-14/h6-8,10-11,14,18,21H,4-5,9,12H2,1-3H3,(H,22,25)

> <PUBCHEM_IUPAC_INCHIKEY>
BKRGVLQUQGGVSM-UHFFFAOYSA-N

> <PUBCHEM_XLOGP3>
2.7

> <PUBCHEM_EXACT_MASS>
338.210661

> <PUBCHEM_MOLECULAR_FORMULA>
C20H26N4O

> <PUBCHEM_MOLECULAR_WEIGHT>
338.44664

> <PUBCHEM_OPENEYE_CAN_SMILES>
CCN(CC)C(=O)NC1CN(C2CC3=CNC4=CC=CC(=C34)C2=C1)C

> <PUBCHEM_OPENEYE_ISO_SMILES>
CCN(CC)C(=O)NC1CN(C2CC3=CNC4=CC=CC(=C34)C2=C1)C

> <PUBCHEM_CACTVS_TPSA>
51.4

> <PUBCHEM_MONOISOTOPIC_WEIGHT>
338.210661

> <PUBCHEM_TOTAL_CHARGE>
0

> <PUBCHEM_HEAVY_ATOM_COUNT>
25

> <PUBCHEM_ATOM_DEF_STEREO_COUNT>
0

> <PUBCHEM_ATOM_UDEF_STEREO_COUNT>
2

> <PUBCHEM_BOND_DEF_STEREO_COUNT>
0

> <PUBCHEM_BOND_UDEF_STEREO_COUNT>
0

> <PUBCHEM_ISOTOPIC_ATOM_COUNT>
0

> <PUBCHEM_COMPONENT_COUNT>
1

> <PUBCHEM_CACTVS_TAUTO_COUNT>
4

> <PUBCHEM_COORDINATE_TYPE>
1
5
255

> <PUBCHEM_BONDANNOTATIONS>
11  13  8
11  17  8
12  13  8
12  18  8
13  15  8
15  19  8
18  20  8
19  20  8
9  3  3
4  15  8
4  17  8
6  8  3

$$$$

