104996
  -OEChem-07051213153D

 42 44  0     1  0  0  0  0  0999 V2000
    5.3928    0.5142   -0.0494 S   0  0  0  0  0  0  0  0  0  0  0  0
   -1.7002    2.5409   -1.5292 O   0  0  0  0  0  0  0  0  0  0  0  0
   -0.2488    0.7390   -1.7968 O   0  0  0  0  0  0  0  0  0  0  0  0
    1.6333   -0.3959    0.8209 O   0  0  0  0  0  0  0  0  0  0  0  0
    3.0966   -1.5096   -0.5564 O   0  0  0  0  0  0  0  0  0  0  0  0
    6.2482   -0.3366    1.0483 O   0  0  0  0  0  0  0  0  0  0  0  0
    5.4599   -0.2002   -1.3108 O   0  0  0  0  0  0  0  0  0  0  0  0
    5.8310    1.8954    0.0304 O   0  0  0  0  0  0  0  0  0  0  0  0
   -2.4562   -0.8906   -0.7290 N   0  0  0  0  0  0  0  0  0  0  0  0
   -1.9982    0.9176    1.9955 N   0  0  0  0  0  0  0  0  0  0  0  0
   -3.3467    1.2308    0.2042 N   0  0  0  0  0  0  0  0  0  0  0  0
   -1.6156   -2.0617    1.1559 N   0  0  0  0  0  0  0  0  0  0  0  0
   -3.2397   -3.0175   -0.2046 N   0  0  0  0  0  0  0  0  0  0  0  0
   -4.0108    2.0193    2.3601 N   0  0  0  0  0  0  0  0  0  0  0  0
    3.7882    0.4360    0.5394 N   0  0  0  0  0  0  0  0  0  0  0  0
   -2.1318    0.4598   -0.2632 C   0  0  1  0  0  0  0  0  0  0  0  0
   -1.1531    0.4090    0.9400 C   0  0  2  0  0  0  0  0  0  0  0  0
   -1.5956    1.1278   -1.5515 C   0  0  0  0  0  0  0  0  0  0  0  0
   -2.5237    0.5361   -2.6167 C   0  0  0  0  0  0  0  0  0  0  0  0
   -2.7196   -0.9144   -2.1648 C   0  0  0  0  0  0  0  0  0  0  0  0
   -0.6278   -0.9794    1.3246 C   0  0  2  0  0  0  0  0  0  0  0  0
   -2.3954   -1.9818    0.1157 C   0  0  0  0  0  0  0  0  0  0  0  0
   -3.1649    1.4002    1.4896 C   0  0  0  0  0  0  0  0  0  0  0  0
    0.6334   -1.3584    0.5470 C   0  0  0  0  0  0  0  0  0  0  0  0
    2.8446   -0.5801    0.2009 C   0  0  0  0  0  0  0  0  0  0  0  0
   -0.3381    1.1301    0.8144 H   0  0  0  0  0  0  0  0  0  0  0  0
   -2.1099    0.5852   -3.6290 H   0  0  0  0  0  0  0  0  0  0  0  0
   -3.4858    1.0633   -2.6299 H   0  0  0  0  0  0  0  0  0  0  0  0
   -3.7334   -1.2566   -2.3939 H   0  0  0  0  0  0  0  0  0  0  0  0
   -1.9984   -1.5717   -2.6626 H   0  0  0  0  0  0  0  0  0  0  0  0
   -0.3574   -0.9519    2.3891 H   0  0  0  0  0  0  0  0  0  0  0  0
   -1.6755    1.0531    2.9461 H   0  0  0  0  0  0  0  0  0  0  0  0
    0.4388   -1.4100   -0.5298 H   0  0  0  0  0  0  0  0  0  0  0  0
    0.9822   -2.3462    0.8740 H   0  0  0  0  0  0  0  0  0  0  0  0
   -1.5188    2.8383   -0.6220 H   0  0  0  0  0  0  0  0  0  0  0  0
   -0.0944    0.7660   -2.7557 H   0  0  0  0  0  0  0  0  0  0  0  0
   -3.8822   -2.9677   -0.9866 H   0  0  0  0  0  0  0  0  0  0  0  0
   -3.2650   -3.8603    0.3592 H   0  0  0  0  0  0  0  0  0  0  0  0
   -3.7843    2.1070    3.3448 H   0  0  0  0  0  0  0  0  0  0  0  0
   -4.8946    2.4077    2.0494 H   0  0  0  0  0  0  0  0  0  0  0  0
    3.4968    1.1542    1.2144 H   0  0  0  0  0  0  0  0  0  0  0  0
    6.1780   -0.0157    1.9779 H   0  0  0  0  0  0  0  0  0  0  0  0
  1  6  1  0  0  0  0
  1  7  2  0  0  0  0
  1  8  2  0  0  0  0
  1 15  1  0  0  0  0
  2 18  1  0  0  0  0
  2 35  1  0  0  0  0
  3 18  1  0  0  0  0
  3 36  1  0  0  0  0
  4 24  1  0  0  0  0
  4 25  1  0  0  0  0
  5 25  2  0  0  0  0
  6 42  1  0  0  0  0
  9 16  1  0  0  0  0
  9 20  1  0  0  0  0
  9 22  1  0  0  0  0
 10 17  1  0  0  0  0
 10 23  1  0  0  0  0
 10 32  1  0  0  0  0
 11 16  1  0  0  0  0
 11 23  2  0  0  0  0
 12 21  1  0  0  0  0
 12 22  2  0  0  0  0
 13 22  1  0  0  0  0
 13 37  1  0  0  0  0
 13 38  1  0  0  0  0
 14 23  1  0  0  0  0
 14 39  1  0  0  0  0
 14 40  1  0  0  0  0
 15 25  1  0  0  0  0
 15 41  1  0  0  0  0
 16 17  1  0  0  0  0
 16 18  1  0  0  0  0
 17 21  1  0  0  0  0
 17 26  1  0  0  0  0
 18 19  1  0  0  0  0
 19 20  1  0  0  0  0
 19 27  1  0  0  0  0
 19 28  1  0  0  0  0
 20 29  1  0  0  0  0
 20 30  1  0  0  0  0
 21 24  1  0  0  0  0
 21 31  1  0  0  0  0
 24 33  1  0  0  0  0
 24 34  1  0  0  0  0
M  END
> <PUBCHEM_COMPOUND_CID>
104996

> <PUBCHEM_CONFORMER_RMSD>
0.8

> <PUBCHEM_CONFORMER_DIVERSEORDER>
36
21
24
25
31
52
47
65
9
46
73
84
14
68
74
59
71
82
35
67
40
43
6
45
27
87
85
19
88
3
11
50
83
18
72
5
26
13
33
70
54
77
16
64
10
56
20
55
38
4
51
76
62
63
2
79
37
39
30
49
42
53
12
22
61
86
7
80
60
44
34
15
89
29
23
41
32
57
8
69
75
58
48
90
81
78
1
17
66
28

> <PUBCHEM_MMFF94_PARTIAL_CHARGES>
33
1 1.62
10 -0.82
11 -0.7
12 -0.7
13 -0.85
14 -0.85
15 -0.79
16 0.62
17 0.37
18 0.56
2 -0.68
20 0.37
21 0.25
22 0.55
23 0.55
24 0.28
25 0.96
3 -0.68
32 0.4
35 0.4
36 0.4
37 0.4
38 0.4
39 0.4
4 -0.43
40 0.4
41 0.42
42 0.5
5 -0.57
6 -0.68
7 -0.65
8 -0.65
9 -0.79

> <PUBCHEM_EFFECTIVE_ROTOR_COUNT>
6

> <PUBCHEM_PHARMACOPHORE_FEATURES>
18
1 10 donor
1 13 donor
1 14 donor
1 15 donor
1 2 acceptor
1 2 donor
1 3 acceptor
1 3 donor
1 5 acceptor
1 6 acceptor
1 7 acceptor
1 8 acceptor
4 1 6 7 8 anion
4 10 11 14 23 cation
4 9 12 13 22 cation
5 10 11 16 17 23 rings
5 9 16 18 19 20 rings
6 9 12 16 17 21 22 rings

> <PUBCHEM_HEAVY_ATOM_COUNT>
25

> <PUBCHEM_ATOM_DEF_STEREO_COUNT>
3

> <PUBCHEM_ATOM_UDEF_STEREO_COUNT>
0

> <PUBCHEM_BOND_DEF_STEREO_COUNT>
0

> <PUBCHEM_BOND_UDEF_STEREO_COUNT>
0

> <PUBCHEM_ISOTOPIC_ATOM_COUNT>
0

> <PUBCHEM_COMPONENT_COUNT>
1

> <PUBCHEM_CACTVS_TAUTO_COUNT>
12

> <PUBCHEM_CONFORMER_ID>
00019A2400000024

> <PUBCHEM_MMFF94_ENERGY>
71.451

> <PUBCHEM_FEATURE_SELFOVERLAP>
91.937

> <PUBCHEM_SHAPE_FINGERPRINT>
107951 10 17023178379284806269
11315181 36 18409454648809153378
12035758 1 15769199687876836357
12173636 292 18261109729099684851
12403814 3 17704065209713107465
12633257 1 18272083894896441236
12714826 92 15285936748676609255
14142880 1 18341609322139807003
15163728 17 16373799214213533113
16945 1 17908468828533515831
17492 54 17201392670260852159
20600515 1 14475518648519814625
20645477 56 17988920111143189218
21623110 236 17915171322066558772
23227448 37 18260821609676952073
23352939 185 18058171609968362311
23419403 2 17976561420221624343
27216 239 17203330056460486701
469060 322 17417804007447589259
4921388 177 18260545615073203574
497634 4 18337667525445709150
5104073 3 12895076172557988356
633830 44 18259978289307418494
9981440 41 16629984199033928859

> <PUBCHEM_SHAPE_MULTIPOLES>
442.39
10.56
2.3
2.19
24.79
0.54
0.45
-2.57
-0.69
-2.2
-0.12
-2.69
-0.88
-0.76

> <PUBCHEM_SHAPE_SELFOVERLAP>
930.308

> <PUBCHEM_SHAPE_VOLUME>
250.8

> <PUBCHEM_COORDINATE_TYPE>
2
5
10

$$$$

