6732
  -OEChem-07051213133D

 31 32  0     0  0  0  0  0  0999 V2000
   -1.5400   -0.0216    1.7183 O   0  0  0  0  0  0  0  0  0  0  0  0
    0.0277    2.3726   -0.2680 O   0  0  0  0  0  0  0  0  0  0  0  0
    0.0238   -2.3657   -0.2796 O   0  0  0  0  0  0  0  0  0  0  0  0
   -3.1681    0.0046   -0.0847 C   0  0  0  0  0  0  0  0  0  0  0  0
   -0.5874    0.0045   -0.4387 C   0  0  0  0  0  0  0  0  0  0  0  0
   -1.7433    0.0019    0.5022 C   0  0  0  0  0  0  0  0  0  0  0  0
    0.3380    1.1962   -0.2728 C   0  0  0  0  0  0  0  0  0  0  0  0
    0.3363   -1.1898   -0.2792 C   0  0  0  0  0  0  0  0  0  0  0  0
   -3.3507   -1.2493   -0.9486 C   0  0  0  0  0  0  0  0  0  0  0  0
   -3.4086    1.2655   -0.9249 C   0  0  0  0  0  0  0  0  0  0  0  0
   -4.1940   -0.0222    1.0617 C   0  0  0  0  0  0  0  0  0  0  0  0
    1.7044    0.6975   -0.1111 C   0  0  0  0  0  0  0  0  0  0  0  0
    1.7035   -0.6940   -0.1149 C   0  0  0  0  0  0  0  0  0  0  0  0
    2.8706    1.4223    0.0394 C   0  0  0  0  0  0  0  0  0  0  0  0
    2.8686   -1.4212    0.0316 C   0  0  0  0  0  0  0  0  0  0  0  0
    4.0600    0.7035    0.1865 C   0  0  0  0  0  0  0  0  0  0  0  0
    4.0591   -0.7048    0.1827 C   0  0  0  0  0  0  0  0  0  0  0  0
   -0.9138    0.0108   -1.4830 H   0  0  0  0  0  0  0  0  0  0  0  0
   -2.7160   -1.2363   -1.8405 H   0  0  0  0  0  0  0  0  0  0  0  0
   -3.1021   -2.1559   -0.3848 H   0  0  0  0  0  0  0  0  0  0  0  0
   -4.3873   -1.3430   -1.2922 H   0  0  0  0  0  0  0  0  0  0  0  0
   -2.7551    1.3046   -1.8026 H   0  0  0  0  0  0  0  0  0  0  0  0
   -3.2142    2.1700   -0.3371 H   0  0  0  0  0  0  0  0  0  0  0  0
   -4.4427    1.3117   -1.2847 H   0  0  0  0  0  0  0  0  0  0  0  0
   -4.0879    0.8552    1.7104 H   0  0  0  0  0  0  0  0  0  0  0  0
   -4.0660   -0.9118    1.6894 H   0  0  0  0  0  0  0  0  0  0  0  0
   -5.2203   -0.0313    0.6778 H   0  0  0  0  0  0  0  0  0  0  0  0
    2.8741    2.5062    0.0453 H   0  0  0  0  0  0  0  0  0  0  0  0
    2.8707   -2.5051    0.0315 H   0  0  0  0  0  0  0  0  0  0  0  0
    4.9995    1.2366    0.3072 H   0  0  0  0  0  0  0  0  0  0  0  0
    4.9978   -1.2399    0.3004 H   0  0  0  0  0  0  0  0  0  0  0  0
  1  6  2  0  0  0  0
  2  7  2  0  0  0  0
  3  8  2  0  0  0  0
  4  6  1  0  0  0  0
  4  9  1  0  0  0  0
  4 10  1  0  0  0  0
  4 11  1  0  0  0  0
  5  6  1  0  0  0  0
  5  7  1  0  0  0  0
  5  8  1  0  0  0  0
  5 18  1  0  0  0  0
  7 12  1  0  0  0  0
  8 13  1  0  0  0  0
  9 19  1  0  0  0  0
  9 20  1  0  0  0  0
  9 21  1  0  0  0  0
 10 22  1  0  0  0  0
 10 23  1  0  0  0  0
 10 24  1  0  0  0  0
 11 25  1  0  0  0  0
 11 26  1  0  0  0  0
 11 27  1  0  0  0  0
 12 13  1  0  0  0  0
 12 14  2  0  0  0  0
 13 15  2  0  0  0  0
 14 16  1  0  0  0  0
 14 28  1  0  0  0  0
 15 17  1  0  0  0  0
 15 29  1  0  0  0  0
 16 17  2  0  0  0  0
 16 30  1  0  0  0  0
 17 31  1  0  0  0  0
M  END
> <PUBCHEM_COMPOUND_CID>
6732

> <PUBCHEM_CONFORMER_RMSD>
0.6

> <PUBCHEM_CONFORMER_DIVERSEORDER>
1
3
2

> <PUBCHEM_MMFF94_PARTIAL_CHARGES>
18
1 -0.57
12 0.09
13 0.09
14 -0.15
15 -0.15
16 -0.15
17 -0.15
2 -0.57
28 0.15
29 0.15
3 -0.57
30 0.15
31 0.15
4 0.06
5 0.18
6 0.45
7 0.42
8 0.42

> <PUBCHEM_EFFECTIVE_ROTOR_COUNT>
2.2

> <PUBCHEM_PHARMACOPHORE_FEATURES>
7
1 1 acceptor
1 2 acceptor
1 3 acceptor
1 5 anion
4 4 9 10 11 hydrophobe
5 5 7 8 12 13 rings
6 12 13 14 15 16 17 rings

> <PUBCHEM_HEAVY_ATOM_COUNT>
17

> <PUBCHEM_ATOM_DEF_STEREO_COUNT>
0

> <PUBCHEM_ATOM_UDEF_STEREO_COUNT>
0

> <PUBCHEM_BOND_DEF_STEREO_COUNT>
0

> <PUBCHEM_BOND_UDEF_STEREO_COUNT>
0

> <PUBCHEM_ISOTOPIC_ATOM_COUNT>
0

> <PUBCHEM_COMPONENT_COUNT>
1

> <PUBCHEM_CACTVS_TAUTO_COUNT>
3

> <PUBCHEM_CONFORMER_ID>
00001A4C00000001

> <PUBCHEM_MMFF94_ENERGY>
44.7535

> <PUBCHEM_FEATURE_SELFOVERLAP>
35.601

> <PUBCHEM_SHAPE_FINGERPRINT>
10062212 137 18409175411067532395
10219947 1 18410853265410429556
10967382 1 18410576193155141950
10980938 120 18411703162519312766
11132069 177 18260276256362518230
11471102 20 18411423916783577180
11578080 2 17316802946629822169
12032990 46 18342172288930114990
12236239 1 17748827419228258735
124424 183 17775289365130864569
13140716 1 18266745675875460698
13296908 3 18272932743194170385
13464514 151 17771360939414206357
13675066 3 18273214196601235449
14251717 144 18409453578550166670
14993402 34 18336266760427192678
15196674 1 18410578383240160436
15219456 202 18272090534530596749
15309172 13 18409164419913951534
15375358 24 18060422395926951768
15536298 74 18259985968339691622
15653759 3 17346593067353680697
15775835 57 18260263031947080861
15848702 151 17532362257163455430
16945 1 18410285909432492316
18186145 218 18187080654746554940
200 152 18187373112577049349
20645477 70 18337961197924228151
21267235 1 18409441479622265942
21501502 16 18051976110658211304
23184049 59 18410288112239025184
23402539 116 18334023791335215486
23402655 69 18335142015792862092
23463225 33 18411700989170824588
23493267 7 17632580482518365008
23559900 14 17417813997799930402
2748010 2 18122068873565181772
296302 2 18409166597435873408
5104073 3 18410014320900831155
633830 44 17704076208913206365
69090 78 18409453548448667079
77492 1 17676489445182334847
81228 2 17914321639875014068

> <PUBCHEM_SHAPE_MULTIPOLES>
332.24
7.48
1.84
0.96
0.5
0.01
-0.22
0.02
-0.54
-0.45
0.34
0.88
-0.01
0.01

> <PUBCHEM_SHAPE_SELFOVERLAP>
718.132

> <PUBCHEM_SHAPE_VOLUME>
185.1

> <PUBCHEM_COORDINATE_TYPE>
2
5
10

$$$$

