4837166
  -OEChem-07051213092D

 52 55  0     1  0  0  0  0  0999 V2000
    3.1377   -1.0326    0.0000 O   0  0  0  0  0  0  0  0  0  0  0  0
    3.3730   -2.7431    0.0000 O   0  0  0  0  0  0  0  0  0  0  0  0
    2.8991    0.0127    0.0000 O   0  0  0  0  0  0  0  0  0  0  0  0
    2.3689    1.6559    0.0000 O   0  0  0  0  0  0  0  0  0  0  0  0
    3.6460    3.2573    0.0000 O   0  0  0  0  0  0  0  0  0  0  0  0
    7.6714   -1.0336    0.0000 N   0  0  3  0  0  0  0  0  0  0  0  0
    6.8031   -0.5703    0.0000 C   0  0  3  0  0  0  0  0  0  0  0  0
    5.9021   -1.0041    0.0000 C   0  0  0  0  0  0  0  0  0  0  0  0
    7.0256    0.4047    0.0000 C   0  0  0  0  0  0  0  0  0  0  0  0
    5.9959   -2.0415    0.0000 C   0  0  0  0  0  0  0  0  0  0  0  0
    7.6967   -2.0175    0.0000 C   0  0  0  0  0  0  0  0  0  0  0  0
    6.8533   -2.5248    0.0000 C   0  0  0  0  0  0  0  0  0  0  0  0
    5.0011   -0.5703    0.0000 C   0  0  0  0  0  0  0  0  0  0  0  0
    6.4021    1.1865    0.0000 C   0  0  0  0  0  0  0  0  0  0  0  0
    4.7786    0.4047    0.0000 C   0  0  0  0  0  0  0  0  0  0  0  0
    5.4021    1.1865    0.0000 C   0  0  0  0  0  0  0  0  0  0  0  0
    5.1399   -2.6349    0.0000 C   0  0  0  0  0  0  0  0  0  0  0  0
    8.5222   -0.5082    0.0000 C   0  0  0  0  0  0  0  0  0  0  0  0
    4.1316   -1.1437    0.0000 C   0  0  0  0  0  0  0  0  0  0  0  0
    4.2014   -2.1830    0.0000 C   0  0  0  0  0  0  0  0  0  0  0  0
    3.7463    0.5440    0.0000 C   0  0  0  0  0  0  0  0  0  0  0  0
    5.0365    2.1619    0.0000 C   0  0  0  0  0  0  0  0  0  0  0  0
    3.3583    1.5107    0.0000 C   0  0  0  0  0  0  0  0  0  0  0  0
    4.0078    2.3251    0.0000 C   0  0  0  0  0  0  0  0  0  0  0  0
    3.4439   -3.7406    0.0000 C   0  0  0  0  0  0  0  0  0  0  0  0
    2.0154    0.4809    0.0000 C   0  0  0  0  0  0  0  0  0  0  0  0
    2.0000    2.5854    0.0000 C   0  0  0  0  0  0  0  0  0  0  0  0
    7.3671   -0.3129    0.0000 H   0  0  0  0  0  0  0  0  0  0  0  0
    7.5842    0.1357    0.0000 H   0  0  0  0  0  0  0  0  0  0  0  0
    7.4122    0.8894    0.0000 H   0  0  0  0  0  0  0  0  0  0  0  0
    7.9206   -2.5956    0.0000 H   0  0  0  0  0  0  0  0  0  0  0  0
    8.3046   -1.8957    0.0000 H   0  0  0  0  0  0  0  0  0  0  0  0
    6.4609   -3.0049    0.0000 H   0  0  0  0  0  0  0  0  0  0  0  0
    7.2591   -2.9936    0.0000 H   0  0  0  0  0  0  0  0  0  0  0  0
    6.9607    1.4555    0.0000 H   0  0  0  0  0  0  0  0  0  0  0  0
    6.2641    1.7910    0.0000 H   0  0  0  0  0  0  0  0  0  0  0  0
    5.1886   -3.2530    0.0000 H   0  0  0  0  0  0  0  0  0  0  0  0
    8.8480   -1.0358    0.0000 H   0  0  0  0  0  0  0  0  0  0  0  0
    9.0498   -0.1825    0.0000 H   0  0  0  0  0  0  0  0  0  0  0  0
    8.1965    0.0193    0.0000 H   0  0  0  0  0  0  0  0  0  0  0  0
    5.4287    2.6421    0.0000 H   0  0  0  0  0  0  0  0  0  0  0  0
    2.7700   -1.5318    0.0000 H   0  0  0  0  0  0  0  0  0  0  0  0
    4.0344    3.7406    0.0000 H   0  0  0  0  0  0  0  0  0  0  0  0
    2.8254   -3.7845    0.0000 H   0  0  0  0  0  0  0  0  0  0  0  0
    3.4878   -4.3590    0.0000 H   0  0  0  0  0  0  0  0  0  0  0  0
    4.0623   -3.6966    0.0000 H   0  0  0  0  0  0  0  0  0  0  0  0
    2.3057    1.0288    0.0000 H   0  0  0  0  0  0  0  0  0  0  0  0
    1.4676    0.7711    0.0000 H   0  0  0  0  0  0  0  0  0  0  0  0
    1.7252   -0.0670    0.0000 H   0  0  0  0  0  0  0  0  0  0  0  0
    2.5763    2.8141    0.0000 H   0  0  0  0  0  0  0  0  0  0  0  0
    1.7713    3.1616    0.0000 H   0  0  0  0  0  0  0  0  0  0  0  0
    1.4237    2.3566    0.0000 H   0  0  0  0  0  0  0  0  0  0  0  0
  1 19  1  0  0  0  0
  1 42  1  0  0  0  0
  2 20  1  0  0  0  0
  2 25  1  0  0  0  0
  3 21  1  0  0  0  0
  3 26  1  0  0  0  0
  4 23  1  0  0  0  0
  4 27  1  0  0  0  0
  5 24  1  0  0  0  0
  5 43  1  0  0  0  0
  6  7  1  0  0  0  0
  6 11  1  0  0  0  0
  6 18  1  0  0  0  0
  7  8  1  0  0  0  0
  7  9  1  0  0  0  0
  7 28  1  0  0  0  0
  8 10  1  0  0  0  0
  8 13  2  0  0  0  0
  9 14  1  0  0  0  0
  9 29  1  0  0  0  0
  9 30  1  0  0  0  0
 10 12  1  0  0  0  0
 10 17  2  0  0  0  0
 11 12  1  0  0  0  0
 11 31  1  0  0  0  0
 11 32  1  0  0  0  0
 12 33  1  0  0  0  0
 12 34  1  0  0  0  0
 13 15  1  0  0  0  0
 13 19  1  0  0  0  0
 14 16  1  0  0  0  0
 14 35  1  0  0  0  0
 14 36  1  0  0  0  0
 15 16  1  0  0  0  0
 15 21  2  0  0  0  0
 16 22  2  0  0  0  0
 17 20  1  0  0  0  0
 17 37  1  0  0  0  0
 18 38  1  0  0  0  0
 18 39  1  0  0  0  0
 18 40  1  0  0  0  0
 19 20  2  0  0  0  0
 21 23  1  0  0  0  0
 22 24  1  0  0  0  0
 22 41  1  0  0  0  0
 23 24  2  0  0  0  0
 25 44  1  0  0  0  0
 25 45  1  0  0  0  0
 25 46  1  0  0  0  0
 26 47  1  0  0  0  0
 26 48  1  0  0  0  0
 26 49  1  0  0  0  0
 27 50  1  0  0  0  0
 27 51  1  0  0  0  0
 27 52  1  0  0  0  0
M  END
> <PUBCHEM_COMPOUND_CID>
4837166

> <PUBCHEM_COMPOUND_CANONICALIZED>
1

> <PUBCHEM_CACTVS_COMPLEXITY>
519

> <PUBCHEM_CACTVS_HBOND_ACCEPTOR>
6

> <PUBCHEM_CACTVS_HBOND_DONOR>
2

> <PUBCHEM_CACTVS_ROTATABLE_BOND>
3

> <PUBCHEM_CACTVS_SUBSKEYS>
AAADceB6OAAAAAAAAAAAAAAAAAAAAAAAAAA8YIAABgAAAACxQAAAHgAACAAADCzBmAYyBoMABgCAAiBCAACCCAAgIAAAiAAOjIgNJyKGsRuEcCtlwBWLuAfw8P8OoAADCAAYQABAAAYQADCAAAAAAAAAAA==

> <PUBCHEM_IUPAC_INCHI>
InChI=1S/C21H25NO5/c1-22-8-7-12-10-15(25-2)19(24)18-16(12)13(22)6-5-11-9-14(23)20(26-3)21(27-4)17(11)18/h9-10,13,23-24H,5-8H2,1-4H3

> <PUBCHEM_IUPAC_INCHIKEY>
MITMOIGRCVEHJP-UHFFFAOYSA-N

> <PUBCHEM_XLOGP3_AA>
3

> <PUBCHEM_EXACT_MASS>
371.173273

> <PUBCHEM_MOLECULAR_FORMULA>
C21H25NO5

> <PUBCHEM_MOLECULAR_WEIGHT>
371.4269

> <PUBCHEM_OPENEYE_CAN_SMILES>
CN1CCC2=CC(=C(C3=C2C1CCC4=CC(=C(C(=C43)OC)OC)O)O)OC

> <PUBCHEM_OPENEYE_ISO_SMILES>
CN1CCC2=CC(=C(C3=C2C1CCC4=CC(=C(C(=C43)OC)OC)O)O)OC

> <PUBCHEM_CACTVS_TPSA>
71.4

> <PUBCHEM_MONOISOTOPIC_WEIGHT>
371.173273

> <PUBCHEM_TOTAL_CHARGE>
0

> <PUBCHEM_HEAVY_ATOM_COUNT>
27

> <PUBCHEM_ATOM_DEF_STEREO_COUNT>
0

> <PUBCHEM_ATOM_UDEF_STEREO_COUNT>
1

> <PUBCHEM_BOND_DEF_STEREO_COUNT>
0

> <PUBCHEM_BOND_UDEF_STEREO_COUNT>
0

> <PUBCHEM_ISOTOPIC_ATOM_COUNT>
0

> <PUBCHEM_COMPONENT_COUNT>
1

> <PUBCHEM_CACTVS_TAUTO_COUNT>
67

> <PUBCHEM_COORDINATE_TYPE>
1
5
255

> <PUBCHEM_BONDANNOTATIONS>
10  17  8
13  19  8
15  16  8
15  21  8
16  22  8
17  20  8
19  20  8
21  23  8
22  24  8
23  24  8
7  9  3
8  10  8
8  13  8

$$$$

