9568617
  -OEChem-07051212523D

 45 46  0     1  0  0  0  0  0999 V2000
    4.7523    0.5142   -0.7211 S   0  0  0  0  0  0  0  0  0  0  0  0
   -4.6631    3.1077    0.0265 S   0  0  0  0  0  0  0  0  0  0  0  0
    2.6806    2.9109   -1.4030 O   0  0  0  0  0  0  0  0  0  0  0  0
    5.6057    1.5908   -0.1840 O   0  5  0  0  0  0  0  0  0  0  0  0
    4.7212    0.4814   -2.1954 O   0  0  0  0  0  0  0  0  0  0  0  0
    5.0373   -0.8021   -0.1193 O   0  0  0  0  0  0  0  0  0  0  0  0
   -0.6888    0.6570    2.2639 O   0  0  0  0  0  0  0  0  0  0  0  0
   -0.8968   -1.7098    0.2621 O   0  0  0  0  0  0  0  0  0  0  0  0
    0.2783   -5.0430   -0.2874 O   0  0  0  0  0  0  0  0  0  0  0  0
    1.1665   -3.2480    0.7650 O   0  0  0  0  0  0  0  0  0  0  0  0
    3.1837    0.8995   -0.2428 N   0  0  0  0  0  0  0  0  0  0  0  0
    0.1763    1.2435    0.1637 N   0  0  0  0  0  0  0  0  0  0  0  0
   -2.0675   -0.9990   -0.0367 N   0  0  0  0  0  0  0  0  0  0  0  0
   -4.2464    0.6142   -0.5135 N   0  0  0  0  0  0  0  0  0  0  0  0
   -6.4265    1.3804   -1.2433 N   0  3  0  0  0  0  0  0  0  0  0  0
    2.5170    0.7581    1.0696 C   0  0  2  0  0  0  0  0  0  0  0  0
    1.4643    1.7875    0.6056 C   0  0  1  0  0  0  0  0  0  0  0  0
    2.4580    2.0671   -0.5664 C   0  0  0  0  0  0  0  0  0  0  0  0
    3.4637    1.1310    2.1978 C   0  0  0  0  0  0  0  0  0  0  0  0
   -0.7539    0.7396    1.0479 C   0  0  0  0  0  0  0  0  0  0  0  0
   -1.9962    0.2360    0.3595 C   0  0  0  0  0  0  0  0  0  0  0  0
   -1.0590   -3.0411   -0.2020 C   0  0  0  0  0  0  0  0  0  0  0  0
   -3.1422    1.1174    0.1141 C   0  0  0  0  0  0  0  0  0  0  0  0
   -1.2712   -2.9924   -1.7122 C   0  0  0  0  0  0  0  0  0  0  0  0
   -2.2474   -3.6560    0.5314 C   0  0  0  0  0  0  0  0  0  0  0  0
   -3.1575    2.4277    0.4868 C   0  0  0  0  0  0  0  0  0  0  0  0
    0.2378   -3.7583    0.1497 C   0  0  0  0  0  0  0  0  0  0  0  0
   -5.1263    1.5856   -0.6164 C   0  0  0  0  0  0  0  0  0  0  0  0
    2.1240   -0.2568    1.2072 H   0  0  0  0  0  0  0  0  0  0  0  0
    1.3360    2.6474    1.2717 H   0  0  0  0  0  0  0  0  0  0  0  0
    2.9161    1.1689    3.1456 H   0  0  0  0  0  0  0  0  0  0  0  0
    3.9222    2.1140    2.0456 H   0  0  0  0  0  0  0  0  0  0  0  0
    4.2600    0.3891    2.3132 H   0  0  0  0  0  0  0  0  0  0  0  0
   -0.0538    1.2317   -0.8274 H   0  0  0  0  0  0  0  0  0  0  0  0
   -0.4622   -2.4359   -2.2004 H   0  0  0  0  0  0  0  0  0  0  0  0
   -2.2098   -2.5021   -1.9926 H   0  0  0  0  0  0  0  0  0  0  0  0
   -1.2907   -3.9987   -2.1448 H   0  0  0  0  0  0  0  0  0  0  0  0
   -3.1992   -3.1824    0.2672 H   0  0  0  0  0  0  0  0  0  0  0  0
   -2.3423   -4.7240    0.3065 H   0  0  0  0  0  0  0  0  0  0  0  0
   -2.1296   -3.5540    1.6169 H   0  0  0  0  0  0  0  0  0  0  0  0
   -2.4059    3.0218    0.9872 H   0  0  0  0  0  0  0  0  0  0  0  0
   -7.1936    1.6717   -0.6236 H   0  0  0  0  0  0  0  0  0  0  0  0
   -6.5138    1.9196   -2.1145 H   0  0  0  0  0  0  0  0  0  0  0  0
   -6.5798    0.3910   -1.4776 H   0  0  0  0  0  0  0  0  0  0  0  0
    1.1217   -5.4839   -0.0496 H   0  0  0  0  0  0  0  0  0  0  0  0
  1  4  1  0  0  0  0
  1  5  2  0  0  0  0
  1  6  2  0  0  0  0
  1 11  1  0  0  0  0
  2 26  1  0  0  0  0
  2 28  1  0  0  0  0
  3 18  2  0  0  0  0
  7 20  2  0  0  0  0
  8 13  1  0  0  0  0
  8 22  1  0  0  0  0
  9 27  1  0  0  0  0
  9 45  1  0  0  0  0
 10 27  2  0  0  0  0
 11 16  1  0  0  0  0
 11 18  1  0  0  0  0
 12 17  1  0  0  0  0
 12 20  1  0  0  0  0
 12 34  1  0  0  0  0
 13 21  2  0  0  0  0
 14 23  1  0  0  0  0
 14 28  2  0  0  0  0
 15 28  1  0  0  0  0
 15 42  1  0  0  0  0
 15 43  1  0  0  0  0
 15 44  1  0  0  0  0
 16 17  1  0  0  0  0
 16 19  1  0  0  0  0
 16 29  1  0  0  0  0
 17 18  1  0  0  0  0
 17 30  1  0  0  0  0
 19 31  1  0  0  0  0
 19 32  1  0  0  0  0
 19 33  1  0  0  0  0
 20 21  1  0  0  0  0
 21 23  1  0  0  0  0
 22 24  1  0  0  0  0
 22 25  1  0  0  0  0
 22 27  1  0  0  0  0
 23 26  2  0  0  0  0
 24 35  1  0  0  0  0
 24 36  1  0  0  0  0
 24 37  1  0  0  0  0
 25 38  1  0  0  0  0
 25 39  1  0  0  0  0
 25 40  1  0  0  0  0
 26 41  1  0  0  0  0
M  CHG  2   4  -1  15   1
M  END
> <PUBCHEM_COMPOUND_CID>
9568617

> <PUBCHEM_CONFORMER_RMSD>
1

> <PUBCHEM_CONFORMER_DIVERSEORDER>
1
166
140
217
105
197
182
212
159
108
144
169
227
206
196
189
186
63
136
163
97
209
230
161
150
143
213
92
93
111
128
127
215
152
176
102
149
191
181
200
114
33
228
96
85
190
203
133
214
167
173
80
208
223
234
225
146
125
232
194
90
68
49
113
180
110
40
142
141
160
58
184
148
168
77
195
229
38
124
59
41
155
224
101
37
179
201
131
126
204
84
130
202
57
210
89
120
129
137
36
156
54
48
44
73
76
95
187
139
177
62
66
115
138
162
185
153
32
236
122
192
119
193
220
219
207
35
172
145
221
211
198
23
154
235
53
183
98
171
21
135
222
22
51
170
218
164
233
20
64
231
70
123
112
61
94
116
86
69
158
205
71
83
55
178
151
60
13
87
18
107
56
199
134
42
52
109
175
121
118
45
39
27
65
103
99
31
157
5
7
19
91
50
165
47
226
30
104
10
16
147
17
28
14
12
46
174
24
74
26
72
88
34
29
81
100
79
11
188
43
106
3
2
75
216
15
132
25
4
67
117
8
78
6
82
9

> <PUBCHEM_MMFF94_PARTIAL_CHARGES>
31
1 1.59
10 -0.57
11 -0.68
12 -0.65
13 -0.51
14 -0.57
15 -0.66
16 0.31
17 0.28
18 0.75
2 -0.08
20 0.63
21 0.54
22 0.34
23 0.14
26 -0.11
27 0.66
28 0.69
3 -0.57
34 0.37
4 -0.82
41 0.15
42 0.45
43 0.45
44 0.45
45 0.5
5 -0.82
6 -0.82
7 -0.57
8 -0.22
9 -0.65

> <PUBCHEM_EFFECTIVE_ROTOR_COUNT>
8.6

> <PUBCHEM_PHARMACOPHORE_FEATURES>
16
1 10 acceptor
1 12 donor
1 13 acceptor
1 15 donor
1 3 acceptor
1 4 acceptor
1 5 acceptor
1 6 acceptor
1 7 acceptor
1 9 acceptor
3 14 15 28 cation
3 22 24 25 hydrophobe
3 9 10 27 anion
4 1 4 5 6 anion
4 11 16 17 18 rings
5 2 14 23 26 28 rings

> <PUBCHEM_HEAVY_ATOM_COUNT>
28

> <PUBCHEM_ATOM_DEF_STEREO_COUNT>
2

> <PUBCHEM_ATOM_UDEF_STEREO_COUNT>
0

> <PUBCHEM_BOND_DEF_STEREO_COUNT>
1

> <PUBCHEM_BOND_UDEF_STEREO_COUNT>
0

> <PUBCHEM_ISOTOPIC_ATOM_COUNT>
0

> <PUBCHEM_COMPONENT_COUNT>
1

> <PUBCHEM_CACTVS_TAUTO_COUNT>
4

> <PUBCHEM_CONFORMER_ID>
0092016900000001

> <PUBCHEM_MMFF94_ENERGY>
48.7384

> <PUBCHEM_FEATURE_SELFOVERLAP>
81.322

> <PUBCHEM_SHAPE_FINGERPRINT>
10190108 129 18265053540903954455
10366900 7 17095234818346231560
107951 10 18408601444275311431
10940486 97 18270113497140254628
12156800 1 15361126868516893638
12553582 1 17401206672877580907
12788726 201 17838621054613074699
133893 2 17975118053417276617
13583140 156 17532937095755488168
138480 1 17618222153476492811
14114207 22 18127134293459571574
14117953 113 18123755515823370206
14725015 67 18047191856747078050
15439362 3 18124315162614533801
15775530 1 17463706277255868105
16752209 62 18265621978532967042
167882 2 18196087970034186043
18785283 64 18125430059136683953
19309040 13 16340848830956222062
20642791 178 17901954372383469601
20775438 99 17106255017385858149
21344244 181 17458346317179071727
21344244 246 18264772236855530271
21781051 124 18341608180021430363
22849339 104 18264751199936578422
22907989 373 18052821347621843389
23366157 5 17982453995224586115
23559900 14 18041280959566418280
23598288 3 17986101912416961457
3298306 158 18335985345775332767
338550 245 18411987944267640798
340366 18 18272645710493440660
38695281 34 18339922731136934985
4015057 19 16732983085676283144
4017518 198 18187929530070720126
532947 4 18193268817851910551
5385378 56 18192424397723362697
633830 44 16987709101047438868

> <PUBCHEM_SHAPE_MULTIPOLES>
512.07
10.91
5.31
1.5
0.43
8.2
0.12
-10.51
-4.06
2.08
-0.41
-1.15
-0.35
-0.16

> <PUBCHEM_SHAPE_SELFOVERLAP>
1044.357

> <PUBCHEM_SHAPE_VOLUME>
298.7

> <PUBCHEM_COORDINATE_TYPE>
2
5
10

$$$$

