5281842
  -OEChem-07051213002D

 31 34  0     0  0  0  0  0  0999 V2000
    8.0944    1.3150    0.0000 O   0  0  0  0  0  0  0  0  0  0  0  0
    6.4144   -1.9411    0.0000 O   0  0  0  0  0  0  0  0  0  0  0  0
    4.6660   -1.9065    0.0000 O   0  0  0  0  0  0  0  0  0  0  0  0
    4.6660    1.0935    0.0000 N   0  0  0  0  0  0  0  0  0  0  0  0
    5.5321    0.5935    0.0000 C   0  0  0  0  0  0  0  0  0  0  0  0
    5.5321   -0.4065    0.0000 C   0  0  0  0  0  0  0  0  0  0  0  0
    6.4260    1.1281    0.0000 C   0  0  0  0  0  0  0  0  0  0  0  0
    3.8000    0.5935    0.0000 C   0  0  0  0  0  0  0  0  0  0  0  0
    3.8000   -0.4065    0.0000 C   0  0  0  0  0  0  0  0  0  0  0  0
    4.6660   -0.9065    0.0000 C   0  0  0  0  0  0  0  0  0  0  0  0
    7.3321    0.6143    0.0000 C   0  0  0  0  0  0  0  0  0  0  0  0
    6.4260   -0.9412    0.0000 C   0  0  0  0  0  0  0  0  0  0  0  0
    7.3321   -0.4274    0.0000 C   0  0  0  0  0  0  0  0  0  0  0  0
    4.6660    2.0935    0.0000 C   0  0  0  0  0  0  0  0  0  0  0  0
    6.6361    2.1420    0.0000 C   0  0  0  0  0  0  0  0  0  0  0  0
    2.9061    1.1281    0.0000 C   0  0  0  0  0  0  0  0  0  0  0  0
    2.9061   -0.9412    0.0000 C   0  0  0  0  0  0  0  0  0  0  0  0
    7.6651    2.2573    0.0000 C   0  0  0  0  0  0  0  0  0  0  0  0
    2.0000    0.6143    0.0000 C   0  0  0  0  0  0  0  0  0  0  0  0
    2.0000   -0.4274    0.0000 C   0  0  0  0  0  0  0  0  0  0  0  0
    7.8678   -0.7394    0.0000 H   0  0  0  0  0  0  0  0  0  0  0  0
    5.2860    2.0935    0.0000 H   0  0  0  0  0  0  0  0  0  0  0  0
    4.6660    2.7135    0.0000 H   0  0  0  0  0  0  0  0  0  0  0  0
    4.0460    2.0935    0.0000 H   0  0  0  0  0  0  0  0  0  0  0  0
    6.2185    2.6003    0.0000 H   0  0  0  0  0  0  0  0  0  0  0  0
    2.9132    1.7481    0.0000 H   0  0  0  0  0  0  0  0  0  0  0  0
    2.9132   -1.5612    0.0000 H   0  0  0  0  0  0  0  0  0  0  0  0
    7.9710    2.7966    0.0000 H   0  0  0  0  0  0  0  0  0  0  0  0
    1.4643    0.9263    0.0000 H   0  0  0  0  0  0  0  0  0  0  0  0
    1.4643   -0.7394    0.0000 H   0  0  0  0  0  0  0  0  0  0  0  0
    6.9478   -2.2573    0.0000 H   0  0  0  0  0  0  0  0  0  0  0  0
  1 11  1  0  0  0  0
  1 18  1  0  0  0  0
  2 12  1  0  0  0  0
  2 31  1  0  0  0  0
  3 10  2  0  0  0  0
  4  5  1  0  0  0  0
  4  8  1  0  0  0  0
  4 14  1  0  0  0  0
  5  6  2  0  0  0  0
  5  7  1  0  0  0  0
  6 10  1  0  0  0  0
  6 12  1  0  0  0  0
  7 11  2  0  0  0  0
  7 15  1  0  0  0  0
  8  9  1  0  0  0  0
  8 16  2  0  0  0  0
  9 10  1  0  0  0  0
  9 17  2  0  0  0  0
 11 13  1  0  0  0  0
 12 13  2  0  0  0  0
 13 21  1  0  0  0  0
 14 22  1  0  0  0  0
 14 23  1  0  0  0  0
 14 24  1  0  0  0  0
 15 18  2  0  0  0  0
 15 25  1  0  0  0  0
 16 19  1  0  0  0  0
 16 26  1  0  0  0  0
 17 20  1  0  0  0  0
 17 27  1  0  0  0  0
 18 28  1  0  0  0  0
 19 20  2  0  0  0  0
 19 29  1  0  0  0  0
 20 30  1  0  0  0  0
M  END
> <PUBCHEM_COMPOUND_CID>
5281842

> <PUBCHEM_COMPOUND_CANONICALIZED>
1

> <PUBCHEM_CACTVS_COMPLEXITY>
413

> <PUBCHEM_CACTVS_HBOND_ACCEPTOR>
4

> <PUBCHEM_CACTVS_HBOND_DONOR>
1

> <PUBCHEM_CACTVS_ROTATABLE_BOND>
0

> <PUBCHEM_CACTVS_SUBSKEYS>
AAADccB6MAAAAAAAAAAAAAAAAAAAASAAAAA8YIAAAAAAAEix9AAAHgAACAAADAyhmAYyxsMABkCIAqxSwACCCAAlIgAIiAEObMgMJ37GtZuGeejn4B3I+ce8///+IAACCgAKAABAAAQUABQAAAAAAAAAAA==

> <PUBCHEM_IUPAC_OPENEYE_NAME>
5-hydroxy-11-methyl-furo[2,3-c]acridin-6-one

> <PUBCHEM_IUPAC_CAS_NAME>
5-hydroxy-11-methyl-6-furo[2,3-c]acridinone

> <PUBCHEM_IUPAC_NAME>
5-hydroxy-11-methylfuro[2,3-c]acridin-6-one

> <PUBCHEM_IUPAC_SYSTEMATIC_NAME>
11-methyl-5-oxidanyl-furo[2,3-c]acridin-6-one

> <PUBCHEM_IUPAC_TRADITIONAL_NAME>
5-hydroxy-11-methyl-fur[2,3-c]acridin-6-one

> <PUBCHEM_IUPAC_INCHI>
InChI=1S/C16H11NO3/c1-17-11-5-3-2-4-9(11)16(19)14-12(18)8-13-10(15(14)17)6-7-20-13/h2-8,18H,1H3

> <PUBCHEM_IUPAC_INCHIKEY>
ZFFUGPKCSIVPEI-UHFFFAOYSA-N

> <PUBCHEM_XLOGP3_AA>
3.7

> <PUBCHEM_EXACT_MASS>
265.073893

> <PUBCHEM_MOLECULAR_FORMULA>
C16H11NO3

> <PUBCHEM_MOLECULAR_WEIGHT>
265.26344

> <PUBCHEM_OPENEYE_CAN_SMILES>
CN1C2=CC=CC=C2C(=O)C3=C(C=C4C(=C31)C=CO4)O

> <PUBCHEM_OPENEYE_ISO_SMILES>
CN1C2=CC=CC=C2C(=O)C3=C(C=C4C(=C31)C=CO4)O

> <PUBCHEM_CACTVS_TPSA>
53.7

> <PUBCHEM_MONOISOTOPIC_WEIGHT>
265.073893

> <PUBCHEM_TOTAL_CHARGE>
0

> <PUBCHEM_HEAVY_ATOM_COUNT>
20

> <PUBCHEM_ATOM_DEF_STEREO_COUNT>
0

> <PUBCHEM_ATOM_UDEF_STEREO_COUNT>
0

> <PUBCHEM_BOND_DEF_STEREO_COUNT>
0

> <PUBCHEM_BOND_UDEF_STEREO_COUNT>
0

> <PUBCHEM_ISOTOPIC_ATOM_COUNT>
0

> <PUBCHEM_COMPONENT_COUNT>
1

> <PUBCHEM_CACTVS_TAUTO_COUNT>
5

> <PUBCHEM_COORDINATE_TYPE>
1
5
255

> <PUBCHEM_BONDANNOTATIONS>
1  11  8
1  18  8
11  13  8
12  13  8
15  18  8
16  19  8
17  20  8
19  20  8
4  5  8
4  8  8
5  6  8
5  7  8
6  10  8
6  12  8
7  11  8
7  15  8
8  16  8
8  9  8
9  10  8
9  17  8

$$$$

