442675
  -OEChem-07051212593D

 53 57  0     1  0  0  0  0  0999 V2000
   -0.3480    1.0695    0.4185 O   0  0  0  0  0  0  0  0  0  0  0  0
    4.4037    0.2975    0.5778 O   0  0  0  0  0  0  0  0  0  0  0  0
   -1.3608    1.9996   -2.1111 O   0  0  0  0  0  0  0  0  0  0  0  0
    2.7683    4.2839   -1.4257 O   0  0  0  0  0  0  0  0  0  0  0  0
    5.2232   -1.6257    1.5056 O   0  0  0  0  0  0  0  0  0  0  0  0
   -1.5390   -3.9805   -0.0772 O   0  0  0  0  0  0  0  0  0  0  0  0
   -4.2968   -1.8293   -0.4433 O   0  0  0  0  0  0  0  0  0  0  0  0
    0.1182   -4.8302   -2.1407 O   0  0  0  0  0  0  0  0  0  0  0  0
   -6.4138   -0.5349    0.8094 O   0  0  0  0  0  0  0  0  0  0  0  0
    1.7591   -0.6151    1.2720 C   0  0  2  0  0  0  0  0  0  0  0  0
   -1.2913    2.8630   -0.9758 C   0  0  1  0  0  0  0  0  0  0  0  0
    1.9838    0.6949    0.5541 C   0  0  0  0  0  0  0  0  0  0  0  0
   -1.3930    2.0462    0.3167 C   0  0  1  0  0  0  0  0  0  0  0  0
    0.9198    1.5211    0.1495 C   0  0  0  0  0  0  0  0  0  0  0  0
    0.0400    3.6094   -0.9945 C   0  0  0  0  0  0  0  0  0  0  0  0
    1.1671    2.7222   -0.5353 C   0  0  0  0  0  0  0  0  0  0  0  0
    2.9888   -0.9753    2.1092 C   0  0  0  0  0  0  0  0  0  0  0  0
    3.2879    1.1036    0.2671 C   0  0  0  0  0  0  0  0  0  0  0  0
    2.4907    3.1121   -0.7845 C   0  0  0  0  0  0  0  0  0  0  0  0
    1.3151   -1.7468    0.3571 C   0  0  0  0  0  0  0  0  0  0  0  0
   -2.7356    1.3521    0.4474 C   0  0  0  0  0  0  0  0  0  0  0  0
    3.5527    2.3020   -0.3915 C   0  0  0  0  0  0  0  0  0  0  0  0
    4.2910   -0.8411    1.3650 C   0  0  0  0  0  0  0  0  0  0  0  0
    0.0793   -2.3534    0.5588 C   0  0  0  0  0  0  0  0  0  0  0  0
    2.1485   -2.1679   -0.6743 C   0  0  0  0  0  0  0  0  0  0  0  0
   -2.9062    0.0660   -0.0623 C   0  0  0  0  0  0  0  0  0  0  0  0
   -3.7963    2.0022    1.0761 C   0  0  0  0  0  0  0  0  0  0  0  0
   -0.3272   -3.3915   -0.2793 C   0  0  0  0  0  0  0  0  0  0  0  0
    1.7421   -3.2060   -1.5126 C   0  0  0  0  0  0  0  0  0  0  0  0
   -4.1409   -0.5718    0.0572 C   0  0  0  0  0  0  0  0  0  0  0  0
   -5.0310    1.3645    1.1955 C   0  0  0  0  0  0  0  0  0  0  0  0
    0.5041   -3.8178   -1.3151 C   0  0  0  0  0  0  0  0  0  0  0  0
   -5.2033    0.0775    0.6861 C   0  0  0  0  0  0  0  0  0  0  0  0
    0.9592   -0.4455    2.0077 H   0  0  0  0  0  0  0  0  0  0  0  0
   -2.1112    3.5857   -1.0643 H   0  0  0  0  0  0  0  0  0  0  0  0
   -1.2830    2.7142    1.1835 H   0  0  0  0  0  0  0  0  0  0  0  0
   -0.0141    4.4751   -0.3235 H   0  0  0  0  0  0  0  0  0  0  0  0
    0.2245    3.9569   -2.0180 H   0  0  0  0  0  0  0  0  0  0  0  0
    2.9070   -2.0004    2.4905 H   0  0  0  0  0  0  0  0  0  0  0  0
    3.0620   -0.3099    2.9796 H   0  0  0  0  0  0  0  0  0  0  0  0
    4.5763    2.5973   -0.6050 H   0  0  0  0  0  0  0  0  0  0  0  0
   -2.2819    1.7027   -2.2011 H   0  0  0  0  0  0  0  0  0  0  0  0
   -0.5695   -2.0227    1.3659 H   0  0  0  0  0  0  0  0  0  0  0  0
    3.1110   -1.7066   -0.8648 H   0  0  0  0  0  0  0  0  0  0  0  0
   -2.0898   -0.4420   -0.5682 H   0  0  0  0  0  0  0  0  0  0  0  0
   -3.6750    3.0058    1.4747 H   0  0  0  0  0  0  0  0  0  0  0  0
    1.9913    4.8643   -1.4327 H   0  0  0  0  0  0  0  0  0  0  0  0
    2.3929   -3.5317   -2.3196 H   0  0  0  0  0  0  0  0  0  0  0  0
   -5.8548    1.8759    1.6860 H   0  0  0  0  0  0  0  0  0  0  0  0
   -1.9786   -3.5510    0.6767 H   0  0  0  0  0  0  0  0  0  0  0  0
   -3.4565   -2.1208   -0.8370 H   0  0  0  0  0  0  0  0  0  0  0  0
   -0.7623   -5.1347   -1.8602 H   0  0  0  0  0  0  0  0  0  0  0  0
   -6.3532   -1.4168    0.4027 H   0  0  0  0  0  0  0  0  0  0  0  0
  1 13  1  0  0  0  0
  1 14  1  0  0  0  0
  2 18  1  0  0  0  0
  2 23  1  0  0  0  0
  3 11  1  0  0  0  0
  3 42  1  0  0  0  0
  4 19  1  0  0  0  0
  4 47  1  0  0  0  0
  5 23  2  0  0  0  0
  6 28  1  0  0  0  0
  6 50  1  0  0  0  0
  7 30  1  0  0  0  0
  7 51  1  0  0  0  0
  8 32  1  0  0  0  0
  8 52  1  0  0  0  0
  9 33  1  0  0  0  0
  9 53  1  0  0  0  0
 10 12  1  0  0  0  0
 10 17  1  0  0  0  0
 10 20  1  0  0  0  0
 10 34  1  0  0  0  0
 11 13  1  0  0  0  0
 11 15  1  0  0  0  0
 11 35  1  0  0  0  0
 12 14  1  0  0  0  0
 12 18  2  0  0  0  0
 13 21  1  0  0  0  0
 13 36  1  0  0  0  0
 14 16  2  0  0  0  0
 15 16  1  0  0  0  0
 15 37  1  0  0  0  0
 15 38  1  0  0  0  0
 16 19  1  0  0  0  0
 17 23  1  0  0  0  0
 17 39  1  0  0  0  0
 17 40  1  0  0  0  0
 18 22  1  0  0  0  0
 19 22  2  0  0  0  0
 20 24  2  0  0  0  0
 20 25  1  0  0  0  0
 21 26  2  0  0  0  0
 21 27  1  0  0  0  0
 22 41  1  0  0  0  0
 24 28  1  0  0  0  0
 24 43  1  0  0  0  0
 25 29  2  0  0  0  0
 25 44  1  0  0  0  0
 26 30  1  0  0  0  0
 26 45  1  0  0  0  0
 27 31  2  0  0  0  0
 27 46  1  0  0  0  0
 28 32  2  0  0  0  0
 29 32  1  0  0  0  0
 29 48  1  0  0  0  0
 30 33  2  0  0  0  0
 31 33  1  0  0  0  0
 31 49  1  0  0  0  0
M  END
> <PUBCHEM_COMPOUND_CID>
442675

> <PUBCHEM_CONFORMER_RMSD>
0.8

> <PUBCHEM_CONFORMER_DIVERSEORDER>
1
19
20
13
9
24
26
5
21
32
16
4
18
8
22
10
6
25
23
12
2
17
7
31
30
14
11
15
29
3
27
28

> <PUBCHEM_MMFF94_PARTIAL_CHARGES>
46
1 -0.36
10 0.29
11 0.28
12 -0.14
13 0.42
14 0.08
15 0.14
16 -0.14
17 0.06
18 0.08
19 0.08
2 -0.23
20 -0.14
21 -0.14
22 -0.15
23 0.66
24 -0.15
25 -0.15
26 -0.15
27 -0.15
28 0.08
29 -0.15
3 -0.68
30 0.08
31 -0.15
32 0.08
33 0.08
4 -0.53
41 0.15
42 0.4
43 0.15
44 0.15
45 0.15
46 0.15
47 0.45
48 0.15
49 0.15
5 -0.57
50 0.45
51 0.45
52 0.45
53 0.45
6 -0.53
7 -0.53
8 -0.53
9 -0.53

> <PUBCHEM_EFFECTIVE_ROTOR_COUNT>
3.4

> <PUBCHEM_PHARMACOPHORE_FEATURES>
14
1 1 acceptor
1 3 acceptor
1 3 donor
1 4 donor
1 5 acceptor
1 6 donor
1 7 donor
1 8 donor
1 9 donor
6 1 11 13 14 15 16 rings
6 12 14 16 18 19 22 rings
6 2 10 12 17 18 23 rings
6 20 24 25 28 29 32 rings
6 21 26 27 30 31 33 rings

> <PUBCHEM_HEAVY_ATOM_COUNT>
33

> <PUBCHEM_ATOM_DEF_STEREO_COUNT>
3

> <PUBCHEM_ATOM_UDEF_STEREO_COUNT>
0

> <PUBCHEM_BOND_DEF_STEREO_COUNT>
0

> <PUBCHEM_BOND_UDEF_STEREO_COUNT>
0

> <PUBCHEM_ISOTOPIC_ATOM_COUNT>
0

> <PUBCHEM_COMPONENT_COUNT>
1

> <PUBCHEM_CACTVS_TAUTO_COUNT>
584

> <PUBCHEM_CONFORMER_ID>
0006C13300000001

> <PUBCHEM_MMFF94_ENERGY>
101.5041

> <PUBCHEM_FEATURE_SELFOVERLAP>
71.107

> <PUBCHEM_SHAPE_FINGERPRINT>
10483366 6 18192402317486099758
10675989 125 16754385908676533279
1100329 8 18198063573718530304
11421498 54 17895747508215983288
11513181 2 18041831810085303311
12156800 1 16338314370264552678
12422481 6 18190473833730145794
12553582 1 18197772417837762593
12788726 201 16683157337421225540
13140716 1 18266467507549048234
14117953 113 18339370772331709767
14178342 30 18119248608454061944
14790565 3 18266448828773869869
14863182 85 18260543459115405594
15131766 46 14474403572553512004
15297060 5 17969206855040610714
15324884 4 17909305634139378712
15927050 60 17977380539084044956
15975801 100 17775273985470371748
16728300 4 17413898718282021978
1813 80 17702929461868663829
18681886 176 18409449159572573728
19301679 30 18271512170889506297
1979834 28 18334856168771416529
20028762 73 18333170570080413959
20737093 15 17829935038526918703
20739085 24 18413666924256401601
20764821 26 18336256847622088191
21033648 29 15285631127869157969
21197605 99 18054212247201292715
21796203 349 18054756659437574216
22113638 7 18266746783491745583
23559900 14 18191862538549001393
23929065 36 16892859523781595464
25222932 49 17631442389769238059
255183 313 18045814344965891178
338550 245 18335137596287286599
394071 54 18339352093941361537
563151 248 17313115163165571734
6287921 2 18261386810488576655

> <PUBCHEM_SHAPE_MULTIPOLES>
626.3
9.27
5.87
1.58
9.77
2.63
-0.16
-0.37
4.63
-2.48
-4.09
-0.86
0.48
-0.89

> <PUBCHEM_SHAPE_SELFOVERLAP>
1404.323

> <PUBCHEM_SHAPE_VOLUME>
326.9

> <PUBCHEM_COORDINATE_TYPE>
2
5
10

$$$$

