20056675
  -OEChem-07051213152D

 44 44  0     1  0  0  0  0  0999 V2000
    4.2690   -0.3450    0.0000 O   0  0  0  0  0  0  0  0  0  0  0  0
    6.0010   -0.3450    0.0000 O   0  0  0  0  0  0  0  0  0  0  0  0
    4.2690   -3.3450    0.0000 O   0  0  0  0  0  0  0  0  0  0  0  0
    6.0010   -2.3450    0.0000 O   0  0  0  0  0  0  0  0  0  0  0  0
    2.5369   -2.3450    0.0000 O   0  0  0  0  0  0  0  0  0  0  0  0
    7.7331    0.6550    0.0000 O   0  0  0  0  0  0  0  0  0  0  0  0
    2.5369    0.6550    0.0000 O   0  0  0  0  0  0  0  0  0  0  0  0
    5.1350    2.1550    0.0000 O   0  0  0  0  0  0  0  0  0  0  0  0
    6.0010    2.6550    0.0000 O   0  0  0  0  0  0  0  0  0  0  0  0
    7.7331    3.6550    0.0000 O   0  0  0  0  0  0  0  0  0  0  0  0
    4.2690   -2.3450    0.0000 C   0  0  2  0  0  0  0  0  0  0  0  0
    5.1350   -1.8450    0.0000 C   0  0  2  0  0  0  0  0  0  0  0  0
    3.4030   -1.8450    0.0000 C   0  0  1  0  0  0  0  0  0  0  0  0
    5.1350   -0.8450    0.0000 C   0  0  1  0  0  0  0  0  0  0  0  0
    3.4030   -0.8450    0.0000 C   0  0  1  0  0  0  0  0  0  0  0  0
    6.0010    0.6550    0.0000 C   0  0  2  0  0  0  0  0  0  0  0  0
    6.8671    1.1550    0.0000 C   0  0  2  0  0  0  0  0  0  0  0  0
    2.5369   -0.3450    0.0000 C   0  0  0  0  0  0  0  0  0  0  0  0
    5.1350    1.1550    0.0000 C   0  0  2  0  0  0  0  0  0  0  0  0
    6.8671    2.1550    0.0000 C   0  0  2  0  0  0  0  0  0  0  0  0
    4.2690    0.6550    0.0000 C   0  0  0  0  0  0  0  0  0  0  0  0
    7.7331    2.6550    0.0000 C   0  0  0  0  0  0  0  0  0  0  0  0
    4.8059   -2.6550    0.0000 H   0  0  0  0  0  0  0  0  0  0  0  0
    5.1350   -2.4650    0.0000 H   0  0  0  0  0  0  0  0  0  0  0  0
    3.4030   -2.4650    0.0000 H   0  0  0  0  0  0  0  0  0  0  0  0
    5.1350   -0.2250    0.0000 H   0  0  0  0  0  0  0  0  0  0  0  0
    3.4030   -0.2250    0.0000 H   0  0  0  0  0  0  0  0  0  0  0  0
    6.5380    0.3450    0.0000 H   0  0  0  0  0  0  0  0  0  0  0  0
    7.4040    1.4650    0.0000 H   0  0  0  0  0  0  0  0  0  0  0  0
    1.9264   -0.2373    0.0000 H   0  0  0  0  0  0  0  0  0  0  0  0
    2.3249   -0.9276    0.0000 H   0  0  0  0  0  0  0  0  0  0  0  0
    5.6720    1.4650    0.0000 H   0  0  0  0  0  0  0  0  0  0  0  0
    6.3301    1.8450    0.0000 H   0  0  0  0  0  0  0  0  0  0  0  0
    3.7320   -3.6550    0.0000 H   0  0  0  0  0  0  0  0  0  0  0  0
    6.0010   -2.9650    0.0000 H   0  0  0  0  0  0  0  0  0  0  0  0
    2.0000   -2.0350    0.0000 H   0  0  0  0  0  0  0  0  0  0  0  0
    3.9590    1.1919    0.0000 H   0  0  0  0  0  0  0  0  0  0  0  0
    3.7320    0.3450    0.0000 H   0  0  0  0  0  0  0  0  0  0  0  0
    4.5790    0.1181    0.0000 H   0  0  0  0  0  0  0  0  0  0  0  0
    8.2700    0.9650    0.0000 H   0  0  0  0  0  0  0  0  0  0  0  0
    2.0000    0.9650    0.0000 H   0  0  0  0  0  0  0  0  0  0  0  0
    4.5981    2.4650    0.0000 H   0  0  0  0  0  0  0  0  0  0  0  0
    8.2700    2.3450    0.0000 H   0  0  0  0  0  0  0  0  0  0  0  0
    6.0010    3.2750    0.0000 H   0  0  0  0  0  0  0  0  0  0  0  0
  1 14  1  0  0  0  0
  1 15  1  0  0  0  0
 14  2  1  1  0  0  0
 16  2  1  1  0  0  0
 11  3  1  1  0  0  0
  3 34  1  0  0  0  0
 12  4  1  6  0  0  0
  4 35  1  0  0  0  0
 13  5  1  6  0  0  0
  5 36  1  0  0  0  0
 17  6  1  6  0  0  0
  6 40  1  0  0  0  0
  7 18  1  0  0  0  0
  7 41  1  0  0  0  0
 19  8  1  6  0  0  0
  8 42  1  0  0  0  0
 20  9  1  1  0  0  0
  9 44  1  0  0  0  0
 10 22  2  0  0  0  0
 11 12  1  0  0  0  0
 11 13  1  0  0  0  0
 11 23  1  0  0  0  0
 12 14  1  0  0  0  0
 12 24  1  0  0  0  0
 13 15  1  0  0  0  0
 13 25  1  0  0  0  0
 14 26  1  0  0  0  0
 15 18  1  1  0  0  0
 15 27  1  0  0  0  0
 16 17  1  0  0  0  0
 16 19  1  0  0  0  0
 16 28  1  0  0  0  0
 17 20  1  0  0  0  0
 17 29  1  0  0  0  0
 18 30  1  0  0  0  0
 18 31  1  0  0  0  0
 19 21  1  0  0  0  0
 19 32  1  0  0  0  0
 20 22  1  0  0  0  0
 20 33  1  0  0  0  0
 21 37  1  0  0  0  0
 21 38  1  0  0  0  0
 21 39  1  0  0  0  0
 22 43  1  0  0  0  0
M  END
> <PUBCHEM_COMPOUND_CID>
20056675

> <PUBCHEM_COMPOUND_CANONICALIZED>
1

> <PUBCHEM_CACTVS_COMPLEXITY>
353

> <PUBCHEM_CACTVS_HBOND_ACCEPTOR>
10

> <PUBCHEM_CACTVS_HBOND_DONOR>
7

> <PUBCHEM_CACTVS_ROTATABLE_BOND>
7

> <PUBCHEM_CACTVS_SUBSKEYS>
AAADceBwPAAAAAAAAAAAAAAAAAAAAAAAAAAkAAAAAAAAAAAAAAAAGgAACAAACBSwgAMCCAAABgAIAAgQgAIAAAAAAAAAAAFAAAAREBYAAAAiQAAFIAAHAAHKbAxAAAAAAAAAAAAAAAAAAAAAAAAAAAAAAA==

> <PUBCHEM_IUPAC_OPENEYE_NAME>
(2R,3S,4S,5S)-2,3,5-trihydroxy-4-[(2S,3R,4S,5S,6R)-3,4,5-trihydroxy-6-(hydroxymethyl)tetrahydropyran-2-yl]oxy-hexanal

> <PUBCHEM_IUPAC_CAS_NAME>
(2R,3S,4S,5S)-2,3,5-trihydroxy-4-[[(2S,3R,4S,5S,6R)-3,4,5-trihydroxy-6-(hydroxymethyl)-2-oxanyl]oxy]hexanal

> <PUBCHEM_IUPAC_NAME>
(2R,3S,4S,5S)-2,3,5-trihydroxy-4-[(2S,3R,4S,5S,6R)-3,4,5-trihydroxy-6-(hydroxymethyl)oxan-2-yl]oxyhexanal

> <PUBCHEM_IUPAC_SYSTEMATIC_NAME>
(2R,3S,4S,5S)-4-[(2S,3R,4S,5S,6R)-6-(hydroxymethyl)-3,4,5-tris(oxidanyl)oxan-2-yl]oxy-2,3,5-tris(oxidanyl)hexanal

> <PUBCHEM_IUPAC_TRADITIONAL_NAME>
(2R,3S,4S,5S)-2,3,5-trihydroxy-4-[(2S,3R,4S,5S,6R)-3,4,5-trihydroxy-6-methylol-tetrahydropyran-2-yl]oxy-hexanal

> <PUBCHEM_IUPAC_INCHI>
InChI=1S/C12H22O10/c1-4(15)11(7(17)5(16)2-13)22-12-10(20)9(19)8(18)6(3-14)21-12/h2,4-12,14-20H,3H2,1H3/t4-,5-,6+,7-,8+,9-,10+,11-,12-/m0/s1

> <PUBCHEM_IUPAC_INCHIKEY>
XAVVYCXXDSHXNS-ULUQPUQLSA-N

> <PUBCHEM_XLOGP3_AA>
-4

> <PUBCHEM_EXACT_MASS>
326.121297

> <PUBCHEM_MOLECULAR_FORMULA>
C12H22O10

> <PUBCHEM_MOLECULAR_WEIGHT>
326.29708

> <PUBCHEM_OPENEYE_CAN_SMILES>
CC(C(C(C(C=O)O)O)OC1C(C(C(C(O1)CO)O)O)O)O

> <PUBCHEM_OPENEYE_ISO_SMILES>
C[C@@H]([C@@H]([C@H]([C@H](C=O)O)O)O[C@H]1[C@@H]([C@H]([C@@H]([C@H](O1)CO)O)O)O)O

> <PUBCHEM_CACTVS_TPSA>
177

> <PUBCHEM_MONOISOTOPIC_WEIGHT>
326.121297

> <PUBCHEM_TOTAL_CHARGE>
0

> <PUBCHEM_HEAVY_ATOM_COUNT>
22

> <PUBCHEM_ATOM_DEF_STEREO_COUNT>
9

> <PUBCHEM_ATOM_UDEF_STEREO_COUNT>
0

> <PUBCHEM_BOND_DEF_STEREO_COUNT>
0

> <PUBCHEM_BOND_UDEF_STEREO_COUNT>
0

> <PUBCHEM_ISOTOPIC_ATOM_COUNT>
0

> <PUBCHEM_COMPONENT_COUNT>
1

> <PUBCHEM_CACTVS_TAUTO_COUNT>
6

> <PUBCHEM_COORDINATE_TYPE>
1
5
255

> <PUBCHEM_BONDANNOTATIONS>
15  18  5
14  2  5
16  2  5
11  3  5
12  4  6
13  5  6
17  6  6
19  8  6
20  9  5

$$$$

