49787018
  -OEChem-07051213023D

 47 52  0     1  0  0  0  0  0999 V2000
    0.0652   -2.8825    0.2588 O   0  0  0  0  0  0  0  0  0  0  0  0
   -1.4322    1.1126   -1.0455 N   0  0  2  0  0  0  0  0  0  0  0  0
    1.6692    1.6661    0.0780 N   0  0  2  0  0  0  0  0  0  0  0  0
    0.7348   -0.5470   -0.0354 C   0  0  1  0  0  0  0  0  0  0  0  0
   -1.6087   -1.1871   -0.0759 C   0  0  1  0  0  0  0  0  0  0  0  0
   -1.2038   -0.3333   -1.3286 C   0  0  2  0  0  0  0  0  0  0  0  0
    0.5287    0.8788    0.5726 C   0  0  2  0  0  0  0  0  0  0  0  0
   -0.8894    1.4470    0.3149 C   0  0  2  0  0  0  0  0  0  0  0  0
   -0.2509   -1.5382    0.6117 C   0  0  1  0  0  0  0  0  0  0  0  0
    0.2824   -0.5642   -1.4992 C   0  0  0  0  0  0  0  0  0  0  0  0
   -2.5807   -0.3393    0.7943 C   0  0  1  0  0  0  0  0  0  0  0  0
   -1.8376    0.8582    1.4053 C   0  0  0  0  0  0  0  0  0  0  0  0
    2.2268   -0.6107    0.0344 C   0  0  0  0  0  0  0  0  0  0  0  0
   -2.9134    1.3109   -1.0633 C   0  0  0  0  0  0  0  0  0  0  0  0
   -3.5849    0.3032   -0.1466 C   0  0  0  0  0  0  0  0  0  0  0  0
    2.7181    0.7165    0.0460 C   0  0  0  0  0  0  0  0  0  0  0  0
    3.0845   -1.6962    0.0048 C   0  0  0  0  0  0  0  0  0  0  0  0
    1.9283    3.0217    0.5111 C   0  0  0  0  0  0  0  0  0  0  0  0
   -4.8895    0.0083   -0.1830 C   0  0  0  0  0  0  0  0  0  0  0  0
    4.0855    0.9519    0.0232 C   0  0  0  0  0  0  0  0  0  0  0  0
    4.4589   -1.4533   -0.0017 C   0  0  0  0  0  0  0  0  0  0  0  0
    4.9550   -0.1417    0.0052 C   0  0  0  0  0  0  0  0  0  0  0  0
   -5.5464   -0.9819    0.7187 C   0  0  0  0  0  0  0  0  0  0  0  0
   -2.1260   -2.0947   -0.4143 H   0  0  0  0  0  0  0  0  0  0  0  0
   -1.7373   -0.6437   -2.2353 H   0  0  0  0  0  0  0  0  0  0  0  0
    0.6742    0.8169    1.6642 H   0  0  0  0  0  0  0  0  0  0  0  0
   -0.8790    2.5360    0.4303 H   0  0  0  0  0  0  0  0  0  0  0  0
   -0.2762   -1.4793    1.7038 H   0  0  0  0  0  0  0  0  0  0  0  0
    0.7542    0.1995   -2.1298 H   0  0  0  0  0  0  0  0  0  0  0  0
    0.4804   -1.5348   -1.9719 H   0  0  0  0  0  0  0  0  0  0  0  0
   -3.0192   -0.9493    1.5861 H   0  0  0  0  0  0  0  0  0  0  0  0
   -1.2984    0.5538    2.3091 H   0  0  0  0  0  0  0  0  0  0  0  0
   -2.5495    1.6280    1.7353 H   0  0  0  0  0  0  0  0  0  0  0  0
   -3.1484    2.3345   -0.7473 H   0  0  0  0  0  0  0  0  0  0  0  0
   -3.2790    1.1985   -2.0913 H   0  0  0  0  0  0  0  0  0  0  0  0
   -0.6045   -3.4560    0.6690 H   0  0  0  0  0  0  0  0  0  0  0  0
    2.7116   -2.7135   -0.0259 H   0  0  0  0  0  0  0  0  0  0  0  0
    2.2545    3.0457    1.5564 H   0  0  0  0  0  0  0  0  0  0  0  0
    2.6959    3.4944   -0.1107 H   0  0  0  0  0  0  0  0  0  0  0  0
    1.0304    3.6395    0.4221 H   0  0  0  0  0  0  0  0  0  0  0  0
   -5.5243    0.5042   -0.9126 H   0  0  0  0  0  0  0  0  0  0  0  0
    4.4922    1.9575    0.0256 H   0  0  0  0  0  0  0  0  0  0  0  0
    5.1533   -2.2890   -0.0233 H   0  0  0  0  0  0  0  0  0  0  0  0
    6.0289    0.0250   -0.0072 H   0  0  0  0  0  0  0  0  0  0  0  0
   -5.1056   -1.0250    1.7171 H   0  0  0  0  0  0  0  0  0  0  0  0
   -6.5951   -0.6973    0.8589 H   0  0  0  0  0  0  0  0  0  0  0  0
   -5.5295   -1.9784    0.2677 H   0  0  0  0  0  0  0  0  0  0  0  0
  1  9  1  0  0  0  0
  1 36  1  0  0  0  0
  2  6  1  0  0  0  0
  2  8  1  0  0  0  0
  2 14  1  0  0  0  0
  3  7  1  0  0  0  0
  3 16  1  0  0  0  0
  3 18  1  0  0  0  0
  4  7  1  0  0  0  0
  4  9  1  0  0  0  0
  4 10  1  0  0  0  0
  4 13  1  0  0  0  0
  5  6  1  0  0  0  0
  5  9  1  0  0  0  0
  5 11  1  0  0  0  0
  5 24  1  0  0  0  0
  6 10  1  0  0  0  0
  6 25  1  0  0  0  0
  7  8  1  0  0  0  0
  7 26  1  0  0  0  0
  8 12  1  0  0  0  0
  8 27  1  0  0  0  0
  9 28  1  0  0  0  0
 10 29  1  0  0  0  0
 10 30  1  0  0  0  0
 11 12  1  0  0  0  0
 11 15  1  0  0  0  0
 11 31  1  0  0  0  0
 12 32  1  0  0  0  0
 12 33  1  0  0  0  0
 13 16  1  0  0  0  0
 13 17  2  0  0  0  0
 14 15  1  0  0  0  0
 14 34  1  0  0  0  0
 14 35  1  0  0  0  0
 15 19  2  0  0  0  0
 16 20  2  0  0  0  0
 17 21  1  0  0  0  0
 17 37  1  0  0  0  0
 18 38  1  0  0  0  0
 18 39  1  0  0  0  0
 18 40  1  0  0  0  0
 19 23  1  0  0  0  0
 19 41  1  0  0  0  0
 20 22  1  0  0  0  0
 20 42  1  0  0  0  0
 21 22  2  0  0  0  0
 21 43  1  0  0  0  0
 22 44  1  0  0  0  0
 23 45  1  0  0  0  0
 23 46  1  0  0  0  0
 23 47  1  0  0  0  0
M  END
> <PUBCHEM_COMPOUND_CID>
49787018

> <PUBCHEM_CONFORMER_RMSD>
0.6

> <PUBCHEM_CONFORMER_DIVERSEORDER>
1

> <PUBCHEM_MMFF94_PARTIAL_CHARGES>
26
1 -0.68
11 0.14
13 -0.14
14 0.41
15 -0.28
16 0.1
17 -0.15
18 0.37
19 -0.29
2 -0.81
20 -0.15
21 -0.15
22 -0.15
23 0.14
3 -0.84
36 0.4
37 0.15
4 0.14
41 0.15
42 0.15
43 0.15
44 0.15
6 0.27
7 0.37
8 0.27
9 0.28

> <PUBCHEM_EFFECTIVE_ROTOR_COUNT>
1

> <PUBCHEM_PHARMACOPHORE_FEATURES>
9
1 1 acceptor
1 1 donor
1 2 cation
1 23 hydrophobe
1 3 cation
10 2 4 5 6 7 8 9 10 11 12 rings
5 3 4 7 13 16 rings
6 13 16 17 20 21 22 rings
8 2 5 6 8 11 12 14 15 rings

> <PUBCHEM_HEAVY_ATOM_COUNT>
23

> <PUBCHEM_ATOM_DEF_STEREO_COUNT>
6

> <PUBCHEM_ATOM_UDEF_STEREO_COUNT>
1

> <PUBCHEM_BOND_DEF_STEREO_COUNT>
1

> <PUBCHEM_BOND_UDEF_STEREO_COUNT>
0

> <PUBCHEM_ISOTOPIC_ATOM_COUNT>
0

> <PUBCHEM_COMPONENT_COUNT>
1

> <PUBCHEM_CACTVS_TAUTO_COUNT>
1

> <PUBCHEM_CONFORMER_ID>
02F7B08A00000001

> <PUBCHEM_MMFF94_ENERGY>
110.116

> <PUBCHEM_FEATURE_SELFOVERLAP>
47.873

> <PUBCHEM_SHAPE_FINGERPRINT>
10 15 18201445719268318928
10062212 137 17676496003745232175
10366900 7 17846775221670105377
10863032 1 18191587454393553683
10948715 1 18336828598269044129
10967382 1 18410012148116870434
11045977 3 18343300341027088203
11471102 20 18409732854825238572
12011746 2 18343017800381536358
12035758 1 18412266095007964016
12236239 1 17603585227254420321
12403259 226 18342181093634515173
12403259 415 18272658943604028053
12592029 89 18201443622411610002
12715332 25 18114185219958481407
12788726 201 17458890583460772576
13140716 1 18120664526507361512
14115302 16 18201147776811488588
14223421 5 18124312705819010882
14294032 229 15553622832886154559
14787075 74 18410294683713373203
15196674 1 18410574032449001384
15209289 33 18409449197704584763
15309172 13 18411133658287750162
15848702 151 17968088789159559415
16945 1 17968366918393396709
17349148 13 17749110001842347119
18785283 64 18197781007688510768
19591789 44 18412266108109571755
19930381 70 18194401319234692082
200 152 18187087269191369457
20028762 73 18114465561507613575
21033648 29 18130240293285086821
21267235 1 18335413604377368854
21682296 61 18190735526045630518
23402539 116 17967820465804952789
23557571 272 17489592277466957653
23559900 14 18060700567683421485
296302 2 18411415146375982021
3286 77 18412824698523306341
335352 9 18409730659796309326
34934 24 18334582296361540544
350125 39 18412540981436575477
465052 167 18334569123211813447
5104073 3 18337957903641854729
69090 78 18411140225081859474
7495541 125 18341328916203679993
9999458 23 18343584010225671853

> <PUBCHEM_SHAPE_MULTIPOLES>
457.5
8.8
2.22
1.07
1.73
0.36
0.17
-1.44
-0.71
-1.28
-0.32
0.63
0.08
0.45

> <PUBCHEM_SHAPE_SELFOVERLAP>
1043.614

> <PUBCHEM_SHAPE_VOLUME>
239.6

> <PUBCHEM_COORDINATE_TYPE>
2
5
10

$$$$

