5281991
  -OEChem-07051213023D

 65 66  0     1  0  0  0  0  0999 V2000
   -4.9041    1.7238   -0.2401 P   0  0  2  0  0  0  0  0  0  0  0  0
   -6.6318   -0.4312    0.7722 P   0  0  0  0  0  0  0  0  0  0  0  0
   -3.5426    0.8798   -0.0304 O   0  0  0  0  0  0  0  0  0  0  0  0
   -6.0682    0.6058   -0.3317 O   0  0  0  0  0  0  0  0  0  0  0  0
   -4.8066    2.2824   -1.7553 O   0  0  0  0  0  0  0  0  0  0  0  0
   -5.1484    2.7828    0.7955 O   0  0  0  0  0  0  0  0  0  0  0  0
   -7.3221    0.5321    1.8712 O   0  0  0  0  0  0  0  0  0  0  0  0
   -7.8909   -1.1147    0.0241 O   0  0  0  0  0  0  0  0  0  0  0  0
   -5.6102   -1.3892    1.3102 O   0  0  0  0  0  0  0  0  0  0  0  0
    4.0304   -0.5457   -0.4136 C   0  0  1  0  0  0  0  0  0  0  0  0
    3.8904    0.6155    0.6437 C   0  0  2  0  0  0  0  0  0  0  0  0
    4.9440    1.7794    0.5430 C   0  0  0  0  0  0  0  0  0  0  0  0
    2.7644   -1.4909   -0.3296 C   0  0  1  0  0  0  0  0  0  0  0  0
    4.1637    0.0723   -1.8283 C   0  0  0  0  0  0  0  0  0  0  0  0
    3.6979    0.0527    2.0718 C   0  0  0  0  0  0  0  0  0  0  0  0
    5.0690    2.2455   -0.9303 C   0  0  0  0  0  0  0  0  0  0  0  0
    5.2744    1.1155   -1.9324 C   0  0  0  0  0  0  0  0  0  0  0  0
    5.2665   -1.4594   -0.1714 C   0  0  0  0  0  0  0  0  0  0  0  0
    2.5068   -0.9066    2.1577 C   0  0  0  0  0  0  0  0  0  0  0  0
    2.5658   -1.9749    1.0992 C   0  0  0  0  0  0  0  0  0  0  0  0
    1.4470   -0.8937   -0.8496 C   0  0  0  0  0  0  0  0  0  0  0  0
    4.4427    3.0043    1.3551 C   0  0  0  0  0  0  0  0  0  0  0  0
    6.3352    1.4350    1.1079 C   0  0  0  0  0  0  0  0  0  0  0  0
    0.3254   -1.9241   -0.7928 C   0  0  0  0  0  0  0  0  0  0  0  0
    2.4782   -3.2790    1.4044 C   0  0  0  0  0  0  0  0  0  0  0  0
   -0.9790   -1.3510   -1.2986 C   0  0  0  0  0  0  0  0  0  0  0  0
   -1.1920   -1.4537   -2.7862 C   0  0  0  0  0  0  0  0  0  0  0  0
   -1.9045   -0.7608   -0.5175 C   0  0  0  0  0  0  0  0  0  0  0  0
   -3.2014   -0.1522   -0.9483 C   0  0  0  0  0  0  0  0  0  0  0  0
    2.9363    1.1080    0.4009 H   0  0  0  0  0  0  0  0  0  0  0  0
    2.9733   -2.3596   -0.9723 H   0  0  0  0  0  0  0  0  0  0  0  0
    3.2376    0.5820   -2.1138 H   0  0  0  0  0  0  0  0  0  0  0  0
    4.3305   -0.7152   -2.5735 H   0  0  0  0  0  0  0  0  0  0  0  0
    4.6031   -0.4608    2.4132 H   0  0  0  0  0  0  0  0  0  0  0  0
    3.5185    0.8640    2.7846 H   0  0  0  0  0  0  0  0  0  0  0  0
    4.1560    2.7859   -1.2164 H   0  0  0  0  0  0  0  0  0  0  0  0
    5.8900    2.9667   -1.0319 H   0  0  0  0  0  0  0  0  0  0  0  0
    6.2601    0.6597   -1.7999 H   0  0  0  0  0  0  0  0  0  0  0  0
    5.2716    1.5356   -2.9456 H   0  0  0  0  0  0  0  0  0  0  0  0
    6.2156   -0.9714   -0.3850 H   0  0  0  0  0  0  0  0  0  0  0  0
    5.2332   -2.3320   -0.8358 H   0  0  0  0  0  0  0  0  0  0  0  0
    5.3195   -1.8414    0.8515 H   0  0  0  0  0  0  0  0  0  0  0  0
    2.4784   -1.3448    3.1628 H   0  0  0  0  0  0  0  0  0  0  0  0
    1.5741   -0.3408    2.0439 H   0  0  0  0  0  0  0  0  0  0  0  0
    1.5615   -0.5895   -1.8950 H   0  0  0  0  0  0  0  0  0  0  0  0
    1.1606    0.0033   -0.2891 H   0  0  0  0  0  0  0  0  0  0  0  0
    3.4224    3.2831    1.0689 H   0  0  0  0  0  0  0  0  0  0  0  0
    5.0812    3.8790    1.1815 H   0  0  0  0  0  0  0  0  0  0  0  0
    4.4502    2.8123    2.4326 H   0  0  0  0  0  0  0  0  0  0  0  0
    6.2776    1.0710    2.1383 H   0  0  0  0  0  0  0  0  0  0  0  0
    6.9755    2.3260    1.1234 H   0  0  0  0  0  0  0  0  0  0  0  0
    6.8701    0.6944    0.5161 H   0  0  0  0  0  0  0  0  0  0  0  0
    0.5872   -2.8217   -1.3663 H   0  0  0  0  0  0  0  0  0  0  0  0
    0.1517   -2.2603    0.2355 H   0  0  0  0  0  0  0  0  0  0  0  0
    2.5336   -4.0430    0.6363 H   0  0  0  0  0  0  0  0  0  0  0  0
    2.3478   -3.6114    2.4287 H   0  0  0  0  0  0  0  0  0  0  0  0
   -0.9587   -2.4683   -3.1284 H   0  0  0  0  0  0  0  0  0  0  0  0
   -0.5313   -0.7570   -3.3120 H   0  0  0  0  0  0  0  0  0  0  0  0
   -2.2184   -1.2572   -3.1052 H   0  0  0  0  0  0  0  0  0  0  0  0
   -1.7056   -0.7304    0.5532 H   0  0  0  0  0  0  0  0  0  0  0  0
   -3.1342    0.2920   -1.9441 H   0  0  0  0  0  0  0  0  0  0  0  0
   -3.9857   -0.9138   -0.9378 H   0  0  0  0  0  0  0  0  0  0  0  0
   -4.2596    3.0770   -1.9334 H   0  0  0  0  0  0  0  0  0  0  0  0
   -7.6750    0.1352    2.6959 H   0  0  0  0  0  0  0  0  0  0  0  0
   -8.3598   -1.8556    0.4641 H   0  0  0  0  0  0  0  0  0  0  0  0
  1  3  1  0  0  0  0
  1  4  1  0  0  0  0
  1  5  1  0  0  0  0
  1  6  2  0  0  0  0
  2  4  1  0  0  0  0
  2  7  1  0  0  0  0
  2  8  1  0  0  0  0
  2  9  2  0  0  0  0
  3 29  1  0  0  0  0
  5 63  1  0  0  0  0
  7 64  1  0  0  0  0
  8 65  1  0  0  0  0
 10 11  1  0  0  0  0
 10 13  1  0  0  0  0
 10 14  1  0  0  0  0
 10 18  1  0  0  0  0
 11 12  1  0  0  0  0
 11 15  1  0  0  0  0
 11 30  1  0  0  0  0
 12 16  1  0  0  0  0
 12 22  1  0  0  0  0
 12 23  1  0  0  0  0
 13 20  1  0  0  0  0
 13 21  1  0  0  0  0
 13 31  1  0  0  0  0
 14 17  1  0  0  0  0
 14 32  1  0  0  0  0
 14 33  1  0  0  0  0
 15 19  1  0  0  0  0
 15 34  1  0  0  0  0
 15 35  1  0  0  0  0
 16 17  1  0  0  0  0
 16 36  1  0  0  0  0
 16 37  1  0  0  0  0
 17 38  1  0  0  0  0
 17 39  1  0  0  0  0
 18 40  1  0  0  0  0
 18 41  1  0  0  0  0
 18 42  1  0  0  0  0
 19 20  1  0  0  0  0
 19 43  1  0  0  0  0
 19 44  1  0  0  0  0
 20 25  2  0  0  0  0
 21 24  1  0  0  0  0
 21 45  1  0  0  0  0
 21 46  1  0  0  0  0
 22 47  1  0  0  0  0
 22 48  1  0  0  0  0
 22 49  1  0  0  0  0
 23 50  1  0  0  0  0
 23 51  1  0  0  0  0
 23 52  1  0  0  0  0
 24 26  1  0  0  0  0
 24 53  1  0  0  0  0
 24 54  1  0  0  0  0
 25 55  1  0  0  0  0
 25 56  1  0  0  0  0
 26 27  1  0  0  0  0
 26 28  2  0  0  0  0
 27 57  1  0  0  0  0
 27 58  1  0  0  0  0
 27 59  1  0  0  0  0
 28 29  1  0  0  0  0
 28 60  1  0  0  0  0
 29 61  1  0  0  0  0
 29 62  1  0  0  0  0
M  END
> <PUBCHEM_COMPOUND_CID>
5281991

> <PUBCHEM_CONFORMER_RMSD>
1

> <PUBCHEM_CONFORMER_DIVERSEORDER>
1
83
42
26
38
13
90
102
106
53
50
9
52
88
43
37
105
62
7
12
27
41
107
99
91
35
49
46
58
23
29
109
86
5
113
61
28
78
2
74
92
31
24
72
77
47
60
95
67
15
10
80
89
40
18
115
21
85
114
75
39
36
25
97
3
22
34
87
48
17
45
66
19
16
55
98
111
112
65
70
14
59
94
100
51
4
73
57
32
110
54
101
93
8
64
68
69
116
6
104
81
20
44
71
11
103
30
82
56
33
117
84
96
63
118
108
76
79

> <PUBCHEM_MMFF94_PARTIAL_CHARGES>
24
1 1.51
13 0.14
19 0.14
2 1.51
20 -0.28
24 0.14
25 -0.3
26 -0.28
27 0.14
28 -0.29
29 0.42
3 -0.55
4 -0.54
5 -0.77
55 0.15
56 0.15
6 -0.7
60 0.15
63 0.5
64 0.5
65 0.5
7 -0.77
8 -0.77
9 -0.7

> <PUBCHEM_EFFECTIVE_ROTOR_COUNT>
9.4

> <PUBCHEM_PHARMACOPHORE_FEATURES>
10
1 27 hydrophobe
1 5 acceptor
1 6 acceptor
1 7 acceptor
1 8 acceptor
1 9 acceptor
3 12 22 23 hydrophobe
4 2 7 8 9 anion
6 10 11 12 14 16 17 rings
6 10 11 13 15 19 20 rings

> <PUBCHEM_HEAVY_ATOM_COUNT>
29

> <PUBCHEM_ATOM_DEF_STEREO_COUNT>
3

> <PUBCHEM_ATOM_UDEF_STEREO_COUNT>
0

> <PUBCHEM_BOND_DEF_STEREO_COUNT>
1

> <PUBCHEM_BOND_UDEF_STEREO_COUNT>
0

> <PUBCHEM_ISOTOPIC_ATOM_COUNT>
0

> <PUBCHEM_COMPONENT_COUNT>
1

> <PUBCHEM_CACTVS_TAUTO_COUNT>
1

> <PUBCHEM_CONFORMER_ID>
005098C700000001

> <PUBCHEM_MMFF94_ENERGY>
23.2028

> <PUBCHEM_FEATURE_SELFOVERLAP>
50.803

> <PUBCHEM_SHAPE_FINGERPRINT>
10447042 23 12103843458171153722
10670039 82 17531236322601494536
11070050 100 17775574134864541074
11135609 201 18269563745335964136
11720765 8 17531521101436256030
11796584 16 7997679896582954133
11991303 11 17095807629608018415
12596602 18 18060135462104836521
12633257 1 15985115085078543486
12760667 363 12319743574702538319
13627167 48 16443062811744801065
13878862 14 17912954908150477988
14461889 52 17846493704092167443
14537116 161 16298102099317031193
14840074 17 17821729438492023129
14848178 5 10952052264249341381
14950920 106 17772763890317563361
15183329 4 5761658079309442147
15188451 53 11599737155349848428
19377110 9 17846221033866997911
19958102 18 7565070424279887947
20567600 234 17417804020369050623
20626108 58 9295296075296932510
21315764 119 7204779189788554657
21458453 9 17988913441043193337
22061861 79 8718825384291096771
2838139 119 18040723601211484277
4340502 62 17846498123381516442
437795 70 5112018243782184771
5104073 3 18201159970276493419
613672 6 14045732760199202819
6443934 186 17489866012173953303
8988823 20 13686293552445461390
960060 61 13912321257679446980

> <PUBCHEM_SHAPE_MULTIPOLES>
563.42
19.84
3.02
2.18
35.51
0.69
0.28
9.62
-4.72
-1.71
-0.59
-0.84
-0.32
-0.08

> <PUBCHEM_SHAPE_SELFOVERLAP>
1105.261

> <PUBCHEM_SHAPE_VOLUME>
341.1

> <PUBCHEM_COORDINATE_TYPE>
2
5
10

$$$$

