365489
  -OEChem-07051213003D

 76 80  0     0  0  0  0  0  0999 V2000
   -0.3820    1.9524   -1.8316 Cl  0  0  0  0  0  0  0  0  0  0  0  0
    1.0281    0.1888    2.8253 Cl  0  0  0  0  0  0  0  0  0  0  0  0
    7.0543    0.2885   -2.7041 S   0  0  0  0  0  0  0  0  0  0  0  0
   -6.3106   -1.7660   -2.3182 S   0  0  0  0  0  0  0  0  0  0  0  0
    7.3064   -0.3887   -0.8926 P   0  0  0  0  0  0  0  0  0  0  0  0
   -7.1266   -0.7391   -0.8748 P   0  0  0  0  0  0  0  0  0  0  0  0
    2.6770    1.9448    0.1236 O   0  0  0  0  0  0  0  0  0  0  0  0
   -2.4006   -1.1484    1.4455 O   0  0  0  0  0  0  0  0  0  0  0  0
    1.1987    3.6743    0.3025 O   0  0  0  0  0  0  0  0  0  0  0  0
   -0.5942   -2.2429    2.3098 O   0  0  0  0  0  0  0  0  0  0  0  0
    6.1253   -1.3297   -0.2890 O   0  0  0  0  0  0  0  0  0  0  0  0
   -6.3920    0.6498   -0.4551 O   0  0  0  0  0  0  0  0  0  0  0  0
    7.5028    0.7075    0.2936 O   0  0  0  0  0  0  0  0  0  0  0  0
    8.6142   -1.3315   -0.6615 O   0  0  0  0  0  0  0  0  0  0  0  0
   -7.2956   -1.4789    0.5645 O   0  0  0  0  0  0  0  0  0  0  0  0
   -8.6495   -0.2266   -1.1395 O   0  0  0  0  0  0  0  0  0  0  0  0
    0.5219   -0.0431   -0.0116 C   0  0  0  0  0  0  0  0  0  0  0  0
   -0.8501    1.3070    0.9814 C   0  0  0  0  0  0  0  0  0  0  0  0
    0.2168    1.4656   -0.1461 C   0  0  0  0  0  0  0  0  0  0  0  0
   -0.1539   -0.0111    1.3911 C   0  0  0  0  0  0  0  0  0  0  0  0
    2.0330   -0.4165   -0.0906 C   0  0  0  0  0  0  0  0  0  0  0  0
   -2.3536    1.1495    0.5763 C   0  0  0  0  0  0  0  0  0  0  0  0
   -0.2536   -0.9090   -1.0066 C   0  0  0  0  0  0  0  0  0  0  0  0
   -0.8067    2.3946    2.0499 C   0  0  0  0  0  0  0  0  0  0  0  0
    1.3678    2.4666    0.1162 C   0  0  0  0  0  0  0  0  0  0  0  0
   -1.0299   -1.2270    1.7624 C   0  0  0  0  0  0  0  0  0  0  0  0
    3.0213    0.5751   -0.0300 C   0  0  0  0  0  0  0  0  0  0  0  0
   -3.0423   -0.0457    0.8214 C   0  0  0  0  0  0  0  0  0  0  0  0
    2.4871   -1.7403   -0.2221 C   0  0  0  0  0  0  0  0  0  0  0  0
   -3.0914    2.1785   -0.0353 C   0  0  0  0  0  0  0  0  0  0  0  0
    4.3876    0.2904   -0.0933 C   0  0  0  0  0  0  0  0  0  0  0  0
   -4.3863   -0.2300    0.4864 C   0  0  0  0  0  0  0  0  0  0  0  0
    3.8499   -2.0473   -0.2900 C   0  0  0  0  0  0  0  0  0  0  0  0
   -4.4363    2.0139   -0.3820 C   0  0  0  0  0  0  0  0  0  0  0  0
    4.7996   -1.0308   -0.2257 C   0  0  0  0  0  0  0  0  0  0  0  0
   -5.0831    0.8088   -0.1206 C   0  0  0  0  0  0  0  0  0  0  0  0
    8.4696    1.7343    0.1507 C   0  0  0  0  0  0  0  0  0  0  0  0
    8.6797   -2.6092   -1.2723 C   0  0  0  0  0  0  0  0  0  0  0  0
   -7.9097   -2.7546    0.6328 C   0  0  0  0  0  0  0  0  0  0  0  0
   -8.9020    0.7517   -2.1340 C   0  0  0  0  0  0  0  0  0  0  0  0
    8.4460    2.6090    1.3859 C   0  0  0  0  0  0  0  0  0  0  0  0
    9.9896   -3.2687   -0.8968 C   0  0  0  0  0  0  0  0  0  0  0  0
   -7.9397   -3.2107    2.0760 C   0  0  0  0  0  0  0  0  0  0  0  0
  -10.3868    1.0446   -2.1720 C   0  0  0  0  0  0  0  0  0  0  0  0
   -1.2920   -0.6064   -1.1545 H   0  0  0  0  0  0  0  0  0  0  0  0
    0.2143   -0.8883   -1.9994 H   0  0  0  0  0  0  0  0  0  0  0  0
   -0.2891   -1.9602   -0.6992 H   0  0  0  0  0  0  0  0  0  0  0  0
    0.1935    2.6232    2.4276 H   0  0  0  0  0  0  0  0  0  0  0  0
   -1.1987    3.3466    1.6721 H   0  0  0  0  0  0  0  0  0  0  0  0
   -1.4175    2.1172    2.9185 H   0  0  0  0  0  0  0  0  0  0  0  0
    1.7815   -2.5662   -0.2554 H   0  0  0  0  0  0  0  0  0  0  0  0
   -2.6206    3.1369   -0.2424 H   0  0  0  0  0  0  0  0  0  0  0  0
    5.0933    1.1103   -0.0279 H   0  0  0  0  0  0  0  0  0  0  0  0
   -4.8540   -1.1802    0.7166 H   0  0  0  0  0  0  0  0  0  0  0  0
    4.1620   -3.0836   -0.3880 H   0  0  0  0  0  0  0  0  0  0  0  0
   -4.9727    2.8333   -0.8529 H   0  0  0  0  0  0  0  0  0  0  0  0
    9.4588    1.2841    0.0222 H   0  0  0  0  0  0  0  0  0  0  0  0
    8.2383    2.3412   -0.7290 H   0  0  0  0  0  0  0  0  0  0  0  0
    7.8407   -3.2217   -0.9286 H   0  0  0  0  0  0  0  0  0  0  0  0
    8.6152   -2.5004   -2.3589 H   0  0  0  0  0  0  0  0  0  0  0  0
   -8.9266   -2.6881    0.2337 H   0  0  0  0  0  0  0  0  0  0  0  0
   -7.3398   -3.4725    0.0364 H   0  0  0  0  0  0  0  0  0  0  0  0
   -8.3468    1.6645   -1.8975 H   0  0  0  0  0  0  0  0  0  0  0  0
   -8.5705    0.3795   -3.1077 H   0  0  0  0  0  0  0  0  0  0  0  0
    8.6620    2.0171    2.2815 H   0  0  0  0  0  0  0  0  0  0  0  0
    7.4533    3.0491    1.5276 H   0  0  0  0  0  0  0  0  0  0  0  0
    9.1819    3.4143    1.3091 H   0  0  0  0  0  0  0  0  0  0  0  0
   10.0731   -4.2594   -1.3522 H   0  0  0  0  0  0  0  0  0  0  0  0
   10.8369   -2.6567   -1.2237 H   0  0  0  0  0  0  0  0  0  0  0  0
   10.0719   -3.3711    0.1904 H   0  0  0  0  0  0  0  0  0  0  0  0
   -8.4948   -2.4973    2.6941 H   0  0  0  0  0  0  0  0  0  0  0  0
   -6.9251   -3.2633    2.4847 H   0  0  0  0  0  0  0  0  0  0  0  0
   -8.4082   -4.1947    2.1655 H   0  0  0  0  0  0  0  0  0  0  0  0
  -10.7335    1.4057   -1.1980 H   0  0  0  0  0  0  0  0  0  0  0  0
  -10.9536    0.1344   -2.3940 H   0  0  0  0  0  0  0  0  0  0  0  0
  -10.6174    1.7980   -2.9304 H   0  0  0  0  0  0  0  0  0  0  0  0
  1 19  1  0  0  0  0
  2 20  1  0  0  0  0
  3  5  2  0  0  0  0
  4  6  2  0  0  0  0
  5 11  1  0  0  0  0
  5 13  1  0  0  0  0
  5 14  1  0  0  0  0
  6 12  1  0  0  0  0
  6 15  1  0  0  0  0
  6 16  1  0  0  0  0
  7 25  1  0  0  0  0
  7 27  1  0  0  0  0
  8 26  1  0  0  0  0
  8 28  1  0  0  0  0
  9 25  2  0  0  0  0
 10 26  2  0  0  0  0
 11 35  1  0  0  0  0
 12 36  1  0  0  0  0
 13 37  1  0  0  0  0
 14 38  1  0  0  0  0
 15 39  1  0  0  0  0
 16 40  1  0  0  0  0
 17 19  1  0  0  0  0
 17 20  1  0  0  0  0
 17 21  1  0  0  0  0
 17 23  1  0  0  0  0
 18 19  1  0  0  0  0
 18 20  1  0  0  0  0
 18 22  1  0  0  0  0
 18 24  1  0  0  0  0
 19 25  1  0  0  0  0
 20 26  1  0  0  0  0
 21 27  2  0  0  0  0
 21 29  1  0  0  0  0
 22 28  2  0  0  0  0
 22 30  1  0  0  0  0
 23 45  1  0  0  0  0
 23 46  1  0  0  0  0
 23 47  1  0  0  0  0
 24 48  1  0  0  0  0
 24 49  1  0  0  0  0
 24 50  1  0  0  0  0
 27 31  1  0  0  0  0
 28 32  1  0  0  0  0
 29 33  2  0  0  0  0
 29 51  1  0  0  0  0
 30 34  2  0  0  0  0
 30 52  1  0  0  0  0
 31 35  2  0  0  0  0
 31 53  1  0  0  0  0
 32 36  2  0  0  0  0
 32 54  1  0  0  0  0
 33 35  1  0  0  0  0
 33 55  1  0  0  0  0
 34 36  1  0  0  0  0
 34 56  1  0  0  0  0
 37 41  1  0  0  0  0
 37 57  1  0  0  0  0
 37 58  1  0  0  0  0
 38 42  1  0  0  0  0
 38 59  1  0  0  0  0
 38 60  1  0  0  0  0
 39 43  1  0  0  0  0
 39 61  1  0  0  0  0
 39 62  1  0  0  0  0
 40 44  1  0  0  0  0
 40 63  1  0  0  0  0
 40 64  1  0  0  0  0
 41 65  1  0  0  0  0
 41 66  1  0  0  0  0
 41 67  1  0  0  0  0
 42 68  1  0  0  0  0
 42 69  1  0  0  0  0
 42 70  1  0  0  0  0
 43 71  1  0  0  0  0
 43 72  1  0  0  0  0
 43 73  1  0  0  0  0
 44 74  1  0  0  0  0
 44 75  1  0  0  0  0
 44 76  1  0  0  0  0
M  END
> <PUBCHEM_COMPOUND_CID>
365489

> <PUBCHEM_CONFORMER_RMSD>
1.2

> <PUBCHEM_CONFORMER_DIVERSEORDER>
1
23
90
4
209
7
46
93
106
21
164
189
58
132
56
174
211
31
45
184
95
210
34
194
207
102
50
119
87
171
168
108
170
28
200
47
80
187
49
54
99
64
121
169
152
110
53
97
179
19
151
141
145
9
113
186
185
118
84
126
100
122
140
68
83
147
26
180
203
41
91
104
178
153
199
159
172
201
137
78
193
35
167
79
131
150
94
29
25
44
69
71
123
202
70
160
16
175
60
66
135
161
176
61
96
59
162
127
198
89
204
149
62
197
39
38
166
158
42
40
173
88
213
181
76
165
188
57
63
77
48
36
148
130
125
65
196
27
112
33
142
163
129
183
32
156
74
143
146
116
192
195
154
55
182
43
86
212
98
14
73
124
144
6
92
134
72
101
85
206
105
128
133
8
67
139
117
120
208
81
82
157
111
51
190
138
155
205
114
17
11
37
13
109
75
2
191
103
15
115
12
22
20
136
30
18
10
107
24
3
177
52
5

> <PUBCHEM_MMFF94_PARTIAL_CHARGES>
44
1 -0.29
10 -0.57
11 -0.35
12 -0.35
13 -0.55
14 -0.55
15 -0.55
16 -0.55
17 0.11
18 0.11
19 0.34
2 -0.29
20 0.34
21 -0.11
22 -0.11
25 0.67
26 0.67
27 0.08
28 0.08
29 -0.15
3 -0.68
30 -0.15
31 -0.15
32 -0.15
33 -0.15
34 -0.15
35 0.08
36 0.08
37 0.28
38 0.28
39 0.28
4 -0.68
40 0.28
5 1.49
51 0.15
52 0.15
53 0.15
54 0.15
55 0.15
56 0.15
6 1.49
7 -0.23
8 -0.23
9 -0.57

> <PUBCHEM_EFFECTIVE_ROTOR_COUNT>
12.4

> <PUBCHEM_PHARMACOPHORE_FEATURES>
7
1 10 acceptor
1 9 acceptor
4 17 18 19 20 rings
6 21 27 29 31 33 35 rings
6 22 28 30 32 34 36 rings
6 7 17 19 21 25 27 rings
6 8 18 20 22 26 28 rings

> <PUBCHEM_HEAVY_ATOM_COUNT>
44

> <PUBCHEM_ATOM_DEF_STEREO_COUNT>
0

> <PUBCHEM_ATOM_UDEF_STEREO_COUNT>
0

> <PUBCHEM_BOND_DEF_STEREO_COUNT>
0

> <PUBCHEM_BOND_UDEF_STEREO_COUNT>
0

> <PUBCHEM_ISOTOPIC_ATOM_COUNT>
0

> <PUBCHEM_COMPONENT_COUNT>
1

> <PUBCHEM_CACTVS_TAUTO_COUNT>
1

> <PUBCHEM_CONFORMER_ID>
000593B100000001

> <PUBCHEM_MMFF94_ENERGY>
117.3555

> <PUBCHEM_FEATURE_SELFOVERLAP>
36.3

> <PUBCHEM_SHAPE_FINGERPRINT>
10076449 9 17822287972464456330
10930396 42 17774458088019623544
11007060 377 18271517667508667776
11181472 205 13398632792827588118
11497681 19 18262797492776750622
13811026 1 18341892952741856752
14068700 675 18040713692769892344
15461852 350 17489583442413650995
16991971 28 18040991847567720916
20105231 36 18409443662647612427
21927370 108 17968362512311145153
23559900 14 18410853222999464000
23569917 315 18262787584609601758
23576562 1 16557891317945851119
25269216 80 16486975052392340643
3178227 256 8214137456782665870
354706 132 16702305647038091323
3552219 110 16877651358086300608
484989 97 18200024037627013819
54039377 194 18259983756753677719
6004065 56 18410572856213875696
6081469 158 18411136957191807894
6201320 215 14907641024571606927
9962374 69 15791746169751323773

> <PUBCHEM_SHAPE_MULTIPOLES>
865.94
31.12
3.34
2.21
2.92
0.34
-0.06
15.72
16.1
2.19
-0.62
-2.35
0.36
4.15

> <PUBCHEM_SHAPE_SELFOVERLAP>
1768.188

> <PUBCHEM_SHAPE_VOLUME>
505.6

> <PUBCHEM_COORDINATE_TYPE>
2
5
10

$$$$

