5462427
  -OEChem-07051212563D

 49 53  0     1  0  0  0  0  0999 V2000
    1.7060   -2.1611    1.6104 O   0  0  0  0  0  0  0  0  0  0  0  0
    3.4063   -0.3391   -1.7553 O   0  0  0  0  0  0  0  0  0  0  0  0
   -0.4221   -3.1189    1.7912 O   0  0  0  0  0  0  0  0  0  0  0  0
    0.7057    3.5522    0.7108 O   0  0  0  0  0  0  0  0  0  0  0  0
    4.7420    1.5195   -1.4916 O   0  0  0  0  0  0  0  0  0  0  0  0
   -1.4624    1.2653   -0.6256 O   0  0  0  0  0  0  0  0  0  0  0  0
   -5.8867    0.5429   -0.8841 O   0  0  0  0  0  0  0  0  0  0  0  0
    2.1072   -0.1845    0.2493 C   0  0  2  0  0  0  0  0  0  0  0  0
    0.6233    0.2332    0.3449 C   0  0  1  0  0  0  0  0  0  0  0  0
   -0.2042   -1.0819    0.4325 C   0  0  1  0  0  0  0  0  0  0  0  0
    2.4143   -1.0455   -0.9814 C   0  0  1  0  0  0  0  0  0  0  0  0
    0.4520    1.2761    1.4840 C   0  0  0  0  0  0  0  0  0  0  0  0
    2.5074   -0.9792    1.5061 C   0  0  0  0  0  0  0  0  0  0  0  0
    2.9212    1.0227    0.0013 C   0  0  0  0  0  0  0  0  0  0  0  0
    0.0430   -1.8619   -0.8962 C   0  0  0  0  0  0  0  0  0  0  0  0
    1.1656   -1.3646   -1.7992 C   0  0  0  0  0  0  0  0  0  0  0  0
    0.3014   -1.8950    1.6706 C   0  0  2  0  0  0  0  0  0  0  0  0
   -1.7042   -0.7580    0.5936 C   0  0  0  0  0  0  0  0  0  0  0  0
    1.4199    2.4804    1.3343 C   0  0  1  0  0  0  0  0  0  0  0  0
    2.6465    2.2352    0.4931 C   0  0  0  0  0  0  0  0  0  0  0  0
    3.8292    0.7997   -1.1301 C   0  0  0  0  0  0  0  0  0  0  0  0
   -2.2569    0.0750   -0.5613 C   0  0  1  0  0  0  0  0  0  0  0  0
   -0.6754   -2.9316   -1.2795 C   0  0  0  0  0  0  0  0  0  0  0  0
   -3.7204    0.4035   -0.4315 C   0  0  0  0  0  0  0  0  0  0  0  0
   -4.3183    1.0809    0.6332 C   0  0  0  0  0  0  0  0  0  0  0  0
   -4.6861    0.0904   -1.3316 C   0  0  0  0  0  0  0  0  0  0  0  0
   -5.6543    1.1445    0.3120 C   0  0  0  0  0  0  0  0  0  0  0  0
    0.4638    0.7559   -0.6016 H   0  0  0  0  0  0  0  0  0  0  0  0
    2.8872   -1.9973   -0.7055 H   0  0  0  0  0  0  0  0  0  0  0  0
    0.6593    0.8068    2.4512 H   0  0  0  0  0  0  0  0  0  0  0  0
   -0.5740    1.6429    1.5651 H   0  0  0  0  0  0  0  0  0  0  0  0
    3.5540   -1.3022    1.4458 H   0  0  0  0  0  0  0  0  0  0  0  0
    2.4245   -0.4022    2.4330 H   0  0  0  0  0  0  0  0  0  0  0  0
    1.4261   -2.1042   -2.5672 H   0  0  0  0  0  0  0  0  0  0  0  0
    0.8330   -0.4817   -2.3597 H   0  0  0  0  0  0  0  0  0  0  0  0
    0.1029   -1.3327    2.5909 H   0  0  0  0  0  0  0  0  0  0  0  0
   -1.8539   -0.2258    1.5422 H   0  0  0  0  0  0  0  0  0  0  0  0
   -2.2982   -1.6761    0.6885 H   0  0  0  0  0  0  0  0  0  0  0  0
    1.7151    2.8296    2.3300 H   0  0  0  0  0  0  0  0  0  0  0  0
    3.2375    3.0967    0.1947 H   0  0  0  0  0  0  0  0  0  0  0  0
   -2.1109   -0.4436   -1.5147 H   0  0  0  0  0  0  0  0  0  0  0  0
   -1.4839   -3.3292   -0.6775 H   0  0  0  0  0  0  0  0  0  0  0  0
   -0.4702   -3.4415   -2.2153 H   0  0  0  0  0  0  0  0  0  0  0  0
   -0.4218   -3.3614    2.7326 H   0  0  0  0  0  0  0  0  0  0  0  0
    1.2710    4.3433    0.7400 H   0  0  0  0  0  0  0  0  0  0  0  0
   -1.8637    1.9388   -0.0514 H   0  0  0  0  0  0  0  0  0  0  0  0
   -3.8582    1.4804    1.5256 H   0  0  0  0  0  0  0  0  0  0  0  0
   -4.7035   -0.4187   -2.2843 H   0  0  0  0  0  0  0  0  0  0  0  0
   -6.5220    1.5615    0.8020 H   0  0  0  0  0  0  0  0  0  0  0  0
  1 13  1  0  0  0  0
  1 17  1  0  0  0  0
  2 11  1  0  0  0  0
  2 21  1  0  0  0  0
  3 17  1  0  0  0  0
  3 44  1  0  0  0  0
  4 19  1  0  0  0  0
  4 45  1  0  0  0  0
  5 21  2  0  0  0  0
  6 22  1  0  0  0  0
  6 46  1  0  0  0  0
  7 26  1  0  0  0  0
  7 27  1  0  0  0  0
  8  9  1  0  0  0  0
  8 11  1  0  0  0  0
  8 13  1  0  0  0  0
  8 14  1  0  0  0  0
  9 10  1  0  0  0  0
  9 12  1  0  0  0  0
  9 28  1  0  0  0  0
 10 15  1  0  0  0  0
 10 17  1  0  0  0  0
 10 18  1  0  0  0  0
 11 16  1  0  0  0  0
 11 29  1  0  0  0  0
 12 19  1  0  0  0  0
 12 30  1  0  0  0  0
 12 31  1  0  0  0  0
 13 32  1  0  0  0  0
 13 33  1  0  0  0  0
 14 20  2  0  0  0  0
 14 21  1  0  0  0  0
 15 16  1  0  0  0  0
 15 23  2  0  0  0  0
 16 34  1  0  0  0  0
 16 35  1  0  0  0  0
 17 36  1  0  0  0  0
 18 22  1  0  0  0  0
 18 37  1  0  0  0  0
 18 38  1  0  0  0  0
 19 20  1  0  0  0  0
 19 39  1  0  0  0  0
 20 40  1  0  0  0  0
 22 24  1  0  0  0  0
 22 41  1  0  0  0  0
 23 42  1  0  0  0  0
 23 43  1  0  0  0  0
 24 25  1  0  0  0  0
 24 26  2  0  0  0  0
 25 27  2  0  0  0  0
 25 47  1  0  0  0  0
 26 48  1  0  0  0  0
 27 49  1  0  0  0  0
M  END
> <PUBCHEM_COMPOUND_CID>
5462427

> <PUBCHEM_CONFORMER_RMSD>
0.8

> <PUBCHEM_CONFORMER_DIVERSEORDER>
1
2

> <PUBCHEM_MMFF94_PARTIAL_CHARGES>
33
1 -0.56
10 0.14
11 0.28
13 0.28
14 -0.12
15 -0.28
16 0.14
17 0.56
19 0.42
2 -0.43
20 -0.29
21 0.71
22 0.46
23 -0.3
24 -0.18
25 -0.15
26 -0.01
27 -0.01
3 -0.68
4 -0.68
40 0.15
42 0.15
43 0.15
44 0.4
45 0.4
46 0.4
47 0.15
48 0.15
49 0.15
5 -0.57
6 -0.68
7 -0.28
8 0.14

> <PUBCHEM_EFFECTIVE_ROTOR_COUNT>
4.4

> <PUBCHEM_PHARMACOPHORE_FEATURES>
14
1 1 acceptor
1 3 acceptor
1 3 donor
1 4 acceptor
1 4 donor
1 5 acceptor
1 6 acceptor
1 6 donor
1 7 acceptor
5 2 8 11 14 21 rings
5 7 24 25 26 27 rings
6 1 8 9 10 13 17 rings
6 8 9 10 11 15 16 rings
6 8 9 12 14 19 20 rings

> <PUBCHEM_HEAVY_ATOM_COUNT>
27

> <PUBCHEM_ATOM_DEF_STEREO_COUNT>
7

> <PUBCHEM_ATOM_UDEF_STEREO_COUNT>
0

> <PUBCHEM_BOND_DEF_STEREO_COUNT>
0

> <PUBCHEM_BOND_UDEF_STEREO_COUNT>
0

> <PUBCHEM_ISOTOPIC_ATOM_COUNT>
0

> <PUBCHEM_COMPONENT_COUNT>
1

> <PUBCHEM_CACTVS_TAUTO_COUNT>
1

> <PUBCHEM_CONFORMER_ID>
0053599B00000001

> <PUBCHEM_MMFF94_ENERGY>
94.9842

> <PUBCHEM_FEATURE_SELFOVERLAP>
72.707

> <PUBCHEM_SHAPE_FINGERPRINT>
10165383 225 17989201534279618628
10366900 7 18343301488031516345
10863032 1 17560793325618030794
10906281 52 18260818264456812008
10930396 42 18044677493367664826
10948715 1 18129655293069417694
11221954 11 17905333922602301896
11961588 58 18340205172607940124
12730499 353 18335974320926710203
13134695 92 17837529535993315267
13224815 77 18412832399969081375
13544653 18 9799422113349862761
13583140 156 18202010897919292187
14955137 171 18197232536027757362
15210252 30 18338505421931541140
15238133 3 18267027343761982137
1601671 61 18113899415902603993
16945 1 18187356593953610610
17492 54 18262503841335504140
17980427 23 17027734648133031200
20691752 17 18058471831965467765
20775530 9 9149525022056057393
21421861 104 17907006627965064273
22149856 69 16700870870410831193
22182313 1 17606958383094662842
22393880 68 18335148574867202261
229495 10 17773620358188560494
23419403 2 17904725978455086034
23558518 356 17762353421988876773
23559900 14 17240771722311789679
238 59 18335139769851962081
25 1 18409444782414770880
2637199 183 18260266343693900863
2748010 2 17827349978545121816
3060560 45 18040722480114081223
34934 24 18262523594206368960
427121 178 17917988382182880051
4340502 62 17846212263179652658
474 4 18333456422050616777
633830 44 18334581231046315893
6442390 28 18059008380976804723
7808743 9 17630597930131071004
9999458 23 17632018653625501346

> <PUBCHEM_SHAPE_MULTIPOLES>
514.56
8.55
3.04
1.78
12.52
0.14
-0.21
4.61
3.56
-1.29
-0.8
-1
-0.83
-0.25

> <PUBCHEM_SHAPE_SELFOVERLAP>
1148.469

> <PUBCHEM_SHAPE_VOLUME>
268.3

> <PUBCHEM_COORDINATE_TYPE>
2
5
10

$$$$

