14030
  -OEChem-06241222412D

 33 32  0     1  0  0  0  0  0999 V2000
    4.5981    0.3840    0.0000 P   0  0  3  0  0  0  0  0  0  0  0  0
    6.3301    0.3840    0.0000 P   0  0  0  0  0  0  0  0  0  0  0  0
    3.7320   -0.1160    0.0000 O   0  0  0  0  0  0  0  0  0  0  0  0
    5.4641    0.8840    0.0000 O   0  0  0  0  0  0  0  0  0  0  0  0
    7.1962    0.8840    0.0000 O   0  0  0  0  0  0  0  0  0  0  0  0
    6.3301   -0.6160    0.0000 O   0  0  0  0  0  0  0  0  0  0  0  0
    4.0981    1.2500    0.0000 O   0  0  0  0  0  0  0  0  0  0  0  0
    5.0981   -0.4821    0.0000 O   0  0  0  0  0  0  0  0  0  0  0  0
    2.8660    0.3840    0.0000 C   0  0  0  0  0  0  0  0  0  0  0  0
    8.0622    0.3840    0.0000 C   0  0  0  0  0  0  0  0  0  0  0  0
    7.1962   -1.1160    0.0000 C   0  0  0  0  0  0  0  0  0  0  0  0
    2.0000   -0.1160    0.0000 C   0  0  0  0  0  0  0  0  0  0  0  0
    8.9282    0.8840    0.0000 C   0  0  0  0  0  0  0  0  0  0  0  0
    7.1962   -2.1160    0.0000 C   0  0  0  0  0  0  0  0  0  0  0  0
    4.5981    2.1160    0.0000 C   0  0  0  0  0  0  0  0  0  0  0  0
    3.2646    0.8589    0.0000 H   0  0  0  0  0  0  0  0  0  0  0  0
    2.4675    0.8589    0.0000 H   0  0  0  0  0  0  0  0  0  0  0  0
    7.6636   -0.0910    0.0000 H   0  0  0  0  0  0  0  0  0  0  0  0
    8.4607   -0.0910    0.0000 H   0  0  0  0  0  0  0  0  0  0  0  0
    7.8067   -1.2237    0.0000 H   0  0  0  0  0  0  0  0  0  0  0  0
    7.4082   -0.5334    0.0000 H   0  0  0  0  0  0  0  0  0  0  0  0
    1.6900    0.4209    0.0000 H   0  0  0  0  0  0  0  0  0  0  0  0
    1.4631   -0.4260    0.0000 H   0  0  0  0  0  0  0  0  0  0  0  0
    2.3100   -0.6530    0.0000 H   0  0  0  0  0  0  0  0  0  0  0  0
    9.2382    0.3470    0.0000 H   0  0  0  0  0  0  0  0  0  0  0  0
    9.4651    1.1940    0.0000 H   0  0  0  0  0  0  0  0  0  0  0  0
    8.6182    1.4209    0.0000 H   0  0  0  0  0  0  0  0  0  0  0  0
    6.5762   -2.1160    0.0000 H   0  0  0  0  0  0  0  0  0  0  0  0
    7.1962   -2.7360    0.0000 H   0  0  0  0  0  0  0  0  0  0  0  0
    7.8162   -2.1160    0.0000 H   0  0  0  0  0  0  0  0  0  0  0  0
    5.1350    1.8060    0.0000 H   0  0  0  0  0  0  0  0  0  0  0  0
    4.9081    2.6530    0.0000 H   0  0  0  0  0  0  0  0  0  0  0  0
    4.0611    2.4260    0.0000 H   0  0  0  0  0  0  0  0  0  0  0  0
  1  3  1  0  0  0  0
  1  4  1  0  0  0  0
  1  7  1  0  0  0  0
  1  8  2  0  0  0  0
  2  4  1  0  0  0  0
  2  5  1  0  0  0  0
  2  6  1  0  0  0  0
  3  9  1  0  0  0  0
  5 10  1  0  0  0  0
  6 11  1  0  0  0  0
  7 15  1  0  0  0  0
  9 12  1  0  0  0  0
  9 16  1  0  0  0  0
  9 17  1  0  0  0  0
 10 13  1  0  0  0  0
 10 18  1  0  0  0  0
 10 19  1  0  0  0  0
 11 14  1  0  0  0  0
 11 20  1  0  0  0  0
 11 21  1  0  0  0  0
 12 22  1  0  0  0  0
 12 23  1  0  0  0  0
 12 24  1  0  0  0  0
 13 25  1  0  0  0  0
 13 26  1  0  0  0  0
 13 27  1  0  0  0  0
 14 28  1  0  0  0  0
 14 29  1  0  0  0  0
 14 30  1  0  0  0  0
 15 31  1  0  0  0  0
 15 32  1  0  0  0  0
 15 33  1  0  0  0  0
M  END
> <PUBCHEM_COMPOUND_CID>
14030

> <PUBCHEM_COMPOUND_CANONICALIZED>
1

> <PUBCHEM_CACTVS_COMPLEXITY>
194

> <PUBCHEM_CACTVS_HBOND_ACCEPTOR>
6

> <PUBCHEM_CACTVS_HBOND_DONOR>
0

> <PUBCHEM_CACTVS_ROTATABLE_BOND>
9

> <PUBCHEM_CACTVS_SUBSKEYS>
AAADceBgOAMAAAAAAAAAAAAAAAAAAAAAAAAAAAAAAAAAAAAAAAAAGgAAACAAAACggAICAAAAARAAQAAAAIAAAAAAAAAAAAAAAAAAAAAAAAAAAAAAAAAAAAAAAAAAAAAAAAAAAAAAAAAAAAAAAAAAAAAAAA==

> <PUBCHEM_IUPAC_OPENEYE_NAME>
diethoxyphosphanyl ethyl methyl phosphate

> <PUBCHEM_IUPAC_CAS_NAME>
phosphoric acid diethoxyphosphino ethyl methyl ester

> <PUBCHEM_IUPAC_NAME>
diethoxyphosphanyl ethyl methyl phosphate

> <PUBCHEM_IUPAC_SYSTEMATIC_NAME>
diethoxyphosphanyl ethyl methyl phosphate

> <PUBCHEM_IUPAC_TRADITIONAL_NAME>
phosphoric acid diethoxyphosphino ethyl methyl ester

> <PUBCHEM_IUPAC_INCHI>
InChI=1S/C7H18O6P2/c1-5-10-14(11-6-2)13-15(8,9-4)12-7-3/h5-7H2,1-4H3

> <PUBCHEM_IUPAC_INCHIKEY>
QGFRGYGPVCJCJZ-UHFFFAOYSA-N

> <PUBCHEM_XLOGP3_AA>
0.6

> <PUBCHEM_EXACT_MASS>
260.057862

> <PUBCHEM_MOLECULAR_FORMULA>
C7H18O6P2

> <PUBCHEM_MOLECULAR_WEIGHT>
260.161744

> <PUBCHEM_OPENEYE_CAN_SMILES>
CCOP(OCC)OP(=O)(OC)OCC

> <PUBCHEM_OPENEYE_ISO_SMILES>
CCOP(OCC)OP(=O)(OC)OCC

> <PUBCHEM_CACTVS_TPSA>
63.2

> <PUBCHEM_MONOISOTOPIC_WEIGHT>
260.057862

> <PUBCHEM_TOTAL_CHARGE>
0

> <PUBCHEM_HEAVY_ATOM_COUNT>
15

> <PUBCHEM_ATOM_DEF_STEREO_COUNT>
0

> <PUBCHEM_ATOM_UDEF_STEREO_COUNT>
1

> <PUBCHEM_BOND_DEF_STEREO_COUNT>
0

> <PUBCHEM_BOND_UDEF_STEREO_COUNT>
0

> <PUBCHEM_ISOTOPIC_ATOM_COUNT>
0

> <PUBCHEM_COMPONENT_COUNT>
1

> <PUBCHEM_CACTVS_TAUTO_COUNT>
1

> <PUBCHEM_COORDINATE_TYPE>
1
5
255

> <PUBCHEM_BONDANNOTATIONS>
1  4  3

$$$$

