21419
  -OEChem-07051213053D

 23 24  0     0  0  0  0  0  0999 V2000
    3.2188    2.4786    0.0009 Cl  0  0  0  0  0  0  0  0  0  0  0  0
    3.0757   -2.9040   -0.0006 Cl  0  0  0  0  0  0  0  0  0  0  0  0
    0.2443    2.2459    0.0001 O   0  0  0  0  0  0  0  0  0  0  0  0
    0.1776   -0.1442    0.0000 C   0  0  0  0  0  0  0  0  0  0  0  0
   -1.2692   -0.1380    0.0002 C   0  0  0  0  0  0  0  0  0  0  0  0
    0.9027    1.0488    0.0010 C   0  0  0  0  0  0  0  0  0  0  0  0
    0.8520   -1.3666   -0.0011 C   0  0  0  0  0  0  0  0  0  0  0  0
   -1.9668   -0.1359    1.2080 C   0  0  0  0  0  0  0  0  0  0  0  0
   -1.9664   -0.1321   -1.2078 C   0  0  0  0  0  0  0  0  0  0  0  0
    2.2973    1.0196    0.0009 C   0  0  0  0  0  0  0  0  0  0  0  0
    2.2465   -1.3957   -0.0011 C   0  0  0  0  0  0  0  0  0  0  0  0
    2.9692   -0.2027   -0.0001 C   0  0  0  0  0  0  0  0  0  0  0  0
   -3.3616   -0.1278    1.2079 C   0  0  0  0  0  0  0  0  0  0  0  0
   -3.3612   -0.1240   -1.2080 C   0  0  0  0  0  0  0  0  0  0  0  0
   -4.0589   -0.1218   -0.0002 C   0  0  0  0  0  0  0  0  0  0  0  0
    0.2919   -2.3001   -0.0016 H   0  0  0  0  0  0  0  0  0  0  0  0
   -1.4387   -0.1395    2.1587 H   0  0  0  0  0  0  0  0  0  0  0  0
   -1.4382   -0.1327   -2.1583 H   0  0  0  0  0  0  0  0  0  0  0  0
    4.0569   -0.2271    0.0000 H   0  0  0  0  0  0  0  0  0  0  0  0
   -3.9049   -0.1258    2.1483 H   0  0  0  0  0  0  0  0  0  0  0  0
   -3.9042   -0.1191   -2.1486 H   0  0  0  0  0  0  0  0  0  0  0  0
   -5.1449   -0.1153   -0.0003 H   0  0  0  0  0  0  0  0  0  0  0  0
   -0.7177    2.1248    0.0011 H   0  0  0  0  0  0  0  0  0  0  0  0
  1 10  1  0  0  0  0
  2 11  1  0  0  0  0
  3  6  1  0  0  0  0
  3 23  1  0  0  0  0
  4  5  1  0  0  0  0
  4  6  2  0  0  0  0
  4  7  1  0  0  0  0
  5  8  2  0  0  0  0
  5  9  1  0  0  0  0
  6 10  1  0  0  0  0
  7 11  2  0  0  0  0
  7 16  1  0  0  0  0
  8 13  1  0  0  0  0
  8 17  1  0  0  0  0
  9 14  2  0  0  0  0
  9 18  1  0  0  0  0
 10 12  2  0  0  0  0
 11 12  1  0  0  0  0
 12 19  1  0  0  0  0
 13 15  2  0  0  0  0
 13 20  1  0  0  0  0
 14 15  1  0  0  0  0
 14 21  1  0  0  0  0
 15 22  1  0  0  0  0
M  END
> <PUBCHEM_COMPOUND_CID>
21419

> <PUBCHEM_CONFORMER_RMSD>
0.4

> <PUBCHEM_CONFORMER_DIVERSEORDER>
1
2

> <PUBCHEM_MMFF94_PARTIAL_CHARGES>
21
1 -0.18
10 0.18
11 0.18
12 -0.15
13 -0.15
14 -0.15
15 -0.15
16 0.15
17 0.15
18 0.15
19 0.15
2 -0.18
20 0.15
21 0.15
22 0.15
23 0.45
3 -0.53
6 0.08
7 -0.15
8 -0.15
9 -0.15

> <PUBCHEM_EFFECTIVE_ROTOR_COUNT>
1

> <PUBCHEM_PHARMACOPHORE_FEATURES>
3
1 3 donor
6 4 6 7 10 11 12 rings
6 5 8 9 13 14 15 rings

> <PUBCHEM_HEAVY_ATOM_COUNT>
15

> <PUBCHEM_ATOM_DEF_STEREO_COUNT>
0

> <PUBCHEM_ATOM_UDEF_STEREO_COUNT>
0

> <PUBCHEM_BOND_DEF_STEREO_COUNT>
0

> <PUBCHEM_BOND_UDEF_STEREO_COUNT>
0

> <PUBCHEM_ISOTOPIC_ATOM_COUNT>
0

> <PUBCHEM_COMPONENT_COUNT>
1

> <PUBCHEM_CACTVS_TAUTO_COUNT>
3

> <PUBCHEM_CONFORMER_ID>
000053AB00000001

> <PUBCHEM_MMFF94_ENERGY>
44.748

> <PUBCHEM_FEATURE_SELFOVERLAP>
15.223

> <PUBCHEM_SHAPE_FINGERPRINT>
10608611 8 18202290203594613877
10980938 120 18410013200041031508
11031198 65 18342454790224791516
11471102 20 18411702067112858708
12236239 1 17748544840286749323
12553582 1 18192708071491479806
12932764 1 17603588512851758321
13140716 1 18266463105703364026
13296908 3 17917709123657226995
13538477 17 17385730149558780455
13581323 91 15051742962520164745
14144814 61 18186238424761027859
14251717 144 18408891719497345974
15219456 202 18060139812663964773
15279307 12 18114745906453542942
15309172 13 18195807375462558376
15442244 35 18191863637638577777
15775835 57 18041838407249605245
16945 1 18410573989921204582
17844478 74 17917708011376676989
1813 80 17898275350458201374
18186145 218 18335413509460866052
19049666 15 17845663671502231845
19422 9 17967813851455408455
19784866 34 18192430766943629864
200 152 18260276265284749327
20201158 50 18202002144169131851
20279233 1 17775006765104882939
20361792 2 18263648526980847951
204376 136 18123470484381584144
20645476 183 17822294514269373807
20645477 70 18340779207761383855
20671657 53 18268147754637530946
20715346 28 17846495915884039307
20871998 22 18046060721195551718
21499 59 18193840345039573228
21501502 16 18265890444301664232
21639500 275 18337118856058327269
22112679 90 17313103064079005793
2255824 54 18334855030774258094
22802520 49 18059303182962598309
22943178 12 17989204845905086483
23557571 272 17060337422580424637
23559900 14 16917072195800837386
23598291 2 18040156205956290671
25 1 18339924797074375996
2748010 2 18048891985253855478
458136 41 18269260284484994716
474 4 18190463749046805176
54173680 148 17546163468970409394
581208 293 18336552637861426120
6049 1 17846213397193229381
633830 44 18042669616660598988
7364860 26 18408604769091317610
7615 1 17821732757979256809
77492 1 17676487246233016615
81228 2 17545606012158554760
81539 233 18200594692445561596
8272917 22 18335695070489695519
84936 182 17968945167142263304
9981440 41 15655239357342581352

> <PUBCHEM_SHAPE_MULTIPOLES>
306.56
6.71
2.33
1.01
3.31
0.11
0
0.55
0
-3.98
0
1.04
0.05
0

> <PUBCHEM_SHAPE_SELFOVERLAP>
649.696

> <PUBCHEM_SHAPE_VOLUME>
173.8

> <PUBCHEM_COORDINATE_TYPE>
2
5
10

$$$$

