11954088
  -OEChem-07051213062D

 54 57  0     1  0  0  0  0  0999 V2000
   10.3820    1.5983    0.0000 S   0  0  0  0  0  0  0  0  0  0  0  0
    3.7320   -2.7092    0.0000 O   0  0  0  0  0  0  0  0  0  0  0  0
   12.0284    1.0603    0.0000 O   0  0  0  0  0  0  0  0  0  0  0  0
    2.8718   -1.2059    0.0000 O   0  0  0  0  0  0  0  0  0  0  0  0
    9.1251    0.3431    0.0000 C   0  0  1  0  0  0  0  0  0  0  0  0
    9.1251   -0.6569    0.0000 C   0  0  2  0  0  0  0  0  0  0  0  0
    8.2591   -1.1569    0.0000 C   0  0  1  0  0  0  0  0  0  0  0  0
    7.3931   -0.6569    0.0000 C   0  0  2  0  0  0  0  0  0  0  0  0
   10.0713    0.6478    0.0000 C   0  0  2  0  0  0  0  0  0  0  0  0
    8.2591    0.8431    0.0000 C   0  0  0  0  0  0  0  0  0  0  0  0
   10.0713   -0.9616    0.0000 C   0  0  0  0  0  0  0  0  0  0  0  0
    7.3931    0.3431    0.0000 C   0  0  0  0  0  0  0  0  0  0  0  0
   10.6550   -0.1569    0.0000 C   0  0  0  0  0  0  0  0  0  0  0  0
    8.2752   -2.1984    0.0000 C   0  0  0  0  0  0  0  0  0  0  0  0
    9.1251    1.3431    0.0000 C   0  0  0  0  0  0  0  0  0  0  0  0
    6.4831   -1.1638    0.0000 C   0  0  0  0  0  0  0  0  0  0  0  0
    7.3771   -2.7262    0.0000 C   0  0  0  0  0  0  0  0  0  0  0  0
    6.4750   -2.2054    0.0000 C   0  0  0  0  0  0  0  0  0  0  0  0
    5.5562   -0.5997    0.0000 C   0  0  0  0  0  0  0  0  0  0  0  0
    5.5396   -2.7551    0.0000 C   0  0  0  0  0  0  0  0  0  0  0  0
   11.3605    1.8046    0.0000 C   0  0  0  0  0  0  0  0  0  0  0  0
    4.6084   -1.1276    0.0000 C   0  0  0  0  0  0  0  0  0  0  0  0
    4.6000   -2.2126    0.0000 C   0  0  0  0  0  0  0  0  0  0  0  0
   11.6712    2.7551    0.0000 C   0  0  0  0  0  0  0  0  0  0  0  0
    2.8680   -2.2059    0.0000 C   0  0  0  0  0  0  0  0  0  0  0  0
    2.0000   -2.7026    0.0000 C   0  0  0  0  0  0  0  0  0  0  0  0
    9.2151   -1.5021    0.0000 H   0  0  0  0  0  0  0  0  0  0  0  0
    8.9985   -1.5762    0.0000 H   0  0  0  0  0  0  0  0  0  0  0  0
    8.1292   -0.2319    0.0000 H   0  0  0  0  0  0  0  0  0  0  0  0
    9.6339    1.0872    0.0000 H   0  0  0  0  0  0  0  0  0  0  0  0
    8.6576    1.3180    0.0000 H   0  0  0  0  0  0  0  0  0  0  0  0
    7.8606    1.3180    0.0000 H   0  0  0  0  0  0  0  0  0  0  0  0
    9.8203   -1.5286    0.0000 H   0  0  0  0  0  0  0  0  0  0  0  0
   10.6087   -1.2709    0.0000 H   0  0  0  0  0  0  0  0  0  0  0  0
    7.1810    0.9257    0.0000 H   0  0  0  0  0  0  0  0  0  0  0  0
    6.7825    0.2354    0.0000 H   0  0  0  0  0  0  0  0  0  0  0  0
   11.1158   -0.5716    0.0000 H   0  0  0  0  0  0  0  0  0  0  0  0
   11.1158    0.2578    0.0000 H   0  0  0  0  0  0  0  0  0  0  0  0
    8.4932   -2.7788    0.0000 H   0  0  0  0  0  0  0  0  0  0  0  0
    8.8843   -2.0829    0.0000 H   0  0  0  0  0  0  0  0  0  0  0  0
    9.7451    1.3431    0.0000 H   0  0  0  0  0  0  0  0  0  0  0  0
    9.1251    1.9631    0.0000 H   0  0  0  0  0  0  0  0  0  0  0  0
    8.5051    1.3431    0.0000 H   0  0  0  0  0  0  0  0  0  0  0  0
    6.9798   -3.2021    0.0000 H   0  0  0  0  0  0  0  0  0  0  0  0
    7.7781   -3.1991    0.0000 H   0  0  0  0  0  0  0  0  0  0  0  0
    5.5682    0.0202    0.0000 H   0  0  0  0  0  0  0  0  0  0  0  0
    5.5420   -3.3751    0.0000 H   0  0  0  0  0  0  0  0  0  0  0  0
    4.0750   -0.8114    0.0000 H   0  0  0  0  0  0  0  0  0  0  0  0
   12.2605    2.5625    0.0000 H   0  0  0  0  0  0  0  0  0  0  0  0
   11.8638    3.3444    0.0000 H   0  0  0  0  0  0  0  0  0  0  0  0
   11.0818    2.9477    0.0000 H   0  0  0  0  0  0  0  0  0  0  0  0
    1.6921   -2.1644    0.0000 H   0  0  0  0  0  0  0  0  0  0  0  0
    1.4619   -3.0105    0.0000 H   0  0  0  0  0  0  0  0  0  0  0  0
    2.3079   -3.2407    0.0000 H   0  0  0  0  0  0  0  0  0  0  0  0
  9  1  1  1  0  0  0
  1 21  1  0  0  0  0
  2 23  1  0  0  0  0
  2 25  1  0  0  0  0
  3 21  2  0  0  0  0
  4 25  2  0  0  0  0
  5  6  1  0  0  0  0
  5  9  1  0  0  0  0
  5 10  1  0  0  0  0
  5 15  1  1  0  0  0
  6  7  1  0  0  0  0
  6 11  1  0  0  0  0
  6 27  1  6  0  0  0
  7  8  1  0  0  0  0
  7 14  1  0  0  0  0
  7 28  1  1  0  0  0
  8 12  1  0  0  0  0
  8 16  1  0  0  0  0
  8 29  1  6  0  0  0
  9 13  1  0  0  0  0
  9 30  1  0  0  0  0
 10 12  1  0  0  0  0
 10 31  1  0  0  0  0
 10 32  1  0  0  0  0
 11 13  1  0  0  0  0
 11 33  1  0  0  0  0
 11 34  1  0  0  0  0
 12 35  1  0  0  0  0
 12 36  1  0  0  0  0
 13 37  1  0  0  0  0
 13 38  1  0  0  0  0
 14 17  1  0  0  0  0
 14 39  1  0  0  0  0
 14 40  1  0  0  0  0
 15 41  1  0  0  0  0
 15 42  1  0  0  0  0
 15 43  1  0  0  0  0
 16 18  2  0  0  0  0
 16 19  1  0  0  0  0
 17 18  1  0  0  0  0
 17 44  1  0  0  0  0
 17 45  1  0  0  0  0
 18 20  1  0  0  0  0
 19 22  2  0  0  0  0
 19 46  1  0  0  0  0
 20 23  2  0  0  0  0
 20 47  1  0  0  0  0
 21 24  1  0  0  0  0
 22 23  1  0  0  0  0
 22 48  1  0  0  0  0
 24 49  1  0  0  0  0
 24 50  1  0  0  0  0
 24 51  1  0  0  0  0
 25 26  1  0  0  0  0
 26 52  1  0  0  0  0
 26 53  1  0  0  0  0
 26 54  1  0  0  0  0
M  END
> <PUBCHEM_COMPOUND_CID>
11954088

> <PUBCHEM_COMPOUND_CANONICALIZED>
1

> <PUBCHEM_CACTVS_COMPLEXITY>
576

> <PUBCHEM_CACTVS_HBOND_ACCEPTOR>
4

> <PUBCHEM_CACTVS_HBOND_DONOR>
0

> <PUBCHEM_CACTVS_ROTATABLE_BOND>
4

> <PUBCHEM_CACTVS_SUBSKEYS>
AAADceB4MABAAAAAAAAAAAAAAAAAAYAAAAAwYMAAAAAAAGDBAAAAGgQAAAAADwSE2ACyDoAABAiIAiDSCAACCAAgIBAIiAAGCIgMJiKkMRqCOiCkwBEoqAeAwPAPoAABAAAQAADAAAYAACAAAEAACgAAAA==

> <PUBCHEM_IUPAC_OPENEYE_NAME>
[(8R,9S,13S,14S,17S)-17-acetylsulfanyl-13-methyl-6,7,8,9,11,12,14,15,16,17-decahydrocyclopenta[a]phenanthren-3-yl] acetate

> <PUBCHEM_IUPAC_CAS_NAME>
acetic acid [(8R,9S,13S,14S,17S)-17-(acetylthio)-13-methyl-6,7,8,9,11,12,14,15,16,17-decahydrocyclopenta[a]phenanthren-3-yl] ester

> <PUBCHEM_IUPAC_NAME>
[(8R,9S,13S,14S,17S)-17-acetylsulfanyl-13-methyl-6,7,8,9,11,12,14,15,16,17-decahydrocyclopenta[a]phenanthren-3-yl] acetate

> <PUBCHEM_IUPAC_SYSTEMATIC_NAME>
[(8R,9S,13S,14S,17S)-17-ethanoylsulfanyl-13-methyl-6,7,8,9,11,12,14,15,16,17-decahydrocyclopenta[a]phenanthren-3-yl] ethanoate

> <PUBCHEM_IUPAC_TRADITIONAL_NAME>
acetic acid [(8R,9S,13S,14S,17S)-17-(acetylthio)-13-methyl-6,7,8,9,11,12,14,15,16,17-decahydrocyclopenta[a]phenanthren-3-yl] ester

> <PUBCHEM_IUPAC_INCHI>
InChI=1S/C22H28O3S/c1-13(23)25-16-5-7-17-15(12-16)4-6-19-18(17)10-11-22(3)20(19)8-9-21(22)26-14(2)24/h5,7,12,18-21H,4,6,8-11H2,1-3H3/t18-,19-,20+,21+,22+/m1/s1

> <PUBCHEM_IUPAC_INCHIKEY>
RVOGPLZAOZWWPL-AANPDWTMSA-N

> <PUBCHEM_XLOGP3>
3.9

> <PUBCHEM_EXACT_MASS>
372.175916

> <PUBCHEM_MOLECULAR_FORMULA>
C22H28O3S

> <PUBCHEM_MOLECULAR_WEIGHT>
372.52092

> <PUBCHEM_OPENEYE_CAN_SMILES>
CC(=O)OC1=CC2=C(C=C1)C3CCC4(C(C3CC2)CCC4SC(=O)C)C

> <PUBCHEM_OPENEYE_ISO_SMILES>
CC(=O)OC1=CC2=C(C=C1)[C@H]3CC[C@]4([C@H]([C@@H]3CC2)CC[C@@H]4SC(=O)C)C

> <PUBCHEM_CACTVS_TPSA>
68.7

> <PUBCHEM_MONOISOTOPIC_WEIGHT>
372.175916

> <PUBCHEM_TOTAL_CHARGE>
0

> <PUBCHEM_HEAVY_ATOM_COUNT>
26

> <PUBCHEM_ATOM_DEF_STEREO_COUNT>
5

> <PUBCHEM_ATOM_UDEF_STEREO_COUNT>
0

> <PUBCHEM_BOND_DEF_STEREO_COUNT>
0

> <PUBCHEM_BOND_UDEF_STEREO_COUNT>
0

> <PUBCHEM_ISOTOPIC_ATOM_COUNT>
0

> <PUBCHEM_COMPONENT_COUNT>
1

> <PUBCHEM_CACTVS_TAUTO_COUNT>
1

> <PUBCHEM_COORDINATE_TYPE>
1
5
255

> <PUBCHEM_BONDANNOTATIONS>
9  1  5
16  18  8
16  19  8
18  20  8
19  22  8
20  23  8
22  23  8
5  15  5
6  27  6
7  28  5
8  29  6

$$$$

