17395510
  -OEChem-06241222502D

 37 40  0     0  0  0  0  0  0999 V2000
    2.3660   -1.7710    0.0000 O   0  0  0  0  0  0  0  0  0  0  0  0
    2.0000    1.2679    0.0000 O   0  0  0  0  0  0  0  0  0  0  0  0
    3.7320    1.2679    0.0000 N   0  0  0  0  0  0  0  0  0  0  0  0
    5.4920    2.2332    0.0000 N   0  0  0  0  0  0  0  0  0  0  0  0
    2.0570   -0.8199    0.0000 N   0  0  0  0  0  0  0  0  0  0  0  0
    3.7320    2.2679    0.0000 C   0  0  0  0  0  0  0  0  0  0  0  0
    4.5981    2.7679    0.0000 C   0  0  0  0  0  0  0  0  0  0  0  0
    4.5981    3.7679    0.0000 C   0  0  0  0  0  0  0  0  0  0  0  0
    2.8660    2.7679    0.0000 C   0  0  0  0  0  0  0  0  0  0  0  0
    3.7320    4.2679    0.0000 C   0  0  0  0  0  0  0  0  0  0  0  0
    3.3660   -1.7710    0.0000 C   0  0  0  0  0  0  0  0  0  0  0  0
    2.8660   -0.2321    0.0000 C   0  0  0  0  0  0  0  0  0  0  0  0
    2.8660    3.7679    0.0000 C   0  0  0  0  0  0  0  0  0  0  0  0
    3.9538   -2.5800    0.0000 C   0  0  0  0  0  0  0  0  0  0  0  0
    5.4920    4.3025    0.0000 C   0  0  0  0  0  0  0  0  0  0  0  0
    2.8660    0.7679    0.0000 C   0  0  0  0  0  0  0  0  0  0  0  0
    3.6750   -0.8199    0.0000 C   0  0  0  0  0  0  0  0  0  0  0  0
    6.3981    3.7887    0.0000 C   0  0  0  0  0  0  0  0  0  0  0  0
    3.5471   -3.4935    0.0000 C   0  0  0  0  0  0  0  0  0  0  0  0
    4.9483   -2.4754    0.0000 C   0  0  0  0  0  0  0  0  0  0  0  0
    6.3981    2.7471    0.0000 C   0  0  0  0  0  0  0  0  0  0  0  0
    4.1349   -4.3025    0.0000 C   0  0  0  0  0  0  0  0  0  0  0  0
    5.5361   -3.2845    0.0000 C   0  0  0  0  0  0  0  0  0  0  0  0
    5.1294   -4.1980    0.0000 C   0  0  0  0  0  0  0  0  0  0  0  0
    2.3291    2.4579    0.0000 H   0  0  0  0  0  0  0  0  0  0  0  0
    4.2690    0.9579    0.0000 H   0  0  0  0  0  0  0  0  0  0  0  0
    3.7320    4.8879    0.0000 H   0  0  0  0  0  0  0  0  0  0  0  0
    2.3291    4.0779    0.0000 H   0  0  0  0  0  0  0  0  0  0  0  0
    5.4848    4.9225    0.0000 H   0  0  0  0  0  0  0  0  0  0  0  0
    4.2647   -0.6283    0.0000 H   0  0  0  0  0  0  0  0  0  0  0  0
    6.9338    4.1008    0.0000 H   0  0  0  0  0  0  0  0  0  0  0  0
    2.9305   -3.5583    0.0000 H   0  0  0  0  0  0  0  0  0  0  0  0
    5.2005   -1.9090    0.0000 H   0  0  0  0  0  0  0  0  0  0  0  0
    6.9338    2.4350    0.0000 H   0  0  0  0  0  0  0  0  0  0  0  0
    3.8827   -4.8689    0.0000 H   0  0  0  0  0  0  0  0  0  0  0  0
    6.1527   -3.2197    0.0000 H   0  0  0  0  0  0  0  0  0  0  0  0
    5.4938   -4.6996    0.0000 H   0  0  0  0  0  0  0  0  0  0  0  0
  1  5  1  0  0  0  0
  1 11  1  0  0  0  0
  2 16  2  0  0  0  0
  3  6  1  0  0  0  0
  3 16  1  0  0  0  0
  3 26  1  0  0  0  0
  4  7  1  0  0  0  0
  4 21  2  0  0  0  0
  5 12  2  0  0  0  0
  6  7  1  0  0  0  0
  6  9  2  0  0  0  0
  7  8  2  0  0  0  0
  8 10  1  0  0  0  0
  8 15  1  0  0  0  0
  9 13  1  0  0  0  0
  9 25  1  0  0  0  0
 10 13  2  0  0  0  0
 10 27  1  0  0  0  0
 11 14  1  0  0  0  0
 11 17  2  0  0  0  0
 12 16  1  0  0  0  0
 12 17  1  0  0  0  0
 13 28  1  0  0  0  0
 14 19  2  0  0  0  0
 14 20  1  0  0  0  0
 15 18  2  0  0  0  0
 15 29  1  0  0  0  0
 17 30  1  0  0  0  0
 18 21  1  0  0  0  0
 18 31  1  0  0  0  0
 19 22  1  0  0  0  0
 19 32  1  0  0  0  0
 20 23  2  0  0  0  0
 20 33  1  0  0  0  0
 21 34  1  0  0  0  0
 22 24  2  0  0  0  0
 22 35  1  0  0  0  0
 23 24  1  0  0  0  0
 23 36  1  0  0  0  0
 24 37  1  0  0  0  0
M  END
> <PUBCHEM_COMPOUND_CID>
17395510

> <PUBCHEM_COMPOUND_CANONICALIZED>
1

> <PUBCHEM_CACTVS_COMPLEXITY>
438

> <PUBCHEM_CACTVS_HBOND_ACCEPTOR>
4

> <PUBCHEM_CACTVS_HBOND_DONOR>
1

> <PUBCHEM_CACTVS_ROTATABLE_BOND>
3

> <PUBCHEM_CACTVS_SUBSKEYS>
AAADccB7MAAAAAAAAAAAAAAAAAAAAWAAAAA8YIAAAAAAAACx/AAAHgAUAAAADAzBngQ8xPLYEACpA7V3VgCCgCA3MiAo2CG+fNoIZvrAlZOUMYhm1BnIyce/yKCOAAAAQAACACAAAACAAAQAQAAAAAAAAA==

> <PUBCHEM_IUPAC_OPENEYE_NAME>
5-phenyl-N-(8-quinolyl)isoxazole-3-carboxamide

> <PUBCHEM_IUPAC_CAS_NAME>
5-phenyl-N-(8-quinolinyl)-3-isoxazolecarboxamide

> <PUBCHEM_IUPAC_NAME>
5-phenyl-N-quinolin-8-yl-1,2-oxazole-3-carboxamide

> <PUBCHEM_IUPAC_SYSTEMATIC_NAME>
5-phenyl-N-quinolin-8-yl-1,2-oxazole-3-carboxamide

> <PUBCHEM_IUPAC_TRADITIONAL_NAME>
5-phenyl-N-(8-quinolyl)isoxazole-3-carboxamide

> <PUBCHEM_IUPAC_INCHI>
InChI=1S/C19H13N3O2/c23-19(16-12-17(24-22-16)13-6-2-1-3-7-13)21-15-10-4-8-14-9-5-11-20-18(14)15/h1-12H,(H,21,23)

> <PUBCHEM_IUPAC_INCHIKEY>
QOHMOWJKVFOVGM-UHFFFAOYSA-N

> <PUBCHEM_XLOGP3_AA>
3.5

> <PUBCHEM_EXACT_MASS>
315.100777

> <PUBCHEM_MOLECULAR_FORMULA>
C19H13N3O2

> <PUBCHEM_MOLECULAR_WEIGHT>
315.32542

> <PUBCHEM_OPENEYE_CAN_SMILES>
C1=CC=C(C=C1)C2=CC(=NO2)C(=O)NC3=CC=CC4=C3N=CC=C4

> <PUBCHEM_OPENEYE_ISO_SMILES>
C1=CC=C(C=C1)C2=CC(=NO2)C(=O)NC3=CC=CC4=C3N=CC=C4

> <PUBCHEM_CACTVS_TPSA>
68

> <PUBCHEM_MONOISOTOPIC_WEIGHT>
315.100777

> <PUBCHEM_TOTAL_CHARGE>
0

> <PUBCHEM_HEAVY_ATOM_COUNT>
24

> <PUBCHEM_ATOM_DEF_STEREO_COUNT>
0

> <PUBCHEM_ATOM_UDEF_STEREO_COUNT>
0

> <PUBCHEM_BOND_DEF_STEREO_COUNT>
0

> <PUBCHEM_BOND_UDEF_STEREO_COUNT>
0

> <PUBCHEM_ISOTOPIC_ATOM_COUNT>
0

> <PUBCHEM_COMPONENT_COUNT>
1

> <PUBCHEM_CACTVS_TAUTO_COUNT>
2

> <PUBCHEM_COORDINATE_TYPE>
1
5
255

> <PUBCHEM_BONDANNOTATIONS>
1  11  8
1  5  8
10  13  8
11  17  8
12  17  8
14  19  8
14  20  8
15  18  8
18  21  8
19  22  8
20  23  8
22  24  8
23  24  8
4  21  8
4  7  8
5  12  8
6  7  8
6  9  8
7  8  8
8  10  8
8  15  8
9  13  8

$$$$

