47205649
  -OEChem-06241222593D

 38 38  0     1  0  0  0  0  0999 V2000
    5.1006    2.4955    0.2358 Cl  0  0  0  0  0  0  0  0  0  0  0  0
    6.7537    0.0478   -1.0867 Cl  0  0  0  0  0  0  0  0  0  0  0  0
   -1.6727   -1.3851    0.2735 O   0  0  0  0  0  0  0  0  0  0  0  0
   -4.1814    1.1516    0.8169 O   0  0  0  0  0  0  0  0  0  0  0  0
    0.1543    0.0400    0.0916 N   0  0  0  0  0  0  0  0  0  0  0  0
   -3.2772    0.2602   -1.1265 N   0  0  0  0  0  0  0  0  0  0  0  0
    1.0967   -0.7560    0.8448 C   0  0  1  0  0  0  0  0  0  0  0  0
    2.5153   -0.5378    0.3644 C   0  0  0  0  0  0  0  0  0  0  0  0
    0.9359   -0.4862    2.3395 C   0  0  0  0  0  0  0  0  0  0  0  0
   -1.1597   -0.3450   -0.1317 C   0  0  0  0  0  0  0  0  0  0  0  0
   -1.9241    0.7106   -0.9018 C   0  0  0  0  0  0  0  0  0  0  0  0
    3.1098    0.7176    0.4911 C   0  0  0  0  0  0  0  0  0  0  0  0
    3.2284   -1.5929   -0.2047 C   0  0  0  0  0  0  0  0  0  0  0  0
   -5.6234   -0.0579   -0.7062 C   0  0  0  0  0  0  0  0  0  0  0  0
   -6.7668    0.2225    0.2645 C   0  0  0  0  0  0  0  0  0  0  0  0
   -4.3041    0.5249   -0.2321 C   0  0  0  0  0  0  0  0  0  0  0  0
    4.4175    0.9180    0.0489 C   0  0  0  0  0  0  0  0  0  0  0  0
    4.5360   -1.3925   -0.6471 C   0  0  0  0  0  0  0  0  0  0  0  0
    5.1306   -0.1371   -0.5203 C   0  0  0  0  0  0  0  0  0  0  0  0
   -8.0693   -0.3980   -0.2139 C   0  0  0  0  0  0  0  0  0  0  0  0
    0.8292   -1.8084    0.6820 H   0  0  0  0  0  0  0  0  0  0  0  0
    0.4570    0.9466   -0.2542 H   0  0  0  0  0  0  0  0  0  0  0  0
    1.6483   -1.0778    2.9250 H   0  0  0  0  0  0  0  0  0  0  0  0
   -0.0737   -0.7469    2.6763 H   0  0  0  0  0  0  0  0  0  0  0  0
    1.0930    0.5699    2.5858 H   0  0  0  0  0  0  0  0  0  0  0  0
   -1.9275    1.6485   -0.3376 H   0  0  0  0  0  0  0  0  0  0  0  0
   -1.4540    0.8667   -1.8773 H   0  0  0  0  0  0  0  0  0  0  0  0
    2.5546    1.5429    0.9311 H   0  0  0  0  0  0  0  0  0  0  0  0
    2.7793   -2.5768   -0.3106 H   0  0  0  0  0  0  0  0  0  0  0  0
   -5.8539    0.3681   -1.6899 H   0  0  0  0  0  0  0  0  0  0  0  0
   -5.4934   -1.1399   -0.8291 H   0  0  0  0  0  0  0  0  0  0  0  0
   -6.5216   -0.1747    1.2568 H   0  0  0  0  0  0  0  0  0  0  0  0
   -6.9013    1.3045    0.3808 H   0  0  0  0  0  0  0  0  0  0  0  0
   -3.4689   -0.2830   -1.9633 H   0  0  0  0  0  0  0  0  0  0  0  0
    5.0770   -2.2259   -1.0882 H   0  0  0  0  0  0  0  0  0  0  0  0
   -7.9764   -1.4850   -0.3037 H   0  0  0  0  0  0  0  0  0  0  0  0
   -8.8745   -0.1835    0.4958 H   0  0  0  0  0  0  0  0  0  0  0  0
   -8.3602    0.0042   -1.1895 H   0  0  0  0  0  0  0  0  0  0  0  0
  1 17  1  0  0  0  0
  2 19  1  0  0  0  0
  3 10  2  0  0  0  0
  4 16  2  0  0  0  0
  5  7  1  0  0  0  0
  5 10  1  0  0  0  0
  5 22  1  0  0  0  0
  6 11  1  0  0  0  0
  6 16  1  0  0  0  0
  6 34  1  0  0  0  0
  7  8  1  0  0  0  0
  7  9  1  0  0  0  0
  7 21  1  0  0  0  0
  8 12  2  0  0  0  0
  8 13  1  0  0  0  0
  9 23  1  0  0  0  0
  9 24  1  0  0  0  0
  9 25  1  0  0  0  0
 10 11  1  0  0  0  0
 11 26  1  0  0  0  0
 11 27  1  0  0  0  0
 12 17  1  0  0  0  0
 12 28  1  0  0  0  0
 13 18  2  0  0  0  0
 13 29  1  0  0  0  0
 14 15  1  0  0  0  0
 14 16  1  0  0  0  0
 14 30  1  0  0  0  0
 14 31  1  0  0  0  0
 15 20  1  0  0  0  0
 15 32  1  0  0  0  0
 15 33  1  0  0  0  0
 17 19  2  0  0  0  0
 18 19  1  0  0  0  0
 18 35  1  0  0  0  0
 20 36  1  0  0  0  0
 20 37  1  0  0  0  0
 20 38  1  0  0  0  0
M  END
> <PUBCHEM_COMPOUND_CID>
47205649

> <PUBCHEM_CONFORMER_RMSD>
1.2

> <PUBCHEM_CONFORMER_DIVERSEORDER>
1
69
24
47
13
14
17
22
61
20
71
7
40
59
34
64
26
12
43
53
46
6
68
49
19
3
4
70
66
36
48
18
29
65
38
31
54
27
60
55
42
21
57
37
10
44
15
39
8
41
56
35
23
52
28
25
58
2
63
51
16
11
33
67
62
45
5
32
9
30
50

> <PUBCHEM_MMFF94_PARTIAL_CHARGES>
22
1 -0.18
10 0.57
11 0.36
12 -0.15
13 -0.15
14 0.06
16 0.57
17 0.18
18 -0.15
19 0.18
2 -0.18
22 0.37
28 0.15
29 0.15
3 -0.57
34 0.37
35 0.15
4 -0.57
5 -0.73
6 -0.73
7 0.44
8 -0.14

> <PUBCHEM_EFFECTIVE_ROTOR_COUNT>
8

> <PUBCHEM_PHARMACOPHORE_FEATURES>
6
1 20 hydrophobe
1 3 acceptor
1 4 acceptor
1 5 donor
1 6 donor
6 8 12 13 17 18 19 rings

> <PUBCHEM_HEAVY_ATOM_COUNT>
20

> <PUBCHEM_ATOM_DEF_STEREO_COUNT>
0

> <PUBCHEM_ATOM_UDEF_STEREO_COUNT>
1

> <PUBCHEM_BOND_DEF_STEREO_COUNT>
0

> <PUBCHEM_BOND_UDEF_STEREO_COUNT>
0

> <PUBCHEM_ISOTOPIC_ATOM_COUNT>
0

> <PUBCHEM_COMPONENT_COUNT>
1

> <PUBCHEM_CACTVS_TAUTO_COUNT>
4

> <PUBCHEM_CONFORMER_ID>
02D04D1100000001

> <PUBCHEM_MMFF94_ENERGY>
32.8173

> <PUBCHEM_FEATURE_SELFOVERLAP>
30.446

> <PUBCHEM_SHAPE_FINGERPRINT>
10 15 15769774628808703060
10299344 5 17748544840608639455
10366900 7 16702299083552356041
10638233 991 18040714749432028401
106641 1 13830125066879702636
10968037 39 17203889665836557023
11719270 70 14979963579310216017
11724838 91 14189570815104128490
11796584 16 5545188445777300532
11858739 19 8142088671400986285
12236239 1 18187082867256345777
12516196 113 17489869345759743293
12730499 353 18343862230013109898
12916748 109 18411984684503397265
13533116 47 17967533510033695686
13685833 64 4751157419407147542
13914758 101 9006788592192363983
13955234 65 18272098252877465778
14123256 10 16988842787407573095
14251752 14 16660641894625597928
14251764 18 15647058157454582673
14251764 46 18410011040020569958
14933364 13 18408040732516640149
15183329 4 17967248719378752995
17834072 33 18261115170754573087
17844677 252 18337105765203925789
18335252 98 18130499778187465115
20645477 56 18060138734738060286
20645477 70 18260828254545415702
21095086 128 17821449054526696311
21150785 3 18342173367225525167
21267235 1 15430033270676903595
21344244 78 13326589419305012908
22079108 93 17418096498693316163
221357 26 18408604786139779348
22224240 67 15338835348178797337
23016692 55 15068621578497982052
23035841 295 18186804686677741759
23402655 69 18335137579840634054
23522609 53 17168966938433624369
23536379 177 17822009834872474307
23559900 14 6988022588269848110
28498 318 14273450409845878069
29717793 49 16950275213993169956
300161 21 12967126116747341953
3004659 81 17312820503040019814
347723 3 5833989452011867551
34797466 226 18333728009479739029
3545911 37 18272932721925055942
4072396 5 14405189468968886224
4325135 7 17418373592961848519
4340502 62 15913332407433486723
445580 167 18262246513002217093
5104073 3 16629413621809959521
53794403 172 17416957327628336276
54446538 1 18334012813061683825
5486654 2 17060336319053358699

> <PUBCHEM_SHAPE_MULTIPOLES>
393.63
19.49
1.5
1.21
26.15
0.48
-0.53
2.71
4.87
-2.39
-0.1
-0.41
-0.12
0.37

> <PUBCHEM_SHAPE_SELFOVERLAP>
777.094

> <PUBCHEM_SHAPE_VOLUME>
235.4

> <PUBCHEM_COORDINATE_TYPE>
2
5
10

$$$$

