51720
  -OEChem-07051213113D

 21 23  0     0  0  0  0  0  0999 V2000
    1.4029    2.6480    0.4108 Cl  0  0  0  0  0  0  0  0  0  0  0  0
   -1.4027    2.6479   -0.4112 Cl  0  0  0  0  0  0  0  0  0  0  0  0
    4.3459    1.7994   -0.0273 Cl  0  0  0  0  0  0  0  0  0  0  0  0
   -4.3458    1.7991    0.0275 Cl  0  0  0  0  0  0  0  0  0  0  0  0
    5.0487   -1.2863   -0.0401 Cl  0  0  0  0  0  0  0  0  0  0  0  0
   -5.0488   -1.2859    0.0396 Cl  0  0  0  0  0  0  0  0  0  0  0  0
    0.0000   -2.1101    0.0002 O   0  0  0  0  0  0  0  0  0  0  0  0
    0.7128    0.0361   -0.0058 C   0  0  0  0  0  0  0  0  0  0  0  0
   -0.7128    0.0361    0.0058 C   0  0  0  0  0  0  0  0  0  0  0  0
    1.0961   -1.3015   -0.0089 C   0  0  0  0  0  0  0  0  0  0  0  0
   -1.0961   -1.3015    0.0090 C   0  0  0  0  0  0  0  0  0  0  0  0
    1.7186    1.0201   -0.0138 C   0  0  0  0  0  0  0  0  0  0  0  0
   -1.7186    1.0201    0.0141 C   0  0  0  0  0  0  0  0  0  0  0  0
    2.4206   -1.7352   -0.0199 C   0  0  0  0  0  0  0  0  0  0  0  0
   -2.4208   -1.7352    0.0199 C   0  0  0  0  0  0  0  0  0  0  0  0
    3.0599    0.6142   -0.0246 C   0  0  0  0  0  0  0  0  0  0  0  0
   -3.0599    0.6144    0.0247 C   0  0  0  0  0  0  0  0  0  0  0  0
    3.4022   -0.7399   -0.0278 C   0  0  0  0  0  0  0  0  0  0  0  0
   -3.4022   -0.7398    0.0278 C   0  0  0  0  0  0  0  0  0  0  0  0
    2.6618   -2.7925   -0.0217 H   0  0  0  0  0  0  0  0  0  0  0  0
   -2.6620   -2.7924    0.0217 H   0  0  0  0  0  0  0  0  0  0  0  0
  1 12  1  0  0  0  0
  2 13  1  0  0  0  0
  3 16  1  0  0  0  0
  4 17  1  0  0  0  0
  5 18  1  0  0  0  0
  6 19  1  0  0  0  0
  7 10  1  0  0  0  0
  7 11  1  0  0  0  0
  8  9  1  0  0  0  0
  8 10  1  0  0  0  0
  8 12  2  0  0  0  0
  9 11  1  0  0  0  0
  9 13  2  0  0  0  0
 10 14  2  0  0  0  0
 11 15  2  0  0  0  0
 12 16  1  0  0  0  0
 13 17  1  0  0  0  0
 14 18  1  0  0  0  0
 14 20  1  0  0  0  0
 15 19  1  0  0  0  0
 15 21  1  0  0  0  0
 16 18  2  0  0  0  0
 17 19  2  0  0  0  0
M  END
> <PUBCHEM_COMPOUND_CID>
51720

> <PUBCHEM_CONFORMER_RMSD>
0.4

> <PUBCHEM_CONFORMER_DIVERSEORDER>
1

> <PUBCHEM_MMFF94_PARTIAL_CHARGES>
19
1 -0.18
10 0.14
11 0.14
12 0.18
13 0.18
14 -0.15
15 -0.15
16 0.18
17 0.18
18 0.18
19 0.18
2 -0.18
20 0.15
21 0.15
3 -0.18
4 -0.18
5 -0.18
6 -0.18
7 -0.28

> <PUBCHEM_EFFECTIVE_ROTOR_COUNT>
0

> <PUBCHEM_PHARMACOPHORE_FEATURES>
4
1 7 acceptor
5 7 8 9 10 11 rings
6 8 10 12 14 16 18 rings
6 9 11 13 15 17 19 rings

> <PUBCHEM_HEAVY_ATOM_COUNT>
19

> <PUBCHEM_ATOM_DEF_STEREO_COUNT>
0

> <PUBCHEM_ATOM_UDEF_STEREO_COUNT>
0

> <PUBCHEM_BOND_DEF_STEREO_COUNT>
0

> <PUBCHEM_BOND_UDEF_STEREO_COUNT>
0

> <PUBCHEM_ISOTOPIC_ATOM_COUNT>
0

> <PUBCHEM_COMPONENT_COUNT>
1

> <PUBCHEM_CACTVS_TAUTO_COUNT>
1

> <PUBCHEM_CONFORMER_ID>
0000CA0800000001

> <PUBCHEM_MMFF94_ENERGY>
60.1502

> <PUBCHEM_FEATURE_SELFOVERLAP>
20.499

> <PUBCHEM_SHAPE_FINGERPRINT>
10498660 4 18413389856074230085
10608611 8 18410858762958194304
10967382 1 18338517417637165152
1100329 8 16752406314894120704
11132069 177 18409452509076838785
11471102 20 18410014295215597982
11680986 33 18125156031395816139
12236239 1 17894627020764199303
12403259 226 18410862061493233537
13140716 1 18411698789904963137
13583140 156 14707216560223777191
13862211 1 18410859858175270535
14790565 3 18410847763547462436
15042514 8 17331405780023802530
15196674 1 18410573985151581061
15442244 35 18339081592073023298
15536298 74 18335420149669884718
16945 1 18410864260516339687
17492 89 18411138077778150747
17802600 8 18410859858174796322
17804303 29 18410853278427219828
19591789 44 18410575088958078690
200 152 18040721372149863359
20510252 161 18407759239853638897
20645477 70 18335136497187401566
21267235 1 18410566288570569890
21501502 16 18410856559645083815
221490 88 18339918221395088898
2334 1 18194683661704385037
23402539 116 18335146431008621479
23463225 33 18412825776401582116
23557571 272 18334005103558152615
23559900 14 18262802986066107014
238 59 16044813377872708797
2748010 2 18122627154198211485
3004659 81 18272081756514632462
3286 77 18412265012560199453
335352 9 18338516464138692564
350125 39 18411416236949833900
4214541 1 18410574015237327713
474 4 17488737862131762716
5104073 3 18411136939405154424
7364860 26 18263082128537790544
77779 3 18410572885639959782
8809292 202 18343298180078406530
9709674 26 18409724067006270094
9981440 41 17403743246683194320

> <PUBCHEM_SHAPE_MULTIPOLES>
396.36
9.14
2.83
0.64
0
1.16
0
-0.97
0
0
0
0
0.07
0.19

> <PUBCHEM_SHAPE_SELFOVERLAP>
835.946

> <PUBCHEM_SHAPE_VOLUME>
229.8

> <PUBCHEM_COORDINATE_TYPE>
2
5
10

$$$$

