5069
  -OEChem-06261200303D

 52 54  0     0  0  0  0  0  0999 V2000
    3.5227    2.8220   -2.8067 Cl  0  0  0  0  0  0  0  0  0  0  0  0
    3.2546   -3.5589   -1.0852 Cl  0  0  0  0  0  0  0  0  0  0  0  0
    0.7161   -2.0393   -0.1444 O   0  0  0  0  0  0  0  0  0  0  0  0
   -3.4145   -3.2196   -1.3984 O   0  0  0  0  0  0  0  0  0  0  0  0
    0.1961    3.5731    1.1463 O   0  0  0  0  0  0  0  0  0  0  0  0
   -1.0627   -0.0449   -0.4579 N   0  0  0  0  0  0  0  0  0  0  0  0
   -1.7449   -0.9585   -1.1649 N   0  0  0  0  0  0  0  0  0  0  0  0
   -2.6199   -0.6924    0.9318 N   0  0  0  0  0  0  0  0  0  0  0  0
   -1.6970    2.3278    1.6555 N   0  0  0  0  0  0  0  0  0  0  0  0
   -4.9381   -2.2074    0.0320 N   0  0  0  0  0  0  0  0  0  0  0  0
   -1.3964    5.6655    0.3554 N   0  0  0  0  0  0  0  0  0  0  0  0
    0.0321    0.6171   -1.0052 C   0  0  0  0  0  0  0  0  0  0  0  0
   -1.5974    0.0932    0.7715 C   0  0  0  0  0  0  0  0  0  0  0  0
    1.3175    0.0997   -0.8750 C   0  0  0  0  0  0  0  0  0  0  0  0
   -1.0492    1.0428    1.7926 C   0  0  0  0  0  0  0  0  0  0  0  0
   -0.1819    1.8108   -1.6881 C   0  0  0  0  0  0  0  0  0  0  0  0
   -2.6763   -1.3197   -0.2799 C   0  0  0  0  0  0  0  0  0  0  0  0
    2.3988    0.7820   -1.4327 C   0  0  0  0  0  0  0  0  0  0  0  0
    1.5759   -1.1489   -0.1669 C   0  0  0  0  0  0  0  0  0  0  0  0
    0.8993    2.4931   -2.2459 C   0  0  0  0  0  0  0  0  0  0  0  0
    2.1897    1.9788   -2.1181 C   0  0  0  0  0  0  0  0  0  0  0  0
    2.8592   -1.4085    0.5480 C   0  0  0  0  0  0  0  0  0  0  0  0
   -3.6675   -2.3042   -0.5926 C   0  0  0  0  0  0  0  0  0  0  0  0
   -1.0148    3.4941    1.3413 C   0  0  0  0  0  0  0  0  0  0  0  0
    3.6627   -2.4685    0.1905 C   0  0  0  0  0  0  0  0  0  0  0  0
    3.1897   -0.5409    1.5681 C   0  0  0  0  0  0  0  0  0  0  0  0
   -1.9389    4.6937    1.2940 C   0  0  0  0  0  0  0  0  0  0  0  0
   -5.7246   -3.4050    0.2967 C   0  0  0  0  0  0  0  0  0  0  0  0
   -5.5415   -0.9493    0.4687 C   0  0  0  0  0  0  0  0  0  0  0  0
    4.8550   -2.6723    0.8853 C   0  0  0  0  0  0  0  0  0  0  0  0
    4.3819   -0.7449    2.2629 C   0  0  0  0  0  0  0  0  0  0  0  0
    5.2145   -1.8106    1.9216 C   0  0  0  0  0  0  0  0  0  0  0  0
   -1.2877    0.6725    2.7955 H   0  0  0  0  0  0  0  0  0  0  0  0
    0.0380    1.1428    1.7290 H   0  0  0  0  0  0  0  0  0  0  0  0
   -1.1817    2.2244   -1.7955 H   0  0  0  0  0  0  0  0  0  0  0  0
    3.4101    0.3893   -1.3597 H   0  0  0  0  0  0  0  0  0  0  0  0
    0.7212    3.4252   -2.7761 H   0  0  0  0  0  0  0  0  0  0  0  0
   -2.6978    2.3697    1.8263 H   0  0  0  0  0  0  0  0  0  0  0  0
    2.5473    0.2888    1.8479 H   0  0  0  0  0  0  0  0  0  0  0  0
   -2.0051    5.1269    2.2966 H   0  0  0  0  0  0  0  0  0  0  0  0
   -2.9433    4.4008    0.9735 H   0  0  0  0  0  0  0  0  0  0  0  0
   -5.1723   -4.3059    0.0163 H   0  0  0  0  0  0  0  0  0  0  0  0
   -6.6508   -3.3545   -0.2826 H   0  0  0  0  0  0  0  0  0  0  0  0
   -5.9572   -3.4475    1.3646 H   0  0  0  0  0  0  0  0  0  0  0  0
   -5.0237   -0.0910    0.0339 H   0  0  0  0  0  0  0  0  0  0  0  0
   -5.4933   -0.8980    1.5600 H   0  0  0  0  0  0  0  0  0  0  0  0
   -6.5863   -0.9235    0.1452 H   0  0  0  0  0  0  0  0  0  0  0  0
    5.5151   -3.4981    0.6319 H   0  0  0  0  0  0  0  0  0  0  0  0
    4.6611   -0.0747    3.0707 H   0  0  0  0  0  0  0  0  0  0  0  0
    6.1425   -1.9694    2.4630 H   0  0  0  0  0  0  0  0  0  0  0  0
   -0.4565    5.9368    0.6412 H   0  0  0  0  0  0  0  0  0  0  0  0
   -1.3071    5.2429   -0.5679 H   0  0  0  0  0  0  0  0  0  0  0  0
  1 21  1  0  0  0  0
  2 25  1  0  0  0  0
  3 19  2  0  0  0  0
  4 23  2  0  0  0  0
  5 24  2  0  0  0  0
  6  7  1  0  0  0  0
  6 12  1  0  0  0  0
  6 13  1  0  0  0  0
  7 17  2  0  0  0  0
  8 13  2  0  0  0  0
  8 17  1  0  0  0  0
  9 15  1  0  0  0  0
  9 24  1  0  0  0  0
  9 38  1  0  0  0  0
 10 23  1  0  0  0  0
 10 28  1  0  0  0  0
 10 29  1  0  0  0  0
 11 27  1  0  0  0  0
 11 51  1  0  0  0  0
 11 52  1  0  0  0  0
 12 14  2  0  0  0  0
 12 16  1  0  0  0  0
 13 15  1  0  0  0  0
 14 18  1  0  0  0  0
 14 19  1  0  0  0  0
 15 33  1  0  0  0  0
 15 34  1  0  0  0  0
 16 20  2  0  0  0  0
 16 35  1  0  0  0  0
 17 23  1  0  0  0  0
 18 21  2  0  0  0  0
 18 36  1  0  0  0  0
 19 22  1  0  0  0  0
 20 21  1  0  0  0  0
 20 37  1  0  0  0  0
 22 25  1  0  0  0  0
 22 26  2  0  0  0  0
 24 27  1  0  0  0  0
 25 30  2  0  0  0  0
 26 31  1  0  0  0  0
 26 39  1  0  0  0  0
 27 40  1  0  0  0  0
 27 41  1  0  0  0  0
 28 42  1  0  0  0  0
 28 43  1  0  0  0  0
 28 44  1  0  0  0  0
 29 45  1  0  0  0  0
 29 46  1  0  0  0  0
 29 47  1  0  0  0  0
 30 32  1  0  0  0  0
 30 48  1  0  0  0  0
 31 32  2  0  0  0  0
 31 49  1  0  0  0  0
 32 50  1  0  0  0  0
M  END
> <PUBCHEM_COMPOUND_CID>
5069

> <PUBCHEM_CONFORMER_RMSD>
1

> <PUBCHEM_CONFORMER_DIVERSEORDER>
1
227
254
264
217
137
271
147
18
272
193
197
171
285
255
114
172
123
140
74
77
127
253
142
134
156
99
131
225
178
25
81
192
65
167
276
231
162
265
295
70
158
284
245
151
69
292
243
220
163
152
274
247
122
252
91
181
201
50
165
115
179
261
68
169
117
105
207
275
263
213
273
286
78
118
202
194
132
185
241
138
170
87
215
216
136
119
206
258
176
270
189
183
141
38
146
24
191
124
116
36
126
135
229
222
80
182
3
208
234
93
31
244
180
299
230
106
221
209
198
238
174
257
120
219
161
236
121
248
226
92
166
249
98
242
296
58
52
184
40
128
233
150
188
54
294
48
235
290
239
89
280
269
291
278
277
30
149
83
143
61
79
246
190
267
251
102
159
113
155
60
94
212
154
63
72
59
204
112
16
34
262
125
130
22
56
51
42
19
64
224
4
293
288
84
107
111
259
21
67
49
196
66
90
110
298
281
260
214
282
41
153
20
76
300
100
13
256
145
228
283
210
57
103
187
232
144
29
177
287
47
88
157
186
279
17
175
266
218
97
37
75
39
195
28
211
43
96
82
6
200
86
289
46
250
9
199
26
8
2
168
73
101
12
35
223
148
109
133
44
237
15
85
33
104
173
14
203
160
10
23
45
139
164
55
53
71
5
32
27
7
108
240
268
95
129
297
205
62
11

> <PUBCHEM_MMFF94_PARTIAL_CHARGES>
42
1 -0.18
10 -0.66
11 -0.99
12 -0.02
13 0.01
14 0.09
15 0.48
16 -0.15
17 0.43
18 -0.15
19 0.4
2 -0.18
20 -0.15
21 0.18
22 0.09
23 0.72
24 0.57
25 0.18
26 -0.15
27 0.33
28 0.3
29 0.3
3 -0.57
30 -0.15
31 -0.15
32 -0.15
35 0.15
36 0.15
37 0.15
38 0.37
39 0.15
4 -0.57
48 0.15
49 0.15
5 -0.57
50 0.15
51 0.36
52 0.36
6 0.59
7 -0.71
8 -0.57
9 -0.73

> <PUBCHEM_EFFECTIVE_ROTOR_COUNT>
9

> <PUBCHEM_PHARMACOPHORE_FEATURES>
11
1 11 cation
1 11 donor
1 3 acceptor
1 4 acceptor
1 5 acceptor
1 9 donor
3 6 8 13 cation
3 7 8 17 cation
5 6 7 8 13 17 rings
6 12 14 16 18 20 21 rings
6 22 25 26 30 31 32 rings

> <PUBCHEM_HEAVY_ATOM_COUNT>
32

> <PUBCHEM_ATOM_DEF_STEREO_COUNT>
0

> <PUBCHEM_ATOM_UDEF_STEREO_COUNT>
0

> <PUBCHEM_BOND_DEF_STEREO_COUNT>
0

> <PUBCHEM_BOND_UDEF_STEREO_COUNT>
0

> <PUBCHEM_ISOTOPIC_ATOM_COUNT>
0

> <PUBCHEM_COMPONENT_COUNT>
1

> <PUBCHEM_CACTVS_TAUTO_COUNT>
2

> <PUBCHEM_CONFORMER_ID>
000013CD00000001

> <PUBCHEM_MMFF94_ENERGY>
103.498

> <PUBCHEM_FEATURE_SELFOVERLAP>
58.611

> <PUBCHEM_SHAPE_FINGERPRINT>
10165383 225 5689316879944026322
10305334 12 16964379478540453056
10940486 97 17977921799467861878
11115154 58 17756753841919775965
11421498 54 18193534715077145092
11552529 35 18193851550920511114
11578080 2 18265635216081486013
11763715 3 18408316670963846256
12058002 1 17973447899101708109
12293681 160 17690532231615313020
12363563 72 17703796959157465882
12608794 3 16829269848498173907
12788726 201 18337939165031785913
13009979 54 18410852174705332522
131258 43 18191280764054797686
133893 2 17416946414332116812
13583140 156 17096950146632396122
14028597 1 18267012865622925644
140371 6 18267303312527393911
14068700 675 18342463646685077018
14178342 30 18193275415037961858
14784336 7 18050275982715196292
15420108 30 18052231154723317676
17818456 19 18337664343170601725
17980427 26 17614012785226667581
1813 80 18272090521635730086
18681886 176 17462262656852575549
2132832 1 18343017808924199408
21344244 78 18408888404130798883
23366157 5 17758966922418143827
23419403 2 17981646759725550468
266924 1 18268127834288964748
3380486 145 17899451681322290566
4058900 60 17329704319954947713
469060 322 17987521588234686698
56638632 33 18055934116137086458
6371380 46 17035009348039421554

> <PUBCHEM_SHAPE_MULTIPOLES>
614.79
9.75
6.12
2.36
3.6
6.43
0.31
-12.68
-2.73
3.51
-0.26
-2.28
1.86
-3.92

> <PUBCHEM_SHAPE_SELFOVERLAP>
1308.34

> <PUBCHEM_SHAPE_VOLUME>
346

> <PUBCHEM_COORDINATE_TYPE>
2
5
10

$$$$

