60803
  -OEChem-07051213043D

 39 41  0     0  0  0  0  0  0999 V2000
    2.3943   -2.5686    0.2587 Cl  0  0  0  0  0  0  0  0  0  0  0  0
    5.5884   -2.3760    0.1466 Cl  0  0  0  0  0  0  0  0  0  0  0  0
    5.2467    2.9263   -0.5993 Cl  0  0  0  0  0  0  0  0  0  0  0  0
   -3.1302    0.0577   -0.0765 N   0  0  0  0  0  0  0  0  0  0  0  0
   -5.9714   -0.2299   -0.0131 N   0  0  0  0  0  0  0  0  0  0  0  0
   -1.1000    0.2518    1.1132 N   0  0  0  0  0  0  0  0  0  0  0  0
   -1.0996   -0.0862   -1.2727 N   0  0  0  0  0  0  0  0  0  0  0  0
    0.9384    0.4455    2.2994 N   0  0  0  0  0  0  0  0  0  0  0  0
   -3.8575    0.2274    1.1851 C   0  0  0  0  0  0  0  0  0  0  0  0
   -3.8119   -0.7449   -1.0998 C   0  0  0  0  0  0  0  0  0  0  0  0
   -5.2956    0.6800    0.9197 C   0  0  0  0  0  0  0  0  0  0  0  0
   -5.2507   -0.2599   -1.2918 C   0  0  0  0  0  0  0  0  0  0  0  0
   -1.7310    0.0751   -0.0788 C   0  0  0  0  0  0  0  0  0  0  0  0
   -7.3599    0.1822   -0.2165 C   0  0  0  0  0  0  0  0  0  0  0  0
    0.9839    0.1085   -0.0829 C   0  0  0  0  0  0  0  0  0  0  0  0
    0.2487    0.2633    1.0745 C   0  0  0  0  0  0  0  0  0  0  0  0
    0.2491   -0.0644   -1.2382 C   0  0  0  0  0  0  0  0  0  0  0  0
    2.4285    0.1207   -0.1244 C   0  0  0  0  0  0  0  0  0  0  0  0
    3.1922   -1.0416    0.0206 C   0  0  0  0  0  0  0  0  0  0  0  0
    3.0701    1.3477   -0.3163 C   0  0  0  0  0  0  0  0  0  0  0  0
    4.5848   -0.9770   -0.0261 C   0  0  0  0  0  0  0  0  0  0  0  0
    4.4627    1.4124   -0.3631 C   0  0  0  0  0  0  0  0  0  0  0  0
    5.2199    0.2500   -0.2180 C   0  0  0  0  0  0  0  0  0  0  0  0
   -3.3833    0.9903    1.8146 H   0  0  0  0  0  0  0  0  0  0  0  0
   -3.8514   -0.7178    1.7427 H   0  0  0  0  0  0  0  0  0  0  0  0
   -3.8024   -1.8005   -0.7994 H   0  0  0  0  0  0  0  0  0  0  0  0
   -3.3123   -0.6755   -2.0730 H   0  0  0  0  0  0  0  0  0  0  0  0
   -5.8303    0.7012    1.8772 H   0  0  0  0  0  0  0  0  0  0  0  0
   -5.2907    1.7054    0.5257 H   0  0  0  0  0  0  0  0  0  0  0  0
   -5.2441    0.7353   -1.7568 H   0  0  0  0  0  0  0  0  0  0  0  0
   -5.7523   -0.9424   -1.9887 H   0  0  0  0  0  0  0  0  0  0  0  0
   -7.4365    1.1878   -0.6457 H   0  0  0  0  0  0  0  0  0  0  0  0
   -7.9071    0.1697    0.7326 H   0  0  0  0  0  0  0  0  0  0  0  0
   -7.8743   -0.5178   -0.8842 H   0  0  0  0  0  0  0  0  0  0  0  0
    0.7256   -0.1960   -2.2053 H   0  0  0  0  0  0  0  0  0  0  0  0
    2.4850    2.2590   -0.4298 H   0  0  0  0  0  0  0  0  0  0  0  0
    1.8433    0.0081    2.4195 H   0  0  0  0  0  0  0  0  0  0  0  0
    0.3641    0.5632    3.1254 H   0  0  0  0  0  0  0  0  0  0  0  0
    6.3061    0.3045   -0.2549 H   0  0  0  0  0  0  0  0  0  0  0  0
  1 19  1  0  0  0  0
  2 21  1  0  0  0  0
  3 22  1  0  0  0  0
  4  9  1  0  0  0  0
  4 10  1  0  0  0  0
  4 13  1  0  0  0  0
  5 11  1  0  0  0  0
  5 12  1  0  0  0  0
  5 14  1  0  0  0  0
  6 13  1  0  0  0  0
  6 16  2  0  0  0  0
  7 13  2  0  0  0  0
  7 17  1  0  0  0  0
  8 16  1  0  0  0  0
  8 37  1  0  0  0  0
  8 38  1  0  0  0  0
  9 11  1  0  0  0  0
  9 24  1  0  0  0  0
  9 25  1  0  0  0  0
 10 12  1  0  0  0  0
 10 26  1  0  0  0  0
 10 27  1  0  0  0  0
 11 28  1  0  0  0  0
 11 29  1  0  0  0  0
 12 30  1  0  0  0  0
 12 31  1  0  0  0  0
 14 32  1  0  0  0  0
 14 33  1  0  0  0  0
 14 34  1  0  0  0  0
 15 16  1  0  0  0  0
 15 17  2  0  0  0  0
 15 18  1  0  0  0  0
 17 35  1  0  0  0  0
 18 19  2  0  0  0  0
 18 20  1  0  0  0  0
 19 21  1  0  0  0  0
 20 22  2  0  0  0  0
 20 36  1  0  0  0  0
 21 23  2  0  0  0  0
 22 23  1  0  0  0  0
 23 39  1  0  0  0  0
M  END
> <PUBCHEM_COMPOUND_CID>
60803

> <PUBCHEM_CONFORMER_RMSD>
0.6

> <PUBCHEM_CONFORMER_DIVERSEORDER>
1
12
4
13
6
9
11
5
10
14
3
8
2
7

> <PUBCHEM_MMFF94_PARTIAL_CHARGES>
26
1 -0.18
10 0.37
11 0.27
12 0.27
13 0.72
14 0.27
16 0.41
17 0.16
19 0.18
2 -0.18
20 -0.15
21 0.18
22 0.18
23 -0.15
3 -0.18
35 0.15
36 0.15
37 0.4
38 0.4
39 0.15
4 -0.84
5 -0.81
6 -0.62
7 -0.62
8 -0.9
9 0.37

> <PUBCHEM_EFFECTIVE_ROTOR_COUNT>
3.2

> <PUBCHEM_PHARMACOPHORE_FEATURES>
6
1 5 cation
1 8 donor
4 4 6 7 13 cation
6 18 19 20 21 22 23 rings
6 4 5 9 10 11 12 rings
6 6 7 13 15 16 17 rings

> <PUBCHEM_HEAVY_ATOM_COUNT>
23

> <PUBCHEM_ATOM_DEF_STEREO_COUNT>
0

> <PUBCHEM_ATOM_UDEF_STEREO_COUNT>
0

> <PUBCHEM_BOND_DEF_STEREO_COUNT>
0

> <PUBCHEM_BOND_UDEF_STEREO_COUNT>
0

> <PUBCHEM_ISOTOPIC_ATOM_COUNT>
0

> <PUBCHEM_COMPONENT_COUNT>
1

> <PUBCHEM_CACTVS_TAUTO_COUNT>
3

> <PUBCHEM_CONFORMER_ID>
0000ED8300000001

> <PUBCHEM_MMFF94_ENERGY>
77.903

> <PUBCHEM_FEATURE_SELFOVERLAP>
30.446

> <PUBCHEM_SHAPE_FINGERPRINT>
10411042 1 18124879217229352294
10554248 39 17896041112955596349
10595046 47 18335701620246321461
10912923 1 18113333107004864153
11646440 116 16702014288676773773
11796584 16 18113617863511253879
11963148 33 14045737089510966681
12107183 9 17613992323854665803
12236239 1 18040997357910326450
12516196 113 17561365067791415941
12596602 18 18411416185979834851
12616971 3 18260554432746356262
12730499 353 17917991681044837202
12788726 201 17458333173951112553
12916748 109 16487259876056119925
13167372 99 18335698394620789985
13533116 47 18410292532266879010
13760787 19 18186802448314037055
13862211 1 16370729235971935487
13955234 65 18343589551466875938
14251752 14 18187367675095997105
14863182 85 14692577641078981200
15048467 5 18335700503275464181
15183329 4 17603299341489013761
15238133 3 17313383456565695890
15788980 27 18334293184426549393
1601671 61 16588019134584150281
17834072 33 18335140886327077015
17844677 252 18342454889130618597
19427546 62 18199745852499942006
200 152 18409731785019653256
20157964 124 18341891870795141852
20554085 129 17896890859893747808
20612939 158 18410573993751935242
20645477 70 18342458179471186294
21033648 29 17775018859923199645
21033650 10 17315883741654749616
21267235 1 18335136557649278998
21344244 78 18188222004537147744
220451 1 18113334189763988247
221357 26 18131353037585600716
23081809 10 18040434386951554077
23402539 116 18334013925948628913
23522609 53 17823111498596163665
23536379 177 18410292527813610545
23557571 272 16343705486054973487
23559900 14 18272088262250219728
23569914 152 16620161343042080775
23569914 2 17622780479826245437
23569943 247 17344073128421507003
239999 70 17203888565686729710
29717793 49 18186516626967352142
3004659 81 17894906352441193534
335352 9 18412256226412684326
34797466 226 18202563964704351397
4072396 5 16732985353223485422
4073 2 18130783395862135722
42630746 31 18412825785693260086
4340502 62 18413107242952330194
465052 167 17749108880988044167
542803 24 18040996237419676037
6025842 7 18411416207581193974
7495541 125 17749113261949397833
8272917 22 18409724080455096390

> <PUBCHEM_SHAPE_MULTIPOLES>
454.03
16.18
1.97
1.27
18.04
0.03
0.33
-1.02
-1.82
-5.26
-0.16
0.96
-0.1
-0.95

> <PUBCHEM_SHAPE_SELFOVERLAP>
946.408

> <PUBCHEM_SHAPE_VOLUME>
258.6

> <PUBCHEM_COORDINATE_TYPE>
2
5
10

$$$$

