441113
  -OEChem-07051212522D

 66 66  0     1  0  0  0  0  0999 V2000
    7.7071    2.0062    0.0000 O   0  0  0  0  0  0  0  0  0  0  0  0
    5.7340    1.0759    0.0000 O   0  0  0  0  0  0  0  0  0  0  0  0
    4.0000   -2.1651    0.0000 O   0  0  0  0  0  0  0  0  0  0  0  0
    7.0000   -2.1651    0.0000 O   0  0  0  0  0  0  0  0  0  0  0  0
    2.5000    0.4330    0.0000 O   0  0  0  0  0  0  0  0  0  0  0  0
    5.5000    0.4330    0.0000 O   0  0  0  0  0  0  0  0  0  0  0  0
    5.5000   -3.0311    0.0000 O   0  0  0  0  0  0  0  0  0  0  0  0
    7.0000    1.2990    0.0000 C   0  0  1  0  0  0  0  0  0  0  0  0
    6.5000    0.4330    0.0000 C   0  0  1  0  0  0  0  0  0  0  0  0
    7.0000   -0.4330    0.0000 C   0  0  2  0  0  0  0  0  0  0  0  0
    6.5000    2.1651    0.0000 C   0  0  0  0  0  0  0  0  0  0  0  0
    5.5000    2.1651    0.0000 C   0  0  2  0  0  0  0  0  0  0  0  0
    6.5000   -1.2990    0.0000 C   0  0  1  0  0  0  0  0  0  0  0  0
    4.0000    1.2990    0.0000 C   0  0  2  0  0  0  0  0  0  0  0  0
    4.0000   -0.4330    0.0000 C   0  0  2  0  0  0  0  0  0  0  0  0
    3.5000    0.4330    0.0000 C   0  0  2  0  0  0  0  0  0  0  0  0
    5.5000   -1.2990    0.0000 C   0  0  2  0  0  0  0  0  0  0  0  0
    5.0000    1.2990    0.0000 C   0  0  0  0  0  0  0  0  0  0  0  0
    3.5000   -1.2990    0.0000 C   0  0  1  0  0  0  0  0  0  0  0  0
    7.9659    1.0402    0.0000 C   0  0  0  0  0  0  0  0  0  0  0  0
    8.0000   -0.4330    0.0000 C   0  0  0  0  0  0  0  0  0  0  0  0
    5.0000    3.0311    0.0000 C   0  0  0  0  0  0  0  0  0  0  0  0
    5.0000   -0.4330    0.0000 C   0  0  0  0  0  0  0  0  0  0  0  0
    3.5000    2.1651    0.0000 C   0  0  0  0  0  0  0  0  0  0  0  0
    2.5000   -1.2990    0.0000 C   0  0  0  0  0  0  0  0  0  0  0  0
    5.0000   -2.1651    0.0000 C   0  0  0  0  0  0  0  0  0  0  0  0
    4.5000   -1.2990    0.0000 C   0  0  0  0  0  0  0  0  0  0  0  0
    2.0000   -2.1651    0.0000 C   0  0  0  0  0  0  0  0  0  0  0  0
    6.0250    0.0345    0.0000 H   0  0  0  0  0  0  0  0  0  0  0  0
    7.3100   -0.9699    0.0000 H   0  0  0  0  0  0  0  0  0  0  0  0
    7.0826    2.3771    0.0000 H   0  0  0  0  0  0  0  0  0  0  0  0
    6.3923    2.7756    0.0000 H   0  0  0  0  0  0  0  0  0  0  0  0
    5.8100    2.7020    0.0000 H   0  0  0  0  0  0  0  0  0  0  0  0
    7.1200   -1.2990    0.0000 H   0  0  0  0  0  0  0  0  0  0  0  0
    3.3800    1.2990    0.0000 H   0  0  0  0  0  0  0  0  0  0  0  0
    4.3100   -0.9699    0.0000 H   0  0  0  0  0  0  0  0  0  0  0  0
    3.1900    0.9699    0.0000 H   0  0  0  0  0  0  0  0  0  0  0  0
    5.5000   -0.6790    0.0000 H   0  0  0  0  0  0  0  0  0  0  0  0
    3.1900   -1.8360    0.0000 H   0  0  0  0  0  0  0  0  0  0  0  0
    7.8055    0.4413    0.0000 H   0  0  0  0  0  0  0  0  0  0  0  0
    8.5648    0.8798    0.0000 H   0  0  0  0  0  0  0  0  0  0  0  0
    8.1264    1.6391    0.0000 H   0  0  0  0  0  0  0  0  0  0  0  0
    8.0000   -1.0530    0.0000 H   0  0  0  0  0  0  0  0  0  0  0  0
    8.6200   -0.4330    0.0000 H   0  0  0  0  0  0  0  0  0  0  0  0
    8.0000    0.1870    0.0000 H   0  0  0  0  0  0  0  0  0  0  0  0
    5.5369    3.3411    0.0000 H   0  0  0  0  0  0  0  0  0  0  0  0
    4.6900    3.5680    0.0000 H   0  0  0  0  0  0  0  0  0  0  0  0
    4.4631    2.7211    0.0000 H   0  0  0  0  0  0  0  0  0  0  0  0
    5.0000   -1.0530    0.0000 H   0  0  0  0  0  0  0  0  0  0  0  0
    5.6200   -0.4330    0.0000 H   0  0  0  0  0  0  0  0  0  0  0  0
    5.0000    0.1870    0.0000 H   0  0  0  0  0  0  0  0  0  0  0  0
    4.0369    2.4751    0.0000 H   0  0  0  0  0  0  0  0  0  0  0  0
    3.1900    2.7020    0.0000 H   0  0  0  0  0  0  0  0  0  0  0  0
    2.9631    1.8551    0.0000 H   0  0  0  0  0  0  0  0  0  0  0  0
    2.6077   -0.6885    0.0000 H   0  0  0  0  0  0  0  0  0  0  0  0
    1.9174   -1.0870    0.0000 H   0  0  0  0  0  0  0  0  0  0  0  0
    7.5466    2.6050    0.0000 H   0  0  0  0  0  0  0  0  0  0  0  0
    6.1325    1.5508    0.0000 H   0  0  0  0  0  0  0  0  0  0  0  0
    4.5000   -0.6790    0.0000 H   0  0  0  0  0  0  0  0  0  0  0  0
    3.8800   -1.2990    0.0000 H   0  0  0  0  0  0  0  0  0  0  0  0
    4.5000   -1.9190    0.0000 H   0  0  0  0  0  0  0  0  0  0  0  0
    7.6200   -2.1651    0.0000 H   0  0  0  0  0  0  0  0  0  0  0  0
    2.1900    0.9699    0.0000 H   0  0  0  0  0  0  0  0  0  0  0  0
    1.4631   -1.8551    0.0000 H   0  0  0  0  0  0  0  0  0  0  0  0
    1.6900   -2.7020    0.0000 H   0  0  0  0  0  0  0  0  0  0  0  0
    2.5369   -2.4751    0.0000 H   0  0  0  0  0  0  0  0  0  0  0  0
  8  1  1  1  0  0  0
  1 57  1  0  0  0  0
  9  2  1  1  0  0  0
  2 58  1  0  0  0  0
  3 19  1  0  0  0  0
  3 26  1  0  0  0  0
 13  4  1  6  0  0  0
  4 62  1  0  0  0  0
 16  5  1  6  0  0  0
  5 63  1  0  0  0  0
  6 18  2  0  0  0  0
  7 26  2  0  0  0  0
  8  9  1  0  0  0  0
  8 11  1  0  0  0  0
  8 20  1  0  0  0  0
  9 10  1  0  0  0  0
  9 29  1  0  0  0  0
 10 13  1  0  0  0  0
 10 21  1  1  0  0  0
 10 30  1  0  0  0  0
 11 12  1  0  0  0  0
 11 31  1  0  0  0  0
 11 32  1  0  0  0  0
 12 18  1  0  0  0  0
 12 22  1  6  0  0  0
 12 33  1  0  0  0  0
 13 17  1  0  0  0  0
 13 34  1  0  0  0  0
 14 16  1  0  0  0  0
 14 18  1  0  0  0  0
 14 24  1  1  0  0  0
 14 35  1  0  0  0  0
 15 16  1  0  0  0  0
 15 19  1  0  0  0  0
 15 23  1  1  0  0  0
 15 36  1  0  0  0  0
 16 37  1  0  0  0  0
 17 26  1  0  0  0  0
 17 27  1  6  0  0  0
 17 38  1  0  0  0  0
 19 25  1  6  0  0  0
 19 39  1  0  0  0  0
 20 40  1  0  0  0  0
 20 41  1  0  0  0  0
 20 42  1  0  0  0  0
 21 43  1  0  0  0  0
 21 44  1  0  0  0  0
 21 45  1  0  0  0  0
 22 46  1  0  0  0  0
 22 47  1  0  0  0  0
 22 48  1  0  0  0  0
 23 49  1  0  0  0  0
 23 50  1  0  0  0  0
 23 51  1  0  0  0  0
 24 52  1  0  0  0  0
 24 53  1  0  0  0  0
 24 54  1  0  0  0  0
 25 28  1  0  0  0  0
 25 55  1  0  0  0  0
 25 56  1  0  0  0  0
 27 59  1  0  0  0  0
 27 60  1  0  0  0  0
 27 61  1  0  0  0  0
 28 64  1  0  0  0  0
 28 65  1  0  0  0  0
 28 66  1  0  0  0  0
M  END
> <PUBCHEM_COMPOUND_CID>
441113

> <PUBCHEM_COMPOUND_CANONICALIZED>
1

> <PUBCHEM_CACTVS_COMPLEXITY>
551

> <PUBCHEM_CACTVS_HBOND_ACCEPTOR>
7

> <PUBCHEM_CACTVS_HBOND_DONOR>
4

> <PUBCHEM_CACTVS_ROTATABLE_BOND>
1

> <PUBCHEM_CACTVS_SUBSKEYS>
AAADcfB4OAAAAAAAAAAAAAAAAAAAAAAAAAAAAAAAAAAAAAAAAAAAGgAACAAADVSggAICCAAABgAIAICQCAAAAAAAAAAAAAEAAAABEBYAAAACQAAFIAABAAHK7PzOAAAAAAAAAAAAAAAAAAAAAAAAAAAAAA==

> <PUBCHEM_IUPAC_OPENEYE_NAME>
(3R,4S,5S,6R,7R,9R,11R,12S,13R,14R)-14-ethyl-4,6,7,12-tetrahydroxy-3,5,7,9,11,13-hexamethyl-oxacyclotetradecane-2,10-dione

> <PUBCHEM_IUPAC_CAS_NAME>
(3R,4S,5S,6R,7R,9R,11R,12S,13R,14R)-14-ethyl-4,6,7,12-tetrahydroxy-3,5,7,9,11,13-hexamethyl-oxacyclotetradecane-2,10-dione

> <PUBCHEM_IUPAC_NAME>
(3R,4S,5S,6R,7R,9R,11R,12S,13R,14R)-14-ethyl-4,6,7,12-tetrahydroxy-3,5,7,9,11,13-hexamethyl-oxacyclotetradecane-2,10-dione

> <PUBCHEM_IUPAC_SYSTEMATIC_NAME>
(3R,4S,5S,6R,7R,9R,11R,12S,13R,14R)-14-ethyl-3,5,7,9,11,13-hexamethyl-4,6,7,12-tetrakis(oxidanyl)-1-oxacyclotetradecane-2,10-dione

> <PUBCHEM_IUPAC_TRADITIONAL_NAME>
(3R,4S,5S,6R,7R,9R,11R,12S,13R,14R)-14-ethyl-4,6,7,12-tetrahydroxy-3,5,7,9,11,13-hexamethyl-oxacyclotetradecane-2,10-quinone

> <PUBCHEM_IUPAC_INCHI>
InChI=1S/C21H38O7/c1-8-15-11(3)17(23)12(4)16(22)10(2)9-21(7,27)19(25)13(5)18(24)14(6)20(26)28-15/h10-15,17-19,23-25,27H,8-9H2,1-7H3/t10-,11+,12+,13+,14-,15-,17+,18+,19-,21-/m1/s1

> <PUBCHEM_IUPAC_INCHIKEY>
ZFBRGCCVTUPRFQ-HWRKYNCUSA-N

> <PUBCHEM_XLOGP3_AA>
1.8

> <PUBCHEM_EXACT_MASS>
402.261754

> <PUBCHEM_MOLECULAR_FORMULA>
C21H38O7

> <PUBCHEM_MOLECULAR_WEIGHT>
402.52222

> <PUBCHEM_OPENEYE_CAN_SMILES>
CCC1C(C(C(C(=O)C(CC(C(C(C(C(C(=O)O1)C)O)C)O)(C)O)C)C)O)C

> <PUBCHEM_OPENEYE_ISO_SMILES>
CC[C@@H]1[C@@H]([C@@H]([C@H](C(=O)[C@@H](C[C@@]([C@@H]([C@H]([C@@H]([C@H](C(=O)O1)C)O)C)O)(C)O)C)C)O)C

> <PUBCHEM_CACTVS_TPSA>
124

> <PUBCHEM_MONOISOTOPIC_WEIGHT>
402.261754

> <PUBCHEM_TOTAL_CHARGE>
0

> <PUBCHEM_HEAVY_ATOM_COUNT>
28

> <PUBCHEM_ATOM_DEF_STEREO_COUNT>
10

> <PUBCHEM_ATOM_UDEF_STEREO_COUNT>
0

> <PUBCHEM_BOND_DEF_STEREO_COUNT>
0

> <PUBCHEM_BOND_UDEF_STEREO_COUNT>
0

> <PUBCHEM_ISOTOPIC_ATOM_COUNT>
0

> <PUBCHEM_COMPONENT_COUNT>
1

> <PUBCHEM_CACTVS_TAUTO_COUNT>
6

> <PUBCHEM_COORDINATE_TYPE>
1
5
255

> <PUBCHEM_BONDANNOTATIONS>
8  1  5
10  21  5
12  22  6
14  24  5
15  23  5
17  27  6
19  25  6
9  2  5
13  4  6
16  5  6

$$$$

