14083
  -OEChem-06241222423D

 18 18  0     0  0  0  0  0  0999 V2000
    0.0003   -2.0499   -0.0002 O   0  5  0  0  0  0  0  0  0  0  0  0
    0.0001   -0.7729   -0.0002 N   0  3  0  0  0  0  0  0  0  0  0  0
   -1.1902   -0.0717    0.0002 C   0  0  0  0  0  0  0  0  0  0  0  0
    1.1903   -0.0714   -0.0002 C   0  0  0  0  0  0  0  0  0  0  0  0
   -1.2040    1.3192    0.0001 C   0  0  0  0  0  0  0  0  0  0  0  0
    1.2037    1.3196   -0.0001 C   0  0  0  0  0  0  0  0  0  0  0  0
   -0.0003    2.0153   -0.0001 C   0  0  0  0  0  0  0  0  0  0  0  0
   -2.4647   -0.8443    0.0001 C   0  0  0  0  0  0  0  0  0  0  0  0
    2.4648   -0.8439    0.0003 C   0  0  0  0  0  0  0  0  0  0  0  0
   -2.1401    1.8699    0.0002 H   0  0  0  0  0  0  0  0  0  0  0  0
    2.1396    1.8706    0.0000 H   0  0  0  0  0  0  0  0  0  0  0  0
   -0.0004    3.1013   -0.0001 H   0  0  0  0  0  0  0  0  0  0  0  0
   -3.3388   -0.1847    0.0023 H   0  0  0  0  0  0  0  0  0  0  0  0
   -2.5259   -1.4778    0.8909 H   0  0  0  0  0  0  0  0  0  0  0  0
   -2.5277   -1.4743   -0.8930 H   0  0  0  0  0  0  0  0  0  0  0  0
    2.5276   -1.4741    0.8934 H   0  0  0  0  0  0  0  0  0  0  0  0
    2.5264   -1.4773   -0.8906 H   0  0  0  0  0  0  0  0  0  0  0  0
    3.3388   -0.1842   -0.0015 H   0  0  0  0  0  0  0  0  0  0  0  0
  1  2  1  0  0  0  0
  2  3  2  0  0  0  0
  2  4  1  0  0  0  0
  3  5  1  0  0  0  0
  3  8  1  0  0  0  0
  4  6  2  0  0  0  0
  4  9  1  0  0  0  0
  5  7  2  0  0  0  0
  5 10  1  0  0  0  0
  6  7  1  0  0  0  0
  6 11  1  0  0  0  0
  7 12  1  0  0  0  0
  8 13  1  0  0  0  0
  8 14  1  0  0  0  0
  8 15  1  0  0  0  0
  9 16  1  0  0  0  0
  9 17  1  0  0  0  0
  9 18  1  0  0  0  0
M  CHG  2   1  -1   2   1
M  END
> <PUBCHEM_COMPOUND_CID>
14083

> <PUBCHEM_CONFORMER_RMSD>
0.4

> <PUBCHEM_CONFORMER_DIVERSEORDER>
1

> <PUBCHEM_MMFF94_PARTIAL_CHARGES>
12
1 -0.75
10 0.15
11 0.15
12 0.15
2 0.57
3 -0.05
4 -0.05
5 -0.15
6 -0.15
7 -0.15
8 0.14
9 0.14

> <PUBCHEM_EFFECTIVE_ROTOR_COUNT>
0

> <PUBCHEM_PHARMACOPHORE_FEATURES>
2
1 1 anion
6 2 3 4 5 6 7 rings

> <PUBCHEM_HEAVY_ATOM_COUNT>
9

> <PUBCHEM_ATOM_DEF_STEREO_COUNT>
0

> <PUBCHEM_ATOM_UDEF_STEREO_COUNT>
0

> <PUBCHEM_BOND_DEF_STEREO_COUNT>
0

> <PUBCHEM_BOND_UDEF_STEREO_COUNT>
0

> <PUBCHEM_ISOTOPIC_ATOM_COUNT>
0

> <PUBCHEM_COMPONENT_COUNT>
1

> <PUBCHEM_CACTVS_TAUTO_COUNT>
1

> <PUBCHEM_CONFORMER_ID>
0000370300000001

> <PUBCHEM_MMFF94_ENERGY>
21.9636

> <PUBCHEM_FEATURE_SELFOVERLAP>
10.148

> <PUBCHEM_SHAPE_FINGERPRINT>
16945 1 18410575084663078918
18185500 45 18267022936814104837
21040471 1 17834395618569048481
23552423 10 18055906834768390390
241688 4 18410856593999814121
2748010 2 18411142432663349277
29004967 10 18270116782251684769
5084963 1 18186801382961531554

> <PUBCHEM_SHAPE_MULTIPOLES>
174.37
2.71
2.06
0.6
0
0.29
0
-0.94
0
0
0
0
0.03
0

> <PUBCHEM_SHAPE_SELFOVERLAP>
356.884

> <PUBCHEM_SHAPE_VOLUME>
102

> <PUBCHEM_COORDINATE_TYPE>
2
5
10

$$$$

