17395640
  -OEChem-06241222512D

 33 35  0     0  0  0  0  0  0999 V2000
    4.6261    1.5094    0.0000 S   0  0  0  0  0  0  0  0  0  0  0  0
    7.1293    2.4572    0.0000 O   0  0  0  0  0  0  0  0  0  0  0  0
    2.8660    1.2306    0.0000 N   0  0  0  0  0  0  0  0  0  0  0  0
    2.0570    1.8184    0.0000 N   0  0  0  0  0  0  0  0  0  0  0  0
    3.3660    2.7694    0.0000 N   0  0  0  0  0  0  0  0  0  0  0  0
    7.9383    1.8695    0.0000 N   0  0  0  0  0  0  0  0  0  0  0  0
    2.3660    2.7694    0.0000 N   0  0  0  0  0  0  0  0  0  0  0  0
    2.8660    0.2306    0.0000 C   0  0  0  0  0  0  0  0  0  0  0  0
    2.8660   -1.7694    0.0000 C   0  0  0  0  0  0  0  0  0  0  0  0
    5.3692    2.1785    0.0000 C   0  0  0  0  0  0  0  0  0  0  0  0
    2.0000   -0.2694    0.0000 C   0  0  0  0  0  0  0  0  0  0  0  0
    3.7320   -0.2694    0.0000 C   0  0  0  0  0  0  0  0  0  0  0  0
    6.3203    1.8695    0.0000 C   0  0  0  0  0  0  0  0  0  0  0  0
    3.6750    1.8184    0.0000 C   0  0  0  0  0  0  0  0  0  0  0  0
    2.0000   -1.2694    0.0000 C   0  0  0  0  0  0  0  0  0  0  0  0
    3.7320   -1.2694    0.0000 C   0  0  0  0  0  0  0  0  0  0  0  0
    6.6293    0.9184    0.0000 C   0  0  0  0  0  0  0  0  0  0  0  0
    7.6293    0.9184    0.0000 C   0  0  0  0  0  0  0  0  0  0  0  0
    2.8660   -2.7694    0.0000 C   0  0  0  0  0  0  0  0  0  0  0  0
    8.2171    0.1094    0.0000 C   0  0  0  0  0  0  0  0  0  0  0  0
    5.6603    2.7259    0.0000 H   0  0  0  0  0  0  0  0  0  0  0  0
    4.8807    2.5602    0.0000 H   0  0  0  0  0  0  0  0  0  0  0  0
    1.4631    0.0406    0.0000 H   0  0  0  0  0  0  0  0  0  0  0  0
    4.2690    0.0406    0.0000 H   0  0  0  0  0  0  0  0  0  0  0  0
    1.4631   -1.5794    0.0000 H   0  0  0  0  0  0  0  0  0  0  0  0
    4.2690   -1.5794    0.0000 H   0  0  0  0  0  0  0  0  0  0  0  0
    6.2649    0.4168    0.0000 H   0  0  0  0  0  0  0  0  0  0  0  0
    2.2460   -2.7694    0.0000 H   0  0  0  0  0  0  0  0  0  0  0  0
    2.8660   -3.3894    0.0000 H   0  0  0  0  0  0  0  0  0  0  0  0
    3.4860   -2.7694    0.0000 H   0  0  0  0  0  0  0  0  0  0  0  0
    7.7155   -0.2550    0.0000 H   0  0  0  0  0  0  0  0  0  0  0  0
    8.5815   -0.3922    0.0000 H   0  0  0  0  0  0  0  0  0  0  0  0
    8.7187    0.4738    0.0000 H   0  0  0  0  0  0  0  0  0  0  0  0
  1 10  1  0  0  0  0
  1 14  1  0  0  0  0
  2  6  1  0  0  0  0
  2 13  1  0  0  0  0
  3  4  1  0  0  0  0
  3  8  1  0  0  0  0
  3 14  1  0  0  0  0
  4  7  2  0  0  0  0
  5  7  1  0  0  0  0
  5 14  2  0  0  0  0
  6 18  2  0  0  0  0
  8 11  2  0  0  0  0
  8 12  1  0  0  0  0
  9 15  2  0  0  0  0
  9 16  1  0  0  0  0
  9 19  1  0  0  0  0
 10 13  1  0  0  0  0
 10 21  1  0  0  0  0
 10 22  1  0  0  0  0
 11 15  1  0  0  0  0
 11 23  1  0  0  0  0
 12 16  2  0  0  0  0
 12 24  1  0  0  0  0
 13 17  2  0  0  0  0
 15 25  1  0  0  0  0
 16 26  1  0  0  0  0
 17 18  1  0  0  0  0
 17 27  1  0  0  0  0
 18 20  1  0  0  0  0
 19 28  1  0  0  0  0
 19 29  1  0  0  0  0
 19 30  1  0  0  0  0
 20 31  1  0  0  0  0
 20 32  1  0  0  0  0
 20 33  1  0  0  0  0
M  END
> <PUBCHEM_COMPOUND_CID>
17395640

> <PUBCHEM_COMPOUND_CANONICALIZED>
1

> <PUBCHEM_CACTVS_COMPLEXITY>
313

> <PUBCHEM_CACTVS_HBOND_ACCEPTOR>
6

> <PUBCHEM_CACTVS_HBOND_DONOR>
0

> <PUBCHEM_CACTVS_ROTATABLE_BOND>
4

> <PUBCHEM_CACTVS_SUBSKEYS>
AAADccBzoABAAAAAAAAAAAAAAAAAAWLAAAAwAAAAAAAAAAAB8AAAHgQMAAAADAyF3gCz1JYYAAirA6RyZgCCFCNlIpA9mCE2bNqIJjrgmZOEMYhmgBpIyWcQgAAOCAAAAAAAAAAQAAAAAAAAAAAAAAAAAA==

> <PUBCHEM_IUPAC_OPENEYE_NAME>
3-methyl-5-[[1-(p-tolyl)tetrazol-5-yl]sulfanylmethyl]isoxazole

> <PUBCHEM_IUPAC_CAS_NAME>
3-methyl-5-[[[1-(4-methylphenyl)-5-tetrazolyl]thio]methyl]isoxazole

> <PUBCHEM_IUPAC_NAME>
3-methyl-5-[[1-(4-methylphenyl)tetrazol-5-yl]sulfanylmethyl]-1,2-oxazole

> <PUBCHEM_IUPAC_SYSTEMATIC_NAME>
3-methyl-5-[[1-(4-methylphenyl)-1,2,3,4-tetrazol-5-yl]sulfanylmethyl]-1,2-oxazole

> <PUBCHEM_IUPAC_TRADITIONAL_NAME>
3-methyl-5-[[[1-(p-tolyl)tetrazol-5-yl]thio]methyl]isoxazole

> <PUBCHEM_IUPAC_INCHI>
InChI=1S/C13H13N5OS/c1-9-3-5-11(6-4-9)18-13(14-16-17-18)20-8-12-7-10(2)15-19-12/h3-7H,8H2,1-2H3

> <PUBCHEM_IUPAC_INCHIKEY>
UMSBENLBRKUQRC-UHFFFAOYSA-N

> <PUBCHEM_XLOGP3_AA>
2.8

> <PUBCHEM_EXACT_MASS>
287.084081

> <PUBCHEM_MOLECULAR_FORMULA>
C13H13N5OS

> <PUBCHEM_MOLECULAR_WEIGHT>
287.34022

> <PUBCHEM_OPENEYE_CAN_SMILES>
CC1=CC=C(C=C1)N2C(=NN=N2)SCC3=CC(=NO3)C

> <PUBCHEM_OPENEYE_ISO_SMILES>
CC1=CC=C(C=C1)N2C(=NN=N2)SCC3=CC(=NO3)C

> <PUBCHEM_CACTVS_TPSA>
94.9

> <PUBCHEM_MONOISOTOPIC_WEIGHT>
287.084081

> <PUBCHEM_TOTAL_CHARGE>
0

> <PUBCHEM_HEAVY_ATOM_COUNT>
20

> <PUBCHEM_ATOM_DEF_STEREO_COUNT>
0

> <PUBCHEM_ATOM_UDEF_STEREO_COUNT>
0

> <PUBCHEM_BOND_DEF_STEREO_COUNT>
0

> <PUBCHEM_BOND_UDEF_STEREO_COUNT>
0

> <PUBCHEM_ISOTOPIC_ATOM_COUNT>
0

> <PUBCHEM_COMPONENT_COUNT>
1

> <PUBCHEM_CACTVS_TAUTO_COUNT>
1

> <PUBCHEM_COORDINATE_TYPE>
1
5
255

> <PUBCHEM_BONDANNOTATIONS>
11  15  8
12  16  8
13  17  8
17  18  8
2  13  8
2  6  8
3  14  8
3  4  8
4  7  8
5  14  8
5  7  8
6  18  8
8  11  8
8  12  8
9  15  8
9  16  8

$$$$

