8916
  -OEChem-06261203142D

 34 33  0     0  0  0  0  0  0999 V2000
    2.5369    0.0600    0.0000 N   0  0  0  0  0  0  0  0  0  0  0  0
    6.8671    0.5600    0.0000 C   0  0  0  0  0  0  0  0  0  0  0  0
    7.7331    0.0600    0.0000 C   0  0  0  0  0  0  0  0  0  0  0  0
    6.0010    0.0600    0.0000 C   0  0  0  0  0  0  0  0  0  0  0  0
    8.5991    0.5600    0.0000 C   0  0  0  0  0  0  0  0  0  0  0  0
    5.1350    0.5600    0.0000 C   0  0  0  0  0  0  0  0  0  0  0  0
    9.4651    0.0600    0.0000 C   0  0  0  0  0  0  0  0  0  0  0  0
    4.2690    0.0600    0.0000 C   0  0  0  0  0  0  0  0  0  0  0  0
   10.3312    0.5600    0.0000 C   0  0  0  0  0  0  0  0  0  0  0  0
    3.4030    0.5600    0.0000 C   0  0  0  0  0  0  0  0  0  0  0  0
   11.1972    0.0600    0.0000 C   0  0  0  0  0  0  0  0  0  0  0  0
    7.2656    1.0350    0.0000 H   0  0  0  0  0  0  0  0  0  0  0  0
    6.4685    1.0350    0.0000 H   0  0  0  0  0  0  0  0  0  0  0  0
    7.3346   -0.4149    0.0000 H   0  0  0  0  0  0  0  0  0  0  0  0
    8.1316   -0.4149    0.0000 H   0  0  0  0  0  0  0  0  0  0  0  0
    5.6025   -0.4149    0.0000 H   0  0  0  0  0  0  0  0  0  0  0  0
    6.3996   -0.4149    0.0000 H   0  0  0  0  0  0  0  0  0  0  0  0
    8.9976    1.0350    0.0000 H   0  0  0  0  0  0  0  0  0  0  0  0
    8.2006    1.0350    0.0000 H   0  0  0  0  0  0  0  0  0  0  0  0
    5.5335    1.0350    0.0000 H   0  0  0  0  0  0  0  0  0  0  0  0
    4.7365    1.0350    0.0000 H   0  0  0  0  0  0  0  0  0  0  0  0
    9.0666   -0.4149    0.0000 H   0  0  0  0  0  0  0  0  0  0  0  0
    9.8637   -0.4149    0.0000 H   0  0  0  0  0  0  0  0  0  0  0  0
    3.8705   -0.4149    0.0000 H   0  0  0  0  0  0  0  0  0  0  0  0
    4.6675   -0.4149    0.0000 H   0  0  0  0  0  0  0  0  0  0  0  0
   10.7297    1.0350    0.0000 H   0  0  0  0  0  0  0  0  0  0  0  0
    9.9326    1.0350    0.0000 H   0  0  0  0  0  0  0  0  0  0  0  0
    3.8015    1.0350    0.0000 H   0  0  0  0  0  0  0  0  0  0  0  0
    3.0044    1.0350    0.0000 H   0  0  0  0  0  0  0  0  0  0  0  0
   10.8872   -0.4769    0.0000 H   0  0  0  0  0  0  0  0  0  0  0  0
   11.7341   -0.2500    0.0000 H   0  0  0  0  0  0  0  0  0  0  0  0
   11.5072    0.5969    0.0000 H   0  0  0  0  0  0  0  0  0  0  0  0
    2.0000    0.3700    0.0000 H   0  0  0  0  0  0  0  0  0  0  0  0
    2.5369   -0.5600    0.0000 H   0  0  0  0  0  0  0  0  0  0  0  0
  1 10  1  0  0  0  0
  1 33  1  0  0  0  0
  1 34  1  0  0  0  0
  2  3  1  0  0  0  0
  2  4  1  0  0  0  0
  2 12  1  0  0  0  0
  2 13  1  0  0  0  0
  3  5  1  0  0  0  0
  3 14  1  0  0  0  0
  3 15  1  0  0  0  0
  4  6  1  0  0  0  0
  4 16  1  0  0  0  0
  4 17  1  0  0  0  0
  5  7  1  0  0  0  0
  5 18  1  0  0  0  0
  5 19  1  0  0  0  0
  6  8  1  0  0  0  0
  6 20  1  0  0  0  0
  6 21  1  0  0  0  0
  7  9  1  0  0  0  0
  7 22  1  0  0  0  0
  7 23  1  0  0  0  0
  8 10  1  0  0  0  0
  8 24  1  0  0  0  0
  8 25  1  0  0  0  0
  9 11  1  0  0  0  0
  9 26  1  0  0  0  0
  9 27  1  0  0  0  0
 10 28  1  0  0  0  0
 10 29  1  0  0  0  0
 11 30  1  0  0  0  0
 11 31  1  0  0  0  0
 11 32  1  0  0  0  0
M  END
> <PUBCHEM_COMPOUND_CID>
8916

> <PUBCHEM_COMPOUND_CANONICALIZED>
1

> <PUBCHEM_CACTVS_COMPLEXITY>
61.9

> <PUBCHEM_CACTVS_HBOND_ACCEPTOR>
1

> <PUBCHEM_CACTVS_HBOND_DONOR>
1

> <PUBCHEM_CACTVS_ROTATABLE_BOND>
8

> <PUBCHEM_CACTVS_SUBSKEYS>
AAADceByAAAAAAAAAAAAAAAAAAAAAAAAAAAAAAAAAAAAAAAAAAAAHAAQAAAACADBAAQCAABAAAAAAAAAAAAAAAAAAAAAAIAAAAAAAAIAgAAAAAAAEAAAAAEQgIAAAAAAAAAAAAAAAAAAAAAAAAAAAAAAAA==

> <PUBCHEM_IUPAC_OPENEYE_NAME>
decan-1-amine

> <PUBCHEM_IUPAC_CAS_NAME>
1-decanamine

> <PUBCHEM_IUPAC_NAME>
decan-1-amine

> <PUBCHEM_IUPAC_SYSTEMATIC_NAME>
decan-1-amine

> <PUBCHEM_IUPAC_TRADITIONAL_NAME>
decylamine

> <PUBCHEM_IUPAC_INCHI>
InChI=1S/C10H23N/c1-2-3-4-5-6-7-8-9-10-11/h2-11H2,1H3

> <PUBCHEM_IUPAC_INCHIKEY>
MHZGKXUYDGKKIU-UHFFFAOYSA-N

> <PUBCHEM_XLOGP3>
4.2

> <PUBCHEM_EXACT_MASS>
157.18305

> <PUBCHEM_MOLECULAR_FORMULA>
C10H23N

> <PUBCHEM_MOLECULAR_WEIGHT>
157.29632

> <PUBCHEM_OPENEYE_CAN_SMILES>
CCCCCCCCCCN

> <PUBCHEM_OPENEYE_ISO_SMILES>
CCCCCCCCCCN

> <PUBCHEM_CACTVS_TPSA>
26

> <PUBCHEM_MONOISOTOPIC_WEIGHT>
157.18305

> <PUBCHEM_TOTAL_CHARGE>
0

> <PUBCHEM_HEAVY_ATOM_COUNT>
11

> <PUBCHEM_ATOM_DEF_STEREO_COUNT>
0

> <PUBCHEM_ATOM_UDEF_STEREO_COUNT>
0

> <PUBCHEM_BOND_DEF_STEREO_COUNT>
0

> <PUBCHEM_BOND_UDEF_STEREO_COUNT>
0

> <PUBCHEM_ISOTOPIC_ATOM_COUNT>
0

> <PUBCHEM_COMPONENT_COUNT>
1

> <PUBCHEM_CACTVS_TAUTO_COUNT>
1

> <PUBCHEM_COORDINATE_TYPE>
1
5
255

$$$$

