11953982
  -OEChem-07051213022D

 93 97  0     1  0  0  0  0  0999 V2000
    8.6663   -1.7500    0.0000 O   0  0  0  0  0  0  0  0  0  0  0  0
    8.6663   -0.7500    0.0000 O   0  0  0  0  0  0  0  0  0  0  0  0
    6.0682    0.7500    0.0000 O   0  0  0  0  0  0  0  0  0  0  0  0
    6.0682   -3.2500    0.0000 O   0  0  0  0  0  0  0  0  0  0  0  0
    4.7095    4.6939    0.0000 O   0  0  0  0  0  0  0  0  0  0  0  0
    4.8602    4.1897    0.0000 O   0  0  0  0  0  0  0  0  0  0  0  0
    2.5381    3.7742    0.0000 O   0  0  0  0  0  0  0  0  0  0  0  0
    7.0682    1.7500    0.0000 O   0  0  0  0  0  0  0  0  0  0  0  0
   11.2644    3.7500    0.0000 O   0  0  0  0  0  0  0  0  0  0  0  0
    7.8003   -1.2500    0.0000 C   0  0  2  0  0  0  0  0  0  0  0  0
    8.6663   -2.7500    0.0000 C   0  0  1  0  0  0  0  0  0  0  0  0
    7.8003   -3.2500    0.0000 C   0  0  2  0  0  0  0  0  0  0  0  0
    6.9343   -1.7500    0.0000 C   0  0  0  0  0  0  0  0  0  0  0  0
    6.9343   -0.7500    0.0000 C   0  0  0  0  0  0  0  0  0  0  0  0
    6.9343   -2.7500    0.0000 C   0  0  2  0  0  0  0  0  0  0  0  0
    6.9343    0.2500    0.0000 C   0  0  2  0  0  0  0  0  0  0  0  0
    8.6663    0.2500    0.0000 C   0  0  1  0  0  0  0  0  0  0  0  0
    9.5323   -3.2500    0.0000 C   0  0  3  0  0  0  0  0  0  0  0  0
    7.8003    0.7500    0.0000 C   0  0  0  0  0  0  0  0  0  0  0  0
    5.2022    3.2500    0.0000 C   0  0  2  0  0  0  0  0  0  0  0  0
    5.2022    2.2500    0.0000 C   0  0  2  0  0  0  0  0  0  0  0  0
    4.3083    3.7847    0.0000 C   0  0  1  0  0  0  0  0  0  0  0  0
    7.8003   -4.2500    0.0000 C   0  0  0  0  0  0  0  0  0  0  0  0
    9.5323    0.7500    0.0000 C   0  0  0  0  0  0  0  0  0  0  0  0
    9.5323   -4.2500    0.0000 C   0  0  0  0  0  0  0  0  0  0  0  0
    3.4022    3.2708    0.0000 C   0  0  1  0  0  0  0  0  0  0  0  0
    6.0682    3.7500    0.0000 C   0  0  0  0  0  0  0  0  0  0  0  0
   10.3984   -2.7500    0.0000 C   0  0  0  0  0  0  0  0  0  0  0  0
    6.0682    1.7500    0.0000 C   0  0  0  0  0  0  0  0  0  0  0  0
    4.3083    1.7153    0.0000 C   0  0  0  0  0  0  0  0  0  0  0  0
    3.4022    2.2292    0.0000 C   0  0  0  0  0  0  0  0  0  0  0  0
    5.7031    4.6743    0.0000 C   0  0  0  0  0  0  0  0  0  0  0  0
    9.5323    1.7500    0.0000 C   0  0  0  0  0  0  0  0  0  0  0  0
   10.3984   -4.7500    0.0000 C   0  0  0  0  0  0  0  0  0  0  0  0
    6.9343    3.2500    0.0000 C   0  0  0  0  0  0  0  0  0  0  0  0
    2.5381    1.7258    0.0000 C   0  0  0  0  0  0  0  0  0  0  0  0
   10.3984    2.2500    0.0000 C   0  0  0  0  0  0  0  0  0  0  0  0
   10.3984    3.2500    0.0000 C   0  0  2  0  0  0  0  0  0  0  0  0
    7.8003    3.7500    0.0000 C   0  0  0  0  0  0  0  0  0  0  0  0
    9.5323    3.7500    0.0000 C   0  0  2  0  0  0  0  0  0  0  0  0
    8.6663    3.2500    0.0000 C   0  0  0  0  0  0  0  0  0  0  0  0
   11.2644    1.7500    0.0000 C   0  0  0  0  0  0  0  0  0  0  0  0
    9.5323    4.7500    0.0000 C   0  0  0  0  0  0  0  0  0  0  0  0
    9.2033   -2.4400    0.0000 H   0  0  0  0  0  0  0  0  0  0  0  0
    8.3372   -3.5600    0.0000 H   0  0  0  0  0  0  0  0  0  0  0  0
    6.7222   -1.1674    0.0000 H   0  0  0  0  0  0  0  0  0  0  0  0
    6.3237   -1.8577    0.0000 H   0  0  0  0  0  0  0  0  0  0  0  0
    6.3237   -0.6423    0.0000 H   0  0  0  0  0  0  0  0  0  0  0  0
    6.7222   -1.3326    0.0000 H   0  0  0  0  0  0  0  0  0  0  0  0
    6.9343   -3.3700    0.0000 H   0  0  0  0  0  0  0  0  0  0  0  0
    6.1982   -0.1750    0.0000 H   0  0  0  0  0  0  0  0  0  0  0  0
    9.4024   -0.1750    0.0000 H   0  0  0  0  0  0  0  0  0  0  0  0
   10.2685   -3.6750    0.0000 H   0  0  0  0  0  0  0  0  0  0  0  0
    8.1988    1.2250    0.0000 H   0  0  0  0  0  0  0  0  0  0  0  0
    7.4018    1.2250    0.0000 H   0  0  0  0  0  0  0  0  0  0  0  0
    5.2022    1.4000    0.0000 H   0  0  0  0  0  0  0  0  0  0  0  0
    3.6779    4.3548    0.0000 H   0  0  0  0  0  0  0  0  0  0  0  0
    7.1803   -4.2500    0.0000 H   0  0  0  0  0  0  0  0  0  0  0  0
    7.8003   -4.8700    0.0000 H   0  0  0  0  0  0  0  0  0  0  0  0
    8.4203   -4.2500    0.0000 H   0  0  0  0  0  0  0  0  0  0  0  0
    9.7444    0.1674    0.0000 H   0  0  0  0  0  0  0  0  0  0  0  0
   10.1429    0.8577    0.0000 H   0  0  0  0  0  0  0  0  0  0  0  0
    8.9218   -4.1423    0.0000 H   0  0  0  0  0  0  0  0  0  0  0  0
    9.3203   -4.8326    0.0000 H   0  0  0  0  0  0  0  0  0  0  0  0
    2.8647    2.9618    0.0000 H   0  0  0  0  0  0  0  0  0  0  0  0
   10.7084   -3.2869    0.0000 H   0  0  0  0  0  0  0  0  0  0  0  0
   10.9353   -2.4400    0.0000 H   0  0  0  0  0  0  0  0  0  0  0  0
   10.0884   -2.2131    0.0000 H   0  0  0  0  0  0  0  0  0  0  0  0
    4.3154    1.0954    0.0000 H   0  0  0  0  0  0  0  0  0  0  0  0
    6.0682   -3.8700    0.0000 H   0  0  0  0  0  0  0  0  0  0  0  0
    6.3047    4.8242    0.0000 H   0  0  0  0  0  0  0  0  0  0  0  0
    5.6337    5.2904    0.0000 H   0  0  0  0  0  0  0  0  0  0  0  0
    4.2776    4.4018    0.0000 H   0  0  0  0  0  0  0  0  0  0  0  0
    8.9954    2.0600    0.0000 H   0  0  0  0  0  0  0  0  0  0  0  0
   10.0884   -5.2869    0.0000 H   0  0  0  0  0  0  0  0  0  0  0  0
   10.9353   -5.0600    0.0000 H   0  0  0  0  0  0  0  0  0  0  0  0
   10.7084   -4.2131    0.0000 H   0  0  0  0  0  0  0  0  0  0  0  0
    7.2444    2.7131    0.0000 H   0  0  0  0  0  0  0  0  0  0  0  0
    2.2261    2.2616    0.0000 H   0  0  0  0  0  0  0  0  0  0  0  0
    2.0024    1.4138    0.0000 H   0  0  0  0  0  0  0  0  0  0  0  0
    2.8502    1.1901    0.0000 H   0  0  0  0  0  0  0  0  0  0  0  0
    2.0000    3.4662    0.0000 H   0  0  0  0  0  0  0  0  0  0  0  0
   10.3984    3.8700    0.0000 H   0  0  0  0  0  0  0  0  0  0  0  0
    7.8003    4.3700    0.0000 H   0  0  0  0  0  0  0  0  0  0  0  0
   10.0693    4.0600    0.0000 H   0  0  0  0  0  0  0  0  0  0  0  0
    8.6663    2.6300    0.0000 H   0  0  0  0  0  0  0  0  0  0  0  0
   10.9544    1.2131    0.0000 H   0  0  0  0  0  0  0  0  0  0  0  0
   11.8013    1.4400    0.0000 H   0  0  0  0  0  0  0  0  0  0  0  0
   11.5744    2.2869    0.0000 H   0  0  0  0  0  0  0  0  0  0  0  0
   10.1524    4.7500    0.0000 H   0  0  0  0  0  0  0  0  0  0  0  0
    9.5323    5.3700    0.0000 H   0  0  0  0  0  0  0  0  0  0  0  0
    8.9124    4.7500    0.0000 H   0  0  0  0  0  0  0  0  0  0  0  0
   11.8013    3.4400    0.0000 H   0  0  0  0  0  0  0  0  0  0  0  0
 10  1  1  6  0  0  0
  1 11  1  0  0  0  0
  2 10  1  0  0  0  0
  2 17  1  0  0  0  0
  3 16  1  0  0  0  0
  3 29  1  0  0  0  0
 15  4  1  1  0  0  0
  4 70  1  0  0  0  0
  5 22  1  0  0  0  0
  5 32  1  0  0  0  0
 20  6  1  6  0  0  0
  6 73  1  0  0  0  0
 26  7  1  1  0  0  0
  7 82  1  0  0  0  0
  8 29  2  0  0  0  0
 38  9  1  6  0  0  0
  9 93  1  0  0  0  0
 10 13  1  0  0  0  0
 10 14  1  0  0  0  0
 11 12  1  0  0  0  0
 11 18  1  6  0  0  0
 11 44  1  0  0  0  0
 12 15  1  0  0  0  0
 12 23  1  1  0  0  0
 12 45  1  0  0  0  0
 13 15  1  0  0  0  0
 13 46  1  0  0  0  0
 13 47  1  0  0  0  0
 14 16  1  0  0  0  0
 14 48  1  0  0  0  0
 14 49  1  0  0  0  0
 15 50  1  0  0  0  0
 16 19  1  0  0  0  0
 16 51  1  6  0  0  0
 17 19  1  0  0  0  0
 17 24  1  0  0  0  0
 17 52  1  6  0  0  0
 18 25  1  0  0  0  0
 18 28  1  0  0  0  0
 18 53  1  0  0  0  0
 19 54  1  0  0  0  0
 19 55  1  0  0  0  0
 20 21  1  0  0  0  0
 20 22  1  0  0  0  0
 20 27  1  0  0  0  0
 21 29  1  0  0  0  0
 21 30  1  0  0  0  0
 21 56  1  1  0  0  0
 22 26  1  0  0  0  0
 22 57  1  6  0  0  0
 23 58  1  0  0  0  0
 23 59  1  0  0  0  0
 23 60  1  0  0  0  0
 24 33  1  0  0  0  0
 24 61  1  0  0  0  0
 24 62  1  0  0  0  0
 25 34  1  0  0  0  0
 25 63  1  0  0  0  0
 25 64  1  0  0  0  0
 26 31  1  0  0  0  0
 26 65  1  0  0  0  0
 27 32  1  0  0  0  0
 27 35  2  0  0  0  0
 28 66  1  0  0  0  0
 28 67  1  0  0  0  0
 28 68  1  0  0  0  0
 30 31  2  0  0  0  0
 30 69  1  0  0  0  0
 31 36  1  0  0  0  0
 32 71  1  0  0  0  0
 32 72  1  0  0  0  0
 33 37  2  0  0  0  0
 33 74  1  0  0  0  0
 34 75  1  0  0  0  0
 34 76  1  0  0  0  0
 34 77  1  0  0  0  0
 35 39  1  0  0  0  0
 35 78  1  0  0  0  0
 36 79  1  0  0  0  0
 36 80  1  0  0  0  0
 36 81  1  0  0  0  0
 37 38  1  0  0  0  0
 37 42  1  0  0  0  0
 38 40  1  0  0  0  0
 38 83  1  0  0  0  0
 39 41  2  0  0  0  0
 39 84  1  0  0  0  0
 40 41  1  0  0  0  0
 40 43  1  6  0  0  0
 40 85  1  0  0  0  0
 41 86  1  0  0  0  0
 42 87  1  0  0  0  0
 42 88  1  0  0  0  0
 42 89  1  0  0  0  0
 43 90  1  0  0  0  0
 43 91  1  0  0  0  0
 43 92  1  0  0  0  0
M  END
> <PUBCHEM_COMPOUND_CID>
11953982

> <PUBCHEM_COMPOUND_CANONICALIZED>
1

> <PUBCHEM_CACTVS_COMPLEXITY>
1170

> <PUBCHEM_CACTVS_HBOND_ACCEPTOR>
9

> <PUBCHEM_CACTVS_HBOND_DONOR>
4

> <PUBCHEM_CACTVS_ROTATABLE_BOND>
2

> <PUBCHEM_CACTVS_SUBSKEYS>
AAADcfB8PAAAAAAAAAAAAAAAAAAAASAAAAAkSIAAAAAAAEAAAAAAGgAACAAADVSggAICCAAABgCIAiDSCAAAAAAgAAAICAEAAAgZFBYAIQAiUAAF4AAPsAPK7OzOgAAAAAAAAAAAAAAAAAAAAAAAAAAAAA==

> <PUBCHEM_IUPAC_INCHI>
InChI=1S/C34H50O9/c1-7-18(2)30-22(6)27(35)16-33(43-30)15-25-14-24(42-33)12-11-20(4)28(36)19(3)9-8-10-23-17-40-31-29(37)21(5)13-26(32(38)41-25)34(23,31)39/h8-11,13,18-19,22,24-31,35-37,39H,7,12,14-17H2,1-6H3/b9-8+,20-11+,23-10+/t18?,19-,22-,24+,25-,26-,27-,28-,29+,30+,31+,33-,34+/m0/s1

> <PUBCHEM_IUPAC_INCHIKEY>
OHOQCCGOWLRCOH-BWHVHRGVSA-N

> <PUBCHEM_XLOGP3_AA>
2.3

> <PUBCHEM_EXACT_MASS>
602.345483

> <PUBCHEM_MOLECULAR_FORMULA>
C34H50O9

> <PUBCHEM_MOLECULAR_WEIGHT>
602.7554

> <PUBCHEM_OPENEYE_CAN_SMILES>
CCC(C)C1C(C(CC2(O1)CC3CC(O2)CC=C(C(C(C=CC=C4COC5C4(C(C=C(C5O)C)C(=O)O3)O)C)O)C)O)C

> <PUBCHEM_OPENEYE_ISO_SMILES>
CCC(C)[C@@H]1[C@H]([C@H](C[C@@]2(O1)C[C@@H]3C[C@H](O2)C/C=C(/[C@H]([C@H](/C=C/C=C/4\CO[C@H]5[C@@]4([C@@H](C=C([C@H]5O)C)C(=O)O3)O)C)O)\C)O)C

> <PUBCHEM_CACTVS_TPSA>
135

> <PUBCHEM_MONOISOTOPIC_WEIGHT>
602.345483

> <PUBCHEM_TOTAL_CHARGE>
0

> <PUBCHEM_HEAVY_ATOM_COUNT>
43

> <PUBCHEM_ATOM_DEF_STEREO_COUNT>
12

> <PUBCHEM_ATOM_UDEF_STEREO_COUNT>
1

> <PUBCHEM_BOND_DEF_STEREO_COUNT>
3

> <PUBCHEM_BOND_UDEF_STEREO_COUNT>
0

> <PUBCHEM_ISOTOPIC_ATOM_COUNT>
0

> <PUBCHEM_COMPONENT_COUNT>
1

> <PUBCHEM_CACTVS_TAUTO_COUNT>
1

> <PUBCHEM_COORDINATE_TYPE>
1
5
255

> <PUBCHEM_BONDANNOTATIONS>
10  1  6
11  18  6
12  23  5
16  51  6
17  52  6
18  53  3
21  56  5
22  57  6
15  4  5
40  43  6
20  6  6
26  7  5
38  9  6

$$$$

