6620
  -OEChem-06261201253D

 39 40  0     0  0  0  0  0  0999 V2000
    4.6941    1.5100    0.4022 O   0  0  0  0  0  0  0  0  0  0  0  0
   -4.6665    1.5343   -0.4079 O   0  0  0  0  0  0  0  0  0  0  0  0
    0.0050   -1.6048    0.0047 C   0  0  0  0  0  0  0  0  0  0  0  0
    1.2425   -0.7787    0.1050 C   0  0  0  0  0  0  0  0  0  0  0  0
   -1.2889   -0.7311   -0.1048 C   0  0  0  0  0  0  0  0  0  0  0  0
   -0.2697   -2.5700    1.2191 C   0  0  0  0  0  0  0  0  0  0  0  0
    0.1545   -2.5807   -1.2150 C   0  0  0  0  0  0  0  0  0  0  0  0
    1.5754    0.1078   -0.9193 C   0  0  0  0  0  0  0  0  0  0  0  0
   -1.5558    0.1211    0.9203 C   0  0  0  0  0  0  0  0  0  0  0  0
    2.0674   -0.8933    1.2237 C   0  0  0  0  0  0  0  0  0  0  0  0
   -2.0534   -0.8876   -1.2178 C   0  0  0  0  0  0  0  0  0  0  0  0
    2.7335    0.8797   -0.8246 C   0  0  0  0  0  0  0  0  0  0  0  0
   -2.7093    0.8991    0.8219 C   0  0  0  0  0  0  0  0  0  0  0  0
    3.2253   -0.1214    1.3185 C   0  0  0  0  0  0  0  0  0  0  0  0
   -3.2069   -0.1096   -1.3164 C   0  0  0  0  0  0  0  0  0  0  0  0
    3.5584    0.7651    0.2943 C   0  0  0  0  0  0  0  0  0  0  0  0
   -3.5351    0.7837   -0.2965 C   0  0  0  0  0  0  0  0  0  0  0  0
    3.0738    1.8249   -1.9290 C   0  0  0  0  0  0  0  0  0  0  0  0
   -3.0444    1.8515    1.9217 C   0  0  0  0  0  0  0  0  0  0  0  0
    0.5330   -3.3096    1.3284 H   0  0  0  0  0  0  0  0  0  0  0  0
   -0.3618   -2.0378    2.1728 H   0  0  0  0  0  0  0  0  0  0  0  0
   -1.2038   -3.1281    1.0746 H   0  0  0  0  0  0  0  0  0  0  0  0
    1.0551   -3.1980   -1.0947 H   0  0  0  0  0  0  0  0  0  0  0  0
   -0.6897   -3.2761   -1.2992 H   0  0  0  0  0  0  0  0  0  0  0  0
    0.2707   -2.0571   -2.1712 H   0  0  0  0  0  0  0  0  0  0  0  0
    0.9353    0.2057   -1.7926 H   0  0  0  0  0  0  0  0  0  0  0  0
   -0.9083    0.2132    1.7857 H   0  0  0  0  0  0  0  0  0  0  0  0
    1.8561   -1.5669    2.0468 H   0  0  0  0  0  0  0  0  0  0  0  0
   -1.8510   -1.5578   -2.0412 H   0  0  0  0  0  0  0  0  0  0  0  0
    3.8595   -0.2207    2.1954 H   0  0  0  0  0  0  0  0  0  0  0  0
   -3.8414   -0.2087   -2.1934 H   0  0  0  0  0  0  0  0  0  0  0  0
    3.1085    2.8525   -1.5524 H   0  0  0  0  0  0  0  0  0  0  0  0
    4.0458    1.5682   -2.3632 H   0  0  0  0  0  0  0  0  0  0  0  0
    2.3348    1.7950   -2.7368 H   0  0  0  0  0  0  0  0  0  0  0  0
   -4.0176    1.6023    2.3575 H   0  0  0  0  0  0  0  0  0  0  0  0
   -2.3050    1.8211    2.7293 H   0  0  0  0  0  0  0  0  0  0  0  0
   -3.0735    2.8775    1.5403 H   0  0  0  0  0  0  0  0  0  0  0  0
    5.1355    1.2962    1.2420 H   0  0  0  0  0  0  0  0  0  0  0  0
   -5.1092    1.3189   -1.2467 H   0  0  0  0  0  0  0  0  0  0  0  0
  1 16  1  0  0  0  0
  1 38  1  0  0  0  0
  2 17  1  0  0  0  0
  2 39  1  0  0  0  0
  3  4  1  0  0  0  0
  3  5  1  0  0  0  0
  3  6  1  0  0  0  0
  3  7  1  0  0  0  0
  4  8  2  0  0  0  0
  4 10  1  0  0  0  0
  5  9  2  0  0  0  0
  5 11  1  0  0  0  0
  6 20  1  0  0  0  0
  6 21  1  0  0  0  0
  6 22  1  0  0  0  0
  7 23  1  0  0  0  0
  7 24  1  0  0  0  0
  7 25  1  0  0  0  0
  8 12  1  0  0  0  0
  8 26  1  0  0  0  0
  9 13  1  0  0  0  0
  9 27  1  0  0  0  0
 10 14  2  0  0  0  0
 10 28  1  0  0  0  0
 11 15  2  0  0  0  0
 11 29  1  0  0  0  0
 12 16  2  0  0  0  0
 12 18  1  0  0  0  0
 13 17  2  0  0  0  0
 13 19  1  0  0  0  0
 14 16  1  0  0  0  0
 14 30  1  0  0  0  0
 15 17  1  0  0  0  0
 15 31  1  0  0  0  0
 18 32  1  0  0  0  0
 18 33  1  0  0  0  0
 18 34  1  0  0  0  0
 19 35  1  0  0  0  0
 19 36  1  0  0  0  0
 19 37  1  0  0  0  0
M  END
> <PUBCHEM_COMPOUND_CID>
6620

> <PUBCHEM_CONFORMER_RMSD>
0.6

> <PUBCHEM_CONFORMER_DIVERSEORDER>
1
5
3
7
9
11
4
2
6
10
8

> <PUBCHEM_MMFF94_PARTIAL_CHARGES>
25
1 -0.53
10 -0.15
11 -0.15
12 -0.14
13 -0.14
14 -0.15
15 -0.15
16 0.08
17 0.08
18 0.14
19 0.14
2 -0.53
26 0.15
27 0.15
28 0.15
29 0.15
3 0.29
30 0.15
31 0.15
38 0.45
39 0.45
4 -0.14
5 -0.14
8 -0.15
9 -0.15

> <PUBCHEM_EFFECTIVE_ROTOR_COUNT>
2

> <PUBCHEM_PHARMACOPHORE_FEATURES>
5
1 1 donor
1 2 donor
3 3 6 7 hydrophobe
6 4 8 10 12 14 16 rings
6 5 9 11 13 15 17 rings

> <PUBCHEM_HEAVY_ATOM_COUNT>
19

> <PUBCHEM_ATOM_DEF_STEREO_COUNT>
0

> <PUBCHEM_ATOM_UDEF_STEREO_COUNT>
0

> <PUBCHEM_BOND_DEF_STEREO_COUNT>
0

> <PUBCHEM_BOND_UDEF_STEREO_COUNT>
0

> <PUBCHEM_ISOTOPIC_ATOM_COUNT>
0

> <PUBCHEM_COMPONENT_COUNT>
1

> <PUBCHEM_CACTVS_TAUTO_COUNT>
5

> <PUBCHEM_CONFORMER_ID>
000019DC00000001

> <PUBCHEM_MMFF94_ENERGY>
70.4286

> <PUBCHEM_FEATURE_SELFOVERLAP>
25.371

> <PUBCHEM_SHAPE_FINGERPRINT>
10366900 7 15841551872744948920
10498660 4 17749115508428569353
10618630 7 9799698103500362176
11046707 91 9943536214630168172
11582403 64 14832799454313262223
11640471 11 18410859862469659684
12403259 327 15626224645254182353
12633257 1 15769776848943090296
12670546 177 15574725659460585341
12788726 201 18051426066945247994
12892183 10 15697730305802903625
13583140 156 16559035956541577241
13764800 53 18337378345155569723
14123260 362 18409162190752071888
14178342 30 13470406690810458097
14739800 52 17752794367462274888
14787075 74 18338511933839888179
15342168 16 18202275905716947005
15534591 1 18261382343421772147
15653759 3 15195570121209091932
15775835 57 18410865355732896228
15906896 17 18197219148345767122
16945 1 17894635820693239923
17357990 137 18412258441666333740
1741750 31 18337667516945555730
17804303 29 13470407824470593379
1813 80 17762055849633795242
18186145 218 18341325682098769382
18981168 100 18194372615746303910
19433438 38 15791728586054571260
19765921 60 18410581712335946939
20671657 53 5473147318965543384
20715895 44 17694520525883813533
21475661 188 16986608700113507085
21524375 3 18410573989462541507
21713013 43 13840276870355256997
21731228 192 17847062172704082371
23114952 82 15430036522209766088
23184049 59 17846506949676089462
23402539 116 17749404636936488828
23419403 2 12819060138595776663
235170 7 15502380001902992956
23526113 38 14345802660062524119
23557571 272 16950854578931762527
23558518 356 18130791096981759762
23559900 14 17603303735736039918
2838139 119 17533512127731735376
3472631 163 18040721355039098613
4028521 119 17821732732135872553
4340502 62 18130219463389513987
474 4 18341613767172423915
5161694 15 15574981931474263917
5262128 65 16153422818420115520
7364860 26 17606124128257334503
83771 10 9439403553257457034
9981440 41 18115602426497033186

> <PUBCHEM_SHAPE_MULTIPOLES>
379.27
7.52
2.31
1.71
0.24
0.93
0
-5.91
0.02
-0.07
-0.01
0.01
-0.27
-1.28

> <PUBCHEM_SHAPE_SELFOVERLAP>
816.865

> <PUBCHEM_SHAPE_VOLUME>
212.2

> <PUBCHEM_COORDINATE_TYPE>
2
5
10

$$$$

