5281491
  -OEChem-07051212573D

 52 54  0     1  0  0  0  0  0999 V2000
   -1.9943   -0.0514    0.8708 O   0  0  0  0  0  0  0  0  0  0  0  0
   -3.4231   -2.6606    1.2741 O   0  0  0  0  0  0  0  0  0  0  0  0
    2.1526   -0.3559   -0.0321 O   0  0  0  0  0  0  0  0  0  0  0  0
   -4.1300    0.3465    0.0927 O   0  0  0  0  0  0  0  0  0  0  0  0
    0.3519    3.1464   -0.7557 O   0  0  0  0  0  0  0  0  0  0  0  0
    1.7016    4.6048    0.3961 O   0  0  0  0  0  0  0  0  0  0  0  0
    2.7351   -2.3404    0.9888 O   0  0  0  0  0  0  0  0  0  0  0  0
   -1.3693   -1.3270    1.0725 C   0  0  1  0  0  0  0  0  0  0  0  0
   -2.3328   -2.3249    0.4215 C   0  0  2  0  0  0  0  0  0  0  0  0
   -0.0076   -1.3130    0.3413 C   0  0  0  0  0  0  0  0  0  0  0  0
   -2.8195   -0.0837   -0.2920 C   0  0  2  0  0  0  0  0  0  0  0  0
   -2.8592   -1.5493   -0.7721 C   0  0  0  0  0  0  0  0  0  0  0  0
    0.9719   -0.2075    0.7677 C   0  0  2  0  0  0  0  0  0  0  0  0
    0.4499    1.2406    0.6325 C   0  0  2  0  0  0  0  0  0  0  0  0
    0.1485    1.7050   -0.7960 C   0  0  1  0  0  0  0  0  0  0  0  0
   -1.1930   -1.5433    2.5765 C   0  0  0  0  0  0  0  0  0  0  0  0
   -2.3261    0.8477   -1.3931 C   0  0  0  0  0  0  0  0  0  0  0  0
   -1.1569    1.5107   -1.5310 C   0  0  0  0  0  0  0  0  0  0  0  0
    1.4390    2.2941    1.0477 C   0  0  0  0  0  0  0  0  0  0  0  0
   -3.3356    1.0038   -2.5263 C   0  0  0  0  0  0  0  0  0  0  0  0
    1.2233    3.4983    0.2266 C   0  0  0  0  0  0  0  0  0  0  0  0
    2.4020    2.2638    1.9736 C   0  0  0  0  0  0  0  0  0  0  0  0
    2.7487   -1.5818    0.0282 C   0  0  0  0  0  0  0  0  0  0  0  0
    3.4512   -1.8625   -1.2886 C   0  0  0  0  0  0  0  0  0  0  0  0
    4.6743   -2.7377   -1.0427 C   0  0  0  0  0  0  0  0  0  0  0  0
    2.4974   -2.5223   -2.2811 C   0  0  0  0  0  0  0  0  0  0  0  0
   -1.8496   -3.2602    0.1204 H   0  0  0  0  0  0  0  0  0  0  0  0
   -0.1524   -1.2172   -0.7417 H   0  0  0  0  0  0  0  0  0  0  0  0
    0.4265   -2.3101    0.4703 H   0  0  0  0  0  0  0  0  0  0  0  0
   -2.1878   -1.7049   -1.6253 H   0  0  0  0  0  0  0  0  0  0  0  0
   -3.8646   -1.8658   -1.0702 H   0  0  0  0  0  0  0  0  0  0  0  0
    1.2607   -0.3742    1.8125 H   0  0  0  0  0  0  0  0  0  0  0  0
   -0.4106    1.4147    1.2845 H   0  0  0  0  0  0  0  0  0  0  0  0
    0.9239    1.3245   -1.4764 H   0  0  0  0  0  0  0  0  0  0  0  0
   -0.5726   -0.7610    3.0253 H   0  0  0  0  0  0  0  0  0  0  0  0
   -2.1515   -1.4793    3.1035 H   0  0  0  0  0  0  0  0  0  0  0  0
   -0.7392   -2.5161    2.7898 H   0  0  0  0  0  0  0  0  0  0  0  0
   -1.0916    2.0819   -2.4639 H   0  0  0  0  0  0  0  0  0  0  0  0
   -3.0867   -3.2699    1.9531 H   0  0  0  0  0  0  0  0  0  0  0  0
   -4.6078   -0.4199    0.4517 H   0  0  0  0  0  0  0  0  0  0  0  0
   -2.9482    1.5870   -3.3687 H   0  0  0  0  0  0  0  0  0  0  0  0
   -4.2358    1.5150   -2.1697 H   0  0  0  0  0  0  0  0  0  0  0  0
   -3.6236    0.0259   -2.9251 H   0  0  0  0  0  0  0  0  0  0  0  0
    2.5695    1.3843    2.5848 H   0  0  0  0  0  0  0  0  0  0  0  0
    3.0489    3.1162    2.1532 H   0  0  0  0  0  0  0  0  0  0  0  0
    3.8045   -0.9085   -1.6996 H   0  0  0  0  0  0  0  0  0  0  0  0
    5.2371   -2.8885   -1.9700 H   0  0  0  0  0  0  0  0  0  0  0  0
    4.3931   -3.7232   -0.6547 H   0  0  0  0  0  0  0  0  0  0  0  0
    5.3459   -2.2741   -0.3117 H   0  0  0  0  0  0  0  0  0  0  0  0
    3.0019   -2.7321   -3.2297 H   0  0  0  0  0  0  0  0  0  0  0  0
    1.6430   -1.8695   -2.4890 H   0  0  0  0  0  0  0  0  0  0  0  0
    2.1020   -3.4641   -1.8849 H   0  0  0  0  0  0  0  0  0  0  0  0
  1  8  1  0  0  0  0
  1 11  1  0  0  0  0
  2  9  1  0  0  0  0
  2 39  1  0  0  0  0
  3 13  1  0  0  0  0
  3 23  1  0  0  0  0
  4 11  1  0  0  0  0
  4 40  1  0  0  0  0
  5 15  1  0  0  0  0
  5 21  1  0  0  0  0
  6 21  2  0  0  0  0
  7 23  2  0  0  0  0
  8  9  1  0  0  0  0
  8 10  1  0  0  0  0
  8 16  1  0  0  0  0
  9 12  1  0  0  0  0
  9 27  1  0  0  0  0
 10 13  1  0  0  0  0
 10 28  1  0  0  0  0
 10 29  1  0  0  0  0
 11 12  1  0  0  0  0
 11 17  1  0  0  0  0
 12 30  1  0  0  0  0
 12 31  1  0  0  0  0
 13 14  1  0  0  0  0
 13 32  1  0  0  0  0
 14 15  1  0  0  0  0
 14 19  1  0  0  0  0
 14 33  1  0  0  0  0
 15 18  1  0  0  0  0
 15 34  1  0  0  0  0
 16 35  1  0  0  0  0
 16 36  1  0  0  0  0
 16 37  1  0  0  0  0
 17 18  2  0  0  0  0
 17 20  1  0  0  0  0
 18 38  1  0  0  0  0
 19 21  1  0  0  0  0
 19 22  2  0  0  0  0
 20 41  1  0  0  0  0
 20 42  1  0  0  0  0
 20 43  1  0  0  0  0
 22 44  1  0  0  0  0
 22 45  1  0  0  0  0
 23 24  1  0  0  0  0
 24 25  1  0  0  0  0
 24 26  1  0  0  0  0
 24 46  1  0  0  0  0
 25 47  1  0  0  0  0
 25 48  1  0  0  0  0
 25 49  1  0  0  0  0
 26 50  1  0  0  0  0
 26 51  1  0  0  0  0
 26 52  1  0  0  0  0
M  END
> <PUBCHEM_COMPOUND_CID>
5281491

> <PUBCHEM_CONFORMER_RMSD>
0.8

> <PUBCHEM_CONFORMER_DIVERSEORDER>
2
5
6
4
3
7
1

> <PUBCHEM_MMFF94_PARTIAL_CHARGES>
26
1 -0.56
11 0.7
13 0.28
14 0.14
15 0.42
17 -0.28
18 -0.29
19 -0.12
2 -0.68
20 0.14
21 0.71
22 -0.3
23 0.66
24 0.06
3 -0.43
38 0.15
39 0.4
4 -0.68
40 0.4
44 0.15
45 0.15
5 -0.43
6 -0.57
7 -0.57
8 0.28
9 0.28

> <PUBCHEM_EFFECTIVE_ROTOR_COUNT>
4.2

> <PUBCHEM_PHARMACOPHORE_FEATURES>
10
1 1 acceptor
1 2 acceptor
1 2 donor
1 4 acceptor
1 4 donor
1 6 acceptor
1 7 acceptor
3 24 25 26 hydrophobe
5 1 8 9 11 12 rings
5 5 14 15 19 21 rings

> <PUBCHEM_HEAVY_ATOM_COUNT>
26

> <PUBCHEM_ATOM_DEF_STEREO_COUNT>
6

> <PUBCHEM_ATOM_UDEF_STEREO_COUNT>
0

> <PUBCHEM_BOND_DEF_STEREO_COUNT>
1

> <PUBCHEM_BOND_UDEF_STEREO_COUNT>
0

> <PUBCHEM_ISOTOPIC_ATOM_COUNT>
0

> <PUBCHEM_COMPONENT_COUNT>
1

> <PUBCHEM_CACTVS_TAUTO_COUNT>
1

> <PUBCHEM_CONFORMER_ID>
005096D300000002

> <PUBCHEM_MMFF94_ENERGY>
80.1886

> <PUBCHEM_FEATURE_SELFOVERLAP>
50.794

> <PUBCHEM_SHAPE_FINGERPRINT>
11477941 20 17827885681795457836
12553582 1 18265618877708919514
12633257 1 17771657601131889121
12714826 92 18058997505792537195
12788726 201 17977665643201885174
13140716 1 17986972768845014305
13149001 5 18342746242663575981
133893 2 18118381982922015754
13681431 1 18333444335827854120
14251740 79 17840295950436388662
14790565 3 17762332913536733032
14863182 85 17186137787817257551
14955137 171 18048568677300904985
15219462 58 17243584079777415979
16752209 62 17838061764103950538
16945 1 18268168585381429827
17357779 13 18116155652496582086
1813 80 17749663116542259212
18915476 22 18188782621426456268
1979834 28 17334754406889021835
20600515 1 18057624220570749504
20691752 17 17489596606561889627
20775438 99 17836688199614889647
20905425 154 17628094307710444913
21285901 2 17608085691307894935
21304303 282 17477493470294316500
22182313 1 17845102762244105079
22713019 5 18049446147050009444
22907989 373 17979889912412548710
23114952 82 18339923688729999693
23419403 2 18408882914956703558
23526113 38 18342732992768770890
23557571 272 18192146221434334038
23558518 356 16969993047428495727
23559900 14 18337678507545352729
238 59 18119835537172382662
2748010 2 18271536294834161627
394222 165 5467736794255543747
5262128 65 18262822733935019477
5845 1 13754189434942830756
6287921 2 18051965927322524363
7226269 152 17984158207951084362
81228 2 17973999849949325488
84936 31 17968939661004154070
9862522 239 17547033835244903856

> <PUBCHEM_SHAPE_MULTIPOLES>
493.98
6.22
4.58
2.13
1.56
4.27
-0.16
-5.29
-2.41
3.06
0.5
-0.46
-0.53
2.9

> <PUBCHEM_SHAPE_SELFOVERLAP>
1044.385

> <PUBCHEM_SHAPE_VOLUME>
276.5

> <PUBCHEM_COORDINATE_TYPE>
2
5
10

$$$$

