45480545
  -OEChem-07051212453D

 40 40  0     1  0  0  0  0  0999 V2000
   -1.1129    2.2127   -0.1845 P   0  0  2  0  0  0  0  0  0  0  0  0
   -0.0966    1.2174   -0.9478 O   0  0  0  0  0  0  0  0  0  0  0  0
    2.6480    1.6875   -0.7800 O   0  0  0  0  0  0  0  0  0  0  0  0
    0.0020   -1.5929   -1.4273 O   0  0  0  0  0  0  0  0  0  0  0  0
    4.0366    0.9047    1.5310 O   0  0  0  0  0  0  0  0  0  0  0  0
    2.6883   -2.6730   -1.3510 O   0  0  0  0  0  0  0  0  0  0  0  0
    4.0861   -1.9108    1.0371 O   0  0  0  0  0  0  0  0  0  0  0  0
   -2.2001    1.2427    0.5229 O   0  0  0  0  0  0  0  0  0  0  0  0
   -1.9624    2.9086   -1.3737 O   0  0  0  0  0  0  0  0  0  0  0  0
   -0.4473    3.1872    0.7444 O   0  0  0  0  0  0  0  0  0  0  0  0
   -3.1055   -1.2079    1.5835 O   0  0  0  0  0  0  0  0  0  0  0  0
   -5.4699   -2.2794    0.6087 O   0  0  0  0  0  0  0  0  0  0  0  0
    0.7402    0.3429   -0.1919 C   0  0  0  0  0  0  0  0  0  0  0  0
    1.1619   -0.8279   -1.0854 C   0  0  1  0  0  0  0  0  0  0  0  0
    1.9510    1.1166    0.3318 C   0  0  1  0  0  0  0  0  0  0  0  0
    2.8881    0.1787    1.0952 C   0  0  1  0  0  0  0  0  0  0  0  0
    2.1698   -1.7498   -0.3892 C   0  0  2  0  0  0  0  0  0  0  0  0
    3.3512   -0.9919    0.2229 C   0  0  0  0  0  0  0  0  0  0  0  0
   -2.8778    0.2907   -0.2789 C   0  0  0  0  0  0  0  0  0  0  0  0
   -3.8484   -0.5117    0.5801 C   0  0  1  0  0  0  0  0  0  0  0  0
   -4.6022   -1.5443   -0.2478 C   0  0  0  0  0  0  0  0  0  0  0  0
    0.1539   -0.0419    0.6521 H   0  0  0  0  0  0  0  0  0  0  0  0
    1.5556   -0.4682   -2.0426 H   0  0  0  0  0  0  0  0  0  0  0  0
    1.6610    1.9535    0.9703 H   0  0  0  0  0  0  0  0  0  0  0  0
    2.3912   -0.2009    1.9966 H   0  0  0  0  0  0  0  0  0  0  0  0
    1.6676   -2.3602    0.3710 H   0  0  0  0  0  0  0  0  0  0  0  0
    4.0561   -0.6601   -0.5474 H   0  0  0  0  0  0  0  0  0  0  0  0
    2.9645    0.9831   -1.3666 H   0  0  0  0  0  0  0  0  0  0  0  0
   -0.3708   -1.9550   -0.6053 H   0  0  0  0  0  0  0  0  0  0  0  0
    3.7251    1.6375    2.0892 H   0  0  0  0  0  0  0  0  0  0  0  0
    3.1329   -2.1618   -2.0487 H   0  0  0  0  0  0  0  0  0  0  0  0
    3.5009   -2.2158    1.7514 H   0  0  0  0  0  0  0  0  0  0  0  0
   -3.4249    0.8107   -1.0717 H   0  0  0  0  0  0  0  0  0  0  0  0
   -2.1431   -0.3727   -0.7386 H   0  0  0  0  0  0  0  0  0  0  0  0
   -4.5411    0.1485    1.1126 H   0  0  0  0  0  0  0  0  0  0  0  0
   -2.5486    3.6647   -1.1573 H   0  0  0  0  0  0  0  0  0  0  0  0
   -3.9136   -2.2583   -0.7119 H   0  0  0  0  0  0  0  0  0  0  0  0
   -5.2027   -1.0627   -1.0257 H   0  0  0  0  0  0  0  0  0  0  0  0
   -2.4675   -1.7895    1.1356 H   0  0  0  0  0  0  0  0  0  0  0  0
   -5.9364   -2.9270    0.0533 H   0  0  0  0  0  0  0  0  0  0  0  0
  1  2  1  0  0  0  0
  1  8  1  0  0  0  0
  1  9  1  0  0  0  0
  1 10  2  0  0  0  0
  2 13  1  0  0  0  0
  3 15  1  0  0  0  0
  3 28  1  0  0  0  0
  4 14  1  0  0  0  0
  4 29  1  0  0  0  0
  5 16  1  0  0  0  0
  5 30  1  0  0  0  0
  6 17  1  0  0  0  0
  6 31  1  0  0  0  0
  7 18  1  0  0  0  0
  7 32  1  0  0  0  0
  8 19  1  0  0  0  0
  9 36  1  0  0  0  0
 11 20  1  0  0  0  0
 11 39  1  0  0  0  0
 12 21  1  0  0  0  0
 12 40  1  0  0  0  0
 13 14  1  0  0  0  0
 13 15  1  0  0  0  0
 13 22  1  0  0  0  0
 14 17  1  0  0  0  0
 14 23  1  0  0  0  0
 15 16  1  0  0  0  0
 15 24  1  0  0  0  0
 16 18  1  0  0  0  0
 16 25  1  0  0  0  0
 17 18  1  0  0  0  0
 17 26  1  0  0  0  0
 18 27  1  0  0  0  0
 19 20  1  0  0  0  0
 19 33  1  0  0  0  0
 19 34  1  0  0  0  0
 20 21  1  0  0  0  0
 20 35  1  0  0  0  0
 21 37  1  0  0  0  0
 21 38  1  0  0  0  0
M  END
> <PUBCHEM_COMPOUND_CID>
45480545

> <PUBCHEM_CONFORMER_RMSD>
1

> <PUBCHEM_CONFORMER_DIVERSEORDER>
1
2
37
63
57
30
70
45
58
13
86
83
87
18
79
5
23
44
89
42
53
17
46
67
56
59
88
77
21
74
31
76
40
90
54
81
9
32
62
64
43
19
48
82
35
24
11
25
69
8
66
28
75
51
60
29
27
80
6
34
52
3
26
10
68
73
47
91
72
7
36
61
41
16
49
50
14
55
38
71
78
33
39
15
84
85
22
20
12
4
65

> <PUBCHEM_MMFF94_PARTIAL_CHARGES>
29
1 1.51
10 -0.7
11 -0.68
12 -0.68
13 0.28
14 0.28
15 0.28
16 0.28
17 0.28
18 0.28
19 0.28
2 -0.55
20 0.28
21 0.28
28 0.4
29 0.4
3 -0.68
30 0.4
31 0.4
32 0.4
36 0.5
39 0.4
4 -0.68
40 0.4
5 -0.68
6 -0.68
7 -0.68
8 -0.55
9 -0.77

> <PUBCHEM_EFFECTIVE_ROTOR_COUNT>
7.2

> <PUBCHEM_PHARMACOPHORE_FEATURES>
17
1 10 acceptor
1 11 acceptor
1 11 donor
1 12 acceptor
1 12 donor
1 3 acceptor
1 3 donor
1 4 acceptor
1 4 donor
1 5 acceptor
1 5 donor
1 6 acceptor
1 6 donor
1 7 acceptor
1 7 donor
1 9 acceptor
6 13 14 15 16 17 18 rings

> <PUBCHEM_HEAVY_ATOM_COUNT>
21

> <PUBCHEM_ATOM_DEF_STEREO_COUNT>
5

> <PUBCHEM_ATOM_UDEF_STEREO_COUNT>
0

> <PUBCHEM_BOND_DEF_STEREO_COUNT>
0

> <PUBCHEM_BOND_UDEF_STEREO_COUNT>
0

> <PUBCHEM_ISOTOPIC_ATOM_COUNT>
0

> <PUBCHEM_COMPONENT_COUNT>
1

> <PUBCHEM_CACTVS_TAUTO_COUNT>
1

> <PUBCHEM_CONFORMER_ID>
02B5FA6100000001

> <PUBCHEM_MMFF94_ENERGY>
31.6748

> <PUBCHEM_FEATURE_SELFOVERLAP>
86.308

> <PUBCHEM_SHAPE_FINGERPRINT>
11471102 22 18041564770693360490
11796584 16 17346330245842222555
12363563 72 18201992201857866435
12500047 106 17697605746150739148
12553582 1 18262799554123104117
12633257 1 18191298488735592009
13083527 12 18130230354419521060
13140716 1 18190180276709555793
13464514 151 9583511014924387998
13544653 18 18412261714584530569
14178342 30 18048312542082848032
14223421 5 18263084473394540924
14251705 54 18408322211171087553
14790565 3 17761495785761136420
14863182 85 18264192634944377623
16945 1 17751664254012594020
1741750 31 8790877471869922733
17834072 14 18413394233109699471
20261772 1 18114466664838681502
20681677 274 18264775530973529306
221490 88 18189334744205395198
23184049 29 18340764965522904689
23557571 272 18338523061461900425
23559900 14 18267022941151367916
251288 83 18411981338702833234
2637199 183 9222965776415172905
2748010 2 18117566338736597788
49207404 50 18187374258979967402
5104073 3 18334582385806794336
5283173 99 18200046173846480261
7064713 232 17530956969892626219
81228 2 18199170970964374801
8809292 202 17977097190973345133
9709674 26 18191312786745133957

> <PUBCHEM_SHAPE_MULTIPOLES>
371.46
8.55
3.17
1.32
6.62
1.08
-0.02
-6.12
-2.99
0.79
0.53
-0.39
-0.14
1.13

> <PUBCHEM_SHAPE_SELFOVERLAP>
727.416

> <PUBCHEM_SHAPE_VOLUME>
223.1

> <PUBCHEM_COORDINATE_TYPE>
2
5
10

$$$$

