46173956
  -OEChem-07051213103D

 42 42  0     1  0  0  0  0  0999 V2000
   -0.9020   -2.7362    0.9535 O   0  0  0  0  0  0  0  0  0  0  0  0
   -2.9155    2.1162    1.4004 O   0  0  0  0  0  0  0  0  0  0  0  0
    4.7472    0.1604   -1.3214 O   0  0  0  0  0  0  0  0  0  0  0  0
   -1.1591   -0.6319   -0.1447 C   0  0  2  0  0  0  0  0  0  0  0  0
   -0.1714   -1.7261    0.2527 C   0  0  1  0  0  0  0  0  0  0  0  0
   -1.7408    0.0563    1.0877 C   0  0  0  0  0  0  0  0  0  0  0  0
   -2.2828   -1.2000   -1.0166 C   0  0  0  0  0  0  0  0  0  0  0  0
    0.9679   -1.1991    1.1520 C   0  0  0  0  0  0  0  0  0  0  0  0
    0.4182   -2.3707   -1.0068 C   0  0  0  0  0  0  0  0  0  0  0  0
   -2.7493    1.1180    0.7001 C   0  0  0  0  0  0  0  0  0  0  0  0
   -3.3706   -0.1981   -1.2611 C   0  0  0  0  0  0  0  0  0  0  0  0
   -3.5937    0.8925   -0.5120 C   0  0  0  0  0  0  0  0  0  0  0  0
    1.8026   -0.1197    0.5142 C   0  0  0  0  0  0  0  0  0  0  0  0
    3.1340   -0.2023    0.3631 C   0  0  0  0  0  0  0  0  0  0  0  0
   -4.6701    1.8887   -0.8066 C   0  0  0  0  0  0  0  0  0  0  0  0
    4.0501    0.8260   -0.2615 C   0  0  0  0  0  0  0  0  0  0  0  0
    3.3499    2.0478   -0.8667 C   0  0  0  0  0  0  0  0  0  0  0  0
    5.0855    1.2783    0.7738 C   0  0  0  0  0  0  0  0  0  0  0  0
   -0.6478    0.1320   -0.7475 H   0  0  0  0  0  0  0  0  0  0  0  0
   -0.9590    0.5751    1.6511 H   0  0  0  0  0  0  0  0  0  0  0  0
   -2.2423   -0.6499    1.7589 H   0  0  0  0  0  0  0  0  0  0  0  0
   -1.8849   -1.4857   -1.9971 H   0  0  0  0  0  0  0  0  0  0  0  0
   -2.7399   -2.0940   -0.5773 H   0  0  0  0  0  0  0  0  0  0  0  0
    1.6049   -2.0476    1.4399 H   0  0  0  0  0  0  0  0  0  0  0  0
    0.5754   -0.8375    2.1093 H   0  0  0  0  0  0  0  0  0  0  0  0
    1.2291   -3.0601   -0.7410 H   0  0  0  0  0  0  0  0  0  0  0  0
   -0.3167   -2.9897   -1.5329 H   0  0  0  0  0  0  0  0  0  0  0  0
    0.8218   -1.6315   -1.7064 H   0  0  0  0  0  0  0  0  0  0  0  0
   -4.0077   -0.3882   -2.1218 H   0  0  0  0  0  0  0  0  0  0  0  0
   -0.2796   -3.4438    1.1931 H   0  0  0  0  0  0  0  0  0  0  0  0
    1.2838    0.7817    0.2058 H   0  0  0  0  0  0  0  0  0  0  0  0
    3.6266   -1.1115    0.7071 H   0  0  0  0  0  0  0  0  0  0  0  0
   -5.3724    1.9528    0.0309 H   0  0  0  0  0  0  0  0  0  0  0  0
   -5.2429    1.6202   -1.7005 H   0  0  0  0  0  0  0  0  0  0  0  0
   -4.2371    2.8801   -0.9751 H   0  0  0  0  0  0  0  0  0  0  0  0
    2.8108    2.6283   -0.1104 H   0  0  0  0  0  0  0  0  0  0  0  0
    2.6451    1.7501   -1.6520 H   0  0  0  0  0  0  0  0  0  0  0  0
    4.0763    2.7128   -1.3488 H   0  0  0  0  0  0  0  0  0  0  0  0
    4.6138    1.7812    1.6251 H   0  0  0  0  0  0  0  0  0  0  0  0
    5.6654    0.4277    1.1519 H   0  0  0  0  0  0  0  0  0  0  0  0
    5.8115    1.9671    0.3261 H   0  0  0  0  0  0  0  0  0  0  0  0
    5.3907    0.7847   -1.6982 H   0  0  0  0  0  0  0  0  0  0  0  0
  1  5  1  0  0  0  0
  1 30  1  0  0  0  0
  2 10  2  0  0  0  0
  3 16  1  0  0  0  0
  3 42  1  0  0  0  0
  4  5  1  0  0  0  0
  4  6  1  0  0  0  0
  4  7  1  0  0  0  0
  4 19  1  0  0  0  0
  5  8  1  0  0  0  0
  5  9  1  0  0  0  0
  6 10  1  0  0  0  0
  6 20  1  0  0  0  0
  6 21  1  0  0  0  0
  7 11  1  0  0  0  0
  7 22  1  0  0  0  0
  7 23  1  0  0  0  0
  8 13  1  0  0  0  0
  8 24  1  0  0  0  0
  8 25  1  0  0  0  0
  9 26  1  0  0  0  0
  9 27  1  0  0  0  0
  9 28  1  0  0  0  0
 10 12  1  0  0  0  0
 11 12  2  0  0  0  0
 11 29  1  0  0  0  0
 12 15  1  0  0  0  0
 13 14  2  0  0  0  0
 13 31  1  0  0  0  0
 14 16  1  0  0  0  0
 14 32  1  0  0  0  0
 15 33  1  0  0  0  0
 15 34  1  0  0  0  0
 15 35  1  0  0  0  0
 16 17  1  0  0  0  0
 16 18  1  0  0  0  0
 17 36  1  0  0  0  0
 17 37  1  0  0  0  0
 17 38  1  0  0  0  0
 18 39  1  0  0  0  0
 18 40  1  0  0  0  0
 18 41  1  0  0  0  0
M  END
> <PUBCHEM_COMPOUND_CID>
46173956

> <PUBCHEM_CONFORMER_RMSD>
0.6

> <PUBCHEM_CONFORMER_DIVERSEORDER>
1
3
51
121
167
20
166
205
179
30
185
56
247
238
204
193
159
217
81
253
84
73
231
34
29
237
228
186
111
103
71
175
257
226
38
242
70
15
245
202
208
63
165
27
140
61
170
88
48
2
213
47
200
155
80
261
101
178
130
66
210
129
236
114
33
65
181
161
126
44
23
94
203
31
206
230
148
12
10
184
9
190
133
218
106
158
189
227
72
96
160
156
191
215
58
192
41
250
223
260
45
221
239
11
128
85
120
198
26
132
136
14
145
199
246
68
157
57
4
99
254
36
151
93
248
42
83
137
195
169
163
214
152
211
18
74
7
162
50
46
256
180
209
168
6
100
134
55
89
224
127
107
32
49
39
24
188
25
131
53
219
232
125
122
118
76
109
67
35
102
234
22
98
235
138
212
258
16
37
207
143
251
194
229
171
124
201
233
150
177
119
95
116
176
117
79
59
216
244
19
64
149
108
78
123
243
90
197
183
174
115
69
142
21
77
28
8
104
153
222
220
92
62
146
154
135
241
60
113
240
259
164
97
225
5
252
139
172
91
173
144
13
255
196
75
54
105
141
82
43
112
249
187
182
52
87
40
147
17
110
86

> <PUBCHEM_MMFF94_PARTIAL_CHARGES>
19
1 -0.68
10 0.49
11 -0.29
12 -0.12
13 -0.29
14 -0.29
15 0.14
16 0.42
2 -0.57
29 0.15
3 -0.68
30 0.4
31 0.15
32 0.15
42 0.4
5 0.28
6 0.06
7 0.14
8 0.14

> <PUBCHEM_EFFECTIVE_ROTOR_COUNT>
4.6

> <PUBCHEM_PHARMACOPHORE_FEATURES>
7
1 1 acceptor
1 1 donor
1 2 acceptor
1 3 acceptor
1 3 donor
3 16 17 18 hydrophobe
6 4 6 7 10 11 12 rings

> <PUBCHEM_HEAVY_ATOM_COUNT>
18

> <PUBCHEM_ATOM_DEF_STEREO_COUNT>
2

> <PUBCHEM_ATOM_UDEF_STEREO_COUNT>
0

> <PUBCHEM_BOND_DEF_STEREO_COUNT>
1

> <PUBCHEM_BOND_UDEF_STEREO_COUNT>
0

> <PUBCHEM_ISOTOPIC_ATOM_COUNT>
0

> <PUBCHEM_COMPONENT_COUNT>
1

> <PUBCHEM_CACTVS_TAUTO_COUNT>
5

> <PUBCHEM_CONFORMER_ID>
02C08F0400000001

> <PUBCHEM_MMFF94_ENERGY>
35.5427

> <PUBCHEM_FEATURE_SELFOVERLAP>
35.52

> <PUBCHEM_SHAPE_FINGERPRINT>
10498660 4 18334020501037247921
11046707 91 9367353647395468874
11370993 144 14045478772807510256
11552529 35 14261062126426194592
11640471 11 18412265051257063833
12173636 292 18335979757991375086
122479 349 18202563947598354674
12633257 1 14836115572433555573
12788726 201 18053119336179225235
12916748 109 18260546697520636426
13583140 156 16916789552381883256
13828863 39 14978237256087050646
14123255 52 18343304777221954528
14123260 362 18410853252552044328
14178342 30 12175071015682804151
1420 369 8646766711810572364
14251764 30 14996858602463933319
14251764 38 17976832982414836152
14787075 74 18411139096396958931
15183329 4 18338227272160863950
15342168 16 18130787888708786877
15375462 189 9727625120557676330
15534591 1 18411419492487591107
1741750 31 18411702050159927498
17780758 139 11743576374739712716
17834072 32 18341894103777384581
1813 80 7997689852306447346
18186145 218 18411130351437017878
193927 3 7997688748552807052
200 152 5473141846987362550
20281475 54 9151172073536657130
20300324 65 17967538930361206629
204376 136 18130787884387640523
20645477 56 18043806494751295946
20645477 70 16733249198129462558
20671657 53 13984663659330446058
20871999 31 17022904544786103873
21250096 35 8935003654872087317
21524375 3 18410299128809326442
22182937 141 18271801264056199730
2255824 54 17975981182867419091
22646028 28 8070028882671680368
22907989 373 18119521033813048830
231179 274 18059859505897272700
235170 7 16153703198428410012
23557571 272 17971766462729276106
23559900 14 17748826298769243896
27216 239 17846493695449212137
2748010 2 17318491659456898419
2838139 119 17772777050298423357
351380 3 8430316861551812724
4028521 119 18333454231042308808
474 4 18341335612210805307
5262128 65 16081372907994219320
633830 44 18341057422741995727
90316 7 10231488435625595735
9981440 41 18337117782517490026

> <PUBCHEM_SHAPE_MULTIPOLES>
352.82
9.57
2.51
1.34
6.57
0.6
0
-7.54
2.06
-0.81
-0.04
-0.22
-0.02
-0.44

> <PUBCHEM_SHAPE_SELFOVERLAP>
707.511

> <PUBCHEM_SHAPE_VOLUME>
208.6

> <PUBCHEM_COORDINATE_TYPE>
2
5
10

$$$$

