447903
  -OEChem-07051213153D

 38 40  0     1  0  0  0  0  0999 V2000
    3.2908    1.5464   -0.4002 P   0  0  0  0  0  0  0  0  0  0  0  0
    0.6030   -1.4709    1.1040 O   0  0  0  0  0  0  0  0  0  0  0  0
    1.4734   -4.3631    0.6041 O   0  0  0  0  0  0  0  0  0  0  0  0
    2.6853    0.2458    0.3488 O   0  0  0  0  0  0  0  0  0  0  0  0
   -3.3173   -2.5744   -0.5786 O   0  0  0  0  0  0  0  0  0  0  0  0
   -3.7456    2.7060   -0.5918 O   0  0  0  0  0  0  0  0  0  0  0  0
    2.2072    1.8619   -1.5583 O   0  0  0  0  0  0  0  0  0  0  0  0
    4.5451    0.9385   -1.2201 O   0  0  0  0  0  0  0  0  0  0  0  0
    3.6217    2.7003    0.5006 O   0  0  0  0  0  0  0  0  0  0  0  0
   -1.5285   -1.1813    0.1831 N   0  0  0  0  0  0  0  0  0  0  0  0
   -3.4200   -0.2022   -0.5468 N   0  0  0  0  0  0  0  0  0  0  0  0
   -0.3688    0.9804    0.7165 N   0  0  0  0  0  0  0  0  0  0  0  0
   -1.6164    2.9613    0.2778 N   0  0  0  0  0  0  0  0  0  0  0  0
    0.5671    3.0403    1.1596 N   0  0  0  0  0  0  0  0  0  0  0  0
   -0.5354   -2.1473    0.5520 C   0  0  1  0  0  0  0  0  0  0  0  0
    1.3973   -3.2356   -0.2656 C   0  0  1  0  0  0  0  0  0  0  0  0
   -0.0453   -2.9693   -0.6289 C   0  0  0  0  0  0  0  0  0  0  0  0
    1.8023   -1.9744    0.4846 C   0  0  1  0  0  0  0  0  0  0  0  0
    2.3467   -0.8878   -0.4336 C   0  0  0  0  0  0  0  0  0  0  0  0
   -1.3896    0.1887    0.2815 C   0  0  0  0  0  0  0  0  0  0  0  0
   -2.8231   -1.4817   -0.3463 C   0  0  0  0  0  0  0  0  0  0  0  0
   -2.5243    0.7490   -0.1571 C   0  0  0  0  0  0  0  0  0  0  0  0
   -2.6988    2.2144   -0.1825 C   0  0  0  0  0  0  0  0  0  0  0  0
   -0.5268    2.3550    0.6968 C   0  0  0  0  0  0  0  0  0  0  0  0
   -0.9578   -2.7994    1.3254 H   0  0  0  0  0  0  0  0  0  0  0  0
    2.0212   -3.4496   -1.1384 H   0  0  0  0  0  0  0  0  0  0  0  0
   -0.0923   -2.3850   -1.5560 H   0  0  0  0  0  0  0  0  0  0  0  0
   -0.6419   -3.8765   -0.7663 H   0  0  0  0  0  0  0  0  0  0  0  0
    2.5163   -2.1762    1.2907 H   0  0  0  0  0  0  0  0  0  0  0  0
    1.5965   -0.5899   -1.1726 H   0  0  0  0  0  0  0  0  0  0  0  0
    3.2378   -1.2497   -0.9557 H   0  0  0  0  0  0  0  0  0  0  0  0
    2.4065   -4.4739    0.8545 H   0  0  0  0  0  0  0  0  0  0  0  0
   -4.3456   -0.0183   -0.9133 H   0  0  0  0  0  0  0  0  0  0  0  0
    0.4747    0.5404    1.0616 H   0  0  0  0  0  0  0  0  0  0  0  0
    0.5759    4.0538    1.1935 H   0  0  0  0  0  0  0  0  0  0  0  0
    1.3889    2.5551    1.5020 H   0  0  0  0  0  0  0  0  0  0  0  0
    2.3232    2.6638   -2.1111 H   0  0  0  0  0  0  0  0  0  0  0  0
    5.1444    1.5530   -1.6948 H   0  0  0  0  0  0  0  0  0  0  0  0
  1  4  1  0  0  0  0
  1  7  1  0  0  0  0
  1  8  1  0  0  0  0
  1  9  2  0  0  0  0
  2 15  1  0  0  0  0
  2 18  1  0  0  0  0
  3 16  1  0  0  0  0
  3 32  1  0  0  0  0
  4 19  1  0  0  0  0
  5 21  2  0  0  0  0
  6 23  2  0  0  0  0
  7 37  1  0  0  0  0
  8 38  1  0  0  0  0
 10 15  1  0  0  0  0
 10 20  1  0  0  0  0
 10 21  1  0  0  0  0
 11 21  1  0  0  0  0
 11 22  1  0  0  0  0
 11 33  1  0  0  0  0
 12 20  1  0  0  0  0
 12 24  1  0  0  0  0
 12 34  1  0  0  0  0
 13 23  1  0  0  0  0
 13 24  2  0  0  0  0
 14 24  1  0  0  0  0
 14 35  1  0  0  0  0
 14 36  1  0  0  0  0
 15 17  1  0  0  0  0
 15 25  1  0  0  0  0
 16 17  1  0  0  0  0
 16 18  1  0  0  0  0
 16 26  1  0  0  0  0
 17 27  1  0  0  0  0
 17 28  1  0  0  0  0
 18 19  1  0  0  0  0
 18 29  1  0  0  0  0
 19 30  1  0  0  0  0
 19 31  1  0  0  0  0
 20 22  2  0  0  0  0
 22 23  1  0  0  0  0
M  END
> <PUBCHEM_COMPOUND_CID>
447903

> <PUBCHEM_CONFORMER_RMSD>
0.8

> <PUBCHEM_CONFORMER_DIVERSEORDER>
1
27
6
22
7
19
12
11
15
20
9
23
3
26
32
29
31
17
13
30
18
4
28
8
2
25
21
24
5
10
16
14

> <PUBCHEM_MMFF94_PARTIAL_CHARGES>
30
1 1.51
10 -0.47
11 -0.54
12 -0.55
13 -0.66
14 -0.85
15 0.58
16 0.28
18 0.28
19 0.28
2 -0.56
20 0.21
21 0.69
22 0.12
23 0.77
24 0.55
3 -0.68
32 0.4
33 0.37
34 0.4
35 0.4
36 0.4
37 0.5
38 0.5
4 -0.55
5 -0.57
6 -0.57
7 -0.77
8 -0.77
9 -0.7

> <PUBCHEM_EFFECTIVE_ROTOR_COUNT>
5

> <PUBCHEM_PHARMACOPHORE_FEATURES>
16
1 11 donor
1 12 donor
1 13 donor
1 14 donor
1 2 acceptor
1 3 acceptor
1 3 donor
1 5 acceptor
1 6 acceptor
1 7 acceptor
1 8 acceptor
1 9 acceptor
4 1 7 8 9 anion
5 10 11 20 21 22 rings
5 2 15 16 17 18 rings
6 12 13 20 22 23 24 rings

> <PUBCHEM_HEAVY_ATOM_COUNT>
24

> <PUBCHEM_ATOM_DEF_STEREO_COUNT>
3

> <PUBCHEM_ATOM_UDEF_STEREO_COUNT>
0

> <PUBCHEM_BOND_DEF_STEREO_COUNT>
0

> <PUBCHEM_BOND_UDEF_STEREO_COUNT>
0

> <PUBCHEM_ISOTOPIC_ATOM_COUNT>
0

> <PUBCHEM_COMPONENT_COUNT>
1

> <PUBCHEM_CACTVS_TAUTO_COUNT>
12

> <PUBCHEM_CONFORMER_ID>
0006D59F00000001

> <PUBCHEM_MMFF94_ENERGY>
41.2891

> <PUBCHEM_FEATURE_SELFOVERLAP>
81.447

> <PUBCHEM_SHAPE_FINGERPRINT>
10498660 4 18338801117465016119
10693767 8 17536608309130124071
10967382 1 17976825607490764603
1100329 8 18122344841713460331
11370993 70 18412550885947931196
12035758 1 17690556390742698907
13140716 1 18410005559151729170
13402501 40 17828768335528533072
13583140 156 17056391456222305105
138480 1 17834958950911481850
14114211 68 18055038138698306012
14251745 187 17901389987457589536
14251757 5 17908399387491627892
14790565 3 18194390101249340609
16945 1 17902230353622677027
17492 54 18125164822840618631
17980427 23 17977983320347456650
19591789 44 17907013980944066219
20905425 154 18407758131583076583
21141583 151 18189043201777863260
22113638 7 17689446300567916959
22907989 373 17767645453353283908
2334 1 18409449171924147131
23419403 2 16903911032757340395
23559900 14 18047485692074462762
2748010 2 17401211071140103539
5262128 65 17606946563128432398
6992083 37 17110716220652317698
7364860 26 18121781896318756656
7832392 63 17978228588591658102
9981440 41 18342459223153495250

> <PUBCHEM_SHAPE_MULTIPOLES>
425.9
6.04
5.08
0.98
0.69
1.67
0.08
-3.16
1.86
1.21
-0.41
0.4
-0.25
-0.65

> <PUBCHEM_SHAPE_SELFOVERLAP>
903.776

> <PUBCHEM_SHAPE_VOLUME>
238.9

> <PUBCHEM_COORDINATE_TYPE>
2
5
10

$$$$

