223368
  -OEChem-07051213053D

 40 43  0     1  0  0  0  0  0999 V2000
    4.8816    1.2914    0.1212 O   0  0  0  0  0  0  0  0  0  0  0  0
   -5.8518    0.0585    0.3127 O   0  0  0  0  0  0  0  0  0  0  0  0
    2.5945    0.4969    0.3628 C   0  0  2  0  0  0  0  0  0  0  0  0
    2.0285   -0.5764   -0.5938 C   0  0  2  0  0  0  0  0  0  0  0  0
    1.9011    1.8251    0.0551 C   0  0  0  0  0  0  0  0  0  0  0  0
   -0.2435    0.5083   -0.5852 C   0  0  2  0  0  0  0  0  0  0  0  0
    0.5599   -0.7643   -0.3349 C   0  0  0  0  0  0  0  0  0  0  0  0
    3.0479   -1.7127   -0.5141 C   0  0  0  0  0  0  0  0  0  0  0  0
    0.3699    1.7032    0.1997 C   0  0  0  0  0  0  0  0  0  0  0  0
    4.0589    0.3974   -0.0274 C   0  0  0  0  0  0  0  0  0  0  0  0
    4.3889   -0.9698   -0.6025 C   0  0  0  0  0  0  0  0  0  0  0  0
    2.5026    0.1545    1.8622 C   0  0  0  0  0  0  0  0  0  0  0  0
   -1.7373    0.3678   -0.3293 C   0  0  0  0  0  0  0  0  0  0  0  0
    0.0044   -1.9082    0.0883 C   0  0  0  0  0  0  0  0  0  0  0  0
   -1.4528   -2.0644    0.3790 C   0  0  0  0  0  0  0  0  0  0  0  0
   -2.2949   -0.8410    0.1251 C   0  0  0  0  0  0  0  0  0  0  0  0
   -2.5955    1.4517   -0.5894 C   0  0  0  0  0  0  0  0  0  0  0  0
   -3.6804   -0.9297    0.3430 C   0  0  0  0  0  0  0  0  0  0  0  0
   -3.9699    1.3507   -0.3718 C   0  0  0  0  0  0  0  0  0  0  0  0
   -4.5121    0.1610    0.0993 C   0  0  0  0  0  0  0  0  0  0  0  0
    2.0977   -0.2051   -1.6311 H   0  0  0  0  0  0  0  0  0  0  0  0
    2.1414    2.1478   -0.9664 H   0  0  0  0  0  0  0  0  0  0  0  0
    2.2712    2.6182    0.7162 H   0  0  0  0  0  0  0  0  0  0  0  0
   -0.1429    0.7275   -1.6590 H   0  0  0  0  0  0  0  0  0  0  0  0
    2.9352   -2.4320   -1.3318 H   0  0  0  0  0  0  0  0  0  0  0  0
    2.9770   -2.2671    0.4282 H   0  0  0  0  0  0  0  0  0  0  0  0
    0.1120    1.6167    1.2635 H   0  0  0  0  0  0  0  0  0  0  0  0
   -0.0734    2.6474   -0.1387 H   0  0  0  0  0  0  0  0  0  0  0  0
    4.7046   -0.8488   -1.6428 H   0  0  0  0  0  0  0  0  0  0  0  0
    5.1639   -1.4665   -0.0150 H   0  0  0  0  0  0  0  0  0  0  0  0
    3.0868   -0.7345    2.1237 H   0  0  0  0  0  0  0  0  0  0  0  0
    2.9071    0.9766    2.4649 H   0  0  0  0  0  0  0  0  0  0  0  0
    1.4743   -0.0207    2.1916 H   0  0  0  0  0  0  0  0  0  0  0  0
    0.6222   -2.7855    0.2560 H   0  0  0  0  0  0  0  0  0  0  0  0
   -1.5631   -2.3539    1.4312 H   0  0  0  0  0  0  0  0  0  0  0  0
   -1.8356   -2.8865   -0.2381 H   0  0  0  0  0  0  0  0  0  0  0  0
   -2.1992    2.3887   -0.9727 H   0  0  0  0  0  0  0  0  0  0  0  0
   -4.1056   -1.8655    0.7005 H   0  0  0  0  0  0  0  0  0  0  0  0
   -4.6103    2.2044   -0.5760 H   0  0  0  0  0  0  0  0  0  0  0  0
   -6.0523   -0.8363    0.6372 H   0  0  0  0  0  0  0  0  0  0  0  0
  1 10  2  0  0  0  0
  2 20  1  0  0  0  0
  2 40  1  0  0  0  0
  3  4  1  0  0  0  0
  3  5  1  0  0  0  0
  3 10  1  0  0  0  0
  3 12  1  0  0  0  0
  4  7  1  0  0  0  0
  4  8  1  0  0  0  0
  4 21  1  0  0  0  0
  5  9  1  0  0  0  0
  5 22  1  0  0  0  0
  5 23  1  0  0  0  0
  6  7  1  0  0  0  0
  6  9  1  0  0  0  0
  6 13  1  0  0  0  0
  6 24  1  0  0  0  0
  7 14  2  0  0  0  0
  8 11  1  0  0  0  0
  8 25  1  0  0  0  0
  8 26  1  0  0  0  0
  9 27  1  0  0  0  0
  9 28  1  0  0  0  0
 10 11  1  0  0  0  0
 11 29  1  0  0  0  0
 11 30  1  0  0  0  0
 12 31  1  0  0  0  0
 12 32  1  0  0  0  0
 12 33  1  0  0  0  0
 13 16  2  0  0  0  0
 13 17  1  0  0  0  0
 14 15  1  0  0  0  0
 14 34  1  0  0  0  0
 15 16  1  0  0  0  0
 15 35  1  0  0  0  0
 15 36  1  0  0  0  0
 16 18  1  0  0  0  0
 17 19  2  0  0  0  0
 17 37  1  0  0  0  0
 18 20  2  0  0  0  0
 18 38  1  0  0  0  0
 19 20  1  0  0  0  0
 19 39  1  0  0  0  0
M  END
> <PUBCHEM_COMPOUND_CID>
223368

> <PUBCHEM_CONFORMER_RMSD>
0.6

> <PUBCHEM_CONFORMER_DIVERSEORDER>
1

> <PUBCHEM_MMFF94_PARTIAL_CHARGES>
21
1 -0.57
10 0.45
11 0.06
13 -0.14
14 -0.29
15 0.28
16 -0.14
17 -0.15
18 -0.15
19 -0.15
2 -0.53
20 0.08
3 0.06
34 0.15
37 0.15
38 0.15
39 0.15
4 0.14
40 0.45
6 0.28
7 -0.28

> <PUBCHEM_EFFECTIVE_ROTOR_COUNT>
1

> <PUBCHEM_PHARMACOPHORE_FEATURES>
6
1 1 acceptor
1 2 donor
5 3 4 8 10 11 rings
6 13 16 17 18 19 20 rings
6 3 4 5 6 7 9 rings
6 6 7 13 14 15 16 rings

> <PUBCHEM_HEAVY_ATOM_COUNT>
20

> <PUBCHEM_ATOM_DEF_STEREO_COUNT>
3

> <PUBCHEM_ATOM_UDEF_STEREO_COUNT>
0

> <PUBCHEM_BOND_DEF_STEREO_COUNT>
0

> <PUBCHEM_BOND_UDEF_STEREO_COUNT>
0

> <PUBCHEM_ISOTOPIC_ATOM_COUNT>
0

> <PUBCHEM_COMPONENT_COUNT>
1

> <PUBCHEM_CACTVS_TAUTO_COUNT>
18

> <PUBCHEM_CONFORMER_ID>
0003688800000001

> <PUBCHEM_MMFF94_ENERGY>
52.0664

> <PUBCHEM_FEATURE_SELFOVERLAP>
30.552

> <PUBCHEM_SHAPE_FINGERPRINT>
10608611 8 18409732828865654204
10967382 1 18411138051817494534
11132069 177 18411704274535988791
11471102 20 18333450949993029014
11578080 2 16734967613690524115
12011746 2 18410289224582866078
12236239 1 16774077383965940135
12251169 10 18272373040225611837
12403259 226 18411141329363227805
12403259 415 18341896333261004869
12592029 89 18272370914396324347
128620 24 12751240298166970897
13134695 92 17240768401969942296
13140716 1 18196657297860892329
13675066 3 18334016068625353409
14115302 16 18201708544736946270
14341114 176 18408877447700758025
14866123 147 17036122048994422226
15196674 1 18410855485940176695
15219456 202 18408040714956852470
15375358 24 18408605846853756886
15536298 74 18334295387475863895
15848702 151 17459461324531906071
1601671 61 18410292493501689324
16945 1 18341345417394288670
17804303 29 18341889671660889221
1813 80 17132111351034358276
18186145 218 18261675960466070927
19141452 34 18334011662495667399
192875 21 4678820575117178842
19591789 44 18267867374634855271
200 152 17749111084775394975
20510252 161 18409449223648760729
20645477 70 17968092070931402614
21033648 29 18261122889059114025
21249577 43 18411136948184953223
21267235 1 18337100267888334654
21279426 13 18193837278137232804
221357 26 18261393390373134549
22854114 59 18408321094901369387
22892500 29 17095249090326948696
23175994 123 17749382676526241296
23402539 116 18410018710900752087
23558518 356 17625259715046536306
23559900 14 18409729603878179414
2748010 2 18410014368134940758
296302 2 18410292497300394622
3004659 81 18201151170342671670
335352 9 18410854399271376598
34934 24 18336550426259366710
350125 39 18412820296672698157
351380 180 18409730651665232399
3545911 37 18408601452986240036
4340502 62 16343982502876463528
495365 180 17385735668634057866
5104073 3 18411699923755198305
542803 24 17240198841877092889
633830 44 18336553814603396341
69090 78 18261114058622131959
9709674 26 18339077082004265919

> <PUBCHEM_SHAPE_MULTIPOLES>
399.85
9.59
1.97
0.92
4.21
0.2
0.28
-1.05
0.15
-0.24
-0.04
-0.49
0
0.77

> <PUBCHEM_SHAPE_SELFOVERLAP>
883.306

> <PUBCHEM_SHAPE_VOLUME>
214.4

> <PUBCHEM_COORDINATE_TYPE>
2
5
10

$$$$

