6441809
  -OEChem-07051213093D

 22 21  0     0  0  0  0  0  0999 V2000
   -1.7991    1.8021   -0.1938 O   0  0  0  0  0  0  0  0  0  0  0  0
    0.2055    2.7187    0.3431 O   0  0  0  0  0  0  0  0  0  0  0  0
   -0.8988   -0.7203   -0.6282 C   0  0  0  0  0  0  0  0  0  0  0  0
   -1.5533   -1.4372    0.5555 C   0  0  0  0  0  0  0  0  0  0  0  0
    0.0548    0.3641   -0.1824 C   0  0  0  0  0  0  0  0  0  0  0  0
   -2.4866   -2.5425    0.0864 C   0  0  0  0  0  0  0  0  0  0  0  0
    1.3791    0.2090    0.0149 C   0  0  0  0  0  0  0  0  0  0  0  0
   -0.4637    1.7487    0.0210 C   0  0  0  0  0  0  0  0  0  0  0  0
    2.1218   -1.0276   -0.1135 C   0  0  0  0  0  0  0  0  0  0  0  0
    3.4405   -1.1148    0.0970 C   0  0  0  0  0  0  0  0  0  0  0  0
   -0.3742   -1.4540   -1.2522 H   0  0  0  0  0  0  0  0  0  0  0  0
   -1.6685   -0.3093   -1.2930 H   0  0  0  0  0  0  0  0  0  0  0  0
   -2.1216   -0.7227    1.1628 H   0  0  0  0  0  0  0  0  0  0  0  0
   -0.7851   -1.8720    1.2060 H   0  0  0  0  0  0  0  0  0  0  0  0
   -2.9450   -3.0415    0.9460 H   0  0  0  0  0  0  0  0  0  0  0  0
   -1.9431   -3.2956   -0.4931 H   0  0  0  0  0  0  0  0  0  0  0  0
   -3.2888   -2.1391   -0.5398 H   0  0  0  0  0  0  0  0  0  0  0  0
    1.9833    1.0640    0.3148 H   0  0  0  0  0  0  0  0  0  0  0  0
    1.5888   -1.9341   -0.3807 H   0  0  0  0  0  0  0  0  0  0  0  0
   -2.1566    2.7060   -0.0616 H   0  0  0  0  0  0  0  0  0  0  0  0
    3.9483   -2.0681   -0.0065 H   0  0  0  0  0  0  0  0  0  0  0  0
    4.0389   -0.2530    0.3730 H   0  0  0  0  0  0  0  0  0  0  0  0
  1  8  1  0  0  0  0
  1 20  1  0  0  0  0
  2  8  2  0  0  0  0
  3  4  1  0  0  0  0
  3  5  1  0  0  0  0
  3 11  1  0  0  0  0
  3 12  1  0  0  0  0
  4  6  1  0  0  0  0
  4 13  1  0  0  0  0
  4 14  1  0  0  0  0
  5  7  2  0  0  0  0
  5  8  1  0  0  0  0
  6 15  1  0  0  0  0
  6 16  1  0  0  0  0
  6 17  1  0  0  0  0
  7  9  1  0  0  0  0
  7 18  1  0  0  0  0
  9 10  2  0  0  0  0
  9 19  1  0  0  0  0
 10 21  1  0  0  0  0
 10 22  1  0  0  0  0
M  END
> <PUBCHEM_COMPOUND_CID>
6441809

> <PUBCHEM_CONFORMER_RMSD>
0.6

> <PUBCHEM_CONFORMER_DIVERSEORDER>
1
12
20
23
13
6
16
15
24
22
4
17
14
10
8
5
18
19
3
7
11
9
21
2

> <PUBCHEM_MMFF94_PARTIAL_CHARGES>
13
1 -0.65
10 -0.3
18 0.15
19 0.15
2 -0.57
20 0.5
21 0.15
22 0.15
3 0.14
5 -0.12
7 -0.15
8 0.71
9 -0.15

> <PUBCHEM_EFFECTIVE_ROTOR_COUNT>
4

> <PUBCHEM_PHARMACOPHORE_FEATURES>
5
1 1 acceptor
1 10 hydrophobe
1 2 acceptor
1 6 hydrophobe
3 1 2 8 anion

> <PUBCHEM_HEAVY_ATOM_COUNT>
10

> <PUBCHEM_ATOM_DEF_STEREO_COUNT>
0

> <PUBCHEM_ATOM_UDEF_STEREO_COUNT>
0

> <PUBCHEM_BOND_DEF_STEREO_COUNT>
1

> <PUBCHEM_BOND_UDEF_STEREO_COUNT>
0

> <PUBCHEM_ISOTOPIC_ATOM_COUNT>
0

> <PUBCHEM_COMPONENT_COUNT>
1

> <PUBCHEM_CACTVS_TAUTO_COUNT>
1

> <PUBCHEM_CONFORMER_ID>
00624B5100000001

> <PUBCHEM_MMFF94_ENERGY>
11.5328

> <PUBCHEM_FEATURE_SELFOVERLAP>
25.43

> <PUBCHEM_SHAPE_FINGERPRINT>
1 1 16970266821586522588
161256 15 18121777223114965293
19021347 4 17761769967740083266
193761 8 18338517422048612261
20645477 70 17691134738529052207
20711978 78 17906182745642060215
20871998 184 18259986010988957358
20871998 22 18265048042237805634
21040471 1 17833548277540505116
23552423 10 18201716237128881158
23552449 1 18409449219427191542
23595355 12 16756614626745418460
2748010 2 18335151860116295820
528862 383 17688594857503168931
81228 2 18338231673494675930

> <PUBCHEM_SHAPE_MULTIPOLES>
194.06
3.81
2.92
0.69
1.63
1.47
-0.01
-3.6
0.2
-1.16
0.27
-0.08
-0.07
0.18

> <PUBCHEM_SHAPE_SELFOVERLAP>
366.713

> <PUBCHEM_SHAPE_VOLUME>
119.9

> <PUBCHEM_COORDINATE_TYPE>
2
5
10

$$$$

