12789
  -OEChem-06261207222D

 15 16  0     0  0  0  0  0  0999 V2000
    2.8660   -1.8273    0.0000 O   0  0  0  0  0  0  0  0  0  0  0  0
    4.6260    1.2074    0.0000 N   0  0  0  0  0  0  0  0  0  0  0  0
    4.6260   -0.8620    0.0000 N   0  0  0  0  0  0  0  0  0  0  0  0
    2.8660    1.1727    0.0000 N   0  0  0  0  0  0  0  0  0  0  0  0
    2.0000   -0.3273    0.0000 N   0  0  0  0  0  0  0  0  0  0  0  0
    3.7321    0.6727    0.0000 C   0  0  0  0  0  0  0  0  0  0  0  0
    3.7321   -0.3273    0.0000 C   0  0  0  0  0  0  0  0  0  0  0  0
    2.8660   -0.8273    0.0000 C   0  0  0  0  0  0  0  0  0  0  0  0
    5.5321    0.6935    0.0000 C   0  0  0  0  0  0  0  0  0  0  0  0
    5.5321   -0.3481    0.0000 C   0  0  0  0  0  0  0  0  0  0  0  0
    2.0000    0.6727    0.0000 C   0  0  0  0  0  0  0  0  0  0  0  0
    4.6188    1.8273    0.0000 H   0  0  0  0  0  0  0  0  0  0  0  0
    6.0678    1.0056    0.0000 H   0  0  0  0  0  0  0  0  0  0  0  0
    6.0678   -0.6602    0.0000 H   0  0  0  0  0  0  0  0  0  0  0  0
    1.4631    0.9827    0.0000 H   0  0  0  0  0  0  0  0  0  0  0  0
  1  8  2  0  0  0  0
  2  6  1  0  0  0  0
  2  9  1  0  0  0  0
  2 12  1  0  0  0  0
  3  7  2  0  0  0  0
  3 10  1  0  0  0  0
  4  6  2  0  0  0  0
  4 11  1  0  0  0  0
  5  8  1  0  0  0  0
  5 11  2  0  0  0  0
  6  7  1  0  0  0  0
  7  8  1  0  0  0  0
  9 10  2  0  0  0  0
  9 13  1  0  0  0  0
 10 14  1  0  0  0  0
 11 15  1  0  0  0  0
M  END
> <PUBCHEM_COMPOUND_CID>
12789

> <PUBCHEM_COMPOUND_CANONICALIZED>
1

> <PUBCHEM_CACTVS_COMPLEXITY>
324

> <PUBCHEM_CACTVS_HBOND_ACCEPTOR>
2

> <PUBCHEM_CACTVS_HBOND_DONOR>
1

> <PUBCHEM_CACTVS_ROTATABLE_BOND>
0

> <PUBCHEM_CACTVS_SUBSKEYS>
AAADcYBjoAAAAAAAAAAAAAAAAAAAAAAAAAAgQAAAAAAAAACAAAAAHgAQAAAACAjBgAQBAALAAACoAQM3dAAAAAEAAgAJAIEoAAAAAAgAQAAEAAAAAAAAAAAAAAAAAAAAAAAAAAAAAAAAAAAAAAAAAAAAAA==

> <PUBCHEM_IUPAC_OPENEYE_NAME>
8H-pteridin-4-one

> <PUBCHEM_IUPAC_CAS_NAME>
8H-pteridin-4-one

> <PUBCHEM_IUPAC_NAME>
8H-pteridin-4-one

> <PUBCHEM_IUPAC_SYSTEMATIC_NAME>
8H-pteridin-4-one

> <PUBCHEM_IUPAC_TRADITIONAL_NAME>
8H-pteridin-4-one

> <PUBCHEM_IUPAC_INCHI>
InChI=1S/C6H4N4O/c11-6-4-5(9-3-10-6)8-2-1-7-4/h1-3H,(H,8,9,10,11)

> <PUBCHEM_IUPAC_INCHIKEY>
UWWUXWWWOUNMKW-UHFFFAOYSA-N

> <PUBCHEM_XLOGP3_AA>
-0.8

> <PUBCHEM_EXACT_MASS>
148.038511

> <PUBCHEM_MOLECULAR_FORMULA>
C6H4N4O

> <PUBCHEM_MOLECULAR_WEIGHT>
148.12216

> <PUBCHEM_OPENEYE_CAN_SMILES>
C1=CN=C2C(=NC=NC2=O)N1

> <PUBCHEM_OPENEYE_ISO_SMILES>
C1=CN=C2C(=NC=NC2=O)N1

> <PUBCHEM_CACTVS_TPSA>
66.2

> <PUBCHEM_MONOISOTOPIC_WEIGHT>
148.038511

> <PUBCHEM_TOTAL_CHARGE>
0

> <PUBCHEM_HEAVY_ATOM_COUNT>
11

> <PUBCHEM_ATOM_DEF_STEREO_COUNT>
0

> <PUBCHEM_ATOM_UDEF_STEREO_COUNT>
0

> <PUBCHEM_BOND_DEF_STEREO_COUNT>
0

> <PUBCHEM_BOND_UDEF_STEREO_COUNT>
0

> <PUBCHEM_ISOTOPIC_ATOM_COUNT>
0

> <PUBCHEM_COMPONENT_COUNT>
1

> <PUBCHEM_CACTVS_TAUTO_COUNT>
4

> <PUBCHEM_COORDINATE_TYPE>
1
5
255

> <PUBCHEM_BONDANNOTATIONS>
2  6  8
2  9  8
3  10  8
3  7  8
4  11  8
4  6  8
5  11  8
5  8  8
7  8  8
9  10  8

$$$$

