442220
  -OEChem-07051212573D

 49 52  0     1  0  0  0  0  0999 V2000
    2.9281    2.2955    1.3484 O   0  0  0  0  0  0  0  0  0  0  0  0
    4.3308    1.2622   -0.7021 O   0  0  0  0  0  0  0  0  0  0  0  0
   -2.7719    2.0221   -1.1739 O   0  0  0  0  0  0  0  0  0  0  0  0
   -4.4574    0.4211    0.3461 O   0  0  0  0  0  0  0  0  0  0  0  0
    1.4177   -2.2091    0.3233 N   0  0  2  0  0  0  0  0  0  0  0  0
    1.1303   -0.7817    0.0327 C   0  0  2  0  0  0  0  0  0  0  0  0
    1.7032   -0.6959   -1.3629 C   0  0  0  0  0  0  0  0  0  0  0  0
    1.9229    0.1329    1.0048 C   0  0  0  0  0  0  0  0  0  0  0  0
    1.1383   -2.9575   -0.9122 C   0  0  0  0  0  0  0  0  0  0  0  0
    1.5035   -2.0082   -2.0593 C   0  0  0  0  0  0  0  0  0  0  0  0
   -0.3764   -0.4677    0.0860 C   0  0  0  0  0  0  0  0  0  0  0  0
    2.1847    1.5237    0.4086 C   0  0  2  0  0  0  0  0  0  0  0  0
    0.7495   -2.7116    1.5161 C   0  0  0  0  0  0  0  0  0  0  0  0
    2.9310    1.4405   -0.9352 C   0  0  2  0  0  0  0  0  0  0  0  0
    2.5052    0.2874   -1.7989 C   0  0  0  0  0  0  0  0  0  0  0  0
   -0.7689   -2.5543    1.4951 C   0  0  0  0  0  0  0  0  0  0  0  0
   -1.2463   -1.2833    0.8403 C   0  0  0  0  0  0  0  0  0  0  0  0
   -0.9241    0.6370   -0.5922 C   0  0  0  0  0  0  0  0  0  0  0  0
   -2.6138   -0.9703    0.9184 C   0  0  0  0  0  0  0  0  0  0  0  0
   -2.2843    0.9396   -0.5053 C   0  0  0  0  0  0  0  0  0  0  0  0
   -3.1282    0.1400    0.2551 C   0  0  0  0  0  0  0  0  0  0  0  0
    2.2199    2.4464    2.5694 C   0  0  0  0  0  0  0  0  0  0  0  0
   -2.7790    3.2657   -0.4758 C   0  0  0  0  0  0  0  0  0  0  0  0
   -5.3146   -0.1746   -0.6263 C   0  0  0  0  0  0  0  0  0  0  0  0
    2.8944   -0.3192    1.2551 H   0  0  0  0  0  0  0  0  0  0  0  0
    1.3778    0.1906    1.9538 H   0  0  0  0  0  0  0  0  0  0  0  0
    0.0853   -3.2468   -1.0092 H   0  0  0  0  0  0  0  0  0  0  0  0
    1.7371   -3.8736   -0.9545 H   0  0  0  0  0  0  0  0  0  0  0  0
    0.6873   -1.9463   -2.7860 H   0  0  0  0  0  0  0  0  0  0  0  0
    2.4189   -2.3362   -2.5627 H   0  0  0  0  0  0  0  0  0  0  0  0
    1.2354    2.0408    0.2346 H   0  0  0  0  0  0  0  0  0  0  0  0
    1.1484   -2.1804    2.3898 H   0  0  0  0  0  0  0  0  0  0  0  0
    1.0095   -3.7644    1.6815 H   0  0  0  0  0  0  0  0  0  0  0  0
    2.8112    2.3882   -1.4717 H   0  0  0  0  0  0  0  0  0  0  0  0
    2.9518    0.2124   -2.7870 H   0  0  0  0  0  0  0  0  0  0  0  0
   -1.1424   -2.5988    2.5255 H   0  0  0  0  0  0  0  0  0  0  0  0
   -1.2108   -3.3987    0.9509 H   0  0  0  0  0  0  0  0  0  0  0  0
   -0.2947    1.2769   -1.2051 H   0  0  0  0  0  0  0  0  0  0  0  0
   -3.2819   -1.6092    1.4924 H   0  0  0  0  0  0  0  0  0  0  0  0
    4.7860    1.3283   -1.5593 H   0  0  0  0  0  0  0  0  0  0  0  0
    2.3781    1.5827    3.2213 H   0  0  0  0  0  0  0  0  0  0  0  0
    1.1523    2.6333    2.4130 H   0  0  0  0  0  0  0  0  0  0  0  0
    2.6379    3.3150    3.0878 H   0  0  0  0  0  0  0  0  0  0  0  0
   -3.4041    3.2010    0.4204 H   0  0  0  0  0  0  0  0  0  0  0  0
   -3.1961    4.0285   -1.1389 H   0  0  0  0  0  0  0  0  0  0  0  0
   -1.7599    3.5579   -0.2030 H   0  0  0  0  0  0  0  0  0  0  0  0
   -5.0353    0.1465   -1.6347 H   0  0  0  0  0  0  0  0  0  0  0  0
   -6.3386    0.1525   -0.4262 H   0  0  0  0  0  0  0  0  0  0  0  0
   -5.2753   -1.2661   -0.5547 H   0  0  0  0  0  0  0  0  0  0  0  0
  1 12  1  0  0  0  0
  1 22  1  0  0  0  0
  2 14  1  0  0  0  0
  2 40  1  0  0  0  0
  3 20  1  0  0  0  0
  3 23  1  0  0  0  0
  4 21  1  0  0  0  0
  4 24  1  0  0  0  0
  5  6  1  0  0  0  0
  5  9  1  0  0  0  0
  5 13  1  0  0  0  0
  6  7  1  0  0  0  0
  6  8  1  0  0  0  0
  6 11  1  0  0  0  0
  7 10  1  0  0  0  0
  7 15  2  0  0  0  0
  8 12  1  0  0  0  0
  8 25  1  0  0  0  0
  8 26  1  0  0  0  0
  9 10  1  0  0  0  0
  9 27  1  0  0  0  0
  9 28  1  0  0  0  0
 10 29  1  0  0  0  0
 10 30  1  0  0  0  0
 11 17  1  0  0  0  0
 11 18  2  0  0  0  0
 12 14  1  0  0  0  0
 12 31  1  0  0  0  0
 13 16  1  0  0  0  0
 13 32  1  0  0  0  0
 13 33  1  0  0  0  0
 14 15  1  0  0  0  0
 14 34  1  0  0  0  0
 15 35  1  0  0  0  0
 16 17  1  0  0  0  0
 16 36  1  0  0  0  0
 16 37  1  0  0  0  0
 17 19  2  0  0  0  0
 18 20  1  0  0  0  0
 18 38  1  0  0  0  0
 19 21  1  0  0  0  0
 19 39  1  0  0  0  0
 20 21  2  0  0  0  0
 22 41  1  0  0  0  0
 22 42  1  0  0  0  0
 22 43  1  0  0  0  0
 23 44  1  0  0  0  0
 23 45  1  0  0  0  0
 23 46  1  0  0  0  0
 24 47  1  0  0  0  0
 24 48  1  0  0  0  0
 24 49  1  0  0  0  0
M  END
> <PUBCHEM_COMPOUND_CID>
442220

> <PUBCHEM_CONFORMER_RMSD>
0.8

> <PUBCHEM_CONFORMER_DIVERSEORDER>
1
3
2

> <PUBCHEM_MMFF94_PARTIAL_CHARGES>
27
1 -0.56
10 0.14
11 -0.14
12 0.28
13 0.27
14 0.42
15 -0.29
16 0.14
17 -0.14
18 -0.15
19 -0.15
2 -0.68
20 0.08
21 0.08
22 0.28
23 0.28
24 0.28
3 -0.36
35 0.15
38 0.15
39 0.15
4 -0.36
40 0.4
5 -0.81
6 0.55
7 -0.28
9 0.27

> <PUBCHEM_EFFECTIVE_ROTOR_COUNT>
4.4

> <PUBCHEM_PHARMACOPHORE_FEATURES>
10
1 1 acceptor
1 2 acceptor
1 2 donor
1 3 acceptor
1 4 acceptor
1 5 cation
5 5 6 7 9 10 rings
6 11 17 18 19 20 21 rings
6 5 6 11 13 16 17 rings
6 6 7 8 12 14 15 rings

> <PUBCHEM_HEAVY_ATOM_COUNT>
24

> <PUBCHEM_ATOM_DEF_STEREO_COUNT>
3

> <PUBCHEM_ATOM_UDEF_STEREO_COUNT>
0

> <PUBCHEM_BOND_DEF_STEREO_COUNT>
0

> <PUBCHEM_BOND_UDEF_STEREO_COUNT>
0

> <PUBCHEM_ISOTOPIC_ATOM_COUNT>
0

> <PUBCHEM_COMPONENT_COUNT>
1

> <PUBCHEM_CACTVS_TAUTO_COUNT>
1

> <PUBCHEM_CONFORMER_ID>
0006BF6C00000001

> <PUBCHEM_MMFF94_ENERGY>
94.6561

> <PUBCHEM_FEATURE_SELFOVERLAP>
51.089

> <PUBCHEM_SHAPE_FINGERPRINT>
10165383 225 18046878555560816768
10366900 7 18335977597575384885
10498660 4 18130776833673943895
10871710 139 16030140841729027052
11140007 195 11023842685926337071
11582403 64 17825414910920431642
11640471 11 15911904012690148166
11725454 13 18188498951995731506
12716301 132 18055908793209998874
12730499 353 18260818268630147963
13134695 92 17755603855260978766
13140716 1 17841130183413927753
13224815 77 18130785707240011629
13464514 151 18195517315194162084
13911987 19 17462525552491906020
14223421 5 18341889740575505691
14251764 3 18188497869632571272
14817 1 10484365317198772998
16945 1 17913770509813554946
17349148 13 17489317373515857463
17980427 23 17541148458575098699
1813 80 16083592994228281638
18219364 16 17534322463162553192
18769570 83 16818311587276869070
18981168 100 17631174271903024845
20715895 44 16772695346038796877
20905425 154 18265899244526052212
21524375 3 18409449146360227394
22149856 69 17845637254324251457
22182313 1 18127952175581478547
229495 10 15255154920293948998
23419403 2 17044628897908148896
23526113 38 18115569543979176414
23557571 272 18127960937098191995
23559900 14 18272363183175473479
238 59 17604138229931656766
2748010 2 17977927017346762531
2803657 2 17257355874704279304
350125 39 18058445585636456595
427121 178 18343017766005928370
495365 180 18259990353221622161
7364860 26 18340484594427064414
7808743 9 18057313994793056124
81228 2 17398964773337903258
84936 182 18268709587677643089

> <PUBCHEM_SHAPE_MULTIPOLES>
465.45
6.71
3.45
1.88
6.63
0.01
-0.36
3.86
1.25
-0.92
-0.78
-1.46
0.05
1.65

> <PUBCHEM_SHAPE_SELFOVERLAP>
1008.254

> <PUBCHEM_SHAPE_VOLUME>
256.4

> <PUBCHEM_COORDINATE_TYPE>
2
5
10

$$$$

