5281745
  -OEChem-07051212593D

 52 54  0     1  0  0  0  0  0999 V2000
   -0.5376    1.2275   -0.1355 O   0  0  0  0  0  0  0  0  0  0  0  0
   -4.3274   -2.3615   -0.6060 O   0  0  0  0  0  0  0  0  0  0  0  0
    0.3085   -1.3657   -0.1316 O   0  0  0  0  0  0  0  0  0  0  0  0
    3.8125   -1.4879    0.6249 O   0  0  0  0  0  0  0  0  0  0  0  0
    0.6282    2.7095   -1.4782 O   0  0  0  0  0  0  0  0  0  0  0  0
    1.4755   -1.5317    1.8474 O   0  0  0  0  0  0  0  0  0  0  0  0
   -3.6965    0.4224    0.0205 N   0  0  1  0  0  0  0  0  0  0  0  0
   -2.5712    0.0154   -0.8514 C   0  0  2  0  0  0  0  0  0  0  0  0
   -2.1109   -1.3753   -0.3645 C   0  0  2  0  0  0  0  0  0  0  0  0
   -1.6811    1.2567   -0.9947 C   0  0  1  0  0  0  0  0  0  0  0  0
   -3.3817   -1.8766    0.3441 C   0  0  1  0  0  0  0  0  0  0  0  0
   -3.9398   -0.6254    1.0097 C   0  0  0  0  0  0  0  0  0  0  0  0
   -3.4032    1.7383    0.5761 C   0  0  0  0  0  0  0  0  0  0  0  0
   -2.5972    2.3911   -0.5374 C   0  0  0  0  0  0  0  0  0  0  0  0
   -0.9257   -1.4529    0.6046 C   0  0  0  0  0  0  0  0  0  0  0  0
    0.5386    1.9667   -0.5125 C   0  0  0  0  0  0  0  0  0  0  0  0
    2.6916   -1.4158   -0.2582 C   0  0  2  0  0  0  0  0  0  0  0  0
    2.8195   -0.1200   -1.1168 C   0  0  1  0  0  0  0  0  0  0  0  0
    1.4452   -1.4358    0.6256 C   0  0  0  0  0  0  0  0  0  0  0  0
    2.9498    1.1874   -0.2800 C   0  0  0  0  0  0  0  0  0  0  0  0
    1.6776    1.6449    0.3764 C   0  0  0  0  0  0  0  0  0  0  0  0
    2.6837   -2.6973   -1.1039 C   0  0  0  0  0  0  0  0  0  0  0  0
    4.0389   -0.1859   -2.0565 C   0  0  0  0  0  0  0  0  0  0  0  0
    1.5216    1.8268    1.6945 C   0  0  0  0  0  0  0  0  0  0  0  0
    2.5810    1.5450    2.7034 C   0  0  0  0  0  0  0  0  0  0  0  0
   -3.0399   -0.1378   -1.8352 H   0  0  0  0  0  0  0  0  0  0  0  0
   -1.8903   -1.9946   -1.2435 H   0  0  0  0  0  0  0  0  0  0  0  0
   -1.3712    1.3850   -2.0387 H   0  0  0  0  0  0  0  0  0  0  0  0
   -3.1890   -2.6799    1.0620 H   0  0  0  0  0  0  0  0  0  0  0  0
   -5.0092   -0.7036    1.2283 H   0  0  0  0  0  0  0  0  0  0  0  0
   -3.3982   -0.4376    1.9444 H   0  0  0  0  0  0  0  0  0  0  0  0
   -2.7922    1.6798    1.4856 H   0  0  0  0  0  0  0  0  0  0  0  0
   -4.3160    2.2975    0.8011 H   0  0  0  0  0  0  0  0  0  0  0  0
   -3.2605    2.6980   -1.3555 H   0  0  0  0  0  0  0  0  0  0  0  0
   -2.0533    3.2681   -0.1736 H   0  0  0  0  0  0  0  0  0  0  0  0
   -0.9715   -0.6719    1.3716 H   0  0  0  0  0  0  0  0  0  0  0  0
   -0.9297   -2.4270    1.1091 H   0  0  0  0  0  0  0  0  0  0  0  0
   -5.1269   -2.6192   -0.1161 H   0  0  0  0  0  0  0  0  0  0  0  0
    1.9331   -0.0390   -1.7601 H   0  0  0  0  0  0  0  0  0  0  0  0
    3.2529    2.0021   -0.9536 H   0  0  0  0  0  0  0  0  0  0  0  0
    3.7861    1.0949    0.4188 H   0  0  0  0  0  0  0  0  0  0  0  0
    3.6706   -2.9051   -1.5308 H   0  0  0  0  0  0  0  0  0  0  0  0
    2.4331   -3.5698   -0.4880 H   0  0  0  0  0  0  0  0  0  0  0  0
    1.9489   -2.6424   -1.9140 H   0  0  0  0  0  0  0  0  0  0  0  0
    4.1272    0.7343   -2.6447 H   0  0  0  0  0  0  0  0  0  0  0  0
    4.9710   -0.3176   -1.4972 H   0  0  0  0  0  0  0  0  0  0  0  0
    3.9476   -1.0065   -2.7743 H   0  0  0  0  0  0  0  0  0  0  0  0
    0.5797    2.2055    2.0848 H   0  0  0  0  0  0  0  0  0  0  0  0
    3.7864   -2.3466    1.0808 H   0  0  0  0  0  0  0  0  0  0  0  0
    3.1344    2.4591    2.9381 H   0  0  0  0  0  0  0  0  0  0  0  0
    3.2833    0.7631    2.4078 H   0  0  0  0  0  0  0  0  0  0  0  0
    2.1085    1.1955    3.6281 H   0  0  0  0  0  0  0  0  0  0  0  0
  1 10  1  0  0  0  0
  1 16  1  0  0  0  0
  2 11  1  0  0  0  0
  2 38  1  0  0  0  0
  3 15  1  0  0  0  0
  3 19  1  0  0  0  0
  4 17  1  0  0  0  0
  4 49  1  0  0  0  0
  5 16  2  0  0  0  0
  6 19  2  0  0  0  0
  7  8  1  0  0  0  0
  7 12  1  0  0  0  0
  7 13  1  0  0  0  0
  8  9  1  0  0  0  0
  8 10  1  0  0  0  0
  8 26  1  0  0  0  0
  9 11  1  0  0  0  0
  9 15  1  0  0  0  0
  9 27  1  0  0  0  0
 10 14  1  0  0  0  0
 10 28  1  0  0  0  0
 11 12  1  0  0  0  0
 11 29  1  0  0  0  0
 12 30  1  0  0  0  0
 12 31  1  0  0  0  0
 13 14  1  0  0  0  0
 13 32  1  0  0  0  0
 13 33  1  0  0  0  0
 14 34  1  0  0  0  0
 14 35  1  0  0  0  0
 15 36  1  0  0  0  0
 15 37  1  0  0  0  0
 16 21  1  0  0  0  0
 17 18  1  0  0  0  0
 17 19  1  0  0  0  0
 17 22  1  0  0  0  0
 18 20  1  0  0  0  0
 18 23  1  0  0  0  0
 18 39  1  0  0  0  0
 20 21  1  0  0  0  0
 20 40  1  0  0  0  0
 20 41  1  0  0  0  0
 21 24  2  0  0  0  0
 22 42  1  0  0  0  0
 22 43  1  0  0  0  0
 22 44  1  0  0  0  0
 23 45  1  0  0  0  0
 23 46  1  0  0  0  0
 23 47  1  0  0  0  0
 24 25  1  0  0  0  0
 24 48  1  0  0  0  0
 25 50  1  0  0  0  0
 25 51  1  0  0  0  0
 25 52  1  0  0  0  0
M  END
> <PUBCHEM_COMPOUND_CID>
5281745

> <PUBCHEM_CONFORMER_RMSD>
0.6

> <PUBCHEM_CONFORMER_DIVERSEORDER>
6
8
12
13
9
11
4
1
10
14
3
7
5
2
15

> <PUBCHEM_MMFF94_PARTIAL_CHARGES>
23
1 -0.43
10 0.28
11 0.28
12 0.27
13 0.27
15 0.28
16 0.71
17 0.34
19 0.66
2 -0.68
20 0.14
21 -0.12
24 -0.29
25 0.14
3 -0.43
38 0.4
4 -0.68
48 0.15
49 0.4
5 -0.57
6 -0.57
7 -0.81
8 0.27

> <PUBCHEM_EFFECTIVE_ROTOR_COUNT>
2

> <PUBCHEM_PHARMACOPHORE_FEATURES>
10
1 2 acceptor
1 2 donor
1 25 hydrophobe
1 4 acceptor
1 4 donor
1 5 acceptor
1 6 acceptor
1 7 cation
5 7 8 10 13 14 rings
5 7 8 9 11 12 rings

> <PUBCHEM_HEAVY_ATOM_COUNT>
25

> <PUBCHEM_ATOM_DEF_STEREO_COUNT>
6

> <PUBCHEM_ATOM_UDEF_STEREO_COUNT>
0

> <PUBCHEM_BOND_DEF_STEREO_COUNT>
1

> <PUBCHEM_BOND_UDEF_STEREO_COUNT>
0

> <PUBCHEM_ISOTOPIC_ATOM_COUNT>
0

> <PUBCHEM_COMPONENT_COUNT>
1

> <PUBCHEM_CACTVS_TAUTO_COUNT>
1

> <PUBCHEM_CONFORMER_ID>
005097D100000006

> <PUBCHEM_MMFF94_ENERGY>
70.3267

> <PUBCHEM_FEATURE_SELFOVERLAP>
51.002

> <PUBCHEM_SHAPE_FINGERPRINT>
10366900 7 18341041913662685807
10498660 4 18130791148520379901
10764073 3 17688351110352279890
10863032 1 18338510936594897204
11578080 2 17967540038779657721
12054548 360 18342734165031059620
12422481 6 18194149432967464840
12506688 2 18261673791592092956
12553582 1 18202000980665628125
12596599 1 18115012104273662523
12633257 1 18114732833010716395
12778500 126 17533747526135205651
12788726 201 17172350341802051304
13140716 1 18340779254842123537
13224815 77 17988929963565901699
13533116 47 18113058234141889317
13583140 156 17385730136684772233
14178342 30 18341066154547710489
14223421 5 18335147453485228769
14251745 187 18341887446751908792
14386348 128 18413108376828724301
14713325 29 16691571973360532396
14790565 3 17763170737149565173
15536298 74 18334295314825325723
16945 1 18129108831374002917
17492 54 17487882429110572972
18981168 100 18114761368498994505
20600515 1 17906187483360084010
20691752 17 17703795820621295849
20905425 154 18410009918506552670
22182313 1 18339942449574403661
2334 1 18342464741922303525
23419403 2 17969807292259843264
23557571 272 17681556162789629774
23559900 14 18408605829584730325
2748010 2 18341347668152311237
2818148 4 18272082846481238107
3052486 1 18131641079683188840
3323516 105 18411689976758737068
350125 39 18338786919126373545
35225 105 15265360367741563697
6287921 2 18189334558988739567

> <PUBCHEM_SHAPE_MULTIPOLES>
474.29
7.44
3.13
1.73
3.03
0.03
-0.64
-2.42
0.67
0.11
0.09
-1.7
0.62
0.9

> <PUBCHEM_SHAPE_SELFOVERLAP>
996.507

> <PUBCHEM_SHAPE_VOLUME>
266.8

> <PUBCHEM_COORDINATE_TYPE>
2
5
10

$$$$

