38024
  -OEChem-07051213053D

 22 23  0     0  0  0  0  0  0999 V2000
   -0.9336   -1.7205   -1.7755 Cl  0  0  0  0  0  0  0  0  0  0  0  0
    0.9336   -1.7204    1.7756 Cl  0  0  0  0  0  0  0  0  0  0  0  0
   -0.2209    2.1399    2.0180 Cl  0  0  0  0  0  0  0  0  0  0  0  0
    0.2210    2.1397   -2.0181 Cl  0  0  0  0  0  0  0  0  0  0  0  0
   -4.0604   -1.6687   -1.1109 Cl  0  0  0  0  0  0  0  0  0  0  0  0
    4.0604   -1.6687    1.1109 Cl  0  0  0  0  0  0  0  0  0  0  0  0
   -0.7146    0.2017    0.1398 C   0  0  0  0  0  0  0  0  0  0  0  0
    0.7146    0.2017   -0.1398 C   0  0  0  0  0  0  0  0  0  0  0  0
   -1.5702   -0.6493   -0.5597 C   0  0  0  0  0  0  0  0  0  0  0  0
    1.5701   -0.6492    0.5598 C   0  0  0  0  0  0  0  0  0  0  0  0
   -1.2265    1.0592    1.1136 C   0  0  0  0  0  0  0  0  0  0  0  0
    1.2265    1.0591   -1.1137 C   0  0  0  0  0  0  0  0  0  0  0  0
   -2.9378   -0.6427   -0.2855 C   0  0  0  0  0  0  0  0  0  0  0  0
    2.9377   -0.6427    0.2856 C   0  0  0  0  0  0  0  0  0  0  0  0
   -2.5942    1.0657    1.3878 C   0  0  0  0  0  0  0  0  0  0  0  0
    2.5942    1.0656   -1.3878 C   0  0  0  0  0  0  0  0  0  0  0  0
   -3.4498    0.2149    0.6882 C   0  0  0  0  0  0  0  0  0  0  0  0
    3.4498    0.2148   -0.6882 C   0  0  0  0  0  0  0  0  0  0  0  0
   -3.0103    1.7274    2.1433 H   0  0  0  0  0  0  0  0  0  0  0  0
    3.0103    1.7273   -2.1435 H   0  0  0  0  0  0  0  0  0  0  0  0
   -4.5128    0.2336    0.9152 H   0  0  0  0  0  0  0  0  0  0  0  0
    4.5129    0.2335   -0.9153 H   0  0  0  0  0  0  0  0  0  0  0  0
  1  9  1  0  0  0  0
  2 10  1  0  0  0  0
  3 11  1  0  0  0  0
  4 12  1  0  0  0  0
  5 13  1  0  0  0  0
  6 14  1  0  0  0  0
  7  8  1  0  0  0  0
  7  9  1  0  0  0  0
  7 11  2  0  0  0  0
  8 10  1  0  0  0  0
  8 12  2  0  0  0  0
  9 13  2  0  0  0  0
 10 14  2  0  0  0  0
 11 15  1  0  0  0  0
 12 16  1  0  0  0  0
 13 17  1  0  0  0  0
 14 18  1  0  0  0  0
 15 17  2  0  0  0  0
 15 19  1  0  0  0  0
 16 18  2  0  0  0  0
 16 20  1  0  0  0  0
 17 21  1  0  0  0  0
 18 22  1  0  0  0  0
M  END
> <PUBCHEM_COMPOUND_CID>
38024

> <PUBCHEM_CONFORMER_RMSD>
0.6

> <PUBCHEM_CONFORMER_DIVERSEORDER>
2
1

> <PUBCHEM_MMFF94_PARTIAL_CHARGES>
20
1 -0.18
10 0.18
11 0.18
12 0.18
13 0.18
14 0.18
15 -0.15
16 -0.15
17 -0.15
18 -0.15
19 0.15
2 -0.18
20 0.15
21 0.15
22 0.15
3 -0.18
4 -0.18
5 -0.18
6 -0.18
9 0.18

> <PUBCHEM_EFFECTIVE_ROTOR_COUNT>
1

> <PUBCHEM_PHARMACOPHORE_FEATURES>
2
6 7 9 11 13 15 17 rings
6 8 10 12 14 16 18 rings

> <PUBCHEM_HEAVY_ATOM_COUNT>
18

> <PUBCHEM_ATOM_DEF_STEREO_COUNT>
0

> <PUBCHEM_ATOM_UDEF_STEREO_COUNT>
0

> <PUBCHEM_BOND_DEF_STEREO_COUNT>
0

> <PUBCHEM_BOND_UDEF_STEREO_COUNT>
0

> <PUBCHEM_ISOTOPIC_ATOM_COUNT>
0

> <PUBCHEM_COMPONENT_COUNT>
1

> <PUBCHEM_CACTVS_TAUTO_COUNT>
1

> <PUBCHEM_CONFORMER_ID>
0000948800000002

> <PUBCHEM_MMFF94_ENERGY>
52.5111

> <PUBCHEM_FEATURE_SELFOVERLAP>
10.149

> <PUBCHEM_SHAPE_FINGERPRINT>
10863032 1 17845361163928332467
11578080 2 18122661372156017412
12035758 1 16682874303217600616
12236239 1 18410848867353375424
12423570 1 15312306640919790805
13009979 54 18335975450065343754
13140716 1 17603864439374073827
13464514 151 15768674120611124023
13538477 17 18261387871081462497
13581323 91 17821729429158199126
13911987 19 17132103646654696414
14115302 16 18266463109718957735
14178342 30 17168129170776406595
14787075 74 18117280242406933008
14817 1 9777797373552610760
15219456 202 16128651929463195660
15375462 189 18336257968697696779
16752209 62 18113628876297712143
16945 1 18410565193353493668
1813 80 18128526266711532270
18175812 5 15647048287240148965
18186145 218 17988914544496191502
19010151 120 18201446895297702998
19422 9 18410571790423552647
19765921 60 17761755291932414972
200 152 18060143158221961787
20600515 1 17458625657114177913
20645477 70 17418380185610228986
21639500 275 17702935925140050308
22112679 90 18335135414354223017
22802520 49 15123518050562397075
23175994 123 16702012114979768484
23184049 29 17461171950166478391
232386 152 18113622252925105655
23419403 2 17828245104984232989
23557571 272 16805869779995172041
23559900 14 17096069411995743060
23598291 2 18342171189302429871
2748010 2 17489034880811220100
350125 39 16741389096946933377
474 4 18053380999030565572
5902787 121 17749670680058742761
6992083 37 18338791324886775221
7364860 26 16808143389768811737
77492 1 18410845568818550565
81228 2 16879322671690091953
8272917 22 17988635359174919083
90316 7 17968094278133149209
9981440 41 17253991953550749200

> <PUBCHEM_SHAPE_MULTIPOLES>
381.65
6.1
2.19
2.06
0
0.25
0
-2.93
0
0
0
0
0.56
-2.03

> <PUBCHEM_SHAPE_SELFOVERLAP>
776.486

> <PUBCHEM_SHAPE_VOLUME>
216

> <PUBCHEM_COORDINATE_TYPE>
2
5
10

$$$$

