9468
  -OEChem-06261203443D

 41 41  0     0  0  0  0  0  0999 V2000
    6.3973    1.1306   -0.6533 F   0  0  0  0  0  0  0  0  0  0  0  0
    0.3873   -0.1474    0.1661 O   0  0  0  0  0  0  0  0  0  0  0  0
    1.2169   -2.1495    0.9422 O   0  0  0  0  0  0  0  0  0  0  0  0
   -3.2907    0.1068    0.2267 N   0  0  0  0  0  0  0  0  0  0  0  0
   -4.2077    1.1862   -0.1441 C   0  0  0  0  0  0  0  0  0  0  0  0
   -3.5904   -1.1037   -0.5286 C   0  0  0  0  0  0  0  0  0  0  0  0
   -1.9038    0.5212    0.0074 C   0  0  0  0  0  0  0  0  0  0  0  0
   -3.8877    2.4496    0.6507 C   0  0  0  0  0  0  0  0  0  0  0  0
   -5.0184   -1.5642   -0.2468 C   0  0  0  0  0  0  0  0  0  0  0  0
   -0.9426   -0.5854    0.4113 C   0  0  0  0  0  0  0  0  0  0  0  0
   -4.8410    3.5814    0.2991 C   0  0  0  0  0  0  0  0  0  0  0  0
   -5.3493   -2.8392   -1.0071 C   0  0  0  0  0  0  0  0  0  0  0  0
    1.3752   -1.0313    0.4777 C   0  0  0  0  0  0  0  0  0  0  0  0
    2.7105   -0.4556    0.1775 C   0  0  0  0  0  0  0  0  0  0  0  0
    3.7924   -0.8486    0.9385 C   0  0  0  0  0  0  0  0  0  0  0  0
    2.8287    0.4534   -0.8541 C   0  0  0  0  0  0  0  0  0  0  0  0
    5.0472   -0.3088    0.6557 C   0  0  0  0  0  0  0  0  0  0  0  0
    4.0835    0.9928   -1.1369 C   0  0  0  0  0  0  0  0  0  0  0  0
    5.1928    0.6118   -0.3820 C   0  0  0  0  0  0  0  0  0  0  0  0
   -5.2423    0.9399    0.1094 H   0  0  0  0  0  0  0  0  0  0  0  0
   -4.1648    1.3971   -1.2206 H   0  0  0  0  0  0  0  0  0  0  0  0
   -2.9621   -1.9432   -0.2200 H   0  0  0  0  0  0  0  0  0  0  0  0
   -3.4448   -0.9541   -1.6064 H   0  0  0  0  0  0  0  0  0  0  0  0
   -1.7214    0.8148   -1.0350 H   0  0  0  0  0  0  0  0  0  0  0  0
   -1.6186    1.3740    0.6302 H   0  0  0  0  0  0  0  0  0  0  0  0
   -2.8914    2.8418    0.4291 H   0  0  0  0  0  0  0  0  0  0  0  0
   -3.9404    2.2516    1.7279 H   0  0  0  0  0  0  0  0  0  0  0  0
   -5.7638   -0.8328   -0.5712 H   0  0  0  0  0  0  0  0  0  0  0  0
   -5.1625   -1.7350    0.8269 H   0  0  0  0  0  0  0  0  0  0  0  0
   -1.0723   -1.4900   -0.1877 H   0  0  0  0  0  0  0  0  0  0  0  0
   -1.0595   -0.8301    1.4742 H   0  0  0  0  0  0  0  0  0  0  0  0
   -4.5930    4.4796    0.8737 H   0  0  0  0  0  0  0  0  0  0  0  0
   -5.8760    3.3086    0.5292 H   0  0  0  0  0  0  0  0  0  0  0  0
   -4.7798    3.8315   -0.7650 H   0  0  0  0  0  0  0  0  0  0  0  0
   -6.3775   -3.1508   -0.7970 H   0  0  0  0  0  0  0  0  0  0  0  0
   -4.6823   -3.6562   -0.7136 H   0  0  0  0  0  0  0  0  0  0  0  0
   -5.2543   -2.6890   -2.0874 H   0  0  0  0  0  0  0  0  0  0  0  0
    3.6913   -1.5620    1.7508 H   0  0  0  0  0  0  0  0  0  0  0  0
    1.9837    0.7561   -1.4652 H   0  0  0  0  0  0  0  0  0  0  0  0
    5.9111   -0.6046    1.2438 H   0  0  0  0  0  0  0  0  0  0  0  0
    4.1980    1.7076   -1.9465 H   0  0  0  0  0  0  0  0  0  0  0  0
  1 19  1  0  0  0  0
  2 10  1  0  0  0  0
  2 13  1  0  0  0  0
  3 13  2  0  0  0  0
  4  5  1  0  0  0  0
  4  6  1  0  0  0  0
  4  7  1  0  0  0  0
  5  8  1  0  0  0  0
  5 20  1  0  0  0  0
  5 21  1  0  0  0  0
  6  9  1  0  0  0  0
  6 22  1  0  0  0  0
  6 23  1  0  0  0  0
  7 10  1  0  0  0  0
  7 24  1  0  0  0  0
  7 25  1  0  0  0  0
  8 11  1  0  0  0  0
  8 26  1  0  0  0  0
  8 27  1  0  0  0  0
  9 12  1  0  0  0  0
  9 28  1  0  0  0  0
  9 29  1  0  0  0  0
 10 30  1  0  0  0  0
 10 31  1  0  0  0  0
 11 32  1  0  0  0  0
 11 33  1  0  0  0  0
 11 34  1  0  0  0  0
 12 35  1  0  0  0  0
 12 36  1  0  0  0  0
 12 37  1  0  0  0  0
 13 14  1  0  0  0  0
 14 15  2  0  0  0  0
 14 16  1  0  0  0  0
 15 17  1  0  0  0  0
 15 38  1  0  0  0  0
 16 18  2  0  0  0  0
 16 39  1  0  0  0  0
 17 19  2  0  0  0  0
 17 40  1  0  0  0  0
 18 19  1  0  0  0  0
 18 41  1  0  0  0  0
M  END
> <PUBCHEM_COMPOUND_CID>
9468

> <PUBCHEM_CONFORMER_RMSD>
0.8

> <PUBCHEM_CONFORMER_DIVERSEORDER>
1
142
12
197
139
158
207
140
3
90
201
132
63
27
184
206
103
97
56
115
219
125
123
30
10
6
144
129
4
134
178
44
121
99
171
57
154
31
61
170
209
81
47
141
181
98
128
87
13
163
174
96
193
93
60
205
8
15
62
182
7
67
40
168
29
137
91
84
112
172
18
49
74
50
194
9
215
116
73
143
16
46
190
65
66
200
2
21
169
133
106
161
146
77
101
117
107
210
199
23
43
39
164
176
109
213
145
85
180
173
177
151
185
150
55
114
59
110
179
214
17
160
100
82
195
48
147
216
130
54
119
24
36
94
188
69
113
124
189
198
162
126
70
224
111
64
183
222
86
35
153
208
122
83
42
131
156
52
221
159
196
95
71
212
58
75
118
186
34
187
92
220
167
157
223
53
175
41
25
105
72
191
79
165
166
203
33
80
192
68
88
204
45
89
136
217
127
155
211
218
104
102
108
38
148
76
78
120
51
26
5
32
138
202
152
14
19
22
135
149
11
37
28
20

> <PUBCHEM_MMFF94_PARTIAL_CHARGES>
19
1 -0.19
10 0.28
13 0.63
14 0.09
15 -0.15
16 -0.15
17 -0.15
18 -0.15
19 0.19
2 -0.43
3 -0.57
38 0.15
39 0.15
4 -0.81
40 0.15
41 0.15
5 0.27
6 0.27
7 0.27

> <PUBCHEM_EFFECTIVE_ROTOR_COUNT>
9

> <PUBCHEM_PHARMACOPHORE_FEATURES>
5
1 11 hydrophobe
1 12 hydrophobe
1 3 acceptor
1 4 cation
6 14 15 16 17 18 19 rings

> <PUBCHEM_HEAVY_ATOM_COUNT>
19

> <PUBCHEM_ATOM_DEF_STEREO_COUNT>
0

> <PUBCHEM_ATOM_UDEF_STEREO_COUNT>
0

> <PUBCHEM_BOND_DEF_STEREO_COUNT>
0

> <PUBCHEM_BOND_UDEF_STEREO_COUNT>
0

> <PUBCHEM_ISOTOPIC_ATOM_COUNT>
0

> <PUBCHEM_COMPONENT_COUNT>
1

> <PUBCHEM_CACTVS_TAUTO_COUNT>
1

> <PUBCHEM_CONFORMER_ID>
000024FC00000001

> <PUBCHEM_MMFF94_ENERGY>
36.5158

> <PUBCHEM_FEATURE_SELFOVERLAP>
25.371

> <PUBCHEM_SHAPE_FINGERPRINT>
10595046 47 18412546496195611018
10912923 1 18202008745634027882
11056379 131 18333448729869827831
11101153 10 18268427932576628317
12107183 9 17908711978799795547
12236239 1 18341898480517805846
12616971 3 17988643055218282352
12788726 201 18411429384631120283
13073987 5 18412829088095908042
13631057 29 18336551521645118043
14528608 73 18343585114301292278
15778101 99 18335697299504148369
15806764 133 17167870742346092097
17834072 33 18341897359383512079
17844677 252 18260546697452324632
19377110 9 18272369780677711723
19427546 20 18411421705297523485
20300324 65 18411420592505335187
21033650 10 18192685990879254340
21054139 6 18270688566847994766
21065198 48 18342742943954839994
21426921 1 18335141995124874037
21618674 54 18336547222055787655
23081809 10 18202845465893873458
23402539 116 18410295817711099716
23402655 69 18410855503310053780
23557571 272 18113332003129684277
268830 7 17775290507560640408
2916195 48 18261117327350720200
34797466 226 17531241734313060884
4325135 7 18412546474863414063
5104073 3 18060419144494330064
6327066 14 18124599932427772989
633830 44 18200870781196056170
7808743 9 18337110193631836209

> <PUBCHEM_SHAPE_MULTIPOLES>
367.02
15.39
2.86
0.97
4.58
1.31
-0.07
2.55
-2.45
-7.22
0.01
0.58
-0.11
-2.44

> <PUBCHEM_SHAPE_SELFOVERLAP>
734.423

> <PUBCHEM_SHAPE_VOLUME>
218.7

> <PUBCHEM_COORDINATE_TYPE>
2
5
10

$$$$

