9617
  -OEChem-06261203523D

 38 37  0     0  0  0  0  0  0999 V2000
    8.5452    0.5472    0.0390 Br  0  0  0  0  0  0  0  0  0  0  0  0
   -8.1273   -0.3027   -0.0413 F   0  0  0  0  0  0  0  0  0  0  0  0
    0.6281    0.4118   -0.0851 C   0  0  0  0  0  0  0  0  0  0  0  0
   -0.6776   -0.3898   -0.0468 C   0  0  0  0  0  0  0  0  0  0  0  0
    1.8800   -0.4671   -0.0313 C   0  0  0  0  0  0  0  0  0  0  0  0
   -1.9666    0.4375   -0.0089 C   0  0  0  0  0  0  0  0  0  0  0  0
    3.1836    0.3373   -0.0097 C   0  0  0  0  0  0  0  0  0  0  0  0
   -3.2368   -0.4149    0.0528 C   0  0  0  0  0  0  0  0  0  0  0  0
    4.4368   -0.5408    0.0199 C   0  0  0  0  0  0  0  0  0  0  0  0
   -4.4912    0.4627    0.0624 C   0  0  0  0  0  0  0  0  0  0  0  0
    5.7093    0.3089    0.0082 C   0  0  0  0  0  0  0  0  0  0  0  0
   -5.7916   -0.3407    0.0553 C   0  0  0  0  0  0  0  0  0  0  0  0
    6.9501   -0.5678   -0.0029 C   0  0  0  0  0  0  0  0  0  0  0  0
   -7.0421    0.5184   -0.0116 C   0  0  0  0  0  0  0  0  0  0  0  0
    0.6420    1.1074    0.7630 H   0  0  0  0  0  0  0  0  0  0  0  0
    0.6490    1.0223   -0.9959 H   0  0  0  0  0  0  0  0  0  0  0  0
   -0.6607   -1.0434    0.8349 H   0  0  0  0  0  0  0  0  0  0  0  0
   -0.7083   -1.0523   -0.9211 H   0  0  0  0  0  0  0  0  0  0  0  0
    1.8383   -1.1019    0.8624 H   0  0  0  0  0  0  0  0  0  0  0  0
    1.8838   -1.1396   -0.8979 H   0  0  0  0  0  0  0  0  0  0  0  0
   -1.9362    1.1047    0.8613 H   0  0  0  0  0  0  0  0  0  0  0  0
   -2.0005    1.0788   -0.8982 H   0  0  0  0  0  0  0  0  0  0  0  0
    3.1835    0.9982    0.8659 H   0  0  0  0  0  0  0  0  0  0  0  0
    3.2168    0.9845   -0.8950 H   0  0  0  0  0  0  0  0  0  0  0  0
   -3.2663   -1.0883   -0.8121 H   0  0  0  0  0  0  0  0  0  0  0  0
   -3.2190   -1.0421    0.9519 H   0  0  0  0  0  0  0  0  0  0  0  0
    4.4212   -1.1727    0.9160 H   0  0  0  0  0  0  0  0  0  0  0  0
    4.4333   -1.2101   -0.8489 H   0  0  0  0  0  0  0  0  0  0  0  0
   -4.4743    1.1134    0.9454 H   0  0  0  0  0  0  0  0  0  0  0  0
   -4.4762    1.1205   -0.8157 H   0  0  0  0  0  0  0  0  0  0  0  0
    5.7183    0.9640    0.8884 H   0  0  0  0  0  0  0  0  0  0  0  0
    5.7078    0.9635   -0.8724 H   0  0  0  0  0  0  0  0  0  0  0  0
   -5.7963   -1.0298   -0.7982 H   0  0  0  0  0  0  0  0  0  0  0  0
   -5.8423   -0.9736    0.9495 H   0  0  0  0  0  0  0  0  0  0  0  0
    7.0148   -1.1751   -0.9099 H   0  0  0  0  0  0  0  0  0  0  0  0
    7.0012   -1.2163    0.8759 H   0  0  0  0  0  0  0  0  0  0  0  0
   -7.1313    1.1670    0.8645 H   0  0  0  0  0  0  0  0  0  0  0  0
   -7.0598    1.1331   -0.9160 H   0  0  0  0  0  0  0  0  0  0  0  0
  1 13  1  0  0  0  0
  2 14  1  0  0  0  0
  3  4  1  0  0  0  0
  3  5  1  0  0  0  0
  3 15  1  0  0  0  0
  3 16  1  0  0  0  0
  4  6  1  0  0  0  0
  4 17  1  0  0  0  0
  4 18  1  0  0  0  0
  5  7  1  0  0  0  0
  5 19  1  0  0  0  0
  5 20  1  0  0  0  0
  6  8  1  0  0  0  0
  6 21  1  0  0  0  0
  6 22  1  0  0  0  0
  7  9  1  0  0  0  0
  7 23  1  0  0  0  0
  7 24  1  0  0  0  0
  8 10  1  0  0  0  0
  8 25  1  0  0  0  0
  8 26  1  0  0  0  0
  9 11  1  0  0  0  0
  9 27  1  0  0  0  0
  9 28  1  0  0  0  0
 10 12  1  0  0  0  0
 10 29  1  0  0  0  0
 10 30  1  0  0  0  0
 11 13  1  0  0  0  0
 11 31  1  0  0  0  0
 11 32  1  0  0  0  0
 12 14  1  0  0  0  0
 12 33  1  0  0  0  0
 12 34  1  0  0  0  0
 13 35  1  0  0  0  0
 13 36  1  0  0  0  0
 14 37  1  0  0  0  0
 14 38  1  0  0  0  0
M  END
> <PUBCHEM_COMPOUND_CID>
9617

> <PUBCHEM_CONFORMER_RMSD>
1.2

> <PUBCHEM_CONFORMER_DIVERSEORDER>
1
49
46
6
67
16
45
41
28
65
19
44
4
21
9
27
66
72
2
29
68
39
10
7
42
20
61
12
54
70
36
23
52
40
25
24
62
5
55
33
3
13
15
51
18
31
48
30
22
43
32
60
14
35
50
69
57
47
34
58
64
59
8
53
17
63
38
11
37
71
56
73
26

> <PUBCHEM_MMFF94_PARTIAL_CHARGES>
4
1 -0.23
13 0.23
14 0.34
2 -0.34

> <PUBCHEM_EFFECTIVE_ROTOR_COUNT>
11

> <PUBCHEM_PHARMACOPHORE_FEATURES>
1
1 1 hydrophobe

> <PUBCHEM_HEAVY_ATOM_COUNT>
14

> <PUBCHEM_ATOM_DEF_STEREO_COUNT>
0

> <PUBCHEM_ATOM_UDEF_STEREO_COUNT>
0

> <PUBCHEM_BOND_DEF_STEREO_COUNT>
0

> <PUBCHEM_BOND_UDEF_STEREO_COUNT>
0

> <PUBCHEM_ISOTOPIC_ATOM_COUNT>
0

> <PUBCHEM_COMPONENT_COUNT>
1

> <PUBCHEM_CACTVS_TAUTO_COUNT>
1

> <PUBCHEM_CONFORMER_ID>
0000259100000001

> <PUBCHEM_MMFF94_ENERGY>
-0.5046

> <PUBCHEM_FEATURE_SELFOVERLAP>
5.074

> <PUBCHEM_SHAPE_FINGERPRINT>
11315181 36 18040712554924721083
12091667 2 18409448090510136691
13533116 47 16988293061632180648
14123256 10 18272089405159750672
14251764 18 18259702315629958696
14251764 46 18410855464423142091
17834076 25 18410855468718096391
18006028 8 18408323289187026717
22224240 67 17632859716007398514
23521765 1 18335421270176301062
246663 6 8142087572158299392
33684 2 18410856568235005418
42788 4 18410573993746673472
67123 10 18410575067483209742
8209 1 18410573989446418437

> <PUBCHEM_SHAPE_MULTIPOLES>
286.78
26.99
0.82
0.62
0.89
0.01
0
1.87
0.33
0.3
0
0.14
0.01
0.02

> <PUBCHEM_SHAPE_SELFOVERLAP>
498.84

> <PUBCHEM_SHAPE_VOLUME>
190.3

> <PUBCHEM_COORDINATE_TYPE>
2
5
10

$$$$

