17395613
  -OEChem-06241222512D

 48 51  0     0  0  0  0  0  0999 V2000
    5.2368   -1.7436    0.0000 O   0  0  0  0  0  0  0  0  0  0  0  0
    5.7720   -0.0963    0.0000 N   0  0  0  0  0  0  0  0  0  0  0  0
    2.7688    0.4946    0.0000 N   0  0  0  0  0  0  0  0  0  0  0  0
    2.4598   -0.4565    0.0000 N   0  0  0  0  0  0  0  0  0  0  0  0
    4.1349   -3.5442    0.0000 N   0  0  0  0  0  0  0  0  0  0  0  0
    6.7231   -0.4054    0.0000 C   0  0  0  0  0  0  0  0  0  0  0  0
    7.5321    0.1824    0.0000 C   0  0  0  0  0  0  0  0  0  0  0  0
    7.0321   -1.3564    0.0000 C   0  0  0  0  0  0  0  0  0  0  0  0
    8.3411   -0.4054    0.0000 C   0  0  0  0  0  0  0  0  0  0  0  0
    8.0321   -1.3564    0.0000 C   0  0  0  0  0  0  0  0  0  0  0  0
    5.0289   -0.7655    0.0000 C   0  0  0  0  0  0  0  0  0  0  0  0
    4.0778   -0.4565    0.0000 C   0  0  0  0  0  0  0  0  0  0  0  0
    3.2688   -1.0442    0.0000 C   0  0  0  0  0  0  0  0  0  0  0  0
    3.7688    0.4946    0.0000 C   0  0  0  0  0  0  0  0  0  0  0  0
    2.1810    1.3036    0.0000 C   0  0  0  0  0  0  0  0  0  0  0  0
    3.2688   -2.0442    0.0000 C   0  0  0  0  0  0  0  0  0  0  0  0
    2.5878    2.2172    0.0000 C   0  0  0  0  0  0  0  0  0  0  0  0
    2.4028   -2.5442    0.0000 C   0  0  0  0  0  0  0  0  0  0  0  0
    4.1349   -2.5442    0.0000 C   0  0  0  0  0  0  0  0  0  0  0  0
    3.5823    2.3217    0.0000 C   0  0  0  0  0  0  0  0  0  0  0  0
    2.0000    3.0262    0.0000 C   0  0  0  0  0  0  0  0  0  0  0  0
    2.4028   -3.5442    0.0000 C   0  0  0  0  0  0  0  0  0  0  0  0
    3.9890    3.2352    0.0000 C   0  0  0  0  0  0  0  0  0  0  0  0
    2.4067    3.9397    0.0000 C   0  0  0  0  0  0  0  0  0  0  0  0
    3.4013    4.0442    0.0000 C   0  0  0  0  0  0  0  0  0  0  0  0
    3.2688   -4.0442    0.0000 C   0  0  0  0  0  0  0  0  0  0  0  0
    6.6261    0.2070    0.0000 H   0  0  0  0  0  0  0  0  0  0  0  0
    7.9470    0.6432    0.0000 H   0  0  0  0  0  0  0  0  0  0  0  0
    7.1173    0.6432    0.0000 H   0  0  0  0  0  0  0  0  0  0  0  0
    6.4257   -1.4853    0.0000 H   0  0  0  0  0  0  0  0  0  0  0  0
    7.0969   -1.9730    0.0000 H   0  0  0  0  0  0  0  0  0  0  0  0
    8.9075   -0.6575    0.0000 H   0  0  0  0  0  0  0  0  0  0  0  0
    8.6511    0.1316    0.0000 H   0  0  0  0  0  0  0  0  0  0  0  0
    7.9673   -1.9730    0.0000 H   0  0  0  0  0  0  0  0  0  0  0  0
    8.6386   -1.4853    0.0000 H   0  0  0  0  0  0  0  0  0  0  0  0
    5.6432    0.5101    0.0000 H   0  0  0  0  0  0  0  0  0  0  0  0
    4.1333    0.9962    0.0000 H   0  0  0  0  0  0  0  0  0  0  0  0
    1.6670    1.6503    0.0000 H   0  0  0  0  0  0  0  0  0  0  0  0
    1.7504    0.8576    0.0000 H   0  0  0  0  0  0  0  0  0  0  0  0
    1.8659   -2.2342    0.0000 H   0  0  0  0  0  0  0  0  0  0  0  0
    4.6718   -2.2342    0.0000 H   0  0  0  0  0  0  0  0  0  0  0  0
    3.9467    1.8201    0.0000 H   0  0  0  0  0  0  0  0  0  0  0  0
    1.3834    2.9614    0.0000 H   0  0  0  0  0  0  0  0  0  0  0  0
    1.8659   -3.8542    0.0000 H   0  0  0  0  0  0  0  0  0  0  0  0
    4.6056    3.3000    0.0000 H   0  0  0  0  0  0  0  0  0  0  0  0
    2.0423    4.4413    0.0000 H   0  0  0  0  0  0  0  0  0  0  0  0
    3.6534    4.6106    0.0000 H   0  0  0  0  0  0  0  0  0  0  0  0
    3.2688   -4.6642    0.0000 H   0  0  0  0  0  0  0  0  0  0  0  0
  1 11  2  0  0  0  0
  2  6  1  0  0  0  0
  2 11  1  0  0  0  0
  2 36  1  0  0  0  0
  3  4  1  0  0  0  0
  3 14  1  0  0  0  0
  3 15  1  0  0  0  0
  4 13  2  0  0  0  0
  5 19  1  0  0  0  0
  5 26  2  0  0  0  0
  6  7  1  0  0  0  0
  6  8  1  0  0  0  0
  6 27  1  0  0  0  0
  7  9  1  0  0  0  0
  7 28  1  0  0  0  0
  7 29  1  0  0  0  0
  8 10  1  0  0  0  0
  8 30  1  0  0  0  0
  8 31  1  0  0  0  0
  9 10  1  0  0  0  0
  9 32  1  0  0  0  0
  9 33  1  0  0  0  0
 10 34  1  0  0  0  0
 10 35  1  0  0  0  0
 11 12  1  0  0  0  0
 12 13  1  0  0  0  0
 12 14  2  0  0  0  0
 13 16  1  0  0  0  0
 14 37  1  0  0  0  0
 15 17  1  0  0  0  0
 15 38  1  0  0  0  0
 15 39  1  0  0  0  0
 16 18  1  0  0  0  0
 16 19  2  0  0  0  0
 17 20  2  0  0  0  0
 17 21  1  0  0  0  0
 18 22  2  0  0  0  0
 18 40  1  0  0  0  0
 19 41  1  0  0  0  0
 20 23  1  0  0  0  0
 20 42  1  0  0  0  0
 21 24  2  0  0  0  0
 21 43  1  0  0  0  0
 22 26  1  0  0  0  0
 22 44  1  0  0  0  0
 23 25  2  0  0  0  0
 23 45  1  0  0  0  0
 24 25  1  0  0  0  0
 24 46  1  0  0  0  0
 25 47  1  0  0  0  0
 26 48  1  0  0  0  0
M  END
> <PUBCHEM_COMPOUND_CID>
17395613

> <PUBCHEM_COMPOUND_CANONICALIZED>
1

> <PUBCHEM_CACTVS_COMPLEXITY>
459

> <PUBCHEM_CACTVS_HBOND_ACCEPTOR>
3

> <PUBCHEM_CACTVS_HBOND_DONOR>
1

> <PUBCHEM_CACTVS_ROTATABLE_BOND>
5

> <PUBCHEM_CACTVS_SUBSKEYS>
AAADceB7oAAAAAAAAAAAAAAAAAAAAeIAAAA8QAAAAAAAAAAB8AAAHgAYAAAADCjBngQ8gJLIEACqAzV3VACShCA1giAY2KE4ZNgIIPrA0dGEpYhgngDIyccYiUCOAAAAAAAAAAAAAAAAAAAAAAAAAAAAAA==

> <PUBCHEM_IUPAC_OPENEYE_NAME>
1-benzyl-N-cyclopentyl-3-(3-pyridyl)pyrazole-4-carboxamide

> <PUBCHEM_IUPAC_CAS_NAME>
N-cyclopentyl-1-(phenylmethyl)-3-(3-pyridinyl)-4-pyrazolecarboxamide

> <PUBCHEM_IUPAC_NAME>
1-benzyl-N-cyclopentyl-3-pyridin-3-ylpyrazole-4-carboxamide

> <PUBCHEM_IUPAC_SYSTEMATIC_NAME>
N-cyclopentyl-1-(phenylmethyl)-3-pyridin-3-yl-pyrazole-4-carboxamide

> <PUBCHEM_IUPAC_TRADITIONAL_NAME>
1-benzyl-N-cyclopentyl-3-(3-pyridyl)pyrazole-4-carboxamide

> <PUBCHEM_IUPAC_INCHI>
InChI=1S/C21H22N4O/c26-21(23-18-10-4-5-11-18)19-15-25(14-16-7-2-1-3-8-16)24-20(19)17-9-6-12-22-13-17/h1-3,6-9,12-13,15,18H,4-5,10-11,14H2,(H,23,26)

> <PUBCHEM_IUPAC_INCHIKEY>
ZRNCIWYSZIUANV-UHFFFAOYSA-N

> <PUBCHEM_XLOGP3_AA>
3

> <PUBCHEM_EXACT_MASS>
346.179361

> <PUBCHEM_MOLECULAR_FORMULA>
C21H22N4O

> <PUBCHEM_MOLECULAR_WEIGHT>
346.42558

> <PUBCHEM_OPENEYE_CAN_SMILES>
C1CCC(C1)NC(=O)C2=CN(N=C2C3=CN=CC=C3)CC4=CC=CC=C4

> <PUBCHEM_OPENEYE_ISO_SMILES>
C1CCC(C1)NC(=O)C2=CN(N=C2C3=CN=CC=C3)CC4=CC=CC=C4

> <PUBCHEM_CACTVS_TPSA>
59.8

> <PUBCHEM_MONOISOTOPIC_WEIGHT>
346.179361

> <PUBCHEM_TOTAL_CHARGE>
0

> <PUBCHEM_HEAVY_ATOM_COUNT>
26

> <PUBCHEM_ATOM_DEF_STEREO_COUNT>
0

> <PUBCHEM_ATOM_UDEF_STEREO_COUNT>
0

> <PUBCHEM_BOND_DEF_STEREO_COUNT>
0

> <PUBCHEM_BOND_UDEF_STEREO_COUNT>
0

> <PUBCHEM_ISOTOPIC_ATOM_COUNT>
0

> <PUBCHEM_COMPONENT_COUNT>
1

> <PUBCHEM_CACTVS_TAUTO_COUNT>
2

> <PUBCHEM_COORDINATE_TYPE>
1
5
255

> <PUBCHEM_BONDANNOTATIONS>
12  13  8
12  14  8
16  18  8
16  19  8
17  20  8
17  21  8
18  22  8
20  23  8
21  24  8
22  26  8
23  25  8
24  25  8
3  14  8
3  4  8
4  13  8
5  19  8
5  26  8

$$$$

