5362124
  -OEChem-07051212522D

 59 61  0     1  0  0  0  0  0999 V2000
    6.3104    2.1933    0.0000 O   0  0  0  0  0  0  0  0  0  0  0  0
    3.5000   -1.2216    0.0000 O   0  0  0  0  0  0  0  0  0  0  0  0
    3.5000    0.5105    0.0000 O   0  0  0  0  0  0  0  0  0  0  0  0
    7.6208    4.2640    0.0000 O   0  0  0  0  0  0  0  0  0  0  0  0
    6.4427    2.9943    0.0000 O   0  0  0  0  0  0  0  0  0  0  0  0
    5.5000    0.5105    0.0000 N   0  0  0  0  0  0  0  0  0  0  0  0
    7.9088    1.6340    0.0000 N   0  0  0  0  0  0  0  0  0  0  0  0
    6.5000    0.5105    0.0000 C   0  0  1  0  0  0  0  0  0  0  0  0
    6.9339   -0.3905    0.0000 C   0  0  0  0  0  0  0  0  0  0  0  0
    7.9088   -0.6130    0.0000 C   0  0  0  0  0  0  0  0  0  0  0  0
    5.0000   -0.3556    0.0000 C   0  0  1  0  0  0  0  0  0  0  0  0
    6.9339    1.4114    0.0000 C   0  0  0  0  0  0  0  0  0  0  0  0
    8.6906    0.0105    0.0000 C   0  0  0  0  0  0  0  0  0  0  0  0
    8.6906    1.0105    0.0000 C   0  0  0  0  0  0  0  0  0  0  0  0
    5.5000   -1.2216    0.0000 C   0  0  0  0  0  0  0  0  0  0  0  0
    5.0000   -2.0876    0.0000 C   0  0  0  0  0  0  0  0  0  0  0  0
    8.1313    2.6089    0.0000 C   0  0  0  0  0  0  0  0  0  0  0  0
    4.0000   -0.3556    0.0000 C   0  0  0  0  0  0  0  0  0  0  0  0
    9.5846   -0.5242    0.0000 C   0  0  0  0  0  0  0  0  0  0  0  0
    9.5846    1.5451    0.0000 C   0  0  0  0  0  0  0  0  0  0  0  0
    5.5000   -2.9536    0.0000 C   0  0  0  0  0  0  0  0  0  0  0  0
   10.4907   -0.0104    0.0000 C   0  0  0  0  0  0  0  0  0  0  0  0
   10.4907    1.0313    0.0000 C   0  0  0  0  0  0  0  0  0  0  0  0
    7.3983    3.2890    0.0000 C   0  0  0  0  0  0  0  0  0  0  0  0
    5.0000   -3.8197    0.0000 C   0  0  0  0  0  0  0  0  0  0  0  0
    6.5000   -2.9536    0.0000 C   0  0  0  0  0  0  0  0  0  0  0  0
    2.5000   -1.2216    0.0000 C   0  0  0  0  0  0  0  0  0  0  0  0
    5.5000   -4.6857    0.0000 C   0  0  0  0  0  0  0  0  0  0  0  0
    7.0000   -3.8197    0.0000 C   0  0  0  0  0  0  0  0  0  0  0  0
    6.5000   -4.6857    0.0000 C   0  0  0  0  0  0  0  0  0  0  0  0
    2.0000   -2.0876    0.0000 C   0  0  0  0  0  0  0  0  0  0  0  0
    6.1701   -0.0145    0.0000 H   0  0  0  0  0  0  0  0  0  0  0  0
    6.3294   -0.5285    0.0000 H   0  0  0  0  0  0  0  0  0  0  0  0
    6.9339   -1.0105    0.0000 H   0  0  0  0  0  0  0  0  0  0  0  0
    7.6398   -1.1716    0.0000 H   0  0  0  0  0  0  0  0  0  0  0  0
    8.3936   -0.9996    0.0000 H   0  0  0  0  0  0  0  0  0  0  0  0
    4.6900    0.1814    0.0000 H   0  0  0  0  0  0  0  0  0  0  0  0
    5.1900    1.0474    0.0000 H   0  0  0  0  0  0  0  0  0  0  0  0
    5.9750   -1.6201    0.0000 H   0  0  0  0  0  0  0  0  0  0  0  0
    5.9750   -0.8231    0.0000 H   0  0  0  0  0  0  0  0  0  0  0  0
    4.5250   -1.6891    0.0000 H   0  0  0  0  0  0  0  0  0  0  0  0
    4.5250   -2.4861    0.0000 H   0  0  0  0  0  0  0  0  0  0  0  0
    8.7026    2.3681    0.0000 H   0  0  0  0  0  0  0  0  0  0  0  0
    8.4677    3.1297    0.0000 H   0  0  0  0  0  0  0  0  0  0  0  0
    9.5774   -1.1442    0.0000 H   0  0  0  0  0  0  0  0  0  0  0  0
    9.5774    2.1651    0.0000 H   0  0  0  0  0  0  0  0  0  0  0  0
   11.0264   -0.3224    0.0000 H   0  0  0  0  0  0  0  0  0  0  0  0
   11.0264    1.3434    0.0000 H   0  0  0  0  0  0  0  0  0  0  0  0
    4.3800   -3.8197    0.0000 H   0  0  0  0  0  0  0  0  0  0  0  0
    6.8100   -2.4167    0.0000 H   0  0  0  0  0  0  0  0  0  0  0  0
    2.6077   -0.6110    0.0000 H   0  0  0  0  0  0  0  0  0  0  0  0
    1.9174   -1.0095    0.0000 H   0  0  0  0  0  0  0  0  0  0  0  0
    5.1900   -5.2226    0.0000 H   0  0  0  0  0  0  0  0  0  0  0  0
    7.6200   -3.8197    0.0000 H   0  0  0  0  0  0  0  0  0  0  0  0
    6.8100   -5.2226    0.0000 H   0  0  0  0  0  0  0  0  0  0  0  0
    1.4631   -1.7776    0.0000 H   0  0  0  0  0  0  0  0  0  0  0  0
    1.6900   -2.6246    0.0000 H   0  0  0  0  0  0  0  0  0  0  0  0
    2.5369   -2.3976    0.0000 H   0  0  0  0  0  0  0  0  0  0  0  0
    7.1663    4.6857    0.0000 H   0  0  0  0  0  0  0  0  0  0  0  0
  1 12  2  0  0  0  0
  2 18  1  0  0  0  0
  2 27  1  0  0  0  0
  3 18  2  0  0  0  0
  4 24  1  0  0  0  0
  4 59  1  0  0  0  0
  5 24  2  0  0  0  0
  8  6  1  6  0  0  0
 11  6  1  1  0  0  0
  6 38  1  0  0  0  0
  7 12  1  0  0  0  0
  7 14  1  0  0  0  0
  7 17  1  0  0  0  0
  8  9  1  0  0  0  0
  8 12  1  0  0  0  0
  8 32  1  0  0  0  0
  9 10  1  0  0  0  0
  9 33  1  0  0  0  0
  9 34  1  0  0  0  0
 10 13  1  0  0  0  0
 10 35  1  0  0  0  0
 10 36  1  0  0  0  0
 11 15  1  0  0  0  0
 11 18  1  0  0  0  0
 11 37  1  0  0  0  0
 13 14  1  0  0  0  0
 13 19  2  0  0  0  0
 14 20  2  0  0  0  0
 15 16  1  0  0  0  0
 15 39  1  0  0  0  0
 15 40  1  0  0  0  0
 16 21  1  0  0  0  0
 16 41  1  0  0  0  0
 16 42  1  0  0  0  0
 17 24  1  0  0  0  0
 17 43  1  0  0  0  0
 17 44  1  0  0  0  0
 19 22  1  0  0  0  0
 19 45  1  0  0  0  0
 20 23  1  0  0  0  0
 20 46  1  0  0  0  0
 21 25  2  0  0  0  0
 21 26  1  0  0  0  0
 22 23  2  0  0  0  0
 22 47  1  0  0  0  0
 23 48  1  0  0  0  0
 25 28  1  0  0  0  0
 25 49  1  0  0  0  0
 26 29  2  0  0  0  0
 26 50  1  0  0  0  0
 27 31  1  0  0  0  0
 27 51  1  0  0  0  0
 27 52  1  0  0  0  0
 28 30  2  0  0  0  0
 28 53  1  0  0  0  0
 29 30  1  0  0  0  0
 29 54  1  0  0  0  0
 30 55  1  0  0  0  0
 31 56  1  0  0  0  0
 31 57  1  0  0  0  0
 31 58  1  0  0  0  0
M  END
> <PUBCHEM_COMPOUND_CID>
5362124

> <PUBCHEM_COMPOUND_CANONICALIZED>
1

> <PUBCHEM_CACTVS_COMPLEXITY>
619

> <PUBCHEM_CACTVS_HBOND_ACCEPTOR>
6

> <PUBCHEM_CACTVS_HBOND_DONOR>
2

> <PUBCHEM_CACTVS_ROTATABLE_BOND>
10

> <PUBCHEM_CACTVS_SUBSKEYS>
AAADceB7OAAAAAAAAAAAAAAAAAAAAAAAAAAwYAAABYAAAAABQAAAHgAQCAAADCjhmAYyyIPABgCIAiXSWACCAAAhAgAIiIGIZIgKYDLAkbGXIAhklgDYyAeYyLCOAAAAAAACAAAAAAAAAAQAAAAAAAAAAA==

> <PUBCHEM_IUPAC_OPENEYE_NAME>
2-[(3S)-3-[[(1S)-1-ethoxycarbonyl-3-phenyl-propyl]amino]-2-oxo-4,5-dihydro-3H-1-benzazepin-1-yl]acetic acid

> <PUBCHEM_IUPAC_CAS_NAME>
2-[(3S)-3-[[(2S)-1-ethoxy-1-oxo-4-phenylbutan-2-yl]amino]-2-oxo-4,5-dihydro-3H-1-benzazepin-1-yl]acetic acid

> <PUBCHEM_IUPAC_NAME>
2-[(3S)-3-[[(2S)-1-ethoxy-1-oxo-4-phenylbutan-2-yl]amino]-2-oxo-4,5-dihydro-3H-1-benzazepin-1-yl]acetic acid

> <PUBCHEM_IUPAC_SYSTEMATIC_NAME>
2-[(3S)-3-[[(2S)-1-ethoxy-1-oxidanylidene-4-phenyl-butan-2-yl]amino]-2-oxidanylidene-4,5-dihydro-3H-1-benzazepin-1-yl]ethanoic acid

> <PUBCHEM_IUPAC_TRADITIONAL_NAME>
2-[(3S)-3-[[(1S)-1-carbethoxy-3-phenyl-propyl]amino]-2-keto-4,5-dihydro-3H-1-benzazepin-1-yl]acetic acid

> <PUBCHEM_IUPAC_INCHI>
InChI=1S/C24H28N2O5/c1-2-31-24(30)20(14-12-17-8-4-3-5-9-17)25-19-15-13-18-10-6-7-11-21(18)26(23(19)29)16-22(27)28/h3-11,19-20,25H,2,12-16H2,1H3,(H,27,28)/t19-,20-/m0/s1

> <PUBCHEM_IUPAC_INCHIKEY>
XPCFTKFZXHTYIP-PMACEKPBSA-N

> <PUBCHEM_XLOGP3_AA>
1.3

> <PUBCHEM_EXACT_MASS>
424.199822

> <PUBCHEM_MOLECULAR_FORMULA>
C24H28N2O5

> <PUBCHEM_MOLECULAR_WEIGHT>
424.48952

> <PUBCHEM_OPENEYE_CAN_SMILES>
CCOC(=O)C(CCC1=CC=CC=C1)NC2CCC3=CC=CC=C3N(C2=O)CC(=O)O

> <PUBCHEM_OPENEYE_ISO_SMILES>
CCOC(=O)[C@H](CCC1=CC=CC=C1)N[C@H]2CCC3=CC=CC=C3N(C2=O)CC(=O)O

> <PUBCHEM_CACTVS_TPSA>
95.9

> <PUBCHEM_MONOISOTOPIC_WEIGHT>
424.199822

> <PUBCHEM_TOTAL_CHARGE>
0

> <PUBCHEM_HEAVY_ATOM_COUNT>
31

> <PUBCHEM_ATOM_DEF_STEREO_COUNT>
2

> <PUBCHEM_ATOM_UDEF_STEREO_COUNT>
0

> <PUBCHEM_BOND_DEF_STEREO_COUNT>
0

> <PUBCHEM_BOND_UDEF_STEREO_COUNT>
0

> <PUBCHEM_ISOTOPIC_ATOM_COUNT>
0

> <PUBCHEM_COMPONENT_COUNT>
1

> <PUBCHEM_CACTVS_TAUTO_COUNT>
2

> <PUBCHEM_COORDINATE_TYPE>
1
5
255

> <PUBCHEM_BONDANNOTATIONS>
13  14  8
13  19  8
14  20  8
19  22  8
20  23  8
21  25  8
21  26  8
22  23  8
25  28  8
26  29  8
28  30  8
29  30  8
11  6  5
8  6  6

$$$$

