586239
  -OEChem-06241222463D

 17 17  0     0  0  0  0  0  0999 V2000
   -3.5550   -1.0738    0.0072 O   0  0  0  0  0  0  0  0  0  0  0  0
   -3.1594    1.1730    0.0001 O   0  0  0  0  0  0  0  0  0  0  0  0
    3.2717    0.4616    0.0037 N   0  0  0  0  0  0  0  0  0  0  0  0
    1.0674    0.1925   -0.0013 C   0  0  0  0  0  0  0  0  0  0  0  0
    2.0759    1.1308    0.0027 C   0  0  0  0  0  0  0  0  0  0  0  0
    1.6786   -1.0856   -0.0025 C   0  0  0  0  0  0  0  0  0  0  0  0
    3.0419   -0.8895    0.0011 C   0  0  0  0  0  0  0  0  0  0  0  0
   -0.3120    0.4877   -0.0037 C   0  0  0  0  0  0  0  0  0  0  0  0
   -1.3496   -0.4181   -0.0077 C   0  0  0  0  0  0  0  0  0  0  0  0
   -2.7594    0.0212    0.0005 C   0  0  0  0  0  0  0  0  0  0  0  0
    2.0560    2.2123    0.0047 H   0  0  0  0  0  0  0  0  0  0  0  0
    1.1965   -2.0537   -0.0054 H   0  0  0  0  0  0  0  0  0  0  0  0
    4.1835    0.8976    0.0063 H   0  0  0  0  0  0  0  0  0  0  0  0
    3.8664   -1.5884    0.0018 H   0  0  0  0  0  0  0  0  0  0  0  0
   -0.5788    1.5438    0.0015 H   0  0  0  0  0  0  0  0  0  0  0  0
   -1.1583   -1.4865   -0.0115 H   0  0  0  0  0  0  0  0  0  0  0  0
   -4.5068   -0.8362    0.0123 H   0  0  0  0  0  0  0  0  0  0  0  0
  1 10  1  0  0  0  0
  1 17  1  0  0  0  0
  2 10  2  0  0  0  0
  3  5  1  0  0  0  0
  3  7  1  0  0  0  0
  3 13  1  0  0  0  0
  4  5  2  0  0  0  0
  4  6  1  0  0  0  0
  4  8  1  0  0  0  0
  5 11  1  0  0  0  0
  6  7  2  0  0  0  0
  6 12  1  0  0  0  0
  7 14  1  0  0  0  0
  8  9  2  0  0  0  0
  8 15  1  0  0  0  0
  9 10  1  0  0  0  0
  9 16  1  0  0  0  0
M  END
> <PUBCHEM_COMPOUND_CID>
586239

> <PUBCHEM_CONFORMER_RMSD>
0.4

> <PUBCHEM_CONFORMER_DIVERSEORDER>
1
3
2

> <PUBCHEM_MMFF94_PARTIAL_CHARGES>
17
1 -0.65
10 0.71
11 0.15
12 0.15
13 0.27
14 0.15
15 0.15
16 0.15
17 0.5
2 -0.57
3 0.03
4 -0.05
5 -0.3
6 -0.15
7 -0.3
8 -0.1
9 -0.14

> <PUBCHEM_EFFECTIVE_ROTOR_COUNT>
2

> <PUBCHEM_PHARMACOPHORE_FEATURES>
6
1 1 acceptor
1 2 acceptor
1 3 cation
1 3 donor
3 1 2 10 anion
5 3 4 5 6 7 rings

> <PUBCHEM_HEAVY_ATOM_COUNT>
10

> <PUBCHEM_ATOM_DEF_STEREO_COUNT>
0

> <PUBCHEM_ATOM_UDEF_STEREO_COUNT>
0

> <PUBCHEM_BOND_DEF_STEREO_COUNT>
0

> <PUBCHEM_BOND_UDEF_STEREO_COUNT>
1

> <PUBCHEM_ISOTOPIC_ATOM_COUNT>
0

> <PUBCHEM_COMPONENT_COUNT>
1

> <PUBCHEM_CACTVS_TAUTO_COUNT>
2

> <PUBCHEM_CONFORMER_ID>
0008F1FF00000001

> <PUBCHEM_MMFF94_ENERGY>
12.0118

> <PUBCHEM_FEATURE_SELFOVERLAP>
30.501

> <PUBCHEM_SHAPE_FINGERPRINT>
11062470 55 18409167722690885768
12932764 1 17458352909478824149
14144814 61 18408885152597657065
14325111 11 18410575084800222467
190213 19 17894912940256283026
20201158 50 18413670222827974458
20645477 70 18337958990627691943
20871998 22 17973442397871184062
23402655 69 18409736179124839685
3248919 1 17346310479843199267

> <PUBCHEM_SHAPE_MULTIPOLES>
189.08
6.16
1.2
0.59
2.85
0
0
0.41
0.01
-0.09
0
-0.04
0.01
0

> <PUBCHEM_SHAPE_SELFOVERLAP>
391.968

> <PUBCHEM_SHAPE_VOLUME>
108.7

> <PUBCHEM_COORDINATE_TYPE>
2
5
10

$$$$

