10130163
  -OEChem-07051213023D

 25 25  0     1  0  0  0  0  0999 V2000
    3.4204    0.3064   -0.2237 O   0  0  0  0  0  0  0  0  0  0  0  0
    2.0426    2.0423    0.3650 O   0  0  0  0  0  0  0  0  0  0  0  0
   -1.3801   -1.1141    1.1748 O   0  0  0  0  0  0  0  0  0  0  0  0
   -0.0729    0.2063   -0.2168 N   0  0  0  0  0  0  0  0  0  0  0  0
    1.1944   -0.2402    0.2753 C   0  0  1  0  0  0  0  0  0  0  0  0
    1.8040   -1.3407   -0.5604 C   0  0  0  0  0  0  0  0  0  0  0  0
    3.2803   -1.1128   -0.3574 C   0  0  0  0  0  0  0  0  0  0  0  0
    2.2194    0.8543    0.1441 C   0  0  0  0  0  0  0  0  0  0  0  0
   -2.4650    0.3613   -0.4089 C   0  0  0  0  0  0  0  0  0  0  0  0
   -1.2736   -0.2765    0.2830 C   0  0  0  0  0  0  0  0  0  0  0  0
   -3.7963   -0.1569    0.1270 C   0  0  0  0  0  0  0  0  0  0  0  0
   -4.9732    0.4704   -0.6022 C   0  0  0  0  0  0  0  0  0  0  0  0
    1.1269   -0.5314    1.3295 H   0  0  0  0  0  0  0  0  0  0  0  0
    1.5514   -1.2084   -1.6204 H   0  0  0  0  0  0  0  0  0  0  0  0
    1.4807   -2.3431   -0.2654 H   0  0  0  0  0  0  0  0  0  0  0  0
    3.6536   -1.5868    0.5565 H   0  0  0  0  0  0  0  0  0  0  0  0
    3.8708   -1.4624   -1.2090 H   0  0  0  0  0  0  0  0  0  0  0  0
   -0.0894    0.8906   -0.9683 H   0  0  0  0  0  0  0  0  0  0  0  0
   -2.4023    1.4472   -0.2701 H   0  0  0  0  0  0  0  0  0  0  0  0
   -2.3871    0.1533   -1.4828 H   0  0  0  0  0  0  0  0  0  0  0  0
   -3.8768    0.0587    1.1991 H   0  0  0  0  0  0  0  0  0  0  0  0
   -3.8449   -1.2470    0.0186 H   0  0  0  0  0  0  0  0  0  0  0  0
   -4.9725    1.5587   -0.4843 H   0  0  0  0  0  0  0  0  0  0  0  0
   -4.9399    0.2403   -1.6719 H   0  0  0  0  0  0  0  0  0  0  0  0
   -5.9162    0.0859   -0.2012 H   0  0  0  0  0  0  0  0  0  0  0  0
  1  7  1  0  0  0  0
  1  8  1  0  0  0  0
  2  8  2  0  0  0  0
  3 10  2  0  0  0  0
  4  5  1  0  0  0  0
  4 10  1  0  0  0  0
  4 18  1  0  0  0  0
  5  6  1  0  0  0  0
  5  8  1  0  0  0  0
  5 13  1  0  0  0  0
  6  7  1  0  0  0  0
  6 14  1  0  0  0  0
  6 15  1  0  0  0  0
  7 16  1  0  0  0  0
  7 17  1  0  0  0  0
  9 10  1  0  0  0  0
  9 11  1  0  0  0  0
  9 19  1  0  0  0  0
  9 20  1  0  0  0  0
 11 12  1  0  0  0  0
 11 21  1  0  0  0  0
 11 22  1  0  0  0  0
 12 23  1  0  0  0  0
 12 24  1  0  0  0  0
 12 25  1  0  0  0  0
M  END
> <PUBCHEM_COMPOUND_CID>
10130163

> <PUBCHEM_CONFORMER_RMSD>
0.6

> <PUBCHEM_CONFORMER_DIVERSEORDER>
1
25
22
13
26
10
7
24
23
2
8
14
20
21
17
15
4
3
18
12
19
6
5
16
11
9

> <PUBCHEM_MMFF94_PARTIAL_CHARGES>
10
1 -0.43
10 0.57
18 0.37
2 -0.57
3 -0.57
4 -0.73
5 0.36
7 0.28
8 0.66
9 0.06

> <PUBCHEM_EFFECTIVE_ROTOR_COUNT>
4.8

> <PUBCHEM_PHARMACOPHORE_FEATURES>
5
1 12 hydrophobe
1 2 acceptor
1 3 acceptor
1 4 donor
5 1 5 6 7 8 rings

> <PUBCHEM_HEAVY_ATOM_COUNT>
12

> <PUBCHEM_ATOM_DEF_STEREO_COUNT>
1

> <PUBCHEM_ATOM_UDEF_STEREO_COUNT>
0

> <PUBCHEM_BOND_DEF_STEREO_COUNT>
0

> <PUBCHEM_BOND_UDEF_STEREO_COUNT>
0

> <PUBCHEM_ISOTOPIC_ATOM_COUNT>
0

> <PUBCHEM_COMPONENT_COUNT>
1

> <PUBCHEM_CACTVS_TAUTO_COUNT>
4

> <PUBCHEM_CONFORMER_ID>
009A92F300000001

> <PUBCHEM_MMFF94_ENERGY>
10.9906

> <PUBCHEM_FEATURE_SELFOVERLAP>
25.371

> <PUBCHEM_SHAPE_FINGERPRINT>
10608611 8 18341614776479396721
11062470 55 18408885144187167935
11471102 20 18408041818636749476
124424 183 18273212019427343498
12932764 1 17846510231068117611
14251717 144 18260267481517758831
14325111 11 18411138022238058983
15219456 202 18341045207770129075
15477762 27 18186801413269123222
18186145 218 18272939340691269965
200 152 17821730554777097691
20201158 50 18410852183194962410
20279233 1 18271801324207094154
20606313 2 18408604760047825860
20645477 70 18334295413573137863
21119208 17 17894352189674231639
22096605 113 18188213083067185913
23402539 116 18202012022794314359
23402655 69 18334859437257476213
276578 36 16415483778553894977
3060560 45 18113614595262272118
3248919 1 16877928426178625135
4990 188 18341895220896064999
522135 26 18334859441515318743
69090 78 18410297995407543071
93112 12 18334858303359645231

> <PUBCHEM_SHAPE_MULTIPOLES>
224.37
7.91
1.34
0.8
7.79
0.34
-0.07
0.43
1.52
-1.24
-0.08
0.24
-0.13
0.55

> <PUBCHEM_SHAPE_SELFOVERLAP>
443.806

> <PUBCHEM_SHAPE_VOLUME>
135.2

> <PUBCHEM_COORDINATE_TYPE>
2
5
10

$$$$

