443720
  -OEChem-07051213032D

 48 52  0     0  0  0  0  0  0999 V2000
    2.6079    0.6757    0.0000 O   0  0  0  0  0  0  0  0  0  0  0  0
    2.6079    2.3522    0.0000 O   0  0  0  0  0  0  0  0  0  0  0  0
    8.9431    2.0710    0.0000 O   0  0  0  0  0  0  0  0  0  0  0  0
    8.9752   -2.0842    0.0000 O   0  0  0  0  0  0  0  0  0  0  0  0
   10.7866   -1.0384    0.0000 O   0  0  0  0  0  0  0  0  0  0  0  0
    6.2435   -0.5276    0.0000 N   0  3  0  0  0  0  0  0  0  0  0  0
    6.2596    0.5139    0.0000 C   0  0  0  0  0  0  0  0  0  0  0  0
    7.1256    1.0139    0.0000 C   0  0  0  0  0  0  0  0  0  0  0  0
    8.0356    0.5071    0.0000 C   0  0  0  0  0  0  0  0  0  0  0  0
    5.3935    1.0139    0.0000 C   0  0  0  0  0  0  0  0  0  0  0  0
    8.0436   -0.5345    0.0000 C   0  0  0  0  0  0  0  0  0  0  0  0
    5.3935    2.0139    0.0000 C   0  0  0  0  0  0  0  0  0  0  0  0
    7.1415   -1.0553    0.0000 C   0  0  0  0  0  0  0  0  0  0  0  0
    7.1256    2.0139    0.0000 C   0  0  0  0  0  0  0  0  0  0  0  0
    6.2596    2.5139    0.0000 C   0  0  0  0  0  0  0  0  0  0  0  0
    4.4996    0.4793    0.0000 C   0  0  0  0  0  0  0  0  0  0  0  0
    8.9624    1.0712    0.0000 C   0  0  0  0  0  0  0  0  0  0  0  0
    8.9790   -1.0842    0.0000 C   0  0  0  0  0  0  0  0  0  0  0  0
    4.4996    2.5486    0.0000 C   0  0  0  0  0  0  0  0  0  0  0  0
    3.5935    0.9931    0.0000 C   0  0  0  0  0  0  0  0  0  0  0  0
    3.5935    2.0347    0.0000 C   0  0  0  0  0  0  0  0  0  0  0  0
    5.3717   -1.0175    0.0000 C   0  0  0  0  0  0  0  0  0  0  0  0
    9.9187   -0.5417    0.0000 C   0  0  0  0  0  0  0  0  0  0  0  0
    9.9103    0.5432    0.0000 C   0  0  0  0  0  0  0  0  0  0  0  0
    2.0000    1.5139    0.0000 C   0  0  0  0  0  0  0  0  0  0  0  0
    9.7994    2.5876    0.0000 C   0  0  0  0  0  0  0  0  0  0  0  0
    9.8393   -2.5876    0.0000 C   0  0  0  0  0  0  0  0  0  0  0  0
   11.6507   -0.5351    0.0000 C   0  0  0  0  0  0  0  0  0  0  0  0
    7.1391   -1.6753    0.0000 H   0  0  0  0  0  0  0  0  0  0  0  0
    7.6625    2.3239    0.0000 H   0  0  0  0  0  0  0  0  0  0  0  0
    6.2596    3.1339    0.0000 H   0  0  0  0  0  0  0  0  0  0  0  0
    4.5068   -0.1407    0.0000 H   0  0  0  0  0  0  0  0  0  0  0  0
    4.5068    3.1686    0.0000 H   0  0  0  0  0  0  0  0  0  0  0  0
    5.0680   -0.4770    0.0000 H   0  0  0  0  0  0  0  0  0  0  0  0
    4.8313   -1.3213    0.0000 H   0  0  0  0  0  0  0  0  0  0  0  0
    5.6755   -1.5580    0.0000 H   0  0  0  0  0  0  0  0  0  0  0  0
   10.4436    0.8594    0.0000 H   0  0  0  0  0  0  0  0  0  0  0  0
    1.5391    1.9286    0.0000 H   0  0  0  0  0  0  0  0  0  0  0  0
    1.5391    1.0992    0.0000 H   0  0  0  0  0  0  0  0  0  0  0  0
   10.1197    2.0567    0.0000 H   0  0  0  0  0  0  0  0  0  0  0  0
   10.3302    2.9079    0.0000 H   0  0  0  0  0  0  0  0  0  0  0  0
    9.4791    3.1184    0.0000 H   0  0  0  0  0  0  0  0  0  0  0  0
    9.5272   -3.1233    0.0000 H   0  0  0  0  0  0  0  0  0  0  0  0
   10.3750   -2.8996    0.0000 H   0  0  0  0  0  0  0  0  0  0  0  0
   10.1513   -2.0518    0.0000 H   0  0  0  0  0  0  0  0  0  0  0  0
   11.9628   -1.0708    0.0000 H   0  0  0  0  0  0  0  0  0  0  0  0
   12.1864   -0.2230    0.0000 H   0  0  0  0  0  0  0  0  0  0  0  0
   11.3386    0.0007    0.0000 H   0  0  0  0  0  0  0  0  0  0  0  0
  1 20  1  0  0  0  0
  1 25  1  0  0  0  0
  2 21  1  0  0  0  0
  2 25  1  0  0  0  0
  3 17  1  0  0  0  0
  3 26  1  0  0  0  0
  4 18  1  0  0  0  0
  4 27  1  0  0  0  0
  5 23  1  0  0  0  0
  5 28  1  0  0  0  0
  6  7  2  0  0  0  0
  6 13  1  0  0  0  0
  6 22  1  0  0  0  0
  7  8  1  0  0  0  0
  7 10  1  0  0  0  0
  8  9  2  0  0  0  0
  8 14  1  0  0  0  0
  9 11  1  0  0  0  0
  9 17  1  0  0  0  0
 10 12  1  0  0  0  0
 10 16  2  0  0  0  0
 11 13  2  0  0  0  0
 11 18  1  0  0  0  0
 12 15  1  0  0  0  0
 12 19  2  0  0  0  0
 13 29  1  0  0  0  0
 14 15  2  0  0  0  0
 14 30  1  0  0  0  0
 15 31  1  0  0  0  0
 16 20  1  0  0  0  0
 16 32  1  0  0  0  0
 17 24  2  0  0  0  0
 18 23  2  0  0  0  0
 19 21  1  0  0  0  0
 19 33  1  0  0  0  0
 20 21  2  0  0  0  0
 22 34  1  0  0  0  0
 22 35  1  0  0  0  0
 22 36  1  0  0  0  0
 23 24  1  0  0  0  0
 24 37  1  0  0  0  0
 25 38  1  0  0  0  0
 25 39  1  0  0  0  0
 26 40  1  0  0  0  0
 26 41  1  0  0  0  0
 26 42  1  0  0  0  0
 27 43  1  0  0  0  0
 27 44  1  0  0  0  0
 27 45  1  0  0  0  0
 28 46  1  0  0  0  0
 28 47  1  0  0  0  0
 28 48  1  0  0  0  0
M  CHG  1   6   1
M  END
> <PUBCHEM_COMPOUND_CID>
443720

> <PUBCHEM_COMPOUND_CANONICALIZED>
1

> <PUBCHEM_CACTVS_COMPLEXITY>
561

> <PUBCHEM_CACTVS_HBOND_ACCEPTOR>
5

> <PUBCHEM_CACTVS_HBOND_DONOR>
0

> <PUBCHEM_CACTVS_ROTATABLE_BOND>
3

> <PUBCHEM_CACTVS_SUBSKEYS>
AAADceB6OAAAAAAAAAAAAAAAAAAAASAAAAA8YMEAAAAAAEjx/AAAHgAAAAAADAzBngc+zvMMFACgAzRnRACCiCAxICAI2CAuzJgdJ+LEsZukMCpnwB3O6Afw8P8O4QADSAAaQADCAAaQADSAAAAAAAAAAA==

> <PUBCHEM_IUPAC_OPENEYE_NAME>
1,2,4-trimethoxy-12-methyl-[1,3]benzodioxolo[5,6-c]phenanthridin-12-ium

> <PUBCHEM_IUPAC_CAS_NAME>
1,2,4-trimethoxy-12-methyl-[1,3]benzodioxolo[5,6-c]phenanthridin-12-ium

> <PUBCHEM_IUPAC_NAME>
1,2,4-trimethoxy-12-methyl-[1,3]benzodioxolo[5,6-c]phenanthridin-12-ium

> <PUBCHEM_IUPAC_SYSTEMATIC_NAME>
1,2,4-trimethoxy-12-methyl-[1,3]benzodioxolo[5,6-c]phenanthridin-12-ium

> <PUBCHEM_IUPAC_TRADITIONAL_NAME>
1,2,4-trimethoxy-12-methyl-[1,3]benzodioxolo[5,6-c]phenanthridin-12-ium

> <PUBCHEM_IUPAC_INCHI>
InChI=1S/C22H20NO5/c1-23-10-15-20(18(24-2)9-19(25-3)22(15)26-4)13-6-5-12-7-16-17(28-11-27-16)8-14(12)21(13)23/h5-10H,11H2,1-4H3/q+1

> <PUBCHEM_IUPAC_INCHIKEY>
LZJHNXHYKRKCDZ-UHFFFAOYSA-N

> <PUBCHEM_XLOGP3_AA>
4.5

> <PUBCHEM_EXACT_MASS>
378.134148

> <PUBCHEM_MOLECULAR_FORMULA>
C22H20NO5+

> <PUBCHEM_MOLECULAR_WEIGHT>
378.3979

> <PUBCHEM_OPENEYE_CAN_SMILES>
C[N+]1=C2C(=C3C(=CC(=C(C3=C1)OC)OC)OC)C=CC4=CC5=C(C=C42)OCO5

> <PUBCHEM_OPENEYE_ISO_SMILES>
C[N+]1=C2C(=C3C(=CC(=C(C3=C1)OC)OC)OC)C=CC4=CC5=C(C=C42)OCO5

> <PUBCHEM_CACTVS_TPSA>
50

> <PUBCHEM_MONOISOTOPIC_WEIGHT>
378.134148

> <PUBCHEM_TOTAL_CHARGE>
1

> <PUBCHEM_HEAVY_ATOM_COUNT>
28

> <PUBCHEM_ATOM_DEF_STEREO_COUNT>
0

> <PUBCHEM_ATOM_UDEF_STEREO_COUNT>
0

> <PUBCHEM_BOND_DEF_STEREO_COUNT>
0

> <PUBCHEM_BOND_UDEF_STEREO_COUNT>
0

> <PUBCHEM_ISOTOPIC_ATOM_COUNT>
0

> <PUBCHEM_COMPONENT_COUNT>
1

> <PUBCHEM_CACTVS_TAUTO_COUNT>
1

> <PUBCHEM_COORDINATE_TYPE>
1
5
255

> <PUBCHEM_BONDANNOTATIONS>
10  12  8
10  16  8
11  13  8
11  18  8
12  15  8
12  19  8
14  15  8
16  20  8
17  24  8
18  23  8
19  21  8
20  21  8
23  24  8
6  13  8
6  7  8
7  10  8
7  8  8
8  14  8
8  9  8
9  11  8
9  17  8

$$$$

