7847048
  -OEChem-06241222483D

 45 47  0     1  0  0  0  0  0999 V2000
   -6.2778   -0.4103    2.1967 F   0  0  0  0  0  0  0  0  0  0  0  0
   -0.8012    0.0012   -0.7686 O   0  0  0  0  0  0  0  0  0  0  0  0
    0.3495    0.3808   -2.7258 O   0  0  0  0  0  0  0  0  0  0  0  0
    3.8052   -0.6213    0.8050 N   0  0  0  0  0  0  0  0  0  0  0  0
    1.5300   -0.1133   -0.7140 C   0  0  0  0  0  0  0  0  0  0  0  0
    2.0163   -1.4086   -0.6123 C   0  0  0  0  0  0  0  0  0  0  0  0
    2.1812    0.9380   -0.0544 C   0  0  0  0  0  0  0  0  0  0  0  0
    3.1475   -1.6073    0.1529 C   0  0  0  0  0  0  0  0  0  0  0  0
    3.3309    0.6349    0.7046 C   0  0  0  0  0  0  0  0  0  0  0  0
   -2.0444    0.2044   -1.4489 C   0  0  1  0  0  0  0  0  0  0  0  0
    3.7257   -2.9762    0.3064 C   0  0  0  0  0  0  0  0  0  0  0  0
    0.3319    0.1172   -1.5210 C   0  0  0  0  0  0  0  0  0  0  0  0
    1.3469   -2.5503   -1.3022 C   0  0  0  0  0  0  0  0  0  0  0  0
    1.7140    2.2606   -0.1376 C   0  0  0  0  0  0  0  0  0  0  0  0
   -3.1814    0.0387   -0.4690 C   0  0  0  0  0  0  0  0  0  0  0  0
    3.9774    1.6795    1.3595 C   0  0  0  0  0  0  0  0  0  0  0  0
   -2.0466    1.5824   -2.1014 C   0  0  0  0  0  0  0  0  0  0  0  0
    3.1421   -3.7195    1.5039 C   0  0  0  0  0  0  0  0  0  0  0  0
    2.3801    3.2859    0.5277 C   0  0  0  0  0  0  0  0  0  0  0  0
    3.5131    2.9946    1.2771 C   0  0  0  0  0  0  0  0  0  0  0  0
   -2.9897    0.3860    0.8585 C   0  0  0  0  0  0  0  0  0  0  0  0
   -4.3955   -0.4570   -0.9164 C   0  0  0  0  0  0  0  0  0  0  0  0
   -4.0404    0.2334    1.7631 C   0  0  0  0  0  0  0  0  0  0  0  0
   -5.4462   -0.6095   -0.0117 C   0  0  0  0  0  0  0  0  0  0  0  0
   -5.2687   -0.2643    1.3280 C   0  0  0  0  0  0  0  0  0  0  0  0
   -2.1338   -0.5746   -2.2178 H   0  0  0  0  0  0  0  0  0  0  0  0
    3.6154   -3.5740   -0.6046 H   0  0  0  0  0  0  0  0  0  0  0  0
    4.8097   -2.8836    0.4546 H   0  0  0  0  0  0  0  0  0  0  0  0
    1.1736   -3.3857   -0.6179 H   0  0  0  0  0  0  0  0  0  0  0  0
    0.3623   -2.3066   -1.7103 H   0  0  0  0  0  0  0  0  0  0  0  0
    1.9622   -2.8948   -2.1404 H   0  0  0  0  0  0  0  0  0  0  0  0
    0.8320    2.5216   -0.7163 H   0  0  0  0  0  0  0  0  0  0  0  0
    4.8672    1.4775    1.9531 H   0  0  0  0  0  0  0  0  0  0  0  0
   -1.6419    2.3447   -1.4259 H   0  0  0  0  0  0  0  0  0  0  0  0
   -3.0655    1.8852   -2.3710 H   0  0  0  0  0  0  0  0  0  0  0  0
   -1.4744    1.6276   -3.0305 H   0  0  0  0  0  0  0  0  0  0  0  0
    3.3351   -3.1746    2.4346 H   0  0  0  0  0  0  0  0  0  0  0  0
    3.6002   -4.7098    1.5918 H   0  0  0  0  0  0  0  0  0  0  0  0
    2.0598   -3.8534    1.4175 H   0  0  0  0  0  0  0  0  0  0  0  0
    2.0166    4.3068    0.4611 H   0  0  0  0  0  0  0  0  0  0  0  0
    4.0391    3.7884    1.7993 H   0  0  0  0  0  0  0  0  0  0  0  0
   -2.0473    0.7882    1.2183 H   0  0  0  0  0  0  0  0  0  0  0  0
   -4.5443   -0.7264   -1.9581 H   0  0  0  0  0  0  0  0  0  0  0  0
   -3.9037    0.5049    2.8057 H   0  0  0  0  0  0  0  0  0  0  0  0
   -6.4029   -0.9963   -0.3502 H   0  0  0  0  0  0  0  0  0  0  0  0
  1 25  1  0  0  0  0
  2 10  1  0  0  0  0
  2 12  1  0  0  0  0
  3 12  2  0  0  0  0
  4  8  2  0  0  0  0
  4  9  1  0  0  0  0
  5  6  2  0  0  0  0
  5  7  1  0  0  0  0
  5 12  1  0  0  0  0
  6  8  1  0  0  0  0
  6 13  1  0  0  0  0
  7  9  1  0  0  0  0
  7 14  2  0  0  0  0
  8 11  1  0  0  0  0
  9 16  2  0  0  0  0
 10 15  1  0  0  0  0
 10 17  1  0  0  0  0
 10 26  1  0  0  0  0
 11 18  1  0  0  0  0
 11 27  1  0  0  0  0
 11 28  1  0  0  0  0
 13 29  1  0  0  0  0
 13 30  1  0  0  0  0
 13 31  1  0  0  0  0
 14 19  1  0  0  0  0
 14 32  1  0  0  0  0
 15 21  2  0  0  0  0
 15 22  1  0  0  0  0
 16 20  1  0  0  0  0
 16 33  1  0  0  0  0
 17 34  1  0  0  0  0
 17 35  1  0  0  0  0
 17 36  1  0  0  0  0
 18 37  1  0  0  0  0
 18 38  1  0  0  0  0
 18 39  1  0  0  0  0
 19 20  2  0  0  0  0
 19 40  1  0  0  0  0
 20 41  1  0  0  0  0
 21 23  1  0  0  0  0
 21 42  1  0  0  0  0
 22 24  2  0  0  0  0
 22 43  1  0  0  0  0
 23 25  2  0  0  0  0
 23 44  1  0  0  0  0
 24 25  1  0  0  0  0
 24 45  1  0  0  0  0
M  END
> <PUBCHEM_COMPOUND_CID>
7847048

> <PUBCHEM_CONFORMER_RMSD>
0.8

> <PUBCHEM_CONFORMER_DIVERSEORDER>
2
17
15
6
23
20
18
1
21
16
11
14
19
5
22
12
13
7
4
8
9
3
10

> <PUBCHEM_MMFF94_PARTIAL_CHARGES>
30
1 -0.19
10 0.42
11 0.14
12 0.63
13 0.14
14 -0.15
15 -0.14
16 -0.15
19 -0.15
2 -0.43
20 -0.15
21 -0.15
22 -0.15
23 -0.15
24 -0.15
25 0.19
3 -0.57
32 0.15
33 0.15
4 -0.62
40 0.15
41 0.15
42 0.15
43 0.15
44 0.15
45 0.15
5 0.09
6 -0.14
8 0.17
9 0.31

> <PUBCHEM_EFFECTIVE_ROTOR_COUNT>
5

> <PUBCHEM_PHARMACOPHORE_FEATURES>
6
1 18 hydrophobe
1 3 acceptor
1 4 acceptor
6 15 21 22 23 24 25 rings
6 4 5 6 7 8 9 rings
6 7 9 14 16 19 20 rings

> <PUBCHEM_HEAVY_ATOM_COUNT>
25

> <PUBCHEM_ATOM_DEF_STEREO_COUNT>
1

> <PUBCHEM_ATOM_UDEF_STEREO_COUNT>
0

> <PUBCHEM_BOND_DEF_STEREO_COUNT>
0

> <PUBCHEM_BOND_UDEF_STEREO_COUNT>
0

> <PUBCHEM_ISOTOPIC_ATOM_COUNT>
0

> <PUBCHEM_COMPONENT_COUNT>
1

> <PUBCHEM_CACTVS_TAUTO_COUNT>
2

> <PUBCHEM_CONFORMER_ID>
0077BC8800000002

> <PUBCHEM_MMFF94_ENERGY>
79.3014

> <PUBCHEM_FEATURE_SELFOVERLAP>
30.477

> <PUBCHEM_SHAPE_FINGERPRINT>
10042902 136 14547641165173009136
10076449 9 18339916143528294486
10366900 7 18343293756272485148
10382601 240 18260557697412254064
10498660 4 14418123011841502883
10670039 82 15719934883176120817
114674 6 18131635603463068394
11640471 11 17386577847106545596
12363563 72 17060612300840828813
12390115 104 17832149316904832996
12403259 118 17385723660063675825
12549972 3 17913233093224794445
12633257 1 18410300176723188011
12644460 14 18334863805386694700
13140716 1 18049474494820561426
13533116 47 18413383242336154331
13583140 156 18339658826786965317
13965767 371 17240772774067652120
14341114 328 17603865572950176695
14739800 52 16733846180760178936
14849402 71 18187365377452336456
14950920 106 18334569166541269075
15142526 21 17754748121540045360
15238133 3 16515400785226299923
15475509 8 17458611338547430164
15475509 84 18042685194269748208
15842332 3 17459493089967349478
16992787 43 18260257552771487620
1813 80 17750790142274118718
19377110 9 17677330503486250455
20600515 1 16558209188085291909
20715895 44 17389088256029537913
20739085 24 18114747139683812206
21033648 29 18059588974761327341
21065201 7 17059224798496556749
21120745 212 5900205215779995564
21421861 104 18041550433813101449
21503847 285 17676194776124340628
21756936 100 17387982958816711880
21864079 5 15936983915890477433
23557571 272 17274276040074522941
23559900 14 17346877875325220887
23845131 108 17979088089046448650
2838139 119 14492751131222347032
31174 14 18340216270961655870
3178227 256 18411983538543747184
341906 21 15647052672965897019
3472631 163 14345808136055876547
38570 142 17897433996472188884
4409770 3 15590144441676363367
474 4 18115028489489585017
5104073 3 18262224574562580787
633830 44 17603866646296602724
7288768 16 17321569088896866808
7808743 9 15502665836250085417
86090 222 17632001040197015819
8988823 20 18408886235557111285
960060 61 11600008730447982017
9841814 1 18335695096112001278

> <PUBCHEM_SHAPE_MULTIPOLES>
490.49
11.18
3.4
2.03
16.25
0.7
-0.34
1.65
7.03
-7
1.13
1.65
-0.06
0.64

> <PUBCHEM_SHAPE_SELFOVERLAP>
1071.733

> <PUBCHEM_SHAPE_VOLUME>
269.2

> <PUBCHEM_COORDINATE_TYPE>
2
5
10

$$$$

