10859
  -OEChem-06261205033D

 51 52  0     0  0  0  0  0  0999 V2000
   -0.0198   -1.8750    0.2104 N   0  0  0  0  0  0  0  0  0  0  0  0
   -3.1377    0.2432   -0.2702 C   0  0  0  0  0  0  0  0  0  0  0  0
    3.3877   -0.2255   -0.2327 C   0  0  0  0  0  0  0  0  0  0  0  0
   -4.1779   -0.7059    0.3399 C   0  0  0  0  0  0  0  0  0  0  0  0
   -3.4560    1.7024    0.0828 C   0  0  0  0  0  0  0  0  0  0  0  0
    3.0310    1.2015    0.2054 C   0  0  0  0  0  0  0  0  0  0  0  0
    4.7895   -0.6130    0.2570 C   0  0  0  0  0  0  0  0  0  0  0  0
   -1.7304   -0.1292    0.1928 C   0  0  0  0  0  0  0  0  0  0  0  0
    2.3454   -1.2213    0.2725 C   0  0  0  0  0  0  0  0  0  0  0  0
   -5.5988   -0.3211   -0.0661 C   0  0  0  0  0  0  0  0  0  0  0  0
   -4.8781    2.0831   -0.3226 C   0  0  0  0  0  0  0  0  0  0  0  0
    4.0871    2.2093   -0.2428 C   0  0  0  0  0  0  0  0  0  0  0  0
    5.8427    0.3979   -0.1910 C   0  0  0  0  0  0  0  0  0  0  0  0
   -5.9085    1.1322    0.2785 C   0  0  0  0  0  0  0  0  0  0  0  0
    5.4802    1.8162    0.2384 C   0  0  0  0  0  0  0  0  0  0  0  0
   -1.3579   -1.5363   -0.2592 C   0  0  0  0  0  0  0  0  0  0  0  0
    0.9643   -0.9210   -0.3043 C   0  0  0  0  0  0  0  0  0  0  0  0
    0.3373   -3.2375   -0.1889 C   0  0  0  0  0  0  0  0  0  0  0  0
   -3.1830    0.1452   -1.3640 H   0  0  0  0  0  0  0  0  0  0  0  0
    3.3954   -0.2562   -1.3312 H   0  0  0  0  0  0  0  0  0  0  0  0
   -4.0980   -0.7002    1.4343 H   0  0  0  0  0  0  0  0  0  0  0  0
   -4.0230   -1.7370    0.0091 H   0  0  0  0  0  0  0  0  0  0  0  0
   -2.7482    2.3737   -0.4180 H   0  0  0  0  0  0  0  0  0  0  0  0
   -3.3346    1.8605    1.1622 H   0  0  0  0  0  0  0  0  0  0  0  0
    2.9238    1.2467    1.2964 H   0  0  0  0  0  0  0  0  0  0  0  0
    2.0828    1.5315   -0.2288 H   0  0  0  0  0  0  0  0  0  0  0  0
    5.0592   -1.6055   -0.1232 H   0  0  0  0  0  0  0  0  0  0  0  0
    4.7972   -0.6796    1.3525 H   0  0  0  0  0  0  0  0  0  0  0  0
   -1.6503   -0.0409    1.2839 H   0  0  0  0  0  0  0  0  0  0  0  0
   -1.0784    0.6290   -0.2500 H   0  0  0  0  0  0  0  0  0  0  0  0
    2.3098   -1.2094    1.3698 H   0  0  0  0  0  0  0  0  0  0  0  0
    2.6892   -2.2167   -0.0287 H   0  0  0  0  0  0  0  0  0  0  0  0
   -5.7249   -0.4751   -1.1450 H   0  0  0  0  0  0  0  0  0  0  0  0
   -6.3169   -0.9793    0.4361 H   0  0  0  0  0  0  0  0  0  0  0  0
   -5.0910    3.1086   -0.0001 H   0  0  0  0  0  0  0  0  0  0  0  0
   -4.9618    2.0683   -1.4163 H   0  0  0  0  0  0  0  0  0  0  0  0
    4.0854    2.2778   -1.3378 H   0  0  0  0  0  0  0  0  0  0  0  0
    3.8331    3.2044    0.1396 H   0  0  0  0  0  0  0  0  0  0  0  0
    6.8176    0.1240    0.2277 H   0  0  0  0  0  0  0  0  0  0  0  0
    5.9422    0.3612   -1.2828 H   0  0  0  0  0  0  0  0  0  0  0  0
   -6.9083    1.3930   -0.0862 H   0  0  0  0  0  0  0  0  0  0  0  0
   -5.9240    1.2532    1.3687 H   0  0  0  0  0  0  0  0  0  0  0  0
    6.2199    2.5217   -0.1564 H   0  0  0  0  0  0  0  0  0  0  0  0
    5.5219    1.8879    1.3322 H   0  0  0  0  0  0  0  0  0  0  0  0
   -1.4305   -1.6165   -1.3517 H   0  0  0  0  0  0  0  0  0  0  0  0
   -2.0493   -2.2646    0.1736 H   0  0  0  0  0  0  0  0  0  0  0  0
    0.9917   -0.9132   -1.4012 H   0  0  0  0  0  0  0  0  0  0  0  0
    0.7145    0.0780    0.0413 H   0  0  0  0  0  0  0  0  0  0  0  0
    1.2029   -3.6127    0.3649 H   0  0  0  0  0  0  0  0  0  0  0  0
    0.5296   -3.3226   -1.2647 H   0  0  0  0  0  0  0  0  0  0  0  0
   -0.4737   -3.9338    0.0580 H   0  0  0  0  0  0  0  0  0  0  0  0
  1 16  1  0  0  0  0
  1 17  1  0  0  0  0
  1 18  1  0  0  0  0
  2  4  1  0  0  0  0
  2  5  1  0  0  0  0
  2  8  1  0  0  0  0
  2 19  1  0  0  0  0
  3  6  1  0  0  0  0
  3  7  1  0  0  0  0
  3  9  1  0  0  0  0
  3 20  1  0  0  0  0
  4 10  1  0  0  0  0
  4 21  1  0  0  0  0
  4 22  1  0  0  0  0
  5 11  1  0  0  0  0
  5 23  1  0  0  0  0
  5 24  1  0  0  0  0
  6 12  1  0  0  0  0
  6 25  1  0  0  0  0
  6 26  1  0  0  0  0
  7 13  1  0  0  0  0
  7 27  1  0  0  0  0
  7 28  1  0  0  0  0
  8 16  1  0  0  0  0
  8 29  1  0  0  0  0
  8 30  1  0  0  0  0
  9 17  1  0  0  0  0
  9 31  1  0  0  0  0
  9 32  1  0  0  0  0
 10 14  1  0  0  0  0
 10 33  1  0  0  0  0
 10 34  1  0  0  0  0
 11 14  1  0  0  0  0
 11 35  1  0  0  0  0
 11 36  1  0  0  0  0
 12 15  1  0  0  0  0
 12 37  1  0  0  0  0
 12 38  1  0  0  0  0
 13 15  1  0  0  0  0
 13 39  1  0  0  0  0
 13 40  1  0  0  0  0
 14 41  1  0  0  0  0
 14 42  1  0  0  0  0
 15 43  1  0  0  0  0
 15 44  1  0  0  0  0
 16 45  1  0  0  0  0
 16 46  1  0  0  0  0
 17 47  1  0  0  0  0
 17 48  1  0  0  0  0
 18 49  1  0  0  0  0
 18 50  1  0  0  0  0
 18 51  1  0  0  0  0
M  END
> <PUBCHEM_COMPOUND_CID>
10859

> <PUBCHEM_CONFORMER_RMSD>
0.8

> <PUBCHEM_CONFORMER_DIVERSEORDER>
1
27
26
22
78
13
79
44
8
7
45
32
35
46
49
64
23
33
19
12
38
3
39
15
67
21
50
14
5
71
61
11
75
77
42
30
4
52
16
31
2
76
60
69
62
43
56
20
58
70
47
17
25
48
65
51
10
37
29
28
68
72
57
40
6
9
66
36
18
54
24
59
74
34
41
63
55
73
53

> <PUBCHEM_MMFF94_PARTIAL_CHARGES>
4
1 -0.81
16 0.27
17 0.27
18 0.27

> <PUBCHEM_EFFECTIVE_ROTOR_COUNT>
8.4

> <PUBCHEM_PHARMACOPHORE_FEATURES>
3
1 1 cation
6 2 4 5 10 11 14 rings
6 3 6 7 12 13 15 rings

> <PUBCHEM_HEAVY_ATOM_COUNT>
18

> <PUBCHEM_ATOM_DEF_STEREO_COUNT>
0

> <PUBCHEM_ATOM_UDEF_STEREO_COUNT>
0

> <PUBCHEM_BOND_DEF_STEREO_COUNT>
0

> <PUBCHEM_BOND_UDEF_STEREO_COUNT>
0

> <PUBCHEM_ISOTOPIC_ATOM_COUNT>
0

> <PUBCHEM_COMPONENT_COUNT>
1

> <PUBCHEM_CACTVS_TAUTO_COUNT>
1

> <PUBCHEM_CONFORMER_ID>
00002A6B00000001

> <PUBCHEM_MMFF94_ENERGY>
21.3247

> <PUBCHEM_FEATURE_SELFOVERLAP>
15.223

> <PUBCHEM_SHAPE_FINGERPRINT>
10411042 1 17689998264491977878
10447042 23 9007060141314881248
12596602 18 17131552751861922961
12633257 1 15769769130838899412
12769317 202 18335148634305797097
13167372 99 18410012173617889376
13402501 40 18411419513904671564
13740256 8 9079108964676175535
13785724 45 17834963345059814834
13955234 65 18197494241159338515
14123255 352 18410575093268948293
14123255 52 18410575089016419342
14251751 18 7565345335987563881
14251764 18 18273501165690223002
14257110 125 18411699876515851532
14528608 73 18408605868312782263
14576447 43 8070036571296116996
15188451 53 15338542840201256657
15196674 1 18410856563961403456
17834072 32 18410292493327245694
17834072 8 18260540118379734428
20281389 69 18343022202791716344
20374829 77 8574715688966754999
20621476 66 18340765941309117260
21033648 29 18335990770203146048
212847 35 18408044000960177408
21315764 268 18343871017300101724
23227448 37 18334859368559053215
23272321 79 18410856551556263711
23402539 116 18260554402460019462
23402655 69 18113621191941609054
23559900 14 18050007998114977195
245318 6 17773296955578096180
2838139 119 18408891728198121940
2916195 48 18335986393551972832
293599 30 18409729551948006126
335352 9 18410291420339964958
34797466 226 18040710403293746911
351380 180 18412544318683939880
351380 3 10015864271169617208
4325135 7 18260833683541852823
465052 167 11024107659691262360
474 4 18409729598965923139
5104073 3 18129372869279280355
54446538 1 18411140233682187664
633830 44 18335143128099955207
77188 2 17402331971589988726
7808743 9 18338240357976570770
960060 61 6555405448785540586
9981440 41 18343860013826063363

> <PUBCHEM_SHAPE_MULTIPOLES>
365.45
15.54
2.71
0.67
1.58
0.8
0
-9.63
0.42
-0.47
-0.14
0.01
-0.01
0.06

> <PUBCHEM_SHAPE_SELFOVERLAP>
714.186

> <PUBCHEM_SHAPE_VOLUME>
216.4

> <PUBCHEM_COORDINATE_TYPE>
2
5
10

$$$$

