241544
  -OEChem-07051213062D

 46 49  0     1  0  0  0  0  0999 V2000
    5.0182    0.6875    0.0000 O   0  0  0  0  0  0  0  0  0  0  0  0
    8.6500    2.1767    0.0000 O   0  0  0  0  0  0  0  0  0  0  0  0
    2.0000   -2.1309    0.0000 O   0  0  0  0  0  0  0  0  0  0  0  0
    6.5271   -0.5785    0.0000 C   0  0  1  0  0  0  0  0  0  0  0  0
    7.3931   -0.0785    0.0000 C   0  0  1  0  0  0  0  0  0  0  0  0
    5.6610   -0.0785    0.0000 C   0  0  2  0  0  0  0  0  0  0  0  0
    7.3931    0.9215    0.0000 C   0  0  2  0  0  0  0  0  0  0  0  0
    4.7510   -0.5854    0.0000 C   0  0  1  0  0  0  0  0  0  0  0  0
    5.6610    0.9215    0.0000 C   0  0  0  0  0  0  0  0  0  0  0  0
    6.5271    1.4215    0.0000 C   0  0  0  0  0  0  0  0  0  0  0  0
    8.3393   -0.3833    0.0000 C   0  0  0  0  0  0  0  0  0  0  0  0
    6.5431   -1.6200    0.0000 C   0  0  0  0  0  0  0  0  0  0  0  0
    8.3393    1.2262    0.0000 C   0  0  0  0  0  0  0  0  0  0  0  0
    8.9229    0.4215    0.0000 C   0  0  0  0  0  0  0  0  0  0  0  0
    4.7430   -1.6270    0.0000 C   0  0  0  0  0  0  0  0  0  0  0  0
    5.6451   -2.1478    0.0000 C   0  0  0  0  0  0  0  0  0  0  0  0
    7.3931    1.9215    0.0000 C   0  0  0  0  0  0  0  0  0  0  0  0
    4.4163    0.3569    0.0000 C   0  0  0  0  0  0  0  0  0  0  0  0
    3.8242   -0.0213    0.0000 C   0  0  0  0  0  0  0  0  0  0  0  0
    3.8076   -2.1767    0.0000 C   0  0  0  0  0  0  0  0  0  0  0  0
    2.8763   -0.5493    0.0000 C   0  0  0  0  0  0  0  0  0  0  0  0
    2.8680   -1.6342    0.0000 C   0  0  0  0  0  0  0  0  0  0  0  0
    7.2664   -0.9979    0.0000 H   0  0  0  0  0  0  0  0  0  0  0  0
    7.4830   -0.9238    0.0000 H   0  0  0  0  0  0  0  0  0  0  0  0
    5.4490    1.5041    0.0000 H   0  0  0  0  0  0  0  0  0  0  0  0
    5.0504    0.8138    0.0000 H   0  0  0  0  0  0  0  0  0  0  0  0
    6.9256    1.8964    0.0000 H   0  0  0  0  0  0  0  0  0  0  0  0
    6.1285    1.8964    0.0000 H   0  0  0  0  0  0  0  0  0  0  0  0
    8.0883   -0.9502    0.0000 H   0  0  0  0  0  0  0  0  0  0  0  0
    8.8767   -0.6925    0.0000 H   0  0  0  0  0  0  0  0  0  0  0  0
    6.7612   -2.2004    0.0000 H   0  0  0  0  0  0  0  0  0  0  0  0
    7.1523   -1.5046    0.0000 H   0  0  0  0  0  0  0  0  0  0  0  0
    9.3838    0.0067    0.0000 H   0  0  0  0  0  0  0  0  0  0  0  0
    9.3838    0.8362    0.0000 H   0  0  0  0  0  0  0  0  0  0  0  0
    5.2478   -2.6238    0.0000 H   0  0  0  0  0  0  0  0  0  0  0  0
    6.0460   -2.6207    0.0000 H   0  0  0  0  0  0  0  0  0  0  0  0
    8.0131    1.9215    0.0000 H   0  0  0  0  0  0  0  0  0  0  0  0
    7.3931    2.5415    0.0000 H   0  0  0  0  0  0  0  0  0  0  0  0
    6.7731    1.9215    0.0000 H   0  0  0  0  0  0  0  0  0  0  0  0
    5.0005    0.5645    0.0000 H   0  0  0  0  0  0  0  0  0  0  0  0
    4.2087    0.9411    0.0000 H   0  0  0  0  0  0  0  0  0  0  0  0
    3.8320    0.1494    0.0000 H   0  0  0  0  0  0  0  0  0  0  0  0
    3.8361    0.5986    0.0000 H   0  0  0  0  0  0  0  0  0  0  0  0
    4.9106    1.2981    0.0000 H   0  0  0  0  0  0  0  0  0  0  0  0
    3.8100   -2.7967    0.0000 H   0  0  0  0  0  0  0  0  0  0  0  0
    2.3430   -0.2331    0.0000 H   0  0  0  0  0  0  0  0  0  0  0  0
  6  1  1  6  0  0  0
  1 44  1  0  0  0  0
  2 13  2  0  0  0  0
  3 22  2  0  0  0  0
  4  5  1  0  0  0  0
  4  6  1  0  0  0  0
  4 12  1  0  0  0  0
  4 23  1  1  0  0  0
  5  7  1  0  0  0  0
  5 11  1  0  0  0  0
  5 24  1  6  0  0  0
  6  8  1  0  0  0  0
  6  9  1  0  0  0  0
  7 10  1  0  0  0  0
  7 13  1  0  0  0  0
  7 17  1  1  0  0  0
  8 15  1  0  0  0  0
  8 18  1  1  0  0  0
  8 19  1  0  0  0  0
  9 10  1  0  0  0  0
  9 25  1  0  0  0  0
  9 26  1  0  0  0  0
 10 27  1  0  0  0  0
 10 28  1  0  0  0  0
 11 14  1  0  0  0  0
 11 29  1  0  0  0  0
 11 30  1  0  0  0  0
 12 16  1  0  0  0  0
 12 31  1  0  0  0  0
 12 32  1  0  0  0  0
 13 14  1  0  0  0  0
 14 33  1  0  0  0  0
 14 34  1  0  0  0  0
 15 16  1  0  0  0  0
 15 20  2  0  0  0  0
 16 35  1  0  0  0  0
 16 36  1  0  0  0  0
 17 37  1  0  0  0  0
 17 38  1  0  0  0  0
 17 39  1  0  0  0  0
 18 40  1  0  0  0  0
 18 41  1  0  0  0  0
 18 42  1  0  0  0  0
 19 21  2  0  0  0  0
 19 43  1  0  0  0  0
 20 22  1  0  0  0  0
 20 45  1  0  0  0  0
 21 22  1  0  0  0  0
 21 46  1  0  0  0  0
M  END
> <PUBCHEM_COMPOUND_CID>
241544

> <PUBCHEM_COMPOUND_CANONICALIZED>
1

> <PUBCHEM_CACTVS_COMPLEXITY>
631

> <PUBCHEM_CACTVS_HBOND_ACCEPTOR>
3

> <PUBCHEM_CACTVS_HBOND_DONOR>
1

> <PUBCHEM_CACTVS_ROTATABLE_BOND>
0

> <PUBCHEM_CACTVS_SUBSKEYS>
AAADceB4MAAAAAAAAAAAAAAAAAAAAYAAAAAwYIAAAAAAAGDAAAAAGgAACAAAD0SAgAACAAAAAgCIAqBSAAAAAAAgAAAICAEAAEgAABIAAQAAQAAEwAAIAYOIzPDPgAAAAAAAAADAAAYAADAAAAAACAAAAA==

> <PUBCHEM_IUPAC_OPENEYE_NAME>
(8S,9R,10S,13S,14S)-9-hydroxy-10,13-dimethyl-6,7,8,11,12,14,15,16-octahydrocyclopenta[a]phenanthrene-3,17-dione

> <PUBCHEM_IUPAC_CAS_NAME>
(8S,9R,10S,13S,14S)-9-hydroxy-10,13-dimethyl-6,7,8,11,12,14,15,16-octahydrocyclopenta[a]phenanthrene-3,17-dione

> <PUBCHEM_IUPAC_NAME>
(8S,9R,10S,13S,14S)-9-hydroxy-10,13-dimethyl-6,7,8,11,12,14,15,16-octahydrocyclopenta[a]phenanthrene-3,17-dione

> <PUBCHEM_IUPAC_SYSTEMATIC_NAME>
(8S,9R,10S,13S,14S)-10,13-dimethyl-9-oxidanyl-6,7,8,11,12,14,15,16-octahydrocyclopenta[a]phenanthrene-3,17-dione

> <PUBCHEM_IUPAC_TRADITIONAL_NAME>
(8S,9R,10S,13S,14S)-9-hydroxy-10,13-dimethyl-6,7,8,11,12,14,15,16-octahydrocyclopenta[a]phenanthrene-3,17-quinone

> <PUBCHEM_IUPAC_INCHI>
InChI=1S/C19H24O3/c1-17-9-10-19(22)15(14(17)5-6-16(17)21)4-3-12-11-13(20)7-8-18(12,19)2/h7-8,11,14-15,22H,3-6,9-10H2,1-2H3/t14-,15-,17-,18-,19+/m0/s1

> <PUBCHEM_IUPAC_INCHIKEY>
JCEUDJXAQHPZGL-PLOWYNNNSA-N

> <PUBCHEM_XLOGP3_AA>
1.8

> <PUBCHEM_EXACT_MASS>
300.172545

> <PUBCHEM_MOLECULAR_FORMULA>
C19H24O3

> <PUBCHEM_MOLECULAR_WEIGHT>
300.39206

> <PUBCHEM_OPENEYE_CAN_SMILES>
CC12CCC3(C(C1CCC2=O)CCC4=CC(=O)C=CC43C)O

> <PUBCHEM_OPENEYE_ISO_SMILES>
C[C@]12CC[C@]3([C@H]([C@@H]1CCC2=O)CCC4=CC(=O)C=C[C@@]43C)O

> <PUBCHEM_CACTVS_TPSA>
54.4

> <PUBCHEM_MONOISOTOPIC_WEIGHT>
300.172545

> <PUBCHEM_TOTAL_CHARGE>
0

> <PUBCHEM_HEAVY_ATOM_COUNT>
22

> <PUBCHEM_ATOM_DEF_STEREO_COUNT>
5

> <PUBCHEM_ATOM_UDEF_STEREO_COUNT>
0

> <PUBCHEM_BOND_DEF_STEREO_COUNT>
0

> <PUBCHEM_BOND_UDEF_STEREO_COUNT>
0

> <PUBCHEM_ISOTOPIC_ATOM_COUNT>
0

> <PUBCHEM_COMPONENT_COUNT>
1

> <PUBCHEM_CACTVS_TAUTO_COUNT>
6

> <PUBCHEM_COORDINATE_TYPE>
1
5
255

> <PUBCHEM_BONDANNOTATIONS>
6  1  6
4  23  5
5  24  6
7  17  5
8  18  5

$$$$

