13965
  -OEChem-06241222412D

 45 47  0     1  0  0  0  0  0999 V2000
    2.5010    1.8184    0.0000 S   0  0  0  0  0  0  0  0  0  0  0  0
    4.8100    1.0966    0.0000 O   0  0  0  0  0  0  0  0  0  0  0  0
    2.3100    0.2306    0.0000 O   0  0  0  0  0  0  0  0  0  0  0  0
    4.8100   -0.6354    0.0000 O   0  0  0  0  0  0  0  0  0  0  0  0
    7.3488    1.5966    0.0000 N   0  3  0  0  0  0  0  0  0  0  0  0
    6.3978    1.9056    0.0000 C   0  0  0  0  0  0  0  0  0  0  0  0
    7.3488    0.5966    0.0000 C   0  0  0  0  0  0  0  0  0  0  0  0
    5.8100    1.0966    0.0000 C   0  0  3  0  0  0  0  0  0  0  0  0
    6.3978    0.2876    0.0000 C   0  0  0  0  0  0  0  0  0  0  0  0
    8.3488    1.5966    0.0000 C   0  0  0  0  0  0  0  0  0  0  0  0
    7.6579    2.5477    0.0000 C   0  0  0  0  0  0  0  0  0  0  0  0
    4.3100    0.2306    0.0000 C   0  0  0  0  0  0  0  0  0  0  0  0
    3.3100    0.2306    0.0000 C   0  0  3  0  0  0  0  0  0  0  0  0
    3.3100   -0.7694    0.0000 C   0  0  0  0  0  0  0  0  0  0  0  0
    3.3100    1.2306    0.0000 C   0  0  0  0  0  0  0  0  0  0  0  0
    2.4440   -1.2694    0.0000 C   0  0  0  0  0  0  0  0  0  0  0  0
    4.1760   -1.2694    0.0000 C   0  0  0  0  0  0  0  0  0  0  0  0
    4.1190    1.8184    0.0000 C   0  0  0  0  0  0  0  0  0  0  0  0
    3.8100    2.7694    0.0000 C   0  0  0  0  0  0  0  0  0  0  0  0
    2.4440   -2.2694    0.0000 C   0  0  0  0  0  0  0  0  0  0  0  0
    4.1760   -2.2694    0.0000 C   0  0  0  0  0  0  0  0  0  0  0  0
    2.8100    2.7694    0.0000 C   0  0  0  0  0  0  0  0  0  0  0  0
    3.3100   -2.7694    0.0000 C   0  0  0  0  0  0  0  0  0  0  0  0
    6.6500    2.4720    0.0000 H   0  0  0  0  0  0  0  0  0  0  0  0
    5.8608    2.2156    0.0000 H   0  0  0  0  0  0  0  0  0  0  0  0
    7.4778   -0.0098    0.0000 H   0  0  0  0  0  0  0  0  0  0  0  0
    7.9654    0.6614    0.0000 H   0  0  0  0  0  0  0  0  0  0  0  0
    5.4241    0.3392    0.0000 H   0  0  0  0  0  0  0  0  0  0  0  0
    5.8608   -0.0224    0.0000 H   0  0  0  0  0  0  0  0  0  0  0  0
    6.6500   -0.2788    0.0000 H   0  0  0  0  0  0  0  0  0  0  0  0
    8.3488    0.9766    0.0000 H   0  0  0  0  0  0  0  0  0  0  0  0
    8.9688    1.5966    0.0000 H   0  0  0  0  0  0  0  0  0  0  0  0
    8.3488    2.2166    0.0000 H   0  0  0  0  0  0  0  0  0  0  0  0
    8.2475    2.3561    0.0000 H   0  0  0  0  0  0  0  0  0  0  0  0
    7.8494    3.1373    0.0000 H   0  0  0  0  0  0  0  0  0  0  0  0
    7.0682    2.7393    0.0000 H   0  0  0  0  0  0  0  0  0  0  0  0
    2.0000    0.7675    0.0000 H   0  0  0  0  0  0  0  0  0  0  0  0
    1.9070   -0.9594    0.0000 H   0  0  0  0  0  0  0  0  0  0  0  0
    4.7130   -0.9594    0.0000 H   0  0  0  0  0  0  0  0  0  0  0  0
    4.7087    1.6268    0.0000 H   0  0  0  0  0  0  0  0  0  0  0  0
    4.1744    3.2710    0.0000 H   0  0  0  0  0  0  0  0  0  0  0  0
    1.9070   -2.5794    0.0000 H   0  0  0  0  0  0  0  0  0  0  0  0
    4.7130   -2.5794    0.0000 H   0  0  0  0  0  0  0  0  0  0  0  0
    2.4456    3.2710    0.0000 H   0  0  0  0  0  0  0  0  0  0  0  0
    3.3100   -3.3894    0.0000 H   0  0  0  0  0  0  0  0  0  0  0  0
  1 15  1  0  0  0  0
  1 22  1  0  0  0  0
  2  8  1  0  0  0  0
  2 12  1  0  0  0  0
  3 13  1  0  0  0  0
  3 37  1  0  0  0  0
  4 12  2  0  0  0  0
  5  6  1  0  0  0  0
  5  7  1  0  0  0  0
  5 10  1  0  0  0  0
  5 11  1  0  0  0  0
  6  8  1  0  0  0  0
  6 24  1  0  0  0  0
  6 25  1  0  0  0  0
  7  9  1  0  0  0  0
  7 26  1  0  0  0  0
  7 27  1  0  0  0  0
  8  9  1  0  0  0  0
  8 28  1  0  0  0  0
  9 29  1  0  0  0  0
  9 30  1  0  0  0  0
 10 31  1  0  0  0  0
 10 32  1  0  0  0  0
 10 33  1  0  0  0  0
 11 34  1  0  0  0  0
 11 35  1  0  0  0  0
 11 36  1  0  0  0  0
 12 13  1  0  0  0  0
 13 14  1  0  0  0  0
 13 15  1  0  0  0  0
 14 16  2  0  0  0  0
 14 17  1  0  0  0  0
 15 18  2  0  0  0  0
 16 20  1  0  0  0  0
 16 38  1  0  0  0  0
 17 21  2  0  0  0  0
 17 39  1  0  0  0  0
 18 19  1  0  0  0  0
 18 40  1  0  0  0  0
 19 22  2  0  0  0  0
 19 41  1  0  0  0  0
 20 23  2  0  0  0  0
 20 42  1  0  0  0  0
 21 23  1  0  0  0  0
 21 43  1  0  0  0  0
 22 44  1  0  0  0  0
 23 45  1  0  0  0  0
M  CHG  1   5   1
M  END
> <PUBCHEM_COMPOUND_CID>
13965

> <PUBCHEM_COMPOUND_CANONICALIZED>
1

> <PUBCHEM_CACTVS_COMPLEXITY>
436

> <PUBCHEM_CACTVS_HBOND_ACCEPTOR>
4

> <PUBCHEM_CACTVS_HBOND_DONOR>
1

> <PUBCHEM_CACTVS_ROTATABLE_BOND>
5

> <PUBCHEM_CACTVS_SUBSKEYS>
AAADceB6MABAAAAAAAAAAAAAAAAAAWJAAAAwAAAAAAAAAAABwAAAHgQACAAADFTl2AayCYMABgiMAiDSCAIDAIAgCBBIiBlICIgLJjKglRCHcAAmwAG7mAeIyOCOgAAAAAAAAAAAAAAAAAAAAAAAAAAAAA==

> <PUBCHEM_IUPAC_OPENEYE_NAME>
(1,1-dimethylpyrrolidin-1-ium-3-yl) 2-hydroxy-2-phenyl-2-(2-thienyl)acetate

> <PUBCHEM_IUPAC_CAS_NAME>
2-hydroxy-2-phenyl-2-thiophen-2-ylacetic acid (1,1-dimethyl-3-pyrrolidin-1-iumyl) ester

> <PUBCHEM_IUPAC_NAME>
(1,1-dimethylpyrrolidin-1-ium-3-yl) 2-hydroxy-2-phenyl-2-thiophen-2-ylacetate

> <PUBCHEM_IUPAC_SYSTEMATIC_NAME>
(1,1-dimethylpyrrolidin-1-ium-3-yl) 2-oxidanyl-2-phenyl-2-thiophen-2-yl-ethanoate

> <PUBCHEM_IUPAC_TRADITIONAL_NAME>
2-hydroxy-2-phenyl-2-(2-thienyl)acetic acid (1,1-dimethylpyrrolidin-1-ium-3-yl) ester

> <PUBCHEM_IUPAC_INCHI>
InChI=1S/C18H22NO3S/c1-19(2)11-10-15(13-19)22-17(20)18(21,16-9-6-12-23-16)14-7-4-3-5-8-14/h3-9,12,15,21H,10-11,13H2,1-2H3/q+1

> <PUBCHEM_IUPAC_INCHIKEY>
IGWCFPFGZULDHY-UHFFFAOYSA-N

> <PUBCHEM_XLOGP3_AA>
2.6

> <PUBCHEM_EXACT_MASS>
332.13204

> <PUBCHEM_MOLECULAR_FORMULA>
C18H22NO3S+

> <PUBCHEM_MOLECULAR_WEIGHT>
332.43718

> <PUBCHEM_OPENEYE_CAN_SMILES>
C[N+]1(CCC(C1)OC(=O)C(C2=CC=CC=C2)(C3=CC=CS3)O)C

> <PUBCHEM_OPENEYE_ISO_SMILES>
C[N+]1(CCC(C1)OC(=O)C(C2=CC=CC=C2)(C3=CC=CS3)O)C

> <PUBCHEM_CACTVS_TPSA>
74.8

> <PUBCHEM_MONOISOTOPIC_WEIGHT>
332.13204

> <PUBCHEM_TOTAL_CHARGE>
1

> <PUBCHEM_HEAVY_ATOM_COUNT>
23

> <PUBCHEM_ATOM_DEF_STEREO_COUNT>
0

> <PUBCHEM_ATOM_UDEF_STEREO_COUNT>
2

> <PUBCHEM_BOND_DEF_STEREO_COUNT>
0

> <PUBCHEM_BOND_UDEF_STEREO_COUNT>
0

> <PUBCHEM_ISOTOPIC_ATOM_COUNT>
0

> <PUBCHEM_COMPONENT_COUNT>
1

> <PUBCHEM_CACTVS_TAUTO_COUNT>
1

> <PUBCHEM_COORDINATE_TYPE>
1
5
255

> <PUBCHEM_BONDANNOTATIONS>
1  15  8
1  22  8
13  12  3
14  16  8
14  17  8
15  18  8
16  20  8
17  21  8
18  19  8
19  22  8
20  23  8
21  23  8
8  28  3

$$$$

