157143
  -OEChem-07051212563D

 71 76  0     1  0  0  0  0  0999 V2000
   -1.5855    0.9732   -2.5144 O   0  0  0  0  0  0  0  0  0  0  0  0
   -5.0437    1.6701    1.1824 O   0  0  0  0  0  0  0  0  0  0  0  0
   -0.6767   -1.2244    2.1982 O   0  0  0  0  0  0  0  0  0  0  0  0
    0.2640   -1.1107   -2.5024 O   0  0  0  0  0  0  0  0  0  0  0  0
    0.6016    2.4671   -2.3313 O   0  0  0  0  0  0  0  0  0  0  0  0
   -7.1827   -2.0898    3.1829 O   0  0  0  0  0  0  0  0  0  0  0  0
    4.7064   -0.8595   -0.4140 O   0  0  0  0  0  0  0  0  0  0  0  0
    0.4121    5.7346    1.1310 O   0  0  0  0  0  0  0  0  0  0  0  0
    9.5109   -0.5584   -0.7748 O   0  0  0  0  0  0  0  0  0  0  0  0
   -2.4080    0.1330   -0.4399 C   0  0  1  0  0  0  0  0  0  0  0  0
   -3.8855    0.0645   -0.8981 C   0  0  1  0  0  0  0  0  0  0  0  0
   -1.7253   -1.2584   -0.4583 C   0  0  1  0  0  0  0  0  0  0  0  0
   -4.0175   -0.6279   -2.2782 C   0  0  0  0  0  0  0  0  0  0  0  0
   -3.0828   -1.7906   -2.5124 C   0  0  0  0  0  0  0  0  0  0  0  0
   -2.0642   -2.0751   -1.6832 C   0  0  0  0  0  0  0  0  0  0  0  0
   -4.7749   -0.5022    0.2058 C   0  0  0  0  0  0  0  0  0  0  0  0
   -0.2331   -1.1689   -0.1575 C   0  0  0  0  0  0  0  0  0  0  0  0
   -1.6953    1.1439   -1.3025 C   0  0  0  0  0  0  0  0  0  0  0  0
   -3.3660   -2.6237   -3.7281 C   0  0  0  0  0  0  0  0  0  0  0  0
   -5.3054    0.3330    1.1850 C   0  0  0  0  0  0  0  0  0  0  0  0
   -1.1211    2.3629   -0.6660 C   0  0  0  0  0  0  0  0  0  0  0  0
    0.2072   -1.1571    1.1632 C   0  0  0  0  0  0  0  0  0  0  0  0
    0.6811   -1.0997   -1.2052 C   0  0  0  0  0  0  0  0  0  0  0  0
   -5.0484   -1.8671    0.2201 C   0  0  0  0  0  0  0  0  0  0  0  0
    1.5723   -1.0756    1.4383 C   0  0  0  0  0  0  0  0  0  0  0  0
    2.0462   -1.0180   -0.9299 C   0  0  0  0  0  0  0  0  0  0  0  0
   -6.1159   -0.2011    2.1869 C   0  0  0  0  0  0  0  0  0  0  0  0
   -5.8588   -2.4011    1.2218 C   0  0  0  0  0  0  0  0  0  0  0  0
    2.4918   -1.0061    0.3919 C   0  0  0  0  0  0  0  0  0  0  0  0
   -0.0059    2.9580   -1.2143 C   0  0  0  0  0  0  0  0  0  0  0  0
   -1.7433    2.8550    0.4615 C   0  0  0  0  0  0  0  0  0  0  0  0
   -6.3926   -1.5682    2.2052 C   0  0  0  0  0  0  0  0  0  0  0  0
    3.9034   -0.9219    0.6764 C   0  0  0  0  0  0  0  0  0  0  0  0
    0.5134    4.1006   -0.6058 C   0  0  0  0  0  0  0  0  0  0  0  0
   -1.2241    3.9976    1.0700 C   0  0  0  0  0  0  0  0  0  0  0  0
   -0.0957    4.6205    0.5363 C   0  0  0  0  0  0  0  0  0  0  0  0
    4.6358   -0.8902    1.8347 C   0  0  0  0  0  0  0  0  0  0  0  0
    5.9967   -0.8018    1.4395 C   0  0  0  0  0  0  0  0  0  0  0  0
    5.9862   -0.7858    0.0486 C   0  0  0  0  0  0  0  0  0  0  0  0
    7.2345   -0.7335    2.1026 C   0  0  0  0  0  0  0  0  0  0  0  0
    7.1321   -0.7058   -0.7408 C   0  0  0  0  0  0  0  0  0  0  0  0
    8.3517   -0.6389   -0.0606 C   0  0  0  0  0  0  0  0  0  0  0  0
    8.4049   -0.6526    1.3355 C   0  0  0  0  0  0  0  0  0  0  0  0
   -2.3778    0.4574    0.6026 H   0  0  0  0  0  0  0  0  0  0  0  0
   -4.2332    1.0810   -1.1129 H   0  0  0  0  0  0  0  0  0  0  0  0
   -2.1704   -1.8692    0.3391 H   0  0  0  0  0  0  0  0  0  0  0  0
   -3.8342    0.1077   -3.0723 H   0  0  0  0  0  0  0  0  0  0  0  0
   -5.0550   -0.9559   -2.4256 H   0  0  0  0  0  0  0  0  0  0  0  0
   -1.4697   -2.9675   -1.8706 H   0  0  0  0  0  0  0  0  0  0  0  0
   -3.3203   -2.0046   -4.6299 H   0  0  0  0  0  0  0  0  0  0  0  0
   -4.3645   -3.0676   -3.6602 H   0  0  0  0  0  0  0  0  0  0  0  0
   -2.6456   -3.4396   -3.8481 H   0  0  0  0  0  0  0  0  0  0  0  0
   -4.6585   -2.5547   -0.5198 H   0  0  0  0  0  0  0  0  0  0  0  0
    1.8945   -1.0677    2.4767 H   0  0  0  0  0  0  0  0  0  0  0  0
    2.7429   -0.9641   -1.7632 H   0  0  0  0  0  0  0  0  0  0  0  0
   -6.5284    0.4534    2.9508 H   0  0  0  0  0  0  0  0  0  0  0  0
   -6.0709   -3.4668    1.2316 H   0  0  0  0  0  0  0  0  0  0  0  0
   -2.6419    2.4333    0.8886 H   0  0  0  0  0  0  0  0  0  0  0  0
   -4.9727    2.0065    0.2773 H   0  0  0  0  0  0  0  0  0  0  0  0
   -1.5625   -0.9417    1.9283 H   0  0  0  0  0  0  0  0  0  0  0  0
    1.0384   -1.0517   -3.0877 H   0  0  0  0  0  0  0  0  0  0  0  0
    1.3929    4.5872   -1.0207 H   0  0  0  0  0  0  0  0  0  0  0  0
   -1.7076    4.4034    1.9545 H   0  0  0  0  0  0  0  0  0  0  0  0
    4.2584   -0.9255    2.8473 H   0  0  0  0  0  0  0  0  0  0  0  0
    1.3670    3.0261   -2.5493 H   0  0  0  0  0  0  0  0  0  0  0  0
   -7.4638   -1.3729    3.7771 H   0  0  0  0  0  0  0  0  0  0  0  0
    7.2912   -0.7429    3.1868 H   0  0  0  0  0  0  0  0  0  0  0  0
    1.1914    6.0321    0.6307 H   0  0  0  0  0  0  0  0  0  0  0  0
    7.0713   -0.6965   -1.8231 H   0  0  0  0  0  0  0  0  0  0  0  0
    9.3657   -0.5995    1.8422 H   0  0  0  0  0  0  0  0  0  0  0  0
    9.2970   -0.5599   -1.7237 H   0  0  0  0  0  0  0  0  0  0  0  0
  1 18  2  0  0  0  0
  2 20  1  0  0  0  0
  2 59  1  0  0  0  0
  3 22  1  0  0  0  0
  3 60  1  0  0  0  0
  4 23  1  0  0  0  0
  4 61  1  0  0  0  0
  5 30  1  0  0  0  0
  5 65  1  0  0  0  0
  6 32  1  0  0  0  0
  6 66  1  0  0  0  0
  7 33  1  0  0  0  0
  7 39  1  0  0  0  0
  8 36  1  0  0  0  0
  8 68  1  0  0  0  0
  9 42  1  0  0  0  0
  9 71  1  0  0  0  0
 10 11  1  0  0  0  0
 10 12  1  0  0  0  0
 10 18  1  0  0  0  0
 10 44  1  0  0  0  0
 11 13  1  0  0  0  0
 11 16  1  0  0  0  0
 11 45  1  0  0  0  0
 12 15  1  0  0  0  0
 12 17  1  0  0  0  0
 12 46  1  0  0  0  0
 13 14  1  0  0  0  0
 13 47  1  0  0  0  0
 13 48  1  0  0  0  0
 14 15  2  0  0  0  0
 14 19  1  0  0  0  0
 15 49  1  0  0  0  0
 16 20  2  0  0  0  0
 16 24  1  0  0  0  0
 17 22  2  0  0  0  0
 17 23  1  0  0  0  0
 18 21  1  0  0  0  0
 19 50  1  0  0  0  0
 19 51  1  0  0  0  0
 19 52  1  0  0  0  0
 20 27  1  0  0  0  0
 21 30  2  0  0  0  0
 21 31  1  0  0  0  0
 22 25  1  0  0  0  0
 23 26  2  0  0  0  0
 24 28  2  0  0  0  0
 24 53  1  0  0  0  0
 25 29  2  0  0  0  0
 25 54  1  0  0  0  0
 26 29  1  0  0  0  0
 26 55  1  0  0  0  0
 27 32  2  0  0  0  0
 27 56  1  0  0  0  0
 28 32  1  0  0  0  0
 28 57  1  0  0  0  0
 29 33  1  0  0  0  0
 30 34  1  0  0  0  0
 31 35  2  0  0  0  0
 31 58  1  0  0  0  0
 33 37  2  0  0  0  0
 34 36  2  0  0  0  0
 34 62  1  0  0  0  0
 35 36  1  0  0  0  0
 35 63  1  0  0  0  0
 37 38  1  0  0  0  0
 37 64  1  0  0  0  0
 38 39  2  0  0  0  0
 38 40  1  0  0  0  0
 39 41  1  0  0  0  0
 40 43  2  0  0  0  0
 40 67  1  0  0  0  0
 41 42  2  0  0  0  0
 41 69  1  0  0  0  0
 42 43  1  0  0  0  0
 43 70  1  0  0  0  0
M  END
> <PUBCHEM_COMPOUND_CID>
157143

> <PUBCHEM_CONFORMER_RMSD>
1

> <PUBCHEM_CONFORMER_DIVERSEORDER>
1
6
33
20
40
27
31
38
32
39
30
11
25
35
21
19
34
5
37
23
14
7
28
41
9
18
26
10
13
24
4
29
8
15
17
36
22
16
2
3
12

> <PUBCHEM_MMFF94_PARTIAL_CHARGES>
62
1 -0.57
10 0.06
11 0.14
12 0.28
13 0.14
14 -0.28
15 -0.29
16 -0.14
17 -0.14
18 0.42
19 0.14
2 -0.53
20 0.08
21 0.09
22 0.08
23 0.08
24 -0.15
25 -0.15
26 -0.15
27 -0.15
28 -0.15
29 0.05
3 -0.53
30 0.08
31 -0.15
32 0.08
33 0.09
34 -0.15
35 -0.15
36 0.08
37 -0.15
39 0.14
4 -0.53
40 -0.15
41 -0.15
42 0.08
43 -0.15
49 0.15
5 -0.53
53 0.15
54 0.15
55 0.15
56 0.15
57 0.15
58 0.15
59 0.45
6 -0.53
60 0.45
61 0.45
62 0.15
63 0.15
64 0.15
65 0.45
66 0.45
67 0.15
68 0.45
69 0.15
7 -0.28
70 0.15
71 0.45
8 -0.53
9 -0.53

> <PUBCHEM_EFFECTIVE_ROTOR_COUNT>
5.8

> <PUBCHEM_PHARMACOPHORE_FEATURES>
15
1 1 acceptor
1 2 donor
1 3 donor
1 4 donor
1 5 donor
1 6 donor
1 7 acceptor
1 8 donor
1 9 donor
5 7 33 37 38 39 rings
6 10 11 12 13 14 15 rings
6 16 20 24 27 28 32 rings
6 17 22 23 25 26 29 rings
6 21 30 31 34 35 36 rings
6 38 39 40 41 42 43 rings

> <PUBCHEM_HEAVY_ATOM_COUNT>
43

> <PUBCHEM_ATOM_DEF_STEREO_COUNT>
3

> <PUBCHEM_ATOM_UDEF_STEREO_COUNT>
0

> <PUBCHEM_BOND_DEF_STEREO_COUNT>
0

> <PUBCHEM_BOND_UDEF_STEREO_COUNT>
0

> <PUBCHEM_ISOTOPIC_ATOM_COUNT>
0

> <PUBCHEM_COMPONENT_COUNT>
1

> <PUBCHEM_CACTVS_TAUTO_COUNT>
994

> <PUBCHEM_CONFORMER_ID>
000265D700000001

> <PUBCHEM_MMFF94_ENERGY>
128.5617

> <PUBCHEM_FEATURE_SELFOVERLAP>
76.219

> <PUBCHEM_SHAPE_FINGERPRINT>
10577160 183 6988320483075102908
11200772 48 9223221940722776032
11524674 6 9079113380245538376
12013929 29 15936975120171743202
12166972 35 17060335206609447462
12422481 6 18040155123513859181
133893 2 17981352013974914333
13560911 43 17561086895982581588
13782708 43 16200156486559536298
14068700 675 17989480814570264744
14856354 85 18334021566347744374
14955137 171 18409158897097406565
15021287 119 18261959548730448987
15064981 113 8142094195135319802
15264996 163 18270121357110403740
15324884 4 17753590620043885175
15347590 135 18201997759266428066
15444296 121 18336819806450397419
15684970 41 18264201413915994630
15968369 153 18334295349544449368
16090146 7 17749964263319174711
16114785 44 17532663527955851357
19611394 137 18271518693842243314
21033648 29 17168691051477974611
21796203 349 18339063905334388625
21927370 108 18272646874819558228
249057 3 7709449533817576858
25019877 29 17022619775680026799
2747138 104 18411702093468277256
3552219 110 18130493189607347788
392239 28 18201993373904098441
4173938 188 16559030447069266744
4173938 306 10015580567964729546
469060 322 17774150348499979760
508180 173 18051732990304145885
9896288 288 18118399776755810248

> <PUBCHEM_SHAPE_MULTIPOLES>
832.1
19.56
4.42
2.87
39.39
9.39
-0.71
-14.21
11.23
-3.25
-0.07
-4.04
-1.77
-0.3

> <PUBCHEM_SHAPE_SELFOVERLAP>
1876.417

> <PUBCHEM_SHAPE_VOLUME>
434.1

> <PUBCHEM_COORDINATE_TYPE>
2
5
10

$$$$

