442522
  -OEChem-07051212583D

 41 43  0     1  0  0  0  0  0999 V2000
   -4.0675    0.2618   -0.2489 O   0  0  0  0  0  0  0  0  0  0  0  0
   -0.3779    2.3698    0.0228 O   0  0  0  0  0  0  0  0  0  0  0  0
    2.1785    2.3344   -0.1051 O   0  0  0  0  0  0  0  0  0  0  0  0
    4.4245   -1.8262   -0.0973 O   0  0  0  0  0  0  0  0  0  0  0  0
   -1.6128    0.3336   -0.0443 C   0  0  0  0  0  0  0  0  0  0  0  0
   -2.9247   -1.8209    0.0380 C   0  0  0  0  0  0  0  0  0  0  0  0
   -1.6191   -1.0701    0.0082 C   0  0  0  0  0  0  0  0  0  0  0  0
   -2.9236    1.1009   -0.0117 C   0  0  1  0  0  0  0  0  0  0  0  0
   -4.0493   -0.9227    0.5494 C   0  0  2  0  0  0  0  0  0  0  0  0
   -0.3795    1.0040   -0.0534 C   0  0  0  0  0  0  0  0  0  0  0  0
   -0.4102   -1.7804   -0.0129 C   0  0  0  0  0  0  0  0  0  0  0  0
    0.8379    0.3011   -0.0613 C   0  0  0  0  0  0  0  0  0  0  0  0
    0.8218   -1.1107   -0.0465 C   0  0  0  0  0  0  0  0  0  0  0  0
   -3.0042    2.2120   -1.0572 C   0  0  0  0  0  0  0  0  0  0  0  0
   -5.4029   -1.6047    0.4121 C   0  0  0  0  0  0  0  0  0  0  0  0
    2.0717    0.9725   -0.0840 C   0  0  0  0  0  0  0  0  0  0  0  0
    2.0382   -1.8133   -0.0598 C   0  0  0  0  0  0  0  0  0  0  0  0
    3.2545   -1.1308   -0.0847 C   0  0  0  0  0  0  0  0  0  0  0  0
    3.2712    0.2604   -0.0958 C   0  0  0  0  0  0  0  0  0  0  0  0
    2.2420    2.9952    1.1552 C   0  0  0  0  0  0  0  0  0  0  0  0
    5.6314   -1.0659   -0.1228 C   0  0  0  0  0  0  0  0  0  0  0  0
   -3.1368   -2.1520   -0.9866 H   0  0  0  0  0  0  0  0  0  0  0  0
   -2.8416   -2.7076    0.6772 H   0  0  0  0  0  0  0  0  0  0  0  0
   -3.0462    1.5407    0.9864 H   0  0  0  0  0  0  0  0  0  0  0  0
   -3.8939   -0.6504    1.6018 H   0  0  0  0  0  0  0  0  0  0  0  0
   -0.4349   -2.8691    0.0034 H   0  0  0  0  0  0  0  0  0  0  0  0
   -2.7163    1.8427   -2.0485 H   0  0  0  0  0  0  0  0  0  0  0  0
   -4.0367    2.5710   -1.1473 H   0  0  0  0  0  0  0  0  0  0  0  0
   -2.3908    3.0831   -0.8198 H   0  0  0  0  0  0  0  0  0  0  0  0
   -6.2008   -0.9375    0.7557 H   0  0  0  0  0  0  0  0  0  0  0  0
   -5.6217   -1.8408   -0.6351 H   0  0  0  0  0  0  0  0  0  0  0  0
   -5.4438   -2.5282    0.9974 H   0  0  0  0  0  0  0  0  0  0  0  0
    2.0417   -2.9018   -0.0490 H   0  0  0  0  0  0  0  0  0  0  0  0
    4.1856    0.8446   -0.1171 H   0  0  0  0  0  0  0  0  0  0  0  0
    0.3491    2.7119   -0.5231 H   0  0  0  0  0  0  0  0  0  0  0  0
    1.5408    2.5682    1.8799 H   0  0  0  0  0  0  0  0  0  0  0  0
    1.9945    4.0497    1.0048 H   0  0  0  0  0  0  0  0  0  0  0  0
    3.2600    2.9303    1.5519 H   0  0  0  0  0  0  0  0  0  0  0  0
    5.7422   -0.4556    0.7801 H   0  0  0  0  0  0  0  0  0  0  0  0
    5.7138   -0.4715   -1.0392 H   0  0  0  0  0  0  0  0  0  0  0  0
    6.4623   -1.7791   -0.1296 H   0  0  0  0  0  0  0  0  0  0  0  0
  1  8  1  0  0  0  0
  1  9  1  0  0  0  0
  2 10  1  0  0  0  0
  2 35  1  0  0  0  0
  3 16  1  0  0  0  0
  3 20  1  0  0  0  0
  4 18  1  0  0  0  0
  4 21  1  0  0  0  0
  5  7  1  0  0  0  0
  5  8  1  0  0  0  0
  5 10  2  0  0  0  0
  6  7  1  0  0  0  0
  6  9  1  0  0  0  0
  6 22  1  0  0  0  0
  6 23  1  0  0  0  0
  7 11  2  0  0  0  0
  8 14  1  0  0  0  0
  8 24  1  0  0  0  0
  9 15  1  0  0  0  0
  9 25  1  0  0  0  0
 10 12  1  0  0  0  0
 11 13  1  0  0  0  0
 11 26  1  0  0  0  0
 12 13  1  0  0  0  0
 12 16  2  0  0  0  0
 13 17  2  0  0  0  0
 14 27  1  0  0  0  0
 14 28  1  0  0  0  0
 14 29  1  0  0  0  0
 15 30  1  0  0  0  0
 15 31  1  0  0  0  0
 15 32  1  0  0  0  0
 16 19  1  0  0  0  0
 17 18  1  0  0  0  0
 17 33  1  0  0  0  0
 18 19  2  0  0  0  0
 19 34  1  0  0  0  0
 20 36  1  0  0  0  0
 20 37  1  0  0  0  0
 20 38  1  0  0  0  0
 21 39  1  0  0  0  0
 21 40  1  0  0  0  0
 21 41  1  0  0  0  0
M  END
> <PUBCHEM_COMPOUND_CID>
442522

> <PUBCHEM_CONFORMER_RMSD>
0.6

> <PUBCHEM_CONFORMER_DIVERSEORDER>
1
2
3
4

> <PUBCHEM_MMFF94_PARTIAL_CHARGES>
21
1 -0.56
10 0.08
11 -0.15
16 0.08
17 -0.15
18 0.08
19 -0.15
2 -0.53
20 0.28
21 0.28
26 0.15
3 -0.36
33 0.15
34 0.15
35 0.45
4 -0.36
5 -0.14
6 0.14
7 -0.14
8 0.42
9 0.28

> <PUBCHEM_EFFECTIVE_ROTOR_COUNT>
2.8

> <PUBCHEM_PHARMACOPHORE_FEATURES>
7
1 1 acceptor
1 2 donor
1 3 acceptor
1 4 acceptor
6 1 5 6 7 8 9 rings
6 12 13 16 17 18 19 rings
6 5 7 10 11 12 13 rings

> <PUBCHEM_HEAVY_ATOM_COUNT>
21

> <PUBCHEM_ATOM_DEF_STEREO_COUNT>
2

> <PUBCHEM_ATOM_UDEF_STEREO_COUNT>
0

> <PUBCHEM_BOND_DEF_STEREO_COUNT>
0

> <PUBCHEM_BOND_UDEF_STEREO_COUNT>
0

> <PUBCHEM_ISOTOPIC_ATOM_COUNT>
0

> <PUBCHEM_COMPONENT_COUNT>
1

> <PUBCHEM_CACTVS_TAUTO_COUNT>
12

> <PUBCHEM_CONFORMER_ID>
0006C09A00000001

> <PUBCHEM_MMFF94_ENERGY>
87.2985

> <PUBCHEM_FEATURE_SELFOVERLAP>
35.568

> <PUBCHEM_SHAPE_FINGERPRINT>
10366900 7 17917988373746102139
10608611 8 18411986849309397741
10967382 1 18266740169189472605
1100329 8 18116987999583727832
11680986 33 18196648501773300811
12032990 46 18411978066032627623
12236239 1 17775001349853086810
12403259 226 18411986862067906965
12403259 415 18342182163239685949
12916754 54 18410008819554106929
13140716 1 18409447011803828969
13288520 33 18411133675383320766
138480 1 18409729526278922896
13862211 1 18411420631007586154
14223421 5 18340208488253971025
14866123 147 17109026271555122106
15042514 8 18050287265467681938
15196674 1 18411698789841646332
15442244 35 18409445894821856625
15536298 74 18335420119188395314
16945 1 18265329693128444092
17802600 8 18411982459726175183
17804303 29 18411696603713855262
19591789 44 18411418393144703303
200 152 18114184150680338571
20028762 73 18114464461885287519
21029758 11 18262244451133311744
21033648 29 17314531372649244506
21041028 32 18186798097364726569
21267235 1 18411691089018584235
21452121 103 18263089825055881896
221357 26 18411138039212310487
221490 88 18340482287987071194
22182313 1 18270419203831702165
2297311 6 18261944267600884918
2334 1 18338801100290453997
23366157 5 18058734590028746068
23402539 116 18336271235741248502
23559900 14 18412270514482253849
2748010 2 18411707556007313981
2871803 45 18273220777013469787
3004659 81 18130220588703243310
3286 77 18412824676926923332
335352 9 18411136978661278749
34934 24 18268155446971352918
350125 39 18411414007998866381
4214541 1 18412825823878324471
5104073 3 18410294730725704376
7364860 26 18262519191648599728
8809292 202 18343860026325517979
9709674 26 18269554940394739403
9981440 41 17544765525771943304

> <PUBCHEM_SHAPE_MULTIPOLES>
408.69
9.38
2.89
0.75
0.1
1.63
0.03
-4.46
0.29
0.63
0.24
-0.13
0.29
1.11

> <PUBCHEM_SHAPE_SELFOVERLAP>
890.092

> <PUBCHEM_SHAPE_VOLUME>
222.5

> <PUBCHEM_COORDINATE_TYPE>
2
5
10

$$$$

