13909
  -OEChem-06241222402D

 26 26  0     0  0  0  0  0  0999 V2000
    2.8940   -1.2694    0.0000 O   0  0  0  0  0  0  0  0  0  0  0  0
    2.0280    0.2306    0.0000 O   0  0  0  0  0  0  0  0  0  0  0  0
    6.2633    2.1785    0.0000 O   0  5  0  0  0  0  0  0  0  0  0  0
    5.7281    0.5312    0.0000 O   0  0  0  0  0  0  0  0  0  0  0  0
    3.7601    1.2306    0.0000 N   0  0  0  0  0  0  0  0  0  0  0  0
    3.2601    2.7694    0.0000 N   0  0  0  0  0  0  0  0  0  0  0  0
    5.5202    1.5094    0.0000 N   0  3  0  0  0  0  0  0  0  0  0  0
    3.7601    0.2306    0.0000 C   0  0  0  0  0  0  0  0  0  0  0  0
    2.9511    1.8184    0.0000 C   0  0  0  0  0  0  0  0  0  0  0  0
    4.5691    1.8184    0.0000 C   0  0  0  0  0  0  0  0  0  0  0  0
    4.2601    2.7694    0.0000 C   0  0  0  0  0  0  0  0  0  0  0  0
    2.8940   -0.2694    0.0000 C   0  0  0  0  0  0  0  0  0  0  0  0
    2.0000    1.5094    0.0000 C   0  0  0  0  0  0  0  0  0  0  0  0
    2.0280   -1.7694    0.0000 C   0  0  0  0  0  0  0  0  0  0  0  0
    2.0280   -2.7694    0.0000 C   0  0  0  0  0  0  0  0  0  0  0  0
    3.9721   -0.3520    0.0000 H   0  0  0  0  0  0  0  0  0  0  0  0
    4.3707    0.3382    0.0000 H   0  0  0  0  0  0  0  0  0  0  0  0
    4.6245    3.2710    0.0000 H   0  0  0  0  0  0  0  0  0  0  0  0
    1.8084    2.0990    0.0000 H   0  0  0  0  0  0  0  0  0  0  0  0
    1.4103    1.3178    0.0000 H   0  0  0  0  0  0  0  0  0  0  0  0
    2.1916    0.9197    0.0000 H   0  0  0  0  0  0  0  0  0  0  0  0
    1.8160   -1.1868    0.0000 H   0  0  0  0  0  0  0  0  0  0  0  0
    1.4174   -1.8771    0.0000 H   0  0  0  0  0  0  0  0  0  0  0  0
    1.4080   -2.7694    0.0000 H   0  0  0  0  0  0  0  0  0  0  0  0
    2.0280   -3.3894    0.0000 H   0  0  0  0  0  0  0  0  0  0  0  0
    2.6480   -2.7694    0.0000 H   0  0  0  0  0  0  0  0  0  0  0  0
  1 12  1  0  0  0  0
  1 14  1  0  0  0  0
  2 12  2  0  0  0  0
  3  7  1  0  0  0  0
  4  7  2  0  0  0  0
  5  8  1  0  0  0  0
  5  9  1  0  0  0  0
  5 10  1  0  0  0  0
  6  9  2  0  0  0  0
  6 11  1  0  0  0  0
  7 10  1  0  0  0  0
  8 12  1  0  0  0  0
  8 16  1  0  0  0  0
  8 17  1  0  0  0  0
  9 13  1  0  0  0  0
 10 11  2  0  0  0  0
 11 18  1  0  0  0  0
 13 19  1  0  0  0  0
 13 20  1  0  0  0  0
 13 21  1  0  0  0  0
 14 15  1  0  0  0  0
 14 22  1  0  0  0  0
 14 23  1  0  0  0  0
 15 24  1  0  0  0  0
 15 25  1  0  0  0  0
 15 26  1  0  0  0  0
M  CHG  2   3  -1   7   1
M  END
> <PUBCHEM_COMPOUND_CID>
13909

> <PUBCHEM_COMPOUND_CANONICALIZED>
1

> <PUBCHEM_CACTVS_COMPLEXITY>
253

> <PUBCHEM_CACTVS_HBOND_ACCEPTOR>
5

> <PUBCHEM_CACTVS_HBOND_DONOR>
0

> <PUBCHEM_CACTVS_ROTATABLE_BOND>
4

> <PUBCHEM_CACTVS_SUBSKEYS>
AAADccBzOAAAAAAAAAAAAAAAAAAAAWAAAAAAAAAAAAAAAAABgAAAHgAEAAAAAADhgwYvuBccVACpABK3bwAAgC0REqAhQACYMAKCSAAACCATAAAIAIKQACAAAAAAAAAAAAAAAAAAAAAAAAAAAAAAAAAAAA==

> <PUBCHEM_IUPAC_OPENEYE_NAME>
ethyl 2-(2-methyl-5-nitro-imidazol-1-yl)acetate

> <PUBCHEM_IUPAC_CAS_NAME>
2-(2-methyl-5-nitro-1-imidazolyl)acetic acid ethyl ester

> <PUBCHEM_IUPAC_NAME>
ethyl 2-(2-methyl-5-nitroimidazol-1-yl)acetate

> <PUBCHEM_IUPAC_SYSTEMATIC_NAME>
ethyl 2-(2-methyl-5-nitro-imidazol-1-yl)ethanoate

> <PUBCHEM_IUPAC_TRADITIONAL_NAME>
2-(2-methyl-5-nitro-imidazol-1-yl)acetic acid ethyl ester

> <PUBCHEM_IUPAC_INCHI>
InChI=1S/C8H11N3O4/c1-3-15-8(12)5-10-6(2)9-4-7(10)11(13)14/h4H,3,5H2,1-2H3

> <PUBCHEM_IUPAC_INCHIKEY>
CKGGIKOPFUMXET-UHFFFAOYSA-N

> <PUBCHEM_XLOGP3>
0.5

> <PUBCHEM_EXACT_MASS>
213.074956

> <PUBCHEM_MOLECULAR_FORMULA>
C8H11N3O4

> <PUBCHEM_MOLECULAR_WEIGHT>
213.19064

> <PUBCHEM_OPENEYE_CAN_SMILES>
CCOC(=O)CN1C(=NC=C1[N+](=O)[O-])C

> <PUBCHEM_OPENEYE_ISO_SMILES>
CCOC(=O)CN1C(=NC=C1[N+](=O)[O-])C

> <PUBCHEM_CACTVS_TPSA>
89.9

> <PUBCHEM_MONOISOTOPIC_WEIGHT>
213.074956

> <PUBCHEM_TOTAL_CHARGE>
0

> <PUBCHEM_HEAVY_ATOM_COUNT>
15

> <PUBCHEM_ATOM_DEF_STEREO_COUNT>
0

> <PUBCHEM_ATOM_UDEF_STEREO_COUNT>
0

> <PUBCHEM_BOND_DEF_STEREO_COUNT>
0

> <PUBCHEM_BOND_UDEF_STEREO_COUNT>
0

> <PUBCHEM_ISOTOPIC_ATOM_COUNT>
0

> <PUBCHEM_COMPONENT_COUNT>
1

> <PUBCHEM_CACTVS_TAUTO_COUNT>
1

> <PUBCHEM_COORDINATE_TYPE>
1
5
255

> <PUBCHEM_BONDANNOTATIONS>
10  11  8
5  10  8
5  9  8
6  11  8
6  9  8

$$$$

