991
  -OEChem-07051212523D

 32 32  0     0  0  0  0  0  0999 V2000
    1.9557    0.1399   -2.3937 S   0  0  0  0  0  0  0  0  0  0  0  0
    2.1225    0.0334   -0.4535 P   0  0  0  0  0  0  0  0  0  0  0  0
    0.9620   -0.7736    0.3407 O   0  0  0  0  0  0  0  0  0  0  0  0
    3.4586   -0.7111    0.1056 O   0  0  0  0  0  0  0  0  0  0  0  0
    2.1838    1.4362    0.3685 O   0  0  0  0  0  0  0  0  0  0  0  0
   -4.9431    1.2555   -0.2871 O   0  5  0  0  0  0  0  0  0  0  0  0
   -5.3098   -0.8666    0.1387 O   0  0  0  0  0  0  0  0  0  0  0  0
   -4.5273    0.0991   -0.0337 N   0  3  0  0  0  0  0  0  0  0  0  0
   -0.3868   -0.5591    0.2491 C   0  0  0  0  0  0  0  0  0  0  0  0
    3.6301   -2.1030   -0.1022 C   0  0  0  0  0  0  0  0  0  0  0  0
    3.1008    2.4431   -0.0243 C   0  0  0  0  0  0  0  0  0  0  0  0
   -0.8648    0.7162   -0.0335 C   0  0  0  0  0  0  0  0  0  0  0  0
   -1.2681   -1.6186    0.4380 C   0  0  0  0  0  0  0  0  0  0  0  0
   -3.1280   -0.1238    0.0603 C   0  0  0  0  0  0  0  0  0  0  0  0
   -2.2393    0.9346   -0.1281 C   0  0  0  0  0  0  0  0  0  0  0  0
   -2.6425   -1.4004    0.3433 C   0  0  0  0  0  0  0  0  0  0  0  0
    4.9444   -2.5351    0.5125 C   0  0  0  0  0  0  0  0  0  0  0  0
    2.9519    3.6332    0.8993 C   0  0  0  0  0  0  0  0  0  0  0  0
    2.8029   -2.6467    0.3641 H   0  0  0  0  0  0  0  0  0  0  0  0
    3.6323   -2.3165   -1.1750 H   0  0  0  0  0  0  0  0  0  0  0  0
    4.1190    2.0454    0.0287 H   0  0  0  0  0  0  0  0  0  0  0  0
    2.8932    2.7528   -1.0523 H   0  0  0  0  0  0  0  0  0  0  0  0
   -0.2055    1.5640   -0.1781 H   0  0  0  0  0  0  0  0  0  0  0  0
   -0.8934   -2.6143    0.6582 H   0  0  0  0  0  0  0  0  0  0  0  0
   -2.5818    1.9426   -0.3480 H   0  0  0  0  0  0  0  0  0  0  0  0
   -3.3051   -2.2484    0.4963 H   0  0  0  0  0  0  0  0  0  0  0  0
    5.1087   -3.6068    0.3704 H   0  0  0  0  0  0  0  0  0  0  0  0
    5.7788   -1.9867    0.0631 H   0  0  0  0  0  0  0  0  0  0  0  0
    4.9593   -2.3142    1.5850 H   0  0  0  0  0  0  0  0  0  0  0  0
    3.6467    4.4314    0.6238 H   0  0  0  0  0  0  0  0  0  0  0  0
    1.9300    4.0248    0.8615 H   0  0  0  0  0  0  0  0  0  0  0  0
    3.1424    3.3414    1.9374 H   0  0  0  0  0  0  0  0  0  0  0  0
  1  2  2  0  0  0  0
  2  3  1  0  0  0  0
  2  4  1  0  0  0  0
  2  5  1  0  0  0  0
  3  9  1  0  0  0  0
  4 10  1  0  0  0  0
  5 11  1  0  0  0  0
  6  8  1  0  0  0  0
  7  8  2  0  0  0  0
  8 14  1  0  0  0  0
  9 12  2  0  0  0  0
  9 13  1  0  0  0  0
 10 17  1  0  0  0  0
 10 19  1  0  0  0  0
 10 20  1  0  0  0  0
 11 18  1  0  0  0  0
 11 21  1  0  0  0  0
 11 22  1  0  0  0  0
 12 15  1  0  0  0  0
 12 23  1  0  0  0  0
 13 16  2  0  0  0  0
 13 24  1  0  0  0  0
 14 15  2  0  0  0  0
 14 16  1  0  0  0  0
 15 25  1  0  0  0  0
 16 26  1  0  0  0  0
 17 27  1  0  0  0  0
 17 28  1  0  0  0  0
 17 29  1  0  0  0  0
 18 30  1  0  0  0  0
 18 31  1  0  0  0  0
 18 32  1  0  0  0  0
M  CHG  2   6  -1   8   1
M  END
> <PUBCHEM_COMPOUND_CID>
991

> <PUBCHEM_CONFORMER_RMSD>
0.8

> <PUBCHEM_CONFORMER_DIVERSEORDER>
1
11
4
16
5
14
10
18
13
3
2
17
6
12
21
8
15
9
7
20
19

> <PUBCHEM_MMFF94_PARTIAL_CHARGES>
20
1 -0.68
10 0.28
11 0.28
12 -0.15
13 -0.15
14 0.13
15 -0.15
16 -0.15
2 1.49
23 0.15
24 0.15
25 0.15
26 0.15
3 -0.35
4 -0.55
5 -0.55
6 -0.52
7 -0.52
8 0.91
9 0.08

> <PUBCHEM_EFFECTIVE_ROTOR_COUNT>
7

> <PUBCHEM_PHARMACOPHORE_FEATURES>
4
1 6 acceptor
1 6 anion
1 7 acceptor
6 9 12 13 14 15 16 rings

> <PUBCHEM_HEAVY_ATOM_COUNT>
18

> <PUBCHEM_ATOM_DEF_STEREO_COUNT>
0

> <PUBCHEM_ATOM_UDEF_STEREO_COUNT>
0

> <PUBCHEM_BOND_DEF_STEREO_COUNT>
0

> <PUBCHEM_BOND_UDEF_STEREO_COUNT>
0

> <PUBCHEM_ISOTOPIC_ATOM_COUNT>
0

> <PUBCHEM_COMPONENT_COUNT>
1

> <PUBCHEM_CACTVS_TAUTO_COUNT>
1

> <PUBCHEM_CONFORMER_ID>
000003DF00000001

> <PUBCHEM_MMFF94_ENERGY>
34.0636

> <PUBCHEM_FEATURE_SELFOVERLAP>
20.379

> <PUBCHEM_SHAPE_FINGERPRINT>
11405975 8 18409726257723992739
12403259 226 18342181123562123292
12403259 415 18059861683815191093
12403260 363 18334016124760641065
12507560 14 18261395598038942302
12516196 113 18336548326347757362
12549972 3 17988066812557189690
12616971 3 18040435491027135815
13134695 92 18409453622138019900
13533116 47 18412824668564056171
13675066 3 18060416885489133683
13955234 65 18336547110407380336
14115302 16 18130776884770797070
14178342 30 17841712898617025698
14866123 147 16896238915892616226
15196674 1 18412545397264056593
15295992 7 18270950315255400875
15536298 74 18412262805115853017
17804303 29 18271523203726481142
18186145 218 18334561443994800429
20369508 70 18409445903902564134
20645477 56 18272089336429795945
20645477 70 18040988514693938236
20832881 197 18199749309563870618
21452121 103 18338806628098188472
23402539 116 18262527004104466551
23557571 272 18049707530201422983
23559900 14 18408890637508511418
3004659 81 17916015949514638186
3286 77 18340767130249810188
5104073 3 18411412896008253187
633830 44 18041270041901463141
6443956 14 18268144443428982814
7364860 26 18410292485090661090
77188 2 18265334087898255456
9709674 26 18342174406280901075
9981440 41 17907303148354793856

> <PUBCHEM_SHAPE_MULTIPOLES>
343.8
9.9
3.01
1.12
7.38
1.95
0.88
-2.14
-0.81
-5.1
-1.14
-1
0.17
0.44

> <PUBCHEM_SHAPE_SELFOVERLAP>
666.224

> <PUBCHEM_SHAPE_VOLUME>
210.8

> <PUBCHEM_COORDINATE_TYPE>
2
5
10

$$$$

