441866
  -OEChem-07051212562D

 84 89  0     1  0  0  0  0  0999 V2000
   11.3876   -2.0254    0.0000 O   0  0  0  0  0  0  0  0  0  0  0  0
   10.5216    1.4746    0.0000 O   0  0  0  0  0  0  0  0  0  0  0  0
    8.7895    0.4746    0.0000 O   0  0  0  0  0  0  0  0  0  0  0  0
    5.9945   -3.0778    0.0000 O   0  0  0  0  0  0  0  0  0  0  0  0
   12.6473    2.8479    0.0000 O   0  0  0  0  0  0  0  0  0  0  0  0
    4.2625   -3.0711    0.0000 O   0  0  0  0  0  0  0  0  0  0  0  0
   14.4078    3.1236    0.0000 O   0  0  0  0  0  0  0  0  0  0  0  0
    6.0022   -1.0778    0.0000 O   0  0  0  0  0  0  0  0  0  0  0  0
    4.2740   -0.0711    0.0000 O   0  0  0  0  0  0  0  0  0  0  0  0
    2.5381   -1.0644    0.0000 O   0  0  0  0  0  0  0  0  0  0  0  0
   11.3876   -1.0254    0.0000 C   0  0  1  0  0  0  0  0  0  0  0  0
   10.5216   -1.5254    0.0000 C   0  0  1  0  0  0  0  0  0  0  0  0
   11.3876   -0.0254    0.0000 C   0  0  1  0  0  0  0  0  0  0  0  0
    9.6555   -1.0254    0.0000 C   0  0  1  0  0  0  0  0  0  0  0  0
    8.7455   -1.5323    0.0000 C   0  0  2  0  0  0  0  0  0  0  0  0
    8.7375   -2.5739    0.0000 C   0  0  2  0  0  0  0  0  0  0  0  0
   12.3338    0.2793    0.0000 C   0  0  2  0  0  0  0  0  0  0  0  0
   12.3338   -1.3302    0.0000 C   0  0  0  0  0  0  0  0  0  0  0  0
   10.5376   -2.5669    0.0000 C   0  0  0  0  0  0  0  0  0  0  0  0
   10.5216    0.4746    0.0000 C   0  0  1  0  0  0  0  0  0  0  0  0
    9.6396   -3.0947    0.0000 C   0  0  0  0  0  0  0  0  0  0  0  0
    9.6555   -0.0254    0.0000 C   0  0  0  0  0  0  0  0  0  0  0  0
   12.9174   -0.5254    0.0000 C   0  0  0  0  0  0  0  0  0  0  0  0
    7.8187   -0.9682    0.0000 C   0  0  0  0  0  0  0  0  0  0  0  0
    7.8021   -3.1236    0.0000 C   0  0  0  0  0  0  0  0  0  0  0  0
   11.3876    0.9746    0.0000 C   0  0  0  0  0  0  0  0  0  0  0  0
    8.7532   -0.5323    0.0000 C   0  0  0  0  0  0  0  0  0  0  0  0
    6.8708   -1.4961    0.0000 C   0  0  0  0  0  0  0  0  0  0  0  0
    6.8624   -2.5811    0.0000 C   0  0  2  0  0  0  0  0  0  0  0  0
   12.6445    1.2298    0.0000 C   0  0  0  0  0  0  0  0  0  0  0  0
   12.0581    2.0399    0.0000 C   0  0  0  0  0  0  0  0  0  0  0  0
   13.5960    1.5372    0.0000 C   0  0  0  0  0  0  0  0  0  0  0  0
    5.1304   -2.5744    0.0000 C   0  0  2  0  0  0  0  0  0  0  0  0
   13.5978    2.5372    0.0000 C   0  0  0  0  0  0  0  0  0  0  0  0
    5.1343   -1.5744    0.0000 C   0  0  1  0  0  0  0  0  0  0  0  0
    4.2702   -1.0711    0.0000 C   0  0  2  0  0  0  0  0  0  0  0  0
    3.3984   -2.5677    0.0000 C   0  0  1  0  0  0  0  0  0  0  0  0
    3.4022   -1.5678    0.0000 C   0  0  2  0  0  0  0  0  0  0  0  0
    2.5304   -3.0644    0.0000 C   0  0  0  0  0  0  0  0  0  0  0  0
    3.4099    0.4322    0.0000 C   0  0  0  0  0  0  0  0  0  0  0  0
   11.2609   -1.9447    0.0000 H   0  0  0  0  0  0  0  0  0  0  0  0
   10.3916   -0.6004    0.0000 H   0  0  0  0  0  0  0  0  0  0  0  0
    8.7408   -3.4239    0.0000 H   0  0  0  0  0  0  0  0  0  0  0  0
   12.9463    0.3755    0.0000 H   0  0  0  0  0  0  0  0  0  0  0  0
   12.0828   -1.8971    0.0000 H   0  0  0  0  0  0  0  0  0  0  0  0
   12.8712   -1.6394    0.0000 H   0  0  0  0  0  0  0  0  0  0  0  0
   10.7556   -3.1473    0.0000 H   0  0  0  0  0  0  0  0  0  0  0  0
   11.1468   -2.4514    0.0000 H   0  0  0  0  0  0  0  0  0  0  0  0
    9.9846    0.7846    0.0000 H   0  0  0  0  0  0  0  0  0  0  0  0
    9.2423   -3.5706    0.0000 H   0  0  0  0  0  0  0  0  0  0  0  0
   10.0405   -3.5676    0.0000 H   0  0  0  0  0  0  0  0  0  0  0  0
   13.3783   -0.9401    0.0000 H   0  0  0  0  0  0  0  0  0  0  0  0
   13.3783   -0.1107    0.0000 H   0  0  0  0  0  0  0  0  0  0  0  0
    8.2269   -0.5015    0.0000 H   0  0  0  0  0  0  0  0  0  0  0  0
    7.4288   -0.4861    0.0000 H   0  0  0  0  0  0  0  0  0  0  0  0
    7.4048   -3.5996    0.0000 H   0  0  0  0  0  0  0  0  0  0  0  0
    8.2030   -3.5965    0.0000 H   0  0  0  0  0  0  0  0  0  0  0  0
   12.0076    0.9746    0.0000 H   0  0  0  0  0  0  0  0  0  0  0  0
   11.3876    1.5946    0.0000 H   0  0  0  0  0  0  0  0  0  0  0  0
   10.7676    0.9746    0.0000 H   0  0  0  0  0  0  0  0  0  0  0  0
    9.3732   -0.5371    0.0000 H   0  0  0  0  0  0  0  0  0  0  0  0
    8.7580    0.0877    0.0000 H   0  0  0  0  0  0  0  0  0  0  0  0
    8.1332   -0.5275    0.0000 H   0  0  0  0  0  0  0  0  0  0  0  0
    6.6662   -0.9108    0.0000 H   0  0  0  0  0  0  0  0  0  0  0  0
    6.2592   -1.5975    0.0000 H   0  0  0  0  0  0  0  0  0  0  0  0
    6.3273   -2.2680    0.0000 H   0  0  0  0  0  0  0  0  0  0  0  0
   11.9245   -2.3354    0.0000 H   0  0  0  0  0  0  0  0  0  0  0  0
    9.9846    1.7846    0.0000 H   0  0  0  0  0  0  0  0  0  0  0  0
   11.5980    2.4555    0.0000 H   0  0  0  0  0  0  0  0  0  0  0  0
   11.5966    1.6258    0.0000 H   0  0  0  0  0  0  0  0  0  0  0  0
   14.0970    1.1719    0.0000 H   0  0  0  0  0  0  0  0  0  0  0  0
    5.1280   -3.1944    0.0000 H   0  0  0  0  0  0  0  0  0  0  0  0
    5.6700   -1.8865    0.0000 H   0  0  0  0  0  0  0  0  0  0  0  0
    3.7344   -0.7590    0.0000 H   0  0  0  0  0  0  0  0  0  0  0  0
    3.3960   -3.1877    0.0000 H   0  0  0  0  0  0  0  0  0  0  0  0
    2.8641   -1.8757    0.0000 H   0  0  0  0  0  0  0  0  0  0  0  0
    6.0046   -0.4578    0.0000 H   0  0  0  0  0  0  0  0  0  0  0  0
    2.2225   -2.5263    0.0000 H   0  0  0  0  0  0  0  0  0  0  0  0
    1.9923   -3.3723    0.0000 H   0  0  0  0  0  0  0  0  0  0  0  0
    2.8384   -3.6025    0.0000 H   0  0  0  0  0  0  0  0  0  0  0  0
    2.0000   -1.3723    0.0000 H   0  0  0  0  0  0  0  0  0  0  0  0
    3.7220    0.9680    0.0000 H   0  0  0  0  0  0  0  0  0  0  0  0
    2.8742    0.7443    0.0000 H   0  0  0  0  0  0  0  0  0  0  0  0
    3.0979   -0.1035    0.0000 H   0  0  0  0  0  0  0  0  0  0  0  0
 11  1  1  1  0  0  0
  1 67  1  0  0  0  0
 20  2  1  1  0  0  0
  2 68  1  0  0  0  0
  3 22  2  0  0  0  0
 29  4  1  1  0  0  0
 33  4  1  6  0  0  0
  5 31  1  0  0  0  0
  5 34  1  0  0  0  0
  6 33  1  0  0  0  0
  6 37  1  0  0  0  0
  7 34  2  0  0  0  0
 35  8  1  1  0  0  0
  8 77  1  0  0  0  0
 36  9  1  6  0  0  0
  9 40  1  0  0  0  0
 38 10  1  6  0  0  0
 10 81  1  0  0  0  0
 11 12  1  0  0  0  0
 11 13  1  0  0  0  0
 11 18  1  0  0  0  0
 12 14  1  0  0  0  0
 12 19  1  0  0  0  0
 12 41  1  1  0  0  0
 13 17  1  0  0  0  0
 13 20  1  0  0  0  0
 13 26  1  1  0  0  0
 14 15  1  0  0  0  0
 14 22  1  0  0  0  0
 14 42  1  6  0  0  0
 15 16  1  0  0  0  0
 15 24  1  0  0  0  0
 15 27  1  1  0  0  0
 16 21  1  0  0  0  0
 16 25  1  0  0  0  0
 16 43  1  1  0  0  0
 17 23  1  0  0  0  0
 17 30  1  1  0  0  0
 17 44  1  0  0  0  0
 18 23  1  0  0  0  0
 18 45  1  0  0  0  0
 18 46  1  0  0  0  0
 19 21  1  0  0  0  0
 19 47  1  0  0  0  0
 19 48  1  0  0  0  0
 20 22  1  0  0  0  0
 20 49  1  0  0  0  0
 21 50  1  0  0  0  0
 21 51  1  0  0  0  0
 23 52  1  0  0  0  0
 23 53  1  0  0  0  0
 24 28  1  0  0  0  0
 24 54  1  0  0  0  0
 24 55  1  0  0  0  0
 25 29  1  0  0  0  0
 25 56  1  0  0  0  0
 25 57  1  0  0  0  0
 26 58  1  0  0  0  0
 26 59  1  0  0  0  0
 26 60  1  0  0  0  0
 27 61  1  0  0  0  0
 27 62  1  0  0  0  0
 27 63  1  0  0  0  0
 28 29  1  0  0  0  0
 28 64  1  0  0  0  0
 28 65  1  0  0  0  0
 29 66  1  0  0  0  0
 30 31  1  0  0  0  0
 30 32  2  0  0  0  0
 31 69  1  0  0  0  0
 31 70  1  0  0  0  0
 32 34  1  0  0  0  0
 32 71  1  0  0  0  0
 33 35  1  0  0  0  0
 33 72  1  0  0  0  0
 35 36  1  0  0  0  0
 35 73  1  0  0  0  0
 36 38  1  0  0  0  0
 36 74  1  0  0  0  0
 37 38  1  0  0  0  0
 37 39  1  6  0  0  0
 37 75  1  0  0  0  0
 38 76  1  0  0  0  0
 39 78  1  0  0  0  0
 39 79  1  0  0  0  0
 39 80  1  0  0  0  0
 40 82  1  0  0  0  0
 40 83  1  0  0  0  0
 40 84  1  0  0  0  0
M  END
> <PUBCHEM_COMPOUND_CID>
441866

> <PUBCHEM_COMPOUND_CANONICALIZED>
1

> <PUBCHEM_CACTVS_COMPLEXITY>
1080

> <PUBCHEM_CACTVS_HBOND_ACCEPTOR>
10

> <PUBCHEM_CACTVS_HBOND_DONOR>
4

> <PUBCHEM_CACTVS_ROTATABLE_BOND>
4

> <PUBCHEM_CACTVS_SUBSKEYS>
AAADcfB4PAAAAAAAAAAAAAAAAAAAAYIAAAA0YMEAAAAAAGDAAAAAGgAACAAAD1SwgAMCCAAABgCIAqDSCAIAAAAgAAAACAFAAEgRFBIAIQAiUAAFgAAPIQPK6PyPgAAAAAAAAADAAAYQADAAAYAADAAAAA==

> <PUBCHEM_IUPAC_OPENEYE_NAME>
3-[(3S,5R,8R,9S,10S,12S,13S,14S,17R)-3-[(2R,3R,4S,5S,6R)-3,5-dihydroxy-4-methoxy-6-methyl-tetrahydropyran-2-yl]oxy-12,14-dihydroxy-10,13-dimethyl-11-oxo-2,3,4,5,6,7,8,9,12,15,16,17-dodecahydro-1H-cyclopenta[a]phenanthren-17-yl]-2H-furan-5-one

> <PUBCHEM_IUPAC_CAS_NAME>
3-[(3S,5R,8R,9S,10S,12S,13S,14S,17R)-3-[[(2R,3R,4S,5S,6R)-3,5-dihydroxy-4-methoxy-6-methyl-2-oxanyl]oxy]-12,14-dihydroxy-10,13-dimethyl-11-oxo-2,3,4,5,6,7,8,9,12,15,16,17-dodecahydro-1H-cyclopenta[a]phenanthren-17-yl]-2H-furan-5-one

> <PUBCHEM_IUPAC_NAME>
3-[(3S,5R,8R,9S,10S,12S,13S,14S,17R)-3-[(2R,3R,4S,5S,6R)-3,5-dihydroxy-4-methoxy-6-methyloxan-2-yl]oxy-12,14-dihydroxy-10,13-dimethyl-11-oxo-2,3,4,5,6,7,8,9,12,15,16,17-dodecahydro-1H-cyclopenta[a]phenanthren-17-yl]-2H-furan-5-one

> <PUBCHEM_IUPAC_SYSTEMATIC_NAME>
3-[(3S,5R,8R,9S,10S,12S,13S,14S,17R)-3-[(2R,3R,4S,5S,6R)-4-methoxy-6-methyl-3,5-bis(oxidanyl)oxan-2-yl]oxy-10,13-dimethyl-12,14-bis(oxidanyl)-11-oxidanylidene-2,3,4,5,6,7,8,9,12,15,16,17-dodecahydro-1H-cyclopenta[a]phenanthren-17-yl]-2H-furan-5-one

> <PUBCHEM_IUPAC_TRADITIONAL_NAME>
3-[(3S,5R,8R,9S,10S,12S,13S,14S,17R)-3-[(2R,3R,4S,5S,6R)-3,5-dihydroxy-4-methoxy-6-methyl-tetrahydropyran-2-yl]oxy-12,14-dihydroxy-11-keto-10,13-dimethyl-2,3,4,5,6,7,8,9,12,15,16,17-dodecahydro-1H-cyclopenta[a]phenanthren-17-yl]-2H-furan-5-one

> <PUBCHEM_IUPAC_INCHI>
InChI=1S/C30H44O10/c1-14-22(32)25(37-4)24(34)27(39-14)40-17-7-9-28(2)16(12-17)5-6-19-21(28)23(33)26(35)29(3)18(8-10-30(19,29)36)15-11-20(31)38-13-15/h11,14,16-19,21-22,24-27,32,34-36H,5-10,12-13H2,1-4H3/t14-,16-,17+,18-,19-,21-,22+,24-,25+,26-,27+,28+,29+,30+/m1/s1

> <PUBCHEM_IUPAC_INCHIKEY>
TYVPUZUDLFQZOP-CROJTKMBSA-N

> <PUBCHEM_XLOGP3>
0.1

> <PUBCHEM_EXACT_MASS>
564.293448

> <PUBCHEM_MOLECULAR_FORMULA>
C30H44O10

> <PUBCHEM_MOLECULAR_WEIGHT>
564.66436

> <PUBCHEM_OPENEYE_CAN_SMILES>
CC1C(C(C(C(O1)OC2CCC3(C(C2)CCC4C3C(=O)C(C5(C4(CCC5C6=CC(=O)OC6)O)C)O)C)O)OC)O

> <PUBCHEM_OPENEYE_ISO_SMILES>
C[C@@H]1[C@@H]([C@@H]([C@H]([C@@H](O1)O[C@H]2CC[C@]3([C@@H](C2)CC[C@@H]4[C@@H]3C(=O)[C@H]([C@]5([C@@]4(CC[C@@H]5C6=CC(=O)OC6)O)C)O)C)O)OC)O

> <PUBCHEM_CACTVS_TPSA>
152

> <PUBCHEM_MONOISOTOPIC_WEIGHT>
564.293448

> <PUBCHEM_TOTAL_CHARGE>
0

> <PUBCHEM_HEAVY_ATOM_COUNT>
40

> <PUBCHEM_ATOM_DEF_STEREO_COUNT>
14

> <PUBCHEM_ATOM_UDEF_STEREO_COUNT>
0

> <PUBCHEM_BOND_DEF_STEREO_COUNT>
0

> <PUBCHEM_BOND_UDEF_STEREO_COUNT>
0

> <PUBCHEM_ISOTOPIC_ATOM_COUNT>
0

> <PUBCHEM_COMPONENT_COUNT>
1

> <PUBCHEM_CACTVS_TAUTO_COUNT>
4

> <PUBCHEM_COORDINATE_TYPE>
1
5
255

> <PUBCHEM_BONDANNOTATIONS>
11  1  5
38  10  6
12  41  5
13  26  5
14  42  6
15  27  5
16  43  5
17  30  5
20  2  5
37  39  6
29  4  5
33  4  6
35  8  5
36  9  6

$$$$

