8436
  -OEChem-06261202503D

 22 23  0     0  0  0  0  0  0999 V2000
   -1.9340    1.6684    0.1636 S   0  0  0  0  0  0  0  0  0  0  0  0
   -4.7906    0.7134   -0.1879 S   0  0  0  0  0  0  0  0  0  0  0  0
    2.9088   -0.2389    0.3656 O   0  0  0  0  0  0  0  0  0  0  0  0
   -2.5862   -0.8038   -0.1749 N   0  0  0  0  0  0  0  0  0  0  0  0
   -0.6597    0.5071    0.1409 C   0  0  0  0  0  0  0  0  0  0  0  0
   -1.2049   -0.7660   -0.0511 C   0  0  0  0  0  0  0  0  0  0  0  0
    1.5632   -0.4069    0.2290 C   0  0  0  0  0  0  0  0  0  0  0  0
    0.7228    0.7081    0.2831 C   0  0  0  0  0  0  0  0  0  0  0  0
   -0.3332   -1.8757   -0.1016 C   0  0  0  0  0  0  0  0  0  0  0  0
    1.0442   -1.6829    0.0392 C   0  0  0  0  0  0  0  0  0  0  0  0
    3.4565    0.9970   -0.0884 C   0  0  0  0  0  0  0  0  0  0  0  0
   -3.0697    0.4125   -0.0773 C   0  0  0  0  0  0  0  0  0  0  0  0
    4.8830    0.7677   -0.5401 C   0  0  0  0  0  0  0  0  0  0  0  0
    1.0945    1.7123    0.4588 H   0  0  0  0  0  0  0  0  0  0  0  0
   -0.7280   -2.8769   -0.2496 H   0  0  0  0  0  0  0  0  0  0  0  0
    1.7083   -2.5426   -0.0009 H   0  0  0  0  0  0  0  0  0  0  0  0
    2.9025    1.3998   -0.9457 H   0  0  0  0  0  0  0  0  0  0  0  0
    3.4409    1.7217    0.7330 H   0  0  0  0  0  0  0  0  0  0  0  0
    5.3391    1.6997   -0.8859 H   0  0  0  0  0  0  0  0  0  0  0  0
    5.4863    0.3625    0.2790 H   0  0  0  0  0  0  0  0  0  0  0  0
    4.9174    0.0345   -1.3529 H   0  0  0  0  0  0  0  0  0  0  0  0
   -4.7503    2.0446   -0.0319 H   0  0  0  0  0  0  0  0  0  0  0  0
  1  5  1  0  0  0  0
  1 12  1  0  0  0  0
  2 12  1  0  0  0  0
  2 22  1  0  0  0  0
  3  7  1  0  0  0  0
  3 11  1  0  0  0  0
  4  6  1  0  0  0  0
  4 12  2  0  0  0  0
  5  6  2  0  0  0  0
  5  8  1  0  0  0  0
  6  9  1  0  0  0  0
  7  8  2  0  0  0  0
  7 10  1  0  0  0  0
  8 14  1  0  0  0  0
  9 10  2  0  0  0  0
  9 15  1  0  0  0  0
 10 16  1  0  0  0  0
 11 13  1  0  0  0  0
 11 17  1  0  0  0  0
 11 18  1  0  0  0  0
 13 19  1  0  0  0  0
 13 20  1  0  0  0  0
 13 21  1  0  0  0  0
M  END
> <PUBCHEM_COMPOUND_CID>
8436

> <PUBCHEM_CONFORMER_RMSD>
0.6

> <PUBCHEM_CONFORMER_DIVERSEORDER>
1
4
2
3

> <PUBCHEM_MMFF94_PARTIAL_CHARGES>
16
1 -0.08
10 -0.15
11 0.28
12 0.43
14 0.15
15 0.15
16 0.15
2 -0.24
22 0.18
3 -0.36
4 -0.57
5 0.04
6 0.23
7 0.08
8 -0.15
9 -0.15

> <PUBCHEM_EFFECTIVE_ROTOR_COUNT>
2

> <PUBCHEM_PHARMACOPHORE_FEATURES>
4
1 3 acceptor
1 4 acceptor
5 1 4 5 6 12 rings
6 5 6 7 8 9 10 rings

> <PUBCHEM_HEAVY_ATOM_COUNT>
13

> <PUBCHEM_ATOM_DEF_STEREO_COUNT>
0

> <PUBCHEM_ATOM_UDEF_STEREO_COUNT>
0

> <PUBCHEM_BOND_DEF_STEREO_COUNT>
0

> <PUBCHEM_BOND_UDEF_STEREO_COUNT>
0

> <PUBCHEM_ISOTOPIC_ATOM_COUNT>
0

> <PUBCHEM_COMPONENT_COUNT>
1

> <PUBCHEM_CACTVS_TAUTO_COUNT>
2

> <PUBCHEM_CONFORMER_ID>
000020F400000001

> <PUBCHEM_MMFF94_ENERGY>
27.98

> <PUBCHEM_FEATURE_SELFOVERLAP>
20.369

> <PUBCHEM_SHAPE_FINGERPRINT>
11471102 20 18337397136022227989
11543360 7 15502669143411891480
12346645 44 18410292544539825200
13214271 11 18272367551679355155
13380535 76 18410856572551435571
14325111 11 18410294743610514480
14897335 6 18410858775922211006
14911166 2 18187365411067911972
14993402 34 18411982446846639084
15775835 57 18410292518764694577
16945 1 18334306352648715883
18186145 218 17894354362785544648
187816 3 17748823012291301712
20645476 183 18130503025077050734
20645477 56 18337110064898640784
20645477 70 18262238949016624223
21501502 16 18119532287017591809
21524375 3 18411139155940730602
23402539 116 18261680294040645668
23402655 69 18261685882389352573
23463225 33 18268999841810242850
23557571 272 18188199888769592111
2748010 2 18121221153962688367
293599 30 18409728456462476204
3071541 37 18340204193286999854
3312278 4 18409448072876775451
366044 4 18410575076126099794
42 15 8935000377785731629
449060 62 18408886278011009347
4990 188 17603581937098494732
528886 8 18409175410972502635
53812653 166 18261401039340415977
7364860 26 18263363771039682014
81539 233 18272936063072346207

> <PUBCHEM_SHAPE_MULTIPOLES>
264.38
7.93
1.71
0.67
1.96
0.45
0.01
-3.67
1.28
-0.01
0.01
0.06
-0.04
-0.23

> <PUBCHEM_SHAPE_SELFOVERLAP>
540.066

> <PUBCHEM_SHAPE_VOLUME>
156.1

> <PUBCHEM_COORDINATE_TYPE>
2
5
10

$$$$

