11954114
  -OEChem-07051213062D

 66 69  0     1  0  0  0  0  0999 V2000
   10.4586    0.0493    0.0000 P   0  0  3  0  0  0  0  0  0  0  0  0
   11.4586    0.0493    0.0000 O   0  0  0  0  0  0  0  0  0  0  0  0
   10.4586   -0.9507    0.0000 O   0  0  0  0  0  0  0  0  0  0  0  0
   10.4586    1.0493    0.0000 O   0  0  0  0  0  0  0  0  0  0  0  0
   10.1642    2.0108    0.0000 O   0  0  0  0  0  0  0  0  0  0  0  0
    2.5357   -2.5030    0.0000 O   0  0  0  0  0  0  0  0  0  0  0  0
    7.9288    0.5493    0.0000 C   0  0  1  0  0  0  0  0  0  0  0  0
    7.9288   -0.4507    0.0000 C   0  0  2  0  0  0  0  0  0  0  0  0
    7.0628   -0.9507    0.0000 C   0  0  1  0  0  0  0  0  0  0  0  0
    6.1968   -0.4507    0.0000 C   0  0  1  0  0  0  0  0  0  0  0  0
    8.8750    0.8540    0.0000 C   0  0  2  0  0  0  0  0  0  0  0  0
    8.8750   -0.7554    0.0000 C   0  0  0  0  0  0  0  0  0  0  0  0
    7.0628    1.0493    0.0000 C   0  0  0  0  0  0  0  0  0  0  0  0
    5.2868   -0.9575    0.0000 C   0  0  2  0  0  0  0  0  0  0  0  0
    9.4586    0.0493    0.0000 C   0  0  3  0  0  0  0  0  0  0  0  0
    6.1968    0.5493    0.0000 C   0  0  0  0  0  0  0  0  0  0  0  0
    7.0789   -1.9922    0.0000 C   0  0  0  0  0  0  0  0  0  0  0  0
    7.9288    1.5493    0.0000 C   0  0  0  0  0  0  0  0  0  0  0  0
    5.2787   -1.9991    0.0000 C   0  0  0  0  0  0  0  0  0  0  0  0
    4.3599   -0.3935    0.0000 C   0  0  0  0  0  0  0  0  0  0  0  0
    6.1808   -2.5200    0.0000 C   0  0  0  0  0  0  0  0  0  0  0  0
    5.2945    0.0424    0.0000 C   0  0  0  0  0  0  0  0  0  0  0  0
    9.1857    1.8046    0.0000 C   0  0  0  0  0  0  0  0  0  0  0  0
    4.3433   -2.5489    0.0000 C   0  0  0  0  0  0  0  0  0  0  0  0
    3.4120   -0.9214    0.0000 C   0  0  0  0  0  0  0  0  0  0  0  0
    3.4037   -2.0064    0.0000 C   0  0  2  0  0  0  0  0  0  0  0  0
    8.5179    2.5489    0.0000 C   0  0  0  0  0  0  0  0  0  0  0  0
   11.9586   -0.8167    0.0000 C   0  0  0  0  0  0  0  0  0  0  0  0
   12.9586   -0.8167    0.0000 C   0  0  0  0  0  0  0  0  0  0  0  0
    8.0188   -1.2959    0.0000 H   0  0  0  0  0  0  0  0  0  0  0  0
    7.8022   -1.3700    0.0000 H   0  0  0  0  0  0  0  0  0  0  0  0
    6.9329   -0.0257    0.0000 H   0  0  0  0  0  0  0  0  0  0  0  0
    9.4875    0.9502    0.0000 H   0  0  0  0  0  0  0  0  0  0  0  0
    8.6240   -1.3223    0.0000 H   0  0  0  0  0  0  0  0  0  0  0  0
    9.4124   -1.0647    0.0000 H   0  0  0  0  0  0  0  0  0  0  0  0
    7.4613    1.5243    0.0000 H   0  0  0  0  0  0  0  0  0  0  0  0
    6.6643    1.5243    0.0000 H   0  0  0  0  0  0  0  0  0  0  0  0
    9.8449   -0.7079    0.0000 H   0  0  0  0  0  0  0  0  0  0  0  0
    5.9847    1.1319    0.0000 H   0  0  0  0  0  0  0  0  0  0  0  0
    5.5862    0.4416    0.0000 H   0  0  0  0  0  0  0  0  0  0  0  0
    7.2969   -2.5726    0.0000 H   0  0  0  0  0  0  0  0  0  0  0  0
    7.6880   -1.8767    0.0000 H   0  0  0  0  0  0  0  0  0  0  0  0
    8.5488    1.5493    0.0000 H   0  0  0  0  0  0  0  0  0  0  0  0
    7.9288    2.1693    0.0000 H   0  0  0  0  0  0  0  0  0  0  0  0
    7.3088    1.5493    0.0000 H   0  0  0  0  0  0  0  0  0  0  0  0
    4.7681    0.0732    0.0000 H   0  0  0  0  0  0  0  0  0  0  0  0
    3.9700    0.0886    0.0000 H   0  0  0  0  0  0  0  0  0  0  0  0
    6.1832   -3.1399    0.0000 H   0  0  0  0  0  0  0  0  0  0  0  0
    5.9145    0.0377    0.0000 H   0  0  0  0  0  0  0  0  0  0  0  0
    5.2993    0.6624    0.0000 H   0  0  0  0  0  0  0  0  0  0  0  0
    4.6745    0.0472    0.0000 H   0  0  0  0  0  0  0  0  0  0  0  0
    3.9460   -3.0248    0.0000 H   0  0  0  0  0  0  0  0  0  0  0  0
    4.7443   -3.0218    0.0000 H   0  0  0  0  0  0  0  0  0  0  0  0
    3.2075   -0.3361    0.0000 H   0  0  0  0  0  0  0  0  0  0  0  0
    2.8004   -1.0228    0.0000 H   0  0  0  0  0  0  0  0  0  0  0  0
    3.4025   -2.6264    0.0000 H   0  0  0  0  0  0  0  0  0  0  0  0
    8.9793    2.9629    0.0000 H   0  0  0  0  0  0  0  0  0  0  0  0
    8.1038    3.0103    0.0000 H   0  0  0  0  0  0  0  0  0  0  0  0
    8.0564    2.1348    0.0000 H   0  0  0  0  0  0  0  0  0  0  0  0
   10.9956   -1.2607    0.0000 H   0  0  0  0  0  0  0  0  0  0  0  0
    2.0000   -2.1910    0.0000 H   0  0  0  0  0  0  0  0  0  0  0  0
   11.3760   -1.0288    0.0000 H   0  0  0  0  0  0  0  0  0  0  0  0
   12.0663   -1.4273    0.0000 H   0  0  0  0  0  0  0  0  0  0  0  0
   12.9586   -1.4367    0.0000 H   0  0  0  0  0  0  0  0  0  0  0  0
   13.5786   -0.8167    0.0000 H   0  0  0  0  0  0  0  0  0  0  0  0
   12.9586   -0.1967    0.0000 H   0  0  0  0  0  0  0  0  0  0  0  0
  1  2  1  0  0  0  0
  1  3  1  0  0  0  0
  1  4  2  0  0  0  0
  1 15  1  0  0  0  0
  2 28  1  0  0  0  0
  3 60  1  0  0  0  0
  5 23  2  0  0  0  0
 26  6  1  1  0  0  0
  6 61  1  0  0  0  0
  7  8  1  0  0  0  0
  7 11  1  0  0  0  0
  7 13  1  0  0  0  0
  7 18  1  1  0  0  0
  8  9  1  0  0  0  0
  8 12  1  0  0  0  0
  8 30  1  6  0  0  0
  9 10  1  0  0  0  0
  9 17  1  0  0  0  0
  9 31  1  1  0  0  0
 10 14  1  0  0  0  0
 10 16  1  0  0  0  0
 10 32  1  6  0  0  0
 11 15  1  0  0  0  0
 11 23  1  1  0  0  0
 11 33  1  0  0  0  0
 12 15  1  0  0  0  0
 12 34  1  0  0  0  0
 12 35  1  0  0  0  0
 13 16  1  0  0  0  0
 13 36  1  0  0  0  0
 13 37  1  0  0  0  0
 14 19  1  0  0  0  0
 14 20  1  0  0  0  0
 14 22  1  1  0  0  0
 15 38  1  0  0  0  0
 16 39  1  0  0  0  0
 16 40  1  0  0  0  0
 17 21  1  0  0  0  0
 17 41  1  0  0  0  0
 17 42  1  0  0  0  0
 18 43  1  0  0  0  0
 18 44  1  0  0  0  0
 18 45  1  0  0  0  0
 19 21  2  0  0  0  0
 19 24  1  0  0  0  0
 20 25  1  0  0  0  0
 20 46  1  0  0  0  0
 20 47  1  0  0  0  0
 21 48  1  0  0  0  0
 22 49  1  0  0  0  0
 22 50  1  0  0  0  0
 22 51  1  0  0  0  0
 23 27  1  0  0  0  0
 24 26  1  0  0  0  0
 24 52  1  0  0  0  0
 24 53  1  0  0  0  0
 25 26  1  0  0  0  0
 25 54  1  0  0  0  0
 25 55  1  0  0  0  0
 26 56  1  0  0  0  0
 27 57  1  0  0  0  0
 27 58  1  0  0  0  0
 27 59  1  0  0  0  0
 28 29  1  0  0  0  0
 28 62  1  0  0  0  0
 28 63  1  0  0  0  0
 29 64  1  0  0  0  0
 29 65  1  0  0  0  0
 29 66  1  0  0  0  0
M  END
> <PUBCHEM_COMPOUND_CID>
11954114

> <PUBCHEM_COMPOUND_CANONICALIZED>
1

> <PUBCHEM_CACTVS_COMPLEXITY>
762

> <PUBCHEM_CACTVS_HBOND_ACCEPTOR>
5

> <PUBCHEM_CACTVS_HBOND_DONOR>
2

> <PUBCHEM_CACTVS_ROTATABLE_BOND>
4

> <PUBCHEM_CACTVS_SUBSKEYS>
AAADcfB4OAIAAAAAAAAAAAAAAAAAAYAAAAAwYIAAAAAAAGCAAAAAGggACCAADxSogAICAAAAAxCIQqBSAIAAAAAgAAAACAEAAAgAEBIAAQAAQAAEwAAIAAOIyPCPgAAAAAAAAADAAAQAACAAAQAACAAAAA==

> <PUBCHEM_IUPAC_OPENEYE_NAME>
[(3S,8S,9S,10R,13S,14S,17S)-17-acetyl-3-hydroxy-10,13-dimethyl-2,3,4,7,8,9,11,12,14,15,16,17-dodecahydro-1H-cyclopenta[a]phenanthren-16-yl]-ethoxy-phosphinic acid

> <PUBCHEM_IUPAC_CAS_NAME>
[(3S,8S,9S,10R,13S,14S,17S)-17-acetyl-3-hydroxy-10,13-dimethyl-2,3,4,7,8,9,11,12,14,15,16,17-dodecahydro-1H-cyclopenta[a]phenanthren-16-yl]-ethoxyphosphinic acid

> <PUBCHEM_IUPAC_NAME>
[(3S,8S,9S,10R,13S,14S,17S)-17-acetyl-3-hydroxy-10,13-dimethyl-2,3,4,7,8,9,11,12,14,15,16,17-dodecahydro-1H-cyclopenta[a]phenanthren-16-yl]-ethoxyphosphinic acid

> <PUBCHEM_IUPAC_SYSTEMATIC_NAME>
[(3S,8S,9S,10R,13S,14S,17S)-17-ethanoyl-10,13-dimethyl-3-oxidanyl-2,3,4,7,8,9,11,12,14,15,16,17-dodecahydro-1H-cyclopenta[a]phenanthren-16-yl]-ethoxy-phosphinic acid

> <PUBCHEM_IUPAC_TRADITIONAL_NAME>
[(3S,8S,9S,10R,13S,14S,17S)-17-acetyl-3-hydroxy-10,13-dimethyl-2,3,4,7,8,9,11,12,14,15,16,17-dodecahydro-1H-cyclopenta[a]phenanthren-16-yl]-ethoxy-phosphinic acid

> <PUBCHEM_IUPAC_INCHI>
InChI=1S/C23H37O5P/c1-5-28-29(26,27)20-13-19-17-7-6-15-12-16(25)8-10-22(15,3)18(17)9-11-23(19,4)21(20)14(2)24/h6,16-21,25H,5,7-13H2,1-4H3,(H,26,27)/t16-,17+,18-,19-,20?,21-,22-,23-/m0/s1

> <PUBCHEM_IUPAC_INCHIKEY>
YTHYJGZYFUJIFJ-NIPOZLBPSA-N

> <PUBCHEM_XLOGP3_AA>
2.6

> <PUBCHEM_EXACT_MASS>
424.237861

> <PUBCHEM_MOLECULAR_FORMULA>
C23H37O5P

> <PUBCHEM_MOLECULAR_WEIGHT>
424.510642

> <PUBCHEM_OPENEYE_CAN_SMILES>
CCOP(=O)(C1CC2C3CC=C4CC(CCC4(C3CCC2(C1C(=O)C)C)C)O)O

> <PUBCHEM_OPENEYE_ISO_SMILES>
CCOP(=O)(C1C[C@H]2[C@@H]3CC=C4C[C@H](CC[C@@]4([C@H]3CC[C@@]2([C@H]1C(=O)C)C)C)O)O

> <PUBCHEM_CACTVS_TPSA>
83.8

> <PUBCHEM_MONOISOTOPIC_WEIGHT>
424.237861

> <PUBCHEM_TOTAL_CHARGE>
0

> <PUBCHEM_HEAVY_ATOM_COUNT>
29

> <PUBCHEM_ATOM_DEF_STEREO_COUNT>
7

> <PUBCHEM_ATOM_UDEF_STEREO_COUNT>
1

> <PUBCHEM_BOND_DEF_STEREO_COUNT>
0

> <PUBCHEM_BOND_UDEF_STEREO_COUNT>
0

> <PUBCHEM_ISOTOPIC_ATOM_COUNT>
0

> <PUBCHEM_COMPONENT_COUNT>
1

> <PUBCHEM_CACTVS_TAUTO_COUNT>
3

> <PUBCHEM_COORDINATE_TYPE>
1
5
255

> <PUBCHEM_BONDANNOTATIONS>
10  32  6
11  23  5
14  22  5
15  38  3
26  6  5
7  18  5
8  30  6
9  31  5

$$$$

