12918
  -OEChem-06261207323D

 37 38  0     0  0  0  0  0  0999 V2000
    0.6117    0.7203    3.1906 I   0  0  0  0  0  0  0  0  0  0  0  0
    0.4315    1.9570   -2.7833 I   0  0  0  0  0  0  0  0  0  0  0  0
   -0.4831    1.7041    0.3099 O   0  0  0  0  0  0  0  0  0  0  0  0
   -4.6070   -1.9044   -0.3126 O   0  0  0  0  0  0  0  0  0  0  0  0
    4.2710   -2.4508    0.5100 O   0  0  0  0  0  0  0  0  0  0  0  0
    3.4024    0.2884   -0.1007 C   0  0  0  0  0  0  0  0  0  0  0  0
    4.7968   -0.2204   -0.2482 C   0  0  0  0  0  0  0  0  0  0  0  0
   -1.5009    0.8133    0.1571 C   0  0  0  0  0  0  0  0  0  0  0  0
   -2.2641   -1.4358   -0.2852 C   0  0  0  0  0  0  0  0  0  0  0  0
   -3.8669    0.3247    0.1260 C   0  0  0  0  0  0  0  0  0  0  0  0
    0.8114    1.2319    0.1730 C   0  0  0  0  0  0  0  0  0  0  0  0
   -3.5870   -1.0120   -0.1585 C   0  0  0  0  0  0  0  0  0  0  0  0
   -1.2211   -0.5231   -0.1272 C   0  0  0  0  0  0  0  0  0  0  0  0
   -2.8238    1.2373    0.2838 C   0  0  0  0  0  0  0  0  0  0  0  0
    2.7863    0.2813    1.1505 C   0  0  0  0  0  0  0  0  0  0  0  0
    2.7145    0.7704   -1.2142 C   0  0  0  0  0  0  0  0  0  0  0  0
    1.4820    0.7563    1.2884 C   0  0  0  0  0  0  0  0  0  0  0  0
    1.4101    1.2452   -1.0766 C   0  0  0  0  0  0  0  0  0  0  0  0
    4.8563   -1.7189   -0.5595 C   0  0  0  0  0  0  0  0  0  0  0  0
   -1.9439   -2.8625   -0.5886 C   0  0  0  0  0  0  0  0  0  0  0  0
   -5.2764    0.7978    0.2653 C   0  0  0  0  0  0  0  0  0  0  0  0
    5.3525   -0.0163    0.6763 H   0  0  0  0  0  0  0  0  0  0  0  0
    5.3150    0.3351   -1.0396 H   0  0  0  0  0  0  0  0  0  0  0  0
   -0.2132   -0.9095   -0.2368 H   0  0  0  0  0  0  0  0  0  0  0  0
   -3.0303    2.2815    0.5053 H   0  0  0  0  0  0  0  0  0  0  0  0
    3.3312   -0.0956    2.0132 H   0  0  0  0  0  0  0  0  0  0  0  0
    3.2043    0.7692   -2.1855 H   0  0  0  0  0  0  0  0  0  0  0  0
    5.8926   -2.0488   -0.6822 H   0  0  0  0  0  0  0  0  0  0  0  0
    4.3069   -1.9573   -1.4758 H   0  0  0  0  0  0  0  0  0  0  0  0
   -2.3222   -3.5191    0.2020 H   0  0  0  0  0  0  0  0  0  0  0  0
   -2.3746   -3.1582   -1.5510 H   0  0  0  0  0  0  0  0  0  0  0  0
   -0.8636   -3.0326   -0.6559 H   0  0  0  0  0  0  0  0  0  0  0  0
   -5.8283    0.6276   -0.6650 H   0  0  0  0  0  0  0  0  0  0  0  0
   -5.7765    0.2673    1.0823 H   0  0  0  0  0  0  0  0  0  0  0  0
   -5.3287    1.8690    0.4878 H   0  0  0  0  0  0  0  0  0  0  0  0
   -4.2725   -2.7935   -0.5062 H   0  0  0  0  0  0  0  0  0  0  0  0
    4.7846   -2.2574    1.3128 H   0  0  0  0  0  0  0  0  0  0  0  0
  1 17  1  0  0  0  0
  2 18  1  0  0  0  0
  3  8  1  0  0  0  0
  3 11  1  0  0  0  0
  4 12  1  0  0  0  0
  4 36  1  0  0  0  0
  5 19  1  0  0  0  0
  5 37  1  0  0  0  0
  6  7  1  0  0  0  0
  6 15  2  0  0  0  0
  6 16  1  0  0  0  0
  7 19  1  0  0  0  0
  7 22  1  0  0  0  0
  7 23  1  0  0  0  0
  8 13  2  0  0  0  0
  8 14  1  0  0  0  0
  9 12  2  0  0  0  0
  9 13  1  0  0  0  0
  9 20  1  0  0  0  0
 10 12  1  0  0  0  0
 10 14  2  0  0  0  0
 10 21  1  0  0  0  0
 11 17  2  0  0  0  0
 11 18  1  0  0  0  0
 13 24  1  0  0  0  0
 14 25  1  0  0  0  0
 15 17  1  0  0  0  0
 15 26  1  0  0  0  0
 16 18  2  0  0  0  0
 16 27  1  0  0  0  0
 19 28  1  0  0  0  0
 19 29  1  0  0  0  0
 20 30  1  0  0  0  0
 20 31  1  0  0  0  0
 20 32  1  0  0  0  0
 21 33  1  0  0  0  0
 21 34  1  0  0  0  0
 21 35  1  0  0  0  0
M  END
> <PUBCHEM_COMPOUND_CID>
12918

> <PUBCHEM_CONFORMER_RMSD>
0.6

> <PUBCHEM_CONFORMER_DIVERSEORDER>
1
16
14
10
13
8
6
15
5
7
17
11
4
9
2
12
3

> <PUBCHEM_MMFF94_PARTIAL_CHARGES>
27
1 -0.08
10 -0.14
11 0.08
12 0.08
13 -0.15
14 -0.15
15 -0.15
16 -0.15
17 0.08
18 0.08
19 0.28
2 -0.08
20 0.14
21 0.14
24 0.15
25 0.15
26 0.15
27 0.15
3 -0.17
36 0.45
37 0.4
4 -0.53
5 -0.68
6 -0.14
7 0.14
8 0.08
9 -0.14

> <PUBCHEM_EFFECTIVE_ROTOR_COUNT>
4

> <PUBCHEM_PHARMACOPHORE_FEATURES>
8
1 1 hydrophobe
1 2 hydrophobe
1 3 acceptor
1 4 donor
1 5 acceptor
1 5 donor
6 6 11 15 16 17 18 rings
6 8 9 10 12 13 14 rings

> <PUBCHEM_HEAVY_ATOM_COUNT>
21

> <PUBCHEM_ATOM_DEF_STEREO_COUNT>
0

> <PUBCHEM_ATOM_UDEF_STEREO_COUNT>
0

> <PUBCHEM_BOND_DEF_STEREO_COUNT>
0

> <PUBCHEM_BOND_UDEF_STEREO_COUNT>
0

> <PUBCHEM_ISOTOPIC_ATOM_COUNT>
0

> <PUBCHEM_COMPONENT_COUNT>
1

> <PUBCHEM_CACTVS_TAUTO_COUNT>
2

> <PUBCHEM_CONFORMER_ID>
0000327600000001

> <PUBCHEM_MMFF94_ENERGY>
67.6528

> <PUBCHEM_FEATURE_SELFOVERLAP>
40.594

> <PUBCHEM_SHAPE_FINGERPRINT>
10906281 52 16371548350343814169
11578080 2 17555496943658397893
11796584 16 18187641431541755974
12236239 1 18131910459984709449
12403259 327 17676491631093913066
12507560 18 17603865637031704395
12553582 1 17346609564048965872
12596599 1 17489027041736405411
12596602 18 5689298106488676526
12633257 1 16515961458936737871
12788726 201 17095793417165154936
12824470 246 18187642552876185186
13134695 92 16588315963990252320
13583140 156 17024889055831361872
14115302 16 18336538348262814629
14294032 229 18269000946699026613
14341114 328 8574424314354366102
15196674 1 18407759222578875863
16752209 62 18339658737304840491
17804303 29 18187083931954353313
1813 80 17847063285437923484
18186145 218 16487255417764106208
19784866 135 18335424611708460464
19784866 140 16701740561504209368
19862831 5 17417813911325519377
20600515 1 17822279206436952536
21618674 57 17603864524772350641
21781051 124 18198043821755078323
22079108 93 6483058648713971564
23175994 123 16805317803593456593
23402539 116 17203611510548066196
23559900 14 18187650172132668592
23598291 2 17917426489187202309
238 59 15122131437777651915
25 1 15698004024127038192
3004659 81 18410570717435959854
3060560 45 15913056361216394440
392239 28 7276248574706203119
474 4 16985181241345893805
5104073 3 18040995107685210707
633830 44 16988559074336527109
7226269 152 17241319317261710857
81228 2 16228819719381737368
9981440 41 17048783496640739988

> <PUBCHEM_SHAPE_MULTIPOLES>
438.43
9.26
2.44
2.25
1.03
0.95
-1.6
-3.85
2.82
-0.67
1.63
-0.4
-0.85
-0.91

> <PUBCHEM_SHAPE_SELFOVERLAP>
891.463

> <PUBCHEM_SHAPE_VOLUME>
263.3

> <PUBCHEM_COORDINATE_TYPE>
2
5
10

$$$$

