11293
  -OEChem-06261205303D

 39 41  0     0  0  0  0  0  0999 V2000
   -4.9655    2.7227    0.0013 N   0  0  0  0  0  0  0  0  0  0  0  0
    4.9951    2.6707    0.0015 N   0  0  0  0  0  0  0  0  0  0  0  0
   -0.0511   -5.4649    0.0026 N   0  0  0  0  0  0  0  0  0  0  0  0
    0.0009    0.0188   -0.0012 C   0  0  0  0  0  0  0  0  0  0  0  0
   -1.3048    0.7299   -0.0006 C   0  0  0  0  0  0  0  0  0  0  0  0
    1.3136    0.7163   -0.0003 C   0  0  0  0  0  0  0  0  0  0  0  0
   -0.0055   -1.3244   -0.0017 C   0  0  0  0  0  0  0  0  0  0  0  0
   -1.8887    1.0493   -1.2083 C   0  0  0  0  0  0  0  0  0  0  0  0
    1.9010    1.0273    1.2079 C   0  0  0  0  0  0  0  0  0  0  0  0
   -1.8890    1.0468    1.2077 C   0  0  0  0  0  0  0  0  0  0  0  0
    1.9013    1.0293   -1.2080 C   0  0  0  0  0  0  0  0  0  0  0  0
   -1.2650   -2.0509   -0.0010 C   0  0  0  0  0  0  0  0  0  0  0  0
    1.2470   -2.0627   -0.0022 C   0  0  0  0  0  0  0  0  0  0  0  0
   -3.1138    1.7164   -1.2076 C   0  0  0  0  0  0  0  0  0  0  0  0
    3.1330    1.6816    1.2085 C   0  0  0  0  0  0  0  0  0  0  0  0
   -3.1141    1.7138    1.2083 C   0  0  0  0  0  0  0  0  0  0  0  0
    3.1331    1.6835   -1.2074 C   0  0  0  0  0  0  0  0  0  0  0  0
   -3.7265    2.0487    0.0007 C   0  0  0  0  0  0  0  0  0  0  0  0
    3.7490    2.0097    0.0008 C   0  0  0  0  0  0  0  0  0  0  0  0
   -1.2899   -3.3900   -0.0001 C   0  0  0  0  0  0  0  0  0  0  0  0
    1.2598   -3.4021   -0.0013 C   0  0  0  0  0  0  0  0  0  0  0  0
   -0.0198   -4.1700    0.0001 C   0  0  0  0  0  0  0  0  0  0  0  0
   -1.4210    0.7953   -2.1553 H   0  0  0  0  0  0  0  0  0  0  0  0
    1.4306    0.7765    2.1545 H   0  0  0  0  0  0  0  0  0  0  0  0
   -1.4214    0.7908    2.1543 H   0  0  0  0  0  0  0  0  0  0  0  0
    1.4310    0.7799   -2.1550 H   0  0  0  0  0  0  0  0  0  0  0  0
   -2.2269   -1.5523   -0.0012 H   0  0  0  0  0  0  0  0  0  0  0  0
    2.2137   -1.5736   -0.0032 H   0  0  0  0  0  0  0  0  0  0  0  0
   -3.5811    1.9715   -2.1553 H   0  0  0  0  0  0  0  0  0  0  0  0
    3.6029    1.9301    2.1567 H   0  0  0  0  0  0  0  0  0  0  0  0
   -3.5814    1.9670    2.1565 H   0  0  0  0  0  0  0  0  0  0  0  0
    3.6031    1.9335   -2.1551 H   0  0  0  0  0  0  0  0  0  0  0  0
   -2.2296   -3.9310    0.0006 H   0  0  0  0  0  0  0  0  0  0  0  0
    2.1889   -3.9605   -0.0014 H   0  0  0  0  0  0  0  0  0  0  0  0
   -5.4096    2.9647    0.8771 H   0  0  0  0  0  0  0  0  0  0  0  0
   -5.4095    2.9666   -0.8740 H   0  0  0  0  0  0  0  0  0  0  0  0
    5.4416    2.9098   -0.8739 H   0  0  0  0  0  0  0  0  0  0  0  0
    5.4415    2.9084    0.8773 H   0  0  0  0  0  0  0  0  0  0  0  0
   -1.0164   -5.8106    0.0037 H   0  0  0  0  0  0  0  0  0  0  0  0
  1 18  1  0  0  0  0
  1 35  1  0  0  0  0
  1 36  1  0  0  0  0
  2 19  1  0  0  0  0
  2 37  1  0  0  0  0
  2 38  1  0  0  0  0
  3 22  2  0  0  0  0
  3 39  1  0  0  0  0
  4  5  1  0  0  0  0
  4  6  1  0  0  0  0
  4  7  2  0  0  0  0
  5  8  2  0  0  0  0
  5 10  1  0  0  0  0
  6  9  2  0  0  0  0
  6 11  1  0  0  0  0
  7 12  1  0  0  0  0
  7 13  1  0  0  0  0
  8 14  1  0  0  0  0
  8 23  1  0  0  0  0
  9 15  1  0  0  0  0
  9 24  1  0  0  0  0
 10 16  2  0  0  0  0
 10 25  1  0  0  0  0
 11 17  2  0  0  0  0
 11 26  1  0  0  0  0
 12 20  2  0  0  0  0
 12 27  1  0  0  0  0
 13 21  2  0  0  0  0
 13 28  1  0  0  0  0
 14 18  2  0  0  0  0
 14 29  1  0  0  0  0
 15 19  2  0  0  0  0
 15 30  1  0  0  0  0
 16 18  1  0  0  0  0
 16 31  1  0  0  0  0
 17 19  1  0  0  0  0
 17 32  1  0  0  0  0
 20 22  1  0  0  0  0
 20 33  1  0  0  0  0
 21 22  1  0  0  0  0
 21 34  1  0  0  0  0
M  END
> <PUBCHEM_COMPOUND_CID>
11293

> <PUBCHEM_CONFORMER_RMSD>
0.6

> <PUBCHEM_CONFORMER_DIVERSEORDER>
1

> <PUBCHEM_MMFF94_PARTIAL_CHARGES>
38
1 -0.9
10 -0.15
11 -0.15
12 -0.15
13 -0.15
14 -0.15
15 -0.15
16 -0.15
17 -0.15
18 0.1
19 0.1
2 -0.9
20 -0.14
21 -0.14
22 0.42
23 0.15
24 0.15
25 0.15
26 0.15
27 0.15
28 0.15
29 0.15
3 -0.85
30 0.15
31 0.15
32 0.15
33 0.15
34 0.15
35 0.4
36 0.4
37 0.4
38 0.4
39 0.4
4 -0.06
5 0.03
6 0.03
8 -0.15
9 -0.15

> <PUBCHEM_EFFECTIVE_ROTOR_COUNT>
2

> <PUBCHEM_PHARMACOPHORE_FEATURES>
9
1 1 cation
1 1 donor
1 2 cation
1 2 donor
1 3 acceptor
1 3 donor
6 5 8 10 14 16 18 rings
6 6 9 11 15 17 19 rings
6 7 12 13 20 21 22 rings

> <PUBCHEM_HEAVY_ATOM_COUNT>
22

> <PUBCHEM_ATOM_DEF_STEREO_COUNT>
0

> <PUBCHEM_ATOM_UDEF_STEREO_COUNT>
0

> <PUBCHEM_BOND_DEF_STEREO_COUNT>
0

> <PUBCHEM_BOND_UDEF_STEREO_COUNT>
0

> <PUBCHEM_ISOTOPIC_ATOM_COUNT>
0

> <PUBCHEM_COMPONENT_COUNT>
1

> <PUBCHEM_CACTVS_TAUTO_COUNT>
1

> <PUBCHEM_CONFORMER_ID>
00002C1D00000001

> <PUBCHEM_MMFF94_ENERGY>
102.3958

> <PUBCHEM_FEATURE_SELFOVERLAP>
45.669

> <PUBCHEM_SHAPE_FINGERPRINT>
10165383 225 18050809391102911421
10411042 1 17185876087075673410
1100329 8 18265051504319296682
11056379 131 17907005189483530740
11582403 64 16880800350988401904
11833330 49 17691973656856501040
121448 382 18261402091802796421
12532896 13 18335980895883213756
12553582 1 17332238702630374538
12643181 29 18410006647192140486
12730499 353 18339067311628991913
12788726 201 18048334252973971055
13004483 165 17473546850452431690
13134695 92 17618788397838245751
13140716 1 18411138081861433026
13149001 5 18046034268317915950
13590594 115 16897359313841234497
13681431 1 17692247856084642418
138480 1 17762055844968588390
13911987 19 17764556083351456174
13955234 65 18122898987532707145
14347424 109 15747804938940777938
14955137 171 18049998093514197938
15042514 8 17907572528255543146
15230672 131 18341604929258766454
15664445 248 17394438543269569918
16752209 62 18051710857746590810
17539 30 17903640683190165270
17868525 174 17400920199039531465
1813 80 10807932712608519272
18785283 64 18198057182537772145
19591789 44 18338503201274823079
19765921 60 18114471127547234705
20510252 161 18047753689607283432
20600515 1 17187043824015833597
21049683 271 17838316837626373830
21120745 212 17332786272131842396
21285901 2 17610314083597595142
21304303 282 18047505285662370604
2255824 54 18119532291201730727
22907989 373 17907865007038316780
23419403 2 17393549944811632495
23557571 272 17830452778678056388
23558518 356 18200032812092315706
23559900 14 17908706473289960177
25222932 49 15588310065924655869
266924 78 18051156931672238765
266924 87 18264214603665517519
283562 15 17765724520787646266
3091708 16 9048292952131523410
350125 39 18411409613989041706
3729539 64 17907546436983134174
3886686 26 18120971402258219642
4409770 3 18052269396695019199
458136 41 18338506560403121537
469060 322 18197489633323132523
474 4 18264213671841925097
495365 180 18267869574064390137
6442390 28 18337656539072333833
6443956 14 17545603812829551769
7364860 26 18122064470654211761
7471813 234 17466529105903871953
77188 2 17329710332328179158
81228 2 17906442230275289506
84936 182 18188775096649665313
84936 31 18195815282470807909
9981440 41 18411141350558652601

> <PUBCHEM_SHAPE_MULTIPOLES>
437.81
6.66
5.75
1.15
0.13
10.49
0
-10.54
0
-0.14
0
0
-0.75
0

> <PUBCHEM_SHAPE_SELFOVERLAP>
966.504

> <PUBCHEM_SHAPE_VOLUME>
234.2

> <PUBCHEM_COORDINATE_TYPE>
2
5
10

$$$$

