160236
  -OEChem-07051213112D

 30 33  0     0  0  0  0  0  0999 V2000
    2.0074    1.9922    0.0000 O   0  0  0  0  0  0  0  0  0  0  0  0
    3.7444    0.0069    0.0000 C   0  0  0  0  0  0  0  0  0  0  0  0
    3.7444   -0.9931    0.0000 C   0  0  0  0  0  0  0  0  0  0  0  0
    2.8784    0.5069    0.0000 C   0  0  0  0  0  0  0  0  0  0  0  0
    4.6383    0.5416    0.0000 C   0  0  0  0  0  0  0  0  0  0  0  0
    2.8784   -1.4930    0.0000 C   0  0  0  0  0  0  0  0  0  0  0  0
    4.6383   -1.5277    0.0000 C   0  0  0  0  0  0  0  0  0  0  0  0
    2.0123    0.0069    0.0000 C   0  0  0  0  0  0  0  0  0  0  0  0
    2.8771    1.4986    0.0000 C   0  0  0  0  0  0  0  0  0  0  0  0
    2.0123   -0.9931    0.0000 C   0  0  0  0  0  0  0  0  0  0  0  0
    5.5444    0.0278    0.0000 C   0  0  0  0  0  0  0  0  0  0  0  0
    5.5444   -1.0139    0.0000 C   0  0  0  0  0  0  0  0  0  0  0  0
    4.6005    1.5326    0.0000 C   0  0  0  0  0  0  0  0  0  0  0  0
    2.8771   -2.4848    0.0000 C   0  0  0  0  0  0  0  0  0  0  0  0
    4.6005   -2.5187    0.0000 C   0  0  0  0  0  0  0  0  0  0  0  0
    3.7292    2.0061    0.0000 C   0  0  0  0  0  0  0  0  0  0  0  0
    3.7292   -2.9922    0.0000 C   0  0  0  0  0  0  0  0  0  0  0  0
    2.0000    2.9922    0.0000 C   0  0  0  0  0  0  0  0  0  0  0  0
    1.4754    0.3169    0.0000 H   0  0  0  0  0  0  0  0  0  0  0  0
    1.4754   -1.3030    0.0000 H   0  0  0  0  0  0  0  0  0  0  0  0
    6.0801    0.3398    0.0000 H   0  0  0  0  0  0  0  0  0  0  0  0
    6.0801   -1.3259    0.0000 H   0  0  0  0  0  0  0  0  0  0  0  0
    5.1273    1.8596    0.0000 H   0  0  0  0  0  0  0  0  0  0  0  0
    2.3379   -2.7908    0.0000 H   0  0  0  0  0  0  0  0  0  0  0  0
    5.1273   -2.8457    0.0000 H   0  0  0  0  0  0  0  0  0  0  0  0
    3.7169    2.6260    0.0000 H   0  0  0  0  0  0  0  0  0  0  0  0
    3.7169   -3.6121    0.0000 H   0  0  0  0  0  0  0  0  0  0  0  0
    2.6200    2.9968    0.0000 H   0  0  0  0  0  0  0  0  0  0  0  0
    1.9954    3.6122    0.0000 H   0  0  0  0  0  0  0  0  0  0  0  0
    1.3800    2.9876    0.0000 H   0  0  0  0  0  0  0  0  0  0  0  0
  1  9  1  0  0  0  0
  1 18  1  0  0  0  0
  2  3  1  0  0  0  0
  2  4  1  0  0  0  0
  2  5  2  0  0  0  0
  3  6  1  0  0  0  0
  3  7  2  0  0  0  0
  4  8  1  0  0  0  0
  4  9  2  0  0  0  0
  5 11  1  0  0  0  0
  5 13  1  0  0  0  0
  6 10  1  0  0  0  0
  6 14  2  0  0  0  0
  7 12  1  0  0  0  0
  7 15  1  0  0  0  0
  8 10  2  0  0  0  0
  8 19  1  0  0  0  0
  9 16  1  0  0  0  0
 10 20  1  0  0  0  0
 11 12  2  0  0  0  0
 11 21  1  0  0  0  0
 12 22  1  0  0  0  0
 13 16  2  0  0  0  0
 13 23  1  0  0  0  0
 14 17  1  0  0  0  0
 14 24  1  0  0  0  0
 15 17  2  0  0  0  0
 15 25  1  0  0  0  0
 16 26  1  0  0  0  0
 17 27  1  0  0  0  0
 18 28  1  0  0  0  0
 18 29  1  0  0  0  0
 18 30  1  0  0  0  0
M  END
> <PUBCHEM_COMPOUND_CID>
160236

> <PUBCHEM_COMPOUND_CANONICALIZED>
1

> <PUBCHEM_CACTVS_COMPLEXITY>
313

> <PUBCHEM_CACTVS_HBOND_ACCEPTOR>
1

> <PUBCHEM_CACTVS_HBOND_DONOR>
0

> <PUBCHEM_CACTVS_ROTATABLE_BOND>
1

> <PUBCHEM_CACTVS_SUBSKEYS>
AAADccB4IAAAAAAAAAAAAAAAAAAAAAAAAAAwYMGAAAAAAADBVAAAGgAAAAAADASAmAIyBsAABACAAiBCAAACCAAgIAAIiAAGCIgMJiKEMRqAMCAkwBEIqAeAwPAO4AADAAAYAADAAAYAADAAAAAAAAAAAA==

> <PUBCHEM_IUPAC_OPENEYE_NAME>
1-methoxypyrene

> <PUBCHEM_IUPAC_CAS_NAME>
1-methoxypyrene

> <PUBCHEM_IUPAC_NAME>
1-methoxypyrene

> <PUBCHEM_IUPAC_SYSTEMATIC_NAME>
1-methoxypyrene

> <PUBCHEM_IUPAC_TRADITIONAL_NAME>
1-methoxypyrene

> <PUBCHEM_IUPAC_INCHI>
InChI=1S/C17H12O/c1-18-15-10-8-13-6-5-11-3-2-4-12-7-9-14(15)17(13)16(11)12/h2-10H,1H3

> <PUBCHEM_IUPAC_INCHIKEY>
CPPFVJLHDNOVTN-UHFFFAOYSA-N

> <PUBCHEM_XLOGP3>
5

> <PUBCHEM_EXACT_MASS>
232.088815

> <PUBCHEM_MOLECULAR_FORMULA>
C17H12O

> <PUBCHEM_MOLECULAR_WEIGHT>
232.27658

> <PUBCHEM_OPENEYE_CAN_SMILES>
COC1=C2C=CC3=CC=CC4=C3C2=C(C=C4)C=C1

> <PUBCHEM_OPENEYE_ISO_SMILES>
COC1=C2C=CC3=CC=CC4=C3C2=C(C=C4)C=C1

> <PUBCHEM_CACTVS_TPSA>
9.2

> <PUBCHEM_MONOISOTOPIC_WEIGHT>
232.088815

> <PUBCHEM_TOTAL_CHARGE>
0

> <PUBCHEM_HEAVY_ATOM_COUNT>
18

> <PUBCHEM_ATOM_DEF_STEREO_COUNT>
0

> <PUBCHEM_ATOM_UDEF_STEREO_COUNT>
0

> <PUBCHEM_BOND_DEF_STEREO_COUNT>
0

> <PUBCHEM_BOND_UDEF_STEREO_COUNT>
0

> <PUBCHEM_ISOTOPIC_ATOM_COUNT>
0

> <PUBCHEM_COMPONENT_COUNT>
1

> <PUBCHEM_CACTVS_TAUTO_COUNT>
1

> <PUBCHEM_COORDINATE_TYPE>
1
5
255

> <PUBCHEM_BONDANNOTATIONS>
11  12  8
13  16  8
14  17  8
15  17  8
2  3  8
2  4  8
2  5  8
3  6  8
3  7  8
4  8  8
4  9  8
5  11  8
5  13  8
6  10  8
6  14  8
7  12  8
7  15  8
8  10  8
9  16  8

$$$$

