17396279
  -OEChem-06241222552D

 35 37  0     0  0  0  0  0  0999 V2000
    2.8660    2.2500    0.0000 Cl  0  0  0  0  0  0  0  0  0  0  0  0
    9.0084   -2.0547    0.0000 O   0  0  0  0  0  0  0  0  0  0  0  0
    2.8660   -1.7500    0.0000 O   0  0  0  0  0  0  0  0  0  0  0  0
    4.5981   -1.7500    0.0000 O   0  0  0  0  0  0  0  0  0  0  0  0
    5.4641   -0.2500    0.0000 N   0  0  0  0  0  0  0  0  0  0  0  0
    9.0084   -0.4453    0.0000 N   0  0  0  0  0  0  0  0  0  0  0  0
    6.3301   -0.7500    0.0000 C   0  0  0  0  0  0  0  0  0  0  0  0
    8.0622   -0.7500    0.0000 C   0  0  0  0  0  0  0  0  0  0  0  0
    8.0622   -1.7500    0.0000 C   0  0  0  0  0  0  0  0  0  0  0  0
    7.1962   -0.2500    0.0000 C   0  0  0  0  0  0  0  0  0  0  0  0
    6.3301   -1.7500    0.0000 C   0  0  0  0  0  0  0  0  0  0  0  0
    7.1962   -2.2500    0.0000 C   0  0  0  0  0  0  0  0  0  0  0  0
    3.7320   -0.2500    0.0000 C   0  0  0  0  0  0  0  0  0  0  0  0
    4.5981   -0.7500    0.0000 C   0  0  0  0  0  0  0  0  0  0  0  0
    9.5920   -1.2500    0.0000 C   0  0  0  0  0  0  0  0  0  0  0  0
    2.8660   -0.7500    0.0000 C   0  0  0  0  0  0  0  0  0  0  0  0
    3.7320    0.7500    0.0000 C   0  0  0  0  0  0  0  0  0  0  0  0
    2.0000   -0.2500    0.0000 C   0  0  0  0  0  0  0  0  0  0  0  0
    2.8660    1.2500    0.0000 C   0  0  0  0  0  0  0  0  0  0  0  0
   10.5920   -1.2500    0.0000 C   0  0  0  0  0  0  0  0  0  0  0  0
    2.0000    0.7500    0.0000 C   0  0  0  0  0  0  0  0  0  0  0  0
    2.0000   -2.2500    0.0000 C   0  0  0  0  0  0  0  0  0  0  0  0
    7.1962    0.3700    0.0000 H   0  0  0  0  0  0  0  0  0  0  0  0
    5.7932   -2.0600    0.0000 H   0  0  0  0  0  0  0  0  0  0  0  0
    7.1962   -2.8700    0.0000 H   0  0  0  0  0  0  0  0  0  0  0  0
    5.4641    0.3700    0.0000 H   0  0  0  0  0  0  0  0  0  0  0  0
    4.2690    1.0600    0.0000 H   0  0  0  0  0  0  0  0  0  0  0  0
    1.4631   -0.5600    0.0000 H   0  0  0  0  0  0  0  0  0  0  0  0
   10.5920   -1.8700    0.0000 H   0  0  0  0  0  0  0  0  0  0  0  0
   11.2120   -1.2500    0.0000 H   0  0  0  0  0  0  0  0  0  0  0  0
   10.5920   -0.6300    0.0000 H   0  0  0  0  0  0  0  0  0  0  0  0
    1.4631    1.0600    0.0000 H   0  0  0  0  0  0  0  0  0  0  0  0
    1.6900   -1.7131    0.0000 H   0  0  0  0  0  0  0  0  0  0  0  0
    1.4631   -2.5600    0.0000 H   0  0  0  0  0  0  0  0  0  0  0  0
    2.3100   -2.7869    0.0000 H   0  0  0  0  0  0  0  0  0  0  0  0
  1 19  1  0  0  0  0
  2  9  1  0  0  0  0
  2 15  1  0  0  0  0
  3 16  1  0  0  0  0
  3 22  1  0  0  0  0
  4 14  2  0  0  0  0
  5  7  1  0  0  0  0
  5 14  1  0  0  0  0
  5 26  1  0  0  0  0
  6  8  1  0  0  0  0
  6 15  2  0  0  0  0
  7 10  2  0  0  0  0
  7 11  1  0  0  0  0
  8  9  2  0  0  0  0
  8 10  1  0  0  0  0
  9 12  1  0  0  0  0
 10 23  1  0  0  0  0
 11 12  2  0  0  0  0
 11 24  1  0  0  0  0
 12 25  1  0  0  0  0
 13 14  1  0  0  0  0
 13 16  2  0  0  0  0
 13 17  1  0  0  0  0
 15 20  1  0  0  0  0
 16 18  1  0  0  0  0
 17 19  2  0  0  0  0
 17 27  1  0  0  0  0
 18 21  2  0  0  0  0
 18 28  1  0  0  0  0
 19 21  1  0  0  0  0
 20 29  1  0  0  0  0
 20 30  1  0  0  0  0
 20 31  1  0  0  0  0
 21 32  1  0  0  0  0
 22 33  1  0  0  0  0
 22 34  1  0  0  0  0
 22 35  1  0  0  0  0
M  END
> <PUBCHEM_COMPOUND_CID>
17396279

> <PUBCHEM_COMPOUND_CANONICALIZED>
1

> <PUBCHEM_CACTVS_COMPLEXITY>
409

> <PUBCHEM_CACTVS_HBOND_ACCEPTOR>
4

> <PUBCHEM_CACTVS_HBOND_DONOR>
1

> <PUBCHEM_CACTVS_ROTATABLE_BOND>
3

> <PUBCHEM_CACTVS_SUBSKEYS>
AAADccB7MAAEAAAAAAAAAAAAAAAAAWAAAAAwYAAAAAAAAFgB9AAAHgIQAAAADA6BniIyxrLIFECoA6VyVASCiCAvZyAImCG3btgOJrbF9/uPPWjm9BHY6Ye8yCCOAGAAIAQIEAAAwABACBAgAAAAAAAAAA==

> <PUBCHEM_IUPAC_OPENEYE_NAME>
5-chloro-2-methoxy-N-(2-methyl-1,3-benzoxazol-5-yl)benzamide

> <PUBCHEM_IUPAC_CAS_NAME>
5-chloro-2-methoxy-N-(2-methyl-1,3-benzoxazol-5-yl)benzamide

> <PUBCHEM_IUPAC_NAME>
5-chloro-2-methoxy-N-(2-methyl-1,3-benzoxazol-5-yl)benzamide

> <PUBCHEM_IUPAC_SYSTEMATIC_NAME>
5-chloranyl-2-methoxy-N-(2-methyl-1,3-benzoxazol-5-yl)benzamide

> <PUBCHEM_IUPAC_TRADITIONAL_NAME>
5-chloro-2-methoxy-N-(2-methyl-1,3-benzoxazol-5-yl)benzamide

> <PUBCHEM_IUPAC_INCHI>
InChI=1S/C16H13ClN2O3/c1-9-18-13-8-11(4-6-15(13)22-9)19-16(20)12-7-10(17)3-5-14(12)21-2/h3-8H,1-2H3,(H,19,20)

> <PUBCHEM_IUPAC_INCHIKEY>
HOLOOIFKYYASTK-UHFFFAOYSA-N

> <PUBCHEM_XLOGP3_AA>
3.6

> <PUBCHEM_EXACT_MASS>
316.06147

> <PUBCHEM_MOLECULAR_FORMULA>
C16H13ClN2O3

> <PUBCHEM_MOLECULAR_WEIGHT>
316.73902

> <PUBCHEM_OPENEYE_CAN_SMILES>
CC1=NC2=C(O1)C=CC(=C2)NC(=O)C3=C(C=CC(=C3)Cl)OC

> <PUBCHEM_OPENEYE_ISO_SMILES>
CC1=NC2=C(O1)C=CC(=C2)NC(=O)C3=C(C=CC(=C3)Cl)OC

> <PUBCHEM_CACTVS_TPSA>
64.4

> <PUBCHEM_MONOISOTOPIC_WEIGHT>
316.06147

> <PUBCHEM_TOTAL_CHARGE>
0

> <PUBCHEM_HEAVY_ATOM_COUNT>
22

> <PUBCHEM_ATOM_DEF_STEREO_COUNT>
0

> <PUBCHEM_ATOM_UDEF_STEREO_COUNT>
0

> <PUBCHEM_BOND_DEF_STEREO_COUNT>
0

> <PUBCHEM_BOND_UDEF_STEREO_COUNT>
0

> <PUBCHEM_ISOTOPIC_ATOM_COUNT>
0

> <PUBCHEM_COMPONENT_COUNT>
1

> <PUBCHEM_CACTVS_TAUTO_COUNT>
2

> <PUBCHEM_COORDINATE_TYPE>
1
5
255

> <PUBCHEM_BONDANNOTATIONS>
11  12  8
13  16  8
13  17  8
16  18  8
17  19  8
18  21  8
19  21  8
2  15  8
2  9  8
6  15  8
6  8  8
7  10  8
7  11  8
8  10  8
8  9  8
9  12  8

$$$$

