439681
  -OEChem-07051212463D

 24 23  0     1  0  0  0  0  0999 V2000
    0.0972   -0.6990   -1.3065 O   0  0  0  0  0  0  0  0  0  0  0  0
    0.2307    1.9697    1.1005 O   0  0  0  0  0  0  0  0  0  0  0  0
   -3.2306    0.7556    0.5780 O   0  0  0  0  0  0  0  0  0  0  0  0
    0.2094    1.9318   -1.1623 O   0  0  0  0  0  0  0  0  0  0  0  0
   -2.7138   -0.4753   -1.2537 O   0  0  0  0  0  0  0  0  0  0  0  0
    3.1628    0.7101    0.4609 O   0  0  0  0  0  0  0  0  0  0  0  0
    3.1509   -1.2291   -0.7195 O   0  0  0  0  0  0  0  0  0  0  0  0
    0.0931   -0.1950    0.0324 C   0  0  1  0  0  0  0  0  0  0  0  0
   -1.2541   -0.5996    0.6989 C   0  0  2  0  0  0  0  0  0  0  0  0
    1.3093   -0.7748    0.7817 C   0  0  0  0  0  0  0  0  0  0  0  0
   -1.4035   -2.1119    0.8946 C   0  0  0  0  0  0  0  0  0  0  0  0
    0.1837    1.3291   -0.0955 C   0  0  0  0  0  0  0  0  0  0  0  0
   -2.4622   -0.1310   -0.1059 C   0  0  0  0  0  0  0  0  0  0  0  0
    2.6273   -0.4807    0.0963 C   0  0  0  0  0  0  0  0  0  0  0  0
   -1.3144   -0.1334    1.6916 H   0  0  0  0  0  0  0  0  0  0  0  0
    1.2566   -1.8684    0.8355 H   0  0  0  0  0  0  0  0  0  0  0  0
    1.3610   -0.4107    1.8145 H   0  0  0  0  0  0  0  0  0  0  0  0
   -1.2210   -2.6607   -0.0354 H   0  0  0  0  0  0  0  0  0  0  0  0
   -0.7156   -2.4858    1.6588 H   0  0  0  0  0  0  0  0  0  0  0  0
   -2.4179   -2.3624    1.2261 H   0  0  0  0  0  0  0  0  0  0  0  0
   -0.6497   -0.3106   -1.7916 H   0  0  0  0  0  0  0  0  0  0  0  0
    0.2868    2.9429    0.9922 H   0  0  0  0  0  0  0  0  0  0  0  0
   -3.9949    1.0636    0.0458 H   0  0  0  0  0  0  0  0  0  0  0  0
    4.0097    0.8878   -0.0011 H   0  0  0  0  0  0  0  0  0  0  0  0
  1  8  1  0  0  0  0
  1 21  1  0  0  0  0
  2 12  1  0  0  0  0
  2 22  1  0  0  0  0
  3 13  1  0  0  0  0
  3 23  1  0  0  0  0
  4 12  2  0  0  0  0
  5 13  2  0  0  0  0
  6 14  1  0  0  0  0
  6 24  1  0  0  0  0
  7 14  2  0  0  0  0
  8  9  1  0  0  0  0
  8 10  1  0  0  0  0
  8 12  1  0  0  0  0
  9 11  1  0  0  0  0
  9 13  1  0  0  0  0
  9 15  1  0  0  0  0
 10 14  1  0  0  0  0
 10 16  1  0  0  0  0
 10 17  1  0  0  0  0
 11 18  1  0  0  0  0
 11 19  1  0  0  0  0
 11 20  1  0  0  0  0
M  END
> <PUBCHEM_COMPOUND_CID>
439681

> <PUBCHEM_CONFORMER_RMSD>
0.6

> <PUBCHEM_CONFORMER_DIVERSEORDER>
1
32
10
17
25
23
15
24
11
31
7
9
29
18
19
27
21
28
22
30
4
20
12
13
33
5
8
16
14
6
3
2
26

> <PUBCHEM_MMFF94_PARTIAL_CHARGES>
17
1 -0.68
10 0.06
12 0.66
13 0.66
14 0.66
2 -0.65
21 0.4
22 0.5
23 0.5
24 0.5
3 -0.65
4 -0.57
5 -0.57
6 -0.65
7 -0.57
8 0.34
9 0.06

> <PUBCHEM_EFFECTIVE_ROTOR_COUNT>
5

> <PUBCHEM_PHARMACOPHORE_FEATURES>
12
1 1 acceptor
1 1 donor
1 11 hydrophobe
1 2 acceptor
1 3 acceptor
1 4 acceptor
1 5 acceptor
1 6 acceptor
1 7 acceptor
3 2 4 12 anion
3 3 5 13 anion
3 6 7 14 anion

> <PUBCHEM_HEAVY_ATOM_COUNT>
14

> <PUBCHEM_ATOM_DEF_STEREO_COUNT>
2

> <PUBCHEM_ATOM_UDEF_STEREO_COUNT>
0

> <PUBCHEM_BOND_DEF_STEREO_COUNT>
0

> <PUBCHEM_BOND_UDEF_STEREO_COUNT>
0

> <PUBCHEM_ISOTOPIC_ATOM_COUNT>
0

> <PUBCHEM_COMPONENT_COUNT>
1

> <PUBCHEM_CACTVS_TAUTO_COUNT>
1

> <PUBCHEM_CONFORMER_ID>
0006B58100000001

> <PUBCHEM_MMFF94_ENERGY>
23.2753

> <PUBCHEM_FEATURE_SELFOVERLAP>
61.085

> <PUBCHEM_SHAPE_FINGERPRINT>
10219947 1 18040713679773661527
11132069 177 18261403302846307080
11769659 78 16733281087380991959
12423570 1 9864086822867147698
12491281 212 17676477393435634809
12524768 44 18410577288245338266
12932764 1 17060340703866996458
13214271 11 18266183838197243024
14993402 34 17894919490118326548
16945 1 18060705004395135754
20201158 50 18412549799384118946
20511035 2 18191864526923394785
20653091 64 18057036904734705425
207724 885 18272365373814399185
21501502 16 17913197668555647635
22344851 262 17458062694544340159
23559900 14 18343016693382682882
2748010 2 18128254471868010818
5084963 1 18270411468916887519
81228 2 18267016335718727912

> <PUBCHEM_SHAPE_MULTIPOLES>
247.03
4.34
1.84
1.13
0.8
0.26
-0.17
-0.66
-0.23
-0.08
0.25
-0.16
0.06
0.25

> <PUBCHEM_SHAPE_SELFOVERLAP>
492.023

> <PUBCHEM_SHAPE_VOLUME>
144.9

> <PUBCHEM_COORDINATE_TYPE>
2
5
10

$$$$

