17395736
  -OEChem-06241222522D

 32 34  0     0  0  0  0  0  0999 V2000
    5.5443   -0.9387    0.0000 S   0  0  0  0  0  0  0  0  0  0  0  0
    7.1279   -1.8660    0.0000 O   0  0  0  0  0  0  0  0  0  0  0  0
    5.5443    0.6708    0.0000 N   0  0  0  0  0  0  0  0  0  0  0  0
    7.1279   -0.1340    0.0000 N   0  0  0  0  0  0  0  0  0  0  0  0
    9.1279   -1.8660    0.0000 N   0  0  0  0  0  0  0  0  0  0  0  0
   10.1279   -0.1340    0.0000 N   0  0  0  0  0  0  0  0  0  0  0  0
    4.5981    0.3660    0.0000 C   0  0  0  0  0  0  0  0  0  0  0  0
    3.7320    0.8660    0.0000 C   0  0  0  0  0  0  0  0  0  0  0  0
    4.5981   -0.6340    0.0000 C   0  0  0  0  0  0  0  0  0  0  0  0
    2.8660   -0.6340    0.0000 C   0  0  0  0  0  0  0  0  0  0  0  0
    2.8660    0.3660    0.0000 C   0  0  0  0  0  0  0  0  0  0  0  0
    3.7320   -1.1340    0.0000 C   0  0  0  0  0  0  0  0  0  0  0  0
    6.1279   -0.1340    0.0000 C   0  0  0  0  0  0  0  0  0  0  0  0
    3.7320    1.8660    0.0000 C   0  0  0  0  0  0  0  0  0  0  0  0
    2.0000   -1.1340    0.0000 C   0  0  0  0  0  0  0  0  0  0  0  0
    7.6279   -1.0000    0.0000 C   0  0  0  0  0  0  0  0  0  0  0  0
    8.6279   -1.0000    0.0000 C   0  0  0  0  0  0  0  0  0  0  0  0
    9.1279   -0.1340    0.0000 C   0  0  0  0  0  0  0  0  0  0  0  0
   10.1279   -1.8660    0.0000 C   0  0  0  0  0  0  0  0  0  0  0  0
   10.6279   -1.0000    0.0000 C   0  0  0  0  0  0  0  0  0  0  0  0
    2.3291    0.6760    0.0000 H   0  0  0  0  0  0  0  0  0  0  0  0
    3.7320   -1.7540    0.0000 H   0  0  0  0  0  0  0  0  0  0  0  0
    4.3520    1.8660    0.0000 H   0  0  0  0  0  0  0  0  0  0  0  0
    3.7320    2.4860    0.0000 H   0  0  0  0  0  0  0  0  0  0  0  0
    3.1120    1.8660    0.0000 H   0  0  0  0  0  0  0  0  0  0  0  0
    1.6900   -0.5970    0.0000 H   0  0  0  0  0  0  0  0  0  0  0  0
    1.4631   -1.4440    0.0000 H   0  0  0  0  0  0  0  0  0  0  0  0
    2.3100   -1.6709    0.0000 H   0  0  0  0  0  0  0  0  0  0  0  0
    7.4379    0.4030    0.0000 H   0  0  0  0  0  0  0  0  0  0  0  0
    8.8179    0.4030    0.0000 H   0  0  0  0  0  0  0  0  0  0  0  0
   10.4379   -2.4030    0.0000 H   0  0  0  0  0  0  0  0  0  0  0  0
   11.2479   -1.0000    0.0000 H   0  0  0  0  0  0  0  0  0  0  0  0
  1  9  1  0  0  0  0
  1 13  1  0  0  0  0
  2 16  2  0  0  0  0
  3  7  1  0  0  0  0
  3 13  2  0  0  0  0
  4 13  1  0  0  0  0
  4 16  1  0  0  0  0
  4 29  1  0  0  0  0
  5 17  2  0  0  0  0
  5 19  1  0  0  0  0
  6 18  2  0  0  0  0
  6 20  1  0  0  0  0
  7  8  2  0  0  0  0
  7  9  1  0  0  0  0
  8 11  1  0  0  0  0
  8 14  1  0  0  0  0
  9 12  2  0  0  0  0
 10 11  2  0  0  0  0
 10 12  1  0  0  0  0
 10 15  1  0  0  0  0
 11 21  1  0  0  0  0
 12 22  1  0  0  0  0
 14 23  1  0  0  0  0
 14 24  1  0  0  0  0
 14 25  1  0  0  0  0
 15 26  1  0  0  0  0
 15 27  1  0  0  0  0
 15 28  1  0  0  0  0
 16 17  1  0  0  0  0
 17 18  1  0  0  0  0
 18 30  1  0  0  0  0
 19 20  2  0  0  0  0
 19 31  1  0  0  0  0
 20 32  1  0  0  0  0
M  END
> <PUBCHEM_COMPOUND_CID>
17395736

> <PUBCHEM_COMPOUND_CANONICALIZED>
1

> <PUBCHEM_CACTVS_COMPLEXITY>
367

> <PUBCHEM_CACTVS_HBOND_ACCEPTOR>
5

> <PUBCHEM_CACTVS_HBOND_DONOR>
1

> <PUBCHEM_CACTVS_ROTATABLE_BOND>
2

> <PUBCHEM_CACTVS_SUBSKEYS>
AAADccBzoABAAAAAAAAAAAAAAAAAAWAAAAA8QAAAAAAAAFgB/AAAHgQQAAAADAjB3gQ/0bLIEAisAzV3dACD8K13GjlJ2D24dNiIYOrg2bGUIIhogQLIyOcQgEAOCAACgAACAQAQAAUAAAQCAAAAAAAAAA==

> <PUBCHEM_IUPAC_OPENEYE_NAME>
N-(4,6-dimethyl-1,3-benzothiazol-2-yl)pyrazine-2-carboxamide

> <PUBCHEM_IUPAC_CAS_NAME>
N-(4,6-dimethyl-1,3-benzothiazol-2-yl)-2-pyrazinecarboxamide

> <PUBCHEM_IUPAC_NAME>
N-(4,6-dimethyl-1,3-benzothiazol-2-yl)pyrazine-2-carboxamide

> <PUBCHEM_IUPAC_SYSTEMATIC_NAME>
N-(4,6-dimethyl-1,3-benzothiazol-2-yl)pyrazine-2-carboxamide

> <PUBCHEM_IUPAC_TRADITIONAL_NAME>
N-(4,6-dimethyl-1,3-benzothiazol-2-yl)pyrazinamide

> <PUBCHEM_IUPAC_INCHI>
InChI=1S/C14H12N4OS/c1-8-5-9(2)12-11(6-8)20-14(17-12)18-13(19)10-7-15-3-4-16-10/h3-7H,1-2H3,(H,17,18,19)

> <PUBCHEM_IUPAC_INCHIKEY>
DTSWHFTUBLGGBU-UHFFFAOYSA-N

> <PUBCHEM_XLOGP3_AA>
2.5

> <PUBCHEM_EXACT_MASS>
284.073182

> <PUBCHEM_MOLECULAR_FORMULA>
C14H12N4OS

> <PUBCHEM_MOLECULAR_WEIGHT>
284.33628

> <PUBCHEM_OPENEYE_CAN_SMILES>
CC1=CC(=C2C(=C1)SC(=N2)NC(=O)C3=NC=CN=C3)C

> <PUBCHEM_OPENEYE_ISO_SMILES>
CC1=CC(=C2C(=C1)SC(=N2)NC(=O)C3=NC=CN=C3)C

> <PUBCHEM_CACTVS_TPSA>
96

> <PUBCHEM_MONOISOTOPIC_WEIGHT>
284.073182

> <PUBCHEM_TOTAL_CHARGE>
0

> <PUBCHEM_HEAVY_ATOM_COUNT>
20

> <PUBCHEM_ATOM_DEF_STEREO_COUNT>
0

> <PUBCHEM_ATOM_UDEF_STEREO_COUNT>
0

> <PUBCHEM_BOND_DEF_STEREO_COUNT>
0

> <PUBCHEM_BOND_UDEF_STEREO_COUNT>
0

> <PUBCHEM_ISOTOPIC_ATOM_COUNT>
0

> <PUBCHEM_COMPONENT_COUNT>
1

> <PUBCHEM_CACTVS_TAUTO_COUNT>
3

> <PUBCHEM_COORDINATE_TYPE>
1
5
255

> <PUBCHEM_BONDANNOTATIONS>
1  13  8
1  9  8
10  11  8
10  12  8
17  18  8
19  20  8
3  13  8
3  7  8
5  17  8
5  19  8
6  18  8
6  20  8
7  8  8
7  9  8
8  11  8
9  12  8

$$$$

