91731
  -OEChem-07051213122D

 33 34  0     0  0  0  0  0  0999 V2000
    2.8660   -2.8492    0.0000 Cl  0  0  0  0  0  0  0  0  0  0  0  0
    3.3125    1.6829    0.0000 Cl  0  0  0  0  0  0  0  0  0  0  0  0
    4.5981   -4.8492    0.0000 F   0  0  0  0  0  0  0  0  0  0  0  0
    5.5981   -3.8492    0.0000 F   0  0  0  0  0  0  0  0  0  0  0  0
    3.5981   -3.8492    0.0000 F   0  0  0  0  0  0  0  0  0  0  0  0
    6.3082    4.8492    0.0000 F   0  0  0  0  0  0  0  0  0  0  0  0
    6.9058    3.5675    0.0000 F   0  0  0  0  0  0  0  0  0  0  0  0
    5.0265    4.2516    0.0000 F   0  0  0  0  0  0  0  0  0  0  0  0
    2.0000   -1.3492    0.0000 O   0  5  0  0  0  0  0  0  0  0  0  0
    2.8660    0.1508    0.0000 O   0  0  0  0  0  0  0  0  0  0  0  0
    6.7909   -2.4626    0.0000 O   0  5  0  0  0  0  0  0  0  0  0  0
    7.0917   -0.7568    0.0000 O   0  0  0  0  0  0  0  0  0  0  0  0
    4.5981    0.1508    0.0000 N   0  0  0  0  0  0  0  0  0  0  0  0
    2.8660   -0.8492    0.0000 N   0  3  0  0  0  0  0  0  0  0  0  0
    6.4489   -1.5229    0.0000 N   0  3  0  0  0  0  0  0  0  0  0  0
    5.9249    1.2641    0.0000 N   0  0  0  0  0  0  0  0  0  0  0  0
    4.5981   -0.8492    0.0000 C   0  0  0  0  0  0  0  0  0  0  0  0
    3.7320   -1.3492    0.0000 C   0  0  0  0  0  0  0  0  0  0  0  0
    5.4641   -1.3492    0.0000 C   0  0  0  0  0  0  0  0  0  0  0  0
    4.5981   -2.8492    0.0000 C   0  0  0  0  0  0  0  0  0  0  0  0
    3.7320   -2.3492    0.0000 C   0  0  0  0  0  0  0  0  0  0  0  0
    5.4641   -2.3492    0.0000 C   0  0  0  0  0  0  0  0  0  0  0  0
    4.9401    1.0905    0.0000 C   0  0  0  0  0  0  0  0  0  0  0  0
    4.5981   -3.8492    0.0000 C   0  0  0  0  0  0  0  0  0  0  0  0
    4.2973    1.8565    0.0000 C   0  0  0  0  0  0  0  0  0  0  0  0
    5.6241    2.9698    0.0000 C   0  0  0  0  0  0  0  0  0  0  0  0
    4.6393    2.7962    0.0000 C   0  0  0  0  0  0  0  0  0  0  0  0
    6.2669    2.2038    0.0000 C   0  0  0  0  0  0  0  0  0  0  0  0
    5.9662    3.9095    0.0000 C   0  0  0  0  0  0  0  0  0  0  0  0
    6.0010   -2.6592    0.0000 H   0  0  0  0  0  0  0  0  0  0  0  0
    4.0611    0.4608    0.0000 H   0  0  0  0  0  0  0  0  0  0  0  0
    4.2408    3.2712    0.0000 H   0  0  0  0  0  0  0  0  0  0  0  0
    6.8775    2.3115    0.0000 H   0  0  0  0  0  0  0  0  0  0  0  0
  1 21  1  0  0  0  0
  2 25  1  0  0  0  0
  3 24  1  0  0  0  0
  4 24  1  0  0  0  0
  5 24  1  0  0  0  0
  6 29  1  0  0  0  0
  7 29  1  0  0  0  0
  8 29  1  0  0  0  0
  9 14  1  0  0  0  0
 10 14  2  0  0  0  0
 11 15  1  0  0  0  0
 12 15  2  0  0  0  0
 13 17  1  0  0  0  0
 13 23  1  0  0  0  0
 13 31  1  0  0  0  0
 14 18  1  0  0  0  0
 15 19  1  0  0  0  0
 16 23  1  0  0  0  0
 16 28  2  0  0  0  0
 17 18  1  0  0  0  0
 17 19  2  0  0  0  0
 18 21  2  0  0  0  0
 19 22  1  0  0  0  0
 20 21  1  0  0  0  0
 20 22  2  0  0  0  0
 20 24  1  0  0  0  0
 22 30  1  0  0  0  0
 23 25  2  0  0  0  0
 25 27  1  0  0  0  0
 26 27  2  0  0  0  0
 26 28  1  0  0  0  0
 26 29  1  0  0  0  0
 27 32  1  0  0  0  0
 28 33  1  0  0  0  0
M  CHG  4   9  -1  11  -1  14   1  15   1
M  END
> <PUBCHEM_COMPOUND_CID>
91731

> <PUBCHEM_COMPOUND_CANONICALIZED>
1

> <PUBCHEM_CACTVS_COMPLEXITY>
628

> <PUBCHEM_CACTVS_HBOND_ACCEPTOR>
12

> <PUBCHEM_CACTVS_HBOND_DONOR>
1

> <PUBCHEM_CACTVS_ROTATABLE_BOND>
2

> <PUBCHEM_CACTVS_SUBSKEYS>
AAADcYBzucAGAAAAAAAAAAAAAAAAAAAAAAA8QAAAAAAAAAABwAAAHQIUAAAADArBGjQ98JLYUAChAjZnZwCCgCkxByAh2CAodpqIYOLB29HUIAhogILIyCcQgAAOCABAQAYBADAQAICADAIAYAAAAAAAAA==

> <PUBCHEM_IUPAC_OPENEYE_NAME>
3-chloro-N-[3-chloro-2,6-dinitro-4-(trifluoromethyl)phenyl]-5-(trifluoromethyl)pyridin-2-amine

> <PUBCHEM_IUPAC_CAS_NAME>
3-chloro-N-[3-chloro-2,6-dinitro-4-(trifluoromethyl)phenyl]-5-(trifluoromethyl)-2-pyridinamine

> <PUBCHEM_IUPAC_NAME>
3-chloro-N-[3-chloro-2,6-dinitro-4-(trifluoromethyl)phenyl]-5-(trifluoromethyl)pyridin-2-amine

> <PUBCHEM_IUPAC_SYSTEMATIC_NAME>
3-chloranyl-N-[3-chloranyl-2,6-dinitro-4-(trifluoromethyl)phenyl]-5-(trifluoromethyl)pyridin-2-amine

> <PUBCHEM_IUPAC_TRADITIONAL_NAME>
[3-chloro-2,6-dinitro-4-(trifluoromethyl)phenyl]-[3-chloro-5-(trifluoromethyl)-2-pyridyl]amine

> <PUBCHEM_IUPAC_INCHI>
InChI=1S/C13H4Cl2F6N4O4/c14-6-1-4(12(16,17)18)3-22-11(6)23-9-7(24(26)27)2-5(13(19,20)21)8(15)10(9)25(28)29/h1-3H,(H,22,23)

> <PUBCHEM_IUPAC_INCHIKEY>
UZCGKGPEKUCDTF-UHFFFAOYSA-N

> <PUBCHEM_XLOGP3_AA>
6

> <PUBCHEM_EXACT_MASS>
463.951379

> <PUBCHEM_MOLECULAR_FORMULA>
C13H4Cl2F6N4O4

> <PUBCHEM_MOLECULAR_WEIGHT>
465.091679

> <PUBCHEM_OPENEYE_CAN_SMILES>
C1=C(C=NC(=C1Cl)NC2=C(C=C(C(=C2[N+](=O)[O-])Cl)C(F)(F)F)[N+](=O)[O-])C(F)(F)F

> <PUBCHEM_OPENEYE_ISO_SMILES>
C1=C(C=NC(=C1Cl)NC2=C(C=C(C(=C2[N+](=O)[O-])Cl)C(F)(F)F)[N+](=O)[O-])C(F)(F)F

> <PUBCHEM_CACTVS_TPSA>
117

> <PUBCHEM_MONOISOTOPIC_WEIGHT>
463.951379

> <PUBCHEM_TOTAL_CHARGE>
0

> <PUBCHEM_HEAVY_ATOM_COUNT>
29

> <PUBCHEM_ATOM_DEF_STEREO_COUNT>
0

> <PUBCHEM_ATOM_UDEF_STEREO_COUNT>
0

> <PUBCHEM_BOND_DEF_STEREO_COUNT>
0

> <PUBCHEM_BOND_UDEF_STEREO_COUNT>
0

> <PUBCHEM_ISOTOPIC_ATOM_COUNT>
0

> <PUBCHEM_COMPONENT_COUNT>
1

> <PUBCHEM_CACTVS_TAUTO_COUNT>
2

> <PUBCHEM_COORDINATE_TYPE>
1
5
255

> <PUBCHEM_BONDANNOTATIONS>
16  23  8
16  28  8
17  18  8
17  19  8
18  21  8
19  22  8
20  21  8
20  22  8
23  25  8
25  27  8
26  27  8
26  28  8

$$$$

