443339
  -OEChem-07051213023D

 69 71  0     1  0  0  0  0  0999 V2000
   -1.1275    1.2086    0.1752 O   0  0  0  0  0  0  0  0  0  0  0  0
   -2.4132    0.4554   -1.6035 O   0  0  0  0  0  0  0  0  0  0  0  0
    0.0332   -0.8154    0.1613 O   0  0  0  0  0  0  0  0  0  0  0  0
    1.2454    2.5493   -0.5866 O   0  0  0  0  0  0  0  0  0  0  0  0
    3.6565    1.1125    0.3094 O   0  0  0  0  0  0  0  0  0  0  0  0
    3.5363   -1.6629   -0.4897 O   0  0  0  0  0  0  0  0  0  0  0  0
   -0.2626   -3.5140   -0.2702 O   0  0  0  0  0  0  0  0  0  0  0  0
    0.0618    3.4518    1.1802 O   0  0  0  0  0  0  0  0  0  0  0  0
    3.9536    2.5295   -1.4908 O   0  0  0  0  0  0  0  0  0  0  0  0
    4.8695   -1.1611    1.3292 O   0  0  0  0  0  0  0  0  0  0  0  0
    0.1625   -5.5222    0.7901 O   0  0  0  0  0  0  0  0  0  0  0  0
   -3.5224    1.3615    0.4094 C   0  0  1  0  0  0  0  0  0  0  0  0
   -4.8673    0.7776   -0.0595 C   0  0  2  0  0  0  0  0  0  0  0  0
   -3.6907    1.3352    1.9402 C   0  0  1  0  0  0  0  0  0  0  0  0
   -5.2143   -0.3062    0.9733 C   0  0  0  0  0  0  0  0  0  0  0  0
   -4.3705   -0.0082    2.2135 C   0  0  0  0  0  0  0  0  0  0  0  0
   -2.3470    0.5561   -0.1737 C   0  0  2  0  0  0  0  0  0  0  0  0
   -4.8185    0.2697   -1.4708 C   0  0  0  0  0  0  0  0  0  0  0  0
   -2.4396    1.5375    2.7782 C   0  0  0  0  0  0  0  0  0  0  0  0
   -3.6484    0.1778   -2.1182 C   0  0  0  0  0  0  0  0  0  0  0  0
    0.0025    0.5142   -0.3522 C   0  0  2  0  0  0  0  0  0  0  0  0
    1.2600    1.2781    0.0625 C   0  0  1  0  0  0  0  0  0  0  0  0
   -6.1220   -0.0694   -2.1280 C   0  0  0  0  0  0  0  0  0  0  0  0
    2.5271    0.5204   -0.3342 C   0  0  2  0  0  0  0  0  0  0  0  0
    2.4528   -0.9451    0.0950 C   0  0  1  0  0  0  0  0  0  0  0  0
    1.1304   -1.5747   -0.3492 C   0  0  1  0  0  0  0  0  0  0  0  0
    0.9825   -3.0019    0.1686 C   0  0  0  0  0  0  0  0  0  0  0  0
    0.6086    3.5495    0.0900 C   0  0  0  0  0  0  0  0  0  0  0  0
    4.2753    2.1092   -0.3877 C   0  0  0  0  0  0  0  0  0  0  0  0
    4.6907   -1.6896    0.2402 C   0  0  0  0  0  0  0  0  0  0  0  0
    0.6729    4.8177   -0.7060 C   0  0  0  0  0  0  0  0  0  0  0  0
    5.4343    2.6332    0.4049 C   0  0  0  0  0  0  0  0  0  0  0  0
   -0.5533   -4.7970    0.1126 C   0  0  0  0  0  0  0  0  0  0  0  0
    5.7356   -2.4749   -0.4931 C   0  0  0  0  0  0  0  0  0  0  0  0
   -1.8942   -5.2022   -0.4202 C   0  0  0  0  0  0  0  0  0  0  0  0
   -3.4274    2.4027    0.0719 H   0  0  0  0  0  0  0  0  0  0  0  0
   -5.6208    1.5756    0.0039 H   0  0  0  0  0  0  0  0  0  0  0  0
   -4.4001    2.1310    2.2099 H   0  0  0  0  0  0  0  0  0  0  0  0
   -4.9964   -1.3176    0.6097 H   0  0  0  0  0  0  0  0  0  0  0  0
   -6.2834   -0.2752    1.2132 H   0  0  0  0  0  0  0  0  0  0  0  0
   -4.9847    0.0285    3.1194 H   0  0  0  0  0  0  0  0  0  0  0  0
   -3.6307   -0.8055    2.3538 H   0  0  0  0  0  0  0  0  0  0  0  0
   -2.3504   -0.4597    0.2421 H   0  0  0  0  0  0  0  0  0  0  0  0
   -2.6960    1.5498    3.8432 H   0  0  0  0  0  0  0  0  0  0  0  0
   -1.9675    2.4946    2.5415 H   0  0  0  0  0  0  0  0  0  0  0  0
   -1.7084    0.7368    2.6315 H   0  0  0  0  0  0  0  0  0  0  0  0
   -0.0619    0.4952   -1.4481 H   0  0  0  0  0  0  0  0  0  0  0  0
   -3.5601   -0.1140   -3.1561 H   0  0  0  0  0  0  0  0  0  0  0  0
    1.2788    1.4119    1.1534 H   0  0  0  0  0  0  0  0  0  0  0  0
   -6.6242   -0.8782   -1.5878 H   0  0  0  0  0  0  0  0  0  0  0  0
   -5.9858   -0.3962   -3.1643 H   0  0  0  0  0  0  0  0  0  0  0  0
   -6.7818    0.8042   -2.1383 H   0  0  0  0  0  0  0  0  0  0  0  0
    2.6643    0.5517   -1.4241 H   0  0  0  0  0  0  0  0  0  0  0  0
    2.5033   -0.9967    1.1923 H   0  0  0  0  0  0  0  0  0  0  0  0
    1.0576   -1.6022   -1.4450 H   0  0  0  0  0  0  0  0  0  0  0  0
    1.7939   -3.6354   -0.2073 H   0  0  0  0  0  0  0  0  0  0  0  0
    0.9959   -3.0057    1.2654 H   0  0  0  0  0  0  0  0  0  0  0  0
    0.1665    4.6788   -1.6645 H   0  0  0  0  0  0  0  0  0  0  0  0
    0.1671    5.6168   -0.1566 H   0  0  0  0  0  0  0  0  0  0  0  0
    1.7159    5.1061   -0.8591 H   0  0  0  0  0  0  0  0  0  0  0  0
    5.0785    3.0460    1.3522 H   0  0  0  0  0  0  0  0  0  0  0  0
    5.9287    3.4295   -0.1587 H   0  0  0  0  0  0  0  0  0  0  0  0
    6.1556    1.8311    0.5806 H   0  0  0  0  0  0  0  0  0  0  0  0
    5.9496   -1.9993   -1.4534 H   0  0  0  0  0  0  0  0  0  0  0  0
    5.3922   -3.5020   -0.6392 H   0  0  0  0  0  0  0  0  0  0  0  0
    6.6553   -2.4956    0.0985 H   0  0  0  0  0  0  0  0  0  0  0  0
   -1.8820   -5.1742   -1.5126 H   0  0  0  0  0  0  0  0  0  0  0  0
   -2.1191   -6.2233   -0.0992 H   0  0  0  0  0  0  0  0  0  0  0  0
   -2.6655   -4.5353   -0.0265 H   0  0  0  0  0  0  0  0  0  0  0  0
  1 17  1  0  0  0  0
  1 21  1  0  0  0  0
  2 17  1  0  0  0  0
  2 20  1  0  0  0  0
  3 21  1  0  0  0  0
  3 26  1  0  0  0  0
  4 22  1  0  0  0  0
  4 28  1  0  0  0  0
  5 24  1  0  0  0  0
  5 29  1  0  0  0  0
  6 25  1  0  0  0  0
  6 30  1  0  0  0  0
  7 27  1  0  0  0  0
  7 33  1  0  0  0  0
  8 28  2  0  0  0  0
  9 29  2  0  0  0  0
 10 30  2  0  0  0  0
 11 33  2  0  0  0  0
 12 13  1  0  0  0  0
 12 14  1  0  0  0  0
 12 17  1  0  0  0  0
 12 36  1  0  0  0  0
 13 15  1  0  0  0  0
 13 18  1  0  0  0  0
 13 37  1  0  0  0  0
 14 16  1  0  0  0  0
 14 19  1  0  0  0  0
 14 38  1  0  0  0  0
 15 16  1  0  0  0  0
 15 39  1  0  0  0  0
 15 40  1  0  0  0  0
 16 41  1  0  0  0  0
 16 42  1  0  0  0  0
 17 43  1  0  0  0  0
 18 20  2  0  0  0  0
 18 23  1  0  0  0  0
 19 44  1  0  0  0  0
 19 45  1  0  0  0  0
 19 46  1  0  0  0  0
 20 48  1  0  0  0  0
 21 22  1  0  0  0  0
 21 47  1  0  0  0  0
 22 24  1  0  0  0  0
 22 49  1  0  0  0  0
 23 50  1  0  0  0  0
 23 51  1  0  0  0  0
 23 52  1  0  0  0  0
 24 25  1  0  0  0  0
 24 53  1  0  0  0  0
 25 26  1  0  0  0  0
 25 54  1  0  0  0  0
 26 27  1  0  0  0  0
 26 55  1  0  0  0  0
 27 56  1  0  0  0  0
 27 57  1  0  0  0  0
 28 31  1  0  0  0  0
 29 32  1  0  0  0  0
 30 34  1  0  0  0  0
 31 58  1  0  0  0  0
 31 59  1  0  0  0  0
 31 60  1  0  0  0  0
 32 61  1  0  0  0  0
 32 62  1  0  0  0  0
 32 63  1  0  0  0  0
 33 35  1  0  0  0  0
 34 64  1  0  0  0  0
 34 65  1  0  0  0  0
 34 66  1  0  0  0  0
 35 67  1  0  0  0  0
 35 68  1  0  0  0  0
 35 69  1  0  0  0  0
M  END
> <PUBCHEM_COMPOUND_CID>
443339

> <PUBCHEM_CONFORMER_RMSD>
1.2

> <PUBCHEM_CONFORMER_DIVERSEORDER>
1
24
33
26
34
19
21
5
29
32
8
22
7
12
18
20
9
30
28
16
36
35
17
15
10
14
13
27
4
23
3
2
25
31
11
6

> <PUBCHEM_MMFF94_PARTIAL_CHARGES>
31
1 -0.56
10 -0.57
11 -0.57
13 0.14
17 0.56
18 -0.28
2 -0.36
20 -0.07
21 0.56
22 0.28
23 0.14
24 0.28
25 0.28
26 0.28
27 0.28
28 0.66
29 0.66
3 -0.56
30 0.66
31 0.06
32 0.06
33 0.66
34 0.06
35 0.06
4 -0.43
48 0.15
5 -0.43
6 -0.43
7 -0.43
8 -0.57
9 -0.57

> <PUBCHEM_EFFECTIVE_ROTOR_COUNT>
13.2

> <PUBCHEM_PHARMACOPHORE_FEATURES>
10
1 1 acceptor
1 10 acceptor
1 11 acceptor
1 2 acceptor
1 3 acceptor
1 8 acceptor
1 9 acceptor
5 12 13 14 15 16 rings
6 2 12 13 17 18 20 rings
6 3 21 22 24 25 26 rings

> <PUBCHEM_HEAVY_ATOM_COUNT>
35

> <PUBCHEM_ATOM_DEF_STEREO_COUNT>
9

> <PUBCHEM_ATOM_UDEF_STEREO_COUNT>
0

> <PUBCHEM_BOND_DEF_STEREO_COUNT>
0

> <PUBCHEM_BOND_UDEF_STEREO_COUNT>
0

> <PUBCHEM_ISOTOPIC_ATOM_COUNT>
0

> <PUBCHEM_COMPONENT_COUNT>
1

> <PUBCHEM_CACTVS_TAUTO_COUNT>
1

> <PUBCHEM_CONFORMER_ID>
0006C3CB00000001

> <PUBCHEM_MMFF94_ENERGY>
78.8851

> <PUBCHEM_FEATURE_SELFOVERLAP>
50.983

> <PUBCHEM_SHAPE_FINGERPRINT>
10190108 129 17905017580948739610
1100329 8 18411143532713293990
11227688 84 17761777664733552014
12236239 1 17967536783257691717
12422481 6 17604989415335829692
13140716 1 18411975871668531346
13782708 43 17418084408861519009
13911987 19 18271796964883867566
14844126 61 16036058044296146939
16112460 7 18336260150715675851
17138139 8 17753078028392748543
20028762 73 18188780560069696534
20101258 96 17041750466065501707
20739085 24 18268126799524008760
22311459 1 17690842689606472900
23559900 14 16343416305911831278
283562 15 18192438695616223464
350125 39 18265608965731872536
50150288 127 17029057266554205243

> <PUBCHEM_SHAPE_MULTIPOLES>
655.72
11.81
6.29
1.75
0.58
6.67
-0.42
-1.35
1.3
3.72
-0.13
-3.07
-0.72
-1.02

> <PUBCHEM_SHAPE_SELFOVERLAP>
1359.297

> <PUBCHEM_SHAPE_VOLUME>
368.2

> <PUBCHEM_COORDINATE_TYPE>
2
5
10

$$$$

