586337
  -OEChem-06241222462D

 31 33  0     0  0  0  0  0  0999 V2000
    4.4374   -0.2494    0.0000 S   0  0  0  0  0  0  0  0  0  0  0  0
    7.0064    0.0596    0.0000 O   0  0  0  0  0  0  0  0  0  0  0  0
    7.2852    1.8197    0.0000 O   0  0  0  0  0  0  0  0  0  0  0  0
    6.1974   -0.5282    0.0000 C   0  0  0  0  0  0  0  0  0  0  0  0
    7.0064   -1.1160    0.0000 C   0  0  0  0  0  0  0  0  0  0  0  0
    5.3884   -1.1160    0.0000 C   0  0  0  0  0  0  0  0  0  0  0  0
    6.6974   -2.0670    0.0000 C   0  0  0  0  0  0  0  0  0  0  0  0
    5.6974   -2.0670    0.0000 C   0  0  0  0  0  0  0  0  0  0  0  0
    5.3884    0.0596    0.0000 C   0  0  0  0  0  0  0  0  0  0  0  0
    5.6974    1.0107    0.0000 C   0  0  0  0  0  0  0  0  0  0  0  0
    6.6974    1.0107    0.0000 C   0  0  0  0  0  0  0  0  0  0  0  0
    3.6942    0.4197    0.0000 C   0  0  0  0  0  0  0  0  0  0  0  0
    3.9021    1.3979    0.0000 C   0  0  0  0  0  0  0  0  0  0  0  0
    2.7431    0.1107    0.0000 C   0  0  0  0  0  0  0  0  0  0  0  0
    3.1590    2.0670    0.0000 C   0  0  0  0  0  0  0  0  0  0  0  0
    2.0000    0.7798    0.0000 C   0  0  0  0  0  0  0  0  0  0  0  0
    2.2079    1.7580    0.0000 C   0  0  0  0  0  0  0  0  0  0  0  0
    7.5728   -1.3681    0.0000 H   0  0  0  0  0  0  0  0  0  0  0  0
    7.3164   -0.5790    0.0000 H   0  0  0  0  0  0  0  0  0  0  0  0
    5.0784   -0.5790    0.0000 H   0  0  0  0  0  0  0  0  0  0  0  0
    4.8220   -1.3681    0.0000 H   0  0  0  0  0  0  0  0  0  0  0  0
    6.6326   -2.6836    0.0000 H   0  0  0  0  0  0  0  0  0  0  0  0
    7.3039   -2.1959    0.0000 H   0  0  0  0  0  0  0  0  0  0  0  0
    5.0910   -2.1959    0.0000 H   0  0  0  0  0  0  0  0  0  0  0  0
    5.7622   -2.6836    0.0000 H   0  0  0  0  0  0  0  0  0  0  0  0
    5.3330    1.5123    0.0000 H   0  0  0  0  0  0  0  0  0  0  0  0
    4.4918    1.5895    0.0000 H   0  0  0  0  0  0  0  0  0  0  0  0
    2.6142   -0.4957    0.0000 H   0  0  0  0  0  0  0  0  0  0  0  0
    3.2879    2.6735    0.0000 H   0  0  0  0  0  0  0  0  0  0  0  0
    1.4103    0.5883    0.0000 H   0  0  0  0  0  0  0  0  0  0  0  0
    1.7472    2.1728    0.0000 H   0  0  0  0  0  0  0  0  0  0  0  0
  1  9  1  0  0  0  0
  1 12  1  0  0  0  0
  2  4  1  0  0  0  0
  2 11  1  0  0  0  0
  3 11  2  0  0  0  0
  4  5  1  0  0  0  0
  4  6  1  0  0  0  0
  4  9  1  0  0  0  0
  5  7  1  0  0  0  0
  5 18  1  0  0  0  0
  5 19  1  0  0  0  0
  6  8  1  0  0  0  0
  6 20  1  0  0  0  0
  6 21  1  0  0  0  0
  7  8  1  0  0  0  0
  7 22  1  0  0  0  0
  7 23  1  0  0  0  0
  8 24  1  0  0  0  0
  8 25  1  0  0  0  0
  9 10  2  0  0  0  0
 10 11  1  0  0  0  0
 10 26  1  0  0  0  0
 12 13  2  0  0  0  0
 12 14  1  0  0  0  0
 13 15  1  0  0  0  0
 13 27  1  0  0  0  0
 14 16  2  0  0  0  0
 14 28  1  0  0  0  0
 15 17  2  0  0  0  0
 15 29  1  0  0  0  0
 16 17  1  0  0  0  0
 16 30  1  0  0  0  0
 17 31  1  0  0  0  0
M  END
> <PUBCHEM_COMPOUND_CID>
586337

> <PUBCHEM_COMPOUND_CANONICALIZED>
1

> <PUBCHEM_CACTVS_COMPLEXITY>
336

> <PUBCHEM_CACTVS_HBOND_ACCEPTOR>
3

> <PUBCHEM_CACTVS_HBOND_DONOR>
0

> <PUBCHEM_CACTVS_ROTATABLE_BOND>
2

> <PUBCHEM_CACTVS_SUBSKEYS>
AAADccBwMABAAAAAAAAAAAAAAAAAAYIAAAAwAAAAAAAAAAABAAAAGgQAAAAADESA0AAwCYAABAiIACDSCAACAAAgCBAIiBgAAMgIJCKgMRCCMAAkgAAoqQeAAAAOAAAAAAAAAAAAAAAAAAAAAAAAAAAAAA==

> <PUBCHEM_IUPAC_OPENEYE_NAME>
4-phenylsulfanyl-1-oxaspiro[4.4]non-3-en-2-one

> <PUBCHEM_IUPAC_CAS_NAME>
4-(phenylthio)-1-oxaspiro[4.4]non-3-en-2-one

> <PUBCHEM_IUPAC_NAME>
4-phenylsulfanyl-1-oxaspiro[4.4]non-3-en-2-one

> <PUBCHEM_IUPAC_SYSTEMATIC_NAME>
4-phenylsulfanyl-1-oxaspiro[4.4]non-3-en-2-one

> <PUBCHEM_IUPAC_TRADITIONAL_NAME>
4-(phenylthio)-1-oxaspiro[4.4]non-3-en-2-one

> <PUBCHEM_IUPAC_INCHI>
InChI=1S/C14H14O2S/c15-13-10-12(14(16-13)8-4-5-9-14)17-11-6-2-1-3-7-11/h1-3,6-7,10H,4-5,8-9H2

> <PUBCHEM_IUPAC_INCHIKEY>
XUKMVNCNHQQJID-UHFFFAOYSA-N

> <PUBCHEM_XLOGP3_AA>
3.1

> <PUBCHEM_EXACT_MASS>
246.071451

> <PUBCHEM_MOLECULAR_FORMULA>
C14H14O2S

> <PUBCHEM_MOLECULAR_WEIGHT>
246.32476

> <PUBCHEM_OPENEYE_CAN_SMILES>
C1CCC2(C1)C(=CC(=O)O2)SC3=CC=CC=C3

> <PUBCHEM_OPENEYE_ISO_SMILES>
C1CCC2(C1)C(=CC(=O)O2)SC3=CC=CC=C3

> <PUBCHEM_CACTVS_TPSA>
51.6

> <PUBCHEM_MONOISOTOPIC_WEIGHT>
246.071451

> <PUBCHEM_TOTAL_CHARGE>
0

> <PUBCHEM_HEAVY_ATOM_COUNT>
17

> <PUBCHEM_ATOM_DEF_STEREO_COUNT>
0

> <PUBCHEM_ATOM_UDEF_STEREO_COUNT>
0

> <PUBCHEM_BOND_DEF_STEREO_COUNT>
0

> <PUBCHEM_BOND_UDEF_STEREO_COUNT>
0

> <PUBCHEM_ISOTOPIC_ATOM_COUNT>
0

> <PUBCHEM_COMPONENT_COUNT>
1

> <PUBCHEM_CACTVS_TAUTO_COUNT>
1

> <PUBCHEM_COORDINATE_TYPE>
1
5
255

> <PUBCHEM_BONDANNOTATIONS>
12  13  8
12  14  8
13  15  8
14  16  8
15  17  8
16  17  8

$$$$

