23724539
  -OEChem-07051213072D

 78 79  0     1  0  0  0  0  0999 V2000
    7.1962   -0.6900    0.0000 O   0  0  0  0  0  0  0  0  0  0  0  0
   11.0007   -2.3839    0.0000 O   0  0  0  0  0  0  0  0  0  0  0  0
    9.3065   -2.7440    0.0000 O   0  0  0  0  0  0  0  0  0  0  0  0
    7.1962    2.3100    0.0000 O   0  0  0  0  0  0  0  0  0  0  0  0
    5.4641   -0.6900    0.0000 O   0  0  0  0  0  0  0  0  0  0  0  0
    8.0622    0.8100    0.0000 O   0  0  0  0  0  0  0  0  0  0  0  0
    2.8660   -3.1900    0.0000 N   0  0  0  0  0  0  0  0  0  0  0  0
    8.9282   -0.6900    0.0000 C   0  0  1  0  0  0  0  0  0  0  0  0
    9.8418   -1.0967    0.0000 C   0  0  1  0  0  0  0  0  0  0  0  0
    9.0327    0.3045    0.0000 C   0  0  0  0  0  0  0  0  0  0  0  0
   10.5109   -0.3536    0.0000 C   0  0  0  0  0  0  0  0  0  0  0  0
   10.0109    0.5124    0.0000 C   0  0  0  0  0  0  0  0  0  0  0  0
    8.0622   -1.1900    0.0000 C   0  0  1  0  0  0  0  0  0  0  0  0
    8.0622   -2.1900    0.0000 C   0  0  0  0  0  0  0  0  0  0  0  0
    3.7320    2.3100    0.0000 C   0  0  1  0  0  0  0  0  0  0  0  0
   10.0497   -2.0749    0.0000 C   0  0  0  0  0  0  0  0  0  0  0  0
    2.8660    0.8100    0.0000 C   0  0  2  0  0  0  0  0  0  0  0  0
    2.8660    1.8100    0.0000 C   0  0  0  0  0  0  0  0  0  0  0  0
    4.5981    1.8100    0.0000 C   0  0  0  0  0  0  0  0  0  0  0  0
    5.4641    2.3100    0.0000 C   0  0  1  0  0  0  0  0  0  0  0  0
    3.7320    0.3100    0.0000 C   0  0  0  0  0  0  0  0  0  0  0  0
    6.3301    1.8100    0.0000 C   0  0  2  0  0  0  0  0  0  0  0  0
    3.7320   -0.6900    0.0000 C   0  0  1  0  0  0  0  0  0  0  0  0
    6.3301    0.8100    0.0000 C   0  0  0  0  0  0  0  0  0  0  0  0
    3.7320    3.3100    0.0000 C   0  0  0  0  0  0  0  0  0  0  0  0
    7.1962    0.3100    0.0000 C   0  0  0  0  0  0  0  0  0  0  0  0
    7.1962   -2.6900    0.0000 C   0  0  0  0  0  0  0  0  0  0  0  0
    2.0000    0.3100    0.0000 C   0  0  0  0  0  0  0  0  0  0  0  0
    5.4641    3.3100    0.0000 C   0  0  0  0  0  0  0  0  0  0  0  0
    4.5981   -1.1900    0.0000 C   0  0  2  0  0  0  0  0  0  0  0  0
    2.8660   -1.1900    0.0000 C   0  0  0  0  0  0  0  0  0  0  0  0
    6.3301   -2.1900    0.0000 C   0  0  0  0  0  0  0  0  0  0  0  0
    4.5981   -2.1900    0.0000 C   0  0  0  0  0  0  0  0  0  0  0  0
    5.4641   -2.6900    0.0000 C   0  0  0  0  0  0  0  0  0  0  0  0
    3.7320   -2.6900    0.0000 C   0  0  0  0  0  0  0  0  0  0  0  0
    8.9727   -1.5388    0.0000 H   0  0  0  0  0  0  0  0  0  0  0  0
    9.3599   -1.4869    0.0000 H   0  0  0  0  0  0  0  0  0  0  0  0
    8.9679    0.9211    0.0000 H   0  0  0  0  0  0  0  0  0  0  0  0
    8.4127    0.3045    0.0000 H   0  0  0  0  0  0  0  0  0  0  0  0
   10.9257   -0.8143    0.0000 H   0  0  0  0  0  0  0  0  0  0  0  0
   11.0125    0.0108    0.0000 H   0  0  0  0  0  0  0  0  0  0  0  0
   10.5773    0.7646    0.0000 H   0  0  0  0  0  0  0  0  0  0  0  0
    9.8193    1.1021    0.0000 H   0  0  0  0  0  0  0  0  0  0  0  0
    8.0622   -0.3400    0.0000 H   0  0  0  0  0  0  0  0  0  0  0  0
    8.2742   -2.7726    0.0000 H   0  0  0  0  0  0  0  0  0  0  0  0
    8.6728   -2.0823    0.0000 H   0  0  0  0  0  0  0  0  0  0  0  0
    4.2690    2.6200    0.0000 H   0  0  0  0  0  0  0  0  0  0  0  0
    2.8660    0.1900    0.0000 H   0  0  0  0  0  0  0  0  0  0  0  0
    2.6540    2.3926    0.0000 H   0  0  0  0  0  0  0  0  0  0  0  0
    2.2554    1.7023    0.0000 H   0  0  0  0  0  0  0  0  0  0  0  0
    4.1996    1.3350    0.0000 H   0  0  0  0  0  0  0  0  0  0  0  0
    4.9966    1.3350    0.0000 H   0  0  0  0  0  0  0  0  0  0  0  0
    6.0010    2.6200    0.0000 H   0  0  0  0  0  0  0  0  0  0  0  0
    4.3426    0.2023    0.0000 H   0  0  0  0  0  0  0  0  0  0  0  0
    3.9441    0.8926    0.0000 H   0  0  0  0  0  0  0  0  0  0  0  0
    6.8671    1.5000    0.0000 H   0  0  0  0  0  0  0  0  0  0  0  0
    3.1951   -0.3800    0.0000 H   0  0  0  0  0  0  0  0  0  0  0  0
    5.7196    0.9177    0.0000 H   0  0  0  0  0  0  0  0  0  0  0  0
    6.1181    0.2274    0.0000 H   0  0  0  0  0  0  0  0  0  0  0  0
    4.3520    3.3100    0.0000 H   0  0  0  0  0  0  0  0  0  0  0  0
    3.7320    3.9300    0.0000 H   0  0  0  0  0  0  0  0  0  0  0  0
    3.1120    3.3100    0.0000 H   0  0  0  0  0  0  0  0  0  0  0  0
    1.6900    0.8469    0.0000 H   0  0  0  0  0  0  0  0  0  0  0  0
    1.4631    0.0000    0.0000 H   0  0  0  0  0  0  0  0  0  0  0  0
    2.3100   -0.2269    0.0000 H   0  0  0  0  0  0  0  0  0  0  0  0
    7.1962   -3.3100    0.0000 H   0  0  0  0  0  0  0  0  0  0  0  0
    6.0841    3.3100    0.0000 H   0  0  0  0  0  0  0  0  0  0  0  0
    5.4641    3.9300    0.0000 H   0  0  0  0  0  0  0  0  0  0  0  0
    4.8441    3.3100    0.0000 H   0  0  0  0  0  0  0  0  0  0  0  0
    5.1350   -1.5000    0.0000 H   0  0  0  0  0  0  0  0  0  0  0  0
    2.5560   -0.6531    0.0000 H   0  0  0  0  0  0  0  0  0  0  0  0
    2.3291   -1.5000    0.0000 H   0  0  0  0  0  0  0  0  0  0  0  0
    3.1760   -1.7269    0.0000 H   0  0  0  0  0  0  0  0  0  0  0  0
   11.1296   -2.9904    0.0000 H   0  0  0  0  0  0  0  0  0  0  0  0
    6.3301   -1.5700    0.0000 H   0  0  0  0  0  0  0  0  0  0  0  0
    7.1962    2.9300    0.0000 H   0  0  0  0  0  0  0  0  0  0  0  0
    5.4641   -3.3100    0.0000 H   0  0  0  0  0  0  0  0  0  0  0  0
    5.4641   -0.0700    0.0000 H   0  0  0  0  0  0  0  0  0  0  0  0
  1 13  1  0  0  0  0
  1 26  1  0  0  0  0
  2 16  1  0  0  0  0
  2 74  1  0  0  0  0
  3 16  2  0  0  0  0
 22  4  1  1  0  0  0
  4 76  1  0  0  0  0
 30  5  1  1  0  0  0
  5 78  1  0  0  0  0
  6 26  2  0  0  0  0
  7 35  3  0  0  0  0
  8  9  1  0  0  0  0
  8 10  1  0  0  0  0
  8 13  1  0  0  0  0
  8 36  1  1  0  0  0
  9 11  1  0  0  0  0
  9 16  1  1  0  0  0
  9 37  1  0  0  0  0
 10 12  1  0  0  0  0
 10 38  1  0  0  0  0
 10 39  1  0  0  0  0
 11 12  1  0  0  0  0
 11 40  1  0  0  0  0
 11 41  1  0  0  0  0
 12 42  1  0  0  0  0
 12 43  1  0  0  0  0
 13 14  1  0  0  0  0
 13 44  1  6  0  0  0
 14 27  1  0  0  0  0
 14 45  1  0  0  0  0
 14 46  1  0  0  0  0
 15 18  1  0  0  0  0
 15 19  1  0  0  0  0
 15 25  1  6  0  0  0
 15 47  1  0  0  0  0
 17 18  1  0  0  0  0
 17 21  1  0  0  0  0
 17 28  1  6  0  0  0
 17 48  1  0  0  0  0
 18 49  1  0  0  0  0
 18 50  1  0  0  0  0
 19 20  1  0  0  0  0
 19 51  1  0  0  0  0
 19 52  1  0  0  0  0
 20 22  1  0  0  0  0
 20 29  1  6  0  0  0
 20 53  1  0  0  0  0
 21 23  1  0  0  0  0
 21 54  1  0  0  0  0
 21 55  1  0  0  0  0
 22 24  1  0  0  0  0
 22 56  1  0  0  0  0
 23 30  1  0  0  0  0
 23 31  1  1  0  0  0
 23 57  1  0  0  0  0
 24 26  1  0  0  0  0
 24 58  1  0  0  0  0
 24 59  1  0  0  0  0
 25 60  1  0  0  0  0
 25 61  1  0  0  0  0
 25 62  1  0  0  0  0
 27 32  2  0  0  0  0
 27 66  1  0  0  0  0
 28 63  1  0  0  0  0
 28 64  1  0  0  0  0
 28 65  1  0  0  0  0
 29 67  1  0  0  0  0
 29 68  1  0  0  0  0
 29 69  1  0  0  0  0
 30 33  1  0  0  0  0
 30 70  1  0  0  0  0
 31 71  1  0  0  0  0
 31 72  1  0  0  0  0
 31 73  1  0  0  0  0
 32 34  1  0  0  0  0
 32 75  1  0  0  0  0
 33 34  2  0  0  0  0
 33 35  1  0  0  0  0
 34 77  1  0  0  0  0
M  END
> <PUBCHEM_COMPOUND_CID>
23724539

> <PUBCHEM_COMPOUND_CANONICALIZED>
1

> <PUBCHEM_CACTVS_COMPLEXITY>
827

> <PUBCHEM_CACTVS_HBOND_ACCEPTOR>
7

> <PUBCHEM_CACTVS_HBOND_DONOR>
3

> <PUBCHEM_CACTVS_ROTATABLE_BOND>
2

> <PUBCHEM_CACTVS_SUBSKEYS>
AAADcfB6OAAAAAAAAAAAAAAAAAAAAYAAAAAAAAAAAAAAAAAAAAAAHgAACAAADRShgAICCAAABgCYBiDSCAAgAAAgAAAICAEAAAgIlBYAAQACUAAF4AAIkAvKyOCOgAAAAAAAAAAAAAAAAAAAAAAACAAAAA==

> <PUBCHEM_IUPAC_OPENEYE_NAME>
(1R,2R)-2-[(2R,4E,6Z,8R,9S,11R,13S,15S,16S)-7-cyano-8,16-dihydroxy-9,11,13,15-tetramethyl-18-oxo-1-oxacyclooctadeca-4,6-dien-2-yl]cyclopentanecarboxylic acid

> <PUBCHEM_IUPAC_CAS_NAME>
(1R,2R)-2-[(2R,4E,6Z,8R,9S,11R,13S,15S,16S)-7-cyano-8,16-dihydroxy-9,11,13,15-tetramethyl-18-oxo-1-oxacyclooctadeca-4,6-dien-2-yl]-1-cyclopentanecarboxylic acid

> <PUBCHEM_IUPAC_NAME>
(1R,2R)-2-[(2R,4E,6Z,8R,9S,11R,13S,15S,16S)-7-cyano-8,16-dihydroxy-9,11,13,15-tetramethyl-18-oxo-1-oxacyclooctadeca-4,6-dien-2-yl]cyclopentane-1-carboxylic acid

> <PUBCHEM_IUPAC_SYSTEMATIC_NAME>
(1R,2R)-2-[(2R,4E,6Z,8R,9S,11R,13S,15S,16S)-7-cyano-9,11,13,15-tetramethyl-8,16-bis(oxidanyl)-18-oxidanylidene-1-oxacyclooctadeca-4,6-dien-2-yl]cyclopentane-1-carboxylic acid

> <PUBCHEM_IUPAC_TRADITIONAL_NAME>
(1R,2R)-2-[(2R,4E,6Z,8R,9S,11R,13S,15S,16S)-7-cyano-8,16-dihydroxy-18-keto-9,11,13,15-tetramethyl-1-oxacyclooctadeca-4,6-dien-2-yl]cyclopentanecarboxylic acid

> <PUBCHEM_IUPAC_INCHI>
InChI=1S/C28H43NO6/c1-17-12-18(2)14-20(4)27(32)21(16-29)8-5-6-11-25(22-9-7-10-23(22)28(33)34)35-26(31)15-24(30)19(3)13-17/h5-6,8,17-20,22-25,27,30,32H,7,9-15H2,1-4H3,(H,33,34)/b6-5+,21-8-/t17-,18+,19-,20-,22+,23+,24-,25+,27+/m0/s1

> <PUBCHEM_IUPAC_INCHIKEY>
OJCKRNPLOZHAOU-JTHVHBRGSA-N

> <PUBCHEM_XLOGP3_AA>
5.6

> <PUBCHEM_EXACT_MASS>
489.309038

> <PUBCHEM_MOLECULAR_FORMULA>
C28H43NO6

> <PUBCHEM_MOLECULAR_WEIGHT>
489.64412

> <PUBCHEM_OPENEYE_CAN_SMILES>
CC1CC(CC(C(C(=CC=CCC(OC(=O)CC(C(C1)C)O)C2CCCC2C(=O)O)C#N)O)C)C

> <PUBCHEM_OPENEYE_ISO_SMILES>
C[C@H]1C[C@H](C[C@@H]([C@H](/C(=C\C=C\C[C@@H](OC(=O)C[C@@H]([C@H](C1)C)O)[C@@H]2CCC[C@H]2C(=O)O)/C#N)O)C)C

> <PUBCHEM_CACTVS_TPSA>
128

> <PUBCHEM_MONOISOTOPIC_WEIGHT>
489.309038

> <PUBCHEM_TOTAL_CHARGE>
0

> <PUBCHEM_HEAVY_ATOM_COUNT>
35

> <PUBCHEM_ATOM_DEF_STEREO_COUNT>
9

> <PUBCHEM_ATOM_UDEF_STEREO_COUNT>
0

> <PUBCHEM_BOND_DEF_STEREO_COUNT>
2

> <PUBCHEM_BOND_UDEF_STEREO_COUNT>
0

> <PUBCHEM_ISOTOPIC_ATOM_COUNT>
0

> <PUBCHEM_COMPONENT_COUNT>
1

> <PUBCHEM_CACTVS_TAUTO_COUNT>
2

> <PUBCHEM_COORDINATE_TYPE>
1
5
255

> <PUBCHEM_BONDANNOTATIONS>
13  44  6
15  25  6
17  28  6
20  29  6
23  31  5
22  4  5
30  5  5
8  36  5
9  16  5

$$$$

