31072
  -OEChem-07051212543D

 22 22  0     0  0  0  0  0  0999 V2000
    0.4686   -2.2751   -0.0017 S   0  0  0  0  0  0  0  0  0  0  0  0
   -1.8552   -0.2462    0.0002 O   0  0  0  0  0  0  0  0  0  0  0  0
   -1.5116    2.0132   -0.0013 O   0  0  0  0  0  0  0  0  0  0  0  0
    2.4366   -0.3141    0.0008 N   0  0  0  0  0  0  0  0  0  0  0  0
    0.3171    0.5536    0.0002 N   0  0  0  0  0  0  0  0  0  0  0  0
    1.0653   -0.7191    0.0002 C   0  0  0  0  0  0  0  0  0  0  0  0
    1.2663    1.5683    0.0003 C   0  0  0  0  0  0  0  0  0  0  0  0
    2.5002    1.0586    0.0005 C   0  0  0  0  0  0  0  0  0  0  0  0
    3.6298   -1.1399    0.0000 C   0  0  0  0  0  0  0  0  0  0  0  0
   -1.0631    0.8675   -0.0006 C   0  0  0  0  0  0  0  0  0  0  0  0
   -3.2690   -0.0167    0.0002 C   0  0  0  0  0  0  0  0  0  0  0  0
   -3.9851   -1.3503    0.0011 C   0  0  0  0  0  0  0  0  0  0  0  0
    0.9875    2.6105    0.0001 H   0  0  0  0  0  0  0  0  0  0  0  0
    3.4428    1.5822    0.0005 H   0  0  0  0  0  0  0  0  0  0  0  0
    4.2207   -0.9094    0.8915 H   0  0  0  0  0  0  0  0  0  0  0  0
    4.2160   -0.9141   -0.8959 H   0  0  0  0  0  0  0  0  0  0  0  0
    3.3808   -2.2026    0.0034 H   0  0  0  0  0  0  0  0  0  0  0  0
   -3.5460    0.5527    0.8944 H   0  0  0  0  0  0  0  0  0  0  0  0
   -3.5461    0.5516   -0.8946 H   0  0  0  0  0  0  0  0  0  0  0  0
   -5.0698   -1.2120    0.0011 H   0  0  0  0  0  0  0  0  0  0  0  0
   -3.7035   -1.9394   -0.8780 H   0  0  0  0  0  0  0  0  0  0  0  0
   -3.7034   -1.9382    0.8809 H   0  0  0  0  0  0  0  0  0  0  0  0
  1  6  2  0  0  0  0
  2 10  1  0  0  0  0
  2 11  1  0  0  0  0
  3 10  2  0  0  0  0
  4  6  1  0  0  0  0
  4  8  1  0  0  0  0
  4  9  1  0  0  0  0
  5  6  1  0  0  0  0
  5  7  1  0  0  0  0
  5 10  1  0  0  0  0
  7  8  2  0  0  0  0
  7 13  1  0  0  0  0
  8 14  1  0  0  0  0
  9 15  1  0  0  0  0
  9 16  1  0  0  0  0
  9 17  1  0  0  0  0
 11 12  1  0  0  0  0
 11 18  1  0  0  0  0
 11 19  1  0  0  0  0
 12 20  1  0  0  0  0
 12 21  1  0  0  0  0
 12 22  1  0  0  0  0
M  END
> <PUBCHEM_COMPOUND_CID>
31072

> <PUBCHEM_CONFORMER_RMSD>
0.6

> <PUBCHEM_CONFORMER_DIVERSEORDER>
1
11
5
13
6
10
7
14
9
12
8
3
4
2

> <PUBCHEM_MMFF94_PARTIAL_CHARGES>
13
1 -0.38
10 0.78
11 0.28
13 0.15
14 0.15
2 -0.43
3 -0.57
4 -0.47
5 -0.23
6 0.5
7 -0.04
8 -0.04
9 0.3

> <PUBCHEM_EFFECTIVE_ROTOR_COUNT>
3

> <PUBCHEM_PHARMACOPHORE_FEATURES>
3
1 1 acceptor
1 3 acceptor
5 4 5 6 7 8 rings

> <PUBCHEM_HEAVY_ATOM_COUNT>
12

> <PUBCHEM_ATOM_DEF_STEREO_COUNT>
0

> <PUBCHEM_ATOM_UDEF_STEREO_COUNT>
0

> <PUBCHEM_BOND_DEF_STEREO_COUNT>
0

> <PUBCHEM_BOND_UDEF_STEREO_COUNT>
0

> <PUBCHEM_ISOTOPIC_ATOM_COUNT>
0

> <PUBCHEM_COMPONENT_COUNT>
1

> <PUBCHEM_CACTVS_TAUTO_COUNT>
1

> <PUBCHEM_CONFORMER_ID>
0000796000000001

> <PUBCHEM_MMFF94_ENERGY>
36.5098

> <PUBCHEM_FEATURE_SELFOVERLAP>
15.223

> <PUBCHEM_SHAPE_FINGERPRINT>
10219947 1 18340202990753795925
108231 29 18260832596355918696
11806522 49 18411982459921263070
12032990 46 18335979874103126686
12897270 3 18412829100927899749
14251717 144 18337676308923166591
14325111 11 18410856542523405793
15757776 16 18201444691795084811
16945 1 18410575097722171046
19021347 11 18341333395934197746
20201158 50 18342458153632726379
20645477 70 18409736145076532551
20871998 22 18188480410310951310
21501925 9 18411992368532075984
22959321 4 18411418380227971075
23552423 10 18269550696882466397
2748010 2 18123181303785008642
2871803 45 18341901775137530055
5084963 1 18187364346042519336
581208 293 18337677408044137817
8809292 202 18201432563039692619

> <PUBCHEM_SHAPE_MULTIPOLES>
229.1
5.88
2.15
0.59
3.18
0.3
0
1.9
0
-0.19
0
-0.01
0.04
0

> <PUBCHEM_SHAPE_SELFOVERLAP>
446.898

> <PUBCHEM_SHAPE_VOLUME>
140.4

> <PUBCHEM_COORDINATE_TYPE>
2
5
10

$$$$

