10958189
  -OEChem-07051213123D

 51 51  0     1  0  0  0  0  0999 V2000
   -0.6903   -1.3252    1.3006 O   0  0  0  0  0  0  0  0  0  0  0  0
   -4.7804   -0.2142    0.3951 O   0  0  0  0  0  0  0  0  0  0  0  0
   -3.6482   -0.2207   -1.6032 O   0  0  0  0  0  0  0  0  0  0  0  0
    0.9258   -0.4647   -0.1258 N   0  0  0  0  0  0  0  0  0  0  0  0
   -2.5936    0.3075    0.3952 N   0  0  0  0  0  0  0  0  0  0  0  0
   -1.2713    0.5513   -0.1228 C   0  0  1  0  0  0  0  0  0  0  0  0
   -0.7676    1.9839    0.1529 C   0  0  0  0  0  0  0  0  0  0  0  0
   -0.3354   -0.5106    0.4511 C   0  0  0  0  0  0  0  0  0  0  0  0
    1.9819   -1.3891    0.2166 C   0  0  2  0  0  0  0  0  0  0  0  0
   -1.6745    3.0656   -0.4434 C   0  0  0  0  0  0  0  0  0  0  0  0
   -0.5897    2.2250    1.6553 C   0  0  0  0  0  0  0  0  0  0  0  0
    3.3444   -0.7491    0.0598 C   0  0  0  0  0  0  0  0  0  0  0  0
    1.8471   -2.6809   -0.5870 C   0  0  0  0  0  0  0  0  0  0  0  0
   -3.6712   -0.0579   -0.3876 C   0  0  0  0  0  0  0  0  0  0  0  0
    4.1611   -0.5644    1.1755 C   0  0  0  0  0  0  0  0  0  0  0  0
    3.7829   -0.3430   -1.2005 C   0  0  0  0  0  0  0  0  0  0  0  0
    5.8549    0.4326   -0.2296 C   0  0  0  0  0  0  0  0  0  0  0  0
    5.4162    0.0265    1.0307 C   0  0  0  0  0  0  0  0  0  0  0  0
    5.0381    0.2479   -1.3452 C   0  0  0  0  0  0  0  0  0  0  0  0
   -5.9791   -0.5950   -0.2895 C   0  0  0  0  0  0  0  0  0  0  0  0
    7.1967    1.0646   -0.3846 C   0  0  0  0  0  0  0  0  0  0  0  0
   -6.7122    0.6559   -0.7494 C   0  0  0  0  0  0  0  0  0  0  0  0
   -6.8355   -1.4459    0.6358 C   0  0  0  0  0  0  0  0  0  0  0  0
   -1.2922    0.3987   -1.2098 H   0  0  0  0  0  0  0  0  0  0  0  0
    0.2189    2.1085   -0.3112 H   0  0  0  0  0  0  0  0  0  0  0  0
    1.8421   -1.6581    1.2719 H   0  0  0  0  0  0  0  0  0  0  0  0
   -1.8054    2.9083   -1.5191 H   0  0  0  0  0  0  0  0  0  0  0  0
   -1.2365    4.0594   -0.3011 H   0  0  0  0  0  0  0  0  0  0  0  0
   -2.6645    3.0661    0.0243 H   0  0  0  0  0  0  0  0  0  0  0  0
   -1.5380    2.1462    2.1967 H   0  0  0  0  0  0  0  0  0  0  0  0
    0.1195    1.5205    2.1006 H   0  0  0  0  0  0  0  0  0  0  0  0
   -0.1946    3.2316    1.8337 H   0  0  0  0  0  0  0  0  0  0  0  0
    1.0954    0.1971   -0.8775 H   0  0  0  0  0  0  0  0  0  0  0  0
   -2.7409    0.3688    1.3982 H   0  0  0  0  0  0  0  0  0  0  0  0
    2.6479   -3.3856   -0.3374 H   0  0  0  0  0  0  0  0  0  0  0  0
    0.8900   -3.1715   -0.3777 H   0  0  0  0  0  0  0  0  0  0  0  0
    1.8838   -2.4980   -1.6668 H   0  0  0  0  0  0  0  0  0  0  0  0
    3.8338   -0.8751    2.1640 H   0  0  0  0  0  0  0  0  0  0  0  0
    3.1601   -0.4746   -2.0811 H   0  0  0  0  0  0  0  0  0  0  0  0
    6.0440    0.1636    1.9071 H   0  0  0  0  0  0  0  0  0  0  0  0
    5.3690    0.5593   -2.3325 H   0  0  0  0  0  0  0  0  0  0  0  0
   -5.7422   -1.2152   -1.1634 H   0  0  0  0  0  0  0  0  0  0  0  0
    7.9527    0.2977   -0.5805 H   0  0  0  0  0  0  0  0  0  0  0  0
    7.2021    1.7825   -1.2119 H   0  0  0  0  0  0  0  0  0  0  0  0
    7.4811    1.6152    0.5186 H   0  0  0  0  0  0  0  0  0  0  0  0
   -6.0899    1.2447   -1.4314 H   0  0  0  0  0  0  0  0  0  0  0  0
   -7.6445    0.4035   -1.2638 H   0  0  0  0  0  0  0  0  0  0  0  0
   -6.9466    1.3054    0.1013 H   0  0  0  0  0  0  0  0  0  0  0  0
   -6.2827   -2.3362    0.9546 H   0  0  0  0  0  0  0  0  0  0  0  0
   -7.7597   -1.7650    0.1445 H   0  0  0  0  0  0  0  0  0  0  0  0
   -7.0939   -0.8941    1.5463 H   0  0  0  0  0  0  0  0  0  0  0  0
  1  8  2  0  0  0  0
  2 14  1  0  0  0  0
  2 20  1  0  0  0  0
  3 14  2  0  0  0  0
  4  8  1  0  0  0  0
  4  9  1  0  0  0  0
  4 33  1  0  0  0  0
  5  6  1  0  0  0  0
  5 14  1  0  0  0  0
  5 34  1  0  0  0  0
  6  7  1  0  0  0  0
  6  8  1  0  0  0  0
  6 24  1  0  0  0  0
  7 10  1  0  0  0  0
  7 11  1  0  0  0  0
  7 25  1  0  0  0  0
  9 12  1  0  0  0  0
  9 13  1  0  0  0  0
  9 26  1  0  0  0  0
 10 27  1  0  0  0  0
 10 28  1  0  0  0  0
 10 29  1  0  0  0  0
 11 30  1  0  0  0  0
 11 31  1  0  0  0  0
 11 32  1  0  0  0  0
 12 15  2  0  0  0  0
 12 16  1  0  0  0  0
 13 35  1  0  0  0  0
 13 36  1  0  0  0  0
 13 37  1  0  0  0  0
 15 18  1  0  0  0  0
 15 38  1  0  0  0  0
 16 19  2  0  0  0  0
 16 39  1  0  0  0  0
 17 18  2  0  0  0  0
 17 19  1  0  0  0  0
 17 21  1  0  0  0  0
 18 40  1  0  0  0  0
 19 41  1  0  0  0  0
 20 22  1  0  0  0  0
 20 23  1  0  0  0  0
 20 42  1  0  0  0  0
 21 43  1  0  0  0  0
 21 44  1  0  0  0  0
 21 45  1  0  0  0  0
 22 46  1  0  0  0  0
 22 47  1  0  0  0  0
 22 48  1  0  0  0  0
 23 49  1  0  0  0  0
 23 50  1  0  0  0  0
 23 51  1  0  0  0  0
M  END
> <PUBCHEM_COMPOUND_CID>
10958189

> <PUBCHEM_CONFORMER_RMSD>
1

> <PUBCHEM_CONFORMER_DIVERSEORDER>
1
52
87
85
92
18
72
31
117
59
47
106
49
75
37
110
107
121
124
90
86
71
64
22
116
100
44
2
7
53
118
58
19
111
129
82
68
28
39
50
70
93
95
66
17
105
16
41
51
23
6
126
35
38
104
69
26
101
63
80
113
13
29
74
89
127
115
14
45
108
25
94
65
57
10
5
24
98
122
114
97
20
125
128
4
78
9
27
43
56
88
62
15
8
40
11
84
33
55
131
67
109
77
34
21
130
73
60
96
83
79
81
54
119
61
3
42
46
32
103
120
123
30
112
12
91
99
76
48
102
36

> <PUBCHEM_MMFF94_PARTIAL_CHARGES>
23
1 -0.57
12 -0.14
14 0.78
15 -0.15
16 -0.15
17 -0.14
18 -0.15
19 -0.15
2 -0.43
20 0.28
21 0.14
3 -0.57
33 0.37
34 0.37
38 0.15
39 0.15
4 -0.73
40 0.15
41 0.15
5 -0.73
6 0.36
8 0.57
9 0.44

> <PUBCHEM_EFFECTIVE_ROTOR_COUNT>
9

> <PUBCHEM_PHARMACOPHORE_FEATURES>
7
1 1 acceptor
1 3 acceptor
1 4 donor
1 5 donor
3 20 22 23 hydrophobe
3 7 10 11 hydrophobe
6 12 15 16 17 18 19 rings

> <PUBCHEM_HEAVY_ATOM_COUNT>
23

> <PUBCHEM_ATOM_DEF_STEREO_COUNT>
1

> <PUBCHEM_ATOM_UDEF_STEREO_COUNT>
1

> <PUBCHEM_BOND_DEF_STEREO_COUNT>
0

> <PUBCHEM_BOND_UDEF_STEREO_COUNT>
0

> <PUBCHEM_ISOTOPIC_ATOM_COUNT>
0

> <PUBCHEM_COMPONENT_COUNT>
1

> <PUBCHEM_CACTVS_TAUTO_COUNT>
4

> <PUBCHEM_CONFORMER_ID>
00A7356D00000001

> <PUBCHEM_MMFF94_ENERGY>
43.8517

> <PUBCHEM_FEATURE_SELFOVERLAP>
35.52

> <PUBCHEM_SHAPE_FINGERPRINT>
10090160 65 18343867731555102974
10299344 5 14273451474707649631
10366900 7 18335135397717575826
10498660 4 18263360455778636208
10591671 39 18342450448708953716
10670039 82 18271230734456419692
10906281 52 18341313566043298801
10968037 39 18260830389180649679
11524674 6 10519983764489688305
11963148 33 18411144610328839135
12166972 35 17703790332128008012
12236239 1 17632582664282571659
12516196 113 18113900451152862995
12730499 353 17531242864438099070
12788726 201 18339083790937984913
13533116 47 17988369260339585530
13899415 154 18113334185041896249
13914758 101 15913055360383655828
14123256 10 18410573980861758598
14251764 18 13686299080411100054
14466204 15 10231491708765410415
14840074 17 17822014211634027797
15531645 54 9511461121599453699
15537594 2 17894919537716869231
15849732 13 17530967969503851133
15927050 60 17541100866238105612
17492 89 18122065570156011154
19489759 90 13902191491027454295
20157964 124 16773798108482145906
20567600 75 15068618331750924905
21049683 271 18341047403058210013
21403212 168 9799419901441893773
21859007 373 8862671127225399159
221357 26 17530681022733725376
23035841 295 16008748013222234119
23536379 177 16271931527720624795
23557571 272 17895186753138250188
283562 15 18339639053068952641
2838139 119 14692573208847084239
329604 57 18201719557202053861
34797466 226 17895186684956798324
4325135 7 18343021094616177798
4340502 62 14979954796012268939
5207 217 18343018874112986122
5385378 56 10375608030870569421
5486654 2 18409167701290227174
559249 180 9799685991503261577
6328613 192 18339080527560177869

> <PUBCHEM_SHAPE_MULTIPOLES>
445.76
17.63
2.2
1.24
6.02
0.91
-0.06
-1.11
2.49
0.74
-0.14
-0.41
0.12
0.22

> <PUBCHEM_SHAPE_SELFOVERLAP>
894.283

> <PUBCHEM_SHAPE_VOLUME>
264

> <PUBCHEM_COORDINATE_TYPE>
2
5
10

$$$$

