5462355
  -OEChem-07051212542D

 99102  0     1  0  0  0  0  0999 V2000
    6.1245    0.8660    0.0000 S   0  0  0  0  0  0  0  0  0  0  0  0
    6.1507    8.9925    0.0000 O   0  0  0  0  0  0  0  0  0  0  0  0
    4.7988    7.5691    0.0000 O   0  0  0  0  0  0  0  0  0  0  0  0
    8.7291   11.3060    0.0000 O   0  0  0  0  0  0  0  0  0  0  0  0
    5.1722    8.7863    0.0000 O   0  0  0  0  0  0  0  0  0  0  0  0
    6.9905    1.3660    0.0000 O   0  0  0  0  0  0  0  0  0  0  0  0
    5.2585    0.3660    0.0000 O   0  0  0  0  0  0  0  0  0  0  0  0
    5.6245    1.7320    0.0000 O   0  0  0  0  0  0  0  0  0  0  0  0
    6.6245    0.0000    0.0000 O   0  0  0  0  0  0  0  0  0  0  0  0
    8.1077    9.4050    0.0000 N   0  0  3  0  0  0  0  0  0  0  0  0
    9.4434    7.9163    0.0000 N   0  0  3  0  0  0  0  0  0  0  0  0
    3.5259    9.3244    0.0000 N   0  0  0  0  0  0  0  0  0  0  0  0
   10.3754   10.7679    0.0000 N   0  0  0  0  0  0  0  0  0  0  0  0
    8.5114    5.0648    0.0000 N   0  0  0  0  0  0  0  0  0  0  0  0
    9.0862    9.6112    0.0000 C   0  0  1  0  0  0  0  0  0  0  0  0
    9.7541    8.8669    0.0000 C   0  0  0  0  0  0  0  0  0  0  0  0
    7.7971    8.4544    0.0000 C   0  0  0  0  0  0  0  0  0  0  0  0
    7.4399   10.1492    0.0000 C   0  0  0  0  0  0  0  0  0  0  0  0
    8.4649    7.7101    0.0000 C   0  0  0  0  0  0  0  0  0  0  0  0
    6.4614    9.9430    0.0000 C   0  0  2  0  0  0  0  0  0  0  0  0
    5.7935   10.6873    0.0000 C   0  0  0  0  0  0  0  0  0  0  0  0
    4.8150   10.4811    0.0000 C   0  0  2  0  0  0  0  0  0  0  0  0
    3.2152    8.3738    0.0000 C   0  0  2  0  0  0  0  0  0  0  0  0
    9.3969   10.5617    0.0000 C   0  0  0  0  0  0  0  0  0  0  0  0
    3.7988    7.5691    0.0000 C   0  0  1  0  0  0  0  0  0  0  0  0
   10.1113    7.1720    0.0000 C   0  0  0  0  0  0  0  0  0  0  0  0
    3.2152    6.7644    0.0000 C   0  0  0  0  0  0  0  0  0  0  0  0
    2.2690    8.0691    0.0000 C   0  0  0  0  0  0  0  0  0  0  0  0
    4.5044    9.5306    0.0000 C   0  0  0  0  0  0  0  0  0  0  0  0
    4.1472   11.2254    0.0000 C   0  0  0  0  0  0  0  0  0  0  0  0
    2.2690    7.0691    0.0000 C   0  0  0  0  0  0  0  0  0  0  0  0
   11.0433   10.0236    0.0000 C   0  0  0  0  0  0  0  0  0  0  0  0
    9.8006    6.2215    0.0000 C   0  0  0  0  0  0  0  0  0  0  0  0
    1.4030    8.5691    0.0000 C   0  0  0  0  0  0  0  0  0  0  0  0
    4.4579   12.1759    0.0000 C   0  0  0  0  0  0  0  0  0  0  0  0
    1.4030    6.5691    0.0000 C   0  0  0  0  0  0  0  0  0  0  0  0
   11.7111    9.2793    0.0000 C   0  0  0  0  0  0  0  0  0  0  0  0
   11.7876   10.6914    0.0000 C   0  0  0  0  0  0  0  0  0  0  0  0
   10.2990    9.3558    0.0000 C   0  0  0  0  0  0  0  0  0  0  0  0
    0.5369    8.0691    0.0000 C   0  0  0  0  0  0  0  0  0  0  0  0
    0.5369    7.0691    0.0000 C   0  0  0  0  0  0  0  0  0  0  0  0
   10.4684    5.4772    0.0000 C   0  0  0  0  0  0  0  0  0  0  0  0
    8.8221    6.0153    0.0000 C   0  0  0  0  0  0  0  0  0  0  0  0
    5.4364   12.3822    0.0000 C   0  0  0  0  0  0  0  0  0  0  0  0
    3.7900   12.9202    0.0000 C   0  0  0  0  0  0  0  0  0  0  0  0
   10.1578    4.5267    0.0000 C   0  0  0  0  0  0  0  0  0  0  0  0
    5.7470   13.3327    0.0000 C   0  0  0  0  0  0  0  0  0  0  0  0
    4.1007   13.8708    0.0000 C   0  0  0  0  0  0  0  0  0  0  0  0
    5.0792   14.0770    0.0000 C   0  0  0  0  0  0  0  0  0  0  0  0
    9.1793    4.3205    0.0000 C   0  0  0  0  0  0  0  0  0  0  0  0
    8.6722   10.0726    0.0000 H   0  0  0  0  0  0  0  0  0  0  0  0
   10.3010    8.5748    0.0000 H   0  0  0  0  0  0  0  0  0  0  0  0
   10.1366    9.3548    0.0000 H   0  0  0  0  0  0  0  0  0  0  0  0
    7.2502    8.7464    0.0000 H   0  0  0  0  0  0  0  0  0  0  0  0
    7.4145    7.9665    0.0000 H   0  0  0  0  0  0  0  0  0  0  0  0
    7.9662   10.4769    0.0000 H   0  0  0  0  0  0  0  0  0  0  0  0
    7.2086   10.7245    0.0000 H   0  0  0  0  0  0  0  0  0  0  0  0
    7.9386    7.3825    0.0000 H   0  0  0  0  0  0  0  0  0  0  0  0
    8.6962    7.1349    0.0000 H   0  0  0  0  0  0  0  0  0  0  0  0
    6.8754    9.4816    0.0000 H   0  0  0  0  0  0  0  0  0  0  0  0
    6.3199   11.0150    0.0000 H   0  0  0  0  0  0  0  0  0  0  0  0
    5.5623   11.2626    0.0000 H   0  0  0  0  0  0  0  0  0  0  0  0
    5.0076   11.0704    0.0000 H   0  0  0  0  0  0  0  0  0  0  0  0
    2.7778    8.8132    0.0000 H   0  0  0  0  0  0  0  0  0  0  0  0
    4.0805    7.0168    0.0000 H   0  0  0  0  0  0  0  0  0  0  0  0
   10.6582    6.8800    0.0000 H   0  0  0  0  0  0  0  0  0  0  0  0
   10.4938    7.6600    0.0000 H   0  0  0  0  0  0  0  0  0  0  0  0
    2.9642    6.1975    0.0000 H   0  0  0  0  0  0  0  0  0  0  0  0
    3.7526    6.4552    0.0000 H   0  0  0  0  0  0  0  0  0  0  0  0
    3.6003   11.5174    0.0000 H   0  0  0  0  0  0  0  0  0  0  0  0
    3.7646   10.7375    0.0000 H   0  0  0  0  0  0  0  0  0  0  0  0
    3.1118    9.7858    0.0000 H   0  0  0  0  0  0  0  0  0  0  0  0
   10.5680   11.3572    0.0000 H   0  0  0  0  0  0  0  0  0  0  0  0
    6.5648    8.5310    0.0000 H   0  0  0  0  0  0  0  0  0  0  0  0
    1.4030    9.1891    0.0000 H   0  0  0  0  0  0  0  0  0  0  0  0
    1.4030    5.9491    0.0000 H   0  0  0  0  0  0  0  0  0  0  0  0
    9.8849    9.8172    0.0000 H   0  0  0  0  0  0  0  0  0  0  0  0
    9.8375    8.9417    0.0000 H   0  0  0  0  0  0  0  0  0  0  0  0
   10.7130    8.8943    0.0000 H   0  0  0  0  0  0  0  0  0  0  0  0
   11.2496    8.8652    0.0000 H   0  0  0  0  0  0  0  0  0  0  0  0
   12.1252    8.8178    0.0000 H   0  0  0  0  0  0  0  0  0  0  0  0
   12.1726    9.6934    0.0000 H   0  0  0  0  0  0  0  0  0  0  0  0
   12.2016   10.2300    0.0000 H   0  0  0  0  0  0  0  0  0  0  0  0
   12.2490   11.1055    0.0000 H   0  0  0  0  0  0  0  0  0  0  0  0
   11.3735   11.1529    0.0000 H   0  0  0  0  0  0  0  0  0  0  0  0
    5.1088    7.0322    0.0000 H   0  0  0  0  0  0  0  0  0  0  0  0
    0.0000    8.3791    0.0000 H   0  0  0  0  0  0  0  0  0  0  0  0
    0.0000    6.7591    0.0000 H   0  0  0  0  0  0  0  0  0  0  0  0
   11.0751    5.6051    0.0000 H   0  0  0  0  0  0  0  0  0  0  0  0
    8.4080    6.4768    0.0000 H   0  0  0  0  0  0  0  0  0  0  0  0
    5.8504   11.9207    0.0000 H   0  0  0  0  0  0  0  0  0  0  0  0
    3.1833   12.7924    0.0000 H   0  0  0  0  0  0  0  0  0  0  0  0
   10.5718    4.0652    0.0000 H   0  0  0  0  0  0  0  0  0  0  0  0
    6.3537   13.4605    0.0000 H   0  0  0  0  0  0  0  0  0  0  0  0
    3.6866   14.3322    0.0000 H   0  0  0  0  0  0  0  0  0  0  0  0
    5.2718   14.6663    0.0000 H   0  0  0  0  0  0  0  0  0  0  0  0
    8.9867    3.7312    0.0000 H   0  0  0  0  0  0  0  0  0  0  0  0
    7.5275    1.0560    0.0000 H   0  0  0  0  0  0  0  0  0  0  0  0
    4.7216    0.6760    0.0000 H   0  0  0  0  0  0  0  0  0  0  0  0
  1  6  1  0  0  0  0
  1  7  1  0  0  0  0
  1  8  2  0  0  0  0
  1  9  2  0  0  0  0
 20  2  1  1  0  0  0
  2 74  1  0  0  0  0
 25  3  1  6  0  0  0
  3 86  1  0  0  0  0
  4 24  2  0  0  0  0
  5 29  2  0  0  0  0
  6 98  1  0  0  0  0
  7 99  1  0  0  0  0
 10 15  1  0  0  0  0
 10 17  1  0  0  0  0
 10 18  1  0  0  0  0
 11 16  1  0  0  0  0
 11 19  1  0  0  0  0
 11 26  1  0  0  0  0
 23 12  1  6  0  0  0
 12 29  1  0  0  0  0
 12 72  1  0  0  0  0
 13 24  1  0  0  0  0
 13 32  1  0  0  0  0
 13 73  1  0  0  0  0
 14 43  1  0  0  0  0
 14 50  2  0  0  0  0
 15 16  1  0  0  0  0
 15 24  1  6  0  0  0
 15 51  1  0  0  0  0
 16 52  1  0  0  0  0
 16 53  1  0  0  0  0
 17 19  1  0  0  0  0
 17 54  1  0  0  0  0
 17 55  1  0  0  0  0
 18 20  1  0  0  0  0
 18 56  1  0  0  0  0
 18 57  1  0  0  0  0
 19 58  1  0  0  0  0
 19 59  1  0  0  0  0
 20 21  1  0  0  0  0
 20 60  1  0  0  0  0
 22 21  1  6  0  0  0
 21 61  1  0  0  0  0
 21 62  1  0  0  0  0
 22 29  1  0  0  0  0
 22 30  1  0  0  0  0
 22 63  1  0  0  0  0
 23 25  1  0  0  0  0
 23 28  1  0  0  0  0
 23 64  1  0  0  0  0
 25 27  1  0  0  0  0
 25 65  1  0  0  0  0
 26 33  1  0  0  0  0
 26 66  1  0  0  0  0
 26 67  1  0  0  0  0
 27 31  1  0  0  0  0
 27 68  1  0  0  0  0
 27 69  1  0  0  0  0
 28 31  1  0  0  0  0
 28 34  2  0  0  0  0
 30 35  1  0  0  0  0
 30 70  1  0  0  0  0
 30 71  1  0  0  0  0
 31 36  2  0  0  0  0
 32 37  1  0  0  0  0
 32 38  1  0  0  0  0
 32 39  1  0  0  0  0
 33 42  1  0  0  0  0
 33 43  2  0  0  0  0
 34 40  1  0  0  0  0
 34 75  1  0  0  0  0
 35 44  2  0  0  0  0
 35 45  1  0  0  0  0
 36 41  1  0  0  0  0
 36 76  1  0  0  0  0
 37 80  1  0  0  0  0
 37 81  1  0  0  0  0
 37 82  1  0  0  0  0
 38 83  1  0  0  0  0
 38 84  1  0  0  0  0
 38 85  1  0  0  0  0
 39 77  1  0  0  0  0
 39 78  1  0  0  0  0
 39 79  1  0  0  0  0
 40 41  2  0  0  0  0
 40 87  1  0  0  0  0
 41 88  1  0  0  0  0
 42 46  2  0  0  0  0
 42 89  1  0  0  0  0
 43 90  1  0  0  0  0
 44 47  1  0  0  0  0
 44 91  1  0  0  0  0
 45 48  2  0  0  0  0
 45 92  1  0  0  0  0
 46 50  1  0  0  0  0
 46 93  1  0  0  0  0
 47 49  2  0  0  0  0
 47 94  1  0  0  0  0
 48 49  1  0  0  0  0
 48 95  1  0  0  0  0
 49 96  1  0  0  0  0
 50 97  1  0  0  0  0
M  END
> <PUBCHEM_COMPOUND_CID>
5462355

> <PUBCHEM_COMPOUND_CANONICALIZED>
1

> <PUBCHEM_CACTVS_COMPLEXITY>
1030

> <PUBCHEM_CACTVS_HBOND_ACCEPTOR>
11

> <PUBCHEM_CACTVS_HBOND_DONOR>
6

> <PUBCHEM_CACTVS_ROTATABLE_BOND>
12

> <PUBCHEM_CACTVS_SUBSKEYS>
AAADcfB/vABAAAAAAAAAAAAAAAAAAYAAAAA8eIEAAAAAAGAB0AAAHgAQCAAADbzhmgY+gJPIEoCoAjF3VDCCgCAxAiAI2KG4ZJgKcPrA0bGUYAhk1gHYyAe62fKOgAAAAAAQAAAAAAAAACAAAKAACQgAAA==

> <PUBCHEM_IUPAC_OPENEYE_NAME>
(2S)-1-[(2S,4R)-4-benzyl-2-hydroxy-5-[[(1S,2R)-2-hydroxyindan-1-yl]amino]-5-oxo-pentyl]-N-tert-butyl-4-(3-pyridylmethyl)piperazine-2-carboxamide; sulfuric acid

> <PUBCHEM_IUPAC_CAS_NAME>
(2S)-N-tert-butyl-1-[(2S,4R)-2-hydroxy-5-[[(1S,2R)-2-hydroxy-2,3-dihydro-1H-inden-1-yl]amino]-5-oxo-4-(phenylmethyl)pentyl]-4-(3-pyridinylmethyl)-2-piperazinecarboxamide; sulfuric acid

> <PUBCHEM_IUPAC_NAME>
(2S)-1-[(2S,4R)-4-benzyl-2-hydroxy-5-[[(1S,2R)-2-hydroxy-2,3-dihydro-1H-inden-1-yl]amino]-5-oxopentyl]-N-tert-butyl-4-(pyridin-3-ylmethyl)piperazine-2-carboxamide; sulfuric acid

> <PUBCHEM_IUPAC_SYSTEMATIC_NAME>
(2S)-N-tert-butyl-1-[(2S,4R)-2-oxidanyl-5-[[(1S,2R)-2-oxidanyl-2,3-dihydro-1H-inden-1-yl]amino]-5-oxidanylidene-4-(phenylmethyl)pentyl]-4-(pyridin-3-ylmethyl)piperazine-2-carboxamide; sulfuric acid

> <PUBCHEM_IUPAC_TRADITIONAL_NAME>
(2S)-1-[(2S,4R)-4-benzyl-2-hydroxy-5-[[(1S,2R)-2-hydroxyindan-1-yl]amino]-5-keto-pentyl]-N-tert-butyl-4-(3-pyridylmethyl)piperazine-2-carboxamide; sulfuric acid

> <PUBCHEM_IUPAC_INCHI>
InChI=1S/C36H47N5O4.H2O4S/c1-36(2,3)39-35(45)31-24-40(22-26-12-9-15-37-21-26)16-17-41(31)23-29(42)19-28(18-25-10-5-4-6-11-25)34(44)38-33-30-14-8-7-13-27(30)20-32(33)43;1-5(2,3)4/h4-15,21,28-29,31-33,42-43H,16-20,22-24H2,1-3H3,(H,38,44)(H,39,45);(H2,1,2,3,4)/t28-,29+,31+,32-,33+;/m1./s1

> <PUBCHEM_IUPAC_INCHIKEY>
NUBQKPWHXMGDLP-BDEHJDMKSA-N

> <PUBCHEM_EXACT_MASS>
711.330185

> <PUBCHEM_MOLECULAR_FORMULA>
C36H49N5O8S

> <PUBCHEM_MOLECULAR_WEIGHT>
711.86796

> <PUBCHEM_OPENEYE_CAN_SMILES>
CC(C)(C)NC(=O)C1CN(CCN1CC(CC(CC2=CC=CC=C2)C(=O)NC3C(CC4=CC=CC=C34)O)O)CC5=CN=CC=C5.OS(=O)(=O)O

> <PUBCHEM_OPENEYE_ISO_SMILES>
CC(C)(C)NC(=O)[C@@H]1CN(CCN1C[C@H](C[C@@H](CC2=CC=CC=C2)C(=O)N[C@@H]3[C@@H](CC4=CC=CC=C34)O)O)CC5=CN=CC=C5.OS(=O)(=O)O

> <PUBCHEM_CACTVS_TPSA>
201

> <PUBCHEM_MONOISOTOPIC_WEIGHT>
711.330185

> <PUBCHEM_TOTAL_CHARGE>
0

> <PUBCHEM_HEAVY_ATOM_COUNT>
50

> <PUBCHEM_ATOM_DEF_STEREO_COUNT>
5

> <PUBCHEM_ATOM_UDEF_STEREO_COUNT>
0

> <PUBCHEM_BOND_DEF_STEREO_COUNT>
0

> <PUBCHEM_BOND_UDEF_STEREO_COUNT>
0

> <PUBCHEM_ISOTOPIC_ATOM_COUNT>
0

> <PUBCHEM_COMPONENT_COUNT>
2

> <PUBCHEM_CACTVS_TAUTO_COUNT>
4

> <PUBCHEM_COORDINATE_TYPE>
1
5
255

> <PUBCHEM_BONDANNOTATIONS>
23  12  6
14  43  8
14  50  8
15  24  6
20  2  5
22  21  6
28  31  8
28  34  8
25  3  6
31  36  8
33  42  8
33  43  8
34  40  8
35  44  8
35  45  8
36  41  8
40  41  8
42  46  8
44  47  8
45  48  8
46  50  8
47  49  8
48  49  8

$$$$

