10740
  -OEChem-06261204543D

 26 27  0     0  0  0  0  0  0999 V2000
    0.0046    0.0013   -1.0384 C   0  0  0  0  0  0  0  0  0  0  0  0
    1.2936    0.0005   -0.3641 C   0  0  0  0  0  0  0  0  0  0  0  0
   -1.3247    0.0003   -0.3394 C   0  0  0  0  0  0  0  0  0  0  0  0
    1.9116   -1.2079   -0.0424 C   0  0  0  0  0  0  0  0  0  0  0  0
   -1.9001    1.2079   -0.0353 C   0  0  0  0  0  0  0  0  0  0  0  0
    1.9118    1.2079   -0.0397 C   0  0  0  0  0  0  0  0  0  0  0  0
   -1.9004   -1.2080   -0.0388 C   0  0  0  0  0  0  0  0  0  0  0  0
    3.1478   -1.2089    0.6038 C   0  0  0  0  0  0  0  0  0  0  0  0
   -3.1350    1.2073    0.6135 C   0  0  0  0  0  0  0  0  0  0  0  0
    3.1482    1.2071    0.6062 C   0  0  0  0  0  0  0  0  0  0  0  0
   -3.1353   -1.2088    0.6097 C   0  0  0  0  0  0  0  0  0  0  0  0
    3.7660   -0.0014    0.9281 C   0  0  0  0  0  0  0  0  0  0  0  0
   -3.7525   -0.0011    0.9359 C   0  0  0  0  0  0  0  0  0  0  0  0
   -0.0356    0.0037   -2.3992 C   0  0  0  0  0  0  0  0  0  0  0  0
    1.4438   -2.1583   -0.2882 H   0  0  0  0  0  0  0  0  0  0  0  0
   -1.4265    2.1532   -0.2829 H   0  0  0  0  0  0  0  0  0  0  0  0
    1.4443    2.1589   -0.2836 H   0  0  0  0  0  0  0  0  0  0  0  0
   -1.4270   -2.1526   -0.2892 H   0  0  0  0  0  0  0  0  0  0  0  0
    3.6291   -2.1497    0.8543 H   0  0  0  0  0  0  0  0  0  0  0  0
   -3.6157    2.1475    0.8675 H   0  0  0  0  0  0  0  0  0  0  0  0
    3.6297    2.1473    0.8587 H   0  0  0  0  0  0  0  0  0  0  0  0
   -3.6163   -2.1496    0.8609 H   0  0  0  0  0  0  0  0  0  0  0  0
    4.7285   -0.0021    1.4311 H   0  0  0  0  0  0  0  0  0  0  0  0
   -4.7140   -0.0018    1.4410 H   0  0  0  0  0  0  0  0  0  0  0  0
   -0.9750    0.0046   -2.9442 H   0  0  0  0  0  0  0  0  0  0  0  0
    0.8750    0.0048   -2.9913 H   0  0  0  0  0  0  0  0  0  0  0  0
  1  2  1  0  0  0  0
  1  3  1  0  0  0  0
  1 14  2  0  0  0  0
  2  4  2  0  0  0  0
  2  6  1  0  0  0  0
  3  5  2  0  0  0  0
  3  7  1  0  0  0  0
  4  8  1  0  0  0  0
  4 15  1  0  0  0  0
  5  9  1  0  0  0  0
  5 16  1  0  0  0  0
  6 10  2  0  0  0  0
  6 17  1  0  0  0  0
  7 11  2  0  0  0  0
  7 18  1  0  0  0  0
  8 12  2  0  0  0  0
  8 19  1  0  0  0  0
  9 13  2  0  0  0  0
  9 20  1  0  0  0  0
 10 12  1  0  0  0  0
 10 21  1  0  0  0  0
 11 13  1  0  0  0  0
 11 22  1  0  0  0  0
 12 23  1  0  0  0  0
 13 24  1  0  0  0  0
 14 25  1  0  0  0  0
 14 26  1  0  0  0  0
M  END
> <PUBCHEM_COMPOUND_CID>
10740

> <PUBCHEM_CONFORMER_RMSD>
0.6

> <PUBCHEM_CONFORMER_DIVERSEORDER>
1
2

> <PUBCHEM_MMFF94_PARTIAL_CHARGES>
26
1 -0.06
10 -0.15
11 -0.15
12 -0.15
13 -0.15
14 -0.3
15 0.15
16 0.15
17 0.15
18 0.15
19 0.15
2 0.03
20 0.15
21 0.15
22 0.15
23 0.15
24 0.15
25 0.15
26 0.15
3 0.03
4 -0.15
5 -0.15
6 -0.15
7 -0.15
8 -0.15
9 -0.15

> <PUBCHEM_EFFECTIVE_ROTOR_COUNT>
2

> <PUBCHEM_PHARMACOPHORE_FEATURES>
3
1 14 hydrophobe
6 2 4 6 8 10 12 rings
6 3 5 7 9 11 13 rings

> <PUBCHEM_HEAVY_ATOM_COUNT>
14

> <PUBCHEM_ATOM_DEF_STEREO_COUNT>
0

> <PUBCHEM_ATOM_UDEF_STEREO_COUNT>
0

> <PUBCHEM_BOND_DEF_STEREO_COUNT>
0

> <PUBCHEM_BOND_UDEF_STEREO_COUNT>
0

> <PUBCHEM_ISOTOPIC_ATOM_COUNT>
0

> <PUBCHEM_COMPONENT_COUNT>
1

> <PUBCHEM_CACTVS_TAUTO_COUNT>
1

> <PUBCHEM_CONFORMER_ID>
000029F400000001

> <PUBCHEM_MMFF94_ENERGY>
50.0178

> <PUBCHEM_FEATURE_SELFOVERLAP>
15.223

> <PUBCHEM_SHAPE_FINGERPRINT>
10498660 4 5111734501268268851
10618630 7 15913332424391848258
10799339 124 18410574010926536552
11031198 65 15285628924149195807
11127187 94 12391514174577838401
11543360 7 9223220849711002608
12251169 10 18410575080368111640
12382932 28 18410012151894827729
12507560 40 18335983150719905888
12696612 119 18410572855818035332
12707595 3 14836116637447963245
13296908 3 15698005110684717935
13296909 8 18272937137288826717
13581323 91 18272082803626237675
13693222 15 18411695461595413481
13705890 14 11095882666324190658
13764800 53 15357975608125402807
14144814 61 18410573993746660666
14252887 29 16702296837041529480
14289901 80 18410573946496745938
15309172 13 16660081100824796165
15375462 189 17845941843902501458
15375462 478 18333733515638523981
15501101 241 17989207027743029300
15653759 3 18341331166682270672
15775835 57 16805329889715530802
16945 1 18410855464428404149
17804303 29 18198332043048919815
17844478 74 17775295988376656044
18186145 218 13912315776858195372
200 152 18262535705818971703
20281407 28 16988567939264823590
20281475 54 17703791444345364554
20361792 2 15913608358792246871
20528008 55 18410862053298593571
20653085 51 7204777020344948935
20671657 53 12247684889532121702
20711985 327 17060617776354354068
20871999 31 8718531789106964353
21065199 12 18410573998036353513
21524375 3 15647055975231297557
21713013 43 11239989062407021257
21756936 100 17827082810373856744
22169311 14 18411699932329314489
22445834 79 18272372000780391803
23402539 116 18187093841108472183
25 1 5256418213879908174
276578 36 16153421757784622310
5374978 207 18409443670572116561
7097593 13 18409733992844164986
81228 2 15697176177707041021

> <PUBCHEM_SHAPE_MULTIPOLES>
288.11
6.74
1.45
1.35
0.1
0
0.89
0
-3.47
0
-0.24
-0.02
0
0

> <PUBCHEM_SHAPE_SELFOVERLAP>
622.996

> <PUBCHEM_SHAPE_VOLUME>
149.8

> <PUBCHEM_COORDINATE_TYPE>
2
5
10

$$$$

