21872884
  -OEChem-07051212512D

 37 34  0     0  0  0  0  0  0999 V2000
    7.3199    0.2532    0.0000 Fe  0  1  0  0  0  0  0  0  0  0  0  0
    9.4180   -1.1128    0.0000 O   0  0  0  0  0  0  0  0  0  0  0  0
    5.2218   -1.1128    0.0000 O   0  0  0  0  0  0  0  0  0  0  0  0
    8.1859   -0.2468    0.0000 O   0  5  0  0  0  0  0  0  0  0  0  0
    6.4538   -0.2468    0.0000 O   0  5  0  0  0  0  0  0  0  0  0  0
    9.0519    1.2532    0.0000 O   0  0  0  0  0  0  0  0  0  0  0  0
    5.5878    1.2532    0.0000 O   0  0  0  0  0  0  0  0  0  0  0  0
    7.3199    1.2532    0.0000 O   0  5  0  0  0  0  0  0  0  0  0  0
    3.1084    1.9460    0.0000 O   0  5  0  0  0  0  0  0  0  0  0  0
   11.9179    1.4852    0.0000 O   0  5  0  0  0  0  0  0  0  0  0  0
   11.6500   -2.2468    0.0000 O   0  5  0  0  0  0  0  0  0  0  0  0
    2.0000   -0.3897    0.0000 O   0  0  0  0  0  0  0  0  0  0  0  0
    4.8142    2.2468    0.0000 O   0  0  0  0  0  0  0  0  0  0  0  0
   11.9179   -0.2468    0.0000 O   0  0  0  0  0  0  0  0  0  0  0  0
    9.9180   -2.2468    0.0000 O   0  0  0  0  0  0  0  0  0  0  0  0
    9.9180   -0.2468    0.0000 C   0  0  0  0  0  0  0  0  0  0  0  0
    4.7218   -0.2468    0.0000 C   0  0  0  0  0  0  0  0  0  0  0  0
    3.8558   -0.7468    0.0000 C   0  0  0  0  0  0  0  0  0  0  0  0
    4.2218    0.6192    0.0000 C   0  0  0  0  0  0  0  0  0  0  0  0
   10.7840   -0.7468    0.0000 C   0  0  0  0  0  0  0  0  0  0  0  0
   10.4179    0.6192    0.0000 C   0  0  0  0  0  0  0  0  0  0  0  0
    5.5878    0.2532    0.0000 C   0  0  0  0  0  0  0  0  0  0  0  0
    9.0519    0.2532    0.0000 C   0  0  0  0  0  0  0  0  0  0  0  0
   10.7840   -1.7468    0.0000 C   0  0  0  0  0  0  0  0  0  0  0  0
   11.4179    0.6192    0.0000 C   0  0  0  0  0  0  0  0  0  0  0  0
    4.0482    1.6040    0.0000 C   0  0  0  0  0  0  0  0  0  0  0  0
    2.9897   -0.2468    0.0000 C   0  0  0  0  0  0  0  0  0  0  0  0
   11.3946   -0.8545    0.0000 H   0  0  0  0  0  0  0  0  0  0  0  0
   10.9960   -0.1642    0.0000 H   0  0  0  0  0  0  0  0  0  0  0  0
   10.5256    1.2298    0.0000 H   0  0  0  0  0  0  0  0  0  0  0  0
    9.8353    0.8313    0.0000 H   0  0  0  0  0  0  0  0  0  0  0  0
    3.6185    0.7622    0.0000 H   0  0  0  0  0  0  0  0  0  0  0  0
    4.8044    0.8313    0.0000 H   0  0  0  0  0  0  0  0  0  0  0  0
    3.4572   -1.2218    0.0000 H   0  0  0  0  0  0  0  0  0  0  0  0
    4.2543   -1.2218    0.0000 H   0  0  0  0  0  0  0  0  0  0  0  0
    9.7280   -1.6498    0.0000 H   0  0  0  0  0  0  0  0  0  0  0  0
    4.9118   -1.6498    0.0000 H   0  0  0  0  0  0  0  0  0  0  0  0
  2 16  1  0  0  0  0
  2 36  1  0  0  0  0
  3 17  1  0  0  0  0
  3 37  1  0  0  0  0
  4 23  1  0  0  0  0
  5 22  1  0  0  0  0
  6 23  2  0  0  0  0
  7 22  2  0  0  0  0
  8 27  1  0  0  0  0
  9 26  1  0  0  0  0
 10 25  1  0  0  0  0
 11 24  1  0  0  0  0
 12 27  2  0  0  0  0
 13 26  2  0  0  0  0
 14 25  2  0  0  0  0
 15 24  2  0  0  0  0
 16 20  1  0  0  0  0
 16 21  1  0  0  0  0
 16 23  1  0  0  0  0
 17 18  1  0  0  0  0
 17 19  1  0  0  0  0
 17 22  1  0  0  0  0
 18 27  1  0  0  0  0
 18 34  1  0  0  0  0
 18 35  1  0  0  0  0
 19 26  1  0  0  0  0
 19 32  1  0  0  0  0
 19 33  1  0  0  0  0
 20 24  1  0  0  0  0
 20 28  1  0  0  0  0
 20 29  1  0  0  0  0
 21 25  1  0  0  0  0
 21 30  1  0  0  0  0
 21 31  1  0  0  0  0
M  CHG  7   1   3   4  -1   5  -1   8  -1   9  -1  10  -1  11  -1
M  END
> <PUBCHEM_COMPOUND_CID>
21872884

> <PUBCHEM_COMPOUND_CANONICALIZED>
1

> <PUBCHEM_CACTVS_COMPLEXITY>
211

> <PUBCHEM_CACTVS_HBOND_ACCEPTOR>
14

> <PUBCHEM_CACTVS_HBOND_DONOR>
2

> <PUBCHEM_CACTVS_ROTATABLE_BOND>
4

> <PUBCHEM_CACTVS_SUBSKEYS>
AAADccBwPAAAAAAgAAAAAAAAAAAAAAAAAAAAAAAAAAAAAAAAAAAAGgAACAAADESAgAAACAAAAgAIAACQCAIAAAAAAAAAAAFAAAABABYAAAAAQAAFIAABAADLJgAKAAAAAAAAAAAAAAAAAAAAAAAAAAAAAA==

> <PUBCHEM_IUPAC_OPENEYE_NAME>
ferric dicitrate

> <PUBCHEM_IUPAC_CAS_NAME>
2-hydroxypropane-1,2,3-tricarboxylate; iron(3+)

> <PUBCHEM_IUPAC_NAME>
2-hydroxypropane-1,2,3-tricarboxylate; iron(3+)

> <PUBCHEM_IUPAC_SYSTEMATIC_NAME>
iron(3+); 2-oxidanylpropane-1,2,3-tricarboxylate

> <PUBCHEM_IUPAC_TRADITIONAL_NAME>
ferric dicitrate

> <PUBCHEM_IUPAC_INCHI>
InChI=1S/2C6H8O7.Fe/c2*7-3(8)1-6(13,5(11)12)2-4(9)10;/h2*13H,1-2H2,(H,7,8)(H,9,10)(H,11,12);/q;;+3/p-6

> <PUBCHEM_IUPAC_INCHIKEY>
VAVAILGEOMLRRK-UHFFFAOYSA-H

> <PUBCHEM_EXACT_MASS>
433.941992

> <PUBCHEM_MOLECULAR_FORMULA>
C12H10FeO14-3

> <PUBCHEM_MOLECULAR_WEIGHT>
434.0444

> <PUBCHEM_OPENEYE_CAN_SMILES>
C(C(=O)[O-])C(CC(=O)[O-])(C(=O)[O-])O.C(C(=O)[O-])C(CC(=O)[O-])(C(=O)[O-])O.[Fe+3]

> <PUBCHEM_OPENEYE_ISO_SMILES>
C(C(=O)[O-])C(CC(=O)[O-])(C(=O)[O-])O.C(C(=O)[O-])C(CC(=O)[O-])(C(=O)[O-])O.[Fe+3]

> <PUBCHEM_CACTVS_TPSA>
281

> <PUBCHEM_MONOISOTOPIC_WEIGHT>
433.941992

> <PUBCHEM_TOTAL_CHARGE>
-3

> <PUBCHEM_HEAVY_ATOM_COUNT>
27

> <PUBCHEM_ATOM_DEF_STEREO_COUNT>
0

> <PUBCHEM_ATOM_UDEF_STEREO_COUNT>
0

> <PUBCHEM_BOND_DEF_STEREO_COUNT>
0

> <PUBCHEM_BOND_UDEF_STEREO_COUNT>
0

> <PUBCHEM_ISOTOPIC_ATOM_COUNT>
0

> <PUBCHEM_COMPONENT_COUNT>
3

> <PUBCHEM_CACTVS_TAUTO_COUNT>
1

> <PUBCHEM_COORDINATE_TYPE>
1
5
255

$$$$

