3539
  -OEChem-07051213063D

 39 42  0     1  0  0  0  0  0999 V2000
   -3.9585    2.0985    0.4041 O   0  0  0  0  0  0  0  0  0  0  0  0
   -2.1994    2.9937   -0.9774 O   0  0  0  0  0  0  0  0  0  0  0  0
   -0.5201   -2.8190   -0.8931 N   0  0  0  0  0  0  0  0  0  0  0  0
    0.6802   -2.2376   -0.6810 N   0  0  0  0  0  0  0  0  0  0  0  0
    5.6615    1.5962    0.4628 N   0  0  0  0  0  0  0  0  0  0  0  0
   -1.4573   -2.0901    1.3244 C   0  0  0  0  0  0  0  0  0  0  0  0
   -1.3120   -3.2161    0.2822 C   0  0  1  0  0  0  0  0  0  0  0  0
   -1.6235   -0.7270    0.6976 C   0  0  0  0  0  0  0  0  0  0  0  0
   -0.5900   -0.1868   -0.1098 C   0  0  0  0  0  0  0  0  0  0  0  0
    0.6590   -0.9812   -0.3303 C   0  0  0  0  0  0  0  0  0  0  0  0
   -2.7943    0.0142    0.9096 C   0  0  0  0  0  0  0  0  0  0  0  0
   -0.7225    1.0705   -0.7136 C   0  0  0  0  0  0  0  0  0  0  0  0
   -2.8959    1.2527    0.3079 C   0  0  0  0  0  0  0  0  0  0  0  0
   -2.6835   -3.6845   -0.2122 C   0  0  0  0  0  0  0  0  0  0  0  0
   -1.8912    1.7645   -0.4805 C   0  0  0  0  0  0  0  0  0  0  0  0
    1.9725   -0.3034   -0.1228 C   0  0  0  0  0  0  0  0  0  0  0  0
   -3.5113    3.1977   -0.4149 C   0  0  0  0  0  0  0  0  0  0  0  0
    2.0761    0.7258    0.8056 C   0  0  0  0  0  0  0  0  0  0  0  0
    3.0795   -0.7087   -0.8593 C   0  0  0  0  0  0  0  0  0  0  0  0
    3.3040    1.3586    1.0002 C   0  0  0  0  0  0  0  0  0  0  0  0
    4.3073   -0.0760   -0.6646 C   0  0  0  0  0  0  0  0  0  0  0  0
    4.4196    0.9577    0.2651 C   0  0  0  0  0  0  0  0  0  0  0  0
   -0.5616   -2.0578    1.9597 H   0  0  0  0  0  0  0  0  0  0  0  0
   -2.2909   -2.3078    2.0039 H   0  0  0  0  0  0  0  0  0  0  0  0
   -0.8246   -4.0696    0.7702 H   0  0  0  0  0  0  0  0  0  0  0  0
   -3.6017   -0.3708    1.5237 H   0  0  0  0  0  0  0  0  0  0  0  0
   -0.3761   -3.6462   -1.4725 H   0  0  0  0  0  0  0  0  0  0  0  0
    0.0496    1.4882   -1.3505 H   0  0  0  0  0  0  0  0  0  0  0  0
   -3.2258   -2.8832   -0.7264 H   0  0  0  0  0  0  0  0  0  0  0  0
   -2.5838   -4.5246   -0.9087 H   0  0  0  0  0  0  0  0  0  0  0  0
   -3.3010   -4.0254    0.6259 H   0  0  0  0  0  0  0  0  0  0  0  0
   -3.4931    4.1067    0.1972 H   0  0  0  0  0  0  0  0  0  0  0  0
   -4.2262    3.3391   -1.2336 H   0  0  0  0  0  0  0  0  0  0  0  0
    1.2354    1.0443    1.4148 H   0  0  0  0  0  0  0  0  0  0  0  0
    3.0139   -1.5056   -1.5949 H   0  0  0  0  0  0  0  0  0  0  0  0
    3.3804    2.1587    1.7322 H   0  0  0  0  0  0  0  0  0  0  0  0
    5.1690   -0.3964   -1.2448 H   0  0  0  0  0  0  0  0  0  0  0  0
    6.4700    1.3074   -0.0717 H   0  0  0  0  0  0  0  0  0  0  0  0
    5.7431    2.3474    1.1350 H   0  0  0  0  0  0  0  0  0  0  0  0
  1 13  1  0  0  0  0
  1 17  1  0  0  0  0
  2 15  1  0  0  0  0
  2 17  1  0  0  0  0
  3  4  1  0  0  0  0
  3  7  1  0  0  0  0
  3 27  1  0  0  0  0
  4 10  2  0  0  0  0
  5 22  1  0  0  0  0
  5 38  1  0  0  0  0
  5 39  1  0  0  0  0
  6  7  1  0  0  0  0
  6  8  1  0  0  0  0
  6 23  1  0  0  0  0
  6 24  1  0  0  0  0
  7 14  1  0  0  0  0
  7 25  1  0  0  0  0
  8  9  1  0  0  0  0
  8 11  2  0  0  0  0
  9 10  1  0  0  0  0
  9 12  2  0  0  0  0
 10 16  1  0  0  0  0
 11 13  1  0  0  0  0
 11 26  1  0  0  0  0
 12 15  1  0  0  0  0
 12 28  1  0  0  0  0
 13 15  2  0  0  0  0
 14 29  1  0  0  0  0
 14 30  1  0  0  0  0
 14 31  1  0  0  0  0
 16 18  2  0  0  0  0
 16 19  1  0  0  0  0
 17 32  1  0  0  0  0
 17 33  1  0  0  0  0
 18 20  1  0  0  0  0
 18 34  1  0  0  0  0
 19 21  2  0  0  0  0
 19 35  1  0  0  0  0
 20 22  2  0  0  0  0
 20 36  1  0  0  0  0
 21 22  1  0  0  0  0
 21 37  1  0  0  0  0
M  END
> <PUBCHEM_COMPOUND_CID>
3539

> <PUBCHEM_CONFORMER_RMSD>
0.6

> <PUBCHEM_CONFORMER_DIVERSEORDER>
1
2

> <PUBCHEM_MMFF94_PARTIAL_CHARGES>
30
1 -0.36
10 0.28
11 -0.15
12 -0.15
13 0.08
15 0.08
16 0.09
17 0.56
18 -0.15
19 -0.15
2 -0.36
20 -0.15
21 -0.15
22 0.1
26 0.15
27 0.36
28 0.15
3 -0.58
34 0.15
35 0.15
36 0.15
37 0.15
38 0.4
39 0.4
4 -0.5
5 -0.9
6 0.14
7 0.27
8 -0.14
9 0.09

> <PUBCHEM_EFFECTIVE_ROTOR_COUNT>
2.2

> <PUBCHEM_PHARMACOPHORE_FEATURES>
10
1 1 acceptor
1 2 acceptor
1 3 donor
1 4 acceptor
1 5 cation
1 5 donor
5 1 2 13 15 17 rings
6 16 18 19 20 21 22 rings
6 8 9 11 12 13 15 rings
7 3 4 6 7 8 9 10 rings

> <PUBCHEM_HEAVY_ATOM_COUNT>
22

> <PUBCHEM_ATOM_DEF_STEREO_COUNT>
0

> <PUBCHEM_ATOM_UDEF_STEREO_COUNT>
1

> <PUBCHEM_BOND_DEF_STEREO_COUNT>
0

> <PUBCHEM_BOND_UDEF_STEREO_COUNT>
0

> <PUBCHEM_ISOTOPIC_ATOM_COUNT>
0

> <PUBCHEM_COMPONENT_COUNT>
1

> <PUBCHEM_CACTVS_TAUTO_COUNT>
2

> <PUBCHEM_CONFORMER_ID>
00000DD300000001

> <PUBCHEM_MMFF94_ENERGY>
83.971

> <PUBCHEM_FEATURE_SELFOVERLAP>
50.913

> <PUBCHEM_SHAPE_FINGERPRINT>
10165383 225 18264186158154767832
10319926 262 18337124380472674728
10369192 42 16448114853533429232
10411042 1 17834956373726259419
10670039 82 17981316791207524780
11045515 52 17832721075398303143
11101153 10 17836928898277508316
11265709 11 17980196383940919259
11370993 70 18339361992886183068
11833330 49 18196094331081347859
12107183 9 18198920291314185618
12173636 292 18341050825666792029
12403259 415 18337661031223315216
12500047 106 18411135861721783600
12553582 1 17764849321779067279
12730499 353 18122336046296041521
12788726 201 18198921213878105371
13004483 165 17977112257877225787
13140716 1 18053653682044944131
13681431 1 17039519557246498583
138480 1 17114101625660387623
13878862 14 16975344358122387533
14178342 30 18271249326968949250
14466204 15 17475523145409882210
14508225 48 18048045064694712071
15042514 8 18269828727696631387
15230672 131 18270110353810016022
16087824 20 18411420567516707983
16945 1 18272645723383175075
17357779 13 17971767561982655543
17980427 26 17977962502513892109
20510252 161 18408880759052179681
20600515 1 17830717769412594415
21033648 29 18336552710871414328
21524375 3 18198340856485205139
22149856 69 17838588379689784689
22182313 1 18197190724884711275
22907989 373 18269277863395702333
23227448 37 18338516339854088388
23402539 116 18337676291864863559
23419403 2 16954177388690972031
23557571 272 18262508192305874596
23558518 356 18343582919605237002
23559900 14 17906173210656543646
238 59 17906753735932340061
25 1 18117559741408309320
2748010 2 18054485153533266951
3187 122 17834982783442862984
350125 39 17973441006169573600
3729539 64 17759782029717748654
474 4 18048039859057419985
495365 180 17907030812910278213
633830 44 17970349445254130077
6442390 28 18339072808943933305
7097593 13 18059592312224950418
7364860 26 17547855613007207851
7399639 24 17682974189112612024
7808743 9 18341330012011807820
81228 2 18199472064939964115
84936 182 17831582341886313793
9981440 41 18268717297376288905

> <PUBCHEM_SHAPE_MULTIPOLES>
426.07
8
4.03
1.04
10.12
1.5
-0.1
-5.3
-0.81
-5.56
0.66
0.05
0.07
1.11

> <PUBCHEM_SHAPE_SELFOVERLAP>
948.064

> <PUBCHEM_SHAPE_VOLUME>
225

> <PUBCHEM_COORDINATE_TYPE>
2
5
10

$$$$

