17395554
  -OEChem-06241222512D

 33 34  0     1  0  0  0  0  0999 V2000
    2.0000   -0.4050    0.0000 Cl  0  0  0  0  0  0  0  0  0  0  0  0
    5.4641    3.5950    0.0000 O   0  0  0  0  0  0  0  0  0  0  0  0
    4.5981   -3.9050    0.0000 O   0  5  0  0  0  0  0  0  0  0  0  0
    2.8660   -3.9050    0.0000 O   0  0  0  0  0  0  0  0  0  0  0  0
    3.7320    0.5950    0.0000 N   0  0  3  0  0  0  0  0  0  0  0  0
    3.7320   -3.4050    0.0000 N   0  3  0  0  0  0  0  0  0  0  0  0
    4.5981    2.0950    0.0000 C   0  0  3  0  0  0  0  0  0  0  0  0
    3.7320    2.5950    0.0000 C   0  0  0  0  0  0  0  0  0  0  0  0
    4.5981    1.0950    0.0000 C   0  0  0  0  0  0  0  0  0  0  0  0
    2.8660    2.0950    0.0000 C   0  0  0  0  0  0  0  0  0  0  0  0
    2.8660    1.0950    0.0000 C   0  0  0  0  0  0  0  0  0  0  0  0
    5.4641    2.5950    0.0000 C   0  0  0  0  0  0  0  0  0  0  0  0
    3.7320   -0.4050    0.0000 C   0  0  0  0  0  0  0  0  0  0  0  0
    2.8660   -0.9050    0.0000 C   0  0  0  0  0  0  0  0  0  0  0  0
    4.5981   -0.9050    0.0000 C   0  0  0  0  0  0  0  0  0  0  0  0
    2.8660   -1.9050    0.0000 C   0  0  0  0  0  0  0  0  0  0  0  0
    4.5981   -1.9050    0.0000 C   0  0  0  0  0  0  0  0  0  0  0  0
    3.7320   -2.4050    0.0000 C   0  0  0  0  0  0  0  0  0  0  0  0
    4.5981    2.7150    0.0000 H   0  0  0  0  0  0  0  0  0  0  0  0
    4.1306    3.0700    0.0000 H   0  0  0  0  0  0  0  0  0  0  0  0
    3.3335    3.0700    0.0000 H   0  0  0  0  0  0  0  0  0  0  0  0
    4.8101    0.5124    0.0000 H   0  0  0  0  0  0  0  0  0  0  0  0
    5.2087    1.2027    0.0000 H   0  0  0  0  0  0  0  0  0  0  0  0
    2.6540    2.6776    0.0000 H   0  0  0  0  0  0  0  0  0  0  0  0
    2.2554    1.9873    0.0000 H   0  0  0  0  0  0  0  0  0  0  0  0
    2.2554    1.2027    0.0000 H   0  0  0  0  0  0  0  0  0  0  0  0
    2.6540    0.5124    0.0000 H   0  0  0  0  0  0  0  0  0  0  0  0
    5.6762    2.0124    0.0000 H   0  0  0  0  0  0  0  0  0  0  0  0
    6.0747    2.7027    0.0000 H   0  0  0  0  0  0  0  0  0  0  0  0
    5.1350   -0.5950    0.0000 H   0  0  0  0  0  0  0  0  0  0  0  0
    6.0010    3.9050    0.0000 H   0  0  0  0  0  0  0  0  0  0  0  0
    2.3291   -2.2150    0.0000 H   0  0  0  0  0  0  0  0  0  0  0  0
    5.1350   -2.2150    0.0000 H   0  0  0  0  0  0  0  0  0  0  0  0
  1 14  1  0  0  0  0
  2 12  1  0  0  0  0
  2 31  1  0  0  0  0
  3  6  1  0  0  0  0
  4  6  2  0  0  0  0
  5  9  1  0  0  0  0
  5 11  1  0  0  0  0
  5 13  1  0  0  0  0
  6 18  1  0  0  0  0
  7  8  1  0  0  0  0
  7  9  1  0  0  0  0
  7 12  1  0  0  0  0
  7 19  1  0  0  0  0
  8 10  1  0  0  0  0
  8 20  1  0  0  0  0
  8 21  1  0  0  0  0
  9 22  1  0  0  0  0
  9 23  1  0  0  0  0
 10 11  1  0  0  0  0
 10 24  1  0  0  0  0
 10 25  1  0  0  0  0
 11 26  1  0  0  0  0
 11 27  1  0  0  0  0
 12 28  1  0  0  0  0
 12 29  1  0  0  0  0
 13 14  2  0  0  0  0
 13 15  1  0  0  0  0
 14 16  1  0  0  0  0
 15 17  2  0  0  0  0
 15 30  1  0  0  0  0
 16 18  2  0  0  0  0
 16 32  1  0  0  0  0
 17 18  1  0  0  0  0
 17 33  1  0  0  0  0
M  CHG  2   3  -1   6   1
M  END
> <PUBCHEM_COMPOUND_CID>
17395554

> <PUBCHEM_COMPOUND_CANONICALIZED>
1

> <PUBCHEM_CACTVS_COMPLEXITY>
298

> <PUBCHEM_CACTVS_HBOND_ACCEPTOR>
4

> <PUBCHEM_CACTVS_HBOND_DONOR>
1

> <PUBCHEM_CACTVS_ROTATABLE_BOND>
2

> <PUBCHEM_CACTVS_SUBSKEYS>
AAADccBzMAAEAAAAAAAAAAAAAAAAAAAAAAA8QAAAAAAAAAABAAAAHgIECAAADQrhkCYwwIMQQgCBACRCQwCCAAAhBwAoiAAIZooIMCLBk5HEYAhmgADIyAeQEAIMAACAAAIAABAAAQAABAAAIAAAAAAAAA==

> <PUBCHEM_IUPAC_OPENEYE_NAME>
[1-(2-chloro-4-nitro-phenyl)-3-piperidyl]methanol

> <PUBCHEM_IUPAC_CAS_NAME>
[1-(2-chloro-4-nitrophenyl)-3-piperidinyl]methanol

> <PUBCHEM_IUPAC_NAME>
[1-(2-chloro-4-nitrophenyl)piperidin-3-yl]methanol

> <PUBCHEM_IUPAC_SYSTEMATIC_NAME>
[1-(2-chloranyl-4-nitro-phenyl)piperidin-3-yl]methanol

> <PUBCHEM_IUPAC_TRADITIONAL_NAME>
[1-(2-chloro-4-nitro-phenyl)-3-piperidyl]methanol

> <PUBCHEM_IUPAC_INCHI>
InChI=1S/C12H15ClN2O3/c13-11-6-10(15(17)18)3-4-12(11)14-5-1-2-9(7-14)8-16/h3-4,6,9,16H,1-2,5,7-8H2

> <PUBCHEM_IUPAC_INCHIKEY>
QNYIMZLGORTICP-UHFFFAOYSA-N

> <PUBCHEM_XLOGP3_AA>
2.6

> <PUBCHEM_EXACT_MASS>
270.07712

> <PUBCHEM_MOLECULAR_FORMULA>
C12H15ClN2O3

> <PUBCHEM_MOLECULAR_WEIGHT>
270.7121

> <PUBCHEM_OPENEYE_CAN_SMILES>
C1CC(CN(C1)C2=C(C=C(C=C2)[N+](=O)[O-])Cl)CO

> <PUBCHEM_OPENEYE_ISO_SMILES>
C1CC(CN(C1)C2=C(C=C(C=C2)[N+](=O)[O-])Cl)CO

> <PUBCHEM_CACTVS_TPSA>
69.3

> <PUBCHEM_MONOISOTOPIC_WEIGHT>
270.07712

> <PUBCHEM_TOTAL_CHARGE>
0

> <PUBCHEM_HEAVY_ATOM_COUNT>
18

> <PUBCHEM_ATOM_DEF_STEREO_COUNT>
0

> <PUBCHEM_ATOM_UDEF_STEREO_COUNT>
1

> <PUBCHEM_BOND_DEF_STEREO_COUNT>
0

> <PUBCHEM_BOND_UDEF_STEREO_COUNT>
0

> <PUBCHEM_ISOTOPIC_ATOM_COUNT>
0

> <PUBCHEM_COMPONENT_COUNT>
1

> <PUBCHEM_CACTVS_TAUTO_COUNT>
1

> <PUBCHEM_COORDINATE_TYPE>
1
5
255

> <PUBCHEM_BONDANNOTATIONS>
13  14  8
13  15  8
14  16  8
15  17  8
16  18  8
17  18  8
7  12  3

$$$$

