8874
  -OEChem-06261203122D

 64 62  0     0  0  0  0  0  0999 V2000
    3.7321    0.0670    0.0000 S   0  0  0  0  0  0  0  0  0  0  0  0
    2.0000    0.0670    0.0000 Na  0  3  0  0  0  0  0  0  0  0  0  0
    6.3301    0.5670    0.0000 O   0  0  0  0  0  0  0  0  0  0  0  0
    7.1962   -0.9330    0.0000 O   0  0  0  0  0  0  0  0  0  0  0  0
    2.8660   -0.4330    0.0000 O   0  5  0  0  0  0  0  0  0  0  0  0
    4.2321   -0.7990    0.0000 O   0  0  0  0  0  0  0  0  0  0  0  0
    3.2321    0.9330    0.0000 O   0  0  0  0  0  0  0  0  0  0  0  0
   18.4545    0.5670    0.0000 C   0  0  0  0  0  0  0  0  0  0  0  0
   17.5885    0.0670    0.0000 C   0  0  0  0  0  0  0  0  0  0  0  0
   10.6603    0.0670    0.0000 C   0  0  0  0  0  0  0  0  0  0  0  0
   11.5263    0.5670    0.0000 C   0  0  0  0  0  0  0  0  0  0  0  0
   19.3205    0.0670    0.0000 C   0  0  0  0  0  0  0  0  0  0  0  0
   16.7224    0.5670    0.0000 C   0  0  0  0  0  0  0  0  0  0  0  0
    9.7942    0.5670    0.0000 C   0  0  0  0  0  0  0  0  0  0  0  0
   12.3923    0.0670    0.0000 C   0  0  0  0  0  0  0  0  0  0  0  0
   20.1865    0.5670    0.0000 C   0  0  0  0  0  0  0  0  0  0  0  0
   15.8564    0.0670    0.0000 C   0  0  0  0  0  0  0  0  0  0  0  0
   13.2583    0.5670    0.0000 C   0  0  0  0  0  0  0  0  0  0  0  0
    8.9282    0.0670    0.0000 C   0  0  0  0  0  0  0  0  0  0  0  0
   21.0526    0.0670    0.0000 C   0  0  0  0  0  0  0  0  0  0  0  0
   14.9904    0.5670    0.0000 C   0  0  0  0  0  0  0  0  0  0  0  0
   14.1244    0.0670    0.0000 C   0  0  0  0  0  0  0  0  0  0  0  0
    8.0622    0.5670    0.0000 C   0  0  0  0  0  0  0  0  0  0  0  0
   21.9186    0.5670    0.0000 C   0  0  0  0  0  0  0  0  0  0  0  0
    7.1962    0.0670    0.0000 C   0  0  0  0  0  0  0  0  0  0  0  0
    5.4641    0.0670    0.0000 C   0  0  0  0  0  0  0  0  0  0  0  0
    4.5981    0.5670    0.0000 C   0  0  0  0  0  0  0  0  0  0  0  0
   18.0560    1.0419    0.0000 H   0  0  0  0  0  0  0  0  0  0  0  0
   18.8530    1.0419    0.0000 H   0  0  0  0  0  0  0  0  0  0  0  0
   17.9870   -0.4080    0.0000 H   0  0  0  0  0  0  0  0  0  0  0  0
   17.1899   -0.4080    0.0000 H   0  0  0  0  0  0  0  0  0  0  0  0
   10.2617   -0.4080    0.0000 H   0  0  0  0  0  0  0  0  0  0  0  0
   11.0588   -0.4080    0.0000 H   0  0  0  0  0  0  0  0  0  0  0  0
   11.9248    1.0419    0.0000 H   0  0  0  0  0  0  0  0  0  0  0  0
   11.1278    1.0419    0.0000 H   0  0  0  0  0  0  0  0  0  0  0  0
   19.7190   -0.4080    0.0000 H   0  0  0  0  0  0  0  0  0  0  0  0
   18.9220   -0.4080    0.0000 H   0  0  0  0  0  0  0  0  0  0  0  0
    9.3957    1.0419    0.0000 H   0  0  0  0  0  0  0  0  0  0  0  0
   10.1928    1.0419    0.0000 H   0  0  0  0  0  0  0  0  0  0  0  0
   16.3239    1.0419    0.0000 H   0  0  0  0  0  0  0  0  0  0  0  0
   17.1210    1.0419    0.0000 H   0  0  0  0  0  0  0  0  0  0  0  0
   12.7908   -0.4080    0.0000 H   0  0  0  0  0  0  0  0  0  0  0  0
   11.9938   -0.4080    0.0000 H   0  0  0  0  0  0  0  0  0  0  0  0
   19.7880    1.0419    0.0000 H   0  0  0  0  0  0  0  0  0  0  0  0
   20.5851    1.0419    0.0000 H   0  0  0  0  0  0  0  0  0  0  0  0
   16.2549   -0.4080    0.0000 H   0  0  0  0  0  0  0  0  0  0  0  0
   15.4579   -0.4080    0.0000 H   0  0  0  0  0  0  0  0  0  0  0  0
    8.5297   -0.4080    0.0000 H   0  0  0  0  0  0  0  0  0  0  0  0
    9.3267   -0.4080    0.0000 H   0  0  0  0  0  0  0  0  0  0  0  0
   12.8598    1.0419    0.0000 H   0  0  0  0  0  0  0  0  0  0  0  0
   13.6569    1.0419    0.0000 H   0  0  0  0  0  0  0  0  0  0  0  0
   20.6540   -0.4080    0.0000 H   0  0  0  0  0  0  0  0  0  0  0  0
   21.4511   -0.4080    0.0000 H   0  0  0  0  0  0  0  0  0  0  0  0
   14.9904    1.1870    0.0000 H   0  0  0  0  0  0  0  0  0  0  0  0
   14.1244   -0.5530    0.0000 H   0  0  0  0  0  0  0  0  0  0  0  0
    7.6636    1.0419    0.0000 H   0  0  0  0  0  0  0  0  0  0  0  0
    8.4607    1.0419    0.0000 H   0  0  0  0  0  0  0  0  0  0  0  0
   22.2286    0.0301    0.0000 H   0  0  0  0  0  0  0  0  0  0  0  0
   22.4555    0.8770    0.0000 H   0  0  0  0  0  0  0  0  0  0  0  0
   21.6086    1.1039    0.0000 H   0  0  0  0  0  0  0  0  0  0  0  0
    5.0656   -0.4080    0.0000 H   0  0  0  0  0  0  0  0  0  0  0  0
    5.8626   -0.4080    0.0000 H   0  0  0  0  0  0  0  0  0  0  0  0
    4.1995    1.0419    0.0000 H   0  0  0  0  0  0  0  0  0  0  0  0
    4.9966    1.0419    0.0000 H   0  0  0  0  0  0  0  0  0  0  0  0
  1  5  1  0  0  0  0
  1  6  2  0  0  0  0
  1  7  2  0  0  0  0
  1 27  1  0  0  0  0
  3 25  1  0  0  0  0
  3 26  1  0  0  0  0
  4 25  2  0  0  0  0
  8  9  1  0  0  0  0
  8 12  1  0  0  0  0
  8 28  1  0  0  0  0
  8 29  1  0  0  0  0
  9 13  1  0  0  0  0
  9 30  1  0  0  0  0
  9 31  1  0  0  0  0
 10 11  1  0  0  0  0
 10 14  1  0  0  0  0
 10 32  1  0  0  0  0
 10 33  1  0  0  0  0
 11 15  1  0  0  0  0
 11 34  1  0  0  0  0
 11 35  1  0  0  0  0
 12 16  1  0  0  0  0
 12 36  1  0  0  0  0
 12 37  1  0  0  0  0
 13 17  1  0  0  0  0
 13 40  1  0  0  0  0
 13 41  1  0  0  0  0
 14 19  1  0  0  0  0
 14 38  1  0  0  0  0
 14 39  1  0  0  0  0
 15 18  1  0  0  0  0
 15 42  1  0  0  0  0
 15 43  1  0  0  0  0
 16 20  1  0  0  0  0
 16 44  1  0  0  0  0
 16 45  1  0  0  0  0
 17 21  1  0  0  0  0
 17 46  1  0  0  0  0
 17 47  1  0  0  0  0
 18 22  1  0  0  0  0
 18 50  1  0  0  0  0
 18 51  1  0  0  0  0
 19 23  1  0  0  0  0
 19 48  1  0  0  0  0
 19 49  1  0  0  0  0
 20 24  1  0  0  0  0
 20 52  1  0  0  0  0
 20 53  1  0  0  0  0
 21 22  2  3  0  0  0
 21 54  1  0  0  0  0
 22 55  1  0  0  0  0
 23 25  1  0  0  0  0
 23 56  1  0  0  0  0
 23 57  1  0  0  0  0
 24 58  1  0  0  0  0
 24 59  1  0  0  0  0
 24 60  1  0  0  0  0
 26 27  1  0  0  0  0
 26 61  1  0  0  0  0
 26 62  1  0  0  0  0
 27 63  1  0  0  0  0
 27 64  1  0  0  0  0
M  CHG  2   2   1   5  -1
M  END
> <PUBCHEM_COMPOUND_CID>
8874

> <PUBCHEM_COMPOUND_CANONICALIZED>
1

> <PUBCHEM_CACTVS_COMPLEXITY>
438

> <PUBCHEM_CACTVS_HBOND_ACCEPTOR>
5

> <PUBCHEM_CACTVS_HBOND_DONOR>
0

> <PUBCHEM_CACTVS_ROTATABLE_BOND>
18

> <PUBCHEM_CACTVS_SUBSKEYS>
AAADcfB4OCBAAAAAAAAAAAAAAAAAAAAAAAAAAAAAAAAAAAAAAAAAGgQAAAAACACkwAKCCAAABAKIACDSCHBAAAAgAAAICAEAAAgAABIAAQACAAAEgAAIAAOIyKCAAAAAAAAAAAAAAAAAAAAAAAAAAAAAAA==

> <PUBCHEM_IUPAC_OPENEYE_NAME>
sodium 2-octadec-9-enoyloxyethanesulfonate

> <PUBCHEM_IUPAC_CAS_NAME>
sodium 2-(1-oxooctadec-9-enoxy)ethanesulfonate

> <PUBCHEM_IUPAC_NAME>
sodium 2-octadec-9-enoyloxyethanesulfonate

> <PUBCHEM_IUPAC_SYSTEMATIC_NAME>
sodium 2-octadec-9-enoyloxyethanesulfonate

> <PUBCHEM_IUPAC_TRADITIONAL_NAME>
sodium 2-octadec-9-enoyloxyethanesulfonate

> <PUBCHEM_IUPAC_INCHI>
InChI=1S/C20H38O5S.Na/c1-2-3-4-5-6-7-8-9-10-11-12-13-14-15-16-17-20(21)25-18-19-26(22,23)24;/h9-10H,2-8,11-19H2,1H3,(H,22,23,24);/q;+1/p-1

> <PUBCHEM_IUPAC_INCHIKEY>
MCFLGJDKSROECH-UHFFFAOYSA-M

> <PUBCHEM_EXACT_MASS>
412.22594

> <PUBCHEM_MOLECULAR_FORMULA>
C20H37NaO5S

> <PUBCHEM_MOLECULAR_WEIGHT>
412.559549

> <PUBCHEM_OPENEYE_CAN_SMILES>
CCCCCCCCC=CCCCCCCCC(=O)OCCS(=O)(=O)[O-].[Na+]

> <PUBCHEM_OPENEYE_ISO_SMILES>
CCCCCCCCC=CCCCCCCCC(=O)OCCS(=O)(=O)[O-].[Na+]

> <PUBCHEM_CACTVS_TPSA>
91.9

> <PUBCHEM_MONOISOTOPIC_WEIGHT>
412.22594

> <PUBCHEM_TOTAL_CHARGE>
0

> <PUBCHEM_HEAVY_ATOM_COUNT>
27

> <PUBCHEM_ATOM_DEF_STEREO_COUNT>
0

> <PUBCHEM_ATOM_UDEF_STEREO_COUNT>
0

> <PUBCHEM_BOND_DEF_STEREO_COUNT>
0

> <PUBCHEM_BOND_UDEF_STEREO_COUNT>
1

> <PUBCHEM_ISOTOPIC_ATOM_COUNT>
0

> <PUBCHEM_COMPONENT_COUNT>
2

> <PUBCHEM_CACTVS_TAUTO_COUNT>
1

> <PUBCHEM_COORDINATE_TYPE>
1
5
255

> <PUBCHEM_BONDANNOTATIONS>
21  22  1

$$$$

