8580
  -OEChem-06261202553D

 20 21  0     0  0  0  0  0  0999 V2000
   -3.1910    0.6074    0.1670 O   0  0  0  0  0  0  0  0  0  0  0  0
   -1.8939   -2.2205   -0.7223 O   0  0  0  0  0  0  0  0  0  0  0  0
   -1.6261   -1.6588    0.3463 N   0  0  0  0  0  0  0  0  0  0  0  0
    0.3819   -0.3133    0.1049 C   0  0  0  0  0  0  0  0  0  0  0  0
    0.9603    0.9674   -0.0630 C   0  0  0  0  0  0  0  0  0  0  0  0
   -1.0155   -0.4309    0.1815 C   0  0  0  0  0  0  0  0  0  0  0  0
    0.1244    2.0927   -0.1496 C   0  0  0  0  0  0  0  0  0  0  0  0
    1.2180   -1.4384    0.1911 C   0  0  0  0  0  0  0  0  0  0  0  0
    2.3576    1.0852   -0.1398 C   0  0  0  0  0  0  0  0  0  0  0  0
   -1.8310    0.6979    0.0941 C   0  0  0  0  0  0  0  0  0  0  0  0
   -1.2621    1.9573   -0.0714 C   0  0  0  0  0  0  0  0  0  0  0  0
    2.6043   -1.3028    0.1132 C   0  0  0  0  0  0  0  0  0  0  0  0
    3.1731   -0.0433   -0.0519 C   0  0  0  0  0  0  0  0  0  0  0  0
    0.5473    3.0868   -0.2789 H   0  0  0  0  0  0  0  0  0  0  0  0
    0.8228   -2.4431    0.3218 H   0  0  0  0  0  0  0  0  0  0  0  0
    2.8239    2.0598   -0.2688 H   0  0  0  0  0  0  0  0  0  0  0  0
   -1.8912    2.8407   -0.1404 H   0  0  0  0  0  0  0  0  0  0  0  0
    3.2401   -2.1808    0.1817 H   0  0  0  0  0  0  0  0  0  0  0  0
    4.2524    0.0615   -0.1124 H   0  0  0  0  0  0  0  0  0  0  0  0
   -3.4796   -0.3121    0.2786 H   0  0  0  0  0  0  0  0  0  0  0  0
  1 10  1  0  0  0  0
  1 20  1  0  0  0  0
  2  3  2  0  0  0  0
  3  6  1  0  0  0  0
  4  5  1  0  0  0  0
  4  6  1  0  0  0  0
  4  8  2  0  0  0  0
  5  7  1  0  0  0  0
  5  9  2  0  0  0  0
  6 10  2  0  0  0  0
  7 11  2  0  0  0  0
  7 14  1  0  0  0  0
  8 12  1  0  0  0  0
  8 15  1  0  0  0  0
  9 13  1  0  0  0  0
  9 16  1  0  0  0  0
 10 11  1  0  0  0  0
 11 17  1  0  0  0  0
 12 13  2  0  0  0  0
 12 18  1  0  0  0  0
 13 19  1  0  0  0  0
M  END
> <PUBCHEM_COMPOUND_CID>
8580

> <PUBCHEM_CONFORMER_RMSD>
0.4

> <PUBCHEM_CONFORMER_DIVERSEORDER>
2
1

> <PUBCHEM_MMFF94_PARTIAL_CHARGES>
18
1 -0.53
10 0.08
11 -0.15
12 -0.15
13 -0.15
14 0.15
15 0.15
16 0.15
17 0.15
18 0.15
19 0.15
2 -0.16
20 0.45
3 -0.14
6 0.3
7 -0.15
8 -0.15
9 -0.15

> <PUBCHEM_EFFECTIVE_ROTOR_COUNT>
1

> <PUBCHEM_PHARMACOPHORE_FEATURES>
3
1 1 donor
6 4 5 6 7 10 11 rings
6 4 5 8 9 12 13 rings

> <PUBCHEM_HEAVY_ATOM_COUNT>
13

> <PUBCHEM_ATOM_DEF_STEREO_COUNT>
0

> <PUBCHEM_ATOM_UDEF_STEREO_COUNT>
0

> <PUBCHEM_BOND_DEF_STEREO_COUNT>
0

> <PUBCHEM_BOND_UDEF_STEREO_COUNT>
0

> <PUBCHEM_ISOTOPIC_ATOM_COUNT>
0

> <PUBCHEM_COMPONENT_COUNT>
1

> <PUBCHEM_CACTVS_TAUTO_COUNT>
4

> <PUBCHEM_CONFORMER_ID>
0000218400000002

> <PUBCHEM_MMFF94_ENERGY>
42.6401

> <PUBCHEM_FEATURE_SELFOVERLAP>
15.249

> <PUBCHEM_SHAPE_FINGERPRINT>
10967382 1 18411418453120939880
11132069 177 18410016520367308112
11206711 2 18269272352915640540
12202030 40 16515948312115445182
12382932 28 18409169904766368032
12423570 1 14884524436404840689
12524768 44 18337666528818260502
16945 1 18410857706644204832
17844478 74 17846203505957756737
193761 8 18194962933368400961
20510252 161 18044095876378177024
20588541 1 18336824285726149136
20871998 184 18333728026738852687
21501502 16 18339361868548071492
2334 1 18195525887674610472
23388829 49 17903929854853661180
23402539 116 18190194536206551141
23463225 33 18342174496701541168
23552423 10 18199746960063583588
23559900 14 18334574694680759972
241688 4 18339644425656243432
2748010 2 18267022752220337852
5084963 1 17971480851213567816
5255222 1 18410863169758449704
528886 8 18411140233898231832
53812654 25 18336276720292763171

> <PUBCHEM_SHAPE_MULTIPOLES>
250.81
4.09
2.28
0.65
0.7
0.18
0.02
0.39
-0.02
-0.69
0.22
-0.03
0.07
-0.22

> <PUBCHEM_SHAPE_SELFOVERLAP>
555.254

> <PUBCHEM_SHAPE_VOLUME>
135

> <PUBCHEM_COORDINATE_TYPE>
2
5
10

$$$$

