8867
  -OEChem-06261203113D

 18 17  0     1  0  0  0  0  0999 V2000
   -1.9097    0.8477    1.3322 S   0  0  0  0  0  0  0  0  0  0  0  0
   -2.6441   -1.1242   -0.8030 S   0  0  0  0  0  0  0  0  0  0  0  0
   -0.1302   -0.4690   -0.1480 O   0  0  0  0  0  0  0  0  0  0  0  0
    0.8458    0.5470    0.0645 C   0  0  1  0  0  0  0  0  0  0  0  0
    2.2310   -0.0108   -0.2695 C   0  0  0  0  0  0  0  0  0  0  0  0
    0.5077    1.7450   -0.8126 C   0  0  0  0  0  0  0  0  0  0  0  0
    2.5771   -1.2352    0.5675 C   0  0  0  0  0  0  0  0  0  0  0  0
   -1.4776   -0.3005    0.0689 C   0  0  0  0  0  0  0  0  0  0  0  0
    0.8545    0.8412    1.1205 H   0  0  0  0  0  0  0  0  0  0  0  0
    2.2686   -0.3025   -1.3264 H   0  0  0  0  0  0  0  0  0  0  0  0
    2.9930    0.7616   -0.1137 H   0  0  0  0  0  0  0  0  0  0  0  0
    0.4259    1.4425   -1.8631 H   0  0  0  0  0  0  0  0  0  0  0  0
   -0.4387    2.2245   -0.5563 H   0  0  0  0  0  0  0  0  0  0  0  0
    1.2881    2.5100   -0.7388 H   0  0  0  0  0  0  0  0  0  0  0  0
    1.8856   -2.0613    0.3744 H   0  0  0  0  0  0  0  0  0  0  0  0
    2.5444   -1.0006    1.6362 H   0  0  0  0  0  0  0  0  0  0  0  0
    3.5873   -1.5816    0.3272 H   0  0  0  0  0  0  0  0  0  0  0  0
   -3.2396    0.7201    1.2172 H   0  0  0  0  0  0  0  0  0  0  0  0
  1  8  1  0  0  0  0
  1 18  1  0  0  0  0
  2  8  2  0  0  0  0
  3  4  1  0  0  0  0
  3  8  1  0  0  0  0
  4  5  1  0  0  0  0
  4  6  1  0  0  0  0
  4  9  1  0  0  0  0
  5  7  1  0  0  0  0
  5 10  1  0  0  0  0
  5 11  1  0  0  0  0
  6 12  1  0  0  0  0
  6 13  1  0  0  0  0
  6 14  1  0  0  0  0
  7 15  1  0  0  0  0
  7 16  1  0  0  0  0
  7 17  1  0  0  0  0
M  END
> <PUBCHEM_COMPOUND_CID>
8867

> <PUBCHEM_CONFORMER_RMSD>
0.6

> <PUBCHEM_CONFORMER_DIVERSEORDER>
1
13
4
16
15
17
3
12
20
8
9
14
6
5
11
19
2
18
7
10

> <PUBCHEM_MMFF94_PARTIAL_CHARGES>
6
1 -0.32
18 0.18
2 -0.38
3 -0.43
4 0.28
8 0.67

> <PUBCHEM_EFFECTIVE_ROTOR_COUNT>
3

> <PUBCHEM_PHARMACOPHORE_FEATURES>
3
1 2 acceptor
1 7 hydrophobe
3 1 2 8 anion

> <PUBCHEM_HEAVY_ATOM_COUNT>
8

> <PUBCHEM_ATOM_DEF_STEREO_COUNT>
0

> <PUBCHEM_ATOM_UDEF_STEREO_COUNT>
1

> <PUBCHEM_BOND_DEF_STEREO_COUNT>
0

> <PUBCHEM_BOND_UDEF_STEREO_COUNT>
0

> <PUBCHEM_ISOTOPIC_ATOM_COUNT>
0

> <PUBCHEM_COMPONENT_COUNT>
1

> <PUBCHEM_CACTVS_TAUTO_COUNT>
1

> <PUBCHEM_CONFORMER_ID>
000022A300000001

> <PUBCHEM_MMFF94_ENERGY>
16.9114

> <PUBCHEM_FEATURE_SELFOVERLAP>
15.223

> <PUBCHEM_SHAPE_FINGERPRINT>
10857977 72 15792013316547939759
12932741 1 16271925956979249837
12932764 1 18409158930998462376
20653085 51 17703519835124544613
20653091 64 18339073774974016840
20711985 344 17058106638237066132
21040471 1 17388228368710113825
23211744 25 16459956472771327613
23211744 41 14562528491955616735
23552333 60 18191588545083183745
23552423 10 18267302023941999319
29004967 10 17704061894045866480
5084963 1 18410577245284823415

> <PUBCHEM_SHAPE_MULTIPOLES>
166.47
4.01
1.56
1.11
0.26
0.23
0.15
-1.7
0.29
-0.11
-0.17
-0.38
0.26
-1.02

> <PUBCHEM_SHAPE_SELFOVERLAP>
283.04

> <PUBCHEM_SHAPE_VOLUME>
113.7

> <PUBCHEM_COORDINATE_TYPE>
2
5
10

$$$$

