4527
  -OEChem-06261200113D

 24 25  0     1  0  0  0  0  0999 V2000
    2.9447    0.2396    0.3802 O   0  0  0  0  0  0  0  0  0  0  0  0
    1.2983   -1.7377    1.4864 O   0  0  0  0  0  0  0  0  0  0  0  0
   -0.1111   -1.7742   -1.8859 O   0  0  0  0  0  0  0  0  0  0  0  0
    0.5973    2.4074   -1.4010 O   0  0  0  0  0  0  0  0  0  0  0  0
   -0.7339    0.5153    0.3483 N   0  0  0  0  0  0  0  0  0  0  0  0
   -1.8124    1.2278    0.7040 N   0  0  0  0  0  0  0  0  0  0  0  0
   -2.4265   -0.7922   -0.0230 N   0  0  0  0  0  0  0  0  0  0  0  0
   -2.8447    0.4312    0.4541 N   0  0  0  0  0  0  0  0  0  0  0  0
    0.6276    0.9923    0.5268 C   0  0  1  0  0  0  0  0  0  0  0  0
    1.6348    0.0255   -0.1419 C   0  0  2  0  0  0  0  0  0  0  0  0
    1.2653   -1.4532    0.0868 C   0  0  2  0  0  0  0  0  0  0  0  0
   -0.1326   -1.7709   -0.4640 C   0  0  1  0  0  0  0  0  0  0  0  0
   -1.1128   -0.7302   -0.0690 C   0  0  0  0  0  0  0  0  0  0  0  0
    0.8060    2.4194   -0.0017 C   0  0  0  0  0  0  0  0  0  0  0  0
    0.7987    1.0077    1.6113 H   0  0  0  0  0  0  0  0  0  0  0  0
    1.6830    0.2050   -1.2227 H   0  0  0  0  0  0  0  0  0  0  0  0
    2.0191   -2.0910   -0.3905 H   0  0  0  0  0  0  0  0  0  0  0  0
   -0.4676   -2.7541   -0.1153 H   0  0  0  0  0  0  0  0  0  0  0  0
    1.8197    2.7818    0.1979 H   0  0  0  0  0  0  0  0  0  0  0  0
    0.0950    3.1151    0.4557 H   0  0  0  0  0  0  0  0  0  0  0  0
    3.5496   -0.3630   -0.0851 H   0  0  0  0  0  0  0  0  0  0  0  0
    1.0912   -2.6811    1.5981 H   0  0  0  0  0  0  0  0  0  0  0  0
   -0.9796   -2.0837   -2.1963 H   0  0  0  0  0  0  0  0  0  0  0  0
    0.7235    3.3179   -1.7179 H   0  0  0  0  0  0  0  0  0  0  0  0
  1 10  1  0  0  0  0
  1 21  1  0  0  0  0
  2 11  1  0  0  0  0
  2 22  1  0  0  0  0
  3 12  1  0  0  0  0
  3 23  1  0  0  0  0
  4 14  1  0  0  0  0
  4 24  1  0  0  0  0
  5  6  1  0  0  0  0
  5  9  1  0  0  0  0
  5 13  1  0  0  0  0
  6  8  2  0  0  0  0
  7  8  1  0  0  0  0
  7 13  2  0  0  0  0
  9 10  1  0  0  0  0
  9 14  1  0  0  0  0
  9 15  1  0  0  0  0
 10 11  1  0  0  0  0
 10 16  1  0  0  0  0
 11 12  1  0  0  0  0
 11 17  1  0  0  0  0
 12 13  1  0  0  0  0
 12 18  1  0  0  0  0
 14 19  1  0  0  0  0
 14 20  1  0  0  0  0
M  END
> <PUBCHEM_COMPOUND_CID>
4527

> <PUBCHEM_CONFORMER_RMSD>
0.6

> <PUBCHEM_CONFORMER_DIVERSEORDER>
7
9
5
15
20
18
19
12
14
3
10
1
13
2
16
8
4
17
6
11

> <PUBCHEM_MMFF94_PARTIAL_CHARGES>
17
1 -0.68
10 0.28
11 0.28
12 0.46
13 0.01
14 0.28
2 -0.68
21 0.4
22 0.4
23 0.4
24 0.4
3 -0.68
4 -0.68
5 0.31
6 -0.42
7 -0.34
9 0.26

> <PUBCHEM_EFFECTIVE_ROTOR_COUNT>
1.8

> <PUBCHEM_PHARMACOPHORE_FEATURES>
11
1 1 acceptor
1 1 donor
1 2 acceptor
1 2 donor
1 3 acceptor
1 3 donor
1 4 acceptor
1 4 donor
3 5 7 13 cation
5 5 6 7 8 13 rings
6 5 9 10 11 12 13 rings

> <PUBCHEM_HEAVY_ATOM_COUNT>
14

> <PUBCHEM_ATOM_DEF_STEREO_COUNT>
0

> <PUBCHEM_ATOM_UDEF_STEREO_COUNT>
4

> <PUBCHEM_BOND_DEF_STEREO_COUNT>
0

> <PUBCHEM_BOND_UDEF_STEREO_COUNT>
0

> <PUBCHEM_ISOTOPIC_ATOM_COUNT>
0

> <PUBCHEM_COMPONENT_COUNT>
1

> <PUBCHEM_CACTVS_TAUTO_COUNT>
1

> <PUBCHEM_CONFORMER_ID>
000011AF00000007

> <PUBCHEM_MMFF94_ENERGY>
23.5957

> <PUBCHEM_FEATURE_SELFOVERLAP>
55.936

> <PUBCHEM_SHAPE_FINGERPRINT>
12423570 1 7868601633701963542
12524768 44 18046897462170176035
13380536 261 17325220528141103446
14761567 1 16539348908841173854
14817 1 5651999253043286863
15557651 10 16342595945862813246
15881359 60 17615444726943156869
16945 1 18338226068525476795
18185500 45 18410019801368822810
20511035 2 18264485074977531473
20711978 78 16014395332570334127
21040471 1 17974566888416434033
21922407 69 15042093845779476168
23552423 10 18268712718993469531
241688 4 17832123284342524603
2748010 2 18191863633380319239
2897 32 18194122919295692536
430814 3 17625807284769848917
5084963 1 18267020561792161801
535629 181 16674432729643963622
53812653 217 17396402923818753518

> <PUBCHEM_SHAPE_MULTIPOLES>
244.71
2.89
2.51
1.13
0.82
0.61
0.32
0.33
-0.57
-0.64
0.5
-0.15
-0.28
-0.6

> <PUBCHEM_SHAPE_SELFOVERLAP>
513.056

> <PUBCHEM_SHAPE_VOLUME>
137.3

> <PUBCHEM_COORDINATE_TYPE>
2
5
10

$$$$

