442930
  -OEChem-07051213003D

 41 43  0     1  0  0  0  0  0999 V2000
    1.7361    1.2287   -0.1669 O   0  0  0  0  0  0  0  0  0  0  0  0
    3.7430    0.2057    1.5061 O   0  0  0  0  0  0  0  0  0  0  0  0
   -0.5905   -2.8230   -0.3542 O   0  0  0  0  0  0  0  0  0  0  0  0
   -3.1249    2.7040    0.2164 O   0  0  0  0  0  0  0  0  0  0  0  0
   -0.6701    1.2885   -0.0337 N   0  3  0  0  0  0  0  0  0  0  0  0
    2.6132    0.1603   -0.6118 C   0  0  2  0  0  0  0  0  0  0  0  0
    1.9330   -1.1890   -0.3289 C   0  0  0  0  0  0  0  0  0  0  0  0
    3.9524    0.2964    0.0937 C   0  0  0  0  0  0  0  0  0  0  0  0
    0.5272   -0.7363   -0.2718 C   0  0  0  0  0  0  0  0  0  0  0  0
    0.4845    0.6344   -0.1575 C   0  0  0  0  0  0  0  0  0  0  0  0
   -0.6432   -1.4664   -0.2594 C   0  0  0  0  0  0  0  0  0  0  0  0
    4.6019    1.6494   -0.2087 C   0  0  0  0  0  0  0  0  0  0  0  0
    4.8941   -0.8437   -0.2993 C   0  0  0  0  0  0  0  0  0  0  0  0
   -1.8524    0.6385   -0.0241 C   0  0  0  0  0  0  0  0  0  0  0  0
   -1.8618   -0.7785   -0.1397 C   0  0  0  0  0  0  0  0  0  0  0  0
   -0.5546    2.7458    0.0871 C   0  0  0  0  0  0  0  0  0  0  0  0
   -3.0501    1.3484    0.1005 C   0  0  0  0  0  0  0  0  0  0  0  0
   -3.0961   -1.4447   -0.1248 C   0  0  0  0  0  0  0  0  0  0  0  0
   -4.2644    0.6639    0.1116 C   0  0  0  0  0  0  0  0  0  0  0  0
   -4.2878   -0.7264   -0.0004 C   0  0  0  0  0  0  0  0  0  0  0  0
   -0.4893   -3.5559    0.8658 C   0  0  0  0  0  0  0  0  0  0  0  0
    2.7419    0.2868   -1.6969 H   0  0  0  0  0  0  0  0  0  0  0  0
    2.2132   -1.6253    0.6348 H   0  0  0  0  0  0  0  0  0  0  0  0
    2.1214   -1.9090   -1.1305 H   0  0  0  0  0  0  0  0  0  0  0  0
    5.5695    1.7397    0.2987 H   0  0  0  0  0  0  0  0  0  0  0  0
    4.7638    1.7871   -1.2828 H   0  0  0  0  0  0  0  0  0  0  0  0
    3.9883    2.4781    0.1621 H   0  0  0  0  0  0  0  0  0  0  0  0
    4.5237   -1.8178    0.0374 H   0  0  0  0  0  0  0  0  0  0  0  0
    5.8734   -0.7187    0.1780 H   0  0  0  0  0  0  0  0  0  0  0  0
    5.0480   -0.8821   -1.3828 H   0  0  0  0  0  0  0  0  0  0  0  0
    4.6058    0.2986    1.9453 H   0  0  0  0  0  0  0  0  0  0  0  0
    0.4839    3.0838    0.0636 H   0  0  0  0  0  0  0  0  0  0  0  0
   -1.0555    3.2097   -0.7670 H   0  0  0  0  0  0  0  0  0  0  0  0
   -0.9618    3.0514    1.0547 H   0  0  0  0  0  0  0  0  0  0  0  0
   -3.1551   -2.5269   -0.2139 H   0  0  0  0  0  0  0  0  0  0  0  0
   -5.2076    1.1962    0.2072 H   0  0  0  0  0  0  0  0  0  0  0  0
   -5.2378   -1.2536    0.0083 H   0  0  0  0  0  0  0  0  0  0  0  0
   -0.5245   -4.6224    0.6272 H   0  0  0  0  0  0  0  0  0  0  0  0
   -1.3229   -3.3205    1.5348 H   0  0  0  0  0  0  0  0  0  0  0  0
    0.4609   -3.3416    1.3643 H   0  0  0  0  0  0  0  0  0  0  0  0
   -4.0542    2.9801    0.2907 H   0  0  0  0  0  0  0  0  0  0  0  0
  1  6  1  0  0  0  0
  1 10  1  0  0  0  0
  2  8  1  0  0  0  0
  2 31  1  0  0  0  0
  3 11  1  0  0  0  0
  3 21  1  0  0  0  0
  4 17  1  0  0  0  0
  4 41  1  0  0  0  0
  5 10  2  0  0  0  0
  5 14  1  0  0  0  0
  5 16  1  0  0  0  0
  6  7  1  0  0  0  0
  6  8  1  0  0  0  0
  6 22  1  0  0  0  0
  7  9  1  0  0  0  0
  7 23  1  0  0  0  0
  7 24  1  0  0  0  0
  8 12  1  0  0  0  0
  8 13  1  0  0  0  0
  9 10  1  0  0  0  0
  9 11  2  0  0  0  0
 11 15  1  0  0  0  0
 12 25  1  0  0  0  0
 12 26  1  0  0  0  0
 12 27  1  0  0  0  0
 13 28  1  0  0  0  0
 13 29  1  0  0  0  0
 13 30  1  0  0  0  0
 14 15  2  0  0  0  0
 14 17  1  0  0  0  0
 15 18  1  0  0  0  0
 16 32  1  0  0  0  0
 16 33  1  0  0  0  0
 16 34  1  0  0  0  0
 17 19  2  0  0  0  0
 18 20  2  0  0  0  0
 18 35  1  0  0  0  0
 19 20  1  0  0  0  0
 19 36  1  0  0  0  0
 20 37  1  0  0  0  0
 21 38  1  0  0  0  0
 21 39  1  0  0  0  0
 21 40  1  0  0  0  0
M  CHG  1   5   1
M  END
> <PUBCHEM_COMPOUND_CID>
442930

> <PUBCHEM_CONFORMER_RMSD>
0.6

> <PUBCHEM_CONFORMER_DIVERSEORDER>
1
6
4
3
2
5

> <PUBCHEM_MMFF94_PARTIAL_CHARGES>
23
1 -0.36
10 0.44
11 0.08
14 0.36
16 0.49
17 0.08
18 -0.15
19 -0.15
2 -0.68
20 -0.15
21 0.28
3 -0.36
31 0.4
35 0.15
36 0.15
37 0.15
4 -0.53
41 0.45
5 -0.21
6 0.28
7 0.14
8 0.28
9 -0.14

> <PUBCHEM_EFFECTIVE_ROTOR_COUNT>
2.6

> <PUBCHEM_PHARMACOPHORE_FEATURES>
8
1 2 acceptor
1 2 donor
1 3 acceptor
1 4 donor
3 8 12 13 hydrophobe
5 1 6 7 9 10 rings
6 14 15 17 18 19 20 rings
6 5 9 10 11 14 15 rings

> <PUBCHEM_HEAVY_ATOM_COUNT>
21

> <PUBCHEM_ATOM_DEF_STEREO_COUNT>
1

> <PUBCHEM_ATOM_UDEF_STEREO_COUNT>
0

> <PUBCHEM_BOND_DEF_STEREO_COUNT>
0

> <PUBCHEM_BOND_UDEF_STEREO_COUNT>
0

> <PUBCHEM_ISOTOPIC_ATOM_COUNT>
0

> <PUBCHEM_COMPONENT_COUNT>
1

> <PUBCHEM_CACTVS_TAUTO_COUNT>
3

> <PUBCHEM_CONFORMER_ID>
0006C23200000001

> <PUBCHEM_MMFF94_ENERGY>
90.8045

> <PUBCHEM_FEATURE_SELFOVERLAP>
40.732

> <PUBCHEM_SHAPE_FINGERPRINT>
10319926 262 18262820479873735728
10411042 1 17545600050528689862
10906281 52 18191566606374606589
10967382 1 18410290358781338127
1100329 8 18194962942485823819
11132069 177 18408040723541460237
11578080 2 5037184352640100745
12236239 1 17846498127997905676
12390115 104 18188190091986314409
12403259 415 18113339721650457360
12403814 3 17632021866234275533
12592029 89 18342172319016310395
12839892 36 18268727166952620058
13140716 1 17906165153524548523
13583140 156 16988562364191792016
13862211 1 18337393747383202519
14115302 16 18201430325440495518
14787075 74 18187930538733269657
14790565 3 18411409618421509789
15042514 8 18267861684220257243
15196674 1 18409446985896634604
15209289 33 18408604734430931387
15209294 21 17749937947494758713
15309172 13 18339634633188661753
15536298 74 18261390108717485646
16752209 62 18412266137984146418
16945 1 18266169535592377855
17804303 29 18335136445125372368
1813 80 16987719164303350526
18186145 218 18041830830763459516
19591789 44 18410575101848255334
20028762 73 18043808681112254735
20510252 161 18333728030907245521
21029758 11 18261396594429351693
21267235 1 18410564089552322894
21524375 3 18334575780115710159
2334 1 18410007741343261783
23366157 5 17841986990255161322
23402539 116 18334020462503654039
23557571 272 18188760661886705388
23559900 14 18188769578286148230
2748010 2 18336816593740545575
335352 9 18337670922986373780
34934 24 18336550533891817181
350125 39 18195243541162456134
352729 6 18268136574800742871
4214541 1 18409447024651839844
43471831 8 18269838769050613923
474229 33 18410011027004007063
5104073 3 18409729569254476720
54173680 148 18124310506590533499
6138700 20 18122056770374696350
633830 44 18189053260126917485
69090 78 18335140877626561054
7364860 26 17903919198908411759
8809292 202 18339640014698579770
9709674 26 18334849498877545062

> <PUBCHEM_SHAPE_MULTIPOLES>
403.71
8.49
3.01
0.77
5.2
1.03
-0.14
-1.98
-0.28
-1.49
-0.44
0.37
0.14
-0.06

> <PUBCHEM_SHAPE_SELFOVERLAP>
887.054

> <PUBCHEM_SHAPE_VOLUME>
220.7

> <PUBCHEM_COORDINATE_TYPE>
2
5
10

$$$$

