25010747
  -OEChem-07051213102D

 19 18  0     0  0  0  0  0  0999 V2000
    7.7331    0.0600    0.0000 S   0  0  0  0  0  0  0  0  0  0  0  0
    2.5369    0.0600    0.0000 O   0  0  0  0  0  0  0  0  0  0  0  0
    3.4030    0.5600    0.0000 N   0  0  0  0  0  0  0  0  0  0  0  0
    6.0010    0.0600    0.0000 C   0  0  0  0  0  0  0  0  0  0  0  0
    5.1350    0.5600    0.0000 C   0  0  0  0  0  0  0  0  0  0  0  0
    6.8671    0.5600    0.0000 C   0  0  0  0  0  0  0  0  0  0  0  0
    4.2690    0.0600    0.0000 C   0  0  0  0  0  0  0  0  0  0  0  0
    8.5991    0.5600    0.0000 C   0  0  0  0  0  0  0  0  0  0  0  0
    5.6025   -0.4149    0.0000 H   0  0  0  0  0  0  0  0  0  0  0  0
    6.3996   -0.4149    0.0000 H   0  0  0  0  0  0  0  0  0  0  0  0
    5.5335    1.0350    0.0000 H   0  0  0  0  0  0  0  0  0  0  0  0
    4.7365    1.0350    0.0000 H   0  0  0  0  0  0  0  0  0  0  0  0
    7.2656    1.0350    0.0000 H   0  0  0  0  0  0  0  0  0  0  0  0
    6.4685    1.0350    0.0000 H   0  0  0  0  0  0  0  0  0  0  0  0
    4.2690   -0.5600    0.0000 H   0  0  0  0  0  0  0  0  0  0  0  0
    8.9091    0.0231    0.0000 H   0  0  0  0  0  0  0  0  0  0  0  0
    9.1360    0.8700    0.0000 H   0  0  0  0  0  0  0  0  0  0  0  0
    8.2891    1.0969    0.0000 H   0  0  0  0  0  0  0  0  0  0  0  0
    2.0000    0.3700    0.0000 H   0  0  0  0  0  0  0  0  0  0  0  0
  1  6  1  0  0  0  0
  1  8  1  0  0  0  0
  2  3  1  0  0  0  0
  2 19  1  0  0  0  0
  3  7  2  0  0  0  0
  4  5  1  0  0  0  0
  4  6  1  0  0  0  0
  4  9  1  0  0  0  0
  4 10  1  0  0  0  0
  5  7  1  0  0  0  0
  5 11  1  0  0  0  0
  5 12  1  0  0  0  0
  6 13  1  0  0  0  0
  6 14  1  0  0  0  0
  7 15  1  0  0  0  0
  8 16  1  0  0  0  0
  8 17  1  0  0  0  0
  8 18  1  0  0  0  0
M  END
> <PUBCHEM_COMPOUND_CID>
25010747

> <PUBCHEM_COMPOUND_CANONICALIZED>
1

> <PUBCHEM_CACTVS_COMPLEXITY>
65.4

> <PUBCHEM_CACTVS_HBOND_ACCEPTOR>
3

> <PUBCHEM_CACTVS_HBOND_DONOR>
1

> <PUBCHEM_CACTVS_ROTATABLE_BOND>
4

> <PUBCHEM_CACTVS_SUBSKEYS>
AAADccBiIABAAAAAAAAAAAAAAAAAAAAAAAAAAAAAAAAAAAAAAAAAHAQECAAACADFQASCAAAQAAggABAhAAAAAAAAABAAAAAwAAAAAAAgAAAAAAAAAAAAAAAAAAAAAAAAAAAAAAAAAAAAAAAAAAAAAAAAAA==

> <PUBCHEM_IUPAC_OPENEYE_NAME>
(1E)-4-methylsulfanylbutanal oxime

> <PUBCHEM_IUPAC_CAS_NAME>
(1E)-4-(methylthio)butanal oxime

> <PUBCHEM_IUPAC_NAME>
(NE)-N-(4-methylsulfanylbutylidene)hydroxylamine

> <PUBCHEM_IUPAC_SYSTEMATIC_NAME>
(NE)-N-(4-methylsulfanylbutylidene)hydroxylamine

> <PUBCHEM_IUPAC_TRADITIONAL_NAME>
(1E)-4-(methylthio)butyraldoxime

> <PUBCHEM_IUPAC_INCHI>
InChI=1S/C5H11NOS/c1-8-5-3-2-4-6-7/h4,7H,2-3,5H2,1H3/b6-4+

> <PUBCHEM_IUPAC_INCHIKEY>
DNYWTMVKWUGHCB-GQCTYLIASA-N

> <PUBCHEM_XLOGP3_AA>
0.9

> <PUBCHEM_EXACT_MASS>
133.056135

> <PUBCHEM_MOLECULAR_FORMULA>
C5H11NOS

> <PUBCHEM_MOLECULAR_WEIGHT>
133.21194

> <PUBCHEM_OPENEYE_CAN_SMILES>
CSCCCC=NO

> <PUBCHEM_OPENEYE_ISO_SMILES>
CSCCC/C=N/O

> <PUBCHEM_CACTVS_TPSA>
57.9

> <PUBCHEM_MONOISOTOPIC_WEIGHT>
133.056135

> <PUBCHEM_TOTAL_CHARGE>
0

> <PUBCHEM_HEAVY_ATOM_COUNT>
8

> <PUBCHEM_ATOM_DEF_STEREO_COUNT>
0

> <PUBCHEM_ATOM_UDEF_STEREO_COUNT>
0

> <PUBCHEM_BOND_DEF_STEREO_COUNT>
1

> <PUBCHEM_BOND_UDEF_STEREO_COUNT>
0

> <PUBCHEM_ISOTOPIC_ATOM_COUNT>
0

> <PUBCHEM_COMPONENT_COUNT>
1

> <PUBCHEM_CACTVS_TAUTO_COUNT>
3

> <PUBCHEM_COORDINATE_TYPE>
1
5
255

$$$$

