160472
  -OEChem-07051212553D

 46 49  0     1  0  0  0  0  0999 V2000
    1.3419   -2.2785    0.5823 O   0  0  0  0  0  0  0  0  0  0  0  0
   -0.5628   -3.6011    0.1755 O   0  0  0  0  0  0  0  0  0  0  0  0
   -3.2457    1.9249   -0.9428 O   0  0  0  0  0  0  0  0  0  0  0  0
   -4.3618   -0.0856    0.6157 O   0  0  0  0  0  0  0  0  0  0  0  0
    1.7893    2.0388    0.1844 N   0  0  2  0  0  0  0  0  0  0  0  0
    1.9781    0.5674    0.2980 C   0  0  1  0  0  0  0  0  0  0  0  0
    1.1537   -0.2540   -0.7265 C   0  0  1  0  0  0  0  0  0  0  0  0
    1.6260   -1.7271   -0.7120 C   0  0  1  0  0  0  0  0  0  0  0  0
    3.4500    0.3452    0.1033 C   0  0  0  0  0  0  0  0  0  0  0  0
    3.1349   -1.8750   -0.9758 C   0  0  0  0  0  0  0  0  0  0  0  0
    4.1546    1.6102    0.4396 C   0  0  0  0  0  0  0  0  0  0  0  0
   -0.3247   -0.2203   -0.3952 C   0  0  0  0  0  0  0  0  0  0  0  0
    3.1291    2.6148   -0.0705 C   0  0  0  0  0  0  0  0  0  0  0  0
    3.9788   -0.7421   -0.4684 C   0  0  0  0  0  0  0  0  0  0  0  0
   -0.8917   -1.2466    0.3820 C   0  0  0  0  0  0  0  0  0  0  0  0
   -0.0618   -2.4328    0.8224 C   0  0  2  0  0  0  0  0  0  0  0  0
    1.2182    2.5964    1.4128 C   0  0  0  0  0  0  0  0  0  0  0  0
   -1.1312    0.8368   -0.8407 C   0  0  0  0  0  0  0  0  0  0  0  0
   -2.2527   -1.1847    0.7167 C   0  0  0  0  0  0  0  0  0  0  0  0
   -2.4833    0.8849   -0.5036 C   0  0  0  0  0  0  0  0  0  0  0  0
   -3.0424   -0.1224    0.2783 C   0  0  0  0  0  0  0  0  0  0  0  0
   -3.3202    3.0744   -0.1019 C   0  0  0  0  0  0  0  0  0  0  0  0
   -5.2763   -0.7237   -0.2735 C   0  0  0  0  0  0  0  0  0  0  0  0
    1.7354    0.2380    1.3194 H   0  0  0  0  0  0  0  0  0  0  0  0
    1.3046    0.1400   -1.7417 H   0  0  0  0  0  0  0  0  0  0  0  0
    1.0925   -2.3215   -1.4665 H   0  0  0  0  0  0  0  0  0  0  0  0
    3.2942   -1.9294   -2.0599 H   0  0  0  0  0  0  0  0  0  0  0  0
    3.5033   -2.8115   -0.5411 H   0  0  0  0  0  0  0  0  0  0  0  0
    4.2934    1.6953    1.5226 H   0  0  0  0  0  0  0  0  0  0  0  0
    5.1188    1.7217   -0.0640 H   0  0  0  0  0  0  0  0  0  0  0  0
    3.2713    3.6069    0.3733 H   0  0  0  0  0  0  0  0  0  0  0  0
    3.2410    2.7384   -1.1560 H   0  0  0  0  0  0  0  0  0  0  0  0
    5.0492   -0.7961   -0.6439 H   0  0  0  0  0  0  0  0  0  0  0  0
   -0.1844   -2.5618    1.9041 H   0  0  0  0  0  0  0  0  0  0  0  0
    1.8604    2.4339    2.2860 H   0  0  0  0  0  0  0  0  0  0  0  0
    0.2380    2.1537    1.6199 H   0  0  0  0  0  0  0  0  0  0  0  0
    1.0569    3.6741    1.2996 H   0  0  0  0  0  0  0  0  0  0  0  0
   -0.7018    1.6290   -1.4496 H   0  0  0  0  0  0  0  0  0  0  0  0
   -2.6988   -1.9740    1.3177 H   0  0  0  0  0  0  0  0  0  0  0  0
   -0.3865   -4.3528    0.7664 H   0  0  0  0  0  0  0  0  0  0  0  0
   -3.7576    2.8149    0.8673 H   0  0  0  0  0  0  0  0  0  0  0  0
   -3.9618    3.8140   -0.5885 H   0  0  0  0  0  0  0  0  0  0  0  0
   -2.3264    3.5114    0.0392 H   0  0  0  0  0  0  0  0  0  0  0  0
   -5.2357   -0.2618   -1.2651 H   0  0  0  0  0  0  0  0  0  0  0  0
   -6.2860   -0.6016    0.1279 H   0  0  0  0  0  0  0  0  0  0  0  0
   -5.0559   -1.7933   -0.3476 H   0  0  0  0  0  0  0  0  0  0  0  0
  1  8  1  0  0  0  0
  1 16  1  0  0  0  0
  2 16  1  0  0  0  0
  2 40  1  0  0  0  0
  3 20  1  0  0  0  0
  3 22  1  0  0  0  0
  4 21  1  0  0  0  0
  4 23  1  0  0  0  0
  5  6  1  0  0  0  0
  5 13  1  0  0  0  0
  5 17  1  0  0  0  0
  6  7  1  0  0  0  0
  6  9  1  0  0  0  0
  6 24  1  0  0  0  0
  7  8  1  0  0  0  0
  7 12  1  0  0  0  0
  7 25  1  0  0  0  0
  8 10  1  0  0  0  0
  8 26  1  0  0  0  0
  9 11  1  0  0  0  0
  9 14  2  0  0  0  0
 10 14  1  0  0  0  0
 10 27  1  0  0  0  0
 10 28  1  0  0  0  0
 11 13  1  0  0  0  0
 11 29  1  0  0  0  0
 11 30  1  0  0  0  0
 12 15  1  0  0  0  0
 12 18  2  0  0  0  0
 13 31  1  0  0  0  0
 13 32  1  0  0  0  0
 14 33  1  0  0  0  0
 15 16  1  0  0  0  0
 15 19  2  0  0  0  0
 16 34  1  0  0  0  0
 17 35  1  0  0  0  0
 17 36  1  0  0  0  0
 17 37  1  0  0  0  0
 18 20  1  0  0  0  0
 18 38  1  0  0  0  0
 19 21  1  0  0  0  0
 19 39  1  0  0  0  0
 20 21  2  0  0  0  0
 22 41  1  0  0  0  0
 22 42  1  0  0  0  0
 22 43  1  0  0  0  0
 23 44  1  0  0  0  0
 23 45  1  0  0  0  0
 23 46  1  0  0  0  0
M  END
> <PUBCHEM_COMPOUND_CID>
160472

> <PUBCHEM_CONFORMER_RMSD>
0.6

> <PUBCHEM_CONFORMER_DIVERSEORDER>
1
5
4
2
3

> <PUBCHEM_MMFF94_PARTIAL_CHARGES>
27
1 -0.56
10 0.14
11 0.14
12 -0.14
13 0.27
14 -0.29
15 -0.14
16 0.7
17 0.27
18 -0.15
19 -0.15
2 -0.68
20 0.08
21 0.08
22 0.28
23 0.28
3 -0.36
33 0.15
38 0.15
39 0.15
4 -0.36
40 0.4
5 -0.81
6 0.41
7 0.14
8 0.28
9 -0.28

> <PUBCHEM_EFFECTIVE_ROTOR_COUNT>
3.2

> <PUBCHEM_PHARMACOPHORE_FEATURES>
10
1 1 acceptor
1 2 acceptor
1 2 donor
1 3 acceptor
1 4 acceptor
1 5 cation
5 5 6 9 11 13 rings
6 1 7 8 12 15 16 rings
6 12 15 18 19 20 21 rings
6 6 7 8 9 10 14 rings

> <PUBCHEM_HEAVY_ATOM_COUNT>
23

> <PUBCHEM_ATOM_DEF_STEREO_COUNT>
4

> <PUBCHEM_ATOM_UDEF_STEREO_COUNT>
0

> <PUBCHEM_BOND_DEF_STEREO_COUNT>
0

> <PUBCHEM_BOND_UDEF_STEREO_COUNT>
0

> <PUBCHEM_ISOTOPIC_ATOM_COUNT>
0

> <PUBCHEM_COMPONENT_COUNT>
1

> <PUBCHEM_CACTVS_TAUTO_COUNT>
1

> <PUBCHEM_CONFORMER_ID>
000272D800000001

> <PUBCHEM_MMFF94_ENERGY>
79.1388

> <PUBCHEM_FEATURE_SELFOVERLAP>
50.969

> <PUBCHEM_SHAPE_FINGERPRINT>
10165383 225 18192984929188339200
10366900 7 18341608183762405369
10608611 8 18411699893743381916
10646746 165 18271805756523445444
10871710 139 16971945196064230588
10967382 1 18410291380951814988
1100329 8 16538769023747542088
11370993 70 18413112748962954809
12011746 2 18341046337541693854
12236239 1 16443339879916058646
12403259 226 18411418410329619903
12403259 415 18343863333687706397
12403260 363 18412554209967320195
12633257 1 18269849622759505672
13134695 92 17385726941365734568
13140716 1 17981605961778139914
13402501 40 18339360764525400169
13464514 151 18194400228106731300
13878862 14 17265831980216832597
14223421 5 18339638928098052283
14466204 15 18196943377496290064
14787075 74 18263084331956123205
15196674 1 18410574028322982068
16945 1 18341052913390182134
17349148 13 17561363959594868863
18186145 218 18261947548196035550
19049666 15 18411416236965443824
19591789 44 18412545443886185175
20510252 161 18410291406832785041
20691752 17 17203322381422474525
21279426 13 18265328607329906726
21524375 3 18335422300984471234
221357 26 18335136526982822413
23227448 37 18263927644126118679
23559900 14 18340202986247968676
238 59 18191616122999873509
25 1 18338519754405238614
2748010 2 18272082812047562351
3323516 105 18410008866239564879
335352 9 18410008802643367270
3380486 145 17979903922669798987
350125 39 18413100676010456325
3524813 1 18342175574553768276
474 4 18335138631321495112
495365 180 18194425470009286205
5104073 3 18199466735033048617
633830 44 18336271252862978717
69090 78 18408885101211549991
7364860 26 18335417980447896646
7808743 9 18053942858099138972
81228 2 17769661892753026618
9709674 26 18411133632454662367

> <PUBCHEM_SHAPE_MULTIPOLES>
444.87
8.02
3.51
0.98
4.46
0.2
-0.05
2.37
0.55
-0.48
-0.49
-0.06
0.06
1.16

> <PUBCHEM_SHAPE_SELFOVERLAP>
965.473

> <PUBCHEM_SHAPE_VOLUME>
242.6

> <PUBCHEM_COORDINATE_TYPE>
2
5
10

$$$$

