14345
  -OEChem-06241222433D

 29 29  0     0  0  0  0  0  0999 V2000
   -2.6563   -0.0077    0.3903 O   0  0  0  0  0  0  0  0  0  0  0  0
   -1.2407   -2.3563    0.0062 O   0  0  0  0  0  0  0  0  0  0  0  0
   -1.2994    2.4015    0.5480 O   0  0  0  0  0  0  0  0  0  0  0  0
    3.6356   -0.8474    0.3039 O   0  0  0  0  0  0  0  0  0  0  0  0
    1.4822    0.0820    0.0533 C   0  0  0  0  0  0  0  0  0  0  0  0
   -1.2976    0.0219    0.2804 C   0  0  0  0  0  0  0  0  0  0  0  0
   -0.5877   -1.1631    0.0865 C   0  0  0  0  0  0  0  0  0  0  0  0
   -0.6175    1.2371    0.3608 C   0  0  0  0  0  0  0  0  0  0  0  0
    0.8022   -1.1331   -0.0270 C   0  0  0  0  0  0  0  0  0  0  0  0
    0.7725    1.2671    0.2472 C   0  0  0  0  0  0  0  0  0  0  0  0
    2.9316    0.1134   -0.0654 C   0  0  0  0  0  0  0  0  0  0  0  0
    3.6283    1.3369   -0.6506 C   0  0  0  0  0  0  0  0  0  0  0  0
   -3.3839   -0.5288   -0.7195 C   0  0  0  0  0  0  0  0  0  0  0  0
   -0.4412   -3.5203   -0.1930 C   0  0  0  0  0  0  0  0  0  0  0  0
   -1.7280    3.0968   -0.6212 C   0  0  0  0  0  0  0  0  0  0  0  0
    1.4008   -2.0240   -0.1844 H   0  0  0  0  0  0  0  0  0  0  0  0
    1.2846    2.2228    0.3255 H   0  0  0  0  0  0  0  0  0  0  0  0
    3.8550    2.0462    0.1490 H   0  0  0  0  0  0  0  0  0  0  0  0
    3.0053    1.8103   -1.4144 H   0  0  0  0  0  0  0  0  0  0  0  0
    4.5576    1.0210   -1.1342 H   0  0  0  0  0  0  0  0  0  0  0  0
   -4.3297    0.0169   -0.7880 H   0  0  0  0  0  0  0  0  0  0  0  0
   -2.8461   -0.3988   -1.6652 H   0  0  0  0  0  0  0  0  0  0  0  0
   -3.6143   -1.5850   -0.5542 H   0  0  0  0  0  0  0  0  0  0  0  0
   -1.1234   -4.3760   -0.2311 H   0  0  0  0  0  0  0  0  0  0  0  0
    0.0832   -3.4906   -1.1542 H   0  0  0  0  0  0  0  0  0  0  0  0
    0.2375   -3.6937    0.6492 H   0  0  0  0  0  0  0  0  0  0  0  0
   -2.4082    2.4764   -1.2128 H   0  0  0  0  0  0  0  0  0  0  0  0
   -0.8664    3.3933   -1.2279 H   0  0  0  0  0  0  0  0  0  0  0  0
   -2.2612    3.9982   -0.3073 H   0  0  0  0  0  0  0  0  0  0  0  0
  1  6  1  0  0  0  0
  1 13  1  0  0  0  0
  2  7  1  0  0  0  0
  2 14  1  0  0  0  0
  3  8  1  0  0  0  0
  3 15  1  0  0  0  0
  4 11  2  0  0  0  0
  5  9  2  0  0  0  0
  5 10  1  0  0  0  0
  5 11  1  0  0  0  0
  6  7  2  0  0  0  0
  6  8  1  0  0  0  0
  7  9  1  0  0  0  0
  8 10  2  0  0  0  0
  9 16  1  0  0  0  0
 10 17  1  0  0  0  0
 11 12  1  0  0  0  0
 12 18  1  0  0  0  0
 12 19  1  0  0  0  0
 12 20  1  0  0  0  0
 13 21  1  0  0  0  0
 13 22  1  0  0  0  0
 13 23  1  0  0  0  0
 14 24  1  0  0  0  0
 14 25  1  0  0  0  0
 14 26  1  0  0  0  0
 15 27  1  0  0  0  0
 15 28  1  0  0  0  0
 15 29  1  0  0  0  0
M  END
> <PUBCHEM_COMPOUND_CID>
14345

> <PUBCHEM_CONFORMER_RMSD>
0.6

> <PUBCHEM_CONFORMER_DIVERSEORDER>
5
7
10
6
4
3
11
9
8
1
2

> <PUBCHEM_MMFF94_PARTIAL_CHARGES>
17
1 -0.36
10 -0.15
11 0.42
12 0.06
13 0.28
14 0.28
15 0.28
16 0.15
17 0.15
2 -0.36
3 -0.36
4 -0.57
5 0.09
6 0.08
7 0.08
8 0.08
9 -0.15

> <PUBCHEM_EFFECTIVE_ROTOR_COUNT>
4

> <PUBCHEM_PHARMACOPHORE_FEATURES>
5
1 1 acceptor
1 2 acceptor
1 3 acceptor
1 4 acceptor
6 5 6 7 8 9 10 rings

> <PUBCHEM_HEAVY_ATOM_COUNT>
15

> <PUBCHEM_ATOM_DEF_STEREO_COUNT>
0

> <PUBCHEM_ATOM_UDEF_STEREO_COUNT>
0

> <PUBCHEM_BOND_DEF_STEREO_COUNT>
0

> <PUBCHEM_BOND_UDEF_STEREO_COUNT>
0

> <PUBCHEM_ISOTOPIC_ATOM_COUNT>
0

> <PUBCHEM_COMPONENT_COUNT>
1

> <PUBCHEM_CACTVS_TAUTO_COUNT>
2

> <PUBCHEM_CONFORMER_ID>
0000380900000005

> <PUBCHEM_MMFF94_ENERGY>
71.0554

> <PUBCHEM_FEATURE_SELFOVERLAP>
25.381

> <PUBCHEM_SHAPE_FINGERPRINT>
10967382 1 18265895765633904898
11206711 2 18409167744229402765
11680986 33 17686345269955999643
13140716 1 18192993708127184338
13380535 76 18053386792555858233
13538477 17 18270966739526974706
14614273 12 18198060485520967333
14790565 3 18337938027056155649
15042514 8 18339358561413405914
16752209 62 18338808908651651002
16945 1 18410008810637118176
18619055 16 18342178813101462686
193761 8 17833268992939300971
19868273 325 18121494657416813590
20510252 161 18260830436008792728
20511035 2 17537158043304871255
20588541 1 18261384508006128974
20645476 183 17987501637900820886
21029758 27 18126554623029018435
21501502 16 18051419762095754785
21524375 3 18127972125150381432
22344851 341 17901097834901965563
2334 1 17832706768687451794
23402539 116 18334305253042090839
23557571 272 17973988571618530692
23559900 14 18262234405748099324
2748010 2 18121490525521131206
3071541 12 17328581138329295416
3312278 4 18195804068706804218
353137 74 18413111670952634697
43471831 8 18267586994790558651
53812653 8 18412542124003189352
54173680 148 18266176132572830962
589210 1 17905609157233799607
7364860 26 17543913863336314818
81228 2 18335698295714651400

> <PUBCHEM_SHAPE_MULTIPOLES>
285.22
4.85
3.36
0.74
3.22
0.63
0.06
-0.61
0.85
-1.94
0.37
-0.08
-0.15
-0.23

> <PUBCHEM_SHAPE_SELFOVERLAP>
588.379

> <PUBCHEM_SHAPE_VOLUME>
165.3

> <PUBCHEM_COORDINATE_TYPE>
2
5
10

$$$$

