363275
  -OEChem-07051212563D

 49 53  0     1  0  0  0  0  0999 V2000
   -0.7324    2.1689   -1.1639 O   0  0  0  0  0  0  0  0  0  0  0  0
   -1.4341    2.8202    0.9385 O   0  0  0  0  0  0  0  0  0  0  0  0
   -1.7029   -2.0476   -0.1825 N   0  0  2  0  0  0  0  0  0  0  0  0
    1.7586    1.0215    0.8231 N   0  0  0  0  0  0  0  0  0  0  0  0
   -0.7446    0.5445    0.5264 C   0  0  1  0  0  0  0  0  0  0  0  0
   -1.5687   -0.5120   -0.3502 C   0  0  2  0  0  0  0  0  0  0  0  0
   -2.3404   -0.8787    2.0527 C   0  0  2  0  0  0  0  0  0  0  0  0
   -1.1563    0.1917    2.0362 C   0  0  0  0  0  0  0  0  0  0  0  0
   -1.9619   -2.2568    1.3328 C   0  0  0  0  0  0  0  0  0  0  0  0
   -3.0205   -0.1119   -0.0674 C   0  0  0  0  0  0  0  0  0  0  0  0
    0.7599    0.2810    0.2495 C   0  0  0  0  0  0  0  0  0  0  0  0
   -3.4265   -0.2832    1.2013 C   0  0  0  0  0  0  0  0  0  0  0  0
   -0.4214   -2.7153   -0.6363 C   0  0  0  0  0  0  0  0  0  0  0  0
    1.3490   -0.7409   -0.5112 C   0  0  0  0  0  0  0  0  0  0  0  0
    0.6416   -1.8100   -1.3524 C   0  0  0  0  0  0  0  0  0  0  0  0
   -1.0183    1.9771    0.1553 C   0  0  0  0  0  0  0  0  0  0  0  0
   -3.8866    0.3992   -1.1706 C   0  0  0  0  0  0  0  0  0  0  0  0
    2.7687   -0.5672   -0.3814 C   0  0  0  0  0  0  0  0  0  0  0  0
    2.9882    0.5323    0.4524 C   0  0  0  0  0  0  0  0  0  0  0  0
   -4.6072   -0.7254   -1.8932 C   0  0  0  0  0  0  0  0  0  0  0  0
    3.8929   -1.2464   -0.9000 C   0  0  0  0  0  0  0  0  0  0  0  0
    4.2695    0.9812    0.7941 C   0  0  0  0  0  0  0  0  0  0  0  0
    5.1799   -0.8081   -0.5676 C   0  0  0  0  0  0  0  0  0  0  0  0
   -0.9496    3.4960   -1.6535 C   0  0  0  0  0  0  0  0  0  0  0  0
    5.3632    0.2899    0.2678 C   0  0  0  0  0  0  0  0  0  0  0  0
   -1.4116   -0.3106   -1.4172 H   0  0  0  0  0  0  0  0  0  0  0  0
   -2.6762   -1.0647    3.0772 H   0  0  0  0  0  0  0  0  0  0  0  0
   -1.4682    1.0824    2.5928 H   0  0  0  0  0  0  0  0  0  0  0  0
   -0.3035   -0.2427    2.5719 H   0  0  0  0  0  0  0  0  0  0  0  0
   -1.0779   -2.6637    1.8352 H   0  0  0  0  0  0  0  0  0  0  0  0
   -2.7814   -2.9779    1.4289 H   0  0  0  0  0  0  0  0  0  0  0  0
   -4.4185   -0.0614    1.5682 H   0  0  0  0  0  0  0  0  0  0  0  0
   -0.7221   -3.5016   -1.3385 H   0  0  0  0  0  0  0  0  0  0  0  0
    0.0740   -3.2215    0.2001 H   0  0  0  0  0  0  0  0  0  0  0  0
    0.2143   -1.3409   -2.2467 H   0  0  0  0  0  0  0  0  0  0  0  0
    1.4099   -2.4934   -1.7370 H   0  0  0  0  0  0  0  0  0  0  0  0
   -4.6350    1.0896   -0.7616 H   0  0  0  0  0  0  0  0  0  0  0  0
   -3.2952    0.9858   -1.8824 H   0  0  0  0  0  0  0  0  0  0  0  0
    1.6144    1.8106    1.4379 H   0  0  0  0  0  0  0  0  0  0  0  0
   -5.2512   -0.3170   -2.6788 H   0  0  0  0  0  0  0  0  0  0  0  0
   -5.2373   -1.3023   -1.2078 H   0  0  0  0  0  0  0  0  0  0  0  0
   -3.8977   -1.4132   -2.3654 H   0  0  0  0  0  0  0  0  0  0  0  0
    3.7726   -2.1057   -1.5536 H   0  0  0  0  0  0  0  0  0  0  0  0
    4.4130    1.8376    1.4448 H   0  0  0  0  0  0  0  0  0  0  0  0
    6.0441   -1.3320   -0.9670 H   0  0  0  0  0  0  0  0  0  0  0  0
   -2.0041    3.7690   -1.5506 H   0  0  0  0  0  0  0  0  0  0  0  0
   -0.6840    3.5145   -2.7138 H   0  0  0  0  0  0  0  0  0  0  0  0
   -0.3114    4.2058   -1.1187 H   0  0  0  0  0  0  0  0  0  0  0  0
    6.3705    0.6151    0.5147 H   0  0  0  0  0  0  0  0  0  0  0  0
  1 16  1  0  0  0  0
  1 24  1  0  0  0  0
  2 16  2  0  0  0  0
  3  6  1  0  0  0  0
  3  9  1  0  0  0  0
  3 13  1  0  0  0  0
  4 11  1  0  0  0  0
  4 19  1  0  0  0  0
  4 39  1  0  0  0  0
  5  6  1  0  0  0  0
  5  8  1  0  0  0  0
  5 11  1  0  0  0  0
  5 16  1  0  0  0  0
  6 10  1  0  0  0  0
  6 26  1  0  0  0  0
  7  8  1  0  0  0  0
  7  9  1  0  0  0  0
  7 12  1  0  0  0  0
  7 27  1  0  0  0  0
  8 28  1  0  0  0  0
  8 29  1  0  0  0  0
  9 30  1  0  0  0  0
  9 31  1  0  0  0  0
 10 12  2  0  0  0  0
 10 17  1  0  0  0  0
 11 14  2  0  0  0  0
 12 32  1  0  0  0  0
 13 15  1  0  0  0  0
 13 33  1  0  0  0  0
 13 34  1  0  0  0  0
 14 15  1  0  0  0  0
 14 18  1  0  0  0  0
 15 35  1  0  0  0  0
 15 36  1  0  0  0  0
 17 20  1  0  0  0  0
 17 37  1  0  0  0  0
 17 38  1  0  0  0  0
 18 19  1  0  0  0  0
 18 21  2  0  0  0  0
 19 22  2  0  0  0  0
 20 40  1  0  0  0  0
 20 41  1  0  0  0  0
 20 42  1  0  0  0  0
 21 23  1  0  0  0  0
 21 43  1  0  0  0  0
 22 25  1  0  0  0  0
 22 44  1  0  0  0  0
 23 25  2  0  0  0  0
 23 45  1  0  0  0  0
 24 46  1  0  0  0  0
 24 47  1  0  0  0  0
 24 48  1  0  0  0  0
 25 49  1  0  0  0  0
M  END
> <PUBCHEM_COMPOUND_CID>
363275

> <PUBCHEM_CONFORMER_RMSD>
0.8

> <PUBCHEM_CONFORMER_DIVERSEORDER>
1
3
2
4

> <PUBCHEM_MMFF94_PARTIAL_CHARGES>
28
1 -0.43
10 -0.28
11 -0.33
12 -0.29
13 0.27
14 -0.18
15 0.18
16 0.66
17 0.14
19 -0.15
2 -0.57
21 -0.15
22 -0.15
23 -0.15
24 0.28
25 -0.15
3 -0.81
32 0.15
39 0.27
4 0.03
43 0.15
44 0.15
45 0.15
49 0.15
5 0.24
6 0.41
7 0.14
9 0.27

> <PUBCHEM_EFFECTIVE_ROTOR_COUNT>
3.8

> <PUBCHEM_PHARMACOPHORE_FEATURES>
9
1 2 acceptor
1 20 hydrophobe
1 3 cation
1 4 cation
1 4 donor
5 4 11 14 18 19 rings
6 18 19 21 22 23 25 rings
7 3 5 6 11 13 14 15 rings
8 3 5 6 7 8 9 10 12 rings

> <PUBCHEM_HEAVY_ATOM_COUNT>
25

> <PUBCHEM_ATOM_DEF_STEREO_COUNT>
2

> <PUBCHEM_ATOM_UDEF_STEREO_COUNT>
1

> <PUBCHEM_BOND_DEF_STEREO_COUNT>
0

> <PUBCHEM_BOND_UDEF_STEREO_COUNT>
0

> <PUBCHEM_ISOTOPIC_ATOM_COUNT>
0

> <PUBCHEM_COMPONENT_COUNT>
1

> <PUBCHEM_CACTVS_TAUTO_COUNT>
1

> <PUBCHEM_CONFORMER_ID>
00058B0B00000001

> <PUBCHEM_MMFF94_ENERGY>
99.6372

> <PUBCHEM_FEATURE_SELFOVERLAP>
45.897

> <PUBCHEM_SHAPE_FINGERPRINT>
10165383 225 17259585641357251156
10366900 7 18335421266467071834
10863032 1 16917077689153543619
10906281 52 18270385183554077581
10930396 42 17907619910761859160
1100329 8 4865717112206132154
11315181 36 17775280569945197144
11578080 2 15481809191761797164
12011746 2 18335423473716089830
12035758 1 18200861908457813363
12236239 1 16515400768104283851
12403814 3 18409163299206880416
12714826 92 17346024581314100179
12788726 201 17988096593639477193
13140716 1 18264199210713276882
13149001 5 17916035555701987557
13224815 77 18336253562409423254
13583140 156 17989210317725037858
14142880 1 18115857671823578577
15163728 17 16771282550479111711
15840311 113 17316732651611810257
16752209 62 18199201731002749000
16945 1 18187350017846964563
17349148 13 17676205758308444918
17357779 13 18409456881469876629
17492 54 18265638566377127247
200 152 17095246912266995199
20600515 1 18339341003576121501
21285901 2 18337120037306066765
22907989 373 18201141252408428964
23402539 116 18411703201100087525
23419403 2 16736675151095663819
23493267 7 17918275376424466971
23559900 14 18060135458131661674
2748010 2 18263076609209565431
3286 77 16515694316213003682
3380486 145 18120656829588220457
6913067 236 18335717030799820148
81228 2 18199454623072805633
9709674 26 18187356679805808734

> <PUBCHEM_SHAPE_MULTIPOLES>
492.79
8.44
2.75
1.71
8.89
1.47
0.21
-1.16
-1.29
-1.33
-0.86
-1.6
0
0.98

> <PUBCHEM_SHAPE_SELFOVERLAP>
1084.167

> <PUBCHEM_SHAPE_VOLUME>
265.5

> <PUBCHEM_COORDINATE_TYPE>
2
5
10

$$$$

