31762
  -OEChem-07051213042D

 41 44  0     1  0  0  0  0  0999 V2000
    3.0332   -0.7732    0.0000 O   0  0  0  0  0  0  0  0  0  0  0  0
    2.8622    1.3938    0.0000 O   0  0  0  0  0  0  0  0  0  0  0  0
    2.0000   -0.1587    0.0000 O   0  0  0  0  0  0  0  0  0  0  0  0
    6.4088    0.3688    0.0000 N   0  0  3  0  0  0  0  0  0  0  0  0
    5.5393   -0.1332    0.0000 C   0  0  2  0  0  0  0  0  0  0  0  0
    5.7493   -1.1091    0.0000 C   0  0  0  0  0  0  0  0  0  0  0  0
    4.5196   -0.3364    0.0000 C   0  0  0  0  0  0  0  0  0  0  0  0
    4.6697    0.3688    0.0000 C   0  0  0  0  0  0  0  0  0  0  0  0
    7.1489   -0.3010    0.0000 C   0  0  0  0  0  0  0  0  0  0  0  0
    6.7421   -1.2126    0.0000 C   0  0  0  0  0  0  0  0  0  0  0  0
    6.4088    1.3729    0.0000 C   0  0  0  0  0  0  0  0  0  0  0  0
    4.0000   -1.0285    0.0000 C   0  0  2  0  0  0  0  0  0  0  0  0
    4.6697    1.3729    0.0000 C   0  0  0  0  0  0  0  0  0  0  0  0
    5.5393    1.8750    0.0000 C   0  0  0  0  0  0  0  0  0  0  0  0
    4.1130   -1.9098    0.0000 C   0  0  0  0  0  0  0  0  0  0  0  0
    5.2430   -1.7517    0.0000 C   0  0  0  0  0  0  0  0  0  0  0  0
    3.7720   -0.1681    0.0000 C   0  0  0  0  0  0  0  0  0  0  0  0
    3.7720    1.9098    0.0000 C   0  0  0  0  0  0  0  0  0  0  0  0
    2.8622    0.3479    0.0000 C   0  0  0  0  0  0  0  0  0  0  0  0
    2.3286   -1.4828    0.0000 C   0  0  0  0  0  0  0  0  0  0  0  0
    4.5713    0.2815    0.0000 H   0  0  0  0  0  0  0  0  0  0  0  0
    3.9401   -0.1158    0.0000 H   0  0  0  0  0  0  0  0  0  0  0  0
    7.6854   -0.6118    0.0000 H   0  0  0  0  0  0  0  0  0  0  0  0
    7.5143    0.1998    0.0000 H   0  0  0  0  0  0  0  0  0  0  0  0
    6.6134   -1.8191    0.0000 H   0  0  0  0  0  0  0  0  0  0  0  0
    7.3317   -1.4044    0.0000 H   0  0  0  0  0  0  0  0  0  0  0  0
    7.0194    1.2653    0.0000 H   0  0  0  0  0  0  0  0  0  0  0  0
    6.6209    1.9555    0.0000 H   0  0  0  0  0  0  0  0  0  0  0  0
    3.7966   -0.4429    0.0000 H   0  0  0  0  0  0  0  0  0  0  0  0
    5.9378    2.3499    0.0000 H   0  0  0  0  0  0  0  0  0  0  0  0
    5.1407    2.3499    0.0000 H   0  0  0  0  0  0  0  0  0  0  0  0
    3.4984   -1.9910    0.0000 H   0  0  0  0  0  0  0  0  0  0  0  0
    4.1966   -2.5242    0.0000 H   0  0  0  0  0  0  0  0  0  0  0  0
    5.5517   -2.2894    0.0000 H   0  0  0  0  0  0  0  0  0  0  0  0
    3.3784   -0.6471    0.0000 H   0  0  0  0  0  0  0  0  0  0  0  0
    4.1766   -0.6379    0.0000 H   0  0  0  0  0  0  0  0  0  0  0  0
    4.1766    2.3796    0.0000 H   0  0  0  0  0  0  0  0  0  0  0  0
    3.3784    2.3889    0.0000 H   0  0  0  0  0  0  0  0  0  0  0  0
    1.8886   -1.0460    0.0000 H   0  0  0  0  0  0  0  0  0  0  0  0
    1.8918   -1.9228    0.0000 H   0  0  0  0  0  0  0  0  0  0  0  0
    2.7686   -1.9196    0.0000 H   0  0  0  0  0  0  0  0  0  0  0  0
 12  1  1  6  0  0  0
  1 20  1  0  0  0  0
  2 18  1  0  0  0  0
  2 19  1  0  0  0  0
  3 19  2  0  0  0  0
  4  5  1  0  0  0  0
  4  9  1  0  0  0  0
  4 11  1  0  0  0  0
  5  6  1  0  0  0  0
  5  7  1  6  0  0  0
  5  8  1  0  0  0  0
  6 10  1  0  0  0  0
  6 16  2  0  0  0  0
  7 12  1  0  0  0  0
  7 21  1  0  0  0  0
  7 22  1  0  0  0  0
  8 13  2  0  0  0  0
  8 17  1  0  0  0  0
  9 10  1  0  0  0  0
  9 23  1  0  0  0  0
  9 24  1  0  0  0  0
 10 25  1  0  0  0  0
 10 26  1  0  0  0  0
 11 14  1  0  0  0  0
 11 27  1  0  0  0  0
 11 28  1  0  0  0  0
 12 15  1  0  0  0  0
 12 29  1  0  0  0  0
 13 14  1  0  0  0  0
 13 18  1  0  0  0  0
 14 30  1  0  0  0  0
 14 31  1  0  0  0  0
 15 16  1  0  0  0  0
 15 32  1  0  0  0  0
 15 33  1  0  0  0  0
 16 34  1  0  0  0  0
 17 19  1  0  0  0  0
 17 35  1  0  0  0  0
 17 36  1  0  0  0  0
 18 37  1  0  0  0  0
 18 38  1  0  0  0  0
 20 39  1  0  0  0  0
 20 40  1  0  0  0  0
 20 41  1  0  0  0  0
M  END
> <PUBCHEM_COMPOUND_CID>
31762

> <PUBCHEM_COMPOUND_CANONICALIZED>
1

> <PUBCHEM_CACTVS_COMPLEXITY>
522

> <PUBCHEM_CACTVS_HBOND_ACCEPTOR>
4

> <PUBCHEM_CACTVS_HBOND_DONOR>
0

> <PUBCHEM_CACTVS_ROTATABLE_BOND>
1

> <PUBCHEM_CACTVS_SUBSKEYS>
AAADceB6MAAAAAAAAAAAAAAAAAAAAWAAAAAgQIAAAAAAAECwAAAAHgAAAAAADJzhgAYCCAMABACIAiDSCACAAAAgAAAACAEIAAgABBIAoQAGEAAGwACIIAO8yKCOAAAAAAAAAAAAAAAAAAAAAAAAAAAAAA==

> <PUBCHEM_IUPAC_INCHI>
InChI=1S/C16H21NO3/c1-19-13-3-2-12-5-7-17-6-4-11-10-20-15(18)8-14(11)16(12,17)9-13/h2,13H,3-10H2,1H3/t13-,16-/m0/s1

> <PUBCHEM_IUPAC_INCHIKEY>
ALSKYCOJJPXPFS-BBRMVZONSA-N

> <PUBCHEM_XLOGP3_AA>
0

> <PUBCHEM_EXACT_MASS>
275.152144

> <PUBCHEM_MOLECULAR_FORMULA>
C16H21NO3

> <PUBCHEM_MOLECULAR_WEIGHT>
275.34284

> <PUBCHEM_OPENEYE_CAN_SMILES>
COC1CC=C2CCN3C2(C1)C4=C(CC3)COC(=O)C4

> <PUBCHEM_OPENEYE_ISO_SMILES>
CO[C@H]1CC=C2CCN3[C@]2(C1)C4=C(CC3)COC(=O)C4

> <PUBCHEM_CACTVS_TPSA>
38.8

> <PUBCHEM_MONOISOTOPIC_WEIGHT>
275.152144

> <PUBCHEM_TOTAL_CHARGE>
0

> <PUBCHEM_HEAVY_ATOM_COUNT>
20

> <PUBCHEM_ATOM_DEF_STEREO_COUNT>
2

> <PUBCHEM_ATOM_UDEF_STEREO_COUNT>
0

> <PUBCHEM_BOND_DEF_STEREO_COUNT>
0

> <PUBCHEM_BOND_UDEF_STEREO_COUNT>
0

> <PUBCHEM_ISOTOPIC_ATOM_COUNT>
0

> <PUBCHEM_COMPONENT_COUNT>
1

> <PUBCHEM_CACTVS_TAUTO_COUNT>
2

> <PUBCHEM_COORDINATE_TYPE>
1
5
255

> <PUBCHEM_BONDANNOTATIONS>
12  1  6
5  7  6

$$$$

