158594
  -OEChem-07051212592D

 30 33  0     0  0  0  0  0  0999 V2000
    5.5321   -0.5208    0.0000 O   0  0  0  0  0  0  0  0  0  0  0  0
    3.6971    3.4990    0.0000 O   0  0  0  0  0  0  0  0  0  0  0  0
    3.6971   -3.4990    0.0000 O   0  0  0  0  0  0  0  0  0  0  0  0
    3.7320    0.5000    0.0000 C   0  0  0  0  0  0  0  0  0  0  0  0
    3.7320   -0.5000    0.0000 C   0  0  0  0  0  0  0  0  0  0  0  0
    2.8660    1.0000    0.0000 C   0  0  0  0  0  0  0  0  0  0  0  0
    2.0000    0.5000    0.0000 C   0  0  0  0  0  0  0  0  0  0  0  0
    2.0000   -0.5000    0.0000 C   0  0  0  0  0  0  0  0  0  0  0  0
    2.8660   -1.0000    0.0000 C   0  0  0  0  0  0  0  0  0  0  0  0
    4.6260    1.0347    0.0000 C   0  0  0  0  0  0  0  0  0  0  0  0
    4.6260   -1.0347    0.0000 C   0  0  0  0  0  0  0  0  0  0  0  0
    5.5321    0.5208    0.0000 C   0  0  0  0  0  0  0  0  0  0  0  0
    2.8648    1.9917    0.0000 C   0  0  0  0  0  0  0  0  0  0  0  0
    2.8648   -1.9917    0.0000 C   0  0  0  0  0  0  0  0  0  0  0  0
    4.5882    2.0256    0.0000 C   0  0  0  0  0  0  0  0  0  0  0  0
    4.5882   -2.0256    0.0000 C   0  0  0  0  0  0  0  0  0  0  0  0
    3.7168    2.4991    0.0000 C   0  0  0  0  0  0  0  0  0  0  0  0
    3.7168   -2.4991    0.0000 C   0  0  0  0  0  0  0  0  0  0  0  0
    1.7880    1.0826    0.0000 H   0  0  0  0  0  0  0  0  0  0  0  0
    1.3894    0.3923    0.0000 H   0  0  0  0  0  0  0  0  0  0  0  0
    1.3894   -0.3923    0.0000 H   0  0  0  0  0  0  0  0  0  0  0  0
    1.7880   -1.0826    0.0000 H   0  0  0  0  0  0  0  0  0  0  0  0
    6.1429    0.4147    0.0000 H   0  0  0  0  0  0  0  0  0  0  0  0
    5.7411    1.1045    0.0000 H   0  0  0  0  0  0  0  0  0  0  0  0
    2.3256    2.2977    0.0000 H   0  0  0  0  0  0  0  0  0  0  0  0
    2.3256   -2.2977    0.0000 H   0  0  0  0  0  0  0  0  0  0  0  0
    5.1149    2.3527    0.0000 H   0  0  0  0  0  0  0  0  0  0  0  0
    5.1149   -2.3527    0.0000 H   0  0  0  0  0  0  0  0  0  0  0  0
    4.2279    3.8195    0.0000 H   0  0  0  0  0  0  0  0  0  0  0  0
    4.2279   -3.8195    0.0000 H   0  0  0  0  0  0  0  0  0  0  0  0
  1 11  1  0  0  0  0
  1 12  1  0  0  0  0
  2 17  1  0  0  0  0
  2 29  1  0  0  0  0
  3 18  1  0  0  0  0
  3 30  1  0  0  0  0
  4  5  1  0  0  0  0
  4  6  2  0  0  0  0
  4 10  1  0  0  0  0
  5  9  2  0  0  0  0
  5 11  1  0  0  0  0
  6  7  1  0  0  0  0
  6 13  1  0  0  0  0
  7  8  1  0  0  0  0
  7 19  1  0  0  0  0
  7 20  1  0  0  0  0
  8  9  1  0  0  0  0
  8 21  1  0  0  0  0
  8 22  1  0  0  0  0
  9 14  1  0  0  0  0
 10 12  1  0  0  0  0
 10 15  2  0  0  0  0
 11 16  2  0  0  0  0
 12 23  1  0  0  0  0
 12 24  1  0  0  0  0
 13 17  2  0  0  0  0
 13 25  1  0  0  0  0
 14 18  2  0  0  0  0
 14 26  1  0  0  0  0
 15 17  1  0  0  0  0
 15 27  1  0  0  0  0
 16 18  1  0  0  0  0
 16 28  1  0  0  0  0
M  END
> <PUBCHEM_COMPOUND_CID>
158594

> <PUBCHEM_COMPOUND_CANONICALIZED>
1

> <PUBCHEM_CACTVS_COMPLEXITY>
332

> <PUBCHEM_CACTVS_HBOND_ACCEPTOR>
3

> <PUBCHEM_CACTVS_HBOND_DONOR>
2

> <PUBCHEM_CACTVS_ROTATABLE_BOND>
0

> <PUBCHEM_CACTVS_SUBSKEYS>
AAADccBwMAAAAAAAAAAAAAAAAAAAAAAAAAA0YMEAAAAAAADRQAAAGgAACAAADASgmAIwBoAABgCAAiBCAAACCAAgIAAAiAAGCIgMJyKGMRqCeCClwBUIuAfA4PwOoAADCAAYAADAAAYQADAAAAAAAAAAAA==

> <PUBCHEM_IUPAC_INCHI>
InChI=1S/C15H12O3/c16-11-3-8-1-2-9-4-12(17)6-13-15(9)14(8)10(5-11)7-18-13/h3-6,16-17H,1-2,7H2

> <PUBCHEM_IUPAC_INCHIKEY>
QMOLHJKSZMURCV-UHFFFAOYSA-N

> <PUBCHEM_XLOGP3_AA>
2.7

> <PUBCHEM_EXACT_MASS>
240.078644

> <PUBCHEM_MOLECULAR_FORMULA>
C15H12O3

> <PUBCHEM_MOLECULAR_WEIGHT>
240.25398

> <PUBCHEM_OPENEYE_CAN_SMILES>
C1CC2=CC(=CC3=C2C4=C(CO3)C=C(C=C41)O)O

> <PUBCHEM_OPENEYE_ISO_SMILES>
C1CC2=CC(=CC3=C2C4=C(CO3)C=C(C=C41)O)O

> <PUBCHEM_CACTVS_TPSA>
49.7

> <PUBCHEM_MONOISOTOPIC_WEIGHT>
240.078644

> <PUBCHEM_TOTAL_CHARGE>
0

> <PUBCHEM_HEAVY_ATOM_COUNT>
18

> <PUBCHEM_ATOM_DEF_STEREO_COUNT>
0

> <PUBCHEM_ATOM_UDEF_STEREO_COUNT>
0

> <PUBCHEM_BOND_DEF_STEREO_COUNT>
0

> <PUBCHEM_BOND_UDEF_STEREO_COUNT>
0

> <PUBCHEM_ISOTOPIC_ATOM_COUNT>
0

> <PUBCHEM_COMPONENT_COUNT>
1

> <PUBCHEM_CACTVS_TAUTO_COUNT>
159

> <PUBCHEM_COORDINATE_TYPE>
1
5
255

> <PUBCHEM_BONDANNOTATIONS>
10  15  8
11  16  8
13  17  8
14  18  8
15  17  8
16  18  8
4  10  8
4  6  8
5  11  8
5  9  8
6  13  8
9  14  8

$$$$

