442366
  -OEChem-07051212572D

 85 91  0     1  0  0  0  0  0999 V2000
    7.5289   -1.9269    0.0000 O   0  0  0  0  0  0  0  0  0  0  0  0
    9.5481   -1.5250    0.0000 O   0  0  0  0  0  0  0  0  0  0  0  0
    5.9765   -0.1615    0.0000 O   0  0  0  0  0  0  0  0  0  0  0  0
    7.8274   -1.4878    0.0000 O   0  0  0  0  0  0  0  0  0  0  0  0
    2.7289    1.7048    0.0000 O   0  0  0  0  0  0  0  0  0  0  0  0
    2.5035    3.7376    0.0000 O   0  0  0  0  0  0  0  0  0  0  0  0
    4.1925   -4.2099    0.0000 N   0  0  3  0  0  0  0  0  0  0  0  0
    7.6574    2.7495    0.0000 N   0  0  3  0  0  0  0  0  0  0  0  0
    4.2005   -3.1683    0.0000 C   0  0  2  0  0  0  0  0  0  0  0  0
    7.2080    1.8038    0.0000 C   0  0  2  0  0  0  0  0  0  0  0  0
    5.1105   -2.6615    0.0000 C   0  0  0  0  0  0  0  0  0  0  0  0
    7.7657    0.9674    0.0000 C   0  0  0  0  0  0  0  0  0  0  0  0
    5.9765   -3.1615    0.0000 C   0  0  0  0  0  0  0  0  0  0  0  0
    5.0946   -4.7307    0.0000 C   0  0  0  0  0  0  0  0  0  0  0  0
    5.9926   -4.2030    0.0000 C   0  0  0  0  0  0  0  0  0  0  0  0
    8.7018    2.8251    0.0000 C   0  0  0  0  0  0  0  0  0  0  0  0
    8.8116    1.0189    0.0000 C   0  0  0  0  0  0  0  0  0  0  0  0
    9.2828    1.9540    0.0000 C   0  0  0  0  0  0  0  0  0  0  0  0
    3.2911   -2.7399    0.0000 C   0  0  0  0  0  0  0  0  0  0  0  0
    6.4064    2.4103    0.0000 C   0  0  0  0  0  0  0  0  0  0  0  0
    6.8426   -2.6615    0.0000 C   0  0  0  0  0  0  0  0  0  0  0  0
    8.0176   -0.0058    0.0000 C   0  0  0  0  0  0  0  0  0  0  0  0
    5.1105   -1.6615    0.0000 C   0  0  0  0  0  0  0  0  0  0  0  0
    7.9356   -1.0077    0.0000 C   0  0  0  0  0  0  0  0  0  0  0  0
    3.3246   -4.7066    0.0000 C   0  0  0  0  0  0  0  0  0  0  0  0
    9.2944    0.1493    0.0000 C   0  0  0  0  0  0  0  0  0  0  0  0
    7.0930    3.5750    0.0000 C   0  0  0  0  0  0  0  0  0  0  0  0
    2.5731   -2.0364    0.0000 C   0  0  0  0  0  0  0  0  0  0  0  0
    5.4499    2.7197    0.0000 C   0  0  0  0  0  0  0  0  0  0  0  0
    6.8426   -1.6615    0.0000 C   0  0  0  0  0  0  0  0  0  0  0  0
    8.8998   -0.7636    0.0000 C   0  0  0  0  0  0  0  0  0  0  0  0
    5.9765   -1.1615    0.0000 C   0  0  0  0  0  0  0  0  0  0  0  0
    4.4449    2.6975    0.0000 C   0  0  0  0  0  0  0  0  0  0  0  0
    2.7612   -1.0534    0.0000 C   0  0  0  0  0  0  0  0  0  0  0  0
    2.1262   -1.1360    0.0000 C   0  0  0  0  0  0  0  0  0  0  0  0
    5.1565    3.6751    0.0000 C   0  0  0  0  0  0  0  0  0  0  0  0
    3.5030    2.3462    0.0000 C   0  0  0  0  0  0  0  0  0  0  0  0
    2.2087    0.8447    0.0000 C   0  0  0  0  0  0  0  0  0  0  0  0
    2.6356   -0.0605    0.0000 C   0  0  0  0  0  0  0  0  0  0  0  0
    2.0000   -0.1387    0.0000 C   0  0  0  0  0  0  0  0  0  0  0  0
    4.2011    3.9684    0.0000 C   0  0  0  0  0  0  0  0  0  0  0  0
    3.4220    3.3423    0.0000 C   0  0  0  0  0  0  0  0  0  0  0  0
   10.5316   -1.3442    0.0000 C   0  0  0  0  0  0  0  0  0  0  0  0
    5.1105    0.3385    0.0000 C   0  0  0  0  0  0  0  0  0  0  0  0
    2.3865    4.7307    0.0000 C   0  0  0  0  0  0  0  0  0  0  0  0
    3.4810   -3.6208    0.0000 H   0  0  0  0  0  0  0  0  0  0  0  0
    6.5893    1.2209    0.0000 H   0  0  0  0  0  0  0  0  0  0  0  0
    4.6973   -5.2067    0.0000 H   0  0  0  0  0  0  0  0  0  0  0  0
    5.4955   -5.2036    0.0000 H   0  0  0  0  0  0  0  0  0  0  0  0
    6.2106   -4.7834    0.0000 H   0  0  0  0  0  0  0  0  0  0  0  0
    6.6018   -4.0875    0.0000 H   0  0  0  0  0  0  0  0  0  0  0  0
    9.2689    3.0758    0.0000 H   0  0  0  0  0  0  0  0  0  0  0  0
    8.5519    3.4267    0.0000 H   0  0  0  0  0  0  0  0  0  0  0  0
    9.7805    1.5843    0.0000 H   0  0  0  0  0  0  0  0  0  0  0  0
    9.7321    2.3812    0.0000 H   0  0  0  0  0  0  0  0  0  0  0  0
    2.7162   -2.9720    0.0000 H   0  0  0  0  0  0  0  0  0  0  0  0
    3.6452   -2.2309    0.0000 H   0  0  0  0  0  0  0  0  0  0  0  0
    6.9471    2.7136    0.0000 H   0  0  0  0  0  0  0  0  0  0  0  0
    6.1199    1.8604    0.0000 H   0  0  0  0  0  0  0  0  0  0  0  0
    8.6353    0.0474    0.0000 H   0  0  0  0  0  0  0  0  0  0  0  0
    4.5736   -1.3515    0.0000 H   0  0  0  0  0  0  0  0  0  0  0  0
    3.0166   -4.1684    0.0000 H   0  0  0  0  0  0  0  0  0  0  0  0
    2.7864   -5.0145    0.0000 H   0  0  0  0  0  0  0  0  0  0  0  0
    3.6325   -5.2447    0.0000 H   0  0  0  0  0  0  0  0  0  0  0  0
    9.9137    0.1800    0.0000 H   0  0  0  0  0  0  0  0  0  0  0  0
    7.6048    3.9249    0.0000 H   0  0  0  0  0  0  0  0  0  0  0  0
    6.7431    4.0868    0.0000 H   0  0  0  0  0  0  0  0  0  0  0  0
    6.5812    3.2251    0.0000 H   0  0  0  0  0  0  0  0  0  0  0  0
    4.3281    3.3064    0.0000 H   0  0  0  0  0  0  0  0  0  0  0  0
    3.3809   -1.0730    0.0000 H   0  0  0  0  0  0  0  0  0  0  0  0
    1.5326   -1.3152    0.0000 H   0  0  0  0  0  0  0  0  0  0  0  0
    5.5949    4.1135    0.0000 H   0  0  0  0  0  0  0  0  0  0  0  0
    3.2309    0.1128    0.0000 H   0  0  0  0  0  0  0  0  0  0  0  0
    1.3805   -0.1129    0.0000 H   0  0  0  0  0  0  0  0  0  0  0  0
    4.0843    4.5773    0.0000 H   0  0  0  0  0  0  0  0  0  0  0  0
    8.2259   -1.9628    0.0000 H   0  0  0  0  0  0  0  0  0  0  0  0
   10.6437   -1.9540    0.0000 H   0  0  0  0  0  0  0  0  0  0  0  0
   11.1414   -1.2322    0.0000 H   0  0  0  0  0  0  0  0  0  0  0  0
   10.4196   -0.7345    0.0000 H   0  0  0  0  0  0  0  0  0  0  0  0
    5.4205    0.8755    0.0000 H   0  0  0  0  0  0  0  0  0  0  0  0
    4.5736    0.6485    0.0000 H   0  0  0  0  0  0  0  0  0  0  0  0
    4.8005   -0.1984    0.0000 H   0  0  0  0  0  0  0  0  0  0  0  0
    3.0022    4.8032    0.0000 H   0  0  0  0  0  0  0  0  0  0  0  0
    2.3140    5.3465    0.0000 H   0  0  0  0  0  0  0  0  0  0  0  0
    1.7708    4.6582    0.0000 H   0  0  0  0  0  0  0  0  0  0  0  0
  1 21  1  0  0  0  0
  1 24  1  0  0  0  0
  2 31  1  0  0  0  0
  2 43  1  0  0  0  0
  3 32  1  0  0  0  0
  3 44  1  0  0  0  0
  4 30  1  0  0  0  0
  4 76  1  0  0  0  0
  5 37  1  0  0  0  0
  5 38  1  0  0  0  0
  6 42  1  0  0  0  0
  6 45  1  0  0  0  0
  7  9  1  0  0  0  0
  7 14  1  0  0  0  0
  7 25  1  0  0  0  0
  8 10  1  0  0  0  0
  8 16  1  0  0  0  0
  8 27  1  0  0  0  0
  9 11  1  0  0  0  0
  9 19  1  0  0  0  0
  9 46  1  6  0  0  0
 10 12  1  0  0  0  0
 10 20  1  0  0  0  0
 10 47  1  1  0  0  0
 11 13  1  0  0  0  0
 11 23  2  0  0  0  0
 12 17  1  0  0  0  0
 12 22  2  0  0  0  0
 13 15  1  0  0  0  0
 13 21  2  0  0  0  0
 14 15  1  0  0  0  0
 14 48  1  0  0  0  0
 14 49  1  0  0  0  0
 15 50  1  0  0  0  0
 15 51  1  0  0  0  0
 16 18  1  0  0  0  0
 16 52  1  0  0  0  0
 16 53  1  0  0  0  0
 17 18  1  0  0  0  0
 17 26  2  0  0  0  0
 18 54  1  0  0  0  0
 18 55  1  0  0  0  0
 19 28  1  0  0  0  0
 19 56  1  0  0  0  0
 19 57  1  0  0  0  0
 20 29  1  0  0  0  0
 20 58  1  0  0  0  0
 20 59  1  0  0  0  0
 21 30  1  0  0  0  0
 22 24  1  0  0  0  0
 22 60  1  0  0  0  0
 23 32  1  0  0  0  0
 23 61  1  0  0  0  0
 24 31  2  0  0  0  0
 25 62  1  0  0  0  0
 25 63  1  0  0  0  0
 25 64  1  0  0  0  0
 26 31  1  0  0  0  0
 26 65  1  0  0  0  0
 27 66  1  0  0  0  0
 27 67  1  0  0  0  0
 27 68  1  0  0  0  0
 28 34  2  0  0  0  0
 28 35  1  0  0  0  0
 29 33  2  0  0  0  0
 29 36  1  0  0  0  0
 30 32  2  0  0  0  0
 33 37  1  0  0  0  0
 33 69  1  0  0  0  0
 34 39  1  0  0  0  0
 34 70  1  0  0  0  0
 35 40  2  0  0  0  0
 35 71  1  0  0  0  0
 36 41  2  0  0  0  0
 36 72  1  0  0  0  0
 37 42  2  0  0  0  0
 38 39  2  0  0  0  0
 38 40  1  0  0  0  0
 39 73  1  0  0  0  0
 40 74  1  0  0  0  0
 41 42  1  0  0  0  0
 41 75  1  0  0  0  0
 43 77  1  0  0  0  0
 43 78  1  0  0  0  0
 43 79  1  0  0  0  0
 44 80  1  0  0  0  0
 44 81  1  0  0  0  0
 44 82  1  0  0  0  0
 45 83  1  0  0  0  0
 45 84  1  0  0  0  0
 45 85  1  0  0  0  0
M  END
> <PUBCHEM_COMPOUND_CID>
442366

> <PUBCHEM_COMPOUND_CANONICALIZED>
1

> <PUBCHEM_CACTVS_COMPLEXITY>
963

> <PUBCHEM_CACTVS_HBOND_ACCEPTOR>
8

> <PUBCHEM_CACTVS_HBOND_DONOR>
1

> <PUBCHEM_CACTVS_ROTATABLE_BOND>
3

> <PUBCHEM_CACTVS_SUBSKEYS>
AAADcfB/OAAAAAAAAAAAAAAAAAAAAAAAAAA8eMGCAAAAAACxVAAAHgAACAAADCzBmAYyBoMABgCAAiBCAACCCAAgIAAIiAAOjIgNJyKGsRuGeCvlwBWLuAew8P8OoAABCAAYQABAAAIQADCAAAAAAAAAAA==

> <PUBCHEM_IUPAC_INCHI>
InChI=1S/C37H40N2O6/c1-38-14-12-24-19-32(42-4)34-20-27(24)29(38)17-23-8-11-31(41-3)33(18-23)44-25-9-6-22(7-10-25)16-30-28-21-35(43-5)36(40)37(45-34)26(28)13-15-39(30)2/h6-11,18-21,29-30,40H,12-17H2,1-5H3/t29-,30-/m0/s1

> <PUBCHEM_IUPAC_INCHIKEY>
CASHVZNATRNXDE-KYJUHHDHSA-N

> <PUBCHEM_XLOGP3_AA>
6.3

> <PUBCHEM_EXACT_MASS>
608.288637

> <PUBCHEM_MOLECULAR_FORMULA>
C37H40N2O6

> <PUBCHEM_MOLECULAR_WEIGHT>
608.7233

> <PUBCHEM_OPENEYE_CAN_SMILES>
CN1CCC2=CC(=C3C=C2C1CC4=CC(=C(C=C4)OC)OC5=CC=C(CC6C7=CC(=C(C(=C7CCN6C)O3)O)OC)C=C5)OC

> <PUBCHEM_OPENEYE_ISO_SMILES>
CN1CCC2=CC(=C3C=C2[C@@H]1CC4=CC(=C(C=C4)OC)OC5=CC=C(C[C@H]6C7=CC(=C(C(=C7CCN6C)O3)O)OC)C=C5)OC

> <PUBCHEM_CACTVS_TPSA>
72.9

> <PUBCHEM_MONOISOTOPIC_WEIGHT>
608.288637

> <PUBCHEM_TOTAL_CHARGE>
0

> <PUBCHEM_HEAVY_ATOM_COUNT>
45

> <PUBCHEM_ATOM_DEF_STEREO_COUNT>
2

> <PUBCHEM_ATOM_UDEF_STEREO_COUNT>
0

> <PUBCHEM_BOND_DEF_STEREO_COUNT>
0

> <PUBCHEM_BOND_UDEF_STEREO_COUNT>
0

> <PUBCHEM_ISOTOPIC_ATOM_COUNT>
0

> <PUBCHEM_COMPONENT_COUNT>
1

> <PUBCHEM_CACTVS_TAUTO_COUNT>
1

> <PUBCHEM_COORDINATE_TYPE>
1
5
255

> <PUBCHEM_BONDANNOTATIONS>
10  47  5
11  13  8
11  23  8
12  17  8
12  22  8
13  21  8
17  26  8
21  30  8
22  24  8
23  32  8
24  31  8
26  31  8
28  34  8
28  35  8
29  33  8
29  36  8
30  32  8
33  37  8
34  39  8
35  40  8
36  41  8
37  42  8
38  39  8
38  40  8
41  42  8
9  46  6

$$$$

