586287
  -OEChem-06241222463D

 32 34  0     0  0  0  0  0  0999 V2000
    5.4185    0.2471    1.4056 S   0  0  0  0  0  0  0  0  0  0  0  0
   -0.3797   -0.6346   -0.8438 O   0  0  0  0  0  0  0  0  0  0  0  0
    0.1918   -0.6200    1.4246 O   0  0  0  0  0  0  0  0  0  0  0  0
   -2.5594    0.2298   -0.2634 C   0  0  0  0  0  0  0  0  0  0  0  0
   -3.9006   -0.0372    0.1008 C   0  0  0  0  0  0  0  0  0  0  0  0
   -1.6826   -0.8435   -0.4905 C   0  0  0  0  0  0  0  0  0  0  0  0
   -4.3254   -1.3699    0.2273 C   0  0  0  0  0  0  0  0  0  0  0  0
   -2.1346    1.5624   -0.3903 C   0  0  0  0  0  0  0  0  0  0  0  0
   -4.7774    1.0361    0.3279 C   0  0  0  0  0  0  0  0  0  0  0  0
   -2.1215   -2.1614   -0.3600 C   0  0  0  0  0  0  0  0  0  0  0  0
   -3.4404   -2.4239   -0.0018 C   0  0  0  0  0  0  0  0  0  0  0  0
   -3.0192    2.6165   -0.1608 C   0  0  0  0  0  0  0  0  0  0  0  0
   -4.3379    2.3539    0.1977 C   0  0  0  0  0  0  0  0  0  0  0  0
    0.4933   -0.5366    0.2441 C   0  0  0  0  0  0  0  0  0  0  0  0
    4.2808    0.0650    0.1790 C   0  0  0  0  0  0  0  0  0  0  0  0
    1.8609   -0.3125   -0.2806 C   0  0  0  0  0  0  0  0  0  0  0  0
    2.8819   -0.1718    0.5766 C   0  0  0  0  0  0  0  0  0  0  0  0
    4.7495    0.1523   -1.0731 C   0  0  0  0  0  0  0  0  0  0  0  0
    6.1546    0.3874   -1.0517 C   0  0  0  0  0  0  0  0  0  0  0  0
    6.6474    0.4609    0.2326 C   0  0  0  0  0  0  0  0  0  0  0  0
   -5.3518   -1.5988    0.5063 H   0  0  0  0  0  0  0  0  0  0  0  0
   -1.1129    1.8058   -0.6728 H   0  0  0  0  0  0  0  0  0  0  0  0
   -5.8127    0.8544    0.6088 H   0  0  0  0  0  0  0  0  0  0  0  0
   -1.4396   -2.9888   -0.5374 H   0  0  0  0  0  0  0  0  0  0  0  0
   -3.7817   -3.4500    0.0995 H   0  0  0  0  0  0  0  0  0  0  0  0
   -2.6783    3.6427   -0.2631 H   0  0  0  0  0  0  0  0  0  0  0  0
   -5.0261    3.1749    0.3760 H   0  0  0  0  0  0  0  0  0  0  0  0
    2.6857   -0.2279    1.6460 H   0  0  0  0  0  0  0  0  0  0  0  0
    1.9828   -0.2647   -1.3566 H   0  0  0  0  0  0  0  0  0  0  0  0
    4.1749    0.0619   -1.9856 H   0  0  0  0  0  0  0  0  0  0  0  0
    6.7727    0.4970   -1.9333 H   0  0  0  0  0  0  0  0  0  0  0  0
    7.6704    0.6300    0.5380 H   0  0  0  0  0  0  0  0  0  0  0  0
  1 15  1  0  0  0  0
  1 20  1  0  0  0  0
  2  6  1  0  0  0  0
  2 14  1  0  0  0  0
  3 14  2  0  0  0  0
  4  5  1  0  0  0  0
  4  6  1  0  0  0  0
  4  8  2  0  0  0  0
  5  7  1  0  0  0  0
  5  9  2  0  0  0  0
  6 10  2  0  0  0  0
  7 11  2  0  0  0  0
  7 21  1  0  0  0  0
  8 12  1  0  0  0  0
  8 22  1  0  0  0  0
  9 13  1  0  0  0  0
  9 23  1  0  0  0  0
 10 11  1  0  0  0  0
 10 24  1  0  0  0  0
 11 25  1  0  0  0  0
 12 13  2  0  0  0  0
 12 26  1  0  0  0  0
 13 27  1  0  0  0  0
 14 16  1  0  0  0  0
 15 17  1  0  0  0  0
 15 18  2  0  0  0  0
 16 17  2  0  0  0  0
 16 29  1  0  0  0  0
 17 28  1  0  0  0  0
 18 19  1  0  0  0  0
 18 30  1  0  0  0  0
 19 20  2  0  0  0  0
 19 31  1  0  0  0  0
 20 32  1  0  0  0  0
M  END
> <PUBCHEM_COMPOUND_CID>
586287

> <PUBCHEM_CONFORMER_RMSD>
0.6

> <PUBCHEM_CONFORMER_DIVERSEORDER>
2
152
77
124
106
74
32
144
113
157
33
56
105
84
34
88
107
49
6
148
128
62
81
1
115
121
108
4
102
78
114
122
35
46
155
137
75
39
117
101
18
38
126
127
86
66
131
50
11
150
98
125
68
99
3
80
116
93
149
95
136
61
17
135
59
130
29
104
96
52
159
63
82
60
92
31
58
64
146
133
40
94
89
47
120
112
20
87
91
139
16
85
15
76
145
73
83
70
154
14
119
42
111
8
123
23
53
37
9
109
141
151
143
36
90
44
158
7
153
19
138
79
28
54
118
12
129
71
27
100
69
147
134
30
156
10
65
140
5
48
22
103
110
132
97
24
67
43
21
25
72
13
45
41
55
57
142
26
51

> <PUBCHEM_MMFF94_PARTIAL_CHARGES>
30
1 -0.08
10 -0.15
11 -0.15
12 -0.15
13 -0.15
14 0.71
15 -0.01
16 -0.14
17 -0.11
18 -0.15
19 -0.15
2 -0.23
20 -0.11
21 0.15
22 0.15
23 0.15
24 0.15
25 0.15
26 0.15
27 0.15
28 0.15
29 0.15
3 -0.57
30 0.15
31 0.15
32 0.15
6 0.08
7 -0.15
8 -0.15
9 -0.15

> <PUBCHEM_EFFECTIVE_ROTOR_COUNT>
4

> <PUBCHEM_PHARMACOPHORE_FEATURES>
4
1 3 acceptor
5 1 15 18 19 20 rings
6 4 5 6 7 10 11 rings
6 4 5 8 9 12 13 rings

> <PUBCHEM_HEAVY_ATOM_COUNT>
20

> <PUBCHEM_ATOM_DEF_STEREO_COUNT>
0

> <PUBCHEM_ATOM_UDEF_STEREO_COUNT>
0

> <PUBCHEM_BOND_DEF_STEREO_COUNT>
0

> <PUBCHEM_BOND_UDEF_STEREO_COUNT>
1

> <PUBCHEM_ISOTOPIC_ATOM_COUNT>
0

> <PUBCHEM_COMPONENT_COUNT>
1

> <PUBCHEM_CACTVS_TAUTO_COUNT>
1

> <PUBCHEM_CONFORMER_ID>
0008F22F00000002

> <PUBCHEM_MMFF94_ENERGY>
60.5712

> <PUBCHEM_FEATURE_SELFOVERLAP>
20.324

> <PUBCHEM_SHAPE_FINGERPRINT>
10411042 1 18050005485875834575
10595046 47 18271526399667374558
10680689 15 18040438758890846438
10730089 173 18411416233055767308
10912923 1 17846785087901015546
11056379 131 18410009892958957511
11273773 42 17559092308769597988
11315181 36 18060139795515776686
12107183 9 17767415943206772242
12236239 1 17775568636863315782
12390115 104 18115860970669730481
12403259 415 17894634717213400552
12596602 18 16988840583710029720
12616971 3 17275384305188227348
13073987 5 18341900684432043474
13403585 85 18335707104982888112
13631057 29 17702944713065592875
13897977 58 18342737425106364021
14251752 14 18336263535676957906
14341114 328 17988924491888414264
14573314 32 18186798102191989134
14849402 71 17916864592287343316
14933364 13 18335699426066639868
15183329 4 17749382728714448198
15778101 99 18337105760703126161
16079462 125 17458356221531599648
16988056 13 15461580831932436684
17844677 252 18335980866398775776
18915476 22 17023453274208505111
18927931 339 18337669720396030903
19377110 9 17846788403441604258
19489759 90 18408886222250430466
20281389 69 18410858780665727312
20645477 56 18335420187944801773
20645477 70 16370998638270513158
21033648 29 17531541918483376256
21033650 10 18198317715839659540
21065198 48 18201727279316044314
21267235 1 18340762629646569891
22061861 79 16950276330663490204
2297311 6 18335413535051204783
23081809 10 17917994962985225122
23175994 123 16877660141215039241
23198884 109 17240480342671151817
23402539 116 18272092669050299598
23536379 177 18411700994019900690
23557571 272 18260820497448850564
23559900 14 18261399909827560928
34797466 226 17968366850386336524
3545911 37 18261108595307270908
4073 2 18201714034407348706
4214541 1 18409730660023168780
441001 317 18408605872301956704
5104073 3 18339923826274799682
5283173 99 18261110790278561952
542803 24 18060700581195960374
6327066 14 18126853913884235365
7808743 9 18339644559074919273

> <PUBCHEM_SHAPE_MULTIPOLES>
403.7
15.13
2.17
1.02
22.79
0.34
0.12
3.71
0.38
-4.73
-0.09
1.25
-0.01
-0.11

> <PUBCHEM_SHAPE_SELFOVERLAP>
876.196

> <PUBCHEM_SHAPE_VOLUME>
220.5

> <PUBCHEM_COORDINATE_TYPE>
2
5
10

$$$$

