7142
  -OEChem-06261201493D

 48 52  0     0  0  0  0  0  0999 V2000
   -2.8048   -2.2929   -0.1642 N   0  0  0  0  0  0  0  0  0  0  0  0
    2.8057   -2.2933   -0.1627 N   0  0  0  0  0  0  0  0  0  0  0  0
   -3.7602   -1.2695    0.0087 C   0  0  0  0  0  0  0  0  0  0  0  0
    3.7595   -1.2712    0.0085 C   0  0  0  0  0  0  0  0  0  0  0  0
   -4.4024    1.0659   -0.2207 C   0  0  0  0  0  0  0  0  0  0  0  0
    4.4022    1.0662   -0.2201 C   0  0  0  0  0  0  0  0  0  0  0  0
   -5.6622    0.7685    0.3515 C   0  0  0  0  0  0  0  0  0  0  0  0
    5.6625    0.7689    0.3509 C   0  0  0  0  0  0  0  0  0  0  0  0
   -1.3967   -2.2929   -0.1638 C   0  0  0  0  0  0  0  0  0  0  0  0
    1.3953   -2.2932   -0.1633 C   0  0  0  0  0  0  0  0  0  0  0  0
   -3.4625    0.0355   -0.3855 C   0  0  0  0  0  0  0  0  0  0  0  0
    3.4625    0.0354   -0.3842 C   0  0  0  0  0  0  0  0  0  0  0  0
   -4.9992   -1.5621    0.5710 C   0  0  0  0  0  0  0  0  0  0  0  0
    5.0004   -1.5617    0.5707 C   0  0  0  0  0  0  0  0  0  0  0  0
   -5.9450   -0.5506    0.7420 C   0  0  0  0  0  0  0  0  0  0  0  0
    5.9460   -0.5501    0.7412 C   0  0  0  0  0  0  0  0  0  0  0  0
   -0.6969   -3.2245   -0.9328 C   0  0  0  0  0  0  0  0  0  0  0  0
    0.6980   -3.2247   -0.9324 C   0  0  0  0  0  0  0  0  0  0  0  0
   -0.6972   -1.3614    0.6053 C   0  0  0  0  0  0  0  0  0  0  0  0
    0.6978   -1.3615    0.6054 C   0  0  0  0  0  0  0  0  0  0  0  0
   -4.1199    2.3850   -0.6115 C   0  0  0  0  0  0  0  0  0  0  0  0
    4.1188    2.3853   -0.6101 C   0  0  0  0  0  0  0  0  0  0  0  0
   -6.6022    1.7987    0.5162 C   0  0  0  0  0  0  0  0  0  0  0  0
    6.6023    1.7995    0.5152 C   0  0  0  0  0  0  0  0  0  0  0  0
   -5.0657    3.3962   -0.4401 C   0  0  0  0  0  0  0  0  0  0  0  0
    5.0645    3.3966   -0.4397 C   0  0  0  0  0  0  0  0  0  0  0  0
   -6.3046    3.1037    0.1227 C   0  0  0  0  0  0  0  0  0  0  0  0
    6.3040    3.1043    0.1218 C   0  0  0  0  0  0  0  0  0  0  0  0
   -2.5043    0.2660   -0.8474 H   0  0  0  0  0  0  0  0  0  0  0  0
    2.5038    0.2662   -0.8452 H   0  0  0  0  0  0  0  0  0  0  0  0
   -3.2137   -3.2102   -0.3195 H   0  0  0  0  0  0  0  0  0  0  0  0
    3.2134   -3.2113   -0.3172 H   0  0  0  0  0  0  0  0  0  0  0  0
   -5.2422   -2.5748    0.8824 H   0  0  0  0  0  0  0  0  0  0  0  0
    5.2442   -2.5744    0.8822 H   0  0  0  0  0  0  0  0  0  0  0  0
   -6.9069   -0.8021    1.1840 H   0  0  0  0  0  0  0  0  0  0  0  0
    6.9082   -0.8011    1.1828 H   0  0  0  0  0  0  0  0  0  0  0  0
   -1.2288   -3.9547   -1.5375 H   0  0  0  0  0  0  0  0  0  0  0  0
    1.2303   -3.9549   -1.5366 H   0  0  0  0  0  0  0  0  0  0  0  0
   -1.2138   -0.6417    1.2344 H   0  0  0  0  0  0  0  0  0  0  0  0
    1.2145   -0.6420    1.2346 H   0  0  0  0  0  0  0  0  0  0  0  0
   -3.1581    2.6370   -1.0535 H   0  0  0  0  0  0  0  0  0  0  0  0
    3.1565    2.6372   -1.0509 H   0  0  0  0  0  0  0  0  0  0  0  0
   -7.5769    1.5929    0.9538 H   0  0  0  0  0  0  0  0  0  0  0  0
    7.5774    1.5940    0.9519 H   0  0  0  0  0  0  0  0  0  0  0  0
   -4.8346    4.4123   -0.7464 H   0  0  0  0  0  0  0  0  0  0  0  0
    4.8328    4.4128   -0.7455 H   0  0  0  0  0  0  0  0  0  0  0  0
   -7.0404    3.8913    0.2558 H   0  0  0  0  0  0  0  0  0  0  0  0
    7.0397    3.8923    0.2542 H   0  0  0  0  0  0  0  0  0  0  0  0
  1  3  1  0  0  0  0
  1  9  1  0  0  0  0
  1 31  1  0  0  0  0
  2  4  1  0  0  0  0
  2 10  1  0  0  0  0
  2 32  1  0  0  0  0
  3 11  2  0  0  0  0
  3 13  1  0  0  0  0
  4 12  2  0  0  0  0
  4 14  1  0  0  0  0
  5  7  1  0  0  0  0
  5 11  1  0  0  0  0
  5 21  2  0  0  0  0
  6  8  1  0  0  0  0
  6 12  1  0  0  0  0
  6 22  2  0  0  0  0
  7 15  1  0  0  0  0
  7 23  2  0  0  0  0
  8 16  1  0  0  0  0
  8 24  2  0  0  0  0
  9 17  2  0  0  0  0
  9 19  1  0  0  0  0
 10 18  2  0  0  0  0
 10 20  1  0  0  0  0
 11 29  1  0  0  0  0
 12 30  1  0  0  0  0
 13 15  2  0  0  0  0
 13 33  1  0  0  0  0
 14 16  2  0  0  0  0
 14 34  1  0  0  0  0
 15 35  1  0  0  0  0
 16 36  1  0  0  0  0
 17 18  1  0  0  0  0
 17 37  1  0  0  0  0
 18 38  1  0  0  0  0
 19 20  2  0  0  0  0
 19 39  1  0  0  0  0
 20 40  1  0  0  0  0
 21 25  1  0  0  0  0
 21 41  1  0  0  0  0
 22 26  1  0  0  0  0
 22 42  1  0  0  0  0
 23 27  1  0  0  0  0
 23 43  1  0  0  0  0
 24 28  1  0  0  0  0
 24 44  1  0  0  0  0
 25 27  2  0  0  0  0
 25 45  1  0  0  0  0
 26 28  2  0  0  0  0
 26 46  1  0  0  0  0
 27 47  1  0  0  0  0
 28 48  1  0  0  0  0
M  END
> <PUBCHEM_COMPOUND_CID>
7142

> <PUBCHEM_CONFORMER_RMSD>
0.8

> <PUBCHEM_CONFORMER_DIVERSEORDER>
1
37
4
5
40
43
33
2
16
13
23
42
14
36
11
19
18
34
6
28
31
24
12
3
41
26
10
25
47
9
38
32
35
7
29
39
48
8
45
17
15
22
30
46
27
21
20
44

> <PUBCHEM_MMFF94_PARTIAL_CHARGES>
44
1 -0.6
10 0.1
11 -0.15
12 -0.15
13 -0.15
14 -0.15
15 -0.15
16 -0.15
17 -0.15
18 -0.15
19 -0.15
2 -0.6
20 -0.15
21 -0.15
22 -0.15
23 -0.15
24 -0.15
25 -0.15
26 -0.15
27 -0.15
28 -0.15
29 0.15
3 0.1
30 0.15
31 0.4
32 0.4
33 0.15
34 0.15
35 0.15
36 0.15
37 0.15
38 0.15
39 0.15
4 0.1
40 0.15
41 0.15
42 0.15
43 0.15
44 0.15
45 0.15
46 0.15
47 0.15
48 0.15
9 0.1

> <PUBCHEM_EFFECTIVE_ROTOR_COUNT>
4

> <PUBCHEM_PHARMACOPHORE_FEATURES>
9
1 1 cation
1 1 donor
1 2 cation
1 2 donor
6 3 5 7 11 13 15 rings
6 4 6 8 12 14 16 rings
6 5 7 21 23 25 27 rings
6 6 8 22 24 26 28 rings
6 9 10 17 18 19 20 rings

> <PUBCHEM_HEAVY_ATOM_COUNT>
28

> <PUBCHEM_ATOM_DEF_STEREO_COUNT>
0

> <PUBCHEM_ATOM_UDEF_STEREO_COUNT>
0

> <PUBCHEM_BOND_DEF_STEREO_COUNT>
0

> <PUBCHEM_BOND_UDEF_STEREO_COUNT>
0

> <PUBCHEM_ISOTOPIC_ATOM_COUNT>
0

> <PUBCHEM_COMPONENT_COUNT>
1

> <PUBCHEM_CACTVS_TAUTO_COUNT>
1

> <PUBCHEM_CONFORMER_ID>
00001BE600000001

> <PUBCHEM_MMFF94_ENERGY>
117.9571

> <PUBCHEM_FEATURE_SELFOVERLAP>
45.722

> <PUBCHEM_SHAPE_FINGERPRINT>
10 15 18272927246116222723
10050765 1 18409729564549201886
10439779 11 18267028263149246944
10673678 19 18334572473091131875
10740516 88 13253148730224793800
10763959 59 18339071688168979006
10917259 69 18197209245517863852
10939801 23 18270114583614181324
11101153 10 18339365150504628575
11399510 152 17988353763712739762
11409948 8 18271230704977432153
12107183 9 18341061791573159378
12422481 6 17704353294575941445
12975358 362 18264749121690235809
13111901 51 18261944262863319425
13167372 99 18412547604803510858
13785724 45 18050572039317665850
14202776 33 17895764972138558351
14251764 30 9583519806485020476
14394314 77 18409162221445467641
14429114 114 18337956671065848472
14739800 52 17915745477863773723
14790565 3 18410855438743392398
15320467 1 17257933693529414189
15419008 145 18130240341025443560
15439362 3 18335697184547775662
15519825 34 16486395591914344547
15604295 49 18046348523229445000
18393751 57 18343012299431186083
19302320 297 18341047514320918192
19611394 137 17986660477821132675
20058555 10 18410855469045663753
20691028 202 18335707173702553337
20715895 44 18335985354518248218
21298829 104 18338517422766017584
21302155 148 18411416198363394965
21315764 268 18127976514939027167
21585482 111 18342457075401217812
21585482 57 18410304614394959589
21772523 7 15358833172500516864
21792964 463 17844795994068007628
22122407 14 18343860022093783314
2748736 6 18336273396072660465
2838139 119 18410860970613836094
4144715 1 18272641342453970650
437795 171 18343030968947673044
437795 96 17915469500292819269
4408954 64 17196591309399670186
44249763 50 17605004610940555074
5104073 3 18060139838223175354
5109719 28 18337660975863514027
5219985 13 18334295353164124846
5364581 5 18342731897974123145
636775 72 18119534228760210376
6376802 137 17055541164172688779
7808743 9 18336831887882092835
99344 41 18411140255500169080

> <PUBCHEM_SHAPE_MULTIPOLES>
566.26
20.44
4.8
0.85
0
1.49
0.01
19.44
-3.41
0
1.04
0
-0.15
0

> <PUBCHEM_SHAPE_SELFOVERLAP>
1273.835

> <PUBCHEM_SHAPE_VOLUME>
295.6

> <PUBCHEM_COORDINATE_TYPE>
2
5
10

$$$$

