5359790
  -OEChem-07051213132D

 34 36  0     0  0  0  0  0  0999 V2000
    2.0000    1.2327    0.0000 O   0  0  0  0  0  0  0  0  0  0  0  0
    4.5981   -0.2673    0.0000 N   0  0  0  0  0  0  0  0  0  0  0  0
    3.7320    0.2327    0.0000 N   0  0  0  0  0  0  0  0  0  0  0  0
    4.5981    1.7327    0.0000 C   0  0  0  0  0  0  0  0  0  0  0  0
    4.5981    2.7327    0.0000 C   0  0  0  0  0  0  0  0  0  0  0  0
    3.7320    1.2327    0.0000 C   0  0  0  0  0  0  0  0  0  0  0  0
    4.5981   -1.2673    0.0000 C   0  0  0  0  0  0  0  0  0  0  0  0
    5.4920    1.1980    0.0000 C   0  0  0  0  0  0  0  0  0  0  0  0
    3.7320    3.2327    0.0000 C   0  0  0  0  0  0  0  0  0  0  0  0
    3.7320   -1.7673    0.0000 C   0  0  0  0  0  0  0  0  0  0  0  0
    2.8660    1.7327    0.0000 C   0  0  0  0  0  0  0  0  0  0  0  0
    5.4920    3.2673    0.0000 C   0  0  0  0  0  0  0  0  0  0  0  0
    2.8660    2.7327    0.0000 C   0  0  0  0  0  0  0  0  0  0  0  0
    6.3981    1.7118    0.0000 C   0  0  0  0  0  0  0  0  0  0  0  0
    6.3981    2.7535    0.0000 C   0  0  0  0  0  0  0  0  0  0  0  0
    5.4641   -1.7673    0.0000 C   0  0  0  0  0  0  0  0  0  0  0  0
    3.7320   -2.7673    0.0000 C   0  0  0  0  0  0  0  0  0  0  0  0
    2.8660   -1.2673    0.0000 C   0  0  0  0  0  0  0  0  0  0  0  0
    5.4641   -2.7673    0.0000 C   0  0  0  0  0  0  0  0  0  0  0  0
    4.5981   -3.2673    0.0000 C   0  0  0  0  0  0  0  0  0  0  0  0
    5.4848    0.5780    0.0000 H   0  0  0  0  0  0  0  0  0  0  0  0
    3.7320    3.8527    0.0000 H   0  0  0  0  0  0  0  0  0  0  0  0
    5.4848    3.8873    0.0000 H   0  0  0  0  0  0  0  0  0  0  0  0
    2.3291    3.0427    0.0000 H   0  0  0  0  0  0  0  0  0  0  0  0
    5.1350    0.0427    0.0000 H   0  0  0  0  0  0  0  0  0  0  0  0
    6.9338    1.3998    0.0000 H   0  0  0  0  0  0  0  0  0  0  0  0
    6.9338    3.0656    0.0000 H   0  0  0  0  0  0  0  0  0  0  0  0
    6.0010   -1.4573    0.0000 H   0  0  0  0  0  0  0  0  0  0  0  0
    3.1951   -3.0773    0.0000 H   0  0  0  0  0  0  0  0  0  0  0  0
    3.1760   -0.7304    0.0000 H   0  0  0  0  0  0  0  0  0  0  0  0
    2.3291   -0.9573    0.0000 H   0  0  0  0  0  0  0  0  0  0  0  0
    2.5560   -1.8043    0.0000 H   0  0  0  0  0  0  0  0  0  0  0  0
    6.0010   -3.0773    0.0000 H   0  0  0  0  0  0  0  0  0  0  0  0
    4.5981   -3.8873    0.0000 H   0  0  0  0  0  0  0  0  0  0  0  0
  1 11  2  0  0  0  0
  2  3  1  0  0  0  0
  2  7  1  0  0  0  0
  2 25  1  0  0  0  0
  3  6  2  0  0  0  0
  4  5  1  0  0  0  0
  4  6  1  0  0  0  0
  4  8  2  0  0  0  0
  5  9  1  0  0  0  0
  5 12  2  0  0  0  0
  6 11  1  0  0  0  0
  7 10  1  0  0  0  0
  7 16  2  0  0  0  0
  8 14  1  0  0  0  0
  8 21  1  0  0  0  0
  9 13  2  0  0  0  0
  9 22  1  0  0  0  0
 10 17  2  0  0  0  0
 10 18  1  0  0  0  0
 11 13  1  0  0  0  0
 12 15  1  0  0  0  0
 12 23  1  0  0  0  0
 13 24  1  0  0  0  0
 14 15  2  0  0  0  0
 14 26  1  0  0  0  0
 15 27  1  0  0  0  0
 16 19  1  0  0  0  0
 16 28  1  0  0  0  0
 17 20  1  0  0  0  0
 17 29  1  0  0  0  0
 18 30  1  0  0  0  0
 18 31  1  0  0  0  0
 18 32  1  0  0  0  0
 19 20  2  0  0  0  0
 19 33  1  0  0  0  0
 20 34  1  0  0  0  0
M  END
> <PUBCHEM_COMPOUND_CID>
5359790

> <PUBCHEM_COMPOUND_CANONICALIZED>
1

> <PUBCHEM_CACTVS_COMPLEXITY>
427

> <PUBCHEM_CACTVS_HBOND_ACCEPTOR>
3

> <PUBCHEM_CACTVS_HBOND_DONOR>
1

> <PUBCHEM_CACTVS_ROTATABLE_BOND>
2

> <PUBCHEM_CACTVS_SUBSKEYS>
AAADccB7IAAAAAAAAAAAAAAAAAAAAAAAAAAwYIAAAAAAAACBQAAAHgAYAAAADAyBmAAywIBiAACoA6RyQACSBAAgAgAYiAEgZNgIILKAlZGAIABgmAAIyYcYiICOgAAAAAASAAAAAAAAACQAAAAAAAAAAA==

> <PUBCHEM_IUPAC_OPENEYE_NAME>
(1E)-1-(o-tolylhydrazono)naphthalen-2-one

> <PUBCHEM_IUPAC_CAS_NAME>
(1E)-1-[(2-methylphenyl)hydrazinylidene]-2-naphthalenone

> <PUBCHEM_IUPAC_NAME>
(1E)-1-[(2-methylphenyl)hydrazinylidene]naphthalen-2-one

> <PUBCHEM_IUPAC_SYSTEMATIC_NAME>
(1E)-1-[(2-methylphenyl)hydrazinylidene]naphthalen-2-one

> <PUBCHEM_IUPAC_TRADITIONAL_NAME>
(1E)-1-(o-tolylhydrazono)naphthalen-2-one

> <PUBCHEM_IUPAC_INCHI>
InChI=1S/C17H14N2O/c1-12-6-2-5-9-15(12)18-19-17-14-8-4-3-7-13(14)10-11-16(17)20/h2-11,18H,1H3/b19-17+

> <PUBCHEM_IUPAC_INCHIKEY>
YARMASSTSUTDQJ-HTXNQAPBSA-N

> <PUBCHEM_XLOGP3_AA>
4

> <PUBCHEM_EXACT_MASS>
262.110613

> <PUBCHEM_MOLECULAR_FORMULA>
C17H14N2O

> <PUBCHEM_MOLECULAR_WEIGHT>
262.30586

> <PUBCHEM_OPENEYE_CAN_SMILES>
CC1=CC=CC=C1NN=C2C(=O)C=CC3=CC=CC=C32

> <PUBCHEM_OPENEYE_ISO_SMILES>
CC1=CC=CC=C1N/N=C\2/C(=O)C=CC3=CC=CC=C32

> <PUBCHEM_CACTVS_TPSA>
41.5

> <PUBCHEM_MONOISOTOPIC_WEIGHT>
262.110613

> <PUBCHEM_TOTAL_CHARGE>
0

> <PUBCHEM_HEAVY_ATOM_COUNT>
20

> <PUBCHEM_ATOM_DEF_STEREO_COUNT>
0

> <PUBCHEM_ATOM_UDEF_STEREO_COUNT>
0

> <PUBCHEM_BOND_DEF_STEREO_COUNT>
1

> <PUBCHEM_BOND_UDEF_STEREO_COUNT>
0

> <PUBCHEM_ISOTOPIC_ATOM_COUNT>
0

> <PUBCHEM_COMPONENT_COUNT>
1

> <PUBCHEM_CACTVS_TAUTO_COUNT>
4

> <PUBCHEM_COORDINATE_TYPE>
1
5
255

> <PUBCHEM_BONDANNOTATIONS>
10  17  8
12  15  8
14  15  8
16  19  8
17  20  8
19  20  8
4  5  8
4  8  8
5  12  8
7  10  8
7  16  8
8  14  8

$$$$

