442878
  -OEChem-07051213003D

 38 39  0     0  0  0  0  0  0999 V2000
    1.5573    0.5510    1.1556 O   0  0  0  0  0  0  0  0  0  0  0  0
   -1.8786   -2.6732    0.1935 O   0  0  0  0  0  0  0  0  0  0  0  0
   -2.9295    3.0741   -0.3084 O   0  0  0  0  0  0  0  0  0  0  0  0
   -4.0513    1.0251   -0.5915 N   0  0  0  0  0  0  0  0  0  0  0  0
   -2.3110   -0.3421   -0.0119 C   0  0  0  0  0  0  0  0  0  0  0  0
   -1.8700    0.9787    0.0833 C   0  0  0  0  0  0  0  0  0  0  0  0
   -3.7341   -0.3835   -0.4497 C   0  0  0  0  0  0  0  0  0  0  0  0
   -1.4551   -1.3856    0.2848 C   0  0  0  0  0  0  0  0  0  0  0  0
   -0.1490   -1.0754    0.6786 C   0  0  0  0  0  0  0  0  0  0  0  0
    0.2809    0.2617    0.7697 C   0  0  0  0  0  0  0  0  0  0  0  0
   -0.5869    1.3126    0.4692 C   0  0  0  0  0  0  0  0  0  0  0  0
   -2.9824    1.8587   -0.2871 C   0  0  0  0  0  0  0  0  0  0  0  0
    0.8051   -2.1805    1.0077 C   0  0  0  0  0  0  0  0  0  0  0  0
    2.3631    1.2762    0.2304 C   0  0  0  0  0  0  0  0  0  0  0  0
    3.7956    0.8764    0.3964 C   0  0  0  0  0  0  0  0  0  0  0  0
   -1.7068   -3.3284   -1.0636 C   0  0  0  0  0  0  0  0  0  0  0  0
    4.6048    0.2886   -0.5050 C   0  0  0  0  0  0  0  0  0  0  0  0
    6.0289   -0.0439   -0.1450 C   0  0  0  0  0  0  0  0  0  0  0  0
    4.2191   -0.0905   -1.9069 C   0  0  0  0  0  0  0  0  0  0  0  0
   -3.8628   -0.8690   -1.4200 H   0  0  0  0  0  0  0  0  0  0  0  0
   -4.3926   -0.8179    0.3066 H   0  0  0  0  0  0  0  0  0  0  0  0
   -0.2749    2.3485    0.5414 H   0  0  0  0  0  0  0  0  0  0  0  0
   -4.9614    1.3678   -0.8828 H   0  0  0  0  0  0  0  0  0  0  0  0
    1.4873   -1.8917    1.8145 H   0  0  0  0  0  0  0  0  0  0  0  0
    0.2886   -3.0799    1.3586 H   0  0  0  0  0  0  0  0  0  0  0  0
    1.3972   -2.4385    0.1239 H   0  0  0  0  0  0  0  0  0  0  0  0
    2.0071    1.1333   -0.7939 H   0  0  0  0  0  0  0  0  0  0  0  0
    2.2732    2.3445    0.4605 H   0  0  0  0  0  0  0  0  0  0  0  0
    4.2057    1.0984    1.3812 H   0  0  0  0  0  0  0  0  0  0  0  0
   -2.2800   -2.8196   -1.8446 H   0  0  0  0  0  0  0  0  0  0  0  0
   -2.0786   -4.3522   -0.9684 H   0  0  0  0  0  0  0  0  0  0  0  0
   -0.6486   -3.3653   -1.3404 H   0  0  0  0  0  0  0  0  0  0  0  0
    6.2003   -1.1218   -0.2331 H   0  0  0  0  0  0  0  0  0  0  0  0
    6.7205    0.4746   -0.8172 H   0  0  0  0  0  0  0  0  0  0  0  0
    6.2807    0.2491    0.8797 H   0  0  0  0  0  0  0  0  0  0  0  0
    4.3952   -1.1597   -2.0671 H   0  0  0  0  0  0  0  0  0  0  0  0
    3.1706    0.0984   -2.1436 H   0  0  0  0  0  0  0  0  0  0  0  0
    4.8259    0.4686   -2.6269 H   0  0  0  0  0  0  0  0  0  0  0  0
  1 10  1  0  0  0  0
  1 14  1  0  0  0  0
  2  8  1  0  0  0  0
  2 16  1  0  0  0  0
  3 12  2  0  0  0  0
  4  7  1  0  0  0  0
  4 12  1  0  0  0  0
  4 23  1  0  0  0  0
  5  6  1  0  0  0  0
  5  7  1  0  0  0  0
  5  8  2  0  0  0  0
  6 11  2  0  0  0  0
  6 12  1  0  0  0  0
  7 20  1  0  0  0  0
  7 21  1  0  0  0  0
  8  9  1  0  0  0  0
  9 10  2  0  0  0  0
  9 13  1  0  0  0  0
 10 11  1  0  0  0  0
 11 22  1  0  0  0  0
 13 24  1  0  0  0  0
 13 25  1  0  0  0  0
 13 26  1  0  0  0  0
 14 15  1  0  0  0  0
 14 27  1  0  0  0  0
 14 28  1  0  0  0  0
 15 17  2  0  0  0  0
 15 29  1  0  0  0  0
 16 30  1  0  0  0  0
 16 31  1  0  0  0  0
 16 32  1  0  0  0  0
 17 18  1  0  0  0  0
 17 19  1  0  0  0  0
 18 33  1  0  0  0  0
 18 34  1  0  0  0  0
 18 35  1  0  0  0  0
 19 36  1  0  0  0  0
 19 37  1  0  0  0  0
 19 38  1  0  0  0  0
M  END
> <PUBCHEM_COMPOUND_CID>
442878

> <PUBCHEM_CONFORMER_RMSD>
0.6

> <PUBCHEM_CONFORMER_DIVERSEORDER>
3
37
55
59
51
43
21
63
78
29
20
33
50
54
70
42
16
61
53
8
52
72
47
49
2
75
4
9
73
62
71
74
12
27
19
67
14
57
65
25
1
31
48
32
69
18
44
5
68
24
22
17
15
11
6
35
76
77
56
39
30
28
45
36
13
46
23
40
60
66
58
10
38
41
34
26
7
64

> <PUBCHEM_MMFF94_PARTIAL_CHARGES>
22
1 -0.36
10 0.08
11 -0.15
12 0.54
13 0.14
14 0.42
15 -0.29
16 0.28
17 -0.28
18 0.14
19 0.14
2 -0.36
22 0.15
23 0.37
29 0.15
3 -0.57
4 -0.73
5 -0.14
6 0.09
7 0.44
8 0.08
9 -0.14

> <PUBCHEM_EFFECTIVE_ROTOR_COUNT>
4.4

> <PUBCHEM_PHARMACOPHORE_FEATURES>
7
1 1 acceptor
1 2 acceptor
1 3 acceptor
1 4 donor
3 17 18 19 hydrophobe
5 4 5 6 7 12 rings
6 5 6 8 9 10 11 rings

> <PUBCHEM_HEAVY_ATOM_COUNT>
19

> <PUBCHEM_ATOM_DEF_STEREO_COUNT>
0

> <PUBCHEM_ATOM_UDEF_STEREO_COUNT>
0

> <PUBCHEM_BOND_DEF_STEREO_COUNT>
0

> <PUBCHEM_BOND_UDEF_STEREO_COUNT>
0

> <PUBCHEM_ISOTOPIC_ATOM_COUNT>
0

> <PUBCHEM_COMPONENT_COUNT>
1

> <PUBCHEM_CACTVS_TAUTO_COUNT>
2

> <PUBCHEM_CONFORMER_ID>
0006C1FE00000003

> <PUBCHEM_MMFF94_ENERGY>
63.5535

> <PUBCHEM_FEATURE_SELFOVERLAP>
35.608

> <PUBCHEM_SHAPE_FINGERPRINT>
10062212 137 18272100391839523418
11315181 36 18187074041604890016
12236239 1 17418096507884780336
12954195 1 18334012800434776965
13140716 1 18051989017404143025
14251751 93 18412265017134929806
14251757 17 18187356662604574078
14790565 3 17901657499406398561
15042514 8 18268145358335949875
16752209 62 18269845228950368338
16945 1 18265919989761092601
17870717 6 18261375755490313292
18186145 218 18260267460275122088
200 152 16008744728152306344
20602899 9 17822008709633715131
20645476 183 17917713483085981691
20645477 70 17022617577295379260
20871999 31 18341043022259704612
21524375 3 18202005472768831801
2334 1 17548152034601899785
23366157 5 17628924717993732259
23402539 116 18410578409617106396
23419403 2 17479126145802946251
23526113 38 17604443872700126192
23557571 272 18119537531056550928
23559900 14 18260552182932884744
2748010 2 18266756851317074209
3004659 81 18272367629648344466
44062 13 18335415743197508862
474 4 17203606008441473250
4990 188 18187083975057221260
5283173 99 18409168801572352240
559249 180 18341617074872436834
7399639 24 17175195491226262624
9709674 26 18188777119842648176

> <PUBCHEM_SHAPE_MULTIPOLES>
368.42
9.3
2.87
1.11
13.42
1.39
0.27
-2.5
3.19
-3.5
0.36
0.77
0.29
0.16

> <PUBCHEM_SHAPE_SELFOVERLAP>
776.338

> <PUBCHEM_SHAPE_VOLUME>
211.2

> <PUBCHEM_COORDINATE_TYPE>
2
5
10

$$$$

