221088
  -OEChem-07051213073D

 27 28  0     0  0  0  0  0  0999 V2000
    1.0194   -0.2917   -0.0510 N   0  0  0  0  0  0  0  0  0  0  0  0
   -3.5807   -0.7660    0.0284 N   0  0  0  0  0  0  0  0  0  0  0  0
   -0.3687    1.6551   -0.0086 N   0  0  0  0  0  0  0  0  0  0  0  0
   -2.8043    1.5273    0.0346 N   0  0  0  0  0  0  0  0  0  0  0  0
   -3.0890   -2.0189    0.0085 N   0  0  0  0  0  0  0  0  0  0  0  0
    3.4558   -0.4865   -0.0333 C   0  0  0  0  0  0  0  0  0  0  0  0
    2.2545    0.4545   -0.0668 C   0  0  0  0  0  0  0  0  0  0  0  0
    4.7909    0.2619   -0.0015 C   0  0  0  0  0  0  0  0  0  0  0  0
   -0.2352    0.2969   -0.0232 C   0  0  0  0  0  0  0  0  0  0  0  0
   -1.4066   -0.4722   -0.0088 C   0  0  0  0  0  0  0  0  0  0  0  0
    5.9645   -0.7002    0.0980 C   0  0  0  0  0  0  0  0  0  0  0  0
   -2.6169    0.1981    0.0193 C   0  0  0  0  0  0  0  0  0  0  0  0
   -1.7646   -1.8332   -0.0144 C   0  0  0  0  0  0  0  0  0  0  0  0
   -1.6191    2.1748    0.0188 C   0  0  0  0  0  0  0  0  0  0  0  0
    3.4274   -1.1485   -0.9082 H   0  0  0  0  0  0  0  0  0  0  0  0
    3.3821   -1.1353    0.8492 H   0  0  0  0  0  0  0  0  0  0  0  0
    2.3016    1.0761   -0.9688 H   0  0  0  0  0  0  0  0  0  0  0  0
    2.2938    1.1224    0.8021 H   0  0  0  0  0  0  0  0  0  0  0  0
    4.8136    0.9448    0.8555 H   0  0  0  0  0  0  0  0  0  0  0  0
    4.8956    0.8715   -0.9063 H   0  0  0  0  0  0  0  0  0  0  0  0
    1.0622   -1.3048   -0.0667 H   0  0  0  0  0  0  0  0  0  0  0  0
    5.9871   -1.3809   -0.7590 H   0  0  0  0  0  0  0  0  0  0  0  0
    6.9081   -0.1460    0.1167 H   0  0  0  0  0  0  0  0  0  0  0  0
    5.9045   -1.2996    1.0119 H   0  0  0  0  0  0  0  0  0  0  0  0
   -1.1205   -2.7009   -0.0339 H   0  0  0  0  0  0  0  0  0  0  0  0
   -4.5853   -0.6433    0.0480 H   0  0  0  0  0  0  0  0  0  0  0  0
   -1.6750    3.2580    0.0296 H   0  0  0  0  0  0  0  0  0  0  0  0
  1  7  1  0  0  0  0
  1  9  1  0  0  0  0
  1 21  1  0  0  0  0
  2  5  1  0  0  0  0
  2 12  1  0  0  0  0
  2 26  1  0  0  0  0
  3  9  2  0  0  0  0
  3 14  1  0  0  0  0
  4 12  1  0  0  0  0
  4 14  2  0  0  0  0
  5 13  2  0  0  0  0
  6  7  1  0  0  0  0
  6  8  1  0  0  0  0
  6 15  1  0  0  0  0
  6 16  1  0  0  0  0
  7 17  1  0  0  0  0
  7 18  1  0  0  0  0
  8 11  1  0  0  0  0
  8 19  1  0  0  0  0
  8 20  1  0  0  0  0
  9 10  1  0  0  0  0
 10 12  2  0  0  0  0
 10 13  1  0  0  0  0
 11 22  1  0  0  0  0
 11 23  1  0  0  0  0
 11 24  1  0  0  0  0
 13 25  1  0  0  0  0
 14 27  1  0  0  0  0
M  END
> <PUBCHEM_COMPOUND_CID>
221088

> <PUBCHEM_CONFORMER_RMSD>
0.6

> <PUBCHEM_CONFORMER_DIVERSEORDER>
1
19
6
23
7
21
17
3
26
2
25
22
14
18
10
20
24
8
12
5
15
16
4
13
27
11
9

> <PUBCHEM_MMFF94_PARTIAL_CHARGES>
14
1 -0.87
12 0.11
13 0.14
14 0.47
2 0.3
21 0.4
25 0.15
26 0.27
27 0.15
3 -0.62
4 -0.57
5 -0.71
7 0.37
9 0.41

> <PUBCHEM_EFFECTIVE_ROTOR_COUNT>
4

> <PUBCHEM_PHARMACOPHORE_FEATURES>
8
1 1 donor
1 11 hydrophobe
1 2 donor
1 5 acceptor
3 1 3 9 cation
3 3 4 14 cation
5 2 5 10 12 13 rings
6 3 4 9 10 12 14 rings

> <PUBCHEM_HEAVY_ATOM_COUNT>
14

> <PUBCHEM_ATOM_DEF_STEREO_COUNT>
0

> <PUBCHEM_ATOM_UDEF_STEREO_COUNT>
0

> <PUBCHEM_BOND_DEF_STEREO_COUNT>
0

> <PUBCHEM_BOND_UDEF_STEREO_COUNT>
0

> <PUBCHEM_ISOTOPIC_ATOM_COUNT>
0

> <PUBCHEM_COMPONENT_COUNT>
1

> <PUBCHEM_CACTVS_TAUTO_COUNT>
13

> <PUBCHEM_CONFORMER_ID>
00035FA000000001

> <PUBCHEM_MMFF94_ENERGY>
19.2479

> <PUBCHEM_FEATURE_SELFOVERLAP>
40.818

> <PUBCHEM_SHAPE_FINGERPRINT>
10616163 171 18410854369718814654
10680689 15 18341323466349071936
10912923 1 18060700607308688176
11315181 36 18273215292587912264
12757275 245 18411980247907779458
13024252 1 15841548587654305513
13167823 11 18343304799498852354
13214271 11 18260269663466386948
13288520 33 18409728461189836854
14508225 48 18339376162542618373
17804303 29 18334574620632691784
17834072 33 18272365353093962852
1986462 14 18411135857653663260
20279233 1 17967528000012291014
20300324 65 18412824677311993032
20510252 161 18260827158764006025
20645477 56 18338795740092485037
20871998 184 18259701190353821575
21061003 4 17095242492829953184
21267235 1 18341041943568902514
21339142 51 18409453604288705141
21426921 1 18412263960414810292
2297311 6 18261661628481912308
2306618 200 18187076286722844737
23380061 127 18411983572402084860
23402539 116 18334864904861516559
23557571 272 18187637038201701244
23559900 14 18409456856148498112
2748010 2 18122352281272089061
4214541 1 18410856598980342912
5104073 3 18408605855807806176
559249 180 18199755902649912506
573450 72 18271816760873249314
77779 3 18410292528193347212
9709674 26 18409722985228418974

> <PUBCHEM_SHAPE_MULTIPOLES>
263.21
9.47
1.91
0.59
17.01
0.2
0
-2.49
0.25
-2.27
0.01
0.06
0
-0.04

> <PUBCHEM_SHAPE_SELFOVERLAP>
550.199

> <PUBCHEM_SHAPE_VOLUME>
146.4

> <PUBCHEM_COORDINATE_TYPE>
2
5
10

$$$$

