12315228
  -OEChem-07051213153D

 51 55  0     1  0  0  0  0  0999 V2000
   -2.8092    0.7999   -1.4490 O   0  0  0  0  0  0  0  0  0  0  0  0
    5.5183   -0.9882   -0.6739 O   0  0  0  0  0  0  0  0  0  0  0  0
   -4.7019   -0.1398   -0.4296 N   0  0  0  0  0  0  0  0  0  0  0  0
   -1.7085    0.2653    0.6587 C   0  0  2  0  0  0  0  0  0  0  0  0
   -0.2868    0.4241   -0.0221 C   0  0  2  0  0  0  0  0  0  0  0  0
    0.7491   -0.6233    0.4955 C   0  0  2  0  0  0  0  0  0  0  0  0
    2.0792   -0.4114   -0.2384 C   0  0  1  0  0  0  0  0  0  0  0  0
   -2.1798   -1.2251    0.5327 C   0  0  2  0  0  0  0  0  0  0  0  0
    2.6636    0.9981   -0.0066 C   0  0  2  0  0  0  0  0  0  0  0  0
    0.2781    1.8713    0.0323 C   0  0  0  0  0  0  0  0  0  0  0  0
   -2.7544    1.1884   -0.0646 C   0  0  2  0  0  0  0  0  0  0  0  0
    0.2276   -2.0492    0.2920 C   0  0  0  0  0  0  0  0  0  0  0  0
   -1.1235   -2.2505    0.9619 C   0  0  0  0  0  0  0  0  0  0  0  0
    1.6776    2.0147   -0.5919 C   0  0  0  0  0  0  0  0  0  0  0  0
   -2.7282   -1.5242   -0.8861 C   0  0  0  0  0  0  0  0  0  0  0  0
    3.2402   -1.3570    0.0591 C   0  0  0  0  0  0  0  0  0  0  0  0
    4.0022    0.9016   -0.7607 C   0  0  0  0  0  0  0  0  0  0  0  0
   -1.6541    0.6593    2.1530 C   0  0  0  0  0  0  0  0  0  0  0  0
   -3.6198   -0.3795   -1.3901 C   0  0  2  0  0  0  0  0  0  0  0  0
   -4.2233    1.0242    0.3341 C   0  0  0  0  0  0  0  0  0  0  0  0
    2.9578    1.3400    1.4749 C   0  0  0  0  0  0  0  0  0  0  0  0
    4.3957   -0.5388   -0.4814 C   0  0  0  0  0  0  0  0  0  0  0  0
   -0.4170    0.2082   -1.0930 H   0  0  0  0  0  0  0  0  0  0  0  0
    0.9115   -0.4834    1.5694 H   0  0  0  0  0  0  0  0  0  0  0  0
    1.8682   -0.5197   -1.3163 H   0  0  0  0  0  0  0  0  0  0  0  0
   -3.0238   -1.3731    1.2222 H   0  0  0  0  0  0  0  0  0  0  0  0
    0.3130    2.2278    1.0662 H   0  0  0  0  0  0  0  0  0  0  0  0
   -0.3885    2.5534   -0.5058 H   0  0  0  0  0  0  0  0  0  0  0  0
   -2.4688    2.2424   -0.0016 H   0  0  0  0  0  0  0  0  0  0  0  0
    0.9359   -2.7719    0.7143 H   0  0  0  0  0  0  0  0  0  0  0  0
    0.1538   -2.2771   -0.7779 H   0  0  0  0  0  0  0  0  0  0  0  0
   -1.4834   -3.2659    0.7561 H   0  0  0  0  0  0  0  0  0  0  0  0
   -0.9890   -2.1920    2.0494 H   0  0  0  0  0  0  0  0  0  0  0  0
    1.5916    1.8739   -1.6773 H   0  0  0  0  0  0  0  0  0  0  0  0
    2.0436    3.0375   -0.4420 H   0  0  0  0  0  0  0  0  0  0  0  0
   -1.8962   -1.6489   -1.5885 H   0  0  0  0  0  0  0  0  0  0  0  0
   -3.2879   -2.4673   -0.8740 H   0  0  0  0  0  0  0  0  0  0  0  0
    3.1498   -2.2992   -0.4867 H   0  0  0  0  0  0  0  0  0  0  0  0
    3.3784   -1.5379    1.1279 H   0  0  0  0  0  0  0  0  0  0  0  0
    4.7590    1.5931   -0.3819 H   0  0  0  0  0  0  0  0  0  0  0  0
    3.8799    1.0246   -1.8413 H   0  0  0  0  0  0  0  0  0  0  0  0
   -0.8565    0.1414    2.6920 H   0  0  0  0  0  0  0  0  0  0  0  0
   -1.4963    1.7354    2.2785 H   0  0  0  0  0  0  0  0  0  0  0  0
   -2.5890    0.4137    2.6675 H   0  0  0  0  0  0  0  0  0  0  0  0
   -4.0061   -0.6049   -2.3890 H   0  0  0  0  0  0  0  0  0  0  0  0
   -4.3861    0.9055    1.4074 H   0  0  0  0  0  0  0  0  0  0  0  0
   -4.7871    1.9058    0.0046 H   0  0  0  0  0  0  0  0  0  0  0  0
    3.6803    0.6518    1.9256 H   0  0  0  0  0  0  0  0  0  0  0  0
    3.3840    2.3472    1.5540 H   0  0  0  0  0  0  0  0  0  0  0  0
    2.0633    1.3196    2.1027 H   0  0  0  0  0  0  0  0  0  0  0  0
   -5.5485    0.1303   -0.9301 H   0  0  0  0  0  0  0  0  0  0  0  0
  1 11  1  0  0  0  0
  1 19  1  0  0  0  0
  2 22  2  0  0  0  0
  3 19  1  0  0  0  0
  3 20  1  0  0  0  0
  3 51  1  0  0  0  0
  4  5  1  0  0  0  0
  4  8  1  0  0  0  0
  4 11  1  0  0  0  0
  4 18  1  0  0  0  0
  5  6  1  0  0  0  0
  5 10  1  0  0  0  0
  5 23  1  0  0  0  0
  6  7  1  0  0  0  0
  6 12  1  0  0  0  0
  6 24  1  0  0  0  0
  7  9  1  0  0  0  0
  7 16  1  0  0  0  0
  7 25  1  0  0  0  0
  8 13  1  0  0  0  0
  8 15  1  0  0  0  0
  8 26  1  0  0  0  0
  9 14  1  0  0  0  0
  9 17  1  0  0  0  0
  9 21  1  0  0  0  0
 10 14  1  0  0  0  0
 10 27  1  0  0  0  0
 10 28  1  0  0  0  0
 11 20  1  0  0  0  0
 11 29  1  0  0  0  0
 12 13  1  0  0  0  0
 12 30  1  0  0  0  0
 12 31  1  0  0  0  0
 13 32  1  0  0  0  0
 13 33  1  0  0  0  0
 14 34  1  0  0  0  0
 14 35  1  0  0  0  0
 15 19  1  0  0  0  0
 15 36  1  0  0  0  0
 15 37  1  0  0  0  0
 16 22  1  0  0  0  0
 16 38  1  0  0  0  0
 16 39  1  0  0  0  0
 17 22  1  0  0  0  0
 17 40  1  0  0  0  0
 17 41  1  0  0  0  0
 18 42  1  0  0  0  0
 18 43  1  0  0  0  0
 18 44  1  0  0  0  0
 19 45  1  0  0  0  0
 20 46  1  0  0  0  0
 20 47  1  0  0  0  0
 21 48  1  0  0  0  0
 21 49  1  0  0  0  0
 21 50  1  0  0  0  0
M  END
> <PUBCHEM_COMPOUND_CID>
12315228

> <PUBCHEM_CONFORMER_RMSD>
0.6

> <PUBCHEM_CONFORMER_DIVERSEORDER>
1

> <PUBCHEM_MMFF94_PARTIAL_CHARGES>
10
1 -0.56
11 0.28
16 0.06
17 0.06
19 0.55
2 -0.57
20 0.27
22 0.45
3 -0.9
51 0.36

> <PUBCHEM_EFFECTIVE_ROTOR_COUNT>
2

> <PUBCHEM_PHARMACOPHORE_FEATURES>
8
1 1 acceptor
1 2 acceptor
1 3 cation
1 3 donor
5 7 9 16 17 22 rings
6 4 5 6 8 12 13 rings
6 5 6 7 9 10 14 rings
8 1 3 4 8 11 15 19 20 rings

> <PUBCHEM_HEAVY_ATOM_COUNT>
22

> <PUBCHEM_ATOM_DEF_STEREO_COUNT>
8

> <PUBCHEM_ATOM_UDEF_STEREO_COUNT>
0

> <PUBCHEM_BOND_DEF_STEREO_COUNT>
0

> <PUBCHEM_BOND_UDEF_STEREO_COUNT>
0

> <PUBCHEM_ISOTOPIC_ATOM_COUNT>
0

> <PUBCHEM_COMPONENT_COUNT>
1

> <PUBCHEM_CACTVS_TAUTO_COUNT>
3

> <PUBCHEM_CONFORMER_ID>
00BBEA5C00000001

> <PUBCHEM_MMFF94_ENERGY>
77.0807

> <PUBCHEM_FEATURE_SELFOVERLAP>
40.683

> <PUBCHEM_SHAPE_FINGERPRINT>
10062212 137 18114185233085813975
10366900 7 16845571998402543753
10863032 1 18334018259285612103
10967382 1 18341893038830937682
11315181 36 17894625964244065858
11578080 2 17098063715118420179
12011746 2 18411696621416054998
12236239 1 18040150730157954265
12403259 415 18272376377531511837
12553582 1 18341040909135522354
12592029 89 18059862787463426875
12760667 363 18119522387777974694
12788726 201 18264487476239316320
13134695 92 17967816029278361344
13140716 1 18412545392694854650
13214271 11 8790886267983914035
13224815 77 18187929434778780352
13288520 33 17240761817705735286
13583140 156 14491041626610796898
14223421 5 17908135482556127224
14289901 80 15791725313352658600
14911166 2 18342455958751171494
15099037 51 18343580763536429070
15163728 17 15337733754040704327
15196674 1 18411978027462207630
15209289 33 18411698807253663101
15238133 3 16415215497986223444
15420108 30 16961525669781145696
15536298 74 18260272919146549072
15788980 27 16732986426912464188
15848702 151 17823130284603189718
16752209 62 18201445834536064272
16945 1 17918007069859761681
17349148 13 18334862731455161682
17492 89 18189901902921337934
18186145 218 18412272730753560685
18219364 16 18200579363301133131
192875 21 18113898264735253016
19862831 5 18409167709900922902
200 152 17676489440665905838
20645477 70 18334292072388833174
20775438 99 16670822019901954839
21033648 29 18060427923154677629
21069387 34 18186520981816367828
21267235 1 18409157818559812663
221357 26 18411707590630718829
22393880 68 18339655502503454983
23402539 116 18335421313642906420
23493267 7 16917062278673664120
23559900 14 18336265648679814696
25 1 18272937158573706891
26918003 58 5112002828859261055
2748010 2 18267859497928312250
2838139 119 16126441954753391431
3286 77 17530688714735211848
335352 9 18341327881496389638
34934 24 18343585110433475872
350125 39 18127676154732769987
474 4 18343018895877739049
495365 180 17822584828230698616
5104073 3 18409730625394418946
69090 78 18413673495851315355
74978 22 18271803458900655792
9709674 26 18194404394267141434
9981440 41 17395593692062168328

> <PUBCHEM_SHAPE_MULTIPOLES>
436.03
8.69
2.09
1.3
3.5
0.34
-0.33
0.21
2.51
0.23
-0.18
-0.59
-0.17
0.07

> <PUBCHEM_SHAPE_SELFOVERLAP>
949.05

> <PUBCHEM_SHAPE_VOLUME>
235.9

> <PUBCHEM_COORDINATE_TYPE>
2
5
10

$$$$

