442105
  -OEChem-07051212572D

 77 85  0     1  0  0  0  0  0999 V2000
    7.4991   -1.2501    0.0000 N   0  0  3  0  0  0  0  0  0  0  0  0
    3.4011   -1.4113    0.0000 N   0  0  3  0  0  0  0  0  0  0  0  0
    6.3873    0.2873    0.0000 N   0  0  0  0  0  0  0  0  0  0  0  0
    4.2290   -3.1186    0.0000 N   0  0  0  0  0  0  0  0  0  0  0  0
    6.3363    2.9528    0.0000 N   0  0  3  0  0  0  0  0  0  0  0  0
    4.5402    3.5640    0.0000 N   0  0  0  0  0  0  0  0  0  0  0  0
    5.8873   -1.2515    0.0000 C   0  0  1  0  0  0  0  0  0  0  0  0
    4.9885   -1.6899    0.0000 C   0  0  2  0  0  0  0  0  0  0  0  0
    6.6964   -0.6637    0.0000 C   0  0  1  0  0  0  0  0  0  0  0  0
    4.0897   -2.1282    0.0000 C   0  0  2  0  0  0  0  0  0  0  0  0
    6.1970   -2.1962    0.0000 C   0  0  0  0  0  0  0  0  0  0  0  0
    4.8476   -0.7059    0.0000 C   0  0  0  0  0  0  0  0  0  0  0  0
    5.0783   -0.6637    0.0000 C   0  0  0  0  0  0  0  0  0  0  0  0
    5.6833   -2.4093    0.0000 C   0  0  0  0  0  0  0  0  0  0  0  0
    7.1911   -2.1953    0.0000 C   0  0  0  0  0  0  0  0  0  0  0  0
    3.8685   -0.5341    0.0000 C   0  0  0  0  0  0  0  0  0  0  0  0
    5.3873    0.2873    0.0000 C   0  0  0  0  0  0  0  0  0  0  0  0
    5.2138   -3.2922    0.0000 C   0  0  0  0  0  0  0  0  0  0  0  0
    5.0224    2.0195    0.0000 C   0  0  1  0  0  0  0  0  0  0  0  0
    4.7024    1.0720    0.0000 C   0  0  0  0  0  0  0  0  0  0  0  0
    4.0629   -0.8960    0.0000 C   0  0  0  0  0  0  0  0  0  0  0  0
    5.3424    2.9669    0.0000 C   0  0  1  0  0  0  0  0  0  0  0  0
    6.7235   -2.3568    0.0000 C   0  0  0  0  0  0  0  0  0  0  0  0
    8.4506   -0.9428    0.0000 C   0  0  0  0  0  0  0  0  0  0  0  0
    5.8213    1.4280    0.0000 C   0  0  0  0  0  0  0  0  0  0  0  0
    2.4106   -1.5488    0.0000 C   0  0  0  0  0  0  0  0  0  0  0  0
    4.0224    2.0310    0.0000 C   0  0  0  0  0  0  0  0  0  0  0  0
    3.6819    0.8633    0.0000 C   0  0  0  0  0  0  0  0  0  0  0  0
    6.6318    2.0036    0.0000 C   0  0  0  0  0  0  0  0  0  0  0  0
    5.7520   -4.1840    0.0000 C   0  0  0  0  0  0  0  0  0  0  0  0
    3.3600   -0.1273    0.0000 C   0  0  0  0  0  0  0  0  0  0  0  0
    3.7244    2.9856    0.0000 C   0  0  0  0  0  0  0  0  0  0  0  0
    7.2823   -3.2359    0.0000 C   0  0  0  0  0  0  0  0  0  0  0  0
    6.7933   -4.1556    0.0000 C   0  0  0  0  0  0  0  0  0  0  0  0
    3.3284    1.2543    0.0000 C   0  0  0  0  0  0  0  0  0  0  0  0
    6.9348    3.7539    0.0000 C   0  0  0  0  0  0  0  0  0  0  0  0
    2.7118    3.2296    0.0000 C   0  0  0  0  0  0  0  0  0  0  0  0
    2.3104    1.4748    0.0000 C   0  0  0  0  0  0  0  0  0  0  0  0
    2.0000    2.4691    0.0000 C   0  0  0  0  0  0  0  0  0  0  0  0
    7.3847   -0.1650    0.0000 H   0  0  0  0  0  0  0  0  0  0  0  0
    3.3253   -2.4999    0.0000 H   0  0  0  0  0  0  0  0  0  0  0  0
    5.5908   -2.3263    0.0000 H   0  0  0  0  0  0  0  0  0  0  0  0
    6.2627   -2.8127    0.0000 H   0  0  0  0  0  0  0  0  0  0  0  0
    5.4672   -0.6830    0.0000 H   0  0  0  0  0  0  0  0  0  0  0  0
    4.8900   -0.0873    0.0000 H   0  0  0  0  0  0  0  0  0  0  0  0
    7.1264   -2.8119    0.0000 H   0  0  0  0  0  0  0  0  0  0  0  0
    7.7975   -2.3244    0.0000 H   0  0  0  0  0  0  0  0  0  0  0  0
    4.0392    0.0619    0.0000 H   0  0  0  0  0  0  0  0  0  0  0  0
    3.2937   -0.3016    0.0000 H   0  0  0  0  0  0  0  0  0  0  0  0
    6.7518    0.7889    0.0000 H   0  0  0  0  0  0  0  0  0  0  0  0
    3.7830   -3.5492    0.0000 H   0  0  0  0  0  0  0  0  0  0  0  0
    3.8782   -1.4878    0.0000 H   0  0  0  0  0  0  0  0  0  0  0  0
    5.6154    3.7718    0.0000 H   0  0  0  0  0  0  0  0  0  0  0  0
    7.0082   -1.8061    0.0000 H   0  0  0  0  0  0  0  0  0  0  0  0
    8.6412   -1.5328    0.0000 H   0  0  0  0  0  0  0  0  0  0  0  0
    9.0406   -0.7522    0.0000 H   0  0  0  0  0  0  0  0  0  0  0  0
    8.2601   -0.3528    0.0000 H   0  0  0  0  0  0  0  0  0  0  0  0
    5.4021    0.9712    0.0000 H   0  0  0  0  0  0  0  0  0  0  0  0
    6.2315    0.9630    0.0000 H   0  0  0  0  0  0  0  0  0  0  0  0
    2.3253   -0.9347    0.0000 H   0  0  0  0  0  0  0  0  0  0  0  0
    1.7964   -1.6340    0.0000 H   0  0  0  0  0  0  0  0  0  0  0  0
    2.4958   -2.1629    0.0000 H   0  0  0  0  0  0  0  0  0  0  0  0
    3.2688    1.3257    0.0000 H   0  0  0  0  0  0  0  0  0  0  0  0
    6.9357    1.4632    0.0000 H   0  0  0  0  0  0  0  0  0  0  0  0
    7.2011    2.2491    0.0000 H   0  0  0  0  0  0  0  0  0  0  0  0
    5.4546   -4.7280    0.0000 H   0  0  0  0  0  0  0  0  0  0  0  0
    2.7540   -0.2586    0.0000 H   0  0  0  0  0  0  0  0  0  0  0  0
    4.5474    4.1840    0.0000 H   0  0  0  0  0  0  0  0  0  0  0  0
    7.9018   -3.2119    0.0000 H   0  0  0  0  0  0  0  0  0  0  0  0
    7.1198   -4.6827    0.0000 H   0  0  0  0  0  0  0  0  0  0  0  0
    3.5200    0.6646    0.0000 H   0  0  0  0  0  0  0  0  0  0  0  0
    7.4315    3.3829    0.0000 H   0  0  0  0  0  0  0  0  0  0  0  0
    7.3059    4.2506    0.0000 H   0  0  0  0  0  0  0  0  0  0  0  0
    6.4381    4.1250    0.0000 H   0  0  0  0  0  0  0  0  0  0  0  0
    2.5339    3.8235    0.0000 H   0  0  0  0  0  0  0  0  0  0  0  0
    1.8920    1.0172    0.0000 H   0  0  0  0  0  0  0  0  0  0  0  0
    1.3956    2.6073    0.0000 H   0  0  0  0  0  0  0  0  0  0  0  0
  1  9  1  0  0  0  0
  1 15  1  0  0  0  0
  1 24  1  0  0  0  0
  2 10  1  0  0  0  0
  2 16  1  0  0  0  0
  2 26  1  0  0  0  0
  3  9  1  0  0  0  0
  3 17  1  0  0  0  0
  3 50  1  0  0  0  0
  4 10  1  0  0  0  0
  4 18  1  0  0  0  0
  4 51  1  0  0  0  0
  5 22  1  0  0  0  0
  5 29  1  0  0  0  0
  5 36  1  0  0  0  0
  6 22  1  0  0  0  0
  6 32  1  0  0  0  0
  6 68  1  0  0  0  0
  7  8  1  0  0  0  0
  7  9  1  0  0  0  0
  7 11  1  6  0  0  0
  7 13  1  0  0  0  0
  8 10  1  0  0  0  0
  8 12  1  1  0  0  0
  8 14  1  0  0  0  0
  9 40  1  1  0  0  0
 10 41  1  6  0  0  0
 11 15  1  0  0  0  0
 11 42  1  0  0  0  0
 11 43  1  0  0  0  0
 12 16  1  0  0  0  0
 12 44  1  0  0  0  0
 12 45  1  0  0  0  0
 13 17  1  0  0  0  0
 13 21  2  0  0  0  0
 14 18  1  0  0  0  0
 14 23  2  0  0  0  0
 15 46  1  0  0  0  0
 15 47  1  0  0  0  0
 16 48  1  0  0  0  0
 16 49  1  0  0  0  0
 17 20  2  0  0  0  0
 18 30  2  0  0  0  0
 19 20  1  1  0  0  0
 19 22  1  0  0  0  0
 19 25  1  0  0  0  0
 19 27  1  0  0  0  0
 20 28  1  0  0  0  0
 21 31  1  0  0  0  0
 21 52  1  0  0  0  0
 22 53  1  1  0  0  0
 23 33  1  0  0  0  0
 23 54  1  0  0  0  0
 24 55  1  0  0  0  0
 24 56  1  0  0  0  0
 24 57  1  0  0  0  0
 25 29  1  0  0  0  0
 25 58  1  0  0  0  0
 25 59  1  0  0  0  0
 26 60  1  0  0  0  0
 26 61  1  0  0  0  0
 26 62  1  0  0  0  0
 27 32  1  0  0  0  0
 27 35  2  0  0  0  0
 28 31  2  0  0  0  0
 28 63  1  0  0  0  0
 29 64  1  0  0  0  0
 29 65  1  0  0  0  0
 30 34  1  0  0  0  0
 30 66  1  0  0  0  0
 31 67  1  0  0  0  0
 32 37  2  0  0  0  0
 33 34  2  0  0  0  0
 33 69  1  0  0  0  0
 34 70  1  0  0  0  0
 35 38  1  0  0  0  0
 35 71  1  0  0  0  0
 36 72  1  0  0  0  0
 36 73  1  0  0  0  0
 36 74  1  0  0  0  0
 37 39  1  0  0  0  0
 37 75  1  0  0  0  0
 38 39  2  0  0  0  0
 38 76  1  0  0  0  0
 39 77  1  0  0  0  0
M  END
> <PUBCHEM_COMPOUND_CID>
442105

> <PUBCHEM_COMPOUND_CANONICALIZED>
1

> <PUBCHEM_CACTVS_COMPLEXITY>
989

> <PUBCHEM_CACTVS_HBOND_ACCEPTOR>
6

> <PUBCHEM_CACTVS_HBOND_DONOR>
3

> <PUBCHEM_CACTVS_ROTATABLE_BOND>
2

> <PUBCHEM_CACTVS_SUBSKEYS>
AAADcfB/gAAAAAAAAAAAAAAAAAAAAWLFixYwYMAAAAAWLFgBUAAAHAAQAAAADgjBGAQzwIPAAACAAiRCQACCAAAhAgAIiIAIZIiIICLAkZGEIAhokALIyCcQgMAPgAACAAACAAAAAAQAAAQAAAAAAAAAAA==

> <PUBCHEM_IUPAC_OPENEYE_NAME>
(3aR,8bR)-5-[(3aR,8bR)-3-methyl-1,2,3a,4-tetrahydropyrrolo[2,3-b]indol-8b-yl]-8b-[(3aS,8bS)-3-methyl-1,2,3a,4-tetrahydropyrrolo[2,3-b]indol-8b-yl]-3-methyl-1,2,3a,4-tetrahydropyrrolo[2,3-b]indole

> <PUBCHEM_IUPAC_CAS_NAME>
(3aR,8bR)-5-[(3aR,8bR)-3-methyl-1,2,3a,4-tetrahydropyrrolo[2,3-b]indol-8b-yl]-8b-[(3aS,8bS)-3-methyl-1,2,3a,4-tetrahydropyrrolo[2,3-b]indol-8b-yl]-3-methyl-1,2,3a,4-tetrahydropyrrolo[2,3-b]indole

> <PUBCHEM_IUPAC_NAME>
(3aR,8bR)-5-[(3aR,8bR)-3-methyl-1,2,3a,4-tetrahydropyrrolo[2,3-b]indol-8b-yl]-8b-[(3aS,8bS)-3-methyl-1,2,3a,4-tetrahydropyrrolo[2,3-b]indol-8b-yl]-3-methyl-1,2,3a,4-tetrahydropyrrolo[2,3-b]indole

> <PUBCHEM_IUPAC_SYSTEMATIC_NAME>
(3aR,8bR)-5-[(3aR,8bR)-3-methyl-1,2,3a,4-tetrahydropyrrolo[2,3-b]indol-8b-yl]-8b-[(3aS,8bS)-3-methyl-1,2,3a,4-tetrahydropyrrolo[2,3-b]indol-8b-yl]-3-methyl-1,2,3a,4-tetrahydropyrrolo[2,3-b]indole

> <PUBCHEM_IUPAC_TRADITIONAL_NAME>
(3aR,8bR)-5-[(3aR,8bR)-3-methyl-1,2,3a,4-tetrahydropyrrol[2,3-b]indol-8b-yl]-8b-[(3aS,8bS)-3-methyl-1,2,3a,4-tetrahydropyrrol[2,3-b]indol-8b-yl]-3-methyl-1,2,3a,4-tetrahydropyrrol[2,3-b]indole

> <PUBCHEM_IUPAC_INCHI>
InChI=1S/C33H38N6/c1-37-18-15-31(21-9-4-6-13-25(21)34-28(31)37)23-11-8-12-24-27(23)36-30-33(24,17-20-39(30)3)32-16-19-38(2)29(32)35-26-14-7-5-10-22(26)32/h4-14,28-30,34-36H,15-20H2,1-3H3/t28-,29+,30-,31-,32-,33+/m1/s1

> <PUBCHEM_IUPAC_INCHIKEY>
DPVWJPVYOXKFRQ-BDMNMGLZSA-N

> <PUBCHEM_XLOGP3_AA>
5.7

> <PUBCHEM_EXACT_MASS>
518.315795

> <PUBCHEM_MOLECULAR_FORMULA>
C33H38N6

> <PUBCHEM_MOLECULAR_WEIGHT>
518.69502

> <PUBCHEM_OPENEYE_CAN_SMILES>
CN1CCC2(C1NC3=CC=CC=C32)C4=C5C(=CC=C4)C6(CCN(C6N5)C)C78CCN(C7NC9=CC=CC=C89)C

> <PUBCHEM_OPENEYE_ISO_SMILES>
CN1CC[C@]2([C@@H]1NC3=CC=CC=C32)C4=C5C(=CC=C4)[C@]6(CCN([C@H]6N5)C)[C@@]78CCN([C@@H]7NC9=CC=CC=C89)C

> <PUBCHEM_CACTVS_TPSA>
45.8

> <PUBCHEM_MONOISOTOPIC_WEIGHT>
518.315795

> <PUBCHEM_TOTAL_CHARGE>
0

> <PUBCHEM_HEAVY_ATOM_COUNT>
39

> <PUBCHEM_ATOM_DEF_STEREO_COUNT>
6

> <PUBCHEM_ATOM_UDEF_STEREO_COUNT>
0

> <PUBCHEM_BOND_DEF_STEREO_COUNT>
0

> <PUBCHEM_BOND_UDEF_STEREO_COUNT>
0

> <PUBCHEM_ISOTOPIC_ATOM_COUNT>
0

> <PUBCHEM_COMPONENT_COUNT>
1

> <PUBCHEM_CACTVS_TAUTO_COUNT>
1

> <PUBCHEM_COORDINATE_TYPE>
1
5
255

> <PUBCHEM_BONDANNOTATIONS>
10  41  6
13  17  8
13  21  8
14  18  8
14  23  8
17  20  8
18  30  8
19  20  5
20  28  8
21  31  8
22  53  5
23  33  8
27  32  8
27  35  8
28  31  8
30  34  8
32  37  8
33  34  8
35  38  8
37  39  8
38  39  8
7  11  6
8  12  5
9  40  5

$$$$

