124035
  -OEChem-07051212583D

 58 60  0     1  0  0  0  0  0999 V2000
   -1.2385    0.0366    0.2700 O   0  0  0  0  0  0  0  0  0  0  0  0
    2.7063    2.8131   -0.2382 O   0  0  0  0  0  0  0  0  0  0  0  0
    3.0486   -1.6340    1.4278 O   0  0  0  0  0  0  0  0  0  0  0  0
    0.3516    3.6203   -0.9381 O   0  0  0  0  0  0  0  0  0  0  0  0
   -7.4833   -0.1515   -0.2326 O   0  0  0  0  0  0  0  0  0  0  0  0
   -2.0206    1.2402    0.3188 C   0  0  1  0  0  0  0  0  0  0  0  0
   -1.5885    2.2189   -0.7713 C   0  0  0  0  0  0  0  0  0  0  0  0
    0.1091    0.2716    0.3623 C   0  0  0  0  0  0  0  0  0  0  0  0
    0.7084    1.4778   -0.0125 C   0  0  0  0  0  0  0  0  0  0  0  0
    0.8986   -0.7786    0.8324 C   0  0  0  0  0  0  0  0  0  0  0  0
   -0.1308    2.5507   -0.5848 C   0  0  0  0  0  0  0  0  0  0  0  0
    2.8710    0.6018    0.6031 C   0  0  0  0  0  0  0  0  0  0  0  0
    2.0893    1.6486    0.1130 C   0  0  0  0  0  0  0  0  0  0  0  0
    2.2780   -0.6106    0.9572 C   0  0  0  0  0  0  0  0  0  0  0  0
   -3.4810    0.8685    0.1713 C   0  0  0  0  0  0  0  0  0  0  0  0
    0.2719   -2.0824    1.2147 C   0  0  0  0  0  0  0  0  0  0  0  0
    4.3503    0.7748    0.7461 C   0  0  0  0  0  0  0  0  0  0  0  0
   -4.3738    1.1245    1.2114 C   0  0  0  0  0  0  0  0  0  0  0  0
   -3.9317    0.2695   -1.0047 C   0  0  0  0  0  0  0  0  0  0  0  0
    0.1905   -3.0510    0.0626 C   0  0  0  0  0  0  0  0  0  0  0  0
    5.1079    0.3710   -0.4928 C   0  0  0  0  0  0  0  0  0  0  0  0
   -5.7189    0.7812    1.0755 C   0  0  0  0  0  0  0  0  0  0  0  0
   -5.2768   -0.0736   -1.1406 C   0  0  0  0  0  0  0  0  0  0  0  0
   -0.9122   -3.5883   -0.4934 C   0  0  0  0  0  0  0  0  0  0  0  0
   -6.1705    0.1821   -0.1005 C   0  0  0  0  0  0  0  0  0  0  0  0
    6.3457   -0.1535   -0.5745 C   0  0  0  0  0  0  0  0  0  0  0  0
   -0.9213   -4.5523   -1.6457 C   0  0  0  0  0  0  0  0  0  0  0  0
   -2.2781   -3.2460    0.0399 C   0  0  0  0  0  0  0  0  0  0  0  0
    7.0440   -0.5349   -1.8489 C   0  0  0  0  0  0  0  0  0  0  0  0
    7.1546   -0.3944    0.6723 C   0  0  0  0  0  0  0  0  0  0  0  0
   -1.8673    1.6969    1.3079 H   0  0  0  0  0  0  0  0  0  0  0  0
   -2.1736    3.1432   -0.7078 H   0  0  0  0  0  0  0  0  0  0  0  0
   -1.6917    1.8020   -1.7795 H   0  0  0  0  0  0  0  0  0  0  0  0
    0.8676   -2.5657    2.0010 H   0  0  0  0  0  0  0  0  0  0  0  0
   -0.6802   -1.9031    1.7191 H   0  0  0  0  0  0  0  0  0  0  0  0
    4.5942    1.8183    0.9826 H   0  0  0  0  0  0  0  0  0  0  0  0
    4.6925    0.2334    1.6346 H   0  0  0  0  0  0  0  0  0  0  0  0
   -4.0372    1.5903    2.1337 H   0  0  0  0  0  0  0  0  0  0  0  0
   -3.2491    0.0500   -1.8209 H   0  0  0  0  0  0  0  0  0  0  0  0
    1.1526   -3.3470   -0.3552 H   0  0  0  0  0  0  0  0  0  0  0  0
    4.5900    0.5437   -1.4363 H   0  0  0  0  0  0  0  0  0  0  0  0
    3.5976    2.6346   -0.5779 H   0  0  0  0  0  0  0  0  0  0  0  0
    3.9540   -1.5630    1.0866 H   0  0  0  0  0  0  0  0  0  0  0  0
   -6.4103    0.9830    1.8891 H   0  0  0  0  0  0  0  0  0  0  0  0
   -5.6154   -0.5426   -2.0605 H   0  0  0  0  0  0  0  0  0  0  0  0
    0.0937   -4.7802   -1.9877 H   0  0  0  0  0  0  0  0  0  0  0  0
   -1.3949   -5.4944   -1.3517 H   0  0  0  0  0  0  0  0  0  0  0  0
   -1.4727   -4.1311   -2.4922 H   0  0  0  0  0  0  0  0  0  0  0  0
   -2.3177   -2.4483    0.7797 H   0  0  0  0  0  0  0  0  0  0  0  0
   -2.9234   -2.9263   -0.7865 H   0  0  0  0  0  0  0  0  0  0  0  0
   -2.7302   -4.1356    0.4920 H   0  0  0  0  0  0  0  0  0  0  0  0
    6.4102   -0.3579   -2.7240 H   0  0  0  0  0  0  0  0  0  0  0  0
    7.9596    0.0517   -1.9748 H   0  0  0  0  0  0  0  0  0  0  0  0
    7.3066   -1.5975   -1.8360 H   0  0  0  0  0  0  0  0  0  0  0  0
    6.7922    0.1420    1.5522 H   0  0  0  0  0  0  0  0  0  0  0  0
    7.1775   -1.4643    0.9034 H   0  0  0  0  0  0  0  0  0  0  0  0
    8.1865   -0.0582    0.5190 H   0  0  0  0  0  0  0  0  0  0  0  0
   -7.6193   -0.5547   -1.1073 H   0  0  0  0  0  0  0  0  0  0  0  0
  1  6  1  0  0  0  0
  1  8  1  0  0  0  0
  2 13  1  0  0  0  0
  2 42  1  0  0  0  0
  3 14  1  0  0  0  0
  3 43  1  0  0  0  0
  4 11  2  0  0  0  0
  5 25  1  0  0  0  0
  5 58  1  0  0  0  0
  6  7  1  0  0  0  0
  6 15  1  0  0  0  0
  6 31  1  0  0  0  0
  7 11  1  0  0  0  0
  7 32  1  0  0  0  0
  7 33  1  0  0  0  0
  8  9  1  0  0  0  0
  8 10  2  0  0  0  0
  9 11  1  0  0  0  0
  9 13  2  0  0  0  0
 10 14  1  0  0  0  0
 10 16  1  0  0  0  0
 12 13  1  0  0  0  0
 12 14  2  0  0  0  0
 12 17  1  0  0  0  0
 15 18  2  0  0  0  0
 15 19  1  0  0  0  0
 16 20  1  0  0  0  0
 16 34  1  0  0  0  0
 16 35  1  0  0  0  0
 17 21  1  0  0  0  0
 17 36  1  0  0  0  0
 17 37  1  0  0  0  0
 18 22  1  0  0  0  0
 18 38  1  0  0  0  0
 19 23  2  0  0  0  0
 19 39  1  0  0  0  0
 20 24  2  0  0  0  0
 20 40  1  0  0  0  0
 21 26  2  0  0  0  0
 21 41  1  0  0  0  0
 22 25  2  0  0  0  0
 22 44  1  0  0  0  0
 23 25  1  0  0  0  0
 23 45  1  0  0  0  0
 24 27  1  0  0  0  0
 24 28  1  0  0  0  0
 26 29  1  0  0  0  0
 26 30  1  0  0  0  0
 27 46  1  0  0  0  0
 27 47  1  0  0  0  0
 27 48  1  0  0  0  0
 28 49  1  0  0  0  0
 28 50  1  0  0  0  0
 28 51  1  0  0  0  0
 29 52  1  0  0  0  0
 29 53  1  0  0  0  0
 29 54  1  0  0  0  0
 30 55  1  0  0  0  0
 30 56  1  0  0  0  0
 30 57  1  0  0  0  0
M  END
> <PUBCHEM_COMPOUND_CID>
124035

> <PUBCHEM_CONFORMER_RMSD>
0.8

> <PUBCHEM_CONFORMER_DIVERSEORDER>
1
34
95
20
102
111
86
78
73
103
104
93
110
50
66
82
109
96
13
41
118
10
59
69
6
116
49
32
64
105
7
108
87
120
21
106
26
101
88
18
55
84
52
85
60
76
40
36
107
83
35
71
72
67
23
57
119
81
42
28
114
16
15
22
115
17
56
46
38
27
48
25
113
121
63
37
79
65
80
33
29
53
94
31
43
54
8
91
5
62
97
75
89
117
98
12
3
44
14
24
92
68
30
90
9
77
100
74
4
112
2
61
45
99
19
47
51
11
39
58
70

> <PUBCHEM_MMFF94_PARTIAL_CHARGES>
39
1 -0.36
10 -0.14
11 0.42
12 -0.14
13 0.08
14 0.08
15 -0.14
16 0.28
17 0.28
18 -0.15
19 -0.15
2 -0.53
20 -0.29
21 -0.29
22 -0.15
23 -0.15
24 -0.28
25 0.08
26 -0.28
27 0.14
28 0.14
29 0.14
3 -0.53
30 0.14
38 0.15
39 0.15
4 -0.57
40 0.15
41 0.15
42 0.45
43 0.45
44 0.15
45 0.15
5 -0.53
58 0.45
6 0.42
7 0.06
8 0.08
9 0.09

> <PUBCHEM_EFFECTIVE_ROTOR_COUNT>
5.6

> <PUBCHEM_PHARMACOPHORE_FEATURES>
10
1 1 acceptor
1 2 donor
1 3 donor
1 4 acceptor
1 5 donor
3 24 27 28 hydrophobe
3 26 29 30 hydrophobe
6 1 6 7 8 9 11 rings
6 15 18 19 22 23 25 rings
6 8 9 10 12 13 14 rings

> <PUBCHEM_HEAVY_ATOM_COUNT>
30

> <PUBCHEM_ATOM_DEF_STEREO_COUNT>
1

> <PUBCHEM_ATOM_UDEF_STEREO_COUNT>
0

> <PUBCHEM_BOND_DEF_STEREO_COUNT>
0

> <PUBCHEM_BOND_UDEF_STEREO_COUNT>
0

> <PUBCHEM_ISOTOPIC_ATOM_COUNT>
0

> <PUBCHEM_COMPONENT_COUNT>
1

> <PUBCHEM_CACTVS_TAUTO_COUNT>
42

> <PUBCHEM_CONFORMER_ID>
0001E48300000001

> <PUBCHEM_MMFF94_ENERGY>
80.2643

> <PUBCHEM_FEATURE_SELFOVERLAP>
50.773

> <PUBCHEM_SHAPE_FINGERPRINT>
10050765 1 18121218684784059920
10906281 52 18058720455054219257
1100329 8 18340770321241920264
11421498 54 17822290249451160801
11488393 25 18049158070693578714
11524674 6 18040434395199006991
11578080 2 17533794697517904984
11991303 11 17774715372827977970
12011746 2 18201999936767113616
12058002 1 17388784626962446256
12107698 1 16081090376666641633
12156800 1 18051666903188889399
12236239 1 18114180822339465545
13140716 1 18198908015374851057
14117953 113 18411985763152131845
14289585 56 17845394205496818013
14790565 3 18411694421881856256
14840074 17 18272370892926411399
15131766 46 15193850374441064342
15183329 4 18408600375350576694
15297060 5 17967247594810076099
15849732 13 17775281651796934236
15927050 60 17979632334238792212
16090146 7 18187909682440964538
17138139 8 17609811642114078847
17492 54 18272661159722438251
18603816 31 17240492416172608710
18681886 176 18410580561015907433
19319366 153 17846782936007031826
20028762 73 18260831484096727495
20642791 13 17833286224696265464
21197605 99 18198054786838305531
21267235 1 18413385436853679553
21344244 181 18113609119327182446
21781051 124 18129081373389824891
22311459 1 18413108373219572288
23559900 14 18261678052585052136
23569917 315 18334570205971574383
23569943 247 17898560145460923334
23576562 1 17986945259046863948
244849 19 16806745957882540930
249057 3 18409728431172519116
3178227 256 18271232876806414689
335352 9 18413388714050499732
340366 18 18270676463724574532
4017518 198 18113050549876568846
404807 14 15291223394062266222
563151 248 17530969072640611391
6287921 2 17970630912405816283
6669772 16 18335418023688395870
7164475 11 17832428596619836414
9896288 288 17970338428932229825

> <PUBCHEM_SHAPE_MULTIPOLES>
588.04
15.2
4.03
1.29
5.35
4.1
0.16
-1.78
2.14
-1.31
1.5
0.49
0.39
-0.59

> <PUBCHEM_SHAPE_SELFOVERLAP>
1260.312

> <PUBCHEM_SHAPE_VOLUME>
326.4

> <PUBCHEM_COORDINATE_TYPE>
2
5
10

$$$$

