24892804
  -OEChem-07051213092D

 30 29  0     1  0  0  0  0  0999 V2000
    5.0981   -3.0311    0.0000 O   0  0  0  0  0  0  0  0  0  0  0  0
    6.3301   -2.1651    0.0000 O   0  0  0  0  0  0  0  0  0  0  0  0
    5.4641   -0.6651    0.0000 O   0  0  0  0  0  0  0  0  0  0  0  0
    2.0000   -2.6651    0.0000 O   0  0  0  0  0  0  0  0  0  0  0  0
    2.8660   -1.1651    0.0000 O   0  0  0  0  0  0  0  0  0  0  0  0
    4.5981    3.0311    0.0000 O   0  0  0  0  0  0  0  0  0  0  0  0
    3.0981    2.1651    0.0000 O   0  0  0  0  0  0  0  0  0  0  0  0
    4.5981   -2.1651    0.0000 C   0  0  2  0  0  0  0  0  0  0  0  0
    4.0981   -1.2990    0.0000 C   0  0  0  0  0  0  0  0  0  0  0  0
    4.5981   -0.4330    0.0000 C   0  0  0  0  0  0  0  0  0  0  0  0
    4.0981    0.4330    0.0000 C   0  0  0  0  0  0  0  0  0  0  0  0
    3.7320   -2.6651    0.0000 C   0  0  0  0  0  0  0  0  0  0  0  0
    5.4641   -1.6651    0.0000 C   0  0  0  0  0  0  0  0  0  0  0  0
    4.5981    1.2990    0.0000 C   0  0  0  0  0  0  0  0  0  0  0  0
    2.8660   -2.1651    0.0000 C   0  0  0  0  0  0  0  0  0  0  0  0
    4.0981    2.1651    0.0000 C   0  0  0  0  0  0  0  0  0  0  0  0
    3.6231   -0.9005    0.0000 H   0  0  0  0  0  0  0  0  0  0  0  0
    3.6231   -1.6976    0.0000 H   0  0  0  0  0  0  0  0  0  0  0  0
    5.0730   -0.8315    0.0000 H   0  0  0  0  0  0  0  0  0  0  0  0
    5.0730   -0.0345    0.0000 H   0  0  0  0  0  0  0  0  0  0  0  0
    3.6231    0.8315    0.0000 H   0  0  0  0  0  0  0  0  0  0  0  0
    3.6231    0.0345    0.0000 H   0  0  0  0  0  0  0  0  0  0  0  0
    3.3335   -3.1400    0.0000 H   0  0  0  0  0  0  0  0  0  0  0  0
    4.1306   -3.1400    0.0000 H   0  0  0  0  0  0  0  0  0  0  0  0
    5.0730    0.9005    0.0000 H   0  0  0  0  0  0  0  0  0  0  0  0
    5.0730    1.6976    0.0000 H   0  0  0  0  0  0  0  0  0  0  0  0
    4.7881   -3.5680    0.0000 H   0  0  0  0  0  0  0  0  0  0  0  0
    6.8671   -1.8551    0.0000 H   0  0  0  0  0  0  0  0  0  0  0  0
    2.0000   -3.2851    0.0000 H   0  0  0  0  0  0  0  0  0  0  0  0
    4.2881    3.5680    0.0000 H   0  0  0  0  0  0  0  0  0  0  0  0
  8  1  1  1  0  0  0
  1 27  1  0  0  0  0
  2 13  1  0  0  0  0
  2 28  1  0  0  0  0
  3 13  2  0  0  0  0
  4 15  1  0  0  0  0
  4 29  1  0  0  0  0
  5 15  2  0  0  0  0
  6 16  1  0  0  0  0
  6 30  1  0  0  0  0
  7 16  2  0  0  0  0
  8  9  1  0  0  0  0
  8 12  1  0  0  0  0
  8 13  1  0  0  0  0
  9 10  1  0  0  0  0
  9 17  1  0  0  0  0
  9 18  1  0  0  0  0
 10 11  1  0  0  0  0
 10 19  1  0  0  0  0
 10 20  1  0  0  0  0
 11 14  1  0  0  0  0
 11 21  1  0  0  0  0
 11 22  1  0  0  0  0
 12 15  1  0  0  0  0
 12 23  1  0  0  0  0
 12 24  1  0  0  0  0
 14 16  1  0  0  0  0
 14 25  1  0  0  0  0
 14 26  1  0  0  0  0
M  END
> <PUBCHEM_COMPOUND_CID>
24892804

> <PUBCHEM_COMPOUND_CANONICALIZED>
1

> <PUBCHEM_CACTVS_COMPLEXITY>
286

> <PUBCHEM_CACTVS_HBOND_ACCEPTOR>
7

> <PUBCHEM_CACTVS_HBOND_DONOR>
4

> <PUBCHEM_CACTVS_ROTATABLE_BOND>
8

> <PUBCHEM_CACTVS_SUBSKEYS>
AAADccBwOAAAAAAAAAAAAAAAAAAAAAAAAAAAAAAAAAAAAAAAAAAAGgAACAAADESAgAAACAAAAgAIAACQCAIAAAAAAAAAAAFAAAABABYAAAAAQAAFIAABAAHLyOCOAAAAAAAAAAAAAAAAAAAAAAAAAAAAAA==

> <PUBCHEM_IUPAC_OPENEYE_NAME>
(2R)-2-hydroxyhexane-1,2,6-tricarboxylic acid

> <PUBCHEM_IUPAC_CAS_NAME>
(2R)-2-hydroxyhexane-1,2,6-tricarboxylic acid

> <PUBCHEM_IUPAC_NAME>
(2R)-2-hydroxyhexane-1,2,6-tricarboxylic acid

> <PUBCHEM_IUPAC_SYSTEMATIC_NAME>
(2R)-2-oxidanylhexane-1,2,6-tricarboxylic acid

> <PUBCHEM_IUPAC_TRADITIONAL_NAME>
(2R)-2-hydroxyhexane-1,2,6-tricarboxylic acid

> <PUBCHEM_IUPAC_INCHI>
InChI=1S/C9H14O7/c10-6(11)3-1-2-4-9(16,8(14)15)5-7(12)13/h16H,1-5H2,(H,10,11)(H,12,13)(H,14,15)/t9-/m1/s1

> <PUBCHEM_IUPAC_INCHIKEY>
YNPKOQYWJZNZGP-SECBINFHSA-N

> <PUBCHEM_XLOGP3_AA>
-0.9

> <PUBCHEM_EXACT_MASS>
234.073953

> <PUBCHEM_MOLECULAR_FORMULA>
C9H14O7

> <PUBCHEM_MOLECULAR_WEIGHT>
234.20326

> <PUBCHEM_OPENEYE_CAN_SMILES>
C(CCC(CC(=O)O)(C(=O)O)O)CC(=O)O

> <PUBCHEM_OPENEYE_ISO_SMILES>
C(CC[C@@](CC(=O)O)(C(=O)O)O)CC(=O)O

> <PUBCHEM_CACTVS_TPSA>
132

> <PUBCHEM_MONOISOTOPIC_WEIGHT>
234.073953

> <PUBCHEM_TOTAL_CHARGE>
0

> <PUBCHEM_HEAVY_ATOM_COUNT>
16

> <PUBCHEM_ATOM_DEF_STEREO_COUNT>
1

> <PUBCHEM_ATOM_UDEF_STEREO_COUNT>
0

> <PUBCHEM_BOND_DEF_STEREO_COUNT>
0

> <PUBCHEM_BOND_UDEF_STEREO_COUNT>
0

> <PUBCHEM_ISOTOPIC_ATOM_COUNT>
0

> <PUBCHEM_COMPONENT_COUNT>
1

> <PUBCHEM_CACTVS_TAUTO_COUNT>
1

> <PUBCHEM_COORDINATE_TYPE>
1
5
255

> <PUBCHEM_BONDANNOTATIONS>
8  1  5

$$$$

