101712
  -OEChem-07051213092D

 72 76  0     1  0  0  0  0  0999 V2000
    7.3358   -0.9801    0.0000 O   0  0  0  0  0  0  0  0  0  0  0  0
   10.4045   -0.9801    0.0000 O   0  0  0  0  0  0  0  0  0  0  0  0
    6.6876    3.6332    0.0000 O   0  0  0  0  0  0  0  0  0  0  0  0
    5.0403    3.0980    0.0000 O   0  0  0  0  0  0  0  0  0  0  0  0
    8.6439    3.2174    0.0000 O   0  0  0  0  0  0  0  0  0  0  0  0
    9.1066   -5.1744    0.0000 O   0  0  0  0  0  0  0  0  0  0  0  0
    6.0695    5.5353    0.0000 O   0  0  0  0  0  0  0  0  0  0  0  0
    4.1132    5.9511    0.0000 O   0  0  0  0  0  0  0  0  0  0  0  0
    2.7750    4.4648    0.0000 O   0  0  0  0  0  0  0  0  0  0  0  0
   11.0636   -5.5869    0.0000 O   0  0  0  0  0  0  0  0  0  0  0  0
    2.4149    2.7706    0.0000 O   0  0  0  0  0  0  0  0  0  0  0  0
    8.8747   -0.4801    0.0000 C   0  0  1  0  0  0  0  0  0  0  0  0
    8.8747   -1.4801    0.0000 C   0  0  1  0  0  0  0  0  0  0  0  0
    7.9236   -0.1710    0.0000 C   0  0  1  0  0  0  0  0  0  0  0  0
    9.8209   -1.7848    0.0000 C   0  0  2  0  0  0  0  0  0  0  0  0
    7.9236   -1.7891    0.0000 C   0  0  0  0  0  0  0  0  0  0  0  0
    9.8209   -0.1753    0.0000 C   0  0  0  0  0  0  0  0  0  0  0  0
    7.6146    0.7800    0.0000 C   0  0  0  0  0  0  0  0  0  0  0  0
   10.1316   -2.7353    0.0000 C   0  0  0  0  0  0  0  0  0  0  0  0
    8.2838    1.5232    0.0000 C   0  0  0  0  0  0  0  0  0  0  0  0
    6.6365    0.9879    0.0000 C   0  0  0  0  0  0  0  0  0  0  0  0
    9.4637   -3.4796    0.0000 C   0  0  0  0  0  0  0  0  0  0  0  0
   11.1101   -2.9415    0.0000 C   0  0  0  0  0  0  0  0  0  0  0  0
    7.9747    2.4742    0.0000 C   0  0  0  0  0  0  0  0  0  0  0  0
    6.3274    1.9390    0.0000 C   0  0  0  0  0  0  0  0  0  0  0  0
    6.9966    2.6821    0.0000 C   0  0  0  0  0  0  0  0  0  0  0  0
    5.7094    3.8411    0.0000 C   0  0  2  0  0  0  0  0  0  0  0  0
    5.4004    4.7922    0.0000 C   0  0  1  0  0  0  0  0  0  0  0  0
    4.4222    5.0001    0.0000 C   0  0  2  0  0  0  0  0  0  0  0  0
    3.7531    4.2569    0.0000 C   0  0  1  0  0  0  0  0  0  0  0  0
    9.7744   -4.4301    0.0000 C   0  0  0  0  0  0  0  0  0  0  0  0
    4.0621    3.3059    0.0000 C   0  0  1  0  0  0  0  0  0  0  0  0
   11.4207   -3.8920    0.0000 C   0  0  0  0  0  0  0  0  0  0  0  0
   10.7529   -4.6364    0.0000 C   0  0  0  0  0  0  0  0  0  0  0  0
    3.3930    2.5627    0.0000 C   0  0  0  0  0  0  0  0  0  0  0  0
    9.6220    3.0094    0.0000 C   0  0  0  0  0  0  0  0  0  0  0  0
    9.4172   -6.1250    0.0000 C   0  0  0  0  0  0  0  0  0  0  0  0
   12.0421   -5.7931    0.0000 C   0  0  0  0  0  0  0  0  0  0  0  0
    8.8758    0.3699    0.0000 H   0  0  0  0  0  0  0  0  0  0  0  0
    8.8758   -2.3301    0.0000 H   0  0  0  0  0  0  0  0  0  0  0  0
    7.3113   -0.0741    0.0000 H   0  0  0  0  0  0  0  0  0  0  0  0
   10.4334   -1.8810    0.0000 H   0  0  0  0  0  0  0  0  0  0  0  0
    7.3867   -2.0991    0.0000 H   0  0  0  0  0  0  0  0  0  0  0  0
    8.1758   -2.3555    0.0000 H   0  0  0  0  0  0  0  0  0  0  0  0
   10.3583    0.1339    0.0000 H   0  0  0  0  0  0  0  0  0  0  0  0
    9.5699    0.3916    0.0000 H   0  0  0  0  0  0  0  0  0  0  0  0
    8.8902    1.3943    0.0000 H   0  0  0  0  0  0  0  0  0  0  0  0
    6.2216    0.5272    0.0000 H   0  0  0  0  0  0  0  0  0  0  0  0
    8.8570   -3.3518    0.0000 H   0  0  0  0  0  0  0  0  0  0  0  0
   11.5241   -2.4801    0.0000 H   0  0  0  0  0  0  0  0  0  0  0  0
    5.7210    2.0679    0.0000 H   0  0  0  0  0  0  0  0  0  0  0  0
    5.2088    5.3818    0.0000 H   0  0  0  0  0  0  0  0  0  0  0  0
    6.1243    4.3018    0.0000 H   0  0  0  0  0  0  0  0  0  0  0  0
    3.8158    5.1290    0.0000 H   0  0  0  0  0  0  0  0  0  0  0  0
    3.3383    3.7962    0.0000 H   0  0  0  0  0  0  0  0  0  0  0  0
    4.2537    2.7162    0.0000 H   0  0  0  0  0  0  0  0  0  0  0  0
   12.0274   -4.0199    0.0000 H   0  0  0  0  0  0  0  0  0  0  0  0
    3.1608    1.9879    0.0000 H   0  0  0  0  0  0  0  0  0  0  0  0
    3.9188    2.2342    0.0000 H   0  0  0  0  0  0  0  0  0  0  0  0
    5.8779    6.1250    0.0000 H   0  0  0  0  0  0  0  0  0  0  0  0
    3.5068    6.0800    0.0000 H   0  0  0  0  0  0  0  0  0  0  0  0
    2.5834    5.0545    0.0000 H   0  0  0  0  0  0  0  0  0  0  0  0
    9.4931    2.4030    0.0000 H   0  0  0  0  0  0  0  0  0  0  0  0
   10.2285    2.8806    0.0000 H   0  0  0  0  0  0  0  0  0  0  0  0
    9.7509    3.6159    0.0000 H   0  0  0  0  0  0  0  0  0  0  0  0
    2.0000    2.3099    0.0000 H   0  0  0  0  0  0  0  0  0  0  0  0
    8.8279   -6.3176    0.0000 H   0  0  0  0  0  0  0  0  0  0  0  0
    9.6098   -6.7143    0.0000 H   0  0  0  0  0  0  0  0  0  0  0  0
   10.0065   -5.9323    0.0000 H   0  0  0  0  0  0  0  0  0  0  0  0
   11.9142   -6.3998    0.0000 H   0  0  0  0  0  0  0  0  0  0  0  0
   12.6487   -5.9210    0.0000 H   0  0  0  0  0  0  0  0  0  0  0  0
   12.1699   -5.1864    0.0000 H   0  0  0  0  0  0  0  0  0  0  0  0
  1 14  1  0  0  0  0
  1 16  1  0  0  0  0
  2 15  1  0  0  0  0
  2 17  1  0  0  0  0
  3 26  1  0  0  0  0
 27  3  1  6  0  0  0
  4 27  1  0  0  0  0
  4 32  1  0  0  0  0
  5 24  1  0  0  0  0
  5 36  1  0  0  0  0
  6 31  1  0  0  0  0
  6 37  1  0  0  0  0
 28  7  1  1  0  0  0
  7 60  1  0  0  0  0
 29  8  1  6  0  0  0
  8 61  1  0  0  0  0
 30  9  1  1  0  0  0
  9 62  1  0  0  0  0
 10 34  1  0  0  0  0
 10 38  1  0  0  0  0
 11 35  1  0  0  0  0
 11 66  1  0  0  0  0
 12 13  1  0  0  0  0
 12 14  1  0  0  0  0
 12 17  1  0  0  0  0
 12 39  1  6  0  0  0
 13 15  1  0  0  0  0
 13 16  1  0  0  0  0
 13 40  1  6  0  0  0
 14 18  1  6  0  0  0
 14 41  1  0  0  0  0
 15 19  1  1  0  0  0
 15 42  1  0  0  0  0
 16 43  1  0  0  0  0
 16 44  1  0  0  0  0
 17 45  1  0  0  0  0
 17 46  1  0  0  0  0
 18 20  2  0  0  0  0
 18 21  1  0  0  0  0
 19 22  2  0  0  0  0
 19 23  1  0  0  0  0
 20 24  1  0  0  0  0
 20 47  1  0  0  0  0
 21 25  2  0  0  0  0
 21 48  1  0  0  0  0
 22 31  1  0  0  0  0
 22 49  1  0  0  0  0
 23 33  2  0  0  0  0
 23 50  1  0  0  0  0
 24 26  2  0  0  0  0
 25 26  1  0  0  0  0
 25 51  1  0  0  0  0
 27 28  1  0  0  0  0
 27 53  1  0  0  0  0
 28 29  1  0  0  0  0
 28 52  1  0  0  0  0
 29 30  1  0  0  0  0
 29 54  1  0  0  0  0
 30 32  1  0  0  0  0
 30 55  1  0  0  0  0
 31 34  2  0  0  0  0
 32 35  1  6  0  0  0
 32 56  1  0  0  0  0
 33 34  1  0  0  0  0
 33 57  1  0  0  0  0
 35 58  1  0  0  0  0
 35 59  1  0  0  0  0
 36 63  1  0  0  0  0
 36 64  1  0  0  0  0
 36 65  1  0  0  0  0
 37 67  1  0  0  0  0
 37 68  1  0  0  0  0
 37 69  1  0  0  0  0
 38 70  1  0  0  0  0
 38 71  1  0  0  0  0
 38 72  1  0  0  0  0
M  END
> <PUBCHEM_COMPOUND_CID>
101712

> <PUBCHEM_COMPOUND_CANONICALIZED>
1

> <PUBCHEM_CACTVS_COMPLEXITY>
757

> <PUBCHEM_CACTVS_HBOND_ACCEPTOR>
11

> <PUBCHEM_CACTVS_HBOND_DONOR>
4

> <PUBCHEM_CACTVS_ROTATABLE_BOND>
8

> <PUBCHEM_CACTVS_SUBSKEYS>
AAADcfB4PAAAAAAAAAAAAAAAAAAAASJAAAA0YIAAAAASAAABQAAAGgAACAAADRSwmAMyDoAABgCAAiBCAAACCAAgIAAIiAAGiIgdNiKEMRqieCKlwBEPqAfA4PwOoAABAAAAQABAAAIAAACAAAAAAAAAAA==

> <PUBCHEM_IUPAC_OPENEYE_NAME>
(2S,3R,4S,5S,6R)-2-[4-[(3R,3aR,6S,6aR)-3-(3,4-dimethoxyphenyl)-1,3,3a,4,6,6a-hexahydrofuro[3,4-c]furan-6-yl]-2-methoxy-phenoxy]-6-(hydroxymethyl)tetrahydropyran-3,4,5-triol

> <PUBCHEM_IUPAC_CAS_NAME>
(2S,3R,4S,5S,6R)-2-[4-[(3R,3aR,6S,6aR)-3-(3,4-dimethoxyphenyl)-1,3,3a,4,6,6a-hexahydrofuro[3,4-c]furan-6-yl]-2-methoxyphenoxy]-6-(hydroxymethyl)oxane-3,4,5-triol

> <PUBCHEM_IUPAC_NAME>
(2S,3R,4S,5S,6R)-2-[4-[(3R,3aR,6S,6aR)-3-(3,4-dimethoxyphenyl)-1,3,3a,4,6,6a-hexahydrofuro[3,4-c]furan-6-yl]-2-methoxyphenoxy]-6-(hydroxymethyl)oxane-3,4,5-triol

> <PUBCHEM_IUPAC_SYSTEMATIC_NAME>
(2S,3R,4S,5S,6R)-2-[4-[(3R,3aR,6S,6aR)-3-(3,4-dimethoxyphenyl)-1,3,3a,4,6,6a-hexahydrofuro[3,4-c]furan-6-yl]-2-methoxy-phenoxy]-6-(hydroxymethyl)oxane-3,4,5-triol

> <PUBCHEM_IUPAC_TRADITIONAL_NAME>
(2S,3R,4S,5S,6R)-2-[4-[(3R,3aR,6S,6aR)-3-(3,4-dimethoxyphenyl)-1,3,3a,4,6,6a-hexahydrofuro[3,4-c]furan-6-yl]-2-methoxy-phenoxy]-6-methylol-tetrahydropyran-3,4,5-triol

> <PUBCHEM_IUPAC_INCHI>
InChI=1S/C27H34O11/c1-32-17-6-4-13(8-19(17)33-2)25-15-11-36-26(16(15)12-35-25)14-5-7-18(20(9-14)34-3)37-27-24(31)23(30)22(29)21(10-28)38-27/h4-9,15-16,21-31H,10-12H2,1-3H3/t15-,16-,21+,22+,23-,24+,25-,26+,27+/m0/s1

> <PUBCHEM_IUPAC_INCHIKEY>
KFFCKOBAHMGTMW-LGQRSHAYSA-N

> <PUBCHEM_XLOGP3>
0

> <PUBCHEM_EXACT_MASS>
534.210112

> <PUBCHEM_MOLECULAR_FORMULA>
C27H34O11

> <PUBCHEM_MOLECULAR_WEIGHT>
534.55226

> <PUBCHEM_OPENEYE_CAN_SMILES>
COC1=C(C=C(C=C1)C2C3COC(C3CO2)C4=CC(=C(C=C4)OC5C(C(C(C(O5)CO)O)O)O)OC)OC

> <PUBCHEM_OPENEYE_ISO_SMILES>
COC1=C(C=C(C=C1)[C@H]2[C@H]3CO[C@@H]([C@H]3CO2)C4=CC(=C(C=C4)O[C@H]5[C@@H]([C@H]([C@@H]([C@H](O5)CO)O)O)O)OC)OC

> <PUBCHEM_CACTVS_TPSA>
146

> <PUBCHEM_MONOISOTOPIC_WEIGHT>
534.210112

> <PUBCHEM_TOTAL_CHARGE>
0

> <PUBCHEM_HEAVY_ATOM_COUNT>
38

> <PUBCHEM_ATOM_DEF_STEREO_COUNT>
9

> <PUBCHEM_ATOM_UDEF_STEREO_COUNT>
0

> <PUBCHEM_BOND_DEF_STEREO_COUNT>
0

> <PUBCHEM_BOND_UDEF_STEREO_COUNT>
0

> <PUBCHEM_ISOTOPIC_ATOM_COUNT>
0

> <PUBCHEM_COMPONENT_COUNT>
1

> <PUBCHEM_CACTVS_TAUTO_COUNT>
1

> <PUBCHEM_COORDINATE_TYPE>
1
5
255

> <PUBCHEM_BONDANNOTATIONS>
12  39  6
13  40  6
14  18  6
15  19  5
18  20  8
18  21  8
19  22  8
19  23  8
20  24  8
21  25  8
22  31  8
23  33  8
24  26  8
25  26  8
27  3  6
31  34  8
32  35  6
33  34  8
28  7  5
29  8  6
30  9  5

$$$$

