440416
  -OEChem-07051212493D

 36 37  0     1  0  0  0  0  0999 V2000
    3.7619   -1.4239   -0.0309 P   0  0  0  0  0  0  0  0  0  0  0  0
    0.3411    0.9639   -1.1346 O   0  0  0  0  0  0  0  0  0  0  0  0
   -1.5556    2.9337    1.1852 O   0  0  0  0  0  0  0  0  0  0  0  0
    0.4579    3.8683   -0.3994 O   0  0  0  0  0  0  0  0  0  0  0  0
    2.8183   -0.2440   -0.6133 O   0  0  0  0  0  0  0  0  0  0  0  0
   -3.7321    1.0221   -0.5364 O   0  0  0  0  0  0  0  0  0  0  0  0
   -3.5251   -3.4818    0.3787 O   0  0  0  0  0  0  0  0  0  0  0  0
    2.8462   -2.1225    1.1043 O   0  0  0  0  0  0  0  0  0  0  0  0
    4.8658   -0.6130    0.8287 O   0  0  0  0  0  0  0  0  0  0  0  0
    4.3230   -2.3552   -1.0654 O   0  0  0  0  0  0  0  0  0  0  0  0
   -1.6260    0.0706   -0.2417 N   0  0  0  0  0  0  0  0  0  0  0  0
   -3.5944   -1.1990    0.0268 N   0  0  0  0  0  0  0  0  0  0  0  0
   -0.9030    1.2850   -0.4913 C   0  0  1  0  0  0  0  0  0  0  0  0
   -0.5504    2.0238    0.7882 C   0  0  1  0  0  0  0  0  0  0  0  0
    0.7372    2.7215    0.4034 C   0  0  1  0  0  0  0  0  0  0  0  0
    1.4110    1.6821   -0.4819 C   0  0  1  0  0  0  0  0  0  0  0  0
    2.2487    0.6783    0.2990 C   0  0  0  0  0  0  0  0  0  0  0  0
   -0.8797   -1.0598    0.2936 C   0  0  0  0  0  0  0  0  0  0  0  0
   -3.0255    0.0477   -0.2692 C   0  0  0  0  0  0  0  0  0  0  0  0
   -1.4727   -2.3720   -0.1761 C   0  0  0  0  0  0  0  0  0  0  0  0
   -2.9465   -2.4256    0.1323 C   0  0  0  0  0  0  0  0  0  0  0  0
   -1.4846    1.9226   -1.1679 H   0  0  0  0  0  0  0  0  0  0  0  0
   -0.3664    1.3324    1.6182 H   0  0  0  0  0  0  0  0  0  0  0  0
    1.3305    3.0471    1.2626 H   0  0  0  0  0  0  0  0  0  0  0  0
    2.0158    2.1345   -1.2758 H   0  0  0  0  0  0  0  0  0  0  0  0
    1.6549    0.1380    1.0401 H   0  0  0  0  0  0  0  0  0  0  0  0
    3.0526    1.2051    0.8234 H   0  0  0  0  0  0  0  0  0  0  0  0
   -0.9131   -0.9924    1.3870 H   0  0  0  0  0  0  0  0  0  0  0  0
    0.1601   -1.0472   -0.0294 H   0  0  0  0  0  0  0  0  0  0  0  0
   -0.9715   -3.2104    0.3185 H   0  0  0  0  0  0  0  0  0  0  0  0
   -1.3545   -2.4861   -1.2598 H   0  0  0  0  0  0  0  0  0  0  0  0
   -1.2080    3.4436    1.9367 H   0  0  0  0  0  0  0  0  0  0  0  0
    1.3111    4.2600   -0.6532 H   0  0  0  0  0  0  0  0  0  0  0  0
   -4.6057   -1.2169    0.1264 H   0  0  0  0  0  0  0  0  0  0  0  0
    3.1831   -2.9235    1.5592 H   0  0  0  0  0  0  0  0  0  0  0  0
    5.6200   -1.1053    1.2172 H   0  0  0  0  0  0  0  0  0  0  0  0
  1  5  1  0  0  0  0
  1  8  1  0  0  0  0
  1  9  1  0  0  0  0
  1 10  2  0  0  0  0
  2 13  1  0  0  0  0
  2 16  1  0  0  0  0
  3 14  1  0  0  0  0
  3 32  1  0  0  0  0
  4 15  1  0  0  0  0
  4 33  1  0  0  0  0
  5 17  1  0  0  0  0
  6 19  2  0  0  0  0
  7 21  2  0  0  0  0
  8 35  1  0  0  0  0
  9 36  1  0  0  0  0
 11 13  1  0  0  0  0
 11 18  1  0  0  0  0
 11 19  1  0  0  0  0
 12 19  1  0  0  0  0
 12 21  1  0  0  0  0
 12 34  1  0  0  0  0
 13 14  1  0  0  0  0
 13 22  1  0  0  0  0
 14 15  1  0  0  0  0
 14 23  1  0  0  0  0
 15 16  1  0  0  0  0
 15 24  1  0  0  0  0
 16 17  1  0  0  0  0
 16 25  1  0  0  0  0
 17 26  1  0  0  0  0
 17 27  1  0  0  0  0
 18 20  1  0  0  0  0
 18 28  1  0  0  0  0
 18 29  1  0  0  0  0
 20 21  1  0  0  0  0
 20 30  1  0  0  0  0
 20 31  1  0  0  0  0
M  END
> <PUBCHEM_COMPOUND_CID>
440416

> <PUBCHEM_CONFORMER_RMSD>
0.8

> <PUBCHEM_CONFORMER_DIVERSEORDER>
1
11
34
27
21
5
26
16
24
6
20
18
15
23
22
2
36
35
3
19
8
30
7
10
32
17
31
14
29
28
13
25
12
9
33
4

> <PUBCHEM_MMFF94_PARTIAL_CHARGES>
26
1 1.51
10 -0.7
11 -0.66
12 -0.49
13 0.58
14 0.28
15 0.28
16 0.28
17 0.28
18 0.3
19 0.69
2 -0.56
20 0.06
21 0.57
3 -0.68
32 0.4
33 0.4
34 0.37
35 0.5
36 0.5
4 -0.68
5 -0.55
6 -0.57
7 -0.57
8 -0.77
9 -0.77

> <PUBCHEM_EFFECTIVE_ROTOR_COUNT>
5.8

> <PUBCHEM_PHARMACOPHORE_FEATURES>
14
1 10 acceptor
1 12 donor
1 2 acceptor
1 3 acceptor
1 3 donor
1 4 acceptor
1 4 donor
1 6 acceptor
1 7 acceptor
1 8 acceptor
1 9 acceptor
4 1 8 9 10 anion
5 2 13 14 15 16 rings
6 11 12 18 19 20 21 rings

> <PUBCHEM_HEAVY_ATOM_COUNT>
21

> <PUBCHEM_ATOM_DEF_STEREO_COUNT>
4

> <PUBCHEM_ATOM_UDEF_STEREO_COUNT>
0

> <PUBCHEM_BOND_DEF_STEREO_COUNT>
0

> <PUBCHEM_BOND_UDEF_STEREO_COUNT>
0

> <PUBCHEM_ISOTOPIC_ATOM_COUNT>
0

> <PUBCHEM_COMPONENT_COUNT>
1

> <PUBCHEM_CACTVS_TAUTO_COUNT>
3

> <PUBCHEM_CONFORMER_ID>
0006B86000000001

> <PUBCHEM_MMFF94_ENERGY>
14.5725

> <PUBCHEM_FEATURE_SELFOVERLAP>
71.09

> <PUBCHEM_SHAPE_FINGERPRINT>
1100329 8 18410853287455017481
12506688 2 18337674113909716896
12553582 1 18337658776581613374
13140716 1 18335979779513327203
13533116 47 17975973155974547715
138480 1 15168264149555053016
14081887 123 18265917881016793418
14790565 3 17906169912327797953
14863182 85 16975046927071977231
14866123 147 17975125762609447835
15352361 1 18410576163006371030
15403338 16 13961569886225422378
15422964 175 18335991869809575804
16752209 62 18124886904033427868
16945 1 18268434529656775485
19049666 15 18194125110251343873
19591789 44 17184176787105700103
20291156 8 18412262818059056514
20510252 161 18117847826666736400
20600515 1 18261099816167888348
20645477 70 17837222480413228095
21279426 13 18341342111272076871
21421861 104 18124877846137103819
23184049 29 18410293618677216604
23419403 2 17389137630235217409
23557571 272 18408612474183954570
23559900 14 18408611340344327560
238078 22 18411691110978184998
314173 41 18412542094012388238
7097593 13 18191585246706653463
7364860 26 17977383837132715680
81228 2 18043796800519829468
9709674 26 18189054373103916470

> <PUBCHEM_SHAPE_MULTIPOLES>
373.23
7.22
4.26
0.92
3.82
1.02
0.04
-7
0.06
-0.83
0.46
0.36
0.1
0.17

> <PUBCHEM_SHAPE_SELFOVERLAP>
759.962

> <PUBCHEM_SHAPE_VOLUME>
217.5

> <PUBCHEM_COORDINATE_TYPE>
2
5
10

$$$$

