7244
  -OEChem-07051213063D

 13 13  0     0  0  0  0  0  0999 V2000
    2.4775   -1.1480    0.0001 Br  0  0  0  0  0  0  0  0  0  0  0  0
    1.3778    1.7730   -0.0001 O   0  0  0  0  0  0  0  0  0  0  0  0
    0.3911    0.8324    0.0000 C   0  0  0  0  0  0  0  0  0  0  0  0
    0.6854   -0.5310    0.0000 C   0  0  0  0  0  0  0  0  0  0  0  0
   -0.9369    1.2593    0.0001 C   0  0  0  0  0  0  0  0  0  0  0  0
   -0.3482   -1.4676   -0.0001 C   0  0  0  0  0  0  0  0  0  0  0  0
   -1.9706    0.3227    0.0001 C   0  0  0  0  0  0  0  0  0  0  0  0
   -1.6762   -1.0407    0.0000 C   0  0  0  0  0  0  0  0  0  0  0  0
   -1.1737    2.3199    0.0001 H   0  0  0  0  0  0  0  0  0  0  0  0
   -0.1380   -2.5341   -0.0002 H   0  0  0  0  0  0  0  0  0  0  0  0
   -3.0046    0.6550    0.0001 H   0  0  0  0  0  0  0  0  0  0  0  0
   -2.4812   -1.7699   -0.0001 H   0  0  0  0  0  0  0  0  0  0  0  0
    2.2357    1.3142   -0.0002 H   0  0  0  0  0  0  0  0  0  0  0  0
  1  4  1  0  0  0  0
  2  3  1  0  0  0  0
  2 13  1  0  0  0  0
  3  4  1  0  0  0  0
  3  5  2  0  0  0  0
  4  6  2  0  0  0  0
  5  7  1  0  0  0  0
  5  9  1  0  0  0  0
  6  8  1  0  0  0  0
  6 10  1  0  0  0  0
  7  8  2  0  0  0  0
  7 11  1  0  0  0  0
  8 12  1  0  0  0  0
M  END
> <PUBCHEM_COMPOUND_CID>
7244

> <PUBCHEM_CONFORMER_RMSD>
0.4

> <PUBCHEM_CONFORMER_DIVERSEORDER>
1

> <PUBCHEM_MMFF94_PARTIAL_CHARGES>
13
1 -0.11
10 0.15
11 0.15
12 0.15
13 0.45
2 -0.53
3 0.08
4 0.11
5 -0.15
6 -0.15
7 -0.15
8 -0.15
9 0.15

> <PUBCHEM_EFFECTIVE_ROTOR_COUNT>
0

> <PUBCHEM_PHARMACOPHORE_FEATURES>
3
1 1 hydrophobe
1 2 donor
6 3 4 5 6 7 8 rings

> <PUBCHEM_HEAVY_ATOM_COUNT>
8

> <PUBCHEM_ATOM_DEF_STEREO_COUNT>
0

> <PUBCHEM_ATOM_UDEF_STEREO_COUNT>
0

> <PUBCHEM_BOND_DEF_STEREO_COUNT>
0

> <PUBCHEM_BOND_UDEF_STEREO_COUNT>
0

> <PUBCHEM_ISOTOPIC_ATOM_COUNT>
0

> <PUBCHEM_COMPONENT_COUNT>
1

> <PUBCHEM_CACTVS_TAUTO_COUNT>
3

> <PUBCHEM_CONFORMER_ID>
00001C4C00000001

> <PUBCHEM_MMFF94_ENERGY>
16.7889

> <PUBCHEM_FEATURE_SELFOVERLAP>
15.223

> <PUBCHEM_SHAPE_FINGERPRINT>
16714656 1 18194118744693040830
16945 1 18338797926325439943
18185500 45 18268711795195958994
21040471 1 18194402191064950117
23552423 10 18271523074856148910
241688 4 18412547612950216913
2748010 2 18339645533937017239
29004967 10 18337386166275106778
5084963 1 18187370947354564203

> <PUBCHEM_SHAPE_MULTIPOLES>
164.71
2.85
1.81
0.62
1.28
0.41
0
-0.62
0
0.06
0
0.04
-0.03
0

> <PUBCHEM_SHAPE_SELFOVERLAP>
327.52

> <PUBCHEM_SHAPE_VOLUME>
100.9

> <PUBCHEM_COORDINATE_TYPE>
2
5
10

$$$$

