3035206
  -OEChem-07051213093D

 63 64  0     1  0  0  0  0  0999 V2000
    2.6252    1.4295    0.1846 O   0  0  0  0  0  0  0  0  0  0  0  0
    0.5129    0.3274    2.4539 O   0  0  0  0  0  0  0  0  0  0  0  0
    1.6716   -3.8143   -0.1002 O   0  0  0  0  0  0  0  0  0  0  0  0
    3.7453    3.3980    0.5731 O   0  0  0  0  0  0  0  0  0  0  0  0
   -7.8866    0.9938    0.3309 O   0  0  0  0  0  0  0  0  0  0  0  0
    6.1601   -0.9830    0.4587 O   0  0  0  0  0  0  0  0  0  0  0  0
    0.6211   -0.3866    0.2418 N   0  0  0  0  0  0  0  0  0  0  0  0
    2.8294   -1.7977    0.0652 N   0  0  0  0  0  0  0  0  0  0  0  0
    4.5460    0.1647   -0.7744 N   0  0  0  0  0  0  0  0  0  0  0  0
    0.4198   -1.8176    0.4576 C   0  0  1  0  0  0  0  0  0  0  0  0
   -0.7819   -2.3094   -0.3347 C   0  0  0  0  0  0  0  0  0  0  0  0
    1.4009    1.8500    0.8182 C   0  0  1  0  0  0  0  0  0  0  0  0
    0.5270    2.6128   -0.1605 C   0  0  0  0  0  0  0  0  0  0  0  0
   -2.0427   -1.5179    0.0116 C   0  0  0  0  0  0  0  0  0  0  0  0
    0.7807    0.5337    1.2717 C   0  0  0  0  0  0  0  0  0  0  0  0
   -3.2383   -1.9903   -0.8183 C   0  0  0  0  0  0  0  0  0  0  0  0
    1.6967   -2.5975    0.0722 C   0  0  0  0  0  0  0  0  0  0  0  0
   -0.8399    2.9222    0.4542 C   0  0  0  0  0  0  0  0  0  0  0  0
    1.2103    3.9065   -0.6096 C   0  0  0  0  0  0  0  0  0  0  0  0
   -4.4800   -1.1929   -0.5110 C   0  0  0  0  0  0  0  0  0  0  0  0
    4.9154    1.5448   -0.4808 C   0  0  2  0  0  0  0  0  0  0  0  0
    3.7127    2.2460    0.1583 C   0  0  0  0  0  0  0  0  0  0  0  0
   -5.3329   -1.6206    0.4954 C   0  0  0  0  0  0  0  0  0  0  0  0
   -4.7497   -0.0445   -1.2404 C   0  0  0  0  0  0  0  0  0  0  0  0
    4.1493   -2.1110   -0.1703 C   0  0  0  0  0  0  0  0  0  0  0  0
    5.3341    2.2659   -1.7504 C   0  0  0  0  0  0  0  0  0  0  0  0
    5.0866   -0.9397   -0.1319 C   0  0  0  0  0  0  0  0  0  0  0  0
   -6.4824   -0.8828    0.7789 C   0  0  0  0  0  0  0  0  0  0  0  0
   -5.8990    0.6933   -0.9567 C   0  0  0  0  0  0  0  0  0  0  0  0
   -6.7654    0.2741    0.0528 C   0  0  0  0  0  0  0  0  0  0  0  0
    4.6695   -3.3230   -0.3904 C   0  0  0  0  0  0  0  0  0  0  0  0
   -8.1158    2.1662   -0.4493 C   0  0  0  0  0  0  0  0  0  0  0  0
    0.2617   -1.9931    1.5285 H   0  0  0  0  0  0  0  0  0  0  0  0
   -0.9509   -3.3753   -0.1375 H   0  0  0  0  0  0  0  0  0  0  0  0
   -0.5794   -2.2194   -1.4102 H   0  0  0  0  0  0  0  0  0  0  0  0
    1.6311    2.4432    1.7123 H   0  0  0  0  0  0  0  0  0  0  0  0
    0.3602    2.0169   -1.0667 H   0  0  0  0  0  0  0  0  0  0  0  0
   -2.2627   -1.6249    1.0814 H   0  0  0  0  0  0  0  0  0  0  0  0
   -1.8884   -0.4484   -0.1742 H   0  0  0  0  0  0  0  0  0  0  0  0
    0.8395   -0.0960   -0.7067 H   0  0  0  0  0  0  0  0  0  0  0  0
   -3.4291   -3.0552   -0.6321 H   0  0  0  0  0  0  0  0  0  0  0  0
   -3.0099   -1.9120   -1.8891 H   0  0  0  0  0  0  0  0  0  0  0  0
   -0.7369    3.5079    1.3741 H   0  0  0  0  0  0  0  0  0  0  0  0
   -1.4568    3.4992   -0.2434 H   0  0  0  0  0  0  0  0  0  0  0  0
   -1.3923    2.0078    0.6920 H   0  0  0  0  0  0  0  0  0  0  0  0
    1.5146    4.5233    0.2417 H   0  0  0  0  0  0  0  0  0  0  0  0
    0.5167    4.5091   -1.2081 H   0  0  0  0  0  0  0  0  0  0  0  0
    2.0687    3.7115   -1.2578 H   0  0  0  0  0  0  0  0  0  0  0  0
    5.7259    1.5431    0.2556 H   0  0  0  0  0  0  0  0  0  0  0  0
    2.6737   -0.8125    0.2586 H   0  0  0  0  0  0  0  0  0  0  0  0
   -5.1202   -2.5191    1.0676 H   0  0  0  0  0  0  0  0  0  0  0  0
   -4.0791    0.2905   -2.0268 H   0  0  0  0  0  0  0  0  0  0  0  0
    3.7008    0.0369   -1.3245 H   0  0  0  0  0  0  0  0  0  0  0  0
    5.6247    3.2998   -1.5368 H   0  0  0  0  0  0  0  0  0  0  0  0
    6.1833    1.7618   -2.2236 H   0  0  0  0  0  0  0  0  0  0  0  0
    4.5152    2.2961   -2.4784 H   0  0  0  0  0  0  0  0  0  0  0  0
   -7.1532   -1.2139    1.5670 H   0  0  0  0  0  0  0  0  0  0  0  0
   -6.0577    1.5818   -1.5582 H   0  0  0  0  0  0  0  0  0  0  0  0
    4.0659   -4.2220   -0.4176 H   0  0  0  0  0  0  0  0  0  0  0  0
    5.7340   -3.4586   -0.5569 H   0  0  0  0  0  0  0  0  0  0  0  0
   -7.3270    2.9108   -0.2978 H   0  0  0  0  0  0  0  0  0  0  0  0
   -9.0500    2.6135   -0.0941 H   0  0  0  0  0  0  0  0  0  0  0  0
   -8.2597    1.9235   -1.5076 H   0  0  0  0  0  0  0  0  0  0  0  0
  1 12  1  0  0  0  0
  1 22  1  0  0  0  0
  2 15  2  0  0  0  0
  3 17  2  0  0  0  0
  4 22  2  0  0  0  0
  5 30  1  0  0  0  0
  5 32  1  0  0  0  0
  6 27  2  0  0  0  0
  7 10  1  0  0  0  0
  7 15  1  0  0  0  0
  7 40  1  0  0  0  0
  8 17  1  0  0  0  0
  8 25  1  0  0  0  0
  8 50  1  0  0  0  0
  9 21  1  0  0  0  0
  9 27  1  0  0  0  0
  9 53  1  0  0  0  0
 10 11  1  0  0  0  0
 10 17  1  0  0  0  0
 10 33  1  0  0  0  0
 11 14  1  0  0  0  0
 11 34  1  0  0  0  0
 11 35  1  0  0  0  0
 12 13  1  0  0  0  0
 12 15  1  0  0  0  0
 12 36  1  0  0  0  0
 13 18  1  0  0  0  0
 13 19  1  0  0  0  0
 13 37  1  0  0  0  0
 14 16  1  0  0  0  0
 14 38  1  0  0  0  0
 14 39  1  0  0  0  0
 16 20  1  0  0  0  0
 16 41  1  0  0  0  0
 16 42  1  0  0  0  0
 18 43  1  0  0  0  0
 18 44  1  0  0  0  0
 18 45  1  0  0  0  0
 19 46  1  0  0  0  0
 19 47  1  0  0  0  0
 19 48  1  0  0  0  0
 20 23  2  0  0  0  0
 20 24  1  0  0  0  0
 21 22  1  0  0  0  0
 21 26  1  0  0  0  0
 21 49  1  0  0  0  0
 23 28  1  0  0  0  0
 23 51  1  0  0  0  0
 24 29  2  0  0  0  0
 24 52  1  0  0  0  0
 25 27  1  0  0  0  0
 25 31  2  0  0  0  0
 26 54  1  0  0  0  0
 26 55  1  0  0  0  0
 26 56  1  0  0  0  0
 28 30  2  0  0  0  0
 28 57  1  0  0  0  0
 29 30  1  0  0  0  0
 29 58  1  0  0  0  0
 31 59  1  0  0  0  0
 31 60  1  0  0  0  0
 32 61  1  0  0  0  0
 32 62  1  0  0  0  0
 32 63  1  0  0  0  0
M  END
> <PUBCHEM_COMPOUND_CID>
3035206

> <PUBCHEM_CONFORMER_RMSD>
1

> <PUBCHEM_CONFORMER_DIVERSEORDER>
1
101
17
74
22
15
26
32
80
111
55
94
46
90
103
113
23
89
24
48
100
57
83
27
14
95
104
81
44
118
85
31
110
5
65
117
21
10
106
96
39
47
18
9
108
82
53
11
87
67
99
30
2
112
68
43
40
16
93
116
20
84
97
76
75
66
45
107
77
62
114
36
92
79
52
37
6
98
63
71
13
38
50
115
41
4
7
54
29
61
19
72
25
86
78
28
105
102
42
8
59
70
34
56
64
3
12
69
60
109
73
51
35
49
58
88
91
33

> <PUBCHEM_MMFF94_PARTIAL_CHARGES>
35
1 -0.43
10 0.36
12 0.34
15 0.57
16 0.14
17 0.57
2 -0.57
20 -0.14
21 0.36
22 0.66
23 -0.15
24 -0.15
25 0.12
27 0.62
28 -0.15
29 -0.15
3 -0.57
30 0.08
31 -0.3
32 0.28
4 -0.57
40 0.37
5 -0.36
50 0.37
51 0.15
52 0.15
53 0.37
57 0.15
58 0.15
59 0.15
6 -0.57
60 0.15
7 -0.73
8 -0.54
9 -0.73

> <PUBCHEM_EFFECTIVE_ROTOR_COUNT>
7.4

> <PUBCHEM_PHARMACOPHORE_FEATURES>
10
1 2 acceptor
1 3 acceptor
1 4 acceptor
1 5 acceptor
1 6 acceptor
1 7 donor
1 8 donor
1 9 donor
3 13 18 19 hydrophobe
6 20 23 24 28 29 30 rings

> <PUBCHEM_HEAVY_ATOM_COUNT>
32

> <PUBCHEM_ATOM_DEF_STEREO_COUNT>
3

> <PUBCHEM_ATOM_UDEF_STEREO_COUNT>
0

> <PUBCHEM_BOND_DEF_STEREO_COUNT>
0

> <PUBCHEM_BOND_UDEF_STEREO_COUNT>
0

> <PUBCHEM_ISOTOPIC_ATOM_COUNT>
0

> <PUBCHEM_COMPONENT_COUNT>
1

> <PUBCHEM_CACTVS_TAUTO_COUNT>
8

> <PUBCHEM_CONFORMER_ID>
002E504600000001

> <PUBCHEM_MMFF94_ENERGY>
94.9916

> <PUBCHEM_FEATURE_SELFOVERLAP>
50.759

> <PUBCHEM_SHAPE_FINGERPRINT>
10483366 6 18410567380093273332
10673678 19 18270950268000633238
10675989 125 18338519638800389328
10816530 90 18342182188676771008
11135609 187 18267298738540580912
11273773 38 18408044018024359391
11421498 54 14045467799187311575
13627175 23 18041268964275843225
14117953 113 18260543451169517630
15081414 286 18411420574935303341
15183329 4 17822283570581991669
15439362 3 18266179431339751520
15483637 11 18051696838942292629
15781502 409 17987514827919707627
16087824 20 18337673134847584165
20511986 3 17314233250605997584
20715895 44 18409733920320376738
20721686 56 18413107261065473257
22122407 14 18335691785319775347
23559900 14 18408892828432481827
24771293 8 18115890524455570106
3459 83 18334853922508847209
4073 2 18059851715201859155
4098825 35 18412823582596700707
4144715 1 18270952450308580995
484989 97 18341327890191851526
5265222 85 17837480852497506252
552612 73 18201162139314346405
6086070 43 17095531648041560683
6328613 192 18408882949865029083

> <PUBCHEM_SHAPE_MULTIPOLES>
608.39
18.33
4.62
1.15
30.92
0.95
-0.18
3.23
3.15
-5.01
0.46
-0.14
0.36
-0.08

> <PUBCHEM_SHAPE_SELFOVERLAP>
1253.306

> <PUBCHEM_SHAPE_VOLUME>
345.8

> <PUBCHEM_COORDINATE_TYPE>
2
5
10

$$$$

