120641
  -OEChem-07051212593D

 27 27  0     1  0  0  0  0  0999 V2000
   -3.6412    0.3532    0.1777 O   0  0  0  0  0  0  0  0  0  0  0  0
   -0.3912   -1.3961   -0.1910 N   0  0  0  0  0  0  0  0  0  0  0  0
    0.4820   -0.3081    0.2675 C   0  0  2  0  0  0  0  0  0  0  0  0
    0.0082    1.0425   -0.2873 C   0  0  0  0  0  0  0  0  0  0  0  0
   -1.4468    1.3089    0.0827 C   0  0  0  0  0  0  0  0  0  0  0  0
   -2.3292    0.1340   -0.3284 C   0  0  1  0  0  0  0  0  0  0  0  0
   -1.7784   -1.1833    0.2175 C   0  0  0  0  0  0  0  0  0  0  0  0
    1.9149   -0.5966   -0.1768 C   0  0  0  0  0  0  0  0  0  0  0  0
    2.8800    0.4591    0.3511 C   0  0  0  0  0  0  0  0  0  0  0  0
    4.3018    0.1864   -0.1129 C   0  0  0  0  0  0  0  0  0  0  0  0
    0.4565   -0.2755    1.3653 H   0  0  0  0  0  0  0  0  0  0  0  0
    0.1163    1.0662   -1.3795 H   0  0  0  0  0  0  0  0  0  0  0  0
    0.5977    1.8716    0.1151 H   0  0  0  0  0  0  0  0  0  0  0  0
   -1.5304    1.4819    1.1637 H   0  0  0  0  0  0  0  0  0  0  0  0
   -1.8013    2.2300   -0.3950 H   0  0  0  0  0  0  0  0  0  0  0  0
   -2.3987    0.0862   -1.4215 H   0  0  0  0  0  0  0  0  0  0  0  0
   -1.8648   -1.2156    1.3113 H   0  0  0  0  0  0  0  0  0  0  0  0
   -2.3956   -2.0104   -0.1525 H   0  0  0  0  0  0  0  0  0  0  0  0
    1.9732   -0.6370   -1.2725 H   0  0  0  0  0  0  0  0  0  0  0  0
    2.2276   -1.5821    0.1928 H   0  0  0  0  0  0  0  0  0  0  0  0
   -0.0607   -2.2830    0.1886 H   0  0  0  0  0  0  0  0  0  0  0  0
    2.8531    0.4814    1.4466 H   0  0  0  0  0  0  0  0  0  0  0  0
    2.6182    1.4591   -0.0049 H   0  0  0  0  0  0  0  0  0  0  0  0
   -3.5898    0.3792    1.1484 H   0  0  0  0  0  0  0  0  0  0  0  0
    4.6501   -0.7890    0.2420 H   0  0  0  0  0  0  0  0  0  0  0  0
    4.3684    0.1987   -1.2056 H   0  0  0  0  0  0  0  0  0  0  0  0
    4.9814    0.9507    0.2770 H   0  0  0  0  0  0  0  0  0  0  0  0
  1  6  1  0  0  0  0
  1 24  1  0  0  0  0
  2  3  1  0  0  0  0
  2  7  1  0  0  0  0
  2 21  1  0  0  0  0
  3  4  1  0  0  0  0
  3  8  1  0  0  0  0
  3 11  1  0  0  0  0
  4  5  1  0  0  0  0
  4 12  1  0  0  0  0
  4 13  1  0  0  0  0
  5  6  1  0  0  0  0
  5 14  1  0  0  0  0
  5 15  1  0  0  0  0
  6  7  1  0  0  0  0
  6 16  1  0  0  0  0
  7 17  1  0  0  0  0
  7 18  1  0  0  0  0
  8  9  1  0  0  0  0
  8 19  1  0  0  0  0
  8 20  1  0  0  0  0
  9 10  1  0  0  0  0
  9 22  1  0  0  0  0
  9 23  1  0  0  0  0
 10 25  1  0  0  0  0
 10 26  1  0  0  0  0
 10 27  1  0  0  0  0
M  END
> <PUBCHEM_COMPOUND_CID>
120641

> <PUBCHEM_CONFORMER_RMSD>
0.6

> <PUBCHEM_CONFORMER_DIVERSEORDER>
1
13
12
8
15
6
2
10
9
3
7
11
4
16
5
14

> <PUBCHEM_MMFF94_PARTIAL_CHARGES>
7
1 -0.68
2 -0.9
21 0.36
24 0.4
3 0.27
6 0.28
7 0.27

> <PUBCHEM_EFFECTIVE_ROTOR_COUNT>
3.2

> <PUBCHEM_PHARMACOPHORE_FEATURES>
6
1 1 acceptor
1 1 donor
1 10 hydrophobe
1 2 cation
1 2 donor
6 2 3 4 5 6 7 rings

> <PUBCHEM_HEAVY_ATOM_COUNT>
10

> <PUBCHEM_ATOM_DEF_STEREO_COUNT>
2

> <PUBCHEM_ATOM_UDEF_STEREO_COUNT>
0

> <PUBCHEM_BOND_DEF_STEREO_COUNT>
0

> <PUBCHEM_BOND_UDEF_STEREO_COUNT>
0

> <PUBCHEM_ISOTOPIC_ATOM_COUNT>
0

> <PUBCHEM_COMPONENT_COUNT>
1

> <PUBCHEM_CACTVS_TAUTO_COUNT>
1

> <PUBCHEM_CONFORMER_ID>
0001D74100000001

> <PUBCHEM_MMFF94_ENERGY>
1.4129

> <PUBCHEM_FEATURE_SELFOVERLAP>
30.446

> <PUBCHEM_SHAPE_FINGERPRINT>
10857977 72 18340214002781015192
11062470 55 18410575084678955148
12932764 1 16950860179458268422
13024252 1 14692573225673180541
14325111 11 18338518641987700608
14993402 34 18343025479804141229
15310529 11 15357974615734444357
15775835 57 18343584066281747328
17846911 113 18408611374123356016
20201158 50 18186801387641575118
20645464 45 18186515505690834710
20871998 184 18188486861446989863
21293036 1 18411990156476167013
23235685 24 18410017653980068277
23402539 116 18334587844699697013
23402655 69 18194140718679774789
23552423 10 17985830332791705924
369184 2 16559037090360156744
6333449 129 18335424538709853326
75552 356 18341049635965820054

> <PUBCHEM_SHAPE_MULTIPOLES>
194.94
5.97
1.28
0.65
3.98
0.06
0
-0.68
-0.1
-0.52
0.01
0.04
-0.01
0.06

> <PUBCHEM_SHAPE_SELFOVERLAP>
370.841

> <PUBCHEM_SHAPE_VOLUME>
120

> <PUBCHEM_COORDINATE_TYPE>
2
5
10

$$$$

