56928080
  -OEChem-07051213042D

 81 87  0     1  0  0  0  0  0999 V2000
    9.4613    0.9786    0.0000 O   0  0  0  0  0  0  0  0  0  0  0  0
    7.9793   -2.2922    0.0000 O   0  0  0  0  0  0  0  0  0  0  0  0
    7.8396    1.6786    0.0000 O   0  0  0  0  0  0  0  0  0  0  0  0
   11.5614    1.0185    0.0000 O   0  0  0  0  0  0  0  0  0  0  0  0
    5.3746    1.0445    0.0000 O   0  0  0  0  0  0  0  0  0  0  0  0
    4.8500    2.6952    0.0000 O   0  0  0  0  0  0  0  0  0  0  0  0
    5.7777   -2.1243    0.0000 N   0  0  3  0  0  0  0  0  0  0  0  0
    2.3676    0.4730    0.0000 N   0  0  0  0  0  0  0  0  0  0  0  0
    8.7057    0.1786    0.0000 C   0  0  1  0  0  0  0  0  0  0  0  0
    9.6491    0.4591    0.0000 C   0  0  2  0  0  0  0  0  0  0  0  0
   11.3471   -0.8717    0.0000 C   0  0  1  0  0  0  0  0  0  0  0  0
    7.8396   -1.3214    0.0000 C   0  0  2  0  0  0  0  0  0  0  0  0
    6.9736   -0.8214    0.0000 C   0  0  2  0  0  0  0  0  0  0  0  0
    8.7057   -0.8214    0.0000 C   0  0  0  0  0  0  0  0  0  0  0  0
    7.8396    0.6786    0.0000 C   0  0  1  0  0  0  0  0  0  0  0  0
   10.5616    0.9995    0.0000 C   0  0  3  0  0  0  0  0  0  0  0  0
    9.1757    1.3280    0.0000 C   0  0  0  0  0  0  0  0  0  0  0  0
    6.9736    0.1786    0.0000 C   0  0  0  0  0  0  0  0  0  0  0  0
   11.3471    0.2288    0.0000 C   0  0  0  0  0  0  0  0  0  0  0  0
   10.0271    1.8323    0.0000 C   0  0  0  0  0  0  0  0  0  0  0  0
   10.5616   -1.6424    0.0000 C   0  0  0  0  0  0  0  0  0  0  0  0
   10.1274   -0.4191    0.0000 C   0  0  0  0  0  0  0  0  0  0  0  0
    9.4613   -1.6215    0.0000 C   0  0  0  0  0  0  0  0  0  0  0  0
    9.0878   -0.4936    0.0000 C   0  0  0  0  0  0  0  0  0  0  0  0
    7.0665    0.6735    0.0000 C   0  0  0  0  0  0  0  0  0  0  0  0
    6.0630   -1.1859    0.0000 C   0  0  0  0  0  0  0  0  0  0  0  0
    8.5466    0.9030    0.0000 C   0  0  0  0  0  0  0  0  0  0  0  0
    6.3276    1.3474    0.0000 C   0  0  2  0  0  0  0  0  0  0  0  0
    7.3093   -3.0085    0.0000 C   0  0  0  0  0  0  0  0  0  0  0  0
    6.3313   -2.9339    0.0000 C   0  0  0  0  0  0  0  0  0  0  0  0
    4.7893   -2.2760    0.0000 C   0  0  0  0  0  0  0  0  0  0  0  0
    6.5419    2.3242    0.0000 C   0  0  0  0  0  0  0  0  0  0  0  0
    4.6358    1.7184    0.0000 C   0  0  0  0  0  0  0  0  0  0  0  0
    3.6828    1.4155    0.0000 C   0  0  0  0  0  0  0  0  0  0  0  0
    3.3676    0.4665    0.0000 C   0  0  0  0  0  0  0  0  0  0  0  0
    2.8776    2.0085    0.0000 C   0  0  0  0  0  0  0  0  0  0  0  0
    2.0648    1.4260    0.0000 C   0  0  0  0  0  0  0  0  0  0  0  0
    3.9502   -0.3463    0.0000 C   0  0  0  0  0  0  0  0  0  0  0  0
    2.8840    3.0085    0.0000 C   0  0  0  0  0  0  0  0  0  0  0  0
   12.1308   -1.2007    0.0000 H   0  0  0  0  0  0  0  0  0  0  0  0
    7.3027    0.9886    0.0000 H   0  0  0  0  0  0  0  0  0  0  0  0
    8.8661    1.8652    0.0000 H   0  0  0  0  0  0  0  0  0  0  0  0
    8.6348    1.0249    0.0000 H   0  0  0  0  0  0  0  0  0  0  0  0
    6.7616    0.7612    0.0000 H   0  0  0  0  0  0  0  0  0  0  0  0
    6.3630    0.0709    0.0000 H   0  0  0  0  0  0  0  0  0  0  0  0
   11.9465    0.0702    0.0000 H   0  0  0  0  0  0  0  0  0  0  0  0
   11.6537    0.7677    0.0000 H   0  0  0  0  0  0  0  0  0  0  0  0
   10.5528    2.1609    0.0000 H   0  0  0  0  0  0  0  0  0  0  0  0
    9.7048    2.3619    0.0000 H   0  0  0  0  0  0  0  0  0  0  0  0
   10.3916   -2.2387    0.0000 H   0  0  0  0  0  0  0  0  0  0  0  0
   11.0945   -1.9592    0.0000 H   0  0  0  0  0  0  0  0  0  0  0  0
    9.5830   -0.7157    0.0000 H   0  0  0  0  0  0  0  0  0  0  0  0
   10.4240   -0.9635    0.0000 H   0  0  0  0  0  0  0  0  0  0  0  0
   10.6719   -0.1225    0.0000 H   0  0  0  0  0  0  0  0  0  0  0  0
    9.2105   -2.1885    0.0000 H   0  0  0  0  0  0  0  0  0  0  0  0
    9.3925   -1.0336    0.0000 H   0  0  0  0  0  0  0  0  0  0  0  0
    9.6483   -0.2285    0.0000 H   0  0  0  0  0  0  0  0  0  0  0  0
    5.9671   -0.5734    0.0000 H   0  0  0  0  0  0  0  0  0  0  0  0
    5.4446   -1.1426    0.0000 H   0  0  0  0  0  0  0  0  0  0  0  0
    8.8566    1.4400    0.0000 H   0  0  0  0  0  0  0  0  0  0  0  0
    8.3766    1.9886    0.0000 H   0  0  0  0  0  0  0  0  0  0  0  0
    5.8696    1.7652    0.0000 H   0  0  0  0  0  0  0  0  0  0  0  0
   11.8611    1.5613    0.0000 H   0  0  0  0  0  0  0  0  0  0  0  0
    7.1252   -3.6006    0.0000 H   0  0  0  0  0  0  0  0  0  0  0  0
    7.8452   -3.3202    0.0000 H   0  0  0  0  0  0  0  0  0  0  0  0
    5.7543   -3.1607    0.0000 H   0  0  0  0  0  0  0  0  0  0  0  0
    6.4235   -3.5470    0.0000 H   0  0  0  0  0  0  0  0  0  0  0  0
    4.6953   -1.6632    0.0000 H   0  0  0  0  0  0  0  0  0  0  0  0
    4.1765   -2.3700    0.0000 H   0  0  0  0  0  0  0  0  0  0  0  0
    4.8834   -2.8888    0.0000 H   0  0  0  0  0  0  0  0  0  0  0  0
    7.1475    2.1914    0.0000 H   0  0  0  0  0  0  0  0  0  0  0  0
    6.6747    2.9298    0.0000 H   0  0  0  0  0  0  0  0  0  0  0  0
    5.9363    2.4570    0.0000 H   0  0  0  0  0  0  0  0  0  0  0  0
    2.0000   -0.0263    0.0000 H   0  0  0  0  0  0  0  0  0  0  0  0
    1.4764    1.6214    0.0000 H   0  0  0  0  0  0  0  0  0  0  0  0
    3.4463   -0.7075    0.0000 H   0  0  0  0  0  0  0  0  0  0  0  0
    4.3114   -0.8502    0.0000 H   0  0  0  0  0  0  0  0  0  0  0  0
    4.4541    0.0149    0.0000 H   0  0  0  0  0  0  0  0  0  0  0  0
    3.5040    3.0045    0.0000 H   0  0  0  0  0  0  0  0  0  0  0  0
    2.8880    3.6285    0.0000 H   0  0  0  0  0  0  0  0  0  0  0  0
    2.2640    3.0125    0.0000 H   0  0  0  0  0  0  0  0  0  0  0  0
  9  1  1  1  0  0  0
  1 16  1  0  0  0  0
 12  2  1  1  0  0  0
  2 29  1  0  0  0  0
 15  3  1  1  0  0  0
  3 61  1  0  0  0  0
  4 16  1  0  0  0  0
  4 63  1  0  0  0  0
 28  5  1  1  0  0  0
  5 33  1  0  0  0  0
  6 33  2  0  0  0  0
  7 26  1  0  0  0  0
  7 30  1  0  0  0  0
  7 31  1  0  0  0  0
  8 35  1  0  0  0  0
  8 37  1  0  0  0  0
  8 74  1  0  0  0  0
  9 10  1  0  0  0  0
  9 14  1  0  0  0  0
  9 15  1  0  0  0  0
 10 11  1  0  0  0  0
 10 17  1  0  0  0  0
 10 22  1  6  0  0  0
 11 19  1  0  0  0  0
 11 21  1  0  0  0  0
 11 40  1  6  0  0  0
 12 13  1  0  0  0  0
 12 14  1  0  0  0  0
 12 24  1  0  0  0  0
 13 18  1  6  0  0  0
 13 25  1  0  0  0  0
 13 26  1  0  0  0  0
 14 23  2  0  0  0  0
 15 18  1  0  0  0  0
 15 41  1  0  0  0  0
 16 19  1  0  0  0  0
 16 20  1  0  0  0  0
 17 20  1  0  0  0  0
 17 42  1  0  0  0  0
 17 43  1  0  0  0  0
 18 44  1  0  0  0  0
 18 45  1  0  0  0  0
 19 46  1  0  0  0  0
 19 47  1  0  0  0  0
 20 48  1  0  0  0  0
 20 49  1  0  0  0  0
 21 23  1  0  0  0  0
 21 50  1  0  0  0  0
 21 51  1  0  0  0  0
 22 52  1  0  0  0  0
 22 53  1  0  0  0  0
 22 54  1  0  0  0  0
 23 55  1  0  0  0  0
 24 27  1  0  0  0  0
 24 56  1  0  0  0  0
 24 57  1  0  0  0  0
 25 27  2  0  0  0  0
 25 28  1  0  0  0  0
 26 58  1  0  0  0  0
 26 59  1  0  0  0  0
 27 60  1  0  0  0  0
 28 32  1  0  0  0  0
 28 62  1  0  0  0  0
 29 30  1  0  0  0  0
 29 64  1  0  0  0  0
 29 65  1  0  0  0  0
 30 66  1  0  0  0  0
 30 67  1  0  0  0  0
 31 68  1  0  0  0  0
 31 69  1  0  0  0  0
 31 70  1  0  0  0  0
 32 71  1  0  0  0  0
 32 72  1  0  0  0  0
 32 73  1  0  0  0  0
 33 34  1  0  0  0  0
 34 35  2  0  0  0  0
 34 36  1  0  0  0  0
 35 38  1  0  0  0  0
 36 37  2  0  0  0  0
 36 39  1  0  0  0  0
 37 75  1  0  0  0  0
 38 76  1  0  0  0  0
 38 77  1  0  0  0  0
 38 78  1  0  0  0  0
 39 79  1  0  0  0  0
 39 80  1  0  0  0  0
 39 81  1  0  0  0  0
M  END
> <PUBCHEM_COMPOUND_CID>
56928080

> <PUBCHEM_COMPOUND_CANONICALIZED>
1

> <PUBCHEM_CACTVS_COMPLEXITY>
1140

> <PUBCHEM_CACTVS_HBOND_ACCEPTOR>
7

> <PUBCHEM_CACTVS_HBOND_DONOR>
3

> <PUBCHEM_CACTVS_ROTATABLE_BOND>
4

> <PUBCHEM_CACTVS_SUBSKEYS>
AAADcfB7OAAAAAAAAAAAAAAAAAAAAWIAAAA0YIEABYAQAECBgAAAHgAQCAAAD1zhngYuiJPJlgCoAzT3TACCgCA1ACAA2aE4TNgbNnrAtZmHUYhn0AHf6Uf08P4PgAAAAAAAAADCAAYQADCAAAAAAAAAAA==

> <PUBCHEM_IUPAC_INCHI>
InChI=1S/C31H42N2O6/c1-18-16-32-19(2)25(18)26(35)38-20(3)22-8-9-30-23-7-6-21-14-29(36)11-10-27(21,4)31(23,39-29)24(34)15-28(22,30)17-33(5)12-13-37-30/h7-8,16,20-21,24,32,34,36H,6,9-15,17H2,1-5H3/t20-,21+,24+,27-,28-,29?,30-,31-/m0/s1

> <PUBCHEM_IUPAC_INCHIKEY>
ISNYUQWBWALXEY-LKKHGHOQSA-N

> <PUBCHEM_XLOGP3_AA>
1.6

> <PUBCHEM_EXACT_MASS>
538.304287

> <PUBCHEM_MOLECULAR_FORMULA>
C31H42N2O6

> <PUBCHEM_MOLECULAR_WEIGHT>
538.67498

> <PUBCHEM_OPENEYE_CAN_SMILES>
CC1=CNC(=C1C(=O)OC(C)C2=CCC34C2(CC(C56C3=CCC7C5(CCC(C7)(O6)O)C)O)CN(CCO4)C)C

> <PUBCHEM_OPENEYE_ISO_SMILES>
CC1=CNC(=C1C(=O)O[C@@H](C)C2=CC[C@@]34[C@@]2(C[C@H]([C@@]56C3=CC[C@H]7[C@@]5(CCC(C7)(O6)O)C)O)CN(CCO4)C)C

> <PUBCHEM_CACTVS_TPSA>
104

> <PUBCHEM_MONOISOTOPIC_WEIGHT>
538.304287

> <PUBCHEM_TOTAL_CHARGE>
0

> <PUBCHEM_HEAVY_ATOM_COUNT>
39

> <PUBCHEM_ATOM_DEF_STEREO_COUNT>
7

> <PUBCHEM_ATOM_UDEF_STEREO_COUNT>
1

> <PUBCHEM_BOND_DEF_STEREO_COUNT>
0

> <PUBCHEM_BOND_UDEF_STEREO_COUNT>
0

> <PUBCHEM_ISOTOPIC_ATOM_COUNT>
0

> <PUBCHEM_COMPONENT_COUNT>
1

> <PUBCHEM_CACTVS_TAUTO_COUNT>
3

> <PUBCHEM_COORDINATE_TYPE>
1
5
255

> <PUBCHEM_BONDANNOTATIONS>
9  1  5
10  22  6
11  40  6
13  18  6
12  2  5
15  3  5
34  35  8
34  36  8
36  37  8
16  4  3
28  5  5
8  35  8
8  37  8

$$$$

