93047
  -OEChem-07051213013D

 23 24  0     1  0  0  0  0  0999 V2000
   -1.7719   -0.0706   -1.1294 N   0  0  0  0  0  0  0  0  0  0  0  0
    2.7367   -1.0307    0.1123 N   0  0  0  0  0  0  0  0  0  0  0  0
   -1.0228   -0.5041    0.0608 C   0  0  2  0  0  0  0  0  0  0  0  0
   -1.7870    0.2180    1.1751 C   0  0  0  0  0  0  0  0  0  0  0  0
   -3.2271    0.3025    0.6855 C   0  0  0  0  0  0  0  0  0  0  0  0
   -3.1827   -0.1534   -0.7611 C   0  0  0  0  0  0  0  0  0  0  0  0
    0.4642   -0.2086    0.0242 C   0  0  0  0  0  0  0  0  0  0  0  0
    0.9336    1.0925   -0.1218 C   0  0  0  0  0  0  0  0  0  0  0  0
    1.3992   -1.2256    0.1362 C   0  0  0  0  0  0  0  0  0  0  0  0
    2.3029    1.3331   -0.1508 C   0  0  0  0  0  0  0  0  0  0  0  0
    3.1549    0.2470   -0.0309 C   0  0  0  0  0  0  0  0  0  0  0  0
   -1.1690   -1.5868    0.1818 H   0  0  0  0  0  0  0  0  0  0  0  0
   -1.4105    1.2313    1.3588 H   0  0  0  0  0  0  0  0  0  0  0  0
   -1.7175   -0.3255    2.1240 H   0  0  0  0  0  0  0  0  0  0  0  0
   -3.8883   -0.3376    1.2790 H   0  0  0  0  0  0  0  0  0  0  0  0
   -3.5925    1.3323    0.7673 H   0  0  0  0  0  0  0  0  0  0  0  0
   -3.5359   -1.1879   -0.8457 H   0  0  0  0  0  0  0  0  0  0  0  0
   -3.8033    0.4728   -1.4084 H   0  0  0  0  0  0  0  0  0  0  0  0
   -1.5713   -0.6783   -1.9219 H   0  0  0  0  0  0  0  0  0  0  0  0
    0.2487    1.9300   -0.2210 H   0  0  0  0  0  0  0  0  0  0  0  0
    1.0977   -2.2619    0.2526 H   0  0  0  0  0  0  0  0  0  0  0  0
    2.6909    2.3387   -0.2653 H   0  0  0  0  0  0  0  0  0  0  0  0
    4.2315    0.3812   -0.0481 H   0  0  0  0  0  0  0  0  0  0  0  0
  1  3  1  0  0  0  0
  1  6  1  0  0  0  0
  1 19  1  0  0  0  0
  2  9  1  0  0  0  0
  2 11  2  0  0  0  0
  3  4  1  0  0  0  0
  3  7  1  0  0  0  0
  3 12  1  0  0  0  0
  4  5  1  0  0  0  0
  4 13  1  0  0  0  0
  4 14  1  0  0  0  0
  5  6  1  0  0  0  0
  5 15  1  0  0  0  0
  5 16  1  0  0  0  0
  6 17  1  0  0  0  0
  6 18  1  0  0  0  0
  7  8  1  0  0  0  0
  7  9  2  0  0  0  0
  8 10  2  0  0  0  0
  8 20  1  0  0  0  0
  9 21  1  0  0  0  0
 10 11  1  0  0  0  0
 10 22  1  0  0  0  0
 11 23  1  0  0  0  0
M  END
> <PUBCHEM_COMPOUND_CID>
93047

> <PUBCHEM_CONFORMER_RMSD>
0.4

> <PUBCHEM_CONFORMER_DIVERSEORDER>
1
7
3
5
4
6
8
2

> <PUBCHEM_MMFF94_PARTIAL_CHARGES>
14
1 -0.9
10 -0.15
11 0.16
19 0.36
2 -0.62
20 0.15
21 0.15
22 0.15
23 0.15
3 0.41
6 0.27
7 -0.14
8 -0.15
9 0.16

> <PUBCHEM_EFFECTIVE_ROTOR_COUNT>
2

> <PUBCHEM_PHARMACOPHORE_FEATURES>
5
1 1 cation
1 1 donor
1 2 acceptor
5 1 3 4 5 6 rings
6 2 7 8 9 10 11 rings

> <PUBCHEM_HEAVY_ATOM_COUNT>
11

> <PUBCHEM_ATOM_DEF_STEREO_COUNT>
1

> <PUBCHEM_ATOM_UDEF_STEREO_COUNT>
0

> <PUBCHEM_BOND_DEF_STEREO_COUNT>
0

> <PUBCHEM_BOND_UDEF_STEREO_COUNT>
0

> <PUBCHEM_ISOTOPIC_ATOM_COUNT>
0

> <PUBCHEM_COMPONENT_COUNT>
1

> <PUBCHEM_CACTVS_TAUTO_COUNT>
1

> <PUBCHEM_CONFORMER_ID>
00016B7700000001

> <PUBCHEM_MMFF94_ENERGY>
21.6099

> <PUBCHEM_FEATURE_SELFOVERLAP>
25.371

> <PUBCHEM_SHAPE_FINGERPRINT>
10219947 1 18413107268816657278
10857977 72 16271921589176838383
11031198 65 18272924999426119284
124424 183 17274836760960762632
12932764 1 18342459239863514623
14144814 61 18261109681654441507
14325111 11 18411417280652883843
14993402 34 18113337505088292236
15219456 202 17775284958441716748
15775835 57 18040991830387857825
16945 1 18413388743856632442
17844478 74 17704065209713198165
18186145 218 18410008844785859967
20201158 50 17988926690568739610
20279233 1 17418096511652103547
20645464 45 17275107206461476657
20645477 70 18271253823367444895
20715346 28 17561079181297541065
20871998 22 18047186642661717734
23402655 69 18410864273854948661
23552423 10 17604419838179298847
29004967 10 18131346423388289912
3248919 1 18113054934837125959
369184 2 18412824681580541051
5084963 1 18260275152376432219
528886 8 18410294688002767106
77492 1 17967250901295940331
8030462 33 18040151799119293481

> <PUBCHEM_SHAPE_MULTIPOLES>
216.41
5.47
1.15
0.93
1.02
0.03
-0.01
0.29
0.09
-0.85
-0.01
0.7
0.03
-0.26

> <PUBCHEM_SHAPE_SELFOVERLAP>
452.895

> <PUBCHEM_SHAPE_VOLUME>
123

> <PUBCHEM_COORDINATE_TYPE>
2
5
10

$$$$

