9543346
  -OEChem-07051213113D

 36 39  0     0  0  0  0  0  0999 V2000
   -1.4526    2.4447    0.9118 O   0  0  0  0  0  0  0  0  0  0  0  0
   -2.6834   -0.2684   -1.0431 O   0  0  0  0  0  0  0  0  0  0  0  0
   -4.7604   -0.5699   -2.5221 O   0  0  0  0  0  0  0  0  0  0  0  0
   -6.1342   -0.3503   -0.7082 O   0  0  0  0  0  0  0  0  0  0  0  0
    1.2366   -0.0184    0.3733 C   0  0  0  0  0  0  0  0  0  0  0  0
    2.5725   -0.0755   -0.0957 C   0  0  0  0  0  0  0  0  0  0  0  0
    0.5510    1.2184    0.4054 C   0  0  0  0  0  0  0  0  0  0  0  0
    0.5893   -1.1980    0.8090 C   0  0  0  0  0  0  0  0  0  0  0  0
    3.2199    1.1041   -0.5315 C   0  0  0  0  0  0  0  0  0  0  0  0
    3.2581   -1.3123   -0.1278 C   0  0  0  0  0  0  0  0  0  0  0  0
   -0.7709    1.2585    0.8723 C   0  0  0  0  0  0  0  0  0  0  0  0
    1.2085    2.3767   -0.0304 C   0  0  0  0  0  0  0  0  0  0  0  0
   -0.7332   -1.1249    1.2703 C   0  0  0  0  0  0  0  0  0  0  0  0
    1.2842   -2.4142    0.7700 C   0  0  0  0  0  0  0  0  0  0  0  0
   -1.4071    0.0948    1.3013 C   0  0  0  0  0  0  0  0  0  0  0  0
    2.5249    2.3204   -0.4925 C   0  0  0  0  0  0  0  0  0  0  0  0
    2.6006   -2.4706    0.3079 C   0  0  0  0  0  0  0  0  0  0  0  0
    4.5423    1.0310   -0.9929 C   0  0  0  0  0  0  0  0  0  0  0  0
    4.5800   -1.3524   -0.5947 C   0  0  0  0  0  0  0  0  0  0  0  0
    5.2162   -0.1887   -1.0237 C   0  0  0  0  0  0  0  0  0  0  0  0
   -2.7806    0.1217    1.7883 C   0  0  0  0  0  0  0  0  0  0  0  0
   -3.8808   -0.0194    1.0191 C   0  0  0  0  0  0  0  0  0  0  0  0
   -3.7468   -0.2206   -0.4449 C   0  0  0  0  0  0  0  0  0  0  0  0
   -5.0340   -0.3865   -1.2211 C   0  0  0  0  0  0  0  0  0  0  0  0
    0.7379    3.3559   -0.0123 H   0  0  0  0  0  0  0  0  0  0  0  0
   -1.2366   -2.0303    1.6074 H   0  0  0  0  0  0  0  0  0  0  0  0
    0.8069   -3.3348    1.1000 H   0  0  0  0  0  0  0  0  0  0  0  0
    3.0042    3.2411   -0.8193 H   0  0  0  0  0  0  0  0  0  0  0  0
    3.1078   -3.4332    0.2923 H   0  0  0  0  0  0  0  0  0  0  0  0
    5.0604    1.9251   -1.3331 H   0  0  0  0  0  0  0  0  0  0  0  0
    5.1271   -2.2921   -0.6284 H   0  0  0  0  0  0  0  0  0  0  0  0
    6.2403   -0.2326   -1.3832 H   0  0  0  0  0  0  0  0  0  0  0  0
   -2.8991    0.2666    2.8588 H   0  0  0  0  0  0  0  0  0  0  0  0
   -1.1795    3.0076    0.1701 H   0  0  0  0  0  0  0  0  0  0  0  0
   -4.8677    0.0117    1.4651 H   0  0  0  0  0  0  0  0  0  0  0  0
   -5.5733   -0.6805   -3.0601 H   0  0  0  0  0  0  0  0  0  0  0  0
  1 11  1  0  0  0  0
  1 34  1  0  0  0  0
  2 23  2  0  0  0  0
  3 24  1  0  0  0  0
  3 36  1  0  0  0  0
  4 24  2  0  0  0  0
  5  6  1  0  0  0  0
  5  7  2  0  0  0  0
  5  8  1  0  0  0  0
  6  9  1  0  0  0  0
  6 10  2  0  0  0  0
  7 11  1  0  0  0  0
  7 12  1  0  0  0  0
  8 13  2  0  0  0  0
  8 14  1  0  0  0  0
  9 16  1  0  0  0  0
  9 18  2  0  0  0  0
 10 17  1  0  0  0  0
 10 19  1  0  0  0  0
 11 15  2  0  0  0  0
 12 16  2  0  0  0  0
 12 25  1  0  0  0  0
 13 15  1  0  0  0  0
 13 26  1  0  0  0  0
 14 17  2  0  0  0  0
 14 27  1  0  0  0  0
 15 21  1  0  0  0  0
 16 28  1  0  0  0  0
 17 29  1  0  0  0  0
 18 20  1  0  0  0  0
 18 30  1  0  0  0  0
 19 20  2  0  0  0  0
 19 31  1  0  0  0  0
 20 32  1  0  0  0  0
 21 22  2  0  0  0  0
 21 33  1  0  0  0  0
 22 23  1  0  0  0  0
 22 35  1  0  0  0  0
 23 24  1  0  0  0  0
M  END
> <PUBCHEM_COMPOUND_CID>
9543346

> <PUBCHEM_CONFORMER_RMSD>
0.6

> <PUBCHEM_CONFORMER_DIVERSEORDER>
1
9
8
6
5
7
2
4
3

> <PUBCHEM_MMFF94_PARTIAL_CHARGES>
30
1 -0.53
11 0.08
12 -0.15
13 -0.15
14 -0.15
15 0.03
16 -0.15
17 -0.15
18 -0.15
19 -0.15
2 -0.57
20 -0.15
21 -0.18
22 -0.14
23 0.56
24 0.72
25 0.15
26 0.15
27 0.15
28 0.15
29 0.15
3 -0.65
30 0.15
31 0.15
32 0.15
33 0.15
34 0.45
35 0.15
36 0.5
4 -0.57

> <PUBCHEM_EFFECTIVE_ROTOR_COUNT>
3

> <PUBCHEM_PHARMACOPHORE_FEATURES>
9
1 1 donor
1 2 acceptor
1 3 acceptor
1 4 acceptor
3 3 4 24 anion
6 5 6 7 9 12 16 rings
6 5 6 8 10 14 17 rings
6 5 7 8 11 13 15 rings
6 6 9 10 18 19 20 rings

> <PUBCHEM_HEAVY_ATOM_COUNT>
24

> <PUBCHEM_ATOM_DEF_STEREO_COUNT>
0

> <PUBCHEM_ATOM_UDEF_STEREO_COUNT>
0

> <PUBCHEM_BOND_DEF_STEREO_COUNT>
1

> <PUBCHEM_BOND_UDEF_STEREO_COUNT>
0

> <PUBCHEM_ISOTOPIC_ATOM_COUNT>
0

> <PUBCHEM_COMPONENT_COUNT>
1

> <PUBCHEM_CACTVS_TAUTO_COUNT>
5

> <PUBCHEM_CONFORMER_ID>
00919EB200000001

> <PUBCHEM_MMFF94_ENERGY>
84.408

> <PUBCHEM_FEATURE_SELFOVERLAP>
45.869

> <PUBCHEM_SHAPE_FINGERPRINT>
10042902 136 16443645484319816831
10693767 8 18334296504547923022
10967382 1 18269534136216320170
11796584 16 16225763025996421031
12011746 2 18272357673417974974
12035759 4 18333452019165903935
12236239 1 17967244308732183273
12403259 415 17703218516998097025
12553582 1 18409161125621113115
12661589 4 16519090588174389551
12670546 177 18342741797473060495
12730499 353 17917991672718731283
12788726 201 17895469349655281073
12969540 114 18202565055420562958
13140716 1 18124297325947345224
13583140 156 16558741278882995424
13911987 19 18129362865978681230
13944108 23 16040583599907475373
14294032 229 16806994654570916137
14576447 43 18333453153068801574
14739800 52 14333130702700695500
14787075 74 17967532329651003808
15163728 17 15841277051063080341
15183329 4 18187933919706254589
15196674 1 18197478809926529128
15238133 3 13326853331712063430
15475509 35 14635146871637169910
16945 1 18340472405668126656
17349148 13 18341331171446548296
17357779 13 18130784585668257908
17492 54 18341884182988207582
18769570 83 14764348232290409174
200 152 18334571360641672985
20645477 70 18343578538389935627
20775438 99 17682146295000458271
21033648 29 17274538728642753505
21267235 1 18196625554527987778
21285901 2 17703796958713783326
221357 26 18342746225879703101
22182313 1 17980758246887339361
22393880 68 18129949975018050011
23402539 116 18335692884282679136
23559900 14 18266164047315640304
238 59 18272942612870839159
25147074 1 18266174131033292345
2748010 2 17908402681404418088
2838139 119 16343714191985045279
2871803 45 18412259554041894284
3004659 81 17894920611722053695
341906 21 15123512501749578447
4072396 5 18130801044705168184
4098825 35 18272374213622102477
4280585 95 17324633870333166886
4325135 7 16298394522344272562
46194498 28 17559108775325712685
463206 1 18260833644396789855
484989 97 18198892618007174786
602551 16 15864070966140809647
7471813 234 18335430117998854608
7808743 9 15195295252609429879

> <PUBCHEM_SHAPE_MULTIPOLES>
470.43
10.63
2.33
1.5
7.83
0.25
0.4
-1.43
6.45
-2.33
-0.39
2.14
-0.12
-0.69

> <PUBCHEM_SHAPE_SELFOVERLAP>
1079.19

> <PUBCHEM_SHAPE_VOLUME>
242.9

> <PUBCHEM_COORDINATE_TYPE>
2
5
10

$$$$

