8989
  -OEChem-07051213042D

 78 79  0     1  0  0  0  0  0999 V2000
   12.8660   -2.7638    0.0000 O   0  0  0  0  0  0  0  0  0  0  0  0
   16.3962   -0.7396    0.0000 O   0  0  0  0  0  0  0  0  0  0  0  0
   12.0000   -2.2638    0.0000 C   0  0  2  0  0  0  0  0  0  0  0  0
   11.0000   -2.2638    0.0000 C   0  0  0  0  0  0  0  0  0  0  0  0
   12.0000   -1.2638    0.0000 C   0  0  0  0  0  0  0  0  0  0  0  0
   10.5000   -1.3978    0.0000 C   0  0  0  0  0  0  0  0  0  0  0  0
    9.0000   -0.5317    0.0000 C   0  0  3  0  0  0  0  0  0  0  0  0
    9.5000   -1.3978    0.0000 C   0  0  0  0  0  0  0  0  0  0  0  0
   12.8660   -0.7638    0.0000 C   0  0  0  0  0  0  0  0  0  0  0  0
    8.0000   -0.5317    0.0000 C   0  0  0  0  0  0  0  0  0  0  0  0
    7.5000    0.3343    0.0000 C   0  0  0  0  0  0  0  0  0  0  0  0
   11.5000   -3.1298    0.0000 C   0  0  0  0  0  0  0  0  0  0  0  0
   13.7321   -1.2638    0.0000 C   0  0  0  0  0  0  0  0  0  0  0  0
    6.5000    0.3343    0.0000 C   0  0  0  0  0  0  0  0  0  0  0  0
    6.0000    1.2003    0.0000 C   0  0  3  0  0  0  0  0  0  0  0  0
   13.7321   -2.2638    0.0000 C   0  0  0  0  0  0  0  0  0  0  0  0
    5.0000    1.2003    0.0000 C   0  0  0  0  0  0  0  0  0  0  0  0
    9.5000    0.3343    0.0000 C   0  0  0  0  0  0  0  0  0  0  0  0
   14.6260   -0.7291    0.0000 C   0  0  0  0  0  0  0  0  0  0  0  0
    4.5000    2.0663    0.0000 C   0  0  0  0  0  0  0  0  0  0  0  0
   14.6260   -2.7984    0.0000 C   0  0  0  0  0  0  0  0  0  0  0  0
    6.5000    2.0663    0.0000 C   0  0  0  0  0  0  0  0  0  0  0  0
    3.5000    2.0663    0.0000 C   0  0  0  0  0  0  0  0  0  0  0  0
   15.5321   -1.2430    0.0000 C   0  0  0  0  0  0  0  0  0  0  0  0
   15.5321   -2.2846    0.0000 C   0  0  0  0  0  0  0  0  0  0  0  0
    3.0000    2.9324    0.0000 C   0  0  0  0  0  0  0  0  0  0  0  0
   14.6144    0.2708    0.0000 C   0  0  0  0  0  0  0  0  0  0  0  0
   14.6144   -3.7984    0.0000 C   0  0  0  0  0  0  0  0  0  0  0  0
    2.0000    2.9324    0.0000 C   0  0  0  0  0  0  0  0  0  0  0  0
    3.5000    3.7984    0.0000 C   0  0  0  0  0  0  0  0  0  0  0  0
   10.4174   -2.4758    0.0000 H   0  0  0  0  0  0  0  0  0  0  0  0
   11.1077   -2.8744    0.0000 H   0  0  0  0  0  0  0  0  0  0  0  0
   11.7879   -0.6812    0.0000 H   0  0  0  0  0  0  0  0  0  0  0  0
   11.3894   -1.3714    0.0000 H   0  0  0  0  0  0  0  0  0  0  0  0
   11.0826   -1.1857    0.0000 H   0  0  0  0  0  0  0  0  0  0  0  0
   10.3923   -0.7872    0.0000 H   0  0  0  0  0  0  0  0  0  0  0  0
    9.8500   -0.5317    0.0000 H   0  0  0  0  0  0  0  0  0  0  0  0
    8.9174   -1.6098    0.0000 H   0  0  0  0  0  0  0  0  0  0  0  0
    9.6077   -2.0084    0.0000 H   0  0  0  0  0  0  0  0  0  0  0  0
   13.2646   -0.2888    0.0000 H   0  0  0  0  0  0  0  0  0  0  0  0
   12.4675   -0.2888    0.0000 H   0  0  0  0  0  0  0  0  0  0  0  0
    7.4174   -0.7438    0.0000 H   0  0  0  0  0  0  0  0  0  0  0  0
    8.1077   -1.1423    0.0000 H   0  0  0  0  0  0  0  0  0  0  0  0
    8.0826    0.5463    0.0000 H   0  0  0  0  0  0  0  0  0  0  0  0
    7.3923    0.9449    0.0000 H   0  0  0  0  0  0  0  0  0  0  0  0
   10.9631   -2.8198    0.0000 H   0  0  0  0  0  0  0  0  0  0  0  0
   11.1900   -3.6668    0.0000 H   0  0  0  0  0  0  0  0  0  0  0  0
   12.0369   -3.4398    0.0000 H   0  0  0  0  0  0  0  0  0  0  0  0
    5.9174    0.1222    0.0000 H   0  0  0  0  0  0  0  0  0  0  0  0
    6.6077   -0.2763    0.0000 H   0  0  0  0  0  0  0  0  0  0  0  0
    5.5750    1.9364    0.0000 H   0  0  0  0  0  0  0  0  0  0  0  0
    4.4174    0.9883    0.0000 H   0  0  0  0  0  0  0  0  0  0  0  0
    5.1077    0.5897    0.0000 H   0  0  0  0  0  0  0  0  0  0  0  0
   10.0369    0.0243    0.0000 H   0  0  0  0  0  0  0  0  0  0  0  0
    9.8100    0.8712    0.0000 H   0  0  0  0  0  0  0  0  0  0  0  0
    8.9631    0.6443    0.0000 H   0  0  0  0  0  0  0  0  0  0  0  0
    5.0826    2.2784    0.0000 H   0  0  0  0  0  0  0  0  0  0  0  0
    4.3923    2.6769    0.0000 H   0  0  0  0  0  0  0  0  0  0  0  0
    7.0369    1.7563    0.0000 H   0  0  0  0  0  0  0  0  0  0  0  0
    6.8100    2.6033    0.0000 H   0  0  0  0  0  0  0  0  0  0  0  0
    5.9631    2.3763    0.0000 H   0  0  0  0  0  0  0  0  0  0  0  0
    2.9174    1.8543    0.0000 H   0  0  0  0  0  0  0  0  0  0  0  0
    3.6077    1.4558    0.0000 H   0  0  0  0  0  0  0  0  0  0  0  0
    3.6200    2.9324    0.0000 H   0  0  0  0  0  0  0  0  0  0  0  0
   16.0678   -2.5967    0.0000 H   0  0  0  0  0  0  0  0  0  0  0  0
   15.2344    0.2780    0.0000 H   0  0  0  0  0  0  0  0  0  0  0  0
   14.6073    0.8908    0.0000 H   0  0  0  0  0  0  0  0  0  0  0  0
   13.9945    0.2636    0.0000 H   0  0  0  0  0  0  0  0  0  0  0  0
   13.9945   -3.7912    0.0000 H   0  0  0  0  0  0  0  0  0  0  0  0
   14.6073   -4.4183    0.0000 H   0  0  0  0  0  0  0  0  0  0  0  0
   15.2344   -3.8056    0.0000 H   0  0  0  0  0  0  0  0  0  0  0  0
    4.0369    3.4884    0.0000 H   0  0  0  0  0  0  0  0  0  0  0  0
    3.8100    4.3353    0.0000 H   0  0  0  0  0  0  0  0  0  0  0  0
    2.9631    4.1084    0.0000 H   0  0  0  0  0  0  0  0  0  0  0  0
    2.0000    3.5524    0.0000 H   0  0  0  0  0  0  0  0  0  0  0  0
    1.3800    2.9324    0.0000 H   0  0  0  0  0  0  0  0  0  0  0  0
    2.0000    2.3124    0.0000 H   0  0  0  0  0  0  0  0  0  0  0  0
   16.9343   -1.0476    0.0000 H   0  0  0  0  0  0  0  0  0  0  0  0
  1  3  1  0  0  0  0
  1 16  1  0  0  0  0
  2 24  1  0  0  0  0
  2 78  1  0  0  0  0
  3  4  1  0  0  0  0
  3  5  1  0  0  0  0
  3 12  1  1  0  0  0
  4  6  1  0  0  0  0
  4 31  1  0  0  0  0
  4 32  1  0  0  0  0
  5  9  1  0  0  0  0
  5 33  1  0  0  0  0
  5 34  1  0  0  0  0
  6  8  1  0  0  0  0
  6 35  1  0  0  0  0
  6 36  1  0  0  0  0
  7  8  1  0  0  0  0
  7 10  1  0  0  0  0
  7 18  1  0  0  0  0
  7 37  1  0  0  0  0
  8 38  1  0  0  0  0
  8 39  1  0  0  0  0
  9 13  1  0  0  0  0
  9 40  1  0  0  0  0
  9 41  1  0  0  0  0
 10 11  1  0  0  0  0
 10 42  1  0  0  0  0
 10 43  1  0  0  0  0
 11 14  1  0  0  0  0
 11 44  1  0  0  0  0
 11 45  1  0  0  0  0
 12 46  1  0  0  0  0
 12 47  1  0  0  0  0
 12 48  1  0  0  0  0
 13 16  2  0  0  0  0
 13 19  1  0  0  0  0
 14 15  1  0  0  0  0
 14 49  1  0  0  0  0
 14 50  1  0  0  0  0
 15 17  1  0  0  0  0
 15 22  1  0  0  0  0
 15 51  1  0  0  0  0
 16 21  1  0  0  0  0
 17 20  1  0  0  0  0
 17 52  1  0  0  0  0
 17 53  1  0  0  0  0
 18 54  1  0  0  0  0
 18 55  1  0  0  0  0
 18 56  1  0  0  0  0
 19 24  2  0  0  0  0
 19 27  1  0  0  0  0
 20 23  1  0  0  0  0
 20 57  1  0  0  0  0
 20 58  1  0  0  0  0
 21 25  2  0  0  0  0
 21 28  1  0  0  0  0
 22 59  1  0  0  0  0
 22 60  1  0  0  0  0
 22 61  1  0  0  0  0
 23 26  1  0  0  0  0
 23 62  1  0  0  0  0
 23 63  1  0  0  0  0
 24 25  1  0  0  0  0
 25 65  1  0  0  0  0
 26 29  1  0  0  0  0
 26 30  1  0  0  0  0
 26 64  1  0  0  0  0
 27 66  1  0  0  0  0
 27 67  1  0  0  0  0
 27 68  1  0  0  0  0
 28 69  1  0  0  0  0
 28 70  1  0  0  0  0
 28 71  1  0  0  0  0
 29 75  1  0  0  0  0
 29 76  1  0  0  0  0
 29 77  1  0  0  0  0
 30 72  1  0  0  0  0
 30 73  1  0  0  0  0
 30 74  1  0  0  0  0
M  END
> <PUBCHEM_COMPOUND_CID>
8989

> <PUBCHEM_COMPOUND_CANONICALIZED>
1

> <PUBCHEM_CACTVS_COMPLEXITY>
475

> <PUBCHEM_CACTVS_HBOND_ACCEPTOR>
2

> <PUBCHEM_CACTVS_HBOND_DONOR>
1

> <PUBCHEM_CACTVS_ROTATABLE_BOND>
12

> <PUBCHEM_CACTVS_SUBSKEYS>
AAADcfB4MAAAAAAAAAAAAAAAAAAAAAAAAAA0QAAAAAAAAACRAAAAGgAACAAADUSAmAAyBoAABgCAAiBCAAACCAAgIAAAiAAGCIgMJiKGMRqCeCCkwBEIuAfAwPAOwQADAAAYAACCAAYAADAAAAAAAAAAAA==

> <PUBCHEM_IUPAC_OPENEYE_NAME>
(2R)-2,5,8-trimethyl-2-(4,8,12-trimethyltridecyl)chroman-6-ol

> <PUBCHEM_IUPAC_CAS_NAME>
(2R)-2,5,8-trimethyl-2-(4,8,12-trimethyltridecyl)-3,4-dihydro-2H-1-benzopyran-6-ol

> <PUBCHEM_IUPAC_NAME>
(2R)-2,5,8-trimethyl-2-(4,8,12-trimethyltridecyl)-3,4-dihydrochromen-6-ol

> <PUBCHEM_IUPAC_SYSTEMATIC_NAME>
(2R)-2,5,8-trimethyl-2-(4,8,12-trimethyltridecyl)-3,4-dihydrochromen-6-ol

> <PUBCHEM_IUPAC_TRADITIONAL_NAME>
(2R)-2,5,8-trimethyl-2-(4,8,12-trimethyltridecyl)chroman-6-ol

> <PUBCHEM_IUPAC_INCHI>
InChI=1S/C28H48O2/c1-20(2)11-8-12-21(3)13-9-14-22(4)15-10-17-28(7)18-16-25-24(6)26(29)19-23(5)27(25)30-28/h19-22,29H,8-18H2,1-7H3/t21?,22?,28-/m1/s1

> <PUBCHEM_IUPAC_INCHIKEY>
WGVKWNUPNGFDFJ-CBIUGAAKSA-N

> <PUBCHEM_XLOGP3_AA>
10.3

> <PUBCHEM_EXACT_MASS>
416.365431

> <PUBCHEM_MOLECULAR_FORMULA>
C28H48O2

> <PUBCHEM_MOLECULAR_WEIGHT>
416.67952

> <PUBCHEM_OPENEYE_CAN_SMILES>
CC1=CC(=C(C2=C1OC(CC2)(C)CCCC(C)CCCC(C)CCCC(C)C)C)O

> <PUBCHEM_OPENEYE_ISO_SMILES>
CC1=CC(=C(C2=C1O[C@](CC2)(C)CCCC(C)CCCC(C)CCCC(C)C)C)O

> <PUBCHEM_CACTVS_TPSA>
29.5

> <PUBCHEM_MONOISOTOPIC_WEIGHT>
416.365431

> <PUBCHEM_TOTAL_CHARGE>
0

> <PUBCHEM_HEAVY_ATOM_COUNT>
30

> <PUBCHEM_ATOM_DEF_STEREO_COUNT>
1

> <PUBCHEM_ATOM_UDEF_STEREO_COUNT>
2

> <PUBCHEM_BOND_DEF_STEREO_COUNT>
0

> <PUBCHEM_BOND_UDEF_STEREO_COUNT>
0

> <PUBCHEM_ISOTOPIC_ATOM_COUNT>
0

> <PUBCHEM_COMPONENT_COUNT>
1

> <PUBCHEM_CACTVS_TAUTO_COUNT>
9

> <PUBCHEM_COORDINATE_TYPE>
1
5
255

> <PUBCHEM_BONDANNOTATIONS>
13  16  8
13  19  8
15  51  3
16  21  8
19  24  8
21  25  8
24  25  8
3  12  5
7  37  3

$$$$

