11740990
  -OEChem-07051213102D

 59 60  0     1  0  0  0  0  0999 V2000
    5.3100    0.4515    0.0000 O   0  0  0  0  0  0  0  0  0  0  0  0
    6.6760    1.8175    0.0000 O   0  0  0  0  0  0  0  0  0  0  0  0
    5.3100   -1.2806    0.0000 O   0  0  0  0  0  0  0  0  0  0  0  0
    3.3100    0.4515    0.0000 O   0  0  0  0  0  0  0  0  0  0  0  0
    2.3100   -1.2806    0.0000 O   0  0  0  0  0  0  0  0  0  0  0  0
    3.3100   -3.0126    0.0000 O   0  0  0  0  0  0  0  0  0  0  0  0
    4.8100   -3.8786    0.0000 O   0  0  0  0  0  0  0  0  0  0  0  0
    8.6760    3.5496    0.0000 O   0  0  0  0  0  0  0  0  0  0  0  0
    8.0420    0.4515    0.0000 C   0  0  0  0  0  0  0  0  0  0  0  0
    7.1760    0.9515    0.0000 C   0  0  2  0  0  0  0  0  0  0  0  0
    6.3100    0.4515    0.0000 C   0  0  1  0  0  0  0  0  0  0  0  0
    8.0420   -0.5485    0.0000 C   0  0  0  0  0  0  0  0  0  0  0  0
    6.3100   -0.5485    0.0000 C   0  0  0  0  0  0  0  0  0  0  0  0
    7.1760   -1.0485    0.0000 C   0  0  0  0  0  0  0  0  0  0  0  0
    9.0420    0.4515    0.0000 C   0  0  0  0  0  0  0  0  0  0  0  0
    8.8081    1.0943    0.0000 C   0  0  0  0  0  0  0  0  0  0  0  0
    5.6672    1.2175    0.0000 C   0  0  0  0  0  0  0  0  0  0  0  0
    7.6760    1.8175    0.0000 C   0  0  0  0  0  0  0  0  0  0  0  0
    4.8100   -0.4145    0.0000 C   0  0  2  0  0  0  0  0  0  0  0  0
    3.8100   -0.4145    0.0000 C   0  0  1  0  0  0  0  0  0  0  0  0
    3.3100   -1.2806    0.0000 C   0  0  2  0  0  0  0  0  0  0  0  0
    3.8100   -2.1466    0.0000 C   0  0  1  0  0  0  0  0  0  0  0  0
    4.8100   -2.1466    0.0000 C   0  0  1  0  0  0  0  0  0  0  0  0
    7.1760    2.6835    0.0000 C   0  0  0  0  0  0  0  0  0  0  0  0
    5.3100   -3.0126    0.0000 C   0  0  0  0  0  0  0  0  0  0  0  0
    7.6760    3.5496    0.0000 C   0  0  0  0  0  0  0  0  0  0  0  0
    7.1760    4.4156    0.0000 C   0  0  0  0  0  0  0  0  0  0  0  0
    8.2541   -1.1311    0.0000 H   0  0  0  0  0  0  0  0  0  0  0  0
    8.6526   -0.4409    0.0000 H   0  0  0  0  0  0  0  0  0  0  0  0
    5.6994   -0.4409    0.0000 H   0  0  0  0  0  0  0  0  0  0  0  0
    6.0980   -1.1311    0.0000 H   0  0  0  0  0  0  0  0  0  0  0  0
    6.7775   -1.5235    0.0000 H   0  0  0  0  0  0  0  0  0  0  0  0
    7.5746   -1.5235    0.0000 H   0  0  0  0  0  0  0  0  0  0  0  0
    9.0420   -0.1685    0.0000 H   0  0  0  0  0  0  0  0  0  0  0  0
    9.6620    0.4515    0.0000 H   0  0  0  0  0  0  0  0  0  0  0  0
    9.0420    1.0715    0.0000 H   0  0  0  0  0  0  0  0  0  0  0  0
    9.2066    0.6193    0.0000 H   0  0  0  0  0  0  0  0  0  0  0  0
    9.2830    1.4928    0.0000 H   0  0  0  0  0  0  0  0  0  0  0  0
    8.4096    1.5692    0.0000 H   0  0  0  0  0  0  0  0  0  0  0  0
    6.1422    1.6160    0.0000 H   0  0  0  0  0  0  0  0  0  0  0  0
    5.2687    1.6925    0.0000 H   0  0  0  0  0  0  0  0  0  0  0  0
    5.1923    0.8190    0.0000 H   0  0  0  0  0  0  0  0  0  0  0  0
    8.2586    2.0296    0.0000 H   0  0  0  0  0  0  0  0  0  0  0  0
    4.5000    0.1224    0.0000 H   0  0  0  0  0  0  0  0  0  0  0  0
    6.0655    1.9253    0.0000 H   0  0  0  0  0  0  0  0  0  0  0  0
    3.1900   -0.4145    0.0000 H   0  0  0  0  0  0  0  0  0  0  0  0
    3.0000   -0.7436    0.0000 H   0  0  0  0  0  0  0  0  0  0  0  0
    4.1200   -2.6835    0.0000 H   0  0  0  0  0  0  0  0  0  0  0  0
    5.4300   -2.1466    0.0000 H   0  0  0  0  0  0  0  0  0  0  0  0
    6.5560    2.6835    0.0000 H   0  0  0  0  0  0  0  0  0  0  0  0
    5.7850   -3.4112    0.0000 H   0  0  0  0  0  0  0  0  0  0  0  0
    5.7850   -2.6141    0.0000 H   0  0  0  0  0  0  0  0  0  0  0  0
    2.6900    0.4515    0.0000 H   0  0  0  0  0  0  0  0  0  0  0  0
    2.0000   -1.8175    0.0000 H   0  0  0  0  0  0  0  0  0  0  0  0
    2.6900   -3.0126    0.0000 H   0  0  0  0  0  0  0  0  0  0  0  0
    5.1200   -4.4156    0.0000 H   0  0  0  0  0  0  0  0  0  0  0  0
    7.7130    4.7256    0.0000 H   0  0  0  0  0  0  0  0  0  0  0  0
    6.8660    4.9525    0.0000 H   0  0  0  0  0  0  0  0  0  0  0  0
    6.6391    4.1056    0.0000 H   0  0  0  0  0  0  0  0  0  0  0  0
 11  1  1  1  0  0  0
 19  1  1  6  0  0  0
 10  2  1  6  0  0  0
  2 45  1  0  0  0  0
  3 19  1  0  0  0  0
  3 23  1  0  0  0  0
 20  4  1  1  0  0  0
  4 53  1  0  0  0  0
 21  5  1  6  0  0  0
  5 54  1  0  0  0  0
 22  6  1  1  0  0  0
  6 55  1  0  0  0  0
  7 25  1  0  0  0  0
  7 56  1  0  0  0  0
  8 26  2  0  0  0  0
  9 10  1  0  0  0  0
  9 12  1  0  0  0  0
  9 15  1  0  0  0  0
  9 16  1  0  0  0  0
 10 11  1  0  0  0  0
 10 18  1  0  0  0  0
 11 13  1  0  0  0  0
 11 17  1  0  0  0  0
 12 14  1  0  0  0  0
 12 28  1  0  0  0  0
 12 29  1  0  0  0  0
 13 14  1  0  0  0  0
 13 30  1  0  0  0  0
 13 31  1  0  0  0  0
 14 32  1  0  0  0  0
 14 33  1  0  0  0  0
 15 34  1  0  0  0  0
 15 35  1  0  0  0  0
 15 36  1  0  0  0  0
 16 37  1  0  0  0  0
 16 38  1  0  0  0  0
 16 39  1  0  0  0  0
 17 40  1  0  0  0  0
 17 41  1  0  0  0  0
 17 42  1  0  0  0  0
 18 24  2  0  0  0  0
 18 43  1  0  0  0  0
 19 20  1  0  0  0  0
 19 44  1  0  0  0  0
 20 21  1  0  0  0  0
 20 46  1  0  0  0  0
 21 22  1  0  0  0  0
 21 47  1  0  0  0  0
 22 23  1  0  0  0  0
 22 48  1  0  0  0  0
 23 25  1  6  0  0  0
 23 49  1  0  0  0  0
 24 26  1  0  0  0  0
 24 50  1  0  0  0  0
 25 51  1  0  0  0  0
 25 52  1  0  0  0  0
 26 27  1  0  0  0  0
 27 57  1  0  0  0  0
 27 58  1  0  0  0  0
 27 59  1  0  0  0  0
M  END
> <PUBCHEM_COMPOUND_CID>
11740990

> <PUBCHEM_COMPOUND_CANONICALIZED>
1

> <PUBCHEM_CACTVS_COMPLEXITY>
576

> <PUBCHEM_CACTVS_HBOND_ACCEPTOR>
8

> <PUBCHEM_CACTVS_HBOND_DONOR>
5

> <PUBCHEM_CACTVS_ROTATABLE_BOND>
5

> <PUBCHEM_CACTVS_SUBSKEYS>
AAADcfB4PAAAAAAAAAAAAAAAAAAAAAAAAAA0QAAAAAAAAAAAAAAAGgAACAAADlSwgAMCCAAABgCIAKBSAAAAAAAgAAAICAAAAEgRFAIAAAAiUAAFwAAPEYPA4PwPgAAAAAAAAAAAAAYAADCAAAAAAAAAAA==

> <PUBCHEM_IUPAC_OPENEYE_NAME>
(E)-4-[(1R,6R)-1-hydroxy-2,2,6-trimethyl-6-[(2S,3R,4S,5S,6R)-3,4,5-trihydroxy-6-(hydroxymethyl)tetrahydropyran-2-yl]oxy-cyclohexyl]but-3-en-2-one

> <PUBCHEM_IUPAC_CAS_NAME>
(E)-4-[(1R,6R)-1-hydroxy-2,2,6-trimethyl-6-[[(2S,3R,4S,5S,6R)-3,4,5-trihydroxy-6-(hydroxymethyl)-2-oxanyl]oxy]cyclohexyl]-3-buten-2-one

> <PUBCHEM_IUPAC_NAME>
(E)-4-[(1R,6R)-1-hydroxy-2,2,6-trimethyl-6-[(2S,3R,4S,5S,6R)-3,4,5-trihydroxy-6-(hydroxymethyl)oxan-2-yl]oxycyclohexyl]but-3-en-2-one

> <PUBCHEM_IUPAC_SYSTEMATIC_NAME>
(E)-4-[(1R,2R)-2-[(2S,3R,4S,5S,6R)-6-(hydroxymethyl)-3,4,5-tris(oxidanyl)oxan-2-yl]oxy-2,6,6-trimethyl-1-oxidanyl-cyclohexyl]but-3-en-2-one

> <PUBCHEM_IUPAC_TRADITIONAL_NAME>
(E)-4-[(1R,6R)-1-hydroxy-2,2,6-trimethyl-6-[(2S,3R,4S,5S,6R)-3,4,5-trihydroxy-6-methylol-tetrahydropyran-2-yl]oxy-cyclohexyl]but-3-en-2-one

> <PUBCHEM_IUPAC_INCHI>
InChI=1S/C19H32O8/c1-11(21)6-9-19(25)17(2,3)7-5-8-18(19,4)27-16-15(24)14(23)13(22)12(10-20)26-16/h6,9,12-16,20,22-25H,5,7-8,10H2,1-4H3/b9-6+/t12-,13-,14+,15-,16+,18-,19-/m1/s1

> <PUBCHEM_IUPAC_INCHIKEY>
UUBHXYINEPOWQI-XHWTUMPSSA-N

> <PUBCHEM_XLOGP3_AA>
-0.6

> <PUBCHEM_EXACT_MASS>
388.209718

> <PUBCHEM_MOLECULAR_FORMULA>
C19H32O8

> <PUBCHEM_MOLECULAR_WEIGHT>
388.45258

> <PUBCHEM_OPENEYE_CAN_SMILES>
CC(=O)C=CC1(C(CCCC1(C)OC2C(C(C(C(O2)CO)O)O)O)(C)C)O

> <PUBCHEM_OPENEYE_ISO_SMILES>
CC(=O)/C=C/[C@@]1([C@](CCCC1(C)C)(C)O[C@H]2[C@@H]([C@H]([C@@H]([C@H](O2)CO)O)O)O)O

> <PUBCHEM_CACTVS_TPSA>
137

> <PUBCHEM_MONOISOTOPIC_WEIGHT>
388.209718

> <PUBCHEM_TOTAL_CHARGE>
0

> <PUBCHEM_HEAVY_ATOM_COUNT>
27

> <PUBCHEM_ATOM_DEF_STEREO_COUNT>
7

> <PUBCHEM_ATOM_UDEF_STEREO_COUNT>
0

> <PUBCHEM_BOND_DEF_STEREO_COUNT>
1

> <PUBCHEM_BOND_UDEF_STEREO_COUNT>
0

> <PUBCHEM_ISOTOPIC_ATOM_COUNT>
0

> <PUBCHEM_COMPONENT_COUNT>
1

> <PUBCHEM_CACTVS_TAUTO_COUNT>
2

> <PUBCHEM_COORDINATE_TYPE>
1
5
255

> <PUBCHEM_BONDANNOTATIONS>
11  1  5
19  1  6
10  2  6
23  25  6
20  4  5
21  5  6
22  6  5

$$$$

