7368
  -OEChem-06261202023D

 15 15  0     0  0  0  0  0  0999 V2000
    2.1175    1.2517   -0.0008 F   0  0  0  0  0  0  0  0  0  0  0  0
    2.1166   -0.6263    1.0842 F   0  0  0  0  0  0  0  0  0  0  0  0
    2.0947   -0.6301   -1.0903 F   0  0  0  0  0  0  0  0  0  0  0  0
    0.0784    0.0006    0.0007 C   0  0  0  0  0  0  0  0  0  0  0  0
   -0.6189    1.2087   -0.0005 C   0  0  0  0  0  0  0  0  0  0  0  0
   -0.6191   -1.2073    0.0024 C   0  0  0  0  0  0  0  0  0  0  0  0
    1.5699    0.0003    0.0005 C   0  0  0  0  0  0  0  0  0  0  0  0
   -2.0138    1.2088   -0.0002 C   0  0  0  0  0  0  0  0  0  0  0  0
   -2.0140   -1.2072    0.0027 C   0  0  0  0  0  0  0  0  0  0  0  0
   -2.7114    0.0008    0.0014 C   0  0  0  0  0  0  0  0  0  0  0  0
   -0.0934    2.1596   -0.0017 H   0  0  0  0  0  0  0  0  0  0  0  0
   -0.0847   -2.1536    0.0035 H   0  0  0  0  0  0  0  0  0  0  0  0
   -2.5569    2.1493   -0.0012 H   0  0  0  0  0  0  0  0  0  0  0  0
   -2.5572   -2.1477    0.0040 H   0  0  0  0  0  0  0  0  0  0  0  0
   -3.7974    0.0010    0.0016 H   0  0  0  0  0  0  0  0  0  0  0  0
  1  7  1  0  0  0  0
  2  7  1  0  0  0  0
  3  7  1  0  0  0  0
  4  5  2  0  0  0  0
  4  6  1  0  0  0  0
  4  7  1  0  0  0  0
  5  8  1  0  0  0  0
  5 11  1  0  0  0  0
  6  9  2  0  0  0  0
  6 12  1  0  0  0  0
  8 10  2  0  0  0  0
  8 13  1  0  0  0  0
  9 10  1  0  0  0  0
  9 14  1  0  0  0  0
 10 15  1  0  0  0  0
M  END
> <PUBCHEM_COMPOUND_CID>
7368

> <PUBCHEM_CONFORMER_RMSD>
0.4

> <PUBCHEM_CONFORMER_DIVERSEORDER>
1

> <PUBCHEM_MMFF94_PARTIAL_CHARGES>
15
1 -0.34
10 -0.15
11 0.15
12 0.15
13 0.15
14 0.15
15 0.15
2 -0.34
3 -0.34
4 -0.14
5 -0.15
6 -0.15
7 1.16
8 -0.15
9 -0.15

> <PUBCHEM_EFFECTIVE_ROTOR_COUNT>
1

> <PUBCHEM_PHARMACOPHORE_FEATURES>
1
6 4 5 6 8 9 10 rings

> <PUBCHEM_HEAVY_ATOM_COUNT>
10

> <PUBCHEM_ATOM_DEF_STEREO_COUNT>
0

> <PUBCHEM_ATOM_UDEF_STEREO_COUNT>
0

> <PUBCHEM_BOND_DEF_STEREO_COUNT>
0

> <PUBCHEM_BOND_UDEF_STEREO_COUNT>
0

> <PUBCHEM_ISOTOPIC_ATOM_COUNT>
0

> <PUBCHEM_COMPONENT_COUNT>
1

> <PUBCHEM_CACTVS_TAUTO_COUNT>
1

> <PUBCHEM_CONFORMER_ID>
00001CC800000001

> <PUBCHEM_MMFF94_ENERGY>
16.1624

> <PUBCHEM_FEATURE_SELFOVERLAP>
5.074

> <PUBCHEM_SHAPE_FINGERPRINT>
10857977 72 18335428906928820979
12524768 44 18335979779312931981
12897270 3 18409725140726378045
12932764 1 17988922292643580181
14325111 11 18410856577210204769
15310529 11 16917344853093294077
16945 1 18338797922278249575
18185500 45 18200315416091121315
19973954 147 18334852822691432945
20645464 45 18040445403226176930
21040471 1 18194401319239239109
23552423 10 18200872885571366479
2748010 2 18410293567074383501
29004967 10 16732986426806969075
3248919 1 18040157331216622649
369184 2 18130795550867080657
5084963 1 18041274473616473035

> <PUBCHEM_SHAPE_MULTIPOLES>
183.97
3.58
1.41
0.75
0.38
0.11
0
0
0.01
-0.37
0
0.32
-0.11
0

> <PUBCHEM_SHAPE_SELFOVERLAP>
386.186

> <PUBCHEM_SHAPE_VOLUME>
104.7

> <PUBCHEM_COORDINATE_TYPE>
2
5
10

$$$$

