440404
  -OEChem-07051212493D

 36 37  0     1  0  0  0  0  0999 V2000
    2.0327    0.4115    0.6998 S   0  0  0  0  0  0  0  0  0  0  0  0
    5.6701   -1.4525   -0.4918 S   0  0  0  0  0  0  0  0  0  0  0  0
   -3.5638    1.9422   -0.2883 O   0  0  0  0  0  0  0  0  0  0  0  0
   -3.7447   -1.5862    0.5784 O   0  0  0  0  0  0  0  0  0  0  0  0
   -1.9753    3.1413    0.8845 O   0  0  0  0  0  0  0  0  0  0  0  0
   -5.3782   -2.7182   -0.5994 O   0  0  0  0  0  0  0  0  0  0  0  0
   -3.1780    0.7500    0.3895 C   0  0  1  0  0  0  0  0  0  0  0  0
   -4.0739   -0.3818   -0.0994 C   0  0  0  0  0  0  0  0  0  0  0  0
    3.2178   -0.2748   -0.3281 C   0  0  0  0  0  0  0  0  0  0  0  0
    4.5937   -0.2206    0.0142 C   0  0  0  0  0  0  0  0  0  0  0  0
    0.7759   -0.0513   -0.3607 C   0  0  0  0  0  0  0  0  0  0  0  0
    2.6606   -0.8425   -1.4528 C   0  0  0  0  0  0  0  0  0  0  0  0
    1.2418   -0.7121   -1.4709 C   0  0  0  0  0  0  0  0  0  0  0  0
    5.2320    0.7532    0.7504 C   0  0  0  0  0  0  0  0  0  0  0  0
   -1.7610    0.4648    0.1195 C   0  0  0  0  0  0  0  0  0  0  0  0
   -0.6034    0.2306   -0.0993 C   0  0  0  0  0  0  0  0  0  0  0  0
    6.6230    0.4845    0.9008 C   0  0  0  0  0  0  0  0  0  0  0  0
    6.9950   -0.6845    0.2741 C   0  0  0  0  0  0  0  0  0  0  0  0
   -2.8754    3.0702    0.0588 C   0  0  0  0  0  0  0  0  0  0  0  0
   -4.4795   -2.6864    0.2303 C   0  0  0  0  0  0  0  0  0  0  0  0
   -3.3852    4.2382   -0.7298 C   0  0  0  0  0  0  0  0  0  0  0  0
   -4.0242   -3.8756    1.0204 C   0  0  0  0  0  0  0  0  0  0  0  0
   -3.3291    0.8798    1.4690 H   0  0  0  0  0  0  0  0  0  0  0  0
   -3.9553   -0.5212   -1.1823 H   0  0  0  0  0  0  0  0  0  0  0  0
   -5.1243   -0.1248    0.0879 H   0  0  0  0  0  0  0  0  0  0  0  0
    3.2221   -1.3259   -2.2429 H   0  0  0  0  0  0  0  0  0  0  0  0
    0.6083   -1.0872   -2.2654 H   0  0  0  0  0  0  0  0  0  0  0  0
    4.7488    1.6297    1.1646 H   0  0  0  0  0  0  0  0  0  0  0  0
    7.3161    1.1173    1.4396 H   0  0  0  0  0  0  0  0  0  0  0  0
    7.9816   -1.1238    0.2290 H   0  0  0  0  0  0  0  0  0  0  0  0
   -4.4440    4.3986   -0.5121 H   0  0  0  0  0  0  0  0  0  0  0  0
   -3.2339    4.0587   -1.7972 H   0  0  0  0  0  0  0  0  0  0  0  0
   -2.8309    5.1374   -0.4456 H   0  0  0  0  0  0  0  0  0  0  0  0
   -4.1716   -3.6899    2.0872 H   0  0  0  0  0  0  0  0  0  0  0  0
   -2.9722   -4.0812    0.8069 H   0  0  0  0  0  0  0  0  0  0  0  0
   -4.6154   -4.7499    0.7336 H   0  0  0  0  0  0  0  0  0  0  0  0
  1  9  1  0  0  0  0
  1 11  1  0  0  0  0
  2 10  1  0  0  0  0
  2 18  1  0  0  0  0
  3  7  1  0  0  0  0
  3 19  1  0  0  0  0
  4  8  1  0  0  0  0
  4 20  1  0  0  0  0
  5 19  2  0  0  0  0
  6 20  2  0  0  0  0
  7  8  1  0  0  0  0
  7 15  1  0  0  0  0
  7 23  1  0  0  0  0
  8 24  1  0  0  0  0
  8 25  1  0  0  0  0
  9 10  1  0  0  0  0
  9 12  2  0  0  0  0
 10 14  2  0  0  0  0
 11 13  2  0  0  0  0
 11 16  1  0  0  0  0
 12 13  1  0  0  0  0
 12 26  1  0  0  0  0
 13 27  1  0  0  0  0
 14 17  1  0  0  0  0
 14 28  1  0  0  0  0
 15 16  3  0  0  0  0
 17 18  2  0  0  0  0
 17 29  1  0  0  0  0
 18 30  1  0  0  0  0
 19 21  1  0  0  0  0
 20 22  1  0  0  0  0
 21 31  1  0  0  0  0
 21 32  1  0  0  0  0
 21 33  1  0  0  0  0
 22 34  1  0  0  0  0
 22 35  1  0  0  0  0
 22 36  1  0  0  0  0
M  END
> <PUBCHEM_COMPOUND_CID>
440404

> <PUBCHEM_CONFORMER_RMSD>
0.8

> <PUBCHEM_CONFORMER_DIVERSEORDER>
1
65
66
24
70
80
46
92
22
95
31
53
64
55
60
86
68
41
84
58
43
39
6
61
38
28
62
94
82
75
45
63
25
40
49
91
81
96
19
59
23
20
15
71
51
5
85
35
42
93
14
54
10
16
90
34
29
74
12
26
13
89
44
88
21
37
78
33
18
50
57
48
8
7
87
73
17
30
67
47
52
56
69
36
32
4
27
79
77
72
3
83
11
76
2
9

> <PUBCHEM_MMFF94_PARTIAL_CHARGES>
27
1 -0.08
10 0.04
11 0.06
12 -0.15
13 -0.15
14 -0.15
15 -0.2
16 -0.02
17 -0.15
18 -0.11
19 0.66
2 -0.08
20 0.66
21 0.06
22 0.06
26 0.15
27 0.15
28 0.15
29 0.15
3 -0.43
30 0.15
4 -0.43
5 -0.57
6 -0.57
7 0.48
8 0.28
9 0.04

> <PUBCHEM_EFFECTIVE_ROTOR_COUNT>
6

> <PUBCHEM_PHARMACOPHORE_FEATURES>
4
1 5 acceptor
1 6 acceptor
5 1 9 11 12 13 rings
5 2 10 14 17 18 rings

> <PUBCHEM_HEAVY_ATOM_COUNT>
22

> <PUBCHEM_ATOM_DEF_STEREO_COUNT>
0

> <PUBCHEM_ATOM_UDEF_STEREO_COUNT>
1

> <PUBCHEM_BOND_DEF_STEREO_COUNT>
0

> <PUBCHEM_BOND_UDEF_STEREO_COUNT>
0

> <PUBCHEM_ISOTOPIC_ATOM_COUNT>
0

> <PUBCHEM_COMPONENT_COUNT>
1

> <PUBCHEM_CACTVS_TAUTO_COUNT>
1

> <PUBCHEM_CONFORMER_ID>
0006B85400000001

> <PUBCHEM_MMFF94_ENERGY>
25.1556

> <PUBCHEM_FEATURE_SELFOVERLAP>
20.297

> <PUBCHEM_SHAPE_FINGERPRINT>
10411042 1 18267584594842570467
10595046 47 18343300354128202712
10816530 145 18188480376431781385
11056379 131 18412543236600016683
11101153 10 18269833117058658780
11545043 162 18334579062018993432
12107183 9 17695074683774643498
12596602 18 18343308059347141448
12616971 3 17489293179595677877
13583140 156 18114186371072714894
13631057 29 18411421691653206635
14251752 14 9295021158777240462
14844126 61 18342171159934238275
15188451 53 18272940384205195290
15463212 79 18057885943056065689
1768 4 16733838459252954272
17844677 252 18410851062788837808
18222031 100 17132117923167861558
18927931 339 18411130329862305559
19489759 90 18343582975365543248
21033648 29 17822872960523165640
21315763 129 18410857659911481936
2132832 1 18059287665272268333
21426921 1 18411981382032359669
21623969 137 17458338624824312550
21728266 224 18343588438368836459
22956985 138 17618786856224710563
2303208 19 17821997732187729038
23081809 10 17632290208055419838
23402539 116 18342741810072749046
23557571 272 18333730260164278325
23559900 14 18339089198444527297
255183 313 18265030597003868089
4073 2 18337387240528640066
5104073 3 18114460167101841178
5924683 9 18413669114889825443
5969126 39 18261121738376637175
7495541 125 18114179679866972346

> <PUBCHEM_SHAPE_MULTIPOLES>
436.97
16.21
4.03
1.07
18.46
1.32
-0.17
-5.95
2.43
-11.24
0.35
0.49
-0.16
1.61

> <PUBCHEM_SHAPE_SELFOVERLAP>
890.768

> <PUBCHEM_SHAPE_VOLUME>
253.4

> <PUBCHEM_COORDINATE_TYPE>
2
5
10

$$$$

