71961
  -OEChem-07051213033D

 61 63  0     1  0  0  0  0  0999 V2000
   -2.6050   -0.2132   -1.1411 S   0  0  0  0  0  0  0  0  0  0  0  0
   -2.3532    2.5906    2.2482 O   0  0  0  0  0  0  0  0  0  0  0  0
   -6.6831    1.4122    0.6564 O   0  0  0  0  0  0  0  0  0  0  0  0
   -5.4911    3.2926    0.1674 O   0  0  0  0  0  0  0  0  0  0  0  0
    0.9494    0.4798   -1.3191 O   0  0  0  0  0  0  0  0  0  0  0  0
    3.5484    0.5229    1.6360 O   0  0  0  0  0  0  0  0  0  0  0  0
   -1.2856   -5.8949   -0.3993 O   0  0  0  0  0  0  0  0  0  0  0  0
    4.3615    1.9351   -1.1563 O   0  0  0  0  0  0  0  0  0  0  0  0
   -3.1894    1.9711    0.1297 N   0  0  0  0  0  0  0  0  0  0  0  0
   -0.2882    0.7650    0.6206 N   0  0  0  0  0  0  0  0  0  0  0  0
    2.7438   -1.0494    0.1303 N   0  0  0  0  0  0  0  0  0  0  0  0
    5.7248   -1.5982    0.7956 N   0  0  0  0  0  0  0  0  0  0  0  0
    6.2728    3.0511   -0.4505 N   0  0  0  0  0  0  0  0  0  0  0  0
   -2.2164    1.5567   -0.8853 C   0  0  1  0  0  0  0  0  0  0  0  0
   -4.4046    0.0881   -0.7668 C   0  0  0  0  0  0  0  0  0  0  0  0
   -4.3714    1.1608    0.3431 C   0  0  2  0  0  0  0  0  0  0  0  0
   -1.1139    1.8824    0.1317 C   0  0  1  0  0  0  0  0  0  0  0  0
   -2.2614    2.2754    1.0834 C   0  0  0  0  0  0  0  0  0  0  0  0
   -5.0330   -1.2135   -0.2658 C   0  0  0  0  0  0  0  0  0  0  0  0
   -5.0883    0.5364   -2.0656 C   0  0  0  0  0  0  0  0  0  0  0  0
   -5.5438    2.0886    0.3708 C   0  0  0  0  0  0  0  0  0  0  0  0
    0.6846    0.1554   -0.1629 C   0  0  0  0  0  0  0  0  0  0  0  0
    1.3634   -1.0053    0.5528 C   0  0  1  0  0  0  0  0  0  0  0  0
    0.6536   -2.3145    0.2978 C   0  0  0  0  0  0  0  0  0  0  0  0
    3.7325   -0.2709    0.7158 C   0  0  0  0  0  0  0  0  0  0  0  0
    0.5108   -2.7653   -1.0042 C   0  0  0  0  0  0  0  0  0  0  0  0
    0.1605   -3.0385    1.3706 C   0  0  0  0  0  0  0  0  0  0  0  0
    5.0993   -0.4909    0.0708 C   0  0  1  0  0  0  0  0  0  0  0  0
   -0.1437   -3.9744   -1.2398 C   0  0  0  0  0  0  0  0  0  0  0  0
   -0.4939   -4.2477    1.1349 C   0  0  0  0  0  0  0  0  0  0  0  0
    5.9977    0.7450    0.1789 C   0  0  0  0  0  0  0  0  0  0  0  0
   -0.6460   -4.7156   -0.1703 C   0  0  0  0  0  0  0  0  0  0  0  0
    5.4320    1.9524   -0.5548 C   0  0  0  0  0  0  0  0  0  0  0  0
    5.9767    4.3307   -1.0529 C   0  0  0  0  0  0  0  0  0  0  0  0
   -2.2434    2.1844   -1.7806 H   0  0  0  0  0  0  0  0  0  0  0  0
   -4.2782    0.7093    1.3401 H   0  0  0  0  0  0  0  0  0  0  0  0
   -0.4941    2.7443   -0.1436 H   0  0  0  0  0  0  0  0  0  0  0  0
   -4.9724   -2.0056   -1.0214 H   0  0  0  0  0  0  0  0  0  0  0  0
   -6.0933   -1.0756   -0.0288 H   0  0  0  0  0  0  0  0  0  0  0  0
   -4.5405   -1.5805    0.6423 H   0  0  0  0  0  0  0  0  0  0  0  0
   -6.1665    0.6682   -1.9214 H   0  0  0  0  0  0  0  0  0  0  0  0
   -4.9672   -0.2099   -2.8600 H   0  0  0  0  0  0  0  0  0  0  0  0
   -4.6906    1.4877   -2.4368 H   0  0  0  0  0  0  0  0  0  0  0  0
   -0.4391    0.4089    1.5616 H   0  0  0  0  0  0  0  0  0  0  0  0
    1.3659   -0.7889    1.6291 H   0  0  0  0  0  0  0  0  0  0  0  0
   -7.4651    2.0040    0.6783 H   0  0  0  0  0  0  0  0  0  0  0  0
    2.9941   -1.6535   -0.6475 H   0  0  0  0  0  0  0  0  0  0  0  0
    0.8988   -2.2051   -1.8496 H   0  0  0  0  0  0  0  0  0  0  0  0
    0.2722   -2.6848    2.3914 H   0  0  0  0  0  0  0  0  0  0  0  0
    4.9706   -0.7667   -0.9822 H   0  0  0  0  0  0  0  0  0  0  0  0
   -0.2588   -4.3340   -2.2586 H   0  0  0  0  0  0  0  0  0  0  0  0
   -0.8811   -4.8153    1.9768 H   0  0  0  0  0  0  0  0  0  0  0  0
    6.9858    0.5281   -0.2471 H   0  0  0  0  0  0  0  0  0  0  0  0
    6.1445    1.0328    1.2285 H   0  0  0  0  0  0  0  0  0  0  0  0
    6.6379   -1.7982    0.3883 H   0  0  0  0  0  0  0  0  0  0  0  0
    5.9059   -1.3236    1.7609 H   0  0  0  0  0  0  0  0  0  0  0  0
   -1.5669   -6.2714    0.4521 H   0  0  0  0  0  0  0  0  0  0  0  0
    7.1282    2.9724    0.0916 H   0  0  0  0  0  0  0  0  0  0  0  0
    6.8939    4.7191   -1.5021 H   0  0  0  0  0  0  0  0  0  0  0  0
    5.1988    4.2375   -1.8144 H   0  0  0  0  0  0  0  0  0  0  0  0
    5.6420    5.0094   -0.2646 H   0  0  0  0  0  0  0  0  0  0  0  0
  1 14  1  0  0  0  0
  1 15  1  0  0  0  0
  2 18  2  0  0  0  0
  3 21  1  0  0  0  0
  3 46  1  0  0  0  0
  4 21  2  0  0  0  0
  5 22  2  0  0  0  0
  6 25  2  0  0  0  0
  7 32  1  0  0  0  0
  7 57  1  0  0  0  0
  8 33  2  0  0  0  0
  9 14  1  0  0  0  0
  9 16  1  0  0  0  0
  9 18  1  0  0  0  0
 10 17  1  0  0  0  0
 10 22  1  0  0  0  0
 10 44  1  0  0  0  0
 11 23  1  0  0  0  0
 11 25  1  0  0  0  0
 11 47  1  0  0  0  0
 12 28  1  0  0  0  0
 12 55  1  0  0  0  0
 12 56  1  0  0  0  0
 13 33  1  0  0  0  0
 13 34  1  0  0  0  0
 13 58  1  0  0  0  0
 14 17  1  0  0  0  0
 14 35  1  0  0  0  0
 15 16  1  0  0  0  0
 15 19  1  0  0  0  0
 15 20  1  0  0  0  0
 16 21  1  0  0  0  0
 16 36  1  0  0  0  0
 17 18  1  0  0  0  0
 17 37  1  0  0  0  0
 19 38  1  0  0  0  0
 19 39  1  0  0  0  0
 19 40  1  0  0  0  0
 20 41  1  0  0  0  0
 20 42  1  0  0  0  0
 20 43  1  0  0  0  0
 22 23  1  0  0  0  0
 23 24  1  0  0  0  0
 23 45  1  0  0  0  0
 24 26  2  0  0  0  0
 24 27  1  0  0  0  0
 25 28  1  0  0  0  0
 26 29  1  0  0  0  0
 26 48  1  0  0  0  0
 27 30  2  0  0  0  0
 27 49  1  0  0  0  0
 28 31  1  0  0  0  0
 28 50  1  0  0  0  0
 29 32  2  0  0  0  0
 29 51  1  0  0  0  0
 30 32  1  0  0  0  0
 30 52  1  0  0  0  0
 31 33  1  0  0  0  0
 31 53  1  0  0  0  0
 31 54  1  0  0  0  0
 34 59  1  0  0  0  0
 34 60  1  0  0  0  0
 34 61  1  0  0  0  0
M  END
> <PUBCHEM_COMPOUND_CID>
71961

> <PUBCHEM_CONFORMER_RMSD>
1.2

> <PUBCHEM_CONFORMER_DIVERSEORDER>
1
46
13
23
47
59
8
69
54
34
57
63
43
29
40
14
41
35
71
67
52
45
11
2
42
25
39
24
33
68
56
61
49
44
18
50
70
64
66
4
58
53
5
48
21
26
30
38
36
17
3
62
16
15
51
55
31
27
19
65
60
12
20
37
7
28
9
32
22
72
10
6

> <PUBCHEM_MMFF94_PARTIAL_CHARGES>
43
1 -0.45
10 -0.65
11 -0.73
12 -0.99
13 -0.73
14 0.44
15 0.23
16 0.36
17 0.28
18 0.58
2 -0.57
21 0.66
22 0.57
23 0.5
24 -0.14
25 0.57
26 -0.15
27 -0.15
28 0.33
29 -0.15
3 -0.65
30 -0.15
31 0.06
32 0.08
33 0.57
34 0.3
4 -0.57
44 0.37
46 0.5
47 0.37
48 0.15
49 0.15
5 -0.57
51 0.15
52 0.15
55 0.36
56 0.36
57 0.45
58 0.37
6 -0.57
7 -0.53
8 -0.57
9 -0.59

> <PUBCHEM_EFFECTIVE_ROTOR_COUNT>
11.8

> <PUBCHEM_PHARMACOPHORE_FEATURES>
17
1 10 donor
1 11 donor
1 12 cation
1 12 donor
1 13 donor
1 2 acceptor
1 3 acceptor
1 4 acceptor
1 5 acceptor
1 6 acceptor
1 7 donor
1 8 acceptor
3 15 19 20 hydrophobe
3 3 4 21 anion
4 9 14 17 18 rings
6 24 26 27 29 30 32 rings
7 1 9 14 15 16 17 18 rings

> <PUBCHEM_HEAVY_ATOM_COUNT>
34

> <PUBCHEM_ATOM_DEF_STEREO_COUNT>
5

> <PUBCHEM_ATOM_UDEF_STEREO_COUNT>
0

> <PUBCHEM_BOND_DEF_STEREO_COUNT>
0

> <PUBCHEM_BOND_UDEF_STEREO_COUNT>
0

> <PUBCHEM_ISOTOPIC_ATOM_COUNT>
0

> <PUBCHEM_COMPONENT_COUNT>
1

> <PUBCHEM_CACTVS_TAUTO_COUNT>
16

> <PUBCHEM_CONFORMER_ID>
0001191900000001

> <PUBCHEM_MMFF94_ENERGY>
80.5112

> <PUBCHEM_FEATURE_SELFOVERLAP>
90.054

> <PUBCHEM_SHAPE_FINGERPRINT>
10090160 65 18339367473327548493
11135926 11 18267877266424332679
11421498 54 17824547602051125665
11578080 2 17389677289097314530
11991303 11 18272366434750897542
12516196 113 9367049065711003080
12633046 712 6338376203091180357
12788726 201 17982181019777930898
13165053 182 17412481133870361637
13782708 43 4678234557190180661
14190465 44 18265627489930907192
14251757 5 18265054617975264718
14790565 3 18411138043254271532
14840074 17 18060419118555974380
14849402 71 18196370540671272906
15064981 194 18196354954403325900
15276724 80 18122902019653231486
15968369 153 17538015657842224918
16114785 44 17986103016413838058
19319366 153 18261679297587322135
21796203 349 16821611724547314107
27425 322 18408603682000485892
4258327 124 17844799305587974140
5171179 24 17322394796316609800
5265222 85 18409165472629663521
5486654 2 18336268959450415557
9658208 31 18260558788222950722

> <PUBCHEM_SHAPE_MULTIPOLES>
637.56
14.62
6.28
1.42
9
7.5
-0.04
-17.5
1.44
0.48
0.28
-0.61
-0.18
-2.5

> <PUBCHEM_SHAPE_SELFOVERLAP>
1330.492

> <PUBCHEM_SHAPE_VOLUME>
363.5

> <PUBCHEM_COORDINATE_TYPE>
2
5
10

$$$$

