441041
  -OEChem-07051212513D

 23 23  0     1  0  0  0  0  0999 V2000
   -0.2951    1.2171   -0.4237 O   0  0  0  0  0  0  0  0  0  0  0  0
    1.6129   -1.1314    1.4358 O   0  0  0  0  0  0  0  0  0  0  0  0
   -0.7215   -1.5159   -1.3404 O   0  0  0  0  0  0  0  0  0  0  0  0
    3.1846    0.0264   -0.5657 O   0  0  0  0  0  0  0  0  0  0  0  0
    1.5330    1.6729    1.0158 O   0  0  0  0  0  0  0  0  0  0  0  0
   -2.9976   -0.6267    0.9267 O   0  0  0  0  0  0  0  0  0  0  0  0
   -2.8895    1.0403   -0.6241 O   0  0  0  0  0  0  0  0  0  0  0  0
    1.2052   -1.2131    0.0720 C   0  0  1  0  0  0  0  0  0  0  0  0
   -0.3251   -1.2009   -0.0055 C   0  0  1  0  0  0  0  0  0  0  0  0
    1.7716   -0.0243   -0.7144 C   0  0  1  0  0  0  0  0  0  0  0  0
   -0.8656    0.1822    0.3740 C   0  0  2  0  0  0  0  0  0  0  0  0
    1.1287    1.3041   -0.3000 C   0  0  1  0  0  0  0  0  0  0  0  0
   -2.3415    0.2693    0.1495 C   0  0  0  0  0  0  0  0  0  0  0  0
    1.6073   -2.1481   -0.3353 H   0  0  0  0  0  0  0  0  0  0  0  0
   -0.7354   -1.9690    0.6606 H   0  0  0  0  0  0  0  0  0  0  0  0
    1.5590   -0.1942   -1.7775 H   0  0  0  0  0  0  0  0  0  0  0  0
   -0.6779    0.4120    1.4300 H   0  0  0  0  0  0  0  0  0  0  0  0
    1.4773    2.0937   -0.9753 H   0  0  0  0  0  0  0  0  0  0  0  0
    2.5844   -1.0917    1.4466 H   0  0  0  0  0  0  0  0  0  0  0  0
   -1.6795   -1.6808   -1.3355 H   0  0  0  0  0  0  0  0  0  0  0  0
    3.5064    0.7865   -1.0796 H   0  0  0  0  0  0  0  0  0  0  0  0
    1.4717    2.6415    1.0736 H   0  0  0  0  0  0  0  0  0  0  0  0
   -3.9687   -0.5851    0.7940 H   0  0  0  0  0  0  0  0  0  0  0  0
  1 11  1  0  0  0  0
  1 12  1  0  0  0  0
  2  8  1  0  0  0  0
  2 19  1  0  0  0  0
  3  9  1  0  0  0  0
  3 20  1  0  0  0  0
  4 10  1  0  0  0  0
  4 21  1  0  0  0  0
  5 12  1  0  0  0  0
  5 22  1  0  0  0  0
  6 13  1  0  0  0  0
  6 23  1  0  0  0  0
  7 13  2  0  0  0  0
  8  9  1  0  0  0  0
  8 10  1  0  0  0  0
  8 14  1  0  0  0  0
  9 11  1  0  0  0  0
  9 15  1  0  0  0  0
 10 12  1  0  0  0  0
 10 16  1  0  0  0  0
 11 13  1  0  0  0  0
 11 17  1  0  0  0  0
 12 18  1  0  0  0  0
M  END
> <PUBCHEM_COMPOUND_CID>
441041

> <PUBCHEM_CONFORMER_RMSD>
0.6

> <PUBCHEM_CONFORMER_DIVERSEORDER>
1
6
2
5
3
4
7

> <PUBCHEM_MMFF94_PARTIAL_CHARGES>
18
1 -0.56
10 0.28
11 0.34
12 0.56
13 0.66
19 0.4
2 -0.68
20 0.4
21 0.4
22 0.4
23 0.5
3 -0.68
4 -0.68
5 -0.68
6 -0.65
7 -0.57
8 0.28
9 0.28

> <PUBCHEM_EFFECTIVE_ROTOR_COUNT>
2.2

> <PUBCHEM_PHARMACOPHORE_FEATURES>
13
1 1 acceptor
1 2 acceptor
1 2 donor
1 3 acceptor
1 3 donor
1 4 acceptor
1 4 donor
1 5 acceptor
1 5 donor
1 6 acceptor
1 7 acceptor
3 6 7 13 anion
6 1 8 9 10 11 12 rings

> <PUBCHEM_HEAVY_ATOM_COUNT>
13

> <PUBCHEM_ATOM_DEF_STEREO_COUNT>
4

> <PUBCHEM_ATOM_UDEF_STEREO_COUNT>
1

> <PUBCHEM_BOND_DEF_STEREO_COUNT>
0

> <PUBCHEM_BOND_UDEF_STEREO_COUNT>
0

> <PUBCHEM_ISOTOPIC_ATOM_COUNT>
0

> <PUBCHEM_COMPONENT_COUNT>
1

> <PUBCHEM_CACTVS_TAUTO_COUNT>
1

> <PUBCHEM_CONFORMER_ID>
0006BAD100000001

> <PUBCHEM_MMFF94_ENERGY>
27.2837

> <PUBCHEM_FEATURE_SELFOVERLAP>
66.095

> <PUBCHEM_SHAPE_FINGERPRINT>
12423570 1 6723293169249446578
12932764 1 18412544301836328091
13380536 243 18187650240303135990
14993402 34 18187366562018790974
15775835 57 18410849958454501285
16945 1 18187085074199363078
21040471 1 18339922593502776692
23235685 24 17967807275617566703
23402655 69 18267878353415354677
241688 4 15456494508463631072
2748010 2 18192427468091650868
5084963 1 18269538473516259817
528862 383 17846502568830735002
528886 8 18410571811903287119
53812653 166 18412261739863879872

> <PUBCHEM_SHAPE_MULTIPOLES>
226.45
3.82
1.6
1.06
1.31
0.08
-0.09
0.39
-0.06
-0.26
-0.03
-0.13
-0.19
0.1

> <PUBCHEM_SHAPE_SELFOVERLAP>
463.098

> <PUBCHEM_SHAPE_VOLUME>
128

> <PUBCHEM_COORDINATE_TYPE>
2
5
10

$$$$

