181271
  -OEChem-07051212593D

 34 35  0     0  0  0  0  0  0999 V2000
    4.0894   -1.9008   -0.1363 O   0  0  0  0  0  0  0  0  0  0  0  0
   -2.5196   -2.1786   -0.2244 O   0  0  0  0  0  0  0  0  0  0  0  0
    3.8811    2.8676   -0.2122 O   0  0  0  0  0  0  0  0  0  0  0  0
   -0.1877    0.3148    0.6872 C   0  0  0  0  0  0  0  0  0  0  0  0
   -1.0670    0.2562   -0.5769 C   0  0  0  0  0  0  0  0  0  0  0  0
    1.2891    0.3745    0.3822 C   0  0  0  0  0  0  0  0  0  0  0  0
   -2.5330    0.2174   -0.2955 C   0  0  0  0  0  0  0  0  0  0  0  0
    2.0069   -0.8054    0.2642 C   0  0  0  0  0  0  0  0  0  0  0  0
    1.9014    1.6080    0.2258 C   0  0  0  0  0  0  0  0  0  0  0  0
   -3.1953   -0.9991   -0.1314 C   0  0  0  0  0  0  0  0  0  0  0  0
   -3.2402    1.4156   -0.1970 C   0  0  0  0  0  0  0  0  0  0  0  0
    3.3719   -0.7503   -0.0176 C   0  0  0  0  0  0  0  0  0  0  0  0
    3.2665    1.6631   -0.0559 C   0  0  0  0  0  0  0  0  0  0  0  0
    4.0016    0.4840   -0.1776 C   0  0  0  0  0  0  0  0  0  0  0  0
   -4.5652   -1.0173    0.1311 C   0  0  0  0  0  0  0  0  0  0  0  0
   -4.6101    1.3972    0.0654 C   0  0  0  0  0  0  0  0  0  0  0  0
   -5.2726    0.1808    0.2295 C   0  0  0  0  0  0  0  0  0  0  0  0
    3.3828   -3.1278    0.0394 C   0  0  0  0  0  0  0  0  0  0  0  0
   -0.3937   -0.5546    1.3260 H   0  0  0  0  0  0  0  0  0  0  0  0
   -0.4670    1.1862    1.2949 H   0  0  0  0  0  0  0  0  0  0  0  0
   -0.7789   -0.6078   -1.1906 H   0  0  0  0  0  0  0  0  0  0  0  0
   -0.8462    1.1251   -1.2127 H   0  0  0  0  0  0  0  0  0  0  0  0
    1.4639   -1.7349    0.3958 H   0  0  0  0  0  0  0  0  0  0  0  0
    1.3312    2.5285    0.3179 H   0  0  0  0  0  0  0  0  0  0  0  0
   -2.7363    2.3706   -0.3202 H   0  0  0  0  0  0  0  0  0  0  0  0
    5.0659    0.5196   -0.3972 H   0  0  0  0  0  0  0  0  0  0  0  0
   -5.0941   -1.9577    0.2613 H   0  0  0  0  0  0  0  0  0  0  0  0
   -5.1608    2.3301    0.1428 H   0  0  0  0  0  0  0  0  0  0  0  0
   -6.3392    0.1667    0.4341 H   0  0  0  0  0  0  0  0  0  0  0  0
   -3.1415   -2.9127   -0.0821 H   0  0  0  0  0  0  0  0  0  0  0  0
    4.8233    2.7184   -0.4021 H   0  0  0  0  0  0  0  0  0  0  0  0
    2.6134   -3.2628   -0.7284 H   0  0  0  0  0  0  0  0  0  0  0  0
    2.9786   -3.2180    1.0534 H   0  0  0  0  0  0  0  0  0  0  0  0
    4.1072   -3.9389   -0.0886 H   0  0  0  0  0  0  0  0  0  0  0  0
  1 12  1  0  0  0  0
  1 18  1  0  0  0  0
  2 10  1  0  0  0  0
  2 30  1  0  0  0  0
  3 13  1  0  0  0  0
  3 31  1  0  0  0  0
  4  5  1  0  0  0  0
  4  6  1  0  0  0  0
  4 19  1  0  0  0  0
  4 20  1  0  0  0  0
  5  7  1  0  0  0  0
  5 21  1  0  0  0  0
  5 22  1  0  0  0  0
  6  8  1  0  0  0  0
  6  9  2  0  0  0  0
  7 10  1  0  0  0  0
  7 11  2  0  0  0  0
  8 12  2  0  0  0  0
  8 23  1  0  0  0  0
  9 13  1  0  0  0  0
  9 24  1  0  0  0  0
 10 15  2  0  0  0  0
 11 16  1  0  0  0  0
 11 25  1  0  0  0  0
 12 14  1  0  0  0  0
 13 14  2  0  0  0  0
 14 26  1  0  0  0  0
 15 17  1  0  0  0  0
 15 27  1  0  0  0  0
 16 17  2  0  0  0  0
 16 28  1  0  0  0  0
 17 29  1  0  0  0  0
 18 32  1  0  0  0  0
 18 33  1  0  0  0  0
 18 34  1  0  0  0  0
M  END
> <PUBCHEM_COMPOUND_CID>
181271

> <PUBCHEM_CONFORMER_RMSD>
0.6

> <PUBCHEM_CONFORMER_DIVERSEORDER>
4
38
41
17
26
12
45
9
43
32
52
23
25
20
19
8
51
55
44
30
7
28
21
22
24
39
18
36
48
54
11
47
1
6
31
40
33
27
13
5
16
10
37
29
42
15
50
3
49
46
14
53
2
34
35

> <PUBCHEM_MMFF94_PARTIAL_CHARGES>
27
1 -0.36
10 0.08
11 -0.15
12 0.08
13 0.08
14 -0.15
15 -0.15
16 -0.15
17 -0.15
18 0.28
2 -0.53
23 0.15
24 0.15
25 0.15
26 0.15
27 0.15
28 0.15
29 0.15
3 -0.53
30 0.45
31 0.45
4 0.14
5 0.14
6 -0.14
7 -0.14
8 -0.15
9 -0.15

> <PUBCHEM_EFFECTIVE_ROTOR_COUNT>
4

> <PUBCHEM_PHARMACOPHORE_FEATURES>
5
1 1 acceptor
1 2 donor
1 3 donor
6 6 8 9 12 13 14 rings
6 7 10 11 15 16 17 rings

> <PUBCHEM_HEAVY_ATOM_COUNT>
18

> <PUBCHEM_ATOM_DEF_STEREO_COUNT>
0

> <PUBCHEM_ATOM_UDEF_STEREO_COUNT>
0

> <PUBCHEM_BOND_DEF_STEREO_COUNT>
0

> <PUBCHEM_BOND_UDEF_STEREO_COUNT>
0

> <PUBCHEM_ISOTOPIC_ATOM_COUNT>
0

> <PUBCHEM_COMPONENT_COUNT>
1

> <PUBCHEM_CACTVS_TAUTO_COUNT>
26

> <PUBCHEM_CONFORMER_ID>
0002C41700000004

> <PUBCHEM_MMFF94_ENERGY>
54.8861

> <PUBCHEM_FEATURE_SELFOVERLAP>
25.371

> <PUBCHEM_SHAPE_FINGERPRINT>
10616163 171 18264206920143059119
10759866 29 18335416825148978476
11405975 8 18410011069842709113
11552529 35 17824259298683458179
12107183 9 17903632226674002753
12730499 353 18270106925623435384
12788726 201 17385993014236697209
13167823 11 18409731763903740263
13533116 47 18334580122976362807
13760787 19 18260828146553522076
13955234 65 18409168796997134816
14289901 80 18337392638790698505
14341114 176 18411130347115865233
14866123 147 17037253455128479306
15196674 1 18410575080890526451
15239154 128 18411135823062283853
15242433 33 18409165502393149863
15250474 111 18261406502750605775
15442244 35 18264770029025743760
17492 89 18411136931032191907
17834072 33 18409168783917047125
17834074 16 18411419505467282531
17844677 252 18410848897819475921
1813 80 16988842778606856925
18186145 218 17846786221102423049
20281475 54 18334304145199082031
20645477 70 18335700567931952286
21065198 57 18411138056460647357
21065199 12 18412544288914606913
21267235 1 18410003351517452507
21618674 54 18338239258359324366
221490 88 18412820270580933226
23402655 69 18409728430919519284
23559900 14 18335707169365076154
239999 70 18187639203018024086
245318 6 16625166998218113980
2838139 119 16199575872180548414
3004659 81 18341048627039233378
314173 41 18265611172891382206
3421961 26 18337394958695731866
3545911 37 18410855434406266021
4214541 1 18410575110881502961
474 4 17631731535030180252
5104073 3 18411699885475149521
522135 26 18409730672892311340
5281201 14 18272088326759294180
543358 83 18409162246955652178
633830 44 17917714604061617161
77779 3 18411136931189875705
8272917 22 18408881845821057318
90127 26 18060415846244549001
9709674 26 18341891857683705131

> <PUBCHEM_SHAPE_MULTIPOLES>
352.82
11.34
2.63
0.68
5.99
0.79
0.02
0.3
-0.15
-3.23
-0.12
0.06
-0.03
-0.09

> <PUBCHEM_SHAPE_SELFOVERLAP>
751.158

> <PUBCHEM_SHAPE_VOLUME>
196.6

> <PUBCHEM_COORDINATE_TYPE>
2
5
10

$$$$

