6543
  -OEChem-07051213132D

 28 28  0     0  0  0  0  0  0999 V2000
    5.1350    0.8100    0.0000 S   0  0  0  0  0  0  0  0  0  0  0  0
    4.1350    1.8100    0.0000 S   0  0  0  0  0  0  0  0  0  0  0  0
    5.1350    1.8100    0.0000 P   0  0  0  0  0  0  0  0  0  0  0  0
    5.1350    2.8100    0.0000 O   0  0  0  0  0  0  0  0  0  0  0  0
    6.1350    1.8100    0.0000 O   0  0  0  0  0  0  0  0  0  0  0  0
    3.4030   -1.1900    0.0000 N   0  0  0  0  0  0  0  0  0  0  0  0
    5.1350   -1.1900    0.0000 N   0  0  0  0  0  0  0  0  0  0  0  0
    4.2690   -2.6900    0.0000 N   0  0  0  0  0  0  0  0  0  0  0  0
    2.5369   -2.6900    0.0000 N   0  0  0  0  0  0  0  0  0  0  0  0
    6.0010   -2.6900    0.0000 N   0  0  0  0  0  0  0  0  0  0  0  0
    4.2690    0.3100    0.0000 C   0  0  0  0  0  0  0  0  0  0  0  0
    4.2690   -0.6900    0.0000 C   0  0  0  0  0  0  0  0  0  0  0  0
    3.4030   -2.1900    0.0000 C   0  0  0  0  0  0  0  0  0  0  0  0
    5.1350   -2.1900    0.0000 C   0  0  0  0  0  0  0  0  0  0  0  0
    6.0010    3.3100    0.0000 C   0  0  0  0  0  0  0  0  0  0  0  0
    6.6350    0.9440    0.0000 C   0  0  0  0  0  0  0  0  0  0  0  0
    4.0569    0.8926    0.0000 H   0  0  0  0  0  0  0  0  0  0  0  0
    3.6584    0.2023    0.0000 H   0  0  0  0  0  0  0  0  0  0  0  0
    6.3110    2.7731    0.0000 H   0  0  0  0  0  0  0  0  0  0  0  0
    6.5380    3.6200    0.0000 H   0  0  0  0  0  0  0  0  0  0  0  0
    5.6910    3.8469    0.0000 H   0  0  0  0  0  0  0  0  0  0  0  0
    6.0981    0.6340    0.0000 H   0  0  0  0  0  0  0  0  0  0  0  0
    6.9450    0.4070    0.0000 H   0  0  0  0  0  0  0  0  0  0  0  0
    7.1720    1.2540    0.0000 H   0  0  0  0  0  0  0  0  0  0  0  0
    2.5369   -3.3100    0.0000 H   0  0  0  0  0  0  0  0  0  0  0  0
    2.0000   -2.3800    0.0000 H   0  0  0  0  0  0  0  0  0  0  0  0
    6.5380   -2.3800    0.0000 H   0  0  0  0  0  0  0  0  0  0  0  0
    6.0010   -3.3100    0.0000 H   0  0  0  0  0  0  0  0  0  0  0  0
  1  3  1  0  0  0  0
  1 11  1  0  0  0  0
  2  3  2  0  0  0  0
  3  4  1  0  0  0  0
  3  5  1  0  0  0  0
  4 15  1  0  0  0  0
  5 16  1  0  0  0  0
  6 12  2  0  0  0  0
  6 13  1  0  0  0  0
  7 12  1  0  0  0  0
  7 14  2  0  0  0  0
  8 13  2  0  0  0  0
  8 14  1  0  0  0  0
  9 13  1  0  0  0  0
  9 25  1  0  0  0  0
  9 26  1  0  0  0  0
 10 14  1  0  0  0  0
 10 27  1  0  0  0  0
 10 28  1  0  0  0  0
 11 12  1  0  0  0  0
 11 17  1  0  0  0  0
 11 18  1  0  0  0  0
 15 19  1  0  0  0  0
 15 20  1  0  0  0  0
 15 21  1  0  0  0  0
 16 22  1  0  0  0  0
 16 23  1  0  0  0  0
 16 24  1  0  0  0  0
M  END
> <PUBCHEM_COMPOUND_CID>
6543

> <PUBCHEM_COMPOUND_CANONICALIZED>
1

> <PUBCHEM_CACTVS_COMPLEXITY>
253

> <PUBCHEM_CACTVS_HBOND_ACCEPTOR>
9

> <PUBCHEM_CACTVS_HBOND_DONOR>
2

> <PUBCHEM_CACTVS_ROTATABLE_BOND>
5

> <PUBCHEM_CACTVS_SUBSKEYS>
AAADccBjsAJgAAAAAAAAAAAAAAAAAAAAAAAsAAAAAAAAAAABgAAAHgQQACAAAACFQwKDEAZIERAgAAIgJAAAgAkAAKABAAAQAACACAAACAAAAAAIAAIAAAAAAAAAAAAAAAAAAAAAAAAAAAAAAAAAAAAAAA==

> <PUBCHEM_IUPAC_OPENEYE_NAME>
6-(dimethoxyphosphinothioylsulfanylmethyl)-1,3,5-triazine-2,4-diamine

> <PUBCHEM_IUPAC_CAS_NAME>
6-[(dimethoxyphosphinothioylthio)methyl]-1,3,5-triazine-2,4-diamine

> <PUBCHEM_IUPAC_NAME>
6-(dimethoxyphosphinothioylsulfanylmethyl)-1,3,5-triazine-2,4-diamine

> <PUBCHEM_IUPAC_SYSTEMATIC_NAME>
6-(dimethoxyphosphinothioylsulfanylmethyl)-1,3,5-triazine-2,4-diamine

> <PUBCHEM_IUPAC_TRADITIONAL_NAME>
[4-amino-6-[(dimethoxythiophosphorylthio)methyl]-s-triazin-2-yl]amine

> <PUBCHEM_IUPAC_INCHI>
InChI=1S/C6H12N5O2PS2/c1-12-14(15,13-2)16-3-4-9-5(7)11-6(8)10-4/h3H2,1-2H3,(H4,7,8,9,10,11)

> <PUBCHEM_IUPAC_INCHIKEY>
SUYHYHLFUHHVJQ-UHFFFAOYSA-N

> <PUBCHEM_XLOGP3_AA>
0.5

> <PUBCHEM_EXACT_MASS>
281.017003

> <PUBCHEM_MOLECULAR_FORMULA>
C6H12N5O2PS2

> <PUBCHEM_MOLECULAR_WEIGHT>
281.295542

> <PUBCHEM_OPENEYE_CAN_SMILES>
COP(=S)(OC)SCC1=NC(=NC(=N1)N)N

> <PUBCHEM_OPENEYE_ISO_SMILES>
COP(=S)(OC)SCC1=NC(=NC(=N1)N)N

> <PUBCHEM_CACTVS_TPSA>
167

> <PUBCHEM_MONOISOTOPIC_WEIGHT>
281.017003

> <PUBCHEM_TOTAL_CHARGE>
0

> <PUBCHEM_HEAVY_ATOM_COUNT>
16

> <PUBCHEM_ATOM_DEF_STEREO_COUNT>
0

> <PUBCHEM_ATOM_UDEF_STEREO_COUNT>
0

> <PUBCHEM_BOND_DEF_STEREO_COUNT>
0

> <PUBCHEM_BOND_UDEF_STEREO_COUNT>
0

> <PUBCHEM_ISOTOPIC_ATOM_COUNT>
0

> <PUBCHEM_COMPONENT_COUNT>
1

> <PUBCHEM_CACTVS_TAUTO_COUNT>
5

> <PUBCHEM_COORDINATE_TYPE>
1
5
255

> <PUBCHEM_BONDANNOTATIONS>
6  12  8
6  13  8
7  12  8
7  14  8
8  13  8
8  14  8

$$$$

