53297442
  -OEChem-07051213153D

 27 27  0     1  0  0  0  0  0999 V2000
   -1.7852    2.7179    0.2071 O   0  0  0  0  0  0  0  0  0  0  0  0
    5.2410   -1.5204    0.0954 O   0  0  0  0  0  0  0  0  0  0  0  0
    3.5475   -0.4027   -0.3387 N   0  0  0  0  0  0  0  0  0  0  0  0
   -3.0073   -1.5130   -1.0783 N   0  0  0  0  0  0  0  0  0  0  0  0
    4.7653   -0.3807    0.1209 N   0  0  0  0  0  0  0  0  0  0  0  0
    0.3767    1.6459    0.2245 C   0  0  0  0  0  0  0  0  0  0  0  0
   -1.0377    1.6488   -0.3761 C   0  0  1  0  0  0  0  0  0  0  0  0
    1.2808    0.5620   -0.3700 C   0  0  0  0  0  0  0  0  0  0  0  0
   -1.8035    0.3663   -0.1487 C   0  0  0  0  0  0  0  0  0  0  0  0
    2.6809    0.6173    0.2417 C   0  0  0  0  0  0  0  0  0  0  0  0
   -2.0193   -0.1213    1.1356 C   0  0  0  0  0  0  0  0  0  0  0  0
   -2.3136   -0.3604   -1.2124 C   0  0  0  0  0  0  0  0  0  0  0  0
   -2.7285   -1.3039    1.3141 C   0  0  0  0  0  0  0  0  0  0  0  0
   -3.1972   -1.9558    0.1849 C   0  0  0  0  0  0  0  0  0  0  0  0
    0.3295    1.5381    1.3157 H   0  0  0  0  0  0  0  0  0  0  0  0
    0.8268    2.6331    0.0545 H   0  0  0  0  0  0  0  0  0  0  0  0
   -0.9653    1.8608   -1.4496 H   0  0  0  0  0  0  0  0  0  0  0  0
    1.3447    0.6975   -1.4569 H   0  0  0  0  0  0  0  0  0  0  0  0
    0.8503   -0.4304   -0.1919 H   0  0  0  0  0  0  0  0  0  0  0  0
    2.6039    0.4765    1.3282 H   0  0  0  0  0  0  0  0  0  0  0  0
    3.1046    1.6153    0.0670 H   0  0  0  0  0  0  0  0  0  0  0  0
   -1.6499    0.4102    2.0078 H   0  0  0  0  0  0  0  0  0  0  0  0
   -2.1786   -0.0328   -2.2385 H   0  0  0  0  0  0  0  0  0  0  0  0
   -2.7088    2.6384   -0.0872 H   0  0  0  0  0  0  0  0  0  0  0  0
    3.1499   -1.3341   -0.2308 H   0  0  0  0  0  0  0  0  0  0  0  0
   -2.9104   -1.7018    2.3058 H   0  0  0  0  0  0  0  0  0  0  0  0
   -3.7565   -2.8817    0.2702 H   0  0  0  0  0  0  0  0  0  0  0  0
  1  7  1  0  0  0  0
  1 24  1  0  0  0  0
  2  5  2  0  0  0  0
  3  5  1  0  0  0  0
  3 10  1  0  0  0  0
  3 25  1  0  0  0  0
  4 12  1  0  0  0  0
  4 14  2  0  0  0  0
  6  7  1  0  0  0  0
  6  8  1  0  0  0  0
  6 15  1  0  0  0  0
  6 16  1  0  0  0  0
  7  9  1  0  0  0  0
  7 17  1  0  0  0  0
  8 10  1  0  0  0  0
  8 18  1  0  0  0  0
  8 19  1  0  0  0  0
  9 11  1  0  0  0  0
  9 12  2  0  0  0  0
 10 20  1  0  0  0  0
 10 21  1  0  0  0  0
 11 13  2  0  0  0  0
 11 22  1  0  0  0  0
 12 23  1  0  0  0  0
 13 14  1  0  0  0  0
 13 26  1  0  0  0  0
 14 27  1  0  0  0  0
M  END
> <PUBCHEM_COMPOUND_CID>
53297442

> <PUBCHEM_CONFORMER_RMSD>
0.8

> <PUBCHEM_CONFORMER_DIVERSEORDER>
1
65
81
98
114
14
97
18
118
88
50
109
4
79
127
116
21
91
120
60
53
43
11
99
96
32
126
70
90
95
45
28
86
48
107
35
33
59
23
100
101
56
94
71
104
110
38
112
113
67
34
69
36
64
76
51
84
20
13
57
63
9
106
72
85
68
3
26
117
92
5
105
7
62
80
82
61
29
74
40
87
2
124
119
66
115
78
31
6
102
37
111
22
30
19
122
25
24
89
39
55
52
44
58
47
93
15
125
46
83
10
41
49
42
123
12
8
103
121
75
54
17
73
108
27
77
16

> <PUBCHEM_MMFF94_PARTIAL_CHARGES>
18
1 -0.68
10 0.27
11 -0.15
12 0.16
13 -0.15
14 0.16
2 -0.16
22 0.15
23 0.15
24 0.4
25 0.36
26 0.15
27 0.15
3 -0.45
4 -0.62
5 -0.01
7 0.42
9 -0.14

> <PUBCHEM_EFFECTIVE_ROTOR_COUNT>
6

> <PUBCHEM_PHARMACOPHORE_FEATURES>
5
1 1 acceptor
1 1 donor
1 3 donor
1 4 acceptor
6 4 9 11 12 13 14 rings

> <PUBCHEM_HEAVY_ATOM_COUNT>
14

> <PUBCHEM_ATOM_DEF_STEREO_COUNT>
0

> <PUBCHEM_ATOM_UDEF_STEREO_COUNT>
1

> <PUBCHEM_BOND_DEF_STEREO_COUNT>
0

> <PUBCHEM_BOND_UDEF_STEREO_COUNT>
0

> <PUBCHEM_ISOTOPIC_ATOM_COUNT>
0

> <PUBCHEM_COMPONENT_COUNT>
1

> <PUBCHEM_CACTVS_TAUTO_COUNT>
2

> <PUBCHEM_CONFORMER_ID>
032D412200000001

> <PUBCHEM_MMFF94_ENERGY>
23.402

> <PUBCHEM_FEATURE_SELFOVERLAP>
25.371

> <PUBCHEM_SHAPE_FINGERPRINT>
11127187 94 17561087960416610899
11137873 295 18271528594036875671
11357001 24 18337664312842314041
14123260 362 10231756695293482350
14251710 61 18341610391497031738
15061688 2 5111186931719081507
15342168 16 9439142965055074339
20361792 2 18264486179143050109
20671657 53 17775281621521316004
20711985 344 18129679568240782133
21061003 4 18338513024302242467
22926399 37 10591778553784004623
2306618 200 17821729472197504009
23403322 49 18343586230803170898
23559900 14 18341061748269934760
27216 239 7276831303021165935

> <PUBCHEM_SHAPE_MULTIPOLES>
261.43
8.11
2.21
1.05
13.68
0.79
0.02
-6.14
0.07
-1.03
0.14
-1
-0.25
0.05

> <PUBCHEM_SHAPE_SELFOVERLAP>
523.8

> <PUBCHEM_SHAPE_VOLUME>
152.8

> <PUBCHEM_COORDINATE_TYPE>
2
5
10

$$$$

