656707
  -OEChem-07051213043D

 49 50  0     1  0  0  0  0  0999 V2000
    4.1883    1.5126   -0.2696 S   0  0  0  0  0  0  0  0  0  0  0  0
    3.4378    1.9426    0.8958 O   0  0  0  0  0  0  0  0  0  0  0  0
    4.1558    2.2889   -1.4960 O   0  0  0  0  0  0  0  0  0  0  0  0
   -3.0016    0.3931    1.7603 O   0  0  0  0  0  0  0  0  0  0  0  0
    3.7901   -0.1053   -0.6458 N   0  0  0  0  0  0  0  0  0  0  0  0
   -2.5340   -0.4860   -0.3696 N   0  0  0  0  0  0  0  0  0  0  0  0
    2.8381   -2.2599    0.0957 C   0  0  2  0  0  0  0  0  0  0  0  0
    3.8106   -1.1171    0.4260 C   0  0  0  0  0  0  0  0  0  0  0  0
    5.8874    1.3326    0.2046 C   0  0  0  0  0  0  0  0  0  0  0  0
    1.3991   -1.7852   -0.0288 C   0  0  0  0  0  0  0  0  0  0  0  0
    2.9546   -3.3776    1.1379 C   0  0  0  0  0  0  0  0  0  0  0  0
    6.6825    0.6851   -0.9195 C   0  0  0  0  0  0  0  0  0  0  0  0
    6.4721    2.6825    0.5931 C   0  0  0  0  0  0  0  0  0  0  0  0
    0.7422   -1.9509   -1.2316 C   0  0  0  0  0  0  0  0  0  0  0  0
    0.7908   -1.2013    1.0646 C   0  0  0  0  0  0  0  0  0  0  0  0
   -0.5778   -1.5148   -1.3460 C   0  0  0  0  0  0  0  0  0  0  0  0
   -0.5292   -0.7654    0.9504 C   0  0  0  0  0  0  0  0  0  0  0  0
   -1.2136   -0.9221   -0.2550 C   0  0  0  0  0  0  0  0  0  0  0  0
   -3.3284    0.1261    0.6089 C   0  0  0  0  0  0  0  0  0  0  0  0
   -4.7167    0.4527    0.1899 C   0  0  0  0  0  0  0  0  0  0  0  0
   -5.3682    1.5004    0.8059 C   0  0  0  0  0  0  0  0  0  0  0  0
   -5.3073   -0.3023   -0.8015 C   0  0  0  0  0  0  0  0  0  0  0  0
   -6.6709    1.8072    0.4128 C   0  0  0  0  0  0  0  0  0  0  0  0
   -6.6100    0.0047   -1.1947 C   0  0  0  0  0  0  0  0  0  0  0  0
   -7.2917    1.0594   -0.5877 C   0  0  0  0  0  0  0  0  0  0  0  0
    3.1479   -2.6900   -0.8673 H   0  0  0  0  0  0  0  0  0  0  0  0
    3.5634   -0.6594    1.3894 H   0  0  0  0  0  0  0  0  0  0  0  0
    4.8282   -1.5172    0.5005 H   0  0  0  0  0  0  0  0  0  0  0  0
    5.9072    0.6863    1.0890 H   0  0  0  0  0  0  0  0  0  0  0  0
    4.0688   -0.4568   -1.5709 H   0  0  0  0  0  0  0  0  0  0  0  0
    2.7318   -3.0242    2.1504 H   0  0  0  0  0  0  0  0  0  0  0  0
    2.2660   -4.1993    0.9109 H   0  0  0  0  0  0  0  0  0  0  0  0
    3.9705   -3.7876    1.1479 H   0  0  0  0  0  0  0  0  0  0  0  0
    7.7392    0.6051   -0.6411 H   0  0  0  0  0  0  0  0  0  0  0  0
    6.6283    1.2691   -1.8445 H   0  0  0  0  0  0  0  0  0  0  0  0
    6.3368   -0.3276   -1.1445 H   0  0  0  0  0  0  0  0  0  0  0  0
    7.5106    2.5758    0.9237 H   0  0  0  0  0  0  0  0  0  0  0  0
    6.4557    3.3843   -0.2477 H   0  0  0  0  0  0  0  0  0  0  0  0
    5.9059    3.1366    1.4132 H   0  0  0  0  0  0  0  0  0  0  0  0
    1.2265   -2.4103   -2.0879 H   0  0  0  0  0  0  0  0  0  0  0  0
    1.3079   -1.0717    2.0102 H   0  0  0  0  0  0  0  0  0  0  0  0
   -1.0987   -1.6436   -2.2914 H   0  0  0  0  0  0  0  0  0  0  0  0
   -0.9510   -0.3170    1.8387 H   0  0  0  0  0  0  0  0  0  0  0  0
   -2.9242   -0.6058   -1.3000 H   0  0  0  0  0  0  0  0  0  0  0  0
   -4.8975    2.0965    1.5820 H   0  0  0  0  0  0  0  0  0  0  0  0
   -4.8311   -1.1562   -1.2714 H   0  0  0  0  0  0  0  0  0  0  0  0
   -7.2015    2.6290    0.8846 H   0  0  0  0  0  0  0  0  0  0  0  0
   -7.0977   -0.5832   -1.9669 H   0  0  0  0  0  0  0  0  0  0  0  0
   -8.3067    1.2971   -0.8926 H   0  0  0  0  0  0  0  0  0  0  0  0
  1  2  2  0  0  0  0
  1  3  2  0  0  0  0
  1  5  1  0  0  0  0
  1  9  1  0  0  0  0
  4 19  2  0  0  0  0
  5  8  1  0  0  0  0
  5 30  1  0  0  0  0
  6 18  1  0  0  0  0
  6 19  1  0  0  0  0
  6 44  1  0  0  0  0
  7  8  1  0  0  0  0
  7 10  1  0  0  0  0
  7 11  1  0  0  0  0
  7 26  1  0  0  0  0
  8 27  1  0  0  0  0
  8 28  1  0  0  0  0
  9 12  1  0  0  0  0
  9 13  1  0  0  0  0
  9 29  1  0  0  0  0
 10 14  2  0  0  0  0
 10 15  1  0  0  0  0
 11 31  1  0  0  0  0
 11 32  1  0  0  0  0
 11 33  1  0  0  0  0
 12 34  1  0  0  0  0
 12 35  1  0  0  0  0
 12 36  1  0  0  0  0
 13 37  1  0  0  0  0
 13 38  1  0  0  0  0
 13 39  1  0  0  0  0
 14 16  1  0  0  0  0
 14 40  1  0  0  0  0
 15 17  2  0  0  0  0
 15 41  1  0  0  0  0
 16 18  2  0  0  0  0
 16 42  1  0  0  0  0
 17 18  1  0  0  0  0
 17 43  1  0  0  0  0
 19 20  1  0  0  0  0
 20 21  2  0  0  0  0
 20 22  1  0  0  0  0
 21 23  1  0  0  0  0
 21 45  1  0  0  0  0
 22 24  2  0  0  0  0
 22 46  1  0  0  0  0
 23 25  2  0  0  0  0
 23 47  1  0  0  0  0
 24 25  1  0  0  0  0
 24 48  1  0  0  0  0
 25 49  1  0  0  0  0
M  END
> <PUBCHEM_COMPOUND_CID>
656707

> <PUBCHEM_CONFORMER_RMSD>
0.8

> <PUBCHEM_CONFORMER_DIVERSEORDER>
1
113
70
61
17
69
105
51
92
98
112
76
33
50
114
81
120
55
59
103
94
34
39
66
62
41
45
82
36
71
104
14
49
73
44
99
116
79
30
78
107
110
20
28
106
101
26
8
43
95
67
80
32
63
56
48
119
29
38
54
5
84
117
37
87
13
22
58
60
3
118
2
77
52
10
83
111
35
11
6
15
86
108
46
91
68
96
25
24
109
19
97
93
89
74
53
100
102
12
65
31
18
88
90
72
115
4
57
64
47
21
42
23
7
85
9
40
75
16
27

> <PUBCHEM_MMFF94_PARTIAL_CHARGES>
33
1 1.33
10 -0.14
14 -0.15
15 -0.15
16 -0.15
17 -0.15
18 0.12
19 0.54
2 -0.65
20 0.09
21 -0.15
22 -0.15
23 -0.15
24 -0.15
25 -0.15
3 -0.65
30 0.42
4 -0.57
40 0.15
41 0.15
42 0.15
43 0.15
44 0.37
45 0.15
46 0.15
47 0.15
48 0.15
49 0.15
5 -0.91
6 -0.55
7 0.14
8 0.36
9 0.11

> <PUBCHEM_EFFECTIVE_ROTOR_COUNT>
8

> <PUBCHEM_PHARMACOPHORE_FEATURES>
9
1 11 hydrophobe
1 2 acceptor
1 3 acceptor
1 4 acceptor
1 5 donor
1 6 donor
3 9 12 13 hydrophobe
6 10 14 15 16 17 18 rings
6 20 21 22 23 24 25 rings

> <PUBCHEM_HEAVY_ATOM_COUNT>
25

> <PUBCHEM_ATOM_DEF_STEREO_COUNT>
0

> <PUBCHEM_ATOM_UDEF_STEREO_COUNT>
1

> <PUBCHEM_BOND_DEF_STEREO_COUNT>
0

> <PUBCHEM_BOND_UDEF_STEREO_COUNT>
0

> <PUBCHEM_ISOTOPIC_ATOM_COUNT>
0

> <PUBCHEM_COMPONENT_COUNT>
1

> <PUBCHEM_CACTVS_TAUTO_COUNT>
2

> <PUBCHEM_CONFORMER_ID>
000A054300000001

> <PUBCHEM_MMFF94_ENERGY>
60.6613

> <PUBCHEM_FEATURE_SELFOVERLAP>
45.686

> <PUBCHEM_SHAPE_FINGERPRINT>
10 15 15554440795272606727
10411042 1 17836651099977770218
10554248 39 17970361527687776055
10595046 47 18335424599662341167
10670039 82 16805314539354826361
10673678 19 18260264140265174566
10906281 52 17677040348491378499
11961588 58 17676769790693715246
12592606 108 10807935955873083313
12633257 1 16558468570287768230
12838862 33 18335998484492300232
13533116 47 17630888403085710187
13685833 64 8070028865449431372
13690498 29 17097224822760507895
13878862 14 18199205012289120285
13955234 65 17987804162291197314
14123256 34 9367355846624803712
14347332 77 8214149547100279907
14461889 52 17846208926517805947
14528608 73 18186803582470031661
14931854 50 17749660814846619776
15183329 4 17603866711058832529
15961568 22 18413388761227244109
18335252 114 18334579066324659588
20157964 124 18341612645980452179
20567600 234 17989485208590541783
20567600 247 7565344210796095325
20567600 254 18271805701116222946
20715895 44 18411698747662587504
21033648 144 18272375287073925727
21033648 29 16917072217755390919
21150785 3 17894916213654345957
21298829 104 18408600357496072000
21344244 181 6050154558676475749
21344244 78 18122082046272817938
21403212 168 18412549808559537986
21641784 216 16805599326352767913
23522609 53 17459172119294408737
23559900 14 17273961596797368579
23845131 108 18273215262123202650
249057 25 17822852120671965018
270888 7 18337954472765013056
2838139 119 18334857194994663508
3472631 163 18114180788074218124
34797466 226 17894905261482518751
351380 3 10159704577386420576
397830 11 17846484921184617131
4073 2 18272649039641766707
474 4 18343299232830658050
5104073 3 17989484130527949035
513532 50 16660652847483221784
5385378 56 18272656762314380274
543368 44 18335421262467555421

> <PUBCHEM_SHAPE_MULTIPOLES>
490.77
19.61
2.94
1.3
13.71
0.51
-0.04
-16.25
-2.39
-4.98
0.42
0.15
0.13
-1.17

> <PUBCHEM_SHAPE_SELFOVERLAP>
1012.363

> <PUBCHEM_SHAPE_VOLUME>
282.8

> <PUBCHEM_COORDINATE_TYPE>
2
5
10

$$$$

