390361
  -OEChem-07051212583D

 62 67  0     1  0  0  0  0  0999 V2000
   -2.0857   -0.5302    1.5629 O   0  0  0  0  0  0  0  0  0  0  0  0
    2.1116    0.5824   -1.5682 O   0  0  0  0  0  0  0  0  0  0  0  0
   -1.0671   -0.8148   -2.4077 O   0  0  0  0  0  0  0  0  0  0  0  0
    1.0228    0.7015    2.3924 O   0  0  0  0  0  0  0  0  0  0  0  0
   -2.3699   -3.0591   -2.5817 O   0  0  0  0  0  0  0  0  0  0  0  0
    2.2870    2.9570    2.6728 O   0  0  0  0  0  0  0  0  0  0  0  0
   -4.4184   -4.6474    1.3920 O   0  0  0  0  0  0  0  0  0  0  0  0
    4.3783    4.7239   -1.2017 O   0  0  0  0  0  0  0  0  0  0  0  0
   -5.8170    4.1267   -0.7365 O   0  0  0  0  0  0  0  0  0  0  0  0
    5.8718   -4.1081    0.6129 O   0  0  0  0  0  0  0  0  0  0  0  0
   -0.6558    0.2607   -0.2970 C   0  0  2  0  0  0  0  0  0  0  0  0
    0.6636   -0.2998    0.2363 C   0  0  1  0  0  0  0  0  0  0  0  0
   -1.6332    0.6280    0.8383 C   0  0  1  0  0  0  0  0  0  0  0  0
    1.6644   -0.6089   -0.8961 C   0  0  2  0  0  0  0  0  0  0  0  0
   -1.2942   -0.7656   -1.2043 C   0  0  0  0  0  0  0  0  0  0  0  0
    1.2711    0.7008    1.1923 C   0  0  0  0  0  0  0  0  0  0  0  0
   -2.7599    1.5700    0.4141 C   0  0  0  0  0  0  0  0  0  0  0  0
    2.7973   -1.5512   -0.4900 C   0  0  0  0  0  0  0  0  0  0  0  0
   -2.1589   -1.7610   -0.5465 C   0  0  0  0  0  0  0  0  0  0  0  0
    2.1315    1.7328    0.5873 C   0  0  0  0  0  0  0  0  0  0  0  0
   -2.4678   -1.6052    0.8047 C   0  0  0  0  0  0  0  0  0  0  0  0
    2.4652    1.6330   -0.7632 C   0  0  0  0  0  0  0  0  0  0  0  0
   -2.6232   -2.8717   -1.2563 C   0  0  0  0  0  0  0  0  0  0  0  0
    2.5667    2.8227    1.3463 C   0  0  0  0  0  0  0  0  0  0  0  0
   -2.4559    2.7976   -0.1708 C   0  0  0  0  0  0  0  0  0  0  0  0
    2.5015   -2.8045    0.0421 C   0  0  0  0  0  0  0  0  0  0  0  0
   -4.0881    1.1984    0.6136 C   0  0  0  0  0  0  0  0  0  0  0  0
    4.1232   -1.1540   -0.6528 C   0  0  0  0  0  0  0  0  0  0  0  0
   -3.2190   -2.5854    1.4575 C   0  0  0  0  0  0  0  0  0  0  0  0
    3.2125    2.6478   -1.3655 C   0  0  0  0  0  0  0  0  0  0  0  0
   -3.3876   -3.8379   -0.6022 C   0  0  0  0  0  0  0  0  0  0  0  0
    3.3273    3.8239    0.7424 C   0  0  0  0  0  0  0  0  0  0  0  0
   -3.6805   -3.6980    0.7538 C   0  0  0  0  0  0  0  0  0  0  0  0
    3.6451    3.7397   -0.6126 C   0  0  0  0  0  0  0  0  0  0  0  0
   -3.4840    3.6572   -0.5577 C   0  0  0  0  0  0  0  0  0  0  0  0
    3.5354   -3.6642    0.4129 C   0  0  0  0  0  0  0  0  0  0  0  0
   -5.1164    2.0581    0.2267 C   0  0  0  0  0  0  0  0  0  0  0  0
    5.1572   -2.0138   -0.2820 C   0  0  0  0  0  0  0  0  0  0  0  0
   -4.8143    3.2875   -0.3591 C   0  0  0  0  0  0  0  0  0  0  0  0
    4.8634   -3.2690    0.2507 C   0  0  0  0  0  0  0  0  0  0  0  0
   -0.4584    1.1473   -0.9108 H   0  0  0  0  0  0  0  0  0  0  0  0
    0.4703   -1.2113    0.8140 H   0  0  0  0  0  0  0  0  0  0  0  0
   -1.1196    1.2280    1.5948 H   0  0  0  0  0  0  0  0  0  0  0  0
    1.1631   -1.1801   -1.6834 H   0  0  0  0  0  0  0  0  0  0  0  0
   -1.4262    3.1110   -0.3175 H   0  0  0  0  0  0  0  0  0  0  0  0
    1.4742   -3.1375    0.1594 H   0  0  0  0  0  0  0  0  0  0  0  0
   -4.3714    0.2629    1.0819 H   0  0  0  0  0  0  0  0  0  0  0  0
    4.4004   -0.1972   -1.0799 H   0  0  0  0  0  0  0  0  0  0  0  0
   -3.4574   -2.4762    2.5129 H   0  0  0  0  0  0  0  0  0  0  0  0
    3.4665    2.5759   -2.4206 H   0  0  0  0  0  0  0  0  0  0  0  0
   -3.7497   -4.7021   -1.1541 H   0  0  0  0  0  0  0  0  0  0  0  0
    3.6740    4.6786    1.3186 H   0  0  0  0  0  0  0  0  0  0  0  0
   -3.2353    4.6138   -1.0092 H   0  0  0  0  0  0  0  0  0  0  0  0
    3.3003   -4.6422    0.8239 H   0  0  0  0  0  0  0  0  0  0  0  0
   -6.1508    1.7667    0.3876 H   0  0  0  0  0  0  0  0  0  0  0  0
    6.1877   -1.6959   -0.4169 H   0  0  0  0  0  0  0  0  0  0  0  0
   -1.8604   -2.3164   -2.9397 H   0  0  0  0  0  0  0  0  0  0  0  0
    2.6819    3.7806    3.0067 H   0  0  0  0  0  0  0  0  0  0  0  0
   -4.6534   -5.3446    0.7558 H   0  0  0  0  0  0  0  0  0  0  0  0
    4.5042    4.5044   -2.1408 H   0  0  0  0  0  0  0  0  0  0  0  0
   -5.4272    4.9297   -1.1228 H   0  0  0  0  0  0  0  0  0  0  0  0
    6.7231   -3.6738    0.4323 H   0  0  0  0  0  0  0  0  0  0  0  0
  1 13  1  0  0  0  0
  1 21  1  0  0  0  0
  2 14  1  0  0  0  0
  2 22  1  0  0  0  0
  3 15  2  0  0  0  0
  4 16  2  0  0  0  0
  5 23  1  0  0  0  0
  5 57  1  0  0  0  0
  6 24  1  0  0  0  0
  6 58  1  0  0  0  0
  7 33  1  0  0  0  0
  7 59  1  0  0  0  0
  8 34  1  0  0  0  0
  8 60  1  0  0  0  0
  9 39  1  0  0  0  0
  9 61  1  0  0  0  0
 10 40  1  0  0  0  0
 10 62  1  0  0  0  0
 11 12  1  0  0  0  0
 11 13  1  0  0  0  0
 11 15  1  0  0  0  0
 11 41  1  0  0  0  0
 12 14  1  0  0  0  0
 12 16  1  0  0  0  0
 12 42  1  0  0  0  0
 13 17  1  0  0  0  0
 13 43  1  0  0  0  0
 14 18  1  0  0  0  0
 14 44  1  0  0  0  0
 15 19  1  0  0  0  0
 16 20  1  0  0  0  0
 17 25  2  0  0  0  0
 17 27  1  0  0  0  0
 18 26  2  0  0  0  0
 18 28  1  0  0  0  0
 19 21  1  0  0  0  0
 19 23  2  0  0  0  0
 20 22  1  0  0  0  0
 20 24  2  0  0  0  0
 21 29  2  0  0  0  0
 22 30  2  0  0  0  0
 23 31  1  0  0  0  0
 24 32  1  0  0  0  0
 25 35  1  0  0  0  0
 25 45  1  0  0  0  0
 26 36  1  0  0  0  0
 26 46  1  0  0  0  0
 27 37  2  0  0  0  0
 27 47  1  0  0  0  0
 28 38  2  0  0  0  0
 28 48  1  0  0  0  0
 29 33  1  0  0  0  0
 29 49  1  0  0  0  0
 30 34  1  0  0  0  0
 30 50  1  0  0  0  0
 31 33  2  0  0  0  0
 31 51  1  0  0  0  0
 32 34  2  0  0  0  0
 32 52  1  0  0  0  0
 35 39  2  0  0  0  0
 35 53  1  0  0  0  0
 36 40  2  0  0  0  0
 36 54  1  0  0  0  0
 37 39  1  0  0  0  0
 37 55  1  0  0  0  0
 38 40  1  0  0  0  0
 38 56  1  0  0  0  0
M  END
> <PUBCHEM_COMPOUND_CID>
390361

> <PUBCHEM_CONFORMER_RMSD>
0.8

> <PUBCHEM_CONFORMER_DIVERSEORDER>
1
4
3
2

> <PUBCHEM_MMFF94_PARTIAL_CHARGES>
58
1 -0.36
10 -0.53
11 0.06
12 0.06
13 0.42
14 0.42
15 0.42
16 0.42
17 -0.14
18 -0.14
19 0.09
2 -0.36
20 0.09
21 0.08
22 0.08
23 0.08
24 0.08
25 -0.15
26 -0.15
27 -0.15
28 -0.15
29 -0.15
3 -0.57
30 -0.15
31 -0.15
32 -0.15
33 0.08
34 0.08
35 -0.15
36 -0.15
37 -0.15
38 -0.15
39 0.08
4 -0.57
40 0.08
45 0.15
46 0.15
47 0.15
48 0.15
49 0.15
5 -0.53
50 0.15
51 0.15
52 0.15
53 0.15
54 0.15
55 0.15
56 0.15
57 0.45
58 0.45
59 0.45
6 -0.53
60 0.45
61 0.45
62 0.45
7 -0.53
8 -0.53
9 -0.53

> <PUBCHEM_EFFECTIVE_ROTOR_COUNT>
4.2

> <PUBCHEM_PHARMACOPHORE_FEATURES>
16
1 1 acceptor
1 10 donor
1 2 acceptor
1 3 acceptor
1 4 acceptor
1 5 donor
1 6 donor
1 7 donor
1 8 donor
1 9 donor
6 1 11 13 15 19 21 rings
6 17 25 27 35 37 39 rings
6 18 26 28 36 38 40 rings
6 19 21 23 29 31 33 rings
6 2 12 14 16 20 22 rings
6 20 22 24 30 32 34 rings

> <PUBCHEM_HEAVY_ATOM_COUNT>
40

> <PUBCHEM_ATOM_DEF_STEREO_COUNT>
4

> <PUBCHEM_ATOM_UDEF_STEREO_COUNT>
0

> <PUBCHEM_BOND_DEF_STEREO_COUNT>
0

> <PUBCHEM_BOND_UDEF_STEREO_COUNT>
0

> <PUBCHEM_ISOTOPIC_ATOM_COUNT>
0

> <PUBCHEM_COMPONENT_COUNT>
1

> <PUBCHEM_CACTVS_TAUTO_COUNT>
903

> <PUBCHEM_CONFORMER_ID>
0005F4D900000001

> <PUBCHEM_MMFF94_ENERGY>
137.7626

> <PUBCHEM_FEATURE_SELFOVERLAP>
81.248

> <PUBCHEM_SHAPE_FINGERPRINT>
10190108 129 17905585728108287123
102385 1 18410857637713549729
10930396 42 17833299749780818618
11227688 84 17830743053684879463
11421498 54 17979353062495096199
11456790 92 18050274066986190145
11578080 2 18337100181609537757
11763715 3 17911490161711410791
12058002 1 17545661859164649748
12633046 712 18343017826310083558
12788726 201 18054517902743366817
13004483 165 17908147925693834994
13583140 156 18187925036658513656
140371 6 17971178473010855032
14068700 686 18122054308698461296
14466204 15 17761775465472866969
14725015 67 17185594066237715951
15219462 58 18264219014728227837
15276724 80 18339071598169409099
15439362 3 18338243772650742144
15444296 121 18192702561105896082
15849732 13 18047197628665360462
17974551 9 18342446071625952719
1813 80 17614281061916550449
18681886 176 18123479533798542953
19301679 30 18197776596973467179
19319366 153 17903636277171463430
20691752 17 17467075150454176268
20775438 99 18120688823227058597
21033648 29 17754762724407668392
21133410 127 17988642952177427276
21703447 108 18337395915856429562
22393880 68 18190162526158490964
23559900 14 18410578413273491177
3178227 256 18121207951692663473
3380486 77 17904749326224419348
340366 18 18336830917229624120
4017518 198 17606968574921494398
460360 51 18260269607594836594
469060 322 17686347469042565091
5252454 2 18115854231491769617
563151 97 18196369213394432308

> <PUBCHEM_SHAPE_MULTIPOLES>
764.49
11.15
7.32
1.73
0.23
0.1
0.08
-0.23
-0.1
-0.04
0.01
-0.08
-0.01
0.36

> <PUBCHEM_SHAPE_SELFOVERLAP>
1732.093

> <PUBCHEM_SHAPE_VOLUME>
392.5

> <PUBCHEM_COORDINATE_TYPE>
2
5
10

$$$$

