17396512
  -OEChem-06241222573D

 45 47  0     1  0  0  0  0  0999 V2000
    2.2046    2.4077    0.5082 O   0  0  0  0  0  0  0  0  0  0  0  0
    2.3087   -2.1793   -0.0707 O   0  0  0  0  0  0  0  0  0  0  0  0
   -0.2823    0.3496   -1.1781 O   0  0  0  0  0  0  0  0  0  0  0  0
    1.9124    0.0877    0.3678 N   0  0  0  0  0  0  0  0  0  0  0  0
   -1.7348    0.0443    0.6428 N   0  0  0  0  0  0  0  0  0  0  0  0
    3.9715    0.9541   -0.2975 C   0  0  2  0  0  0  0  0  0  0  0  0
    3.7643   -0.4275   -0.9295 C   0  0  1  0  0  0  0  0  0  0  0  0
    4.9495    0.9779    0.8819 C   0  0  0  0  0  0  0  0  0  0  0  0
    4.9899   -1.3300   -0.9892 C   0  0  0  0  0  0  0  0  0  0  0  0
    6.2031    0.1545    0.6281 C   0  0  0  0  0  0  0  0  0  0  0  0
    5.8410   -1.2809    0.2731 C   0  0  0  0  0  0  0  0  0  0  0  0
    2.5884    1.2836    0.2180 C   0  0  0  0  0  0  0  0  0  0  0  0
    2.5973   -0.9947   -0.1498 C   0  0  0  0  0  0  0  0  0  0  0  0
    0.6233   -0.0075    1.0240 C   0  0  0  0  0  0  0  0  0  0  0  0
   -0.4978    0.1524    0.0133 C   0  0  0  0  0  0  0  0  0  0  0  0
   -3.0162    0.1356    0.0489 C   0  0  0  0  0  0  0  0  0  0  0  0
   -4.1607    0.0027    0.8349 C   0  0  0  0  0  0  0  0  0  0  0  0
   -5.4234    0.0926    0.2491 C   0  0  0  0  0  0  0  0  0  0  0  0
   -3.1342    0.3588   -1.3230 C   0  0  0  0  0  0  0  0  0  0  0  0
   -6.6477   -0.0486    1.0892 C   0  0  0  0  0  0  0  0  0  0  0  0
   -5.5414    0.3155   -1.1228 C   0  0  0  0  0  0  0  0  0  0  0  0
   -4.3968    0.4488   -1.9088 C   0  0  0  0  0  0  0  0  0  0  0  0
   -7.1186   -1.4972    1.1902 C   0  0  0  0  0  0  0  0  0  0  0  0
    4.2722    1.6772   -1.0633 H   0  0  0  0  0  0  0  0  0  0  0  0
    3.3841   -0.2982   -1.9536 H   0  0  0  0  0  0  0  0  0  0  0  0
    4.4629    0.6056    1.7936 H   0  0  0  0  0  0  0  0  0  0  0  0
    5.2291    2.0163    1.0993 H   0  0  0  0  0  0  0  0  0  0  0  0
    5.6124   -1.0108   -1.8352 H   0  0  0  0  0  0  0  0  0  0  0  0
    4.6997   -2.3676   -1.1913 H   0  0  0  0  0  0  0  0  0  0  0  0
    6.7873    0.6055   -0.1831 H   0  0  0  0  0  0  0  0  0  0  0  0
    6.8353    0.1640    1.5231 H   0  0  0  0  0  0  0  0  0  0  0  0
    6.7560   -1.8641    0.1196 H   0  0  0  0  0  0  0  0  0  0  0  0
    5.3006   -1.7467    1.1060 H   0  0  0  0  0  0  0  0  0  0  0  0
    0.5389    0.7825    1.7779 H   0  0  0  0  0  0  0  0  0  0  0  0
    0.5334   -0.9888    1.5020 H   0  0  0  0  0  0  0  0  0  0  0  0
   -1.7367   -0.1198    1.6474 H   0  0  0  0  0  0  0  0  0  0  0  0
   -4.0694   -0.1728    1.9045 H   0  0  0  0  0  0  0  0  0  0  0  0
   -2.2964    0.4719   -1.9963 H   0  0  0  0  0  0  0  0  0  0  0  0
   -7.4565    0.5690    0.6791 H   0  0  0  0  0  0  0  0  0  0  0  0
   -6.4581    0.3435    2.0963 H   0  0  0  0  0  0  0  0  0  0  0  0
   -6.5194    0.3859   -1.5917 H   0  0  0  0  0  0  0  0  0  0  0  0
   -4.4901    0.6220   -2.9770 H   0  0  0  0  0  0  0  0  0  0  0  0
   -6.3482   -2.1337    1.6385 H   0  0  0  0  0  0  0  0  0  0  0  0
   -8.0166   -1.5599    1.8129 H   0  0  0  0  0  0  0  0  0  0  0  0
   -7.3598   -1.9050    0.2028 H   0  0  0  0  0  0  0  0  0  0  0  0
  1 12  2  0  0  0  0
  2 13  2  0  0  0  0
  3 15  2  0  0  0  0
  4 12  1  0  0  0  0
  4 13  1  0  0  0  0
  4 14  1  0  0  0  0
  5 15  1  0  0  0  0
  5 16  1  0  0  0  0
  5 36  1  0  0  0  0
  6  7  1  0  0  0  0
  6  8  1  0  0  0  0
  6 12  1  0  0  0  0
  6 24  1  0  0  0  0
  7  9  1  0  0  0  0
  7 13  1  0  0  0  0
  7 25  1  0  0  0  0
  8 10  1  0  0  0  0
  8 26  1  0  0  0  0
  8 27  1  0  0  0  0
  9 11  1  0  0  0  0
  9 28  1  0  0  0  0
  9 29  1  0  0  0  0
 10 11  1  0  0  0  0
 10 30  1  0  0  0  0
 10 31  1  0  0  0  0
 11 32  1  0  0  0  0
 11 33  1  0  0  0  0
 14 15  1  0  0  0  0
 14 34  1  0  0  0  0
 14 35  1  0  0  0  0
 16 17  1  0  0  0  0
 16 19  2  0  0  0  0
 17 18  2  0  0  0  0
 17 37  1  0  0  0  0
 18 20  1  0  0  0  0
 18 21  1  0  0  0  0
 19 22  1  0  0  0  0
 19 38  1  0  0  0  0
 20 23  1  0  0  0  0
 20 39  1  0  0  0  0
 20 40  1  0  0  0  0
 21 22  2  0  0  0  0
 21 41  1  0  0  0  0
 22 42  1  0  0  0  0
 23 43  1  0  0  0  0
 23 44  1  0  0  0  0
 23 45  1  0  0  0  0
M  END
> <PUBCHEM_COMPOUND_CID>
17396512

> <PUBCHEM_CONFORMER_RMSD>
0.8

> <PUBCHEM_CONFORMER_DIVERSEORDER>
1
9
74
44
111
125
24
7
120
34
12
8
48
110
49
93
91
62
32
60
64
43
82
21
113
19
85
119
83
76
5
10
80
69
18
45
22
68
70
108
123
65
73
36
102
29
11
129
131
67
121
81
57
41
20
87
78
47
109
130
4
14
116
79
28
37
52
118
100
33
96
58
38
112
26
56
114
101
103
128
13
59
71
61
77
117
15
16
23
51
54
40
122
90
6
94
25
72
95
63
92
39
89
30
127
2
97
104
105
3
53
84
106
86
115
99
50
88
98
107
126
75
42
124
46
17
66
31
55
35
27

> <PUBCHEM_MMFF94_PARTIAL_CHARGES>
23
1 -0.57
12 0.57
13 0.57
14 0.36
15 0.57
16 0.12
17 -0.15
18 -0.14
19 -0.15
2 -0.57
20 0.14
21 -0.15
22 -0.15
3 -0.57
36 0.37
37 0.15
38 0.15
4 -0.42
41 0.15
42 0.15
5 -0.55
6 0.06
7 0.06

> <PUBCHEM_EFFECTIVE_ROTOR_COUNT>
6

> <PUBCHEM_PHARMACOPHORE_FEATURES>
8
1 1 acceptor
1 2 acceptor
1 23 hydrophobe
1 3 acceptor
1 5 donor
5 4 6 7 12 13 rings
6 16 17 18 19 21 22 rings
6 6 7 8 9 10 11 rings

> <PUBCHEM_HEAVY_ATOM_COUNT>
23

> <PUBCHEM_ATOM_DEF_STEREO_COUNT>
0

> <PUBCHEM_ATOM_UDEF_STEREO_COUNT>
2

> <PUBCHEM_BOND_DEF_STEREO_COUNT>
0

> <PUBCHEM_BOND_UDEF_STEREO_COUNT>
0

> <PUBCHEM_ISOTOPIC_ATOM_COUNT>
0

> <PUBCHEM_COMPONENT_COUNT>
1

> <PUBCHEM_CACTVS_TAUTO_COUNT>
6

> <PUBCHEM_CONFORMER_ID>
0109732000000001

> <PUBCHEM_MMFF94_ENERGY>
46.6244

> <PUBCHEM_FEATURE_SELFOVERLAP>
40.768

> <PUBCHEM_SHAPE_FINGERPRINT>
10670039 82 15985109642832811959
11315181 36 13542457666651695197
11524674 6 18408317771040716555
11646440 116 18333732412143191832
12107183 9 16665405133679587883
12166972 35 15769771355637344772
12236239 1 17240204334966145709
12516196 113 18113900459357981241
12616971 3 17748828497191547933
12730499 353 18343580746230167330
13073987 5 18336826502134976577
13533116 47 17458624553834927342
13685833 64 18410852170315172955
13782708 43 18131913732907993203
14170010 4 18334577928200738504
1420 363 18131348613890163083
14251764 18 16515691044043802223
14341114 176 18260543429140350701
15142383 8 17386005121633427057
15183329 4 16153425056593876833
15537594 2 17458065984552917399
17844677 252 18273491282559596613
18681886 176 16200429148152287044
19489759 90 15985106319176977261
200 152 18113059354405920344
20645477 70 18408880776121421590
21033648 29 18200328666503677245
21033650 10 15481259637621220838
21150785 3 15985096410444819406
21267235 1 18187356675800647310
21315759 40 15769782368139342888
21315763 129 17132116844593006933
21315763 178 16805326612666092247
21623969 137 18408316696723554647
220451 1 16805323283918699196
22061861 79 18341332274799741887
2297311 6 17418371407372036589
2303208 19 18130784560267361675
23035841 295 17561360682508272979
23081809 10 16732989704257510093
23522609 53 16588570999549027265
23536379 177 17458062681316533857
23557571 272 17346313830181519079
23559900 14 18410579448408075745
300161 21 16950286212855788533
3004659 81 16515680040111126244
34797466 226 17775271751459428182
3545911 37 18343582936621030355
4325135 7 15913327992560761099
4340502 62 18335138687457211414
46194498 28 18202843253701198460
465052 167 18187638119905706007
5104073 3 18265899235893803097
542803 24 17022623074294108349

> <PUBCHEM_SHAPE_MULTIPOLES>
445.76
18.55
1.45
1.33
12.98
0.13
-0.34
4.2
2.51
-1.2
0.12
1.16
-0.1
1.84

> <PUBCHEM_SHAPE_SELFOVERLAP>
948.392

> <PUBCHEM_SHAPE_VOLUME>
247.6

> <PUBCHEM_COORDINATE_TYPE>
2
5
10

$$$$

