6914273
  -OEChem-07051212522D

 33 35  0     0  0  0  0  0  0999 V2000
    4.7199   -0.2768    0.0000 O   0  0  0  0  0  0  0  0  0  0  0  0
    2.0000    4.4659    0.0000 O   0  0  0  0  0  0  0  0  0  0  0  0
    5.5202    4.4659    0.0000 O   0  0  0  0  0  0  0  0  0  0  0  0
    6.3949   -5.3646    0.0000 O   0  5  0  0  0  0  0  0  0  0  0  0
    4.6629   -5.3646    0.0000 O   0  0  0  0  0  0  0  0  0  0  0  0
    4.2601    3.2058    0.0000 N   0  0  0  0  0  0  0  0  0  0  0  0
    3.7601    4.7446    0.0000 N   0  0  0  0  0  0  0  0  0  0  0  0
    4.8479    2.3968    0.0000 N   0  0  0  0  0  0  0  0  0  0  0  0
    5.5289   -4.8646    0.0000 N   0  3  0  0  0  0  0  0  0  0  0  0
    3.2601    3.2058    0.0000 C   0  0  0  0  0  0  0  0  0  0  0  0
    5.5289   -0.8646    0.0000 C   0  0  0  0  0  0  0  0  0  0  0  0
    5.5289   -1.8646    0.0000 C   0  0  0  0  0  0  0  0  0  0  0  0
    5.0289    0.6742    0.0000 C   0  0  0  0  0  0  0  0  0  0  0  0
    2.9511    4.1569    0.0000 C   0  0  0  0  0  0  0  0  0  0  0  0
    4.5691    4.1569    0.0000 C   0  0  0  0  0  0  0  0  0  0  0  0
    6.3379   -0.2768    0.0000 C   0  0  0  0  0  0  0  0  0  0  0  0
    6.0289    0.6742    0.0000 C   0  0  0  0  0  0  0  0  0  0  0  0
    4.6629   -2.3646    0.0000 C   0  0  0  0  0  0  0  0  0  0  0  0
    6.3949   -2.3646    0.0000 C   0  0  0  0  0  0  0  0  0  0  0  0
    4.4411    1.4832    0.0000 C   0  0  0  0  0  0  0  0  0  0  0  0
    5.5289   -3.8646    0.0000 C   0  0  0  0  0  0  0  0  0  0  0  0
    4.6629   -3.3646    0.0000 C   0  0  0  0  0  0  0  0  0  0  0  0
    6.3949   -3.3646    0.0000 C   0  0  0  0  0  0  0  0  0  0  0  0
    2.6536    3.0769    0.0000 H   0  0  0  0  0  0  0  0  0  0  0  0
    3.3249    2.5892    0.0000 H   0  0  0  0  0  0  0  0  0  0  0  0
    6.9276   -0.4684    0.0000 H   0  0  0  0  0  0  0  0  0  0  0  0
    3.7601    5.3646    0.0000 H   0  0  0  0  0  0  0  0  0  0  0  0
    6.3933    1.1758    0.0000 H   0  0  0  0  0  0  0  0  0  0  0  0
    4.1259   -2.0546    0.0000 H   0  0  0  0  0  0  0  0  0  0  0  0
    6.9319   -2.0546    0.0000 H   0  0  0  0  0  0  0  0  0  0  0  0
    3.8245    1.4184    0.0000 H   0  0  0  0  0  0  0  0  0  0  0  0
    4.1259   -3.6746    0.0000 H   0  0  0  0  0  0  0  0  0  0  0  0
    6.9319   -3.6746    0.0000 H   0  0  0  0  0  0  0  0  0  0  0  0
  1 11  1  0  0  0  0
  1 13  1  0  0  0  0
  2 14  2  0  0  0  0
  3 15  2  0  0  0  0
  4  9  1  0  0  0  0
  5  9  2  0  0  0  0
  6  8  1  0  0  0  0
  6 10  1  0  0  0  0
  6 15  1  0  0  0  0
  7 14  1  0  0  0  0
  7 15  1  0  0  0  0
  7 27  1  0  0  0  0
  8 20  2  0  0  0  0
  9 21  1  0  0  0  0
 10 14  1  0  0  0  0
 10 24  1  0  0  0  0
 10 25  1  0  0  0  0
 11 12  1  0  0  0  0
 11 16  2  0  0  0  0
 12 18  2  0  0  0  0
 12 19  1  0  0  0  0
 13 17  2  0  0  0  0
 13 20  1  0  0  0  0
 16 17  1  0  0  0  0
 16 26  1  0  0  0  0
 17 28  1  0  0  0  0
 18 22  1  0  0  0  0
 18 29  1  0  0  0  0
 19 23  2  0  0  0  0
 19 30  1  0  0  0  0
 20 31  1  0  0  0  0
 21 22  2  0  0  0  0
 21 23  1  0  0  0  0
 22 32  1  0  0  0  0
 23 33  1  0  0  0  0
M  CHG  2   4  -1   9   1
M  END
> <PUBCHEM_COMPOUND_CID>
6914273

> <PUBCHEM_COMPOUND_CANONICALIZED>
1

> <PUBCHEM_CACTVS_COMPLEXITY>
524

> <PUBCHEM_CACTVS_HBOND_ACCEPTOR>
6

> <PUBCHEM_CACTVS_HBOND_DONOR>
1

> <PUBCHEM_CACTVS_ROTATABLE_BOND>
3

> <PUBCHEM_CACTVS_SUBSKEYS>
AAADccBzuAAAAAAAAAAAAAAAAAAAAWJAAAAwAAAAAAAAAAABwAAAHgAcAAAADAzBmAQxxILQRECpArVzUwSSCAAkIgA+iAGubNqMZrKEtbuSOSD83zMI6YeY2fGeCAAAAAAAAAAQAAAAAAAAAAAAAAAAAA==

> <PUBCHEM_IUPAC_OPENEYE_NAME>
1-[(E)-[5-(4-nitrophenyl)-2-furyl]methyleneamino]imidazolidine-2,4-dione

> <PUBCHEM_IUPAC_CAS_NAME>
1-[(E)-[5-(4-nitrophenyl)-2-furanyl]methylideneamino]imidazolidine-2,4-dione

> <PUBCHEM_IUPAC_NAME>
1-[(E)-[5-(4-nitrophenyl)furan-2-yl]methylideneamino]imidazolidine-2,4-dione

> <PUBCHEM_IUPAC_SYSTEMATIC_NAME>
1-[(E)-[5-(4-nitrophenyl)furan-2-yl]methylideneamino]imidazolidine-2,4-dione

> <PUBCHEM_IUPAC_TRADITIONAL_NAME>
1-[(E)-[5-(4-nitrophenyl)-2-furyl]methyleneamino]hydantoin

> <PUBCHEM_IUPAC_INCHI>
InChI=1S/C14H10N4O5/c19-13-8-17(14(20)16-13)15-7-11-5-6-12(23-11)9-1-3-10(4-2-9)18(21)22/h1-7H,8H2,(H,16,19,20)/b15-7+

> <PUBCHEM_IUPAC_INCHIKEY>
OZOMQRBLCMDCEG-VIZOYTHASA-N

> <PUBCHEM_XLOGP3>
1.7

> <PUBCHEM_EXACT_MASS>
314.065119

> <PUBCHEM_MOLECULAR_FORMULA>
C14H10N4O5

> <PUBCHEM_MOLECULAR_WEIGHT>
314.253

> <PUBCHEM_OPENEYE_CAN_SMILES>
C1C(=O)NC(=O)N1N=CC2=CC=C(O2)C3=CC=C(C=C3)[N+](=O)[O-]

> <PUBCHEM_OPENEYE_ISO_SMILES>
C1C(=O)NC(=O)N1/N=C/C2=CC=C(O2)C3=CC=C(C=C3)[N+](=O)[O-]

> <PUBCHEM_CACTVS_TPSA>
121

> <PUBCHEM_MONOISOTOPIC_WEIGHT>
314.065119

> <PUBCHEM_TOTAL_CHARGE>
0

> <PUBCHEM_HEAVY_ATOM_COUNT>
23

> <PUBCHEM_ATOM_DEF_STEREO_COUNT>
0

> <PUBCHEM_ATOM_UDEF_STEREO_COUNT>
0

> <PUBCHEM_BOND_DEF_STEREO_COUNT>
1

> <PUBCHEM_BOND_UDEF_STEREO_COUNT>
0

> <PUBCHEM_ISOTOPIC_ATOM_COUNT>
0

> <PUBCHEM_COMPONENT_COUNT>
1

> <PUBCHEM_CACTVS_TAUTO_COUNT>
5

> <PUBCHEM_COORDINATE_TYPE>
1
5
255

> <PUBCHEM_BONDANNOTATIONS>
1  11  8
1  13  8
11  16  8
12  18  8
12  19  8
13  17  8
16  17  8
18  22  8
19  23  8
21  22  8
21  23  8

$$$$

