17395468
  -OEChem-06241222503D

 35 36  0     0  0  0  0  0  0999 V2000
    5.0849    2.6675   -0.3432 S   0  0  0  0  0  0  0  0  0  0  0  0
   -5.9591    2.3906    0.4446 F   0  0  0  0  0  0  0  0  0  0  0  0
   -6.3567    0.2852    0.8166 F   0  0  0  0  0  0  0  0  0  0  0  0
    5.4513   -1.1290    0.2706 O   0  0  0  0  0  0  0  0  0  0  0  0
    2.0626   -0.5431   -1.1046 O   0  0  0  0  0  0  0  0  0  0  0  0
   -4.6859    0.8651   -0.5975 O   0  0  0  0  0  0  0  0  0  0  0  0
    3.8577    0.5467    0.5835 N   0  0  0  0  0  0  0  0  0  0  0  0
    0.9815   -1.7079    0.5913 N   0  0  0  0  0  0  0  0  0  0  0  0
    2.8489   -0.3167    1.1686 C   0  0  0  0  0  0  0  0  0  0  0  0
    3.6136    1.9575    0.3997 C   0  0  0  0  0  0  0  0  0  0  0  0
    5.0875    0.0408    0.1834 C   0  0  0  0  0  0  0  0  0  0  0  0
    5.9811    1.1074   -0.3975 C   0  0  0  0  0  0  0  0  0  0  0  0
    1.9525   -0.8611    0.0769 C   0  0  0  0  0  0  0  0  0  0  0  0
   -0.0390   -2.3304   -0.2213 C   0  0  0  0  0  0  0  0  0  0  0  0
   -1.2731   -1.4812   -0.3214 C   0  0  0  0  0  0  0  0  0  0  0  0
   -1.3953   -0.5459   -1.3491 C   0  0  0  0  0  0  0  0  0  0  0  0
   -2.2978   -1.6279    0.6135 C   0  0  0  0  0  0  0  0  0  0  0  0
   -2.5421    0.2427   -1.4418 C   0  0  0  0  0  0  0  0  0  0  0  0
   -3.4446   -0.8394    0.5210 C   0  0  0  0  0  0  0  0  0  0  0  0
   -3.5667    0.0959   -0.5067 C   0  0  0  0  0  0  0  0  0  0  0  0
   -5.3613    1.1829    0.6137 C   0  0  0  0  0  0  0  0  0  0  0  0
    2.2602    0.2522    1.8952 H   0  0  0  0  0  0  0  0  0  0  0  0
    3.3327   -1.1584    1.6758 H   0  0  0  0  0  0  0  0  0  0  0  0
    2.7479    2.0954   -0.2539 H   0  0  0  0  0  0  0  0  0  0  0  0
    3.4172    2.4168    1.3726 H   0  0  0  0  0  0  0  0  0  0  0  0
    6.8957    1.1796    0.1965 H   0  0  0  0  0  0  0  0  0  0  0  0
    6.2274    0.8525   -1.4314 H   0  0  0  0  0  0  0  0  0  0  0  0
    0.3653   -2.5347   -1.2198 H   0  0  0  0  0  0  0  0  0  0  0  0
   -0.2745   -3.3004    0.2312 H   0  0  0  0  0  0  0  0  0  0  0  0
    0.9613   -1.8867    1.5913 H   0  0  0  0  0  0  0  0  0  0  0  0
   -0.6066   -0.4226   -2.0861 H   0  0  0  0  0  0  0  0  0  0  0  0
   -2.2156   -2.3560    1.4161 H   0  0  0  0  0  0  0  0  0  0  0  0
   -2.6319    0.9692   -2.2447 H   0  0  0  0  0  0  0  0  0  0  0  0
   -4.2301   -1.0024    1.2529 H   0  0  0  0  0  0  0  0  0  0  0  0
   -4.7127    1.2513    1.4942 H   0  0  0  0  0  0  0  0  0  0  0  0
  1 10  1  0  0  0  0
  1 12  1  0  0  0  0
  2 21  1  0  0  0  0
  3 21  1  0  0  0  0
  4 11  2  0  0  0  0
  5 13  2  0  0  0  0
  6 20  1  0  0  0  0
  6 21  1  0  0  0  0
  7  9  1  0  0  0  0
  7 10  1  0  0  0  0
  7 11  1  0  0  0  0
  8 13  1  0  0  0  0
  8 14  1  0  0  0  0
  8 30  1  0  0  0  0
  9 13  1  0  0  0  0
  9 22  1  0  0  0  0
  9 23  1  0  0  0  0
 10 24  1  0  0  0  0
 10 25  1  0  0  0  0
 11 12  1  0  0  0  0
 12 26  1  0  0  0  0
 12 27  1  0  0  0  0
 14 15  1  0  0  0  0
 14 28  1  0  0  0  0
 14 29  1  0  0  0  0
 15 16  2  0  0  0  0
 15 17  1  0  0  0  0
 16 18  1  0  0  0  0
 16 31  1  0  0  0  0
 17 19  2  0  0  0  0
 17 32  1  0  0  0  0
 18 20  2  0  0  0  0
 18 33  1  0  0  0  0
 19 20  1  0  0  0  0
 19 34  1  0  0  0  0
 21 35  1  0  0  0  0
M  END
> <PUBCHEM_COMPOUND_CID>
17395468

> <PUBCHEM_CONFORMER_RMSD>
1

> <PUBCHEM_CONFORMER_DIVERSEORDER>
2
33
46
37
62
63
16
24
48
17
22
21
13
36
60
53
19
35
25
68
57
11
45
56
42
3
7
12
41
18
55
40
52
50
29
6
54
15
8
34
5
9
49
20
67
30
31
66
47
4
51
44
58
28
38
27
23
61
14
26
10
59
39
64
1
32
65
43

> <PUBCHEM_MMFF94_PARTIAL_CHARGES>
26
1 -0.46
10 0.53
11 0.57
12 0.29
13 0.57
14 0.44
15 -0.14
16 -0.15
17 -0.15
18 -0.15
19 -0.15
2 -0.34
20 0.08
21 0.96
3 -0.34
30 0.37
31 0.15
32 0.15
33 0.15
34 0.15
4 -0.57
5 -0.57
6 -0.36
7 -0.66
8 -0.73
9 0.36

> <PUBCHEM_EFFECTIVE_ROTOR_COUNT>
7.8

> <PUBCHEM_PHARMACOPHORE_FEATURES>
6
1 4 acceptor
1 5 acceptor
1 6 acceptor
1 8 donor
5 1 7 10 11 12 rings
6 15 16 17 18 19 20 rings

> <PUBCHEM_HEAVY_ATOM_COUNT>
21

> <PUBCHEM_ATOM_DEF_STEREO_COUNT>
0

> <PUBCHEM_ATOM_UDEF_STEREO_COUNT>
0

> <PUBCHEM_BOND_DEF_STEREO_COUNT>
0

> <PUBCHEM_BOND_UDEF_STEREO_COUNT>
0

> <PUBCHEM_ISOTOPIC_ATOM_COUNT>
0

> <PUBCHEM_COMPONENT_COUNT>
1

> <PUBCHEM_CACTVS_TAUTO_COUNT>
2

> <PUBCHEM_CONFORMER_ID>
01096F0C00000002

> <PUBCHEM_MMFF94_ENERGY>
45.9412

> <PUBCHEM_FEATURE_SELFOVERLAP>
30.446

> <PUBCHEM_SHAPE_FINGERPRINT>
100836 57 18408604755710608522
10447042 23 8935001464908212976
10753850 27 9511458922961229285
11370993 144 18343303648051874022
12107183 9 18340496663891971074
12390115 104 18338507560893189531
12596602 18 17988923383998057041
12788726 201 17822853198909366081
12892183 10 15841005467111306606
13167372 99 18335420201041005760
13785724 45 17978514466590979186
13885169 86 18341044108348905996
1420 369 10015593826032718160
14251740 57 12031243844141254304
14251751 18 10087638195887525233
14251752 14 5978118903426323531
14341114 176 17917994992601570972
14341114 328 16558743490553710422
14848160 23 8718835271295314434
15163728 17 16733813337662509673
15183329 4 15285352937956118483
15188451 53 13183017402694434865
15342168 16 18408608067373130007
15728490 51 11815597672167167176
16760501 71 18271520910187662253
17492 89 9942712685412718360
17834072 32 18338801117723355388
17857418 61 10015863184785490929
18785283 64 18267871768413311986
19784866 240 10592039181089479427
200 152 9727636115732275271
20374829 77 8935000369686394367
20621476 66 18337107865959859156
20621476 78 7493011756226095700
20645477 56 18131356327630769623
21033648 29 18338804390789187336
21315763 87 11095884843899510108
21637258 2 12175616253375686987
22224240 67 18131630093774063355
23403322 49 8430326748239214254
23559900 14 18334014991559818022
270888 7 18408605850827386585
2838139 119 17894639170751926201
29717793 49 5833993858210424490
3472631 163 18333732412032162117
351380 3 11743838066553602536
4259306 186 8142086476625030457
5104073 3 17988090985113244154
633830 44 18340216198142715382
76465 3 9655578513067281539
7808743 9 18410296865366543827
7970288 3 9583516508167142585

> <PUBCHEM_SHAPE_MULTIPOLES>
393.9
15.58
2.39
1.08
1.13
0.71
0.19
10.95
-2.23
-0.38
-0.18
0.47
-0.01
-0.66

> <PUBCHEM_SHAPE_SELFOVERLAP>
807.63

> <PUBCHEM_SHAPE_VOLUME>
229.6

> <PUBCHEM_COORDINATE_TYPE>
2
5
10

$$$$

