245229
  -OEChem-07051213072D

 65 69  0     1  0  0  0  0  0999 V2000
    9.0594   -1.0583    0.0000 O   0  0  0  0  0  0  0  0  0  0  0  0
    8.4073   -2.5194    0.0000 O   0  0  0  0  0  0  0  0  0  0  0  0
    8.7828    0.6301    0.0000 O   0  0  0  0  0  0  0  0  0  0  0  0
    2.0000    2.8598    0.0000 O   0  0  0  0  0  0  0  0  0  0  0  0
    7.3399   -0.2845    0.0000 C   0  0  1  0  0  0  0  0  0  0  0  0
    6.4739   -0.7845    0.0000 C   0  0  2  0  0  0  0  0  0  0  0  0
    5.6079   -0.2845    0.0000 C   0  0  1  0  0  0  0  0  0  0  0  0
    8.0770   -0.9516    0.0000 C   0  0  1  0  0  0  0  0  0  0  0  0
    5.6079    0.7155    0.0000 C   0  0  1  0  0  0  0  0  0  0  0  0
    6.6831   -1.7564    0.0000 C   0  0  0  0  0  0  0  0  0  0  0  0
    7.6718   -1.8594    0.0000 C   0  0  1  0  0  0  0  0  0  0  0  0
    7.3399    0.7155    0.0000 C   0  0  0  0  0  0  0  0  0  0  0  0
    4.7140    1.2501    0.0000 C   0  0  2  0  0  0  0  0  0  0  0  0
    6.4739    1.2154    0.0000 C   0  0  0  0  0  0  0  0  0  0  0  0
    4.7140   -0.8192    0.0000 C   0  0  0  0  0  0  0  0  0  0  0  0
    8.2060    0.2155    0.0000 C   0  0  0  0  0  0  0  0  0  0  0  0
    3.8079   -0.3054    0.0000 C   0  0  1  0  0  0  0  0  0  0  0  0
    3.8079    0.7363    0.0000 C   0  0  0  0  0  0  0  0  0  0  0  0
    4.7390    2.3348    0.0000 C   0  0  0  0  0  0  0  0  0  0  0  0
    8.8865   -0.3645    0.0000 C   0  0  0  0  0  0  0  0  0  0  0  0
    9.2632   -2.0253    0.0000 C   0  0  0  0  0  0  0  0  0  0  0  0
    5.5838    1.7434    0.0000 C   0  0  0  0  0  0  0  0  0  0  0  0
    3.8079    2.8917    0.0000 C   0  0  0  0  0  0  0  0  0  0  0  0
    2.8641    1.2715    0.0000 C   0  0  0  0  0  0  0  0  0  0  0  0
    2.9438   -0.8087    0.0000 C   0  0  0  0  0  0  0  0  0  0  0  0
    9.7997   -0.7721    0.0000 C   0  0  0  0  0  0  0  0  0  0  0  0
    9.7624   -2.8917    0.0000 C   0  0  0  0  0  0  0  0  0  0  0  0
   10.2415   -1.8182    0.0000 C   0  0  0  0  0  0  0  0  0  0  0  0
    2.8641    2.3565    0.0000 C   0  0  0  0  0  0  0  0  0  0  0  0
    5.7869   -1.2851    0.0000 H   0  0  0  0  0  0  0  0  0  0  0  0
    5.6144   -1.1345    0.0000 H   0  0  0  0  0  0  0  0  0  0  0  0
    6.3440    0.2905    0.0000 H   0  0  0  0  0  0  0  0  0  0  0  0
    6.0666   -1.8224    0.0000 H   0  0  0  0  0  0  0  0  0  0  0  0
    6.6840   -2.3764    0.0000 H   0  0  0  0  0  0  0  0  0  0  0  0
    7.3271   -2.6364    0.0000 H   0  0  0  0  0  0  0  0  0  0  0  0
    7.9505    0.6078    0.0000 H   0  0  0  0  0  0  0  0  0  0  0  0
    7.5520    1.2981    0.0000 H   0  0  0  0  0  0  0  0  0  0  0  0
    6.8724    1.6904    0.0000 H   0  0  0  0  0  0  0  0  0  0  0  0
    6.0754    1.6904    0.0000 H   0  0  0  0  0  0  0  0  0  0  0  0
    4.3203   -1.2982    0.0000 H   0  0  0  0  0  0  0  0  0  0  0  0
    5.1185   -1.2890    0.0000 H   0  0  0  0  0  0  0  0  0  0  0  0
    8.5160   -0.3215    0.0000 H   0  0  0  0  0  0  0  0  0  0  0  0
    8.7429    0.5255    0.0000 H   0  0  0  0  0  0  0  0  0  0  0  0
    7.8960    0.7524    0.0000 H   0  0  0  0  0  0  0  0  0  0  0  0
    3.2704    0.0036    0.0000 H   0  0  0  0  0  0  0  0  0  0  0  0
    5.3473    2.2146    0.0000 H   0  0  0  0  0  0  0  0  0  0  0  0
    4.9615    2.9135    0.0000 H   0  0  0  0  0  0  0  0  0  0  0  0
    5.8896    1.2041    0.0000 H   0  0  0  0  0  0  0  0  0  0  0  0
    6.1231    2.0493    0.0000 H   0  0  0  0  0  0  0  0  0  0  0  0
    5.2780    2.2827    0.0000 H   0  0  0  0  0  0  0  0  0  0  0  0
    4.2125    3.3615    0.0000 H   0  0  0  0  0  0  0  0  0  0  0  0
    3.4142    3.3708    0.0000 H   0  0  0  0  0  0  0  0  0  0  0  0
    2.3284    0.9594    0.0000 H   0  0  0  0  0  0  0  0  0  0  0  0
    2.6317   -0.2730    0.0000 H   0  0  0  0  0  0  0  0  0  0  0  0
    2.4080   -1.1208    0.0000 H   0  0  0  0  0  0  0  0  0  0  0  0
    3.2558   -1.3444    0.0000 H   0  0  0  0  0  0  0  0  0  0  0  0
    9.5470   -1.3382    0.0000 H   0  0  0  0  0  0  0  0  0  0  0  0
   10.3659   -1.0247    0.0000 H   0  0  0  0  0  0  0  0  0  0  0  0
   10.0523   -0.2059    0.0000 H   0  0  0  0  0  0  0  0  0  0  0  0
    9.2252   -3.2013    0.0000 H   0  0  0  0  0  0  0  0  0  0  0  0
   10.0719   -3.4289    0.0000 H   0  0  0  0  0  0  0  0  0  0  0  0
   10.2996   -2.5822    0.0000 H   0  0  0  0  0  0  0  0  0  0  0  0
   10.3699   -2.4248    0.0000 H   0  0  0  0  0  0  0  0  0  0  0  0
   10.8480   -1.6898    0.0000 H   0  0  0  0  0  0  0  0  0  0  0  0
   10.1131   -1.2116    0.0000 H   0  0  0  0  0  0  0  0  0  0  0  0
  1  8  1  0  0  0  0
  1 21  1  0  0  0  0
  2 11  1  0  0  0  0
  2 21  1  0  0  0  0
  3 20  2  0  0  0  0
  4 29  2  0  0  0  0
  5  6  1  0  0  0  0
  5  8  1  0  0  0  0
  5 12  1  0  0  0  0
  5 16  1  1  0  0  0
  6  7  1  0  0  0  0
  6 10  1  0  0  0  0
  6 30  1  6  0  0  0
  7  9  1  0  0  0  0
  7 15  1  0  0  0  0
  7 31  1  1  0  0  0
  8 11  1  0  0  0  0
  8 20  1  1  0  0  0
  9 13  1  0  0  0  0
  9 14  1  0  0  0  0
  9 32  1  6  0  0  0
 10 11  1  0  0  0  0
 10 33  1  0  0  0  0
 10 34  1  0  0  0  0
 11 35  1  1  0  0  0
 12 14  1  0  0  0  0
 12 36  1  0  0  0  0
 12 37  1  0  0  0  0
 13 18  1  0  0  0  0
 13 19  1  0  0  0  0
 13 22  1  1  0  0  0
 14 38  1  0  0  0  0
 14 39  1  0  0  0  0
 15 17  1  0  0  0  0
 15 40  1  0  0  0  0
 15 41  1  0  0  0  0
 16 42  1  0  0  0  0
 16 43  1  0  0  0  0
 16 44  1  0  0  0  0
 17 18  1  0  0  0  0
 17 25  1  6  0  0  0
 17 45  1  0  0  0  0
 18 24  2  0  0  0  0
 19 23  1  0  0  0  0
 19 46  1  0  0  0  0
 19 47  1  0  0  0  0
 20 26  1  0  0  0  0
 21 27  1  0  0  0  0
 21 28  1  0  0  0  0
 22 48  1  0  0  0  0
 22 49  1  0  0  0  0
 22 50  1  0  0  0  0
 23 29  1  0  0  0  0
 23 51  1  0  0  0  0
 23 52  1  0  0  0  0
 24 29  1  0  0  0  0
 24 53  1  0  0  0  0
 25 54  1  0  0  0  0
 25 55  1  0  0  0  0
 25 56  1  0  0  0  0
 26 57  1  0  0  0  0
 26 58  1  0  0  0  0
 26 59  1  0  0  0  0
 27 60  1  0  0  0  0
 27 61  1  0  0  0  0
 27 62  1  0  0  0  0
 28 63  1  0  0  0  0
 28 64  1  0  0  0  0
 28 65  1  0  0  0  0
M  END
> <PUBCHEM_COMPOUND_CID>
245229

> <PUBCHEM_COMPOUND_CANONICALIZED>
1

> <PUBCHEM_CACTVS_COMPLEXITY>
812

> <PUBCHEM_CACTVS_HBOND_ACCEPTOR>
4

> <PUBCHEM_CACTVS_HBOND_DONOR>
0

> <PUBCHEM_CACTVS_ROTATABLE_BOND>
1

> <PUBCHEM_CACTVS_SUBSKEYS>
AAADcfB4OAAAAAAAAAAAAAAAAAAAAaIAAAAwYIAAAAASAGDAAAAAGgAAAAAAD1SggAICCAAABACIAqBSAAIAAAAgAAAACAFAAEgRABYAAQQiAAAEoAAOAQOI6PyPgAAAAAAAAACAAAQAACAAAYAADCAAAA==

> <PUBCHEM_IUPAC_INCHI>
InChI=1S/C25H36O4/c1-14-11-17-18(23(5)9-7-16(27)12-19(14)23)8-10-24(6)20(17)13-21-25(24,15(2)26)29-22(3,4)28-21/h12,14,17-18,20-21H,7-11,13H2,1-6H3/t14-,17+,18-,20-,21+,23+,24-,25+/m0/s1

> <PUBCHEM_IUPAC_INCHIKEY>
YWMWIAVBBQGFEY-MTJPYDJLSA-N

> <PUBCHEM_XLOGP3_AA>
3.8

> <PUBCHEM_EXACT_MASS>
400.26136

> <PUBCHEM_MOLECULAR_FORMULA>
C25H36O4

> <PUBCHEM_MOLECULAR_WEIGHT>
400.55094

> <PUBCHEM_OPENEYE_CAN_SMILES>
CC1CC2C(CCC3(C2CC4C3(OC(O4)(C)C)C(=O)C)C)C5(C1=CC(=O)CC5)C

> <PUBCHEM_OPENEYE_ISO_SMILES>
C[C@H]1C[C@@H]2[C@H](CC[C@]3([C@H]2C[C@@H]4[C@]3(OC(O4)(C)C)C(=O)C)C)[C@@]5(C1=CC(=O)CC5)C

> <PUBCHEM_CACTVS_TPSA>
52.6

> <PUBCHEM_MONOISOTOPIC_WEIGHT>
400.26136

> <PUBCHEM_TOTAL_CHARGE>
0

> <PUBCHEM_HEAVY_ATOM_COUNT>
29

> <PUBCHEM_ATOM_DEF_STEREO_COUNT>
8

> <PUBCHEM_ATOM_UDEF_STEREO_COUNT>
0

> <PUBCHEM_BOND_DEF_STEREO_COUNT>
0

> <PUBCHEM_BOND_UDEF_STEREO_COUNT>
0

> <PUBCHEM_ISOTOPIC_ATOM_COUNT>
0

> <PUBCHEM_COMPONENT_COUNT>
1

> <PUBCHEM_CACTVS_TAUTO_COUNT>
10

> <PUBCHEM_COORDINATE_TYPE>
1
5
255

> <PUBCHEM_BONDANNOTATIONS>
11  35  5
13  22  5
17  25  6
5  16  5
6  30  6
7  31  5
8  20  5
9  32  6

$$$$

