9792
  -OEChem-06261204043D

 59 62  0     1  0  0  0  0  0999 V2000
   -0.9858   -0.2232   -1.4221 F   0  0  0  0  0  0  0  0  0  0  0  0
    3.3805   -0.3669   -1.8754 O   0  0  0  0  0  0  0  0  0  0  0  0
   -0.0631    2.1934    1.0823 O   0  0  0  0  0  0  0  0  0  0  0  0
    4.4994    1.7640    0.0015 O   0  0  0  0  0  0  0  0  0  0  0  0
   -6.1227   -0.4355   -1.4168 O   0  0  0  0  0  0  0  0  0  0  0  0
    7.0151    0.7358   -0.4306 O   0  0  0  0  0  0  0  0  0  0  0  0
    2.1204    0.1724    0.1654 C   0  0  1  0  0  0  0  0  0  0  0  0
    1.2749   -1.1118    0.0227 C   0  0  2  0  0  0  0  0  0  0  0  0
   -0.1323   -0.9822    0.6235 C   0  0  1  0  0  0  0  0  0  0  0  0
   -0.8937    0.1778   -0.0960 C   0  0  2  0  0  0  0  0  0  0  0  0
   -2.3918    0.3289    0.4072 C   0  0  2  0  0  0  0  0  0  0  0  0
    3.4543   -0.3290   -0.4535 C   0  0  1  0  0  0  0  0  0  0  0  0
    1.3942    1.2905   -0.6084 C   0  0  0  0  0  0  0  0  0  0  0  0
   -0.0681    1.4980   -0.1546 C   0  0  2  0  0  0  0  0  0  0  0  0
    2.2008   -2.2055    0.5496 C   0  0  0  0  0  0  0  0  0  0  0  0
    3.6067   -1.7688    0.0878 C   0  0  0  0  0  0  0  0  0  0  0  0
   -0.9025   -2.3045    0.4709 C   0  0  0  0  0  0  0  0  0  0  0  0
   -3.0695   -1.0431    0.3196 C   0  0  0  0  0  0  0  0  0  0  0  0
    2.3561    0.5932    1.6424 C   0  0  0  0  0  0  0  0  0  0  0  0
   -2.3343   -2.1886    0.9747 C   0  0  0  0  0  0  0  0  0  0  0  0
   -3.1170    1.3515   -0.5198 C   0  0  0  0  0  0  0  0  0  0  0  0
   -2.4855    0.7981    1.8786 C   0  0  0  0  0  0  0  0  0  0  0  0
    4.6312    0.5506   -0.1515 C   0  0  0  0  0  0  0  0  0  0  0  0
   -4.6430    1.2580   -0.5823 C   0  0  1  0  0  0  0  0  0  0  0  0
   -4.2544   -1.2688   -0.2701 C   0  0  0  0  0  0  0  0  0  0  0  0
   -5.0758   -0.1704   -0.8274 C   0  0  0  0  0  0  0  0  0  0  0  0
    5.9749   -0.1391   -0.0484 C   0  0  0  0  0  0  0  0  0  0  0  0
   -5.3690    1.8250    0.6307 C   0  0  0  0  0  0  0  0  0  0  0  0
    1.1382   -1.3240   -1.0503 H   0  0  0  0  0  0  0  0  0  0  0  0
   -0.0533   -0.7723    1.6939 H   0  0  0  0  0  0  0  0  0  0  0  0
    1.3749    1.0517   -1.6790 H   0  0  0  0  0  0  0  0  0  0  0  0
    1.9450    2.2331   -0.5061 H   0  0  0  0  0  0  0  0  0  0  0  0
   -0.5191    2.1659   -0.8990 H   0  0  0  0  0  0  0  0  0  0  0  0
    1.9425   -3.1908    0.1484 H   0  0  0  0  0  0  0  0  0  0  0  0
    2.1599   -2.2714    1.6428 H   0  0  0  0  0  0  0  0  0  0  0  0
    4.2789   -1.8429    0.9489 H   0  0  0  0  0  0  0  0  0  0  0  0
    3.9714   -2.4579   -0.6827 H   0  0  0  0  0  0  0  0  0  0  0  0
   -0.3979   -3.1000    1.0318 H   0  0  0  0  0  0  0  0  0  0  0  0
   -0.9102   -2.6179   -0.5814 H   0  0  0  0  0  0  0  0  0  0  0  0
    2.7692    1.6048    1.7121 H   0  0  0  0  0  0  0  0  0  0  0  0
    1.4379    0.6002    2.2336 H   0  0  0  0  0  0  0  0  0  0  0  0
    3.0488   -0.0753    2.1646 H   0  0  0  0  0  0  0  0  0  0  0  0
   -2.3309   -2.0379    2.0613 H   0  0  0  0  0  0  0  0  0  0  0  0
   -2.8462   -3.1431    0.8011 H   0  0  0  0  0  0  0  0  0  0  0  0
   -2.7630    1.2031   -1.5502 H   0  0  0  0  0  0  0  0  0  0  0  0
   -2.8270    2.3775   -0.2595 H   0  0  0  0  0  0  0  0  0  0  0  0
   -2.4260    1.8867    1.9688 H   0  0  0  0  0  0  0  0  0  0  0  0
   -3.4305    0.4995    2.3446 H   0  0  0  0  0  0  0  0  0  0  0  0
   -1.6948    0.3744    2.5043 H   0  0  0  0  0  0  0  0  0  0  0  0
   -4.9554    1.8402   -1.4600 H   0  0  0  0  0  0  0  0  0  0  0  0
    4.1598   -0.8406   -2.2127 H   0  0  0  0  0  0  0  0  0  0  0  0
   -4.6850   -2.2638   -0.3182 H   0  0  0  0  0  0  0  0  0  0  0  0
   -0.7621    2.8675    1.0438 H   0  0  0  0  0  0  0  0  0  0  0  0
    6.0184   -0.9931   -0.7283 H   0  0  0  0  0  0  0  0  0  0  0  0
    6.1440   -0.4757    0.9780 H   0  0  0  0  0  0  0  0  0  0  0  0
   -4.9660    2.8021    0.9144 H   0  0  0  0  0  0  0  0  0  0  0  0
   -6.4331    1.9571    0.4028 H   0  0  0  0  0  0  0  0  0  0  0  0
   -5.3214    1.1585    1.4957 H   0  0  0  0  0  0  0  0  0  0  0  0
    7.0457    1.4561    0.2219 H   0  0  0  0  0  0  0  0  0  0  0  0
  1 10  1  0  0  0  0
  2 12  1  0  0  0  0
  2 51  1  0  0  0  0
  3 14  1  0  0  0  0
  3 53  1  0  0  0  0
  4 23  2  0  0  0  0
  5 26  2  0  0  0  0
  6 27  1  0  0  0  0
  6 59  1  0  0  0  0
  7  8  1  0  0  0  0
  7 12  1  0  0  0  0
  7 13  1  0  0  0  0
  7 19  1  0  0  0  0
  8  9  1  0  0  0  0
  8 15  1  0  0  0  0
  8 29  1  0  0  0  0
  9 10  1  0  0  0  0
  9 17  1  0  0  0  0
  9 30  1  0  0  0  0
 10 11  1  0  0  0  0
 10 14  1  0  0  0  0
 11 18  1  0  0  0  0
 11 21  1  0  0  0  0
 11 22  1  0  0  0  0
 12 16  1  0  0  0  0
 12 23  1  0  0  0  0
 13 14  1  0  0  0  0
 13 31  1  0  0  0  0
 13 32  1  0  0  0  0
 14 33  1  0  0  0  0
 15 16  1  0  0  0  0
 15 34  1  0  0  0  0
 15 35  1  0  0  0  0
 16 36  1  0  0  0  0
 16 37  1  0  0  0  0
 17 20  1  0  0  0  0
 17 38  1  0  0  0  0
 17 39  1  0  0  0  0
 18 20  1  0  0  0  0
 18 25  2  0  0  0  0
 19 40  1  0  0  0  0
 19 41  1  0  0  0  0
 19 42  1  0  0  0  0
 20 43  1  0  0  0  0
 20 44  1  0  0  0  0
 21 24  1  0  0  0  0
 21 45  1  0  0  0  0
 21 46  1  0  0  0  0
 22 47  1  0  0  0  0
 22 48  1  0  0  0  0
 22 49  1  0  0  0  0
 23 27  1  0  0  0  0
 24 26  1  0  0  0  0
 24 28  1  0  0  0  0
 24 50  1  0  0  0  0
 25 26  1  0  0  0  0
 25 52  1  0  0  0  0
 27 54  1  0  0  0  0
 27 55  1  0  0  0  0
 28 56  1  0  0  0  0
 28 57  1  0  0  0  0
 28 58  1  0  0  0  0
M  END
> <PUBCHEM_COMPOUND_CID>
9792

> <PUBCHEM_CONFORMER_RMSD>
0.8

> <PUBCHEM_CONFORMER_DIVERSEORDER>
1
2

> <PUBCHEM_MMFF94_PARTIAL_CHARGES>
21
1 -0.34
10 0.34
11 0.14
12 0.34
14 0.28
18 -0.28
2 -0.68
20 0.14
23 0.45
24 0.06
25 -0.14
26 0.49
27 0.34
3 -0.68
4 -0.57
5 -0.57
51 0.4
52 0.15
53 0.4
59 0.4
6 -0.68

> <PUBCHEM_EFFECTIVE_ROTOR_COUNT>
3.8

> <PUBCHEM_PHARMACOPHORE_FEATURES>
12
1 2 acceptor
1 2 donor
1 3 acceptor
1 3 donor
1 4 acceptor
1 5 acceptor
1 6 acceptor
1 6 donor
5 7 8 12 15 16 rings
6 11 18 21 24 25 26 rings
6 7 8 9 10 13 14 rings
6 9 10 11 17 18 20 rings

> <PUBCHEM_HEAVY_ATOM_COUNT>
28

> <PUBCHEM_ATOM_DEF_STEREO_COUNT>
7

> <PUBCHEM_ATOM_UDEF_STEREO_COUNT>
1

> <PUBCHEM_BOND_DEF_STEREO_COUNT>
0

> <PUBCHEM_BOND_UDEF_STEREO_COUNT>
0

> <PUBCHEM_ISOTOPIC_ATOM_COUNT>
0

> <PUBCHEM_COMPONENT_COUNT>
1

> <PUBCHEM_CACTVS_TAUTO_COUNT>
15

> <PUBCHEM_CONFORMER_ID>
0000264000000001

> <PUBCHEM_MMFF94_ENERGY>
98.2417

> <PUBCHEM_FEATURE_SELFOVERLAP>
60.99

> <PUBCHEM_SHAPE_FINGERPRINT>
10366900 7 18040718060698358682
10411042 1 17694213375218346811
10498660 4 18412259545235642984
10863032 1 18411417336398008987
10906281 52 18336812178176392482
11089746 13 18334579040396619440
11315181 36 17967809432097513312
12011746 2 18409733941093391799
12107183 9 17615968154633998537
12236239 1 18114183068274447772
12403814 3 17132117939535262991
12516196 113 17894353275921506688
12788726 201 17896035614669515721
13140716 1 18197765627394403552
13224815 77 18334573559722944178
14787075 74 18409735075291773105
14790565 3 18413668023926070621
15183329 4 18343588451153180059
15196674 1 18413107285785874227
15788980 27 15339119035211397134
1601671 61 18273215304697484260
16945 1 18130213883251160515
17349148 13 18187364355022687971
1813 80 4678813974095238875
18608769 82 18271239410132355139
18681886 176 18340210678893267264
18927931 339 7637401843783939297
19862831 5 18333732446644977643
200 152 17967255295511772735
20511986 3 18341347659367197650
21033648 29 17894923901065557713
21267235 1 18340478980783372355
21279426 13 18339359802705868695
21421861 104 17559969877682758538
22393880 68 18334018280676176063
23402539 116 18411421700638409796
23559900 14 18410297969205073328
23569914 152 17033030205180278868
296302 2 17418374701163507515
3004659 81 18201158862201759242
335352 9 18342457041673800022
34797466 226 17749384841094702613
34934 24 18342739628482810546
3545911 37 18342457036503126063
3633792 109 18269562791805660847
4073 2 18060413587155113586
465052 167 7276826922048853628
484989 97 18196375810939101351
5104073 3 18273213118548711771
5283173 99 18411985796837097629
7226269 152 18410009957203943545

> <PUBCHEM_SHAPE_MULTIPOLES>
539.61
12.73
2.18
1.24
4.61
0.54
-0.11
-2.93
3.12
-0.52
-0.45
-0.48
-0.14
-0.22

> <PUBCHEM_SHAPE_SELFOVERLAP>
1166.862

> <PUBCHEM_SHAPE_VOLUME>
296.4

> <PUBCHEM_COORDINATE_TYPE>
2
5
10

$$$$

