5281493
  -OEChem-07051212572D

 53 55  0     1  0  0  0  0  0999 V2000
    6.3831   -1.0012    0.0000 O   0  0  0  0  0  0  0  0  0  0  0  0
    7.3985    1.3830    0.0000 O   0  0  0  0  0  0  0  0  0  0  0  0
    4.4065    2.2146    0.0000 O   0  0  0  0  0  0  0  0  0  0  0  0
    5.1720   -2.3318    0.0000 O   0  0  0  0  0  0  0  0  0  0  0  0
    7.6773    3.1430    0.0000 O   0  0  0  0  0  0  0  0  0  0  0  0
    2.8311    1.4949    0.0000 O   0  0  0  0  0  0  0  0  0  0  0  0
    5.7805    1.3830    0.0000 C   0  0  1  0  0  0  0  0  0  0  0  0
    6.5895    0.7952    0.0000 C   0  0  1  0  0  0  0  0  0  0  0  0
    6.8116   -0.1404    0.0000 C   0  0  2  0  0  0  0  0  0  0  0  0
    4.8221    1.3051    0.0000 C   0  0  2  0  0  0  0  0  0  0  0  0
    5.5028   -1.3880    0.0000 C   0  0  2  0  0  0  0  0  0  0  0  0
    7.1504   -1.0814    0.0000 C   0  0  0  0  0  0  0  0  0  0  0  0
    6.0895    2.3340    0.0000 C   0  0  0  0  0  0  0  0  0  0  0  0
    4.1358    0.6316    0.0000 C   0  0  0  0  0  0  0  0  0  0  0  0
    6.4265   -1.7714    0.0000 C   0  0  0  0  0  0  0  0  0  0  0  0
    4.0399   -0.3252    0.0000 C   0  0  0  0  0  0  0  0  0  0  0  0
    4.5789   -1.1215    0.0000 C   0  0  0  0  0  0  0  0  0  0  0  0
    7.0895    2.3340    0.0000 C   0  0  0  0  0  0  0  0  0  0  0  0
    8.1236   -1.3111    0.0000 C   0  0  0  0  0  0  0  0  0  0  0  0
    5.5017    3.1430    0.0000 C   0  0  0  0  0  0  0  0  0  0  0  0
    3.0704   -0.5703    0.0000 C   0  0  0  0  0  0  0  0  0  0  0  0
    5.8239   -3.0901    0.0000 C   0  0  0  0  0  0  0  0  0  0  0  0
    3.4110    2.3096    0.0000 C   0  0  0  0  0  0  0  0  0  0  0  0
    5.4931   -4.0338    0.0000 C   0  0  0  0  0  0  0  0  0  0  0  0
    2.9955    3.2191    0.0000 C   0  0  0  0  0  0  0  0  0  0  0  0
    2.0000    3.3140    0.0000 C   0  0  0  0  0  0  0  0  0  0  0  0
    3.5754    4.0338    0.0000 C   0  0  0  0  0  0  0  0  0  0  0  0
    5.2534    2.0498    0.0000 H   0  0  0  0  0  0  0  0  0  0  0  0
    7.2772    0.2956    0.0000 H   0  0  0  0  0  0  0  0  0  0  0  0
    5.9671   -0.0434    0.0000 H   0  0  0  0  0  0  0  0  0  0  0  0
    4.2124    1.4180    0.0000 H   0  0  0  0  0  0  0  0  0  0  0  0
    3.8473    1.1803    0.0000 H   0  0  0  0  0  0  0  0  0  0  0  0
    3.5272    0.5132    0.0000 H   0  0  0  0  0  0  0  0  0  0  0  0
    6.5400   -2.3810    0.0000 H   0  0  0  0  0  0  0  0  0  0  0  0
    4.2145   -1.6231    0.0000 H   0  0  0  0  0  0  0  0  0  0  0  0
    7.9812   -1.9145    0.0000 H   0  0  0  0  0  0  0  0  0  0  0  0
    8.7270   -1.4536    0.0000 H   0  0  0  0  0  0  0  0  0  0  0  0
    8.2661   -0.7077    0.0000 H   0  0  0  0  0  0  0  0  0  0  0  0
    5.7539    3.7094    0.0000 H   0  0  0  0  0  0  0  0  0  0  0  0
    4.8851    3.0782    0.0000 H   0  0  0  0  0  0  0  0  0  0  0  0
    2.9185    0.0308    0.0000 H   0  0  0  0  0  0  0  0  0  0  0  0
    2.4693   -0.7222    0.0000 H   0  0  0  0  0  0  0  0  0  0  0  0
    3.2223   -1.1714    0.0000 H   0  0  0  0  0  0  0  0  0  0  0  0
    6.3645   -3.3936    0.0000 H   0  0  0  0  0  0  0  0  0  0  0  0
    6.2167   -2.6104    0.0000 H   0  0  0  0  0  0  0  0  0  0  0  0
    4.9080   -3.8287    0.0000 H   0  0  0  0  0  0  0  0  0  0  0  0
    5.2880   -4.6189    0.0000 H   0  0  0  0  0  0  0  0  0  0  0  0
    6.0782   -4.2389    0.0000 H   0  0  0  0  0  0  0  0  0  0  0  0
    2.0588    3.9312    0.0000 H   0  0  0  0  0  0  0  0  0  0  0  0
    1.3828    3.3729    0.0000 H   0  0  0  0  0  0  0  0  0  0  0  0
    1.9412    2.6968    0.0000 H   0  0  0  0  0  0  0  0  0  0  0  0
    4.1926    3.9750    0.0000 H   0  0  0  0  0  0  0  0  0  0  0  0
    3.3178    4.5977    0.0000 H   0  0  0  0  0  0  0  0  0  0  0  0
  1  9  1  0  0  0  0
  1 11  1  0  0  0  0
  2  8  1  0  0  0  0
  2 18  1  0  0  0  0
 10  3  1  6  0  0  0
  3 23  1  0  0  0  0
 11  4  1  1  0  0  0
  4 22  1  0  0  0  0
  5 18  2  0  0  0  0
  6 23  2  0  0  0  0
  7  8  1  0  0  0  0
  7 10  1  0  0  0  0
  7 13  1  0  0  0  0
  7 28  1  6  0  0  0
  8  9  1  0  0  0  0
  8 29  1  1  0  0  0
  9 12  1  0  0  0  0
  9 30  1  1  0  0  0
 10 14  1  0  0  0  0
 10 31  1  0  0  0  0
 11 15  1  0  0  0  0
 11 17  1  0  0  0  0
 12 15  2  0  0  0  0
 12 19  1  0  0  0  0
 13 18  1  0  0  0  0
 13 20  2  0  0  0  0
 14 16  1  0  0  0  0
 14 32  1  0  0  0  0
 14 33  1  0  0  0  0
 15 34  1  0  0  0  0
 16 17  2  0  0  0  0
 16 21  1  0  0  0  0
 17 35  1  0  0  0  0
 19 36  1  0  0  0  0
 19 37  1  0  0  0  0
 19 38  1  0  0  0  0
 20 39  1  0  0  0  0
 20 40  1  0  0  0  0
 21 41  1  0  0  0  0
 21 42  1  0  0  0  0
 21 43  1  0  0  0  0
 22 24  1  0  0  0  0
 22 44  1  0  0  0  0
 22 45  1  0  0  0  0
 23 25  1  0  0  0  0
 24 46  1  0  0  0  0
 24 47  1  0  0  0  0
 24 48  1  0  0  0  0
 25 26  1  0  0  0  0
 25 27  2  0  0  0  0
 26 49  1  0  0  0  0
 26 50  1  0  0  0  0
 26 51  1  0  0  0  0
 27 52  1  0  0  0  0
 27 53  1  0  0  0  0
M  END
> <PUBCHEM_COMPOUND_CID>
5281493

> <PUBCHEM_COMPOUND_CANONICALIZED>
1

> <PUBCHEM_CACTVS_COMPLEXITY>
761

> <PUBCHEM_CACTVS_HBOND_ACCEPTOR>
6

> <PUBCHEM_CACTVS_HBOND_DONOR>
0

> <PUBCHEM_CACTVS_ROTATABLE_BOND>
5

> <PUBCHEM_CACTVS_SUBSKEYS>
AAADceB4OAAAAAAAAAAAAAAAAAAAASIAAAAAAAAAAAAAAECAAAAAGgAAAAAADRSggAICCAAABACIAiDSCAAAAAAgAAAACAEAAEgRBBIAIQAiEAAFwAAOIIPK7KzOAAAAAAAAAAAAAAAAAAAAAAAAAAAAAA==

> <PUBCHEM_IUPAC_INCHI>
InChI=1S/C21H26O6/c1-7-24-21-9-12(4)8-15(25-19(22)11(2)3)16-14(6)20(23)26-18(16)17(27-21)13(5)10-21/h9-10,15-18H,2,6-8H2,1,3-5H3/b12-9-/t15-,16+,17-,18-,21-/m0/s1

> <PUBCHEM_IUPAC_INCHIKEY>
YNGLXZUKGYZCFL-YUZMFRNZSA-N

> <PUBCHEM_XLOGP3_AA>
2.5

> <PUBCHEM_EXACT_MASS>
374.172939

> <PUBCHEM_MOLECULAR_FORMULA>
C21H26O6

> <PUBCHEM_MOLECULAR_WEIGHT>
374.42754

> <PUBCHEM_OPENEYE_CAN_SMILES>
CCOC12C=C(CC(C3C(C(O1)C(=C2)C)OC(=O)C3=C)OC(=O)C(=C)C)C

> <PUBCHEM_OPENEYE_ISO_SMILES>
CCO[C@@]12/C=C(\C[C@@H]([C@@H]3[C@@H]([C@@H](O1)C(=C2)C)OC(=O)C3=C)OC(=O)C(=C)C)/C

> <PUBCHEM_CACTVS_TPSA>
71.1

> <PUBCHEM_MONOISOTOPIC_WEIGHT>
374.172939

> <PUBCHEM_TOTAL_CHARGE>
0

> <PUBCHEM_HEAVY_ATOM_COUNT>
27

> <PUBCHEM_ATOM_DEF_STEREO_COUNT>
5

> <PUBCHEM_ATOM_UDEF_STEREO_COUNT>
0

> <PUBCHEM_BOND_DEF_STEREO_COUNT>
1

> <PUBCHEM_BOND_UDEF_STEREO_COUNT>
0

> <PUBCHEM_ISOTOPIC_ATOM_COUNT>
0

> <PUBCHEM_COMPONENT_COUNT>
1

> <PUBCHEM_CACTVS_TAUTO_COUNT>
1

> <PUBCHEM_COORDINATE_TYPE>
1
5
255

> <PUBCHEM_BONDANNOTATIONS>
10  3  6
11  4  5
7  28  6
8  29  5
9  30  5

$$$$

