381152
  -OEChem-07051212462D

 25 25  0     0  0  0  0  0  0999 V2000
    2.0000    0.7500    0.0000 O   0  0  0  0  0  0  0  0  0  0  0  0
    4.5981    0.2500    0.0000 C   0  0  0  0  0  0  0  0  0  0  0  0
    4.5981   -0.7500    0.0000 C   0  0  0  0  0  0  0  0  0  0  0  0
    3.7320    0.7500    0.0000 C   0  0  0  0  0  0  0  0  0  0  0  0
    3.7320   -1.2500    0.0000 C   0  0  0  0  0  0  0  0  0  0  0  0
    3.7320    1.7500    0.0000 C   0  0  0  0  0  0  0  0  0  0  0  0
    2.8660    0.2500    0.0000 C   0  0  0  0  0  0  0  0  0  0  0  0
    2.8660   -0.7500    0.0000 C   0  0  0  0  0  0  0  0  0  0  0  0
    3.7320   -2.2500    0.0000 C   0  0  0  0  0  0  0  0  0  0  0  0
    4.5981    2.2500    0.0000 C   0  0  0  0  0  0  0  0  0  0  0  0
    2.8660    2.2500    0.0000 C   0  0  0  0  0  0  0  0  0  0  0  0
    5.2087    0.1423    0.0000 H   0  0  0  0  0  0  0  0  0  0  0  0
    4.8101    0.8326    0.0000 H   0  0  0  0  0  0  0  0  0  0  0  0
    4.8101   -1.3326    0.0000 H   0  0  0  0  0  0  0  0  0  0  0  0
    5.2087   -0.6423    0.0000 H   0  0  0  0  0  0  0  0  0  0  0  0
    2.3291   -1.0600    0.0000 H   0  0  0  0  0  0  0  0  0  0  0  0
    3.1120   -2.2500    0.0000 H   0  0  0  0  0  0  0  0  0  0  0  0
    3.7320   -2.8700    0.0000 H   0  0  0  0  0  0  0  0  0  0  0  0
    4.3520   -2.2500    0.0000 H   0  0  0  0  0  0  0  0  0  0  0  0
    4.9081    1.7131    0.0000 H   0  0  0  0  0  0  0  0  0  0  0  0
    5.1350    2.5600    0.0000 H   0  0  0  0  0  0  0  0  0  0  0  0
    4.2881    2.7869    0.0000 H   0  0  0  0  0  0  0  0  0  0  0  0
    3.1760    2.7869    0.0000 H   0  0  0  0  0  0  0  0  0  0  0  0
    2.3291    2.5600    0.0000 H   0  0  0  0  0  0  0  0  0  0  0  0
    2.5560    1.7131    0.0000 H   0  0  0  0  0  0  0  0  0  0  0  0
  1  7  2  0  0  0  0
  2  3  1  0  0  0  0
  2  4  1  0  0  0  0
  2 12  1  0  0  0  0
  2 13  1  0  0  0  0
  3  5  1  0  0  0  0
  3 14  1  0  0  0  0
  3 15  1  0  0  0  0
  4  6  2  0  0  0  0
  4  7  1  0  0  0  0
  5  8  2  0  0  0  0
  5  9  1  0  0  0  0
  6 10  1  0  0  0  0
  6 11  1  0  0  0  0
  7  8  1  0  0  0  0
  8 16  1  0  0  0  0
  9 17  1  0  0  0  0
  9 18  1  0  0  0  0
  9 19  1  0  0  0  0
 10 20  1  0  0  0  0
 10 21  1  0  0  0  0
 10 22  1  0  0  0  0
 11 23  1  0  0  0  0
 11 24  1  0  0  0  0
 11 25  1  0  0  0  0
M  END
> <PUBCHEM_COMPOUND_CID>
381152

> <PUBCHEM_COMPOUND_CANONICALIZED>
1

> <PUBCHEM_CACTVS_COMPLEXITY>
240

> <PUBCHEM_CACTVS_HBOND_ACCEPTOR>
1

> <PUBCHEM_CACTVS_HBOND_DONOR>
0

> <PUBCHEM_CACTVS_ROTATABLE_BOND>
0

> <PUBCHEM_CACTVS_SUBSKEYS>
AAADccBwIAAAAAAAAAAAAAAAAAAAAAAAAAAgAAAAAAAAAAAAAAAAGgAAAAAADASAgAACAAAAAACIAqBSAAAAAAAgAAAACAEAAEgAABIAAQAAAAAAgAAIAQMIiAAAAAAAAAAAAAAAAAAAAAAAAAAAAAAAAA==

> <PUBCHEM_IUPAC_OPENEYE_NAME>
6-isopropylidene-3-methyl-cyclohex-2-en-1-one

> <PUBCHEM_IUPAC_CAS_NAME>
3-methyl-6-propan-2-ylidene-1-cyclohex-2-enone

> <PUBCHEM_IUPAC_NAME>
3-methyl-6-propan-2-ylidenecyclohex-2-en-1-one

> <PUBCHEM_IUPAC_SYSTEMATIC_NAME>
3-methyl-6-propan-2-ylidene-cyclohex-2-en-1-one

> <PUBCHEM_IUPAC_TRADITIONAL_NAME>
6-isopropylidene-3-methyl-cyclohex-2-en-1-one

> <PUBCHEM_IUPAC_INCHI>
InChI=1S/C10H14O/c1-7(2)9-5-4-8(3)6-10(9)11/h6H,4-5H2,1-3H3

> <PUBCHEM_IUPAC_INCHIKEY>
HKZQJZIFODOLFR-UHFFFAOYSA-N

> <PUBCHEM_XLOGP3_AA>
2.2

> <PUBCHEM_EXACT_MASS>
150.104465

> <PUBCHEM_MOLECULAR_FORMULA>
C10H14O

> <PUBCHEM_MOLECULAR_WEIGHT>
150.21756

> <PUBCHEM_OPENEYE_CAN_SMILES>
CC1=CC(=O)C(=C(C)C)CC1

> <PUBCHEM_OPENEYE_ISO_SMILES>
CC1=CC(=O)C(=C(C)C)CC1

> <PUBCHEM_CACTVS_TPSA>
17.1

> <PUBCHEM_MONOISOTOPIC_WEIGHT>
150.104465

> <PUBCHEM_TOTAL_CHARGE>
0

> <PUBCHEM_HEAVY_ATOM_COUNT>
11

> <PUBCHEM_ATOM_DEF_STEREO_COUNT>
0

> <PUBCHEM_ATOM_UDEF_STEREO_COUNT>
0

> <PUBCHEM_BOND_DEF_STEREO_COUNT>
0

> <PUBCHEM_BOND_UDEF_STEREO_COUNT>
0

> <PUBCHEM_ISOTOPIC_ATOM_COUNT>
0

> <PUBCHEM_COMPONENT_COUNT>
1

> <PUBCHEM_CACTVS_TAUTO_COUNT>
13

> <PUBCHEM_COORDINATE_TYPE>
1
5
255

$$$$

