439271
  -OEChem-07051212442D

 51 52  0     1  0  0  0  0  0999 V2000
    4.2690   -0.0950    0.0000 O   0  0  0  0  0  0  0  0  0  0  0  0
    6.8671    0.4050    0.0000 O   0  0  0  0  0  0  0  0  0  0  0  0
    5.1350   -1.5950    0.0000 O   0  0  0  0  0  0  0  0  0  0  0  0
    4.2690    1.9050    0.0000 O   0  0  0  0  0  0  0  0  0  0  0  0
    2.5369   -1.0950    0.0000 O   0  0  0  0  0  0  0  0  0  0  0  0
    2.5369   -3.0950    0.0000 O   0  0  0  0  0  0  0  0  0  0  0  0
    4.2690   -4.0950    0.0000 O   0  0  0  0  0  0  0  0  0  0  0  0
    7.7331    1.9050    0.0000 O   0  0  0  0  0  0  0  0  0  0  0  0
    6.8671   -1.5950    0.0000 O   0  0  0  0  0  0  0  0  0  0  0  0
    6.0010   -4.0950    0.0000 O   0  0  0  0  0  0  0  0  0  0  0  0
    7.7331    2.9050    0.0000 O   0  0  0  0  0  0  0  0  0  0  0  0
    6.0010    2.9050    0.0000 N   0  0  0  0  0  0  0  0  0  0  0  0
    5.1350    0.4050    0.0000 C   0  0  1  0  0  0  0  0  0  0  0  0
    5.1350    1.4050    0.0000 C   0  0  1  0  0  0  0  0  0  0  0  0
    6.0010    1.9050    0.0000 C   0  0  2  0  0  0  0  0  0  0  0  0
    6.0010   -0.0950    0.0000 C   0  0  1  0  0  0  0  0  0  0  0  0
    4.2690   -1.0950    0.0000 C   0  0  2  0  0  0  0  0  0  0  0  0
    3.4030   -1.5950    0.0000 C   0  0  1  0  0  0  0  0  0  0  0  0
    3.4030   -2.5950    0.0000 C   0  0  2  0  0  0  0  0  0  0  0  0
    4.2690   -3.0950    0.0000 C   0  0  2  0  0  0  0  0  0  0  0  0
    6.8671    1.4050    0.0000 C   0  0  1  0  0  0  0  0  0  0  0  0
    5.1350   -2.5950    0.0000 C   0  0  1  0  0  0  0  0  0  0  0  0
    6.0010   -1.0950    0.0000 C   0  0  0  0  0  0  0  0  0  0  0  0
    6.0010   -3.0950    0.0000 C   0  0  0  0  0  0  0  0  0  0  0  0
    6.8671    3.4050    0.0000 C   0  0  0  0  0  0  0  0  0  0  0  0
    6.8671    4.4050    0.0000 C   0  0  0  0  0  0  0  0  0  0  0  0
    5.1350   -0.2150    0.0000 H   0  0  0  0  0  0  0  0  0  0  0  0
    5.1350    2.0250    0.0000 H   0  0  0  0  0  0  0  0  0  0  0  0
    6.5380    2.2150    0.0000 H   0  0  0  0  0  0  0  0  0  0  0  0
    6.5380   -0.4050    0.0000 H   0  0  0  0  0  0  0  0  0  0  0  0
    3.7320   -0.7850    0.0000 H   0  0  0  0  0  0  0  0  0  0  0  0
    3.4030   -0.9750    0.0000 H   0  0  0  0  0  0  0  0  0  0  0  0
    3.4030   -3.2150    0.0000 H   0  0  0  0  0  0  0  0  0  0  0  0
    4.8059   -3.4050    0.0000 H   0  0  0  0  0  0  0  0  0  0  0  0
    6.8671    2.0250    0.0000 H   0  0  0  0  0  0  0  0  0  0  0  0
    5.6720   -2.2850    0.0000 H   0  0  0  0  0  0  0  0  0  0  0  0
    5.3905   -0.9873    0.0000 H   0  0  0  0  0  0  0  0  0  0  0  0
    5.7890   -1.6776    0.0000 H   0  0  0  0  0  0  0  0  0  0  0  0
    5.4641    3.2150    0.0000 H   0  0  0  0  0  0  0  0  0  0  0  0
    6.6116   -3.2027    0.0000 H   0  0  0  0  0  0  0  0  0  0  0  0
    6.2131   -2.5124    0.0000 H   0  0  0  0  0  0  0  0  0  0  0  0
    3.7320    1.5950    0.0000 H   0  0  0  0  0  0  0  0  0  0  0  0
    2.0000   -1.4050    0.0000 H   0  0  0  0  0  0  0  0  0  0  0  0
    2.5369   -3.7150    0.0000 H   0  0  0  0  0  0  0  0  0  0  0  0
    3.7320   -4.4050    0.0000 H   0  0  0  0  0  0  0  0  0  0  0  0
    8.2700    1.5950    0.0000 H   0  0  0  0  0  0  0  0  0  0  0  0
    7.4040   -1.2850    0.0000 H   0  0  0  0  0  0  0  0  0  0  0  0
    6.5380   -4.4050    0.0000 H   0  0  0  0  0  0  0  0  0  0  0  0
    7.4871    4.4050    0.0000 H   0  0  0  0  0  0  0  0  0  0  0  0
    6.8671    5.0250    0.0000 H   0  0  0  0  0  0  0  0  0  0  0  0
    6.2471    4.4050    0.0000 H   0  0  0  0  0  0  0  0  0  0  0  0
 13  1  1  1  0  0  0
 17  1  1  6  0  0  0
  2 16  1  0  0  0  0
  2 21  1  0  0  0  0
  3 17  1  0  0  0  0
  3 22  1  0  0  0  0
 14  4  1  6  0  0  0
  4 42  1  0  0  0  0
 18  5  1  1  0  0  0
  5 43  1  0  0  0  0
 19  6  1  6  0  0  0
  6 44  1  0  0  0  0
 20  7  1  6  0  0  0
  7 45  1  0  0  0  0
 21  8  1  6  0  0  0
  8 46  1  0  0  0  0
  9 23  1  0  0  0  0
  9 47  1  0  0  0  0
 10 24  1  0  0  0  0
 10 48  1  0  0  0  0
 11 25  2  0  0  0  0
 15 12  1  1  0  0  0
 12 25  1  0  0  0  0
 12 39  1  0  0  0  0
 13 14  1  0  0  0  0
 13 16  1  0  0  0  0
 13 27  1  0  0  0  0
 14 15  1  0  0  0  0
 14 28  1  0  0  0  0
 15 21  1  0  0  0  0
 15 29  1  0  0  0  0
 16 23  1  6  0  0  0
 16 30  1  0  0  0  0
 17 18  1  0  0  0  0
 17 31  1  0  0  0  0
 18 19  1  0  0  0  0
 18 32  1  0  0  0  0
 19 20  1  0  0  0  0
 19 33  1  0  0  0  0
 20 22  1  0  0  0  0
 20 34  1  0  0  0  0
 21 35  1  0  0  0  0
 22 24  1  6  0  0  0
 22 36  1  0  0  0  0
 23 37  1  0  0  0  0
 23 38  1  0  0  0  0
 24 40  1  0  0  0  0
 24 41  1  0  0  0  0
 25 26  1  0  0  0  0
 26 49  1  0  0  0  0
 26 50  1  0  0  0  0
 26 51  1  0  0  0  0
M  END
> <PUBCHEM_COMPOUND_CID>
439271

> <PUBCHEM_COMPOUND_CANONICALIZED>
1

> <PUBCHEM_CACTVS_COMPLEXITY>
480

> <PUBCHEM_CACTVS_HBOND_ACCEPTOR>
11

> <PUBCHEM_CACTVS_HBOND_DONOR>
8

> <PUBCHEM_CACTVS_ROTATABLE_BOND>
5

> <PUBCHEM_CACTVS_SUBSKEYS>
AAADceByPAAAAAAAAAAAAAAAAAAAAAAAAAAkSAAAAAAAAAAAAAAAHgAQCAAACDzxgAcCCALABgAIAAEQEAAAAAAAAAAAAIAIAAATEAIAgAAnQAAHFgCXAAHwcA8AAAAAAAAAAAAAAAAAAAAAAAAAAAAAAA==

> <PUBCHEM_IUPAC_OPENEYE_NAME>
N-[(2R,3R,4R,5S,6R)-2,4-dihydroxy-6-(hydroxymethyl)-5-[(2S,3R,4S,5R,6R)-3,4,5-trihydroxy-6-(hydroxymethyl)tetrahydropyran-2-yl]oxy-tetrahydropyran-3-yl]acetamide

> <PUBCHEM_IUPAC_CAS_NAME>
N-[(2R,3R,4R,5S,6R)-2,4-dihydroxy-6-(hydroxymethyl)-5-[[(2S,3R,4S,5R,6R)-3,4,5-trihydroxy-6-(hydroxymethyl)-2-oxanyl]oxy]-3-oxanyl]acetamide

> <PUBCHEM_IUPAC_NAME>
N-[(2R,3R,4R,5S,6R)-2,4-dihydroxy-6-(hydroxymethyl)-5-[(2S,3R,4S,5R,6R)-3,4,5-trihydroxy-6-(hydroxymethyl)oxan-2-yl]oxyoxan-3-yl]acetamide

> <PUBCHEM_IUPAC_SYSTEMATIC_NAME>
N-[(2R,3R,4R,5S,6R)-6-(hydroxymethyl)-5-[(2S,3R,4S,5R,6R)-6-(hydroxymethyl)-3,4,5-tris(oxidanyl)oxan-2-yl]oxy-2,4-bis(oxidanyl)oxan-3-yl]ethanamide

> <PUBCHEM_IUPAC_TRADITIONAL_NAME>
N-[(2R,3R,4R,5S,6R)-2,4-dihydroxy-6-methylol-5-[(2S,3R,4S,5R,6R)-3,4,5-trihydroxy-6-methylol-tetrahydropyran-2-yl]oxy-tetrahydropyran-3-yl]acetamide

> <PUBCHEM_IUPAC_INCHI>
InChI=1S/C14H25NO11/c1-4(18)15-7-9(20)12(6(3-17)24-13(7)23)26-14-11(22)10(21)8(19)5(2-16)25-14/h5-14,16-17,19-23H,2-3H2,1H3,(H,15,18)/t5-,6-,7-,8+,9-,10+,11-,12-,13-,14+/m1/s1

> <PUBCHEM_IUPAC_INCHIKEY>
KFEUJDWYNGMDBV-LODBTCKLSA-N

> <PUBCHEM_XLOGP3_AA>
-4.7

> <PUBCHEM_EXACT_MASS>
383.142761

> <PUBCHEM_MOLECULAR_FORMULA>
C14H25NO11

> <PUBCHEM_MOLECULAR_WEIGHT>
383.3484

> <PUBCHEM_OPENEYE_CAN_SMILES>
CC(=O)NC1C(C(C(OC1O)CO)OC2C(C(C(C(O2)CO)O)O)O)O

> <PUBCHEM_OPENEYE_ISO_SMILES>
CC(=O)N[C@@H]1[C@H]([C@@H]([C@H](O[C@H]1O)CO)O[C@H]2[C@@H]([C@H]([C@H]([C@H](O2)CO)O)O)O)O

> <PUBCHEM_CACTVS_TPSA>
198

> <PUBCHEM_MONOISOTOPIC_WEIGHT>
383.142761

> <PUBCHEM_TOTAL_CHARGE>
0

> <PUBCHEM_HEAVY_ATOM_COUNT>
26

> <PUBCHEM_ATOM_DEF_STEREO_COUNT>
10

> <PUBCHEM_ATOM_UDEF_STEREO_COUNT>
0

> <PUBCHEM_BOND_DEF_STEREO_COUNT>
0

> <PUBCHEM_BOND_UDEF_STEREO_COUNT>
0

> <PUBCHEM_ISOTOPIC_ATOM_COUNT>
0

> <PUBCHEM_COMPONENT_COUNT>
1

> <PUBCHEM_CACTVS_TAUTO_COUNT>
2

> <PUBCHEM_COORDINATE_TYPE>
1
5
255

> <PUBCHEM_BONDANNOTATIONS>
13  1  5
17  1  6
15  12  5
16  23  6
22  24  6
14  4  6
18  5  5
19  6  6
20  7  6
21  8  6

$$$$

