23628523
  -OEChem-07051213123D

 67 69  0     1  0  0  0  0  0999 V2000
   -3.1105    2.2268   -0.2268 P   0  0  1  0  0  0  0  0  0  0  0  0
   -4.2171   -0.4588   -0.6955 P   0  0  2  0  0  0  0  0  0  0  0  0
    0.0240    3.3104   -0.5791 O   0  0  0  0  0  0  0  0  0  0  0  0
   -0.5072   -3.6160    0.1388 O   0  0  0  0  0  0  0  0  0  0  0  0
    2.4129    4.1382    0.7928 O   0  0  0  0  0  0  0  0  0  0  0  0
   -1.8433    2.6600    0.6752 O   0  0  0  0  0  0  0  0  0  0  0  0
   -1.5262   -3.1876    2.9937 O   0  0  0  0  0  0  0  0  0  0  0  0
   -3.6853   -1.8589   -0.0837 O   0  0  0  0  0  0  0  0  0  0  0  0
   -3.1428    0.6128   -0.1389 O   0  0  0  0  0  0  0  0  0  0  0  0
   -4.4001    2.6713    0.6430 O   0  0  0  0  0  0  0  0  0  0  0  0
   -3.0923    2.7666   -1.6275 O   0  0  0  0  0  0  0  0  0  0  0  0
    3.3071   -2.5821    1.3203 O   0  0  0  0  0  0  0  0  0  0  0  0
   -5.5410   -0.1321    0.1747 O   0  0  0  0  0  0  0  0  0  0  0  0
   -4.4137   -0.4311   -2.1831 O   0  0  0  0  0  0  0  0  0  0  0  0
    4.0488   -0.9984   -2.9330 O   0  0  0  0  0  0  0  0  0  0  0  0
    2.6093    1.7468    2.3390 N   0  0  0  0  0  0  0  0  0  0  0  0
    1.4765   -2.4020   -0.1173 N   0  0  0  0  0  0  0  0  0  0  0  0
    3.6627   -1.7931   -0.8037 N   0  0  0  0  0  0  0  0  0  0  0  0
    1.7743    1.8179    1.1421 C   0  0  2  0  0  0  0  0  0  0  0  0
    2.3069    2.8653    0.1527 C   0  0  1  0  0  0  0  0  0  0  0  0
    0.3263    2.1333    1.5229 C   0  0  0  0  0  0  0  0  0  0  0  0
    1.3444    2.9915   -1.0388 C   0  0  2  0  0  0  0  0  0  0  0  0
   -0.5273    2.3001    0.2658 C   0  0  2  0  0  0  0  0  0  0  0  0
   -1.5429   -2.3396    1.8474 C   0  0  2  0  0  0  0  0  0  0  0  0
   -1.7979   -3.1666    0.5951 C   0  0  1  0  0  0  0  0  0  0  0  0
   -0.1607   -1.7766    1.6102 C   0  0  0  0  0  0  0  0  0  0  0  0
    0.5189   -2.8908    0.8310 C   0  0  1  0  0  0  0  0  0  0  0  0
    1.7642    4.0870   -2.0122 C   0  0  0  0  0  0  0  0  0  0  0  0
   -2.4367   -2.3600   -0.5280 C   0  0  0  0  0  0  0  0  0  0  0  0
    2.0913    0.7399    3.2647 C   0  0  0  0  0  0  0  0  0  0  0  0
    3.9944    1.4455    1.9790 C   0  0  0  0  0  0  0  0  0  0  0  0
    1.0312   -2.0438   -1.3833 C   0  0  0  0  0  0  0  0  0  0  0  0
    2.8422   -2.2836    0.2183 C   0  0  0  0  0  0  0  0  0  0  0  0
    1.8190   -1.5749   -2.3589 C   0  0  0  0  0  0  0  0  0  0  0  0
    3.2719   -1.4222   -2.0814 C   0  0  0  0  0  0  0  0  0  0  0  0
    1.3187   -1.1951   -3.7155 C   0  0  0  0  0  0  0  0  0  0  0  0
    1.7803    0.8444    0.6295 H   0  0  0  0  0  0  0  0  0  0  0  0
    3.2947    2.6008   -0.2377 H   0  0  0  0  0  0  0  0  0  0  0  0
    0.2713    3.0476    2.1287 H   0  0  0  0  0  0  0  0  0  0  0  0
   -0.1399    1.3417    2.1187 H   0  0  0  0  0  0  0  0  0  0  0  0
    1.3020    2.0407   -1.5862 H   0  0  0  0  0  0  0  0  0  0  0  0
   -0.5736    1.3556   -0.2903 H   0  0  0  0  0  0  0  0  0  0  0  0
   -2.2839   -1.5573    2.0343 H   0  0  0  0  0  0  0  0  0  0  0  0
   -2.4116   -4.0470    0.8161 H   0  0  0  0  0  0  0  0  0  0  0  0
    0.3694   -1.5575    2.5386 H   0  0  0  0  0  0  0  0  0  0  0  0
   -0.2280   -0.8607    1.0144 H   0  0  0  0  0  0  0  0  0  0  0  0
    1.0043   -3.5915    1.5207 H   0  0  0  0  0  0  0  0  0  0  0  0
    1.7177    5.0782   -1.5484 H   0  0  0  0  0  0  0  0  0  0  0  0
    2.7777    3.9179   -2.3877 H   0  0  0  0  0  0  0  0  0  0  0  0
    1.0781    4.1143   -2.8660 H   0  0  0  0  0  0  0  0  0  0  0  0
   -2.5930   -2.9841   -1.4141 H   0  0  0  0  0  0  0  0  0  0  0  0
   -1.8058   -1.5200   -0.8274 H   0  0  0  0  0  0  0  0  0  0  0  0
    1.5158    4.4717    0.9613 H   0  0  0  0  0  0  0  0  0  0  0  0
    1.1224    1.0066    3.6948 H   0  0  0  0  0  0  0  0  0  0  0  0
    2.0410   -0.2489    2.8029 H   0  0  0  0  0  0  0  0  0  0  0  0
    2.7590    0.6550    4.1313 H   0  0  0  0  0  0  0  0  0  0  0  0
    4.0793    0.5616    1.3365 H   0  0  0  0  0  0  0  0  0  0  0  0
    4.4863    2.2935    1.4930 H   0  0  0  0  0  0  0  0  0  0  0  0
    4.5911    1.2570    2.8799 H   0  0  0  0  0  0  0  0  0  0  0  0
   -2.4185   -3.5614    3.0914 H   0  0  0  0  0  0  0  0  0  0  0  0
   -0.0180   -2.1640   -1.5985 H   0  0  0  0  0  0  0  0  0  0  0  0
    4.6504   -1.6984   -0.5845 H   0  0  0  0  0  0  0  0  0  0  0  0
    1.5245   -0.1385   -3.9159 H   0  0  0  0  0  0  0  0  0  0  0  0
    0.2383   -1.3467   -3.8115 H   0  0  0  0  0  0  0  0  0  0  0  0
    1.8090   -1.7979   -4.4868 H   0  0  0  0  0  0  0  0  0  0  0  0
   -4.6849    3.6097    0.6232 H   0  0  0  0  0  0  0  0  0  0  0  0
   -6.3747   -0.6047   -0.0344 H   0  0  0  0  0  0  0  0  0  0  0  0
  1  6  1  0  0  0  0
  1  9  1  0  0  0  0
  1 10  1  0  0  0  0
  1 11  2  0  0  0  0
  2  8  1  0  0  0  0
  2  9  1  0  0  0  0
  2 13  1  0  0  0  0
  2 14  2  0  0  0  0
  3 22  1  0  0  0  0
  3 23  1  0  0  0  0
  4 25  1  0  0  0  0
  4 27  1  0  0  0  0
  5 20  1  0  0  0  0
  5 53  1  0  0  0  0
  6 23  1  0  0  0  0
  7 24  1  0  0  0  0
  7 60  1  0  0  0  0
  8 29  1  0  0  0  0
 10 66  1  0  0  0  0
 12 33  2  0  0  0  0
 13 67  1  0  0  0  0
 15 35  2  0  0  0  0
 16 19  1  0  0  0  0
 16 30  1  0  0  0  0
 16 31  1  0  0  0  0
 17 27  1  0  0  0  0
 17 32  1  0  0  0  0
 17 33  1  0  0  0  0
 18 33  1  0  0  0  0
 18 35  1  0  0  0  0
 18 62  1  0  0  0  0
 19 20  1  0  0  0  0
 19 21  1  0  0  0  0
 19 37  1  0  0  0  0
 20 22  1  0  0  0  0
 20 38  1  0  0  0  0
 21 23  1  0  0  0  0
 21 39  1  0  0  0  0
 21 40  1  0  0  0  0
 22 28  1  0  0  0  0
 22 41  1  0  0  0  0
 23 42  1  0  0  0  0
 24 25  1  0  0  0  0
 24 26  1  0  0  0  0
 24 43  1  0  0  0  0
 25 29  1  0  0  0  0
 25 44  1  0  0  0  0
 26 27  1  0  0  0  0
 26 45  1  0  0  0  0
 26 46  1  0  0  0  0
 27 47  1  0  0  0  0
 28 48  1  0  0  0  0
 28 49  1  0  0  0  0
 28 50  1  0  0  0  0
 29 51  1  0  0  0  0
 29 52  1  0  0  0  0
 30 54  1  0  0  0  0
 30 55  1  0  0  0  0
 30 56  1  0  0  0  0
 31 57  1  0  0  0  0
 31 58  1  0  0  0  0
 31 59  1  0  0  0  0
 32 34  2  0  0  0  0
 32 61  1  0  0  0  0
 34 35  1  0  0  0  0
 34 36  1  0  0  0  0
 36 63  1  0  0  0  0
 36 64  1  0  0  0  0
 36 65  1  0  0  0  0
M  END
> <PUBCHEM_COMPOUND_CID>
23628523

> <PUBCHEM_CONFORMER_RMSD>
1.4

> <PUBCHEM_CONFORMER_DIVERSEORDER>
1
330
176
41
89
15
2
394
195
134
166
271
164
372
193
359
32
273
310
326
414
287
87
157
408
334
345
148
208
295
69
232
380
304
146
332
175
34
411
364
263
371
219
130
227
161
144
50
113
423
401
198
344
68
170
306
343
376
325
40
407
155
43
382
230
119
296
351
398
277
126
185
64
237
253
215
276
386
248
234
368
192
38
191
118
12
383
331
257
88
305
346
264
14
213
339
174
17
49
110
327
338
279
403
194
124
278
353
250
199
323
162
54
402
322
312
96
139
405
317
238
63
388
98
389
6
45
302
211
267
255
369
172
137
311
224
202
308
229
82
171
47
5
158
410
33
76
265
240
189
57
206
115
27
307
116
153
143
362
121
180
168
286
348
412
125
99
187
385
138
247
160
396
314
365
44
337
159
100
108
378
203
350
81
400
79
91
184
111
291
183
274
301
370
246
336
3
25
225
75
268
390
354
280
147
416
78
399
20
228
249
21
245
377
357
154
418
31
59
196
209
256
90
315
74
200
284
281
303
105
328
56
36
342
318
226
375
11
129
270
62
297
83
392
349
409
85
340
260
23
413
201
259
26
282
30
313
151
235
319
84
67
152
207
217
72
244
145
269
19
379
335
7
419
4
422
109
381
258
106
94
39
46
114
204
136
395
173
272
123
415
283
22
80
163
421
218
71
290
18
135
406
355
333
16
61
261
417
424
131
48
197
266
169
404
107
320
288
236
241
360
239
367
387
188
52
254
8
165
220
97
181
289
252
37
205
103
28
243
66
141
102
292
93
361
112
53
373
231
179
55
156
358
104
73
149
294
233
29
242
366
293
122
95
251
120
341
133
60
150
35
190
363
101
420
393
127
324
210
117
329
13
177
216
65
140
347
24
221
298
356
300
70
128
167
142
397
223
77
316
58
51
352
222
182
186
42
9
321
262
178
384
10
285
309
391
299
92
132
275
212
214
374
86

> <PUBCHEM_MMFF94_PARTIAL_CHARGES>
39
1 1.51
10 -0.77
11 -0.7
12 -0.57
13 -0.77
14 -0.7
15 -0.57
16 -0.81
17 -0.47
18 -0.49
19 0.27
2 1.51
20 0.28
22 0.28
23 0.56
24 0.28
25 0.28
27 0.58
29 0.28
3 -0.56
30 0.27
31 0.27
32 -0.04
33 0.69
34 -0.12
35 0.62
36 0.14
4 -0.56
5 -0.68
53 0.4
6 -0.55
60 0.4
61 0.15
62 0.37
66 0.5
67 0.5
7 -0.68
8 -0.55
9 -0.54

> <PUBCHEM_EFFECTIVE_ROTOR_COUNT>
11.2

> <PUBCHEM_PHARMACOPHORE_FEATURES>
17
1 10 acceptor
1 11 acceptor
1 12 acceptor
1 13 acceptor
1 14 acceptor
1 15 acceptor
1 16 cation
1 18 donor
1 3 acceptor
1 4 acceptor
1 5 acceptor
1 5 donor
1 7 acceptor
1 7 donor
5 4 24 25 26 27 rings
6 17 18 32 33 34 35 rings
6 3 19 20 21 22 23 rings

> <PUBCHEM_HEAVY_ATOM_COUNT>
36

> <PUBCHEM_ATOM_DEF_STEREO_COUNT>
7

> <PUBCHEM_ATOM_UDEF_STEREO_COUNT>
0

> <PUBCHEM_BOND_DEF_STEREO_COUNT>
0

> <PUBCHEM_BOND_UDEF_STEREO_COUNT>
0

> <PUBCHEM_ISOTOPIC_ATOM_COUNT>
0

> <PUBCHEM_COMPONENT_COUNT>
1

> <PUBCHEM_CACTVS_TAUTO_COUNT>
3

> <PUBCHEM_CONFORMER_ID>
01688AEB00000001

> <PUBCHEM_MMFF94_ENERGY>
46.8315

> <PUBCHEM_FEATURE_SELFOVERLAP>
86.29

> <PUBCHEM_SHAPE_FINGERPRINT>
10032420 55 18051131690244794700
11513181 2 17895774931576633190
12156800 1 18129934586424210100
12422481 6 17826550809690728266
133893 2 17899955180607705234
14279260 333 16834884492453380972
17921350 177 17259339969022003196
19319366 153 17625807641895472603
20600515 1 17754739660317107093
20691752 17 18200040675586467633
20764821 26 18269562791526189817
21860390 5 18263660488755021646
238918 7 17970363533131326698
3052486 1 18198914788691062666
35225 105 17620780300485485773
46194498 28 17386020476669199823
463206 1 17764028368960921417

> <PUBCHEM_SHAPE_MULTIPOLES>
657.32
7.53
6
3.15
6.56
2.23
0.68
1.21
1.13
-1.22
-0.03
-2.69
-1.08
2.08

> <PUBCHEM_SHAPE_SELFOVERLAP>
1329.152

> <PUBCHEM_SHAPE_VOLUME>
386.9

> <PUBCHEM_COORDINATE_TYPE>
2
5
10

$$$$

