13104
  -OEChem-06261207462D

 63 64  0     1  0  0  0  0  0999 V2000
    5.5388   -0.0635    0.0000 N   0  0  3  0  0  0  0  0  0  0  0  0
    4.0000   -0.5635    0.0000 C   0  0  0  0  0  0  0  0  0  0  0  0
    4.5878   -1.3725    0.0000 C   0  0  0  0  0  0  0  0  0  0  0  0
    4.5878    0.2455    0.0000 C   0  0  0  0  0  0  0  0  0  0  0  0
    3.5000   -1.4295    0.0000 C   0  0  0  0  0  0  0  0  0  0  0  0
    3.5000    0.3025    0.0000 C   0  0  0  0  0  0  0  0  0  0  0  0
    5.5388   -1.0635    0.0000 C   0  0  0  0  0  0  0  0  0  0  0  0
    2.5000    0.3025    0.0000 C   0  0  0  0  0  0  0  0  0  0  0  0
    2.5000   -1.4295    0.0000 C   0  0  0  0  0  0  0  0  0  0  0  0
    2.0000   -0.5635    0.0000 C   0  0  0  0  0  0  0  0  0  0  0  0
    6.3479    0.5243    0.0000 C   0  0  0  0  0  0  0  0  0  0  0  0
    7.2614    0.1175    0.0000 C   0  0  0  0  0  0  0  0  0  0  0  0
    8.0704    0.7053    0.0000 C   0  0  0  0  0  0  0  0  0  0  0  0
    8.9840    0.2986    0.0000 C   0  0  0  0  0  0  0  0  0  0  0  0
    9.7930    0.8864    0.0000 C   0  0  0  0  0  0  0  0  0  0  0  0
   10.7065    0.4796    0.0000 C   0  0  0  0  0  0  0  0  0  0  0  0
   11.5155    1.0674    0.0000 C   0  0  0  0  0  0  0  0  0  0  0  0
   12.4291    0.6607    0.0000 C   0  0  0  0  0  0  0  0  0  0  0  0
   13.2381    1.2485    0.0000 C   0  0  0  0  0  0  0  0  0  0  0  0
   14.1517    0.8417    0.0000 C   0  0  0  0  0  0  0  0  0  0  0  0
   14.9607    1.4295    0.0000 C   0  0  0  0  0  0  0  0  0  0  0  0
   15.8742    1.0228    0.0000 C   0  0  0  0  0  0  0  0  0  0  0  0
    4.0508   -1.6825    0.0000 H   0  0  0  0  0  0  0  0  0  0  0  0
    4.8400   -1.9389    0.0000 H   0  0  0  0  0  0  0  0  0  0  0  0
    4.8400    0.8119    0.0000 H   0  0  0  0  0  0  0  0  0  0  0  0
    4.0508    0.5555    0.0000 H   0  0  0  0  0  0  0  0  0  0  0  0
    3.3923   -2.0401    0.0000 H   0  0  0  0  0  0  0  0  0  0  0  0
    4.0826   -1.6416    0.0000 H   0  0  0  0  0  0  0  0  0  0  0  0
    4.0826    0.5146    0.0000 H   0  0  0  0  0  0  0  0  0  0  0  0
    3.3923    0.9131    0.0000 H   0  0  0  0  0  0  0  0  0  0  0  0
    5.6678   -1.6700    0.0000 H   0  0  0  0  0  0  0  0  0  0  0  0
    6.1554   -0.9987    0.0000 H   0  0  0  0  0  0  0  0  0  0  0  0
    1.9174   -1.6416    0.0000 H   0  0  0  0  0  0  0  0  0  0  0  0
    2.6077   -2.0401    0.0000 H   0  0  0  0  0  0  0  0  0  0  0  0
    2.6077    0.9131    0.0000 H   0  0  0  0  0  0  0  0  0  0  0  0
    1.9174    0.5146    0.0000 H   0  0  0  0  0  0  0  0  0  0  0  0
    1.5250   -0.1650    0.0000 H   0  0  0  0  0  0  0  0  0  0  0  0
    1.5250   -0.9620    0.0000 H   0  0  0  0  0  0  0  0  0  0  0  0
    6.6946    1.0383    0.0000 H   0  0  0  0  0  0  0  0  0  0  0  0
    5.9019    0.9550    0.0000 H   0  0  0  0  0  0  0  0  0  0  0  0
    6.9147   -0.3965    0.0000 H   0  0  0  0  0  0  0  0  0  0  0  0
    7.7074   -0.3131    0.0000 H   0  0  0  0  0  0  0  0  0  0  0  0
    8.4171    1.2193    0.0000 H   0  0  0  0  0  0  0  0  0  0  0  0
    7.6244    1.1360    0.0000 H   0  0  0  0  0  0  0  0  0  0  0  0
    8.6373   -0.2154    0.0000 H   0  0  0  0  0  0  0  0  0  0  0  0
    9.4300   -0.1321    0.0000 H   0  0  0  0  0  0  0  0  0  0  0  0
   10.1397    1.4004    0.0000 H   0  0  0  0  0  0  0  0  0  0  0  0
    9.3470    1.3171    0.0000 H   0  0  0  0  0  0  0  0  0  0  0  0
   10.3598   -0.0344    0.0000 H   0  0  0  0  0  0  0  0  0  0  0  0
   11.1525    0.0490    0.0000 H   0  0  0  0  0  0  0  0  0  0  0  0
   11.8622    1.5814    0.0000 H   0  0  0  0  0  0  0  0  0  0  0  0
   11.0696    1.4981    0.0000 H   0  0  0  0  0  0  0  0  0  0  0  0
   12.0824    0.1467    0.0000 H   0  0  0  0  0  0  0  0  0  0  0  0
   12.8751    0.2300    0.0000 H   0  0  0  0  0  0  0  0  0  0  0  0
   13.5848    1.7625    0.0000 H   0  0  0  0  0  0  0  0  0  0  0  0
   12.7921    1.6792    0.0000 H   0  0  0  0  0  0  0  0  0  0  0  0
   13.8050    0.3277    0.0000 H   0  0  0  0  0  0  0  0  0  0  0  0
   14.5976    0.4111    0.0000 H   0  0  0  0  0  0  0  0  0  0  0  0
   15.3074    1.9435    0.0000 H   0  0  0  0  0  0  0  0  0  0  0  0
   14.5147    1.8602    0.0000 H   0  0  0  0  0  0  0  0  0  0  0  0
   15.6220    0.4564    0.0000 H   0  0  0  0  0  0  0  0  0  0  0  0
   16.4406    0.7706    0.0000 H   0  0  0  0  0  0  0  0  0  0  0  0
   16.1264    1.5892    0.0000 H   0  0  0  0  0  0  0  0  0  0  0  0
  1  4  1  0  0  0  0
  1  7  1  0  0  0  0
  1 11  1  0  0  0  0
  2  3  1  0  0  0  0
  2  4  1  0  0  0  0
  2  5  1  0  0  0  0
  2  6  1  0  0  0  0
  3  7  1  0  0  0  0
  3 23  1  0  0  0  0
  3 24  1  0  0  0  0
  4 25  1  0  0  0  0
  4 26  1  0  0  0  0
  5  9  1  0  0  0  0
  5 27  1  0  0  0  0
  5 28  1  0  0  0  0
  6  8  1  0  0  0  0
  6 29  1  0  0  0  0
  6 30  1  0  0  0  0
  7 31  1  0  0  0  0
  7 32  1  0  0  0  0
  8 10  1  0  0  0  0
  8 35  1  0  0  0  0
  8 36  1  0  0  0  0
  9 10  1  0  0  0  0
  9 33  1  0  0  0  0
  9 34  1  0  0  0  0
 10 37  1  0  0  0  0
 10 38  1  0  0  0  0
 11 12  1  0  0  0  0
 11 39  1  0  0  0  0
 11 40  1  0  0  0  0
 12 13  1  0  0  0  0
 12 41  1  0  0  0  0
 12 42  1  0  0  0  0
 13 14  1  0  0  0  0
 13 43  1  0  0  0  0
 13 44  1  0  0  0  0
 14 15  1  0  0  0  0
 14 45  1  0  0  0  0
 14 46  1  0  0  0  0
 15 16  1  0  0  0  0
 15 47  1  0  0  0  0
 15 48  1  0  0  0  0
 16 17  1  0  0  0  0
 16 49  1  0  0  0  0
 16 50  1  0  0  0  0
 17 18  1  0  0  0  0
 17 51  1  0  0  0  0
 17 52  1  0  0  0  0
 18 19  1  0  0  0  0
 18 53  1  0  0  0  0
 18 54  1  0  0  0  0
 19 20  1  0  0  0  0
 19 55  1  0  0  0  0
 19 56  1  0  0  0  0
 20 21  1  0  0  0  0
 20 57  1  0  0  0  0
 20 58  1  0  0  0  0
 21 22  1  0  0  0  0
 21 59  1  0  0  0  0
 21 60  1  0  0  0  0
 22 61  1  0  0  0  0
 22 62  1  0  0  0  0
 22 63  1  0  0  0  0
M  END
> <PUBCHEM_COMPOUND_CID>
13104

> <PUBCHEM_COMPOUND_CANONICALIZED>
1

> <PUBCHEM_CACTVS_COMPLEXITY>
267

> <PUBCHEM_CACTVS_HBOND_ACCEPTOR>
1

> <PUBCHEM_CACTVS_HBOND_DONOR>
0

> <PUBCHEM_CACTVS_ROTATABLE_BOND>
11

> <PUBCHEM_CACTVS_SUBSKEYS>
AAADcfB6AAAAAAAAAAAAAAAAAAAAAWAAAAAwAAAAAAAAAAAAAAAAHAAAAAAADgDBAAQCAAMAAAAAAAAAAAAAAAAAAAAAAAAIAAAAAAIAgAAEAAAAAACAAAEQgMAPAAAAAAAAAAAAAAAAAAAAAAAAAAAAAA==

> <PUBCHEM_IUPAC_OPENEYE_NAME>
2-dodecyl-2-azaspiro[4.5]decane

> <PUBCHEM_IUPAC_CAS_NAME>
2-dodecyl-2-azaspiro[4.5]decane

> <PUBCHEM_IUPAC_NAME>
2-dodecyl-2-azaspiro[4.5]decane

> <PUBCHEM_IUPAC_SYSTEMATIC_NAME>
2-dodecyl-2-azaspiro[4.5]decane

> <PUBCHEM_IUPAC_TRADITIONAL_NAME>
2-lauryl-2-azaspiro[4.5]decane

> <PUBCHEM_IUPAC_INCHI>
InChI=1S/C21H41N/c1-2-3-4-5-6-7-8-9-10-14-18-22-19-17-21(20-22)15-12-11-13-16-21/h2-20H2,1H3

> <PUBCHEM_IUPAC_INCHIKEY>
TUYJSZOUGZRFPN-UHFFFAOYSA-N

> <PUBCHEM_XLOGP3_AA>
8.2

> <PUBCHEM_EXACT_MASS>
307.3239

> <PUBCHEM_MOLECULAR_FORMULA>
C21H41N

> <PUBCHEM_MOLECULAR_WEIGHT>
307.55694

> <PUBCHEM_OPENEYE_CAN_SMILES>
CCCCCCCCCCCCN1CCC2(C1)CCCCC2

> <PUBCHEM_OPENEYE_ISO_SMILES>
CCCCCCCCCCCCN1CCC2(C1)CCCCC2

> <PUBCHEM_CACTVS_TPSA>
3.2

> <PUBCHEM_MONOISOTOPIC_WEIGHT>
307.3239

> <PUBCHEM_TOTAL_CHARGE>
0

> <PUBCHEM_HEAVY_ATOM_COUNT>
22

> <PUBCHEM_ATOM_DEF_STEREO_COUNT>
0

> <PUBCHEM_ATOM_UDEF_STEREO_COUNT>
0

> <PUBCHEM_BOND_DEF_STEREO_COUNT>
0

> <PUBCHEM_BOND_UDEF_STEREO_COUNT>
0

> <PUBCHEM_ISOTOPIC_ATOM_COUNT>
0

> <PUBCHEM_COMPONENT_COUNT>
1

> <PUBCHEM_CACTVS_TAUTO_COUNT>
1

> <PUBCHEM_COORDINATE_TYPE>
1
5
255

$$$$

