11551
  -OEChem-06261205493D

 26 25  0     0  0  0  0  0  0999 V2000
   -1.4513   -0.0044    0.0147 C   0  0  0  0  0  0  0  0  0  0  0  0
   -0.0671   -0.7062    0.0390 C   0  0  0  0  0  0  0  0  0  0  0  0
    1.1522    0.2201   -0.0502 C   0  0  0  0  0  0  0  0  0  0  0  0
   -2.5940   -1.0213    0.1694 C   0  0  0  0  0  0  0  0  0  0  0  0
   -1.5595    1.0520    1.1265 C   0  0  0  0  0  0  0  0  0  0  0  0
   -1.6070    0.7020   -1.3464 C   0  0  0  0  0  0  0  0  0  0  0  0
    2.4553   -0.5769    0.0482 C   0  0  0  0  0  0  0  0  0  0  0  0
    3.6714    0.3347   -0.0011 C   0  0  0  0  0  0  0  0  0  0  0  0
   -0.0183   -1.4378   -0.7788 H   0  0  0  0  0  0  0  0  0  0  0  0
    0.0077   -1.2874    0.9682 H   0  0  0  0  0  0  0  0  0  0  0  0
    1.1458    0.7725   -0.9955 H   0  0  0  0  0  0  0  0  0  0  0  0
    1.1332    0.9544    0.7617 H   0  0  0  0  0  0  0  0  0  0  0  0
   -2.5586   -1.7769   -0.6234 H   0  0  0  0  0  0  0  0  0  0  0  0
   -3.5742   -0.5339    0.1232 H   0  0  0  0  0  0  0  0  0  0  0  0
   -2.5250   -1.5431    1.1303 H   0  0  0  0  0  0  0  0  0  0  0  0
   -2.5684    1.4796    1.1634 H   0  0  0  0  0  0  0  0  0  0  0  0
   -0.8676    1.8866    0.9752 H   0  0  0  0  0  0  0  0  0  0  0  0
   -1.3514    0.6108    2.1074 H   0  0  0  0  0  0  0  0  0  0  0  0
   -0.8948    1.5239   -1.4713 H   0  0  0  0  0  0  0  0  0  0  0  0
   -1.4660    0.0009   -2.1767 H   0  0  0  0  0  0  0  0  0  0  0  0
   -2.6096    1.1340   -1.4482 H   0  0  0  0  0  0  0  0  0  0  0  0
    2.4743   -1.1474    0.9842 H   0  0  0  0  0  0  0  0  0  0  0  0
    2.5123   -1.2995   -0.7740 H   0  0  0  0  0  0  0  0  0  0  0  0
    4.5904   -0.2556    0.0687 H   0  0  0  0  0  0  0  0  0  0  0  0
    3.6617    1.0475    0.8296 H   0  0  0  0  0  0  0  0  0  0  0  0
    3.7005    0.8992   -0.9386 H   0  0  0  0  0  0  0  0  0  0  0  0
  1  2  1  0  0  0  0
  1  4  1  0  0  0  0
  1  5  1  0  0  0  0
  1  6  1  0  0  0  0
  2  3  1  0  0  0  0
  2  9  1  0  0  0  0
  2 10  1  0  0  0  0
  3  7  1  0  0  0  0
  3 11  1  0  0  0  0
  3 12  1  0  0  0  0
  4 13  1  0  0  0  0
  4 14  1  0  0  0  0
  4 15  1  0  0  0  0
  5 16  1  0  0  0  0
  5 17  1  0  0  0  0
  5 18  1  0  0  0  0
  6 19  1  0  0  0  0
  6 20  1  0  0  0  0
  6 21  1  0  0  0  0
  7  8  1  0  0  0  0
  7 22  1  0  0  0  0
  7 23  1  0  0  0  0
  8 24  1  0  0  0  0
  8 25  1  0  0  0  0
  8 26  1  0  0  0  0
M  END
> <PUBCHEM_COMPOUND_CID>
11551

> <PUBCHEM_CONFORMER_RMSD>
0.6

> <PUBCHEM_CONFORMER_DIVERSEORDER>
1
4
3
2

> <PUBCHEM_MMFF94_PARTIAL_CHARGES>
0

> <PUBCHEM_EFFECTIVE_ROTOR_COUNT>
3

> <PUBCHEM_PHARMACOPHORE_FEATURES>
3
1 8 hydrophobe
4 1 2 3 7 hydrophobe
4 1 4 5 6 hydrophobe

> <PUBCHEM_HEAVY_ATOM_COUNT>
8

> <PUBCHEM_ATOM_DEF_STEREO_COUNT>
0

> <PUBCHEM_ATOM_UDEF_STEREO_COUNT>
0

> <PUBCHEM_BOND_DEF_STEREO_COUNT>
0

> <PUBCHEM_BOND_UDEF_STEREO_COUNT>
0

> <PUBCHEM_ISOTOPIC_ATOM_COUNT>
0

> <PUBCHEM_COMPONENT_COUNT>
1

> <PUBCHEM_CACTVS_TAUTO_COUNT>
1

> <PUBCHEM_CONFORMER_ID>
00002D1F00000001

> <PUBCHEM_MMFF94_ENERGY>
10.5549

> <PUBCHEM_FEATURE_SELFOVERLAP>
15.26

> <PUBCHEM_SHAPE_FINGERPRINT>
11062470 55 15482676757854276351
12932764 1 17917426575149578426
13024252 1 14908180858952692799
14325111 11 18410291428291517754
14390081 3 18412548721347230052
15310529 11 17312817212451525142
20653085 51 17772198766931543717
29004967 10 17603300453495023338
3248919 1 18188215398344650118
369184 2 18060140963483059083
5084963 1 18272932700181174434
5460574 1 8935003668057643442

> <PUBCHEM_SHAPE_MULTIPOLES>
164.64
4.95
1.07
1.01
4.67
0.01
0.13
0.15
-0.08
-0.5
-0.1
-0.62
-0.32
0

> <PUBCHEM_SHAPE_SELFOVERLAP>
291.141

> <PUBCHEM_SHAPE_VOLUME>
111.1

> <PUBCHEM_COORDINATE_TYPE>
2
5
10

$$$$

