105
  -OEChem-07051212482D

 16 15  0     0  0  0  0  0  0999 V2000
    3.4030   -0.2500    0.0000 P   0  0  0  0  0  0  0  0  0  0  0  0
    4.2690    0.2500    0.0000 O   0  0  0  0  0  0  0  0  0  0  0  0
    2.5369   -0.7500    0.0000 O   0  0  0  0  0  0  0  0  0  0  0  0
    2.9030    0.6160    0.0000 O   0  0  0  0  0  0  0  0  0  0  0  0
    3.9030   -1.1160    0.0000 O   0  0  0  0  0  0  0  0  0  0  0  0
    6.0010    1.2500    0.0000 O   0  0  0  0  0  0  0  0  0  0  0  0
    7.7331    0.2500    0.0000 O   0  0  0  0  0  0  0  0  0  0  0  0
    6.8671   -1.2500    0.0000 O   0  0  0  0  0  0  0  0  0  0  0  0
    5.1350   -0.2500    0.0000 C   0  0  0  0  0  0  0  0  0  0  0  0
    6.0010    0.2500    0.0000 C   0  0  0  0  0  0  0  0  0  0  0  0
    6.8671   -0.2500    0.0000 C   0  0  0  0  0  0  0  0  0  0  0  0
    4.7365   -0.7249    0.0000 H   0  0  0  0  0  0  0  0  0  0  0  0
    5.5335   -0.7249    0.0000 H   0  0  0  0  0  0  0  0  0  0  0  0
    2.0000   -0.4400    0.0000 H   0  0  0  0  0  0  0  0  0  0  0  0
    3.2130    1.1530    0.0000 H   0  0  0  0  0  0  0  0  0  0  0  0
    8.2700   -0.0600    0.0000 H   0  0  0  0  0  0  0  0  0  0  0  0
  1  2  1  0  0  0  0
  1  3  1  0  0  0  0
  1  4  1  0  0  0  0
  1  5  2  0  0  0  0
  2  9  1  0  0  0  0
  3 14  1  0  0  0  0
  4 15  1  0  0  0  0
  6 10  2  0  0  0  0
  7 11  1  0  0  0  0
  7 16  1  0  0  0  0
  8 11  2  0  0  0  0
  9 10  1  0  0  0  0
  9 12  1  0  0  0  0
  9 13  1  0  0  0  0
 10 11  1  0  0  0  0
M  END
> <PUBCHEM_COMPOUND_CID>
105

> <PUBCHEM_COMPOUND_CANONICALIZED>
1

> <PUBCHEM_CACTVS_COMPLEXITY>
214

> <PUBCHEM_CACTVS_HBOND_ACCEPTOR>
7

> <PUBCHEM_CACTVS_HBOND_DONOR>
3

> <PUBCHEM_CACTVS_ROTATABLE_BOND>
4

> <PUBCHEM_CACTVS_SUBSKEYS>
AAADcYBAOAIAAAAAAAAAAAAAAAAAAAAAAAAAAAAAAAAAAAAAAAAAGgAACCAACASggAIACAAAAxAIQICQCIIAAAAAAAAAAAFAAAAAAAQAAAAAQAABIAAAAAAAAAAAAAAAAAAAAAAAAAAAAAAAAAAAAAAAAA==

> <PUBCHEM_IUPAC_OPENEYE_NAME>
2-oxo-3-phosphonooxy-propanoic acid

> <PUBCHEM_IUPAC_CAS_NAME>
2-oxo-3-phosphonooxypropanoic acid

> <PUBCHEM_IUPAC_NAME>
2-oxo-3-phosphonooxypropanoic acid

> <PUBCHEM_IUPAC_SYSTEMATIC_NAME>
2-oxidanylidene-3-phosphonooxy-propanoic acid

> <PUBCHEM_IUPAC_TRADITIONAL_NAME>
2-keto-3-phosphonooxy-propionic acid

> <PUBCHEM_IUPAC_INCHI>
InChI=1S/C3H5O7P/c4-2(3(5)6)1-10-11(7,8)9/h1H2,(H,5,6)(H2,7,8,9)

> <PUBCHEM_IUPAC_INCHIKEY>
LFLUCDOSQPJJBE-UHFFFAOYSA-N

> <PUBCHEM_XLOGP3_AA>
-2.1

> <PUBCHEM_EXACT_MASS>
183.977289

> <PUBCHEM_MOLECULAR_FORMULA>
C3H5O7P

> <PUBCHEM_MOLECULAR_WEIGHT>
184.041362

> <PUBCHEM_OPENEYE_CAN_SMILES>
C(C(=O)C(=O)O)OP(=O)(O)O

> <PUBCHEM_OPENEYE_ISO_SMILES>
C(C(=O)C(=O)O)OP(=O)(O)O

> <PUBCHEM_CACTVS_TPSA>
121

> <PUBCHEM_MONOISOTOPIC_WEIGHT>
183.977289

> <PUBCHEM_TOTAL_CHARGE>
0

> <PUBCHEM_HEAVY_ATOM_COUNT>
11

> <PUBCHEM_ATOM_DEF_STEREO_COUNT>
0

> <PUBCHEM_ATOM_UDEF_STEREO_COUNT>
0

> <PUBCHEM_BOND_DEF_STEREO_COUNT>
0

> <PUBCHEM_BOND_UDEF_STEREO_COUNT>
0

> <PUBCHEM_ISOTOPIC_ATOM_COUNT>
0

> <PUBCHEM_COMPONENT_COUNT>
1

> <PUBCHEM_CACTVS_TAUTO_COUNT>
2

> <PUBCHEM_COORDINATE_TYPE>
1
5
255

$$$$

