7847020
  -OEChem-06241222482D

 46 48  0     0  0  0  0  0  0999 V2000
    4.6783    2.9028    0.0000 S   0  0  0  0  0  0  0  0  0  0  0  0
    8.2619    0.3660    0.0000 O   0  0  0  0  0  0  0  0  0  0  0  0
    9.7619   -2.2320    0.0000 O   0  0  0  0  0  0  0  0  0  0  0  0
    8.2619    2.0981    0.0000 O   0  0  0  0  0  0  0  0  0  0  0  0
    9.2619   -1.3660    0.0000 O   0  0  0  0  0  0  0  0  0  0  0  0
   14.2619   -3.0981    0.0000 O   0  5  0  0  0  0  0  0  0  0  0  0
   14.2619   -1.3660    0.0000 O   0  0  0  0  0  0  0  0  0  0  0  0
    4.6783    1.2933    0.0000 N   0  0  0  0  0  0  0  0  0  0  0  0
   10.7619   -0.5000    0.0000 N   0  0  0  0  0  0  0  0  0  0  0  0
   13.7619   -2.2320    0.0000 N   0  3  0  0  0  0  0  0  0  0  0  0
    6.2619    2.0981    0.0000 C   0  0  0  0  0  0  0  0  0  0  0  0
    6.7619    1.2320    0.0000 C   0  0  0  0  0  0  0  0  0  0  0  0
    5.2619    2.0981    0.0000 C   0  0  0  0  0  0  0  0  0  0  0  0
    3.7320    2.5981    0.0000 C   0  0  0  0  0  0  0  0  0  0  0  0
    3.7320    1.5981    0.0000 C   0  0  0  0  0  0  0  0  0  0  0  0
    7.7619    1.2320    0.0000 C   0  0  0  0  0  0  0  0  0  0  0  0
   11.2619   -1.3660    0.0000 C   0  0  0  0  0  0  0  0  0  0  0  0
    2.8660    3.0981    0.0000 C   0  0  0  0  0  0  0  0  0  0  0  0
    2.8660    1.0981    0.0000 C   0  0  0  0  0  0  0  0  0  0  0  0
   10.7619   -2.2320    0.0000 C   0  0  0  0  0  0  0  0  0  0  0  0
    9.2619    0.3660    0.0000 C   0  0  0  0  0  0  0  0  0  0  0  0
   12.2619   -1.3660    0.0000 C   0  0  0  0  0  0  0  0  0  0  0  0
    2.0000    2.5981    0.0000 C   0  0  0  0  0  0  0  0  0  0  0  0
    2.0000    1.5981    0.0000 C   0  0  0  0  0  0  0  0  0  0  0  0
    9.7619   -0.5000    0.0000 C   0  0  0  0  0  0  0  0  0  0  0  0
   12.7619   -2.2320    0.0000 C   0  0  0  0  0  0  0  0  0  0  0  0
   11.2619   -3.0981    0.0000 C   0  0  0  0  0  0  0  0  0  0  0  0
   12.2619   -3.0981    0.0000 C   0  0  0  0  0  0  0  0  0  0  0  0
    9.2619   -3.0981    0.0000 C   0  0  0  0  0  0  0  0  0  0  0  0
    6.8445    2.3101    0.0000 H   0  0  0  0  0  0  0  0  0  0  0  0
    6.1542    2.7087    0.0000 H   0  0  0  0  0  0  0  0  0  0  0  0
    6.1793    1.0200    0.0000 H   0  0  0  0  0  0  0  0  0  0  0  0
    6.8695    0.6215    0.0000 H   0  0  0  0  0  0  0  0  0  0  0  0
    2.8660    3.7181    0.0000 H   0  0  0  0  0  0  0  0  0  0  0  0
    2.8660    0.4781    0.0000 H   0  0  0  0  0  0  0  0  0  0  0  0
    9.8445    0.5781    0.0000 H   0  0  0  0  0  0  0  0  0  0  0  0
    9.1542    0.9766    0.0000 H   0  0  0  0  0  0  0  0  0  0  0  0
   12.5719   -0.8291    0.0000 H   0  0  0  0  0  0  0  0  0  0  0  0
   11.0719    0.0369    0.0000 H   0  0  0  0  0  0  0  0  0  0  0  0
    1.4631    2.9081    0.0000 H   0  0  0  0  0  0  0  0  0  0  0  0
    1.4631    1.2881    0.0000 H   0  0  0  0  0  0  0  0  0  0  0  0
   10.9519   -3.6350    0.0000 H   0  0  0  0  0  0  0  0  0  0  0  0
   12.5719   -3.6350    0.0000 H   0  0  0  0  0  0  0  0  0  0  0  0
    8.7249   -2.7881    0.0000 H   0  0  0  0  0  0  0  0  0  0  0  0
    8.9519   -3.6350    0.0000 H   0  0  0  0  0  0  0  0  0  0  0  0
    9.7988   -3.4081    0.0000 H   0  0  0  0  0  0  0  0  0  0  0  0
  1 13  1  0  0  0  0
  1 14  1  0  0  0  0
  2 16  1  0  0  0  0
  2 21  1  0  0  0  0
  3 20  1  0  0  0  0
  3 29  1  0  0  0  0
  4 16  2  0  0  0  0
  5 25  2  0  0  0  0
  6 10  1  0  0  0  0
  7 10  2  0  0  0  0
  8 13  2  0  0  0  0
  8 15  1  0  0  0  0
  9 17  1  0  0  0  0
  9 25  1  0  0  0  0
  9 39  1  0  0  0  0
 10 26  1  0  0  0  0
 11 12  1  0  0  0  0
 11 13  1  0  0  0  0
 11 30  1  0  0  0  0
 11 31  1  0  0  0  0
 12 16  1  0  0  0  0
 12 32  1  0  0  0  0
 12 33  1  0  0  0  0
 14 15  1  0  0  0  0
 14 18  2  0  0  0  0
 15 19  2  0  0  0  0
 17 20  2  0  0  0  0
 17 22  1  0  0  0  0
 18 23  1  0  0  0  0
 18 34  1  0  0  0  0
 19 24  1  0  0  0  0
 19 35  1  0  0  0  0
 20 27  1  0  0  0  0
 21 25  1  0  0  0  0
 21 36  1  0  0  0  0
 21 37  1  0  0  0  0
 22 26  2  0  0  0  0
 22 38  1  0  0  0  0
 23 24  2  0  0  0  0
 23 40  1  0  0  0  0
 24 41  1  0  0  0  0
 26 28  1  0  0  0  0
 27 28  2  0  0  0  0
 27 42  1  0  0  0  0
 28 43  1  0  0  0  0
 29 44  1  0  0  0  0
 29 45  1  0  0  0  0
 29 46  1  0  0  0  0
M  CHG  2   6  -1  10   1
M  END
> <PUBCHEM_COMPOUND_CID>
7847020

> <PUBCHEM_COMPOUND_CANONICALIZED>
1

> <PUBCHEM_CACTVS_COMPLEXITY>
601

> <PUBCHEM_CACTVS_HBOND_ACCEPTOR>
8

> <PUBCHEM_CACTVS_HBOND_DONOR>
1

> <PUBCHEM_CACTVS_ROTATABLE_BOND>
8

> <PUBCHEM_CACTVS_SUBSKEYS>
AAADceB7OABAAAAAAAAAAAAAAAAAAWAAAAAwYAAAAAAAAFgB9AAAHgQUAAAACAyh1gIyz7LYVAitASXyXwKD+KBhKjhomD13bJoOJrLk8d+HMChk1BH46Ae0QAAAAEAAAAQAEQAAgAAACAAiAAAAAAAAAA==

> <PUBCHEM_IUPAC_OPENEYE_NAME>
[2-(2-methoxy-5-nitro-anilino)-2-oxo-ethyl] 3-(1,3-benzothiazol-2-yl)propanoate

> <PUBCHEM_IUPAC_CAS_NAME>
3-(1,3-benzothiazol-2-yl)propanoic acid [2-(2-methoxy-5-nitroanilino)-2-oxoethyl] ester

> <PUBCHEM_IUPAC_NAME>
[2-(2-methoxy-5-nitroanilino)-2-oxoethyl] 3-(1,3-benzothiazol-2-yl)propanoate

> <PUBCHEM_IUPAC_SYSTEMATIC_NAME>
[2-[(2-methoxy-5-nitro-phenyl)amino]-2-oxidanylidene-ethyl] 3-(1,3-benzothiazol-2-yl)propanoate

> <PUBCHEM_IUPAC_TRADITIONAL_NAME>
3-(1,3-benzothiazol-2-yl)propionic acid [2-keto-2-(2-methoxy-5-nitro-anilino)ethyl] ester

> <PUBCHEM_IUPAC_INCHI>
InChI=1S/C19H17N3O6S/c1-27-15-7-6-12(22(25)26)10-14(15)20-17(23)11-28-19(24)9-8-18-21-13-4-2-3-5-16(13)29-18/h2-7,10H,8-9,11H2,1H3,(H,20,23)

> <PUBCHEM_IUPAC_INCHIKEY>
HNTYPMVVACYGEZ-UHFFFAOYSA-N

> <PUBCHEM_XLOGP3_AA>
3.2

> <PUBCHEM_EXACT_MASS>
415.083806

> <PUBCHEM_MOLECULAR_FORMULA>
C19H17N3O6S

> <PUBCHEM_MOLECULAR_WEIGHT>
415.41978

> <PUBCHEM_OPENEYE_CAN_SMILES>
COC1=C(C=C(C=C1)[N+](=O)[O-])NC(=O)COC(=O)CCC2=NC3=CC=CC=C3S2

> <PUBCHEM_OPENEYE_ISO_SMILES>
COC1=C(C=C(C=C1)[N+](=O)[O-])NC(=O)COC(=O)CCC2=NC3=CC=CC=C3S2

> <PUBCHEM_CACTVS_TPSA>
152

> <PUBCHEM_MONOISOTOPIC_WEIGHT>
415.083806

> <PUBCHEM_TOTAL_CHARGE>
0

> <PUBCHEM_HEAVY_ATOM_COUNT>
29

> <PUBCHEM_ATOM_DEF_STEREO_COUNT>
0

> <PUBCHEM_ATOM_UDEF_STEREO_COUNT>
0

> <PUBCHEM_BOND_DEF_STEREO_COUNT>
0

> <PUBCHEM_BOND_UDEF_STEREO_COUNT>
0

> <PUBCHEM_ISOTOPIC_ATOM_COUNT>
0

> <PUBCHEM_COMPONENT_COUNT>
1

> <PUBCHEM_CACTVS_TAUTO_COUNT>
6

> <PUBCHEM_COORDINATE_TYPE>
1
5
255

> <PUBCHEM_BONDANNOTATIONS>
1  13  8
1  14  8
14  15  8
14  18  8
15  19  8
17  20  8
17  22  8
18  23  8
19  24  8
20  27  8
22  26  8
23  24  8
26  28  8
27  28  8
8  13  8
8  15  8

$$$$

