6857704
  -OEChem-07051213153D

 82 85  0     1  0  0  0  0  0999 V2000
    0.3736    0.3260   -1.2713 O   0  0  0  0  0  0  0  0  0  0  0  0
    3.0996    0.8431    1.1557 O   0  0  0  0  0  0  0  0  0  0  0  0
    4.8091    0.3142   -0.4029 O   0  0  0  0  0  0  0  0  0  0  0  0
   -1.3195    0.8282    0.2536 O   0  0  0  0  0  0  0  0  0  0  0  0
   -4.9526    1.1416   -0.0860 O   0  0  0  0  0  0  0  0  0  0  0  0
    8.5174   -1.3612    0.1520 O   0  0  0  0  0  0  0  0  0  0  0  0
    1.6946    2.6319   -2.3124 O   0  0  0  0  0  0  0  0  0  0  0  0
    3.0392    3.4640   -0.0223 O   0  0  0  0  0  0  0  0  0  0  0  0
   -1.5564    0.1927   -3.3366 O   0  0  0  0  0  0  0  0  0  0  0  0
   -4.2160   -0.5514   -2.3102 O   0  0  0  0  0  0  0  0  0  0  0  0
    5.0304   -2.3893    0.5958 O   0  0  0  0  0  0  0  0  0  0  0  0
    7.0517    1.9596    0.5684 O   0  0  0  0  0  0  0  0  0  0  0  0
    9.5531    0.7284    0.0832 O   0  0  0  0  0  0  0  0  0  0  0  0
   -5.9958   -0.9457   -0.1754 O   0  0  0  0  0  0  0  0  0  0  0  0
   -1.8423    2.1834    2.5874 O   0  0  0  0  0  0  0  0  0  0  0  0
    8.9381   -4.0010    0.7931 O   0  0  0  0  0  0  0  0  0  0  0  0
   -7.0231    2.1503    1.5492 O   0  0  0  0  0  0  0  0  0  0  0  0
   -9.5353    0.6107    1.0671 O   0  0  0  0  0  0  0  0  0  0  0  0
   -5.9504   -3.3416   -1.0249 O   0  0  0  0  0  0  0  0  0  0  0  0
   -7.9676   -3.9112   -0.1101 O   0  0  0  0  0  0  0  0  0  0  0  0
    1.3283    1.0678   -0.5161 C   0  0  2  0  0  0  0  0  0  0  0  0
    2.3446    1.6656   -1.4898 C   0  0  2  0  0  0  0  0  0  0  0  0
    3.5052    2.3185   -0.7375 C   0  0  2  0  0  0  0  0  0  0  0  0
    2.0380    0.1515    0.4903 C   0  0  2  0  0  0  0  0  0  0  0  0
    4.1103    1.3507    0.2779 C   0  0  1  0  0  0  0  0  0  0  0  0
   -0.9402    0.8629   -1.1202 C   0  0  2  0  0  0  0  0  0  0  0  0
   -3.6727    0.5360   -0.2485 C   0  0  1  0  0  0  0  0  0  0  0  0
   -1.8946    0.0154   -1.9612 C   0  0  1  0  0  0  0  0  0  0  0  0
   -3.3493    0.4298   -1.7389 C   0  0  1  0  0  0  0  0  0  0  0  0
    5.9170   -0.1602    0.3637 C   0  0  1  0  0  0  0  0  0  0  0  0
   -2.6195    1.3766    0.4772 C   0  0  1  0  0  0  0  0  0  0  0  0
    6.1122   -1.6427    0.0453 C   0  0  1  0  0  0  0  0  0  0  0  0
    7.1643    0.6504    0.0110 C   0  0  2  0  0  0  0  0  0  0  0  0
    7.4302   -2.1550    0.6307 C   0  0  1  0  0  0  0  0  0  0  0  0
    1.0878   -0.3535    1.5726 C   0  0  0  0  0  0  0  0  0  0  0  0
    8.4282   -0.0016    0.5717 C   0  0  1  0  0  0  0  0  0  0  0  0
   -2.8560    1.4000    1.9841 C   0  0  0  0  0  0  0  0  0  0  0  0
   -5.8631    0.2647    0.5787 C   0  0  2  0  0  0  0  0  0  0  0  0
    7.7035   -3.6004    0.2271 C   0  0  0  0  0  0  0  0  0  0  0  0
   -7.1976    0.9999    0.7227 C   0  0  1  0  0  0  0  0  0  0  0  0
   -8.2420    0.0952    1.3775 C   0  0  2  0  0  0  0  0  0  0  0  0
   -8.1280   -1.3141    0.8864 C   0  0  0  0  0  0  0  0  0  0  0  0
   -7.0766   -1.7241    0.1622 C   0  0  0  0  0  0  0  0  0  0  0  0
   -7.0775   -3.1061   -0.3204 C   0  0  0  0  0  0  0  0  0  0  0  0
    0.8574    1.9025    0.0230 H   0  0  0  0  0  0  0  0  0  0  0  0
    2.7182    0.8790   -2.1572 H   0  0  0  0  0  0  0  0  0  0  0  0
    4.2575    2.6631   -1.4563 H   0  0  0  0  0  0  0  0  0  0  0  0
    2.4491   -0.7280   -0.0218 H   0  0  0  0  0  0  0  0  0  0  0  0
    4.7747    1.9273    0.9259 H   0  0  0  0  0  0  0  0  0  0  0  0
   -0.9307    1.9008   -1.4807 H   0  0  0  0  0  0  0  0  0  0  0  0
   -3.6457   -0.4778    0.1782 H   0  0  0  0  0  0  0  0  0  0  0  0
   -1.7602   -1.0496   -1.7374 H   0  0  0  0  0  0  0  0  0  0  0  0
   -3.5736    1.3723   -2.2519 H   0  0  0  0  0  0  0  0  0  0  0  0
    5.6841   -0.0636    1.4342 H   0  0  0  0  0  0  0  0  0  0  0  0
   -2.6285    2.4139    0.1158 H   0  0  0  0  0  0  0  0  0  0  0  0
    6.0906   -1.7872   -1.0419 H   0  0  0  0  0  0  0  0  0  0  0  0
    7.2415    0.7741   -1.0757 H   0  0  0  0  0  0  0  0  0  0  0  0
    7.4199   -2.1055    1.7281 H   0  0  0  0  0  0  0  0  0  0  0  0
    1.6397   -0.9490    2.3088 H   0  0  0  0  0  0  0  0  0  0  0  0
    0.2965   -0.9831    1.1566 H   0  0  0  0  0  0  0  0  0  0  0  0
    0.6391    0.4794    2.1242 H   0  0  0  0  0  0  0  0  0  0  0  0
    8.4514    0.0552    1.6674 H   0  0  0  0  0  0  0  0  0  0  0  0
   -2.7932    0.3911    2.4055 H   0  0  0  0  0  0  0  0  0  0  0  0
   -3.8264    1.8389    2.2332 H   0  0  0  0  0  0  0  0  0  0  0  0
    2.3630    2.9989   -2.9159 H   0  0  0  0  0  0  0  0  0  0  0  0
   -5.4543    0.0277    1.5708 H   0  0  0  0  0  0  0  0  0  0  0  0
    3.8117    3.8902    0.3865 H   0  0  0  0  0  0  0  0  0  0  0  0
    6.9181   -4.2728    0.5853 H   0  0  0  0  0  0  0  0  0  0  0  0
    7.7902   -3.6919   -0.8607 H   0  0  0  0  0  0  0  0  0  0  0  0
   -1.6684    1.1335   -3.5557 H   0  0  0  0  0  0  0  0  0  0  0  0
   -4.0411   -1.4019   -1.8723 H   0  0  0  0  0  0  0  0  0  0  0  0
   -7.5466    1.3593   -0.2533 H   0  0  0  0  0  0  0  0  0  0  0  0
    5.0446   -2.2730    1.5612 H   0  0  0  0  0  0  0  0  0  0  0  0
    7.0330    1.8742    1.5370 H   0  0  0  0  0  0  0  0  0  0  0  0
   -8.1437    0.1092    2.4694 H   0  0  0  0  0  0  0  0  0  0  0  0
   10.2819    0.5821    0.7098 H   0  0  0  0  0  0  0  0  0  0  0  0
   -2.0072    2.1778    3.5457 H   0  0  0  0  0  0  0  0  0  0  0  0
   -8.9421   -1.9883    1.1377 H   0  0  0  0  0  0  0  0  0  0  0  0
    9.0936   -4.9214    0.5207 H   0  0  0  0  0  0  0  0  0  0  0  0
   -6.6574    1.8572    2.4013 H   0  0  0  0  0  0  0  0  0  0  0  0
  -10.1930    0.0514    1.5152 H   0  0  0  0  0  0  0  0  0  0  0  0
   -5.9141   -4.2607   -1.3660 H   0  0  0  0  0  0  0  0  0  0  0  0
  1 21  1  0  0  0  0
  1 26  1  0  0  0  0
  2 24  1  0  0  0  0
  2 25  1  0  0  0  0
  3 25  1  0  0  0  0
  3 30  1  0  0  0  0
  4 26  1  0  0  0  0
  4 31  1  0  0  0  0
  5 27  1  0  0  0  0
  5 38  1  0  0  0  0
  6 34  1  0  0  0  0
  6 36  1  0  0  0  0
  7 22  1  0  0  0  0
  7 65  1  0  0  0  0
  8 23  1  0  0  0  0
  8 67  1  0  0  0  0
  9 28  1  0  0  0  0
  9 70  1  0  0  0  0
 10 29  1  0  0  0  0
 10 71  1  0  0  0  0
 11 32  1  0  0  0  0
 11 73  1  0  0  0  0
 12 33  1  0  0  0  0
 12 74  1  0  0  0  0
 13 36  1  0  0  0  0
 13 76  1  0  0  0  0
 14 38  1  0  0  0  0
 14 43  1  0  0  0  0
 15 37  1  0  0  0  0
 15 77  1  0  0  0  0
 16 39  1  0  0  0  0
 16 79  1  0  0  0  0
 17 40  1  0  0  0  0
 17 80  1  0  0  0  0
 18 41  1  0  0  0  0
 18 81  1  0  0  0  0
 19 44  1  0  0  0  0
 19 82  1  0  0  0  0
 20 44  2  0  0  0  0
 21 22  1  0  0  0  0
 21 24  1  0  0  0  0
 21 45  1  0  0  0  0
 22 23  1  0  0  0  0
 22 46  1  0  0  0  0
 23 25  1  0  0  0  0
 23 47  1  0  0  0  0
 24 35  1  0  0  0  0
 24 48  1  0  0  0  0
 25 49  1  0  0  0  0
 26 28  1  0  0  0  0
 26 50  1  0  0  0  0
 27 29  1  0  0  0  0
 27 31  1  0  0  0  0
 27 51  1  0  0  0  0
 28 29  1  0  0  0  0
 28 52  1  0  0  0  0
 29 53  1  0  0  0  0
 30 32  1  0  0  0  0
 30 33  1  0  0  0  0
 30 54  1  0  0  0  0
 31 37  1  0  0  0  0
 31 55  1  0  0  0  0
 32 34  1  0  0  0  0
 32 56  1  0  0  0  0
 33 36  1  0  0  0  0
 33 57  1  0  0  0  0
 34 39  1  0  0  0  0
 34 58  1  0  0  0  0
 35 59  1  0  0  0  0
 35 60  1  0  0  0  0
 35 61  1  0  0  0  0
 36 62  1  0  0  0  0
 37 63  1  0  0  0  0
 37 64  1  0  0  0  0
 38 40  1  0  0  0  0
 38 66  1  0  0  0  0
 39 68  1  0  0  0  0
 39 69  1  0  0  0  0
 40 41  1  0  0  0  0
 40 72  1  0  0  0  0
 41 42  1  0  0  0  0
 41 75  1  0  0  0  0
 42 43  2  0  0  0  0
 42 78  1  0  0  0  0
 43 44  1  0  0  0  0
M  END
> <PUBCHEM_COMPOUND_CID>
6857704

> <PUBCHEM_CONFORMER_RMSD>
1.2

> <PUBCHEM_CONFORMER_DIVERSEORDER>
1
40
25
44
22
34
38
36
18
42
37
20
8
46
47
48
23
27
31
35
12
30
29
49
6
39
16
32
17
13
10
33
4
45
3
14
9
28
41
15
21
7
11
5
24
19
43
26
2

> <PUBCHEM_MMFF94_PARTIAL_CHARGES>
56
1 -0.56
10 -0.68
11 -0.68
12 -0.68
13 -0.68
14 -0.36
15 -0.68
16 -0.68
17 -0.68
18 -0.68
19 -0.65
2 -0.56
20 -0.57
21 0.28
22 0.28
23 0.28
24 0.28
25 0.56
26 0.56
27 0.28
28 0.28
29 0.28
3 -0.56
30 0.28
31 0.28
32 0.28
33 0.28
34 0.28
36 0.56
37 0.28
38 0.56
39 0.28
4 -0.56
40 0.28
41 0.42
42 -0.29
43 0.09
44 0.71
5 -0.56
6 -0.56
65 0.4
67 0.4
7 -0.68
70 0.4
71 0.4
73 0.4
74 0.4
76 0.4
77 0.4
78 0.15
79 0.4
8 -0.68
80 0.4
81 0.4
82 0.5
9 -0.68

> <PUBCHEM_EFFECTIVE_ROTOR_COUNT>
13.4

> <PUBCHEM_PHARMACOPHORE_FEATURES>
36
1 1 acceptor
1 10 acceptor
1 10 donor
1 11 acceptor
1 11 donor
1 12 acceptor
1 12 donor
1 13 acceptor
1 13 donor
1 14 acceptor
1 15 acceptor
1 15 donor
1 16 acceptor
1 16 donor
1 17 acceptor
1 17 donor
1 18 acceptor
1 18 donor
1 19 acceptor
1 2 acceptor
1 20 acceptor
1 3 acceptor
1 4 acceptor
1 5 acceptor
1 6 acceptor
1 7 acceptor
1 7 donor
1 8 acceptor
1 8 donor
1 9 acceptor
1 9 donor
3 19 20 44 anion
6 14 38 40 41 42 43 rings
6 2 21 22 23 24 25 rings
6 4 26 27 28 29 31 rings
6 6 30 32 33 34 36 rings

> <PUBCHEM_HEAVY_ATOM_COUNT>
44

> <PUBCHEM_ATOM_DEF_STEREO_COUNT>
18

> <PUBCHEM_ATOM_UDEF_STEREO_COUNT>
0

> <PUBCHEM_BOND_DEF_STEREO_COUNT>
0

> <PUBCHEM_BOND_UDEF_STEREO_COUNT>
0

> <PUBCHEM_ISOTOPIC_ATOM_COUNT>
0

> <PUBCHEM_COMPONENT_COUNT>
1

> <PUBCHEM_CACTVS_TAUTO_COUNT>
1

> <PUBCHEM_CONFORMER_ID>
0068A3E800000001

> <PUBCHEM_MMFF94_ENERGY>
128.3735

> <PUBCHEM_FEATURE_SELFOVERLAP>
182.98

> <PUBCHEM_SHAPE_FINGERPRINT>
10 15 17312820476816697469
10076449 9 16989123162345518676
10190206 1 13901917717555015517
11456790 92 17094958836173341320
12013929 27 17773313427748457375
13627175 4 17774451576500861642
13673619 4 17060339625856969452
13782708 43 17704359874307524045
13811026 1 17917707994138655826
14117953 113 16272205271961937843
15198563 99 15267077934528726727
15289351 153 8142086447035442150
15320294 125 17749112205466948132
16994733 274 8718825375173960167
19301679 30 18190174767200172244
19841028 212 18411701024053251162
2026 5 17845940761856183738
21033648 29 4895258306022765956
21057603 130 18413671301740199124
21130935 74 18339922589840682179
21298829 104 7637406241434915379
21792938 703 17702378460720255403
23569943 247 18053386784752427602
3504750 166 18341896286691526589
4616759 239 16877932846823846547
504579 68 12895353296326548416
6691757 9 16226055474667392517
99344 41 18335698360493192587
9962374 69 18202002088772556268

> <PUBCHEM_SHAPE_MULTIPOLES>
788.11
32.11
3.57
1.87
7.77
3.41
0.81
22.68
-10.22
2.2
-0.04
-2.3
-0.85
-2.89

> <PUBCHEM_SHAPE_SELFOVERLAP>
1649.641

> <PUBCHEM_SHAPE_VOLUME>
433.8

> <PUBCHEM_COORDINATE_TYPE>
2
5
10

$$$$

