5280887
  -OEChem-07051212513D

 57 57  0     1  0  0  0  0  0999 V2000
   -4.2719   -0.6663    1.4095 O   0  0  0  0  0  0  0  0  0  0  0  0
   -4.2106    2.1217   -0.8262 O   0  0  0  0  0  0  0  0  0  0  0  0
    1.1525    3.1767   -1.6557 O   0  0  0  0  0  0  0  0  0  0  0  0
    3.3869   -1.3752   -2.1651 O   0  0  0  0  0  0  0  0  0  0  0  0
    1.1293   -1.1501   -2.1367 O   0  0  0  0  0  0  0  0  0  0  0  0
   -2.1077   -0.5614    0.2488 C   0  0  2  0  0  0  0  0  0  0  0  0
   -2.2328    0.9431   -0.0476 C   0  0  2  0  0  0  0  0  0  0  0  0
   -3.5677   -1.0243    0.2264 C   0  0  2  0  0  0  0  0  0  0  0  0
   -3.3570    1.0169   -1.0977 C   0  0  1  0  0  0  0  0  0  0  0  0
   -4.1543   -0.2921   -0.9802 C   0  0  0  0  0  0  0  0  0  0  0  0
   -1.3929   -0.8638    1.5606 C   0  0  0  0  0  0  0  0  0  0  0  0
   -0.9647    1.5664   -0.5319 C   0  0  0  0  0  0  0  0  0  0  0  0
   -1.2775   -2.3109    1.9512 C   0  0  0  0  0  0  0  0  0  0  0  0
   -0.3686    2.5954    0.0835 C   0  0  0  0  0  0  0  0  0  0  0  0
   -0.3104   -3.1718    1.5994 C   0  0  0  0  0  0  0  0  0  0  0  0
    0.8933    3.1772   -0.4544 C   0  0  0  0  0  0  0  0  0  0  0  0
    0.8523   -2.8038    0.7245 C   0  0  0  0  0  0  0  0  0  0  0  0
    1.8446    3.7852    0.5572 C   0  0  0  0  0  0  0  0  0  0  0  0
    2.3792    2.7537    1.5471 C   0  0  0  0  0  0  0  0  0  0  0  0
    0.9317   -3.6219   -0.5719 C   0  0  0  0  0  0  0  0  0  0  0  0
    3.1638    1.6316    0.8615 C   0  0  0  0  0  0  0  0  0  0  0  0
    2.1279   -3.2654   -1.4597 C   0  0  0  0  0  0  0  0  0  0  0  0
    3.7106    0.6338    1.8830 C   0  0  0  0  0  0  0  0  0  0  0  0
    4.5173   -0.4657    1.2109 C   0  0  0  0  0  0  0  0  0  0  0  0
    2.1269   -1.8292   -1.9364 C   0  0  0  0  0  0  0  0  0  0  0  0
   -1.5716   -1.0526   -0.5766 H   0  0  0  0  0  0  0  0  0  0  0  0
   -2.5668    1.4640    0.8619 H   0  0  0  0  0  0  0  0  0  0  0  0
   -3.6453   -2.1101    0.1081 H   0  0  0  0  0  0  0  0  0  0  0  0
   -2.9733    1.1351   -2.1180 H   0  0  0  0  0  0  0  0  0  0  0  0
   -3.9720   -0.8917   -1.8803 H   0  0  0  0  0  0  0  0  0  0  0  0
   -5.2319   -0.1243   -0.8854 H   0  0  0  0  0  0  0  0  0  0  0  0
   -0.3955   -0.4081    1.5464 H   0  0  0  0  0  0  0  0  0  0  0  0
   -1.8996   -0.3476    2.3877 H   0  0  0  0  0  0  0  0  0  0  0  0
   -0.5316    1.1584   -1.4422 H   0  0  0  0  0  0  0  0  0  0  0  0
   -5.1939   -0.9547    1.2990 H   0  0  0  0  0  0  0  0  0  0  0  0
   -4.9151    2.1183   -1.4965 H   0  0  0  0  0  0  0  0  0  0  0  0
   -2.0804   -2.6931    2.5788 H   0  0  0  0  0  0  0  0  0  0  0  0
   -0.7528    3.0063    1.0105 H   0  0  0  0  0  0  0  0  0  0  0  0
   -0.3617   -4.1953    1.9610 H   0  0  0  0  0  0  0  0  0  0  0  0
    1.7683   -2.9769    1.3039 H   0  0  0  0  0  0  0  0  0  0  0  0
    0.8560   -1.7394    0.4778 H   0  0  0  0  0  0  0  0  0  0  0  0
    1.3201    4.5889    1.0863 H   0  0  0  0  0  0  0  0  0  0  0  0
    2.6750    4.2511    0.0137 H   0  0  0  0  0  0  0  0  0  0  0  0
    1.5546    2.3205    2.1258 H   0  0  0  0  0  0  0  0  0  0  0  0
    3.0313    3.2663    2.2648 H   0  0  0  0  0  0  0  0  0  0  0  0
    0.0053   -3.4774   -1.1426 H   0  0  0  0  0  0  0  0  0  0  0  0
    0.9861   -4.6898   -0.3259 H   0  0  0  0  0  0  0  0  0  0  0  0
    3.9930    2.0633    0.2878 H   0  0  0  0  0  0  0  0  0  0  0  0
    2.5226    1.0973    0.1507 H   0  0  0  0  0  0  0  0  0  0  0  0
    3.0501   -3.4455   -0.8949 H   0  0  0  0  0  0  0  0  0  0  0  0
    2.1405   -3.9097   -2.3453 H   0  0  0  0  0  0  0  0  0  0  0  0
    2.8840    0.1833    2.4448 H   0  0  0  0  0  0  0  0  0  0  0  0
    4.3492    1.1550    2.6057 H   0  0  0  0  0  0  0  0  0  0  0  0
    5.3496   -0.0497    0.6345 H   0  0  0  0  0  0  0  0  0  0  0  0
    4.9298   -1.1456    1.9628 H   0  0  0  0  0  0  0  0  0  0  0  0
    3.8878   -1.0528    0.5366 H   0  0  0  0  0  0  0  0  0  0  0  0
    3.3885   -0.4484   -2.4864 H   0  0  0  0  0  0  0  0  0  0  0  0
  1  8  1  0  0  0  0
  1 35  1  0  0  0  0
  2  9  1  0  0  0  0
  2 36  1  0  0  0  0
  3 16  2  0  0  0  0
  4 25  1  0  0  0  0
  4 57  1  0  0  0  0
  5 25  2  0  0  0  0
  6  7  1  0  0  0  0
  6  8  1  0  0  0  0
  6 11  1  0  0  0  0
  6 26  1  0  0  0  0
  7  9  1  0  0  0  0
  7 12  1  0  0  0  0
  7 27  1  0  0  0  0
  8 10  1  0  0  0  0
  8 28  1  0  0  0  0
  9 10  1  0  0  0  0
  9 29  1  0  0  0  0
 10 30  1  0  0  0  0
 10 31  1  0  0  0  0
 11 13  1  0  0  0  0
 11 32  1  0  0  0  0
 11 33  1  0  0  0  0
 12 14  2  0  0  0  0
 12 34  1  0  0  0  0
 13 15  2  0  0  0  0
 13 37  1  0  0  0  0
 14 16  1  0  0  0  0
 14 38  1  0  0  0  0
 15 17  1  0  0  0  0
 15 39  1  0  0  0  0
 16 18  1  0  0  0  0
 17 20  1  0  0  0  0
 17 40  1  0  0  0  0
 17 41  1  0  0  0  0
 18 19  1  0  0  0  0
 18 42  1  0  0  0  0
 18 43  1  0  0  0  0
 19 21  1  0  0  0  0
 19 44  1  0  0  0  0
 19 45  1  0  0  0  0
 20 22  1  0  0  0  0
 20 46  1  0  0  0  0
 20 47  1  0  0  0  0
 21 23  1  0  0  0  0
 21 48  1  0  0  0  0
 21 49  1  0  0  0  0
 22 25  1  0  0  0  0
 22 50  1  0  0  0  0
 22 51  1  0  0  0  0
 23 24  1  0  0  0  0
 23 52  1  0  0  0  0
 23 53  1  0  0  0  0
 24 54  1  0  0  0  0
 24 55  1  0  0  0  0
 24 56  1  0  0  0  0
M  END
> <PUBCHEM_COMPOUND_CID>
5280887

> <PUBCHEM_CONFORMER_RMSD>
1.2

> <PUBCHEM_CONFORMER_DIVERSEORDER>
1
102
81
79
75
39
36
53
91
42
54
110
63
40
95
10
111
50
13
41
66
58
76
61
77
94
5
37
88
9
51
55
96
107
73
101
21
78
93
85
97
35
27
89
64
34
44
15
20
65
92
104
46
28
6
103
108
71
100
26
83
33
47
98
87
2
25
80
12
74
59
52
16
8
57
43
29
7
24
99
4
19
56
86
11
68
22
105
62
106
70
84
45
18
69
90
23
17
38
31
60
32
109
67
48
3
30
82
49
14
72

> <PUBCHEM_MMFF94_PARTIAL_CHARGES>
25
1 -0.68
11 0.14
12 -0.29
13 -0.29
14 -0.14
15 -0.29
16 0.49
17 0.14
18 0.06
2 -0.68
22 0.06
25 0.66
3 -0.57
34 0.15
35 0.4
36 0.4
37 0.15
38 0.15
39 0.15
4 -0.65
5 -0.57
57 0.5
7 0.14
8 0.28
9 0.28

> <PUBCHEM_EFFECTIVE_ROTOR_COUNT>
13

> <PUBCHEM_PHARMACOPHORE_FEATURES>
12
1 1 acceptor
1 1 donor
1 2 acceptor
1 2 donor
1 24 hydrophobe
1 3 acceptor
1 4 acceptor
1 5 acceptor
3 4 5 25 anion
4 15 17 20 22 hydrophobe
4 18 19 21 23 hydrophobe
5 6 7 8 9 10 rings

> <PUBCHEM_HEAVY_ATOM_COUNT>
25

> <PUBCHEM_ATOM_DEF_STEREO_COUNT>
4

> <PUBCHEM_ATOM_UDEF_STEREO_COUNT>
0

> <PUBCHEM_BOND_DEF_STEREO_COUNT>
2

> <PUBCHEM_BOND_UDEF_STEREO_COUNT>
0

> <PUBCHEM_ISOTOPIC_ATOM_COUNT>
0

> <PUBCHEM_COMPONENT_COUNT>
1

> <PUBCHEM_CACTVS_TAUTO_COUNT>
5

> <PUBCHEM_CONFORMER_ID>
0050947700000001

> <PUBCHEM_MMFF94_ENERGY>
33.1607

> <PUBCHEM_FEATURE_SELFOVERLAP>
60.951

> <PUBCHEM_SHAPE_FINGERPRINT>
12539773 59 16173657934223327914
12788726 201 17329425559233193389
13402501 40 18410018762508872906
13642711 20 17983050930632034079
17921350 177 18197773294195648880
20600515 1 18059858380806050716
20764821 26 18122615317843448090
20905425 154 17905631126086490528
23559900 14 18341603871594271788
238918 7 18262256485821352250
3493558 16 17613470773202443566
532947 4 18339093699691410113

> <PUBCHEM_SHAPE_MULTIPOLES>
485.14
7.22
5.34
2.17
2.23
0.04
-0.35
-1.65
0.92
-3.4
-0.65
-1.19
1.28
2.53

> <PUBCHEM_SHAPE_SELFOVERLAP>
952.096

> <PUBCHEM_SHAPE_VOLUME>
290.2

> <PUBCHEM_COORDINATE_TYPE>
2
5
10

$$$$

