442304
  -OEChem-07051212573D

 50 52  0     1  0  0  0  0  0999 V2000
    3.5563    1.1594    1.5624 O   0  0  0  0  0  0  0  0  0  0  0  0
    3.7771    1.5696   -1.1758 O   0  0  0  0  0  0  0  0  0  0  0  0
   -1.5730    3.0924    0.3489 O   0  0  0  0  0  0  0  0  0  0  0  0
   -4.0380    2.4160   -0.7435 O   0  0  0  0  0  0  0  0  0  0  0  0
   -0.8094   -2.8873   -0.1557 N   0  0  1  0  0  0  0  0  0  0  0  0
    0.0220   -2.2090    0.8753 C   0  0  1  0  0  0  0  0  0  0  0  0
    1.0290   -1.1992    0.3182 C   0  0  0  0  0  0  0  0  0  0  0  0
   -0.0624   -3.1483   -1.3917 C   0  0  0  0  0  0  0  0  0  0  0  0
    0.3608   -1.8272   -2.0257 C   0  0  0  0  0  0  0  0  0  0  0  0
    1.1860   -1.0192   -1.0670 C   0  0  0  0  0  0  0  0  0  0  0  0
   -0.9249   -1.5021    1.8643 C   0  0  0  0  0  0  0  0  0  0  0  0
    1.8580   -0.4674    1.1863 C   0  0  0  0  0  0  0  0  0  0  0  0
   -1.3695   -4.1494    0.3428 C   0  0  0  0  0  0  0  0  0  0  0  0
    2.0988   -0.0739   -1.5572 C   0  0  0  0  0  0  0  0  0  0  0  0
   -1.7489   -0.4590    1.1718 C   0  0  0  0  0  0  0  0  0  0  0  0
    2.7765    0.4599    0.6914 C   0  0  0  0  0  0  0  0  0  0  0  0
    2.8901    0.6634   -0.6797 C   0  0  0  0  0  0  0  0  0  0  0  0
   -1.2753    0.8457    1.0802 C   0  0  0  0  0  0  0  0  0  0  0  0
   -2.9816   -0.8036    0.6269 C   0  0  0  0  0  0  0  0  0  0  0  0
   -2.0427    1.8165    0.4365 C   0  0  0  0  0  0  0  0  0  0  0  0
   -3.7490    0.1671   -0.0168 C   0  0  0  0  0  0  0  0  0  0  0  0
   -3.2795    1.4772   -0.1120 C   0  0  0  0  0  0  0  0  0  0  0  0
    3.0423    2.4017    2.0383 C   0  0  0  0  0  0  0  0  0  0  0  0
    5.0899    1.0971   -1.4727 C   0  0  0  0  0  0  0  0  0  0  0  0
   -3.8327    2.5795   -2.1454 C   0  0  0  0  0  0  0  0  0  0  0  0
    0.6159   -2.9624    1.4117 H   0  0  0  0  0  0  0  0  0  0  0  0
   -0.6962   -3.6782   -2.1136 H   0  0  0  0  0  0  0  0  0  0  0  0
    0.8127   -3.7830   -1.1961 H   0  0  0  0  0  0  0  0  0  0  0  0
   -0.5191   -1.2414   -2.3198 H   0  0  0  0  0  0  0  0  0  0  0  0
    0.9387   -2.0420   -2.9326 H   0  0  0  0  0  0  0  0  0  0  0  0
   -0.3704   -1.0400    2.6910 H   0  0  0  0  0  0  0  0  0  0  0  0
   -1.5863   -2.2191    2.3661 H   0  0  0  0  0  0  0  0  0  0  0  0
    1.7961   -0.6217    2.2610 H   0  0  0  0  0  0  0  0  0  0  0  0
   -2.0039   -3.9975    1.2205 H   0  0  0  0  0  0  0  0  0  0  0  0
   -0.5863   -4.8697    0.6059 H   0  0  0  0  0  0  0  0  0  0  0  0
   -2.0133   -4.6075   -0.4169 H   0  0  0  0  0  0  0  0  0  0  0  0
    2.1987    0.0781   -2.6295 H   0  0  0  0  0  0  0  0  0  0  0  0
   -0.3321    1.1372    1.5309 H   0  0  0  0  0  0  0  0  0  0  0  0
   -3.3691   -1.8154    0.7033 H   0  0  0  0  0  0  0  0  0  0  0  0
   -4.7130   -0.1035   -0.4390 H   0  0  0  0  0  0  0  0  0  0  0  0
    3.7811    2.8422    2.7134 H   0  0  0  0  0  0  0  0  0  0  0  0
    2.1115    2.2440    2.5925 H   0  0  0  0  0  0  0  0  0  0  0  0
    2.8718    3.0927    1.2067 H   0  0  0  0  0  0  0  0  0  0  0  0
    5.0528    0.3212   -2.2439 H   0  0  0  0  0  0  0  0  0  0  0  0
    5.5727    0.7080   -0.5707 H   0  0  0  0  0  0  0  0  0  0  0  0
    5.6791    1.9374   -1.8498 H   0  0  0  0  0  0  0  0  0  0  0  0
   -2.2456    3.6398   -0.0915 H   0  0  0  0  0  0  0  0  0  0  0  0
   -4.1010    1.6624   -2.6794 H   0  0  0  0  0  0  0  0  0  0  0  0
   -2.7926    2.8462   -2.3578 H   0  0  0  0  0  0  0  0  0  0  0  0
   -4.4795    3.3892   -2.4942 H   0  0  0  0  0  0  0  0  0  0  0  0
  1 16  1  0  0  0  0
  1 23  1  0  0  0  0
  2 17  1  0  0  0  0
  2 24  1  0  0  0  0
  3 20  1  0  0  0  0
  3 47  1  0  0  0  0
  4 22  1  0  0  0  0
  4 25  1  0  0  0  0
  5  6  1  0  0  0  0
  5  8  1  0  0  0  0
  5 13  1  0  0  0  0
  6  7  1  0  0  0  0
  6 11  1  0  0  0  0
  6 26  1  0  0  0  0
  7 10  1  0  0  0  0
  7 12  2  0  0  0  0
  8  9  1  0  0  0  0
  8 27  1  0  0  0  0
  8 28  1  0  0  0  0
  9 10  1  0  0  0  0
  9 29  1  0  0  0  0
  9 30  1  0  0  0  0
 10 14  2  0  0  0  0
 11 15  1  0  0  0  0
 11 31  1  0  0  0  0
 11 32  1  0  0  0  0
 12 16  1  0  0  0  0
 12 33  1  0  0  0  0
 13 34  1  0  0  0  0
 13 35  1  0  0  0  0
 13 36  1  0  0  0  0
 14 17  1  0  0  0  0
 14 37  1  0  0  0  0
 15 18  2  0  0  0  0
 15 19  1  0  0  0  0
 16 17  2  0  0  0  0
 18 20  1  0  0  0  0
 18 38  1  0  0  0  0
 19 21  2  0  0  0  0
 19 39  1  0  0  0  0
 20 22  2  0  0  0  0
 21 22  1  0  0  0  0
 21 40  1  0  0  0  0
 23 41  1  0  0  0  0
 23 42  1  0  0  0  0
 23 43  1  0  0  0  0
 24 44  1  0  0  0  0
 24 45  1  0  0  0  0
 24 46  1  0  0  0  0
 25 48  1  0  0  0  0
 25 49  1  0  0  0  0
 25 50  1  0  0  0  0
M  END
> <PUBCHEM_COMPOUND_CID>
442304

> <PUBCHEM_CONFORMER_RMSD>
0.8

> <PUBCHEM_CONFORMER_DIVERSEORDER>
1
30
37
7
28
6
3
29
38
32
33
4
13
36
9
34
12
2
14
31
18
10
35
5
11
24
15
17
25
20
27
23
8
26
21
16
22
19

> <PUBCHEM_MMFF94_PARTIAL_CHARGES>
31
1 -0.36
10 -0.14
11 0.14
12 -0.15
13 0.27
14 -0.15
15 -0.14
16 0.08
17 0.08
18 -0.15
19 -0.15
2 -0.36
20 0.08
21 -0.15
22 0.08
23 0.28
24 0.28
25 0.28
3 -0.53
33 0.15
37 0.15
38 0.15
39 0.15
4 -0.36
40 0.15
47 0.45
5 -0.81
6 0.41
7 -0.14
8 0.27
9 0.14

> <PUBCHEM_EFFECTIVE_ROTOR_COUNT>
5.8

> <PUBCHEM_PHARMACOPHORE_FEATURES>
8
1 1 acceptor
1 2 acceptor
1 3 donor
1 4 acceptor
1 5 cation
6 15 18 19 20 21 22 rings
6 5 6 7 8 9 10 rings
6 7 10 12 14 16 17 rings

> <PUBCHEM_HEAVY_ATOM_COUNT>
25

> <PUBCHEM_ATOM_DEF_STEREO_COUNT>
1

> <PUBCHEM_ATOM_UDEF_STEREO_COUNT>
0

> <PUBCHEM_BOND_DEF_STEREO_COUNT>
0

> <PUBCHEM_BOND_UDEF_STEREO_COUNT>
0

> <PUBCHEM_ISOTOPIC_ATOM_COUNT>
0

> <PUBCHEM_COMPONENT_COUNT>
1

> <PUBCHEM_CACTVS_TAUTO_COUNT>
9

> <PUBCHEM_CONFORMER_ID>
0006BFC000000001

> <PUBCHEM_MMFF94_ENERGY>
103.2552

> <PUBCHEM_FEATURE_SELFOVERLAP>
40.62

> <PUBCHEM_SHAPE_FINGERPRINT>
10165383 225 17614790367137672595
10498660 4 18341324573992308933
10764073 3 13952007708919569026
10871710 139 17111574385320642120
11640471 11 17417801816676332886
11725454 13 18410020930823791834
12156800 1 16453830225809451201
12788726 201 17985547745287207890
13134695 92 17758405453611884650
13583140 156 18115305554320970570
13681431 1 17468746846162689646
13965767 371 16199868487416434381
14068700 675 13970273066510168912
14251764 3 18186239532873412656
14840074 17 15955292704259388624
14957384 54 18060698369093085708
15163728 17 18268698571144694053
17357779 13 17098910322113757095
17492 54 18339089168648775255
17980427 23 17471048085592365059
1813 80 17252583483075956210
18981168 100 17055234718302447611
20715895 44 17198282323728252261
21304303 282 17906498434333694279
21524375 3 18408882966575672914
21860390 5 17619087447794757981
22149856 69 17700392945111618177
22907989 373 18119797024111130748
23557571 272 18120633774082793947
23559900 14 18195817490115672746
238 59 17968098684790420581
3187 122 17543652832472434027
35225 105 18272094850840860444
5262128 65 17173207982209032631
633830 44 17168135745838561089
7097593 13 10086477133309997663
7808743 9 18199176313660955140
81228 2 17830440696698143986
9981440 41 18272926146061211395

> <PUBCHEM_SHAPE_MULTIPOLES>
486.03
7.15
4.05
2.02
2.8
2.11
0.29
-7.14
2.01
-2.72
0.5
0.76
-0.39
1.63

> <PUBCHEM_SHAPE_SELFOVERLAP>
1038.963

> <PUBCHEM_SHAPE_VOLUME>
271.3

> <PUBCHEM_COORDINATE_TYPE>
2
5
10

$$$$

