32490
  -OEChem-07051213133D

 33 32  0     0  0  0  0  0  0999 V2000
   -2.0637    0.2198   -0.3402 O   0  0  0  0  0  0  0  0  0  0  0  0
   -1.4305   -1.8769    0.3512 O   0  0  0  0  0  0  0  0  0  0  0  0
    3.4790    0.7489   -0.1849 N   0  0  0  0  0  0  0  0  0  0  0  0
    0.0762   -0.4143   -0.6376 N   0  0  0  0  0  0  0  0  0  0  0  0
    2.0481   -1.0762    0.6873 C   0  0  0  0  0  0  0  0  0  0  0  0
    2.5972    0.3373    0.9006 C   0  0  0  0  0  0  0  0  0  0  0  0
    1.2427   -1.2530   -0.5984 C   0  0  0  0  0  0  0  0  0  0  0  0
    4.6304   -0.1500   -0.2828 C   0  0  0  0  0  0  0  0  0  0  0  0
    3.9276    2.1288    0.0100 C   0  0  0  0  0  0  0  0  0  0  0  0
   -3.3971   -0.0400    0.1126 C   0  0  0  0  0  0  0  0  0  0  0  0
   -4.2573    1.1836   -0.1635 C   0  0  0  0  0  0  0  0  0  0  0  0
   -1.1652   -0.7939   -0.1600 C   0  0  0  0  0  0  0  0  0  0  0  0
   -5.6876    0.9861    0.3059 C   0  0  0  0  0  0  0  0  0  0  0  0
    2.8461   -1.8256    0.7279 H   0  0  0  0  0  0  0  0  0  0  0  0
    1.3952   -1.3062    1.5402 H   0  0  0  0  0  0  0  0  0  0  0  0
    3.1180    0.3729    1.8668 H   0  0  0  0  0  0  0  0  0  0  0  0
    1.7526    1.0337    0.9768 H   0  0  0  0  0  0  0  0  0  0  0  0
    1.8445   -1.0237   -1.4833 H   0  0  0  0  0  0  0  0  0  0  0  0
    0.9241   -2.2983   -0.6806 H   0  0  0  0  0  0  0  0  0  0  0  0
    0.1677    0.5156   -1.0353 H   0  0  0  0  0  0  0  0  0  0  0  0
    5.1622   -0.2530    0.6701 H   0  0  0  0  0  0  0  0  0  0  0  0
    5.3453    0.2280   -1.0239 H   0  0  0  0  0  0  0  0  0  0  0  0
    4.3464   -1.1433   -0.6429 H   0  0  0  0  0  0  0  0  0  0  0  0
    4.5073    2.2489    0.9325 H   0  0  0  0  0  0  0  0  0  0  0  0
    3.0704    2.8103    0.0492 H   0  0  0  0  0  0  0  0  0  0  0  0
    4.5471    2.4553   -0.8327 H   0  0  0  0  0  0  0  0  0  0  0  0
   -3.3776   -0.2524    1.1880 H   0  0  0  0  0  0  0  0  0  0  0  0
   -3.7970   -0.9103   -0.4209 H   0  0  0  0  0  0  0  0  0  0  0  0
   -3.8208    2.0593    0.3316 H   0  0  0  0  0  0  0  0  0  0  0  0
   -4.2446    1.4072   -1.2369 H   0  0  0  0  0  0  0  0  0  0  0  0
   -5.7246    0.8002    1.3842 H   0  0  0  0  0  0  0  0  0  0  0  0
   -6.2829    1.8798    0.0948 H   0  0  0  0  0  0  0  0  0  0  0  0
   -6.1546    0.1383   -0.2053 H   0  0  0  0  0  0  0  0  0  0  0  0
  1 10  1  0  0  0  0
  1 12  1  0  0  0  0
  2 12  2  0  0  0  0
  3  6  1  0  0  0  0
  3  8  1  0  0  0  0
  3  9  1  0  0  0  0
  4  7  1  0  0  0  0
  4 12  1  0  0  0  0
  4 20  1  0  0  0  0
  5  6  1  0  0  0  0
  5  7  1  0  0  0  0
  5 14  1  0  0  0  0
  5 15  1  0  0  0  0
  6 16  1  0  0  0  0
  6 17  1  0  0  0  0
  7 18  1  0  0  0  0
  7 19  1  0  0  0  0
  8 21  1  0  0  0  0
  8 22  1  0  0  0  0
  8 23  1  0  0  0  0
  9 24  1  0  0  0  0
  9 25  1  0  0  0  0
  9 26  1  0  0  0  0
 10 11  1  0  0  0  0
 10 27  1  0  0  0  0
 10 28  1  0  0  0  0
 11 13  1  0  0  0  0
 11 29  1  0  0  0  0
 11 30  1  0  0  0  0
 13 31  1  0  0  0  0
 13 32  1  0  0  0  0
 13 33  1  0  0  0  0
M  END
> <PUBCHEM_COMPOUND_CID>
32490

> <PUBCHEM_CONFORMER_RMSD>
0.8

> <PUBCHEM_CONFORMER_DIVERSEORDER>
1
189
145
204
144
59
214
157
180
135
28
113
183
4
203
169
158
44
188
219
147
190
41
91
185
213
53
162
13
17
195
175
191
82
33
161
48
36
205
122
120
87
148
111
206
95
72
75
22
3
197
139
119
100
108
15
114
207
51
152
94
208
8
209
211
2
181
149
199
187
23
50
26
130
43
166
88
20
125
140
184
68
116
129
124
71
55
35
31
70
9
103
215
134
165
210
133
168
11
96
179
21
174
18
176
69
52
212
86
78
19
16
126
172
37
110
137
98
159
123
171
62
164
93
109
90
117
194
74
138
186
216
92
202
128
79
5
57
167
173
99
146
153
154
196
200
156
136
104
42
102
89
218
27
127
193
38
39
10
81
163
217
177
142
60
29
170
76
80
67
132
63
66
30
118
47
61
46
12
49
121
64
40
107
106
160
32
143
151
201
155
56
115
24
131
112
85
65
101
198
6
105
34
25
97
58
192
141
150
54
178
7
77
83
14
73
45
84
182

> <PUBCHEM_MMFF94_PARTIAL_CHARGES>
11
1 -0.43
10 0.28
12 0.78
2 -0.57
20 0.37
3 -0.81
4 -0.73
6 0.27
7 0.3
8 0.27
9 0.27

> <PUBCHEM_EFFECTIVE_ROTOR_COUNT>
8

> <PUBCHEM_PHARMACOPHORE_FEATURES>
4
1 13 hydrophobe
1 2 acceptor
1 3 cation
1 4 donor

> <PUBCHEM_HEAVY_ATOM_COUNT>
13

> <PUBCHEM_ATOM_DEF_STEREO_COUNT>
0

> <PUBCHEM_ATOM_UDEF_STEREO_COUNT>
0

> <PUBCHEM_BOND_DEF_STEREO_COUNT>
0

> <PUBCHEM_BOND_UDEF_STEREO_COUNT>
0

> <PUBCHEM_ISOTOPIC_ATOM_COUNT>
0

> <PUBCHEM_COMPONENT_COUNT>
1

> <PUBCHEM_CACTVS_TAUTO_COUNT>
2

> <PUBCHEM_CONFORMER_ID>
00007EEA00000001

> <PUBCHEM_MMFF94_ENERGY>
9.7188

> <PUBCHEM_FEATURE_SELFOVERLAP>
20.297

> <PUBCHEM_SHAPE_FINGERPRINT>
100836 57 18410288116486695164
10354089 29 18131349717580960480
10447042 23 9439405692425639808
122479 349 18411700954573982139
12815109 37 10231751184597123580
14123255 352 18200882884967830077
14123260 362 17822002125675346697
1420 369 10375878488707533096
14251710 61 10303552622918176208
14252887 29 13973966545042264144
14445660 50 18131352972918244458
15501527 16 18410853252789408297
177051 138 9799422130682823232
17834072 32 18337670819437965056
17834072 8 18113610206222199302
20374829 77 8502370019109680261
20605781 2 18407760343992478097
20621476 66 18126565618879506796
20621476 91 17274240766320348537
20645477 56 18342452660448539767
20711983 171 18335423405344824614
20724930 31 10735873971634396903
21119208 17 15140684687157847449
212847 35 18260552250786860232
21354914 55 18413109463539800685
21501925 9 9871749096363635574
21652331 79 18413390951391312029
22485316 2 10303813181076704727
22959321 60 18201434731702297233
23402655 69 17749109997505188300
3060560 45 15430042071354965780
449060 50 18343019999626279511
449060 62 18261394481072982713
4990 188 5256399500807717181
633830 44 18341335488052444766

> <PUBCHEM_SHAPE_MULTIPOLES>
245.83
11.17
1.72
0.79
8.15
0.29
-0.06
6.44
-0.4
-0.82
-0.04
-0.25
-0.06
-0.02

> <PUBCHEM_SHAPE_SELFOVERLAP>
450.822

> <PUBCHEM_SHAPE_VOLUME>
157.2

> <PUBCHEM_COORDINATE_TYPE>
2
5
10

$$$$

