108014
  -OEChem-07051212593D

 39 43  0     1  0  0  0  0  0999 V2000
    4.8434   -0.9370   -0.8051 O   0  0  0  0  0  0  0  0  0  0  0  0
    3.1585   -1.9034    0.5785 O   0  0  0  0  0  0  0  0  0  0  0  0
    3.7893    1.0031    1.9481 O   0  0  0  0  0  0  0  0  0  0  0  0
    3.6085    0.1665   -2.4865 O   0  0  0  0  0  0  0  0  0  0  0  0
    1.2478    2.3467    0.3937 O   0  0  0  0  0  0  0  0  0  0  0  0
   -1.2812    2.5208    0.1065 O   0  0  0  0  0  0  0  0  0  0  0  0
   -1.8536   -2.7952    0.0844 O   0  0  0  0  0  0  0  0  0  0  0  0
   -3.8018    2.8783   -0.1558 O   0  0  0  0  0  0  0  0  0  0  0  0
   -4.3882   -2.6059   -0.1760 O   0  0  0  0  0  0  0  0  0  0  0  0
    3.5739    0.5003    0.6435 C   0  0  2  0  0  0  0  0  0  0  0  0
    4.1930   -0.8939    0.4783 C   0  0  2  0  0  0  0  0  0  0  0  0
    4.2485    1.3262   -0.4327 C   0  0  0  0  0  0  0  0  0  0  0  0
    2.1398    0.1636    0.4695 C   0  0  0  0  0  0  0  0  0  0  0  0
    4.6172    0.3003   -1.4920 C   0  0  1  0  0  0  0  0  0  0  0  0
    1.9820   -1.2118    0.4593 C   0  0  0  0  0  0  0  0  0  0  0  0
    1.0438    1.0025    0.3555 C   0  0  0  0  0  0  0  0  0  0  0  0
   -0.2278    0.4248    0.2269 C   0  0  0  0  0  0  0  0  0  0  0  0
    0.7404   -1.8075    0.3423 C   0  0  0  0  0  0  0  0  0  0  0  0
   -0.3784   -0.9727    0.2215 C   0  0  0  0  0  0  0  0  0  0  0  0
   -1.4095    1.3027    0.1011 C   0  0  0  0  0  0  0  0  0  0  0  0
   -1.7198   -1.5777    0.0890 C   0  0  0  0  0  0  0  0  0  0  0  0
   -2.7479    0.6926   -0.0321 C   0  0  0  0  0  0  0  0  0  0  0  0
   -2.8974   -0.6955   -0.0377 C   0  0  0  0  0  0  0  0  0  0  0  0
   -3.8736    1.5165   -0.1531 C   0  0  0  0  0  0  0  0  0  0  0  0
   -4.1727   -1.2596   -0.1642 C   0  0  0  0  0  0  0  0  0  0  0  0
   -5.1424    0.9502   -0.2788 C   0  0  0  0  0  0  0  0  0  0  0  0
   -5.2917   -0.4351   -0.2843 C   0  0  0  0  0  0  0  0  0  0  0  0
    4.9478   -1.1118    1.2424 H   0  0  0  0  0  0  0  0  0  0  0  0
    5.1684    1.7663   -0.0270 H   0  0  0  0  0  0  0  0  0  0  0  0
    3.6383    2.1419   -0.8299 H   0  0  0  0  0  0  0  0  0  0  0  0
    5.5398    0.5805   -2.0089 H   0  0  0  0  0  0  0  0  0  0  0  0
    4.0389    1.9402    1.8849 H   0  0  0  0  0  0  0  0  0  0  0  0
    0.6541   -2.8890    0.3408 H   0  0  0  0  0  0  0  0  0  0  0  0
    2.7498    0.3988   -2.0982 H   0  0  0  0  0  0  0  0  0  0  0  0
    2.1454    2.5390    0.7101 H   0  0  0  0  0  0  0  0  0  0  0  0
   -6.0208    1.5834   -0.3731 H   0  0  0  0  0  0  0  0  0  0  0  0
   -6.2847   -0.8660   -0.3826 H   0  0  0  0  0  0  0  0  0  0  0  0
   -2.8840    3.1751   -0.0672 H   0  0  0  0  0  0  0  0  0  0  0  0
   -3.5544   -3.0907   -0.0876 H   0  0  0  0  0  0  0  0  0  0  0  0
  1 11  1  0  0  0  0
  1 14  1  0  0  0  0
  2 11  1  0  0  0  0
  2 15  1  0  0  0  0
  3 10  1  0  0  0  0
  3 32  1  0  0  0  0
  4 14  1  0  0  0  0
  4 34  1  0  0  0  0
  5 16  1  0  0  0  0
  5 35  1  0  0  0  0
  6 20  2  0  0  0  0
  7 21  2  0  0  0  0
  8 24  1  0  0  0  0
  8 38  1  0  0  0  0
  9 25  1  0  0  0  0
  9 39  1  0  0  0  0
 10 11  1  0  0  0  0
 10 12  1  0  0  0  0
 10 13  1  0  0  0  0
 11 28  1  0  0  0  0
 12 14  1  0  0  0  0
 12 29  1  0  0  0  0
 12 30  1  0  0  0  0
 13 15  2  0  0  0  0
 13 16  1  0  0  0  0
 14 31  1  0  0  0  0
 15 18  1  0  0  0  0
 16 17  2  0  0  0  0
 17 19  1  0  0  0  0
 17 20  1  0  0  0  0
 18 19  2  0  0  0  0
 18 33  1  0  0  0  0
 19 21  1  0  0  0  0
 20 22  1  0  0  0  0
 21 23  1  0  0  0  0
 22 23  1  0  0  0  0
 22 24  2  0  0  0  0
 23 25  2  0  0  0  0
 24 26  1  0  0  0  0
 25 27  1  0  0  0  0
 26 27  2  0  0  0  0
 26 36  1  0  0  0  0
 27 37  1  0  0  0  0
M  END
> <PUBCHEM_COMPOUND_CID>
108014

> <PUBCHEM_CONFORMER_RMSD>
0.6

> <PUBCHEM_CONFORMER_DIVERSEORDER>
1

> <PUBCHEM_MMFF94_PARTIAL_CHARGES>
34
1 -0.56
10 0.42
11 0.56
13 -0.14
14 0.56
15 0.08
16 0.08
17 0.09
18 -0.15
19 0.09
2 -0.36
20 0.4
21 0.4
22 0.09
23 0.09
24 0.08
25 0.08
26 -0.15
27 -0.15
3 -0.68
32 0.4
33 0.15
34 0.4
35 0.45
36 0.15
37 0.15
38 0.45
39 0.45
4 -0.68
5 -0.53
6 -0.57
7 -0.57
8 -0.53
9 -0.53

> <PUBCHEM_EFFECTIVE_ROTOR_COUNT>
0.8

> <PUBCHEM_PHARMACOPHORE_FEATURES>
16
1 1 acceptor
1 2 acceptor
1 3 acceptor
1 3 donor
1 4 acceptor
1 4 donor
1 5 donor
1 6 acceptor
1 7 acceptor
1 8 donor
1 9 donor
5 1 10 11 12 14 rings
5 2 10 11 13 15 rings
6 13 15 16 17 18 19 rings
6 17 19 20 21 22 23 rings
6 22 23 24 25 26 27 rings

> <PUBCHEM_HEAVY_ATOM_COUNT>
27

> <PUBCHEM_ATOM_DEF_STEREO_COUNT>
3

> <PUBCHEM_ATOM_UDEF_STEREO_COUNT>
0

> <PUBCHEM_BOND_DEF_STEREO_COUNT>
0

> <PUBCHEM_BOND_UDEF_STEREO_COUNT>
0

> <PUBCHEM_ISOTOPIC_ATOM_COUNT>
0

> <PUBCHEM_COMPONENT_COUNT>
1

> <PUBCHEM_CACTVS_TAUTO_COUNT>
67

> <PUBCHEM_CONFORMER_ID>
0001A5EE00000001

> <PUBCHEM_MMFF94_ENERGY>
92.2114

> <PUBCHEM_FEATURE_SELFOVERLAP>
81.963

> <PUBCHEM_SHAPE_FINGERPRINT>
10498660 4 18411699893833117532
10616163 171 18410013247375582891
10670039 82 18272080630536511756
10759866 29 18202281446066619954
10906281 52 18336817711128205621
10967382 1 18338523044397790011
1100329 8 17110441347198473067
11578080 2 16880213108388633939
12107183 9 17694230271418183539
12236239 1 17775567537267168566
12390115 104 18115859884370117241
12403814 3 17418380211785831709
12788726 201 18041837440855824353
12954195 1 18042670879465003084
13140716 1 18051987917280436035
13224815 77 18342459244158449330
13583140 156 13840274658236031551
14528608 73 18343018878534333348
14790565 3 18048873293435715073
15196674 1 18410859862527727643
1601671 61 18342176665565177652
16752209 62 18411982455315163514
17349148 13 17989208148397125616
17844677 252 18334573538338129481
18681886 176 18412265004835427888
19591789 44 18410578357797579659
20645477 70 16805599270554881622
20715895 44 17697613438901682613
21033648 29 17458924677026504771
21033650 10 18125696080541573268
21267235 1 18410570657380335659
21279426 13 18264208178441259239
21857420 4 15728731865219558631
22122407 14 15769769187148644869
221357 26 18334579023279904349
22393880 68 18408323306355911326
23175994 123 17095241410867511785
23557571 272 18261105262090895910
23559900 14 18334576837379161384
239999 70 18113336389008913060
3004659 81 18272089448378877786
3298306 158 18113616832487104847
335352 9 18338521957433408527
34797466 226 17530966843578931833
350125 39 18341336703522947098
4214541 1 18410578417995719529
4409770 3 15466929930553255898
460360 51 18120354704198013883
474 4 17131542878222290806
495365 180 17313398803074701322
4990 188 18040711498157044212
5104073 3 18409736178987664339
6034566 193 15549906255070127892
6823239 73 18260549996382775560
9709674 26 18264774263932017427

> <PUBCHEM_SHAPE_MULTIPOLES>
502.82
11.23
2.58
1.08
1.47
0.01
0.36
0.25
2.28
2.08
-0.18
-1.77
0.15
-0.08

> <PUBCHEM_SHAPE_SELFOVERLAP>
1166.574

> <PUBCHEM_SHAPE_VOLUME>
253

> <PUBCHEM_COORDINATE_TYPE>
2
5
10

$$$$

