11953980
  -OEChem-07051213022D

112117  0     1  0  0  0  0  0999 V2000
    5.0393    4.4439    0.0000 O   0  0  0  0  0  0  0  0  0  0  0  0
    8.9962   -1.0000    0.0000 O   0  0  0  0  0  0  0  0  0  0  0  0
    8.9962   -2.0000    0.0000 O   0  0  0  0  0  0  0  0  0  0  0  0
    6.3981    0.5000    0.0000 O   0  0  0  0  0  0  0  0  0  0  0  0
    5.1900    3.9397    0.0000 O   0  0  0  0  0  0  0  0  0  0  0  0
    2.8680    3.5242    0.0000 O   0  0  0  0  0  0  0  0  0  0  0  0
    7.3981    1.5000    0.0000 O   0  0  0  0  0  0  0  0  0  0  0  0
   11.5942    3.5000    0.0000 O   0  0  0  0  0  0  0  0  0  0  0  0
   13.3263    3.5000    0.0000 O   0  0  0  0  0  0  0  0  0  0  0  0
   13.3263    0.5000    0.0000 O   0  0  0  0  0  0  0  0  0  0  0  0
   15.0583    1.5000    0.0000 O   0  0  0  0  0  0  0  0  0  0  0  0
    5.5320    3.0000    0.0000 C   0  0  1  0  0  0  0  0  0  0  0  0
    4.6381    3.5347    0.0000 C   0  0  1  0  0  0  0  0  0  0  0  0
    5.5320    2.0000    0.0000 C   0  0  1  0  0  0  0  0  0  0  0  0
    3.7320    3.0208    0.0000 C   0  0  1  0  0  0  0  0  0  0  0  0
    6.3981    3.5000    0.0000 C   0  0  0  0  0  0  0  0  0  0  0  0
    8.1301   -1.5000    0.0000 C   0  0  2  0  0  0  0  0  0  0  0  0
    7.2641    0.0000    0.0000 C   0  0  2  0  0  0  0  0  0  0  0  0
    7.2641   -1.0000    0.0000 C   0  0  0  0  0  0  0  0  0  0  0  0
    8.1301    0.5000    0.0000 C   0  0  0  0  0  0  0  0  0  0  0  0
    3.7320    1.9792    0.0000 C   0  0  0  0  0  0  0  0  0  0  0  0
    4.6381    1.4653    0.0000 C   0  0  0  0  0  0  0  0  0  0  0  0
    6.0330    4.4243    0.0000 C   0  0  0  0  0  0  0  0  0  0  0  0
    8.9962    0.0000    0.0000 C   0  0  1  0  0  0  0  0  0  0  0  0
    8.9962   -3.0000    0.0000 C   0  0  1  0  0  0  0  0  0  0  0  0
    6.3981    1.5000    0.0000 C   0  0  0  0  0  0  0  0  0  0  0  0
    8.1301   -3.5000    0.0000 C   0  0  2  0  0  0  0  0  0  0  0  0
    7.2641   -2.0000    0.0000 C   0  0  0  0  0  0  0  0  0  0  0  0
    9.8622   -3.5000    0.0000 C   0  0  0  0  0  0  0  0  0  0  0  0
    9.8622    0.5000    0.0000 C   0  0  0  0  0  0  0  0  0  0  0  0
    7.2641    3.0000    0.0000 C   0  0  0  0  0  0  0  0  0  0  0  0
    7.2641   -3.0000    0.0000 C   0  0  0  0  0  0  0  0  0  0  0  0
    2.8680    1.4759    0.0000 C   0  0  0  0  0  0  0  0  0  0  0  0
    8.1301   -4.5000    0.0000 C   0  0  0  0  0  0  0  0  0  0  0  0
    9.8622    1.5000    0.0000 C   0  0  0  0  0  0  0  0  0  0  0  0
   10.7282    3.0000    0.0000 C   0  0  1  0  0  0  0  0  0  0  0  0
    8.1301    3.5000    0.0000 C   0  0  0  0  0  0  0  0  0  0  0  0
    9.8622   -4.5000    0.0000 C   0  0  0  0  0  0  0  0  0  0  0  0
   10.7282   -3.0000    0.0000 C   0  0  0  0  0  0  0  0  0  0  0  0
    9.8622    3.5000    0.0000 C   0  0  2  0  0  0  0  0  0  0  0  0
   10.7282    2.0000    0.0000 C   0  0  0  0  0  0  0  0  0  0  0  0
    2.0000    3.0275    0.0000 C   0  0  0  0  0  0  0  0  0  0  0  0
    8.9962    3.0000    0.0000 C   0  0  0  0  0  0  0  0  0  0  0  0
   12.4602    3.0000    0.0000 C   0  0  2  0  0  0  0  0  0  0  0  0
   12.4602    2.0000    0.0000 C   0  0  0  0  0  0  0  0  0  0  0  0
   13.3263    1.5000    0.0000 C   0  0  1  0  0  0  0  0  0  0  0  0
   14.1923    2.0000    0.0000 C   0  0  2  0  0  0  0  0  0  0  0  0
   14.1923    3.0000    0.0000 C   0  0  2  0  0  0  0  0  0  0  0  0
    9.8622    4.5000    0.0000 C   0  0  0  0  0  0  0  0  0  0  0  0
   11.5942    1.5000    0.0000 C   0  0  0  0  0  0  0  0  0  0  0  0
   15.0583    3.5000    0.0000 C   0  0  0  0  0  0  0  0  0  0  0  0
   14.1923    0.0000    0.0000 C   0  0  0  0  0  0  0  0  0  0  0  0
    4.0077    4.1048    0.0000 H   0  0  0  0  0  0  0  0  0  0  0  0
    5.5320    1.1500    0.0000 H   0  0  0  0  0  0  0  0  0  0  0  0
    3.1945    2.7118    0.0000 H   0  0  0  0  0  0  0  0  0  0  0  0
    6.5280   -0.4250    0.0000 H   0  0  0  0  0  0  0  0  0  0  0  0
    6.6535   -0.8923    0.0000 H   0  0  0  0  0  0  0  0  0  0  0  0
    7.0520   -1.5826    0.0000 H   0  0  0  0  0  0  0  0  0  0  0  0
    8.5287    0.9749    0.0000 H   0  0  0  0  0  0  0  0  0  0  0  0
    7.7316    0.9749    0.0000 H   0  0  0  0  0  0  0  0  0  0  0  0
    4.6453    0.8454    0.0000 H   0  0  0  0  0  0  0  0  0  0  0  0
    6.6346    4.5742    0.0000 H   0  0  0  0  0  0  0  0  0  0  0  0
    5.9635    5.0404    0.0000 H   0  0  0  0  0  0  0  0  0  0  0  0
    9.7323   -0.4250    0.0000 H   0  0  0  0  0  0  0  0  0  0  0  0
    9.5331   -2.6900    0.0000 H   0  0  0  0  0  0  0  0  0  0  0  0
    8.6671   -3.8100    0.0000 H   0  0  0  0  0  0  0  0  0  0  0  0
    6.7272   -1.6900    0.0000 H   0  0  0  0  0  0  0  0  0  0  0  0
    4.6074    4.1518    0.0000 H   0  0  0  0  0  0  0  0  0  0  0  0
   10.3991   -3.8100    0.0000 H   0  0  0  0  0  0  0  0  0  0  0  0
   10.0742   -0.0826    0.0000 H   0  0  0  0  0  0  0  0  0  0  0  0
   10.4728    0.6077    0.0000 H   0  0  0  0  0  0  0  0  0  0  0  0
    7.5742    2.4631    0.0000 H   0  0  0  0  0  0  0  0  0  0  0  0
    6.7272   -3.3100    0.0000 H   0  0  0  0  0  0  0  0  0  0  0  0
    2.5559    2.0116    0.0000 H   0  0  0  0  0  0  0  0  0  0  0  0
    2.3322    1.1638    0.0000 H   0  0  0  0  0  0  0  0  0  0  0  0
    3.1800    0.9401    0.0000 H   0  0  0  0  0  0  0  0  0  0  0  0
    7.5101   -4.5000    0.0000 H   0  0  0  0  0  0  0  0  0  0  0  0
    8.1301   -5.1200    0.0000 H   0  0  0  0  0  0  0  0  0  0  0  0
    8.7501   -4.5000    0.0000 H   0  0  0  0  0  0  0  0  0  0  0  0
    9.3252    1.8100    0.0000 H   0  0  0  0  0  0  0  0  0  0  0  0
   10.7282    3.6200    0.0000 H   0  0  0  0  0  0  0  0  0  0  0  0
    8.1301    4.1200    0.0000 H   0  0  0  0  0  0  0  0  0  0  0  0
    9.2422   -4.5000    0.0000 H   0  0  0  0  0  0  0  0  0  0  0  0
    9.8622   -5.1200    0.0000 H   0  0  0  0  0  0  0  0  0  0  0  0
   10.4822   -4.5000    0.0000 H   0  0  0  0  0  0  0  0  0  0  0  0
   11.0382   -3.5369    0.0000 H   0  0  0  0  0  0  0  0  0  0  0  0
   11.2651   -2.6900    0.0000 H   0  0  0  0  0  0  0  0  0  0  0  0
   10.4182   -2.4631    0.0000 H   0  0  0  0  0  0  0  0  0  0  0  0
   10.3991    3.8100    0.0000 H   0  0  0  0  0  0  0  0  0  0  0  0
    1.6921    3.5656    0.0000 H   0  0  0  0  0  0  0  0  0  0  0  0
    1.4619    2.7196    0.0000 H   0  0  0  0  0  0  0  0  0  0  0  0
    2.3079    2.4894    0.0000 H   0  0  0  0  0  0  0  0  0  0  0  0
    8.9962    2.3800    0.0000 H   0  0  0  0  0  0  0  0  0  0  0  0
   11.9233    2.6900    0.0000 H   0  0  0  0  0  0  0  0  0  0  0  0
   11.8497    2.1077    0.0000 H   0  0  0  0  0  0  0  0  0  0  0  0
   12.2482    1.4174    0.0000 H   0  0  0  0  0  0  0  0  0  0  0  0
   13.8632    1.1900    0.0000 H   0  0  0  0  0  0  0  0  0  0  0  0
   14.7292    2.3100    0.0000 H   0  0  0  0  0  0  0  0  0  0  0  0
   14.1923    3.6200    0.0000 H   0  0  0  0  0  0  0  0  0  0  0  0
   10.4822    4.5000    0.0000 H   0  0  0  0  0  0  0  0  0  0  0  0
    9.8622    5.1200    0.0000 H   0  0  0  0  0  0  0  0  0  0  0  0
    9.2422    4.5000    0.0000 H   0  0  0  0  0  0  0  0  0  0  0  0
   11.2842    0.9631    0.0000 H   0  0  0  0  0  0  0  0  0  0  0  0
   12.1312    1.1900    0.0000 H   0  0  0  0  0  0  0  0  0  0  0  0
   11.9042    2.0369    0.0000 H   0  0  0  0  0  0  0  0  0  0  0  0
   15.3683    2.9631    0.0000 H   0  0  0  0  0  0  0  0  0  0  0  0
   15.5953    3.8100    0.0000 H   0  0  0  0  0  0  0  0  0  0  0  0
   14.7483    4.0369    0.0000 H   0  0  0  0  0  0  0  0  0  0  0  0
   15.5953    1.8100    0.0000 H   0  0  0  0  0  0  0  0  0  0  0  0
   13.8823   -0.5369    0.0000 H   0  0  0  0  0  0  0  0  0  0  0  0
   14.7292   -0.3100    0.0000 H   0  0  0  0  0  0  0  0  0  0  0  0
   14.5023    0.5369    0.0000 H   0  0  0  0  0  0  0  0  0  0  0  0
  1 13  1  0  0  0  0
  1 23  1  0  0  0  0
  2 17  1  0  0  0  0
  2 24  1  0  0  0  0
 17  3  1  6  0  0  0
  3 25  1  0  0  0  0
  4 18  1  0  0  0  0
  4 26  1  0  0  0  0
 12  5  1  6  0  0  0
  5 68  1  0  0  0  0
 15  6  1  1  0  0  0
  6 42  1  0  0  0  0
  7 26  2  0  0  0  0
 36  8  1  6  0  0  0
 44  8  1  6  0  0  0
  9 44  1  0  0  0  0
  9 48  1  0  0  0  0
 46 10  1  1  0  0  0
 10 52  1  0  0  0  0
 47 11  1  6  0  0  0
 11109  1  0  0  0  0
 12 13  1  0  0  0  0
 12 14  1  0  0  0  0
 12 16  1  0  0  0  0
 13 15  1  0  0  0  0
 13 53  1  6  0  0  0
 14 22  1  0  0  0  0
 14 26  1  0  0  0  0
 14 54  1  1  0  0  0
 15 21  1  0  0  0  0
 15 55  1  0  0  0  0
 16 23  1  0  0  0  0
 16 31  2  0  0  0  0
 17 19  1  0  0  0  0
 17 28  1  0  0  0  0
 18 19  1  0  0  0  0
 18 20  1  0  0  0  0
 18 56  1  6  0  0  0
 19 57  1  0  0  0  0
 19 58  1  0  0  0  0
 20 24  1  0  0  0  0
 20 59  1  0  0  0  0
 20 60  1  0  0  0  0
 21 22  2  0  0  0  0
 21 33  1  0  0  0  0
 22 61  1  0  0  0  0
 23 62  1  0  0  0  0
 23 63  1  0  0  0  0
 24 30  1  0  0  0  0
 24 64  1  6  0  0  0
 25 27  1  0  0  0  0
 25 29  1  6  0  0  0
 25 65  1  0  0  0  0
 27 32  1  0  0  0  0
 27 34  1  1  0  0  0
 27 66  1  0  0  0  0
 28 32  2  0  0  0  0
 28 67  1  0  0  0  0
 29 38  1  0  0  0  0
 29 39  1  0  0  0  0
 29 69  1  0  0  0  0
 30 35  1  0  0  0  0
 30 70  1  0  0  0  0
 30 71  1  0  0  0  0
 31 37  1  0  0  0  0
 31 72  1  0  0  0  0
 32 73  1  0  0  0  0
 33 74  1  0  0  0  0
 33 75  1  0  0  0  0
 33 76  1  0  0  0  0
 34 77  1  0  0  0  0
 34 78  1  0  0  0  0
 34 79  1  0  0  0  0
 35 41  2  0  0  0  0
 35 80  1  0  0  0  0
 36 40  1  0  0  0  0
 36 41  1  0  0  0  0
 36 81  1  0  0  0  0
 37 43  2  0  0  0  0
 37 82  1  0  0  0  0
 38 83  1  0  0  0  0
 38 84  1  0  0  0  0
 38 85  1  0  0  0  0
 39 86  1  0  0  0  0
 39 87  1  0  0  0  0
 39 88  1  0  0  0  0
 40 43  1  0  0  0  0
 40 49  1  6  0  0  0
 40 89  1  0  0  0  0
 41 50  1  0  0  0  0
 42 90  1  0  0  0  0
 42 91  1  0  0  0  0
 42 92  1  0  0  0  0
 43 93  1  0  0  0  0
 44 45  1  0  0  0  0
 44 94  1  0  0  0  0
 45 46  1  0  0  0  0
 45 95  1  0  0  0  0
 45 96  1  0  0  0  0
 46 47  1  0  0  0  0
 46 97  1  0  0  0  0
 47 48  1  0  0  0  0
 47 98  1  0  0  0  0
 48 51  1  1  0  0  0
 48 99  1  0  0  0  0
 49100  1  0  0  0  0
 49101  1  0  0  0  0
 49102  1  0  0  0  0
 50103  1  0  0  0  0
 50104  1  0  0  0  0
 50105  1  0  0  0  0
 51106  1  0  0  0  0
 51107  1  0  0  0  0
 51108  1  0  0  0  0
 52110  1  0  0  0  0
 52111  1  0  0  0  0
 52112  1  0  0  0  0
M  END
> <PUBCHEM_COMPOUND_CID>
11953980

> <PUBCHEM_COMPOUND_CANONICALIZED>
1

> <PUBCHEM_CACTVS_COMPLEXITY>
1450

> <PUBCHEM_CACTVS_HBOND_ACCEPTOR>
11

> <PUBCHEM_CACTVS_HBOND_DONOR>
2

> <PUBCHEM_CACTVS_ROTATABLE_BOND>
5

> <PUBCHEM_CACTVS_SUBSKEYS>
AAADcfB8PAAAAAAAAAAAAAAAAAAAASAAAAAkSIEAAAAAAEAAAAAAGgAACAAADVSwgAMCCAAABgCIAiDSCAAAAAAgAAAICAEAAAgZFBYAIQAiUAAF4AAPsAPK7OzOgAAAAAAAAAAAAAAAAAAAAAAAAAAAAA==

> <PUBCHEM_IUPAC_INCHI>
InChI=1S/C41H60O11/c1-22(2)35-25(5)15-16-40(52-35)20-30-18-29(51-40)14-13-24(4)36(50-33-19-32(45-8)34(42)27(7)48-33)23(3)11-10-12-28-21-47-38-37(46-9)26(6)17-31(39(43)49-30)41(28,38)44/h10-13,15-17,22-23,25,27,29-38,42,44H,14,18-21H2,1-9H3/b11-10+,24-13+,28-12+/t23-,25-,27-,29+,30-,31-,32-,33-,34-,35+,36-,37+,38+,40+,41+/m0/s1

> <PUBCHEM_IUPAC_INCHIKEY>
MNFOHFDPWDCPHJ-UIQVAGRUSA-N

> <PUBCHEM_XLOGP3_AA>
3.6

> <PUBCHEM_EXACT_MASS>
728.413563

> <PUBCHEM_MOLECULAR_FORMULA>
C41H60O11

> <PUBCHEM_MOLECULAR_WEIGHT>
728.9085

> <PUBCHEM_OPENEYE_CAN_SMILES>
CC1C=CC=C2COC3C2(C(C=C(C3OC)C)C(=O)OC4CC(CC=C(C1OC5CC(C(C(O5)C)O)OC)C)OC6(C4)C=CC(C(O6)C(C)C)C)O

> <PUBCHEM_OPENEYE_ISO_SMILES>
C[C@H]1/C=C/C=C/2\CO[C@H]3[C@@]2([C@@H](C=C([C@H]3OC)C)C(=O)O[C@H]4C[C@@H](C/C=C(/[C@H]1O[C@H]5C[C@@H]([C@H]([C@@H](O5)C)O)OC)\C)O[C@]6(C4)C=C[C@@H]([C@H](O6)C(C)C)C)O

> <PUBCHEM_CACTVS_TPSA>
131

> <PUBCHEM_MONOISOTOPIC_WEIGHT>
728.413563

> <PUBCHEM_TOTAL_CHARGE>
0

> <PUBCHEM_HEAVY_ATOM_COUNT>
52

> <PUBCHEM_ATOM_DEF_STEREO_COUNT>
15

> <PUBCHEM_ATOM_UDEF_STEREO_COUNT>
0

> <PUBCHEM_BOND_DEF_STEREO_COUNT>
3

> <PUBCHEM_BOND_UDEF_STEREO_COUNT>
0

> <PUBCHEM_ISOTOPIC_ATOM_COUNT>
0

> <PUBCHEM_COMPONENT_COUNT>
1

> <PUBCHEM_CACTVS_TAUTO_COUNT>
1

> <PUBCHEM_COORDINATE_TYPE>
1
5
255

> <PUBCHEM_BONDANNOTATIONS>
46  10  5
47  11  6
13  53  6
14  54  5
18  56  6
24  64  6
25  29  6
27  34  5
17  3  6
40  49  6
48  51  5
12  5  6
15  6  5
36  8  6
44  8  6

$$$$

