443042
  -OEChem-07051213003D

 18 17  0     0  0  0  0  0  0999 V2000
   -2.9364    0.8961   -0.0133 O   0  0  0  0  0  0  0  0  0  0  0  0
    2.2480    0.5804    0.0024 N   0  0  0  0  0  0  0  0  0  0  0  0
   -0.1686    0.1683    0.0064 C   0  0  0  0  0  0  0  0  0  0  0  0
    1.2259   -0.4600   -0.0298 C   0  0  0  0  0  0  0  0  0  0  0  0
   -1.2779   -0.8810   -0.0032 C   0  0  0  0  0  0  0  0  0  0  0  0
    3.5818   -0.0030    0.0143 C   0  0  0  0  0  0  0  0  0  0  0  0
   -2.6728   -0.3008    0.0232 C   0  0  0  0  0  0  0  0  0  0  0  0
   -0.2736    0.7927    0.9034 H   0  0  0  0  0  0  0  0  0  0  0  0
   -0.2949    0.8381   -0.8543 H   0  0  0  0  0  0  0  0  0  0  0  0
    1.3280   -1.0586   -0.9428 H   0  0  0  0  0  0  0  0  0  0  0  0
    1.3405   -1.1321    0.8295 H   0  0  0  0  0  0  0  0  0  0  0  0
   -1.2020   -1.5051   -0.9003 H   0  0  0  0  0  0  0  0  0  0  0  0
   -1.1823   -1.5344    0.8711 H   0  0  0  0  0  0  0  0  0  0  0  0
    2.1250    1.1559    0.8351 H   0  0  0  0  0  0  0  0  0  0  0  0
    4.3290    0.7966    0.0266 H   0  0  0  0  0  0  0  0  0  0  0  0
    3.7596   -0.6048   -0.8830 H   0  0  0  0  0  0  0  0  0  0  0  0
    3.7411   -0.6255    0.9009 H   0  0  0  0  0  0  0  0  0  0  0  0
   -3.4841   -1.0481    0.0663 H   0  0  0  0  0  0  0  0  0  0  0  0
  1  7  2  0  0  0  0
  2  4  1  0  0  0  0
  2  6  1  0  0  0  0
  2 14  1  0  0  0  0
  3  4  1  0  0  0  0
  3  5  1  0  0  0  0
  3  8  1  0  0  0  0
  3  9  1  0  0  0  0
  4 10  1  0  0  0  0
  4 11  1  0  0  0  0
  5  7  1  0  0  0  0
  5 12  1  0  0  0  0
  5 13  1  0  0  0  0
  6 15  1  0  0  0  0
  6 16  1  0  0  0  0
  6 17  1  0  0  0  0
  7 18  1  0  0  0  0
M  END
> <PUBCHEM_COMPOUND_CID>
443042

> <PUBCHEM_CONFORMER_RMSD>
0.6

> <PUBCHEM_CONFORMER_DIVERSEORDER>
1
12
15
20
4
9
17
13
18
5
10
19
7
2
3
11
6
14
16
8

> <PUBCHEM_MMFF94_PARTIAL_CHARGES>
8
1 -0.57
14 0.36
18 0.06
2 -0.9
4 0.27
5 0.06
6 0.27
7 0.45

> <PUBCHEM_EFFECTIVE_ROTOR_COUNT>
4

> <PUBCHEM_PHARMACOPHORE_FEATURES>
3
1 1 acceptor
1 2 cation
1 2 donor

> <PUBCHEM_HEAVY_ATOM_COUNT>
7

> <PUBCHEM_ATOM_DEF_STEREO_COUNT>
0

> <PUBCHEM_ATOM_UDEF_STEREO_COUNT>
0

> <PUBCHEM_BOND_DEF_STEREO_COUNT>
0

> <PUBCHEM_BOND_UDEF_STEREO_COUNT>
0

> <PUBCHEM_ISOTOPIC_ATOM_COUNT>
0

> <PUBCHEM_COMPONENT_COUNT>
1

> <PUBCHEM_CACTVS_TAUTO_COUNT>
2

> <PUBCHEM_CONFORMER_ID>
0006C2A200000001

> <PUBCHEM_MMFF94_ENERGY>
-0.5942

> <PUBCHEM_FEATURE_SELFOVERLAP>
15.223

> <PUBCHEM_SHAPE_FINGERPRINT>
11062470 55 15285356223532240458
14325111 11 18410573968214376450
14390081 3 18334579035843124417
29004967 10 14189579645382640295
5460574 1 9367351431013028519

> <PUBCHEM_SHAPE_MULTIPOLES>
133.21
5.71
0.88
0.59
2.03
0.02
0
-0.78
-0.03
-0.34
0
0.01
0.02
0.01

> <PUBCHEM_SHAPE_SELFOVERLAP>
231.692

> <PUBCHEM_SHAPE_VOLUME>
88.2

> <PUBCHEM_COORDINATE_TYPE>
2
5
10

$$$$

