16318
  -OEChem-07051213052D

 22 23  0     0  0  0  0  0  0999 V2000
    2.0000   -0.5000    0.0000 Cl  0  0  0  0  0  0  0  0  0  0  0  0
    5.4641    0.5000    0.0000 Cl  0  0  0  0  0  0  0  0  0  0  0  0
    5.4641   -0.5000    0.0000 Cl  0  0  0  0  0  0  0  0  0  0  0  0
    2.0000    0.5000    0.0000 Cl  0  0  0  0  0  0  0  0  0  0  0  0
    5.4641   -2.5000    0.0000 Cl  0  0  0  0  0  0  0  0  0  0  0  0
    2.0000    2.5000    0.0000 Cl  0  0  0  0  0  0  0  0  0  0  0  0
    2.0000   -2.5000    0.0000 Cl  0  0  0  0  0  0  0  0  0  0  0  0
    5.4641    2.5000    0.0000 Cl  0  0  0  0  0  0  0  0  0  0  0  0
    3.7320   -3.5000    0.0000 Cl  0  0  0  0  0  0  0  0  0  0  0  0
    3.7320    3.5000    0.0000 Cl  0  0  0  0  0  0  0  0  0  0  0  0
    3.7320   -0.5000    0.0000 C   0  0  0  0  0  0  0  0  0  0  0  0
    3.7320    0.5000    0.0000 C   0  0  0  0  0  0  0  0  0  0  0  0
    2.8660   -1.0000    0.0000 C   0  0  0  0  0  0  0  0  0  0  0  0
    4.5981    1.0000    0.0000 C   0  0  0  0  0  0  0  0  0  0  0  0
    4.5981   -1.0000    0.0000 C   0  0  0  0  0  0  0  0  0  0  0  0
    2.8660    1.0000    0.0000 C   0  0  0  0  0  0  0  0  0  0  0  0
    4.5981   -2.0000    0.0000 C   0  0  0  0  0  0  0  0  0  0  0  0
    2.8660    2.0000    0.0000 C   0  0  0  0  0  0  0  0  0  0  0  0
    2.8660   -2.0000    0.0000 C   0  0  0  0  0  0  0  0  0  0  0  0
    4.5981    2.0000    0.0000 C   0  0  0  0  0  0  0  0  0  0  0  0
    3.7320   -2.5000    0.0000 C   0  0  0  0  0  0  0  0  0  0  0  0
    3.7320    2.5000    0.0000 C   0  0  0  0  0  0  0  0  0  0  0  0
  1 13  1  0  0  0  0
  2 14  1  0  0  0  0
  3 15  1  0  0  0  0
  4 16  1  0  0  0  0
  5 17  1  0  0  0  0
  6 18  1  0  0  0  0
  7 19  1  0  0  0  0
  8 20  1  0  0  0  0
  9 21  1  0  0  0  0
 10 22  1  0  0  0  0
 11 12  1  0  0  0  0
 11 13  2  0  0  0  0
 11 15  1  0  0  0  0
 12 14  2  0  0  0  0
 12 16  1  0  0  0  0
 13 19  1  0  0  0  0
 14 20  1  0  0  0  0
 15 17  2  0  0  0  0
 16 18  2  0  0  0  0
 17 21  1  0  0  0  0
 18 22  1  0  0  0  0
 19 21  2  0  0  0  0
 20 22  2  0  0  0  0
M  END
> <PUBCHEM_COMPOUND_CID>
16318

> <PUBCHEM_COMPOUND_CANONICALIZED>
1

> <PUBCHEM_CACTVS_COMPLEXITY>
326

> <PUBCHEM_CACTVS_HBOND_ACCEPTOR>
0

> <PUBCHEM_CACTVS_HBOND_DONOR>
0

> <PUBCHEM_CACTVS_ROTATABLE_BOND>
1

> <PUBCHEM_CACTVS_SUBSKEYS>
AAADcQBwAAAHgAAAAAAAAAAAAAAAAAAAAAAwYAAAAAAAAAABQAAACAIAAAAADAIAGCAAAIAAAACAAgBAAAACAAAgBAAAikAAAogIICKBEhCAIAAggAAIiAcAgMAOhAAQIACBAAQIACBAAQIACAAAAAAAAA==

> <PUBCHEM_IUPAC_OPENEYE_NAME>
1,2,3,4,5-pentachloro-6-(2,3,4,5,6-pentachlorophenyl)benzene

> <PUBCHEM_IUPAC_CAS_NAME>
1,2,3,4,5-pentachloro-6-(2,3,4,5,6-pentachlorophenyl)benzene

> <PUBCHEM_IUPAC_NAME>
1,2,3,4,5-pentachloro-6-(2,3,4,5,6-pentachlorophenyl)benzene

> <PUBCHEM_IUPAC_SYSTEMATIC_NAME>
1,2,3,4,5-pentakis(chloranyl)-6-[2,3,4,5,6-pentakis(chloranyl)phenyl]benzene

> <PUBCHEM_IUPAC_TRADITIONAL_NAME>
1,2,3,4,5-pentachloro-6-(2,3,4,5,6-pentachlorophenyl)benzene

> <PUBCHEM_IUPAC_INCHI>
InChI=1S/C12Cl10/c13-3-1(4(14)8(18)11(21)7(3)17)2-5(15)9(19)12(22)10(20)6(2)16

> <PUBCHEM_IUPAC_INCHIKEY>
ONXPZLFXDMAPRO-UHFFFAOYSA-N

> <PUBCHEM_XLOGP3>
8.3

> <PUBCHEM_EXACT_MASS>
497.682627

> <PUBCHEM_MOLECULAR_FORMULA>
C12Cl10

> <PUBCHEM_MOLECULAR_WEIGHT>
498.6584

> <PUBCHEM_OPENEYE_CAN_SMILES>
C1(=C(C(=C(C(=C1Cl)Cl)Cl)Cl)Cl)C2=C(C(=C(C(=C2Cl)Cl)Cl)Cl)Cl

> <PUBCHEM_OPENEYE_ISO_SMILES>
C1(=C(C(=C(C(=C1Cl)Cl)Cl)Cl)Cl)C2=C(C(=C(C(=C2Cl)Cl)Cl)Cl)Cl

> <PUBCHEM_CACTVS_TPSA>
0

> <PUBCHEM_MONOISOTOPIC_WEIGHT>
493.688527

> <PUBCHEM_TOTAL_CHARGE>
0

> <PUBCHEM_HEAVY_ATOM_COUNT>
22

> <PUBCHEM_ATOM_DEF_STEREO_COUNT>
0

> <PUBCHEM_ATOM_UDEF_STEREO_COUNT>
0

> <PUBCHEM_BOND_DEF_STEREO_COUNT>
0

> <PUBCHEM_BOND_UDEF_STEREO_COUNT>
0

> <PUBCHEM_ISOTOPIC_ATOM_COUNT>
0

> <PUBCHEM_COMPONENT_COUNT>
1

> <PUBCHEM_CACTVS_TAUTO_COUNT>
1

> <PUBCHEM_COORDINATE_TYPE>
1
5
255

> <PUBCHEM_BONDANNOTATIONS>
11  13  8
11  15  8
12  14  8
12  16  8
13  19  8
14  20  8
15  17  8
16  18  8
17  21  8
18  22  8
19  21  8
20  22  8

$$$$

