46173776
  -OEChem-07051212553D

 80 84  0     1  0  0  0  0  0999 V2000
   -6.9288    1.2252   -0.4572 O   0  0  0  0  0  0  0  0  0  0  0  0
    4.8308   -2.8286    1.3099 O   0  0  0  0  0  0  0  0  0  0  0  0
    3.7670    2.7188   -1.4395 O   0  0  0  0  0  0  0  0  0  0  0  0
   -0.5467   -0.9737    0.1434 C   0  0  1  0  0  0  0  0  0  0  0  0
    0.9178   -0.8797   -0.5624 C   0  0  1  0  0  0  0  0  0  0  0  0
   -1.2155    0.4632    0.1230 C   0  0  1  0  0  0  0  0  0  0  0  0
    1.7833    0.1848    0.2292 C   0  0  1  0  0  0  0  0  0  0  0  0
   -2.7548    0.5355    0.5383 C   0  0  2  0  0  0  0  0  0  0  0  0
    3.2329    0.2156   -0.2916 C   0  0  2  0  0  0  0  0  0  0  0  0
    3.9139   -1.1621   -0.1355 C   0  0  1  0  0  0  0  0  0  0  0  0
   -3.5258   -0.5088   -0.3567 C   0  0  1  0  0  0  0  0  0  0  0  0
    1.6657   -2.2627   -0.5940 C   0  0  0  0  0  0  0  0  0  0  0  0
   -1.4700   -1.9747   -0.6050 C   0  0  0  0  0  0  0  0  0  0  0  0
   -0.3124    1.5185    0.8045 C   0  0  0  0  0  0  0  0  0  0  0  0
    1.1109    1.5626    0.2400 C   0  0  0  0  0  0  0  0  0  0  0  0
    3.1573   -2.1877   -0.9885 C   0  0  0  0  0  0  0  0  0  0  0  0
   -2.9446   -1.9267   -0.1885 C   0  0  0  0  0  0  0  0  0  0  0  0
    4.2488    1.1870    0.3244 C   0  0  1  0  0  0  0  0  0  0  0  0
   -5.0972   -0.4299   -0.3153 C   0  0  0  0  0  0  0  0  0  0  0  0
   -3.3049    1.9541    0.1894 C   0  0  0  0  0  0  0  0  0  0  0  0
   -0.4002   -1.5075    1.6006 C   0  0  0  0  0  0  0  0  0  0  0  0
    0.7871   -0.4584   -2.0679 C   0  0  0  0  0  0  0  0  0  0  0  0
    5.3239   -0.8193   -0.6340 C   0  0  0  0  0  0  0  0  0  0  0  0
    5.6203    0.5496    0.0044 C   0  0  0  0  0  0  0  0  0  0  0  0
   -2.9565    0.3224    2.0580 C   0  0  0  0  0  0  0  0  0  0  0  0
   -5.5240    1.0344   -0.6252 C   0  0  2  0  0  0  0  0  0  0  0  0
   -4.8265    2.0735    0.2451 C   0  0  0  0  0  0  0  0  0  0  0  0
    4.0199   -1.6776    1.3232 C   0  0  0  0  0  0  0  0  0  0  0  0
   -5.5976   -0.7681    1.1179 C   0  0  0  0  0  0  0  0  0  0  0  0
   -5.8003   -1.4319   -1.2529 C   0  0  0  0  0  0  0  0  0  0  0  0
    4.1811    2.5500   -0.2935 C   0  0  0  0  0  0  0  0  0  0  0  0
    4.6452    3.7022    0.5561 C   0  0  0  0  0  0  0  0  0  0  0  0
   -1.2406    0.7627   -0.9322 H   0  0  0  0  0  0  0  0  0  0  0  0
    1.8451   -0.1238    1.2775 H   0  0  0  0  0  0  0  0  0  0  0  0
    3.1870    0.4437   -1.3635 H   0  0  0  0  0  0  0  0  0  0  0  0
   -3.2878   -0.2337   -1.3983 H   0  0  0  0  0  0  0  0  0  0  0  0
    1.1621   -2.9414   -1.2941 H   0  0  0  0  0  0  0  0  0  0  0  0
    1.6131   -2.7605    0.3750 H   0  0  0  0  0  0  0  0  0  0  0  0
   -1.4519   -1.7833   -1.6815 H   0  0  0  0  0  0  0  0  0  0  0  0
   -1.1035   -3.0002   -0.4732 H   0  0  0  0  0  0  0  0  0  0  0  0
   -0.7361    2.5206    0.6844 H   0  0  0  0  0  0  0  0  0  0  0  0
   -0.2479    1.3434    1.8825 H   0  0  0  0  0  0  0  0  0  0  0  0
    1.6897    2.2554    0.8615 H   0  0  0  0  0  0  0  0  0  0  0  0
    1.0931    1.9948   -0.7665 H   0  0  0  0  0  0  0  0  0  0  0  0
    3.6049   -3.1846   -0.8962 H   0  0  0  0  0  0  0  0  0  0  0  0
    3.2405   -1.9309   -2.0512 H   0  0  0  0  0  0  0  0  0  0  0  0
   -3.0705   -2.3034    0.8293 H   0  0  0  0  0  0  0  0  0  0  0  0
   -3.4747   -2.6330   -0.8359 H   0  0  0  0  0  0  0  0  0  0  0  0
    4.0960    1.2736    1.4060 H   0  0  0  0  0  0  0  0  0  0  0  0
   -2.8847    2.7064    0.8673 H   0  0  0  0  0  0  0  0  0  0  0  0
   -2.9811    2.2336   -0.8221 H   0  0  0  0  0  0  0  0  0  0  0  0
    0.1517   -0.8310    2.2558 H   0  0  0  0  0  0  0  0  0  0  0  0
    0.0984   -2.4788    1.6362 H   0  0  0  0  0  0  0  0  0  0  0  0
   -1.3607   -1.6867    2.0809 H   0  0  0  0  0  0  0  0  0  0  0  0
    1.7548   -0.3668   -2.5668 H   0  0  0  0  0  0  0  0  0  0  0  0
    0.2416   -1.2051   -2.6520 H   0  0  0  0  0  0  0  0  0  0  0  0
    0.2875    0.5004   -2.2129 H   0  0  0  0  0  0  0  0  0  0  0  0
    6.0914   -1.5577   -0.3841 H   0  0  0  0  0  0  0  0  0  0  0  0
    5.3286   -0.7122   -1.7266 H   0  0  0  0  0  0  0  0  0  0  0  0
    6.2419    1.1576   -0.6622 H   0  0  0  0  0  0  0  0  0  0  0  0
    6.1851    0.4155    0.9346 H   0  0  0  0  0  0  0  0  0  0  0  0
   -2.0654    0.5939    2.6294 H   0  0  0  0  0  0  0  0  0  0  0  0
   -3.7390    0.9573    2.4807 H   0  0  0  0  0  0  0  0  0  0  0  0
   -3.1954   -0.7078    2.3248 H   0  0  0  0  0  0  0  0  0  0  0  0
   -5.2990    1.2436   -1.6791 H   0  0  0  0  0  0  0  0  0  0  0  0
   -5.1078    3.0748   -0.1087 H   0  0  0  0  0  0  0  0  0  0  0  0
   -5.1956    2.0477    1.2753 H   0  0  0  0  0  0  0  0  0  0  0  0
    4.4827   -0.9474    1.9933 H   0  0  0  0  0  0  0  0  0  0  0  0
    3.0517   -1.9404    1.7557 H   0  0  0  0  0  0  0  0  0  0  0  0
   -5.4205   -1.3317   -2.2754 H   0  0  0  0  0  0  0  0  0  0  0  0
   -5.6513   -2.4686   -0.9344 H   0  0  0  0  0  0  0  0  0  0  0  0
   -6.8822   -1.2611   -1.2869 H   0  0  0  0  0  0  0  0  0  0  0  0
   -5.1630   -1.7009    1.4903 H   0  0  0  0  0  0  0  0  0  0  0  0
   -5.4477    0.0097    1.8615 H   0  0  0  0  0  0  0  0  0  0  0  0
   -6.6838   -0.9316    1.1055 H   0  0  0  0  0  0  0  0  0  0  0  0
   -7.1396    2.1330   -0.7348 H   0  0  0  0  0  0  0  0  0  0  0  0
    4.8970   -3.1474    2.2260 H   0  0  0  0  0  0  0  0  0  0  0  0
    5.6830    3.5427    0.8586 H   0  0  0  0  0  0  0  0  0  0  0  0
    4.0041    3.7902    1.4367 H   0  0  0  0  0  0  0  0  0  0  0  0
    4.5852    4.6304   -0.0190 H   0  0  0  0  0  0  0  0  0  0  0  0
  1 26  1  0  0  0  0
  1 76  1  0  0  0  0
  2 28  1  0  0  0  0
  2 77  1  0  0  0  0
  3 31  2  0  0  0  0
  4  5  1  0  0  0  0
  4  6  1  0  0  0  0
  4 13  1  0  0  0  0
  4 21  1  0  0  0  0
  5  7  1  0  0  0  0
  5 12  1  0  0  0  0
  5 22  1  0  0  0  0
  6  8  1  0  0  0  0
  6 14  1  0  0  0  0
  6 33  1  0  0  0  0
  7  9  1  0  0  0  0
  7 15  1  0  0  0  0
  7 34  1  0  0  0  0
  8 11  1  0  0  0  0
  8 20  1  0  0  0  0
  8 25  1  0  0  0  0
  9 10  1  0  0  0  0
  9 18  1  0  0  0  0
  9 35  1  0  0  0  0
 10 16  1  0  0  0  0
 10 23  1  0  0  0  0
 10 28  1  0  0  0  0
 11 17  1  0  0  0  0
 11 19  1  0  0  0  0
 11 36  1  0  0  0  0
 12 16  1  0  0  0  0
 12 37  1  0  0  0  0
 12 38  1  0  0  0  0
 13 17  1  0  0  0  0
 13 39  1  0  0  0  0
 13 40  1  0  0  0  0
 14 15  1  0  0  0  0
 14 41  1  0  0  0  0
 14 42  1  0  0  0  0
 15 43  1  0  0  0  0
 15 44  1  0  0  0  0
 16 45  1  0  0  0  0
 16 46  1  0  0  0  0
 17 47  1  0  0  0  0
 17 48  1  0  0  0  0
 18 24  1  0  0  0  0
 18 31  1  0  0  0  0
 18 49  1  0  0  0  0
 19 26  1  0  0  0  0
 19 29  1  0  0  0  0
 19 30  1  0  0  0  0
 20 27  1  0  0  0  0
 20 50  1  0  0  0  0
 20 51  1  0  0  0  0
 21 52  1  0  0  0  0
 21 53  1  0  0  0  0
 21 54  1  0  0  0  0
 22 55  1  0  0  0  0
 22 56  1  0  0  0  0
 22 57  1  0  0  0  0
 23 24  1  0  0  0  0
 23 58  1  0  0  0  0
 23 59  1  0  0  0  0
 24 60  1  0  0  0  0
 24 61  1  0  0  0  0
 25 62  1  0  0  0  0
 25 63  1  0  0  0  0
 25 64  1  0  0  0  0
 26 27  1  0  0  0  0
 26 65  1  0  0  0  0
 27 66  1  0  0  0  0
 27 67  1  0  0  0  0
 28 68  1  0  0  0  0
 28 69  1  0  0  0  0
 29 73  1  0  0  0  0
 29 74  1  0  0  0  0
 29 75  1  0  0  0  0
 30 70  1  0  0  0  0
 30 71  1  0  0  0  0
 30 72  1  0  0  0  0
 31 32  1  0  0  0  0
 32 78  1  0  0  0  0
 32 79  1  0  0  0  0
 32 80  1  0  0  0  0
M  END
> <PUBCHEM_COMPOUND_CID>
46173776

> <PUBCHEM_CONFORMER_RMSD>
0.8

> <PUBCHEM_CONFORMER_DIVERSEORDER>
1

> <PUBCHEM_MMFF94_PARTIAL_CHARGES>
10
1 -0.68
18 0.06
2 -0.68
26 0.28
28 0.28
3 -0.57
31 0.45
32 0.06
76 0.4
77 0.4

> <PUBCHEM_EFFECTIVE_ROTOR_COUNT>
4.6

> <PUBCHEM_PHARMACOPHORE_FEATURES>
11
1 1 acceptor
1 1 donor
1 2 acceptor
1 2 donor
1 3 acceptor
3 19 29 30 hydrophobe
5 9 10 18 23 24 rings
6 4 5 6 7 14 15 rings
6 4 6 8 11 13 17 rings
6 5 7 9 10 12 16 rings
6 8 11 19 20 26 27 rings

> <PUBCHEM_HEAVY_ATOM_COUNT>
32

> <PUBCHEM_ATOM_DEF_STEREO_COUNT>
10

> <PUBCHEM_ATOM_UDEF_STEREO_COUNT>
0

> <PUBCHEM_BOND_DEF_STEREO_COUNT>
0

> <PUBCHEM_BOND_UDEF_STEREO_COUNT>
0

> <PUBCHEM_ISOTOPIC_ATOM_COUNT>
0

> <PUBCHEM_COMPONENT_COUNT>
1

> <PUBCHEM_CACTVS_TAUTO_COUNT>
3

> <PUBCHEM_CONFORMER_ID>
02C08E5000000001

> <PUBCHEM_MMFF94_ENERGY>
156.8482

> <PUBCHEM_FEATURE_SELFOVERLAP>
55.912

> <PUBCHEM_SHAPE_FINGERPRINT>
10595046 47 18336549330815801013
10906281 52 17749654243593538115
11135609 187 18190463761757900217
11578080 2 14331689243136029156
12107183 9 18051415372544148826
12166972 35 18409727365577862188
12236239 1 18201440315508422107
12403260 363 18336829791868967513
12633257 1 18338519750305781290
12788726 201 17458616848288981153
13224815 77 17385998494519747670
13533116 47 18059861713790564266
13583140 156 17988349438532368176
13782708 43 17846218894715088187
13811026 1 18412548674234387195
14251764 38 18337947995311122697
14528608 73 18335417950393610212
14790565 3 18334854983059677589
15183329 4 18334296491809804221
15196674 1 18407759244348819101
15788980 27 18411980286794483275
17349148 13 18040433312845681323
17844677 252 18411975884242079753
18608769 82 18338514128789709427
18681886 176 18186803582923855234
20028762 73 18187368787213667054
20157964 124 18410011048088212981
20511986 3 18261966154247569412
20715895 44 18264490770305022157
21033648 144 18270409291136626780
21033648 29 17131564885160202629
21267235 1 18334284383896563950
21315764 268 18271813470569968245
21859007 373 17487914503995255693
22149856 69 17603574241256117859
22393880 68 18188763934477523324
23522609 53 17751052770845053633
23559900 14 18188202212906146422
23569914 2 17481761516557289669
23569943 247 16771844383398840251
255183 451 17680418142474932062
2838139 119 18335141959990065709
3004659 81 18409167735976597336
335352 9 18408600384277868566
3411729 13 18339928117659121784
34797466 226 17894904131542103527
3493558 16 18408878551228538225
350125 39 18410012126943019796
3680242 22 18338795735908099642
4015057 19 18341331111201461721
4058900 60 17987225639582288860
4073 2 18059570235750339354
4098825 35 18408325484954213885
4325135 7 18187083966556652487
4340502 62 17917433081967055450
439807 62 18262805065273708783
460360 51 18265030570426623921
474 4 18342173341466173266
5104073 3 18412257355087198297
5283173 99 18340490075069130149
6086070 43 18057342775236453212

> <PUBCHEM_SHAPE_MULTIPOLES>
640.94
14.61
3.12
1.35
8.23
1.3
-0.16
3.17
0.91
-3.45
-0.01
0.11
-0.35
-0.76

> <PUBCHEM_SHAPE_SELFOVERLAP>
1357.073

> <PUBCHEM_SHAPE_VOLUME>
356.9

> <PUBCHEM_COORDINATE_TYPE>
2
5
10

$$$$

