656722
  -OEChem-07051213042D

 73 76  0     1  0  0  0  0  0999 V2000
    7.6628   -1.6920    0.0000 P   0  0  0  0  0  0  0  0  0  0  0  0
    8.0639    4.2353    0.0000 P   0  0  0  0  0  0  0  0  0  0  0  0
    5.4282    4.4655    0.0000 P   0  0  0  0  0  0  0  0  0  0  0  0
    6.7523    0.0784    0.0000 O   0  0  0  0  0  0  0  0  0  0  0  0
    4.4026   -1.0053    0.0000 O   0  0  0  0  0  0  0  0  0  0  0  0
    5.7366    1.4814    0.0000 O   0  0  0  0  0  0  0  0  0  0  0  0
    6.7485   -2.0972    0.0000 O   0  0  0  0  0  0  0  0  0  0  0  0
    8.1667    3.2406    0.0000 O   0  0  0  0  0  0  0  0  0  0  0  0
    6.3411    4.0572    0.0000 O   0  0  0  0  0  0  0  0  0  0  0  0
    8.3724    1.2512    0.0000 O   0  0  0  0  0  0  0  0  0  0  0  0
    3.7066    0.9639    0.0000 O   0  0  0  0  0  0  0  0  0  0  0  0
    3.9110    2.2981    0.0000 O   0  0  0  0  0  0  0  0  0  0  0  0
    8.5770   -1.2868    0.0000 O   0  0  0  0  0  0  0  0  0  0  0  0
    8.0679   -2.6062    0.0000 O   0  0  0  0  0  0  0  0  0  0  0  0
    7.2576   -0.7778    0.0000 O   0  0  0  0  0  0  0  0  0  0  0  0
    7.9611    5.2300    0.0000 O   0  0  0  0  0  0  0  0  0  0  0  0
    9.0586    4.3381    0.0000 O   0  0  0  0  0  0  0  0  0  0  0  0
    5.8365    5.3784    0.0000 O   0  0  0  0  0  0  0  0  0  0  0  0
    4.5154    4.8738    0.0000 O   0  0  0  0  0  0  0  0  0  0  0  0
    7.0692    4.1325    0.0000 O   0  0  0  0  0  0  0  0  0  0  0  0
    5.0199    3.5527    0.0000 O   0  0  0  0  0  0  0  0  0  0  0  0
    2.1881    2.1200    0.0000 O   0  0  0  0  0  0  0  0  0  0  0  0
    4.6783   -2.7659    0.0000 N   0  0  0  0  0  0  0  0  0  0  0  0
    4.6783   -4.3753    0.0000 N   0  0  0  0  0  0  0  0  0  0  0  0
    2.8660   -2.5706    0.0000 N   0  0  0  0  0  0  0  0  0  0  0  0
    2.0000   -4.0706    0.0000 N   0  0  0  0  0  0  0  0  0  0  0  0
    2.8660   -5.5706    0.0000 N   0  0  0  0  0  0  0  0  0  0  0  0
    5.9422   -0.5080    0.0000 C   0  0  1  0  0  0  0  0  0  0  0  0
    5.9405   -1.5080    0.0000 C   0  0  2  0  0  0  0  0  0  0  0  0
    4.9917   -0.1973    0.0000 C   0  0  1  0  0  0  0  0  0  0  0  0
    4.9889   -1.8153    0.0000 C   0  0  1  0  0  0  0  0  0  0  0  0
    6.6495    1.0731    0.0000 C   0  0  1  0  0  0  0  0  0  0  0  0
    7.4595    1.6595    0.0000 C   0  0  1  0  0  0  0  0  0  0  0  0
    7.3567    2.6542    0.0000 C   0  0  2  0  0  0  0  0  0  0  0  0
    6.4439    3.0625    0.0000 C   0  0  1  0  0  0  0  0  0  0  0  0
    5.6338    2.4761    0.0000 C   0  0  1  0  0  0  0  0  0  0  0  0
    4.6844    0.7543    0.0000 C   0  0  0  0  0  0  0  0  0  0  0  0
    4.7210    2.8844    0.0000 C   0  0  0  0  0  0  0  0  0  0  0  0
    3.7320   -3.0706    0.0000 C   0  0  0  0  0  0  0  0  0  0  0  0
    5.2619   -3.5706    0.0000 C   0  0  0  0  0  0  0  0  0  0  0  0
    3.7320   -4.0706    0.0000 C   0  0  0  0  0  0  0  0  0  0  0  0
    2.8660   -4.5706    0.0000 C   0  0  0  0  0  0  0  0  0  0  0  0
    2.9981    2.7064    0.0000 C   0  0  0  0  0  0  0  0  0  0  0  0
    2.0000   -3.0706    0.0000 C   0  0  0  0  0  0  0  0  0  0  0  0
    2.8953    3.7011    0.0000 C   0  0  0  0  0  0  0  0  0  0  0  0
    6.4942   -0.7904    0.0000 H   0  0  0  0  0  0  0  0  0  0  0  0
    6.4934   -1.2274    0.0000 H   0  0  0  0  0  0  0  0  0  0  0  0
    4.3795   -0.0993    0.0000 H   0  0  0  0  0  0  0  0  0  0  0  0
    5.4266   -2.2545    0.0000 H   0  0  0  0  0  0  0  0  0  0  0  0
    7.2154    0.8200    0.0000 H   0  0  0  0  0  0  0  0  0  0  0  0
    7.9617    2.0231    0.0000 H   0  0  0  0  0  0  0  0  0  0  0  0
    7.2930    3.2709    0.0000 H   0  0  0  0  0  0  0  0  0  0  0  0
    6.9461    3.4261    0.0000 H   0  0  0  0  0  0  0  0  0  0  0  0
    5.1316    2.1126    0.0000 H   0  0  0  0  0  0  0  0  0  0  0  0
    5.2985    0.8395    0.0000 H   0  0  0  0  0  0  0  0  0  0  0  0
    4.7071    1.3739    0.0000 H   0  0  0  0  0  0  0  0  0  0  0  0
    5.0686    3.3978    0.0000 H   0  0  0  0  0  0  0  0  0  0  0  0
    4.2758    3.3159    0.0000 H   0  0  0  0  0  0  0  0  0  0  0  0
    8.8746    1.6147    0.0000 H   0  0  0  0  0  0  0  0  0  0  0  0
    5.8819   -3.5706    0.0000 H   0  0  0  0  0  0  0  0  0  0  0  0
    3.5160    1.5539    0.0000 H   0  0  0  0  0  0  0  0  0  0  0  0
    8.6844   -2.6721    0.0000 H   0  0  0  0  0  0  0  0  0  0  0  0
    9.0780   -1.6521    0.0000 H   0  0  0  0  0  0  0  0  0  0  0  0
    1.4631   -2.7606    0.0000 H   0  0  0  0  0  0  0  0  0  0  0  0
    8.4633    5.5935    0.0000 H   0  0  0  0  0  0  0  0  0  0  0  0
    9.4222    3.8359    0.0000 H   0  0  0  0  0  0  0  0  0  0  0  0
    5.4730    5.8806    0.0000 H   0  0  0  0  0  0  0  0  0  0  0  0
    4.4516    5.4906    0.0000 H   0  0  0  0  0  0  0  0  0  0  0  0
    2.3291   -5.8806    0.0000 H   0  0  0  0  0  0  0  0  0  0  0  0
    3.4030   -5.8806    0.0000 H   0  0  0  0  0  0  0  0  0  0  0  0
    3.5120    3.7648    0.0000 H   0  0  0  0  0  0  0  0  0  0  0  0
    2.8316    4.3178    0.0000 H   0  0  0  0  0  0  0  0  0  0  0  0
    2.2786    3.6373    0.0000 H   0  0  0  0  0  0  0  0  0  0  0  0
  1  7  1  0  0  0  0
  1 13  1  0  0  0  0
  1 14  1  0  0  0  0
  1 15  2  0  0  0  0
  2  8  1  0  0  0  0
  2 16  1  0  0  0  0
  2 17  1  0  0  0  0
  2 20  2  0  0  0  0
  3  9  1  0  0  0  0
  3 18  1  0  0  0  0
  3 19  1  0  0  0  0
  3 21  2  0  0  0  0
 28  4  1  1  0  0  0
 32  4  1  1  0  0  0
  5 30  1  0  0  0  0
  5 31  1  0  0  0  0
  6 32  1  0  0  0  0
  6 36  1  0  0  0  0
 29  7  1  1  0  0  0
 34  8  1  6  0  0  0
 35  9  1  1  0  0  0
 33 10  1  1  0  0  0
 10 59  1  0  0  0  0
 11 37  1  0  0  0  0
 11 61  1  0  0  0  0
 12 38  1  0  0  0  0
 12 43  1  0  0  0  0
 13 63  1  0  0  0  0
 14 62  1  0  0  0  0
 16 65  1  0  0  0  0
 17 66  1  0  0  0  0
 18 67  1  0  0  0  0
 19 68  1  0  0  0  0
 22 43  2  0  0  0  0
 31 23  1  6  0  0  0
 23 39  1  0  0  0  0
 23 40  1  0  0  0  0
 24 40  2  0  0  0  0
 24 41  1  0  0  0  0
 25 39  2  0  0  0  0
 25 44  1  0  0  0  0
 26 42  1  0  0  0  0
 26 44  2  0  0  0  0
 27 42  1  0  0  0  0
 27 69  1  0  0  0  0
 27 70  1  0  0  0  0
 28 29  1  0  0  0  0
 28 30  1  0  0  0  0
 28 46  1  0  0  0  0
 29 31  1  0  0  0  0
 29 47  1  0  0  0  0
 30 37  1  6  0  0  0
 30 48  1  0  0  0  0
 31 49  1  0  0  0  0
 32 33  1  0  0  0  0
 32 50  1  0  0  0  0
 33 34  1  0  0  0  0
 33 51  1  0  0  0  0
 34 35  1  0  0  0  0
 34 52  1  0  0  0  0
 35 36  1  0  0  0  0
 35 53  1  0  0  0  0
 36 38  1  6  0  0  0
 36 54  1  0  0  0  0
 37 55  1  0  0  0  0
 37 56  1  0  0  0  0
 38 57  1  0  0  0  0
 38 58  1  0  0  0  0
 39 41  1  0  0  0  0
 40 60  1  0  0  0  0
 41 42  2  0  0  0  0
 43 45  1  0  0  0  0
 44 64  1  0  0  0  0
 45 71  1  0  0  0  0
 45 72  1  0  0  0  0
 45 73  1  0  0  0  0
M  END
> <PUBCHEM_COMPOUND_CID>
656722

> <PUBCHEM_COMPOUND_CANONICALIZED>
1

> <PUBCHEM_CACTVS_COMPLEXITY>
1190

> <PUBCHEM_CACTVS_HBOND_ACCEPTOR>
23

> <PUBCHEM_CACTVS_HBOND_DONOR>
9

> <PUBCHEM_CACTVS_ROTATABLE_BOND>
13

> <PUBCHEM_CACTVS_SUBSKEYS>
AAADceB7vgMAAAAAAAAAAAAAAAAAAWJAAAAsSAAAAAAAAFgB+AAAHgAQCCAACBzxlwcH+L9MFxCoQQbxbICAgC0REKABUCAoVBCTWAJAyEA+RAgPAALXACHwcA4AAAAAAAAAAAAAAAAAAAAAAAAAAAAAAA==

> <PUBCHEM_IUPAC_OPENEYE_NAME>
[(2R,3R,4R,5R,6R)-6-[(2R,3R,4R,5R)-5-(6-aminopurin-9-yl)-2-(hydroxymethyl)-4-phosphonooxy-tetrahydrofuran-3-yl]oxy-5-hydroxy-3,4-diphosphonooxy-tetrahydropyran-2-yl]methyl acetate

> <PUBCHEM_IUPAC_CAS_NAME>
acetic acid [(2R,3R,4R,5R,6R)-6-[[(2R,3R,4R,5R)-5-(6-aminopurin-9-yl)-2-(hydroxymethyl)-4-phosphonooxy-3-oxolanyl]oxy]-5-hydroxy-3,4-diphosphonooxy-2-oxanyl]methyl ester

> <PUBCHEM_IUPAC_NAME>
[(2R,3R,4R,5R,6R)-6-[(2R,3R,4R,5R)-5-(6-aminopurin-9-yl)-2-(hydroxymethyl)-4-phosphonooxyoxolan-3-yl]oxy-5-hydroxy-3,4-diphosphonooxyoxan-2-yl]methyl acetate

> <PUBCHEM_IUPAC_SYSTEMATIC_NAME>
[(2R,3R,4R,5R,6R)-6-[(2R,3R,4R,5R)-5-(6-aminopurin-9-yl)-2-(hydroxymethyl)-4-phosphonooxy-oxolan-3-yl]oxy-5-oxidanyl-3,4-diphosphonooxy-oxan-2-yl]methyl ethanoate

> <PUBCHEM_IUPAC_TRADITIONAL_NAME>
acetic acid [(2R,3R,4R,5R,6R)-6-[(2R,3R,4R,5R)-5-adenin-9-yl-2-methylol-4-phosphonooxy-tetrahydrofuran-3-yl]oxy-5-hydroxy-3,4-diphosphonooxy-tetrahydropyran-2-yl]methyl ester

> <PUBCHEM_IUPAC_INCHI>
InChI=1S/C18H28N5O19P3/c1-6(25)36-3-8-12(40-43(27,28)29)13(41-44(30,31)32)10(26)18(38-8)39-11-7(2-24)37-17(14(11)42-45(33,34)35)23-5-22-9-15(19)20-4-21-16(9)23/h4-5,7-8,10-14,17-18,24,26H,2-3H2,1H3,(H2,19,20,21)(H2,27,28,29)(H2,30,31,32)(H2,33,34,35)/t7-,8-,10-,11-,12-,13-,14-,17-,18-/m1/s1

> <PUBCHEM_IUPAC_INCHIKEY>
ZYMMXLQDBUGSID-WKGHCRPTSA-N

> <PUBCHEM_XLOGP3>
-6.5

> <PUBCHEM_EXACT_MASS>
711.059134

> <PUBCHEM_MOLECULAR_FORMULA>
C18H28N5O19P3

> <PUBCHEM_MOLECULAR_WEIGHT>
711.358306

> <PUBCHEM_OPENEYE_CAN_SMILES>
CC(=O)OCC1C(C(C(C(O1)OC2C(OC(C2OP(=O)(O)O)N3C=NC4=C3N=CN=C4N)CO)O)OP(=O)(O)O)OP(=O)(O)O

> <PUBCHEM_OPENEYE_ISO_SMILES>
CC(=O)OC[C@@H]1[C@H]([C@@H]([C@H]([C@H](O1)O[C@@H]2[C@H](O[C@H]([C@@H]2OP(=O)(O)O)N3C=NC4=C3N=CN=C4N)CO)O)OP(=O)(O)O)OP(=O)(O)O

> <PUBCHEM_CACTVS_TPSA>
364

> <PUBCHEM_MONOISOTOPIC_WEIGHT>
711.059134

> <PUBCHEM_TOTAL_CHARGE>
0

> <PUBCHEM_HEAVY_ATOM_COUNT>
45

> <PUBCHEM_ATOM_DEF_STEREO_COUNT>
9

> <PUBCHEM_ATOM_UDEF_STEREO_COUNT>
0

> <PUBCHEM_BOND_DEF_STEREO_COUNT>
0

> <PUBCHEM_BOND_UDEF_STEREO_COUNT>
0

> <PUBCHEM_ISOTOPIC_ATOM_COUNT>
0

> <PUBCHEM_COMPONENT_COUNT>
1

> <PUBCHEM_CACTVS_TAUTO_COUNT>
3

> <PUBCHEM_COORDINATE_TYPE>
1
5
255

> <PUBCHEM_BONDANNOTATIONS>
33  10  5
31  23  6
23  39  8
23  40  8
24  40  8
24  41  8
25  39  8
25  44  8
26  42  8
26  44  8
30  37  6
36  38  6
39  41  8
28  4  5
32  4  5
41  42  8
29  7  5
34  8  6
35  9  5

$$$$

