228285
  -OEChem-07051212572D

119124  0     1  0  0  0  0  0999 V2000
    7.3705   -0.3230    0.0000 O   0  0  0  0  0  0  0  0  0  0  0  0
    5.6385    0.6770    0.0000 O   0  0  0  0  0  0  0  0  0  0  0  0
    6.6781    3.1618    0.0000 O   0  0  0  0  0  0  0  0  0  0  0  0
    6.0849   -1.8550    0.0000 O   0  0  0  0  0  0  0  0  0  0  0  0
    4.9544   -1.2024    0.0000 O   0  0  0  0  0  0  0  0  0  0  0  0
    2.9847   -1.5496    0.0000 O   0  0  0  0  0  0  0  0  0  0  0  0
   10.0365    1.1562    0.0000 N   0  0  3  0  0  0  0  0  0  0  0  0
    3.7188    3.0457    0.0000 N   0  0  3  0  0  0  0  0  0  0  0  0
   10.4317   -3.5171    0.0000 N   0  0  3  0  0  0  0  0  0  0  0  0
    9.1305    0.6423    0.0000 C   0  0  3  0  0  0  0  0  0  0  0  0
    4.3822    2.2426    0.0000 C   0  0  3  0  0  0  0  0  0  0  0  0
    8.2365    1.1770    0.0000 C   0  0  0  0  0  0  0  0  0  0  0  0
    9.1189   -0.3576    0.0000 C   0  0  0  0  0  0  0  0  0  0  0  0
   10.0678   -2.5411    0.0000 C   0  0  3  0  0  0  0  0  0  0  0  0
    8.2365    2.1770    0.0000 C   0  0  0  0  0  0  0  0  0  0  0  0
   10.0365    2.1978    0.0000 C   0  0  0  0  0  0  0  0  0  0  0  0
    4.0109    1.2694    0.0000 C   0  0  0  0  0  0  0  0  0  0  0  0
    9.1305    2.7117    0.0000 C   0  0  0  0  0  0  0  0  0  0  0  0
    5.3258    2.5737    0.0000 C   0  0  0  0  0  0  0  0  0  0  0  0
    9.0394   -2.3760    0.0000 C   0  0  0  0  0  0  0  0  0  0  0  0
    9.9791   -0.8676    0.0000 C   0  0  0  0  0  0  0  0  0  0  0  0
    2.6930    2.8648    0.0000 C   0  0  0  0  0  0  0  0  0  0  0  0
   10.7017   -1.7676    0.0000 C   0  0  0  0  0  0  0  0  0  0  0  0
    7.3705    0.6770    0.0000 C   0  0  0  0  0  0  0  0  0  0  0  0
    3.0261    1.0957    0.0000 C   0  0  0  0  0  0  0  0  0  0  0  0
    2.3443    1.8833    0.0000 C   0  0  0  0  0  0  0  0  0  0  0  0
    9.7621   -4.3150    0.0000 C   0  0  0  0  0  0  0  0  0  0  0  0
    8.3966   -3.1421    0.0000 C   0  0  0  0  0  0  0  0  0  0  0  0
    5.5108    3.5565    0.0000 C   0  0  0  0  0  0  0  0  0  0  0  0
    8.7377   -4.1263    0.0000 C   0  0  0  0  0  0  0  0  0  0  0  0
    4.6537    0.5033    0.0000 C   0  0  0  0  0  0  0  0  0  0  0  0
    6.5045    1.1770    0.0000 C   0  0  0  0  0  0  0  0  0  0  0  0
   11.6885   -1.9299    0.0000 C   0  0  0  0  0  0  0  0  0  0  0  0
    7.3705    2.6770    0.0000 C   0  0  0  0  0  0  0  0  0  0  0  0
   10.9006    0.6528    0.0000 C   0  0  0  0  0  0  0  0  0  0  0  0
    8.6974   -1.4363    0.0000 C   0  0  0  0  0  0  0  0  0  0  0  0
    6.5045    2.1770    0.0000 C   0  0  0  0  0  0  0  0  0  0  0  0
    7.7126   -1.2627    0.0000 C   0  0  0  0  0  0  0  0  0  0  0  0
    4.0644    3.9840    0.0000 C   0  0  0  0  0  0  0  0  0  0  0  0
    2.6840    0.1560    0.0000 C   0  0  0  0  0  0  0  0  0  0  0  0
    9.9675   -1.8675    0.0000 C   0  0  0  0  0  0  0  0  0  0  0  0
   10.8509   -0.3776    0.0000 C   0  0  0  0  0  0  0  0  0  0  0  0
    7.4118   -2.9684    0.0000 C   0  0  0  0  0  0  0  0  0  0  0  0
   11.4171   -3.6870    0.0000 C   0  0  0  0  0  0  0  0  0  0  0  0
    4.3116   -0.4363    0.0000 C   0  0  0  0  0  0  0  0  0  0  0  0
    7.0697   -2.0287    0.0000 C   0  0  0  0  0  0  0  0  0  0  0  0
    4.7522    4.2081    0.0000 C   0  0  0  0  0  0  0  0  0  0  0  0
    6.1624    4.3150    0.0000 C   0  0  0  0  0  0  0  0  0  0  0  0
    3.3268   -0.6100    0.0000 C   0  0  0  0  0  0  0  0  0  0  0  0
   12.3224   -1.1565    0.0000 C   0  0  0  0  0  0  0  0  0  0  0  0
   12.0413   -2.8656    0.0000 C   0  0  0  0  0  0  0  0  0  0  0  0
    7.6178    3.5038    0.0000 C   0  0  0  0  0  0  0  0  0  0  0  0
    5.4421   -2.6211    0.0000 C   0  0  0  0  0  0  0  0  0  0  0  0
    2.0000   -1.7233    0.0000 C   0  0  0  0  0  0  0  0  0  0  0  0
    9.6644    0.3272    0.0000 H   0  0  0  0  0  0  0  0  0  0  0  0
    4.5484    2.8399    0.0000 H   0  0  0  0  0  0  0  0  0  0  0  0
    8.5096   -0.2429    0.0000 H   0  0  0  0  0  0  0  0  0  0  0  0
    8.9001   -0.9377    0.0000 H   0  0  0  0  0  0  0  0  0  0  0  0
   10.6794   -2.6428    0.0000 H   0  0  0  0  0  0  0  0  0  0  0  0
   10.6474    2.0917    0.0000 H   0  0  0  0  0  0  0  0  0  0  0  0
   10.2456    2.7815    0.0000 H   0  0  0  0  0  0  0  0  0  0  0  0
    9.5241    3.1907    0.0000 H   0  0  0  0  0  0  0  0  0  0  0  0
    8.7259    3.1814    0.0000 H   0  0  0  0  0  0  0  0  0  0  0  0
    5.4264    1.9619    0.0000 H   0  0  0  0  0  0  0  0  0  0  0  0
    5.9457    2.5666    0.0000 H   0  0  0  0  0  0  0  0  0  0  0  0
   10.5124   -1.1838    0.0000 H   0  0  0  0  0  0  0  0  0  0  0  0
   10.9070   -1.1826    0.0000 H   0  0  0  0  0  0  0  0  0  0  0  0
   10.1612   -1.4639    0.0000 H   0  0  0  0  0  0  0  0  0  0  0  0
    2.6914    3.4848    0.0000 H   0  0  0  0  0  0  0  0  0  0  0  0
    2.0819    2.9693    0.0000 H   0  0  0  0  0  0  0  0  0  0  0  0
    1.8042    2.1877    0.0000 H   0  0  0  0  0  0  0  0  0  0  0  0
    1.9519    1.4032    0.0000 H   0  0  0  0  0  0  0  0  0  0  0  0
    9.5471   -4.8965    0.0000 H   0  0  0  0  0  0  0  0  0  0  0  0
   10.2983   -4.6264    0.0000 H   0  0  0  0  0  0  0  0  0  0  0  0
    6.0696    3.2880    0.0000 H   0  0  0  0  0  0  0  0  0  0  0  0
    8.1258   -4.2261    0.0000 H   0  0  0  0  0  0  0  0  0  0  0  0
    8.7314   -4.7462    0.0000 H   0  0  0  0  0  0  0  0  0  0  0  0
   11.2955   -2.4094    0.0000 H   0  0  0  0  0  0  0  0  0  0  0  0
    7.3705    3.2970    0.0000 H   0  0  0  0  0  0  0  0  0  0  0  0
   10.5886    0.1171    0.0000 H   0  0  0  0  0  0  0  0  0  0  0  0
   11.4364    0.3408    0.0000 H   0  0  0  0  0  0  0  0  0  0  0  0
   11.2127    1.1886    0.0000 H   0  0  0  0  0  0  0  0  0  0  0  0
    9.0959   -0.9613    0.0000 H   0  0  0  0  0  0  0  0  0  0  0  0
    4.6462    3.7697    0.0000 H   0  0  0  0  0  0  0  0  0  0  0  0
    4.2787    4.5658    0.0000 H   0  0  0  0  0  0  0  0  0  0  0  0
    3.4826    4.1983    0.0000 H   0  0  0  0  0  0  0  0  0  0  0  0
    2.0735    0.0484    0.0000 H   0  0  0  0  0  0  0  0  0  0  0  0
    9.3476   -1.8603    0.0000 H   0  0  0  0  0  0  0  0  0  0  0  0
    9.9604   -2.4875    0.0000 H   0  0  0  0  0  0  0  0  0  0  0  0
   10.5875   -1.8747    0.0000 H   0  0  0  0  0  0  0  0  0  0  0  0
   11.1546   -0.9181    0.0000 H   0  0  0  0  0  0  0  0  0  0  0  0
   11.3913   -0.0739    0.0000 H   0  0  0  0  0  0  0  0  0  0  0  0
   10.5471    0.1629    0.0000 H   0  0  0  0  0  0  0  0  0  0  0  0
    7.0132   -3.4434    0.0000 H   0  0  0  0  0  0  0  0  0  0  0  0
   11.3117   -4.2980    0.0000 H   0  0  0  0  0  0  0  0  0  0  0  0
   12.0281   -3.7923    0.0000 H   0  0  0  0  0  0  0  0  0  0  0  0
   11.5225   -3.0760    0.0000 H   0  0  0  0  0  0  0  0  0  0  0  0
    6.6327    3.9110    0.0000 H   0  0  0  0  0  0  0  0  0  0  0  0
    6.5664    4.7853    0.0000 H   0  0  0  0  0  0  0  0  0  0  0  0
    5.6921    4.7190    0.0000 H   0  0  0  0  0  0  0  0  0  0  0  0
    5.1562    4.6784    0.0000 H   0  0  0  0  0  0  0  0  0  0  0  0
    4.2819    4.6121    0.0000 H   0  0  0  0  0  0  0  0  0  0  0  0
    4.3482    3.7378    0.0000 H   0  0  0  0  0  0  0  0  0  0  0  0
   12.8019   -1.5495    0.0000 H   0  0  0  0  0  0  0  0  0  0  0  0
   12.7154   -0.6770    0.0000 H   0  0  0  0  0  0  0  0  0  0  0  0
   11.4612   -3.0844    0.0000 H   0  0  0  0  0  0  0  0  0  0  0  0
   12.2601   -3.4457    0.0000 H   0  0  0  0  0  0  0  0  0  0  0  0
   12.6215   -2.6468    0.0000 H   0  0  0  0  0  0  0  0  0  0  0  0
   11.8428   -0.7635    0.0000 H   0  0  0  0  0  0  0  0  0  0  0  0
    5.5650   -1.0947    0.0000 H   0  0  0  0  0  0  0  0  0  0  0  0
    7.8299    2.9212    0.0000 H   0  0  0  0  0  0  0  0  0  0  0  0
    8.2004    3.7159    0.0000 H   0  0  0  0  0  0  0  0  0  0  0  0
    7.4058    4.0864    0.0000 H   0  0  0  0  0  0  0  0  0  0  0  0
    4.9671   -2.2226    0.0000 H   0  0  0  0  0  0  0  0  0  0  0  0
    5.0436   -3.0960    0.0000 H   0  0  0  0  0  0  0  0  0  0  0  0
    5.9170   -3.0196    0.0000 H   0  0  0  0  0  0  0  0  0  0  0  0
    1.8923   -1.1128    0.0000 H   0  0  0  0  0  0  0  0  0  0  0  0
    1.3894   -1.8310    0.0000 H   0  0  0  0  0  0  0  0  0  0  0  0
    2.1077   -2.3339    0.0000 H   0  0  0  0  0  0  0  0  0  0  0  0
  1 24  1  0  0  0  0
  1 38  1  0  0  0  0
  2 31  1  0  0  0  0
  2 32  1  0  0  0  0
  3 37  1  0  0  0  0
  3 52  1  0  0  0  0
  4 46  1  0  0  0  0
  4 53  1  0  0  0  0
  5 45  1  0  0  0  0
  5110  1  0  0  0  0
  6 49  1  0  0  0  0
  6 54  1  0  0  0  0
  7 10  1  0  0  0  0
  7 16  1  0  0  0  0
  7 35  1  0  0  0  0
  8 11  1  0  0  0  0
  8 22  1  0  0  0  0
  8 39  1  0  0  0  0
  9 14  1  0  0  0  0
  9 27  1  0  0  0  0
  9 44  1  0  0  0  0
 10 12  1  0  0  0  0
 10 13  1  0  0  0  0
 10 55  1  0  0  0  0
 11 17  1  0  0  0  0
 11 19  1  0  0  0  0
 11 56  1  0  0  0  0
 12 15  1  0  0  0  0
 12 24  2  0  0  0  0
 13 21  1  0  0  0  0
 13 57  1  0  0  0  0
 13 58  1  0  0  0  0
 14 20  1  0  0  0  0
 14 23  1  0  0  0  0
 14 59  1  0  0  0  0
 15 18  1  0  0  0  0
 15 34  2  0  0  0  0
 16 18  1  0  0  0  0
 16 60  1  0  0  0  0
 16 61  1  0  0  0  0
 17 25  1  0  0  0  0
 17 31  2  0  0  0  0
 18 62  1  0  0  0  0
 18 63  1  0  0  0  0
 19 29  1  0  0  0  0
 19 64  1  0  0  0  0
 19 65  1  0  0  0  0
 20 28  1  0  0  0  0
 20 36  2  0  0  0  0
 21 41  1  0  0  0  0
 21 42  1  0  0  0  0
 21 66  1  0  0  0  0
 22 26  1  0  0  0  0
 22 69  1  0  0  0  0
 22 70  1  0  0  0  0
 23 33  1  0  0  0  0
 23 67  1  0  0  0  0
 23 68  1  0  0  0  0
 24 32  1  0  0  0  0
 25 26  1  0  0  0  0
 25 40  2  0  0  0  0
 26 71  1  0  0  0  0
 26 72  1  0  0  0  0
 27 30  1  0  0  0  0
 27 73  1  0  0  0  0
 27 74  1  0  0  0  0
 28 30  1  0  0  0  0
 28 43  2  0  0  0  0
 29 47  1  0  0  0  0
 29 48  1  0  0  0  0
 29 75  1  0  0  0  0
 30 76  1  0  0  0  0
 30 77  1  0  0  0  0
 31 45  1  0  0  0  0
 32 37  2  0  0  0  0
 33 50  1  0  0  0  0
 33 51  1  0  0  0  0
 33 78  1  0  0  0  0
 34 37  1  0  0  0  0
 34 79  1  0  0  0  0
 35 80  1  0  0  0  0
 35 81  1  0  0  0  0
 35 82  1  0  0  0  0
 36 38  1  0  0  0  0
 36 83  1  0  0  0  0
 38 46  2  0  0  0  0
 39 84  1  0  0  0  0
 39 85  1  0  0  0  0
 39 86  1  0  0  0  0
 40 49  1  0  0  0  0
 40 87  1  0  0  0  0
 41 88  1  0  0  0  0
 41 89  1  0  0  0  0
 41 90  1  0  0  0  0
 42 91  1  0  0  0  0
 42 92  1  0  0  0  0
 42 93  1  0  0  0  0
 43 46  1  0  0  0  0
 43 94  1  0  0  0  0
 44 95  1  0  0  0  0
 44 96  1  0  0  0  0
 44 97  1  0  0  0  0
 45 49  2  0  0  0  0
 47101  1  0  0  0  0
 47102  1  0  0  0  0
 47103  1  0  0  0  0
 48 98  1  0  0  0  0
 48 99  1  0  0  0  0
 48100  1  0  0  0  0
 50104  1  0  0  0  0
 50105  1  0  0  0  0
 50109  1  0  0  0  0
 51106  1  0  0  0  0
 51107  1  0  0  0  0
 51108  1  0  0  0  0
 52111  1  0  0  0  0
 52112  1  0  0  0  0
 52113  1  0  0  0  0
 53114  1  0  0  0  0
 53115  1  0  0  0  0
 53116  1  0  0  0  0
 54117  1  0  0  0  0
 54118  1  0  0  0  0
 54119  1  0  0  0  0
M  END
> <PUBCHEM_COMPOUND_CID>
228285

> <PUBCHEM_COMPOUND_CANONICALIZED>
1

> <PUBCHEM_CACTVS_COMPLEXITY>
1160

> <PUBCHEM_CACTVS_HBOND_ACCEPTOR>
9

> <PUBCHEM_CACTVS_HBOND_DONOR>
1

> <PUBCHEM_CACTVS_ROTATABLE_BOND>
13

> <PUBCHEM_CACTVS_SUBSKEYS>
AAADcfB/OAAAAAAAAAAAAAAAAAAAAAAAAAA8ePECAAAAAACxUAAAHgAACAAADSzBmAYyBoMABgCAAiBCAACCCAAgIAAAiAAOjIgNJyKGsRuGeCvnwBWLuAew8P8OoAABCAAYQABAAAIQADCAAAAAAAAAAA==

> <PUBCHEM_IUPAC_OPENEYE_NAME>
1-isobutyl-8-[[1-isobutyl-8-[(1-isobutyl-6-methoxy-2-methyl-3,4-dihydro-1H-isoquinolin-7-yl)oxy]-6-methoxy-2-methyl-3,4-dihydro-1H-isoquinolin-7-yl]oxy]-6-methoxy-2-methyl-3,4-dihydro-1H-isoquinolin-7-ol

> <PUBCHEM_IUPAC_CAS_NAME>
6-methoxy-8-[[6-methoxy-8-[[6-methoxy-2-methyl-1-(2-methylpropyl)-3,4-dihydro-1H-isoquinolin-7-yl]oxy]-2-methyl-1-(2-methylpropyl)-3,4-dihydro-1H-isoquinolin-7-yl]oxy]-2-methyl-1-(2-methylpropyl)-3,4-dihydro-1H-isoquinolin-7-ol

> <PUBCHEM_IUPAC_NAME>
6-methoxy-8-[[6-methoxy-8-[[6-methoxy-2-methyl-1-(2-methylpropyl)-3,4-dihydro-1H-isoquinolin-7-yl]oxy]-2-methyl-1-(2-methylpropyl)-3,4-dihydro-1H-isoquinolin-7-yl]oxy]-2-methyl-1-(2-methylpropyl)-3,4-dihydro-1H-isoquinolin-7-ol

> <PUBCHEM_IUPAC_SYSTEMATIC_NAME>
6-methoxy-8-[[6-methoxy-8-[[6-methoxy-2-methyl-1-(2-methylpropyl)-3,4-dihydro-1H-isoquinolin-7-yl]oxy]-2-methyl-1-(2-methylpropyl)-3,4-dihydro-1H-isoquinolin-7-yl]oxy]-2-methyl-1-(2-methylpropyl)-3,4-dihydro-1H-isoquinolin-7-ol

> <PUBCHEM_IUPAC_TRADITIONAL_NAME>
1-isobutyl-8-[[1-isobutyl-8-[(1-isobutyl-6-methoxy-2-methyl-3,4-dihydro-1H-isoquinolin-7-yl)oxy]-6-methoxy-2-methyl-3,4-dihydro-1H-isoquinolin-7-yl]oxy]-6-methoxy-2-methyl-3,4-dihydro-1H-isoquinolin-7-ol

> <PUBCHEM_IUPAC_INCHI>
InChI=1S/C45H65N3O6/c1-26(2)19-33-32-25-37(36(50-10)22-29(32)13-16-46(33)7)53-45-41-31(15-18-48(9)35(41)21-28(5)6)24-39(52-12)43(45)54-44-40-30(23-38(51-11)42(44)49)14-17-47(8)34(40)20-27(3)4/h22-28,33-35,49H,13-21H2,1-12H3

> <PUBCHEM_IUPAC_INCHIKEY>
AFQDIEHIPKSXRL-UHFFFAOYSA-N

> <PUBCHEM_XLOGP3_AA>
9.3

> <PUBCHEM_EXACT_MASS>
743.487337

> <PUBCHEM_MOLECULAR_FORMULA>
C45H65N3O6

> <PUBCHEM_MOLECULAR_WEIGHT>
744.0141

> <PUBCHEM_OPENEYE_CAN_SMILES>
CC(C)CC1C2=CC(=C(C=C2CCN1C)OC)OC3=C4C(N(CCC4=CC(=C3OC5=C6C(N(CCC6=CC(=C5O)OC)C)CC(C)C)OC)C)CC(C)C

> <PUBCHEM_OPENEYE_ISO_SMILES>
CC(C)CC1C2=CC(=C(C=C2CCN1C)OC)OC3=C4C(N(CCC4=CC(=C3OC5=C6C(N(CCC6=CC(=C5O)OC)C)CC(C)C)OC)C)CC(C)C

> <PUBCHEM_CACTVS_TPSA>
76.1

> <PUBCHEM_MONOISOTOPIC_WEIGHT>
743.487337

> <PUBCHEM_TOTAL_CHARGE>
0

> <PUBCHEM_HEAVY_ATOM_COUNT>
54

> <PUBCHEM_ATOM_DEF_STEREO_COUNT>
0

> <PUBCHEM_ATOM_UDEF_STEREO_COUNT>
3

> <PUBCHEM_BOND_DEF_STEREO_COUNT>
0

> <PUBCHEM_BOND_UDEF_STEREO_COUNT>
0

> <PUBCHEM_ISOTOPIC_ATOM_COUNT>
0

> <PUBCHEM_COMPONENT_COUNT>
1

> <PUBCHEM_CACTVS_TAUTO_COUNT>
3

> <PUBCHEM_COORDINATE_TYPE>
1
5
255

> <PUBCHEM_BONDANNOTATIONS>
10  13  3
11  19  3
12  15  8
12  24  8
14  23  3
15  34  8
17  25  8
17  31  8
20  28  8
20  36  8
24  32  8
25  40  8
28  43  8
31  45  8
32  37  8
34  37  8
36  38  8
38  46  8
40  49  8
43  46  8
45  49  8

$$$$

