258956
  -OEChem-07051212552D

 42 46  0     1  0  0  0  0  0999 V2000
    6.3002   -1.1621    0.0000 O   0  0  0  0  0  0  0  0  0  0  0  0
    3.4519   -2.7090    0.0000 O   0  0  0  0  0  0  0  0  0  0  0  0
    2.0000   -1.8708    0.0000 O   0  0  0  0  0  0  0  0  0  0  0  0
    8.0321   -1.1821    0.0000 O   0  0  0  0  0  0  0  0  0  0  0  0
    4.5518    1.8725    0.0000 N   0  0  3  0  0  0  0  0  0  0  0  0
    5.4178    1.3725    0.0000 C   0  0  1  0  0  0  0  0  0  0  0  0
    5.4178    0.3725    0.0000 C   0  0  1  0  0  0  0  0  0  0  0  0
    6.3117    1.9072    0.0000 C   0  0  0  0  0  0  0  0  0  0  0  0
    6.3117   -0.1622    0.0000 C   0  0  1  0  0  0  0  0  0  0  0  0
    4.9169    2.7968    0.0000 C   0  0  0  0  0  0  0  0  0  0  0  0
    5.9105    2.8164    0.0000 C   0  0  0  0  0  0  0  0  0  0  0  0
    4.5518   -0.1275    0.0000 C   0  0  0  0  0  0  0  0  0  0  0  0
    3.6857    1.3725    0.0000 C   0  0  0  0  0  0  0  0  0  0  0  0
    7.2178    0.3517    0.0000 C   0  0  0  0  0  0  0  0  0  0  0  0
    3.6857    0.3725    0.0000 C   0  0  0  0  0  0  0  0  0  0  0  0
    7.2178    1.3933    0.0000 C   0  0  0  0  0  0  0  0  0  0  0  0
    4.5678   -1.1690    0.0000 C   0  0  0  0  0  0  0  0  0  0  0  0
    2.7757   -0.1344    0.0000 C   0  0  0  0  0  0  0  0  0  0  0  0
    3.6698   -1.6968    0.0000 C   0  0  0  0  0  0  0  0  0  0  0  0
    2.7677   -1.1760    0.0000 C   0  0  0  0  0  0  0  0  0  0  0  0
    7.1603   -1.6721    0.0000 C   0  0  0  0  0  0  0  0  0  0  0  0
    2.4220   -2.8164    0.0000 C   0  0  0  0  0  0  0  0  0  0  0  0
    7.1488   -2.6720    0.0000 C   0  0  0  0  0  0  0  0  0  0  0  0
    6.1539    0.9475    0.0000 H   0  0  0  0  0  0  0  0  0  0  0  0
    5.4112   -0.4775    0.0000 H   0  0  0  0  0  0  0  0  0  0  0  0
    6.8456   -0.4773    0.0000 H   0  0  0  0  0  0  0  0  0  0  0  0
    4.9863    3.4129    0.0000 H   0  0  0  0  0  0  0  0  0  0  0  0
    4.3153    2.9467    0.0000 H   0  0  0  0  0  0  0  0  0  0  0  0
    6.5057    2.9899    0.0000 H   0  0  0  0  0  0  0  0  0  0  0  0
    5.8168    3.4293    0.0000 H   0  0  0  0  0  0  0  0  0  0  0  0
    3.4737    1.9551    0.0000 H   0  0  0  0  0  0  0  0  0  0  0  0
    3.0752    1.2648    0.0000 H   0  0  0  0  0  0  0  0  0  0  0  0
    7.4268   -0.2320    0.0000 H   0  0  0  0  0  0  0  0  0  0  0  0
    7.8286    0.4578    0.0000 H   0  0  0  0  0  0  0  0  0  0  0  0
    7.7535    1.7054    0.0000 H   0  0  0  0  0  0  0  0  0  0  0  0
    5.1083   -1.4728    0.0000 H   0  0  0  0  0  0  0  0  0  0  0  0
    2.2424    0.1818    0.0000 H   0  0  0  0  0  0  0  0  0  0  0  0
    1.8324   -3.0081    0.0000 H   0  0  0  0  0  0  0  0  0  0  0  0
    2.5507   -3.4229    0.0000 H   0  0  0  0  0  0  0  0  0  0  0  0
    6.5288   -2.6648    0.0000 H   0  0  0  0  0  0  0  0  0  0  0  0
    7.1416   -3.2920    0.0000 H   0  0  0  0  0  0  0  0  0  0  0  0
    7.7687   -2.6792    0.0000 H   0  0  0  0  0  0  0  0  0  0  0  0
  9  1  1  1  0  0  0
  1 21  1  0  0  0  0
  2 19  1  0  0  0  0
  2 22  1  0  0  0  0
  3 20  1  0  0  0  0
  3 22  1  0  0  0  0
  4 21  2  0  0  0  0
  5  6  1  0  0  0  0
  5 10  1  0  0  0  0
  5 13  1  0  0  0  0
  6  7  1  0  0  0  0
  6  8  1  0  0  0  0
  6 24  1  1  0  0  0
  7  9  1  0  0  0  0
  7 12  1  0  0  0  0
  7 25  1  6  0  0  0
  8 11  1  0  0  0  0
  8 16  2  0  0  0  0
  9 14  1  0  0  0  0
  9 26  1  0  0  0  0
 10 11  1  0  0  0  0
 10 27  1  0  0  0  0
 10 28  1  0  0  0  0
 11 29  1  0  0  0  0
 11 30  1  0  0  0  0
 12 15  1  0  0  0  0
 12 17  2  0  0  0  0
 13 15  1  0  0  0  0
 13 31  1  0  0  0  0
 13 32  1  0  0  0  0
 14 16  1  0  0  0  0
 14 33  1  0  0  0  0
 14 34  1  0  0  0  0
 15 18  2  0  0  0  0
 16 35  1  0  0  0  0
 17 19  1  0  0  0  0
 17 36  1  0  0  0  0
 18 20  1  0  0  0  0
 18 37  1  0  0  0  0
 19 20  2  0  0  0  0
 21 23  1  0  0  0  0
 22 38  1  0  0  0  0
 22 39  1  0  0  0  0
 23 40  1  0  0  0  0
 23 41  1  0  0  0  0
 23 42  1  0  0  0  0
M  END
> <PUBCHEM_COMPOUND_CID>
258956

> <PUBCHEM_COMPOUND_CANONICALIZED>
1

> <PUBCHEM_CACTVS_COMPLEXITY>
547

> <PUBCHEM_CACTVS_HBOND_ACCEPTOR>
5

> <PUBCHEM_CACTVS_HBOND_DONOR>
0

> <PUBCHEM_CACTVS_ROTATABLE_BOND>
2

> <PUBCHEM_CACTVS_SUBSKEYS>
AAADceB6OAAAAAAAAAAAAAAAAAAAAWJAAAA8QIAAAAAAAFixAAAAHgAAAAAADTzhmAcyDoMABACIAiDSCACCCAAgIAAAiAAOjIgdJiKEsRumMCpmwBGOqAew8P8OoAABAAAQQABAAAIAACCAAAAAAAAAAA==

> <PUBCHEM_IUPAC_INCHI>
InChI=1S/C18H19NO4/c1-10(20)23-14-3-2-11-4-5-19-8-12-6-15-16(22-9-21-15)7-13(12)17(14)18(11)19/h2,6-7,14,17-18H,3-5,8-9H2,1H3/t14-,17-,18-/m1/s1

> <PUBCHEM_IUPAC_INCHIKEY>
SEWQEQSXDGJDGG-ZTFGCOKTSA-N

> <PUBCHEM_XLOGP3_AA>
1.7

> <PUBCHEM_EXACT_MASS>
313.131408

> <PUBCHEM_MOLECULAR_FORMULA>
C18H19NO4

> <PUBCHEM_MOLECULAR_WEIGHT>
313.34776

> <PUBCHEM_OPENEYE_CAN_SMILES>
CC(=O)OC1CC=C2CCN3C2C1C4=CC5=C(C=C4C3)OCO5

> <PUBCHEM_OPENEYE_ISO_SMILES>
CC(=O)O[C@@H]1CC=C2CCN3[C@H]2[C@@H]1C4=CC5=C(C=C4C3)OCO5

> <PUBCHEM_CACTVS_TPSA>
48

> <PUBCHEM_MONOISOTOPIC_WEIGHT>
313.131408

> <PUBCHEM_TOTAL_CHARGE>
0

> <PUBCHEM_HEAVY_ATOM_COUNT>
23

> <PUBCHEM_ATOM_DEF_STEREO_COUNT>
3

> <PUBCHEM_ATOM_UDEF_STEREO_COUNT>
0

> <PUBCHEM_BOND_DEF_STEREO_COUNT>
0

> <PUBCHEM_BOND_UDEF_STEREO_COUNT>
0

> <PUBCHEM_ISOTOPIC_ATOM_COUNT>
0

> <PUBCHEM_COMPONENT_COUNT>
1

> <PUBCHEM_CACTVS_TAUTO_COUNT>
1

> <PUBCHEM_COORDINATE_TYPE>
1
5
255

> <PUBCHEM_BONDANNOTATIONS>
9  1  5
12  15  8
12  17  8
15  18  8
17  19  8
18  20  8
19  20  8
6  24  5
7  25  6

$$$$

