440454
  -OEChem-07051212563D

 95101  0     1  0  0  0  0  0999 V2000
    5.8315   -1.0589   -0.2382 O   0  0  0  0  0  0  0  0  0  0  0  0
    7.0780    0.6546   -1.3458 O   0  0  0  0  0  0  0  0  0  0  0  0
   -4.6617   -0.0855   -0.2436 O   0  0  0  0  0  0  0  0  0  0  0  0
   -6.3401    0.4568   -1.8002 O   0  0  0  0  0  0  0  0  0  0  0  0
   -7.2462   -2.2922   -1.5185 O   0  0  0  0  0  0  0  0  0  0  0  0
   -6.8494   -1.1713    1.8391 O   0  0  0  0  0  0  0  0  0  0  0  0
   -8.8827    0.8584    0.8511 O   0  0  0  0  0  0  0  0  0  0  0  0
   -6.8402    3.0330   -0.8236 O   0  0  0  0  0  0  0  0  0  0  0  0
    3.0153    0.5850    0.7504 C   0  0  1  0  0  0  0  0  0  0  0  0
    2.2948   -0.5284   -0.0500 C   0  0  2  0  0  0  0  0  0  0  0  0
    0.9821   -0.9817    0.5968 C   0  0  1  0  0  0  0  0  0  0  0  0
    4.2944    0.7662   -0.1204 C   0  0  2  0  0  0  0  0  0  0  0  0
    0.0217    0.2493    0.6864 C   0  0  1  0  0  0  0  0  0  0  0  0
    4.5587   -0.6337   -0.7152 C   0  0  2  0  0  0  0  0  0  0  0  0
   -1.3741   -0.1375    1.3058 C   0  0  2  0  0  0  0  0  0  0  0  0
    3.4059   -1.5444   -0.2916 C   0  0  0  0  0  0  0  0  0  0  0  0
    2.0878    1.8089    0.7680 C   0  0  0  0  0  0  0  0  0  0  0  0
    0.7051    1.4721    1.3585 C   0  0  0  0  0  0  0  0  0  0  0  0
    5.6239    1.1365    0.5468 C   0  0  1  0  0  0  0  0  0  0  0  0
   -1.9933   -1.3245    0.4937 C   0  0  2  0  0  0  0  0  0  0  0  0
    0.3385   -2.1326   -0.1871 C   0  0  0  0  0  0  0  0  0  0  0  0
    6.6204    0.1429   -0.0852 C   0  0  1  0  0  0  0  0  0  0  0  0
   -1.0277   -2.5164    0.3741 C   0  0  0  0  0  0  0  0  0  0  0  0
    3.3430    0.1747    2.2087 C   0  0  0  0  0  0  0  0  0  0  0  0
   -2.3806    1.0491    1.2925 C   0  0  0  0  0  0  0  0  0  0  0  0
   -2.4851   -0.8974   -0.9103 C   0  0  0  0  0  0  0  0  0  0  0  0
   -1.2253   -0.5556    2.7922 C   0  0  0  0  0  0  0  0  0  0  0  0
   -2.8350    1.4661   -0.1049 C   0  0  0  0  0  0  0  0  0  0  0  0
    5.9705    2.6106    0.3752 C   0  0  0  0  0  0  0  0  0  0  0  0
   -3.4383    0.2944   -0.8704 C   0  0  2  0  0  0  0  0  0  0  0  0
    7.8092   -0.1406    0.8407 C   0  0  0  0  0  0  0  0  0  0  0  0
    8.8465   -1.0338    0.1614 C   0  0  0  0  0  0  0  0  0  0  0  0
    7.9588   -0.2312   -2.0358 C   0  0  0  0  0  0  0  0  0  0  0  0
    9.2266   -0.5114   -1.2277 C   0  0  1  0  0  0  0  0  0  0  0  0
   10.1022    0.7417   -1.1334 C   0  0  0  0  0  0  0  0  0  0  0  0
   -5.5936   -0.5994   -1.1927 C   0  0  2  0  0  0  0  0  0  0  0  0
   -6.4729   -1.6464   -0.5069 C   0  0  1  0  0  0  0  0  0  0  0  0
   -7.4122   -1.0231    0.5338 C   0  0  2  0  0  0  0  0  0  0  0  0
   -7.5909    0.7950   -1.1951 C   0  0  1  0  0  0  0  0  0  0  0  0
   -7.6248    0.4769    0.2991 C   0  0  1  0  0  0  0  0  0  0  0  0
   -7.8408    2.2738   -1.4774 C   0  0  0  0  0  0  0  0  0  0  0  0
    2.0280   -0.1250   -1.0421 H   0  0  0  0  0  0  0  0  0  0  0  0
    1.1933   -1.3615    1.6008 H   0  0  0  0  0  0  0  0  0  0  0  0
    4.0720    1.4479   -0.9529 H   0  0  0  0  0  0  0  0  0  0  0  0
   -0.1595    0.5660   -0.3500 H   0  0  0  0  0  0  0  0  0  0  0  0
    4.6048   -0.5734   -1.8104 H   0  0  0  0  0  0  0  0  0  0  0  0
    3.6483   -2.1314    0.6001 H   0  0  0  0  0  0  0  0  0  0  0  0
    3.1532   -2.2501   -1.0895 H   0  0  0  0  0  0  0  0  0  0  0  0
    1.9446    2.1883   -0.2523 H   0  0  0  0  0  0  0  0  0  0  0  0
    2.5421    2.6272    1.3395 H   0  0  0  0  0  0  0  0  0  0  0  0
    0.8057    1.3102    2.4359 H   0  0  0  0  0  0  0  0  0  0  0  0
    0.0767    2.3613    1.2387 H   0  0  0  0  0  0  0  0  0  0  0  0
    5.5909    0.9332    1.6197 H   0  0  0  0  0  0  0  0  0  0  0  0
   -2.8779   -1.6864    1.0378 H   0  0  0  0  0  0  0  0  0  0  0  0
    0.9881   -3.0153   -0.1525 H   0  0  0  0  0  0  0  0  0  0  0  0
    0.2445   -1.8625   -1.2455 H   0  0  0  0  0  0  0  0  0  0  0  0
   -1.4711   -3.2953   -0.2583 H   0  0  0  0  0  0  0  0  0  0  0  0
   -0.8910   -2.9762    1.3603 H   0  0  0  0  0  0  0  0  0  0  0  0
    3.7648    1.0211    2.7631 H   0  0  0  0  0  0  0  0  0  0  0  0
    2.4634   -0.1442    2.7734 H   0  0  0  0  0  0  0  0  0  0  0  0
    4.0624   -0.6487    2.2584 H   0  0  0  0  0  0  0  0  0  0  0  0
   -1.9693    1.9201    1.8141 H   0  0  0  0  0  0  0  0  0  0  0  0
   -3.2735    0.7669    1.8682 H   0  0  0  0  0  0  0  0  0  0  0  0
   -1.6376   -0.6405   -1.5549 H   0  0  0  0  0  0  0  0  0  0  0  0
   -2.9800   -1.7574   -1.3772 H   0  0  0  0  0  0  0  0  0  0  0  0
   -0.9124    0.2873    3.4172 H   0  0  0  0  0  0  0  0  0  0  0  0
   -2.1825   -0.9095    3.1939 H   0  0  0  0  0  0  0  0  0  0  0  0
   -0.5023   -1.3611    2.9404 H   0  0  0  0  0  0  0  0  0  0  0  0
   -3.5838    2.2610   -0.0018 H   0  0  0  0  0  0  0  0  0  0  0  0
   -1.9928    1.8883   -0.6641 H   0  0  0  0  0  0  0  0  0  0  0  0
    5.9978    2.9053   -0.6790 H   0  0  0  0  0  0  0  0  0  0  0  0
    5.2245    3.2373    0.8751 H   0  0  0  0  0  0  0  0  0  0  0  0
    6.9471    2.8360    0.8147 H   0  0  0  0  0  0  0  0  0  0  0  0
   -3.6351    0.6424   -1.8934 H   0  0  0  0  0  0  0  0  0  0  0  0
    7.4711   -0.6328    1.7605 H   0  0  0  0  0  0  0  0  0  0  0  0
    8.2927    0.7997    1.1291 H   0  0  0  0  0  0  0  0  0  0  0  0
    9.7345   -1.1255    0.7977 H   0  0  0  0  0  0  0  0  0  0  0  0
    8.4313   -2.0447    0.0583 H   0  0  0  0  0  0  0  0  0  0  0  0
    8.2117    0.2345   -2.9944 H   0  0  0  0  0  0  0  0  0  0  0  0
    7.4289   -1.1631   -2.2657 H   0  0  0  0  0  0  0  0  0  0  0  0
    9.8104   -1.2830   -1.7446 H   0  0  0  0  0  0  0  0  0  0  0  0
   10.4243    1.0583   -2.1313 H   0  0  0  0  0  0  0  0  0  0  0  0
    9.5747    1.5833   -0.6737 H   0  0  0  0  0  0  0  0  0  0  0  0
   11.0021    0.5415   -0.5423 H   0  0  0  0  0  0  0  0  0  0  0  0
   -5.0633   -1.0973   -2.0140 H   0  0  0  0  0  0  0  0  0  0  0  0
   -5.8463   -2.4098   -0.0302 H   0  0  0  0  0  0  0  0  0  0  0  0
   -8.3730   -1.5505    0.5483 H   0  0  0  0  0  0  0  0  0  0  0  0
   -8.3768    0.2289   -1.7113 H   0  0  0  0  0  0  0  0  0  0  0  0
   -6.8560    1.0530    0.8288 H   0  0  0  0  0  0  0  0  0  0  0  0
   -6.6279   -2.7313   -2.1271 H   0  0  0  0  0  0  0  0  0  0  0  0
   -8.8240    2.5945   -1.1203 H   0  0  0  0  0  0  0  0  0  0  0  0
   -7.7672    2.4761   -2.5510 H   0  0  0  0  0  0  0  0  0  0  0  0
   -5.9576   -0.7828    1.8268 H   0  0  0  0  0  0  0  0  0  0  0  0
   -8.8681    0.6280    1.7957 H   0  0  0  0  0  0  0  0  0  0  0  0
   -7.0141    3.9688   -1.0225 H   0  0  0  0  0  0  0  0  0  0  0  0
  1 14  1  0  0  0  0
  1 22  1  0  0  0  0
  2 22  1  0  0  0  0
  2 33  1  0  0  0  0
  3 30  1  0  0  0  0
  3 36  1  0  0  0  0
  4 36  1  0  0  0  0
  4 39  1  0  0  0  0
  5 37  1  0  0  0  0
  5 90  1  0  0  0  0
  6 38  1  0  0  0  0
  6 93  1  0  0  0  0
  7 40  1  0  0  0  0
  7 94  1  0  0  0  0
  8 41  1  0  0  0  0
  8 95  1  0  0  0  0
  9 10  1  0  0  0  0
  9 12  1  0  0  0  0
  9 17  1  0  0  0  0
  9 24  1  0  0  0  0
 10 11  1  0  0  0  0
 10 16  1  0  0  0  0
 10 42  1  0  0  0  0
 11 13  1  0  0  0  0
 11 21  1  0  0  0  0
 11 43  1  0  0  0  0
 12 14  1  0  0  0  0
 12 19  1  0  0  0  0
 12 44  1  0  0  0  0
 13 15  1  0  0  0  0
 13 18  1  0  0  0  0
 13 45  1  0  0  0  0
 14 16  1  0  0  0  0
 14 46  1  0  0  0  0
 15 20  1  0  0  0  0
 15 25  1  0  0  0  0
 15 27  1  0  0  0  0
 16 47  1  0  0  0  0
 16 48  1  0  0  0  0
 17 18  1  0  0  0  0
 17 49  1  0  0  0  0
 17 50  1  0  0  0  0
 18 51  1  0  0  0  0
 18 52  1  0  0  0  0
 19 22  1  0  0  0  0
 19 29  1  0  0  0  0
 19 53  1  0  0  0  0
 20 23  1  0  0  0  0
 20 26  1  0  0  0  0
 20 54  1  0  0  0  0
 21 23  1  0  0  0  0
 21 55  1  0  0  0  0
 21 56  1  0  0  0  0
 22 31  1  0  0  0  0
 23 57  1  0  0  0  0
 23 58  1  0  0  0  0
 24 59  1  0  0  0  0
 24 60  1  0  0  0  0
 24 61  1  0  0  0  0
 25 28  1  0  0  0  0
 25 62  1  0  0  0  0
 25 63  1  0  0  0  0
 26 30  1  0  0  0  0
 26 64  1  0  0  0  0
 26 65  1  0  0  0  0
 27 66  1  0  0  0  0
 27 67  1  0  0  0  0
 27 68  1  0  0  0  0
 28 30  1  0  0  0  0
 28 69  1  0  0  0  0
 28 70  1  0  0  0  0
 29 71  1  0  0  0  0
 29 72  1  0  0  0  0
 29 73  1  0  0  0  0
 30 74  1  0  0  0  0
 31 32  1  0  0  0  0
 31 75  1  0  0  0  0
 31 76  1  0  0  0  0
 32 34  1  0  0  0  0
 32 77  1  0  0  0  0
 32 78  1  0  0  0  0
 33 34  1  0  0  0  0
 33 79  1  0  0  0  0
 33 80  1  0  0  0  0
 34 35  1  0  0  0  0
 34 81  1  0  0  0  0
 35 82  1  0  0  0  0
 35 83  1  0  0  0  0
 35 84  1  0  0  0  0
 36 37  1  0  0  0  0
 36 85  1  0  0  0  0
 37 38  1  0  0  0  0
 37 86  1  0  0  0  0
 38 40  1  0  0  0  0
 38 87  1  0  0  0  0
 39 40  1  0  0  0  0
 39 41  1  0  0  0  0
 39 88  1  0  0  0  0
 40 89  1  0  0  0  0
 41 91  1  0  0  0  0
 41 92  1  0  0  0  0
M  END
> <PUBCHEM_COMPOUND_CID>
440454

> <PUBCHEM_CONFORMER_RMSD>
1

> <PUBCHEM_CONFORMER_DIVERSEORDER>
3
13
8
9
12
11
15
21
20
4
18
7
19
1
17
22
2
14
6
10
16
5

> <PUBCHEM_MMFF94_PARTIAL_CHARGES>
22
1 -0.56
14 0.28
2 -0.56
22 0.56
3 -0.56
30 0.28
33 0.28
36 0.56
37 0.28
38 0.28
39 0.28
4 -0.56
40 0.28
41 0.28
5 -0.68
6 -0.68
7 -0.68
8 -0.68
90 0.4
93 0.4
94 0.4
95 0.4

> <PUBCHEM_EFFECTIVE_ROTOR_COUNT>
7.4

> <PUBCHEM_PHARMACOPHORE_FEATURES>
19
1 1 acceptor
1 2 acceptor
1 3 acceptor
1 4 acceptor
1 5 acceptor
1 5 donor
1 6 acceptor
1 6 donor
1 7 acceptor
1 7 donor
1 8 acceptor
1 8 donor
5 1 12 14 19 22 rings
5 9 10 12 14 16 rings
6 11 13 15 20 21 23 rings
6 15 20 25 26 28 30 rings
6 2 22 31 32 33 34 rings
6 4 36 37 38 39 40 rings
6 9 10 11 13 17 18 rings

> <PUBCHEM_HEAVY_ATOM_COUNT>
41

> <PUBCHEM_ATOM_DEF_STEREO_COUNT>
17

> <PUBCHEM_ATOM_UDEF_STEREO_COUNT>
0

> <PUBCHEM_BOND_DEF_STEREO_COUNT>
0

> <PUBCHEM_BOND_UDEF_STEREO_COUNT>
0

> <PUBCHEM_ISOTOPIC_ATOM_COUNT>
0

> <PUBCHEM_COMPONENT_COUNT>
1

> <PUBCHEM_CACTVS_TAUTO_COUNT>
1

> <PUBCHEM_CONFORMER_ID>
0006B88600000003

> <PUBCHEM_MMFF94_ENERGY>
152.5509

> <PUBCHEM_FEATURE_SELFOVERLAP>
96.91

> <PUBCHEM_SHAPE_FINGERPRINT>
10 15 12103850059667581004
10076449 9 18410289198760236520
10100884 174 8429438335220603101
10190206 1 18188490293632521505
10533779 47 10087369992513390125
10625338 86 15554733286676849860
106641 1 12679459785501896323
10674148 151 16660364792242398283
11135926 11 16877660171638857567
11181472 205 17703790366629923754
11672396 167 17969496182653200262
12089408 11 17490154114881359082
12522641 33 17274826869467198323
12539765 74 17489590099206901882
13782708 43 6699516248095968245
13811026 1 17894631465786163032
14068700 675 16008747996084206384
14117953 113 17894627050981568612
14118638 360 17895751919553330386
14150022 121 11023841582025680471
14294032 229 15841561773093199575
14856354 85 16226052168128013013
14931854 50 18187364350416601238
150020 25 18186806867692732317
15064986 266 18260819384889200152
15064986 96 12895076262346529416
15131766 46 17342927146044004220
15183329 4 16732706047816961191
15247644 1 14562531773606544525
15301273 46 10159703512339773032
15392192 104 14692569922664470016
15461852 350 16773792571937024739
1577012 14 17203337736204857873
15840311 113 14548730704430035878
16728433 281 18123193669534989805
16994733 274 17917999421040452733
18603816 31 5400504802280990605
18608769 82 18410013200415824875
19315958 150 14117800233015248992
19841028 212 17968090989011704926
20105231 36 18335416847062242803
2026 5 16009573820624199518
20505436 4 17132121234176554626
21033648 29 15051165659730500500
21130935 74 10375608026043111941
21792961 116 17531246200973261212
22224240 67 11959732663994326848
23559900 14 17896611578516093192
23569917 315 17603576440464354262
23576562 1 18057605365215758885
24771293 8 11887680589132156255
249057 3 17822013090531687446
3092352 35 17275386503737112755
3633792 109 18187082858581716520
4093350 32 14549026498706223248
4098825 35 18407764729075069901
4353968 344 17822567317765401872
45266715 3 18337947991770750358
4625314 4 18334295336284279684
484989 97 18263643974637573027
54039377 194 17312821554626486583
6081469 158 18411417337284063636
6126387 218 5328746262499257499
6691757 9 14692563321996022617
9962374 69 13984675745416051928

> <PUBCHEM_SHAPE_MULTIPOLES>
796.81
31.39
2.17
1.76
8.54
0.4
0.39
3.93
-13.77
-2.32
-0.25
-0.55
0.08
1.26

> <PUBCHEM_SHAPE_SELFOVERLAP>
1702.468

> <PUBCHEM_SHAPE_VOLUME>
438.6

> <PUBCHEM_COORDINATE_TYPE>
2
5
10

$$$$

