11953934
  -OEChem-07051212573D

 57 58  0     1  0  0  0  0  0999 V2000
    0.3264    1.9510    1.0293 O   0  0  0  0  0  0  0  0  0  0  0  0
   -1.8691   -0.1580   -0.0348 O   0  0  0  0  0  0  0  0  0  0  0  0
   -0.6842   -0.8440   -3.4352 O   0  0  0  0  0  0  0  0  0  0  0  0
    2.5000   -1.2529    1.0996 O   0  0  0  0  0  0  0  0  0  0  0  0
   -0.9480    3.8566    1.1640 O   0  0  0  0  0  0  0  0  0  0  0  0
   -3.4023   -1.5745   -1.0064 O   0  0  0  0  0  0  0  0  0  0  0  0
    3.8657    0.1452    2.3311 O   0  0  0  0  0  0  0  0  0  0  0  0
   -0.2086    1.2242   -1.1923 C   0  0  2  0  0  0  0  0  0  0  0  0
   -1.3322    0.1548   -1.3185 C   0  0  1  0  0  0  0  0  0  0  0  0
    0.7499    1.0304   -0.0011 C   0  0  1  0  0  0  0  0  0  0  0  0
   -0.9160   -1.1481   -2.0569 C   0  0  2  0  0  0  0  0  0  0  0  0
   -0.7737    2.5703   -0.8672 C   0  0  0  0  0  0  0  0  0  0  0  0
    2.1892    1.3374   -0.3490 C   0  0  0  0  0  0  0  0  0  0  0  0
    0.3005   -1.8447   -1.4625 C   0  0  0  0  0  0  0  0  0  0  0  0
    3.2483    0.4998   -0.4062 C   0  0  0  0  0  0  0  0  0  0  0  0
   -0.5072    2.9085    0.5398 C   0  0  0  0  0  0  0  0  0  0  0  0
    3.2690   -0.9865   -0.0715 C   0  0  2  0  0  0  0  0  0  0  0  0
    2.8488   -1.9254   -1.2245 C   0  0  0  0  0  0  0  0  0  0  0  0
    1.5481   -1.5240   -1.8613 C   0  0  0  0  0  0  0  0  0  0  0  0
   -1.3963    3.4193   -1.6889 C   0  0  0  0  0  0  0  0  0  0  0  0
   -0.0061   -2.8311   -0.3667 C   0  0  0  0  0  0  0  0  0  0  0  0
    4.5864    1.0392   -0.8529 C   0  0  0  0  0  0  0  0  0  0  0  0
   -2.9075   -1.0419   -0.0232 C   0  0  0  0  0  0  0  0  0  0  0  0
   -3.3630   -1.2631    1.3829 C   0  0  0  0  0  0  0  0  0  0  0  0
    2.9132   -0.6168    2.2351 C   0  0  0  0  0  0  0  0  0  0  0  0
   -2.7552   -2.3942    2.1583 C   0  0  0  0  0  0  0  0  0  0  0  0
   -4.3207   -0.4289    1.8281 C   0  0  0  0  0  0  0  0  0  0  0  0
    2.0172   -0.9884    3.3775 C   0  0  0  0  0  0  0  0  0  0  0  0
   -4.9724    0.6861    1.0733 C   0  0  0  0  0  0  0  0  0  0  0  0
    0.3353    1.2791   -2.1437 H   0  0  0  0  0  0  0  0  0  0  0  0
   -2.1414    0.6093   -1.9091 H   0  0  0  0  0  0  0  0  0  0  0  0
    0.6461    0.0378    0.4313 H   0  0  0  0  0  0  0  0  0  0  0  0
   -1.6861   -1.9124   -2.1184 H   0  0  0  0  0  0  0  0  0  0  0  0
    2.3612    2.3788   -0.6232 H   0  0  0  0  0  0  0  0  0  0  0  0
    4.3004   -1.2745    0.1790 H   0  0  0  0  0  0  0  0  0  0  0  0
    2.7999   -2.9581   -0.8639 H   0  0  0  0  0  0  0  0  0  0  0  0
    3.6197   -1.9097   -2.0055 H   0  0  0  0  0  0  0  0  0  0  0  0
    1.6651   -0.7956   -2.6624 H   0  0  0  0  0  0  0  0  0  0  0  0
   -1.5638    3.1588   -2.7288 H   0  0  0  0  0  0  0  0  0  0  0  0
   -1.7519    4.3871   -1.3523 H   0  0  0  0  0  0  0  0  0  0  0  0
   -0.8309   -3.4894   -0.6580 H   0  0  0  0  0  0  0  0  0  0  0  0
   -0.2799   -2.3062    0.5506 H   0  0  0  0  0  0  0  0  0  0  0  0
    0.8406   -3.4814   -0.1333 H   0  0  0  0  0  0  0  0  0  0  0  0
   -1.5093   -0.4802   -3.7993 H   0  0  0  0  0  0  0  0  0  0  0  0
    4.9359    0.4959   -1.7370 H   0  0  0  0  0  0  0  0  0  0  0  0
    5.3292    0.9238   -0.0568 H   0  0  0  0  0  0  0  0  0  0  0  0
    4.5459    2.1019   -1.1143 H   0  0  0  0  0  0  0  0  0  0  0  0
   -3.3021   -2.5826    3.0879 H   0  0  0  0  0  0  0  0  0  0  0  0
   -2.7719   -3.3160    1.5683 H   0  0  0  0  0  0  0  0  0  0  0  0
   -1.7184   -2.1615    2.4187 H   0  0  0  0  0  0  0  0  0  0  0  0
   -4.6832   -0.5673    2.8450 H   0  0  0  0  0  0  0  0  0  0  0  0
    2.0732   -2.0649    3.5569 H   0  0  0  0  0  0  0  0  0  0  0  0
    0.9901   -0.6882    3.1547 H   0  0  0  0  0  0  0  0  0  0  0  0
    2.3447   -0.4655    4.2806 H   0  0  0  0  0  0  0  0  0  0  0  0
   -6.0516    0.5106    1.0212 H   0  0  0  0  0  0  0  0  0  0  0  0
   -4.6060    0.8104    0.0515 H   0  0  0  0  0  0  0  0  0  0  0  0
   -4.8081    1.6301    1.6026 H   0  0  0  0  0  0  0  0  0  0  0  0
  1 10  1  0  0  0  0
  1 16  1  0  0  0  0
  2  9  1  0  0  0  0
  2 23  1  0  0  0  0
  3 11  1  0  0  0  0
  3 44  1  0  0  0  0
  4 17  1  0  0  0  0
  4 25  1  0  0  0  0
  5 16  2  0  0  0  0
  6 23  2  0  0  0  0
  7 25  2  0  0  0  0
  8  9  1  0  0  0  0
  8 10  1  0  0  0  0
  8 12  1  0  0  0  0
  8 30  1  0  0  0  0
  9 11  1  0  0  0  0
  9 31  1  0  0  0  0
 10 13  1  0  0  0  0
 10 32  1  0  0  0  0
 11 14  1  0  0  0  0
 11 33  1  0  0  0  0
 12 16  1  0  0  0  0
 12 20  2  0  0  0  0
 13 15  2  0  0  0  0
 13 34  1  0  0  0  0
 14 19  2  0  0  0  0
 14 21  1  0  0  0  0
 15 17  1  0  0  0  0
 15 22  1  0  0  0  0
 17 18  1  0  0  0  0
 17 35  1  0  0  0  0
 18 19  1  0  0  0  0
 18 36  1  0  0  0  0
 18 37  1  0  0  0  0
 19 38  1  0  0  0  0
 20 39  1  0  0  0  0
 20 40  1  0  0  0  0
 21 41  1  0  0  0  0
 21 42  1  0  0  0  0
 21 43  1  0  0  0  0
 22 45  1  0  0  0  0
 22 46  1  0  0  0  0
 22 47  1  0  0  0  0
 23 24  1  0  0  0  0
 24 26  1  0  0  0  0
 24 27  2  0  0  0  0
 25 28  1  0  0  0  0
 26 48  1  0  0  0  0
 26 49  1  0  0  0  0
 26 50  1  0  0  0  0
 27 29  1  0  0  0  0
 27 51  1  0  0  0  0
 28 52  1  0  0  0  0
 28 53  1  0  0  0  0
 28 54  1  0  0  0  0
 29 55  1  0  0  0  0
 29 56  1  0  0  0  0
 29 57  1  0  0  0  0
M  END
> <PUBCHEM_COMPOUND_CID>
11953934

> <PUBCHEM_CONFORMER_RMSD>
0.8

> <PUBCHEM_CONFORMER_DIVERSEORDER>
1
12
37
14
13
28
31
18
34
2
23
17
27
9
22
36
38
32
29
19
33
25
35
39
15
8
24
26
16
4
7
20
11
10
21
30
40
6
3
5

> <PUBCHEM_MMFF94_PARTIAL_CHARGES>
35
1 -0.43
10 0.42
11 0.42
12 -0.12
13 -0.29
14 -0.28
15 -0.28
16 0.71
17 0.42
18 0.14
19 -0.29
2 -0.43
20 -0.3
21 0.14
22 0.14
23 0.71
24 -0.12
25 0.66
26 0.14
27 -0.29
28 0.06
29 0.14
3 -0.68
34 0.15
38 0.15
39 0.15
4 -0.43
40 0.15
44 0.4
5 -0.57
51 0.15
6 -0.57
7 -0.57
8 0.14
9 0.28

> <PUBCHEM_EFFECTIVE_ROTOR_COUNT>
6

> <PUBCHEM_PHARMACOPHORE_FEATURES>
8
1 26 hydrophobe
1 29 hydrophobe
1 3 acceptor
1 3 donor
1 5 acceptor
1 6 acceptor
1 7 acceptor
5 1 8 10 12 16 rings

> <PUBCHEM_HEAVY_ATOM_COUNT>
29

> <PUBCHEM_ATOM_DEF_STEREO_COUNT>
4

> <PUBCHEM_ATOM_UDEF_STEREO_COUNT>
1

> <PUBCHEM_BOND_DEF_STEREO_COUNT>
3

> <PUBCHEM_BOND_UDEF_STEREO_COUNT>
0

> <PUBCHEM_ISOTOPIC_ATOM_COUNT>
0

> <PUBCHEM_COMPONENT_COUNT>
1

> <PUBCHEM_CACTVS_TAUTO_COUNT>
1

> <PUBCHEM_CONFORMER_ID>
00B6670E00000001

> <PUBCHEM_MMFF94_ENERGY>
73.7234

> <PUBCHEM_FEATURE_SELFOVERLAP>
40.594

> <PUBCHEM_SHAPE_FINGERPRINT>
10165383 225 17530953688357692462
10863032 1 16772973487445768998
11244481 83 17912347746051767251
12156800 1 17695902619982779075
12422481 6 18186805803248088498
12539773 59 16106783936025025131
12553582 1 18335710381900451820
12633257 1 18201442450001712667
12788726 201 18342180015613775457
133893 2 17619939169616051452
13965767 371 17749108928143234235
14142880 1 17170144484778654134
14251757 17 12319444472942772129
14787075 74 17414699987411833142
14790565 3 18045487626250205220
14955137 171 17902482944790834700
1601671 61 18187350017894612685
20600515 1 18198317629339043855
20691752 17 18409161104130926671
20775530 9 16271381823230652314
21033648 29 17822281418972338139
21421861 104 17917140718847335865
2748010 2 17970917884533977956
350125 39 18189319338294562590
35225 105 17840861103485707555
3797600 57 18060136505882207098
392239 28 17630895906688553144
394222 165 16696906949448395287
81228 2 17763708342848086573
8509985 295 18200579351170494745
9981440 41 17175511381780924360

> <PUBCHEM_SHAPE_MULTIPOLES>
555.72
7.04
3.55
2.89
1.94
2.77
-0.33
-2.11
-3.34
1.41
-0.41
-0.73
-1.28
0.15

> <PUBCHEM_SHAPE_SELFOVERLAP>
1150.952

> <PUBCHEM_SHAPE_VOLUME>
314.2

> <PUBCHEM_COORDINATE_TYPE>
2
5
10

$$$$

