46173877
  -OEChem-07051213103D

 60 60  0     1  0  0  0  0  0999 V2000
   -2.0693    0.3344    2.2314 S   0  0  0  0  0  0  0  0  0  0  0  0
   10.1020    1.7214   -0.2393 S   0  0  0  0  0  0  0  0  0  0  0  0
   -1.4365   -3.9214   -0.6311 S   0  0  0  0  0  0  0  0  0  0  0  0
   -2.5918    0.9211   -0.3032 O   0  0  0  0  0  0  0  0  0  0  0  0
   -5.8573    3.3059    0.4425 O   0  0  0  0  0  0  0  0  0  0  0  0
   -5.3851    2.3449   -2.2182 O   0  0  0  0  0  0  0  0  0  0  0  0
   -5.0140    1.3793    2.4262 O   0  0  0  0  0  0  0  0  0  0  0  0
   -1.7781    0.1343   -2.7974 O   0  0  0  0  0  0  0  0  0  0  0  0
   -0.7459   -2.8304    0.3680 O   0  0  0  0  0  0  0  0  0  0  0  0
   -0.1677   -4.8305   -1.1018 O   0  0  0  0  0  0  0  0  0  0  0  0
   -1.9321   -3.2199   -1.8008 O   0  0  0  0  0  0  0  0  0  0  0  0
   -2.3174   -4.7674    0.1523 O   0  0  0  0  0  0  0  0  0  0  0  0
   -1.6634   -1.8570    0.7737 N   0  0  0  0  0  0  0  0  0  0  0  0
   -5.1766    2.0837    0.1506 C   0  0  1  0  0  0  0  0  0  0  0  0
   -4.4242    2.2535   -1.1698 C   0  0  1  0  0  0  0  0  0  0  0  0
   -4.2203    1.7535    1.3011 C   0  0  2  0  0  0  0  0  0  0  0  0
   -3.4823    1.0708   -1.4096 C   0  0  1  0  0  0  0  0  0  0  0  0
   -3.2720    0.6144    0.9136 C   0  0  2  0  0  0  0  0  0  0  0  0
   -2.6231    1.2615   -2.6558 C   0  0  0  0  0  0  0  0  0  0  0  0
    1.2182   -0.2530    1.0309 C   0  0  0  0  0  0  0  0  0  0  0  0
    2.6883   -0.2956    1.4523 C   0  0  0  0  0  0  0  0  0  0  0  0
    0.3340   -1.0104    2.0219 C   0  0  0  0  0  0  0  0  0  0  0  0
   -1.1132   -0.9922    1.5666 C   0  0  0  0  0  0  0  0  0  0  0  0
    3.5754    0.4313    0.4392 C   0  0  0  0  0  0  0  0  0  0  0  0
    5.0680    0.3590    0.7743 C   0  0  0  0  0  0  0  0  0  0  0  0
    5.9532    1.1070   -0.2265 C   0  0  0  0  0  0  0  0  0  0  0  0
    7.4290    1.0373    0.1835 C   0  0  0  0  0  0  0  0  0  0  0  0
    8.3670    1.7689   -0.7761 C   0  0  0  0  0  0  0  0  0  0  0  0
   10.5351    0.0954   -0.8986 C   0  0  0  0  0  0  0  0  0  0  0  0
   -5.9554    1.3170    0.0589 H   0  0  0  0  0  0  0  0  0  0  0  0
   -3.8621    3.1952   -1.1563 H   0  0  0  0  0  0  0  0  0  0  0  0
   -3.6611    2.6576    1.5738 H   0  0  0  0  0  0  0  0  0  0  0  0
   -4.0480    0.1367   -1.5295 H   0  0  0  0  0  0  0  0  0  0  0  0
   -3.8409   -0.3154    0.7886 H   0  0  0  0  0  0  0  0  0  0  0  0
   -3.2389    1.3565   -3.5552 H   0  0  0  0  0  0  0  0  0  0  0  0
   -1.9855    2.1465   -2.5580 H   0  0  0  0  0  0  0  0  0  0  0  0
   -5.1911    4.0083    0.5345 H   0  0  0  0  0  0  0  0  0  0  0  0
   -5.8613    1.4983   -2.2642 H   0  0  0  0  0  0  0  0  0  0  0  0
   -5.4882    0.5607    2.2013 H   0  0  0  0  0  0  0  0  0  0  0  0
    1.1074   -0.6887    0.0301 H   0  0  0  0  0  0  0  0  0  0  0  0
    0.8856    0.7895    0.9548 H   0  0  0  0  0  0  0  0  0  0  0  0
    3.0148   -1.3389    1.5395 H   0  0  0  0  0  0  0  0  0  0  0  0
    2.8054    0.1647    2.4406 H   0  0  0  0  0  0  0  0  0  0  0  0
    0.6751   -2.0461    2.1275 H   0  0  0  0  0  0  0  0  0  0  0  0
    0.4176   -0.5578    3.0173 H   0  0  0  0  0  0  0  0  0  0  0  0
    3.4158    0.0014   -0.5575 H   0  0  0  0  0  0  0  0  0  0  0  0
    3.2696    1.4834    0.3824 H   0  0  0  0  0  0  0  0  0  0  0  0
    5.2265    0.7741    1.7775 H   0  0  0  0  0  0  0  0  0  0  0  0
    5.3761   -0.6932    0.8149 H   0  0  0  0  0  0  0  0  0  0  0  0
    5.6389    2.1558   -0.2846 H   0  0  0  0  0  0  0  0  0  0  0  0
    5.8272    0.6738   -1.2258 H   0  0  0  0  0  0  0  0  0  0  0  0
   -1.2379    0.2785   -3.5929 H   0  0  0  0  0  0  0  0  0  0  0  0
    7.7215   -0.0176    0.2529 H   0  0  0  0  0  0  0  0  0  0  0  0
    7.5343    1.4634    1.1897 H   0  0  0  0  0  0  0  0  0  0  0  0
    8.0753    2.8237   -0.8260 H   0  0  0  0  0  0  0  0  0  0  0  0
    8.2807    1.3678   -1.7915 H   0  0  0  0  0  0  0  0  0  0  0  0
   11.5889   -0.1058   -0.6878 H   0  0  0  0  0  0  0  0  0  0  0  0
   10.3905    0.0694   -1.9818 H   0  0  0  0  0  0  0  0  0  0  0  0
    9.9361   -0.6873   -0.4270 H   0  0  0  0  0  0  0  0  0  0  0  0
   -0.3821   -5.5638   -1.7250 H   0  0  0  0  0  0  0  0  0  0  0  0
  1 18  1  0  0  0  0
  1 23  1  0  0  0  0
  2 28  1  0  0  0  0
  2 29  1  0  0  0  0
  3  9  1  0  0  0  0
  3 10  1  0  0  0  0
  3 11  2  0  0  0  0
  3 12  2  0  0  0  0
  4 17  1  0  0  0  0
  4 18  1  0  0  0  0
  5 14  1  0  0  0  0
  5 37  1  0  0  0  0
  6 15  1  0  0  0  0
  6 38  1  0  0  0  0
  7 16  1  0  0  0  0
  7 39  1  0  0  0  0
  8 19  1  0  0  0  0
  8 52  1  0  0  0  0
  9 13  1  0  0  0  0
 10 60  1  0  0  0  0
 13 23  2  0  0  0  0
 14 15  1  0  0  0  0
 14 16  1  0  0  0  0
 14 30  1  0  0  0  0
 15 17  1  0  0  0  0
 15 31  1  0  0  0  0
 16 18  1  0  0  0  0
 16 32  1  0  0  0  0
 17 19  1  0  0  0  0
 17 33  1  0  0  0  0
 18 34  1  0  0  0  0
 19 35  1  0  0  0  0
 19 36  1  0  0  0  0
 20 21  1  0  0  0  0
 20 22  1  0  0  0  0
 20 40  1  0  0  0  0
 20 41  1  0  0  0  0
 21 24  1  0  0  0  0
 21 42  1  0  0  0  0
 21 43  1  0  0  0  0
 22 23  1  0  0  0  0
 22 44  1  0  0  0  0
 22 45  1  0  0  0  0
 24 25  1  0  0  0  0
 24 46  1  0  0  0  0
 24 47  1  0  0  0  0
 25 26  1  0  0  0  0
 25 48  1  0  0  0  0
 25 49  1  0  0  0  0
 26 27  1  0  0  0  0
 26 50  1  0  0  0  0
 26 51  1  0  0  0  0
 27 28  1  0  0  0  0
 27 53  1  0  0  0  0
 27 54  1  0  0  0  0
 28 55  1  0  0  0  0
 28 56  1  0  0  0  0
 29 57  1  0  0  0  0
 29 58  1  0  0  0  0
 29 59  1  0  0  0  0
M  END
> <PUBCHEM_COMPOUND_CID>
46173877

> <PUBCHEM_CONFORMER_RMSD>
1.2

> <PUBCHEM_CONFORMER_DIVERSEORDER>
1
70
2
14
34
18
55
24
28
12
36
59
80
50
5
60
39
40
57
66
71
75
72
19
30
8
79
62
15
9
13
31
63
85
21
83
11
22
61
35
37
67
51
7
68
45
29
73
69
64
4
6
82
56
84
26
32
78
54
38
58
10
25
65
81
77
16
42
23
47
43
3
20
52
33
27
74
53
44
41
48
46
86
76
49
17

> <PUBCHEM_MMFF94_PARTIAL_CHARGES>
28
1 -0.37
10 -0.68
11 -0.65
12 -0.65
13 -0.51
14 0.28
15 0.28
16 0.28
17 0.28
18 0.51
19 0.28
2 -0.46
22 0.06
23 0.53
28 0.23
29 0.23
3 1.67
37 0.4
38 0.4
39 0.4
4 -0.56
5 -0.68
52 0.4
6 -0.68
60 0.5
7 -0.68
8 -0.68
9 -0.12

> <PUBCHEM_EFFECTIVE_ROTOR_COUNT>
15.2

> <PUBCHEM_PHARMACOPHORE_FEATURES>
16
1 10 acceptor
1 11 acceptor
1 12 acceptor
1 13 acceptor
1 29 hydrophobe
1 4 acceptor
1 5 acceptor
1 5 donor
1 6 acceptor
1 6 donor
1 7 acceptor
1 7 donor
1 8 acceptor
1 8 donor
4 3 10 11 12 anion
6 4 14 15 16 17 18 rings

> <PUBCHEM_HEAVY_ATOM_COUNT>
29

> <PUBCHEM_ATOM_DEF_STEREO_COUNT>
5

> <PUBCHEM_ATOM_UDEF_STEREO_COUNT>
0

> <PUBCHEM_BOND_DEF_STEREO_COUNT>
0

> <PUBCHEM_BOND_UDEF_STEREO_COUNT>
1

> <PUBCHEM_ISOTOPIC_ATOM_COUNT>
0

> <PUBCHEM_COMPONENT_COUNT>
1

> <PUBCHEM_CACTVS_TAUTO_COUNT>
1

> <PUBCHEM_CONFORMER_ID>
02C08EB500000001

> <PUBCHEM_MMFF94_ENERGY>
46.2848

> <PUBCHEM_FEATURE_SELFOVERLAP>
81.268

> <PUBCHEM_SHAPE_FINGERPRINT>
10 15 16487255487248760160
10369192 42 18412257372399228049
105312 117 18408601465776378234
10577160 183 18343034281268589874
10674148 151 5184349586387540667
11200772 48 17530686498447548204
12047536 79 8244953654180178368
13911987 19 18337398231202491841
21033650 10 16805877498288598936
23559900 14 15334890541968393299
44802255 64 18413669110716463362
484985 159 4678540242691309887
504843 32 18411982451094718659

> <PUBCHEM_SHAPE_MULTIPOLES>
550.55
23.74
4.61
2.41
90.71
7.7
0.62
-23.46
5.8
-8.01
2.12
-3.8
-0.39
-0.32

> <PUBCHEM_SHAPE_SELFOVERLAP>
1033.404

> <PUBCHEM_SHAPE_VOLUME>
343.1

> <PUBCHEM_COORDINATE_TYPE>
2
5
10

$$$$

