11952
  -OEChem-06261206193D

 19 19  0     0  0  0  0  0  0999 V2000
    1.7986   -1.4730    0.0003 O   0  0  0  0  0  0  0  0  0  0  0  0
    3.6492    0.4649   -0.0016 N   0  0  0  0  0  0  0  0  0  0  0  0
   -0.1221   -0.1201    0.0001 C   0  0  0  0  0  0  0  0  0  0  0  0
    1.3182   -0.3204    0.0007 C   0  0  0  0  0  0  0  0  0  0  0  0
    2.2560    0.8972    0.0012 C   0  0  0  0  0  0  0  0  0  0  0  0
   -0.6467    1.1724    0.0001 C   0  0  0  0  0  0  0  0  0  0  0  0
   -0.9790   -1.2205   -0.0001 C   0  0  0  0  0  0  0  0  0  0  0  0
   -2.0283    1.3644    0.0000 C   0  0  0  0  0  0  0  0  0  0  0  0
   -2.3607   -1.0287   -0.0003 C   0  0  0  0  0  0  0  0  0  0  0  0
   -2.8853    0.2639   -0.0003 C   0  0  0  0  0  0  0  0  0  0  0  0
    2.0754    1.4864    0.9051 H   0  0  0  0  0  0  0  0  0  0  0  0
    2.0693    1.5015   -0.8916 H   0  0  0  0  0  0  0  0  0  0  0  0
   -0.0190    2.0578    0.0007 H   0  0  0  0  0  0  0  0  0  0  0  0
   -0.5959   -2.2375    0.0001 H   0  0  0  0  0  0  0  0  0  0  0  0
   -2.4375    2.3705    0.0001 H   0  0  0  0  0  0  0  0  0  0  0  0
   -3.0283   -1.8854   -0.0005 H   0  0  0  0  0  0  0  0  0  0  0  0
   -3.9610    0.4133   -0.0004 H   0  0  0  0  0  0  0  0  0  0  0  0
    4.2555    1.2843   -0.0122 H   0  0  0  0  0  0  0  0  0  0  0  0
    3.8463   -0.0429   -0.8633 H   0  0  0  0  0  0  0  0  0  0  0  0
  1  4  2  0  0  0  0
  2  5  1  0  0  0  0
  2 18  1  0  0  0  0
  2 19  1  0  0  0  0
  3  4  1  0  0  0  0
  3  6  2  0  0  0  0
  3  7  1  0  0  0  0
  4  5  1  0  0  0  0
  5 11  1  0  0  0  0
  5 12  1  0  0  0  0
  6  8  1  0  0  0  0
  6 13  1  0  0  0  0
  7  9  2  0  0  0  0
  7 14  1  0  0  0  0
  8 10  2  0  0  0  0
  8 15  1  0  0  0  0
  9 10  1  0  0  0  0
  9 16  1  0  0  0  0
 10 17  1  0  0  0  0
M  END
> <PUBCHEM_COMPOUND_CID>
11952

> <PUBCHEM_CONFORMER_RMSD>
0.4

> <PUBCHEM_CONFORMER_DIVERSEORDER>
1
8
2
4
3
7
9
6
5

> <PUBCHEM_MMFF94_PARTIAL_CHARGES>
17
1 -0.57
10 -0.15
13 0.15
14 0.15
15 0.15
16 0.15
17 0.15
18 0.36
19 0.36
2 -0.99
3 0.09
4 0.42
5 0.33
6 -0.15
7 -0.15
8 -0.15
9 -0.15

> <PUBCHEM_EFFECTIVE_ROTOR_COUNT>
2

> <PUBCHEM_PHARMACOPHORE_FEATURES>
4
1 1 acceptor
1 2 cation
1 2 donor
6 3 6 7 8 9 10 rings

> <PUBCHEM_HEAVY_ATOM_COUNT>
10

> <PUBCHEM_ATOM_DEF_STEREO_COUNT>
0

> <PUBCHEM_ATOM_UDEF_STEREO_COUNT>
0

> <PUBCHEM_BOND_DEF_STEREO_COUNT>
0

> <PUBCHEM_BOND_UDEF_STEREO_COUNT>
0

> <PUBCHEM_ISOTOPIC_ATOM_COUNT>
0

> <PUBCHEM_COMPONENT_COUNT>
1

> <PUBCHEM_CACTVS_TAUTO_COUNT>
3

> <PUBCHEM_CONFORMER_ID>
00002EB000000001

> <PUBCHEM_MMFF94_ENERGY>
23.7768

> <PUBCHEM_FEATURE_SELFOVERLAP>
20.297

> <PUBCHEM_SHAPE_FINGERPRINT>
10857977 72 18338243652269182409
12897270 3 18409449159097286820
13024252 1 16056882420805072305
13380535 76 18411140242430546706
14325111 11 18410575123333699776
14390081 3 18335422361208952472
15775835 57 18411414050748053385
16945 1 18410856516911747141
19973954 147 18337669823021259692
20201158 50 18408887325735090147
20871998 184 18187641341542816527
21040471 1 18338517568203646117
23402655 69 18264506129857166037
23552423 10 18271524294458315635
2748010 2 18339358690256389959
369184 2 18343022215813527939
5084963 1 18116720809830799027
6333449 129 18335986393578404981
7364860 26 18263082283262419990

> <PUBCHEM_SHAPE_MULTIPOLES>
194.94
4.66
1.49
0.6
2.52
0.07
0
-0.56
0
-0.3
0
-0.05
-0.01
0

> <PUBCHEM_SHAPE_SELFOVERLAP>
401.839

> <PUBCHEM_SHAPE_VOLUME>
111.9

> <PUBCHEM_COORDINATE_TYPE>
2
5
10

$$$$

