5462438
  -OEChem-07051212573D

 70 74  0     1  0  0  0  0  0999 V2000
    2.4506   -3.4375    1.0807 O   0  0  0  0  0  0  0  0  0  0  0  0
    4.8385   -3.3956   -0.3363 O   0  0  0  0  0  0  0  0  0  0  0  0
   -4.2193   -1.4025   -2.8746 O   0  0  0  0  0  0  0  0  0  0  0  0
   -5.2049   -3.1748   -1.0000 O   0  0  0  0  0  0  0  0  0  0  0  0
    2.2959    2.5060   -0.5328 N   0  0  1  0  0  0  0  0  0  0  0  0
   -2.4397    1.3429    2.2756 N   0  0  0  0  0  0  0  0  0  0  0  0
   -0.4747    2.5186    0.3872 C   0  0  2  0  0  0  0  0  0  0  0  0
    0.1201    3.6857   -0.4271 C   0  0  2  0  0  0  0  0  0  0  0  0
    1.8318    1.4095    0.3517 C   0  0  1  0  0  0  0  0  0  0  0  0
    0.3163    1.2254    0.1181 C   0  0  0  0  0  0  0  0  0  0  0  0
    1.6388    3.7757   -0.1997 C   0  0  0  0  0  0  0  0  0  0  0  0
   -1.9581    2.2873    0.0878 C   0  0  0  0  0  0  0  0  0  0  0  0
    3.7532    2.6458   -0.4725 C   0  0  0  0  0  0  0  0  0  0  0  0
    2.6182    0.1133    0.1508 C   0  0  0  0  0  0  0  0  0  0  0  0
   -0.5296    5.0291   -0.0829 C   0  0  0  0  0  0  0  0  0  0  0  0
    4.3976    1.4116   -1.0984 C   0  0  0  0  0  0  0  0  0  0  0  0
    3.8565    0.1309   -0.5215 C   0  0  0  0  0  0  0  0  0  0  0  0
   -2.5184    1.1481    0.9039 C   0  0  0  0  0  0  0  0  0  0  0  0
    2.1783   -1.1013    0.7035 C   0  0  0  0  0  0  0  0  0  0  0  0
   -0.0016    6.1372   -0.9707 C   0  0  0  0  0  0  0  0  0  0  0  0
    4.5842   -1.0568   -0.6926 C   0  0  0  0  0  0  0  0  0  0  0  0
   -3.0768    0.0245    0.3788 C   0  0  0  0  0  0  0  0  0  0  0  0
    2.9151   -2.2763    0.5398 C   0  0  0  0  0  0  0  0  0  0  0  0
    4.1133   -2.2560   -0.1652 C   0  0  0  0  0  0  0  0  0  0  0  0
   -3.1290    0.5067    3.2345 C   0  0  0  0  0  0  0  0  0  0  0  0
   -3.5012   -1.0475    1.2992 C   0  0  0  0  0  0  0  0  0  0  0  0
   -3.0940   -0.9385    2.7504 C   0  0  0  0  0  0  0  0  0  0  0  0
   -3.2899   -0.1644   -1.0529 C   0  0  0  0  0  0  0  0  0  0  0  0
   -4.2011   -2.0990    0.8452 C   0  0  0  0  0  0  0  0  0  0  0  0
   -3.9767   -1.2141   -1.5313 C   0  0  0  0  0  0  0  0  0  0  0  0
   -4.5246   -2.2363   -0.5979 C   0  0  0  0  0  0  0  0  0  0  0  0
    1.6012   -4.2391    0.2624 C   0  0  0  0  0  0  0  0  0  0  0  0
    5.8138   -3.6997    0.6594 C   0  0  0  0  0  0  0  0  0  0  0  0
   -3.1836   -2.1587   -3.4725 C   0  0  0  0  0  0  0  0  0  0  0  0
   -0.3492    2.7695    1.4497 H   0  0  0  0  0  0  0  0  0  0  0  0
   -0.0544    3.4808   -1.4936 H   0  0  0  0  0  0  0  0  0  0  0  0
    1.9943    1.7002    1.4004 H   0  0  0  0  0  0  0  0  0  0  0  0
   -0.0543    0.4370    0.7789 H   0  0  0  0  0  0  0  0  0  0  0  0
    0.1385    0.8816   -0.9108 H   0  0  0  0  0  0  0  0  0  0  0  0
    2.0561    4.5459   -0.8567 H   0  0  0  0  0  0  0  0  0  0  0  0
    1.8597    4.0722    0.8344 H   0  0  0  0  0  0  0  0  0  0  0  0
   -2.0875    2.1716   -0.9895 H   0  0  0  0  0  0  0  0  0  0  0  0
   -2.5416    3.1773    0.3523 H   0  0  0  0  0  0  0  0  0  0  0  0
    4.0862    3.5225   -1.0416 H   0  0  0  0  0  0  0  0  0  0  0  0
    4.0941    2.7814    0.5627 H   0  0  0  0  0  0  0  0  0  0  0  0
   -1.6116    4.9801   -0.2375 H   0  0  0  0  0  0  0  0  0  0  0  0
   -0.3674    5.2854    0.9705 H   0  0  0  0  0  0  0  0  0  0  0  0
    5.4815    1.4634   -0.9402 H   0  0  0  0  0  0  0  0  0  0  0  0
    4.2178    1.4054   -2.1810 H   0  0  0  0  0  0  0  0  0  0  0  0
    1.2597   -1.1468    1.2821 H   0  0  0  0  0  0  0  0  0  0  0  0
    1.0194    6.4269   -0.7065 H   0  0  0  0  0  0  0  0  0  0  0  0
   -0.0282    5.8574   -2.0287 H   0  0  0  0  0  0  0  0  0  0  0  0
   -0.6211    7.0329   -0.8499 H   0  0  0  0  0  0  0  0  0  0  0  0
    5.5268   -1.0408   -1.2352 H   0  0  0  0  0  0  0  0  0  0  0  0
   -2.0875    2.2378    2.5986 H   0  0  0  0  0  0  0  0  0  0  0  0
   -4.1648    0.8508    3.3381 H   0  0  0  0  0  0  0  0  0  0  0  0
   -2.6506    0.5914    4.2157 H   0  0  0  0  0  0  0  0  0  0  0  0
   -3.7321   -1.5549    3.3945 H   0  0  0  0  0  0  0  0  0  0  0  0
   -2.0703   -1.3248    2.8467 H   0  0  0  0  0  0  0  0  0  0  0  0
   -2.9099    0.5526   -1.7691 H   0  0  0  0  0  0  0  0  0  0  0  0
   -4.5268   -2.8977    1.5029 H   0  0  0  0  0  0  0  0  0  0  0  0
    1.3204   -5.1305    0.8300 H   0  0  0  0  0  0  0  0  0  0  0  0
    0.6912   -3.6896    0.0009 H   0  0  0  0  0  0  0  0  0  0  0  0
    2.1250   -4.5531   -0.6460 H   0  0  0  0  0  0  0  0  0  0  0  0
    5.3400   -3.8217    1.6385 H   0  0  0  0  0  0  0  0  0  0  0  0
    6.5735   -2.9130    0.7046 H   0  0  0  0  0  0  0  0  0  0  0  0
    6.2999   -4.6403    0.3865 H   0  0  0  0  0  0  0  0  0  0  0  0
   -3.0968   -3.1504   -3.0147 H   0  0  0  0  0  0  0  0  0  0  0  0
   -2.2239   -1.6330   -3.4143 H   0  0  0  0  0  0  0  0  0  0  0  0
   -3.4286   -2.2961   -4.5299 H   0  0  0  0  0  0  0  0  0  0  0  0
  1 23  1  0  0  0  0
  1 32  1  0  0  0  0
  2 24  1  0  0  0  0
  2 33  1  0  0  0  0
  3 30  1  0  0  0  0
  3 34  1  0  0  0  0
  4 31  2  0  0  0  0
  5  9  1  0  0  0  0
  5 11  1  0  0  0  0
  5 13  1  0  0  0  0
  6 18  1  0  0  0  0
  6 25  1  0  0  0  0
  6 55  1  0  0  0  0
  7  8  1  0  0  0  0
  7 10  1  0  0  0  0
  7 12  1  0  0  0  0
  7 35  1  0  0  0  0
  8 11  1  0  0  0  0
  8 15  1  0  0  0  0
  8 36  1  0  0  0  0
  9 10  1  0  0  0  0
  9 14  1  0  0  0  0
  9 37  1  0  0  0  0
 10 38  1  0  0  0  0
 10 39  1  0  0  0  0
 11 40  1  0  0  0  0
 11 41  1  0  0  0  0
 12 18  1  0  0  0  0
 12 42  1  0  0  0  0
 12 43  1  0  0  0  0
 13 16  1  0  0  0  0
 13 44  1  0  0  0  0
 13 45  1  0  0  0  0
 14 17  1  0  0  0  0
 14 19  2  0  0  0  0
 15 20  1  0  0  0  0
 15 46  1  0  0  0  0
 15 47  1  0  0  0  0
 16 17  1  0  0  0  0
 16 48  1  0  0  0  0
 16 49  1  0  0  0  0
 17 21  2  0  0  0  0
 18 22  2  0  0  0  0
 19 23  1  0  0  0  0
 19 50  1  0  0  0  0
 20 51  1  0  0  0  0
 20 52  1  0  0  0  0
 20 53  1  0  0  0  0
 21 24  1  0  0  0  0
 21 54  1  0  0  0  0
 22 26  1  0  0  0  0
 22 28  1  0  0  0  0
 23 24  2  0  0  0  0
 25 27  1  0  0  0  0
 25 56  1  0  0  0  0
 25 57  1  0  0  0  0
 26 27  1  0  0  0  0
 26 29  2  0  0  0  0
 27 58  1  0  0  0  0
 27 59  1  0  0  0  0
 28 30  2  0  0  0  0
 28 60  1  0  0  0  0
 29 31  1  0  0  0  0
 29 61  1  0  0  0  0
 30 31  1  0  0  0  0
 32 62  1  0  0  0  0
 32 63  1  0  0  0  0
 32 64  1  0  0  0  0
 33 65  1  0  0  0  0
 33 66  1  0  0  0  0
 33 67  1  0  0  0  0
 34 68  1  0  0  0  0
 34 69  1  0  0  0  0
 34 70  1  0  0  0  0
M  END
> <PUBCHEM_COMPOUND_CID>
5462438

> <PUBCHEM_CONFORMER_RMSD>
1

> <PUBCHEM_CONFORMER_DIVERSEORDER>
2
9
7
11
10
4
8
5
1
6
3

> <PUBCHEM_MMFF94_PARTIAL_CHARGES>
33
1 -0.36
11 0.27
12 0.14
13 0.27
14 -0.14
16 0.14
17 -0.14
18 -0.04
19 -0.15
2 -0.36
21 -0.15
23 0.08
24 0.08
25 0.37
26 -0.14
27 0.14
28 -0.15
29 -0.14
3 -0.36
30 0.09
31 0.54
32 0.28
33 0.28
34 0.28
4 -0.57
5 -0.81
50 0.15
54 0.15
55 0.4
6 -0.87
60 0.15
61 0.15
9 0.41

> <PUBCHEM_EFFECTIVE_ROTOR_COUNT>
7.8

> <PUBCHEM_PHARMACOPHORE_FEATURES>
13
1 1 acceptor
1 2 acceptor
1 20 hydrophobe
1 3 acceptor
1 4 acceptor
1 5 cation
1 6 cation
1 6 donor
6 14 17 19 21 23 24 rings
6 22 26 28 29 30 31 rings
6 5 7 8 9 10 11 rings
6 5 9 13 14 16 17 rings
6 6 18 22 25 26 27 rings

> <PUBCHEM_HEAVY_ATOM_COUNT>
34

> <PUBCHEM_ATOM_DEF_STEREO_COUNT>
3

> <PUBCHEM_ATOM_UDEF_STEREO_COUNT>
0

> <PUBCHEM_BOND_DEF_STEREO_COUNT>
0

> <PUBCHEM_BOND_UDEF_STEREO_COUNT>
0

> <PUBCHEM_ISOTOPIC_ATOM_COUNT>
0

> <PUBCHEM_COMPONENT_COUNT>
1

> <PUBCHEM_CACTVS_TAUTO_COUNT>
11

> <PUBCHEM_CONFORMER_ID>
005359A600000002

> <PUBCHEM_MMFF94_ENERGY>
115.0225

> <PUBCHEM_FEATURE_SELFOVERLAP>
66.044

> <PUBCHEM_SHAPE_FINGERPRINT>
10622 236 18187092715405645303
10928967 22 18335684058082915550
10940486 97 17839168964319337708
11049842 53 14619143407065367777
11135926 11 18198894813114881108
11227688 84 18341037563081984452
11285246 1 17626697107504638173
12553582 1 18342449391645917136
12786520 15 17470677472579420378
12788726 201 17911528906220718697
13383661 66 15958944165760391687
13690498 29 18051104159678149868
13911987 19 17769358440666455476
14114206 34 17702383038337032624
14279260 333 17412170342228421642
14659021 117 18197509617320781338
14674994 50 17826808219501610745
14844126 61 17981041139525251408
16628084 112 17838339936736107317
17138139 8 16597317412673745221
19315092 285 17749401308183808768
19319366 153 17540537916289446157
20511986 3 17678731238318774457
20764821 26 18341886433124134114
20775438 99 17835007157620307829
20775530 9 18260267429940837979
21133410 171 17553532219458738659
21133410 38 16966580696223995963
21133665 82 16899895887419435110
3383291 50 17905895030152150073
3882209 13 17840059490832514362
4017518 198 16608026148790417214
44880168 125 17534610814071350822
46194498 28 17201918124890744551
463206 1 18341604962278665674
4756261 7 9077392713695230077
5223283 242 18340785771273233693
613672 6 18341910579229370698
6677587 24 16539395204716399093

> <PUBCHEM_SHAPE_MULTIPOLES>
666.26
11.02
7.07
2.26
2.75
6.84
-0.23
-12.91
-1.8
4.36
-1.44
-4.5
-1.31
-2.79

> <PUBCHEM_SHAPE_SELFOVERLAP>
1430.78

> <PUBCHEM_SHAPE_VOLUME>
366.7

> <PUBCHEM_COORDINATE_TYPE>
2
5
10

$$$$

