5281035
  -OEChem-07051212532D

 57 60  0     0  0  0  0  0  0999 V2000
    4.9836   -0.7905    0.0000 N   0  0  0  0  0  0  0  0  0  0  0  0
   10.0303   -0.4541    0.0000 N   0  3  0  0  0  0  0  0  0  0  0  0
   13.5605    1.5701    0.0000 N   0  0  0  0  0  0  0  0  0  0  0  0
    5.6527   -0.0473    0.0000 C   0  0  0  0  0  0  0  0  0  0  0  0
    6.5662   -0.4541    0.0000 C   0  0  0  0  0  0  0  0  0  0  0  0
   10.8964    0.0459    0.0000 C   0  0  0  0  0  0  0  0  0  0  0  0
    5.4836   -1.6565    0.0000 C   0  0  0  0  0  0  0  0  0  0  0  0
   10.8964    1.0459    0.0000 C   0  0  0  0  0  0  0  0  0  0  0  0
    9.1643    0.0459    0.0000 C   0  0  0  0  0  0  0  0  0  0  0  0
    6.4617   -1.4486    0.0000 C   0  0  0  0  0  0  0  0  0  0  0  0
    3.9890   -0.6860    0.0000 C   0  0  0  0  0  0  0  0  0  0  0  0
    7.4323    0.0459    0.0000 C   0  0  0  0  0  0  0  0  0  0  0  0
    8.2983   -0.4541    0.0000 C   0  0  0  0  0  0  0  0  0  0  0  0
   11.7903    1.5806    0.0000 C   0  0  0  0  0  0  0  0  0  0  0  0
   12.6964    1.0667    0.0000 C   0  0  0  0  0  0  0  0  0  0  0  0
   10.0303    1.5459    0.0000 C   0  0  0  0  0  0  0  0  0  0  0  0
    9.1643    1.0459    0.0000 C   0  0  0  0  0  0  0  0  0  0  0  0
   11.7903   -0.4887    0.0000 C   0  0  0  0  0  0  0  0  0  0  0  0
    5.4448    0.9308    0.0000 C   0  0  0  0  0  0  0  0  0  0  0  0
    5.0768   -2.5701    0.0000 C   0  0  0  0  0  0  0  0  0  0  0  0
   12.6964    0.0251    0.0000 C   0  0  0  0  0  0  0  0  0  0  0  0
   10.0303   -1.4541    0.0000 C   0  0  0  0  0  0  0  0  0  0  0  0
    3.5823    0.2276    0.0000 C   0  0  0  0  0  0  0  0  0  0  0  0
    3.4013   -1.4950    0.0000 C   0  0  0  0  0  0  0  0  0  0  0  0
   14.4284    1.0734    0.0000 C   0  0  0  0  0  0  0  0  0  0  0  0
   13.5566    2.5701    0.0000 C   0  0  0  0  0  0  0  0  0  0  0  0
    2.5878    0.3321    0.0000 C   0  0  0  0  0  0  0  0  0  0  0  0
    2.4067   -1.3904    0.0000 C   0  0  0  0  0  0  0  0  0  0  0  0
    2.0000   -0.4769    0.0000 C   0  0  0  0  0  0  0  0  0  0  0  0
    6.9225   -1.8635    0.0000 H   0  0  0  0  0  0  0  0  0  0  0  0
    7.4323    0.6659    0.0000 H   0  0  0  0  0  0  0  0  0  0  0  0
    8.2983   -1.0741    0.0000 H   0  0  0  0  0  0  0  0  0  0  0  0
   11.7831    2.2005    0.0000 H   0  0  0  0  0  0  0  0  0  0  0  0
   10.0303    2.1659    0.0000 H   0  0  0  0  0  0  0  0  0  0  0  0
    8.6274    1.3559    0.0000 H   0  0  0  0  0  0  0  0  0  0  0  0
   11.7831   -1.1087    0.0000 H   0  0  0  0  0  0  0  0  0  0  0  0
    6.0512    1.0597    0.0000 H   0  0  0  0  0  0  0  0  0  0  0  0
    5.3159    1.5372    0.0000 H   0  0  0  0  0  0  0  0  0  0  0  0
    4.8383    0.8019    0.0000 H   0  0  0  0  0  0  0  0  0  0  0  0
    4.5104   -2.3179    0.0000 H   0  0  0  0  0  0  0  0  0  0  0  0
    4.8246   -3.1365    0.0000 H   0  0  0  0  0  0  0  0  0  0  0  0
    5.6432   -2.8222    0.0000 H   0  0  0  0  0  0  0  0  0  0  0  0
   13.2321   -0.2870    0.0000 H   0  0  0  0  0  0  0  0  0  0  0  0
    9.4103   -1.4541    0.0000 H   0  0  0  0  0  0  0  0  0  0  0  0
   10.0303   -2.0741    0.0000 H   0  0  0  0  0  0  0  0  0  0  0  0
   10.6503   -1.4541    0.0000 H   0  0  0  0  0  0  0  0  0  0  0  0
    3.9467    0.7292    0.0000 H   0  0  0  0  0  0  0  0  0  0  0  0
    3.6534   -2.0614    0.0000 H   0  0  0  0  0  0  0  0  0  0  0  0
   14.1766    2.5724    0.0000 H   0  0  0  0  0  0  0  0  0  0  0  0
   13.5542    3.1901    0.0000 H   0  0  0  0  0  0  0  0  0  0  0  0
   12.9366    2.5677    0.0000 H   0  0  0  0  0  0  0  0  0  0  0  0
   14.1205    0.5353    0.0000 H   0  0  0  0  0  0  0  0  0  0  0  0
   14.9665    0.7655    0.0000 H   0  0  0  0  0  0  0  0  0  0  0  0
   14.7363    1.6115    0.0000 H   0  0  0  0  0  0  0  0  0  0  0  0
    2.3356    0.8985    0.0000 H   0  0  0  0  0  0  0  0  0  0  0  0
    2.0423   -1.8920    0.0000 H   0  0  0  0  0  0  0  0  0  0  0  0
    1.3834   -0.4121    0.0000 H   0  0  0  0  0  0  0  0  0  0  0  0
  1  4  1  0  0  0  0
  1  7  1  0  0  0  0
  1 11  1  0  0  0  0
  2  6  1  0  0  0  0
  2  9  2  0  0  0  0
  2 22  1  0  0  0  0
  3 15  1  0  0  0  0
  3 25  1  0  0  0  0
  3 26  1  0  0  0  0
  4  5  2  0  0  0  0
  4 19  1  0  0  0  0
  5 10  1  0  0  0  0
  5 12  1  0  0  0  0
  6  8  2  0  0  0  0
  6 18  1  0  0  0  0
  7 10  2  0  0  0  0
  7 20  1  0  0  0  0
  8 14  1  0  0  0  0
  8 16  1  0  0  0  0
  9 13  1  0  0  0  0
  9 17  1  0  0  0  0
 10 30  1  0  0  0  0
 11 23  2  0  0  0  0
 11 24  1  0  0  0  0
 12 13  2  0  0  0  0
 12 31  1  0  0  0  0
 13 32  1  0  0  0  0
 14 15  2  0  0  0  0
 14 33  1  0  0  0  0
 15 21  1  0  0  0  0
 16 17  2  0  0  0  0
 16 34  1  0  0  0  0
 17 35  1  0  0  0  0
 18 21  2  0  0  0  0
 18 36  1  0  0  0  0
 19 37  1  0  0  0  0
 19 38  1  0  0  0  0
 19 39  1  0  0  0  0
 20 40  1  0  0  0  0
 20 41  1  0  0  0  0
 20 42  1  0  0  0  0
 21 43  1  0  0  0  0
 22 44  1  0  0  0  0
 22 45  1  0  0  0  0
 22 46  1  0  0  0  0
 23 27  1  0  0  0  0
 23 47  1  0  0  0  0
 24 28  2  0  0  0  0
 24 48  1  0  0  0  0
 25 52  1  0  0  0  0
 25 53  1  0  0  0  0
 25 54  1  0  0  0  0
 26 49  1  0  0  0  0
 26 50  1  0  0  0  0
 26 51  1  0  0  0  0
 27 29  2  0  0  0  0
 27 55  1  0  0  0  0
 28 29  1  0  0  0  0
 28 56  1  0  0  0  0
 29 57  1  0  0  0  0
M  CHG  1   2   1
M  END
> <PUBCHEM_COMPOUND_CID>
5281035

> <PUBCHEM_COMPOUND_CANONICALIZED>
1

> <PUBCHEM_CACTVS_COMPLEXITY>
552

> <PUBCHEM_CACTVS_HBOND_ACCEPTOR>
1

> <PUBCHEM_CACTVS_HBOND_DONOR>
0

> <PUBCHEM_CACTVS_ROTATABLE_BOND>
4

> <PUBCHEM_CACTVS_SUBSKEYS>
AAADceB7AAAAAAAAAAAAAAAAAAAAAWAAAAA8YIAAAAAAAACx/AAAHAAAAAAADAiBHgQywPMMEACgAyRiRACCgCAhAiAI2CA4ZJgIIOLAkZGEIAhggADIyAcQgIAOAACAQAACAAAAAQCAAAQAAAAAAAAAAA==

> <PUBCHEM_IUPAC_OPENEYE_NAME>
2-[(E)-2-(2,5-dimethyl-1-phenyl-pyrrol-3-yl)vinyl]-N,N,1-trimethyl-quinolin-1-ium-6-amine

> <PUBCHEM_IUPAC_CAS_NAME>
2-[(E)-2-(2,5-dimethyl-1-phenyl-3-pyrrolyl)ethenyl]-N,N,1-trimethyl-6-quinolin-1-iumamine

> <PUBCHEM_IUPAC_NAME>
2-[(E)-2-(2,5-dimethyl-1-phenylpyrrol-3-yl)ethenyl]-N,N,1-trimethylquinolin-1-ium-6-amine

> <PUBCHEM_IUPAC_SYSTEMATIC_NAME>
2-[(E)-2-(2,5-dimethyl-1-phenyl-pyrrol-3-yl)ethenyl]-N,N,1-trimethyl-quinolin-1-ium-6-amine

> <PUBCHEM_IUPAC_TRADITIONAL_NAME>
[2-[(E)-2-(2,5-dimethyl-1-phenyl-pyrrol-3-yl)vinyl]-1-methyl-quinolin-1-ium-6-yl]-dimethyl-amine

> <PUBCHEM_IUPAC_INCHI>
InChI=1S/C26H28N3/c1-19-17-21(20(2)29(19)24-9-7-6-8-10-24)11-13-23-14-12-22-18-25(27(3)4)15-16-26(22)28(23)5/h6-18H,1-5H3/q+1

> <PUBCHEM_IUPAC_INCHIKEY>
QMHSXPLYMTVAMK-UHFFFAOYSA-N

> <PUBCHEM_XLOGP3_AA>
5.9

> <PUBCHEM_EXACT_MASS>
382.228323

> <PUBCHEM_MOLECULAR_FORMULA>
C26H28N3+

> <PUBCHEM_MOLECULAR_WEIGHT>
382.52062

> <PUBCHEM_OPENEYE_CAN_SMILES>
CC1=CC(=C(N1C2=CC=CC=C2)C)C=CC3=[N+](C4=C(C=C3)C=C(C=C4)N(C)C)C

> <PUBCHEM_OPENEYE_ISO_SMILES>
CC1=CC(=C(N1C2=CC=CC=C2)C)/C=C/C3=[N+](C4=C(C=C3)C=C(C=C4)N(C)C)C

> <PUBCHEM_CACTVS_TPSA>
12

> <PUBCHEM_MONOISOTOPIC_WEIGHT>
382.228323

> <PUBCHEM_TOTAL_CHARGE>
1

> <PUBCHEM_HEAVY_ATOM_COUNT>
29

> <PUBCHEM_ATOM_DEF_STEREO_COUNT>
0

> <PUBCHEM_ATOM_UDEF_STEREO_COUNT>
0

> <PUBCHEM_BOND_DEF_STEREO_COUNT>
1

> <PUBCHEM_BOND_UDEF_STEREO_COUNT>
0

> <PUBCHEM_ISOTOPIC_ATOM_COUNT>
0

> <PUBCHEM_COMPONENT_COUNT>
1

> <PUBCHEM_CACTVS_TAUTO_COUNT>
1

> <PUBCHEM_COORDINATE_TYPE>
1
5
255

> <PUBCHEM_BONDANNOTATIONS>
1  4  8
1  7  8
11  23  8
11  24  8
14  15  8
15  21  8
16  17  8
18  21  8
2  6  8
2  9  8
23  27  8
24  28  8
27  29  8
28  29  8
4  5  8
5  10  8
6  18  8
6  8  8
7  10  8
8  14  8
8  16  8
9  17  8

$$$$

