17395563
  -OEChem-06241222512D

 52 53  0     1  0  0  0  0  0999 V2000
    5.4641    5.3660    0.0000 F   0  0  0  0  0  0  0  0  0  0  0  0
    3.7320   -1.6340    0.0000 O   0  0  0  0  0  0  0  0  0  0  0  0
    5.4641   -0.6340    0.0000 N   0  0  0  0  0  0  0  0  0  0  0  0
    5.4641    1.3660    0.0000 N   0  0  0  0  0  0  0  0  0  0  0  0
    4.5981   -3.1340    0.0000 N   0  0  0  0  0  0  0  0  0  0  0  0
    4.7320   -5.3660    0.0000 N   0  0  0  0  0  0  0  0  0  0  0  0
    4.5981   -0.1340    0.0000 C   0  0  0  0  0  0  0  0  0  0  0  0
    6.3301   -0.1340    0.0000 C   0  0  0  0  0  0  0  0  0  0  0  0
    5.4641   -1.6340    0.0000 C   0  0  3  0  0  0  0  0  0  0  0  0
    6.3301    0.8660    0.0000 C   0  0  0  0  0  0  0  0  0  0  0  0
    4.5981    0.8660    0.0000 C   0  0  0  0  0  0  0  0  0  0  0  0
    3.7320   -3.6340    0.0000 C   0  0  3  0  0  0  0  0  0  0  0  0
    4.5981   -2.1340    0.0000 C   0  0  0  0  0  0  0  0  0  0  0  0
    2.8660   -4.1340    0.0000 C   0  0  0  0  0  0  0  0  0  0  0  0
    6.3301   -2.1340    0.0000 C   0  0  0  0  0  0  0  0  0  0  0  0
    5.4641    2.3660    0.0000 C   0  0  0  0  0  0  0  0  0  0  0  0
    3.2320   -2.7680    0.0000 C   0  0  0  0  0  0  0  0  0  0  0  0
    2.8660   -5.1340    0.0000 C   0  0  0  0  0  0  0  0  0  0  0  0
    2.0000   -3.6340    0.0000 C   0  0  0  0  0  0  0  0  0  0  0  0
    6.3301    2.8660    0.0000 C   0  0  0  0  0  0  0  0  0  0  0  0
    4.5981    2.8660    0.0000 C   0  0  0  0  0  0  0  0  0  0  0  0
    4.2320   -4.5000    0.0000 C   0  0  0  0  0  0  0  0  0  0  0  0
    6.3301    3.8660    0.0000 C   0  0  0  0  0  0  0  0  0  0  0  0
    4.5981    3.8660    0.0000 C   0  0  0  0  0  0  0  0  0  0  0  0
    5.4641    4.3660    0.0000 C   0  0  0  0  0  0  0  0  0  0  0  0
    3.9875   -0.0263    0.0000 H   0  0  0  0  0  0  0  0  0  0  0  0
    4.3860   -0.7166    0.0000 H   0  0  0  0  0  0  0  0  0  0  0  0
    6.5422   -0.7166    0.0000 H   0  0  0  0  0  0  0  0  0  0  0  0
    6.9407   -0.0263    0.0000 H   0  0  0  0  0  0  0  0  0  0  0  0
    6.0010   -1.3240    0.0000 H   0  0  0  0  0  0  0  0  0  0  0  0
    4.3860    1.4486    0.0000 H   0  0  0  0  0  0  0  0  0  0  0  0
    3.9875    0.7584    0.0000 H   0  0  0  0  0  0  0  0  0  0  0  0
    6.9407    0.7584    0.0000 H   0  0  0  0  0  0  0  0  0  0  0  0
    6.5422    1.4486    0.0000 H   0  0  0  0  0  0  0  0  0  0  0  0
    2.8660   -3.5140    0.0000 H   0  0  0  0  0  0  0  0  0  0  0  0
    6.0201   -2.6709    0.0000 H   0  0  0  0  0  0  0  0  0  0  0  0
    6.8671   -2.4440    0.0000 H   0  0  0  0  0  0  0  0  0  0  0  0
    6.6401   -1.5970    0.0000 H   0  0  0  0  0  0  0  0  0  0  0  0
    5.1350   -3.4440    0.0000 H   0  0  0  0  0  0  0  0  0  0  0  0
    3.7690   -2.4580    0.0000 H   0  0  0  0  0  0  0  0  0  0  0  0
    2.9220   -2.2310    0.0000 H   0  0  0  0  0  0  0  0  0  0  0  0
    2.6951   -3.0780    0.0000 H   0  0  0  0  0  0  0  0  0  0  0  0
    2.3100   -3.0970    0.0000 H   0  0  0  0  0  0  0  0  0  0  0  0
    1.4631   -3.3240    0.0000 H   0  0  0  0  0  0  0  0  0  0  0  0
    1.6900   -4.1709    0.0000 H   0  0  0  0  0  0  0  0  0  0  0  0
    2.2460   -5.1340    0.0000 H   0  0  0  0  0  0  0  0  0  0  0  0
    2.8660   -5.7540    0.0000 H   0  0  0  0  0  0  0  0  0  0  0  0
    3.4860   -5.1340    0.0000 H   0  0  0  0  0  0  0  0  0  0  0  0
    6.8671    2.5560    0.0000 H   0  0  0  0  0  0  0  0  0  0  0  0
    4.0611    2.5560    0.0000 H   0  0  0  0  0  0  0  0  0  0  0  0
    6.8671    4.1760    0.0000 H   0  0  0  0  0  0  0  0  0  0  0  0
    4.0611    4.1760    0.0000 H   0  0  0  0  0  0  0  0  0  0  0  0
  1 25  1  0  0  0  0
  2 13  2  0  0  0  0
  3  7  1  0  0  0  0
  3  8  1  0  0  0  0
  3  9  1  0  0  0  0
  4 10  1  0  0  0  0
  4 11  1  0  0  0  0
  4 16  1  0  0  0  0
  5 12  1  0  0  0  0
  5 13  1  0  0  0  0
  5 39  1  0  0  0  0
  6 22  3  0  0  0  0
  7 11  1  0  0  0  0
  7 26  1  0  0  0  0
  7 27  1  0  0  0  0
  8 10  1  0  0  0  0
  8 28  1  0  0  0  0
  8 29  1  0  0  0  0
  9 13  1  0  0  0  0
  9 15  1  0  0  0  0
  9 30  1  0  0  0  0
 10 33  1  0  0  0  0
 10 34  1  0  0  0  0
 11 31  1  0  0  0  0
 11 32  1  0  0  0  0
 12 14  1  0  0  0  0
 12 17  1  0  0  0  0
 12 22  1  0  0  0  0
 14 18  1  0  0  0  0
 14 19  1  0  0  0  0
 14 35  1  0  0  0  0
 15 36  1  0  0  0  0
 15 37  1  0  0  0  0
 15 38  1  0  0  0  0
 16 20  2  0  0  0  0
 16 21  1  0  0  0  0
 17 40  1  0  0  0  0
 17 41  1  0  0  0  0
 17 42  1  0  0  0  0
 18 46  1  0  0  0  0
 18 47  1  0  0  0  0
 18 48  1  0  0  0  0
 19 43  1  0  0  0  0
 19 44  1  0  0  0  0
 19 45  1  0  0  0  0
 20 23  1  0  0  0  0
 20 49  1  0  0  0  0
 21 24  2  0  0  0  0
 21 50  1  0  0  0  0
 23 25  2  0  0  0  0
 23 51  1  0  0  0  0
 24 25  1  0  0  0  0
 24 52  1  0  0  0  0
M  END
> <PUBCHEM_COMPOUND_CID>
17395563

> <PUBCHEM_COMPOUND_CANONICALIZED>
1

> <PUBCHEM_CACTVS_COMPLEXITY>
501

> <PUBCHEM_CACTVS_HBOND_ACCEPTOR>
5

> <PUBCHEM_CACTVS_HBOND_DONOR>
1

> <PUBCHEM_CACTVS_ROTATABLE_BOND>
5

> <PUBCHEM_CACTVS_SUBSKEYS>
AAADceB7oQAAAAAAAAAAAAAAAAAAAAAAAAA8QAAAAAAAAAABAAAAHwAQAAAADajBkAwywIPAAACYBCVSUACCAAAhAgAIiAGIZIgI4CLAkbGUIAhglADIyA8QAAAIgAAAAAAAAAAAAAAAAAAAAAAAAAAAAA==

> <PUBCHEM_IUPAC_OPENEYE_NAME>
N-(1-cyano-1,2-dimethyl-propyl)-2-[4-(4-fluorophenyl)piperazin-1-yl]propanamide

> <PUBCHEM_IUPAC_CAS_NAME>
N-(2-cyano-3-methylbutan-2-yl)-2-[4-(4-fluorophenyl)-1-piperazinyl]propanamide

> <PUBCHEM_IUPAC_NAME>
N-(2-cyano-3-methylbutan-2-yl)-2-[4-(4-fluorophenyl)piperazin-1-yl]propanamide

> <PUBCHEM_IUPAC_SYSTEMATIC_NAME>
N-(2-cyano-3-methyl-butan-2-yl)-2-[4-(4-fluorophenyl)piperazin-1-yl]propanamide

> <PUBCHEM_IUPAC_TRADITIONAL_NAME>
N-(1-cyano-1,2-dimethyl-propyl)-2-[4-(4-fluorophenyl)piperazino]propionamide

> <PUBCHEM_IUPAC_INCHI>
InChI=1S/C19H27FN4O/c1-14(2)19(4,13-21)22-18(25)15(3)23-9-11-24(12-10-23)17-7-5-16(20)6-8-17/h5-8,14-15H,9-12H2,1-4H3,(H,22,25)

> <PUBCHEM_IUPAC_INCHIKEY>
DPFWMRCVNMZJNM-UHFFFAOYSA-N

> <PUBCHEM_XLOGP3_AA>
3

> <PUBCHEM_EXACT_MASS>
346.21689

> <PUBCHEM_MOLECULAR_FORMULA>
C19H27FN4O

> <PUBCHEM_MOLECULAR_WEIGHT>
346.442283

> <PUBCHEM_OPENEYE_CAN_SMILES>
CC(C)C(C)(C#N)NC(=O)C(C)N1CCN(CC1)C2=CC=C(C=C2)F

> <PUBCHEM_OPENEYE_ISO_SMILES>
CC(C)C(C)(C#N)NC(=O)C(C)N1CCN(CC1)C2=CC=C(C=C2)F

> <PUBCHEM_CACTVS_TPSA>
59.4

> <PUBCHEM_MONOISOTOPIC_WEIGHT>
346.21689

> <PUBCHEM_TOTAL_CHARGE>
0

> <PUBCHEM_HEAVY_ATOM_COUNT>
25

> <PUBCHEM_ATOM_DEF_STEREO_COUNT>
0

> <PUBCHEM_ATOM_UDEF_STEREO_COUNT>
2

> <PUBCHEM_BOND_DEF_STEREO_COUNT>
0

> <PUBCHEM_BOND_UDEF_STEREO_COUNT>
0

> <PUBCHEM_ISOTOPIC_ATOM_COUNT>
0

> <PUBCHEM_COMPONENT_COUNT>
1

> <PUBCHEM_CACTVS_TAUTO_COUNT>
2

> <PUBCHEM_COORDINATE_TYPE>
1
5
255

> <PUBCHEM_BONDANNOTATIONS>
12  17  3
16  20  8
16  21  8
20  23  8
21  24  8
23  25  8
24  25  8
9  15  3

$$$$

