440188
  -OEChem-07051212492D

 44 45  0     1  0  0  0  0  0999 V2000
    4.2690    0.1550    0.0000 O   0  0  0  0  0  0  0  0  0  0  0  0
    6.0010    0.1550    0.0000 O   0  0  0  0  0  0  0  0  0  0  0  0
    4.2690   -2.8450    0.0000 O   0  0  0  0  0  0  0  0  0  0  0  0
    2.5369   -1.8450    0.0000 O   0  0  0  0  0  0  0  0  0  0  0  0
    6.0010   -1.8450    0.0000 O   0  0  0  0  0  0  0  0  0  0  0  0
    2.5369    1.1550    0.0000 O   0  0  0  0  0  0  0  0  0  0  0  0
    9.4651    1.1550    0.0000 O   0  0  0  0  0  0  0  0  0  0  0  0
    8.5991   -0.3450    0.0000 O   0  0  0  0  0  0  0  0  0  0  0  0
    7.7331    3.1550    0.0000 N   0  0  0  0  0  0  0  0  0  0  0  0
    4.2690   -1.8450    0.0000 C   0  0  1  0  0  0  0  0  0  0  0  0
    3.4030   -1.3450    0.0000 C   0  0  1  0  0  0  0  0  0  0  0  0
    5.1350   -1.3450    0.0000 C   0  0  2  0  0  0  0  0  0  0  0  0
    3.4030   -0.3450    0.0000 C   0  0  1  0  0  0  0  0  0  0  0  0
    5.1350   -0.3450    0.0000 C   0  0  1  0  0  0  0  0  0  0  0  0
    2.5369    0.1550    0.0000 C   0  0  0  0  0  0  0  0  0  0  0  0
    6.0010    1.1550    0.0000 C   0  0  0  0  0  0  0  0  0  0  0  0
    6.8671    1.6550    0.0000 C   0  0  0  0  0  0  0  0  0  0  0  0
    7.7331    1.1550    0.0000 C   0  0  0  0  0  0  0  0  0  0  0  0
    6.8671    2.6550    0.0000 C   0  0  0  0  0  0  0  0  0  0  0  0
    8.5991    1.6550    0.0000 C   0  0  0  0  0  0  0  0  0  0  0  0
    7.7331    0.1550    0.0000 C   0  0  0  0  0  0  0  0  0  0  0  0
    8.5991    2.6550    0.0000 C   0  0  0  0  0  0  0  0  0  0  0  0
    9.4651    3.1550    0.0000 C   0  0  0  0  0  0  0  0  0  0  0  0
    4.8059   -2.1550    0.0000 H   0  0  0  0  0  0  0  0  0  0  0  0
    3.4030   -1.9650    0.0000 H   0  0  0  0  0  0  0  0  0  0  0  0
    5.1350   -1.9650    0.0000 H   0  0  0  0  0  0  0  0  0  0  0  0
    3.4030    0.2750    0.0000 H   0  0  0  0  0  0  0  0  0  0  0  0
    5.1350    0.2750    0.0000 H   0  0  0  0  0  0  0  0  0  0  0  0
    1.9264    0.2627    0.0000 H   0  0  0  0  0  0  0  0  0  0  0  0
    2.3249   -0.4276    0.0000 H   0  0  0  0  0  0  0  0  0  0  0  0
    3.7320   -3.1550    0.0000 H   0  0  0  0  0  0  0  0  0  0  0  0
    2.0000   -1.5350    0.0000 H   0  0  0  0  0  0  0  0  0  0  0  0
    6.5380   -1.5350    0.0000 H   0  0  0  0  0  0  0  0  0  0  0  0
    5.7890    1.7376    0.0000 H   0  0  0  0  0  0  0  0  0  0  0  0
    5.3905    1.0473    0.0000 H   0  0  0  0  0  0  0  0  0  0  0  0
    2.0000    1.4650    0.0000 H   0  0  0  0  0  0  0  0  0  0  0  0
    6.3301    2.9650    0.0000 H   0  0  0  0  0  0  0  0  0  0  0  0
    7.1225    0.2627    0.0000 H   0  0  0  0  0  0  0  0  0  0  0  0
    7.5210   -0.4276    0.0000 H   0  0  0  0  0  0  0  0  0  0  0  0
    9.7751    2.6181    0.0000 H   0  0  0  0  0  0  0  0  0  0  0  0
   10.0021    3.4650    0.0000 H   0  0  0  0  0  0  0  0  0  0  0  0
    9.1551    3.6919    0.0000 H   0  0  0  0  0  0  0  0  0  0  0  0
   10.0021    1.4650    0.0000 H   0  0  0  0  0  0  0  0  0  0  0  0
    8.5991   -0.9650    0.0000 H   0  0  0  0  0  0  0  0  0  0  0  0
  1 13  1  0  0  0  0
  1 14  1  0  0  0  0
 14  2  1  1  0  0  0
  2 16  1  0  0  0  0
 10  3  1  1  0  0  0
  3 31  1  0  0  0  0
 11  4  1  6  0  0  0
  4 32  1  0  0  0  0
 12  5  1  6  0  0  0
  5 33  1  0  0  0  0
  6 15  1  0  0  0  0
  6 36  1  0  0  0  0
  7 20  1  0  0  0  0
  7 43  1  0  0  0  0
  8 21  1  0  0  0  0
  8 44  1  0  0  0  0
  9 19  1  0  0  0  0
  9 22  2  0  0  0  0
 10 11  1  0  0  0  0
 10 12  1  0  0  0  0
 10 24  1  0  0  0  0
 11 13  1  0  0  0  0
 11 25  1  0  0  0  0
 12 14  1  0  0  0  0
 12 26  1  0  0  0  0
 13 15  1  1  0  0  0
 13 27  1  0  0  0  0
 14 28  1  0  0  0  0
 15 29  1  0  0  0  0
 15 30  1  0  0  0  0
 16 17  1  0  0  0  0
 16 34  1  0  0  0  0
 16 35  1  0  0  0  0
 17 18  1  0  0  0  0
 17 19  2  0  0  0  0
 18 20  2  0  0  0  0
 18 21  1  0  0  0  0
 19 37  1  0  0  0  0
 20 22  1  0  0  0  0
 21 38  1  0  0  0  0
 21 39  1  0  0  0  0
 22 23  1  0  0  0  0
 23 40  1  0  0  0  0
 23 41  1  0  0  0  0
 23 42  1  0  0  0  0
M  END
> <PUBCHEM_COMPOUND_CID>
440188

> <PUBCHEM_COMPOUND_CANONICALIZED>
1

> <PUBCHEM_CACTVS_COMPLEXITY>
373

> <PUBCHEM_CACTVS_HBOND_ACCEPTOR>
9

> <PUBCHEM_CACTVS_HBOND_DONOR>
6

> <PUBCHEM_CACTVS_ROTATABLE_BOND>
5

> <PUBCHEM_CACTVS_SUBSKEYS>
AAADceByPAAAAAAAAAAAAAAAAAAAAAAAAAAsSAAAAAAAAAABgAAAHgAACAAADBzxngcujpIIFgCgAxRnRASCgCAxYCAA2CA9TJgbN2LSsZumcAhnwBHf+AfwcA8OgAAAAAAAAAAAAAAAAAAAAAAAAAAAAA==

> <PUBCHEM_IUPAC_OPENEYE_NAME>
(2R,3R,4S,5S,6R)-2-[[5-hydroxy-4-(hydroxymethyl)-6-methyl-3-pyridyl]methoxy]-6-(hydroxymethyl)tetrahydropyran-3,4,5-triol

> <PUBCHEM_IUPAC_CAS_NAME>
(2R,3R,4S,5S,6R)-2-[[5-hydroxy-4-(hydroxymethyl)-6-methyl-3-pyridinyl]methoxy]-6-(hydroxymethyl)oxane-3,4,5-triol

> <PUBCHEM_IUPAC_NAME>
(2R,3R,4S,5S,6R)-2-[[5-hydroxy-4-(hydroxymethyl)-6-methylpyridin-3-yl]methoxy]-6-(hydroxymethyl)oxane-3,4,5-triol

> <PUBCHEM_IUPAC_SYSTEMATIC_NAME>
(2R,3S,4S,5R,6R)-2-(hydroxymethyl)-6-[[4-(hydroxymethyl)-6-methyl-5-oxidanyl-pyridin-3-yl]methoxy]oxane-3,4,5-triol

> <PUBCHEM_IUPAC_TRADITIONAL_NAME>
(2R,3R,4S,5S,6R)-2-[(5-hydroxy-6-methyl-4-methylol-3-pyridyl)methoxy]-6-methylol-tetrahydropyran-3,4,5-triol

> <PUBCHEM_IUPAC_INCHI>
InChI=1S/C14H21NO8/c1-6-10(18)8(3-16)7(2-15-6)5-22-14-13(21)12(20)11(19)9(4-17)23-14/h2,9,11-14,16-21H,3-5H2,1H3/t9-,11-,12+,13-,14-/m1/s1

> <PUBCHEM_IUPAC_INCHIKEY>
MDLTWTOQCHCLSZ-RGCYKPLRSA-N

> <PUBCHEM_XLOGP3_AA>
-1.9

> <PUBCHEM_EXACT_MASS>
331.126717

> <PUBCHEM_MOLECULAR_FORMULA>
C14H21NO8

> <PUBCHEM_MOLECULAR_WEIGHT>
331.31844

> <PUBCHEM_OPENEYE_CAN_SMILES>
CC1=NC=C(C(=C1O)CO)COC2C(C(C(C(O2)CO)O)O)O

> <PUBCHEM_OPENEYE_ISO_SMILES>
CC1=NC=C(C(=C1O)CO)CO[C@H]2[C@@H]([C@H]([C@@H]([C@H](O2)CO)O)O)O

> <PUBCHEM_CACTVS_TPSA>
153

> <PUBCHEM_MONOISOTOPIC_WEIGHT>
331.126717

> <PUBCHEM_TOTAL_CHARGE>
0

> <PUBCHEM_HEAVY_ATOM_COUNT>
23

> <PUBCHEM_ATOM_DEF_STEREO_COUNT>
5

> <PUBCHEM_ATOM_UDEF_STEREO_COUNT>
0

> <PUBCHEM_BOND_DEF_STEREO_COUNT>
0

> <PUBCHEM_BOND_UDEF_STEREO_COUNT>
0

> <PUBCHEM_ISOTOPIC_ATOM_COUNT>
0

> <PUBCHEM_COMPONENT_COUNT>
1

> <PUBCHEM_CACTVS_TAUTO_COUNT>
3

> <PUBCHEM_COORDINATE_TYPE>
1
5
255

> <PUBCHEM_BONDANNOTATIONS>
13  15  5
17  18  8
17  19  8
18  20  8
14  2  5
20  22  8
10  3  5
11  4  6
12  5  6
9  19  8
9  22  8

$$$$

