9767
  -OEChem-06261204023D

 18 17  0     0  0  0  0  0  0999 V2000
   -3.4980    0.8236   -0.4111 F   0  0  0  0  0  0  0  0  0  0  0  0
    4.1016   -0.2620   -0.2525 N   0  0  0  0  0  0  0  0  0  0  0  0
   -0.8008    0.1622    0.3085 C   0  0  0  0  0  0  0  0  0  0  0  0
    0.5990   -0.3335   -0.0710 C   0  0  0  0  0  0  0  0  0  0  0  0
   -1.8757   -0.8465   -0.1023 C   0  0  0  0  0  0  0  0  0  0  0  0
    1.7014    0.6602    0.2982 C   0  0  0  0  0  0  0  0  0  0  0  0
   -3.2694   -0.3477    0.2396 C   0  0  0  0  0  0  0  0  0  0  0  0
    3.0420    0.1437   -0.0095 C   0  0  0  0  0  0  0  0  0  0  0  0
   -0.8493    0.3333    1.3906 H   0  0  0  0  0  0  0  0  0  0  0  0
   -0.9892    1.1254   -0.1807 H   0  0  0  0  0  0  0  0  0  0  0  0
    0.6367   -0.5327   -1.1499 H   0  0  0  0  0  0  0  0  0  0  0  0
    0.7887   -1.2927    0.4283 H   0  0  0  0  0  0  0  0  0  0  0  0
   -1.6995   -1.8078    0.3932 H   0  0  0  0  0  0  0  0  0  0  0  0
   -1.8151   -1.0128   -1.1842 H   0  0  0  0  0  0  0  0  0  0  0  0
    1.6427    0.8913    1.3683 H   0  0  0  0  0  0  0  0  0  0  0  0
    1.5411    1.6019   -0.2396 H   0  0  0  0  0  0  0  0  0  0  0  0
   -3.3811   -0.1675    1.3128 H   0  0  0  0  0  0  0  0  0  0  0  0
   -4.0304   -1.0653   -0.0796 H   0  0  0  0  0  0  0  0  0  0  0  0
  1  7  1  0  0  0  0
  2  8  3  0  0  0  0
  3  4  1  0  0  0  0
  3  5  1  0  0  0  0
  3  9  1  0  0  0  0
  3 10  1  0  0  0  0
  4  6  1  0  0  0  0
  4 11  1  0  0  0  0
  4 12  1  0  0  0  0
  5  7  1  0  0  0  0
  5 13  1  0  0  0  0
  5 14  1  0  0  0  0
  6  8  1  0  0  0  0
  6 15  1  0  0  0  0
  6 16  1  0  0  0  0
  7 17  1  0  0  0  0
  7 18  1  0  0  0  0
M  END
> <PUBCHEM_COMPOUND_CID>
9767

> <PUBCHEM_CONFORMER_RMSD>
0.6

> <PUBCHEM_CONFORMER_DIVERSEORDER>
1
33
13
11
27
6
31
9
29
26
24
32
8
14
30
25
4
7
28
2
20
21
15
18
17
12
10
5
22
23
3
19
16

> <PUBCHEM_MMFF94_PARTIAL_CHARGES>
5
1 -0.34
2 -0.56
6 0.2
7 0.34
8 0.36

> <PUBCHEM_EFFECTIVE_ROTOR_COUNT>
4

> <PUBCHEM_PHARMACOPHORE_FEATURES>
2
1 2 acceptor
4 3 4 5 6 hydrophobe

> <PUBCHEM_HEAVY_ATOM_COUNT>
8

> <PUBCHEM_ATOM_DEF_STEREO_COUNT>
0

> <PUBCHEM_ATOM_UDEF_STEREO_COUNT>
0

> <PUBCHEM_BOND_DEF_STEREO_COUNT>
0

> <PUBCHEM_BOND_UDEF_STEREO_COUNT>
0

> <PUBCHEM_ISOTOPIC_ATOM_COUNT>
0

> <PUBCHEM_COMPONENT_COUNT>
1

> <PUBCHEM_CACTVS_TAUTO_COUNT>
1

> <PUBCHEM_CONFORMER_ID>
0000262700000001

> <PUBCHEM_MMFF94_ENERGY>
-0.1094

> <PUBCHEM_FEATURE_SELFOVERLAP>
10.148

> <PUBCHEM_SHAPE_FINGERPRINT>
11062470 55 18410573981083298186
12932764 1 15841284639922002762
14325111 11 18337110072934434034
14390081 3 18410580569800643625
20719005 15 18409448072718571675
3248919 1 15357965716636001510

> <PUBCHEM_SHAPE_MULTIPOLES>
152.38
7.08
0.85
0.65
1.53
0.01
0.02
0.03
-0.6
-0.26
-0.02
-0.08
0.02
0.22

> <PUBCHEM_SHAPE_SELFOVERLAP>
271.741

> <PUBCHEM_SHAPE_VOLUME>
96.8

> <PUBCHEM_COORDINATE_TYPE>
2
5
10

$$$$

