252377
  -OEChem-07051213063D

 54 57  0     1  0  0  0  0  0999 V2000
    0.2849    0.8853   -2.6302 Cl  0  0  0  0  0  0  0  0  0  0  0  0
    5.7954   -1.4761    0.7155 O   0  0  0  0  0  0  0  0  0  0  0  0
   -4.9905    0.5080    0.0369 O   0  0  0  0  0  0  0  0  0  0  0  0
   -5.7733   -0.9746    1.6264 O   0  0  0  0  0  0  0  0  0  0  0  0
    0.6837   -0.4393    0.2144 C   0  0  1  0  0  0  0  0  0  0  0  0
    1.5814    0.8141   -0.0141 C   0  0  2  0  0  0  0  0  0  0  0  0
    2.9738    0.5432    0.5604 C   0  0  1  0  0  0  0  0  0  0  0  0
    3.6451   -0.6777   -0.0960 C   0  0  2  0  0  0  0  0  0  0  0  0
   -0.7599   -0.2345   -0.3966 C   0  0  2  0  0  0  0  0  0  0  0  0
    1.3738   -1.7661   -0.2130 C   0  0  0  0  0  0  0  0  0  0  0  0
    2.8255   -1.9080    0.2785 C   0  0  0  0  0  0  0  0  0  0  0  0
    4.0381    1.6336    0.5036 C   0  0  0  0  0  0  0  0  0  0  0  0
    0.9453    2.0463    0.6450 C   0  0  0  0  0  0  0  0  0  0  0  0
   -1.3050    1.1584   -0.0502 C   0  0  0  0  0  0  0  0  0  0  0  0
   -1.7034   -1.3173    0.2070 C   0  0  0  0  0  0  0  0  0  0  0  0
    5.0127   -0.5498    0.5509 C   0  0  0  0  0  0  0  0  0  0  0  0
    5.3077    0.8888    0.9421 C   0  0  0  0  0  0  0  0  0  0  0  0
   -0.5298    2.1495    0.4238 C   0  0  0  0  0  0  0  0  0  0  0  0
    3.8661   -0.5854   -1.6166 C   0  0  0  0  0  0  0  0  0  0  0  0
   -0.7440   -0.3710   -1.9380 C   0  0  0  0  0  0  0  0  0  0  0  0
   -2.7838    1.3914   -0.2568 C   0  0  0  0  0  0  0  0  0  0  0  0
   -3.1877   -1.0862   -0.0723 C   0  0  0  0  0  0  0  0  0  0  0  0
   -3.6275    0.2986    0.3918 C   0  0  2  0  0  0  0  0  0  0  0  0
   -5.8834   -0.3845    0.5600 C   0  0  0  0  0  0  0  0  0  0  0  0
   -7.0452   -0.5465   -0.3727 C   0  0  0  0  0  0  0  0  0  0  0  0
    0.5589   -0.5208    1.3068 H   0  0  0  0  0  0  0  0  0  0  0  0
    1.8182    1.0577   -1.0352 H   0  0  0  0  0  0  0  0  0  0  0  0
    2.8328    0.3263    1.6339 H   0  0  0  0  0  0  0  0  0  0  0  0
    1.3808   -1.8691   -1.3009 H   0  0  0  0  0  0  0  0  0  0  0  0
    0.8021   -2.6187    0.1707 H   0  0  0  0  0  0  0  0  0  0  0  0
    2.8287   -2.0528    1.3667 H   0  0  0  0  0  0  0  0  0  0  0  0
    3.2722   -2.8151   -0.1466 H   0  0  0  0  0  0  0  0  0  0  0  0
    3.8207    2.4695    1.1759 H   0  0  0  0  0  0  0  0  0  0  0  0
    4.1497    2.0404   -0.5072 H   0  0  0  0  0  0  0  0  0  0  0  0
    1.4234    2.9513    0.2505 H   0  0  0  0  0  0  0  0  0  0  0  0
    1.1247    2.0417    1.7273 H   0  0  0  0  0  0  0  0  0  0  0  0
   -1.5680   -1.3572    1.2965 H   0  0  0  0  0  0  0  0  0  0  0  0
   -1.4340   -2.3095   -0.1747 H   0  0  0  0  0  0  0  0  0  0  0  0
    5.4394    0.9399    2.0267 H   0  0  0  0  0  0  0  0  0  0  0  0
    6.1931    1.2629    0.4236 H   0  0  0  0  0  0  0  0  0  0  0  0
   -0.9779    3.1090    0.6704 H   0  0  0  0  0  0  0  0  0  0  0  0
    2.9351   -0.5135   -2.1820 H   0  0  0  0  0  0  0  0  0  0  0  0
    4.4880    0.2712   -1.8977 H   0  0  0  0  0  0  0  0  0  0  0  0
    4.3931   -1.4783   -1.9748 H   0  0  0  0  0  0  0  0  0  0  0  0
   -1.7377   -0.2371   -2.3758 H   0  0  0  0  0  0  0  0  0  0  0  0
   -0.3881   -1.3469   -2.2773 H   0  0  0  0  0  0  0  0  0  0  0  0
   -3.1003    2.3649    0.1397 H   0  0  0  0  0  0  0  0  0  0  0  0
   -2.9999    1.4412   -1.3318 H   0  0  0  0  0  0  0  0  0  0  0  0
   -3.4059   -1.2142   -1.1397 H   0  0  0  0  0  0  0  0  0  0  0  0
   -3.7545   -1.8761    0.4326 H   0  0  0  0  0  0  0  0  0  0  0  0
   -3.5300    0.3797    1.4831 H   0  0  0  0  0  0  0  0  0  0  0  0
   -6.6965   -0.9306   -1.3346 H   0  0  0  0  0  0  0  0  0  0  0  0
   -7.5534    0.4123   -0.5017 H   0  0  0  0  0  0  0  0  0  0  0  0
   -7.7542   -1.2628    0.0521 H   0  0  0  0  0  0  0  0  0  0  0  0
  1 20  1  0  0  0  0
  2 16  2  0  0  0  0
  3 23  1  0  0  0  0
  3 24  1  0  0  0  0
  4 24  2  0  0  0  0
  5  6  1  0  0  0  0
  5  9  1  0  0  0  0
  5 10  1  0  0  0  0
  5 26  1  0  0  0  0
  6  7  1  0  0  0  0
  6 13  1  0  0  0  0
  6 27  1  0  0  0  0
  7  8  1  0  0  0  0
  7 12  1  0  0  0  0
  7 28  1  0  0  0  0
  8 11  1  0  0  0  0
  8 16  1  0  0  0  0
  8 19  1  0  0  0  0
  9 14  1  0  0  0  0
  9 15  1  0  0  0  0
  9 20  1  0  0  0  0
 10 11  1  0  0  0  0
 10 29  1  0  0  0  0
 10 30  1  0  0  0  0
 11 31  1  0  0  0  0
 11 32  1  0  0  0  0
 12 17  1  0  0  0  0
 12 33  1  0  0  0  0
 12 34  1  0  0  0  0
 13 18  1  0  0  0  0
 13 35  1  0  0  0  0
 13 36  1  0  0  0  0
 14 18  2  0  0  0  0
 14 21  1  0  0  0  0
 15 22  1  0  0  0  0
 15 37  1  0  0  0  0
 15 38  1  0  0  0  0
 16 17  1  0  0  0  0
 17 39  1  0  0  0  0
 17 40  1  0  0  0  0
 18 41  1  0  0  0  0
 19 42  1  0  0  0  0
 19 43  1  0  0  0  0
 19 44  1  0  0  0  0
 20 45  1  0  0  0  0
 20 46  1  0  0  0  0
 21 23  1  0  0  0  0
 21 47  1  0  0  0  0
 21 48  1  0  0  0  0
 22 23  1  0  0  0  0
 22 49  1  0  0  0  0
 22 50  1  0  0  0  0
 23 51  1  0  0  0  0
 24 25  1  0  0  0  0
 25 52  1  0  0  0  0
 25 53  1  0  0  0  0
 25 54  1  0  0  0  0
M  END
> <PUBCHEM_COMPOUND_CID>
252377

> <PUBCHEM_CONFORMER_RMSD>
0.8

> <PUBCHEM_CONFORMER_DIVERSEORDER>
1
4
2
3

> <PUBCHEM_MMFF94_PARTIAL_CHARGES>
17
1 -0.29
13 0.14
14 -0.28
16 0.45
17 0.06
18 -0.29
2 -0.57
20 0.29
21 0.14
23 0.28
24 0.66
25 0.06
3 -0.43
4 -0.57
41 0.15
8 0.06
9 0.14

> <PUBCHEM_EFFECTIVE_ROTOR_COUNT>
4.8

> <PUBCHEM_PHARMACOPHORE_FEATURES>
6
1 2 acceptor
1 4 acceptor
5 7 8 12 16 17 rings
6 5 6 7 8 10 11 rings
6 5 6 9 13 14 18 rings
6 9 14 15 21 22 23 rings

> <PUBCHEM_HEAVY_ATOM_COUNT>
25

> <PUBCHEM_ATOM_DEF_STEREO_COUNT>
6

> <PUBCHEM_ATOM_UDEF_STEREO_COUNT>
0

> <PUBCHEM_BOND_DEF_STEREO_COUNT>
0

> <PUBCHEM_BOND_UDEF_STEREO_COUNT>
0

> <PUBCHEM_ISOTOPIC_ATOM_COUNT>
0

> <PUBCHEM_COMPONENT_COUNT>
1

> <PUBCHEM_CACTVS_TAUTO_COUNT>
2

> <PUBCHEM_CONFORMER_ID>
0003D9D900000001

> <PUBCHEM_MMFF94_ENERGY>
83.3097

> <PUBCHEM_FEATURE_SELFOVERLAP>
30.544

> <PUBCHEM_SHAPE_FINGERPRINT>
10 15 18341903952849505944
106641 1 17240490169514133427
11578080 2 17271457003655546956
11796584 16 17489869324232185619
11963148 33 18272374152660208731
12011746 2 18409728469737482495
12166972 35 17917989503918365940
12236239 1 17632292393270652981
12516196 113 18259985959702290945
12592029 89 17023178357577984494
12596602 18 17240478113810095843
12633257 1 18334859394086419387
12916748 109 15213014955499627802
13140716 1 18191028897822502240
13402501 40 18412544301694163523
13533116 47 14129328629153537308
13685833 64 18342736300294288235
13782708 43 17988647457845032674
13862211 1 18409168809839903091
14251764 18 18040718039144368121
14341114 176 18410008827616572889
14787075 74 18411139121496453417
15196674 1 18408608067351998480
15927050 60 17613157369433357612
16945 1 18118398682076634944
17349148 13 17632003204759460631
17492 89 18122066678616178914
1813 80 17346877857739241149
18222031 100 16917064464611538092
18785283 64 18198902504889956117
19141452 34 17748830682939492215
20028762 73 17967535632518115663
20567600 75 18271814544696420421
21033648 29 18271262559879466541
21033650 10 14475838717524397511
21267235 1 18335979852728387058
21279426 13 18266179616096951501
21623969 137 18408602556808782907
21792934 111 18335714878678684369
23402539 116 18113623387445298917
23559900 14 17703505481497016629
25147074 1 17460326459984405837
29717793 49 13470692567875264122
3004659 81 18131351925378585200
335352 9 18409168792195849446
34934 24 17677056737601211688
350125 39 18410575080526867448
4325135 7 18202281377927359492
4340502 62 18409168796633286882
465052 167 18187641388797538415
5104073 3 18265053711462443656
542803 24 16588022411870966099
7495541 125 16415190131618845853

> <PUBCHEM_SHAPE_MULTIPOLES>
498.75
13.29
1.91
1.41
12.36
0.33
1.05
-3.26
-4.38
-1.05
-0.28
-0.12
0.05
0.46

> <PUBCHEM_SHAPE_SELFOVERLAP>
1057.22

> <PUBCHEM_SHAPE_VOLUME>
278.2

> <PUBCHEM_COORDINATE_TYPE>
2
5
10

$$$$

