5280457
  -OEChem-07051212462D

 28 29  0     0  0  0  0  0  0999 V2000
    5.4641   -2.9400    0.0000 O   0  0  0  0  0  0  0  0  0  0  0  0
    2.0000   -2.9400    0.0000 O   0  0  0  0  0  0  0  0  0  0  0  0
    3.7320   -0.9400    0.0000 C   0  0  0  0  0  0  0  0  0  0  0  0
    4.5981    1.5600    0.0000 C   0  0  0  0  0  0  0  0  0  0  0  0
    3.7320    0.0600    0.0000 C   0  0  0  0  0  0  0  0  0  0  0  0
    2.8660   -1.4400    0.0000 C   0  0  0  0  0  0  0  0  0  0  0  0
    4.5981   -1.4400    0.0000 C   0  0  0  0  0  0  0  0  0  0  0  0
    4.5981    0.5600    0.0000 C   0  0  0  0  0  0  0  0  0  0  0  0
    4.5981   -2.4400    0.0000 C   0  0  0  0  0  0  0  0  0  0  0  0
    2.8660   -2.4400    0.0000 C   0  0  0  0  0  0  0  0  0  0  0  0
    3.7320   -2.9400    0.0000 C   0  0  0  0  0  0  0  0  0  0  0  0
    5.4641    2.0600    0.0000 C   0  0  0  0  0  0  0  0  0  0  0  0
    3.7320    2.0600    0.0000 C   0  0  0  0  0  0  0  0  0  0  0  0
    5.4641    3.0600    0.0000 C   0  0  0  0  0  0  0  0  0  0  0  0
    3.7320    3.0600    0.0000 C   0  0  0  0  0  0  0  0  0  0  0  0
    4.5981    3.5600    0.0000 C   0  0  0  0  0  0  0  0  0  0  0  0
    3.1951    0.3700    0.0000 H   0  0  0  0  0  0  0  0  0  0  0  0
    2.3291   -1.1300    0.0000 H   0  0  0  0  0  0  0  0  0  0  0  0
    5.1350   -1.1300    0.0000 H   0  0  0  0  0  0  0  0  0  0  0  0
    5.1350    0.2500    0.0000 H   0  0  0  0  0  0  0  0  0  0  0  0
    3.7320   -3.5600    0.0000 H   0  0  0  0  0  0  0  0  0  0  0  0
    6.0010    1.7500    0.0000 H   0  0  0  0  0  0  0  0  0  0  0  0
    3.1951    1.7500    0.0000 H   0  0  0  0  0  0  0  0  0  0  0  0
    6.0010    3.3700    0.0000 H   0  0  0  0  0  0  0  0  0  0  0  0
    3.1951    3.3700    0.0000 H   0  0  0  0  0  0  0  0  0  0  0  0
    4.5981    4.1800    0.0000 H   0  0  0  0  0  0  0  0  0  0  0  0
    5.4641   -3.5600    0.0000 H   0  0  0  0  0  0  0  0  0  0  0  0
    2.0000   -3.5600    0.0000 H   0  0  0  0  0  0  0  0  0  0  0  0
  1  9  1  0  0  0  0
  1 27  1  0  0  0  0
  2 10  1  0  0  0  0
  2 28  1  0  0  0  0
  3  5  1  0  0  0  0
  3  6  2  0  0  0  0
  3  7  1  0  0  0  0
  4  8  1  0  0  0  0
  4 12  2  0  0  0  0
  4 13  1  0  0  0  0
  5  8  2  0  0  0  0
  5 17  1  0  0  0  0
  6 10  1  0  0  0  0
  6 18  1  0  0  0  0
  7  9  2  0  0  0  0
  7 19  1  0  0  0  0
  8 20  1  0  0  0  0
  9 11  1  0  0  0  0
 10 11  2  0  0  0  0
 11 21  1  0  0  0  0
 12 14  1  0  0  0  0
 12 22  1  0  0  0  0
 13 15  2  0  0  0  0
 13 23  1  0  0  0  0
 14 16  2  0  0  0  0
 14 24  1  0  0  0  0
 15 16  1  0  0  0  0
 15 25  1  0  0  0  0
 16 26  1  0  0  0  0
M  END
> <PUBCHEM_COMPOUND_CID>
5280457

> <PUBCHEM_COMPOUND_CANONICALIZED>
1

> <PUBCHEM_CACTVS_COMPLEXITY>
221

> <PUBCHEM_CACTVS_HBOND_ACCEPTOR>
2

> <PUBCHEM_CACTVS_HBOND_DONOR>
2

> <PUBCHEM_CACTVS_ROTATABLE_BOND>
2

> <PUBCHEM_CACTVS_SUBSKEYS>
AAADccBwMAAAAAAAAAAAAAAAAAAAAAAAAAAwYAAAAAAAAAABQAAAGgAACAAADASAmAAwBoAAAgCAAiBCAAACAAAgIAAIiAAGCIgIJyKCERKAcAAlwBUImAeA4BQOAAABCAAAAAAAAAIQAAAAAAAAAAAAAA==

> <PUBCHEM_IUPAC_OPENEYE_NAME>
5-[(E)-styryl]benzene-1,3-diol

> <PUBCHEM_IUPAC_CAS_NAME>
5-[(E)-2-phenylethenyl]benzene-1,3-diol

> <PUBCHEM_IUPAC_NAME>
5-[(E)-2-phenylethenyl]benzene-1,3-diol

> <PUBCHEM_IUPAC_SYSTEMATIC_NAME>
5-[(E)-2-phenylethenyl]benzene-1,3-diol

> <PUBCHEM_IUPAC_TRADITIONAL_NAME>
5-[(E)-styryl]resorcinol

> <PUBCHEM_IUPAC_INCHI>
InChI=1S/C14H12O2/c15-13-8-12(9-14(16)10-13)7-6-11-4-2-1-3-5-11/h1-10,15-16H/b7-6+

> <PUBCHEM_IUPAC_INCHIKEY>
YCVPRTHEGLPYPB-VOTSOKGWSA-N

> <PUBCHEM_XLOGP3_AA>
3.5

> <PUBCHEM_EXACT_MASS>
212.08373

> <PUBCHEM_MOLECULAR_FORMULA>
C14H12O2

> <PUBCHEM_MOLECULAR_WEIGHT>
212.24388

> <PUBCHEM_OPENEYE_CAN_SMILES>
C1=CC=C(C=C1)C=CC2=CC(=CC(=C2)O)O

> <PUBCHEM_OPENEYE_ISO_SMILES>
C1=CC=C(C=C1)/C=C/C2=CC(=CC(=C2)O)O

> <PUBCHEM_CACTVS_TPSA>
40.5

> <PUBCHEM_MONOISOTOPIC_WEIGHT>
212.08373

> <PUBCHEM_TOTAL_CHARGE>
0

> <PUBCHEM_HEAVY_ATOM_COUNT>
16

> <PUBCHEM_ATOM_DEF_STEREO_COUNT>
0

> <PUBCHEM_ATOM_UDEF_STEREO_COUNT>
0

> <PUBCHEM_BOND_DEF_STEREO_COUNT>
1

> <PUBCHEM_BOND_UDEF_STEREO_COUNT>
0

> <PUBCHEM_ISOTOPIC_ATOM_COUNT>
0

> <PUBCHEM_COMPONENT_COUNT>
1

> <PUBCHEM_CACTVS_TAUTO_COUNT>
5

> <PUBCHEM_COORDINATE_TYPE>
1
5
255

> <PUBCHEM_BONDANNOTATIONS>
10  11  8
12  14  8
13  15  8
14  16  8
15  16  8
3  6  8
3  7  8
4  12  8
4  13  8
6  10  8
7  9  8
9  11  8

$$$$

