442987
  -OEChem-07051213003D

 78 84  0     1  0  0  0  0  0999 V2000
    3.2700    0.2790   -0.8724 O   0  0  0  0  0  0  0  0  0  0  0  0
    1.7600    2.4213   -1.2935 O   0  0  0  0  0  0  0  0  0  0  0  0
    5.4182    0.8232    0.0047 O   0  0  0  0  0  0  0  0  0  0  0  0
   -0.4588    3.8387   -1.0178 O   0  0  0  0  0  0  0  0  0  0  0  0
   -1.2480    1.8369    1.9123 O   0  0  0  0  0  0  0  0  0  0  0  0
    6.0891   -1.9405   -0.1541 O   0  0  0  0  0  0  0  0  0  0  0  0
   -3.4669    0.3219    1.4787 O   0  0  0  0  0  0  0  0  0  0  0  0
   -3.4153   -1.0523   -1.2575 N   0  0  2  0  0  0  0  0  0  0  0  0
    2.0595   -0.2117   -0.2153 C   0  0  1  0  0  0  0  0  0  0  0  0
    2.5588   -1.3596    0.6939 C   0  0  2  0  0  0  0  0  0  0  0  0
    1.4595    0.9576    0.6033 C   0  0  2  0  0  0  0  0  0  0  0  0
    0.7555    1.8101   -0.4706 C   0  0  2  0  0  0  0  0  0  0  0  0
    0.0223    0.7212   -1.2895 C   0  0  1  0  0  0  0  0  0  0  0  0
    3.8003   -0.6213    1.2460 C   0  0  1  0  0  0  0  0  0  0  0  0
    0.9999   -0.5001   -1.2840 C   0  0  0  0  0  0  0  0  0  0  0  0
    4.4102   -0.1715   -0.0994 C   0  0  1  0  0  0  0  0  0  0  0  0
   -1.3588    0.3038   -0.7028 C   0  0  1  0  0  0  0  0  0  0  0  0
    2.5289    1.6330    1.4608 C   0  0  0  0  0  0  0  0  0  0  0  0
    3.4129    0.5807    2.1562 C   0  0  0  0  0  0  0  0  0  0  0  0
   -0.1510    2.9332    0.0513 C   0  0  2  0  0  0  0  0  0  0  0  0
    3.0021   -2.6310   -0.0949 C   0  0  0  0  0  0  0  0  0  0  0  0
   -2.2446    1.5101   -0.3013 C   0  0  2  0  0  0  0  0  0  0  0  0
   -1.4767    2.4582    0.6547 C   0  0  1  0  0  0  0  0  0  0  0  0
    5.0242   -1.3411   -0.8892 C   0  0  2  0  0  0  0  0  0  0  0  0
    1.5698   -1.8437    1.7662 C   0  0  0  0  0  0  0  0  0  0  0  0
    3.9747   -2.3875   -1.2473 C   0  0  0  0  0  0  0  0  0  0  0  0
   -3.6332    1.0113    0.2409 C   0  0  1  0  0  0  0  0  0  0  0  0
   -2.1197   -0.5631   -1.7296 C   0  0  0  0  0  0  0  0  0  0  0  0
   -4.2920    0.0464   -0.8075 C   0  0  2  0  0  0  0  0  0  0  0  0
   -5.6712   -0.5383   -0.4281 C   0  0  0  0  0  0  0  0  0  0  0  0
   -4.5615    2.2081    0.5231 C   0  0  0  0  0  0  0  0  0  0  0  0
   -3.2808   -2.1634   -0.3092 C   0  0  0  0  0  0  0  0  0  0  0  0
   -4.6441   -2.7744    0.0445 C   0  0  2  0  0  0  0  0  0  0  0  0
   -5.6061   -1.7010    0.5557 C   0  0  0  0  0  0  0  0  0  0  0  0
   -4.4874   -3.8941    1.0719 C   0  0  0  0  0  0  0  0  0  0  0  0
    0.6947    0.5650    1.2777 H   0  0  0  0  0  0  0  0  0  0  0  0
   -0.1141    1.0585   -2.3253 H   0  0  0  0  0  0  0  0  0  0  0  0
    4.4717   -1.2788    1.8092 H   0  0  0  0  0  0  0  0  0  0  0  0
    0.4713   -1.4327   -1.0676 H   0  0  0  0  0  0  0  0  0  0  0  0
    1.4564   -0.5990   -2.2754 H   0  0  0  0  0  0  0  0  0  0  0  0
   -1.1751   -0.2987    0.1963 H   0  0  0  0  0  0  0  0  0  0  0  0
    2.0611    2.2769    2.2143 H   0  0  0  0  0  0  0  0  0  0  0  0
    3.1576    2.2914    0.8511 H   0  0  0  0  0  0  0  0  0  0  0  0
    4.3164    1.0681    2.5408 H   0  0  0  0  0  0  0  0  0  0  0  0
    2.8933    0.2076    3.0461 H   0  0  0  0  0  0  0  0  0  0  0  0
    0.4028    3.5246    0.7892 H   0  0  0  0  0  0  0  0  0  0  0  0
   -2.4579    2.0781   -1.2185 H   0  0  0  0  0  0  0  0  0  0  0  0
    2.1239   -3.1582   -0.4884 H   0  0  0  0  0  0  0  0  0  0  0  0
    3.4827   -3.3250    0.6084 H   0  0  0  0  0  0  0  0  0  0  0  0
   -2.0930    3.3446    0.8395 H   0  0  0  0  0  0  0  0  0  0  0  0
    5.4664   -0.9700   -1.8223 H   0  0  0  0  0  0  0  0  0  0  0  0
    0.6711   -2.2655    1.3023 H   0  0  0  0  0  0  0  0  0  0  0  0
    2.0247   -2.6279    2.3826 H   0  0  0  0  0  0  0  0  0  0  0  0
    1.2392   -1.0661    2.4569 H   0  0  0  0  0  0  0  0  0  0  0  0
    4.4500   -3.3348   -1.5274 H   0  0  0  0  0  0  0  0  0  0  0  0
    3.4083   -2.0481   -2.1224 H   0  0  0  0  0  0  0  0  0  0  0  0
   -2.2899    0.0265   -2.6410 H   0  0  0  0  0  0  0  0  0  0  0  0
   -1.5105   -1.4129   -2.0582 H   0  0  0  0  0  0  0  0  0  0  0  0
   -4.4845    0.6630   -1.6986 H   0  0  0  0  0  0  0  0  0  0  0  0
    1.3103    2.8699   -2.0294 H   0  0  0  0  0  0  0  0  0  0  0  0
    5.2136    1.4259    0.7343 H   0  0  0  0  0  0  0  0  0  0  0  0
   -0.8133    3.3264   -1.7633 H   0  0  0  0  0  0  0  0  0  0  0  0
   -6.1485   -0.9047   -1.3486 H   0  0  0  0  0  0  0  0  0  0  0  0
   -6.3462    0.2313   -0.0439 H   0  0  0  0  0  0  0  0  0  0  0  0
   -5.5131    1.8878    0.9580 H   0  0  0  0  0  0  0  0  0  0  0  0
   -4.1363    2.8825    1.2729 H   0  0  0  0  0  0  0  0  0  0  0  0
   -4.7652    2.7825   -0.3860 H   0  0  0  0  0  0  0  0  0  0  0  0
   -2.7566   -1.8629    0.6042 H   0  0  0  0  0  0  0  0  0  0  0  0
   -2.6703   -2.9526   -0.7673 H   0  0  0  0  0  0  0  0  0  0  0  0
   -0.7868    2.4779    2.4794 H   0  0  0  0  0  0  0  0  0  0  0  0
    6.7178   -1.2345    0.0737 H   0  0  0  0  0  0  0  0  0  0  0  0
   -3.1012    0.9446    2.1290 H   0  0  0  0  0  0  0  0  0  0  0  0
   -5.0719   -3.2145   -0.8670 H   0  0  0  0  0  0  0  0  0  0  0  0
   -5.3011   -1.3465    1.5460 H   0  0  0  0  0  0  0  0  0  0  0  0
   -6.6088   -2.1286    0.6770 H   0  0  0  0  0  0  0  0  0  0  0  0
   -3.8271   -4.6805    0.6913 H   0  0  0  0  0  0  0  0  0  0  0  0
   -4.0618   -3.5187    2.0088 H   0  0  0  0  0  0  0  0  0  0  0  0
   -5.4564   -4.3508    1.2990 H   0  0  0  0  0  0  0  0  0  0  0  0
  1  9  1  0  0  0  0
  1 16  1  0  0  0  0
  2 12  1  0  0  0  0
  2 60  1  0  0  0  0
  3 16  1  0  0  0  0
  3 61  1  0  0  0  0
  4 20  1  0  0  0  0
  4 62  1  0  0  0  0
  5 23  1  0  0  0  0
  5 70  1  0  0  0  0
  6 24  1  0  0  0  0
  6 71  1  0  0  0  0
  7 27  1  0  0  0  0
  7 72  1  0  0  0  0
  8 28  1  0  0  0  0
  8 29  1  0  0  0  0
  8 32  1  0  0  0  0
  9 10  1  0  0  0  0
  9 11  1  0  0  0  0
  9 15  1  0  0  0  0
 10 14  1  0  0  0  0
 10 21  1  0  0  0  0
 10 25  1  0  0  0  0
 11 12  1  0  0  0  0
 11 18  1  0  0  0  0
 11 36  1  0  0  0  0
 12 13  1  0  0  0  0
 12 20  1  0  0  0  0
 13 15  1  0  0  0  0
 13 17  1  0  0  0  0
 13 37  1  0  0  0  0
 14 16  1  0  0  0  0
 14 19  1  0  0  0  0
 14 38  1  0  0  0  0
 15 39  1  0  0  0  0
 15 40  1  0  0  0  0
 16 24  1  0  0  0  0
 17 22  1  0  0  0  0
 17 28  1  0  0  0  0
 17 41  1  0  0  0  0
 18 19  1  0  0  0  0
 18 42  1  0  0  0  0
 18 43  1  0  0  0  0
 19 44  1  0  0  0  0
 19 45  1  0  0  0  0
 20 23  1  0  0  0  0
 20 46  1  0  0  0  0
 21 26  1  0  0  0  0
 21 48  1  0  0  0  0
 21 49  1  0  0  0  0
 22 23  1  0  0  0  0
 22 27  1  0  0  0  0
 22 47  1  0  0  0  0
 23 50  1  0  0  0  0
 24 26  1  0  0  0  0
 24 51  1  0  0  0  0
 25 52  1  0  0  0  0
 25 53  1  0  0  0  0
 25 54  1  0  0  0  0
 26 55  1  0  0  0  0
 26 56  1  0  0  0  0
 27 29  1  0  0  0  0
 27 31  1  0  0  0  0
 28 57  1  0  0  0  0
 28 58  1  0  0  0  0
 29 30  1  0  0  0  0
 29 59  1  0  0  0  0
 30 34  1  0  0  0  0
 30 63  1  0  0  0  0
 30 64  1  0  0  0  0
 31 65  1  0  0  0  0
 31 66  1  0  0  0  0
 31 67  1  0  0  0  0
 32 33  1  0  0  0  0
 32 68  1  0  0  0  0
 32 69  1  0  0  0  0
 33 34  1  0  0  0  0
 33 35  1  0  0  0  0
 33 73  1  0  0  0  0
 34 74  1  0  0  0  0
 34 75  1  0  0  0  0
 35 76  1  0  0  0  0
 35 77  1  0  0  0  0
 35 78  1  0  0  0  0
M  END
> <PUBCHEM_COMPOUND_CID>
442987

> <PUBCHEM_CONFORMER_RMSD>
0.8

> <PUBCHEM_CONFORMER_DIVERSEORDER>
3
1
2
4

> <PUBCHEM_MMFF94_PARTIAL_CHARGES>
24
1 -0.56
12 0.28
16 0.56
2 -0.68
20 0.28
23 0.28
24 0.28
27 0.28
28 0.27
29 0.27
3 -0.68
32 0.27
4 -0.68
5 -0.68
6 -0.68
60 0.4
61 0.4
62 0.4
7 -0.68
70 0.4
71 0.4
72 0.4
8 -0.81
9 0.28

> <PUBCHEM_EFFECTIVE_ROTOR_COUNT>
3

> <PUBCHEM_PHARMACOPHORE_FEATURES>
20
1 1 acceptor
1 2 acceptor
1 2 donor
1 3 acceptor
1 3 donor
1 4 acceptor
1 4 donor
1 5 acceptor
1 5 donor
1 6 acceptor
1 6 donor
1 7 acceptor
1 7 donor
1 8 cation
5 9 11 12 13 15 rings
6 12 13 17 20 22 23 rings
6 8 17 22 27 28 29 rings
6 8 29 30 32 33 34 rings
8 1 9 10 11 14 16 18 19 rings
8 1 9 10 14 16 21 24 26 rings

> <PUBCHEM_HEAVY_ATOM_COUNT>
35

> <PUBCHEM_ATOM_DEF_STEREO_COUNT>
15

> <PUBCHEM_ATOM_UDEF_STEREO_COUNT>
0

> <PUBCHEM_BOND_DEF_STEREO_COUNT>
0

> <PUBCHEM_BOND_UDEF_STEREO_COUNT>
0

> <PUBCHEM_ISOTOPIC_ATOM_COUNT>
0

> <PUBCHEM_COMPONENT_COUNT>
1

> <PUBCHEM_CACTVS_TAUTO_COUNT>
1

> <PUBCHEM_CONFORMER_ID>
0006C26B00000003

> <PUBCHEM_MMFF94_ENERGY>
145.0171

> <PUBCHEM_FEATURE_SELFOVERLAP>
102.742

> <PUBCHEM_SHAPE_FINGERPRINT>
10076449 9 17676477360099380206
10169797 241 17556289571255923867
10369192 42 17316513642581787760
10928967 22 17846788411868658307
11135609 12 18339917117915301267
11135609 187 17983569702932430172
11315621 136 18200869552676900743
11456790 92 18261657196919974755
11552529 35 17313399889300630527
117089 54 18337940247085145735
11796584 16 18059867138428840487
12422481 6 17821716248568225355
12553582 1 18342466970852204621
12633257 1 17241324810355895009
12788726 201 17844534511657903945
13009979 54 18261098682222701465
13140716 1 18261109690598102789
13224815 77 18341622567750297956
13544653 18 18259993655977782165
13583140 156 17822302262047613801
13782708 43 17386002910084050822
13911987 19 14906741637161304134
14223421 5 18188226397729638360
14341114 176 18334855004835480343
14787075 74 18201717323882324492
14790565 3 17901959539071884464
14950920 106 16878219762859670859
14955137 171 18261390014138359020
15001296 14 18271805692088354109
15537594 2 17987792050688461899
15927050 60 17472135073380712636
17349148 13 17489589012964615512
17492 89 18267863870563962455
17909252 39 18334287644035302114
1813 80 18131354132770677860
20775530 9 18340212908002607251
21033648 29 17168438129006134467
21315759 227 18128267688042023963
21421861 104 18194954150724386897
22122407 14 15791735234679686169
23559900 14 18340211778657920661
24893992 56 18410860980807392845
25269216 80 14979673231870659659
3004659 81 18131354081478613087
339767 52 18411147930601081799
3737641 26 18263359351550152078
392239 28 18264217928096305259
4058900 60 17034995045218396017
46194498 28 17417252014013593845
463206 1 18273209786144557131
5104073 3 18187088381704009250
613672 6 18267042612481319937
6823239 73 18412548673833922034
7970288 3 18342458183508015586

> <PUBCHEM_SHAPE_MULTIPOLES>
674.22
12.1
3.75
1.6
1.99
0.16
0.36
8.31
0.56
2.37
0.32
-0.54
-0.03
0.76

> <PUBCHEM_SHAPE_SELFOVERLAP>
1483.496

> <PUBCHEM_SHAPE_VOLUME>
357

> <PUBCHEM_COORDINATE_TYPE>
2
5
10

$$$$

