21145142
  -OEChem-07051212513D

 20 19  0     1  0  0  0  0  0999 V2000
    2.5566    0.3337    0.2893 P   0  0  0  0  0  0  0  0  0  0  0  0
    1.1095   -0.3854    0.2945 O   0  0  0  0  0  0  0  0  0  0  0  0
   -0.6765   -2.4845   -0.1726 O   0  0  0  0  0  0  0  0  0  0  0  0
    2.2770    1.7577   -0.4241 O   0  0  0  0  0  0  0  0  0  0  0  0
    3.3623   -0.4966   -0.8405 O   0  0  0  0  0  0  0  0  0  0  0  0
   -2.2462   -0.8532    1.3043 O   0  0  0  0  0  0  0  0  0  0  0  0
    3.2351    0.4079    1.6259 O   0  0  0  0  0  0  0  0  0  0  0  0
   -3.0866    1.4569    0.7471 O   0  0  0  0  0  0  0  0  0  0  0  0
   -1.8928    1.4558   -1.2128 O   0  0  0  0  0  0  0  0  0  0  0  0
   -0.9263   -1.1971   -0.7162 C   0  0  2  0  0  0  0  0  0  0  0  0
    0.4052   -0.4928   -0.9380 C   0  0  0  0  0  0  0  0  0  0  0  0
   -1.8344   -0.4371    0.2308 C   0  0  0  0  0  0  0  0  0  0  0  0
   -2.2828    0.9347   -0.1878 C   0  0  0  0  0  0  0  0  0  0  0  0
   -1.4492   -1.3293   -1.6697 H   0  0  0  0  0  0  0  0  0  0  0  0
    1.0126   -1.0975   -1.6203 H   0  0  0  0  0  0  0  0  0  0  0  0
    0.2860    0.4984   -1.3790 H   0  0  0  0  0  0  0  0  0  0  0  0
   -1.5236   -2.9618   -0.1490 H   0  0  0  0  0  0  0  0  0  0  0  0
    3.0084    2.4082   -0.4880 H   0  0  0  0  0  0  0  0  0  0  0  0
    4.3159   -0.3112   -0.9759 H   0  0  0  0  0  0  0  0  0  0  0  0
   -3.3808    2.3647    0.5198 H   0  0  0  0  0  0  0  0  0  0  0  0
  1  2  1  0  0  0  0
  1  4  1  0  0  0  0
  1  5  1  0  0  0  0
  1  7  2  0  0  0  0
  2 11  1  0  0  0  0
  3 10  1  0  0  0  0
  3 17  1  0  0  0  0
  4 18  1  0  0  0  0
  5 19  1  0  0  0  0
  6 12  2  0  0  0  0
  8 13  1  0  0  0  0
  8 20  1  0  0  0  0
  9 13  2  0  0  0  0
 10 11  1  0  0  0  0
 10 12  1  0  0  0  0
 10 14  1  0  0  0  0
 11 15  1  0  0  0  0
 11 16  1  0  0  0  0
 12 13  1  0  0  0  0
M  END
> <PUBCHEM_COMPOUND_CID>
21145142

> <PUBCHEM_CONFORMER_RMSD>
0.6

> <PUBCHEM_CONFORMER_DIVERSEORDER>
1
45
55
28
66
39
20
57
22
65
23
16
68
34
61
41
60
63
9
37
3
53
31
12
69
15
25
58
67
42
24
26
7
33
59
44
48
38
4
19
72
52
35
50
71
8
51
17
64
70
49
2
43
5
47
11
40
30
62
27
73
18
6
29
13
21
74
10
56
46
32
14
54
36

> <PUBCHEM_MMFF94_PARTIAL_CHARGES>
17
1 1.51
10 0.34
11 0.28
12 0.51
13 0.72
17 0.4
18 0.5
19 0.5
2 -0.55
20 0.5
3 -0.68
4 -0.77
5 -0.77
6 -0.57
7 -0.7
8 -0.65
9 -0.57

> <PUBCHEM_EFFECTIVE_ROTOR_COUNT>
5

> <PUBCHEM_PHARMACOPHORE_FEATURES>
10
1 3 acceptor
1 3 donor
1 4 acceptor
1 5 acceptor
1 6 acceptor
1 7 acceptor
1 8 acceptor
1 9 acceptor
3 8 9 13 anion
4 1 4 5 7 anion

> <PUBCHEM_HEAVY_ATOM_COUNT>
13

> <PUBCHEM_ATOM_DEF_STEREO_COUNT>
1

> <PUBCHEM_ATOM_UDEF_STEREO_COUNT>
0

> <PUBCHEM_BOND_DEF_STEREO_COUNT>
0

> <PUBCHEM_BOND_UDEF_STEREO_COUNT>
0

> <PUBCHEM_ISOTOPIC_ATOM_COUNT>
0

> <PUBCHEM_COMPONENT_COUNT>
1

> <PUBCHEM_CACTVS_TAUTO_COUNT>
8

> <PUBCHEM_CONFORMER_ID>
0142A63600000001

> <PUBCHEM_MMFF94_ENERGY>
-16.4839

> <PUBCHEM_FEATURE_SELFOVERLAP>
50.857

> <PUBCHEM_SHAPE_FINGERPRINT>
11127187 94 9439406817775396385
12897270 3 6411001080355994376
12932764 1 17418096507552328044
15775835 57 18273207612421775364
20281407 28 11599719597122602285
20645464 45 18259708891161656630
20653085 51 17240486939561407781
21028194 46 17822006506019755359
21524375 3 18188211004455923975
3248919 1 18264499394810076478
5084963 1 18113618958506004103
54338 74 18126012555117127511
81228 2 18120099381382832231

> <PUBCHEM_SHAPE_MULTIPOLES>
224.43
5.22
1.79
1.19
2.77
0.36
-0.2
-1.92
-1.11
-0.8
0.22
0.16
-0.1
0.3

> <PUBCHEM_SHAPE_SELFOVERLAP>
425.888

> <PUBCHEM_SHAPE_VOLUME>
137.8

> <PUBCHEM_COORDINATE_TYPE>
2
5
10

$$$$

