16071112
  -OEChem-07051213113D

 39 38  0     1  0  0  0  0  0999 V2000
    2.4201    1.3312    0.0853 P   0  0  2  0  0  0  0  0  0  0  0  0
    3.6551   -1.3380    0.1512 P   0  0  0  0  0  0  0  0  0  0  0  0
    0.8597    1.7256   -0.0550 O   0  0  0  0  0  0  0  0  0  0  0  0
    2.4464   -0.2810   -0.0320 O   0  0  0  0  0  0  0  0  0  0  0  0
    2.7672    1.5951    1.6433 O   0  0  0  0  0  0  0  0  0  0  0  0
    3.3313    2.0332   -0.8794 O   0  0  0  0  0  0  0  0  0  0  0  0
    2.9885   -2.7457   -0.2800 O   0  0  0  0  0  0  0  0  0  0  0  0
    4.6369   -0.9900   -1.0846 O   0  0  0  0  0  0  0  0  0  0  0  0
    4.3008   -1.3220    1.5052 O   0  0  0  0  0  0  0  0  0  0  0  0
   -1.4564    1.0256    0.0832 C   0  0  1  0  0  0  0  0  0  0  0  0
   -2.5444    0.5460    1.0712 C   0  0  0  0  0  0  0  0  0  0  0  0
   -0.1019    1.1258    0.8046 C   0  0  0  0  0  0  0  0  0  0  0  0
   -1.3734    0.1553   -1.1700 C   0  0  0  0  0  0  0  0  0  0  0  0
   -3.9193    0.5301    0.4574 C   0  0  0  0  0  0  0  0  0  0  0  0
   -1.0270   -1.3005   -1.0196 C   0  0  0  0  0  0  0  0  0  0  0  0
   -4.7912   -0.4936    0.3844 C   0  0  0  0  0  0  0  0  0  0  0  0
   -1.6034    0.6774   -2.3865 C   0  0  0  0  0  0  0  0  0  0  0  0
   -6.1537   -0.4383   -0.2460 C   0  0  0  0  0  0  0  0  0  0  0  0
   -4.4356   -1.8361    0.9671 C   0  0  0  0  0  0  0  0  0  0  0  0
   -1.7195    2.0471   -0.2302 H   0  0  0  0  0  0  0  0  0  0  0  0
   -2.5786    1.2414    1.9203 H   0  0  0  0  0  0  0  0  0  0  0  0
   -2.2458   -0.4174    1.4902 H   0  0  0  0  0  0  0  0  0  0  0  0
   -0.1928    1.7667    1.6886 H   0  0  0  0  0  0  0  0  0  0  0  0
    0.2411    0.1438    1.1466 H   0  0  0  0  0  0  0  0  0  0  0  0
   -4.2359    1.4827    0.0335 H   0  0  0  0  0  0  0  0  0  0  0  0
   -1.0221   -1.8214   -1.9835 H   0  0  0  0  0  0  0  0  0  0  0  0
   -1.7497   -1.8132   -0.3804 H   0  0  0  0  0  0  0  0  0  0  0  0
   -0.0320   -1.4209   -0.5829 H   0  0  0  0  0  0  0  0  0  0  0  0
   -1.8539    1.7251   -2.5153 H   0  0  0  0  0  0  0  0  0  0  0  0
   -1.5466    0.0696   -3.2834 H   0  0  0  0  0  0  0  0  0  0  0  0
   -6.3572    0.5480   -0.6758 H   0  0  0  0  0  0  0  0  0  0  0  0
   -6.2315   -1.1761   -1.0510 H   0  0  0  0  0  0  0  0  0  0  0  0
   -6.9296   -0.6457    0.4978 H   0  0  0  0  0  0  0  0  0  0  0  0
   -5.3109   -2.2663    1.4681 H   0  0  0  0  0  0  0  0  0  0  0  0
   -3.6498   -1.8151    1.7232 H   0  0  0  0  0  0  0  0  0  0  0  0
   -4.1375   -2.5240    0.1692 H   0  0  0  0  0  0  0  0  0  0  0  0
    2.9498    2.5121    1.9397 H   0  0  0  0  0  0  0  0  0  0  0  0
    3.5107   -3.5697   -0.1775 H   0  0  0  0  0  0  0  0  0  0  0  0
    5.5027   -1.4469   -1.1466 H   0  0  0  0  0  0  0  0  0  0  0  0
  1  3  1  0  0  0  0
  1  4  1  0  0  0  0
  1  5  1  0  0  0  0
  1  6  2  0  0  0  0
  2  4  1  0  0  0  0
  2  7  1  0  0  0  0
  2  8  1  0  0  0  0
  2  9  2  0  0  0  0
  3 12  1  0  0  0  0
  5 37  1  0  0  0  0
  7 38  1  0  0  0  0
  8 39  1  0  0  0  0
 10 11  1  0  0  0  0
 10 12  1  0  0  0  0
 10 13  1  0  0  0  0
 10 20  1  0  0  0  0
 11 14  1  0  0  0  0
 11 21  1  0  0  0  0
 11 22  1  0  0  0  0
 12 23  1  0  0  0  0
 12 24  1  0  0  0  0
 13 15  1  0  0  0  0
 13 17  2  0  0  0  0
 14 16  2  0  0  0  0
 14 25  1  0  0  0  0
 15 26  1  0  0  0  0
 15 27  1  0  0  0  0
 15 28  1  0  0  0  0
 16 18  1  0  0  0  0
 16 19  1  0  0  0  0
 17 29  1  0  0  0  0
 17 30  1  0  0  0  0
 18 31  1  0  0  0  0
 18 32  1  0  0  0  0
 18 33  1  0  0  0  0
 19 34  1  0  0  0  0
 19 35  1  0  0  0  0
 19 36  1  0  0  0  0
M  END
> <PUBCHEM_COMPOUND_CID>
16071112

> <PUBCHEM_CONFORMER_RMSD>
0.8

> <PUBCHEM_CONFORMER_DIVERSEORDER>
1
305
348
173
194
40
336
126
224
84
250
313
277
268
44
239
6
328
279
14
255
343
200
253
61
50
175
338
260
249
302
122
271
145
346
94
102
144
132
341
140
215
318
263
309
322
88
325
201
231
149
211
123
254
258
315
213
184
223
64
63
28
321
251
190
35
147
294
82
232
76
136
8
319
72
329
69
262
125
191
240
135
111
155
157
267
98
326
180
80
270
17
12
121
330
54
183
257
246
264
218
327
131
156
170
220
169
83
52
106
18
129
41
55
259
185
293
73
230
39
163
310
29
96
284
209
350
345
176
110
186
344
117
244
134
339
197
38
288
86
228
42
324
199
236
272
347
291
26
229
53
146
241
316
47
242
297
266
286
172
154
108
90
282
75
205
68
256
295
115
49
227
46
159
349
33
3
56
275
161
206
269
130
179
57
43
165
273
21
60
195
27
16
4
10
332
283
37
276
95
119
237
113
311
78
148
314
66
222
167
23
304
138
59
141
24
216
208
210
158
171
120
7
189
177
77
233
34
217
323
281
168
103
174
79
252
306
13
225
292
45
207
261
320
128
187
337
139
20
97
51
298
317
58
30
335
9
226
192
133
247
150
62
342
290
118
70
101
11
234
280
105
71
238
198
340
214
278
160
312
331
188
99
87
143
109
91
300
182
2
22
32
112
36
181
274
164
333
15
296
85
137
287
245
289
100
114
202
89
285
93
153
299
19
265
203
104
92
219
25
151
308
243
301
65
124
162
248
178
166
107
67
48
31
152
193
196
81
5
235
142
74
334
212
303
127
116
204
221
307

> <PUBCHEM_MMFF94_PARTIAL_CHARGES>
25
1 1.51
10 0.14
11 0.14
12 0.28
13 -0.28
14 -0.29
15 0.14
16 -0.28
17 -0.3
18 0.14
19 0.14
2 1.51
25 0.15
29 0.15
3 -0.55
30 0.15
37 0.5
38 0.5
39 0.5
4 -0.54
5 -0.77
6 -0.7
7 -0.77
8 -0.77
9 -0.7

> <PUBCHEM_EFFECTIVE_ROTOR_COUNT>
8

> <PUBCHEM_PHARMACOPHORE_FEATURES>
8
1 5 acceptor
1 6 acceptor
1 7 acceptor
1 8 acceptor
1 9 acceptor
3 16 18 19 hydrophobe
4 10 11 13 14 hydrophobe
4 2 7 8 9 anion

> <PUBCHEM_HEAVY_ATOM_COUNT>
19

> <PUBCHEM_ATOM_DEF_STEREO_COUNT>
1

> <PUBCHEM_ATOM_UDEF_STEREO_COUNT>
0

> <PUBCHEM_BOND_DEF_STEREO_COUNT>
0

> <PUBCHEM_BOND_UDEF_STEREO_COUNT>
0

> <PUBCHEM_ISOTOPIC_ATOM_COUNT>
0

> <PUBCHEM_COMPONENT_COUNT>
1

> <PUBCHEM_CACTVS_TAUTO_COUNT>
1

> <PUBCHEM_CONFORMER_ID>
00F539C800000001

> <PUBCHEM_MMFF94_ENERGY>
-25.57

> <PUBCHEM_FEATURE_SELFOVERLAP>
40.641

> <PUBCHEM_SHAPE_FINGERPRINT>
10498660 4 11527651004074518414
12553582 1 18187655755742659948
12596602 18 16298392348780259963
12616999 72 18200587000069756044
12839892 36 16732984211405847831
12916748 109 5761656988625307427
13533116 47 18260828189993824947
13583140 156 18114468860041872953
13675066 3 17749112235188547713
14178342 30 17754196196841005752
14251751 18 17774731938648142418
14573314 32 18131636686353631925
15375462 189 18040441022755121792
15848702 151 17988923341021918829
17959699 21 9511468818423421891
1813 80 16845292696858425221
20645477 70 18343018891355951120
212916 134 14201399387165876917
22620623 9 17059790987366976805
23557571 272 16630537210676217932
23559900 14 18342735174643857729
3286 77 18343018912767626893
4072396 5 17240758506760852993
465052 167 18260819368162692839
5104073 3 18261105271277079777
7970288 3 18195242441635907114

> <PUBCHEM_SHAPE_MULTIPOLES>
357.62
11.21
2.17
1.53
5.32
0.65
-0.5
4.9
1.71
-2.23
0.13
-0.05
-0.21
0.37

> <PUBCHEM_SHAPE_SELFOVERLAP>
657.074

> <PUBCHEM_SHAPE_VOLUME>
228.2

> <PUBCHEM_COORDINATE_TYPE>
2
5
10

$$$$

