53297448
  -OEChem-07051213152D

 37 42  0     1  0  0  0  0  0999 V2000
    6.0147   -3.1716    0.0000 O   0  0  0  0  0  0  0  0  0  0  0  0
    7.8101   -2.3702    0.0000 O   0  0  0  0  0  0  0  0  0  0  0  0
    8.0115   -0.4954    0.0000 O   0  0  0  0  0  0  0  0  0  0  0  0
    5.6230   -1.1965    0.0000 O   0  0  0  0  0  0  0  0  0  0  0  0
    4.6485   -0.3630    0.0000 O   0  0  0  0  0  0  0  0  0  0  0  0
    6.4084    2.6716    0.0000 O   0  0  0  0  0  0  0  0  0  0  0  0
    2.8783   -0.3525    0.0000 O   0  0  0  0  0  0  0  0  0  0  0  0
    2.0000    1.6945    0.0000 O   0  0  0  0  0  0  0  0  0  0  0  0
    6.2188   -2.2043    0.0000 C   0  0  2  0  0  0  0  0  0  0  0  0
    6.6176   -1.3002    0.0000 C   0  0  1  0  0  0  0  0  0  0  0  0
    6.9543   -2.8643    0.0000 C   0  0  1  0  0  0  0  0  0  0  0  0
    7.6064   -1.4032    0.0000 C   0  0  2  0  0  0  0  0  0  0  0  0
    6.4084   -0.3284    0.0000 C   0  0  0  0  0  0  0  0  0  0  0  0
    7.2744    0.1716    0.0000 C   0  0  0  0  0  0  0  0  0  0  0  0
    5.5424    0.1716    0.0000 C   0  0  0  0  0  0  0  0  0  0  0  0
    5.5424    1.1716    0.0000 C   0  0  0  0  0  0  0  0  0  0  0  0
    7.2744    1.1716    0.0000 C   0  0  0  0  0  0  0  0  0  0  0  0
    4.6485    1.7063    0.0000 C   0  0  0  0  0  0  0  0  0  0  0  0
    6.4084    1.6716    0.0000 C   0  0  0  0  0  0  0  0  0  0  0  0
    4.4384    2.7202    0.0000 C   0  0  0  0  0  0  0  0  0  0  0  0
    3.7424    1.1925    0.0000 C   0  0  0  0  0  0  0  0  0  0  0  0
    3.4093    2.8355    0.0000 C   0  0  0  0  0  0  0  0  0  0  0  0
    3.7424    0.1508    0.0000 C   0  0  0  0  0  0  0  0  0  0  0  0
    2.9801    1.8932    0.0000 C   0  0  0  0  0  0  0  0  0  0  0  0
    7.2744    3.1716    0.0000 C   0  0  0  0  0  0  0  0  0  0  0  0
    5.6287   -2.0142    0.0000 H   0  0  0  0  0  0  0  0  0  0  0  0
    7.2071   -3.4304    0.0000 H   0  0  0  0  0  0  0  0  0  0  0  0
    8.4516   -1.4932    0.0000 H   0  0  0  0  0  0  0  0  0  0  0  0
    5.2590   -1.6984    0.0000 H   0  0  0  0  0  0  0  0  0  0  0  0
    7.8114    1.4816    0.0000 H   0  0  0  0  0  0  0  0  0  0  0  0
    5.0553    2.7815    0.0000 H   0  0  0  0  0  0  0  0  0  0  0  0
    4.4422    3.3402    0.0000 H   0  0  0  0  0  0  0  0  0  0  0  0
    3.5427    3.4410    0.0000 H   0  0  0  0  0  0  0  0  0  0  0  0
    2.8212    3.0318    0.0000 H   0  0  0  0  0  0  0  0  0  0  0  0
    7.5844    2.6347    0.0000 H   0  0  0  0  0  0  0  0  0  0  0  0
    7.8114    3.4816    0.0000 H   0  0  0  0  0  0  0  0  0  0  0  0
    6.9644    3.7086    0.0000 H   0  0  0  0  0  0  0  0  0  0  0  0
  9  1  1  6  0  0  0
 11  1  1  6  0  0  0
  2 11  1  0  0  0  0
  2 12  1  0  0  0  0
  3 12  1  0  0  0  0
  3 14  1  0  0  0  0
 10  4  1  6  0  0  0
  4 29  1  0  0  0  0
  5 15  1  0  0  0  0
  5 23  1  0  0  0  0
  6 19  1  0  0  0  0
  6 25  1  0  0  0  0
  7 23  2  0  0  0  0
  8 24  2  0  0  0  0
  9 10  1  0  0  0  0
  9 11  1  0  0  0  0
  9 26  1  0  0  0  0
 10 12  1  0  0  0  0
 10 13  1  0  0  0  0
 11 27  1  0  0  0  0
 12 28  1  6  0  0  0
 13 14  1  0  0  0  0
 13 15  2  0  0  0  0
 14 17  2  0  0  0  0
 15 16  1  0  0  0  0
 16 18  1  0  0  0  0
 16 19  2  0  0  0  0
 17 19  1  0  0  0  0
 17 30  1  0  0  0  0
 18 20  1  0  0  0  0
 18 21  2  0  0  0  0
 20 22  1  0  0  0  0
 20 31  1  0  0  0  0
 20 32  1  0  0  0  0
 21 23  1  0  0  0  0
 21 24  1  0  0  0  0
 22 24  1  0  0  0  0
 22 33  1  0  0  0  0
 22 34  1  0  0  0  0
 25 35  1  0  0  0  0
 25 36  1  0  0  0  0
 25 37  1  0  0  0  0
M  END
> <PUBCHEM_COMPOUND_CID>
53297448

> <PUBCHEM_COMPOUND_CANONICALIZED>
1

> <PUBCHEM_CACTVS_COMPLEXITY>
730

> <PUBCHEM_CACTVS_HBOND_ACCEPTOR>
8

> <PUBCHEM_CACTVS_HBOND_DONOR>
1

> <PUBCHEM_CACTVS_ROTATABLE_BOND>
1

> <PUBCHEM_CACTVS_SUBSKEYS>
AAADccB4PAAAAAAAAAAAAAAAEgAAASJEAAA0QIAAAAASAEiBAAAAGgAACAAADFSwmAMyDoAABgCIAqDSCAACCAAgIAAAiAEGCMgdJzaMMBqieiCl4BUPuQfI6PyOoAACCAAIAABAAAQQABAAAAAAAAAAAA==

> <PUBCHEM_IUPAC_INCHI>
InChI=1S/C17H12O8/c1-21-7-4-8-11(17(20)13-15(24-13)25-16(17)22-8)12-10(7)5-2-3-6(18)9(5)14(19)23-12/h4,13,15-16,20H,2-3H2,1H3/t13-,15-,16-,17-/m0/s1

> <PUBCHEM_IUPAC_INCHIKEY>
XRWIIRKFSUFIPZ-HJWJTTGWSA-N

> <PUBCHEM_XLOGP3_AA>
-0.3

> <PUBCHEM_EXACT_MASS>
344.053217

> <PUBCHEM_MOLECULAR_FORMULA>
C17H12O8

> <PUBCHEM_MOLECULAR_WEIGHT>
344.27238

> <PUBCHEM_OPENEYE_CAN_SMILES>
COC1=C2C3=C(C(=O)CC3)C(=O)OC2=C4C(=C1)OC5C4(C6C(O6)O5)O

> <PUBCHEM_OPENEYE_ISO_SMILES>
COC1=C2C3=C(C(=O)CC3)C(=O)OC2=C4C(=C1)O[C@@H]5[C@]4([C@@H]6[C@@H](O6)O5)O

> <PUBCHEM_CACTVS_TPSA>
104

> <PUBCHEM_MONOISOTOPIC_WEIGHT>
344.053217

> <PUBCHEM_TOTAL_CHARGE>
0

> <PUBCHEM_HEAVY_ATOM_COUNT>
25

> <PUBCHEM_ATOM_DEF_STEREO_COUNT>
4

> <PUBCHEM_ATOM_UDEF_STEREO_COUNT>
0

> <PUBCHEM_BOND_DEF_STEREO_COUNT>
0

> <PUBCHEM_BOND_UDEF_STEREO_COUNT>
0

> <PUBCHEM_ISOTOPIC_ATOM_COUNT>
0

> <PUBCHEM_COMPONENT_COUNT>
1

> <PUBCHEM_CACTVS_TAUTO_COUNT>
10

> <PUBCHEM_COORDINATE_TYPE>
1
5
255

> <PUBCHEM_BONDANNOTATIONS>
11  1  6
9  1  6
12  28  6
13  14  8
13  15  8
14  17  8
15  16  8
16  18  8
16  19  8
17  19  8
18  21  8
21  23  8
10  4  6
5  15  8
5  23  8

$$$$

