47205007
  -OEChem-06241222572D

 25 26  0     0  0  0  0  0  0999 V2000
    5.4071    1.6639    0.0000 O   0  0  0  0  0  0  0  0  0  0  0  0
    5.4641   -0.4239    0.0000 O   0  0  0  0  0  0  0  0  0  0  0  0
    2.0000   -1.4239    0.0000 O   0  0  0  0  0  0  0  0  0  0  0  0
    3.7320   -0.4239    0.0000 N   0  0  0  0  0  0  0  0  0  0  0  0
    4.5981   -2.9239    0.0000 N   0  0  0  0  0  0  0  0  0  0  0  0
    5.0981    2.6149    0.0000 N   0  0  0  0  0  0  0  0  0  0  0  0
    3.7320   -1.4239    0.0000 C   0  0  0  0  0  0  0  0  0  0  0  0
    4.5981    1.0761    0.0000 C   0  0  0  0  0  0  0  0  0  0  0  0
    4.5981    0.0761    0.0000 C   0  0  0  0  0  0  0  0  0  0  0  0
    3.7891    1.6639    0.0000 C   0  0  0  0  0  0  0  0  0  0  0  0
    4.5981   -1.9239    0.0000 C   0  0  0  0  0  0  0  0  0  0  0  0
    2.8660   -1.9239    0.0000 C   0  0  0  0  0  0  0  0  0  0  0  0
    4.0981    2.6149    0.0000 C   0  0  0  0  0  0  0  0  0  0  0  0
    2.8660   -2.9239    0.0000 C   0  0  0  0  0  0  0  0  0  0  0  0
    3.7320   -3.4239    0.0000 C   0  0  0  0  0  0  0  0  0  0  0  0
    3.5103    3.4239    0.0000 C   0  0  0  0  0  0  0  0  0  0  0  0
    3.1951   -0.1139    0.0000 H   0  0  0  0  0  0  0  0  0  0  0  0
    3.1994    1.4723    0.0000 H   0  0  0  0  0  0  0  0  0  0  0  0
    5.1350   -1.6139    0.0000 H   0  0  0  0  0  0  0  0  0  0  0  0
    5.1350   -3.2339    0.0000 H   0  0  0  0  0  0  0  0  0  0  0  0
    2.3291   -3.2339    0.0000 H   0  0  0  0  0  0  0  0  0  0  0  0
    3.7320   -4.0439    0.0000 H   0  0  0  0  0  0  0  0  0  0  0  0
    4.0119    3.7884    0.0000 H   0  0  0  0  0  0  0  0  0  0  0  0
    3.1459    3.9255    0.0000 H   0  0  0  0  0  0  0  0  0  0  0  0
    3.0087    3.0595    0.0000 H   0  0  0  0  0  0  0  0  0  0  0  0
  1  6  1  0  0  0  0
  1  8  1  0  0  0  0
  2  9  2  0  0  0  0
  3 12  2  0  0  0  0
  4  7  1  0  0  0  0
  4  9  1  0  0  0  0
  4 17  1  0  0  0  0
  5 11  1  0  0  0  0
  5 15  1  0  0  0  0
  5 20  1  0  0  0  0
  6 13  2  0  0  0  0
  7 11  2  0  0  0  0
  7 12  1  0  0  0  0
  8  9  1  0  0  0  0
  8 10  2  0  0  0  0
 10 13  1  0  0  0  0
 10 18  1  0  0  0  0
 11 19  1  0  0  0  0
 12 14  1  0  0  0  0
 13 16  1  0  0  0  0
 14 15  2  0  0  0  0
 14 21  1  0  0  0  0
 15 22  1  0  0  0  0
 16 23  1  0  0  0  0
 16 24  1  0  0  0  0
 16 25  1  0  0  0  0
M  END
> <PUBCHEM_COMPOUND_CID>
47205007

> <PUBCHEM_COMPOUND_CANONICALIZED>
1

> <PUBCHEM_CACTVS_COMPLEXITY>
376

> <PUBCHEM_CACTVS_HBOND_ACCEPTOR>
5

> <PUBCHEM_CACTVS_HBOND_DONOR>
2

> <PUBCHEM_CACTVS_ROTATABLE_BOND>
2

> <PUBCHEM_CACTVS_SUBSKEYS>
AAADccBzMAAAAAAAAAAAAAAAAAAAAWAAAAAgAAAAAAAAAAABgAAAHgAUAAAACAzBlgQyhJLQAACpAaV2UgKAAAAkIgAoGKH+bFoCJhoAhbMEEYhmBBiYScIcAAAAAAAAAAAAAAAAAAAAAAAAAAAAAAAAAA==

> <PUBCHEM_IUPAC_OPENEYE_NAME>
3-methyl-N-(4-oxo-1H-pyridin-3-yl)isoxazole-5-carboxamide

> <PUBCHEM_IUPAC_CAS_NAME>
3-methyl-N-(4-oxo-1H-pyridin-3-yl)-5-isoxazolecarboxamide

> <PUBCHEM_IUPAC_NAME>
3-methyl-N-(4-oxo-1H-pyridin-3-yl)-1,2-oxazole-5-carboxamide

> <PUBCHEM_IUPAC_SYSTEMATIC_NAME>
3-methyl-N-(4-oxidanylidene-1H-pyridin-3-yl)-1,2-oxazole-5-carboxamide

> <PUBCHEM_IUPAC_TRADITIONAL_NAME>
N-(4-keto-1H-pyridin-3-yl)-3-methyl-isoxazole-5-carboxamide

> <PUBCHEM_IUPAC_INCHI>
InChI=1S/C10H9N3O3/c1-6-4-9(16-13-6)10(15)12-7-5-11-3-2-8(7)14/h2-5H,1H3,(H,11,14)(H,12,15)

> <PUBCHEM_IUPAC_INCHIKEY>
XXPYNVGBYUNXMW-UHFFFAOYSA-N

> <PUBCHEM_XLOGP3_AA>
0.4

> <PUBCHEM_EXACT_MASS>
219.064391

> <PUBCHEM_MOLECULAR_FORMULA>
C10H9N3O3

> <PUBCHEM_MOLECULAR_WEIGHT>
219.19676

> <PUBCHEM_OPENEYE_CAN_SMILES>
CC1=NOC(=C1)C(=O)NC2=CNC=CC2=O

> <PUBCHEM_OPENEYE_ISO_SMILES>
CC1=NOC(=C1)C(=O)NC2=CNC=CC2=O

> <PUBCHEM_CACTVS_TPSA>
84.2

> <PUBCHEM_MONOISOTOPIC_WEIGHT>
219.064391

> <PUBCHEM_TOTAL_CHARGE>
0

> <PUBCHEM_HEAVY_ATOM_COUNT>
16

> <PUBCHEM_ATOM_DEF_STEREO_COUNT>
0

> <PUBCHEM_ATOM_UDEF_STEREO_COUNT>
0

> <PUBCHEM_BOND_DEF_STEREO_COUNT>
0

> <PUBCHEM_BOND_UDEF_STEREO_COUNT>
0

> <PUBCHEM_ISOTOPIC_ATOM_COUNT>
0

> <PUBCHEM_COMPONENT_COUNT>
1

> <PUBCHEM_CACTVS_TAUTO_COUNT>
6

> <PUBCHEM_COORDINATE_TYPE>
1
5
255

> <PUBCHEM_BONDANNOTATIONS>
1  6  8
1  8  8
10  13  8
12  14  8
14  15  8
5  11  8
5  15  8
6  13  8
7  11  8
7  12  8
8  10  8

$$$$

