440146
  -OEChem-07051212482D

 45 46  0     1  0  0  0  0  0999 V2000
    5.0298    0.7915    0.0000 O   0  0  0  0  0  0  0  0  0  0  0  0
    7.7809   -0.5740    0.0000 O   0  0  0  0  0  0  0  0  0  0  0  0
    6.3031   -0.8640    0.0000 O   0  0  0  0  0  0  0  0  0  0  0  0
    7.6775   -2.5466    0.0000 O   0  0  0  0  0  0  0  0  0  0  0  0
    9.2703   -2.6899    0.0000 O   0  0  0  0  0  0  0  0  0  0  0  0
    3.1330   -0.9685    0.0000 O   0  0  0  0  0  0  0  0  0  0  0  0
    2.4608    1.1006    0.0000 O   0  0  0  0  0  0  0  0  0  0  0  0
   10.3581   -0.8058    0.0000 O   0  0  0  0  0  0  0  0  0  0  0  0
    3.6330    2.1883    0.0000 O   0  0  0  0  0  0  0  0  0  0  0  0
    5.8031    2.0838    0.0000 O   0  0  0  0  0  0  0  0  0  0  0  0
    9.8534    1.1199    0.0000 O   0  0  0  0  0  0  0  0  0  0  0  0
    7.8854   -1.5685    0.0000 C   0  0  1  0  0  0  0  0  0  0  0  0
    4.7208   -0.1595    0.0000 C   0  0  1  0  0  0  0  0  0  0  0  0
    8.8636   -1.7764    0.0000 C   0  0  2  0  0  0  0  0  0  0  0  0
    3.7208   -0.1595    0.0000 C   0  0  2  0  0  0  0  0  0  0  0  0
    3.4118    0.7915    0.0000 C   0  0  1  0  0  0  0  0  0  0  0  0
    9.3636   -0.9104    0.0000 C   0  0  1  0  0  0  0  0  0  0  0  0
    4.2208    1.3793    0.0000 C   0  0  1  0  0  0  0  0  0  0  0  0
    8.6944   -0.1672    0.0000 C   0  0  1  0  0  0  0  0  0  0  0  0
    6.8909   -1.6730    0.0000 C   0  0  0  0  0  0  0  0  0  0  0  0
    5.3086   -0.9685    0.0000 C   0  0  0  0  0  0  0  0  0  0  0  0
    4.8086    2.1883    0.0000 C   0  0  0  0  0  0  0  0  0  0  0  0
    8.9024    0.8109    0.0000 C   0  0  0  0  0  0  0  0  0  0  0  0
    5.3332   -0.0625    0.0000 H   0  0  0  0  0  0  0  0  0  0  0  0
    9.4827   -1.8088    0.0000 H   0  0  0  0  0  0  0  0  0  0  0  0
    4.0023   -0.7119    0.0000 H   0  0  0  0  0  0  0  0  0  0  0  0
    3.3148    1.4039    0.0000 H   0  0  0  0  0  0  0  0  0  0  0  0
    9.5858   -0.3316    0.0000 H   0  0  0  0  0  0  0  0  0  0  0  0
    8.2126    0.2230    0.0000 H   0  0  0  0  0  0  0  0  0  0  0  0
    6.3337   -1.9448    0.0000 H   0  0  0  0  0  0  0  0  0  0  0  0
    7.0618   -2.2690    0.0000 H   0  0  0  0  0  0  0  0  0  0  0  0
    4.7514   -1.2403    0.0000 H   0  0  0  0  0  0  0  0  0  0  0  0
    5.4795   -1.5645    0.0000 H   0  0  0  0  0  0  0  0  0  0  0  0
    4.9795    2.7843    0.0000 H   0  0  0  0  0  0  0  0  0  0  0  0
    4.2514    2.4601    0.0000 H   0  0  0  0  0  0  0  0  0  0  0  0
    8.8161    1.4249    0.0000 H   0  0  0  0  0  0  0  0  0  0  0  0
    8.2827    0.8326    0.0000 H   0  0  0  0  0  0  0  0  0  0  0  0
    7.0879   -2.7382    0.0000 H   0  0  0  0  0  0  0  0  0  0  0  0
    9.8869   -2.7548    0.0000 H   0  0  0  0  0  0  0  0  0  0  0  0
    3.3852   -1.5349    0.0000 H   0  0  0  0  0  0  0  0  0  0  0  0
    2.0000    0.6857    0.0000 H   0  0  0  0  0  0  0  0  0  0  0  0
   10.7225   -1.3074    0.0000 H   0  0  0  0  0  0  0  0  0  0  0  0
    3.8852    2.7548    0.0000 H   0  0  0  0  0  0  0  0  0  0  0  0
    6.1676    2.5854    0.0000 H   0  0  0  0  0  0  0  0  0  0  0  0
    9.9823    1.7264    0.0000 H   0  0  0  0  0  0  0  0  0  0  0  0
  1 13  1  0  0  0  0
  1 18  1  0  0  0  0
  2 12  1  0  0  0  0
  2 19  1  0  0  0  0
  3 20  1  0  0  0  0
  3 21  1  0  0  0  0
 12  4  1  6  0  0  0
  4 38  1  0  0  0  0
 14  5  1  6  0  0  0
  5 39  1  0  0  0  0
 15  6  1  1  0  0  0
  6 40  1  0  0  0  0
 16  7  1  6  0  0  0
  7 41  1  0  0  0  0
 17  8  1  1  0  0  0
  8 42  1  0  0  0  0
 18  9  1  6  0  0  0
  9 43  1  0  0  0  0
 10 22  1  0  0  0  0
 10 44  1  0  0  0  0
 11 23  1  0  0  0  0
 11 45  1  0  0  0  0
 12 14  1  0  0  0  0
 12 20  1  0  0  0  0
 13 15  1  0  0  0  0
 13 21  1  6  0  0  0
 13 24  1  0  0  0  0
 14 17  1  0  0  0  0
 14 25  1  0  0  0  0
 15 16  1  0  0  0  0
 15 26  1  0  0  0  0
 16 18  1  0  0  0  0
 16 27  1  0  0  0  0
 17 19  1  0  0  0  0
 17 28  1  0  0  0  0
 18 22  1  0  0  0  0
 19 23  1  6  0  0  0
 19 29  1  0  0  0  0
 20 30  1  0  0  0  0
 20 31  1  0  0  0  0
 21 32  1  0  0  0  0
 21 33  1  0  0  0  0
 22 34  1  0  0  0  0
 22 35  1  0  0  0  0
 23 36  1  0  0  0  0
 23 37  1  0  0  0  0
M  END
> <PUBCHEM_COMPOUND_CID>
440146

> <PUBCHEM_COMPOUND_CANONICALIZED>
1

> <PUBCHEM_CACTVS_COMPLEXITY>
409

> <PUBCHEM_CACTVS_HBOND_ACCEPTOR>
11

> <PUBCHEM_CACTVS_HBOND_DONOR>
8

> <PUBCHEM_CACTVS_ROTATABLE_BOND>
6

> <PUBCHEM_CACTVS_SUBSKEYS>
AAADceBwPAAAAAAAAAAAAAAAAAAAASJAAAAAAAAAAAAAAAAAAAAAGgAACAAACBSggAIACAAABgAAAAAAAAAAAAAAAAAAAAAAAAAREAIAAAACQAAFAAAHAAHAYAwAAAAAAAAAAAAAAAAAAAAAAAAAAAAAAA==

> <PUBCHEM_IUPAC_OPENEYE_NAME>
(2R,3S,4S,5R)-5-(hydroxymethyl)-2-[[(2R,3S,4S,5R)-3,4,5-trihydroxy-5-(hydroxymethyl)tetrahydrofuran-2-yl]methoxymethyl]tetrahydrofuran-2,3,4-triol

> <PUBCHEM_IUPAC_CAS_NAME>
(2R,3S,4S,5R)-5-(hydroxymethyl)-2-[[(2R,3S,4S,5R)-3,4,5-trihydroxy-5-(hydroxymethyl)-2-oxolanyl]methoxymethyl]oxolane-2,3,4-triol

> <PUBCHEM_IUPAC_NAME>
(2R,3S,4S,5R)-5-(hydroxymethyl)-2-[[(2R,3S,4S,5R)-3,4,5-trihydroxy-5-(hydroxymethyl)oxolan-2-yl]methoxymethyl]oxolane-2,3,4-triol

> <PUBCHEM_IUPAC_SYSTEMATIC_NAME>
(2R,3S,4S,5R)-5-(hydroxymethyl)-2-[[(2R,3S,4S,5R)-5-(hydroxymethyl)-3,4,5-tris(oxidanyl)oxolan-2-yl]methoxymethyl]oxolane-2,3,4-triol

> <PUBCHEM_IUPAC_TRADITIONAL_NAME>
(2R,3S,4S,5R)-5-methylol-2-[[(2R,3S,4S,5R)-3,4,5-trihydroxy-5-methylol-tetrahydrofuran-2-yl]methoxymethyl]tetrahydrofuran-2,3,4-triol

> <PUBCHEM_IUPAC_INCHI>
InChI=1S/C12H22O11/c13-1-5-7(15)10(18)12(20,22-5)4-21-2-6-8(16)9(17)11(19,3-14)23-6/h5-10,13-20H,1-4H2/t5-,6-,7-,8-,9+,10+,11-,12-/m1/s1

> <PUBCHEM_IUPAC_INCHIKEY>
IDZUORIWVBRHPH-TWOHWVPZSA-N

> <PUBCHEM_XLOGP3_AA>
-4.7

> <PUBCHEM_EXACT_MASS>
342.116212

> <PUBCHEM_MOLECULAR_FORMULA>
C12H22O11

> <PUBCHEM_MOLECULAR_WEIGHT>
342.29648

> <PUBCHEM_OPENEYE_CAN_SMILES>
C(C1C(C(C(O1)(COCC2C(C(C(O2)(CO)O)O)O)O)O)O)O

> <PUBCHEM_OPENEYE_ISO_SMILES>
C([C@@H]1[C@H]([C@@H]([C@](O1)(COC[C@@H]2[C@H]([C@@H]([C@](O2)(CO)O)O)O)O)O)O)O

> <PUBCHEM_CACTVS_TPSA>
190

> <PUBCHEM_MONOISOTOPIC_WEIGHT>
342.116212

> <PUBCHEM_TOTAL_CHARGE>
0

> <PUBCHEM_HEAVY_ATOM_COUNT>
23

> <PUBCHEM_ATOM_DEF_STEREO_COUNT>
8

> <PUBCHEM_ATOM_UDEF_STEREO_COUNT>
0

> <PUBCHEM_BOND_DEF_STEREO_COUNT>
0

> <PUBCHEM_BOND_UDEF_STEREO_COUNT>
0

> <PUBCHEM_ISOTOPIC_ATOM_COUNT>
0

> <PUBCHEM_COMPONENT_COUNT>
1

> <PUBCHEM_CACTVS_TAUTO_COUNT>
1

> <PUBCHEM_COORDINATE_TYPE>
1
5
255

> <PUBCHEM_BONDANNOTATIONS>
13  21  6
19  23  6
12  4  6
14  5  6
15  6  5
16  7  6
17  8  5
18  9  6

$$$$

