8832
  -OEChem-06261203092D

 22 21  0     0  0  0  0  0  0999 V2000
    8.0622    0.4400    0.0000 O   0  0  0  0  0  0  0  0  0  0  0  0
    2.8660    0.4400    0.0000 O   0  0  0  0  0  0  0  0  0  0  0  0
    5.4641   -1.0600    0.0000 O   0  0  0  0  0  0  0  0  0  0  0  0
    6.3301    0.4400    0.0000 N   0  0  0  0  0  0  0  0  0  0  0  0
    4.5981    0.4400    0.0000 N   0  0  0  0  0  0  0  0  0  0  0  0
    7.1962   -0.0600    0.0000 C   0  0  0  0  0  0  0  0  0  0  0  0
    3.7320   -0.0600    0.0000 C   0  0  0  0  0  0  0  0  0  0  0  0
    5.4641   -0.0600    0.0000 C   0  0  0  0  0  0  0  0  0  0  0  0
    8.9282   -0.0600    0.0000 C   0  0  0  0  0  0  0  0  0  0  0  0
    2.0000   -0.0600    0.0000 C   0  0  0  0  0  0  0  0  0  0  0  0
    6.7976   -0.5349    0.0000 H   0  0  0  0  0  0  0  0  0  0  0  0
    7.5947   -0.5349    0.0000 H   0  0  0  0  0  0  0  0  0  0  0  0
    3.3335   -0.5349    0.0000 H   0  0  0  0  0  0  0  0  0  0  0  0
    4.1306   -0.5349    0.0000 H   0  0  0  0  0  0  0  0  0  0  0  0
    4.5981    1.0600    0.0000 H   0  0  0  0  0  0  0  0  0  0  0  0
    6.3301    1.0600    0.0000 H   0  0  0  0  0  0  0  0  0  0  0  0
    8.6182   -0.5969    0.0000 H   0  0  0  0  0  0  0  0  0  0  0  0
    9.4651   -0.3700    0.0000 H   0  0  0  0  0  0  0  0  0  0  0  0
    9.2382    0.4769    0.0000 H   0  0  0  0  0  0  0  0  0  0  0  0
    1.6900    0.4769    0.0000 H   0  0  0  0  0  0  0  0  0  0  0  0
    1.4631   -0.3700    0.0000 H   0  0  0  0  0  0  0  0  0  0  0  0
    2.3100   -0.5969    0.0000 H   0  0  0  0  0  0  0  0  0  0  0  0
  1  6  1  0  0  0  0
  1  9  1  0  0  0  0
  2  7  1  0  0  0  0
  2 10  1  0  0  0  0
  3  8  2  0  0  0  0
  4  6  1  0  0  0  0
  4  8  1  0  0  0  0
  4 16  1  0  0  0  0
  5  7  1  0  0  0  0
  5  8  1  0  0  0  0
  5 15  1  0  0  0  0
  6 11  1  0  0  0  0
  6 12  1  0  0  0  0
  7 13  1  0  0  0  0
  7 14  1  0  0  0  0
  9 17  1  0  0  0  0
  9 18  1  0  0  0  0
  9 19  1  0  0  0  0
 10 20  1  0  0  0  0
 10 21  1  0  0  0  0
 10 22  1  0  0  0  0
M  END
> <PUBCHEM_COMPOUND_CID>
8832

> <PUBCHEM_COMPOUND_CANONICALIZED>
1

> <PUBCHEM_CACTVS_COMPLEXITY>
86.9

> <PUBCHEM_CACTVS_HBOND_ACCEPTOR>
3

> <PUBCHEM_CACTVS_HBOND_DONOR>
2

> <PUBCHEM_CACTVS_ROTATABLE_BOND>
4

> <PUBCHEM_CACTVS_SUBSKEYS>
AAADccBjMAAAAAAAAAAAAAAAAAAAAAAAAAAAAAAAAAAAAAAAAAAAFgAQAAAAAAAAAAYDAALABAAIAAAAEAAAAAAAAAAAAIAIAAGAAAAAAAAAAAAIAgAAAAAAAAAAAAAAAAAAAAAAAAAAAAAAAAAAAAAAAA==

> <PUBCHEM_IUPAC_OPENEYE_NAME>
1,3-bis(methoxymethyl)urea

> <PUBCHEM_IUPAC_CAS_NAME>
1,3-bis(methoxymethyl)urea

> <PUBCHEM_IUPAC_NAME>
1,3-bis(methoxymethyl)urea

> <PUBCHEM_IUPAC_SYSTEMATIC_NAME>
1,3-bis(methoxymethyl)urea

> <PUBCHEM_IUPAC_TRADITIONAL_NAME>
1,3-bis(methoxymethyl)urea

> <PUBCHEM_IUPAC_INCHI>
InChI=1S/C5H12N2O3/c1-9-3-6-5(8)7-4-10-2/h3-4H2,1-2H3,(H2,6,7,8)

> <PUBCHEM_IUPAC_INCHIKEY>
XKALZGSIEJZJCZ-UHFFFAOYSA-N

> <PUBCHEM_XLOGP3_AA>
-0.7

> <PUBCHEM_EXACT_MASS>
148.084792

> <PUBCHEM_MOLECULAR_FORMULA>
C5H12N2O3

> <PUBCHEM_MOLECULAR_WEIGHT>
148.16038

> <PUBCHEM_OPENEYE_CAN_SMILES>
COCNC(=O)NCOC

> <PUBCHEM_OPENEYE_ISO_SMILES>
COCNC(=O)NCOC

> <PUBCHEM_CACTVS_TPSA>
59.6

> <PUBCHEM_MONOISOTOPIC_WEIGHT>
148.084792

> <PUBCHEM_TOTAL_CHARGE>
0

> <PUBCHEM_HEAVY_ATOM_COUNT>
10

> <PUBCHEM_ATOM_DEF_STEREO_COUNT>
0

> <PUBCHEM_ATOM_UDEF_STEREO_COUNT>
0

> <PUBCHEM_BOND_DEF_STEREO_COUNT>
0

> <PUBCHEM_BOND_UDEF_STEREO_COUNT>
0

> <PUBCHEM_ISOTOPIC_ATOM_COUNT>
0

> <PUBCHEM_COMPONENT_COUNT>
1

> <PUBCHEM_CACTVS_TAUTO_COUNT>
2

> <PUBCHEM_COORDINATE_TYPE>
1
5
255

$$$$

