6961
  -OEChem-06261201383D

 24 24  0     0  0  0  0  0  0999 V2000
   -2.8946    1.6912   -1.2893 O   0  0  0  0  0  0  0  0  0  0  0  0
   -2.3295   -2.6556   -0.4761 O   0  0  0  0  0  0  0  0  0  0  0  0
    2.8954    1.6893   -1.2898 O   0  0  0  0  0  0  0  0  0  0  0  0
    2.3292   -2.6565   -0.4731 O   0  0  0  0  0  0  0  0  0  0  0  0
   -3.0630    1.8886    0.9688 O   0  0  0  0  0  0  0  0  0  0  0  0
   -3.5155   -1.0357    0.5898 O   0  0  0  0  0  0  0  0  0  0  0  0
    3.0628    1.8892    0.9682 O   0  0  0  0  0  0  0  0  0  0  0  0
    3.5156   -1.0349    0.5897 O   0  0  0  0  0  0  0  0  0  0  0  0
   -1.2082    0.7192    0.0118 C   0  0  0  0  0  0  0  0  0  0  0  0
   -1.2080   -0.6745    0.0711 C   0  0  0  0  0  0  0  0  0  0  0  0
    1.2079    0.7194    0.0116 C   0  0  0  0  0  0  0  0  0  0  0  0
    1.2080   -0.6742    0.0709 C   0  0  0  0  0  0  0  0  0  0  0  0
   -0.0001    1.4160   -0.0178 C   0  0  0  0  0  0  0  0  0  0  0  0
    0.0001   -1.3711    0.1008 C   0  0  0  0  0  0  0  0  0  0  0  0
   -2.4534    1.4755   -0.0209 C   0  0  0  0  0  0  0  0  0  0  0  0
   -2.4531   -1.4310    0.1028 C   0  0  0  0  0  0  0  0  0  0  0  0
    2.4531    1.4758   -0.0215 C   0  0  0  0  0  0  0  0  0  0  0  0
    2.4533   -1.4306    0.1030 C   0  0  0  0  0  0  0  0  0  0  0  0
   -0.0001    2.5032   -0.0640 H   0  0  0  0  0  0  0  0  0  0  0  0
    0.0000   -2.4558    0.1776 H   0  0  0  0  0  0  0  0  0  0  0  0
   -3.7328    2.2008   -1.3025 H   0  0  0  0  0  0  0  0  0  0  0  0
   -3.1716   -3.1582   -0.4509 H   0  0  0  0  0  0  0  0  0  0  0  0
    3.7340    2.1980   -1.3032 H   0  0  0  0  0  0  0  0  0  0  0  0
    3.1712   -3.1593   -0.4468 H   0  0  0  0  0  0  0  0  0  0  0  0
  1 15  1  0  0  0  0
  1 21  1  0  0  0  0
  2 16  1  0  0  0  0
  2 22  1  0  0  0  0
  3 17  1  0  0  0  0
  3 23  1  0  0  0  0
  4 18  1  0  0  0  0
  4 24  1  0  0  0  0
  5 15  2  0  0  0  0
  6 16  2  0  0  0  0
  7 17  2  0  0  0  0
  8 18  2  0  0  0  0
  9 10  2  0  0  0  0
  9 13  1  0  0  0  0
  9 15  1  0  0  0  0
 10 14  1  0  0  0  0
 10 16  1  0  0  0  0
 11 12  1  0  0  0  0
 11 13  2  0  0  0  0
 11 17  1  0  0  0  0
 12 14  2  0  0  0  0
 12 18  1  0  0  0  0
 13 19  1  0  0  0  0
 14 20  1  0  0  0  0
M  END
> <PUBCHEM_COMPOUND_CID>
6961

> <PUBCHEM_CONFORMER_RMSD>
0.6

> <PUBCHEM_CONFORMER_DIVERSEORDER>
1
4
3
2

> <PUBCHEM_MMFF94_PARTIAL_CHARGES>
24
1 -0.65
10 0.09
11 0.09
12 0.09
13 -0.15
14 -0.15
15 0.63
16 0.63
17 0.63
18 0.63
19 0.15
2 -0.65
20 0.15
21 0.5
22 0.5
23 0.5
24 0.5
3 -0.65
4 -0.65
5 -0.57
6 -0.57
7 -0.57
8 -0.57
9 0.09

> <PUBCHEM_EFFECTIVE_ROTOR_COUNT>
4

> <PUBCHEM_PHARMACOPHORE_FEATURES>
13
1 1 acceptor
1 2 acceptor
1 3 acceptor
1 4 acceptor
1 5 acceptor
1 6 acceptor
1 7 acceptor
1 8 acceptor
3 1 5 15 anion
3 2 6 16 anion
3 3 7 17 anion
3 4 8 18 anion
6 9 10 11 12 13 14 rings

> <PUBCHEM_HEAVY_ATOM_COUNT>
18

> <PUBCHEM_ATOM_DEF_STEREO_COUNT>
0

> <PUBCHEM_ATOM_UDEF_STEREO_COUNT>
0

> <PUBCHEM_BOND_DEF_STEREO_COUNT>
0

> <PUBCHEM_BOND_UDEF_STEREO_COUNT>
0

> <PUBCHEM_ISOTOPIC_ATOM_COUNT>
0

> <PUBCHEM_COMPONENT_COUNT>
1

> <PUBCHEM_CACTVS_TAUTO_COUNT>
1

> <PUBCHEM_CONFORMER_ID>
00001B3100000001

> <PUBCHEM_MMFF94_ENERGY>
68.5201

> <PUBCHEM_FEATURE_SELFOVERLAP>
66.202

> <PUBCHEM_SHAPE_FINGERPRINT>
10608611 8 18411423920540721017
10756046 5 18412262856523611718
10922523 26 18343022219902812445
10967382 1 18410292510195859027
11132069 177 18191866712998432137
11680986 33 18337115678098902922
12553582 1 18122623847400811427
13140716 1 18339924912758658704
13380535 21 18411408523109351573
14178342 30 18409454648097614232
14223421 5 18339081484303130595
14614273 12 18270971133004342069
14648413 74 18410575132134657122
14790565 3 17691948390007607853
15219456 202 18411143532259152152
15442244 35 18338234989288634170
15536298 74 18335700529456269752
16945 1 18334294270757843690
193761 8 18410293609686517683
20510252 161 17973158435533389816
20511035 2 18188502366347019310
20525323 117 18339368448416850585
21069387 34 17460611439321711463
21501502 16 18412259532192420466
22344851 341 18343028812698750250
2334 1 18412544279928935912
23366157 5 18060416920181148818
23388829 49 18123751950472558477
23419403 2 15741163192695889115
23463225 33 18341896277273137136
23558518 356 18272090478638090747
23559900 14 18336275591202063904
2748010 2 18412262847928272119
3060560 45 17836947950361361517
350125 39 18411412912534013289
589210 1 18410576184211779406
69090 78 18339085990282980193
7364860 26 18334574651061342714
74978 22 18337390555636484270
81228 2 18200309918965538361

> <PUBCHEM_SHAPE_MULTIPOLES>
323.48
5.71
2.8
0.86
0
0.71
0.1
-0.45
-0.32
0
0.25
0
-0.32
0

> <PUBCHEM_SHAPE_SELFOVERLAP>
702.031

> <PUBCHEM_SHAPE_VOLUME>
175.5

> <PUBCHEM_COORDINATE_TYPE>
2
5
10

$$$$

