5281201
  -OEChem-07051212553D

 37 37  0     1  0  0  0  0  0999 V2000
    2.2995   -3.2716    1.2177 O   0  0  0  0  0  0  0  0  0  0  0  0
    4.2594   -2.7374    0.1837 O   0  0  0  0  0  0  0  0  0  0  0  0
   -3.7967   -2.7454   -0.7078 O   0  0  0  0  0  0  0  0  0  0  0  0
   -2.9070   -1.3131   -2.2334 O   0  0  0  0  0  0  0  0  0  0  0  0
   -6.0470    2.2384    0.3142 O   0  0  0  0  0  0  0  0  0  0  0  0
    4.7701    1.7785   -1.7598 O   0  0  0  0  0  0  0  0  0  0  0  0
    5.1846    2.6655    0.3070 O   0  0  0  0  0  0  0  0  0  0  0  0
   -4.8904    1.2049    1.9722 O   0  0  0  0  0  0  0  0  0  0  0  0
    3.8358   -0.1555    0.3736 N   0  0  0  0  0  0  0  0  0  0  0  0
   -2.5935    0.5179   -0.1398 N   0  0  0  0  0  0  0  0  0  0  0  0
    1.4262   -0.7704    0.1372 C   0  0  0  0  0  0  0  0  0  0  0  0
    2.7438   -0.9933    0.8808 C   0  0  1  0  0  0  0  0  0  0  0  0
    1.1295    0.6981   -0.0039 C   0  0  0  0  0  0  0  0  0  0  0  0
   -3.6323   -0.4809   -0.0566 C   0  0  1  0  0  0  0  0  0  0  0  0
    2.1274    1.5916   -0.0454 C   0  0  0  0  0  0  0  0  0  0  0  0
   -0.2508    1.0965   -0.0972 C   0  0  0  0  0  0  0  0  0  0  0  0
    3.4914    1.0258   -0.0016 C   0  0  0  0  0  0  0  0  0  0  0  0
   -5.0003    0.1794   -0.2373 C   0  0  0  0  0  0  0  0  0  0  0  0
   -1.2684    0.2323   -0.0592 C   0  0  0  0  0  0  0  0  0  0  0  0
    3.2082   -2.4036    0.7098 C   0  0  0  0  0  0  0  0  0  0  0  0
   -3.3917   -1.5194   -1.1300 C   0  0  0  0  0  0  0  0  0  0  0  0
    4.5867    1.9310   -0.4389 C   0  0  0  0  0  0  0  0  0  0  0  0
   -5.2846    1.2307    0.8146 C   0  0  0  0  0  0  0  0  0  0  0  0
    1.4433   -1.2366   -0.8567 H   0  0  0  0  0  0  0  0  0  0  0  0
    0.6732   -1.2959    0.7327 H   0  0  0  0  0  0  0  0  0  0  0  0
    2.6342   -0.8022    1.9563 H   0  0  0  0  0  0  0  0  0  0  0  0
   -3.5721   -0.9628    0.9276 H   0  0  0  0  0  0  0  0  0  0  0  0
    1.9866    2.6583   -0.1646 H   0  0  0  0  0  0  0  0  0  0  0  0
   -0.4616    2.1584   -0.2015 H   0  0  0  0  0  0  0  0  0  0  0  0
   -5.8006   -0.5678   -0.1916 H   0  0  0  0  0  0  0  0  0  0  0  0
   -5.0493    0.6533   -1.2265 H   0  0  0  0  0  0  0  0  0  0  0  0
   -2.8478    1.4952   -0.2431 H   0  0  0  0  0  0  0  0  0  0  0  0
   -1.1191   -0.8343    0.0405 H   0  0  0  0  0  0  0  0  0  0  0  0
    2.5853   -4.2042    1.1133 H   0  0  0  0  0  0  0  0  0  0  0  0
   -3.6510   -3.4337   -1.3914 H   0  0  0  0  0  0  0  0  0  0  0  0
   -6.2342    2.9247    0.9896 H   0  0  0  0  0  0  0  0  0  0  0  0
    5.4848    2.3554   -2.1042 H   0  0  0  0  0  0  0  0  0  0  0  0
  1 20  1  0  0  0  0
  1 34  1  0  0  0  0
  2 20  2  0  0  0  0
  3 21  1  0  0  0  0
  3 35  1  0  0  0  0
  4 21  2  0  0  0  0
  5 23  1  0  0  0  0
  5 36  1  0  0  0  0
  6 22  1  0  0  0  0
  6 37  1  0  0  0  0
  7 22  2  0  0  0  0
  8 23  2  0  0  0  0
  9 12  1  0  0  0  0
  9 17  2  0  0  0  0
 10 14  1  0  0  0  0
 10 19  1  0  0  0  0
 10 32  1  0  0  0  0
 11 12  1  0  0  0  0
 11 13  1  0  0  0  0
 11 24  1  0  0  0  0
 11 25  1  0  0  0  0
 12 20  1  0  0  0  0
 12 26  1  0  0  0  0
 13 15  2  0  0  0  0
 13 16  1  0  0  0  0
 14 18  1  0  0  0  0
 14 21  1  0  0  0  0
 14 27  1  0  0  0  0
 15 17  1  0  0  0  0
 15 28  1  0  0  0  0
 16 19  2  0  0  0  0
 16 29  1  0  0  0  0
 17 22  1  0  0  0  0
 18 23  1  0  0  0  0
 18 30  1  0  0  0  0
 18 31  1  0  0  0  0
 19 33  1  0  0  0  0
M  END
> <PUBCHEM_COMPOUND_CID>
5281201

> <PUBCHEM_CONFORMER_RMSD>
0.8

> <PUBCHEM_CONFORMER_DIVERSEORDER>
2
228
148
232
66
164
137
217
129
56
84
52
220
132
222
128
229
188
116
115
39
231
117
169
219
18
162
208
127
126
106
54
225
64
16
63
230
17
200
233
32
15
181
182
90
140
170
203
214
113
38
125
30
58
19
206
168
79
215
202
74
187
153
171
150
34
75
209
51
123
204
55
141
60
199
227
61
163
103
218
95
57
109
70
234
134
35
142
174
48
33
24
50
144
100
189
112
226
71
165
166
25
197
119
210
20
172
138
213
21
139
136
80
190
53
121
143
192
49
151
224
147
105
67
205
43
62
92
96
104
216
22
177
212
167
12
28
223
42
9
78
118
37
13
157
76
211
193
40
146
86
235
178
183
10
114
152
29
124
31
47
221
154
65
73
159
45
7
156
145
88
72
173
120
26
36
101
158
85
107
149
23
201
135
185
77
11
81
83
108
3
82
196
122
68
41
14
155
161
69
131
99
133
1
110
194
102
179
111
160
180
130
91
27
97
195
46
207
6
5
94
184
87
198
176
59
89
98
4
93
191
175
44
8
186

> <PUBCHEM_MMFF94_PARTIAL_CHARGES>
31
1 -0.65
10 -0.87
11 0.14
12 0.31
13 -0.14
14 0.43
15 -0.14
16 -0.15
17 0.44
18 0.06
19 -0.05
2 -0.57
20 0.66
21 0.66
22 0.72
23 0.66
28 0.15
29 0.15
3 -0.65
32 0.4
33 0.15
34 0.5
35 0.5
36 0.5
37 0.5
4 -0.57
5 -0.65
6 -0.65
7 -0.57
8 -0.57
9 -0.7

> <PUBCHEM_EFFECTIVE_ROTOR_COUNT>
8.4

> <PUBCHEM_PHARMACOPHORE_FEATURES>
16
1 1 acceptor
1 10 cation
1 10 donor
1 2 acceptor
1 3 acceptor
1 4 acceptor
1 5 acceptor
1 6 acceptor
1 7 acceptor
1 8 acceptor
1 9 acceptor
3 1 2 20 anion
3 3 4 21 anion
3 5 8 23 anion
3 6 7 22 anion
6 9 11 12 13 15 17 rings

> <PUBCHEM_HEAVY_ATOM_COUNT>
23

> <PUBCHEM_ATOM_DEF_STEREO_COUNT>
0

> <PUBCHEM_ATOM_UDEF_STEREO_COUNT>
2

> <PUBCHEM_BOND_DEF_STEREO_COUNT>
1

> <PUBCHEM_BOND_UDEF_STEREO_COUNT>
0

> <PUBCHEM_ISOTOPIC_ATOM_COUNT>
0

> <PUBCHEM_COMPONENT_COUNT>
1

> <PUBCHEM_CACTVS_TAUTO_COUNT>
3

> <PUBCHEM_CONFORMER_ID>
005095B100000002

> <PUBCHEM_MMFF94_ENERGY>
44.1968

> <PUBCHEM_FEATURE_SELFOVERLAP>
81.429

> <PUBCHEM_SHAPE_FINGERPRINT>
10090160 65 18059863814087217052
12107183 9 18048034361731013241
12236239 1 18333731299366801485
12553582 1 18126017189155205546
12596602 18 18413100680943558913
12616971 3 18343027709055704650
12633257 1 18263086668397590807
12788726 201 17749381624454641137
13073987 5 18411696587351754713
13167823 11 18408045104434664263
13583140 156 18338785720687904881
13631057 29 18048039571421270031
13760787 19 18334294245157013877
13955234 65 18343022220577974794
14347329 18 16298651876336535665
14790565 3 18125434207701285932
15238133 3 17168424986237300081
15250474 111 18335434434541922031
15537594 2 18334851680562305243
17818456 19 17969503899658923617
17844677 252 18200027486026952453
20281475 54 18408896126365796247
20511986 3 18261405446177601001
20645477 70 18131920368574150610
21033648 29 14490473105968664211
21054139 6 18122354484447991350
21065198 48 18335143077119198023
21315759 148 17489291015412624753
21421861 104 18337666546182635722
23402655 69 18408041784113714637
23559900 14 18336275642678406914
25147074 1 18261120672781921663
300161 21 18334861597547131917
5104073 3 18412550885631063403
543358 83 18410011048346721394
633830 44 17846222184823034523
8272917 22 18341891913797302468
90127 26 17703512202957376133

> <PUBCHEM_SHAPE_MULTIPOLES>
416.41
13.73
3.16
1.25
8.97
1.82
-0.26
-5.58
0.78
-2.84
0.3
0.82
0.18
-3.04

> <PUBCHEM_SHAPE_SELFOVERLAP>
862.676

> <PUBCHEM_SHAPE_VOLUME>
234.2

> <PUBCHEM_COORDINATE_TYPE>
2
5
10

$$$$

