7847058
  -OEChem-06241222483D

 56 58  0     1  0  0  0  0  0999 V2000
   -0.6559   -0.1842   -0.0815 O   0  0  0  0  0  0  0  0  0  0  0  0
   -1.4104   -0.2645   -2.2548 O   0  0  0  0  0  0  0  0  0  0  0  0
    1.2394   -0.0852    1.7955 O   0  0  0  0  0  0  0  0  0  0  0  0
   -5.5023   -0.2108    0.6890 N   0  0  0  0  0  0  0  0  0  0  0  0
    7.2952   -0.3604   -0.3533 C   0  0  2  0  0  0  0  0  0  0  0  0
    8.0781    0.8827    0.1515 C   0  0  0  0  0  0  0  0  0  0  0  0
    5.8272   -0.3086   -0.0948 C   0  0  0  0  0  0  0  0  0  0  0  0
    7.9364   -1.6230    0.2607 C   0  0  0  0  0  0  0  0  0  0  0  0
   -3.5677   -1.3990   -0.1319 C   0  0  0  0  0  0  0  0  0  0  0  0
   -2.9620   -0.1909   -0.4459 C   0  0  0  0  0  0  0  0  0  0  0  0
    5.3516   -0.2223    1.2136 C   0  0  0  0  0  0  0  0  0  0  0  0
    4.9298   -0.3476   -1.1619 C   0  0  0  0  0  0  0  0  0  0  0  0
   -3.6258    1.0172   -0.1930 C   0  0  0  0  0  0  0  0  0  0  0  0
   -4.8278   -1.3542    0.4291 C   0  0  0  0  0  0  0  0  0  0  0  0
    7.5677    2.1846   -0.4542 C   0  0  0  0  0  0  0  0  0  0  0  0
   -4.9121    0.9602    0.3833 C   0  0  0  0  0  0  0  0  0  0  0  0
    3.1176   -0.2153    0.3813 C   0  0  0  0  0  0  0  0  0  0  0  0
    3.9786   -0.1750    1.4550 C   0  0  0  0  0  0  0  0  0  0  0  0
    3.5567   -0.3002   -0.9207 C   0  0  0  0  0  0  0  0  0  0  0  0
   -5.5392   -2.6166    0.7920 C   0  0  0  0  0  0  0  0  0  0  0  0
   -2.8882   -2.7029   -0.3881 C   0  0  0  0  0  0  0  0  0  0  0  0
   -3.0396    2.2571   -0.4992 C   0  0  0  0  0  0  0  0  0  0  0  0
   -1.6261   -0.2180   -1.0413 C   0  0  0  0  0  0  0  0  0  0  0  0
    1.6497   -0.1627    0.6397 C   0  0  0  0  0  0  0  0  0  0  0  0
   -5.5710    2.1605    0.6343 C   0  0  0  0  0  0  0  0  0  0  0  0
    0.6997   -0.2050   -0.5412 C   0  0  0  0  0  0  0  0  0  0  0  0
   -6.3899   -3.1514   -0.3560 C   0  0  0  0  0  0  0  0  0  0  0  0
   -3.7213    3.4421   -0.2375 C   0  0  0  0  0  0  0  0  0  0  0  0
   -4.9885    3.3934    0.3300 C   0  0  0  0  0  0  0  0  0  0  0  0
    7.4640   -0.4233   -1.4374 H   0  0  0  0  0  0  0  0  0  0  0  0
    9.1379    0.7693   -0.1090 H   0  0  0  0  0  0  0  0  0  0  0  0
    8.0292    0.9562    1.2447 H   0  0  0  0  0  0  0  0  0  0  0  0
    7.8906   -1.6162    1.3551 H   0  0  0  0  0  0  0  0  0  0  0  0
    8.9902   -1.6988   -0.0288 H   0  0  0  0  0  0  0  0  0  0  0  0
    7.4274   -2.5275   -0.0907 H   0  0  0  0  0  0  0  0  0  0  0  0
    6.0327   -0.1898    2.0594 H   0  0  0  0  0  0  0  0  0  0  0  0
    5.2841   -0.4139   -2.1872 H   0  0  0  0  0  0  0  0  0  0  0  0
    8.2037    3.0180   -0.1383 H   0  0  0  0  0  0  0  0  0  0  0  0
    7.5860    2.1421   -1.5478 H   0  0  0  0  0  0  0  0  0  0  0  0
    6.5464    2.4087   -0.1324 H   0  0  0  0  0  0  0  0  0  0  0  0
   -4.8497   -3.3891    1.1487 H   0  0  0  0  0  0  0  0  0  0  0  0
   -6.2011   -2.4129    1.6441 H   0  0  0  0  0  0  0  0  0  0  0  0
    3.6291   -0.1074    2.4805 H   0  0  0  0  0  0  0  0  0  0  0  0
    2.8954   -0.3306   -1.7790 H   0  0  0  0  0  0  0  0  0  0  0  0
   -3.5501   -3.4091   -0.8971 H   0  0  0  0  0  0  0  0  0  0  0  0
   -2.0088   -2.6232   -1.0329 H   0  0  0  0  0  0  0  0  0  0  0  0
   -2.5541   -3.1431    0.5577 H   0  0  0  0  0  0  0  0  0  0  0  0
   -2.0499    2.3287   -0.9434 H   0  0  0  0  0  0  0  0  0  0  0  0
   -6.5647    2.1494    1.0784 H   0  0  0  0  0  0  0  0  0  0  0  0
    0.8579   -1.1353   -1.0968 H   0  0  0  0  0  0  0  0  0  0  0  0
    0.8681    0.6770   -1.1681 H   0  0  0  0  0  0  0  0  0  0  0  0
   -7.1501   -2.4205   -0.6530 H   0  0  0  0  0  0  0  0  0  0  0  0
   -6.9049   -4.0668   -0.0478 H   0  0  0  0  0  0  0  0  0  0  0  0
   -5.7894   -3.3818   -1.2409 H   0  0  0  0  0  0  0  0  0  0  0  0
   -3.2655    4.3984   -0.4752 H   0  0  0  0  0  0  0  0  0  0  0  0
   -5.5275    4.3131    0.5376 H   0  0  0  0  0  0  0  0  0  0  0  0
  1 23  1  0  0  0  0
  1 26  1  0  0  0  0
  2 23  2  0  0  0  0
  3 24  2  0  0  0  0
  4 14  2  0  0  0  0
  4 16  1  0  0  0  0
  5  6  1  0  0  0  0
  5  7  1  0  0  0  0
  5  8  1  0  0  0  0
  5 30  1  0  0  0  0
  6 15  1  0  0  0  0
  6 31  1  0  0  0  0
  6 32  1  0  0  0  0
  7 11  2  0  0  0  0
  7 12  1  0  0  0  0
  8 33  1  0  0  0  0
  8 34  1  0  0  0  0
  8 35  1  0  0  0  0
  9 10  2  0  0  0  0
  9 14  1  0  0  0  0
  9 21  1  0  0  0  0
 10 13  1  0  0  0  0
 10 23  1  0  0  0  0
 11 18  1  0  0  0  0
 11 36  1  0  0  0  0
 12 19  2  0  0  0  0
 12 37  1  0  0  0  0
 13 16  1  0  0  0  0
 13 22  2  0  0  0  0
 14 20  1  0  0  0  0
 15 38  1  0  0  0  0
 15 39  1  0  0  0  0
 15 40  1  0  0  0  0
 16 25  2  0  0  0  0
 17 18  2  0  0  0  0
 17 19  1  0  0  0  0
 17 24  1  0  0  0  0
 18 43  1  0  0  0  0
 19 44  1  0  0  0  0
 20 27  1  0  0  0  0
 20 41  1  0  0  0  0
 20 42  1  0  0  0  0
 21 45  1  0  0  0  0
 21 46  1  0  0  0  0
 21 47  1  0  0  0  0
 22 28  1  0  0  0  0
 22 48  1  0  0  0  0
 24 26  1  0  0  0  0
 25 29  1  0  0  0  0
 25 49  1  0  0  0  0
 26 50  1  0  0  0  0
 26 51  1  0  0  0  0
 27 52  1  0  0  0  0
 27 53  1  0  0  0  0
 27 54  1  0  0  0  0
 28 29  2  0  0  0  0
 28 55  1  0  0  0  0
 29 56  1  0  0  0  0
M  END
> <PUBCHEM_COMPOUND_CID>
7847058

> <PUBCHEM_CONFORMER_RMSD>
1

> <PUBCHEM_CONFORMER_DIVERSEORDER>
1
60
39
150
63
59
37
71
80
114
27
120
84
101
16
135
81
143
122
89
116
121
79
42
117
102
20
134
30
109
73
130
76
53
65
100
132
131
3
119
77
34
7
136
52
112
38
137
66
32
25
36
26
95
75
113
17
97
140
138
4
149
57
49
93
58
2
67
72
123
11
35
96
88
127
85
8
55
10
129
139
107
99
148
33
18
61
115
78
145
87
98
144
111
91
105
128
47
74
83
54
48
31
142
45
29
70
6
147
110
50
43
28
126
9
15
146
22
62
103
44
124
12
13
14
118
86
68
24
125
5
133
41
90
94
108
23
69
92
19
106
51
64
104
141
46
21
40
82
56

> <PUBCHEM_MMFF94_PARTIAL_CHARGES>
32
1 -0.43
10 0.09
11 -0.15
12 -0.15
14 0.17
16 0.31
17 0.09
18 -0.15
19 -0.15
2 -0.57
20 0.14
21 0.14
22 -0.15
23 0.63
24 0.42
25 -0.15
26 0.34
28 -0.15
29 -0.15
3 -0.57
36 0.15
37 0.15
4 -0.62
43 0.15
44 0.15
48 0.15
49 0.15
5 0.14
55 0.15
56 0.15
7 -0.14
9 -0.14

> <PUBCHEM_EFFECTIVE_ROTOR_COUNT>
8

> <PUBCHEM_PHARMACOPHORE_FEATURES>
9
1 15 hydrophobe
1 2 acceptor
1 27 hydrophobe
1 3 acceptor
1 4 acceptor
1 8 hydrophobe
6 13 16 22 25 28 29 rings
6 4 9 10 13 14 16 rings
6 7 11 12 17 18 19 rings

> <PUBCHEM_HEAVY_ATOM_COUNT>
29

> <PUBCHEM_ATOM_DEF_STEREO_COUNT>
1

> <PUBCHEM_ATOM_UDEF_STEREO_COUNT>
0

> <PUBCHEM_BOND_DEF_STEREO_COUNT>
0

> <PUBCHEM_BOND_UDEF_STEREO_COUNT>
0

> <PUBCHEM_ISOTOPIC_ATOM_COUNT>
0

> <PUBCHEM_COMPONENT_COUNT>
1

> <PUBCHEM_CACTVS_TAUTO_COUNT>
4

> <PUBCHEM_CONFORMER_ID>
0077BC9200000001

> <PUBCHEM_MMFF94_ENERGY>
85.4201

> <PUBCHEM_FEATURE_SELFOVERLAP>
45.7

> <PUBCHEM_SHAPE_FINGERPRINT>
100830 39 18409729607666965320
10299344 5 18202282511651149458
10319926 262 18335432269693093770
10411042 1 18194401088355997163
10595046 47 18344148081598204034
10670039 82 18413112757832685283
11089746 13 5978099150961516914
11315181 36 18201720635307267559
12082328 90 18410294714205360358
12236239 1 18201719574629693356
12596602 18 18342739624551781760
13782708 43 17822292344989752911
13914758 101 7853582305246422918
14068700 675 18199750255063278599
14849402 71 17987510430290220036
14856354 85 18342171146553678207
14933364 13 18408885140351253464
15021287 119 17418085529347180516
15183329 4 18412268363157020666
15230672 131 18265053716380876798
15461852 350 17749116582270601285
15484559 13 13850897323613625465
1577012 14 17846503660026533570
15876981 60 18343577439506477989
16989713 51 17677340398705981007
17686467 74 18199468770536693256
17780758 139 18202282494528964587
17844677 252 18409164385807453432
18608769 82 18334293137129733239
19377110 9 17418099836389560816
21033648 29 17531263776137666601
21130935 74 18342176687742141010
21756936 100 18334864956369352085
21792961 116 17603862347783087374
23081809 10 17918000494649934282
23198884 109 18272650156095289058
23522609 53 17702077318787434172
23569943 247 16843622689442248042
24771293 8 17775001255511656076
249057 25 17846488210786603196
335507 130 18335702681688689438
3663271 9 18273497888334822762
4073 2 18343297068389083538
4098825 35 18410572916496002322
4938544 92 18271811263289106861
497634 4 17989494017389358383
5265222 85 18261392183735471574
5758199 1 17632855339730947568
6009941 240 18261110824263428976
9831232 110 18189325935934918766
9896288 288 18412257359915558531

> <PUBCHEM_SHAPE_MULTIPOLES>
574.22
23.41
3.18
1.2
37.41
1.22
-0.06
-0.31
1.87
-8.14
-0.02
0.48
-0.12
-0.5

> <PUBCHEM_SHAPE_SELFOVERLAP>
1235.036

> <PUBCHEM_SHAPE_VOLUME>
318.1

> <PUBCHEM_COORDINATE_TYPE>
2
5
10

$$$$

