188323
  -OEChem-07051213112D

 37 39  0     0  0  0  0  0  0999 V2000
    6.3580    0.9226    0.0000 O   0  0  0  0  0  0  0  0  0  0  0  0
    2.8660   -1.1121    0.0000 O   0  0  0  0  0  0  0  0  0  0  0  0
    2.8660    0.8879    0.0000 O   0  0  0  0  0  0  0  0  0  0  0  0
    4.5981   -2.1121    0.0000 O   0  0  0  0  0  0  0  0  0  0  0  0
    6.3465   -2.1467    0.0000 O   0  0  0  0  0  0  0  0  0  0  0  0
   10.7205    2.4221    0.0000 O   0  0  0  0  0  0  0  0  0  0  0  0
    5.4641   -0.6121    0.0000 C   0  0  0  0  0  0  0  0  0  0  0  0
    5.4641    0.3879    0.0000 C   0  0  0  0  0  0  0  0  0  0  0  0
    4.5981   -1.1121    0.0000 C   0  0  0  0  0  0  0  0  0  0  0  0
    7.2641    0.4087    0.0000 C   0  0  0  0  0  0  0  0  0  0  0  0
    6.3580   -1.1467    0.0000 C   0  0  0  0  0  0  0  0  0  0  0  0
    4.5981    0.8879    0.0000 C   0  0  0  0  0  0  0  0  0  0  0  0
    3.7320   -0.6121    0.0000 C   0  0  0  0  0  0  0  0  0  0  0  0
    3.7320    0.3879    0.0000 C   0  0  0  0  0  0  0  0  0  0  0  0
    7.2641   -0.6329    0.0000 C   0  0  0  0  0  0  0  0  0  0  0  0
    8.1282    0.9121    0.0000 C   0  0  0  0  0  0  0  0  0  0  0  0
    8.9962    0.4154    0.0000 C   0  0  0  0  0  0  0  0  0  0  0  0
    8.1244    1.9121    0.0000 C   0  0  0  0  0  0  0  0  0  0  0  0
    9.8602    0.9188    0.0000 C   0  0  0  0  0  0  0  0  0  0  0  0
    8.9884    2.4154    0.0000 C   0  0  0  0  0  0  0  0  0  0  0  0
    9.8564    1.9187    0.0000 C   0  0  0  0  0  0  0  0  0  0  0  0
    2.0000   -0.6121    0.0000 C   0  0  0  0  0  0  0  0  0  0  0  0
    2.8660    1.8879    0.0000 C   0  0  0  0  0  0  0  0  0  0  0  0
    4.5981    1.5079    0.0000 H   0  0  0  0  0  0  0  0  0  0  0  0
    7.7998   -0.9450    0.0000 H   0  0  0  0  0  0  0  0  0  0  0  0
    8.9985   -0.2046    0.0000 H   0  0  0  0  0  0  0  0  0  0  0  0
    7.5862    2.2200    0.0000 H   0  0  0  0  0  0  0  0  0  0  0  0
   10.3984    0.6108    0.0000 H   0  0  0  0  0  0  0  0  0  0  0  0
    8.9860    3.0354    0.0000 H   0  0  0  0  0  0  0  0  0  0  0  0
    4.0611   -2.4221    0.0000 H   0  0  0  0  0  0  0  0  0  0  0  0
    2.3100   -0.0751    0.0000 H   0  0  0  0  0  0  0  0  0  0  0  0
    1.4631   -0.3021    0.0000 H   0  0  0  0  0  0  0  0  0  0  0  0
    1.6900   -1.1490    0.0000 H   0  0  0  0  0  0  0  0  0  0  0  0
    3.4860    1.8879    0.0000 H   0  0  0  0  0  0  0  0  0  0  0  0
    2.8660    2.5079    0.0000 H   0  0  0  0  0  0  0  0  0  0  0  0
    2.2460    1.8879    0.0000 H   0  0  0  0  0  0  0  0  0  0  0  0
   11.2586    2.1142    0.0000 H   0  0  0  0  0  0  0  0  0  0  0  0
  1  8  1  0  0  0  0
  1 10  1  0  0  0  0
  2 13  1  0  0  0  0
  2 22  1  0  0  0  0
  3 14  1  0  0  0  0
  3 23  1  0  0  0  0
  4  9  1  0  0  0  0
  4 30  1  0  0  0  0
  5 11  2  0  0  0  0
  6 21  1  0  0  0  0
  6 37  1  0  0  0  0
  7  8  1  0  0  0  0
  7  9  2  0  0  0  0
  7 11  1  0  0  0  0
  8 12  2  0  0  0  0
  9 13  1  0  0  0  0
 10 15  2  0  0  0  0
 10 16  1  0  0  0  0
 11 15  1  0  0  0  0
 12 14  1  0  0  0  0
 12 24  1  0  0  0  0
 13 14  2  0  0  0  0
 15 25  1  0  0  0  0
 16 17  2  0  0  0  0
 16 18  1  0  0  0  0
 17 19  1  0  0  0  0
 17 26  1  0  0  0  0
 18 20  2  0  0  0  0
 18 27  1  0  0  0  0
 19 21  2  0  0  0  0
 19 28  1  0  0  0  0
 20 21  1  0  0  0  0
 20 29  1  0  0  0  0
 22 31  1  0  0  0  0
 22 32  1  0  0  0  0
 22 33  1  0  0  0  0
 23 34  1  0  0  0  0
 23 35  1  0  0  0  0
 23 36  1  0  0  0  0
M  END
> <PUBCHEM_COMPOUND_CID>
188323

> <PUBCHEM_COMPOUND_CANONICALIZED>
1

> <PUBCHEM_CACTVS_COMPLEXITY>
468

> <PUBCHEM_CACTVS_HBOND_ACCEPTOR>
6

> <PUBCHEM_CACTVS_HBOND_DONOR>
2

> <PUBCHEM_CACTVS_ROTATABLE_BOND>
3

> <PUBCHEM_CACTVS_SUBSKEYS>
AAADccB4OAAAAAAAAAAAAAAAAAAAAAAAAAAwYIAAAAAAAACBQAAAGgAACAAADASAmAIyBoAABgCIAqBSAAACCAAkIAAIiAEGiMgNJzaGNRqCeWOl4BULuQfK7LzOIQABCAAIQABCAAIQABCAAAAAAAAAAA==

> <PUBCHEM_IUPAC_OPENEYE_NAME>
5-hydroxy-2-(4-hydroxyphenyl)-6,7-dimethoxy-chromen-4-one

> <PUBCHEM_IUPAC_CAS_NAME>
5-hydroxy-2-(4-hydroxyphenyl)-6,7-dimethoxy-1-benzopyran-4-one

> <PUBCHEM_IUPAC_NAME>
5-hydroxy-2-(4-hydroxyphenyl)-6,7-dimethoxychromen-4-one

> <PUBCHEM_IUPAC_SYSTEMATIC_NAME>
2-(4-hydroxyphenyl)-6,7-dimethoxy-5-oxidanyl-chromen-4-one

> <PUBCHEM_IUPAC_TRADITIONAL_NAME>
5-hydroxy-2-(4-hydroxyphenyl)-6,7-dimethoxy-chromone

> <PUBCHEM_IUPAC_INCHI>
InChI=1S/C17H14O6/c1-21-14-8-13-15(16(20)17(14)22-2)11(19)7-12(23-13)9-3-5-10(18)6-4-9/h3-8,18,20H,1-2H3

> <PUBCHEM_IUPAC_INCHIKEY>
ZIIAJIWLQUVGHB-UHFFFAOYSA-N

> <PUBCHEM_XLOGP3>
2

> <PUBCHEM_EXACT_MASS>
314.079038

> <PUBCHEM_MOLECULAR_FORMULA>
C17H14O6

> <PUBCHEM_MOLECULAR_WEIGHT>
314.28946

> <PUBCHEM_OPENEYE_CAN_SMILES>
COC1=C(C(=C2C(=C1)OC(=CC2=O)C3=CC=C(C=C3)O)O)OC

> <PUBCHEM_OPENEYE_ISO_SMILES>
COC1=C(C(=C2C(=C1)OC(=CC2=O)C3=CC=C(C=C3)O)O)OC

> <PUBCHEM_CACTVS_TPSA>
85.2

> <PUBCHEM_MONOISOTOPIC_WEIGHT>
314.079038

> <PUBCHEM_TOTAL_CHARGE>
0

> <PUBCHEM_HEAVY_ATOM_COUNT>
23

> <PUBCHEM_ATOM_DEF_STEREO_COUNT>
0

> <PUBCHEM_ATOM_UDEF_STEREO_COUNT>
0

> <PUBCHEM_BOND_DEF_STEREO_COUNT>
0

> <PUBCHEM_BOND_UDEF_STEREO_COUNT>
0

> <PUBCHEM_ISOTOPIC_ATOM_COUNT>
0

> <PUBCHEM_COMPONENT_COUNT>
1

> <PUBCHEM_CACTVS_TAUTO_COUNT>
24

> <PUBCHEM_COORDINATE_TYPE>
1
5
255

> <PUBCHEM_BONDANNOTATIONS>
1  10  8
1  8  8
10  15  8
11  15  8
12  14  8
13  14  8
16  17  8
16  18  8
17  19  8
18  20  8
19  21  8
20  21  8
7  11  8
7  8  8
7  9  8
8  12  8
9  13  8

$$$$

