443400
  -OEChem-07051213023D

 30 30  0     1  0  0  0  0  0999 V2000
    2.9797   -2.5019   -0.5710 Cl  0  0  0  0  0  0  0  0  0  0  0  0
    4.9701   -0.2977    0.7124 Cl  0  0  0  0  0  0  0  0  0  0  0  0
   -0.9689    0.9847   -1.8693 O   0  0  0  0  0  0  0  0  0  0  0  0
   -3.1127    0.4978   -0.0103 N   0  0  0  0  0  0  0  0  0  0  0  0
   -1.7326    0.1393    0.2773 C   0  0  0  0  0  0  0  0  0  0  0  0
   -0.7622    1.0703   -0.4599 C   0  0  1  0  0  0  0  0  0  0  0  0
   -4.0361   -0.3925    0.6918 C   0  0  0  0  0  0  0  0  0  0  0  0
    0.6785    0.7103   -0.1706 C   0  0  0  0  0  0  0  0  0  0  0  0
   -3.8053   -1.8388    0.2630 C   0  0  0  0  0  0  0  0  0  0  0  0
   -5.4714    0.0402    0.4101 C   0  0  0  0  0  0  0  0  0  0  0  0
    1.1279   -0.5665   -0.4603 C   0  0  0  0  0  0  0  0  0  0  0  0
    1.5167    1.6658    0.3777 C   0  0  0  0  0  0  0  0  0  0  0  0
    2.4563   -0.8980   -0.1937 C   0  0  0  0  0  0  0  0  0  0  0  0
    2.8450    1.3344    0.6444 C   0  0  0  0  0  0  0  0  0  0  0  0
    3.3148    0.0525    0.3586 C   0  0  0  0  0  0  0  0  0  0  0  0
   -1.5371    0.1809    1.3563 H   0  0  0  0  0  0  0  0  0  0  0  0
   -1.5395   -0.8792   -0.0675 H   0  0  0  0  0  0  0  0  0  0  0  0
   -0.9550    2.1104   -0.1681 H   0  0  0  0  0  0  0  0  0  0  0  0
   -3.8762   -0.3142    1.7748 H   0  0  0  0  0  0  0  0  0  0  0  0
   -3.2838    1.4630    0.2706 H   0  0  0  0  0  0  0  0  0  0  0  0
   -4.6306   -2.4729    0.6080 H   0  0  0  0  0  0  0  0  0  0  0  0
   -3.7560   -1.9388   -0.8274 H   0  0  0  0  0  0  0  0  0  0  0  0
   -2.8959   -2.2652    0.6982 H   0  0  0  0  0  0  0  0  0  0  0  0
   -5.6428    1.0728    0.7341 H   0  0  0  0  0  0  0  0  0  0  0  0
   -6.1815   -0.5965    0.9488 H   0  0  0  0  0  0  0  0  0  0  0  0
   -5.7071   -0.0230   -0.6584 H   0  0  0  0  0  0  0  0  0  0  0  0
    0.4678   -1.3045   -0.9078 H   0  0  0  0  0  0  0  0  0  0  0  0
    1.1626    2.6672    0.6046 H   0  0  0  0  0  0  0  0  0  0  0  0
   -1.9069    1.1785   -2.0371 H   0  0  0  0  0  0  0  0  0  0  0  0
    3.5003    2.0874    1.0751 H   0  0  0  0  0  0  0  0  0  0  0  0
  1 13  1  0  0  0  0
  2 15  1  0  0  0  0
  3  6  1  0  0  0  0
  3 29  1  0  0  0  0
  4  5  1  0  0  0  0
  4  7  1  0  0  0  0
  4 20  1  0  0  0  0
  5  6  1  0  0  0  0
  5 16  1  0  0  0  0
  5 17  1  0  0  0  0
  6  8  1  0  0  0  0
  6 18  1  0  0  0  0
  7  9  1  0  0  0  0
  7 10  1  0  0  0  0
  7 19  1  0  0  0  0
  8 11  2  0  0  0  0
  8 12  1  0  0  0  0
  9 21  1  0  0  0  0
  9 22  1  0  0  0  0
  9 23  1  0  0  0  0
 10 24  1  0  0  0  0
 10 25  1  0  0  0  0
 10 26  1  0  0  0  0
 11 13  1  0  0  0  0
 11 27  1  0  0  0  0
 12 14  2  0  0  0  0
 12 28  1  0  0  0  0
 13 15  2  0  0  0  0
 14 15  1  0  0  0  0
 14 30  1  0  0  0  0
M  END
> <PUBCHEM_COMPOUND_CID>
443400

> <PUBCHEM_CONFORMER_RMSD>
0.6

> <PUBCHEM_CONFORMER_DIVERSEORDER>
1
17
38
36
12
27
10
35
5
3
37
8
39
26
16
9
18
25
14
2
19
30
6
13
7
40
15
24
20
41
31
22
11
28
4
21
34
29
32
23
33

> <PUBCHEM_MMFF94_PARTIAL_CHARGES>
18
1 -0.18
11 -0.15
12 -0.15
13 0.18
14 -0.15
15 0.18
2 -0.18
20 0.36
27 0.15
28 0.15
29 0.4
3 -0.68
30 0.15
4 -0.9
5 0.27
6 0.42
7 0.27
8 -0.14

> <PUBCHEM_EFFECTIVE_ROTOR_COUNT>
4

> <PUBCHEM_PHARMACOPHORE_FEATURES>
6
1 3 acceptor
1 3 donor
1 4 cation
1 4 donor
3 7 9 10 hydrophobe
6 8 11 12 13 14 15 rings

> <PUBCHEM_HEAVY_ATOM_COUNT>
15

> <PUBCHEM_ATOM_DEF_STEREO_COUNT>
1

> <PUBCHEM_ATOM_UDEF_STEREO_COUNT>
0

> <PUBCHEM_BOND_DEF_STEREO_COUNT>
0

> <PUBCHEM_BOND_UDEF_STEREO_COUNT>
0

> <PUBCHEM_ISOTOPIC_ATOM_COUNT>
0

> <PUBCHEM_COMPONENT_COUNT>
1

> <PUBCHEM_CACTVS_TAUTO_COUNT>
1

> <PUBCHEM_CONFORMER_ID>
0006C40800000001

> <PUBCHEM_MMFF94_ENERGY>
24.7645

> <PUBCHEM_FEATURE_SELFOVERLAP>
30.448

> <PUBCHEM_SHAPE_FINGERPRINT>
11543360 7 11455882530218592489
12236239 1 16732988621535309205
12251169 10 18186520994732781551
12507560 40 17822289153586062201
12596602 18 16588310449173057563
12670543 26 9943537357772036040
13533116 47 18186798102392702411
13675066 3 17531250573519104528
14115302 16 14836399216257779536
14252887 29 18335418002181098626
14386348 63 18201718461769154579
14911166 2 10591759913836605520
14993402 34 13326856651748091752
15048467 5 4895545308543070802
15375462 189 17676778634068054160
15422964 175 18336829809407500340
15501101 241 18412824655431286517
16945 1 18115890606154776844
17834074 16 18411135848636681499
1813 80 17489579078499609765
18186145 218 11383831584373248845
19050596 39 18187645765268992681
19141452 34 18413106144094680723
20281475 54 18341323482964510141
20374829 77 17918276454603760947
20432913 95 18408879642397443531
20645477 70 18409450297627870583
20871998 22 18337105782467801244
21065199 12 18335136475743856345
21119208 17 12823296797035743825
21637258 2 16414936226807277426
21673915 165 18263366884732852487
22224240 67 18187657868882614914
22485316 2 18411981360488750107
23402539 116 16343709858452700860
23557571 272 17775290498976240676
23559900 14 18409731720832884761
26918003 58 18334858307802227881
2748010 2 17755597271608980964
276578 36 14707200028630820236
31174 14 18408045121588127220
33824 294 18409730668645115818
4047638 21 6844206432912418152
42 15 18410853248694875137
9709674 26 18340198592855608251

> <PUBCHEM_SHAPE_MULTIPOLES>
301.58
10.02
1.89
0.97
8.14
0.92
-0.29
2.82
3.09
-1.14
-0.16
0.04
-0.14
0.75

> <PUBCHEM_SHAPE_SELFOVERLAP>
591.625

> <PUBCHEM_SHAPE_VOLUME>
184.1

> <PUBCHEM_COORDINATE_TYPE>
2
5
10

$$$$

