60746
  -OEChem-07051212542D

 43 44  0     1  0  0  0  0  0999 V2000
    0.0000    4.0691    0.0000 Cl  0  0  0  0  0  0  0  0  0  0  0  0
    4.3120    4.2818    0.0000 O   0  0  0  0  0  0  0  0  0  0  0  0
    0.8660    5.5691    0.0000 O   0  0  0  0  0  0  0  0  0  0  0  0
    5.5393    3.0786    0.0000 O   0  0  0  0  0  0  0  0  0  0  0  0
    2.5981    5.5691    0.0000 O   0  0  0  0  0  0  0  0  0  0  0  0
    4.7413    8.1910    0.0000 O   0  0  0  0  0  0  0  0  0  0  0  0
    2.5981    3.5691    0.0000 N   0  0  0  0  0  0  0  0  0  0  0  0
    4.3120    1.8564    0.0000 N   0  0  0  0  0  0  0  0  0  0  0  0
    5.7233    0.4393    0.0000 N   0  0  0  0  0  0  0  0  0  0  0  0
    2.5981    2.5691    0.0000 C   0  0  3  0  0  0  0  0  0  0  0  0
    3.6064    2.5650    0.0000 C   0  0  3  0  0  0  0  0  0  0  0  0
    1.7320    2.0691    0.0000 C   0  0  0  0  0  0  0  0  0  0  0  0
    3.6064    3.5733    0.0000 C   0  0  0  0  0  0  0  0  0  0  0  0
    0.8660    2.5691    0.0000 C   0  0  0  0  0  0  0  0  0  0  0  0
    1.7320    4.0691    0.0000 C   0  0  0  0  0  0  0  0  0  0  0  0
    0.8660    3.5691    0.0000 C   0  0  0  0  0  0  0  0  0  0  0  0
    5.2785    2.1133    0.0000 C   0  0  0  0  0  0  0  0  0  0  0  0
    1.7320    5.0691    0.0000 C   0  0  0  0  0  0  0  0  0  0  0  0
    5.9841    1.4047    0.0000 C   0  0  1  0  0  0  0  0  0  0  0  0
    6.9506    1.6615    0.0000 C   0  0  0  0  0  0  0  0  0  0  0  0
    7.6562    0.9530    0.0000 C   0  0  0  0  0  0  0  0  0  0  0  0
    7.2114    2.6269    0.0000 C   0  0  0  0  0  0  0  0  0  0  0  0
    8.6227    1.2098    0.0000 C   0  0  0  0  0  0  0  0  0  0  0  0
    8.1778    2.8838    0.0000 C   0  0  0  0  0  0  0  0  0  0  0  0
    8.8835    2.1752    0.0000 C   0  0  0  0  0  0  0  0  0  0  0  0
    2.7573    1.9699    0.0000 H   0  0  0  0  0  0  0  0  0  0  0  0
    3.3673    1.9929    0.0000 H   0  0  0  0  0  0  0  0  0  0  0  0
    1.3335    1.5942    0.0000 H   0  0  0  0  0  0  0  0  0  0  0  0
    2.1306    1.5942    0.0000 H   0  0  0  0  0  0  0  0  0  0  0  0
    0.2554    2.6768    0.0000 H   0  0  0  0  0  0  0  0  0  0  0  0
    0.6540    1.9865    0.0000 H   0  0  0  0  0  0  0  0  0  0  0  0
    4.1503    1.2579    0.0000 H   0  0  0  0  0  0  0  0  0  0  0  0
    5.3849    1.2455    0.0000 H   0  0  0  0  0  0  0  0  0  0  0  0
    6.1608    0.0000    0.0000 H   0  0  0  0  0  0  0  0  0  0  0  0
    5.1241    0.2801    0.0000 H   0  0  0  0  0  0  0  0  0  0  0  0
    0.8660    6.1891    0.0000 H   0  0  0  0  0  0  0  0  0  0  0  0
    7.4945    0.3544    0.0000 H   0  0  0  0  0  0  0  0  0  0  0  0
    6.7739    3.0662    0.0000 H   0  0  0  0  0  0  0  0  0  0  0  0
    9.0602    0.7705    0.0000 H   0  0  0  0  0  0  0  0  0  0  0  0
    8.3395    3.4823    0.0000 H   0  0  0  0  0  0  0  0  0  0  0  0
    9.4827    2.3344    0.0000 H   0  0  0  0  0  0  0  0  0  0  0  0
    5.2783    8.5010    0.0000 H   0  0  0  0  0  0  0  0  0  0  0  0
    4.2044    8.5010    0.0000 H   0  0  0  0  0  0  0  0  0  0  0  0
  1 16  1  0  0  0  0
  2 13  2  0  0  0  0
  3 18  1  0  0  0  0
  3 36  1  0  0  0  0
  4 17  2  0  0  0  0
  5 18  2  0  0  0  0
  6 42  1  0  0  0  0
  6 43  1  0  0  0  0
  7 10  1  0  0  0  0
  7 13  1  0  0  0  0
  7 15  1  0  0  0  0
  8 11  1  0  0  0  0
  8 17  1  0  0  0  0
  8 32  1  0  0  0  0
 19  9  1  1  0  0  0
  9 34  1  0  0  0  0
  9 35  1  0  0  0  0
 10 11  1  0  0  0  0
 10 12  1  0  0  0  0
 10 26  1  0  0  0  0
 11 13  1  0  0  0  0
 11 27  1  0  0  0  0
 12 14  1  0  0  0  0
 12 28  1  0  0  0  0
 12 29  1  0  0  0  0
 14 16  1  0  0  0  0
 14 30  1  0  0  0  0
 14 31  1  0  0  0  0
 15 16  2  0  0  0  0
 15 18  1  0  0  0  0
 17 19  1  0  0  0  0
 19 20  1  0  0  0  0
 19 33  1  0  0  0  0
 20 21  2  0  0  0  0
 20 22  1  0  0  0  0
 21 23  1  0  0  0  0
 21 37  1  0  0  0  0
 22 24  2  0  0  0  0
 22 38  1  0  0  0  0
 23 25  2  0  0  0  0
 23 39  1  0  0  0  0
 24 25  1  0  0  0  0
 24 40  1  0  0  0  0
 25 41  1  0  0  0  0
M  END
> <PUBCHEM_COMPOUND_CID>
60746

> <PUBCHEM_COMPOUND_CANONICALIZED>
1

> <PUBCHEM_CACTVS_COMPLEXITY>
600

> <PUBCHEM_CACTVS_HBOND_ACCEPTOR>
6

> <PUBCHEM_CACTVS_HBOND_DONOR>
4

> <PUBCHEM_CACTVS_ROTATABLE_BOND>
4

> <PUBCHEM_CACTVS_SUBSKEYS>
AAADceB7OAAEAAAAAAAAAAAAAABYAAAAAAAwQAAAAAAQAAABAAAAHgIQCAAADCrBmAQwCIPAAgCIAiXSWACCAAAgAAAIiIGIBsgKZDqBlTGUMABglgCYmQcYiICOAAAAAAAAAAAAAAAAAAAAAAAAAAAAAA==

> <PUBCHEM_IUPAC_OPENEYE_NAME>
7-[[(2R)-2-amino-2-phenyl-acetyl]amino]-3-chloro-8-oxo-1-azabicyclo[4.2.0]oct-2-ene-2-carboxylic acid hydrate

> <PUBCHEM_IUPAC_CAS_NAME>
7-[[(2R)-2-amino-1-oxo-2-phenylethyl]amino]-3-chloro-8-oxo-1-azabicyclo[4.2.0]oct-2-ene-2-carboxylic acid hydrate

> <PUBCHEM_IUPAC_NAME>
7-[[(2R)-2-amino-2-phenylacetyl]amino]-3-chloro-8-oxo-1-azabicyclo[4.2.0]oct-2-ene-2-carboxylic acid hydrate

> <PUBCHEM_IUPAC_SYSTEMATIC_NAME>
7-[[(2R)-2-azanyl-2-phenyl-ethanoyl]amino]-3-chloranyl-8-oxidanylidene-1-azabicyclo[4.2.0]oct-2-ene-2-carboxylic acid hydrate

> <PUBCHEM_IUPAC_TRADITIONAL_NAME>
7-[[(2R)-2-amino-2-phenyl-acetyl]amino]-3-chloro-8-keto-1-azabicyclo[4.2.0]oct-2-ene-2-carboxylic acid hydrate

> <PUBCHEM_IUPAC_INCHI>
InChI=1S/C16H16ClN3O4.H2O/c17-9-6-7-10-12(15(22)20(10)13(9)16(23)24)19-14(21)11(18)8-4-2-1-3-5-8;/h1-5,10-12H,6-7,18H2,(H,19,21)(H,23,24);1H2/t10?,11-,12?;/m1./s1

> <PUBCHEM_IUPAC_INCHIKEY>
GPYKKBAAPVOCIW-HZKXUOCSSA-N

> <PUBCHEM_EXACT_MASS>
367.093498

> <PUBCHEM_MOLECULAR_FORMULA>
C16H18ClN3O5

> <PUBCHEM_MOLECULAR_WEIGHT>
367.78422

> <PUBCHEM_OPENEYE_CAN_SMILES>
C1CC(=C(N2C1C(C2=O)NC(=O)C(C3=CC=CC=C3)N)C(=O)O)Cl.O

> <PUBCHEM_OPENEYE_ISO_SMILES>
C1CC(=C(N2C1C(C2=O)NC(=O)[C@@H](C3=CC=CC=C3)N)C(=O)O)Cl.O

> <PUBCHEM_CACTVS_TPSA>
114

> <PUBCHEM_MONOISOTOPIC_WEIGHT>
367.093498

> <PUBCHEM_TOTAL_CHARGE>
0

> <PUBCHEM_HEAVY_ATOM_COUNT>
25

> <PUBCHEM_ATOM_DEF_STEREO_COUNT>
1

> <PUBCHEM_ATOM_UDEF_STEREO_COUNT>
2

> <PUBCHEM_BOND_DEF_STEREO_COUNT>
0

> <PUBCHEM_BOND_UDEF_STEREO_COUNT>
0

> <PUBCHEM_ISOTOPIC_ATOM_COUNT>
0

> <PUBCHEM_COMPONENT_COUNT>
2

> <PUBCHEM_CACTVS_TAUTO_COUNT>
4

> <PUBCHEM_COORDINATE_TYPE>
1
5
255

> <PUBCHEM_BONDANNOTATIONS>
10  12  3
20  21  8
20  22  8
21  23  8
22  24  8
23  25  8
24  25  8
11  8  3
19  9  5

$$$$

