3036928
  -OEChem-07051213112D

 54 54  0     1  0  0  0  0  0999 V2000
    8.5991    4.8877    0.0000 Cl  0  0  0  0  0  0  0  0  0  0  0  0
    2.5981    6.6200    0.0000 S   0  0  0  0  0  0  0  0  0  0  0  0
    2.5981    5.6200    0.0000 S   0  0  0  0  0  0  0  0  0  0  0  0
    4.2731    8.7078    0.0000 O   0  0  0  0  0  0  0  0  0  0  0  0
    0.0000    7.1200    0.0000 O   0  0  0  0  0  0  0  0  0  0  0  0
    3.4641    5.1200    0.0000 O   0  0  0  0  0  0  0  0  0  0  0  0
    2.5981    3.6200    0.0000 N   0  0  0  0  0  0  0  0  0  0  0  0
    4.3301    0.6200    0.0000 N   0  0  0  0  0  0  0  0  0  0  0  0
    5.1962    2.1200    0.0000 N   0  0  0  0  0  0  0  0  0  0  0  0
    2.5981    0.6200    0.0000 N   0  0  0  0  0  0  0  0  0  0  0  0
    3.4641    8.1200    0.0000 C   0  0  3  0  0  0  0  0  0  0  0  0
    2.6551    8.7078    0.0000 C   0  0  0  0  0  0  0  0  0  0  0  0
    2.9641    9.6588    0.0000 C   0  0  0  0  0  0  0  0  0  0  0  0
    3.9641    9.6588    0.0000 C   0  0  0  0  0  0  0  0  0  0  0  0
    3.4641    7.1200    0.0000 C   0  0  0  0  0  0  0  0  0  0  0  0
    1.7320    5.1200    0.0000 C   0  0  0  0  0  0  0  0  0  0  0  0
    1.7320    4.1200    0.0000 C   0  0  0  0  0  0  0  0  0  0  0  0
    0.8660    5.6200    0.0000 C   0  0  0  0  0  0  0  0  0  0  0  0
    2.5981    2.6200    0.0000 C   0  0  0  0  0  0  0  0  0  0  0  0
    3.4641    2.1200    0.0000 C   0  0  0  0  0  0  0  0  0  0  0  0
    0.8660    3.6200    0.0000 C   0  0  0  0  0  0  0  0  0  0  0  0
    0.8660    6.6200    0.0000 C   0  0  0  0  0  0  0  0  0  0  0  0
    3.4641    4.1200    0.0000 C   0  0  0  0  0  0  0  0  0  0  0  0
    3.4641    1.1200    0.0000 C   0  0  0  0  0  0  0  0  0  0  0  0
    4.3301    2.6200    0.0000 C   0  0  0  0  0  0  0  0  0  0  0  0
    5.1962    1.1200    0.0000 C   0  0  0  0  0  0  0  0  0  0  0  0
    6.0622    0.6200    0.0000 C   0  0  0  0  0  0  0  0  0  0  0  0
    4.2215    7.7341    0.0000 H   0  0  0  0  0  0  0  0  0  0  0  0
    2.0887    8.9600    0.0000 H   0  0  0  0  0  0  0  0  0  0  0  0
    2.3451    8.1708    0.0000 H   0  0  0  0  0  0  0  0  0  0  0  0
    3.0289   10.2754    0.0000 H   0  0  0  0  0  0  0  0  0  0  0  0
    2.3576    9.7878    0.0000 H   0  0  0  0  0  0  0  0  0  0  0  0
    4.5706    9.7878    0.0000 H   0  0  0  0  0  0  0  0  0  0  0  0
    3.8993   10.2754    0.0000 H   0  0  0  0  0  0  0  0  0  0  0  0
    3.6762    6.5374    0.0000 H   0  0  0  0  0  0  0  0  0  0  0  0
    4.0747    7.2277    0.0000 H   0  0  0  0  0  0  0  0  0  0  0  0
    0.2554    5.7277    0.0000 H   0  0  0  0  0  0  0  0  0  0  0  0
    0.6540    5.0374    0.0000 H   0  0  0  0  0  0  0  0  0  0  0  0
    1.9875    2.7277    0.0000 H   0  0  0  0  0  0  0  0  0  0  0  0
    2.3860    2.0374    0.0000 H   0  0  0  0  0  0  0  0  0  0  0  0
    0.5560    4.1569    0.0000 H   0  0  0  0  0  0  0  0  0  0  0  0
    0.3291    3.3100    0.0000 H   0  0  0  0  0  0  0  0  0  0  0  0
    1.1760    3.0831    0.0000 H   0  0  0  0  0  0  0  0  0  0  0  0
    1.4766    6.5123    0.0000 H   0  0  0  0  0  0  0  0  0  0  0  0
    1.0781    7.2026    0.0000 H   0  0  0  0  0  0  0  0  0  0  0  0
    4.0010    3.8100    0.0000 H   0  0  0  0  0  0  0  0  0  0  0  0
    4.3301    3.2400    0.0000 H   0  0  0  0  0  0  0  0  0  0  0  0
    0.0000    7.7400    0.0000 H   0  0  0  0  0  0  0  0  0  0  0  0
    2.5981    0.0000    0.0000 H   0  0  0  0  0  0  0  0  0  0  0  0
    2.0611    0.9300    0.0000 H   0  0  0  0  0  0  0  0  0  0  0  0
    5.7522    0.0831    0.0000 H   0  0  0  0  0  0  0  0  0  0  0  0
    6.5991    0.3100    0.0000 H   0  0  0  0  0  0  0  0  0  0  0  0
    6.3722    1.1569    0.0000 H   0  0  0  0  0  0  0  0  0  0  0  0
    9.5991    4.8877    0.0000 H   0  0  0  0  0  0  0  0  0  0  0  0
  1 54  1  0  0  0  0
  2  3  1  0  0  0  0
  2 15  1  0  0  0  0
  3 16  1  0  0  0  0
  4 11  1  0  0  0  0
  4 14  1  0  0  0  0
  5 22  1  0  0  0  0
  5 48  1  0  0  0  0
  6 23  2  0  0  0  0
  7 17  1  0  0  0  0
  7 19  1  0  0  0  0
  7 23  1  0  0  0  0
  8 24  2  0  0  0  0
  8 26  1  0  0  0  0
  9 25  1  0  0  0  0
  9 26  2  0  0  0  0
 10 24  1  0  0  0  0
 10 49  1  0  0  0  0
 10 50  1  0  0  0  0
 11 12  1  0  0  0  0
 11 15  1  0  0  0  0
 11 28  1  0  0  0  0
 12 13  1  0  0  0  0
 12 29  1  0  0  0  0
 12 30  1  0  0  0  0
 13 14  1  0  0  0  0
 13 31  1  0  0  0  0
 13 32  1  0  0  0  0
 14 33  1  0  0  0  0
 14 34  1  0  0  0  0
 15 35  1  0  0  0  0
 15 36  1  0  0  0  0
 16 17  2  0  0  0  0
 16 18  1  0  0  0  0
 17 21  1  0  0  0  0
 18 22  1  0  0  0  0
 18 37  1  0  0  0  0
 18 38  1  0  0  0  0
 19 20  1  0  0  0  0
 19 39  1  0  0  0  0
 19 40  1  0  0  0  0
 20 24  1  0  0  0  0
 20 25  2  0  0  0  0
 21 41  1  0  0  0  0
 21 42  1  0  0  0  0
 21 43  1  0  0  0  0
 22 44  1  0  0  0  0
 22 45  1  0  0  0  0
 23 46  1  0  0  0  0
 25 47  1  0  0  0  0
 26 27  1  0  0  0  0
 27 51  1  0  0  0  0
 27 52  1  0  0  0  0
 27 53  1  0  0  0  0
M  END
> <PUBCHEM_COMPOUND_CID>
3036928

> <PUBCHEM_COMPOUND_CANONICALIZED>
1

> <PUBCHEM_CACTVS_COMPLEXITY>
481

> <PUBCHEM_CACTVS_HBOND_ACCEPTOR>
8

> <PUBCHEM_CACTVS_HBOND_DONOR>
3

> <PUBCHEM_CACTVS_ROTATABLE_BOND>
9

> <PUBCHEM_CACTVS_SUBSKEYS>
AAADceB7sABkAAAAAAAAAAAAAAAAASAAAAAsAAAAAAAAAAABgAAAHgQQCAAADBzl2wavsJdIFgCoAhZn9ACAgCkxAKABWCA4RBiAGIJASUAGRAgMRgLIACKAAAAAAAAAAAAAAAAAAAAAAAAAAAAAAAAAAA==

> <PUBCHEM_IUPAC_OPENEYE_NAME>
N-[(4-amino-2-methyl-pyrimidin-5-yl)methyl]-N-[(Z)-4-hydroxy-1-methyl-2-(tetrahydrofuran-2-ylmethyldisulfanyl)but-1-enyl]formamide hydrochloride

> <PUBCHEM_IUPAC_CAS_NAME>
N-[(4-amino-2-methyl-5-pyrimidinyl)methyl]-N-[(Z)-5-hydroxy-3-(2-oxolanylmethyldisulfanyl)pent-2-en-2-yl]formamide hydrochloride

> <PUBCHEM_IUPAC_NAME>
N-[(4-amino-2-methylpyrimidin-5-yl)methyl]-N-[(Z)-5-hydroxy-3-(oxolan-2-ylmethyldisulfanyl)pent-2-en-2-yl]formamide hydrochloride

> <PUBCHEM_IUPAC_SYSTEMATIC_NAME>
N-[(4-azanyl-2-methyl-pyrimidin-5-yl)methyl]-N-[(Z)-5-oxidanyl-3-(oxolan-2-ylmethyldisulfanyl)pent-2-en-2-yl]methanamide hydrochloride

> <PUBCHEM_IUPAC_TRADITIONAL_NAME>
N-[(4-amino-2-methyl-pyrimidin-5-yl)methyl]-N-[(Z)-4-hydroxy-1-methyl-2-(tetrahydrofurfuryldisulfanyl)but-1-enyl]formamide hydrochloride

> <PUBCHEM_IUPAC_INCHI>
InChI=1S/C17H26N4O3S2.ClH/c1-12(16(5-6-22)26-25-10-15-4-3-7-24-15)21(11-23)9-14-8-19-13(2)20-17(14)18;/h8,11,15,22H,3-7,9-10H2,1-2H3,(H2,18,19,20);1H/b16-12-;

> <PUBCHEM_IUPAC_INCHIKEY>
OPGOLNDOMSBSCW-PXJKFVASSA-N

> <PUBCHEM_EXACT_MASS>
434.12131

> <PUBCHEM_MOLECULAR_FORMULA>
C17H27ClN4O3S2

> <PUBCHEM_MOLECULAR_WEIGHT>
435.00428

> <PUBCHEM_OPENEYE_CAN_SMILES>
CC1=NC=C(C(=N1)N)CN(C=O)C(=C(CCO)SSCC2CCCO2)C.Cl

> <PUBCHEM_OPENEYE_ISO_SMILES>
CC1=NC=C(C(=N1)N)CN(C=O)/C(=C(/CCO)\SSCC2CCCO2)/C.Cl

> <PUBCHEM_CACTVS_TPSA>
152

> <PUBCHEM_MONOISOTOPIC_WEIGHT>
434.12131

> <PUBCHEM_TOTAL_CHARGE>
0

> <PUBCHEM_HEAVY_ATOM_COUNT>
27

> <PUBCHEM_ATOM_DEF_STEREO_COUNT>
0

> <PUBCHEM_ATOM_UDEF_STEREO_COUNT>
1

> <PUBCHEM_BOND_DEF_STEREO_COUNT>
1

> <PUBCHEM_BOND_UDEF_STEREO_COUNT>
0

> <PUBCHEM_ISOTOPIC_ATOM_COUNT>
0

> <PUBCHEM_COMPONENT_COUNT>
2

> <PUBCHEM_CACTVS_TAUTO_COUNT>
3

> <PUBCHEM_COORDINATE_TYPE>
1
5
255

> <PUBCHEM_BONDANNOTATIONS>
11  28  3
20  24  8
20  25  8
8  24  8
8  26  8
9  25  8
9  26  8

$$$$

