443343
  -OEChem-07051213023D

 73 75  0     1  0  0  0  0  0999 V2000
   -1.7798   -1.0236   -1.2086 O   0  0  0  0  0  0  0  0  0  0  0  0
   -0.7618    0.0393    0.6368 O   0  0  0  0  0  0  0  0  0  0  0  0
   -6.1902   -2.5607    0.9654 O   0  0  0  0  0  0  0  0  0  0  0  0
    1.1802   -1.1879    0.2285 O   0  0  0  0  0  0  0  0  0  0  0  0
    0.6481    2.4226    0.0533 O   0  0  0  0  0  0  0  0  0  0  0  0
    3.5300    2.1591    0.6063 O   0  0  0  0  0  0  0  0  0  0  0  0
   -4.7769    2.4575   -0.5511 O   0  0  0  0  0  0  0  0  0  0  0  0
    4.5930   -0.2074   -0.6687 O   0  0  0  0  0  0  0  0  0  0  0  0
   -4.7224    1.5491   -2.6798 O   0  0  0  0  0  0  0  0  0  0  0  0
    2.0931   -3.6215   -0.6660 O   0  0  0  0  0  0  0  0  0  0  0  0
   -0.6152    2.4080    1.9874 O   0  0  0  0  0  0  0  0  0  0  0  0
    2.9551    3.7934   -0.9219 O   0  0  0  0  0  0  0  0  0  0  0  0
    5.7439    0.5899    1.1690 O   0  0  0  0  0  0  0  0  0  0  0  0
    3.4940   -5.3308    0.0076 O   0  0  0  0  0  0  0  0  0  0  0  0
   -2.8926   -1.0101    1.0075 C   0  0  1  0  0  0  0  0  0  0  0  0
   -3.8045    0.1654    0.5793 C   0  0  2  0  0  0  0  0  0  0  0  0
   -3.7876   -2.2467    0.8329 C   0  0  2  0  0  0  0  0  0  0  0  0
   -5.1148   -1.7489    1.4013 C   0  0  1  0  0  0  0  0  0  0  0  0
   -5.2407   -0.3212    0.8700 C   0  0  0  0  0  0  0  0  0  0  0  0
   -1.5831   -1.0514    0.2113 C   0  0  1  0  0  0  0  0  0  0  0  0
   -3.5991    0.5146   -0.8671 C   0  0  0  0  0  0  0  0  0  0  0  0
   -3.2746   -3.4846    1.5580 C   0  0  0  0  0  0  0  0  0  0  0  0
   -2.6810   -0.0827   -1.6353 C   0  0  0  0  0  0  0  0  0  0  0  0
    0.4950    0.0332   -0.0396 C   0  0  2  0  0  0  0  0  0  0  0  0
    1.3073    1.2256    0.4657 C   0  0  1  0  0  0  0  0  0  0  0  0
    2.7284    1.2091   -0.0975 C   0  0  2  0  0  0  0  0  0  0  0  0
   -4.4250    1.5483   -1.4953 C   0  0  0  0  0  0  0  0  0  0  0  0
    3.3729   -0.1674    0.0668 C   0  0  1  0  0  0  0  0  0  0  0  0
    2.4393   -1.2684   -0.4417 C   0  0  1  0  0  0  0  0  0  0  0  0
    3.0109   -2.6585   -0.1813 C   0  0  0  0  0  0  0  0  0  0  0  0
   -0.2945    2.9037    0.9157 C   0  0  0  0  0  0  0  0  0  0  0  0
    3.5504    3.4174    0.0788 C   0  0  0  0  0  0  0  0  0  0  0  0
   -5.5928    3.5385   -1.0144 C   0  0  0  0  0  0  0  0  0  0  0  0
    5.7063    0.2012    0.0094 C   0  0  0  0  0  0  0  0  0  0  0  0
   -0.8985    4.1558    0.3559 C   0  0  0  0  0  0  0  0  0  0  0  0
    4.4253    4.3003    0.9163 C   0  0  0  0  0  0  0  0  0  0  0  0
    2.4584   -4.9326   -0.5084 C   0  0  0  0  0  0  0  0  0  0  0  0
    6.9065    0.1055   -0.8830 C   0  0  0  0  0  0  0  0  0  0  0  0
    1.3971   -5.8334   -1.0636 C   0  0  0  0  0  0  0  0  0  0  0  0
   -2.6555   -0.8830    2.0741 H   0  0  0  0  0  0  0  0  0  0  0  0
   -3.5652    1.0414    1.1957 H   0  0  0  0  0  0  0  0  0  0  0  0
   -3.9116   -2.5041   -0.2273 H   0  0  0  0  0  0  0  0  0  0  0  0
   -5.0995   -1.7476    2.4981 H   0  0  0  0  0  0  0  0  0  0  0  0
   -5.7161    0.3159    1.6252 H   0  0  0  0  0  0  0  0  0  0  0  0
   -5.8890   -0.2885   -0.0141 H   0  0  0  0  0  0  0  0  0  0  0  0
   -1.0684   -1.9887    0.4480 H   0  0  0  0  0  0  0  0  0  0  0  0
   -2.3310   -3.8307    1.1253 H   0  0  0  0  0  0  0  0  0  0  0  0
   -3.9959   -4.3049    1.4812 H   0  0  0  0  0  0  0  0  0  0  0  0
   -3.1050   -3.2843    2.6213 H   0  0  0  0  0  0  0  0  0  0  0  0
   -2.5450    0.0982   -2.6932 H   0  0  0  0  0  0  0  0  0  0  0  0
    0.3256    0.1415   -1.1188 H   0  0  0  0  0  0  0  0  0  0  0  0
   -7.0118   -2.1548    1.2905 H   0  0  0  0  0  0  0  0  0  0  0  0
    1.3826    1.1952    1.5619 H   0  0  0  0  0  0  0  0  0  0  0  0
    2.7169    1.4565   -1.1682 H   0  0  0  0  0  0  0  0  0  0  0  0
    3.5606   -0.3464    1.1354 H   0  0  0  0  0  0  0  0  0  0  0  0
    2.2678   -1.1692   -1.5223 H   0  0  0  0  0  0  0  0  0  0  0  0
    3.9748   -2.7810   -0.6882 H   0  0  0  0  0  0  0  0  0  0  0  0
    3.1442   -2.8128    0.8965 H   0  0  0  0  0  0  0  0  0  0  0  0
   -5.0605    4.1143   -1.7776 H   0  0  0  0  0  0  0  0  0  0  0  0
   -6.5395    3.1563   -1.4081 H   0  0  0  0  0  0  0  0  0  0  0  0
   -5.8042    4.1929   -0.1646 H   0  0  0  0  0  0  0  0  0  0  0  0
   -1.4005    3.9330   -0.5890 H   0  0  0  0  0  0  0  0  0  0  0  0
   -1.6383    4.5476    1.0597 H   0  0  0  0  0  0  0  0  0  0  0  0
   -0.1212    4.9104    0.2119 H   0  0  0  0  0  0  0  0  0  0  0  0
    5.4458    3.9093    0.9250 H   0  0  0  0  0  0  0  0  0  0  0  0
    4.4412    5.3066    0.4879 H   0  0  0  0  0  0  0  0  0  0  0  0
    4.0265    4.3602    1.9321 H   0  0  0  0  0  0  0  0  0  0  0  0
    7.0518   -0.9306   -1.1986 H   0  0  0  0  0  0  0  0  0  0  0  0
    7.7943    0.4301   -0.3328 H   0  0  0  0  0  0  0  0  0  0  0  0
    6.7759    0.7582   -1.7498 H   0  0  0  0  0  0  0  0  0  0  0  0
    1.6959   -6.8761   -0.9233 H   0  0  0  0  0  0  0  0  0  0  0  0
    0.4559   -5.6664   -0.5338 H   0  0  0  0  0  0  0  0  0  0  0  0
    1.2755   -5.6460   -2.1333 H   0  0  0  0  0  0  0  0  0  0  0  0
  1 20  1  0  0  0  0
  1 23  1  0  0  0  0
  2 20  1  0  0  0  0
  2 24  1  0  0  0  0
  3 18  1  0  0  0  0
  3 52  1  0  0  0  0
  4 24  1  0  0  0  0
  4 29  1  0  0  0  0
  5 25  1  0  0  0  0
  5 31  1  0  0  0  0
  6 26  1  0  0  0  0
  6 32  1  0  0  0  0
  7 27  1  0  0  0  0
  7 33  1  0  0  0  0
  8 28  1  0  0  0  0
  8 34  1  0  0  0  0
  9 27  2  0  0  0  0
 10 30  1  0  0  0  0
 10 37  1  0  0  0  0
 11 31  2  0  0  0  0
 12 32  2  0  0  0  0
 13 34  2  0  0  0  0
 14 37  2  0  0  0  0
 15 16  1  0  0  0  0
 15 17  1  0  0  0  0
 15 20  1  0  0  0  0
 15 40  1  0  0  0  0
 16 19  1  0  0  0  0
 16 21  1  0  0  0  0
 16 41  1  0  0  0  0
 17 18  1  0  0  0  0
 17 22  1  0  0  0  0
 17 42  1  0  0  0  0
 18 19  1  0  0  0  0
 18 43  1  0  0  0  0
 19 44  1  0  0  0  0
 19 45  1  0  0  0  0
 20 46  1  0  0  0  0
 21 23  2  0  0  0  0
 21 27  1  0  0  0  0
 22 47  1  0  0  0  0
 22 48  1  0  0  0  0
 22 49  1  0  0  0  0
 23 50  1  0  0  0  0
 24 25  1  0  0  0  0
 24 51  1  0  0  0  0
 25 26  1  0  0  0  0
 25 53  1  0  0  0  0
 26 28  1  0  0  0  0
 26 54  1  0  0  0  0
 28 29  1  0  0  0  0
 28 55  1  0  0  0  0
 29 30  1  0  0  0  0
 29 56  1  0  0  0  0
 30 57  1  0  0  0  0
 30 58  1  0  0  0  0
 31 35  1  0  0  0  0
 32 36  1  0  0  0  0
 33 59  1  0  0  0  0
 33 60  1  0  0  0  0
 33 61  1  0  0  0  0
 34 38  1  0  0  0  0
 35 62  1  0  0  0  0
 35 63  1  0  0  0  0
 35 64  1  0  0  0  0
 36 65  1  0  0  0  0
 36 66  1  0  0  0  0
 36 67  1  0  0  0  0
 37 39  1  0  0  0  0
 38 68  1  0  0  0  0
 38 69  1  0  0  0  0
 38 70  1  0  0  0  0
 39 71  1  0  0  0  0
 39 72  1  0  0  0  0
 39 73  1  0  0  0  0
M  END
> <PUBCHEM_COMPOUND_CID>
443343

> <PUBCHEM_CONFORMER_RMSD>
1.4

> <PUBCHEM_CONFORMER_DIVERSEORDER>
1
15
9
7
17
19
10
13
20
18
16
5
14
6
11
3
21
2
4
12
8

> <PUBCHEM_MMFF94_PARTIAL_CHARGES>
37
1 -0.36
10 -0.43
11 -0.57
12 -0.57
13 -0.57
14 -0.57
16 0.14
18 0.28
2 -0.56
20 0.56
21 -0.12
23 -0.07
24 0.56
25 0.28
26 0.28
27 0.71
28 0.28
29 0.28
3 -0.68
30 0.28
31 0.66
32 0.66
33 0.28
34 0.66
35 0.06
36 0.06
37 0.66
38 0.06
39 0.06
4 -0.56
5 -0.43
50 0.15
52 0.4
6 -0.43
7 -0.43
8 -0.43
9 -0.57

> <PUBCHEM_EFFECTIVE_ROTOR_COUNT>
15.2

> <PUBCHEM_PHARMACOPHORE_FEATURES>
13
1 1 acceptor
1 11 acceptor
1 12 acceptor
1 13 acceptor
1 14 acceptor
1 2 acceptor
1 3 acceptor
1 3 donor
1 4 acceptor
1 9 acceptor
5 15 16 17 18 19 rings
6 1 15 16 20 21 23 rings
6 4 24 25 26 28 29 rings

> <PUBCHEM_HEAVY_ATOM_COUNT>
39

> <PUBCHEM_ATOM_DEF_STEREO_COUNT>
10

> <PUBCHEM_ATOM_UDEF_STEREO_COUNT>
0

> <PUBCHEM_BOND_DEF_STEREO_COUNT>
0

> <PUBCHEM_BOND_UDEF_STEREO_COUNT>
0

> <PUBCHEM_ISOTOPIC_ATOM_COUNT>
0

> <PUBCHEM_COMPONENT_COUNT>
1

> <PUBCHEM_CACTVS_TAUTO_COUNT>
1

> <PUBCHEM_CONFORMER_ID>
0006C3CF00000001

> <PUBCHEM_MMFF94_ENERGY>
93.038

> <PUBCHEM_FEATURE_SELFOVERLAP>
66.233

> <PUBCHEM_SHAPE_FINGERPRINT>
10290309 65 18338515240072863362
10675989 125 17837496615148138663
11135926 11 18337386149490908918
12788726 201 17188979454128661923
13140716 1 18264486183765071458
13583140 156 18409449180978643463
13782708 43 18060137583312558394
13911987 19 18268133285119135854
140371 6 18340197591985329152
15351339 4 17120298456415831243
15815584 197 18334009488851832542
16112460 7 17901381513551022513
17844677 252 18200873972230195609
19319366 153 18188209784458611926
20028762 73 18187635865770873726
20775438 99 17835272264359874524
22311459 1 18338515373877174624
23559900 14 18338802324604072842
3178227 256 18337664236102426690
5265222 85 18198049301821326110
613672 6 17905333170909931966
7399639 24 18197495130370074799

> <PUBCHEM_SHAPE_MULTIPOLES>
720.43
13.77
7.09
1.47
0.47
5.9
0.32
-2.51
0.6
4.74
0.48
-1.86
-0.26
3.88

> <PUBCHEM_SHAPE_SELFOVERLAP>
1501.163

> <PUBCHEM_SHAPE_VOLUME>
402.2

> <PUBCHEM_COORDINATE_TYPE>
2
5
10

$$$$

