5280608
  -OEChem-07051212483D

 16 15  0     0  0  0  0  0  0999 V2000
   -1.0189    1.6326   -0.2700 Cl  0  0  0  0  0  0  0  0  0  0  0  0
    3.7695    0.6167    0.4028 O   0  0  0  0  0  0  0  0  0  0  0  0
   -2.8737   -0.2460   -1.1682 O   0  0  0  0  0  0  0  0  0  0  0  0
    2.7500   -1.3086   -0.2561 O   0  0  0  0  0  0  0  0  0  0  0  0
   -3.0276    0.4721    0.9918 O   0  0  0  0  0  0  0  0  0  0  0  0
    0.2696    0.4772   -0.1190 C   0  0  0  0  0  0  0  0  0  0  0  0
   -0.1730   -0.8656    0.2199 C   0  0  0  0  0  0  0  0  0  0  0  0
    1.5677    0.8075   -0.2383 C   0  0  0  0  0  0  0  0  0  0  0  0
   -1.4555   -1.2358    0.3484 C   0  0  0  0  0  0  0  0  0  0  0  0
    2.7184   -0.1083   -0.0512 C   0  0  0  0  0  0  0  0  0  0  0  0
   -2.5265   -0.2419    0.1399 C   0  0  0  0  0  0  0  0  0  0  0  0
    0.5607   -1.6403    0.4065 H   0  0  0  0  0  0  0  0  0  0  0  0
    1.8288    1.8439   -0.4434 H   0  0  0  0  0  0  0  0  0  0  0  0
   -1.7409   -2.2463    0.6136 H   0  0  0  0  0  0  0  0  0  0  0  0
    4.5642    0.0599    0.5473 H   0  0  0  0  0  0  0  0  0  0  0  0
   -3.5848    0.4017   -1.3614 H   0  0  0  0  0  0  0  0  0  0  0  0
  1  6  1  0  0  0  0
  2 10  1  0  0  0  0
  2 15  1  0  0  0  0
  3 11  1  0  0  0  0
  3 16  1  0  0  0  0
  4 10  2  0  0  0  0
  5 11  2  0  0  0  0
  6  7  1  0  0  0  0
  6  8  2  0  0  0  0
  7  9  2  0  0  0  0
  7 12  1  0  0  0  0
  8 10  1  0  0  0  0
  8 13  1  0  0  0  0
  9 11  1  0  0  0  0
  9 14  1  0  0  0  0
M  END
> <PUBCHEM_COMPOUND_CID>
5280608

> <PUBCHEM_CONFORMER_RMSD>
0.6

> <PUBCHEM_CONFORMER_DIVERSEORDER>
1
2
3

> <PUBCHEM_MMFF94_PARTIAL_CHARGES>
16
1 -0.14
10 0.71
11 0.71
12 0.15
13 0.15
14 0.15
15 0.5
16 0.5
2 -0.65
3 -0.65
4 -0.57
5 -0.57
6 0.14
7 -0.15
8 -0.14
9 -0.14

> <PUBCHEM_EFFECTIVE_ROTOR_COUNT>
3

> <PUBCHEM_PHARMACOPHORE_FEATURES>
6
1 2 acceptor
1 3 acceptor
1 4 acceptor
1 5 acceptor
3 2 4 10 anion
3 3 5 11 anion

> <PUBCHEM_HEAVY_ATOM_COUNT>
11

> <PUBCHEM_ATOM_DEF_STEREO_COUNT>
0

> <PUBCHEM_ATOM_UDEF_STEREO_COUNT>
0

> <PUBCHEM_BOND_DEF_STEREO_COUNT>
2

> <PUBCHEM_BOND_UDEF_STEREO_COUNT>
0

> <PUBCHEM_ISOTOPIC_ATOM_COUNT>
0

> <PUBCHEM_COMPONENT_COUNT>
1

> <PUBCHEM_CACTVS_TAUTO_COUNT>
1

> <PUBCHEM_CONFORMER_ID>
0050936000000001

> <PUBCHEM_MMFF94_ENERGY>
58.1031

> <PUBCHEM_FEATURE_SELFOVERLAP>
30.559

> <PUBCHEM_SHAPE_FINGERPRINT>
11062470 55 17603583019398481154
12932764 1 17168142317053913154
14144814 61 18411135840093966474
14325111 11 18409728486579825928
15775835 57 18040431100842591339
16945 1 18344143695956384372
17844478 74 17560791135289983801
20201158 50 18411703171056558262
20279233 1 18202569470794408942
20653085 51 16415477160046383965
207724 885 18272362053820568521
23402539 116 18113908135012964039
23552423 10 17987794099213606486
2748010 2 18053940654231653154
3248919 1 18412261701335534262
369184 2 17167860867862798003

> <PUBCHEM_SHAPE_MULTIPOLES>
204.77
5.37
1.37
0.8
2.35
0.12
-0.05
-0.2
0.28
-0.05
-0.03
-0.45
0.02
0.09

> <PUBCHEM_SHAPE_SELFOVERLAP>
402.733

> <PUBCHEM_SHAPE_VOLUME>
120.6

> <PUBCHEM_COORDINATE_TYPE>
2
5
10

$$$$

