9548882
  -OEChem-07051213063D

 55 55  0     1  0  0  0  0  0999 V2000
   -4.8142   -0.4571   -1.9872 O   0  0  0  0  0  0  0  0  0  0  0  0
   -4.7713    1.1729    1.6245 O   0  0  0  0  0  0  0  0  0  0  0  0
    1.1258    3.5885    1.2927 O   0  0  0  0  0  0  0  0  0  0  0  0
    2.4391   -5.1122    1.3572 O   0  0  0  0  0  0  0  0  0  0  0  0
    2.1001   -4.6168   -0.8329 O   0  0  0  0  0  0  0  0  0  0  0  0
   -3.0583   -0.3267   -0.3235 C   0  0  1  0  0  0  0  0  0  0  0  0
   -2.6011    0.8047    0.6153 C   0  0  2  0  0  0  0  0  0  0  0  0
   -3.8403    0.4027   -1.4196 C   0  0  2  0  0  0  0  0  0  0  0  0
   -3.8509    1.6950    0.6673 C   0  0  1  0  0  0  0  0  0  0  0  0
   -4.4937    1.6039   -0.7232 C   0  0  0  0  0  0  0  0  0  0  0  0
   -1.9505   -1.2196   -0.8692 C   0  0  0  0  0  0  0  0  0  0  0  0
   -1.4109    1.5863    0.1467 C   0  0  0  0  0  0  0  0  0  0  0  0
   -1.1526   -1.9346    0.2218 C   0  0  0  0  0  0  0  0  0  0  0  0
   -0.0610   -2.8890   -0.2703 C   0  0  0  0  0  0  0  0  0  0  0  0
   -0.2809    1.7225    0.8559 C   0  0  0  0  0  0  0  0  0  0  0  0
    0.9095    2.5084    0.3828 C   0  0  2  0  0  0  0  0  0  0  0  0
    0.6605   -3.6218    0.8603 C   0  0  0  0  0  0  0  0  0  0  0  0
    2.1977    1.6751    0.3433 C   0  0  0  0  0  0  0  0  0  0  0  0
    3.3984    2.4454   -0.2140 C   0  0  0  0  0  0  0  0  0  0  0  0
    4.6665    1.5934   -0.3286 C   0  0  0  0  0  0  0  0  0  0  0  0
    1.7908   -4.4821    0.3427 C   0  0  0  0  0  0  0  0  0  0  0  0
    5.8850    2.3769   -0.8180 C   0  0  0  0  0  0  0  0  0  0  0  0
    7.1122    1.4841   -0.9240 C   0  0  0  0  0  0  0  0  0  0  0  0
   -3.7526   -0.9769    0.2298 H   0  0  0  0  0  0  0  0  0  0  0  0
   -2.4044    0.3833    1.6098 H   0  0  0  0  0  0  0  0  0  0  0  0
   -3.1832    0.7461   -2.2266 H   0  0  0  0  0  0  0  0  0  0  0  0
   -3.6325    2.7298    0.9527 H   0  0  0  0  0  0  0  0  0  0  0  0
   -4.2550    2.5083   -1.2956 H   0  0  0  0  0  0  0  0  0  0  0  0
   -5.5846    1.5177   -0.6789 H   0  0  0  0  0  0  0  0  0  0  0  0
   -2.3976   -1.9752   -1.5278 H   0  0  0  0  0  0  0  0  0  0  0  0
   -1.2619   -0.6427   -1.4986 H   0  0  0  0  0  0  0  0  0  0  0  0
   -1.4776    2.0662   -0.8271 H   0  0  0  0  0  0  0  0  0  0  0  0
   -0.6820   -1.2002    0.8835 H   0  0  0  0  0  0  0  0  0  0  0  0
   -1.8528   -2.5042    0.8466 H   0  0  0  0  0  0  0  0  0  0  0  0
   -5.4213   -0.7362   -1.2808 H   0  0  0  0  0  0  0  0  0  0  0  0
   -5.5534    1.7509    1.6224 H   0  0  0  0  0  0  0  0  0  0  0  0
   -0.5050   -3.6245   -0.9531 H   0  0  0  0  0  0  0  0  0  0  0  0
    0.6660   -2.3184   -0.8622 H   0  0  0  0  0  0  0  0  0  0  0  0
   -0.2047    1.2518    1.8333 H   0  0  0  0  0  0  0  0  0  0  0  0
    0.7212    2.9464   -0.6039 H   0  0  0  0  0  0  0  0  0  0  0  0
   -0.0460   -4.2649    1.3958 H   0  0  0  0  0  0  0  0  0  0  0  0
    1.0834   -2.8932    1.5607 H   0  0  0  0  0  0  0  0  0  0  0  0
    2.0312    0.7817   -0.2722 H   0  0  0  0  0  0  0  0  0  0  0  0
    2.4489    1.3268    1.3538 H   0  0  0  0  0  0  0  0  0  0  0  0
    3.1462    2.8421   -1.2052 H   0  0  0  0  0  0  0  0  0  0  0  0
    3.6075    3.3090    0.4289 H   0  0  0  0  0  0  0  0  0  0  0  0
    4.8921    1.1554    0.6519 H   0  0  0  0  0  0  0  0  0  0  0  0
    4.4736    0.7565   -1.0114 H   0  0  0  0  0  0  0  0  0  0  0  0
    1.3214    3.2142    2.1690 H   0  0  0  0  0  0  0  0  0  0  0  0
    6.0966    3.2028   -0.1291 H   0  0  0  0  0  0  0  0  0  0  0  0
    5.6726    2.8177   -1.7988 H   0  0  0  0  0  0  0  0  0  0  0  0
    7.9722    2.0629   -1.2754 H   0  0  0  0  0  0  0  0  0  0  0  0
    7.3680    1.0517    0.0485 H   0  0  0  0  0  0  0  0  0  0  0  0
    6.9421    0.6656   -1.6306 H   0  0  0  0  0  0  0  0  0  0  0  0
    3.1724   -5.6748    1.0285 H   0  0  0  0  0  0  0  0  0  0  0  0
  1  8  1  0  0  0  0
  1 35  1  0  0  0  0
  2  9  1  0  0  0  0
  2 36  1  0  0  0  0
  3 16  1  0  0  0  0
  3 49  1  0  0  0  0
  4 21  1  0  0  0  0
  4 55  1  0  0  0  0
  5 21  2  0  0  0  0
  6  7  1  0  0  0  0
  6  8  1  0  0  0  0
  6 11  1  0  0  0  0
  6 24  1  0  0  0  0
  7  9  1  0  0  0  0
  7 12  1  0  0  0  0
  7 25  1  0  0  0  0
  8 10  1  0  0  0  0
  8 26  1  0  0  0  0
  9 10  1  0  0  0  0
  9 27  1  0  0  0  0
 10 28  1  0  0  0  0
 10 29  1  0  0  0  0
 11 13  1  0  0  0  0
 11 30  1  0  0  0  0
 11 31  1  0  0  0  0
 12 15  2  0  0  0  0
 12 32  1  0  0  0  0
 13 14  1  0  0  0  0
 13 33  1  0  0  0  0
 13 34  1  0  0  0  0
 14 17  1  0  0  0  0
 14 37  1  0  0  0  0
 14 38  1  0  0  0  0
 15 16  1  0  0  0  0
 15 39  1  0  0  0  0
 16 18  1  0  0  0  0
 16 40  1  0  0  0  0
 17 21  1  0  0  0  0
 17 41  1  0  0  0  0
 17 42  1  0  0  0  0
 18 19  1  0  0  0  0
 18 43  1  0  0  0  0
 18 44  1  0  0  0  0
 19 20  1  0  0  0  0
 19 45  1  0  0  0  0
 19 46  1  0  0  0  0
 20 22  1  0  0  0  0
 20 47  1  0  0  0  0
 20 48  1  0  0  0  0
 22 23  1  0  0  0  0
 22 50  1  0  0  0  0
 22 51  1  0  0  0  0
 23 52  1  0  0  0  0
 23 53  1  0  0  0  0
 23 54  1  0  0  0  0
M  END
> <PUBCHEM_COMPOUND_CID>
9548882

> <PUBCHEM_CONFORMER_RMSD>
1

> <PUBCHEM_CONFORMER_DIVERSEORDER>
1
148
117
345
107
244
157
46
118
160
197
178
111
126
271
344
122
227
113
180
145
315
171
39
190
21
209
154
192
258
185
86
136
75
348
306
182
252
206
289
321
294
311
32
245
308
246
317
147
251
2
204
337
249
202
62
362
50
232
188
67
300
223
56
377
238
259
7
172
125
291
156
262
225
155
119
219
220
121
284
285
299
366
177
23
230
175
19
132
354
84
48
115
99
240
3
339
356
307
290
150
324
98
58
212
187
371
255
70
272
208
373
341
102
347
90
326
331
166
131
195
292
332
279
14
16
278
283
89
28
319
144
71
31
312
108
134
334
286
26
176
265
152
198
368
273
73
109
51
250
143
353
93
269
196
124
69
276
78
179
301
213
231
79
350
369
297
120
257
248
100
270
27
141
287
200
360
173
114
36
129
59
22
275
268
216
277
138
57
222
35
351
303
181
5
9
94
267
239
61
167
346
318
229
42
184
235
25
91
169
133
304
82
65
329
338
215
352
264
104
358
247
295
237
274
164
260
193
33
365
158
323
189
363
162
316
376
38
110
55
357
53
370
106
128
139
96
123
361
43
97
374
87
194
309
211
54
263
224
217
328
168
47
210
364
236
130
4
201
253
322
15
146
135
95
68
205
161
66
221
140
76
52
64
314
174
83
325
24
74
226
254
214
183
12
101
163
256
243
10
80
281
37
105
349
63
359
11
261
170
40
293
333
116
191
242
20
335
137
34
342
44
13
203
207
375
153
30
343
45
367
6
142
280
228
340
88
85
41
330
17
282
327
234
8
218
18
310
60
112
186
313
266
149
288
241
199
151
298
355
336
159
49
302
233
103
320
72
165
372
29
92
296
305
77
81
127

> <PUBCHEM_MMFF94_PARTIAL_CHARGES>
19
1 -0.68
12 -0.29
15 -0.29
16 0.42
17 0.06
2 -0.68
21 0.66
3 -0.68
32 0.15
35 0.4
36 0.4
39 0.15
4 -0.65
49 0.4
5 -0.57
55 0.5
7 0.14
8 0.28
9 0.28

> <PUBCHEM_EFFECTIVE_ROTOR_COUNT>
12

> <PUBCHEM_PHARMACOPHORE_FEATURES>
13
1 1 acceptor
1 1 donor
1 2 acceptor
1 2 donor
1 23 hydrophobe
1 3 acceptor
1 3 donor
1 4 acceptor
1 5 acceptor
3 4 5 21 anion
4 11 13 14 17 hydrophobe
4 18 19 20 22 hydrophobe
5 6 7 8 9 10 rings

> <PUBCHEM_HEAVY_ATOM_COUNT>
23

> <PUBCHEM_ATOM_DEF_STEREO_COUNT>
5

> <PUBCHEM_ATOM_UDEF_STEREO_COUNT>
0

> <PUBCHEM_BOND_DEF_STEREO_COUNT>
1

> <PUBCHEM_BOND_UDEF_STEREO_COUNT>
0

> <PUBCHEM_ISOTOPIC_ATOM_COUNT>
0

> <PUBCHEM_COMPONENT_COUNT>
1

> <PUBCHEM_CACTVS_TAUTO_COUNT>
1

> <PUBCHEM_CONFORMER_ID>
0091B45200000001

> <PUBCHEM_MMFF94_ENERGY>
31.9597

> <PUBCHEM_FEATURE_SELFOVERLAP>
66.025

> <PUBCHEM_SHAPE_FINGERPRINT>
107951 10 18337664209773317486
11315181 36 16878217572215593536
12596602 18 5544928948950505860
13941206 138 18341896234466116310
14251740 79 18117276956593095993
14251757 5 18123745349746004408
14866123 147 18120362164619705507
15322534 239 18408878526133474358
15927050 60 18408316679570130775
15961568 22 17905614659536266578
16719943 64 18339078182296401026
167882 2 18268436913526901709
17627616 140 18339078306449513110
17859628 97 18410006620240824544
20609170 114 17331696644395479184
21360443 120 18413384332904114078
23466295 7 17836352753867276162
23523788 1 17342617203264037091
3383291 50 18191588541010295506
4015057 19 17314795092258098704
5265222 85 18268982099374800356
5282940 2 18336834185815884879
5385378 56 18337940299040724745
9709674 26 17684376052846800960

> <PUBCHEM_SHAPE_MULTIPOLES>
443.98
11.83
6.53
1.32
14.99
12.99
0.14
-11.1
4.87
6.33
-2.01
-1.05
-0.02
-1.38

> <PUBCHEM_SHAPE_SELFOVERLAP>
863.265

> <PUBCHEM_SHAPE_VOLUME>
269.1

> <PUBCHEM_COORDINATE_TYPE>
2
5
10

$$$$

