13878324
  -OEChem-07051213092D

 54 56  0     1  0  0  0  0  0999 V2000
    2.0000    3.5271    0.0000 O   0  0  0  0  0  0  0  0  0  0  0  0
    2.0000    1.5271    0.0000 O   0  0  0  0  0  0  0  0  0  0  0  0
    4.5740   -2.9972    0.0000 O   0  0  0  0  0  0  0  0  0  0  0  0
    6.2944   -4.0172    0.0000 O   0  0  0  0  0  0  0  0  0  0  0  0
    8.0379   -3.0373    0.0000 O   0  0  0  0  0  0  0  0  0  0  0  0
    6.3981    2.0063    0.0000 N   0  0  3  0  0  0  0  0  0  0  0  0
    5.4920    1.4925    0.0000 C   0  0  2  0  0  0  0  0  0  0  0  0
    4.5981    2.0271    0.0000 C   0  0  0  0  0  0  0  0  0  0  0  0
    5.4804    0.4926    0.0000 C   0  0  0  0  0  0  0  0  0  0  0  0
    6.3981    3.0480    0.0000 C   0  0  0  0  0  0  0  0  0  0  0  0
    5.4920    3.5618    0.0000 C   0  0  0  0  0  0  0  0  0  0  0  0
    4.5981    3.0271    0.0000 C   0  0  0  0  0  0  0  0  0  0  0  0
    6.3406   -0.0174    0.0000 C   0  0  0  0  0  0  0  0  0  0  0  0
    7.2622    1.5030    0.0000 C   0  0  0  0  0  0  0  0  0  0  0  0
    3.7320    1.5271    0.0000 C   0  0  0  0  0  0  0  0  0  0  0  0
    3.7320    3.5271    0.0000 C   0  0  0  0  0  0  0  0  0  0  0  0
    6.3291   -1.0174    0.0000 C   0  0  0  0  0  0  0  0  0  0  0  0
    2.8660    2.0271    0.0000 C   0  0  0  0  0  0  0  0  0  0  0  0
    2.8660    3.0271    0.0000 C   0  0  0  0  0  0  0  0  0  0  0  0
    5.4573   -1.5073    0.0000 C   0  0  0  0  0  0  0  0  0  0  0  0
    7.1893   -1.5273    0.0000 C   0  0  0  0  0  0  0  0  0  0  0  0
    5.4458   -2.5072    0.0000 C   0  0  0  0  0  0  0  0  0  0  0  0
    7.1777   -2.5273    0.0000 C   0  0  0  0  0  0  0  0  0  0  0  0
    6.3060   -3.0172    0.0000 C   0  0  0  0  0  0  0  0  0  0  0  0
    2.0000    4.5271    0.0000 C   0  0  0  0  0  0  0  0  0  0  0  0
    4.5624   -3.9971    0.0000 C   0  0  0  0  0  0  0  0  0  0  0  0
    7.1546   -4.5271    0.0000 C   0  0  0  0  0  0  0  0  0  0  0  0
    6.0259    1.1773    0.0000 H   0  0  0  0  0  0  0  0  0  0  0  0
    4.8712    0.6073    0.0000 H   0  0  0  0  0  0  0  0  0  0  0  0
    5.2617   -0.0876    0.0000 H   0  0  0  0  0  0  0  0  0  0  0  0
    7.0089    2.9419    0.0000 H   0  0  0  0  0  0  0  0  0  0  0  0
    6.6071    3.6316    0.0000 H   0  0  0  0  0  0  0  0  0  0  0  0
    5.8856    4.0408    0.0000 H   0  0  0  0  0  0  0  0  0  0  0  0
    5.0874    4.0316    0.0000 H   0  0  0  0  0  0  0  0  0  0  0  0
    6.9499   -0.1321    0.0000 H   0  0  0  0  0  0  0  0  0  0  0  0
    6.5594    0.5627    0.0000 H   0  0  0  0  0  0  0  0  0  0  0  0
    6.9501    0.9673    0.0000 H   0  0  0  0  0  0  0  0  0  0  0  0
    7.7979    1.1909    0.0000 H   0  0  0  0  0  0  0  0  0  0  0  0
    7.5742    2.0387    0.0000 H   0  0  0  0  0  0  0  0  0  0  0  0
    3.7320    0.9071    0.0000 H   0  0  0  0  0  0  0  0  0  0  0  0
    3.7320    4.1471    0.0000 H   0  0  0  0  0  0  0  0  0  0  0  0
    4.9240   -1.1911    0.0000 H   0  0  0  0  0  0  0  0  0  0  0  0
    7.7298   -1.2236    0.0000 H   0  0  0  0  0  0  0  0  0  0  0  0
    2.0000    0.9071    0.0000 H   0  0  0  0  0  0  0  0  0  0  0  0
    2.6200    4.5271    0.0000 H   0  0  0  0  0  0  0  0  0  0  0  0
    2.0000    5.1471    0.0000 H   0  0  0  0  0  0  0  0  0  0  0  0
    1.3800    4.5271    0.0000 H   0  0  0  0  0  0  0  0  0  0  0  0
    8.5784   -2.7335    0.0000 H   0  0  0  0  0  0  0  0  0  0  0  0
    3.9425   -3.9900    0.0000 H   0  0  0  0  0  0  0  0  0  0  0  0
    4.5553   -4.6171    0.0000 H   0  0  0  0  0  0  0  0  0  0  0  0
    5.1824   -4.0043    0.0000 H   0  0  0  0  0  0  0  0  0  0  0  0
    6.8384   -5.0605    0.0000 H   0  0  0  0  0  0  0  0  0  0  0  0
    7.6879   -4.8433    0.0000 H   0  0  0  0  0  0  0  0  0  0  0  0
    7.4708   -3.9938    0.0000 H   0  0  0  0  0  0  0  0  0  0  0  0
  1 19  1  0  0  0  0
  1 25  1  0  0  0  0
  2 18  1  0  0  0  0
  2 44  1  0  0  0  0
  3 22  1  0  0  0  0
  3 26  1  0  0  0  0
  4 24  1  0  0  0  0
  4 27  1  0  0  0  0
  5 23  1  0  0  0  0
  5 48  1  0  0  0  0
  6  7  1  0  0  0  0
  6 10  1  0  0  0  0
  6 14  1  0  0  0  0
  7  8  1  0  0  0  0
  7  9  1  1  0  0  0
  7 28  1  0  0  0  0
  8 12  1  0  0  0  0
  8 15  2  0  0  0  0
  9 13  1  0  0  0  0
  9 29  1  0  0  0  0
  9 30  1  0  0  0  0
 10 11  1  0  0  0  0
 10 31  1  0  0  0  0
 10 32  1  0  0  0  0
 11 12  1  0  0  0  0
 11 33  1  0  0  0  0
 11 34  1  0  0  0  0
 12 16  2  0  0  0  0
 13 17  1  0  0  0  0
 13 35  1  0  0  0  0
 13 36  1  0  0  0  0
 14 37  1  0  0  0  0
 14 38  1  0  0  0  0
 14 39  1  0  0  0  0
 15 18  1  0  0  0  0
 15 40  1  0  0  0  0
 16 19  1  0  0  0  0
 16 41  1  0  0  0  0
 17 20  1  0  0  0  0
 17 21  2  0  0  0  0
 18 19  2  0  0  0  0
 20 22  2  0  0  0  0
 20 42  1  0  0  0  0
 21 23  1  0  0  0  0
 21 43  1  0  0  0  0
 22 24  1  0  0  0  0
 23 24  2  0  0  0  0
 25 45  1  0  0  0  0
 25 46  1  0  0  0  0
 25 47  1  0  0  0  0
 26 49  1  0  0  0  0
 26 50  1  0  0  0  0
 26 51  1  0  0  0  0
 27 52  1  0  0  0  0
 27 53  1  0  0  0  0
 27 54  1  0  0  0  0
M  END
> <PUBCHEM_COMPOUND_CID>
13878324

> <PUBCHEM_COMPOUND_CANONICALIZED>
1

> <PUBCHEM_CACTVS_COMPLEXITY>
464

> <PUBCHEM_CACTVS_HBOND_ACCEPTOR>
6

> <PUBCHEM_CACTVS_HBOND_DONOR>
2

> <PUBCHEM_CACTVS_ROTATABLE_BOND>
6

> <PUBCHEM_CACTVS_SUBSKEYS>
AAADceB6OAAAAAAAAAAAAAAAAAAAAAAAAAA8YIAAAAAAAACxQAAAHgAACAAADCzBmAYyBoMABgCAAiBCAACCCAAgIAAAiAAOjIgNJyKGsRuEcCtlwBWLuAew8P8OoAABCAAQQABAAAIQACCAAAAAAAAAAA==

> <PUBCHEM_IUPAC_OPENEYE_NAME>
(1S)-1-[2-(3-hydroxy-4,5-dimethoxy-phenyl)ethyl]-6-methoxy-2-methyl-3,4-dihydro-1H-isoquinolin-7-ol

> <PUBCHEM_IUPAC_CAS_NAME>
(1S)-1-[2-(3-hydroxy-4,5-dimethoxyphenyl)ethyl]-6-methoxy-2-methyl-3,4-dihydro-1H-isoquinolin-7-ol

> <PUBCHEM_IUPAC_NAME>
(1S)-1-[2-(3-hydroxy-4,5-dimethoxyphenyl)ethyl]-6-methoxy-2-methyl-3,4-dihydro-1H-isoquinolin-7-ol

> <PUBCHEM_IUPAC_SYSTEMATIC_NAME>
(1S)-1-[2-(3,4-dimethoxy-5-oxidanyl-phenyl)ethyl]-6-methoxy-2-methyl-3,4-dihydro-1H-isoquinolin-7-ol

> <PUBCHEM_IUPAC_TRADITIONAL_NAME>
(1S)-1-[2-(3-hydroxy-4,5-dimethoxy-phenyl)ethyl]-6-methoxy-2-methyl-3,4-dihydro-1H-isoquinolin-7-ol

> <PUBCHEM_IUPAC_INCHI>
InChI=1S/C21H27NO5/c1-22-8-7-14-11-19(25-2)17(23)12-15(14)16(22)6-5-13-9-18(24)21(27-4)20(10-13)26-3/h9-12,16,23-24H,5-8H2,1-4H3/t16-/m0/s1

> <PUBCHEM_IUPAC_INCHIKEY>
GZUNPCNPOLOTLX-INIZCTEOSA-N

> <PUBCHEM_XLOGP3_AA>
3.3

> <PUBCHEM_EXACT_MASS>
373.188923

> <PUBCHEM_MOLECULAR_FORMULA>
C21H27NO5

> <PUBCHEM_MOLECULAR_WEIGHT>
373.44278

> <PUBCHEM_OPENEYE_CAN_SMILES>
CN1CCC2=CC(=C(C=C2C1CCC3=CC(=C(C(=C3)OC)OC)O)O)OC

> <PUBCHEM_OPENEYE_ISO_SMILES>
CN1CCC2=CC(=C(C=C2[C@@H]1CCC3=CC(=C(C(=C3)OC)OC)O)O)OC

> <PUBCHEM_CACTVS_TPSA>
71.4

> <PUBCHEM_MONOISOTOPIC_WEIGHT>
373.188923

> <PUBCHEM_TOTAL_CHARGE>
0

> <PUBCHEM_HEAVY_ATOM_COUNT>
27

> <PUBCHEM_ATOM_DEF_STEREO_COUNT>
1

> <PUBCHEM_ATOM_UDEF_STEREO_COUNT>
0

> <PUBCHEM_BOND_DEF_STEREO_COUNT>
0

> <PUBCHEM_BOND_UDEF_STEREO_COUNT>
0

> <PUBCHEM_ISOTOPIC_ATOM_COUNT>
0

> <PUBCHEM_COMPONENT_COUNT>
1

> <PUBCHEM_CACTVS_TAUTO_COUNT>
27

> <PUBCHEM_COORDINATE_TYPE>
1
5
255

> <PUBCHEM_BONDANNOTATIONS>
12  16  8
15  18  8
16  19  8
17  20  8
17  21  8
18  19  8
20  22  8
21  23  8
22  24  8
23  24  8
7  9  5
8  12  8
8  15  8

$$$$

