192726
  -OEChem-07051212453D

 21 21  0     0  0  0  0  0  0999 V2000
    3.0494    3.0323   -0.1444 I   0  0  0  0  0  0  0  0  0  0  0  0
    2.9755   -3.0700   -0.1984 I   0  0  0  0  0  0  0  0  0  0  0  0
    4.0537   -0.0290   -0.4350 O   0  0  0  0  0  0  0  0  0  0  0  0
   -1.9946    0.0922   -1.4193 O   0  0  0  0  0  0  0  0  0  0  0  0
   -4.4981    0.0158   -1.1324 O   0  0  0  0  0  0  0  0  0  0  0  0
   -4.2666   -0.0947    1.1476 O   0  0  0  0  0  0  0  0  0  0  0  0
    0.0255    0.0106    0.5855 C   0  0  0  0  0  0  0  0  0  0  0  0
   -1.4203    0.0248    0.9516 C   0  0  0  0  0  0  0  0  0  0  0  0
    0.6869   -1.2039    0.4034 C   0  0  0  0  0  0  0  0  0  0  0  0
    0.7161    1.2118    0.4248 C   0  0  0  0  0  0  0  0  0  0  0  0
    2.0682    1.1985    0.0823 C   0  0  0  0  0  0  0  0  0  0  0  0
    2.0390   -1.2172    0.0608 C   0  0  0  0  0  0  0  0  0  0  0  0
    2.7296   -0.0159   -0.0997 C   0  0  0  0  0  0  0  0  0  0  0  0
   -2.3439    0.0466   -0.2491 C   0  0  0  0  0  0  0  0  0  0  0  0
   -3.8205   -0.0017    0.0222 C   0  0  0  0  0  0  0  0  0  0  0  0
   -1.6413    0.9026    1.5707 H   0  0  0  0  0  0  0  0  0  0  0  0
   -1.6575   -0.8605    1.5540 H   0  0  0  0  0  0  0  0  0  0  0  0
    0.1379   -2.1346    0.5289 H   0  0  0  0  0  0  0  0  0  0  0  0
    0.1897    2.1531    0.5671 H   0  0  0  0  0  0  0  0  0  0  0  0
    4.3640    0.8904   -0.5025 H   0  0  0  0  0  0  0  0  0  0  0  0
   -5.4679   -0.0390   -0.9955 H   0  0  0  0  0  0  0  0  0  0  0  0
  1 11  1  0  0  0  0
  2 12  1  0  0  0  0
  3 13  1  0  0  0  0
  3 20  1  0  0  0  0
  4 14  2  0  0  0  0
  5 15  1  0  0  0  0
  5 21  1  0  0  0  0
  6 15  2  0  0  0  0
  7  8  1  0  0  0  0
  7  9  2  0  0  0  0
  7 10  1  0  0  0  0
  8 14  1  0  0  0  0
  8 16  1  0  0  0  0
  8 17  1  0  0  0  0
  9 12  1  0  0  0  0
  9 18  1  0  0  0  0
 10 11  2  0  0  0  0
 10 19  1  0  0  0  0
 11 13  1  0  0  0  0
 12 13  2  0  0  0  0
 14 15  1  0  0  0  0
M  END
> <PUBCHEM_COMPOUND_CID>
192726

> <PUBCHEM_CONFORMER_RMSD>
0.6

> <PUBCHEM_CONFORMER_DIVERSEORDER>
1
13
8
11
4
5
12
10
2
6
9
7
3

> <PUBCHEM_MMFF94_PARTIAL_CHARGES>
19
1 -0.08
10 -0.15
11 0.08
12 0.08
13 0.08
14 0.51
15 0.72
18 0.15
19 0.15
2 -0.08
20 0.45
21 0.5
3 -0.53
4 -0.57
5 -0.65
6 -0.57
7 -0.14
8 0.2
9 -0.15

> <PUBCHEM_EFFECTIVE_ROTOR_COUNT>
3

> <PUBCHEM_PHARMACOPHORE_FEATURES>
8
1 1 hydrophobe
1 2 hydrophobe
1 3 donor
1 4 acceptor
1 5 acceptor
1 6 acceptor
3 5 6 15 anion
6 7 9 10 11 12 13 rings

> <PUBCHEM_HEAVY_ATOM_COUNT>
15

> <PUBCHEM_ATOM_DEF_STEREO_COUNT>
0

> <PUBCHEM_ATOM_UDEF_STEREO_COUNT>
0

> <PUBCHEM_BOND_DEF_STEREO_COUNT>
0

> <PUBCHEM_BOND_UDEF_STEREO_COUNT>
0

> <PUBCHEM_ISOTOPIC_ATOM_COUNT>
0

> <PUBCHEM_COMPONENT_COUNT>
1

> <PUBCHEM_CACTVS_TAUTO_COUNT>
6

> <PUBCHEM_CONFORMER_ID>
0002F0D600000001

> <PUBCHEM_MMFF94_ENERGY>
31.9406

> <PUBCHEM_FEATURE_SELFOVERLAP>
40.664

> <PUBCHEM_SHAPE_FINGERPRINT>
11471102 20 18411419505625395144
12236239 1 17676200286656831377
12730499 353 18342167822222299035
13140716 1 18266462001833309594
13955234 65 18410290298461963898
14576447 43 18187092732189732423
14911166 2 18411127027364374556
15219456 202 18129658591245520641
15477762 27 18408887368980422070
16945 1 18410565194012740464
17539 30 17474109182125916878
1813 80 17897998273427690542
18186145 218 18410855430100554385
19422 9 18040435490858421407
19784866 34 18190460446264453320
20281475 54 18187651318894139683
20645476 183 18040438763344160655
20645477 70 18340214076107078743
20671657 53 18193554699750020210
20820808 20 18336547097475206688
21499 59 18266460893262670564
21524375 3 17840032840739485008
21639500 275 18410860919306167964
221490 88 18340760460007850554
2255824 54 18335137588050799350
23114952 82 18201715163360846172
23402539 116 16486979474789584383
23402655 69 18410014359882765573
23419403 2 17413912922197168172
23526113 38 18131062788190969810
23557571 272 17203318988730490099
23559900 14 18411138018133067602
23598291 2 17897712400193263970
25 1 18340204081712717744
2748010 2 18051957140241098736
3060560 45 18409728444247305862
474 4 18264773160173239504
5281201 14 18271806869268238989
6049 1 17917430977385581581
7364860 26 18409448090188376976
77492 1 17676200286609352145
81228 2 17545885292575814864
81539 233 18270683061042156560
84936 182 18042123172245534104

> <PUBCHEM_SHAPE_MULTIPOLES>
309.09
7.82
2.99
0.98
8.94
0.13
-0.1
-0.07
-1.14
-5.76
-0.23
0.73
0
0.06

> <PUBCHEM_SHAPE_SELFOVERLAP>
604.352

> <PUBCHEM_SHAPE_VOLUME>
191.6

> <PUBCHEM_COORDINATE_TYPE>
2
5
10

$$$$

