448403
  -OEChem-07051213153D

 31 33  0     1  0  0  0  0  0999 V2000
    3.7670   -2.5608   -0.3653 F   0  0  0  0  0  0  0  0  0  0  0  0
    1.9987   -0.5245   -0.9576 O   0  0  0  0  0  0  0  0  0  0  0  0
    1.2155    2.2559    1.1817 O   0  0  0  0  0  0  0  0  0  0  0  0
    3.4064    2.1266   -0.4209 O   0  0  0  0  0  0  0  0  0  0  0  0
   -0.2132   -0.2609   -0.1403 N   0  0  0  0  0  0  0  0  0  0  0  0
   -1.6426   -1.8917    0.3849 N   0  0  0  0  0  0  0  0  0  0  0  0
   -1.7815    1.5496   -0.5463 N   0  0  0  0  0  0  0  0  0  0  0  0
   -4.0865    0.8187   -0.2167 N   0  0  0  0  0  0  0  0  0  0  0  0
   -4.6456   -1.4173    0.4273 N   0  0  0  0  0  0  0  0  0  0  0  0
    1.7208    0.9783    0.8516 C   0  0  1  0  0  0  0  0  0  0  0  0
    1.0589    0.4112   -0.3949 C   0  0  1  0  0  0  0  0  0  0  0  0
    3.1778    1.0060    0.4334 C   0  0  1  0  0  0  0  0  0  0  0  0
    3.3045   -0.2729   -0.3885 C   0  0  1  0  0  0  0  0  0  0  0  0
    3.7035   -1.4796    0.4493 C   0  0  0  0  0  0  0  0  0  0  0  0
   -1.4626    0.2882   -0.2197 C   0  0  0  0  0  0  0  0  0  0  0  0
   -0.3752   -1.5722    0.2258 C   0  0  0  0  0  0  0  0  0  0  0  0
   -2.3333   -0.7383    0.1097 C   0  0  0  0  0  0  0  0  0  0  0  0
   -3.6915   -0.4369    0.1042 C   0  0  0  0  0  0  0  0  0  0  0  0
   -3.1211    1.7206   -0.5176 C   0  0  0  0  0  0  0  0  0  0  0  0
    1.5840    0.3137    1.7125 H   0  0  0  0  0  0  0  0  0  0  0  0
    0.8640    1.1825   -1.1502 H   0  0  0  0  0  0  0  0  0  0  0  0
    3.8706    1.0801    1.2764 H   0  0  0  0  0  0  0  0  0  0  0  0
    4.0004   -0.1642   -1.2272 H   0  0  0  0  0  0  0  0  0  0  0  0
    2.9657   -1.7044    1.2247 H   0  0  0  0  0  0  0  0  0  0  0  0
    4.6848   -1.3418    0.9117 H   0  0  0  0  0  0  0  0  0  0  0  0
    1.3886    2.8507    0.4322 H   0  0  0  0  0  0  0  0  0  0  0  0
    4.3347    2.0875   -0.7080 H   0  0  0  0  0  0  0  0  0  0  0  0
    0.4591   -2.2457    0.3670 H   0  0  0  0  0  0  0  0  0  0  0  0
   -3.4730    2.7154   -0.7693 H   0  0  0  0  0  0  0  0  0  0  0  0
   -4.3535   -2.3548    0.6680 H   0  0  0  0  0  0  0  0  0  0  0  0
   -5.6267   -1.1736    0.4172 H   0  0  0  0  0  0  0  0  0  0  0  0
  1 14  1  0  0  0  0
  2 11  1  0  0  0  0
  2 13  1  0  0  0  0
  3 10  1  0  0  0  0
  3 26  1  0  0  0  0
  4 12  1  0  0  0  0
  4 27  1  0  0  0  0
  5 11  1  0  0  0  0
  5 15  1  0  0  0  0
  5 16  1  0  0  0  0
  6 16  2  0  0  0  0
  6 17  1  0  0  0  0
  7 15  2  0  0  0  0
  7 19  1  0  0  0  0
  8 18  1  0  0  0  0
  8 19  2  0  0  0  0
  9 18  1  0  0  0  0
  9 30  1  0  0  0  0
  9 31  1  0  0  0  0
 10 11  1  0  0  0  0
 10 12  1  0  0  0  0
 10 20  1  0  0  0  0
 11 21  1  0  0  0  0
 12 13  1  0  0  0  0
 12 22  1  0  0  0  0
 13 14  1  0  0  0  0
 13 23  1  0  0  0  0
 14 24  1  0  0  0  0
 14 25  1  0  0  0  0
 15 17  1  0  0  0  0
 16 28  1  0  0  0  0
 17 18  2  0  0  0  0
 19 29  1  0  0  0  0
M  END
> <PUBCHEM_COMPOUND_CID>
448403

> <PUBCHEM_CONFORMER_RMSD>
0.6

> <PUBCHEM_CONFORMER_DIVERSEORDER>
4
12
13
1
15
9
11
7
2
14
5
16
8
10
3
6

> <PUBCHEM_MMFF94_PARTIAL_CHARGES>
25
1 -0.34
10 0.28
11 0.54
12 0.28
13 0.28
14 0.34
15 0.11
16 0.04
17 0.23
18 0.41
19 0.47
2 -0.56
26 0.4
27 0.4
28 0.15
29 0.15
3 -0.68
30 0.4
31 0.4
4 -0.68
5 0.05
6 -0.57
7 -0.57
8 -0.62
9 -0.9

> <PUBCHEM_EFFECTIVE_ROTOR_COUNT>
3

> <PUBCHEM_PHARMACOPHORE_FEATURES>
13
1 2 acceptor
1 3 acceptor
1 3 donor
1 4 acceptor
1 4 donor
1 9 cation
1 9 donor
3 5 6 16 cation
3 5 7 15 cation
3 7 8 19 cation
5 2 10 11 12 13 rings
5 5 6 15 16 17 rings
6 7 8 15 17 18 19 rings

> <PUBCHEM_HEAVY_ATOM_COUNT>
19

> <PUBCHEM_ATOM_DEF_STEREO_COUNT>
4

> <PUBCHEM_ATOM_UDEF_STEREO_COUNT>
0

> <PUBCHEM_BOND_DEF_STEREO_COUNT>
0

> <PUBCHEM_BOND_UDEF_STEREO_COUNT>
0

> <PUBCHEM_ISOTOPIC_ATOM_COUNT>
0

> <PUBCHEM_COMPONENT_COUNT>
1

> <PUBCHEM_CACTVS_TAUTO_COUNT>
3

> <PUBCHEM_CONFORMER_ID>
0006D79300000004

> <PUBCHEM_MMFF94_ENERGY>
43.0037

> <PUBCHEM_FEATURE_SELFOVERLAP>
66.585

> <PUBCHEM_SHAPE_FINGERPRINT>
10608611 8 18410296882467622885
1100329 8 16535952074883080226
11578080 2 14202234032497869186
12403259 226 18410579491668939173
12403259 415 18343304794765963797
13134695 92 17605009155147907696
13581323 91 18343304734335429245
13675066 3 18261404381057139090
14866123 147 16820797016368925010
15196674 1 18412545414232935693
15219456 202 18335423452030373405
15442244 35 18338516460212970528
15536298 74 18411703196636600978
15653759 3 18412546504785467745
16945 1 18120666742240812032
17804303 29 18341046410329498751
18186145 218 18334287703826818053
19049666 15 18409451388248636648
19591789 44 18412546530888029187
200 152 17676215684278137261
20510252 161 18411136918479255249
20645477 70 18259697900535720254
21267235 1 18412818092837406570
21501502 16 18336271137035848998
23402539 116 18338806607129747679
23559900 14 18410295839259678660
3004659 81 17986665086421721990
3286 77 18408326592169403637
335352 9 18195529413900770213
474 4 16198451024050693100
5104073 3 18411698794463720561
633830 44 18271815639570306255
69090 78 18261115132337582159
7364860 26 18410011010135068830
77779 3 18413106164825556317
81228 2 17985272867875719947
9709674 26 18413103940075162706

> <PUBCHEM_SHAPE_MULTIPOLES>
341.22
8.1
2.29
0.82
1.92
0.06
0.06
1.27
-0.07
-0.97
0.15
-0.28
-0.17
0.73

> <PUBCHEM_SHAPE_SELFOVERLAP>
744.766

> <PUBCHEM_SHAPE_VOLUME>
187.6

> <PUBCHEM_COORDINATE_TYPE>
2
5
10

$$$$

