11954078
  -OEChem-07051213063D

 28 27  0     1  0  0  0  0  0999 V2000
    4.0097   -0.4021   -0.0170 P   0  0  0  0  0  0  0  0  0  0  0  0
    0.1603    0.3140    1.9235 O   0  0  0  0  0  0  0  0  0  0  0  0
    2.7401    0.2902    0.7069 O   0  0  0  0  0  0  0  0  0  0  0  0
   -0.7147    2.2849   -1.0189 O   0  0  0  0  0  0  0  0  0  0  0  0
   -1.1577   -0.3607   -1.6284 O   0  0  0  0  0  0  0  0  0  0  0  0
   -2.2636   -2.0773    0.1020 O   0  0  0  0  0  0  0  0  0  0  0  0
    4.2068    0.4698   -1.3647 O   0  0  0  0  0  0  0  0  0  0  0  0
    3.3953   -1.7951   -0.5618 O   0  0  0  0  0  0  0  0  0  0  0  0
   -4.1378    0.9686    0.4325 O   0  0  0  0  0  0  0  0  0  0  0  0
    5.2326   -0.5415    0.8417 O   0  0  0  0  0  0  0  0  0  0  0  0
   -4.7591   -1.1152   -0.2183 O   0  0  0  0  0  0  0  0  0  0  0  0
    0.4369    1.1251    0.7786 C   0  0  2  0  0  0  0  0  0  0  0  0
   -0.8877    1.3591    0.0418 C   0  0  2  0  0  0  0  0  0  0  0  0
    1.5441    0.4572   -0.0423 C   0  0  0  0  0  0  0  0  0  0  0  0
   -1.4714    0.0641   -0.5152 C   0  0  0  0  0  0  0  0  0  0  0  0
   -2.4400   -0.6999    0.3721 C   0  0  1  0  0  0  0  0  0  0  0  0
   -3.8938   -0.3411    0.1676 C   0  0  0  0  0  0  0  0  0  0  0  0
    0.8261    2.0810    1.1498 H   0  0  0  0  0  0  0  0  0  0  0  0
   -1.6181    1.7934    0.7334 H   0  0  0  0  0  0  0  0  0  0  0  0
    1.7583    1.0575   -0.9320 H   0  0  0  0  0  0  0  0  0  0  0  0
    1.2161   -0.5370   -0.3607 H   0  0  0  0  0  0  0  0  0  0  0  0
   -2.1948   -0.5529    1.4264 H   0  0  0  0  0  0  0  0  0  0  0  0
   -0.4559    0.8080    2.4909 H   0  0  0  0  0  0  0  0  0  0  0  0
   -1.5961    2.4907   -1.3749 H   0  0  0  0  0  0  0  0  0  0  0  0
   -2.4988   -2.2349   -0.8286 H   0  0  0  0  0  0  0  0  0  0  0  0
    4.9709    0.2753   -1.9482 H   0  0  0  0  0  0  0  0  0  0  0  0
    3.9984   -2.4529   -0.9689 H   0  0  0  0  0  0  0  0  0  0  0  0
   -5.0789    1.2025    0.2847 H   0  0  0  0  0  0  0  0  0  0  0  0
  1  3  1  0  0  0  0
  1  7  1  0  0  0  0
  1  8  1  0  0  0  0
  1 10  2  0  0  0  0
  2 12  1  0  0  0  0
  2 23  1  0  0  0  0
  3 14  1  0  0  0  0
  4 13  1  0  0  0  0
  4 24  1  0  0  0  0
  5 15  2  0  0  0  0
  6 16  1  0  0  0  0
  6 25  1  0  0  0  0
  7 26  1  0  0  0  0
  8 27  1  0  0  0  0
  9 17  1  0  0  0  0
  9 28  1  0  0  0  0
 11 17  2  0  0  0  0
 12 13  1  0  0  0  0
 12 14  1  0  0  0  0
 12 18  1  0  0  0  0
 13 15  1  0  0  0  0
 13 19  1  0  0  0  0
 14 20  1  0  0  0  0
 14 21  1  0  0  0  0
 15 16  1  0  0  0  0
 16 17  1  0  0  0  0
 16 22  1  0  0  0  0
M  END
> <PUBCHEM_COMPOUND_CID>
11954078

> <PUBCHEM_CONFORMER_RMSD>
0.8

> <PUBCHEM_CONFORMER_DIVERSEORDER>
1
70
120
75
206
167
182
207
172
52
138
10
253
22
211
161
79
42
53
57
163
139
30
251
178
105
33
62
24
189
214
148
61
48
88
150
195
218
170
84
180
3
64
174
145
222
56
65
51
197
210
26
7
177
173
243
59
245
132
200
27
225
216
127
18
227
21
209
248
25
91
224
40
78
82
66
228
229
203
192
221
107
50
155
11
103
60
20
121
246
55
154
198
149
5
166
116
114
147
130
46
249
122
85
74
69
13
237
119
196
188
162
215
226
94
153
76
252
8
106
181
15
240
99
128
247
244
134
230
67
58
168
98
6
49
9
157
184
32
205
137
233
36
175
47
102
186
164
194
183
136
72
113
199
193
160
141
4
176
185
187
93
90
231
152
16
110
144
14
217
239
38
39
238
219
23
97
96
115
12
125
235
112
156
151
17
250
87
54
117
19
86
100
104
126
159
213
31
223
204
234
179
109
37
146
95
29
202
77
232
28
140
254
190
41
118
165
133
135
43
81
111
80
171
101
44
63
131
169
242
73
123
143
35
83
45
71
68
212
34
191
124
92
129
142
201
2
220
236
208
158
89
241
108

> <PUBCHEM_MMFF94_PARTIAL_CHARGES>
23
1 1.51
10 -0.7
11 -0.57
12 0.28
13 0.34
14 0.28
15 0.45
16 0.4
17 0.66
2 -0.68
23 0.4
24 0.4
25 0.4
26 0.5
27 0.5
28 0.5
3 -0.55
4 -0.68
5 -0.57
6 -0.68
7 -0.77
8 -0.77
9 -0.65

> <PUBCHEM_EFFECTIVE_ROTOR_COUNT>
7

> <PUBCHEM_PHARMACOPHORE_FEATURES>
15
1 10 acceptor
1 11 acceptor
1 16 anion
1 2 acceptor
1 2 donor
1 4 acceptor
1 4 donor
1 5 acceptor
1 6 acceptor
1 6 donor
1 7 acceptor
1 8 acceptor
1 9 acceptor
3 9 11 17 anion
4 1 7 8 10 anion

> <PUBCHEM_HEAVY_ATOM_COUNT>
17

> <PUBCHEM_ATOM_DEF_STEREO_COUNT>
3

> <PUBCHEM_ATOM_UDEF_STEREO_COUNT>
0

> <PUBCHEM_BOND_DEF_STEREO_COUNT>
0

> <PUBCHEM_BOND_UDEF_STEREO_COUNT>
0

> <PUBCHEM_ISOTOPIC_ATOM_COUNT>
0

> <PUBCHEM_COMPONENT_COUNT>
1

> <PUBCHEM_CACTVS_TAUTO_COUNT>
32

> <PUBCHEM_CONFORMER_ID>
00B6679E00000001

> <PUBCHEM_MMFF94_ENERGY>
-14.2778

> <PUBCHEM_FEATURE_SELFOVERLAP>
76.489

> <PUBCHEM_SHAPE_FINGERPRINT>
12186901 62 18130793420616393941
12251169 10 14707212097852762760
124424 183 17385443211447005321
12596602 18 15213301893675381767
13675066 3 17168146723616505880
14251731 8 18408604794270420669
14251764 18 18113334189885229633
15048467 5 12895085037344243455
15375462 189 17676497141996045618
17804303 29 18259982644029801265
18186145 218 16343706486856017452
18511873 20 17240202097451701913
187816 3 17060338521955012536
200 152 17489870449112657440
20281407 28 18334573529679122752
20281475 54 18410013199898483348
20374829 77 18341619204506211571
20871999 31 18059862774488886381
22485316 2 18186803573558389202
23402539 116 17560806558517595732
23557571 272 18337674221864583208
23559900 14 18260835847546415816
265663 24 7348892152533534421
351380 180 9583520901928729134
83771 10 18342178851497841853

> <PUBCHEM_SHAPE_MULTIPOLES>
295.01
9.28
1.63
1.18
4.51
0.01
0.01
-3.41
0.1
-0.59
-0.24
0.46
0.18
-0.01

> <PUBCHEM_SHAPE_SELFOVERLAP>
565.269

> <PUBCHEM_SHAPE_VOLUME>
179.9

> <PUBCHEM_COORDINATE_TYPE>
2
5
10

$$$$

