253758
  -OEChem-07051213063D

 52 55  0     1  0  0  0  0  0999 V2000
    4.5829   -0.9332   -0.9966 O   0  0  0  0  0  0  0  0  0  0  0  0
    2.1920   -0.4876   -0.5015 C   0  0  1  0  0  0  0  0  0  0  0  0
    1.5240    0.7514    0.1351 C   0  0  2  0  0  0  0  0  0  0  0  0
    0.0225    0.8253   -0.1561 C   0  0  1  0  0  0  0  0  0  0  0  0
    3.6874   -0.2218   -0.1452 C   0  0  2  0  0  0  0  0  0  0  0  0
    2.4129    1.9056   -0.3152 C   0  0  0  0  0  0  0  0  0  0  0  0
    1.5380   -1.7385    0.1079 C   0  0  0  0  0  0  0  0  0  0  0  0
   -0.6705   -0.4384    0.4368 C   0  0  2  0  0  0  0  0  0  0  0  0
    3.8328    1.3101   -0.3527 C   0  0  0  0  0  0  0  0  0  0  0  0
    0.0070   -1.7391   -0.0695 C   0  0  0  0  0  0  0  0  0  0  0  0
   -0.6295    2.0742    0.4421 C   0  0  0  0  0  0  0  0  0  0  0  0
    2.0246   -0.5538   -2.0484 C   0  0  0  0  0  0  0  0  0  0  0  0
    4.0971   -0.6061    1.2824 C   0  0  0  0  0  0  0  0  0  0  0  0
   -2.1838   -0.3803    0.2462 C   0  0  0  0  0  0  0  0  0  0  0  0
   -2.0851    2.1650   -0.0063 C   0  0  0  0  0  0  0  0  0  0  0  0
   -2.8383    0.8602    0.0817 C   0  0  0  0  0  0  0  0  0  0  0  0
    5.5260   -0.1963    1.5694 C   0  0  0  0  0  0  0  0  0  0  0  0
   -2.9720   -1.5428    0.3180 C   0  0  0  0  0  0  0  0  0  0  0  0
   -4.2368    0.9015   -0.0576 C   0  0  0  0  0  0  0  0  0  0  0  0
   -4.3613   -1.4865    0.1866 C   0  0  0  0  0  0  0  0  0  0  0  0
   -4.9938   -0.2652   -0.0058 C   0  0  0  0  0  0  0  0  0  0  0  0
   -6.4761   -0.2037   -0.1514 C   0  0  0  0  0  0  0  0  0  0  0  0
    1.6219    0.6937    1.2294 H   0  0  0  0  0  0  0  0  0  0  0  0
   -0.1403    0.8607   -1.2407 H   0  0  0  0  0  0  0  0  0  0  0  0
    2.3578    2.7528    0.3765 H   0  0  0  0  0  0  0  0  0  0  0  0
    2.1260    2.2718   -1.3073 H   0  0  0  0  0  0  0  0  0  0  0  0
    1.7392   -1.7938    1.1843 H   0  0  0  0  0  0  0  0  0  0  0  0
    1.9610   -2.6485   -0.3341 H   0  0  0  0  0  0  0  0  0  0  0  0
   -0.5211   -0.4177    1.5276 H   0  0  0  0  0  0  0  0  0  0  0  0
    4.2948    1.5364   -1.3216 H   0  0  0  0  0  0  0  0  0  0  0  0
    4.4415    1.8202    0.3947 H   0  0  0  0  0  0  0  0  0  0  0  0
   -0.2540   -1.9134   -1.1199 H   0  0  0  0  0  0  0  0  0  0  0  0
   -0.3765   -2.6042    0.4840 H   0  0  0  0  0  0  0  0  0  0  0  0
   -0.1069    2.9848    0.1292 H   0  0  0  0  0  0  0  0  0  0  0  0
   -0.5779    2.0373    1.5379 H   0  0  0  0  0  0  0  0  0  0  0  0
    2.4903    0.2978   -2.5544 H   0  0  0  0  0  0  0  0  0  0  0  0
    2.4975   -1.4601   -2.4449 H   0  0  0  0  0  0  0  0  0  0  0  0
    0.9807   -0.5799   -2.3698 H   0  0  0  0  0  0  0  0  0  0  0  0
    4.0395   -1.6953    1.4007 H   0  0  0  0  0  0  0  0  0  0  0  0
    3.4436   -0.1591    2.0378 H   0  0  0  0  0  0  0  0  0  0  0  0
   -2.1161    2.5005   -1.0510 H   0  0  0  0  0  0  0  0  0  0  0  0
   -2.5906    2.9274    0.5988 H   0  0  0  0  0  0  0  0  0  0  0  0
    5.3925   -0.4077   -1.1096 H   0  0  0  0  0  0  0  0  0  0  0  0
    6.2400   -0.5771    0.8340 H   0  0  0  0  0  0  0  0  0  0  0  0
    5.6630    0.8825    1.6674 H   0  0  0  0  0  0  0  0  0  0  0  0
    5.8254   -0.6205    2.5356 H   0  0  0  0  0  0  0  0  0  0  0  0
   -2.5232   -2.5172    0.4855 H   0  0  0  0  0  0  0  0  0  0  0  0
   -4.7319    1.8595   -0.2045 H   0  0  0  0  0  0  0  0  0  0  0  0
   -4.9366   -2.4070    0.2428 H   0  0  0  0  0  0  0  0  0  0  0  0
   -6.7721    0.6057   -0.8275 H   0  0  0  0  0  0  0  0  0  0  0  0
   -6.8725   -1.1337   -0.5730 H   0  0  0  0  0  0  0  0  0  0  0  0
   -6.9429   -0.0354    0.8242 H   0  0  0  0  0  0  0  0  0  0  0  0
  1  5  1  0  0  0  0
  1 43  1  0  0  0  0
  2  3  1  0  0  0  0
  2  5  1  0  0  0  0
  2  7  1  0  0  0  0
  2 12  1  0  0  0  0
  3  4  1  0  0  0  0
  3  6  1  0  0  0  0
  3 23  1  0  0  0  0
  4  8  1  0  0  0  0
  4 11  1  0  0  0  0
  4 24  1  0  0  0  0
  5  9  1  0  0  0  0
  5 13  1  0  0  0  0
  6  9  1  0  0  0  0
  6 25  1  0  0  0  0
  6 26  1  0  0  0  0
  7 10  1  0  0  0  0
  7 27  1  0  0  0  0
  7 28  1  0  0  0  0
  8 10  1  0  0  0  0
  8 14  1  0  0  0  0
  8 29  1  0  0  0  0
  9 30  1  0  0  0  0
  9 31  1  0  0  0  0
 10 32  1  0  0  0  0
 10 33  1  0  0  0  0
 11 15  1  0  0  0  0
 11 34  1  0  0  0  0
 11 35  1  0  0  0  0
 12 36  1  0  0  0  0
 12 37  1  0  0  0  0
 12 38  1  0  0  0  0
 13 17  1  0  0  0  0
 13 39  1  0  0  0  0
 13 40  1  0  0  0  0
 14 16  2  0  0  0  0
 14 18  1  0  0  0  0
 15 16  1  0  0  0  0
 15 41  1  0  0  0  0
 15 42  1  0  0  0  0
 16 19  1  0  0  0  0
 17 44  1  0  0  0  0
 17 45  1  0  0  0  0
 17 46  1  0  0  0  0
 18 20  2  0  0  0  0
 18 47  1  0  0  0  0
 19 21  2  0  0  0  0
 19 48  1  0  0  0  0
 20 21  1  0  0  0  0
 20 49  1  0  0  0  0
 21 22  1  0  0  0  0
 22 50  1  0  0  0  0
 22 51  1  0  0  0  0
 22 52  1  0  0  0  0
M  END
> <PUBCHEM_COMPOUND_CID>
253758

> <PUBCHEM_CONFORMER_RMSD>
0.6

> <PUBCHEM_CONFORMER_DIVERSEORDER>
1

> <PUBCHEM_MMFF94_PARTIAL_CHARGES>
15
1 -0.68
14 -0.14
15 0.14
16 -0.14
18 -0.15
19 -0.15
20 -0.15
21 -0.14
22 0.14
43 0.4
47 0.15
48 0.15
49 0.15
5 0.28
8 0.14

> <PUBCHEM_EFFECTIVE_ROTOR_COUNT>
2.4

> <PUBCHEM_PHARMACOPHORE_FEATURES>
7
1 1 acceptor
1 1 donor
1 17 hydrophobe
5 2 3 5 6 9 rings
6 14 16 18 19 20 21 rings
6 2 3 4 7 8 10 rings
6 4 8 11 14 15 16 rings

> <PUBCHEM_HEAVY_ATOM_COUNT>
22

> <PUBCHEM_ATOM_DEF_STEREO_COUNT>
5

> <PUBCHEM_ATOM_UDEF_STEREO_COUNT>
0

> <PUBCHEM_BOND_DEF_STEREO_COUNT>
0

> <PUBCHEM_BOND_UDEF_STEREO_COUNT>
0

> <PUBCHEM_ISOTOPIC_ATOM_COUNT>
0

> <PUBCHEM_COMPONENT_COUNT>
1

> <PUBCHEM_CACTVS_TAUTO_COUNT>
1

> <PUBCHEM_CONFORMER_ID>
0003DF3E00000001

> <PUBCHEM_MMFF94_ENERGY>
83.3476

> <PUBCHEM_FEATURE_SELFOVERLAP>
35.614

> <PUBCHEM_SHAPE_FINGERPRINT>
10 15 18188505592795939112
10062212 137 18341055138056491595
10759866 29 17916295048909450788
11132069 177 18114180821874819398
11578080 2 16445048383420465362
11646440 116 18259977159504154027
11796584 16 17060340720936298067
11963148 33 18410299081549940303
12107183 9 17552933127391639288
12166972 35 17561080289488982693
12236239 1 17561084713057169378
12403259 226 18339645637217225052
12403259 415 17749110019581528472
12403260 363 18343023302282407456
12516196 113 17821730520728647905
12788726 201 18336253596194824721
12839892 36 18339375157267050234
128620 24 17530683221060433975
13140716 1 18266465295709579394
13224815 77 18410568483462011785
13533116 47 17632302306224257226
13862211 1 18411705370317281707
14115302 16 17846488201901333695
14178342 30 18192712469495364336
14790565 3 17688302804961765305
15183329 4 18411139169590679437
15196674 1 18339358570218858017
15375358 24 18334290964034173327
15788980 27 17275105028997356091
16945 1 18266726042857413272
17349148 13 18060416923737598955
17492 89 18268431411331514963
17862501 102 18272656765881093952
18681886 176 18409727331966982764
19141452 34 17894910694743021455
192875 21 17131826573349200533
200 152 17967812752101795697
20028762 73 18333735693087320927
20261772 1 17894352159229841142
20374829 77 18412266117068297305
20645477 70 18260542338197604463
20715895 44 18056488480994312269
21033648 29 17313684740311351880
21267235 1 18410845565146185923
21421861 104 17986957551338113067
22079108 93 15357707357310635886
22224240 67 17168438086067049586
23402539 116 18335991886825966855
23536379 177 16128379289682657755
23557571 272 18114733936342635525
23559900 14 18409162191137180884
239999 70 18259978284553658574
26918003 58 18202566163806773811
2871803 45 18411979169912945909
3004659 81 18272084993991162428
3286 77 18131073727356627788
335352 9 18411981356436382709
3411729 13 18194970648021689264
345986 75 17201668716409352776
34797466 226 15719669862319029169
34934 24 18409450263415805663
350125 39 18412546483801585864
351380 180 18411983550478978914
3680242 22 18341329002224332835
3886686 26 17114968023991600474
4072396 5 18412271644111329002
4214541 1 18411980286852693925
4340502 62 15285358401101797975
465052 167 18131631184062675874
5104073 3 18340200783298998681
5283173 99 18200603600440446613
5374978 207 18410295791830675600
542803 24 13901908908165562879
9709674 26 18337100259087403463

> <PUBCHEM_SHAPE_MULTIPOLES>
446.88
11.7
1.99
1.08
5.96
0.51
0.19
-1.75
-1.56
0.33
-0.03
-1.48
-0.2
-0.03

> <PUBCHEM_SHAPE_SELFOVERLAP>
963.198

> <PUBCHEM_SHAPE_VOLUME>
246.6

> <PUBCHEM_COORDINATE_TYPE>
2
5
10

$$$$

