443358
  -OEChem-07051213022D

 51 56  0     1  0  0  0  0  0999 V2000
    2.0078    2.1812    0.0000 O   0  0  0  0  0  0  0  0  0  0  0  0
    4.6660    2.6184    0.0000 O   0  0  0  0  0  0  0  0  0  0  0  0
    6.3981    2.6184    0.0000 O   0  0  0  0  0  0  0  0  0  0  0  0
    7.2641    1.1184    0.0000 O   0  0  0  0  0  0  0  0  0  0  0  0
    2.9061   -0.4163    0.0000 N   0  0  3  0  0  0  0  0  0  0  0  0
    6.2691   -0.5487    0.0000 N   0  0  0  0  0  0  0  0  0  0  0  0
    3.8000    1.1184    0.0000 C   0  0  1  0  0  0  0  0  0  0  0  0
    3.8000    0.1184    0.0000 C   0  0  1  0  0  0  0  0  0  0  0  0
    2.9061    1.6530    0.0000 C   0  0  3  0  0  0  0  0  0  0  0  0
    4.6660   -0.3816    0.0000 C   0  0  2  0  0  0  0  0  0  0  0  0
    2.0000    1.1392    0.0000 C   0  0  3  0  0  0  0  0  0  0  0  0
    2.0000    0.0975    0.0000 C   0  0  0  0  0  0  0  0  0  0  0  0
    4.6660    1.6184    0.0000 C   0  0  0  0  0  0  0  0  0  0  0  0
    4.3009   -1.3060    0.0000 C   0  0  0  0  0  0  0  0  0  0  0  0
    3.3073   -1.3255    0.0000 C   0  0  0  0  0  0  0  0  0  0  0  0
    3.8000    2.1184    0.0000 C   0  0  3  0  0  0  0  0  0  0  0  0
    5.5321    0.1184    0.0000 C   0  0  0  0  0  0  0  0  0  0  0  0
    4.8752   -1.3534    0.0000 C   0  0  0  0  0  0  0  0  0  0  0  0
    5.5321    1.1184    0.0000 C   0  0  0  0  0  0  0  0  0  0  0  0
    5.8640   -1.4565    0.0000 C   0  0  0  0  0  0  0  0  0  0  0  0
    2.9340    2.6184    0.0000 C   0  0  0  0  0  0  0  0  0  0  0  0
    4.2545   -2.1822    0.0000 C   0  0  0  0  0  0  0  0  0  0  0  0
    6.3981    1.6184    0.0000 C   0  0  0  0  0  0  0  0  0  0  0  0
    6.3005   -2.3955    0.0000 C   0  0  0  0  0  0  0  0  0  0  0  0
    4.6692   -3.1310    0.0000 C   0  0  0  0  0  0  0  0  0  0  0  0
    5.6990   -3.2384    0.0000 C   0  0  0  0  0  0  0  0  0  0  0  0
    7.2641    3.1184    0.0000 C   0  0  0  0  0  0  0  0  0  0  0  0
    3.0639    0.5434    0.0000 H   0  0  0  0  0  0  0  0  0  0  0  0
    3.2223    2.1863    0.0000 H   0  0  0  0  0  0  0  0  0  0  0  0
    1.3800    1.1415    0.0000 H   0  0  0  0  0  0  0  0  0  0  0  0
    1.3891    0.2036    0.0000 H   0  0  0  0  0  0  0  0  0  0  0  0
    1.7909   -0.4861    0.0000 H   0  0  0  0  0  0  0  0  0  0  0  0
    5.0646    2.0933    0.0000 H   0  0  0  0  0  0  0  0  0  0  0  0
    4.2675    2.0933    0.0000 H   0  0  0  0  0  0  0  0  0  0  0  0
    4.2315   -1.9220    0.0000 H   0  0  0  0  0  0  0  0  0  0  0  0
    4.9025   -1.4559    0.0000 H   0  0  0  0  0  0  0  0  0  0  0  0
    2.7121   -1.4990    0.0000 H   0  0  0  0  0  0  0  0  0  0  0  0
    3.4010   -1.9384    0.0000 H   0  0  0  0  0  0  0  0  0  0  0  0
    3.8000    2.7384    0.0000 H   0  0  0  0  0  0  0  0  0  0  0  0
    6.8758   -0.4209    0.0000 H   0  0  0  0  0  0  0  0  0  0  0  0
    3.2440    3.1553    0.0000 H   0  0  0  0  0  0  0  0  0  0  0  0
    2.3970    2.9284    0.0000 H   0  0  0  0  0  0  0  0  0  0  0  0
    2.6240    2.0814    0.0000 H   0  0  0  0  0  0  0  0  0  0  0  0
    3.6386   -2.1108    0.0000 H   0  0  0  0  0  0  0  0  0  0  0  0
    4.6660    3.2384    0.0000 H   0  0  0  0  0  0  0  0  0  0  0  0
    6.9178   -2.4526    0.0000 H   0  0  0  0  0  0  0  0  0  0  0  0
    4.3032   -3.6315    0.0000 H   0  0  0  0  0  0  0  0  0  0  0  0
    5.9539   -3.8036    0.0000 H   0  0  0  0  0  0  0  0  0  0  0  0
    7.5741    2.5814    0.0000 H   0  0  0  0  0  0  0  0  0  0  0  0
    7.8010    3.4284    0.0000 H   0  0  0  0  0  0  0  0  0  0  0  0
    6.9541    3.6553    0.0000 H   0  0  0  0  0  0  0  0  0  0  0  0
  1  9  1  0  0  0  0
  1 11  1  0  0  0  0
  2 16  1  0  0  0  0
  2 45  1  0  0  0  0
  3 23  1  0  0  0  0
  3 27  1  0  0  0  0
  4 23  2  0  0  0  0
  5  8  1  0  0  0  0
  5 12  1  0  0  0  0
  5 15  1  0  0  0  0
  6 17  1  0  0  0  0
  6 20  1  0  0  0  0
  6 40  1  0  0  0  0
  7  8  1  0  0  0  0
  7  9  1  0  0  0  0
  7 13  1  0  0  0  0
  7 16  1  6  0  0  0
  8 10  1  0  0  0  0
  8 28  1  6  0  0  0
  9 11  1  0  0  0  0
  9 29  1  0  0  0  0
 10 14  1  1  0  0  0
 10 17  1  0  0  0  0
 10 18  1  0  0  0  0
 11 12  1  0  0  0  0
 11 30  1  0  0  0  0
 12 31  1  0  0  0  0
 12 32  1  0  0  0  0
 13 19  1  0  0  0  0
 13 33  1  0  0  0  0
 13 34  1  0  0  0  0
 14 15  1  0  0  0  0
 14 35  1  0  0  0  0
 14 36  1  0  0  0  0
 15 37  1  0  0  0  0
 15 38  1  0  0  0  0
 16 21  1  0  0  0  0
 16 39  1  0  0  0  0
 17 19  2  0  0  0  0
 18 20  1  0  0  0  0
 18 22  2  0  0  0  0
 19 23  1  0  0  0  0
 20 24  2  0  0  0  0
 21 41  1  0  0  0  0
 21 42  1  0  0  0  0
 21 43  1  0  0  0  0
 22 25  1  0  0  0  0
 22 44  1  0  0  0  0
 24 26  1  0  0  0  0
 24 46  1  0  0  0  0
 25 26  2  0  0  0  0
 25 47  1  0  0  0  0
 26 48  1  0  0  0  0
 27 49  1  0  0  0  0
 27 50  1  0  0  0  0
 27 51  1  0  0  0  0
M  END
> <PUBCHEM_COMPOUND_CID>
443358

> <PUBCHEM_COMPOUND_CANONICALIZED>
1

> <PUBCHEM_CACTVS_COMPLEXITY>
738

> <PUBCHEM_CACTVS_HBOND_ACCEPTOR>
6

> <PUBCHEM_CACTVS_HBOND_DONOR>
2

> <PUBCHEM_CACTVS_ROTATABLE_BOND>
3

> <PUBCHEM_CACTVS_SUBSKEYS>
AAADceB7OAAAAAAAAAAAAAAAEgAAAWLAAAA8QIAABYAAAFiBAAAAHgAQCAAADjzhmAYyyIPABgCIAiTSSACCAAAhAgAIiAEIZMgKNDLA8ZGHcAhnkADY6Uf4/f/fgAAAAAACAAAAAAAAAAQAAAAAAAAAAA==

> <PUBCHEM_IUPAC_INCHI>
InChI=1S/C21H24N2O4/c1-11(24)21-9-12(18(25)26-2)16-20(13-5-3-4-6-14(13)22-16)7-8-23(19(20)21)10-15-17(21)27-15/h3-6,11,15,17,19,22,24H,7-10H2,1-2H3/t11?,15?,17?,19-,20+,21+/m1/s1

> <PUBCHEM_IUPAC_INCHIKEY>
QVNXPWJNUKKMHP-SJSDVCPDSA-N

> <PUBCHEM_XLOGP3_AA>
1.4

> <PUBCHEM_EXACT_MASS>
368.173607

> <PUBCHEM_MOLECULAR_FORMULA>
C21H24N2O4

> <PUBCHEM_MOLECULAR_WEIGHT>
368.42626

> <PUBCHEM_OPENEYE_CAN_SMILES>
CC(C12CC(=C3C4(C1N(CC4)CC5C2O5)C6=CC=CC=C6N3)C(=O)OC)O

> <PUBCHEM_OPENEYE_ISO_SMILES>
CC([C@]12CC(=C3[C@@]4([C@H]1N(CC4)CC5C2O5)C6=CC=CC=C6N3)C(=O)OC)O

> <PUBCHEM_CACTVS_TPSA>
74.3

> <PUBCHEM_MONOISOTOPIC_WEIGHT>
368.173607

> <PUBCHEM_TOTAL_CHARGE>
0

> <PUBCHEM_HEAVY_ATOM_COUNT>
27

> <PUBCHEM_ATOM_DEF_STEREO_COUNT>
3

> <PUBCHEM_ATOM_UDEF_STEREO_COUNT>
3

> <PUBCHEM_BOND_DEF_STEREO_COUNT>
0

> <PUBCHEM_BOND_UDEF_STEREO_COUNT>
0

> <PUBCHEM_ISOTOPIC_ATOM_COUNT>
0

> <PUBCHEM_COMPONENT_COUNT>
1

> <PUBCHEM_CACTVS_TAUTO_COUNT>
3

> <PUBCHEM_COORDINATE_TYPE>
1
5
255

> <PUBCHEM_BONDANNOTATIONS>
9  1  3
10  14  5
11  12  3
18  20  8
18  22  8
16  2  3
20  24  8
22  25  8
24  26  8
25  26  8
7  16  6
8  28  6

$$$$

