60863
  -OEChem-07051213012D

 61 65  0     1  0  0  0  0  0999 V2000
    6.7955    3.1043    0.0000 O   0  0  0  0  0  0  0  0  0  0  0  0
   10.4479    4.2092    0.0000 O   0  0  0  0  0  0  0  0  0  0  0  0
   10.4545    2.4772    0.0000 O   0  0  0  0  0  0  0  0  0  0  0  0
    8.9379    6.8015    0.0000 O   0  0  0  0  0  0  0  0  0  0  0  0
    7.4412    5.9297    0.0000 O   0  0  0  0  0  0  0  0  0  0  0  0
    3.7817   -3.6480    0.0000 O   0  0  0  0  0  0  0  0  0  0  0  0
    8.4546    2.4694    0.0000 N   0  0  0  0  0  0  0  0  0  0  0  0
    7.2723   -1.6100    0.0000 N   0  0  0  0  0  0  0  0  0  0  0  0
    3.7702   -6.7172    0.0000 N   0  0  0  0  0  0  0  0  0  0  0  0
    2.8641   -5.1618    0.0000 N   0  0  0  0  0  0  0  0  0  0  0  0
    8.9512    3.3374    0.0000 C   0  0  1  0  0  0  0  0  0  0  0  0
    8.8632    1.5632    0.0000 C   0  0  0  0  0  0  0  0  0  0  0  0
    8.1287    0.8933    0.0000 C   0  0  0  0  0  0  0  0  0  0  0  0
    7.2608    1.3900    0.0000 C   0  0  0  0  0  0  0  0  0  0  0  0
    7.4662    2.3626    0.0000 C   0  0  0  0  0  0  0  0  0  0  0  0
    8.4479    4.2015    0.0000 C   0  0  0  0  0  0  0  0  0  0  0  0
    8.1326   -0.1067    0.0000 C   0  0  0  0  0  0  0  0  0  0  0  0
    7.2685   -0.6100    0.0000 C   0  0  0  0  0  0  0  0  0  0  0  0
    6.3967    0.8866    0.0000 C   0  0  0  0  0  0  0  0  0  0  0  0
    8.9445    5.0694    0.0000 C   0  0  0  0  0  0  0  0  0  0  0  0
    9.9512    3.3412    0.0000 C   0  0  0  0  0  0  0  0  0  0  0  0
    6.4005   -0.1134    0.0000 C   0  0  0  0  0  0  0  0  0  0  0  0
    6.4082   -2.1133    0.0000 C   0  0  0  0  0  0  0  0  0  0  0  0
    6.4121   -3.1133    0.0000 C   0  0  0  0  0  0  0  0  0  0  0  0
    5.5301   -4.6826    0.0000 C   0  0  0  0  0  0  0  0  0  0  0  0
    6.3961   -5.1826    0.0000 C   0  0  0  0  0  0  0  0  0  0  0  0
    5.5141   -3.6411    0.0000 C   0  0  0  0  0  0  0  0  0  0  0  0
    4.6641   -5.1826    0.0000 C   0  0  0  0  0  0  0  0  0  0  0  0
    8.4412    5.9335    0.0000 C   0  0  0  0  0  0  0  0  0  0  0  0
    7.3142   -3.6342    0.0000 C   0  0  0  0  0  0  0  0  0  0  0  0
    4.6641   -6.1826    0.0000 C   0  0  0  0  0  0  0  0  0  0  0  0
    7.3062   -4.6758    0.0000 C   0  0  0  0  0  0  0  0  0  0  0  0
    6.3961   -6.1826    0.0000 C   0  0  0  0  0  0  0  0  0  0  0  0
    5.5301   -6.6826    0.0000 C   0  0  0  0  0  0  0  0  0  0  0  0
    3.7702   -4.6479    0.0000 C   0  0  0  0  0  0  0  0  0  0  0  0
    2.8641   -6.2034    0.0000 C   0  0  0  0  0  0  0  0  0  0  0  0
    2.0000   -6.7067    0.0000 C   0  0  0  0  0  0  0  0  0  0  0  0
    9.2633    2.8017    0.0000 H   0  0  0  0  0  0  0  0  0  0  0  0
    9.2305    1.0638    0.0000 H   0  0  0  0  0  0  0  0  0  0  0  0
    9.3984    1.8761    0.0000 H   0  0  0  0  0  0  0  0  0  0  0  0
    7.9714    4.5982    0.0000 H   0  0  0  0  0  0  0  0  0  0  0  0
    7.9745    3.8011    0.0000 H   0  0  0  0  0  0  0  0  0  0  0  0
    8.6707   -0.4146    0.0000 H   0  0  0  0  0  0  0  0  0  0  0  0
    5.8586    1.1946    0.0000 H   0  0  0  0  0  0  0  0  0  0  0  0
    9.4210    4.6727    0.0000 H   0  0  0  0  0  0  0  0  0  0  0  0
    9.4179    5.4698    0.0000 H   0  0  0  0  0  0  0  0  0  0  0  0
    5.8648   -0.4254    0.0000 H   0  0  0  0  0  0  0  0  0  0  0  0
    7.8105   -1.9179    0.0000 H   0  0  0  0  0  0  0  0  0  0  0  0
    6.1940   -1.5316    0.0000 H   0  0  0  0  0  0  0  0  0  0  0  0
    5.7981   -2.2234    0.0000 H   0  0  0  0  0  0  0  0  0  0  0  0
    4.9736   -3.3373    0.0000 H   0  0  0  0  0  0  0  0  0  0  0  0
    7.8523   -3.3262    0.0000 H   0  0  0  0  0  0  0  0  0  0  0  0
    7.8395   -4.9919    0.0000 H   0  0  0  0  0  0  0  0  0  0  0  0
    6.9331   -6.4926    0.0000 H   0  0  0  0  0  0  0  0  0  0  0  0
   11.0679    4.2116    0.0000 H   0  0  0  0  0  0  0  0  0  0  0  0
    5.5301   -7.3026    0.0000 H   0  0  0  0  0  0  0  0  0  0  0  0
    3.7773   -7.3372    0.0000 H   0  0  0  0  0  0  0  0  0  0  0  0
    8.6258    7.3372    0.0000 H   0  0  0  0  0  0  0  0  0  0  0  0
    1.6879   -6.1710    0.0000 H   0  0  0  0  0  0  0  0  0  0  0  0
    1.4643   -7.0188    0.0000 H   0  0  0  0  0  0  0  0  0  0  0  0
    2.3121   -7.2425    0.0000 H   0  0  0  0  0  0  0  0  0  0  0  0
  1 15  2  0  0  0  0
  2 21  1  0  0  0  0
  2 55  1  0  0  0  0
  3 21  2  0  0  0  0
  4 29  1  0  0  0  0
  4 58  1  0  0  0  0
  5 29  2  0  0  0  0
  6 35  2  0  0  0  0
  7 11  1  0  0  0  0
  7 12  1  0  0  0  0
  7 15  1  0  0  0  0
  8 18  1  0  0  0  0
  8 23  1  0  0  0  0
  8 48  1  0  0  0  0
  9 31  1  0  0  0  0
  9 36  1  0  0  0  0
  9 57  1  0  0  0  0
 10 35  1  0  0  0  0
 10 36  2  0  0  0  0
 11 16  1  6  0  0  0
 11 21  1  0  0  0  0
 11 38  1  0  0  0  0
 12 13  1  0  0  0  0
 12 39  1  0  0  0  0
 12 40  1  0  0  0  0
 13 14  2  0  0  0  0
 13 17  1  0  0  0  0
 14 15  1  0  0  0  0
 14 19  1  0  0  0  0
 16 20  1  0  0  0  0
 16 41  1  0  0  0  0
 16 42  1  0  0  0  0
 17 18  2  0  0  0  0
 17 43  1  0  0  0  0
 18 22  1  0  0  0  0
 19 22  2  0  0  0  0
 19 44  1  0  0  0  0
 20 29  1  0  0  0  0
 20 45  1  0  0  0  0
 20 46  1  0  0  0  0
 22 47  1  0  0  0  0
 23 24  1  0  0  0  0
 23 49  1  0  0  0  0
 23 50  1  0  0  0  0
 24 27  2  0  0  0  0
 24 30  1  0  0  0  0
 25 26  2  0  0  0  0
 25 27  1  0  0  0  0
 25 28  1  0  0  0  0
 26 32  1  0  0  0  0
 26 33  1  0  0  0  0
 27 51  1  0  0  0  0
 28 31  2  0  0  0  0
 28 35  1  0  0  0  0
 30 32  2  0  0  0  0
 30 52  1  0  0  0  0
 31 34  1  0  0  0  0
 32 53  1  0  0  0  0
 33 34  2  0  0  0  0
 33 54  1  0  0  0  0
 34 56  1  0  0  0  0
 36 37  1  0  0  0  0
 37 59  1  0  0  0  0
 37 60  1  0  0  0  0
 37 61  1  0  0  0  0
M  END
> <PUBCHEM_COMPOUND_CID>
60863

> <PUBCHEM_COMPOUND_CANONICALIZED>
1

> <PUBCHEM_CACTVS_COMPLEXITY>
969

> <PUBCHEM_CACTVS_HBOND_ACCEPTOR>
7

> <PUBCHEM_CACTVS_HBOND_DONOR>
4

> <PUBCHEM_CACTVS_ROTATABLE_BOND>
8

> <PUBCHEM_CACTVS_SUBSKEYS>
AAADceB7uAAAAAAAAAAAAAAAAAAAAWAAAAAwYMEAAAAAAFjBVAAAHgAQCAAADCjBmAQzyMPAAgCoAifyfACCAAElAgAJiIGYZMgKIDrA3bGEYYhklgDYyce8r8CeyAACQAASAACQAASAACQAAAAAAAAAAA==

> <PUBCHEM_IUPAC_OPENEYE_NAME>
(2S)-2-[5-[(3-methyl-1-oxo-4H-benzo[f]quinazolin-9-yl)methylamino]-1-oxo-isoindolin-2-yl]pentanedioic acid

> <PUBCHEM_IUPAC_CAS_NAME>
(2S)-2-[6-[(3-methyl-1-oxo-4H-benzo[f]quinazolin-9-yl)methylamino]-3-oxo-1H-isoindol-2-yl]pentanedioic acid

> <PUBCHEM_IUPAC_NAME>
(2S)-2-[6-[(3-methyl-1-oxo-4H-benzo[f]quinazolin-9-yl)methylamino]-3-oxo-1H-isoindol-2-yl]pentanedioic acid

> <PUBCHEM_IUPAC_SYSTEMATIC_NAME>
(2S)-2-[6-[(3-methyl-1-oxidanylidene-4H-benzo[f]quinazolin-9-yl)methylamino]-3-oxidanylidene-1H-isoindol-2-yl]pentanedioic acid

> <PUBCHEM_IUPAC_TRADITIONAL_NAME>
(2S)-2-[1-keto-5-[(1-keto-3-methyl-4H-benzo[f]quinazolin-9-yl)methylamino]isoindolin-2-yl]glutaric acid

> <PUBCHEM_IUPAC_INCHI>
InChI=1S/C27H24N4O6/c1-14-29-21-7-4-16-3-2-15(10-20(16)24(21)25(34)30-14)12-28-18-5-6-19-17(11-18)13-31(26(19)35)22(27(36)37)8-9-23(32)33/h2-7,10-11,22,28H,8-9,12-13H2,1H3,(H,32,33)(H,36,37)(H,29,30,34)/t22-/m0/s1

> <PUBCHEM_IUPAC_INCHIKEY>
BRVFNEZMTRVUGW-QFIPXVFZSA-N

> <PUBCHEM_XLOGP3_AA>
1.9

> <PUBCHEM_EXACT_MASS>
500.169585

> <PUBCHEM_MOLECULAR_FORMULA>
C27H24N4O6

> <PUBCHEM_MOLECULAR_WEIGHT>
500.50266

> <PUBCHEM_OPENEYE_CAN_SMILES>
CC1=NC(=O)C2=C(N1)C=CC3=C2C=C(C=C3)CNC4=CC5=C(C=C4)C(=O)N(C5)C(CCC(=O)O)C(=O)O

> <PUBCHEM_OPENEYE_ISO_SMILES>
CC1=NC(=O)C2=C(N1)C=CC3=C2C=C(C=C3)CNC4=CC5=C(C=C4)C(=O)N(C5)[C@@H](CCC(=O)O)C(=O)O

> <PUBCHEM_CACTVS_TPSA>
148

> <PUBCHEM_MONOISOTOPIC_WEIGHT>
500.169585

> <PUBCHEM_TOTAL_CHARGE>
0

> <PUBCHEM_HEAVY_ATOM_COUNT>
37

> <PUBCHEM_ATOM_DEF_STEREO_COUNT>
1

> <PUBCHEM_ATOM_UDEF_STEREO_COUNT>
0

> <PUBCHEM_BOND_DEF_STEREO_COUNT>
0

> <PUBCHEM_BOND_UDEF_STEREO_COUNT>
0

> <PUBCHEM_ISOTOPIC_ATOM_COUNT>
0

> <PUBCHEM_COMPONENT_COUNT>
1

> <PUBCHEM_CACTVS_TAUTO_COUNT>
30

> <PUBCHEM_COORDINATE_TYPE>
1
5
255

> <PUBCHEM_BONDANNOTATIONS>
10  35  8
10  36  8
11  16  6
13  14  8
13  17  8
14  19  8
17  18  8
18  22  8
19  22  8
24  27  8
24  30  8
25  26  8
25  27  8
25  28  8
26  32  8
26  33  8
28  31  8
28  35  8
30  32  8
31  34  8
33  34  8
9  31  8
9  36  8

$$$$

