1015
  -OEChem-07051212443D

 16 15  0     0  0  0  0  0  0999 V2000
    1.4920    0.0616   -0.0067 P   0  0  0  0  0  0  0  0  0  0  0  0
   -0.0027    0.6779   -0.0231 O   0  0  0  0  0  0  0  0  0  0  0  0
    1.4851   -0.9980   -1.2284 O   0  0  0  0  0  0  0  0  0  0  0  0
    1.4746   -0.8834    1.3054 O   0  0  0  0  0  0  0  0  0  0  0  0
    2.5979    1.0755   -0.0430 O   0  0  0  0  0  0  0  0  0  0  0  0
   -3.5503   -0.2974    0.0006 N   0  0  0  0  0  0  0  0  0  0  0  0
   -1.1037   -0.2209    0.0093 C   0  0  0  0  0  0  0  0  0  0  0  0
   -2.3928    0.5847   -0.0140 C   0  0  0  0  0  0  0  0  0  0  0  0
   -1.0526   -0.8845   -0.8605 H   0  0  0  0  0  0  0  0  0  0  0  0
   -1.0510   -0.8282    0.9190 H   0  0  0  0  0  0  0  0  0  0  0  0
   -2.4272    1.2564    0.8511 H   0  0  0  0  0  0  0  0  0  0  0  0
   -2.4189    1.2236   -0.9042 H   0  0  0  0  0  0  0  0  0  0  0  0
   -3.5358   -0.8980   -0.8228 H   0  0  0  0  0  0  0  0  0  0  0  0
   -4.4012    0.2592   -0.0670 H   0  0  0  0  0  0  0  0  0  0  0  0
    2.3183   -1.4609   -1.4597 H   0  0  0  0  0  0  0  0  0  0  0  0
    2.3093   -1.3101    1.5939 H   0  0  0  0  0  0  0  0  0  0  0  0
  1  2  1  0  0  0  0
  1  3  1  0  0  0  0
  1  4  1  0  0  0  0
  1  5  2  0  0  0  0
  2  7  1  0  0  0  0
  3 15  1  0  0  0  0
  4 16  1  0  0  0  0
  6  8  1  0  0  0  0
  6 13  1  0  0  0  0
  6 14  1  0  0  0  0
  7  8  1  0  0  0  0
  7  9  1  0  0  0  0
  7 10  1  0  0  0  0
  8 11  1  0  0  0  0
  8 12  1  0  0  0  0
M  END
> <PUBCHEM_COMPOUND_CID>
1015

> <PUBCHEM_CONFORMER_RMSD>
0.6

> <PUBCHEM_CONFORMER_DIVERSEORDER>
1
6
5
2
3
4

> <PUBCHEM_MMFF94_PARTIAL_CHARGES>
12
1 1.51
13 0.36
14 0.36
15 0.5
16 0.5
2 -0.55
3 -0.77
4 -0.77
5 -0.7
6 -0.99
7 0.28
8 0.27

> <PUBCHEM_EFFECTIVE_ROTOR_COUNT>
3

> <PUBCHEM_PHARMACOPHORE_FEATURES>
6
1 3 acceptor
1 4 acceptor
1 5 acceptor
1 6 cation
1 6 donor
4 1 3 4 5 anion

> <PUBCHEM_HEAVY_ATOM_COUNT>
8

> <PUBCHEM_ATOM_DEF_STEREO_COUNT>
0

> <PUBCHEM_ATOM_UDEF_STEREO_COUNT>
0

> <PUBCHEM_BOND_DEF_STEREO_COUNT>
0

> <PUBCHEM_BOND_UDEF_STEREO_COUNT>
0

> <PUBCHEM_ISOTOPIC_ATOM_COUNT>
0

> <PUBCHEM_COMPONENT_COUNT>
1

> <PUBCHEM_CACTVS_TAUTO_COUNT>
1

> <PUBCHEM_CONFORMER_ID>
000003F700000001

> <PUBCHEM_MMFF94_ENERGY>
-29.1297

> <PUBCHEM_FEATURE_SELFOVERLAP>
30.482

> <PUBCHEM_SHAPE_FINGERPRINT>
12932764 1 18060133293125214037
14390081 3 18201720656545012925
170605 34 18339641144506996236
23235685 24 17967536748406985549
23552449 11 18270688674237235002
24536 1 18042131014607311372
29004967 10 17894630370157857505
3248919 1 18113906000213796457
5460574 1 9151177549683074509

> <PUBCHEM_SHAPE_MULTIPOLES>
140.03
4.54
0.99
0.9
3.37
0.02
-0.03
0.28
0.02
-0.45
0.03
-0.51
-0.31
0

> <PUBCHEM_SHAPE_SELFOVERLAP>
239.692

> <PUBCHEM_SHAPE_VOLUME>
94.1

> <PUBCHEM_COORDINATE_TYPE>
2
5
10

$$$$

