54682651
  -OEChem-07051213093D

 39 41  0     1  0  0  0  0  0999 V2000
    5.4026   -2.9835    0.0347 Cl  0  0  0  0  0  0  0  0  0  0  0  0
   -2.3838    0.1764    1.6582 O   0  0  0  0  0  0  0  0  0  0  0  0
   -0.2338   -0.6118   -1.8448 O   0  0  0  0  0  0  0  0  0  0  0  0
   -0.6863    1.4720    2.4417 O   0  0  0  0  0  0  0  0  0  0  0  0
   -0.3689    3.6177    0.3900 O   0  0  0  0  0  0  0  0  0  0  0  0
    1.0029    1.1361    0.2656 C   0  0  2  0  0  0  0  0  0  0  0  0
   -0.3508    0.4797    0.3039 C   0  0  0  0  0  0  0  0  0  0  0  0
    1.0796    2.1556   -0.8878 C   0  0  0  0  0  0  0  0  0  0  0  0
    2.1131    0.0978    0.2069 C   0  0  0  0  0  0  0  0  0  0  0  0
   -0.8699   -0.3033   -0.6612 C   0  0  0  0  0  0  0  0  0  0  0  0
   -2.1987   -0.9013   -0.5115 C   0  0  0  0  0  0  0  0  0  0  0  0
   -1.1284    0.7582    1.5466 C   0  0  0  0  0  0  0  0  0  0  0  0
    0.3060    3.4403   -0.6229 C   0  0  0  0  0  0  0  0  0  0  0  0
    2.5967   -0.4730    1.3842 C   0  0  0  0  0  0  0  0  0  0  0  0
    2.6473   -0.2837   -1.0238 C   0  0  0  0  0  0  0  0  0  0  0  0
   -2.9186   -0.6425    0.6495 C   0  0  0  0  0  0  0  0  0  0  0  0
   -2.7898   -1.7256   -1.4788 C   0  0  0  0  0  0  0  0  0  0  0  0
    3.6146   -1.4251    1.3309 C   0  0  0  0  0  0  0  0  0  0  0  0
    3.6654   -1.2357   -1.0773 C   0  0  0  0  0  0  0  0  0  0  0  0
    0.3688    4.4874   -1.7046 C   0  0  0  0  0  0  0  0  0  0  0  0
   -4.1903   -1.1732    0.8713 C   0  0  0  0  0  0  0  0  0  0  0  0
    4.1489   -1.8064    0.1001 C   0  0  0  0  0  0  0  0  0  0  0  0
   -4.0637   -2.2661   -1.2724 C   0  0  0  0  0  0  0  0  0  0  0  0
   -4.7628   -1.9902   -0.0984 C   0  0  0  0  0  0  0  0  0  0  0  0
    1.1992    1.7108    1.1798 H   0  0  0  0  0  0  0  0  0  0  0  0
    0.7179    1.7519   -1.8395 H   0  0  0  0  0  0  0  0  0  0  0  0
    2.1226    2.4675   -1.0336 H   0  0  0  0  0  0  0  0  0  0  0  0
    2.1880   -0.1857    2.3494 H   0  0  0  0  0  0  0  0  0  0  0  0
    2.3022    0.1353   -1.9633 H   0  0  0  0  0  0  0  0  0  0  0  0
   -2.2834   -1.9861   -2.4039 H   0  0  0  0  0  0  0  0  0  0  0  0
    3.9811   -1.8620    2.2563 H   0  0  0  0  0  0  0  0  0  0  0  0
    4.0724   -1.5239   -2.0432 H   0  0  0  0  0  0  0  0  0  0  0  0
    1.4101    4.7638   -1.8877 H   0  0  0  0  0  0  0  0  0  0  0  0
   -0.1799    5.3787   -1.3876 H   0  0  0  0  0  0  0  0  0  0  0  0
   -0.0847    4.0967   -2.6187 H   0  0  0  0  0  0  0  0  0  0  0  0
   -4.7311   -0.9553    1.7873 H   0  0  0  0  0  0  0  0  0  0  0  0
   -4.5080   -2.9067   -2.0291 H   0  0  0  0  0  0  0  0  0  0  0  0
   -0.8777   -0.5654   -2.5703 H   0  0  0  0  0  0  0  0  0  0  0  0
   -5.7509   -2.4123    0.0585 H   0  0  0  0  0  0  0  0  0  0  0  0
  1 22  1  0  0  0  0
  2 12  1  0  0  0  0
  2 16  1  0  0  0  0
  3 10  1  0  0  0  0
  3 38  1  0  0  0  0
  4 12  2  0  0  0  0
  5 13  2  0  0  0  0
  6  7  1  0  0  0  0
  6  8  1  0  0  0  0
  6  9  1  0  0  0  0
  6 25  1  0  0  0  0
  7 10  2  0  0  0  0
  7 12  1  0  0  0  0
  8 13  1  0  0  0  0
  8 26  1  0  0  0  0
  8 27  1  0  0  0  0
  9 14  2  0  0  0  0
  9 15  1  0  0  0  0
 10 11  1  0  0  0  0
 11 16  1  0  0  0  0
 11 17  2  0  0  0  0
 13 20  1  0  0  0  0
 14 18  1  0  0  0  0
 14 28  1  0  0  0  0
 15 19  2  0  0  0  0
 15 29  1  0  0  0  0
 16 21  2  0  0  0  0
 17 23  1  0  0  0  0
 17 30  1  0  0  0  0
 18 22  2  0  0  0  0
 18 31  1  0  0  0  0
 19 22  1  0  0  0  0
 19 32  1  0  0  0  0
 20 33  1  0  0  0  0
 20 34  1  0  0  0  0
 20 35  1  0  0  0  0
 21 24  1  0  0  0  0
 21 36  1  0  0  0  0
 23 24  2  0  0  0  0
 23 37  1  0  0  0  0
 24 39  1  0  0  0  0
M  END
> <PUBCHEM_COMPOUND_CID>
54682651

> <PUBCHEM_CONFORMER_RMSD>
0.8

> <PUBCHEM_CONFORMER_DIVERSEORDER>
2
24
25
15
16
26
9
27
28
29
14
22
1
13
10
21
8
6
7
18
19
12
11
5
23
3
20
17
4

> <PUBCHEM_MMFF94_PARTIAL_CHARGES>
33
1 -0.18
10 0.05
11 0.03
12 0.71
13 0.45
14 -0.15
15 -0.15
16 0.08
17 -0.15
18 -0.15
19 -0.15
2 -0.23
20 0.06
21 -0.15
22 0.18
23 -0.15
24 -0.15
28 0.15
29 0.15
3 -0.53
30 0.15
31 0.15
32 0.15
36 0.15
37 0.15
38 0.45
39 0.15
4 -0.57
5 -0.57
6 0.28
7 -0.12
8 0.06
9 -0.14

> <PUBCHEM_EFFECTIVE_ROTOR_COUNT>
4

> <PUBCHEM_PHARMACOPHORE_FEATURES>
6
1 3 donor
1 4 acceptor
1 5 acceptor
6 11 16 17 21 23 24 rings
6 2 7 10 11 12 16 rings
6 9 14 15 18 19 22 rings

> <PUBCHEM_HEAVY_ATOM_COUNT>
24

> <PUBCHEM_ATOM_DEF_STEREO_COUNT>
0

> <PUBCHEM_ATOM_UDEF_STEREO_COUNT>
1

> <PUBCHEM_BOND_DEF_STEREO_COUNT>
0

> <PUBCHEM_BOND_UDEF_STEREO_COUNT>
0

> <PUBCHEM_ISOTOPIC_ATOM_COUNT>
0

> <PUBCHEM_COMPONENT_COUNT>
1

> <PUBCHEM_CACTVS_TAUTO_COUNT>
9

> <PUBCHEM_CONFORMER_ID>
0342641B00000002

> <PUBCHEM_MMFF94_ENERGY>
74.4614

> <PUBCHEM_FEATURE_SELFOVERLAP>
30.473

> <PUBCHEM_SHAPE_FINGERPRINT>
11045515 52 18272653454292835100
11101153 10 18272926138637217580
11578080 2 18188510015442064352
11582403 64 14856385296719398369
12363563 72 18343305872618216434
12553582 1 18413103961639579050
12633257 1 15357989936189407002
12714826 92 18117839026500058890
12788726 201 17842006768584431752
13004483 165 18410579521533139712
13009979 54 17969201417691017906
13083527 12 18340785753871856648
13533116 47 18126281931709470611
13583140 156 15575007233532806394
13681431 1 18270686346476256508
13911987 19 17557115356713715380
13955234 65 17977663104960440611
15219462 58 17411576296526433193
15906896 17 17626665260469596504
17349148 13 17603584085199548727
17539 30 18198069285777081708
17818456 19 18041544915434578841
1813 80 18408599253810153302
18915476 22 17697584507732405281
19319366 153 17107917426852707623
200 152 17774999133185725610
20361792 2 18413669119247888314
20602899 9 17541108996468694336
20626108 58 18335992973505544179
20671657 53 18341616988308257519
2255824 54 18123469380062844638
23419403 2 17534944902270739177
23559900 14 18266467499365535587
23598288 3 17841410833841372348
3057174 1 17335895695304678052
394222 165 17684928003420190425
4409770 3 17981329207002643005
463206 1 17988655094001954219
484985 159 17911527806783365870
5104073 3 17314222268744543611
6786 2 17113257196256161161
7471813 234 18272927241794816676
7970288 3 18411980269241165794

> <PUBCHEM_SHAPE_MULTIPOLES>
472.3
8.47
4.15
1.78
1.76
5.76
0.36
-11.95
-0.17
1.17
-1.77
-0.5
0.34
-1.06

> <PUBCHEM_SHAPE_SELFOVERLAP>
1020.754

> <PUBCHEM_SHAPE_VOLUME>
257.7

> <PUBCHEM_COORDINATE_TYPE>
2
5
10

$$$$

