9112
  -OEChem-06261203252D

 43 49  0     0  0  0  0  0  0999 V2000
    4.9174    0.9408    0.0000 N   0  0  0  0  0  0  0  0  0  0  0  0
    6.6934   -1.0661    0.0000 C   0  0  0  0  0  0  0  0  0  0  0  0
    5.8274   -0.5661    0.0000 C   0  0  0  0  0  0  0  0  0  0  0  0
    6.7095   -2.1076    0.0000 C   0  0  0  0  0  0  0  0  0  0  0  0
    7.5594   -0.5661    0.0000 C   0  0  0  0  0  0  0  0  0  0  0  0
    5.8274    0.4339    0.0000 C   0  0  0  0  0  0  0  0  0  0  0  0
    6.6934    0.9339    0.0000 C   0  0  0  0  0  0  0  0  0  0  0  0
    5.8114   -2.6353    0.0000 C   0  0  0  0  0  0  0  0  0  0  0  0
    7.5866   -2.5703    0.0000 C   0  0  0  0  0  0  0  0  0  0  0  0
    7.5594    0.4339    0.0000 C   0  0  0  0  0  0  0  0  0  0  0  0
    4.9174   -1.0729    0.0000 C   0  0  0  0  0  0  0  0  0  0  0  0
    4.9094    1.9824    0.0000 C   0  0  0  0  0  0  0  0  0  0  0  0
    5.8114    2.5032    0.0000 C   0  0  0  0  0  0  0  0  0  0  0  0
    8.4189   -1.0608    0.0000 C   0  0  0  0  0  0  0  0  0  0  0  0
    6.7095    1.9754    0.0000 C   0  0  0  0  0  0  0  0  0  0  0  0
    4.9094   -2.1145    0.0000 C   0  0  0  0  0  0  0  0  0  0  0  0
    8.4323   -2.0524    0.0000 C   0  0  0  0  0  0  0  0  0  0  0  0
    3.9615    2.5103    0.0000 C   0  0  0  0  0  0  0  0  0  0  0  0
    5.8375   -3.6768    0.0000 C   0  0  0  0  0  0  0  0  0  0  0  0
    7.6368   -3.6109    0.0000 C   0  0  0  0  0  0  0  0  0  0  0  0
    3.9531    3.5953    0.0000 C   0  0  0  0  0  0  0  0  0  0  0  0
    5.8282    3.5881    0.0000 C   0  0  0  0  0  0  0  0  0  0  0  0
    6.7563   -4.1679    0.0000 C   0  0  0  0  0  0  0  0  0  0  0  0
    4.8928    4.1378    0.0000 C   0  0  0  0  0  0  0  0  0  0  0  0
    2.9961    1.9228    0.0000 C   0  0  0  0  0  0  0  0  0  0  0  0
    2.9787    4.1679    0.0000 C   0  0  0  0  0  0  0  0  0  0  0  0
    2.0087    2.4727    0.0000 C   0  0  0  0  0  0  0  0  0  0  0  0
    2.0000    3.6028    0.0000 C   0  0  0  0  0  0  0  0  0  0  0  0
    8.0964    0.7439    0.0000 H   0  0  0  0  0  0  0  0  0  0  0  0
    4.3841   -0.7567    0.0000 H   0  0  0  0  0  0  0  0  0  0  0  0
    7.2500    2.2792    0.0000 H   0  0  0  0  0  0  0  0  0  0  0  0
    8.9535   -0.7469    0.0000 H   0  0  0  0  0  0  0  0  0  0  0  0
    4.3712   -2.4224    0.0000 H   0  0  0  0  0  0  0  0  0  0  0  0
    8.9753   -2.3518    0.0000 H   0  0  0  0  0  0  0  0  0  0  0  0
    5.3098   -4.0022    0.0000 H   0  0  0  0  0  0  0  0  0  0  0  0
    8.1869   -3.8968    0.0000 H   0  0  0  0  0  0  0  0  0  0  0  0
    6.3687    3.8918    0.0000 H   0  0  0  0  0  0  0  0  0  0  0  0
    6.7790   -4.7875    0.0000 H   0  0  0  0  0  0  0  0  0  0  0  0
    4.8951    4.7578    0.0000 H   0  0  0  0  0  0  0  0  0  0  0  0
    3.0080    1.3029    0.0000 H   0  0  0  0  0  0  0  0  0  0  0  0
    2.9811    4.7879    0.0000 H   0  0  0  0  0  0  0  0  0  0  0  0
    1.4754    2.1565    0.0000 H   0  0  0  0  0  0  0  0  0  0  0  0
    1.4619    3.9107    0.0000 H   0  0  0  0  0  0  0  0  0  0  0  0
  1  6  1  0  0  0  0
  1 12  2  0  0  0  0
  2  3  2  0  0  0  0
  2  4  1  0  0  0  0
  2  5  1  0  0  0  0
  3  6  1  0  0  0  0
  3 11  1  0  0  0  0
  4  8  1  0  0  0  0
  4  9  2  0  0  0  0
  5 10  2  0  0  0  0
  5 14  1  0  0  0  0
  6  7  2  0  0  0  0
  7 10  1  0  0  0  0
  7 15  1  0  0  0  0
  8 16  1  0  0  0  0
  8 19  2  0  0  0  0
  9 17  1  0  0  0  0
  9 20  1  0  0  0  0
 10 29  1  0  0  0  0
 11 16  2  0  0  0  0
 11 30  1  0  0  0  0
 12 13  1  0  0  0  0
 12 18  1  0  0  0  0
 13 15  2  0  0  0  0
 13 22  1  0  0  0  0
 14 17  2  0  0  0  0
 14 32  1  0  0  0  0
 15 31  1  0  0  0  0
 16 33  1  0  0  0  0
 17 34  1  0  0  0  0
 18 21  1  0  0  0  0
 18 25  2  0  0  0  0
 19 23  1  0  0  0  0
 19 35  1  0  0  0  0
 20 23  2  0  0  0  0
 20 36  1  0  0  0  0
 21 24  1  0  0  0  0
 21 26  2  0  0  0  0
 22 24  2  0  0  0  0
 22 37  1  0  0  0  0
 23 38  1  0  0  0  0
 24 39  1  0  0  0  0
 25 27  1  0  0  0  0
 25 40  1  0  0  0  0
 26 28  1  0  0  0  0
 26 41  1  0  0  0  0
 27 28  2  0  0  0  0
 27 42  1  0  0  0  0
 28 43  1  0  0  0  0
M  END
> <PUBCHEM_COMPOUND_CID>
9112

> <PUBCHEM_COMPOUND_CANONICALIZED>
1

> <PUBCHEM_CACTVS_COMPLEXITY>
599

> <PUBCHEM_CACTVS_HBOND_ACCEPTOR>
1

> <PUBCHEM_CACTVS_HBOND_DONOR>
0

> <PUBCHEM_CACTVS_ROTATABLE_BOND>
0

> <PUBCHEM_CACTVS_SUBSKEYS>
AAADccB6AAAAAAAAAAAAAAAAAAAAAAAAAAA8YMGDAAAAAADx/AAAHAAAAAAADAiBHgAwwPIIEACgAyRiRACCgCAhACAImCAgRJgIIOLAkZGEIAhggADIyAcQgMAOyAACQAASAACQAASAACQAAAAAAAAAAA==

> <PUBCHEM_IUPAC_INCHI>
InChI=1S/C27H15N/c1-2-7-22-16(4-1)8-11-20-15-21-14-19-10-9-17-5-3-6-18-12-13-23(25(19)24(17)18)27(21)28-26(20)22/h1-15H

> <PUBCHEM_IUPAC_INCHIKEY>
LSOXDMMVEWWGSX-UHFFFAOYSA-N

> <PUBCHEM_XLOGP3_AA>
7.9

> <PUBCHEM_EXACT_MASS>
353.120449

> <PUBCHEM_MOLECULAR_FORMULA>
C27H15N

> <PUBCHEM_MOLECULAR_WEIGHT>
353.4147

> <PUBCHEM_OPENEYE_CAN_SMILES>
C1=CC=C2C(=C1)C=CC3=CC4=C(C5=C6C(=C4)C=CC7=C6C(=CC=C7)C=C5)N=C32

> <PUBCHEM_OPENEYE_ISO_SMILES>
C1=CC=C2C(=C1)C=CC3=CC4=C(C5=C6C(=C4)C=CC7=C6C(=CC=C7)C=C5)N=C32

> <PUBCHEM_CACTVS_TPSA>
12.9

> <PUBCHEM_MONOISOTOPIC_WEIGHT>
353.120449

> <PUBCHEM_TOTAL_CHARGE>
0

> <PUBCHEM_HEAVY_ATOM_COUNT>
28

> <PUBCHEM_ATOM_DEF_STEREO_COUNT>
0

> <PUBCHEM_ATOM_UDEF_STEREO_COUNT>
0

> <PUBCHEM_BOND_DEF_STEREO_COUNT>
0

> <PUBCHEM_BOND_UDEF_STEREO_COUNT>
0

> <PUBCHEM_ISOTOPIC_ATOM_COUNT>
0

> <PUBCHEM_COMPONENT_COUNT>
1

> <PUBCHEM_CACTVS_TAUTO_COUNT>
1

> <PUBCHEM_COORDINATE_TYPE>
1
5
255

> <PUBCHEM_BONDANNOTATIONS>
1  12  8
1  6  8
11  16  8
12  13  8
12  18  8
13  15  8
13  22  8
14  17  8
18  21  8
18  25  8
19  23  8
2  3  8
2  4  8
2  5  8
20  23  8
21  24  8
21  26  8
22  24  8
25  27  8
26  28  8
27  28  8
3  11  8
3  6  8
4  8  8
4  9  8
5  10  8
5  14  8
6  7  8
7  10  8
7  15  8
8  16  8
8  19  8
9  17  8
9  20  8

$$$$

