586280
  -OEChem-06241222462D

 34 35  0     0  0  0  0  0  0999 V2000
    5.4641    0.7306    0.0000 O   0  0  0  0  0  0  0  0  0  0  0  0
    3.7320   -0.2694    0.0000 O   0  0  0  0  0  0  0  0  0  0  0  0
    6.8301    3.7694    0.0000 O   0  0  0  0  0  0  0  0  0  0  0  0
    8.0902    2.5094    0.0000 O   0  5  0  0  0  0  0  0  0  0  0  0
    6.3301   -3.7694    0.0000 O   0  0  0  0  0  0  0  0  0  0  0  0
    7.1391    2.8184    0.0000 N   0  3  0  0  0  0  0  0  0  0  0  0
    5.8301    3.7694    0.0000 N   0  0  0  0  0  0  0  0  0  0  0  0
    6.3301    1.2306    0.0000 C   0  0  0  0  0  0  0  0  0  0  0  0
    6.3301    2.2306    0.0000 C   0  0  0  0  0  0  0  0  0  0  0  0
    5.4641   -0.2694    0.0000 C   0  0  0  0  0  0  0  0  0  0  0  0
    4.5981   -0.7694    0.0000 C   0  0  0  0  0  0  0  0  0  0  0  0
    5.5211    2.8184    0.0000 C   0  0  0  0  0  0  0  0  0  0  0  0
    6.3301   -0.7694    0.0000 C   0  0  0  0  0  0  0  0  0  0  0  0
    4.5981   -1.7694    0.0000 C   0  0  0  0  0  0  0  0  0  0  0  0
    5.4641   -2.2694    0.0000 C   0  0  0  0  0  0  0  0  0  0  0  0
    6.3301   -1.7694    0.0000 C   0  0  0  0  0  0  0  0  0  0  0  0
    4.5700    2.5094    0.0000 C   0  0  0  0  0  0  0  0  0  0  0  0
    2.8660   -0.7694    0.0000 C   0  0  0  0  0  0  0  0  0  0  0  0
    2.0000   -0.2694    0.0000 C   0  0  0  0  0  0  0  0  0  0  0  0
    5.4641   -3.2694    0.0000 C   0  0  0  0  0  0  0  0  0  0  0  0
    6.5422    0.6480    0.0000 H   0  0  0  0  0  0  0  0  0  0  0  0
    6.9407    1.3382    0.0000 H   0  0  0  0  0  0  0  0  0  0  0  0
    6.8671   -0.4594    0.0000 H   0  0  0  0  0  0  0  0  0  0  0  0
    4.0611   -2.0794    0.0000 H   0  0  0  0  0  0  0  0  0  0  0  0
    6.8671   -2.0794    0.0000 H   0  0  0  0  0  0  0  0  0  0  0  0
    4.3785    3.0990    0.0000 H   0  0  0  0  0  0  0  0  0  0  0  0
    3.9804    2.3178    0.0000 H   0  0  0  0  0  0  0  0  0  0  0  0
    4.7616    1.9197    0.0000 H   0  0  0  0  0  0  0  0  0  0  0  0
    2.4675   -1.2444    0.0000 H   0  0  0  0  0  0  0  0  0  0  0  0
    3.2646   -1.2444    0.0000 H   0  0  0  0  0  0  0  0  0  0  0  0
    2.3100    0.2675    0.0000 H   0  0  0  0  0  0  0  0  0  0  0  0
    1.4631    0.0406    0.0000 H   0  0  0  0  0  0  0  0  0  0  0  0
    1.6900   -0.8064    0.0000 H   0  0  0  0  0  0  0  0  0  0  0  0
    4.9272   -3.5794    0.0000 H   0  0  0  0  0  0  0  0  0  0  0  0
  1  8  1  0  0  0  0
  1 10  1  0  0  0  0
  2 11  1  0  0  0  0
  2 18  1  0  0  0  0
  3  6  1  0  0  0  0
  3  7  1  0  0  0  0
  4  6  1  0  0  0  0
  5 20  2  0  0  0  0
  6  9  2  0  0  0  0
  7 12  2  0  0  0  0
  8  9  1  0  0  0  0
  8 21  1  0  0  0  0
  8 22  1  0  0  0  0
  9 12  1  0  0  0  0
 10 11  2  0  0  0  0
 10 13  1  0  0  0  0
 11 14  1  0  0  0  0
 12 17  1  0  0  0  0
 13 16  2  0  0  0  0
 13 23  1  0  0  0  0
 14 15  2  0  0  0  0
 14 24  1  0  0  0  0
 15 16  1  0  0  0  0
 15 20  1  0  0  0  0
 16 25  1  0  0  0  0
 17 26  1  0  0  0  0
 17 27  1  0  0  0  0
 17 28  1  0  0  0  0
 18 19  1  0  0  0  0
 18 29  1  0  0  0  0
 18 30  1  0  0  0  0
 19 31  1  0  0  0  0
 19 32  1  0  0  0  0
 19 33  1  0  0  0  0
 20 34  1  0  0  0  0
M  CHG  2   4  -1   6   1
M  END
> <PUBCHEM_COMPOUND_CID>
586280

> <PUBCHEM_COMPOUND_CANONICALIZED>
1

> <PUBCHEM_CACTVS_COMPLEXITY>
317

> <PUBCHEM_CACTVS_HBOND_ACCEPTOR>
6

> <PUBCHEM_CACTVS_HBOND_DONOR>
0

> <PUBCHEM_CACTVS_ROTATABLE_BOND>
6

> <PUBCHEM_CACTVS_SUBSKEYS>
AAADccBzOAAAAAAAAAAAAAAAAAAAAWAAAAAwAAAAAAAAAAABwAAAHgAEAAAADAyhngIyhpAQZACpAyxywwQCCAQkMAAomAE22MoPZjKENRqDOSKmwJEKqYeKzBDOIAABAAAAQABAAAIAAACAAAAAAAAAAA==

> <PUBCHEM_IUPAC_OPENEYE_NAME>
3-ethoxy-4-[(4-methyl-2-oxido-1,2,5-oxadiazol-2-ium-3-yl)methoxy]benzaldehyde

> <PUBCHEM_IUPAC_CAS_NAME>
3-ethoxy-4-[(4-methyl-2-oxido-1,2,5-oxadiazol-2-ium-3-yl)methoxy]benzaldehyde

> <PUBCHEM_IUPAC_NAME>
3-ethoxy-4-[(4-methyl-2-oxido-1,2,5-oxadiazol-2-ium-3-yl)methoxy]benzaldehyde

> <PUBCHEM_IUPAC_SYSTEMATIC_NAME>
3-ethoxy-4-[(4-methyl-2-oxidanidyl-1,2,5-oxadiazol-2-ium-3-yl)methoxy]benzaldehyde

> <PUBCHEM_IUPAC_TRADITIONAL_NAME>
3-ethoxy-4-[(4-methyl-2-oxido-furazan-2-ium-3-yl)methoxy]benzaldehyde

> <PUBCHEM_IUPAC_INCHI>
InChI=1S/C13H14N2O5/c1-3-18-13-6-10(7-16)4-5-12(13)19-8-11-9(2)14-20-15(11)17/h4-7H,3,8H2,1-2H3

> <PUBCHEM_IUPAC_INCHIKEY>
CMWOXUDGVIIZIJ-UHFFFAOYSA-N

> <PUBCHEM_XLOGP3_AA>
1.7

> <PUBCHEM_EXACT_MASS>
278.090272

> <PUBCHEM_MOLECULAR_FORMULA>
C13H14N2O5

> <PUBCHEM_MOLECULAR_WEIGHT>
278.26066

> <PUBCHEM_OPENEYE_CAN_SMILES>
CCOC1=C(C=CC(=C1)C=O)OCC2=[N+](ON=C2C)[O-]

> <PUBCHEM_OPENEYE_ISO_SMILES>
CCOC1=C(C=CC(=C1)C=O)OCC2=[N+](ON=C2C)[O-]

> <PUBCHEM_CACTVS_TPSA>
87

> <PUBCHEM_MONOISOTOPIC_WEIGHT>
278.090272

> <PUBCHEM_TOTAL_CHARGE>
0

> <PUBCHEM_HEAVY_ATOM_COUNT>
20

> <PUBCHEM_ATOM_DEF_STEREO_COUNT>
0

> <PUBCHEM_ATOM_UDEF_STEREO_COUNT>
0

> <PUBCHEM_BOND_DEF_STEREO_COUNT>
0

> <PUBCHEM_BOND_UDEF_STEREO_COUNT>
0

> <PUBCHEM_ISOTOPIC_ATOM_COUNT>
0

> <PUBCHEM_COMPONENT_COUNT>
1

> <PUBCHEM_CACTVS_TAUTO_COUNT>
1

> <PUBCHEM_COORDINATE_TYPE>
1
5
255

> <PUBCHEM_BONDANNOTATIONS>
10  11  8
10  13  8
11  14  8
13  16  8
14  15  8
15  16  8
3  6  8
3  7  8
6  9  8
7  12  8
9  12  8

$$$$

