54676038
  -OEChem-07051212453D

 37 40  0     0  0  0  0  0  0999 V2000
    2.4050   -1.8146    0.3757 O   0  0  0  0  0  0  0  0  0  0  0  0
   -2.4069    1.8164    0.3708 O   0  0  0  0  0  0  0  0  0  0  0  0
    2.2154    1.9620   -1.4175 O   0  0  0  0  0  0  0  0  0  0  0  0
   -2.2113   -1.9684   -1.4044 O   0  0  0  0  0  0  0  0  0  0  0  0
    0.4363   -2.4066   -0.5979 O   0  0  0  0  0  0  0  0  0  0  0  0
   -0.4350    2.4040   -0.5991 O   0  0  0  0  0  0  0  0  0  0  0  0
    0.0113   -0.0057   -1.9012 C   0  0  0  0  0  0  0  0  0  0  0  0
    1.2230   -0.2094   -1.0683 C   0  0  0  0  0  0  0  0  0  0  0  0
   -1.2201    0.2046   -1.0620 C   0  0  0  0  0  0  0  0  0  0  0  0
   -2.1942   -0.7029   -0.8580 C   0  0  0  0  0  0  0  0  0  0  0  0
    2.1964    0.6990   -0.8653 C   0  0  0  0  0  0  0  0  0  0  0  0
   -3.3466   -0.3916   -0.0092 C   0  0  0  0  0  0  0  0  0  0  0  0
    3.3460    0.3918   -0.0112 C   0  0  0  0  0  0  0  0  0  0  0  0
   -3.4183    0.8644    0.5829 C   0  0  0  0  0  0  0  0  0  0  0  0
    3.4155   -0.8616    0.5868 C   0  0  0  0  0  0  0  0  0  0  0  0
   -1.3026    1.5530   -0.4282 C   0  0  0  0  0  0  0  0  0  0  0  0
    1.3034   -1.5548   -0.4281 C   0  0  0  0  0  0  0  0  0  0  0  0
   -4.3888   -1.2945    0.2424 C   0  0  0  0  0  0  0  0  0  0  0  0
    4.3874    1.2957    0.2397 C   0  0  0  0  0  0  0  0  0  0  0  0
    4.4756   -1.2342    1.4146 C   0  0  0  0  0  0  0  0  0  0  0  0
   -4.4811    1.2408    1.4053 C   0  0  0  0  0  0  0  0  0  0  0  0
    5.4574    0.9388    1.0674 C   0  0  0  0  0  0  0  0  0  0  0  0
   -5.4617   -0.9338    1.0647 C   0  0  0  0  0  0  0  0  0  0  0  0
    5.5010   -0.3250    1.6543 C   0  0  0  0  0  0  0  0  0  0  0  0
   -5.5073    0.3327    1.6457 C   0  0  0  0  0  0  0  0  0  0  0  0
   -0.1010   -0.8513   -2.5901 H   0  0  0  0  0  0  0  0  0  0  0  0
    0.1150    0.8378   -2.5937 H   0  0  0  0  0  0  0  0  0  0  0  0
   -4.3876   -2.2910   -0.1928 H   0  0  0  0  0  0  0  0  0  0  0  0
    4.3877    2.2902   -0.2000 H   0  0  0  0  0  0  0  0  0  0  0  0
   -4.5124    2.2285    1.8553 H   0  0  0  0  0  0  0  0  0  0  0  0
    4.5055   -2.2198    1.8693 H   0  0  0  0  0  0  0  0  0  0  0  0
   -6.2623   -1.6441    1.2510 H   0  0  0  0  0  0  0  0  0  0  0  0
    6.2573    1.6500    1.2531 H   0  0  0  0  0  0  0  0  0  0  0  0
   -6.3416    0.6091    2.2834 H   0  0  0  0  0  0  0  0  0  0  0  0
    6.3332   -0.5984    2.2961 H   0  0  0  0  0  0  0  0  0  0  0  0
    1.3945    2.1186   -1.9084 H   0  0  0  0  0  0  0  0  0  0  0  0
   -1.3901   -2.1248   -1.8948 H   0  0  0  0  0  0  0  0  0  0  0  0
  1 15  1  0  0  0  0
  1 17  1  0  0  0  0
  2 14  1  0  0  0  0
  2 16  1  0  0  0  0
  3 11  1  0  0  0  0
  3 36  1  0  0  0  0
  4 10  1  0  0  0  0
  4 37  1  0  0  0  0
  5 17  2  0  0  0  0
  6 16  2  0  0  0  0
  7  8  1  0  0  0  0
  7  9  1  0  0  0  0
  7 26  1  0  0  0  0
  7 27  1  0  0  0  0
  8 11  2  0  0  0  0
  8 17  1  0  0  0  0
  9 10  2  0  0  0  0
  9 16  1  0  0  0  0
 10 12  1  0  0  0  0
 11 13  1  0  0  0  0
 12 14  1  0  0  0  0
 12 18  2  0  0  0  0
 13 15  1  0  0  0  0
 13 19  2  0  0  0  0
 14 21  2  0  0  0  0
 15 20  2  0  0  0  0
 18 23  1  0  0  0  0
 18 28  1  0  0  0  0
 19 22  1  0  0  0  0
 19 29  1  0  0  0  0
 20 24  1  0  0  0  0
 20 31  1  0  0  0  0
 21 25  1  0  0  0  0
 21 30  1  0  0  0  0
 22 24  2  0  0  0  0
 22 33  1  0  0  0  0
 23 25  2  0  0  0  0
 23 32  1  0  0  0  0
 24 35  1  0  0  0  0
 25 34  1  0  0  0  0
M  END
> <PUBCHEM_COMPOUND_CID>
54676038

> <PUBCHEM_CONFORMER_RMSD>
0.6

> <PUBCHEM_CONFORMER_DIVERSEORDER>
1
7
8
12
4
11
3
2
9
10
5
6

> <PUBCHEM_MMFF94_PARTIAL_CHARGES>
35
1 -0.23
10 0.05
11 0.05
12 0.03
13 0.03
14 0.08
15 0.08
16 0.71
17 0.71
18 -0.15
19 -0.15
2 -0.23
20 -0.15
21 -0.15
22 -0.15
23 -0.15
24 -0.15
25 -0.15
28 0.15
29 0.15
3 -0.53
30 0.15
31 0.15
32 0.15
33 0.15
34 0.15
35 0.15
36 0.45
37 0.45
4 -0.53
5 -0.57
6 -0.57
7 0.28
8 -0.12
9 -0.12

> <PUBCHEM_EFFECTIVE_ROTOR_COUNT>
2

> <PUBCHEM_PHARMACOPHORE_FEATURES>
8
1 3 donor
1 4 donor
1 5 acceptor
1 6 acceptor
6 1 8 11 13 15 17 rings
6 12 14 18 21 23 25 rings
6 13 15 19 20 22 24 rings
6 2 9 10 12 14 16 rings

> <PUBCHEM_HEAVY_ATOM_COUNT>
25

> <PUBCHEM_ATOM_DEF_STEREO_COUNT>
0

> <PUBCHEM_ATOM_UDEF_STEREO_COUNT>
0

> <PUBCHEM_BOND_DEF_STEREO_COUNT>
0

> <PUBCHEM_BOND_UDEF_STEREO_COUNT>
0

> <PUBCHEM_ISOTOPIC_ATOM_COUNT>
0

> <PUBCHEM_COMPONENT_COUNT>
1

> <PUBCHEM_CACTVS_TAUTO_COUNT>
6

> <PUBCHEM_CONFORMER_ID>
03424A4600000001

> <PUBCHEM_MMFF94_ENERGY>
83.2707

> <PUBCHEM_FEATURE_SELFOVERLAP>
40.647

> <PUBCHEM_SHAPE_FINGERPRINT>
10498660 4 14562535097784201123
10674148 151 18187917350054859532
11796584 16 15123516908185460345
12363563 72 15482665805634716439
12422481 6 18338516455538032691
12596602 18 18334856108325279121
12633257 1 18410575058893275256
12730499 353 13840260373185082253
12892183 10 18338799025736678534
12954195 1 13182756844314223799
12969540 114 14201399412840897361
13140716 1 18122343480150720717
13544653 18 17346599677070992021
13583140 156 18338531814515715341
13782708 43 15625396774098408562
13914758 101 17846504751486270789
14178342 30 18198621240455982596
14251751 18 15338828729882270449
14341114 176 18342175587744696738
14341114 328 18335416846360051281
14848178 5 15841548587116067091
14849402 71 18266747879600924520
15183329 4 9079119955312668723
15209294 21 18113623378227642742
15210252 30 5039661574213308298
15685185 35 17055248707655614388
17349148 13 17418083334586924899
17980427 23 17676207944958651245
1813 80 17417801863978989597
19377110 9 18338797814550626353
193927 3 15697995258035008954
19784866 240 15267338535478729833
1979834 28 18335688477551593063
19862831 5 9367342634914640847
20028762 73 18272933799625348434
20261772 1 18410295804900050662
20511986 3 18410586097787556827
20739085 24 18272650177870714942
20775438 99 12172197751397873897
20871999 31 10087643718893597534
21033648 29 17023168449694950931
21120745 212 16593681404782207630
21756936 100 17531258218766496166
221357 26 9583512101762201515
23559900 14 17752176600339659149
2637199 183 7204774761408461565
26918003 58 17847067683452733751
2838139 119 13912600593198234587
3009799 131 7348888876417447130
38570 142 17913748563174641124
392239 28 18412827962534772051
4058900 60 6843385098343505149
463206 1 14261059953135871849
465052 167 17274820247064814498
5104073 3 18338516472717902547
7064713 232 18187643626243436465
7808743 9 17022626346811255138
960060 61 9295288344102221986

> <PUBCHEM_SHAPE_MULTIPOLES>
479.27
12.45
2.08
1.61
0.06
0
0.02
-0.03
9.1
0.01
-0.29
-0.02
0
-0.97

> <PUBCHEM_SHAPE_SELFOVERLAP>
1078.333

> <PUBCHEM_SHAPE_VOLUME>
248.5

> <PUBCHEM_COORDINATE_TYPE>
2
5
10

$$$$

