3922
  -OEChem-07051213073D

 56 59  0     0  0  0  0  0  0999 V2000
    6.0706   -0.4637   -1.9940 O   0  0  0  0  0  0  0  0  0  0  0  0
    5.9726   -2.3661   -0.7538 O   0  0  0  0  0  0  0  0  0  0  0  0
    2.8359    1.2387   -0.2744 N   0  0  0  0  0  0  0  0  0  0  0  0
    0.9845    1.2453    1.2958 C   0  0  0  0  0  0  0  0  0  0  0  0
    0.9587    1.4299    2.7831 C   0  0  0  0  0  0  0  0  0  0  0  0
    1.1751    2.6112    1.8834 C   0  0  0  0  0  0  0  0  0  0  0  0
   -0.3105    0.9600    0.6105 C   0  0  0  0  0  0  0  0  0  0  0  0
   -3.1070   -1.6520    0.9331 C   0  0  0  0  0  0  0  0  0  0  0  0
   -4.0698    0.0720   -1.4052 C   0  0  0  0  0  0  0  0  0  0  0  0
   -2.3125   -0.4436    0.4210 C   0  0  0  0  0  0  0  0  0  0  0  0
   -2.7542    0.3495   -0.6667 C   0  0  0  0  0  0  0  0  0  0  0  0
   -4.5567   -1.6482    0.3995 C   0  0  0  0  0  0  0  0  0  0  0  0
   -4.6156   -1.3377   -1.0866 C   0  0  0  0  0  0  0  0  0  0  0  0
    2.1688    0.5727    0.6973 C   0  0  0  0  0  0  0  0  0  0  0  0
   -1.0760   -0.1273    1.0274 C   0  0  0  0  0  0  0  0  0  0  0  0
   -0.7614    1.7585   -0.4274 C   0  0  0  0  0  0  0  0  0  0  0  0
   -1.9680    1.4572   -1.0560 C   0  0  0  0  0  0  0  0  0  0  0  0
   -3.2099   -1.6621    2.4771 C   0  0  0  0  0  0  0  0  0  0  0  0
   -2.3863   -2.9434    0.4866 C   0  0  0  0  0  0  0  0  0  0  0  0
   -5.1047    1.1419   -0.9919 C   0  0  0  0  0  0  0  0  0  0  0  0
   -3.8933    0.1348   -2.9412 C   0  0  0  0  0  0  0  0  0  0  0  0
    2.5291   -0.6867    1.1549 C   0  0  0  0  0  0  0  0  0  0  0  0
    0.0238    2.9409   -0.8920 C   0  0  0  0  0  0  0  0  0  0  0  0
    3.6389   -1.2980    0.5820 C   0  0  0  0  0  0  0  0  0  0  0  0
    3.9092    0.6131   -0.8076 C   0  0  0  0  0  0  0  0  0  0  0  0
    4.3476   -0.6424   -0.4186 C   0  0  0  0  0  0  0  0  0  0  0  0
    5.5110   -1.2543   -1.0363 C   0  0  0  0  0  0  0  0  0  0  0  0
    0.0155    1.3816    3.3164 H   0  0  0  0  0  0  0  0  0  0  0  0
    1.8029    1.1071    3.3825 H   0  0  0  0  0  0  0  0  0  0  0  0
    2.1633    3.0584    1.8792 H   0  0  0  0  0  0  0  0  0  0  0  0
    0.3762    3.3438    1.8835 H   0  0  0  0  0  0  0  0  0  0  0  0
   -5.1623   -0.9146    0.9466 H   0  0  0  0  0  0  0  0  0  0  0  0
   -5.0300   -2.6214    0.5837 H   0  0  0  0  0  0  0  0  0  0  0  0
   -4.0496   -2.0992   -1.6379 H   0  0  0  0  0  0  0  0  0  0  0  0
   -5.6532   -1.4288   -1.4333 H   0  0  0  0  0  0  0  0  0  0  0  0
   -0.6985   -0.7500    1.8353 H   0  0  0  0  0  0  0  0  0  0  0  0
   -2.3096    2.1049   -1.8601 H   0  0  0  0  0  0  0  0  0  0  0  0
   -3.6166   -0.7158    2.8530 H   0  0  0  0  0  0  0  0  0  0  0  0
   -3.8687   -2.4690    2.8201 H   0  0  0  0  0  0  0  0  0  0  0  0
   -2.2411   -1.8208    2.9621 H   0  0  0  0  0  0  0  0  0  0  0  0
   -2.2374   -2.9762   -0.5982 H   0  0  0  0  0  0  0  0  0  0  0  0
   -1.3945   -3.0305    0.9461 H   0  0  0  0  0  0  0  0  0  0  0  0
   -2.9564   -3.8341    0.7745 H   0  0  0  0  0  0  0  0  0  0  0  0
   -5.2407    1.1833    0.0943 H   0  0  0  0  0  0  0  0  0  0  0  0
   -4.7973    2.1444   -1.3120 H   0  0  0  0  0  0  0  0  0  0  0  0
   -6.0823    0.9423   -1.4454 H   0  0  0  0  0  0  0  0  0  0  0  0
   -3.6564    1.1431   -3.2965 H   0  0  0  0  0  0  0  0  0  0  0  0
   -3.0884   -0.5310   -3.2748 H   0  0  0  0  0  0  0  0  0  0  0  0
   -4.8135   -0.1704   -3.4537 H   0  0  0  0  0  0  0  0  0  0  0  0
    1.9719   -1.1966    1.9338 H   0  0  0  0  0  0  0  0  0  0  0  0
    1.0945    2.7603   -0.9599 H   0  0  0  0  0  0  0  0  0  0  0  0
   -0.2810    3.2254   -1.9068 H   0  0  0  0  0  0  0  0  0  0  0  0
   -0.1685    3.8081   -0.2537 H   0  0  0  0  0  0  0  0  0  0  0  0
    3.9358   -2.2847    0.9270 H   0  0  0  0  0  0  0  0  0  0  0  0
    4.4024    1.1944   -1.5800 H   0  0  0  0  0  0  0  0  0  0  0  0
    6.8546   -0.8874   -2.4042 H   0  0  0  0  0  0  0  0  0  0  0  0
  1 27  1  0  0  0  0
  1 56  1  0  0  0  0
  2 27  2  0  0  0  0
  3 14  2  0  0  0  0
  3 25  1  0  0  0  0
  4  5  1  0  0  0  0
  4  6  1  0  0  0  0
  4  7  1  0  0  0  0
  4 14  1  0  0  0  0
  5  6  1  0  0  0  0
  5 28  1  0  0  0  0
  5 29  1  0  0  0  0
  6 30  1  0  0  0  0
  6 31  1  0  0  0  0
  7 15  2  0  0  0  0
  7 16  1  0  0  0  0
  8 10  1  0  0  0  0
  8 12  1  0  0  0  0
  8 18  1  0  0  0  0
  8 19  1  0  0  0  0
  9 11  1  0  0  0  0
  9 13  1  0  0  0  0
  9 20  1  0  0  0  0
  9 21  1  0  0  0  0
 10 11  2  0  0  0  0
 10 15  1  0  0  0  0
 11 17  1  0  0  0  0
 12 13  1  0  0  0  0
 12 32  1  0  0  0  0
 12 33  1  0  0  0  0
 13 34  1  0  0  0  0
 13 35  1  0  0  0  0
 14 22  1  0  0  0  0
 15 36  1  0  0  0  0
 16 17  2  0  0  0  0
 16 23  1  0  0  0  0
 17 37  1  0  0  0  0
 18 38  1  0  0  0  0
 18 39  1  0  0  0  0
 18 40  1  0  0  0  0
 19 41  1  0  0  0  0
 19 42  1  0  0  0  0
 19 43  1  0  0  0  0
 20 44  1  0  0  0  0
 20 45  1  0  0  0  0
 20 46  1  0  0  0  0
 21 47  1  0  0  0  0
 21 48  1  0  0  0  0
 21 49  1  0  0  0  0
 22 24  2  0  0  0  0
 22 50  1  0  0  0  0
 23 51  1  0  0  0  0
 23 52  1  0  0  0  0
 23 53  1  0  0  0  0
 24 26  1  0  0  0  0
 24 54  1  0  0  0  0
 25 26  2  0  0  0  0
 25 55  1  0  0  0  0
 26 27  1  0  0  0  0
M  END
> <PUBCHEM_COMPOUND_CID>
3922

> <PUBCHEM_CONFORMER_RMSD>
0.8

> <PUBCHEM_CONFORMER_DIVERSEORDER>
1
6
2
7
3
4
5
8

> <PUBCHEM_MMFF94_PARTIAL_CHARGES>
31
1 -0.65
10 -0.14
11 -0.14
14 0.28
15 -0.15
16 -0.14
17 -0.15
2 -0.57
22 -0.15
23 0.14
24 -0.15
25 0.16
26 0.09
27 0.63
28 0.1
29 0.1
3 -0.62
30 0.1
31 0.1
36 0.15
37 0.15
4 0.06
5 -0.2
50 0.15
54 0.15
55 0.15
56 0.5
6 -0.2
7 -0.03
8 0.14
9 0.14

> <PUBCHEM_EFFECTIVE_ROTOR_COUNT>
4.4

> <PUBCHEM_PHARMACOPHORE_FEATURES>
9
1 1 acceptor
1 2 acceptor
1 3 acceptor
3 1 2 27 anion
3 8 18 19 hydrophobe
3 9 20 21 hydrophobe
6 3 14 22 24 25 26 rings
6 7 10 11 15 16 17 rings
6 8 9 10 11 12 13 rings

> <PUBCHEM_HEAVY_ATOM_COUNT>
27

> <PUBCHEM_ATOM_DEF_STEREO_COUNT>
0

> <PUBCHEM_ATOM_UDEF_STEREO_COUNT>
0

> <PUBCHEM_BOND_DEF_STEREO_COUNT>
0

> <PUBCHEM_BOND_UDEF_STEREO_COUNT>
0

> <PUBCHEM_ISOTOPIC_ATOM_COUNT>
0

> <PUBCHEM_COMPONENT_COUNT>
1

> <PUBCHEM_CACTVS_TAUTO_COUNT>
1

> <PUBCHEM_CONFORMER_ID>
00000F5200000001

> <PUBCHEM_MMFF94_ENERGY>
96.1831

> <PUBCHEM_FEATURE_SELFOVERLAP>
45.746

> <PUBCHEM_SHAPE_FINGERPRINT>
10319926 262 6411025265659827212
10369192 42 17693385438651865612
10674148 151 18264776621816478033
10730089 88 18341618130943508221
10764073 3 5325972099899129184
10928967 22 17458627847864029590
11135609 201 13470396764845482148
11991303 11 17609473275104227400
12363563 72 17749110002174792864
12422481 6 14491018519676169756
12596602 18 14345801547766533014
12633257 1 16515680009592427996
12670546 177 17346601863230340852
12760667 363 18114175393474182590
12788726 201 18194690499213634609
12892183 10 6050450292928602116
12969540 114 13326848929417752022
13103583 49 15719384049451638622
13533116 47 17678458550697451787
13544592 145 18336838519595947425
13544653 18 18040434391230853200
13583140 156 16953952912831693209
13690498 29 17845644833866135171
13782708 43 17678189200751190623
13914758 101 15502374573923686833
14178342 30 5616715010607201363
14251757 5 17846781819188225837
14790565 3 17843415230844408173
14932701 244 14834971990088099267
14950920 106 14273748390683029502
15064986 266 18267850856728471252
15188451 53 14707220902657045677
15475509 8 18343305881814793437
15575132 122 15841006571677590479
17349148 13 14635150063056397557
17780758 139 14707211045422537230
1813 80 16805314488390549640
18222031 100 17095527296865299100
19784866 240 16950288394773034717
19784866 34 13686302387061118536
20645477 70 18115319860033808217
20693207 138 18340503191619482469
20832881 197 17894917342914409297
20871999 31 17775286045337468195
21033650 10 17060624416400673916
21307412 95 18410294709800084991
21401589 2 10879983653810118956
21756936 100 14836397038830744424
22182313 1 18198916811494175457
22393880 68 17846778503663552450
22907989 373 16485878920117603351
23559900 14 18342466906475544676
2838139 119 14189574114140081406
312425 83 16486143953458811950
314194 84 17603869966643574790
3886686 26 13913975013087805029
394222 165 14637988885598195361
4058900 60 17128753585323018501
4280585 95 18202573873679381652
437815 12 17968096442812178152
46194498 28 17772468993330786485
474 4 12895077322786193076
484985 159 16951689292597966372
4938544 92 15213572477115820226
563151 40 18050281776473493593
6034566 193 12751229303103785195
6669772 16 17827917322656905420
6823239 73 18129953264704399697
7970288 3 17603585257562434934
9709674 26 18055933000009487281
9981440 41 7204507571740747983

> <PUBCHEM_SHAPE_MULTIPOLES>
538.93
11.82
2.73
2.31
9.87
0.02
-0.36
7.02
7.76
-0.3
-0.48
-0.42
-0.37
2.4

> <PUBCHEM_SHAPE_SELFOVERLAP>
1173.609

> <PUBCHEM_SHAPE_VOLUME>
294.9

> <PUBCHEM_COORDINATE_TYPE>
2
5
10

$$$$

