75547
  -OEChem-07051213053D

 24 26  0     0  0  0  0  0  0999 V2000
    4.4413   -0.2591    0.0001 O   0  0  0  0  0  0  0  0  0  0  0  0
   -0.2938   -1.8226    0.0000 C   0  0  0  0  0  0  0  0  0  0  0  0
    0.8559   -0.8370   -0.0001 C   0  0  0  0  0  0  0  0  0  0  0  0
   -1.4932   -0.8979   -0.0001 C   0  0  0  0  0  0  0  0  0  0  0  0
    0.3700    0.4899   -0.0002 C   0  0  0  0  0  0  0  0  0  0  0  0
   -1.0767    0.4524   -0.0002 C   0  0  0  0  0  0  0  0  0  0  0  0
    2.2126   -1.1101    0.0001 C   0  0  0  0  0  0  0  0  0  0  0  0
    1.2481    1.5607    0.0000 C   0  0  0  0  0  0  0  0  0  0  0  0
   -2.8337   -1.2411    0.0000 C   0  0  0  0  0  0  0  0  0  0  0  0
   -2.0092    1.4762    0.0000 C   0  0  0  0  0  0  0  0  0  0  0  0
    3.0975   -0.0305    0.0001 C   0  0  0  0  0  0  0  0  0  0  0  0
    2.6202    1.2916    0.0000 C   0  0  0  0  0  0  0  0  0  0  0  0
   -3.7735   -0.2088    0.0001 C   0  0  0  0  0  0  0  0  0  0  0  0
   -3.3654    1.1362    0.0002 C   0  0  0  0  0  0  0  0  0  0  0  0
   -0.2779   -2.4365    0.9052 H   0  0  0  0  0  0  0  0  0  0  0  0
   -0.2779   -2.4367   -0.9051 H   0  0  0  0  0  0  0  0  0  0  0  0
    2.5765   -2.1320    0.0003 H   0  0  0  0  0  0  0  0  0  0  0  0
    0.8947    2.5864   -0.0001 H   0  0  0  0  0  0  0  0  0  0  0  0
   -3.1501   -2.2782    0.0000 H   0  0  0  0  0  0  0  0  0  0  0  0
   -1.7097    2.5189    0.0000 H   0  0  0  0  0  0  0  0  0  0  0  0
    3.3186    2.1253    0.0000 H   0  0  0  0  0  0  0  0  0  0  0  0
   -4.8342   -0.4461    0.0003 H   0  0  0  0  0  0  0  0  0  0  0  0
   -4.1162    1.9222    0.0004 H   0  0  0  0  0  0  0  0  0  0  0  0
    4.9064    0.5951    0.0000 H   0  0  0  0  0  0  0  0  0  0  0  0
  1 11  1  0  0  0  0
  1 24  1  0  0  0  0
  2  3  1  0  0  0  0
  2  4  1  0  0  0  0
  2 15  1  0  0  0  0
  2 16  1  0  0  0  0
  3  5  2  0  0  0  0
  3  7  1  0  0  0  0
  4  6  1  0  0  0  0
  4  9  2  0  0  0  0
  5  6  1  0  0  0  0
  5  8  1  0  0  0  0
  6 10  2  0  0  0  0
  7 11  2  0  0  0  0
  7 17  1  0  0  0  0
  8 12  2  0  0  0  0
  8 18  1  0  0  0  0
  9 13  1  0  0  0  0
  9 19  1  0  0  0  0
 10 14  1  0  0  0  0
 10 20  1  0  0  0  0
 11 12  1  0  0  0  0
 12 21  1  0  0  0  0
 13 14  2  0  0  0  0
 13 22  1  0  0  0  0
 14 23  1  0  0  0  0
M  END
> <PUBCHEM_COMPOUND_CID>
75547

> <PUBCHEM_CONFORMER_RMSD>
0.4

> <PUBCHEM_CONFORMER_DIVERSEORDER>
1

> <PUBCHEM_MMFF94_PARTIAL_CHARGES>
20
1 -0.53
10 -0.15
11 0.08
12 -0.15
13 -0.15
14 -0.15
17 0.15
18 0.15
19 0.15
2 0.29
20 0.15
21 0.15
22 0.15
23 0.15
24 0.45
3 -0.14
4 -0.14
7 -0.15
8 -0.15
9 -0.15

> <PUBCHEM_EFFECTIVE_ROTOR_COUNT>
0.2

> <PUBCHEM_PHARMACOPHORE_FEATURES>
4
1 1 donor
5 2 3 4 5 6 rings
6 3 5 7 8 11 12 rings
6 4 6 9 10 13 14 rings

> <PUBCHEM_HEAVY_ATOM_COUNT>
14

> <PUBCHEM_ATOM_DEF_STEREO_COUNT>
0

> <PUBCHEM_ATOM_UDEF_STEREO_COUNT>
0

> <PUBCHEM_BOND_DEF_STEREO_COUNT>
0

> <PUBCHEM_BOND_UDEF_STEREO_COUNT>
0

> <PUBCHEM_ISOTOPIC_ATOM_COUNT>
0

> <PUBCHEM_COMPONENT_COUNT>
1

> <PUBCHEM_CACTVS_TAUTO_COUNT>
9

> <PUBCHEM_CONFORMER_ID>
0001271B00000001

> <PUBCHEM_MMFF94_ENERGY>
46.6252

> <PUBCHEM_FEATURE_SELFOVERLAP>
20.462

> <PUBCHEM_SHAPE_FINGERPRINT>
10608611 8 18410296891131514425
10967382 1 18410856606990041799
11132069 177 18409173211674907904
11471102 20 18410579487015132981
12032990 46 18410287004079589934
12251169 10 18412826888787555771
12491281 212 18337942484862248857
13221675 6 18411136939431670150
13380535 76 18410292523165546703
14144814 61 18411420622005584457
14325111 11 18410856546844785825
15196674 1 18410855434363684740
15309172 13 18335975424369302075
15442244 35 18194120948005891634
15536298 74 18334295327800054288
15775835 57 18343299296801369865
16945 1 18338516331021027751
17802600 8 18410299098776132213
17804303 29 18409726253386749076
18186145 218 18334289898539353533
18522853 276 18335422365509240128
193761 8 17689998938304736901
200 152 18041007228346429717
20201158 50 18408321103022032967
20510252 161 18260546718906107777
21267235 1 18410846655514127563
21501502 16 18338796702164737189
2334 1 18338797819051471341
23402539 116 18334023790944942381
23402655 69 18263375840335413237
23463225 33 18341896315859199492
23559900 14 18260548931700208768
2748010 2 18410855438880237237
335352 9 18050287264828950039
474 4 16771817750807673556
5104073 3 18410573959402805832
528886 8 18410299128745730546
53812653 166 18408326605091254760
54173680 148 18124593085368681555
6333449 129 18410013238901335639
69090 78 18187651279938630439
7364860 26 18192149514972909238
8809292 202 18272365326417090083
9709674 26 18408879612095750174

> <PUBCHEM_SHAPE_MULTIPOLES>
282.24
6.36
1.76
0.61
1.25
0
0
0.38
0
-0.26
0
-0.03
0
0

> <PUBCHEM_SHAPE_SELFOVERLAP>
637.444

> <PUBCHEM_SHAPE_VOLUME>
150.7

> <PUBCHEM_COORDINATE_TYPE>
2
5
10

$$$$

