45479250
  -OEChem-07051213113D

 61 63  0     1  0  0  0  0  0999 V2000
   -4.0464    2.1565   -0.0368 P   0  0  1  0  0  0  0  0  0  0  0  0
   -1.1339    2.5725   -0.0129 P   0  0  2  0  0  0  0  0  0  0  0  0
    2.3295    0.9244   -1.9865 O   0  0  0  0  0  0  0  0  0  0  0  0
   -2.3984   -0.7699    1.2818 O   0  0  0  0  0  0  0  0  0  0  0  0
    1.7276   -1.0826   -4.2184 O   0  0  0  0  0  0  0  0  0  0  0  0
   -3.9893    0.9247    1.0050 O   0  0  0  0  0  0  0  0  0  0  0  0
   -2.5550   -4.4159    0.7281 O   0  0  0  0  0  0  0  0  0  0  0  0
   -0.0784    2.0854   -1.1382 O   0  0  0  0  0  0  0  0  0  0  0  0
   -2.5640    2.2194   -0.6784 O   0  0  0  0  0  0  0  0  0  0  0  0
    5.7155   -1.2099   -0.9666 O   0  0  0  0  0  0  0  0  0  0  0  0
   -4.9568    1.6142   -1.2593 O   0  0  0  0  0  0  0  0  0  0  0  0
   -1.0800    4.1868   -0.1021 O   0  0  0  0  0  0  0  0  0  0  0  0
   -4.5157    3.4532    0.5567 O   0  0  0  0  0  0  0  0  0  0  0  0
   -0.9278    2.0065    1.3617 O   0  0  0  0  0  0  0  0  0  0  0  0
    5.1650    0.2528    3.3585 O   0  0  0  0  0  0  0  0  0  0  0  0
    3.7239   -0.1193   -0.4239 N   0  0  0  0  0  0  0  0  0  0  0  0
   -4.1816   -2.8997   -1.0227 N   0  0  0  0  0  0  0  0  0  0  0  0
    5.4278   -0.4752    1.1870 N   0  0  0  0  0  0  0  0  0  0  0  0
    1.2356   -0.9779   -2.8841 C   0  0  2  0  0  0  0  0  0  0  0  0
    1.0605    0.4873   -2.5101 C   0  0  1  0  0  0  0  0  0  0  0  0
    2.2910   -1.4550   -1.9135 C   0  0  0  0  0  0  0  0  0  0  0  0
    3.1588   -0.2195   -1.7377 C   0  0  1  0  0  0  0  0  0  0  0  0
   -4.3079   -2.7758    0.4333 C   0  0  1  0  0  0  0  0  0  0  0  0
   -2.9860   -3.1237    1.1385 C   0  0  2  0  0  0  0  0  0  0  0  0
   -4.7065   -1.3437    0.7968 C   0  0  0  0  0  0  0  0  0  0  0  0
   -1.9123   -2.0554    0.8765 C   0  0  2  0  0  0  0  0  0  0  0  0
   -3.5593   -0.3588    0.5597 C   0  0  2  0  0  0  0  0  0  0  0  0
    0.0091    0.7015   -1.4291 C   0  0  0  0  0  0  0  0  0  0  0  0
   -0.6315   -2.3192    1.6625 C   0  0  0  0  0  0  0  0  0  0  0  0
    2.9828    0.5074    0.5705 C   0  0  0  0  0  0  0  0  0  0  0  0
    5.0029   -0.6429   -0.1356 C   0  0  0  0  0  0  0  0  0  0  0  0
    3.3924    0.6661    1.8350 C   0  0  0  0  0  0  0  0  0  0  0  0
    4.7303    0.1400    2.2154 C   0  0  0  0  0  0  0  0  0  0  0  0
    2.5782    1.3457    2.8887 C   0  0  0  0  0  0  0  0  0  0  0  0
    0.3120   -1.5615   -2.8258 H   0  0  0  0  0  0  0  0  0  0  0  0
    0.8398    1.1188   -3.3778 H   0  0  0  0  0  0  0  0  0  0  0  0
    2.8742   -2.3076   -2.2752 H   0  0  0  0  0  0  0  0  0  0  0  0
    1.8191   -1.7445   -0.9666 H   0  0  0  0  0  0  0  0  0  0  0  0
    3.9593   -0.2110   -2.4870 H   0  0  0  0  0  0  0  0  0  0  0  0
   -5.0899   -3.4733    0.7560 H   0  0  0  0  0  0  0  0  0  0  0  0
   -3.1794   -3.1703    2.2184 H   0  0  0  0  0  0  0  0  0  0  0  0
   -4.9841   -1.3163    1.8594 H   0  0  0  0  0  0  0  0  0  0  0  0
   -5.6010   -1.0250    0.2470 H   0  0  0  0  0  0  0  0  0  0  0  0
   -1.6440   -2.0225   -0.1872 H   0  0  0  0  0  0  0  0  0  0  0  0
   -3.3052   -0.3109   -0.5055 H   0  0  0  0  0  0  0  0  0  0  0  0
    0.2297    0.1519   -0.5111 H   0  0  0  0  0  0  0  0  0  0  0  0
   -0.9657    0.3604   -1.7945 H   0  0  0  0  0  0  0  0  0  0  0  0
   -0.8292   -2.3319    2.7400 H   0  0  0  0  0  0  0  0  0  0  0  0
    0.0955   -1.5187    1.4869 H   0  0  0  0  0  0  0  0  0  0  0  0
   -0.1742   -3.2712    1.3776 H   0  0  0  0  0  0  0  0  0  0  0  0
   -3.9348   -3.8591   -1.2619 H   0  0  0  0  0  0  0  0  0  0  0  0
   -5.0826   -2.7142   -1.4613 H   0  0  0  0  0  0  0  0  0  0  0  0
    1.0436   -0.7231   -4.8089 H   0  0  0  0  0  0  0  0  0  0  0  0
    2.0147    0.8987    0.3022 H   0  0  0  0  0  0  0  0  0  0  0  0
   -3.2716   -5.0421    0.9279 H   0  0  0  0  0  0  0  0  0  0  0  0
    6.3461   -0.8444    1.4173 H   0  0  0  0  0  0  0  0  0  0  0  0
    2.3572    0.6526    3.7068 H   0  0  0  0  0  0  0  0  0  0  0  0
    1.6248    1.7131    2.4969 H   0  0  0  0  0  0  0  0  0  0  0  0
    3.1209    2.2045    3.2969 H   0  0  0  0  0  0  0  0  0  0  0  0
   -5.2429    2.2451   -1.9537 H   0  0  0  0  0  0  0  0  0  0  0  0
   -1.2360    4.6189   -0.9688 H   0  0  0  0  0  0  0  0  0  0  0  0
  1  6  1  0  0  0  0
  1  9  1  0  0  0  0
  1 11  1  0  0  0  0
  1 13  2  0  0  0  0
  2  8  1  0  0  0  0
  2  9  1  0  0  0  0
  2 12  1  0  0  0  0
  2 14  2  0  0  0  0
  3 20  1  0  0  0  0
  3 22  1  0  0  0  0
  4 26  1  0  0  0  0
  4 27  1  0  0  0  0
  5 19  1  0  0  0  0
  5 53  1  0  0  0  0
  6 27  1  0  0  0  0
  7 24  1  0  0  0  0
  7 55  1  0  0  0  0
  8 28  1  0  0  0  0
 10 31  2  0  0  0  0
 11 60  1  0  0  0  0
 12 61  1  0  0  0  0
 15 33  2  0  0  0  0
 16 22  1  0  0  0  0
 16 30  1  0  0  0  0
 16 31  1  0  0  0  0
 17 23  1  0  0  0  0
 17 51  1  0  0  0  0
 17 52  1  0  0  0  0
 18 31  1  0  0  0  0
 18 33  1  0  0  0  0
 18 56  1  0  0  0  0
 19 20  1  0  0  0  0
 19 21  1  0  0  0  0
 19 35  1  0  0  0  0
 20 28  1  0  0  0  0
 20 36  1  0  0  0  0
 21 22  1  0  0  0  0
 21 37  1  0  0  0  0
 21 38  1  0  0  0  0
 22 39  1  0  0  0  0
 23 24  1  0  0  0  0
 23 25  1  0  0  0  0
 23 40  1  0  0  0  0
 24 26  1  0  0  0  0
 24 41  1  0  0  0  0
 25 27  1  0  0  0  0
 25 42  1  0  0  0  0
 25 43  1  0  0  0  0
 26 29  1  0  0  0  0
 26 44  1  0  0  0  0
 27 45  1  0  0  0  0
 28 46  1  0  0  0  0
 28 47  1  0  0  0  0
 29 48  1  0  0  0  0
 29 49  1  0  0  0  0
 29 50  1  0  0  0  0
 30 32  2  0  0  0  0
 30 54  1  0  0  0  0
 32 33  1  0  0  0  0
 32 34  1  0  0  0  0
 34 57  1  0  0  0  0
 34 58  1  0  0  0  0
 34 59  1  0  0  0  0
M  END
> <PUBCHEM_COMPOUND_CID>
45479250

> <PUBCHEM_CONFORMER_RMSD>
1.4

> <PUBCHEM_CONFORMER_DIVERSEORDER>
1
96
102
28
49
65
138
42
111
132
91
44
70
86
93
95
112
115
56
116
97
22
5
130
16
60
126
50
25
62
90
136
104
31
103
34
92
10
139
137
78
59
40
109
68
101
98
74
51
75
52
108
79
7
124
120
33
84
118
36
67
55
113
71
125
133
99
105
41
39
9
58
127
29
57
15
61
2
129
81
21
63
69
18
123
11
64
46
54
76
114
88
94
72
131
19
135
119
87
47
110
100
106
117
122
24
128
83
4
23
38
107
43
121
48
89
85
80
53
32
73
27
82
30
35
66
20
3
134
6
14
13
77
45
37
12
8
17
26

> <PUBCHEM_MMFF94_PARTIAL_CHARGES>
39
1 1.51
10 -0.57
11 -0.77
12 -0.77
13 -0.7
14 -0.7
15 -0.57
16 -0.47
17 -0.99
18 -0.49
19 0.28
2 1.51
20 0.28
22 0.58
23 0.27
24 0.28
26 0.28
27 0.56
28 0.28
3 -0.56
30 -0.04
31 0.69
32 -0.12
33 0.62
34 0.14
4 -0.56
5 -0.68
51 0.36
52 0.36
53 0.4
54 0.15
55 0.4
56 0.37
6 -0.55
60 0.5
61 0.5
7 -0.68
8 -0.55
9 -0.54

> <PUBCHEM_EFFECTIVE_ROTOR_COUNT>
10.2

> <PUBCHEM_PHARMACOPHORE_FEATURES>
18
1 10 acceptor
1 11 acceptor
1 12 acceptor
1 13 acceptor
1 14 acceptor
1 15 acceptor
1 17 cation
1 17 donor
1 18 donor
1 3 acceptor
1 4 acceptor
1 5 acceptor
1 5 donor
1 7 acceptor
1 7 donor
5 3 19 20 21 22 rings
6 16 18 30 31 32 33 rings
6 4 23 24 25 26 27 rings

> <PUBCHEM_HEAVY_ATOM_COUNT>
34

> <PUBCHEM_ATOM_DEF_STEREO_COUNT>
7

> <PUBCHEM_ATOM_UDEF_STEREO_COUNT>
0

> <PUBCHEM_BOND_DEF_STEREO_COUNT>
0

> <PUBCHEM_BOND_UDEF_STEREO_COUNT>
0

> <PUBCHEM_ISOTOPIC_ATOM_COUNT>
0

> <PUBCHEM_COMPONENT_COUNT>
1

> <PUBCHEM_CACTVS_TAUTO_COUNT>
3

> <PUBCHEM_CONFORMER_ID>
02B5F55200000001

> <PUBCHEM_MMFF94_ENERGY>
32.2348

> <PUBCHEM_FEATURE_SELFOVERLAP>
91.365

> <PUBCHEM_SHAPE_FINGERPRINT>
11828532 37 18125725578899779763
12128747 34 18263643047278233838
12166972 35 17202770280646672467
12712778 12 18272100361621361931
12717326 68 17612603228341698959
12788726 201 18057016082991866621
13583140 156 17822010934141827791
13726171 33 17981005752994975988
13947920 75 17846205688349554830
14020679 6 16954755865157078769
14081887 123 18410007775460296461
14279260 333 13396979165651331592
14508693 111 18057876961852324754
14840074 17 16916500479586958860
15320294 125 17703230723506116619
15484559 13 13676516944280842710
20511986 3 17203323407951664580
20554085 129 18195814200883562185
20600515 1 18411703209495837169
208703 8 17275096236962204338
22122407 14 15792005744589351521
23557571 272 18334846225779856891
23559900 14 18191853725048971524
3052486 1 18201715163112718074
3459 110 17386012719288051470
469060 322 17315944094603316524
508706 21 18408887326051887387
602551 16 18342174488169739456

> <PUBCHEM_SHAPE_MULTIPOLES>
616.16
11.69
4.1
3.21
4.09
0.12
-1.36
-2.43
4.46
-7.59
0.67
4.81
-0.46
1.71

> <PUBCHEM_SHAPE_SELFOVERLAP>
1248.353

> <PUBCHEM_SHAPE_VOLUME>
361.2

> <PUBCHEM_COORDINATE_TYPE>
2
5
10

$$$$

