5281825
  -OEChem-07051213002D

 60 63  0     1  0  0  0  0  0999 V2000
    7.0619   -1.8724    0.0000 O   0  0  0  0  0  0  0  0  0  0  0  0
    6.7889   -3.6276    0.0000 O   0  0  0  0  0  0  0  0  0  0  0  0
    2.9340    2.1276    0.0000 N   0  0  3  0  0  0  0  0  0  0  0  0
    3.8000   -1.3724    0.0000 C   0  0  1  0  0  0  0  0  0  0  0  0
    3.8000   -2.3724    0.0000 C   0  0  1  0  0  0  0  0  0  0  0  0
    5.5321   -1.3724    0.0000 C   0  0  2  0  0  0  0  0  0  0  0  0
    4.6660   -0.8724    0.0000 C   0  0  2  0  0  0  0  0  0  0  0  0
    5.5321   -2.3724    0.0000 C   0  0  2  0  0  0  0  0  0  0  0  0
    4.6660   -2.8724    0.0000 C   0  0  0  0  0  0  0  0  0  0  0  0
    2.9061   -0.8377    0.0000 C   0  0  0  0  0  0  0  0  0  0  0  0
    2.9061   -2.9070    0.0000 C   0  0  0  0  0  0  0  0  0  0  0  0
    6.4783   -1.0676    0.0000 C   0  0  2  0  0  0  0  0  0  0  0  0
    2.0000   -1.3516    0.0000 C   0  0  0  0  0  0  0  0  0  0  0  0
    2.0000   -2.3932    0.0000 C   0  0  0  0  0  0  0  0  0  0  0  0
    6.4783   -2.6771    0.0000 C   0  0  0  0  0  0  0  0  0  0  0  0
    4.6660    0.1276    0.0000 C   0  0  0  0  0  0  0  0  0  0  0  0
    6.7889   -0.1171    0.0000 C   0  0  0  0  0  0  0  0  0  0  0  0
    3.8000    0.6276    0.0000 C   0  0  0  0  0  0  0  0  0  0  0  0
    3.8000    1.6276    0.0000 C   0  0  2  0  0  0  0  0  0  0  0  0
    4.6660    2.1276    0.0000 C   0  0  0  0  0  0  0  0  0  0  0  0
    2.9340    3.1276    0.0000 C   0  0  1  0  0  0  0  0  0  0  0  0
    4.6660    3.1276    0.0000 C   0  0  0  0  0  0  0  0  0  0  0  0
    3.8000    3.6276    0.0000 C   0  0  0  0  0  0  0  0  0  0  0  0
    2.0680    1.6276    0.0000 C   0  0  0  0  0  0  0  0  0  0  0  0
    2.0680    3.6276    0.0000 C   0  0  0  0  0  0  0  0  0  0  0  0
    3.8066   -0.5224    0.0000 H   0  0  0  0  0  0  0  0  0  0  0  0
    3.8066   -3.2224    0.0000 H   0  0  0  0  0  0  0  0  0  0  0  0
    5.6220   -0.5271    0.0000 H   0  0  0  0  0  0  0  0  0  0  0  0
    5.2030   -0.5624    0.0000 H   0  0  0  0  0  0  0  0  0  0  0  0
    5.6220   -3.2176    0.0000 H   0  0  0  0  0  0  0  0  0  0  0  0
    4.2675   -3.3473    0.0000 H   0  0  0  0  0  0  0  0  0  0  0  0
    5.0646   -3.3473    0.0000 H   0  0  0  0  0  0  0  0  0  0  0  0
    3.3107   -0.3679    0.0000 H   0  0  0  0  0  0  0  0  0  0  0  0
    2.5124   -0.3587    0.0000 H   0  0  0  0  0  0  0  0  0  0  0  0
    2.5124   -3.3860    0.0000 H   0  0  0  0  0  0  0  0  0  0  0  0
    3.3107   -3.3768    0.0000 H   0  0  0  0  0  0  0  0  0  0  0  0
    7.0908   -0.9714    0.0000 H   0  0  0  0  0  0  0  0  0  0  0  0
    1.7909   -0.7679    0.0000 H   0  0  0  0  0  0  0  0  0  0  0  0
    1.3891   -1.4576    0.0000 H   0  0  0  0  0  0  0  0  0  0  0  0
    1.3891   -2.2871    0.0000 H   0  0  0  0  0  0  0  0  0  0  0  0
    1.7909   -2.9769    0.0000 H   0  0  0  0  0  0  0  0  0  0  0  0
    5.2030    0.4376    0.0000 H   0  0  0  0  0  0  0  0  0  0  0  0
    7.3783   -0.3097    0.0000 H   0  0  0  0  0  0  0  0  0  0  0  0
    6.9816    0.4722    0.0000 H   0  0  0  0  0  0  0  0  0  0  0  0
    6.1996    0.0755    0.0000 H   0  0  0  0  0  0  0  0  0  0  0  0
    3.2631    0.3176    0.0000 H   0  0  0  0  0  0  0  0  0  0  0  0
    3.2631    1.3176    0.0000 H   0  0  0  0  0  0  0  0  0  0  0  0
    4.8781    1.5450    0.0000 H   0  0  0  0  0  0  0  0  0  0  0  0
    5.2766    2.2353    0.0000 H   0  0  0  0  0  0  0  0  0  0  0  0
    2.3970    2.8176    0.0000 H   0  0  0  0  0  0  0  0  0  0  0  0
    5.2766    3.0200    0.0000 H   0  0  0  0  0  0  0  0  0  0  0  0
    4.8781    3.7102    0.0000 H   0  0  0  0  0  0  0  0  0  0  0  0
    4.1985    4.1026    0.0000 H   0  0  0  0  0  0  0  0  0  0  0  0
    3.4015    4.1026    0.0000 H   0  0  0  0  0  0  0  0  0  0  0  0
    1.7580    2.1646    0.0000 H   0  0  0  0  0  0  0  0  0  0  0  0
    1.5310    1.3176    0.0000 H   0  0  0  0  0  0  0  0  0  0  0  0
    2.3780    1.0907    0.0000 H   0  0  0  0  0  0  0  0  0  0  0  0
    2.3780    4.1646    0.0000 H   0  0  0  0  0  0  0  0  0  0  0  0
    1.5310    3.9376    0.0000 H   0  0  0  0  0  0  0  0  0  0  0  0
    1.7580    3.0907    0.0000 H   0  0  0  0  0  0  0  0  0  0  0  0
  1 12  1  0  0  0  0
  1 15  1  0  0  0  0
  2 15  2  0  0  0  0
  3 19  1  0  0  0  0
  3 21  1  0  0  0  0
  3 24  1  0  0  0  0
  4  5  1  0  0  0  0
  4  7  1  0  0  0  0
  4 10  1  0  0  0  0
  4 26  1  1  0  0  0
  5  9  1  0  0  0  0
  5 11  1  0  0  0  0
  5 27  1  6  0  0  0
  6  7  1  0  0  0  0
  6  8  1  0  0  0  0
  6 12  1  0  0  0  0
  6 28  1  6  0  0  0
  7 16  1  1  0  0  0
  7 29  1  0  0  0  0
  8  9  1  0  0  0  0
  8 15  1  0  0  0  0
  8 30  1  6  0  0  0
  9 31  1  0  0  0  0
  9 32  1  0  0  0  0
 10 13  1  0  0  0  0
 10 33  1  0  0  0  0
 10 34  1  0  0  0  0
 11 14  1  0  0  0  0
 11 35  1  0  0  0  0
 11 36  1  0  0  0  0
 12 17  1  6  0  0  0
 12 37  1  0  0  0  0
 13 14  1  0  0  0  0
 13 38  1  0  0  0  0
 13 39  1  0  0  0  0
 14 40  1  0  0  0  0
 14 41  1  0  0  0  0
 16 18  2  0  0  0  0
 16 42  1  0  0  0  0
 17 43  1  0  0  0  0
 17 44  1  0  0  0  0
 17 45  1  0  0  0  0
 19 18  1  1  0  0  0
 18 46  1  0  0  0  0
 19 20  1  0  0  0  0
 19 47  1  0  0  0  0
 20 22  1  0  0  0  0
 20 48  1  0  0  0  0
 20 49  1  0  0  0  0
 21 23  1  0  0  0  0
 21 25  1  6  0  0  0
 21 50  1  0  0  0  0
 22 23  1  0  0  0  0
 22 51  1  0  0  0  0
 22 52  1  0  0  0  0
 23 53  1  0  0  0  0
 23 54  1  0  0  0  0
 24 55  1  0  0  0  0
 24 56  1  0  0  0  0
 24 57  1  0  0  0  0
 25 58  1  0  0  0  0
 25 59  1  0  0  0  0
 25 60  1  0  0  0  0
M  END
> <PUBCHEM_COMPOUND_CID>
5281825

> <PUBCHEM_COMPOUND_CANONICALIZED>
1

> <PUBCHEM_CACTVS_COMPLEXITY>
530

> <PUBCHEM_CACTVS_HBOND_ACCEPTOR>
3

> <PUBCHEM_CACTVS_HBOND_DONOR>
0

> <PUBCHEM_CACTVS_ROTATABLE_BOND>
2

> <PUBCHEM_CACTVS_SUBSKEYS>
AAADcfB6MAAAAAAAAAAAAAAAAAAAASAAAAA8YIAAAAAAAEjAAAAAHgAAAAAADTzhgAYCCAMABACIACDSCACAAAAgAAAICAEIAAgAABIAgQAGAAAEgACIAAOayPCOgAAAAAAAAACAAAQAACAAAAAAAAAAAA==

> <PUBCHEM_IUPAC_OPENEYE_NAME>
(3S,3aR,4R,4aS,8aR,9aS)-4-[(E)-2-[(2S,6R)-1,6-dimethyl-2-piperidyl]vinyl]-3-methyl-3a,4,4a,5,6,7,8,8a,9,9a-decahydro-3H-benzo[f]isobenzofuran-1-one

> <PUBCHEM_IUPAC_CAS_NAME>
(3S,3aR,4R,4aS,8aR,9aS)-4-[(E)-2-[(2S,6R)-1,6-dimethyl-2-piperidinyl]ethenyl]-3-methyl-3a,4,4a,5,6,7,8,8a,9,9a-decahydro-3H-benzo[f]isobenzofuran-1-one

> <PUBCHEM_IUPAC_NAME>
(3S,3aR,4R,4aS,8aR,9aS)-4-[(E)-2-[(2S,6R)-1,6-dimethylpiperidin-2-yl]ethenyl]-3-methyl-3a,4,4a,5,6,7,8,8a,9,9a-decahydro-3H-benzo[f][2]benzofuran-1-one

> <PUBCHEM_IUPAC_SYSTEMATIC_NAME>
(3S,3aR,4R,4aS,8aR,9aS)-4-[(E)-2-[(2S,6R)-1,6-dimethylpiperidin-2-yl]ethenyl]-3-methyl-3a,4,4a,5,6,7,8,8a,9,9a-decahydro-3H-benzo[f][2]benzofuran-1-one

> <PUBCHEM_IUPAC_TRADITIONAL_NAME>
(3S,3aR,4R,4aS,8aR,9aS)-4-[(E)-2-[(2S,6R)-1,6-dimethyl-2-piperidyl]vinyl]-3-methyl-3a,4,4a,5,6,7,8,8a,9,9a-decahydro-3H-benz[f]isobenzofuran-1-one

> <PUBCHEM_IUPAC_INCHI>
InChI=1S/C22H35NO2/c1-14-7-6-9-17(23(14)3)11-12-19-18-10-5-4-8-16(18)13-20-21(19)15(2)25-22(20)24/h11-12,14-21H,4-10,13H2,1-3H3/b12-11+/t14-,15+,16-,17+,18+,19-,20+,21-/m1/s1

> <PUBCHEM_IUPAC_INCHIKEY>
FMPNFDSPHNUFOS-YKCJDCANSA-N

> <PUBCHEM_XLOGP3_AA>
5

> <PUBCHEM_EXACT_MASS>
345.266779

> <PUBCHEM_MOLECULAR_FORMULA>
C22H35NO2

> <PUBCHEM_MOLECULAR_WEIGHT>
345.5188

> <PUBCHEM_OPENEYE_CAN_SMILES>
CC1CCCC(N1C)C=CC2C3CCCCC3CC4C2C(OC4=O)C

> <PUBCHEM_OPENEYE_ISO_SMILES>
C[C@@H]1CCC[C@H](N1C)/C=C/[C@@H]2[C@H]3CCCC[C@@H]3C[C@H]4[C@@H]2[C@@H](OC4=O)C

> <PUBCHEM_CACTVS_TPSA>
29.5

> <PUBCHEM_MONOISOTOPIC_WEIGHT>
345.266779

> <PUBCHEM_TOTAL_CHARGE>
0

> <PUBCHEM_HEAVY_ATOM_COUNT>
25

> <PUBCHEM_ATOM_DEF_STEREO_COUNT>
8

> <PUBCHEM_ATOM_UDEF_STEREO_COUNT>
0

> <PUBCHEM_BOND_DEF_STEREO_COUNT>
1

> <PUBCHEM_BOND_UDEF_STEREO_COUNT>
0

> <PUBCHEM_ISOTOPIC_ATOM_COUNT>
0

> <PUBCHEM_COMPONENT_COUNT>
1

> <PUBCHEM_CACTVS_TAUTO_COUNT>
2

> <PUBCHEM_COORDINATE_TYPE>
1
5
255

> <PUBCHEM_BONDANNOTATIONS>
12  17  6
19  18  5
21  25  6
4  26  5
5  27  6
6  28  6
7  16  5
8  30  6

$$$$

