10317
  -OEChem-07051213053D

 28 29  0     0  0  0  0  0  0999 V2000
   -0.1682    0.1099   -0.5565 N   0  0  0  0  0  0  0  0  0  0  0  0
    1.3021   -2.2919   -0.2019 N   0  0  0  0  0  0  0  0  0  0  0  0
    5.3538    0.3166    0.3566 N   0  0  0  0  0  0  0  0  0  0  0  0
   -0.7849    0.1521    0.5341 N   0  0  0  0  0  0  0  0  0  0  0  0
    1.9408   -1.0330   -0.1523 C   0  0  0  0  0  0  0  0  0  0  0  0
    1.2178    0.1444   -0.3266 C   0  0  0  0  0  0  0  0  0  0  0  0
    3.9635    0.2585    0.1271 C   0  0  0  0  0  0  0  0  0  0  0  0
    3.3159   -0.9759    0.0748 C   0  0  0  0  0  0  0  0  0  0  0  0
    1.8610    1.3787   -0.2752 C   0  0  0  0  0  0  0  0  0  0  0  0
    3.2360    1.4357   -0.0480 C   0  0  0  0  0  0  0  0  0  0  0  0
   -2.1639    0.1181    0.3057 C   0  0  0  0  0  0  0  0  0  0  0  0
   -2.8317   -1.1053    0.2499 C   0  0  0  0  0  0  0  0  0  0  0  0
   -2.8718    1.3075    0.1338 C   0  0  0  0  0  0  0  0  0  0  0  0
   -4.2074   -1.1392    0.0221 C   0  0  0  0  0  0  0  0  0  0  0  0
   -4.2476    1.2736   -0.0939 C   0  0  0  0  0  0  0  0  0  0  0  0
   -4.9153    0.0502   -0.1498 C   0  0  0  0  0  0  0  0  0  0  0  0
    3.8842   -1.8935    0.2115 H   0  0  0  0  0  0  0  0  0  0  0  0
    1.3031    2.3014   -0.4111 H   0  0  0  0  0  0  0  0  0  0  0  0
    3.7292    2.4037   -0.0097 H   0  0  0  0  0  0  0  0  0  0  0  0
   -2.2890   -2.0376    0.3835 H   0  0  0  0  0  0  0  0  0  0  0  0
   -2.3607    2.2658    0.1763 H   0  0  0  0  0  0  0  0  0  0  0  0
    1.8385   -3.1394   -0.0728 H   0  0  0  0  0  0  0  0  0  0  0  0
    0.3052   -2.3428   -0.3643 H   0  0  0  0  0  0  0  0  0  0  0  0
   -4.7274   -2.0917   -0.0212 H   0  0  0  0  0  0  0  0  0  0  0  0
   -4.7990    2.1998   -0.2275 H   0  0  0  0  0  0  0  0  0  0  0  0
    5.8234    1.2114    0.3951 H   0  0  0  0  0  0  0  0  0  0  0  0
    5.8821   -0.5363    0.4842 H   0  0  0  0  0  0  0  0  0  0  0  0
   -5.9865    0.0238   -0.3270 H   0  0  0  0  0  0  0  0  0  0  0  0
  1  4  2  0  0  0  0
  1  6  1  0  0  0  0
  2  5  1  0  0  0  0
  2 22  1  0  0  0  0
  2 23  1  0  0  0  0
  3  7  1  0  0  0  0
  3 26  1  0  0  0  0
  3 27  1  0  0  0  0
  4 11  1  0  0  0  0
  5  6  2  0  0  0  0
  5  8  1  0  0  0  0
  6  9  1  0  0  0  0
  7  8  2  0  0  0  0
  7 10  1  0  0  0  0
  8 17  1  0  0  0  0
  9 10  2  0  0  0  0
  9 18  1  0  0  0  0
 10 19  1  0  0  0  0
 11 12  2  0  0  0  0
 11 13  1  0  0  0  0
 12 14  1  0  0  0  0
 12 20  1  0  0  0  0
 13 15  2  0  0  0  0
 13 21  1  0  0  0  0
 14 16  2  0  0  0  0
 14 24  1  0  0  0  0
 15 16  1  0  0  0  0
 15 25  1  0  0  0  0
 16 28  1  0  0  0  0
M  END
> <PUBCHEM_COMPOUND_CID>
10317

> <PUBCHEM_CONFORMER_RMSD>
0.6

> <PUBCHEM_CONFORMER_DIVERSEORDER>
1
3
2

> <PUBCHEM_MMFF94_PARTIAL_CHARGES>
28
1 -0.18
10 -0.15
11 0.18
12 -0.15
13 -0.15
14 -0.15
15 -0.15
16 -0.15
17 0.15
18 0.15
19 0.15
2 -0.9
20 0.15
21 0.15
22 0.4
23 0.4
24 0.15
25 0.15
26 0.4
27 0.4
28 0.15
3 -0.9
4 -0.18
5 0.1
6 0.18
7 0.1
8 -0.15
9 -0.15

> <PUBCHEM_EFFECTIVE_ROTOR_COUNT>
2

> <PUBCHEM_PHARMACOPHORE_FEATURES>
6
1 2 cation
1 2 donor
1 3 cation
1 3 donor
6 11 12 13 14 15 16 rings
6 5 6 7 8 9 10 rings

> <PUBCHEM_HEAVY_ATOM_COUNT>
16

> <PUBCHEM_ATOM_DEF_STEREO_COUNT>
0

> <PUBCHEM_ATOM_UDEF_STEREO_COUNT>
0

> <PUBCHEM_BOND_DEF_STEREO_COUNT>
0

> <PUBCHEM_BOND_UDEF_STEREO_COUNT>
0

> <PUBCHEM_ISOTOPIC_ATOM_COUNT>
0

> <PUBCHEM_COMPONENT_COUNT>
1

> <PUBCHEM_CACTVS_TAUTO_COUNT>
12

> <PUBCHEM_CONFORMER_ID>
0000284D00000001

> <PUBCHEM_MMFF94_ENERGY>
64.1608

> <PUBCHEM_FEATURE_SELFOVERLAP>
30.446

> <PUBCHEM_SHAPE_FINGERPRINT>
10014705 185 18272936050899568517
10608611 8 18412263960683842149
10616163 171 18336826394967197879
11370993 70 18411702084366886203
11471102 20 18410856585810559060
11615757 297 17530678788685891817
12107183 9 17690844879263509497
12236239 1 17821449062483341924
12500047 106 18410298008165538979
12507557 5 18334859398328756353
13167823 11 18411420605021173283
14251717 144 18411136939611057254
14415576 193 18413384324082311372
15196674 1 18410574010947927506
15375358 24 18343017796266124995
15442244 35 18049438441899824921
15536298 74 18335699485289028670
17802600 8 18410577275255110161
17834072 33 18412543176370494732
18186145 218 18335690689464648465
19050596 39 18409726253465889841
200 152 18186804677686705101
20279233 1 18272925029538518891
20645477 56 18272652398490632741
20645477 70 18334856177040013319
21267235 1 18410846655524540663
21709351 56 18413112740394158788
22854114 59 18410292510269789960
23402539 116 18202571669933702717
23402655 69 18408322202591631157
23559900 14 18263083378120189450
26918003 58 18342458123382975315
300161 21 18336833073762136129
33824 294 18412826914995690218
351380 180 18413390925357296465
3545911 37 18410854373928892213
42 15 18343864415723922629
4214541 1 18411981377689887117
4990 188 18040985259625601740
5104073 3 18410854390765721579
542803 24 17489866037896388437
69090 78 18412827984468667243
77779 3 18411135840204788045
9709674 26 18411129243251663591

> <PUBCHEM_SHAPE_MULTIPOLES>
309.35
10.58
1.66
0.66
1.37
0.33
0
-1.07
0.53
-0.09
-0.07
0.01
-0.01
0.06

> <PUBCHEM_SHAPE_SELFOVERLAP>
666.846

> <PUBCHEM_SHAPE_VOLUME>
170.3

> <PUBCHEM_COORDINATE_TYPE>
2
5
10

$$$$

