3305
  -OEChem-07051212543D

 19 18  0     0  0  0  0  0  0999 V2000
    1.5480    0.3322   -0.0356 P   0  0  0  0  0  0  0  0  0  0  0  0
   -1.6453    0.2012    0.0356 P   0  0  0  0  0  0  0  0  0  0  0  0
   -0.0313   -1.1769   -1.3984 O   0  0  0  0  0  0  0  0  0  0  0  0
    2.6853   -0.7869   -0.2932 O   0  0  0  0  0  0  0  0  0  0  0  0
    1.7385    0.7016    1.5270 O   0  0  0  0  0  0  0  0  0  0  0  0
   -1.5052    1.4899   -0.9292 O   0  0  0  0  0  0  0  0  0  0  0  0
   -1.6135    0.8339    1.5219 O   0  0  0  0  0  0  0  0  0  0  0  0
    1.5833    1.5005   -0.9756 O   0  0  0  0  0  0  0  0  0  0  0  0
   -2.8014   -0.7042   -0.2696 O   0  0  0  0  0  0  0  0  0  0  0  0
   -0.0112   -0.6129   -0.0867 C   0  0  0  0  0  0  0  0  0  0  0  0
    0.0529   -1.7784    0.9038 C   0  0  0  0  0  0  0  0  0  0  0  0
    0.9388   -2.3989    0.7370 H   0  0  0  0  0  0  0  0  0  0  0  0
   -0.8169   -2.4341    0.7895 H   0  0  0  0  0  0  0  0  0  0  0  0
    0.0724   -1.4159    1.9354 H   0  0  0  0  0  0  0  0  0  0  0  0
   -0.0649   -0.4386   -2.0302 H   0  0  0  0  0  0  0  0  0  0  0  0
    3.6228   -0.5055   -0.3556 H   0  0  0  0  0  0  0  0  0  0  0  0
    2.5040    1.2535    1.7942 H   0  0  0  0  0  0  0  0  0  0  0  0
   -0.6204    1.7651   -1.2502 H   0  0  0  0  0  0  0  0  0  0  0  0
   -2.4073    1.3034    1.8557 H   0  0  0  0  0  0  0  0  0  0  0  0
  1  4  1  0  0  0  0
  1  5  1  0  0  0  0
  1  8  2  0  0  0  0
  1 10  1  0  0  0  0
  2  6  1  0  0  0  0
  2  7  1  0  0  0  0
  2  9  2  0  0  0  0
  2 10  1  0  0  0  0
  3 10  1  0  0  0  0
  3 15  1  0  0  0  0
  4 16  1  0  0  0  0
  5 17  1  0  0  0  0
  6 18  1  0  0  0  0
  7 19  1  0  0  0  0
 10 11  1  0  0  0  0
 11 12  1  0  0  0  0
 11 13  1  0  0  0  0
 11 14  1  0  0  0  0
M  END
> <PUBCHEM_COMPOUND_CID>
3305

> <PUBCHEM_CONFORMER_RMSD>
0.4

> <PUBCHEM_CONFORMER_DIVERSEORDER>
1

> <PUBCHEM_MMFF94_PARTIAL_CHARGES>
15
1 1.24
10 0.28
15 0.4
16 0.5
17 0.5
18 0.5
19 0.5
2 1.24
3 -0.68
4 -0.77
5 -0.77
6 -0.77
7 -0.77
8 -0.7
9 -0.7

> <PUBCHEM_EFFECTIVE_ROTOR_COUNT>
2

> <PUBCHEM_PHARMACOPHORE_FEATURES>
10
1 3 acceptor
1 3 donor
1 4 acceptor
1 5 acceptor
1 6 acceptor
1 7 acceptor
1 8 acceptor
1 9 acceptor
4 1 4 5 8 anion
4 2 6 7 9 anion

> <PUBCHEM_HEAVY_ATOM_COUNT>
11

> <PUBCHEM_ATOM_DEF_STEREO_COUNT>
0

> <PUBCHEM_ATOM_UDEF_STEREO_COUNT>
0

> <PUBCHEM_BOND_DEF_STEREO_COUNT>
0

> <PUBCHEM_BOND_UDEF_STEREO_COUNT>
0

> <PUBCHEM_ISOTOPIC_ATOM_COUNT>
0

> <PUBCHEM_COMPONENT_COUNT>
1

> <PUBCHEM_CACTVS_TAUTO_COUNT>
1

> <PUBCHEM_CONFORMER_ID>
00000CE900000001

> <PUBCHEM_MMFF94_ENERGY>
-43.7723

> <PUBCHEM_FEATURE_SELFOVERLAP>
50.82

> <PUBCHEM_SHAPE_FINGERPRINT>
15775835 57 18334855025999054425
16945 1 18060707186312505259
21028194 46 18334012787191191913
21040471 1 18339928121246966914
21922407 69 17129311852917658952
241688 4 18409728507970363936
24536 1 18054801585100996262
5084963 1 18409729564516299458

> <PUBCHEM_SHAPE_MULTIPOLES>
192.99
3.16
1.59
1.3
0.14
0.08
0.31
-0.3
-0.02
-0.06
-0.13
-0.03
-0.08
-0.04

> <PUBCHEM_SHAPE_SELFOVERLAP>
339.554

> <PUBCHEM_SHAPE_VOLUME>
126.9

> <PUBCHEM_COORDINATE_TYPE>
2
5
10

$$$$

