12554
  -OEChem-06261207053D

 44 46  0     0  0  0  0  0  0999 V2000
    4.6636    0.3801    0.0290 O   0  0  0  0  0  0  0  0  0  0  0  0
   -0.7143   -4.6347    1.0705 O   0  0  0  0  0  0  0  0  0  0  0  0
    8.3079    0.6373    0.0132 O   0  0  0  0  0  0  0  0  0  0  0  0
    6.8917   -1.2547    0.1148 O   0  0  0  0  0  0  0  0  0  0  0  0
   -6.8847    2.3540   -1.0571 O   0  0  0  0  0  0  0  0  0  0  0  0
   -0.3439    0.8328   -0.0138 N   0  0  0  0  0  0  0  0  0  0  0  0
   -2.0536   -3.0172    0.0512 N   0  0  0  0  0  0  0  0  0  0  0  0
   -5.8098    0.5500   -0.0383 N   0  0  0  0  0  0  0  0  0  0  0  0
    6.9690    0.1618    0.0375 N   0  0  0  0  0  0  0  0  0  0  0  0
   -2.3608   -0.5772    0.0022 C   0  0  0  0  0  0  0  0  0  0  0  0
   -1.6388    0.7258   -0.0189 C   0  0  0  0  0  0  0  0  0  0  0  0
   -1.5472   -1.8284    0.0309 C   0  0  0  0  0  0  0  0  0  0  0  0
    0.3987   -0.3235    0.0120 C   0  0  0  0  0  0  0  0  0  0  0  0
   -3.6987   -0.6150   -0.0048 C   0  0  0  0  0  0  0  0  0  0  0  0
   -0.0833   -1.5767    0.0338 C   0  0  0  0  0  0  0  0  0  0  0  0
   -2.4616    1.9566   -0.0465 C   0  0  0  0  0  0  0  0  0  0  0  0
   -4.5166    0.6229   -0.0329 C   0  0  0  0  0  0  0  0  0  0  0  0
   -3.7940    1.9101   -0.0530 C   0  0  0  0  0  0  0  0  0  0  0  0
    1.8233   -0.0929    0.0155 C   0  0  0  0  0  0  0  0  0  0  0  0
    2.3573    1.1344   -0.0053 C   0  0  0  0  0  0  0  0  0  0  0  0
    3.7681    1.3874   -0.0190 C   0  0  0  0  0  0  0  0  0  0  0  0
    4.3763    2.6066   -0.0789 C   0  0  0  0  0  0  0  0  0  0  0  0
    5.8883    0.9680   -0.0007 C   0  0  0  0  0  0  0  0  0  0  0  0
    5.7655    2.3365   -0.0669 C   0  0  0  0  0  0  0  0  0  0  0  0
   -1.1786   -4.0794    0.0764 C   0  0  0  0  0  0  0  0  0  0  0  0
   -6.5092    1.7337   -0.0640 C   0  0  0  0  0  0  0  0  0  0  0  0
   -0.8103   -4.5447   -1.3081 C   0  0  0  0  0  0  0  0  0  0  0  0
   -6.8041    2.2463    1.3213 C   0  0  0  0  0  0  0  0  0  0  0  0
   -4.2465   -1.5520    0.0101 H   0  0  0  0  0  0  0  0  0  0  0  0
    0.6026   -2.4163    0.0594 H   0  0  0  0  0  0  0  0  0  0  0  0
   -1.9428    2.9093   -0.0640 H   0  0  0  0  0  0  0  0  0  0  0  0
   -4.3347    2.8486   -0.0802 H   0  0  0  0  0  0  0  0  0  0  0  0
    2.4685   -0.9686    0.0299 H   0  0  0  0  0  0  0  0  0  0  0  0
    1.7303    2.0221   -0.0232 H   0  0  0  0  0  0  0  0  0  0  0  0
    3.9002    3.5761   -0.1257 H   0  0  0  0  0  0  0  0  0  0  0  0
    6.5725    3.0547   -0.1026 H   0  0  0  0  0  0  0  0  0  0  0  0
   -0.4799   -3.7097   -1.9310 H   0  0  0  0  0  0  0  0  0  0  0  0
    0.0058   -5.2703   -1.2449 H   0  0  0  0  0  0  0  0  0  0  0  0
   -1.6764   -5.0268   -1.7696 H   0  0  0  0  0  0  0  0  0  0  0  0
   -5.9018    2.2650    1.9375 H   0  0  0  0  0  0  0  0  0  0  0  0
   -7.1977    3.2650    1.2578 H   0  0  0  0  0  0  0  0  0  0  0  0
   -7.5559    1.6060    1.7908 H   0  0  0  0  0  0  0  0  0  0  0  0
    8.5966    0.3393   -0.8661 H   0  0  0  0  0  0  0  0  0  0  0  0
    7.2442   -1.5093   -0.7548 H   0  0  0  0  0  0  0  0  0  0  0  0
  1 21  1  0  0  0  0
  1 23  1  0  0  0  0
  2 25  2  0  0  0  0
  3  9  1  0  0  0  0
  3 43  1  0  0  0  0
  4  9  1  0  0  0  0
  4 44  1  0  0  0  0
  5 26  2  0  0  0  0
  6 11  2  0  0  0  0
  6 13  1  0  0  0  0
  7 12  2  0  0  0  0
  7 25  1  0  0  0  0
  8 17  2  0  0  0  0
  8 26  1  0  0  0  0
  9 23  1  0  0  0  0
 10 11  1  0  0  0  0
 10 12  1  0  0  0  0
 10 14  2  0  0  0  0
 11 16  1  0  0  0  0
 12 15  1  0  0  0  0
 13 15  2  0  0  0  0
 13 19  1  0  0  0  0
 14 17  1  0  0  0  0
 14 29  1  0  0  0  0
 15 30  1  0  0  0  0
 16 18  2  0  0  0  0
 16 31  1  0  0  0  0
 17 18  1  0  0  0  0
 18 32  1  0  0  0  0
 19 20  2  0  0  0  0
 19 33  1  0  0  0  0
 20 21  1  0  0  0  0
 20 34  1  0  0  0  0
 21 22  2  0  0  0  0
 22 24  1  0  0  0  0
 22 35  1  0  0  0  0
 23 24  2  0  0  0  0
 24 36  1  0  0  0  0
 25 27  1  0  0  0  0
 26 28  1  0  0  0  0
 27 37  1  0  0  0  0
 27 38  1  0  0  0  0
 27 39  1  0  0  0  0
 28 40  1  0  0  0  0
 28 41  1  0  0  0  0
 28 42  1  0  0  0  0
M  END
> <PUBCHEM_COMPOUND_CID>
12554

> <PUBCHEM_CONFORMER_RMSD>
0.8

> <PUBCHEM_CONFORMER_DIVERSEORDER>
1
5
11
8
6
9
3
12
13
7
10
2
4

> <PUBCHEM_MMFF94_PARTIAL_CHARGES>
38
1 -0.28
10 0.03
11 0.42
12 0.42
13 0.17
14 -0.14
15 -0.14
16 -0.14
17 0.42
18 -0.14
19 -0.15
2 -0.57
20 -0.11
21 0.09
22 -0.15
23 0.22
24 -0.15
25 0.72
26 0.72
27 0.06
28 0.06
29 0.15
3 -0.38
30 0.15
31 0.15
32 0.15
33 0.15
34 0.15
35 0.15
36 0.15
4 -0.38
43 0.4
44 0.4
5 -0.57
6 -0.62
7 -0.66
8 -0.66
9 -0.13

> <PUBCHEM_EFFECTIVE_ROTOR_COUNT>
5

> <PUBCHEM_PHARMACOPHORE_FEATURES>
15
1 1 acceptor
1 2 acceptor
1 3 acceptor
1 3 anion
1 4 acceptor
1 4 anion
1 5 acceptor
1 6 acceptor
1 7 acceptor
1 7 donor
1 8 acceptor
1 8 donor
5 1 21 22 23 24 rings
6 10 11 14 16 17 18 rings
6 6 10 11 12 13 15 rings

> <PUBCHEM_HEAVY_ATOM_COUNT>
28

> <PUBCHEM_ATOM_DEF_STEREO_COUNT>
0

> <PUBCHEM_ATOM_UDEF_STEREO_COUNT>
0

> <PUBCHEM_BOND_DEF_STEREO_COUNT>
0

> <PUBCHEM_BOND_UDEF_STEREO_COUNT>
1

> <PUBCHEM_ISOTOPIC_ATOM_COUNT>
0

> <PUBCHEM_COMPONENT_COUNT>
1

> <PUBCHEM_CACTVS_TAUTO_COUNT>
1

> <PUBCHEM_CONFORMER_ID>
0000310A00000001

> <PUBCHEM_MMFF94_ENERGY>
74.1402

> <PUBCHEM_FEATURE_SELFOVERLAP>
76.311

> <PUBCHEM_SHAPE_FINGERPRINT>
10050765 1 18122624955935228276
10165383 225 18409448111669027417
10411042 1 17546164104684403443
10835480 77 18115312168555243472
11135926 11 18339082700734053829
11297750 10 17391361710841384819
11524674 6 17821728312793938782
11796584 16 18334572401084061574
12107183 9 18341621451507200826
12144603 126 18202848752403828256
12293681 160 17894629266805138809
12516196 113 9511456723563719533
12788726 201 18051426075872662971
12977781 61 17605249857478267918
13248334 5 17977946018873462831
14117953 113 18343584070646105717
14257110 125 18410856573258291281
14790565 3 18410571791130759265
15042514 8 18124873461028884787
15131766 46 15265070092640510686
15183329 4 18335416885806385528
15250474 111 18270415876012977530
15927050 60 18410578379167888835
17844677 252 18195801874363696252
19611394 137 17987502725102358881
20554085 129 17968957373412535579
21033648 29 18336555923422445409
21065198 57 18265896861552380184
21133410 171 17111064350056072778
21236236 1 18335984147664106055
21859007 373 17987523774062090196
23559900 14 18335144129708224944
23569917 315 18411131421043124151
249057 3 18411699885786677404
25019877 29 18335416881300006941
2838139 119 18410298016761378773
335352 9 18410856551519879972
3610482 184 17845077486371767246
3633792 109 18262235658971234009
4058900 60 18338512058188107697
4073 2 18199186192855486072
4214541 1 18339080389814658604
44062 13 18263923246754613214
4408954 64 15837009636098720307
5104073 3 18266183825634420008
5385378 56 18266451187179673521
559249 180 18410576141826855674
6669772 16 18261107529981991079
77188 2 17330556961210296671
9981440 41 18343012312130659835

> <PUBCHEM_SHAPE_MULTIPOLES>
526.96
18.73
4.7
0.78
19.26
7.76
-0.01
-17.69
-0.58
-3.46
0.15
-0.75
0.21
-0.26

> <PUBCHEM_SHAPE_SELFOVERLAP>
1139.814

> <PUBCHEM_SHAPE_VOLUME>
286.3

> <PUBCHEM_COORDINATE_TYPE>
2
5
10

$$$$

