443477
  -OEChem-07051213023D

 51 53  0     1  0  0  0  0  0999 V2000
    5.2863    1.2398   -0.6553 O   0  0  0  0  0  0  0  0  0  0  0  0
    0.7537   -0.7505    0.1702 C   0  0  1  0  0  0  0  0  0  0  0  0
    1.7364    0.4156   -0.2196 C   0  0  2  0  0  0  0  0  0  0  0  0
   -0.5942   -0.5148   -0.6314 C   0  0  2  0  0  0  0  0  0  0  0  0
    3.2429    0.2325    0.1623 C   0  0  2  0  0  0  0  0  0  0  0  0
    1.3849   -2.1003   -0.2560 C   0  0  0  0  0  0  0  0  0  0  0  0
    1.1489    1.7778    0.2015 C   0  0  0  0  0  0  0  0  0  0  0  0
    3.7299   -1.1815   -0.2175 C   0  0  0  0  0  0  0  0  0  0  0  0
    2.8068   -2.2935    0.2629 C   0  0  0  0  0  0  0  0  0  0  0  0
   -1.1604    0.8843   -0.3935 C   0  0  0  0  0  0  0  0  0  0  0  0
   -0.1899    2.0358   -0.4895 C   0  0  0  0  0  0  0  0  0  0  0  0
    0.4530   -0.8003    1.6910 C   0  0  0  0  0  0  0  0  0  0  0  0
   -1.6508   -1.6250   -0.3932 C   0  0  0  0  0  0  0  0  0  0  0  0
    3.6101    0.5576    1.6182 C   0  0  0  0  0  0  0  0  0  0  0  0
   -3.0354   -1.2194   -0.8922 C   0  0  0  0  0  0  0  0  0  0  0  0
    4.0621    1.1768   -0.6978 C   0  0  0  0  0  0  0  0  0  0  0  0
   -2.4680    1.1101   -0.1682 C   0  0  0  0  0  0  0  0  0  0  0  0
   -3.4725    0.0672   -0.2429 C   0  0  0  0  0  0  0  0  0  0  0  0
   -4.7218    0.2551    0.2065 C   0  0  0  0  0  0  0  0  0  0  0  0
   -5.7628   -0.8223    0.1303 C   0  0  0  0  0  0  0  0  0  0  0  0
   -5.1591    1.5551    0.8142 C   0  0  0  0  0  0  0  0  0  0  0  0
    1.7350    0.4239   -1.3232 H   0  0  0  0  0  0  0  0  0  0  0  0
   -0.3501   -0.5515   -1.7045 H   0  0  0  0  0  0  0  0  0  0  0  0
    1.4026   -2.1669   -1.3521 H   0  0  0  0  0  0  0  0  0  0  0  0
    0.7720   -2.9401    0.0930 H   0  0  0  0  0  0  0  0  0  0  0  0
    1.8286    2.5964   -0.0600 H   0  0  0  0  0  0  0  0  0  0  0  0
    1.0171    1.8290    1.2878 H   0  0  0  0  0  0  0  0  0  0  0  0
    4.7393   -1.3599    0.1758 H   0  0  0  0  0  0  0  0  0  0  0  0
    3.8205   -1.2614   -1.3103 H   0  0  0  0  0  0  0  0  0  0  0  0
    3.1901   -3.2557   -0.0975 H   0  0  0  0  0  0  0  0  0  0  0  0
    2.8145   -2.3510    1.3563 H   0  0  0  0  0  0  0  0  0  0  0  0
   -0.0015    2.2255   -1.5545 H   0  0  0  0  0  0  0  0  0  0  0  0
   -0.6231    2.9577   -0.0827 H   0  0  0  0  0  0  0  0  0  0  0  0
    1.3531   -0.8162    2.3007 H   0  0  0  0  0  0  0  0  0  0  0  0
   -0.1507    0.0476    2.0277 H   0  0  0  0  0  0  0  0  0  0  0  0
   -0.0932   -1.7096    1.9624 H   0  0  0  0  0  0  0  0  0  0  0  0
   -1.7386   -1.8732    0.6694 H   0  0  0  0  0  0  0  0  0  0  0  0
   -1.3420   -2.5434   -0.9063 H   0  0  0  0  0  0  0  0  0  0  0  0
    4.6984    0.5775    1.7580 H   0  0  0  0  0  0  0  0  0  0  0  0
    3.2464    1.5448    1.9202 H   0  0  0  0  0  0  0  0  0  0  0  0
    3.2361   -0.1799    2.3277 H   0  0  0  0  0  0  0  0  0  0  0  0
   -3.7072   -2.0584   -0.6900 H   0  0  0  0  0  0  0  0  0  0  0  0
   -3.0103   -1.0846   -1.9812 H   0  0  0  0  0  0  0  0  0  0  0  0
    3.5129    1.8152   -1.4099 H   0  0  0  0  0  0  0  0  0  0  0  0
   -2.7887    2.1344   -0.0055 H   0  0  0  0  0  0  0  0  0  0  0  0
   -5.6813   -1.4963    0.9888 H   0  0  0  0  0  0  0  0  0  0  0  0
   -6.7681   -0.3854    0.1439 H   0  0  0  0  0  0  0  0  0  0  0  0
   -5.7118   -1.4005   -0.7970 H   0  0  0  0  0  0  0  0  0  0  0  0
   -5.5005    2.2461    0.0370 H   0  0  0  0  0  0  0  0  0  0  0  0
   -5.9967    1.3897    1.5022 H   0  0  0  0  0  0  0  0  0  0  0  0
   -4.3849    2.0371    1.4184 H   0  0  0  0  0  0  0  0  0  0  0  0
  1 16  2  0  0  0  0
  2  3  1  0  0  0  0
  2  4  1  0  0  0  0
  2  6  1  0  0  0  0
  2 12  1  0  0  0  0
  3  5  1  0  0  0  0
  3  7  1  0  0  0  0
  3 22  1  0  0  0  0
  4 10  1  0  0  0  0
  4 13  1  0  0  0  0
  4 23  1  0  0  0  0
  5  8  1  0  0  0  0
  5 14  1  0  0  0  0
  5 16  1  0  0  0  0
  6  9  1  0  0  0  0
  6 24  1  0  0  0  0
  6 25  1  0  0  0  0
  7 11  1  0  0  0  0
  7 26  1  0  0  0  0
  7 27  1  0  0  0  0
  8  9  1  0  0  0  0
  8 28  1  0  0  0  0
  8 29  1  0  0  0  0
  9 30  1  0  0  0  0
  9 31  1  0  0  0  0
 10 11  1  0  0  0  0
 10 17  2  0  0  0  0
 11 32  1  0  0  0  0
 11 33  1  0  0  0  0
 12 34  1  0  0  0  0
 12 35  1  0  0  0  0
 12 36  1  0  0  0  0
 13 15  1  0  0  0  0
 13 37  1  0  0  0  0
 13 38  1  0  0  0  0
 14 39  1  0  0  0  0
 14 40  1  0  0  0  0
 14 41  1  0  0  0  0
 15 18  1  0  0  0  0
 15 42  1  0  0  0  0
 15 43  1  0  0  0  0
 16 44  1  0  0  0  0
 17 18  1  0  0  0  0
 17 45  1  0  0  0  0
 18 19  2  0  0  0  0
 19 20  1  0  0  0  0
 19 21  1  0  0  0  0
 20 46  1  0  0  0  0
 20 47  1  0  0  0  0
 20 48  1  0  0  0  0
 21 49  1  0  0  0  0
 21 50  1  0  0  0  0
 21 51  1  0  0  0  0
M  END
> <PUBCHEM_COMPOUND_CID>
443477

> <PUBCHEM_CONFORMER_RMSD>
0.6

> <PUBCHEM_CONFORMER_DIVERSEORDER>
1

> <PUBCHEM_MMFF94_PARTIAL_CHARGES>
14
1 -0.57
10 -0.28
11 0.14
15 0.14
16 0.45
17 -0.15
18 -0.14
19 -0.28
20 0.14
21 0.14
4 0.14
44 0.06
45 0.15
5 0.06

> <PUBCHEM_EFFECTIVE_ROTOR_COUNT>
2.6

> <PUBCHEM_PHARMACOPHORE_FEATURES>
5
1 1 acceptor
3 19 20 21 hydrophobe
6 2 3 4 7 10 11 rings
6 2 3 5 6 8 9 rings
6 4 10 13 15 17 18 rings

> <PUBCHEM_HEAVY_ATOM_COUNT>
21

> <PUBCHEM_ATOM_DEF_STEREO_COUNT>
4

> <PUBCHEM_ATOM_UDEF_STEREO_COUNT>
0

> <PUBCHEM_BOND_DEF_STEREO_COUNT>
0

> <PUBCHEM_BOND_UDEF_STEREO_COUNT>
0

> <PUBCHEM_ISOTOPIC_ATOM_COUNT>
0

> <PUBCHEM_COMPONENT_COUNT>
1

> <PUBCHEM_CACTVS_TAUTO_COUNT>
1

> <PUBCHEM_CONFORMER_ID>
0006C45500000001

> <PUBCHEM_MMFF94_ENERGY>
66.8295

> <PUBCHEM_FEATURE_SELFOVERLAP>
25.405

> <PUBCHEM_SHAPE_FINGERPRINT>
10906281 52 18200864081579772444
10967382 1 18411141333404753710
11089746 13 17313116266613379313
11132069 177 18339938059653564325
12107183 9 17759517068942284977
12236239 1 18333728031297375473
12251169 10 18335140878180189133
12403814 3 17989213646382786133
12553582 1 18339091414257339885
12644460 14 18343863342003048602
12788726 201 17458615774204376256
13140716 1 18194973936937450504
13221675 6 18412550911701345351
13224815 77 18131073748509444310
13675066 3 18411139147566956817
13760787 19 18187365415252181231
14178342 30 18118707438274458706
14341114 176 18410565202787460315
14341114 328 18131636659824049443
14787075 74 18131348583688449921
14790565 3 18267576918987394172
15196674 1 18410574019938451055
15238133 3 16733828730297706963
15239154 128 18040438797745791361
15375462 189 18272098209689739891
15536298 74 18334577970548875175
15664445 248 18337371778652065884
15788980 27 14620797106865216555
1601671 61 18409448076813241340
16945 1 18338529564105410716
1813 80 17417808465570700325
18186145 218 17632864131006970678
18785283 64 17416103007125052949
19591789 44 18266741466296255671
19784866 170 18341890788146638359
20261772 1 18334577932342549407
20645477 70 18336262435559078318
20739085 24 18267573779413136789
21267235 1 18338510941111715838
21421861 104 18058176196692826042
23559900 14 18053391173464931958
2748010 2 18051708920537018628
296302 2 17917992767565833901
34797466 226 16443346416787880225
34934 24 18410858763232306255
350125 39 18337672048404922390
4340502 62 16917063361005292915
474 4 18060134297947140420
5104073 3 18336829783738112411
537710 114 18411135835794010228
54040823 5 18334573542569526646
633830 44 17988645219950345110
7832392 63 18261398805989005359
9981440 41 17185320837909229553

> <PUBCHEM_SHAPE_MULTIPOLES>
426.3
10.4
2.16
1.05
7.02
0.28
0.37
-1.56
0.61
-0.74
-0.14
-0.4
-0.03
-0.63

> <PUBCHEM_SHAPE_SELFOVERLAP>
893.374

> <PUBCHEM_SHAPE_VOLUME>
238.2

> <PUBCHEM_COORDINATE_TYPE>
2
5
10

$$$$

