5864
  -OEChem-07051212503D

 60 63  0     1  0  0  0  0  0999 V2000
   -0.1128   -1.7623   -1.9607 O   0  0  0  0  0  0  0  0  0  0  0  0
    2.8158    0.0867    2.0158 O   0  0  0  0  0  0  0  0  0  0  0  0
   -4.8629   -0.6896    2.7393 O   0  0  0  0  0  0  0  0  0  0  0  0
    5.2569    0.5537   -0.0675 O   0  0  0  0  0  0  0  0  0  0  0  0
    5.6841   -2.0887    0.5927 O   0  0  0  0  0  0  0  0  0  0  0  0
   -1.2321   -0.2633   -0.2988 C   0  0  1  0  0  0  0  0  0  0  0  0
   -0.5556    1.1218   -0.5689 C   0  0  2  0  0  0  0  0  0  0  0  0
    0.7816    1.1722    0.1868 C   0  0  1  0  0  0  0  0  0  0  0  0
    1.7754    0.0684   -0.2387 C   0  0  2  0  0  0  0  0  0  0  0  0
   -2.6698   -0.3585   -0.9513 C   0  0  2  0  0  0  0  0  0  0  0  0
   -3.5431    0.8433   -0.4523 C   0  0  2  0  0  0  0  0  0  0  0  0
   -0.2714   -1.4587   -0.5842 C   0  0  2  0  0  0  0  0  0  0  0  0
    1.1178   -1.2916    0.0718 C   0  0  0  0  0  0  0  0  0  0  0  0
    2.9864    0.4606    0.6517 C   0  0  1  0  0  0  0  0  0  0  0  0
   -1.4598    2.2858   -0.1331 C   0  0  0  0  0  0  0  0  0  0  0  0
    1.6186    2.4471    0.1210 C   0  0  0  0  0  0  0  0  0  0  0  0
   -2.8640    2.1954   -0.7182 C   0  0  0  0  0  0  0  0  0  0  0  0
    3.0207    2.0047    0.5883 C   0  0  0  0  0  0  0  0  0  0  0  0
   -3.3972   -1.6822   -0.5758 C   0  0  0  0  0  0  0  0  0  0  0  0
   -3.9442    0.7190    1.0320 C   0  0  0  0  0  0  0  0  0  0  0  0
    2.2019    0.1605   -1.7302 C   0  0  0  0  0  0  0  0  0  0  0  0
   -2.6316   -0.3146   -2.5014 C   0  0  0  0  0  0  0  0  0  0  0  0
   -3.7651   -1.7905    0.8991 C   0  0  0  0  0  0  0  0  0  0  0  0
   -4.6244   -0.6122    1.3378 C   0  0  1  0  0  0  0  0  0  0  0  0
    4.3003   -0.1476    0.2583 C   0  0  0  0  0  0  0  0  0  0  0  0
    4.3745   -1.6594    0.2864 C   0  0  0  0  0  0  0  0  0  0  0  0
   -1.3795   -0.2992    0.7900 H   0  0  0  0  0  0  0  0  0  0  0  0
   -0.3695    1.2357   -1.6413 H   0  0  0  0  0  0  0  0  0  0  0  0
    0.5365    1.0270    1.2522 H   0  0  0  0  0  0  0  0  0  0  0  0
   -4.4842    0.8432   -1.0217 H   0  0  0  0  0  0  0  0  0  0  0  0
   -0.7152   -2.3554   -0.1356 H   0  0  0  0  0  0  0  0  0  0  0  0
    0.9899   -1.4037    1.1557 H   0  0  0  0  0  0  0  0  0  0  0  0
    1.7647   -2.1102   -0.2588 H   0  0  0  0  0  0  0  0  0  0  0  0
   -1.0145    3.2377   -0.4468 H   0  0  0  0  0  0  0  0  0  0  0  0
   -1.5205    2.3244    0.9612 H   0  0  0  0  0  0  0  0  0  0  0  0
    1.2182    3.2344    0.7680 H   0  0  0  0  0  0  0  0  0  0  0  0
    1.6610    2.8466   -0.8985 H   0  0  0  0  0  0  0  0  0  0  0  0
   -3.4775    3.0079   -0.3096 H   0  0  0  0  0  0  0  0  0  0  0  0
   -2.8127    2.3758   -1.7986 H   0  0  0  0  0  0  0  0  0  0  0  0
    3.7556    2.4016   -0.1204 H   0  0  0  0  0  0  0  0  0  0  0  0
    3.2404    2.4486    1.5663 H   0  0  0  0  0  0  0  0  0  0  0  0
   -2.8000   -2.5532   -0.8670 H   0  0  0  0  0  0  0  0  0  0  0  0
   -4.3265   -1.7580   -1.1582 H   0  0  0  0  0  0  0  0  0  0  0  0
   -3.0810    0.8428    1.6962 H   0  0  0  0  0  0  0  0  0  0  0  0
   -4.6256    1.5375    1.2995 H   0  0  0  0  0  0  0  0  0  0  0  0
    2.8014    1.0502   -1.9478 H   0  0  0  0  0  0  0  0  0  0  0  0
    2.7990   -0.7085   -2.0248 H   0  0  0  0  0  0  0  0  0  0  0  0
    1.3463    0.1938   -2.4085 H   0  0  0  0  0  0  0  0  0  0  0  0
   -2.0135    0.4992   -2.8883 H   0  0  0  0  0  0  0  0  0  0  0  0
   -2.2533   -1.2492   -2.9257 H   0  0  0  0  0  0  0  0  0  0  0  0
   -3.6386   -0.1789   -2.9142 H   0  0  0  0  0  0  0  0  0  0  0  0
   -4.3123   -2.7245    1.0770 H   0  0  0  0  0  0  0  0  0  0  0  0
   -2.8663   -1.8605    1.5232 H   0  0  0  0  0  0  0  0  0  0  0  0
   -5.5961   -0.6597    0.8318 H   0  0  0  0  0  0  0  0  0  0  0  0
    0.4440   -2.5561   -2.0304 H   0  0  0  0  0  0  0  0  0  0  0  0
    3.5301    0.4900    2.5384 H   0  0  0  0  0  0  0  0  0  0  0  0
    4.1031   -2.0556   -0.6942 H   0  0  0  0  0  0  0  0  0  0  0  0
    3.7085   -2.0762    1.0452 H   0  0  0  0  0  0  0  0  0  0  0  0
   -5.4276    0.0634    2.9835 H   0  0  0  0  0  0  0  0  0  0  0  0
    5.8817   -1.8016    1.5007 H   0  0  0  0  0  0  0  0  0  0  0  0
  1 12  1  0  0  0  0
  1 55  1  0  0  0  0
  2 14  1  0  0  0  0
  2 56  1  0  0  0  0
  3 24  1  0  0  0  0
  3 59  1  0  0  0  0
  4 25  2  0  0  0  0
  5 26  1  0  0  0  0
  5 60  1  0  0  0  0
  6  7  1  0  0  0  0
  6 10  1  0  0  0  0
  6 12  1  0  0  0  0
  6 27  1  0  0  0  0
  7  8  1  0  0  0  0
  7 15  1  0  0  0  0
  7 28  1  0  0  0  0
  8  9  1  0  0  0  0
  8 16  1  0  0  0  0
  8 29  1  0  0  0  0
  9 13  1  0  0  0  0
  9 14  1  0  0  0  0
  9 21  1  0  0  0  0
 10 11  1  0  0  0  0
 10 19  1  0  0  0  0
 10 22  1  0  0  0  0
 11 17  1  0  0  0  0
 11 20  1  0  0  0  0
 11 30  1  0  0  0  0
 12 13  1  0  0  0  0
 12 31  1  0  0  0  0
 13 32  1  0  0  0  0
 13 33  1  0  0  0  0
 14 18  1  0  0  0  0
 14 25  1  0  0  0  0
 15 17  1  0  0  0  0
 15 34  1  0  0  0  0
 15 35  1  0  0  0  0
 16 18  1  0  0  0  0
 16 36  1  0  0  0  0
 16 37  1  0  0  0  0
 17 38  1  0  0  0  0
 17 39  1  0  0  0  0
 18 40  1  0  0  0  0
 18 41  1  0  0  0  0
 19 23  1  0  0  0  0
 19 42  1  0  0  0  0
 19 43  1  0  0  0  0
 20 24  1  0  0  0  0
 20 44  1  0  0  0  0
 20 45  1  0  0  0  0
 21 46  1  0  0  0  0
 21 47  1  0  0  0  0
 21 48  1  0  0  0  0
 22 49  1  0  0  0  0
 22 50  1  0  0  0  0
 22 51  1  0  0  0  0
 23 24  1  0  0  0  0
 23 52  1  0  0  0  0
 23 53  1  0  0  0  0
 24 54  1  0  0  0  0
 25 26  1  0  0  0  0
 26 57  1  0  0  0  0
 26 58  1  0  0  0  0
M  END
> <PUBCHEM_COMPOUND_CID>
5864

> <PUBCHEM_CONFORMER_RMSD>
0.8

> <PUBCHEM_CONFORMER_DIVERSEORDER>
1
2

> <PUBCHEM_MMFF94_PARTIAL_CHARGES>
14
1 -0.68
12 0.28
14 0.34
2 -0.68
24 0.28
25 0.45
26 0.34
3 -0.68
4 -0.57
5 -0.68
55 0.4
56 0.4
59 0.4
60 0.4

> <PUBCHEM_EFFECTIVE_ROTOR_COUNT>
4.2

> <PUBCHEM_PHARMACOPHORE_FEATURES>
13
1 1 acceptor
1 1 donor
1 2 acceptor
1 2 donor
1 3 acceptor
1 3 donor
1 4 acceptor
1 5 acceptor
1 5 donor
5 8 9 14 16 18 rings
6 10 11 19 20 23 24 rings
6 6 7 10 11 15 17 rings
6 6 7 8 9 12 13 rings

> <PUBCHEM_HEAVY_ATOM_COUNT>
26

> <PUBCHEM_ATOM_DEF_STEREO_COUNT>
9

> <PUBCHEM_ATOM_UDEF_STEREO_COUNT>
0

> <PUBCHEM_BOND_DEF_STEREO_COUNT>
0

> <PUBCHEM_BOND_UDEF_STEREO_COUNT>
0

> <PUBCHEM_ISOTOPIC_ATOM_COUNT>
0

> <PUBCHEM_COMPONENT_COUNT>
1

> <PUBCHEM_CACTVS_TAUTO_COUNT>
3

> <PUBCHEM_CONFORMER_ID>
000016E800000001

> <PUBCHEM_MMFF94_ENERGY>
92.3928

> <PUBCHEM_FEATURE_SELFOVERLAP>
66.098

> <PUBCHEM_SHAPE_FINGERPRINT>
11135609 12 18129651023412872890
11552529 35 17826795837195591195
12236239 1 17775002419104472604
12403259 226 18337402551485917053
12422481 6 18115016527952788363
12633257 1 17385444310473349376
12670546 177 11240000040132614883
12714826 92 17203336580964072405
13009979 54 17988350563983033548
13140716 1 18334576841268271673
13224815 77 18342460305216045973
13544653 18 17774721940375408755
13583140 156 17559979673938540613
13675066 3 18408892836494681040
14223421 5 18412260670838899381
14341114 176 18343578551253595464
14790565 3 17619343204534829844
14950920 106 18189601783807658851
14955137 171 18335127718147569816
15196674 1 18409456899018770380
15209289 33 18272370866850834482
15209294 21 17167859764235609555
15463212 79 5978098021063442997
15788980 27 18412831304140549710
16945 1 18410866446786465053
17349148 13 17530975648187912558
18186145 218 17748543731926763348
18927931 339 18411981403000820350
19591789 44 18410299111951204022
20261772 1 18333731290945431625
20739085 24 18338504236520235973
20775438 99 12531089281922882785
20775530 9 15337127691295061801
221490 88 18413110550393477400
22182313 1 17970338432925743844
23402539 116 17968675898778579580
23557571 272 17346889961484589157
23559900 14 17846782884203341701
2748010 2 18189058770533060972
296302 2 7060379227668335318
312423 11 17632282463390946837
335352 9 18336554931100000412
460360 51 17972022906552007606
5104073 3 18041005003279304554

> <PUBCHEM_SHAPE_MULTIPOLES>
505.72
10.16
2.36
1.73
4.66
0.54
0
-3.4
4.25
0.33
-0.02
-1.8
-0.47
0.42

> <PUBCHEM_SHAPE_SELFOVERLAP>
1075.813

> <PUBCHEM_SHAPE_VOLUME>
277.5

> <PUBCHEM_COORDINATE_TYPE>
2
5
10

$$$$

