47205778
  -OEChem-06241223002D

 40 41  0     0  0  0  0  0  0999 V2000
    7.1962    2.3170    0.0000 O   0  0  0  0  0  0  0  0  0  0  0  0
    3.7320    1.3170    0.0000 O   0  0  0  0  0  0  0  0  0  0  0  0
    2.0000   -3.6830    0.0000 O   0  0  0  0  0  0  0  0  0  0  0  0
    5.4641    2.3170    0.0000 N   0  0  0  0  0  0  0  0  0  0  0  0
    4.5981   -0.1830    0.0000 N   0  0  0  0  0  0  0  0  0  0  0  0
    6.3301    3.8170    0.0000 C   0  0  0  0  0  0  0  0  0  0  0  0
    5.8301    4.6830    0.0000 C   0  0  0  0  0  0  0  0  0  0  0  0
    6.8301    4.6830    0.0000 C   0  0  0  0  0  0  0  0  0  0  0  0
    6.3301    2.8170    0.0000 C   0  0  0  0  0  0  0  0  0  0  0  0
    5.4641    1.3170    0.0000 C   0  0  0  0  0  0  0  0  0  0  0  0
    4.5981    0.8170    0.0000 C   0  0  0  0  0  0  0  0  0  0  0  0
    3.7320   -0.6830    0.0000 C   0  0  0  0  0  0  0  0  0  0  0  0
    3.7320   -1.6830    0.0000 C   0  0  0  0  0  0  0  0  0  0  0  0
    5.4641   -0.6830    0.0000 C   0  0  0  0  0  0  0  0  0  0  0  0
    2.8660   -2.1830    0.0000 C   0  0  0  0  0  0  0  0  0  0  0  0
    4.5981   -2.1830    0.0000 C   0  0  0  0  0  0  0  0  0  0  0  0
    2.8660   -3.1830    0.0000 C   0  0  0  0  0  0  0  0  0  0  0  0
    4.5981   -3.1830    0.0000 C   0  0  0  0  0  0  0  0  0  0  0  0
    3.7320   -3.6830    0.0000 C   0  0  0  0  0  0  0  0  0  0  0  0
    2.0000   -4.6830    0.0000 C   0  0  0  0  0  0  0  0  0  0  0  0
    6.9290    3.6565    0.0000 H   0  0  0  0  0  0  0  0  0  0  0  0
    5.7225    5.2936    0.0000 H   0  0  0  0  0  0  0  0  0  0  0  0
    5.2475    4.4710    0.0000 H   0  0  0  0  0  0  0  0  0  0  0  0
    7.4127    4.4710    0.0000 H   0  0  0  0  0  0  0  0  0  0  0  0
    6.9378    5.2936    0.0000 H   0  0  0  0  0  0  0  0  0  0  0  0
    4.9272    2.6270    0.0000 H   0  0  0  0  0  0  0  0  0  0  0  0
    5.6762    0.7344    0.0000 H   0  0  0  0  0  0  0  0  0  0  0  0
    6.0747    1.4246    0.0000 H   0  0  0  0  0  0  0  0  0  0  0  0
    3.5200   -0.1004    0.0000 H   0  0  0  0  0  0  0  0  0  0  0  0
    3.1215   -0.7907    0.0000 H   0  0  0  0  0  0  0  0  0  0  0  0
    5.1541   -1.2200    0.0000 H   0  0  0  0  0  0  0  0  0  0  0  0
    6.0010   -0.9930    0.0000 H   0  0  0  0  0  0  0  0  0  0  0  0
    5.7741   -0.1461    0.0000 H   0  0  0  0  0  0  0  0  0  0  0  0
    2.3291   -1.8730    0.0000 H   0  0  0  0  0  0  0  0  0  0  0  0
    5.1350   -1.8730    0.0000 H   0  0  0  0  0  0  0  0  0  0  0  0
    5.1350   -3.4930    0.0000 H   0  0  0  0  0  0  0  0  0  0  0  0
    3.7320   -4.3030    0.0000 H   0  0  0  0  0  0  0  0  0  0  0  0
    1.3800   -4.6830    0.0000 H   0  0  0  0  0  0  0  0  0  0  0  0
    2.0000   -5.3030    0.0000 H   0  0  0  0  0  0  0  0  0  0  0  0
    2.6200   -4.6830    0.0000 H   0  0  0  0  0  0  0  0  0  0  0  0
  1  9  2  0  0  0  0
  2 11  2  0  0  0  0
  3 17  1  0  0  0  0
  3 20  1  0  0  0  0
  4  9  1  0  0  0  0
  4 10  1  0  0  0  0
  4 26  1  0  0  0  0
  5 11  1  0  0  0  0
  5 12  1  0  0  0  0
  5 14  1  0  0  0  0
  6  7  1  0  0  0  0
  6  8  1  0  0  0  0
  6  9  1  0  0  0  0
  6 21  1  0  0  0  0
  7  8  1  0  0  0  0
  7 22  1  0  0  0  0
  7 23  1  0  0  0  0
  8 24  1  0  0  0  0
  8 25  1  0  0  0  0
 10 11  1  0  0  0  0
 10 27  1  0  0  0  0
 10 28  1  0  0  0  0
 12 13  1  0  0  0  0
 12 29  1  0  0  0  0
 12 30  1  0  0  0  0
 13 15  2  0  0  0  0
 13 16  1  0  0  0  0
 14 31  1  0  0  0  0
 14 32  1  0  0  0  0
 14 33  1  0  0  0  0
 15 17  1  0  0  0  0
 15 34  1  0  0  0  0
 16 18  2  0  0  0  0
 16 35  1  0  0  0  0
 17 19  2  0  0  0  0
 18 19  1  0  0  0  0
 18 36  1  0  0  0  0
 19 37  1  0  0  0  0
 20 38  1  0  0  0  0
 20 39  1  0  0  0  0
 20 40  1  0  0  0  0
M  END
> <PUBCHEM_COMPOUND_CID>
47205778

> <PUBCHEM_COMPOUND_CANONICALIZED>
1

> <PUBCHEM_CACTVS_COMPLEXITY>
355

> <PUBCHEM_CACTVS_HBOND_ACCEPTOR>
3

> <PUBCHEM_CACTVS_HBOND_DONOR>
1

> <PUBCHEM_CACTVS_ROTATABLE_BOND>
6

> <PUBCHEM_CACTVS_SUBSKEYS>
AAADceBzMAAAAAAAAAAAAAAAGAAAAAAAAAAwAAAAAAAAAAABAAAAHgAQAAAADQTBmAYyBoPABACIAiFSEACCCAAgIAAIiIGODIgMZjKEsTuUMChk1hGIqAewwBAOAAABAAAAAAAAAAIAAAAAAAAAAAAAAA==

> <PUBCHEM_IUPAC_OPENEYE_NAME>
N-[2-[(3-methoxyphenyl)methyl-methyl-amino]-2-oxo-ethyl]cyclopropanecarboxamide

> <PUBCHEM_IUPAC_CAS_NAME>
N-[2-[(3-methoxyphenyl)methyl-methylamino]-2-oxoethyl]cyclopropanecarboxamide

> <PUBCHEM_IUPAC_NAME>
N-[2-[(3-methoxyphenyl)methyl-methylamino]-2-oxoethyl]cyclopropanecarboxamide

> <PUBCHEM_IUPAC_SYSTEMATIC_NAME>
N-[2-[(3-methoxyphenyl)methyl-methyl-amino]-2-oxidanylidene-ethyl]cyclopropanecarboxamide

> <PUBCHEM_IUPAC_TRADITIONAL_NAME>
N-[2-keto-2-[m-anisyl(methyl)amino]ethyl]cyclopropanecarboxamide

> <PUBCHEM_IUPAC_INCHI>
InChI=1S/C15H20N2O3/c1-17(10-11-4-3-5-13(8-11)20-2)14(18)9-16-15(19)12-6-7-12/h3-5,8,12H,6-7,9-10H2,1-2H3,(H,16,19)

> <PUBCHEM_IUPAC_INCHIKEY>
LXBXBFHSDBIYIM-UHFFFAOYSA-N

> <PUBCHEM_XLOGP3_AA>
1

> <PUBCHEM_EXACT_MASS>
276.147393

> <PUBCHEM_MOLECULAR_FORMULA>
C15H20N2O3

> <PUBCHEM_MOLECULAR_WEIGHT>
276.3309

> <PUBCHEM_OPENEYE_CAN_SMILES>
CN(CC1=CC(=CC=C1)OC)C(=O)CNC(=O)C2CC2

> <PUBCHEM_OPENEYE_ISO_SMILES>
CN(CC1=CC(=CC=C1)OC)C(=O)CNC(=O)C2CC2

> <PUBCHEM_CACTVS_TPSA>
58.6

> <PUBCHEM_MONOISOTOPIC_WEIGHT>
276.147393

> <PUBCHEM_TOTAL_CHARGE>
0

> <PUBCHEM_HEAVY_ATOM_COUNT>
20

> <PUBCHEM_ATOM_DEF_STEREO_COUNT>
0

> <PUBCHEM_ATOM_UDEF_STEREO_COUNT>
0

> <PUBCHEM_BOND_DEF_STEREO_COUNT>
0

> <PUBCHEM_BOND_UDEF_STEREO_COUNT>
0

> <PUBCHEM_ISOTOPIC_ATOM_COUNT>
0

> <PUBCHEM_COMPONENT_COUNT>
1

> <PUBCHEM_CACTVS_TAUTO_COUNT>
2

> <PUBCHEM_COORDINATE_TYPE>
1
5
255

> <PUBCHEM_BONDANNOTATIONS>
13  15  8
13  16  8
15  17  8
16  18  8
17  19  8
18  19  8

$$$$

