32819
  -OEChem-07051212523D

 14 14  0     0  0  0  0  0  0999 V2000
   -3.1199    0.5050   -0.0002 Cl  0  0  0  0  0  0  0  0  0  0  0  0
    3.1199    0.5052   -0.0002 Cl  0  0  0  0  0  0  0  0  0  0  0  0
   -1.3673   -1.9239    0.0000 O   0  0  0  0  0  0  0  0  0  0  0  0
    1.3674   -1.9240   -0.0002 O   0  0  0  0  0  0  0  0  0  0  0  0
   -0.6974   -0.7351    0.0002 C   0  0  0  0  0  0  0  0  0  0  0  0
    0.6975   -0.7351    0.0003 C   0  0  0  0  0  0  0  0  0  0  0  0
   -1.3949    0.4730    0.0000 C   0  0  0  0  0  0  0  0  0  0  0  0
    1.3949    0.4730    0.0002 C   0  0  0  0  0  0  0  0  0  0  0  0
   -0.6976    1.6810    0.0000 C   0  0  0  0  0  0  0  0  0  0  0  0
    0.6973    1.6810    0.0000 C   0  0  0  0  0  0  0  0  0  0  0  0
   -1.2266    2.6306   -0.0001 H   0  0  0  0  0  0  0  0  0  0  0  0
    1.2263    2.6307   -0.0001 H   0  0  0  0  0  0  0  0  0  0  0  0
   -0.7150   -2.6459    0.0000 H   0  0  0  0  0  0  0  0  0  0  0  0
    2.3222   -1.7374   -0.0002 H   0  0  0  0  0  0  0  0  0  0  0  0
  1  7  1  0  0  0  0
  2  8  1  0  0  0  0
  3  5  1  0  0  0  0
  3 13  1  0  0  0  0
  4  6  1  0  0  0  0
  4 14  1  0  0  0  0
  5  6  1  0  0  0  0
  5  7  2  0  0  0  0
  6  8  2  0  0  0  0
  7  9  1  0  0  0  0
  8 10  1  0  0  0  0
  9 10  2  0  0  0  0
  9 11  1  0  0  0  0
 10 12  1  0  0  0  0
M  END
> <PUBCHEM_COMPOUND_CID>
32819

> <PUBCHEM_CONFORMER_RMSD>
0.4

> <PUBCHEM_CONFORMER_DIVERSEORDER>
1

> <PUBCHEM_MMFF94_PARTIAL_CHARGES>
14
1 -0.18
10 -0.15
11 0.15
12 0.15
13 0.45
14 0.45
2 -0.18
3 -0.53
4 -0.53
5 0.08
6 0.08
7 0.18
8 0.18
9 -0.15

> <PUBCHEM_EFFECTIVE_ROTOR_COUNT>
0

> <PUBCHEM_PHARMACOPHORE_FEATURES>
3
1 3 donor
1 4 donor
6 5 6 7 8 9 10 rings

> <PUBCHEM_HEAVY_ATOM_COUNT>
10

> <PUBCHEM_ATOM_DEF_STEREO_COUNT>
0

> <PUBCHEM_ATOM_UDEF_STEREO_COUNT>
0

> <PUBCHEM_BOND_DEF_STEREO_COUNT>
0

> <PUBCHEM_BOND_UDEF_STEREO_COUNT>
0

> <PUBCHEM_ISOTOPIC_ATOM_COUNT>
0

> <PUBCHEM_COMPONENT_COUNT>
1

> <PUBCHEM_CACTVS_TAUTO_COUNT>
6

> <PUBCHEM_CONFORMER_ID>
0000803300000001

> <PUBCHEM_MMFF94_ENERGY>
20.3307

> <PUBCHEM_FEATURE_SELFOVERLAP>
15.228

> <PUBCHEM_SHAPE_FINGERPRINT>
12423570 1 6120491339406614451
13380535 76 18410859858175010694
16945 1 18410573989446717252
18185500 45 18410576158404909428
193761 8 17617940674083411045
20588541 1 18410853265410514013
21040471 1 18410575106175059525
23235685 24 18410580586516516389
23402655 69 18193294086062722997
23552423 10 18056199064221747996
23559900 14 18262228942687005172
241688 4 17907013237513596160
2748010 2 18122345666294660828
29004967 10 18343294894586726097
528862 383 18272093858603097371
528886 8 18410016507091990048
53812653 166 18334580118048438560

> <PUBCHEM_SHAPE_MULTIPOLES>
197.8
3.7
1.95
0.61
0
0.48
0
-0.53
0
0
0
0
-0.04
0

> <PUBCHEM_SHAPE_SELFOVERLAP>
398.548

> <PUBCHEM_SHAPE_VOLUME>
118

> <PUBCHEM_COORDINATE_TYPE>
2
5
10

$$$$

