5281580
  -OEChem-07051212582D

 79 82  0     1  0  0  0  0  0999 V2000
    2.8660    1.0110    0.0000 O   0  0  0  0  0  0  0  0  0  0  0  0
    3.7226    0.4943    0.0000 O   0  0  0  0  0  0  0  0  0  0  0  0
    6.9641    0.6449    0.0000 O   0  0  0  0  0  0  0  0  0  0  0  0
    3.7118   -2.4522    0.0000 O   0  0  0  0  0  0  0  0  0  0  0  0
    5.4641    1.5110    0.0000 N   0  0  0  0  0  0  0  0  0  0  0  0
    5.4641   -0.4890    0.0000 N   0  0  0  0  0  0  0  0  0  0  0  0
    7.9641    2.3770    0.0000 N   0  0  0  0  0  0  0  0  0  0  0  0
    8.2710   -0.2911    0.0000 N   0  0  0  0  0  0  0  0  0  0  0  0
    4.5981   -2.9890    0.0000 N   0  0  0  0  0  0  0  0  0  0  0  0
    3.7320    1.5110    0.0000 C   0  0  2  0  0  0  0  0  0  0  0  0
    4.5981    1.0110    0.0000 C   0  0  1  0  0  0  0  0  0  0  0  0
    3.7320    2.5110    0.0000 C   0  0  0  0  0  0  0  0  0  0  0  0
    6.9641    2.3770    0.0000 C   0  0  1  0  0  0  0  0  0  0  0  0
    4.5981    0.0110    0.0000 C   0  0  0  0  0  0  0  0  0  0  0  0
    6.4641    3.2430    0.0000 C   0  0  0  0  0  0  0  0  0  0  0  0
    5.4641   -1.4890    0.0000 C   0  0  1  0  0  0  0  0  0  0  0  0
    2.8660    3.0110    0.0000 C   0  0  0  0  0  0  0  0  0  0  0  0
    4.5981    3.0110    0.0000 C   0  0  0  0  0  0  0  0  0  0  0  0
    6.4641    1.5110    0.0000 C   0  0  0  0  0  0  0  0  0  0  0  0
    6.3301   -1.9890    0.0000 C   0  0  0  0  0  0  0  0  0  0  0  0
    7.1962   -1.4890    0.0000 C   0  0  0  0  0  0  0  0  0  0  0  0
    6.9641    4.1090    0.0000 C   0  0  0  0  0  0  0  0  0  0  0  0
    5.4641    3.2430    0.0000 C   0  0  0  0  0  0  0  0  0  0  0  0
    2.8660    0.0110    0.0000 C   0  0  0  0  0  0  0  0  0  0  0  0
    4.5981   -1.9890    0.0000 C   0  0  0  0  0  0  0  0  0  0  0  0
    8.1039   -1.8941    0.0000 C   0  0  0  0  0  0  0  0  0  0  0  0
    7.2992   -0.5003    0.0000 C   0  0  0  0  0  0  0  0  0  0  0  0
    8.7718   -1.1498    0.0000 C   0  0  0  0  0  0  0  0  0  0  0  0
    8.4641    3.2430    0.0000 C   0  0  0  0  0  0  0  0  0  0  0  0
    3.7320   -0.4890    0.0000 C   0  0  0  0  0  0  0  0  0  0  0  0
    2.0000   -0.4890    0.0000 C   0  0  0  0  0  0  0  0  0  0  0  0
    8.4146   -2.8447    0.0000 C   0  0  0  0  0  0  0  0  0  0  0  0
    9.7503   -1.3561    0.0000 C   0  0  0  0  0  0  0  0  0  0  0  0
    2.8660   -1.9890    0.0000 C   0  0  0  0  0  0  0  0  0  0  0  0
    3.7320   -1.4890    0.0000 C   0  0  0  0  0  0  0  0  0  0  0  0
    2.0000   -1.4890    0.0000 C   0  0  0  0  0  0  0  0  0  0  0  0
    3.7320   -3.4890    0.0000 C   0  0  0  0  0  0  0  0  0  0  0  0
    9.3931   -3.0509    0.0000 C   0  0  0  0  0  0  0  0  0  0  0  0
   10.0610   -2.3066    0.0000 C   0  0  0  0  0  0  0  0  0  0  0  0
    2.8660   -2.9890    0.0000 C   0  0  0  0  0  0  0  0  0  0  0  0
    3.1951    1.8210    0.0000 H   0  0  0  0  0  0  0  0  0  0  0  0
    5.1350    0.7010    0.0000 H   0  0  0  0  0  0  0  0  0  0  0  0
    4.2690    2.2010    0.0000 H   0  0  0  0  0  0  0  0  0  0  0  0
    5.4641    2.1310    0.0000 H   0  0  0  0  0  0  0  0  0  0  0  0
    7.2741    1.8400    0.0000 H   0  0  0  0  0  0  0  0  0  0  0  0
    7.0841    3.2430    0.0000 H   0  0  0  0  0  0  0  0  0  0  0  0
    6.0010   -1.1790    0.0000 H   0  0  0  0  0  0  0  0  0  0  0  0
    3.1760    3.5479    0.0000 H   0  0  0  0  0  0  0  0  0  0  0  0
    2.3291    3.3210    0.0000 H   0  0  0  0  0  0  0  0  0  0  0  0
    2.5560    2.4740    0.0000 H   0  0  0  0  0  0  0  0  0  0  0  0
    4.9081    2.4740    0.0000 H   0  0  0  0  0  0  0  0  0  0  0  0
    5.1350    3.3210    0.0000 H   0  0  0  0  0  0  0  0  0  0  0  0
    4.2881    3.5479    0.0000 H   0  0  0  0  0  0  0  0  0  0  0  0
    6.0841   -0.4890    0.0000 H   0  0  0  0  0  0  0  0  0  0  0  0
    5.9316   -2.4640    0.0000 H   0  0  0  0  0  0  0  0  0  0  0  0
    6.7287   -2.4640    0.0000 H   0  0  0  0  0  0  0  0  0  0  0  0
    8.2741    1.8400    0.0000 H   0  0  0  0  0  0  0  0  0  0  0  0
    5.4641    3.8630    0.0000 H   0  0  0  0  0  0  0  0  0  0  0  0
    4.8441    3.2430    0.0000 H   0  0  0  0  0  0  0  0  0  0  0  0
    5.4641    2.6230    0.0000 H   0  0  0  0  0  0  0  0  0  0  0  0
    7.5010    3.7990    0.0000 H   0  0  0  0  0  0  0  0  0  0  0  0
    7.2741    4.6460    0.0000 H   0  0  0  0  0  0  0  0  0  0  0  0
    6.4272    4.4190    0.0000 H   0  0  0  0  0  0  0  0  0  0  0  0
    6.8377   -0.0862    0.0000 H   0  0  0  0  0  0  0  0  0  0  0  0
    8.5212    0.2762    0.0000 H   0  0  0  0  0  0  0  0  0  0  0  0
    9.0010    2.9330    0.0000 H   0  0  0  0  0  0  0  0  0  0  0  0
    8.7741    3.7800    0.0000 H   0  0  0  0  0  0  0  0  0  0  0  0
    7.9272    3.5530    0.0000 H   0  0  0  0  0  0  0  0  0  0  0  0
    4.2690   -0.1790    0.0000 H   0  0  0  0  0  0  0  0  0  0  0  0
    1.4631   -0.1790    0.0000 H   0  0  0  0  0  0  0  0  0  0  0  0
    5.1350   -3.2990    0.0000 H   0  0  0  0  0  0  0  0  0  0  0  0
    8.0005   -3.3061    0.0000 H   0  0  0  0  0  0  0  0  0  0  0  0
   10.1643   -0.8946    0.0000 H   0  0  0  0  0  0  0  0  0  0  0  0
    4.2690   -1.7990    0.0000 H   0  0  0  0  0  0  0  0  0  0  0  0
    1.4631   -1.7990    0.0000 H   0  0  0  0  0  0  0  0  0  0  0  0
    3.7320   -4.1090    0.0000 H   0  0  0  0  0  0  0  0  0  0  0  0
    9.5857   -3.6402    0.0000 H   0  0  0  0  0  0  0  0  0  0  0  0
   10.6676   -2.4344    0.0000 H   0  0  0  0  0  0  0  0  0  0  0  0
    2.3291   -3.2990    0.0000 H   0  0  0  0  0  0  0  0  0  0  0  0
  1 10  1  0  0  0  0
  1 24  1  0  0  0  0
  2 14  2  0  0  0  0
  3 19  2  0  0  0  0
  4 25  2  0  0  0  0
 11  5  1  6  0  0  0
  5 19  1  0  0  0  0
  5 44  1  0  0  0  0
  6 14  1  0  0  0  0
  6 16  1  0  0  0  0
  6 54  1  0  0  0  0
 13  7  1  6  0  0  0
  7 29  1  0  0  0  0
  7 57  1  0  0  0  0
  8 27  1  0  0  0  0
  8 28  1  0  0  0  0
  8 65  1  0  0  0  0
  9 25  1  0  0  0  0
  9 37  1  0  0  0  0
  9 71  1  0  0  0  0
 10 11  1  0  0  0  0
 10 12  1  1  0  0  0
 10 41  1  0  0  0  0
 11 14  1  0  0  0  0
 11 42  1  0  0  0  0
 12 17  1  0  0  0  0
 12 18  1  0  0  0  0
 12 43  1  0  0  0  0
 13 15  1  0  0  0  0
 13 19  1  0  0  0  0
 13 45  1  0  0  0  0
 15 22  1  0  0  0  0
 15 23  1  0  0  0  0
 15 46  1  0  0  0  0
 16 20  1  1  0  0  0
 16 25  1  0  0  0  0
 16 47  1  0  0  0  0
 17 48  1  0  0  0  0
 17 49  1  0  0  0  0
 17 50  1  0  0  0  0
 18 51  1  0  0  0  0
 18 52  1  0  0  0  0
 18 53  1  0  0  0  0
 20 21  1  0  0  0  0
 20 55  1  0  0  0  0
 20 56  1  0  0  0  0
 21 26  1  0  0  0  0
 21 27  2  0  0  0  0
 22 61  1  0  0  0  0
 22 62  1  0  0  0  0
 22 63  1  0  0  0  0
 23 58  1  0  0  0  0
 23 59  1  0  0  0  0
 23 60  1  0  0  0  0
 24 30  2  0  0  0  0
 24 31  1  0  0  0  0
 26 28  1  0  0  0  0
 26 32  2  0  0  0  0
 27 64  1  0  0  0  0
 28 33  2  0  0  0  0
 29 66  1  0  0  0  0
 29 67  1  0  0  0  0
 29 68  1  0  0  0  0
 30 35  1  0  0  0  0
 30 69  1  0  0  0  0
 31 36  2  0  0  0  0
 31 70  1  0  0  0  0
 32 38  1  0  0  0  0
 32 72  1  0  0  0  0
 33 39  1  0  0  0  0
 33 73  1  0  0  0  0
 34 35  2  0  0  0  0
 34 36  1  0  0  0  0
 34 40  1  0  0  0  0
 35 74  1  0  0  0  0
 36 75  1  0  0  0  0
 37 40  2  0  0  0  0
 37 76  1  0  0  0  0
 38 39  2  0  0  0  0
 38 77  1  0  0  0  0
 39 78  1  0  0  0  0
 40 79  1  0  0  0  0
M  END
> <PUBCHEM_COMPOUND_CID>
5281580

> <PUBCHEM_COMPOUND_CANONICALIZED>
1

> <PUBCHEM_CACTVS_COMPLEXITY>
900

> <PUBCHEM_CACTVS_HBOND_ACCEPTOR>
5

> <PUBCHEM_CACTVS_HBOND_DONOR>
5

> <PUBCHEM_CACTVS_ROTATABLE_BOND>
7

> <PUBCHEM_CACTVS_SUBSKEYS>
AAADcfB7uAAAAAAAAAAAAAAAAAAAAWAAAAAwYAAAAAAAAFgB9AAAHgAQAAAADTzhngY+xvLJlACoAzV3VACCiCAxIiAI2aG+bJgOZvbEsbuXOCjm9hHY6AeYycCOoAAAAAACAABAAAAAAAQAAAAAAAAAAA==

> <PUBCHEM_IUPAC_OPENEYE_NAME>
(2S)-N-[(2Z,6S,9S,10S)-6-(1H-indol-3-ylmethyl)-10-isopropyl-5,8-dioxo-11-oxa-4,7-diazabicyclo[10.2.2]hexadeca-1(14),2,12,15-tetraen-9-yl]-3-methyl-2-(methylamino)butanamide

> <PUBCHEM_IUPAC_CAS_NAME>
(2S)-N-[(2Z,6S,9S,10S)-6-(1H-indol-3-ylmethyl)-5,8-dioxo-10-propan-2-yl-11-oxa-4,7-diazabicyclo[10.2.2]hexadeca-1(14),2,12,15-tetraen-9-yl]-3-methyl-2-(methylamino)butanamide

> <PUBCHEM_IUPAC_NAME>
(2S)-N-[(2Z,6S,9S,10S)-6-(1H-indol-3-ylmethyl)-5,8-dioxo-10-propan-2-yl-11-oxa-4,7-diazabicyclo[10.2.2]hexadeca-1(14),2,12,15-tetraen-9-yl]-3-methyl-2-(methylamino)butanamide

> <PUBCHEM_IUPAC_SYSTEMATIC_NAME>
(2S)-N-[(2Z,6S,9S,10S)-6-(1H-indol-3-ylmethyl)-5,8-bis(oxidanylidene)-10-propan-2-yl-11-oxa-4,7-diazabicyclo[10.2.2]hexadeca-1(14),2,12,15-tetraen-9-yl]-3-methyl-2-(methylamino)butanamide

> <PUBCHEM_IUPAC_TRADITIONAL_NAME>
(2S)-N-[(2Z,6S,9S,10S)-6-(1H-indol-3-ylmethyl)-10-isopropyl-5,8-diketo-11-oxa-4,7-diazabicyclo[10.2.2]hexadeca-1(14),2,12,15-tetraen-9-yl]-3-methyl-2-(methylamino)butyramide

> <PUBCHEM_IUPAC_INCHI>
InChI=1S/C31H39N5O4/c1-18(2)26(32-5)30(38)36-27-28(19(3)4)40-22-12-10-20(11-13-22)14-15-33-29(37)25(35-31(27)39)16-21-17-34-24-9-7-6-8-23(21)24/h6-15,17-19,25-28,32,34H,16H2,1-5H3,(H,33,37)(H,35,39)(H,36,38)/b15-14-/t25-,26-,27-,28-/m0/s1

> <PUBCHEM_IUPAC_INCHIKEY>
SBDJWBSJRCPRDV-DAEFBSHISA-N

> <PUBCHEM_XLOGP3_AA>
4.5

> <PUBCHEM_EXACT_MASS>
545.300205

> <PUBCHEM_MOLECULAR_FORMULA>
C31H39N5O4

> <PUBCHEM_MOLECULAR_WEIGHT>
545.67246

> <PUBCHEM_OPENEYE_CAN_SMILES>
CC(C)C1C(C(=O)NC(C(=O)NC=CC2=CC=C(O1)C=C2)CC3=CNC4=CC=CC=C43)NC(=O)C(C(C)C)NC

> <PUBCHEM_OPENEYE_ISO_SMILES>
CC(C)[C@H]1[C@@H](C(=O)N[C@H](C(=O)N/C=C\C2=CC=C(O1)C=C2)CC3=CNC4=CC=CC=C43)NC(=O)[C@H](C(C)C)NC

> <PUBCHEM_CACTVS_TPSA>
124

> <PUBCHEM_MONOISOTOPIC_WEIGHT>
545.300205

> <PUBCHEM_TOTAL_CHARGE>
0

> <PUBCHEM_HEAVY_ATOM_COUNT>
40

> <PUBCHEM_ATOM_DEF_STEREO_COUNT>
4

> <PUBCHEM_ATOM_UDEF_STEREO_COUNT>
0

> <PUBCHEM_BOND_DEF_STEREO_COUNT>
1

> <PUBCHEM_BOND_UDEF_STEREO_COUNT>
0

> <PUBCHEM_ISOTOPIC_ATOM_COUNT>
0

> <PUBCHEM_COMPONENT_COUNT>
1

> <PUBCHEM_CACTVS_TAUTO_COUNT>
18

> <PUBCHEM_COORDINATE_TYPE>
1
5
255

> <PUBCHEM_BONDANNOTATIONS>
10  12  5
16  20  5
21  26  8
21  27  8
24  30  8
24  31  8
26  28  8
26  32  8
28  33  8
30  35  8
31  36  8
32  38  8
33  39  8
34  35  8
34  36  8
38  39  8
11  5  6
13  7  6
8  27  8
8  28  8

$$$$

