442322
  -OEChem-07051212572D

 36 38  0     1  0  0  0  0  0999 V2000
    3.5836    0.1751    0.0000 O   0  0  0  0  0  0  0  0  0  0  0  0
    7.1799    1.4188    0.0000 O   0  0  0  0  0  0  0  0  0  0  0  0
    5.3958   -2.6296    0.0000 O   0  0  0  0  0  0  0  0  0  0  0  0
    2.0000   -0.6296    0.0000 O   0  0  0  0  0  0  0  0  0  0  0  0
    6.2740    2.9396    0.0000 O   0  0  0  0  0  0  0  0  0  0  0  0
    6.2619   -0.1296    0.0000 C   0  0  2  0  0  0  0  0  0  0  0  0
    5.3958    0.3704    0.0000 C   0  0  1  0  0  0  0  0  0  0  0  0
    4.5298   -0.1296    0.0000 C   0  0  2  0  0  0  0  0  0  0  0  0
    4.5298   -1.1296    0.0000 C   0  0  1  0  0  0  0  0  0  0  0  0
    6.2619   -1.1296    0.0000 C   0  0  0  0  0  0  0  0  0  0  0  0
    5.3958   -1.6296    0.0000 C   0  0  2  0  0  0  0  0  0  0  0  0
    7.1719    0.3772    0.0000 C   0  0  0  0  0  0  0  0  0  0  0  0
    5.3798    1.4119    0.0000 C   0  0  0  0  0  0  0  0  0  0  0  0
    3.5836   -1.4344    0.0000 C   0  0  0  0  0  0  0  0  0  0  0  0
    7.1279   -0.6296    0.0000 C   0  0  0  0  0  0  0  0  0  0  0  0
    3.0000   -0.6296    0.0000 C   0  0  0  0  0  0  0  0  0  0  0  0
    6.2778    1.9396    0.0000 C   0  0  0  0  0  0  0  0  0  0  0  0
    4.5080    1.9018    0.0000 C   0  0  0  0  0  0  0  0  0  0  0  0
    3.2729   -2.3849    0.0000 C   0  0  0  0  0  0  0  0  0  0  0  0
    7.9939   -0.1296    0.0000 C   0  0  0  0  0  0  0  0  0  0  0  0
    6.1287    0.8010    0.0000 H   0  0  0  0  0  0  0  0  0  0  0  0
    4.4399    0.7156    0.0000 H   0  0  0  0  0  0  0  0  0  0  0  0
    4.4399   -1.9748    0.0000 H   0  0  0  0  0  0  0  0  0  0  0  0
    6.4739   -1.7122    0.0000 H   0  0  0  0  0  0  0  0  0  0  0  0
    6.8725   -1.0220    0.0000 H   0  0  0  0  0  0  0  0  0  0  0  0
    5.9328   -1.9396    0.0000 H   0  0  0  0  0  0  0  0  0  0  0  0
    7.3764   -0.2081    0.0000 H   0  0  0  0  0  0  0  0  0  0  0  0
    7.7835    0.4786    0.0000 H   0  0  0  0  0  0  0  0  0  0  0  0
    7.1279   -1.2496    0.0000 H   0  0  0  0  0  0  0  0  0  0  0  0
    5.9328   -2.9396    0.0000 H   0  0  0  0  0  0  0  0  0  0  0  0
    4.5009    2.5218    0.0000 H   0  0  0  0  0  0  0  0  0  0  0  0
    3.9747    1.5856    0.0000 H   0  0  0  0  0  0  0  0  0  0  0  0
    2.6663   -2.5127    0.0000 H   0  0  0  0  0  0  0  0  0  0  0  0
    3.6870   -2.8464    0.0000 H   0  0  0  0  0  0  0  0  0  0  0  0
    8.5309   -0.4396    0.0000 H   0  0  0  0  0  0  0  0  0  0  0  0
    7.9939    0.4904    0.0000 H   0  0  0  0  0  0  0  0  0  0  0  0
  1  8  1  0  0  0  0
  1 16  1  0  0  0  0
  2 12  1  0  0  0  0
  2 17  1  0  0  0  0
 11  3  1  6  0  0  0
  3 30  1  0  0  0  0
  4 16  2  0  0  0  0
  5 17  2  0  0  0  0
  6  7  1  0  0  0  0
  6 10  1  0  0  0  0
  6 12  1  0  0  0  0
  6 15  1  6  0  0  0
  7  8  1  0  0  0  0
  7 13  1  0  0  0  0
  7 21  1  6  0  0  0
  8  9  1  0  0  0  0
  8 22  1  1  0  0  0
  9 11  1  0  0  0  0
  9 14  1  0  0  0  0
  9 23  1  6  0  0  0
 10 11  1  0  0  0  0
 10 24  1  0  0  0  0
 10 25  1  0  0  0  0
 11 26  1  0  0  0  0
 12 27  1  0  0  0  0
 12 28  1  0  0  0  0
 13 17  1  0  0  0  0
 13 18  2  0  0  0  0
 14 16  1  0  0  0  0
 14 19  2  0  0  0  0
 15 20  2  0  0  0  0
 15 29  1  0  0  0  0
 18 31  1  0  0  0  0
 18 32  1  0  0  0  0
 19 33  1  0  0  0  0
 19 34  1  0  0  0  0
 20 35  1  0  0  0  0
 20 36  1  0  0  0  0
M  END
> <PUBCHEM_COMPOUND_CID>
442322

> <PUBCHEM_COMPOUND_CANONICALIZED>
1

> <PUBCHEM_CACTVS_COMPLEXITY>
549

> <PUBCHEM_CACTVS_HBOND_ACCEPTOR>
5

> <PUBCHEM_CACTVS_HBOND_DONOR>
1

> <PUBCHEM_CACTVS_ROTATABLE_BOND>
1

> <PUBCHEM_CACTVS_SUBSKEYS>
AAADceBwOAAAAAAAAAAAAAAAAAAAASAAAAA0QAAAAAAAAEiQAAAAGgAACAAADxSggAIACAAABgCIAiDSCAAAAAAgAAAIAAEAAEgAFBIAIQACQAAFwAAAIIHK7PyPgAAAAAAAAADAAAYQADAAAAAAAAAAAA==

> <PUBCHEM_IUPAC_OPENEYE_NAME>
(3aR,4S,5aR,9aR,9bR)-4-hydroxy-3,9-dimethylene-5a-vinyl-3a,4,5,6,9a,9b-hexahydrofuro[2,3-f]isochromene-2,8-dione

> <PUBCHEM_IUPAC_CAS_NAME>
(3aR,4S,5aR,9aR,9bR)-5a-ethenyl-4-hydroxy-3,9-dimethylene-3a,4,5,6,9a,9b-hexahydrofuro[2,3-f][2]benzopyran-2,8-dione

> <PUBCHEM_IUPAC_NAME>
(3aR,4S,5aR,9aR,9bR)-5a-ethenyl-4-hydroxy-3,9-dimethylidene-3a,4,5,6,9a,9b-hexahydrofuro[2,3-f]isochromene-2,8-dione

> <PUBCHEM_IUPAC_SYSTEMATIC_NAME>
(3aR,4S,5aR,9aR,9bR)-5a-ethenyl-3,9-dimethylidene-4-oxidanyl-3a,4,5,6,9a,9b-hexahydrofuro[2,3-f]isochromene-2,8-dione

> <PUBCHEM_IUPAC_TRADITIONAL_NAME>
(3aR,4S,5aR,9aR,9bR)-4-hydroxy-3,9-dimethylene-5a-vinyl-3a,4,5,6,9a,9b-hexahydrofur[2,3-f]isochromene-2,8-quinone

> <PUBCHEM_IUPAC_INCHI>
InChI=1S/C15H16O5/c1-4-15-5-9(16)10-7(2)14(18)20-12(10)11(15)8(3)13(17)19-6-15/h4,9-12,16H,1-3,5-6H2/t9-,10+,11+,12-,15+/m0/s1

> <PUBCHEM_IUPAC_INCHIKEY>
IFYQXAXVZGMFNW-MVIRXUPPSA-N

> <PUBCHEM_XLOGP3_AA>
1.3

> <PUBCHEM_EXACT_MASS>
276.099774

> <PUBCHEM_MOLECULAR_FORMULA>
C15H16O5

> <PUBCHEM_MOLECULAR_WEIGHT>
276.28454

> <PUBCHEM_OPENEYE_CAN_SMILES>
C=CC12CC(C3C(C1C(=C)C(=O)OC2)OC(=O)C3=C)O

> <PUBCHEM_OPENEYE_ISO_SMILES>
C=C[C@]12C[C@@H]([C@@H]3[C@@H]([C@H]1C(=C)C(=O)OC2)OC(=O)C3=C)O

> <PUBCHEM_CACTVS_TPSA>
72.8

> <PUBCHEM_MONOISOTOPIC_WEIGHT>
276.099774

> <PUBCHEM_TOTAL_CHARGE>
0

> <PUBCHEM_HEAVY_ATOM_COUNT>
20

> <PUBCHEM_ATOM_DEF_STEREO_COUNT>
5

> <PUBCHEM_ATOM_UDEF_STEREO_COUNT>
0

> <PUBCHEM_BOND_DEF_STEREO_COUNT>
0

> <PUBCHEM_BOND_UDEF_STEREO_COUNT>
0

> <PUBCHEM_ISOTOPIC_ATOM_COUNT>
0

> <PUBCHEM_COMPONENT_COUNT>
1

> <PUBCHEM_CACTVS_TAUTO_COUNT>
1

> <PUBCHEM_COORDINATE_TYPE>
1
5
255

> <PUBCHEM_BONDANNOTATIONS>
11  3  6
6  15  6
7  21  6
8  22  5
9  23  6

$$$$

