36383
  -OEChem-07051213143D

 39 39  0     0  0  0  0  0  0999 V2000
    4.2051    3.0040   -0.5924 O   0  0  0  0  0  0  0  0  0  0  0  0
    4.2500   -3.4405    0.6277 O   0  0  0  0  0  0  0  0  0  0  0  0
   -5.6638   -0.8419    0.6893 O   0  0  0  0  0  0  0  0  0  0  0  0
   -1.0308    3.1017    0.7527 O   0  5  0  0  0  0  0  0  0  0  0  0
   -2.9256    2.0508    0.4004 O   0  0  0  0  0  0  0  0  0  0  0  0
    2.5725   -0.2385   -0.0283 N   0  0  0  0  0  0  0  0  0  0  0  0
   -3.0356   -0.3455   -0.2527 N   0  0  0  0  0  0  0  0  0  0  0  0
   -1.6736    2.0695    0.4498 N   0  3  0  0  0  0  0  0  0  0  0  0
    1.1632   -0.2586   -0.0828 C   0  0  0  0  0  0  0  0  0  0  0  0
    3.2764    0.9819    0.3121 C   0  0  0  0  0  0  0  0  0  0  0  0
    3.3356   -1.4343   -0.3254 C   0  0  0  0  0  0  0  0  0  0  0  0
    0.4372    0.8971    0.2050 C   0  0  0  0  0  0  0  0  0  0  0  0
   -1.6242   -0.2991   -0.1909 C   0  0  0  0  0  0  0  0  0  0  0  0
    0.4956   -1.4347   -0.4245 C   0  0  0  0  0  0  0  0  0  0  0  0
   -0.9565    0.8769    0.1508 C   0  0  0  0  0  0  0  0  0  0  0  0
    3.5464    1.7936   -0.9434 C   0  0  0  0  0  0  0  0  0  0  0  0
    3.5314   -2.2535    0.9389 C   0  0  0  0  0  0  0  0  0  0  0  0
   -0.8982   -1.4549   -0.4784 C   0  0  0  0  0  0  0  0  0  0  0  0
   -3.7563   -1.5294   -0.5983 C   0  0  0  0  0  0  0  0  0  0  0  0
   -5.2486   -1.2446   -0.6097 C   0  0  0  0  0  0  0  0  0  0  0  0
    2.8044    1.5726    1.1050 H   0  0  0  0  0  0  0  0  0  0  0  0
    4.2482    0.7257    0.7579 H   0  0  0  0  0  0  0  0  0  0  0  0
    2.9346   -2.0297   -1.1533 H   0  0  0  0  0  0  0  0  0  0  0  0
    4.3300   -1.1489   -0.6969 H   0  0  0  0  0  0  0  0  0  0  0  0
    0.9336    1.8273    0.4538 H   0  0  0  0  0  0  0  0  0  0  0  0
    0.9985   -2.3700   -0.6423 H   0  0  0  0  0  0  0  0  0  0  0  0
    2.6200    2.0585   -1.4618 H   0  0  0  0  0  0  0  0  0  0  0  0
    4.1781    1.2465   -1.6513 H   0  0  0  0  0  0  0  0  0  0  0  0
    2.5761   -2.5504    1.3823 H   0  0  0  0  0  0  0  0  0  0  0  0
    4.0910   -1.6972    1.6985 H   0  0  0  0  0  0  0  0  0  0  0  0
   -1.3732   -2.3944   -0.7438 H   0  0  0  0  0  0  0  0  0  0  0  0
   -3.5456    0.5245   -0.1831 H   0  0  0  0  0  0  0  0  0  0  0  0
   -3.5568   -2.3163    0.1389 H   0  0  0  0  0  0  0  0  0  0  0  0
   -3.4674   -1.8894   -1.5922 H   0  0  0  0  0  0  0  0  0  0  0  0
   -5.5060   -0.4504   -1.3184 H   0  0  0  0  0  0  0  0  0  0  0  0
   -5.8083   -2.1445   -0.8817 H   0  0  0  0  0  0  0  0  0  0  0  0
    5.0431    2.7667   -0.1597 H   0  0  0  0  0  0  0  0  0  0  0  0
    5.1115   -3.1746    0.2635 H   0  0  0  0  0  0  0  0  0  0  0  0
   -5.1844   -0.0280    0.9172 H   0  0  0  0  0  0  0  0  0  0  0  0
  1 16  1  0  0  0  0
  1 37  1  0  0  0  0
  2 17  1  0  0  0  0
  2 38  1  0  0  0  0
  3 20  1  0  0  0  0
  3 39  1  0  0  0  0
  4  8  1  0  0  0  0
  5  8  2  0  0  0  0
  6  9  1  0  0  0  0
  6 10  1  0  0  0  0
  6 11  1  0  0  0  0
  7 13  1  0  0  0  0
  7 19  1  0  0  0  0
  7 32  1  0  0  0  0
  8 15  1  0  0  0  0
  9 12  2  0  0  0  0
  9 14  1  0  0  0  0
 10 16  1  0  0  0  0
 10 21  1  0  0  0  0
 10 22  1  0  0  0  0
 11 17  1  0  0  0  0
 11 23  1  0  0  0  0
 11 24  1  0  0  0  0
 12 15  1  0  0  0  0
 12 25  1  0  0  0  0
 13 15  2  0  0  0  0
 13 18  1  0  0  0  0
 14 18  2  0  0  0  0
 14 26  1  0  0  0  0
 16 27  1  0  0  0  0
 16 28  1  0  0  0  0
 17 29  1  0  0  0  0
 17 30  1  0  0  0  0
 18 31  1  0  0  0  0
 19 20  1  0  0  0  0
 19 33  1  0  0  0  0
 19 34  1  0  0  0  0
 20 35  1  0  0  0  0
 20 36  1  0  0  0  0
M  CHG  2   4  -1   8   1
M  END
> <PUBCHEM_COMPOUND_CID>
36383

> <PUBCHEM_CONFORMER_RMSD>
0.8

> <PUBCHEM_CONFORMER_DIVERSEORDER>
3
47
44
87
76
31
52
69
81
29
50
55
49
68
85
30
64
16
80
22
73
78
74
60
43
7
6
46
41
71
70
56
66
5
20
86
27
59
63
21
4
45
53
48
17
12
83
28
26
62
32
36
72
38
58
8
42
39
54
67
25
33
35
82
11
34
40
23
14
24
19
51
84
65
75
18
77
57
9
61
10
79
15
37
13
1
2

> <PUBCHEM_MMFF94_PARTIAL_CHARGES>
27
1 -0.68
10 0.37
11 0.37
12 -0.15
13 0.1
14 -0.15
15 0.13
16 0.28
17 0.28
18 -0.15
19 0.37
2 -0.68
20 0.28
25 0.15
26 0.15
3 -0.68
31 0.15
32 0.4
37 0.4
38 0.4
39 0.4
4 -0.52
5 -0.52
6 -0.84
7 -0.87
8 0.91
9 0.1

> <PUBCHEM_EFFECTIVE_ROTOR_COUNT>
9

> <PUBCHEM_PHARMACOPHORE_FEATURES>
13
1 1 acceptor
1 1 donor
1 2 acceptor
1 2 donor
1 3 acceptor
1 3 donor
1 4 acceptor
1 4 anion
1 5 acceptor
1 6 cation
1 7 cation
1 7 donor
6 9 12 13 14 15 18 rings

> <PUBCHEM_HEAVY_ATOM_COUNT>
20

> <PUBCHEM_ATOM_DEF_STEREO_COUNT>
0

> <PUBCHEM_ATOM_UDEF_STEREO_COUNT>
0

> <PUBCHEM_BOND_DEF_STEREO_COUNT>
0

> <PUBCHEM_BOND_UDEF_STEREO_COUNT>
0

> <PUBCHEM_ISOTOPIC_ATOM_COUNT>
0

> <PUBCHEM_COMPONENT_COUNT>
1

> <PUBCHEM_CACTVS_TAUTO_COUNT>
1

> <PUBCHEM_CONFORMER_ID>
00008E1F00000003

> <PUBCHEM_MMFF94_ENERGY>
76.5154

> <PUBCHEM_FEATURE_SELFOVERLAP>
66.051

> <PUBCHEM_SHAPE_FINGERPRINT>
10090160 65 18127980706600176724
12916754 54 18270966846362963647
13009979 54 18116150155133336402
13140716 1 18190183571086648112
13533116 47 18343019999336661866
13583140 156 17486763358149398777
13760787 5 18409736136333617207
13955234 65 18342461405102298378
14178342 30 17974294518913134026
14787075 74 18127132965997782319
14790565 3 18047462336438563089
15042514 8 18191586569714725857
15099037 8 18411141376322745626
15196674 1 18408604777570521445
15442244 35 18266742561876614114
16945 1 18190749635023065048
17492 89 18337674229848213606
20645477 70 18272376368889030886
21267235 1 18408878547117817102
21501502 16 18336261331646695536
23366157 5 18201997751192775126
23402539 116 18187094979122279575
23558518 356 18339358685866646112
23559900 14 18337121162714111178
23598291 2 18270958085162488150
23622692 118 18337115669535575950
25147074 1 18336534010625316592
312423 11 18339354257829236158
314194 84 18337393713160763471
34934 24 18190463748993778254
350125 39 18409448115747255524
352729 6 18043530727422247941
4340502 62 17274828986938192387
45790113 50 18411142450038365134
474 4 17845086273701203652
5104073 3 18261957448174619089
5312544 6 18413105039675974126
5374978 207 18335990800088471226
537710 114 18337952264466053349
53777708 50 18409443726201248680
7164475 11 18410859888339982780
7364860 26 18411140230294451790
9981440 41 18198063561181736512

> <PUBCHEM_SHAPE_MULTIPOLES>
367.3
9.78
3.36
0.85
6.73
0.71
0.01
-3.42
0.18
-3.44
-0.52
-0.17
-0.01
-1.8

> <PUBCHEM_SHAPE_SELFOVERLAP>
743.729

> <PUBCHEM_SHAPE_VOLUME>
214.2

> <PUBCHEM_COORDINATE_TYPE>
2
5
10

$$$$

