12314049
  -OEChem-07051213103D

 49 50  0     1  0  0  0  0  0999 V2000
   -2.4242    1.4981    1.4698 S   0  0  0  0  0  0  0  0  0  0  0  0
   -1.5344   -1.9071   -1.1807 O   0  0  0  0  0  0  0  0  0  0  0  0
   -5.0736    0.2683   -2.4862 O   0  0  0  0  0  0  0  0  0  0  0  0
   -5.6010   -1.0134   -0.6765 O   0  0  0  0  0  0  0  0  0  0  0  0
    1.2379   -2.1014    0.2352 O   0  0  0  0  0  0  0  0  0  0  0  0
   -3.0178   -0.6701    0.1758 N   0  0  0  0  0  0  0  0  0  0  0  0
   -0.0099   -0.4054    1.2095 N   0  0  0  0  0  0  0  0  0  0  0  0
   -2.5681   -0.3252    1.5277 C   0  0  1  0  0  0  0  0  0  0  0  0
   -3.8153    1.6073    0.2361 C   0  0  0  0  0  0  0  0  0  0  0  0
   -3.6151    0.3593   -0.6505 C   0  0  2  0  0  0  0  0  0  0  0  0
   -1.2929   -1.1290    1.2387 C   0  0  1  0  0  0  0  0  0  0  0  0
   -1.9079   -1.3950   -0.1498 C   0  0  0  0  0  0  0  0  0  0  0  0
   -3.6625    2.8966   -0.5731 C   0  0  0  0  0  0  0  0  0  0  0  0
   -5.1371    1.6292    1.0156 C   0  0  0  0  0  0  0  0  0  0  0  0
   -4.8648   -0.2154   -1.2374 C   0  0  0  0  0  0  0  0  0  0  0  0
    1.1543   -0.9687    0.7022 C   0  0  0  0  0  0  0  0  0  0  0  0
    2.3286   -0.0109    0.7899 C   0  0  0  0  0  0  0  0  0  0  0  0
    3.6166   -0.6155    0.2359 C   0  0  0  0  0  0  0  0  0  0  0  0
    4.7732    0.3826    0.3009 C   0  0  0  0  0  0  0  0  0  0  0  0
    6.0560   -0.2123   -0.2847 C   0  0  0  0  0  0  0  0  0  0  0  0
    7.2014    0.8019   -0.2527 C   0  0  0  0  0  0  0  0  0  0  0  0
    8.5041    0.2652   -0.8494 C   0  0  0  0  0  0  0  0  0  0  0  0
    9.6526    1.2608   -0.7962 C   0  0  0  0  0  0  0  0  0  0  0  0
   -3.2221   -0.7266    2.3073 H   0  0  0  0  0  0  0  0  0  0  0  0
   -2.9047    0.5586   -1.4647 H   0  0  0  0  0  0  0  0  0  0  0  0
   -1.2138   -2.0415    1.8422 H   0  0  0  0  0  0  0  0  0  0  0  0
   -4.4520    2.9737   -1.3295 H   0  0  0  0  0  0  0  0  0  0  0  0
   -2.7019    2.9370   -1.0995 H   0  0  0  0  0  0  0  0  0  0  0  0
   -3.7333    3.7851    0.0650 H   0  0  0  0  0  0  0  0  0  0  0  0
   -5.2935    0.7143    1.5978 H   0  0  0  0  0  0  0  0  0  0  0  0
   -5.9908    1.7357    0.3363 H   0  0  0  0  0  0  0  0  0  0  0  0
   -5.1785    2.4774    1.7096 H   0  0  0  0  0  0  0  0  0  0  0  0
    0.0373    0.5430    1.5745 H   0  0  0  0  0  0  0  0  0  0  0  0
    2.0699    0.8966    0.2312 H   0  0  0  0  0  0  0  0  0  0  0  0
    2.4676    0.2677    1.8413 H   0  0  0  0  0  0  0  0  0  0  0  0
    3.8745   -1.5194    0.8018 H   0  0  0  0  0  0  0  0  0  0  0  0
    3.4585   -0.9285   -0.8038 H   0  0  0  0  0  0  0  0  0  0  0  0
   -5.8899   -0.0972   -2.8889 H   0  0  0  0  0  0  0  0  0  0  0  0
    4.5045    1.2904   -0.2531 H   0  0  0  0  0  0  0  0  0  0  0  0
    4.9463    0.6788    1.3427 H   0  0  0  0  0  0  0  0  0  0  0  0
    6.3411   -1.1070    0.2817 H   0  0  0  0  0  0  0  0  0  0  0  0
    5.8775   -0.5273   -1.3199 H   0  0  0  0  0  0  0  0  0  0  0  0
    6.9032    1.7038   -0.8017 H   0  0  0  0  0  0  0  0  0  0  0  0
    7.3822    1.1089    0.7850 H   0  0  0  0  0  0  0  0  0  0  0  0
    8.3331   -0.0232   -1.8934 H   0  0  0  0  0  0  0  0  0  0  0  0
    8.8009   -0.6442   -0.3134 H   0  0  0  0  0  0  0  0  0  0  0  0
    9.8775    1.5419    0.2374 H   0  0  0  0  0  0  0  0  0  0  0  0
    9.4065    2.1700   -1.3538 H   0  0  0  0  0  0  0  0  0  0  0  0
   10.5551    0.8246   -1.2355 H   0  0  0  0  0  0  0  0  0  0  0  0
  1  8  1  0  0  0  0
  1  9  1  0  0  0  0
  2 12  2  0  0  0  0
  3 15  1  0  0  0  0
  3 38  1  0  0  0  0
  4 15  2  0  0  0  0
  5 16  2  0  0  0  0
  6  8  1  0  0  0  0
  6 10  1  0  0  0  0
  6 12  1  0  0  0  0
  7 11  1  0  0  0  0
  7 16  1  0  0  0  0
  7 33  1  0  0  0  0
  8 11  1  0  0  0  0
  8 24  1  0  0  0  0
  9 10  1  0  0  0  0
  9 13  1  0  0  0  0
  9 14  1  0  0  0  0
 10 15  1  0  0  0  0
 10 25  1  0  0  0  0
 11 12  1  0  0  0  0
 11 26  1  0  0  0  0
 13 27  1  0  0  0  0
 13 28  1  0  0  0  0
 13 29  1  0  0  0  0
 14 30  1  0  0  0  0
 14 31  1  0  0  0  0
 14 32  1  0  0  0  0
 16 17  1  0  0  0  0
 17 18  1  0  0  0  0
 17 34  1  0  0  0  0
 17 35  1  0  0  0  0
 18 19  1  0  0  0  0
 18 36  1  0  0  0  0
 18 37  1  0  0  0  0
 19 20  1  0  0  0  0
 19 39  1  0  0  0  0
 19 40  1  0  0  0  0
 20 21  1  0  0  0  0
 20 41  1  0  0  0  0
 20 42  1  0  0  0  0
 21 22  1  0  0  0  0
 21 43  1  0  0  0  0
 21 44  1  0  0  0  0
 22 23  1  0  0  0  0
 22 45  1  0  0  0  0
 22 46  1  0  0  0  0
 23 47  1  0  0  0  0
 23 48  1  0  0  0  0
 23 49  1  0  0  0  0
M  END
> <PUBCHEM_COMPOUND_CID>
12314049

> <PUBCHEM_CONFORMER_RMSD>
1

> <PUBCHEM_CONFORMER_DIVERSEORDER>
1
26
64
90
91
94
100
59
42
7
23
83
38
12
84
80
10
13
44
98
93
74
63
6
92
69
99
21
43
28
89
4
27
45
76
52
8
86
47
51
39
68
17
61
46
72
22
5
65
19
75
60
3
15
95
20
35
33
2
54
96
82
66
81
36
41
9
71
79
62
48
55
88
37
18
78
67
34
49
58
97
25
53
14
73
50
87
77
56
101
16
24
11
70
31
57
30
40
85
29
32

> <PUBCHEM_MMFF94_PARTIAL_CHARGES>
17
1 -0.45
10 0.36
11 0.28
12 0.58
15 0.66
16 0.57
17 0.06
2 -0.57
3 -0.65
33 0.37
38 0.5
4 -0.57
5 -0.57
6 -0.59
7 -0.65
8 0.44
9 0.23

> <PUBCHEM_EFFECTIVE_ROTOR_COUNT>
9.8

> <PUBCHEM_PHARMACOPHORE_FEATURES>
12
1 2 acceptor
1 23 hydrophobe
1 3 acceptor
1 4 acceptor
1 5 acceptor
1 7 donor
3 17 18 19 hydrophobe
3 20 21 22 hydrophobe
3 3 4 15 anion
3 9 13 14 hydrophobe
4 6 8 11 12 rings
7 1 6 8 9 10 11 12 rings

> <PUBCHEM_HEAVY_ATOM_COUNT>
23

> <PUBCHEM_ATOM_DEF_STEREO_COUNT>
3

> <PUBCHEM_ATOM_UDEF_STEREO_COUNT>
0

> <PUBCHEM_BOND_DEF_STEREO_COUNT>
0

> <PUBCHEM_BOND_UDEF_STEREO_COUNT>
0

> <PUBCHEM_ISOTOPIC_ATOM_COUNT>
0

> <PUBCHEM_COMPONENT_COUNT>
1

> <PUBCHEM_CACTVS_TAUTO_COUNT>
2

> <PUBCHEM_CONFORMER_ID>
00BBE5C100000001

> <PUBCHEM_MMFF94_ENERGY>
42.1586

> <PUBCHEM_FEATURE_SELFOVERLAP>
64.693

> <PUBCHEM_SHAPE_FINGERPRINT>
10 15 15051734188271114176
106641 1 15697995228529361849
10670039 82 18410577297014887320
11315181 36 18343862191162952352
12082328 90 18334010597264520302
12596602 18 13830130603050823020
13288520 33 14201114600495301691
13668630 136 14923942345721503988
14729087 3 17917711280553618812
14849402 71 11095581383708385094
15183329 4 18259701212530284274
15716309 27 7637402930774493130
1577012 14 18410294748385465018
17780758 139 10879992454060925516
18643901 69 16443354144156629093
20281389 69 17203892972576259552
20721686 146 17606666188740497409
21150785 3 17458344122745843884
21307412 95 16371877075220729549
21756936 100 18202277013607305107
22288116 15 17967534536942148086
23035841 295 8358259246381400592
23198884 109 18409450297300634502
23559900 14 15936706873578681026
2838139 119 18341894104231104104
559249 180 9511458923182697481
6328613 192 18059848421457535772
9953998 17 11383834857576035558
999808 66 6050445920884139828

> <PUBCHEM_SHAPE_MULTIPOLES>
443.74
21.78
2.01
1.49
64.21
0.67
-0.32
10.26
-9.18
-2.26
-0.08
-2.19
0.04
-1.03

> <PUBCHEM_SHAPE_SELFOVERLAP>
880.546

> <PUBCHEM_SHAPE_VOLUME>
265.6

> <PUBCHEM_COORDINATE_TYPE>
2
5
10

$$$$

