644179
  -OEChem-07051213053D

 23 24  0     0  0  0  0  0  0999 V2000
   -0.5657    2.7184   -0.1038 Cl  0  0  0  0  0  0  0  0  0  0  0  0
   -0.5653   -2.7182   -0.1046 Cl  0  0  0  0  0  0  0  0  0  0  0  0
   -3.7498   -2.6655    0.1556 Cl  0  0  0  0  0  0  0  0  0  0  0  0
   -3.7496    2.6655    0.1570 Cl  0  0  0  0  0  0  0  0  0  0  0  0
    3.8620    0.0000    2.2585 Cl  0  0  0  0  0  0  0  0  0  0  0  0
    4.8542   -0.0005   -0.5791 O   0  0  0  0  0  0  0  0  0  0  0  0
   -0.7237    0.0000   -0.0884 C   0  0  0  0  0  0  0  0  0  0  0  0
    0.7182    0.0002   -0.2070 C   0  0  0  0  0  0  0  0  0  0  0  0
   -1.4293    1.2078   -0.0330 C   0  0  0  0  0  0  0  0  0  0  0  0
   -1.4291   -1.2081   -0.0298 C   0  0  0  0  0  0  0  0  0  0  0  0
    1.5129    0.0007    0.9394 C   0  0  0  0  0  0  0  0  0  0  0  0
    1.3138   -0.0002   -1.4683 C   0  0  0  0  0  0  0  0  0  0  0  0
   -2.8195   -1.2080    0.0826 C   0  0  0  0  0  0  0  0  0  0  0  0
   -2.8196    1.2078    0.0793 C   0  0  0  0  0  0  0  0  0  0  0  0
    2.9029    0.0005    0.8245 C   0  0  0  0  0  0  0  0  0  0  0  0
    2.7039   -0.0003   -1.5833 C   0  0  0  0  0  0  0  0  0  0  0  0
   -3.5148   -0.0002    0.1372 C   0  0  0  0  0  0  0  0  0  0  0  0
    3.4984    0.0000   -0.4368 C   0  0  0  0  0  0  0  0  0  0  0  0
    1.0492    0.0009    1.9242 H   0  0  0  0  0  0  0  0  0  0  0  0
    0.7090   -0.0006   -2.3722 H   0  0  0  0  0  0  0  0  0  0  0  0
   -4.5995   -0.0001    0.2249 H   0  0  0  0  0  0  0  0  0  0  0  0
    3.1535   -0.0007   -2.5727 H   0  0  0  0  0  0  0  0  0  0  0  0
    5.0758   -0.0009   -1.5261 H   0  0  0  0  0  0  0  0  0  0  0  0
  1  9  1  0  0  0  0
  2 10  1  0  0  0  0
  3 13  1  0  0  0  0
  4 14  1  0  0  0  0
  5 15  1  0  0  0  0
  6 18  1  0  0  0  0
  6 23  1  0  0  0  0
  7  8  1  0  0  0  0
  7  9  2  0  0  0  0
  7 10  1  0  0  0  0
  8 11  2  0  0  0  0
  8 12  1  0  0  0  0
  9 14  1  0  0  0  0
 10 13  2  0  0  0  0
 11 15  1  0  0  0  0
 11 19  1  0  0  0  0
 12 16  2  0  0  0  0
 12 20  1  0  0  0  0
 13 17  1  0  0  0  0
 14 17  2  0  0  0  0
 15 18  2  0  0  0  0
 16 18  1  0  0  0  0
 16 22  1  0  0  0  0
 17 21  1  0  0  0  0
M  END
> <PUBCHEM_COMPOUND_CID>
644179

> <PUBCHEM_CONFORMER_RMSD>
0.6

> <PUBCHEM_CONFORMER_DIVERSEORDER>
1

> <PUBCHEM_MMFF94_PARTIAL_CHARGES>
21
1 -0.18
10 0.18
11 -0.15
12 -0.15
13 0.18
14 0.18
15 0.18
16 -0.15
17 -0.15
18 0.08
19 0.15
2 -0.18
20 0.15
21 0.15
22 0.15
23 0.45
3 -0.18
4 -0.18
5 -0.18
6 -0.53
9 0.18

> <PUBCHEM_EFFECTIVE_ROTOR_COUNT>
1

> <PUBCHEM_PHARMACOPHORE_FEATURES>
3
1 6 donor
6 7 9 10 13 14 17 rings
6 8 11 12 15 16 18 rings

> <PUBCHEM_HEAVY_ATOM_COUNT>
18

> <PUBCHEM_ATOM_DEF_STEREO_COUNT>
0

> <PUBCHEM_ATOM_UDEF_STEREO_COUNT>
0

> <PUBCHEM_BOND_DEF_STEREO_COUNT>
0

> <PUBCHEM_BOND_UDEF_STEREO_COUNT>
0

> <PUBCHEM_ISOTOPIC_ATOM_COUNT>
0

> <PUBCHEM_COMPONENT_COUNT>
1

> <PUBCHEM_CACTVS_TAUTO_COUNT>
3

> <PUBCHEM_CONFORMER_ID>
0009D45300000001

> <PUBCHEM_MMFF94_ENERGY>
52.187

> <PUBCHEM_FEATURE_SELFOVERLAP>
15.223

> <PUBCHEM_SHAPE_FINGERPRINT>
10062212 137 17989208157229731353
10319926 262 18262821626440132218
10646746 165 18333733537250244216
11132069 177 18409731798184467881
11725454 13 17098942431119878888
12236239 1 17703788119639393468
12403259 415 17821446850601564832
12500047 106 18335701684317273246
12553582 1 18268144250097464667
12788726 201 18128811958882014595
13140716 1 18266168432466037699
13538477 17 18201441401944932044
13581323 91 18411703153734439718
13583140 156 17895493487208005810
14178342 30 18411705417292883691
14420673 8 17978804720459666234
15219456 202 17530687593421511424
15375358 24 17822302313365857208
15375462 189 17846213328268199592
16752209 62 18412827958546071047
16945 1 18410851067120364573
18186145 218 17821722874974620035
19049666 15 17750222776466413094
19422 9 17918277545325182530
200 152 16702308922863125023
20028762 73 17755007615497419543
20510252 161 18334007268416718705
20600515 1 18336837467029007048
21065201 7 18408038533129420150
212916 134 18264500635723406697
21639500 275 15285651966785960594
22112679 90 17989209252225073052
22149856 69 17548963912930797953
23175994 123 16950551199627175368
23184049 29 18051133588456711107
2334 1 17977943480821097103
23366157 5 17770781204565412589
23402539 116 18408324384413808462
23419403 2 17766034655764969605
23526113 38 17242161577628292078
23557571 272 18259978288532140477
23559900 14 18261386823695011542
23598291 2 17774708775904975820
23598294 1 18341619212979887482
2748010 2 18263347248479673751
43471831 8 18341897419708863331
474 4 16986582049925714300
495365 180 17241623886124298046
573450 72 18272939331700421922
5902787 121 18268430140046665929
6049 1 17749097881476383776
7097593 13 17842857769410142186
7615 1 17846781784353883196
77492 1 17704069594711043158
81228 2 18336535037227963011
84936 182 17467915611430597073
90316 7 18201729495282162276

> <PUBCHEM_SHAPE_MULTIPOLES>
373.91
7.76
2.68
1.3
3.62
0
0.27
0
1.2
-4.21
0.07
1.98
0
0

> <PUBCHEM_SHAPE_SELFOVERLAP>
768.647

> <PUBCHEM_SHAPE_VOLUME>
220

> <PUBCHEM_COORDINATE_TYPE>
2
5
10

$$$$

