9909623
  -OEChem-07051213112D

 78 80  0     1  0  0  0  0  0999 V2000
    2.0000   -4.8465    0.0000 O   0  0  0  0  0  0  0  0  0  0  0  0
    5.4641    1.1535    0.0000 C   0  0  2  0  0  0  0  0  0  0  0  0
    6.4103    1.4582    0.0000 C   0  0  2  0  0  0  0  0  0  0  0  0
    5.4641    0.1535    0.0000 C   0  0  1  0  0  0  0  0  0  0  0  0
    6.9939    0.6535    0.0000 C   0  0  0  0  0  0  0  0  0  0  0  0
    6.4103   -0.1512    0.0000 C   0  0  0  0  0  0  0  0  0  0  0  0
    4.5981    1.6535    0.0000 C   0  0  0  0  0  0  0  0  0  0  0  0
    6.7210    2.4087    0.0000 C   0  0  1  0  0  0  0  0  0  0  0  0
    4.5981   -0.3465    0.0000 C   0  0  0  0  0  0  0  0  0  0  0  0
    5.4641    2.1535    0.0000 C   0  0  0  0  0  0  0  0  0  0  0  0
    3.7320    1.1535    0.0000 C   0  0  0  0  0  0  0  0  0  0  0  0
    3.7320    0.1535    0.0000 C   0  0  0  0  0  0  0  0  0  0  0  0
    7.6995    2.6150    0.0000 C   0  0  0  0  0  0  0  0  0  0  0  0
    6.0531    3.1530    0.0000 C   0  0  0  0  0  0  0  0  0  0  0  0
    8.0102    3.5655    0.0000 C   0  0  0  0  0  0  0  0  0  0  0  0
    4.5981   -1.3465    0.0000 C   0  0  0  0  0  0  0  0  0  0  0  0
    8.9887    3.7717    0.0000 C   0  0  2  0  0  0  0  0  0  0  0  0
    3.7320   -1.8465    0.0000 C   0  0  0  0  0  0  0  0  0  0  0  0
    9.2993    4.7222    0.0000 C   0  0  0  0  0  0  0  0  0  0  0  0
    9.6565    3.0274    0.0000 C   0  0  0  0  0  0  0  0  0  0  0  0
    3.7320   -2.8465    0.0000 C   0  0  0  0  0  0  0  0  0  0  0  0
   10.2778    4.9284    0.0000 C   0  0  0  0  0  0  0  0  0  0  0  0
    8.6315    5.4665    0.0000 C   0  0  0  0  0  0  0  0  0  0  0  0
   10.6350    3.2336    0.0000 C   0  0  0  0  0  0  0  0  0  0  0  0
    2.8660   -3.3465    0.0000 C   0  0  0  0  0  0  0  0  0  0  0  0
    4.5981   -3.3465    0.0000 C   0  0  0  0  0  0  0  0  0  0  0  0
    2.8660   -4.3465    0.0000 C   0  0  2  0  0  0  0  0  0  0  0  0
    4.5981   -4.3465    0.0000 C   0  0  0  0  0  0  0  0  0  0  0  0
    3.7320   -4.8465    0.0000 C   0  0  0  0  0  0  0  0  0  0  0  0
    5.4641   -2.8465    0.0000 C   0  0  0  0  0  0  0  0  0  0  0  0
    7.2500    1.5901    0.0000 H   0  0  0  0  0  0  0  0  0  0  0  0
    5.5540   -0.6917    0.0000 H   0  0  0  0  0  0  0  0  0  0  0  0
    7.4548    0.2388    0.0000 H   0  0  0  0  0  0  0  0  0  0  0  0
    7.4548    1.0682    0.0000 H   0  0  0  0  0  0  0  0  0  0  0  0
    6.1593   -0.7182    0.0000 H   0  0  0  0  0  0  0  0  0  0  0  0
    6.9477   -0.4605    0.0000 H   0  0  0  0  0  0  0  0  0  0  0  0
    4.9966    2.1284    0.0000 H   0  0  0  0  0  0  0  0  0  0  0  0
    4.1996    2.1284    0.0000 H   0  0  0  0  0  0  0  0  0  0  0  0
    6.1143    2.2809    0.0000 H   0  0  0  0  0  0  0  0  0  0  0  0
    6.0841    2.1535    0.0000 H   0  0  0  0  0  0  0  0  0  0  0  0
    5.4641    2.7735    0.0000 H   0  0  0  0  0  0  0  0  0  0  0  0
    4.8441    2.1535    0.0000 H   0  0  0  0  0  0  0  0  0  0  0  0
    3.5200    1.7361    0.0000 H   0  0  0  0  0  0  0  0  0  0  0  0
    3.1215    1.0458    0.0000 H   0  0  0  0  0  0  0  0  0  0  0  0
    3.1215    0.2611    0.0000 H   0  0  0  0  0  0  0  0  0  0  0  0
    3.5200   -0.4291    0.0000 H   0  0  0  0  0  0  0  0  0  0  0  0
    7.7201    1.9953    0.0000 H   0  0  0  0  0  0  0  0  0  0  0  0
    8.3133    2.5276    0.0000 H   0  0  0  0  0  0  0  0  0  0  0  0
    6.5146    3.5671    0.0000 H   0  0  0  0  0  0  0  0  0  0  0  0
    5.6391    3.6145    0.0000 H   0  0  0  0  0  0  0  0  0  0  0  0
    5.5917    2.7390    0.0000 H   0  0  0  0  0  0  0  0  0  0  0  0
    7.9896    4.1851    0.0000 H   0  0  0  0  0  0  0  0  0  0  0  0
    7.3963    3.6528    0.0000 H   0  0  0  0  0  0  0  0  0  0  0  0
    5.1350   -1.6565    0.0000 H   0  0  0  0  0  0  0  0  0  0  0  0
    8.7960    3.1824    0.0000 H   0  0  0  0  0  0  0  0  0  0  0  0
    3.1951   -1.5365    0.0000 H   0  0  0  0  0  0  0  0  0  0  0  0
    9.4919    5.3115    0.0000 H   0  0  0  0  0  0  0  0  0  0  0  0
    9.1301    2.6998    0.0000 H   0  0  0  0  0  0  0  0  0  0  0  0
    9.8878    2.4521    0.0000 H   0  0  0  0  0  0  0  0  0  0  0  0
   10.4057    4.3218    0.0000 H   0  0  0  0  0  0  0  0  0  0  0  0
   10.8845    5.0563    0.0000 H   0  0  0  0  0  0  0  0  0  0  0  0
   10.1500    5.5351    0.0000 H   0  0  0  0  0  0  0  0  0  0  0  0
    9.0929    5.8806    0.0000 H   0  0  0  0  0  0  0  0  0  0  0  0
    8.2174    5.9280    0.0000 H   0  0  0  0  0  0  0  0  0  0  0  0
    8.1700    5.0524    0.0000 H   0  0  0  0  0  0  0  0  0  0  0  0
   10.7629    2.6269    0.0000 H   0  0  0  0  0  0  0  0  0  0  0  0
   11.2417    3.3615    0.0000 H   0  0  0  0  0  0  0  0  0  0  0  0
   10.5072    3.8403    0.0000 H   0  0  0  0  0  0  0  0  0  0  0  0
    2.6540   -2.7639    0.0000 H   0  0  0  0  0  0  0  0  0  0  0  0
    2.2554   -3.4542    0.0000 H   0  0  0  0  0  0  0  0  0  0  0  0
    2.8660   -4.9665    0.0000 H   0  0  0  0  0  0  0  0  0  0  0  0
    4.8101   -4.9291    0.0000 H   0  0  0  0  0  0  0  0  0  0  0  0
    5.2087   -4.2388    0.0000 H   0  0  0  0  0  0  0  0  0  0  0  0
    3.3335   -5.3215    0.0000 H   0  0  0  0  0  0  0  0  0  0  0  0
    4.1306   -5.3215    0.0000 H   0  0  0  0  0  0  0  0  0  0  0  0
    6.0010   -3.1565    0.0000 H   0  0  0  0  0  0  0  0  0  0  0  0
    5.4641   -2.2265    0.0000 H   0  0  0  0  0  0  0  0  0  0  0  0
    2.0000   -5.4665    0.0000 H   0  0  0  0  0  0  0  0  0  0  0  0
 27  1  1  6  0  0  0
  1 78  1  0  0  0  0
  2  3  1  0  0  0  0
  2  4  1  0  0  0  0
  2  7  1  0  0  0  0
  2 10  1  1  0  0  0
  3  5  1  0  0  0  0
  3  8  1  0  0  0  0
  3 31  1  6  0  0  0
  4  6  1  0  0  0  0
  4  9  1  0  0  0  0
  4 32  1  6  0  0  0
  5  6  1  0  0  0  0
  5 33  1  0  0  0  0
  5 34  1  0  0  0  0
  6 35  1  0  0  0  0
  6 36  1  0  0  0  0
  7 11  1  0  0  0  0
  7 37  1  0  0  0  0
  7 38  1  0  0  0  0
  8 13  1  0  0  0  0
  8 14  1  6  0  0  0
  8 39  1  0  0  0  0
  9 12  1  0  0  0  0
  9 16  2  0  0  0  0
 10 40  1  0  0  0  0
 10 41  1  0  0  0  0
 10 42  1  0  0  0  0
 11 12  1  0  0  0  0
 11 43  1  0  0  0  0
 11 44  1  0  0  0  0
 12 45  1  0  0  0  0
 12 46  1  0  0  0  0
 13 15  1  0  0  0  0
 13 47  1  0  0  0  0
 13 48  1  0  0  0  0
 14 49  1  0  0  0  0
 14 50  1  0  0  0  0
 14 51  1  0  0  0  0
 17 15  1  6  0  0  0
 15 52  1  0  0  0  0
 15 53  1  0  0  0  0
 16 18  1  0  0  0  0
 16 54  1  0  0  0  0
 17 19  1  0  0  0  0
 17 20  1  0  0  0  0
 17 55  1  0  0  0  0
 18 21  2  0  0  0  0
 18 56  1  0  0  0  0
 19 22  1  0  0  0  0
 19 23  1  0  0  0  0
 19 57  1  0  0  0  0
 20 24  1  0  0  0  0
 20 58  1  0  0  0  0
 20 59  1  0  0  0  0
 21 25  1  0  0  0  0
 21 26  1  0  0  0  0
 22 60  1  0  0  0  0
 22 61  1  0  0  0  0
 22 62  1  0  0  0  0
 23 63  1  0  0  0  0
 23 64  1  0  0  0  0
 23 65  1  0  0  0  0
 24 66  1  0  0  0  0
 24 67  1  0  0  0  0
 24 68  1  0  0  0  0
 25 27  1  0  0  0  0
 25 69  1  0  0  0  0
 25 70  1  0  0  0  0
 26 28  1  0  0  0  0
 26 30  2  0  0  0  0
 27 29  1  0  0  0  0
 27 71  1  0  0  0  0
 28 29  1  0  0  0  0
 28 72  1  0  0  0  0
 28 73  1  0  0  0  0
 29 74  1  0  0  0  0
 29 75  1  0  0  0  0
 30 76  1  0  0  0  0
 30 77  1  0  0  0  0
M  END
> <PUBCHEM_COMPOUND_CID>
9909623

> <PUBCHEM_COMPOUND_CANONICALIZED>
1

> <PUBCHEM_CACTVS_COMPLEXITY>
653

> <PUBCHEM_CACTVS_HBOND_ACCEPTOR>
1

> <PUBCHEM_CACTVS_HBOND_DONOR>
1

> <PUBCHEM_CACTVS_ROTATABLE_BOND>
7

> <PUBCHEM_CACTVS_SUBSKEYS>
AAADcfB4IAAAAAAAAAAAAAAAAAAAAYAAAAAwYAAAAAAAAGAAAAAAGgAACAAADxSggAICAAAAAgCAAiBCAAAAAAAgAAAACAAAAAgIEAIAAQAAQAAEwAAIgAOAwMAPgAAAAAAAAAAAAAAAACAAAQAACAAAAA==

> <PUBCHEM_IUPAC_OPENEYE_NAME>
(1S,3Z)-3-[(2E)-2-[(1R,3aS,7aR)-1-[(1R,4R)-4-ethyl-1,5-dimethyl-hexyl]-7a-methyl-2,3,3a,5,6,7-hexahydro-1H-inden-4-ylidene]ethylidene]-4-methylene-cyclohexanol

> <PUBCHEM_IUPAC_CAS_NAME>
(1S,3Z)-3-[(2E)-2-[(1R,3aS,7aR)-1-[(2R,5R)-5-ethyl-6-methylheptan-2-yl]-7a-methyl-2,3,3a,5,6,7-hexahydro-1H-inden-4-ylidene]ethylidene]-4-methylene-1-cyclohexanol

> <PUBCHEM_IUPAC_NAME>
(1S,3Z)-3-[(2E)-2-[(1R,3aS,7aR)-1-[(2R,5R)-5-ethyl-6-methylheptan-2-yl]-7a-methyl-2,3,3a,5,6,7-hexahydro-1H-inden-4-ylidene]ethylidene]-4-methylidenecyclohexan-1-ol

> <PUBCHEM_IUPAC_SYSTEMATIC_NAME>
(1S,3Z)-3-[(2E)-2-[(1R,3aS,7aR)-1-[(2R,5R)-5-ethyl-6-methyl-heptan-2-yl]-7a-methyl-2,3,3a,5,6,7-hexahydro-1H-inden-4-ylidene]ethylidene]-4-methylidene-cyclohexan-1-ol

> <PUBCHEM_IUPAC_TRADITIONAL_NAME>
(1S,3Z)-3-[(2E)-2-[(1R,3aS,7aR)-1-[(1R,4R)-4-ethyl-1,5-dimethyl-hexyl]-7a-methyl-2,3,3a,5,6,7-hexahydro-1H-inden-4-ylidene]ethylidene]-4-methylene-cyclohexanol

> <PUBCHEM_IUPAC_INCHI>
InChI=1S/C29H48O/c1-7-23(20(2)3)12-10-22(5)27-16-17-28-24(9-8-18-29(27,28)6)13-14-25-19-26(30)15-11-21(25)4/h13-14,20,22-23,26-28,30H,4,7-12,15-19H2,1-3,5-6H3/b24-13+,25-14-/t22-,23-,26+,27-,28+,29-/m1/s1

> <PUBCHEM_IUPAC_INCHIKEY>
RMDJVOZETBHEAR-LQYWTLTGSA-N

> <PUBCHEM_XLOGP3_AA>
8.7

> <PUBCHEM_EXACT_MASS>
412.370516

> <PUBCHEM_MOLECULAR_FORMULA>
C29H48O

> <PUBCHEM_MOLECULAR_WEIGHT>
412.69082

> <PUBCHEM_OPENEYE_CAN_SMILES>
CCC(CCC(C)C1CCC2C1(CCCC2=CC=C3CC(CCC3=C)O)C)C(C)C

> <PUBCHEM_OPENEYE_ISO_SMILES>
CC[C@H](CC[C@@H](C)[C@H]1CC[C@@H]\2[C@@]1(CCC/C2=C\C=C/3\C[C@H](CCC3=C)O)C)C(C)C

> <PUBCHEM_CACTVS_TPSA>
20.2

> <PUBCHEM_MONOISOTOPIC_WEIGHT>
412.370516

> <PUBCHEM_TOTAL_CHARGE>
0

> <PUBCHEM_HEAVY_ATOM_COUNT>
30

> <PUBCHEM_ATOM_DEF_STEREO_COUNT>
6

> <PUBCHEM_ATOM_UDEF_STEREO_COUNT>
0

> <PUBCHEM_BOND_DEF_STEREO_COUNT>
2

> <PUBCHEM_BOND_UDEF_STEREO_COUNT>
0

> <PUBCHEM_ISOTOPIC_ATOM_COUNT>
0

> <PUBCHEM_COMPONENT_COUNT>
1

> <PUBCHEM_CACTVS_TAUTO_COUNT>
1

> <PUBCHEM_COORDINATE_TYPE>
1
5
255

> <PUBCHEM_BONDANNOTATIONS>
27  1  6
17  15  6
2  10  5
3  31  6
4  32  6
8  14  6

$$$$

