439389
  -OEChem-07051212453D

 22 21  0     1  0  0  0  0  0999 V2000
   -1.9548   -0.5250   -0.2077 O   0  0  0  0  0  0  0  0  0  0  0  0
    3.0646   -1.5070    0.6121 O   0  0  0  0  0  0  0  0  0  0  0  0
    3.8258    0.1381   -0.7500 O   0  0  0  0  0  0  0  0  0  0  0  0
   -3.4776    1.0652    0.4918 O   0  0  0  0  0  0  0  0  0  0  0  0
    1.7449    1.7636   -0.2067 N   0  0  0  0  0  0  0  0  0  0  0  0
    0.4660   -0.3687   -0.0541 C   0  0  0  0  0  0  0  0  0  0  0  0
    1.6927    0.4354    0.4036 C   0  0  1  0  0  0  0  0  0  0  0  0
   -0.8798    0.3000    0.2167 C   0  0  0  0  0  0  0  0  0  0  0  0
    2.9664   -0.2927    0.0081 C   0  0  0  0  0  0  0  0  0  0  0  0
   -3.2103   -0.0181   -0.0102 C   0  0  0  0  0  0  0  0  0  0  0  0
   -4.2380   -0.9909   -0.5036 C   0  0  0  0  0  0  0  0  0  0  0  0
    0.4650   -1.3539    0.4311 H   0  0  0  0  0  0  0  0  0  0  0  0
    0.5389   -0.5903   -1.1281 H   0  0  0  0  0  0  0  0  0  0  0  0
    1.6888    0.5550    1.4925 H   0  0  0  0  0  0  0  0  0  0  0  0
   -0.9778    0.4937    1.2917 H   0  0  0  0  0  0  0  0  0  0  0  0
   -0.9368    1.2550   -0.3185 H   0  0  0  0  0  0  0  0  0  0  0  0
    1.7763    1.6812   -1.2220 H   0  0  0  0  0  0  0  0  0  0  0  0
    2.5983    2.2439    0.0756 H   0  0  0  0  0  0  0  0  0  0  0  0
   -4.1548   -1.9298    0.0495 H   0  0  0  0  0  0  0  0  0  0  0  0
   -4.1025   -1.1613   -1.5745 H   0  0  0  0  0  0  0  0  0  0  0  0
   -5.2373   -0.5774   -0.3400 H   0  0  0  0  0  0  0  0  0  0  0  0
    3.8896   -1.9742    0.3604 H   0  0  0  0  0  0  0  0  0  0  0  0
  1  8  1  0  0  0  0
  1 10  1  0  0  0  0
  2  9  1  0  0  0  0
  2 22  1  0  0  0  0
  3  9  2  0  0  0  0
  4 10  2  0  0  0  0
  5  7  1  0  0  0  0
  5 17  1  0  0  0  0
  5 18  1  0  0  0  0
  6  7  1  0  0  0  0
  6  8  1  0  0  0  0
  6 12  1  0  0  0  0
  6 13  1  0  0  0  0
  7  9  1  0  0  0  0
  7 14  1  0  0  0  0
  8 15  1  0  0  0  0
  8 16  1  0  0  0  0
 10 11  1  0  0  0  0
 11 19  1  0  0  0  0
 11 20  1  0  0  0  0
 11 21  1  0  0  0  0
M  END
> <PUBCHEM_COMPOUND_CID>
439389

> <PUBCHEM_CONFORMER_RMSD>
0.6

> <PUBCHEM_CONFORMER_DIVERSEORDER>
1
20
10
49
52
60
77
24
70
72
48
90
26
19
89
25
74
36
91
80
40
79
38
23
12
15
33
57
42
13
17
5
45
92
11
7
58
82
39
84
73
54
41
85
8
71
62
18
37
69
22
2
88
16
30
53
50
51
32
86
27
6
78
3
31
87
75
56
63
55
43
83
68
76
14
9
67
35
61
21
4
46
34
66
59
44
65
64
28
47
81
29

> <PUBCHEM_MMFF94_PARTIAL_CHARGES>
13
1 -0.43
10 0.66
11 0.06
17 0.36
18 0.36
2 -0.65
22 0.5
3 -0.57
4 -0.57
5 -0.99
7 0.33
8 0.28
9 0.66

> <PUBCHEM_EFFECTIVE_ROTOR_COUNT>
5

> <PUBCHEM_PHARMACOPHORE_FEATURES>
6
1 2 acceptor
1 3 acceptor
1 4 acceptor
1 5 cation
1 5 donor
3 2 3 9 anion

> <PUBCHEM_HEAVY_ATOM_COUNT>
11

> <PUBCHEM_ATOM_DEF_STEREO_COUNT>
1

> <PUBCHEM_ATOM_UDEF_STEREO_COUNT>
0

> <PUBCHEM_BOND_DEF_STEREO_COUNT>
0

> <PUBCHEM_BOND_UDEF_STEREO_COUNT>
0

> <PUBCHEM_ISOTOPIC_ATOM_COUNT>
0

> <PUBCHEM_COMPONENT_COUNT>
1

> <PUBCHEM_CACTVS_TAUTO_COUNT>
1

> <PUBCHEM_CONFORMER_ID>
0006B45D00000001

> <PUBCHEM_MMFF94_ENERGY>
9.0449

> <PUBCHEM_FEATURE_SELFOVERLAP>
30.505

> <PUBCHEM_SHAPE_FINGERPRINT>
11062470 55 18410853274000364138
12932764 1 17203059516607486299
14144814 61 18409168826592420035
14251717 144 18272094928092717258
14325111 11 18408042892478754753
15477762 27 18411982446988907902
177051 138 17894914014130086335
18186145 218 18411703179556789633
190213 19 17312822684350519459
1986462 14 18187644717471045805
20279233 1 15482673476652028867
20645477 70 17631742667543220082
22485316 2 18410579495620956619
23402655 69 18342459265733759653
93112 12 18339924814185485015

> <PUBCHEM_SHAPE_MULTIPOLES>
197.92
8.03
1.24
0.71
3.41
0.17
0.01
-1.47
0.79
-0.29
-0.06
-0.14
-0.03
-0.61

> <PUBCHEM_SHAPE_SELFOVERLAP>
373.544

> <PUBCHEM_SHAPE_VOLUME>
122.1

> <PUBCHEM_COORDINATE_TYPE>
2
5
10

$$$$

