101773
  -OEChem-07051213053D

 58 61  0     1  0  0  0  0  0999 V2000
    3.0315   -0.8706    1.8127 O   0  0  0  0  0  0  0  0  0  0  0  0
   -4.8626   -1.2899    2.2217 O   0  0  0  0  0  0  0  0  0  0  0  0
    5.2739    0.0492   -0.6035 O   0  0  0  0  0  0  0  0  0  0  0  0
   -0.2487    1.1206   -0.2412 C   0  0  2  0  0  0  0  0  0  0  0  0
   -1.0105   -0.2336   -0.4066 C   0  0  1  0  0  0  0  0  0  0  0  0
    1.0814    0.8564    0.4768 C   0  0  1  0  0  0  0  0  0  0  0  0
    1.9996   -0.1274   -0.2864 C   0  0  2  0  0  0  0  0  0  0  0  0
   -2.4117   -0.0414   -1.1000 C   0  0  2  0  0  0  0  0  0  0  0  0
   -3.2427    1.0237   -0.3073 C   0  0  2  0  0  0  0  0  0  0  0  0
   -0.1159   -1.3189   -1.0632 C   0  0  0  0  0  0  0  0  0  0  0  0
    1.2575   -1.4700   -0.3833 C   0  0  0  0  0  0  0  0  0  0  0  0
    3.2422   -0.0893    0.6401 C   0  0  1  0  0  0  0  0  0  0  0  0
   -1.0982    2.1485    0.5179 C   0  0  0  0  0  0  0  0  0  0  0  0
    1.9983    2.0391    0.7769 C   0  0  0  0  0  0  0  0  0  0  0  0
   -2.4724    2.3408   -0.1167 C   0  0  0  0  0  0  0  0  0  0  0  0
    3.3782    1.3990    1.0313 C   0  0  0  0  0  0  0  0  0  0  0  0
   -3.2317   -1.3638   -1.1610 C   0  0  0  0  0  0  0  0  0  0  0  0
   -3.7413    0.4976    1.0556 C   0  0  0  0  0  0  0  0  0  0  0  0
    2.3777    0.3631   -1.7118 C   0  0  0  0  0  0  0  0  0  0  0  0
   -2.2460    0.4272   -2.5693 C   0  0  0  0  0  0  0  0  0  0  0  0
   -3.6897   -1.8727    0.1999 C   0  0  0  0  0  0  0  0  0  0  0  0
   -4.5092   -0.8142    0.9270 C   0  0  1  0  0  0  0  0  0  0  0  0
    4.4928   -0.6532    0.0365 C   0  0  0  0  0  0  0  0  0  0  0  0
    4.7473   -2.1202    0.2539 C   0  0  0  0  0  0  0  0  0  0  0  0
   -0.0369    1.5462   -1.2272 H   0  0  0  0  0  0  0  0  0  0  0  0
   -1.1988   -0.6008    0.6118 H   0  0  0  0  0  0  0  0  0  0  0  0
    0.8250    0.4126    1.4530 H   0  0  0  0  0  0  0  0  0  0  0  0
   -4.1419    1.2610   -0.8944 H   0  0  0  0  0  0  0  0  0  0  0  0
    0.0297   -1.1056   -2.1263 H   0  0  0  0  0  0  0  0  0  0  0  0
   -0.6127   -2.2936   -1.0100 H   0  0  0  0  0  0  0  0  0  0  0  0
    1.0982   -1.8992    0.6134 H   0  0  0  0  0  0  0  0  0  0  0  0
    1.8514   -2.1988   -0.9461 H   0  0  0  0  0  0  0  0  0  0  0  0
   -0.5848    3.1174    0.5340 H   0  0  0  0  0  0  0  0  0  0  0  0
   -1.2109    1.8444    1.5652 H   0  0  0  0  0  0  0  0  0  0  0  0
    1.6597    2.6077    1.6492 H   0  0  0  0  0  0  0  0  0  0  0  0
    2.0488    2.7330   -0.0697 H   0  0  0  0  0  0  0  0  0  0  0  0
   -3.0602    3.0322    0.4997 H   0  0  0  0  0  0  0  0  0  0  0  0
   -2.3505    2.8373   -1.0869 H   0  0  0  0  0  0  0  0  0  0  0  0
    4.1293    1.9374    0.4436 H   0  0  0  0  0  0  0  0  0  0  0  0
    3.6489    1.5143    2.0872 H   0  0  0  0  0  0  0  0  0  0  0  0
   -2.6717   -2.1522   -1.6753 H   0  0  0  0  0  0  0  0  0  0  0  0
   -4.1291   -1.1991   -1.7745 H   0  0  0  0  0  0  0  0  0  0  0  0
   -2.9140    0.3588    1.7614 H   0  0  0  0  0  0  0  0  0  0  0  0
   -4.3919    1.2471    1.5255 H   0  0  0  0  0  0  0  0  0  0  0  0
    2.9477    1.2974   -1.6991 H   0  0  0  0  0  0  0  0  0  0  0  0
    2.9915   -0.3854   -2.2261 H   0  0  0  0  0  0  0  0  0  0  0  0
    1.5055    0.5366   -2.3471 H   0  0  0  0  0  0  0  0  0  0  0  0
   -1.6411    1.3320   -2.6643 H   0  0  0  0  0  0  0  0  0  0  0  0
   -1.7802   -0.3472   -3.1877 H   0  0  0  0  0  0  0  0  0  0  0  0
   -3.2214    0.6476   -3.0193 H   0  0  0  0  0  0  0  0  0  0  0  0
   -4.2957   -2.7783    0.0733 H   0  0  0  0  0  0  0  0  0  0  0  0
   -2.8340   -2.1806    0.8124 H   0  0  0  0  0  0  0  0  0  0  0  0
   -5.4425   -0.6407    0.3776 H   0  0  0  0  0  0  0  0  0  0  0  0
    3.7303   -0.6567    2.4545 H   0  0  0  0  0  0  0  0  0  0  0  0
    5.1042   -2.2930    1.2722 H   0  0  0  0  0  0  0  0  0  0  0  0
    3.8499   -2.7098    0.0605 H   0  0  0  0  0  0  0  0  0  0  0  0
    5.5207   -2.4543   -0.4446 H   0  0  0  0  0  0  0  0  0  0  0  0
   -5.3918   -0.5982    2.6542 H   0  0  0  0  0  0  0  0  0  0  0  0
  1 12  1  0  0  0  0
  1 54  1  0  0  0  0
  2 22  1  0  0  0  0
  2 58  1  0  0  0  0
  3 23  2  0  0  0  0
  4  5  1  0  0  0  0
  4  6  1  0  0  0  0
  4 13  1  0  0  0  0
  4 25  1  0  0  0  0
  5  8  1  0  0  0  0
  5 10  1  0  0  0  0
  5 26  1  0  0  0  0
  6  7  1  0  0  0  0
  6 14  1  0  0  0  0
  6 27  1  0  0  0  0
  7 11  1  0  0  0  0
  7 12  1  0  0  0  0
  7 19  1  0  0  0  0
  8  9  1  0  0  0  0
  8 17  1  0  0  0  0
  8 20  1  0  0  0  0
  9 15  1  0  0  0  0
  9 18  1  0  0  0  0
  9 28  1  0  0  0  0
 10 11  1  0  0  0  0
 10 29  1  0  0  0  0
 10 30  1  0  0  0  0
 11 31  1  0  0  0  0
 11 32  1  0  0  0  0
 12 16  1  0  0  0  0
 12 23  1  0  0  0  0
 13 15  1  0  0  0  0
 13 33  1  0  0  0  0
 13 34  1  0  0  0  0
 14 16  1  0  0  0  0
 14 35  1  0  0  0  0
 14 36  1  0  0  0  0
 15 37  1  0  0  0  0
 15 38  1  0  0  0  0
 16 39  1  0  0  0  0
 16 40  1  0  0  0  0
 17 21  1  0  0  0  0
 17 41  1  0  0  0  0
 17 42  1  0  0  0  0
 18 22  1  0  0  0  0
 18 43  1  0  0  0  0
 18 44  1  0  0  0  0
 19 45  1  0  0  0  0
 19 46  1  0  0  0  0
 19 47  1  0  0  0  0
 20 48  1  0  0  0  0
 20 49  1  0  0  0  0
 20 50  1  0  0  0  0
 21 22  1  0  0  0  0
 21 51  1  0  0  0  0
 21 52  1  0  0  0  0
 22 53  1  0  0  0  0
 23 24  1  0  0  0  0
 24 55  1  0  0  0  0
 24 56  1  0  0  0  0
 24 57  1  0  0  0  0
M  END
> <PUBCHEM_COMPOUND_CID>
101773

> <PUBCHEM_CONFORMER_RMSD>
0.6

> <PUBCHEM_CONFORMER_DIVERSEORDER>
1
4
2
3

> <PUBCHEM_MMFF94_PARTIAL_CHARGES>
9
1 -0.68
12 0.34
2 -0.68
22 0.28
23 0.45
24 0.06
3 -0.57
54 0.4
58 0.4

> <PUBCHEM_EFFECTIVE_ROTOR_COUNT>
3.2

> <PUBCHEM_PHARMACOPHORE_FEATURES>
9
1 1 acceptor
1 1 donor
1 2 acceptor
1 2 donor
1 3 acceptor
5 6 7 12 14 16 rings
6 4 5 6 7 10 11 rings
6 4 5 8 9 13 15 rings
6 8 9 17 18 21 22 rings

> <PUBCHEM_HEAVY_ATOM_COUNT>
24

> <PUBCHEM_ATOM_DEF_STEREO_COUNT>
8

> <PUBCHEM_ATOM_UDEF_STEREO_COUNT>
0

> <PUBCHEM_BOND_DEF_STEREO_COUNT>
0

> <PUBCHEM_BOND_UDEF_STEREO_COUNT>
0

> <PUBCHEM_ISOTOPIC_ATOM_COUNT>
0

> <PUBCHEM_COMPONENT_COUNT>
1

> <PUBCHEM_CACTVS_TAUTO_COUNT>
2

> <PUBCHEM_CONFORMER_ID>
00018D8D00000001

> <PUBCHEM_MMFF94_ENERGY>
84.1735

> <PUBCHEM_FEATURE_SELFOVERLAP>
45.796

> <PUBCHEM_SHAPE_FINGERPRINT>
10366900 7 18343025467025072155
10675989 125 16676692840537124928
11089746 13 6555414176275214882
11370993 144 15936404559135410118
11543360 7 16486978401242673004
11578080 2 17916047722749063868
12236239 1 18130503124346192564
12403814 3 18040157305916278281
12422481 6 17749660912981546539
12553582 1 18335428962483859688
12633257 1 17168142321459721817
12714826 92 17846788394825386477
128620 24 16559034882820806584
13009979 54 18271514403597071804
13103583 49 18265308674392260019
13140716 1 18186805776924481313
13224815 77 18409737235401892653
13544653 18 18201159845701316479
13583140 156 17773339926772734284
13675066 3 17748835115593355888
14004511 7 17240489112672441268
14223421 5 18335420213915085205
14289901 80 16702311186474459388
14341114 176 18409443691609128962
15196674 1 18260275126622751500
15209289 33 18411418418719308962
15209294 21 16588023515514180187
15788980 27 18409736187519445862
16945 1 18261121789119899804
1813 80 18341038657961132621
18186145 218 18340220634469080420
18927931 339 18334857263808904326
200 152 14333408930803071981
20028762 73 17823983329649704215
20261772 1 18113899342676897123
20739085 24 18261664870560306673
20775530 9 16699756832422861075
221490 88 18408326575311573632
22182313 1 17678165208055923188
23402539 116 14117519856616443830
23503953 91 16515404057917285825
23557571 272 17846787342447779053
23559900 14 17846500309725455301
2748010 2 17753046386677322109
296302 2 8142085364080807726
312423 11 18130775755104688517
335352 9 18115877462816555124
5104073 3 18261399983300616672
7495541 125 18343861091904538744

> <PUBCHEM_SHAPE_MULTIPOLES>
476.3
9.79
2.19
1.66
3.06
0.46
-0.24
-3.51
3.12
-0.22
0.29
-1.26
-0.27
0.46

> <PUBCHEM_SHAPE_SELFOVERLAP>
1013.295

> <PUBCHEM_SHAPE_VOLUME>
264

> <PUBCHEM_COORDINATE_TYPE>
2
5
10

$$$$

