23724594
  -OEChem-07051213083D

 82 85  0     1  0  0  0  0  0999 V2000
    5.8310    3.3381   -0.2787 O   0  0  0  0  0  0  0  0  0  0  0  0
    6.1747    1.5468    1.8268 O   0  0  0  0  0  0  0  0  0  0  0  0
   -2.8018    1.8561    1.2966 O   0  0  0  0  0  0  0  0  0  0  0  0
   -5.4445    1.9799    1.5696 O   0  0  0  0  0  0  0  0  0  0  0  0
   -0.4559   -1.2305   -0.7555 C   0  0  1  0  0  0  0  0  0  0  0  0
    0.5625   -2.0163    0.1326 C   0  0  1  0  0  0  0  0  0  0  0  0
    2.0424   -1.7252   -0.2099 C   0  0  1  0  0  0  0  0  0  0  0  0
    2.3495   -0.2038   -0.2558 C   0  0  1  0  0  0  0  0  0  0  0  0
    3.8645    0.0923   -0.5740 C   0  0  2  0  0  0  0  0  0  0  0  0
   -1.3282   -0.4432    0.2688 C   0  0  2  0  0  0  0  0  0  0  0  0
    0.2435   -0.2910   -1.7568 C   0  0  0  0  0  0  0  0  0  0  0  0
    4.7277   -0.6753    0.4794 C   0  0  1  0  0  0  0  0  0  0  0  0
    1.3536    0.5674   -1.1523 C   0  0  0  0  0  0  0  0  0  0  0  0
    0.1595   -1.7278    1.5913 C   0  0  0  0  0  0  0  0  0  0  0  0
    2.9955   -2.4804    0.7331 C   0  0  0  0  0  0  0  0  0  0  0  0
   -1.3008   -1.3180    1.5184 C   0  0  0  0  0  0  0  0  0  0  0  0
    4.4664   -2.1850    0.4506 C   0  0  0  0  0  0  0  0  0  0  0  0
    4.1655    1.6108   -0.4152 C   0  0  0  0  0  0  0  0  0  0  0  0
   -1.2919   -2.2428   -1.5708 C   0  0  0  0  0  0  0  0  0  0  0  0
   -2.7466   -0.0946   -0.1637 C   0  0  1  0  0  0  0  0  0  0  0  0
    6.2322   -0.3602    0.3756 C   0  0  0  0  0  0  0  0  0  0  0  0
    4.2145   -0.3388   -2.0237 C   0  0  0  0  0  0  0  0  0  0  0  0
    5.6602    1.9412   -0.5078 C   0  0  2  0  0  0  0  0  0  0  0  0
    6.4962    1.1421    0.4942 C   0  0  1  0  0  0  0  0  0  0  0  0
   -3.5404    0.6896    0.9074 C   0  0  2  0  0  0  0  0  0  0  0  0
   -2.6913    0.6906   -1.4800 C   0  0  0  0  0  0  0  0  0  0  0  0
   -4.9616    1.1522    0.5066 C   0  0  1  0  0  0  0  0  0  0  0  0
   -5.9783    0.0188    0.1905 C   0  0  2  0  0  0  0  0  0  0  0  0
   -7.3332    0.5986   -0.3301 C   0  0  0  0  0  0  0  0  0  0  0  0
   -6.1526   -0.9607    1.3592 C   0  0  0  0  0  0  0  0  0  0  0  0
   -7.2201    1.5975   -1.4849 C   0  0  0  0  0  0  0  0  0  0  0  0
   -8.2921   -0.5284   -0.7415 C   0  0  0  0  0  0  0  0  0  0  0  0
    0.4108   -3.0951   -0.0191 H   0  0  0  0  0  0  0  0  0  0  0  0
    2.2076   -2.1383   -1.2137 H   0  0  0  0  0  0  0  0  0  0  0  0
    2.1832    0.1806    0.7611 H   0  0  0  0  0  0  0  0  0  0  0  0
   -0.8073    0.4888    0.5251 H   0  0  0  0  0  0  0  0  0  0  0  0
    0.7098   -0.9081   -2.5390 H   0  0  0  0  0  0  0  0  0  0  0  0
   -0.4214    0.3685   -2.3083 H   0  0  0  0  0  0  0  0  0  0  0  0
    4.4098   -0.3295    1.4753 H   0  0  0  0  0  0  0  0  0  0  0  0
    0.9078    1.3768   -0.5606 H   0  0  0  0  0  0  0  0  0  0  0  0
    1.8592    1.0769   -1.9777 H   0  0  0  0  0  0  0  0  0  0  0  0
    0.2978   -2.6048    2.2320 H   0  0  0  0  0  0  0  0  0  0  0  0
    0.7455   -0.9094    2.0223 H   0  0  0  0  0  0  0  0  0  0  0  0
    2.7880   -2.2130    1.7761 H   0  0  0  0  0  0  0  0  0  0  0  0
    2.8226   -3.5600    0.6474 H   0  0  0  0  0  0  0  0  0  0  0  0
   -1.9459   -2.1977    1.4131 H   0  0  0  0  0  0  0  0  0  0  0  0
   -1.5969   -0.7805    2.4241 H   0  0  0  0  0  0  0  0  0  0  0  0
    5.0765   -2.6833    1.2140 H   0  0  0  0  0  0  0  0  0  0  0  0
    4.7616   -2.6184   -0.5113 H   0  0  0  0  0  0  0  0  0  0  0  0
    3.7748    1.9687    0.5474 H   0  0  0  0  0  0  0  0  0  0  0  0
    3.6340    2.2003   -1.1722 H   0  0  0  0  0  0  0  0  0  0  0  0
   -1.9658   -1.8012   -2.3035 H   0  0  0  0  0  0  0  0  0  0  0  0
   -0.6269   -2.9050   -2.1401 H   0  0  0  0  0  0  0  0  0  0  0  0
   -1.8882   -2.8877   -0.9156 H   0  0  0  0  0  0  0  0  0  0  0  0
   -3.3058   -1.0185   -0.3538 H   0  0  0  0  0  0  0  0  0  0  0  0
    6.6428   -0.7395   -0.5664 H   0  0  0  0  0  0  0  0  0  0  0  0
    6.7584   -0.8851    1.1830 H   0  0  0  0  0  0  0  0  0  0  0  0
    5.2824   -0.2470   -2.2395 H   0  0  0  0  0  0  0  0  0  0  0  0
    3.9463   -1.3776   -2.2311 H   0  0  0  0  0  0  0  0  0  0  0  0
    3.6976    0.2795   -2.7642 H   0  0  0  0  0  0  0  0  0  0  0  0
    6.0219    1.7458   -1.5223 H   0  0  0  0  0  0  0  0  0  0  0  0
    7.5597    1.3610    0.3468 H   0  0  0  0  0  0  0  0  0  0  0  0
   -3.6086    0.0891    1.8194 H   0  0  0  0  0  0  0  0  0  0  0  0
   -2.3782    0.1085   -2.3421 H   0  0  0  0  0  0  0  0  0  0  0  0
   -2.0637    1.5838   -1.3904 H   0  0  0  0  0  0  0  0  0  0  0  0
   -3.6850    1.0339   -1.7805 H   0  0  0  0  0  0  0  0  0  0  0  0
   -4.8738    1.8368   -0.3382 H   0  0  0  0  0  0  0  0  0  0  0  0
    5.5639    3.5228    0.6380 H   0  0  0  0  0  0  0  0  0  0  0  0
    6.7484    1.0470    2.4323 H   0  0  0  0  0  0  0  0  0  0  0  0
   -5.5540   -0.5615   -0.6401 H   0  0  0  0  0  0  0  0  0  0  0  0
   -3.3051    2.3007    1.9999 H   0  0  0  0  0  0  0  0  0  0  0  0
   -7.8124    1.1314    0.5027 H   0  0  0  0  0  0  0  0  0  0  0  0
   -5.4669    1.4459    2.3813 H   0  0  0  0  0  0  0  0  0  0  0  0
   -5.1947   -1.3567    1.7062 H   0  0  0  0  0  0  0  0  0  0  0  0
   -6.6552   -0.4838    2.2065 H   0  0  0  0  0  0  0  0  0  0  0  0
   -6.7447   -1.8319    1.0636 H   0  0  0  0  0  0  0  0  0  0  0  0
   -6.7420    2.5282   -1.1660 H   0  0  0  0  0  0  0  0  0  0  0  0
   -6.6405    1.1760   -2.3128 H   0  0  0  0  0  0  0  0  0  0  0  0
   -8.2092    1.8705   -1.8689 H   0  0  0  0  0  0  0  0  0  0  0  0
   -8.5884   -1.1405    0.1152 H   0  0  0  0  0  0  0  0  0  0  0  0
   -7.8363   -1.1804   -1.4942 H   0  0  0  0  0  0  0  0  0  0  0  0
   -9.2163   -0.1202   -1.1658 H   0  0  0  0  0  0  0  0  0  0  0  0
  1 23  1  0  0  0  0
  1 68  1  0  0  0  0
  2 24  1  0  0  0  0
  2 69  1  0  0  0  0
  3 25  1  0  0  0  0
  3 71  1  0  0  0  0
  4 27  1  0  0  0  0
  4 73  1  0  0  0  0
  5  6  1  0  0  0  0
  5 10  1  0  0  0  0
  5 11  1  0  0  0  0
  5 19  1  0  0  0  0
  6  7  1  0  0  0  0
  6 14  1  0  0  0  0
  6 33  1  0  0  0  0
  7  8  1  0  0  0  0
  7 15  1  0  0  0  0
  7 34  1  0  0  0  0
  8  9  1  0  0  0  0
  8 13  1  0  0  0  0
  8 35  1  0  0  0  0
  9 12  1  0  0  0  0
  9 18  1  0  0  0  0
  9 22  1  0  0  0  0
 10 16  1  0  0  0  0
 10 20  1  0  0  0  0
 10 36  1  0  0  0  0
 11 13  1  0  0  0  0
 11 37  1  0  0  0  0
 11 38  1  0  0  0  0
 12 17  1  0  0  0  0
 12 21  1  0  0  0  0
 12 39  1  0  0  0  0
 13 40  1  0  0  0  0
 13 41  1  0  0  0  0
 14 16  1  0  0  0  0
 14 42  1  0  0  0  0
 14 43  1  0  0  0  0
 15 17  1  0  0  0  0
 15 44  1  0  0  0  0
 15 45  1  0  0  0  0
 16 46  1  0  0  0  0
 16 47  1  0  0  0  0
 17 48  1  0  0  0  0
 17 49  1  0  0  0  0
 18 23  1  0  0  0  0
 18 50  1  0  0  0  0
 18 51  1  0  0  0  0
 19 52  1  0  0  0  0
 19 53  1  0  0  0  0
 19 54  1  0  0  0  0
 20 25  1  0  0  0  0
 20 26  1  0  0  0  0
 20 55  1  0  0  0  0
 21 24  1  0  0  0  0
 21 56  1  0  0  0  0
 21 57  1  0  0  0  0
 22 58  1  0  0  0  0
 22 59  1  0  0  0  0
 22 60  1  0  0  0  0
 23 24  1  0  0  0  0
 23 61  1  0  0  0  0
 24 62  1  0  0  0  0
 25 27  1  0  0  0  0
 25 63  1  0  0  0  0
 26 64  1  0  0  0  0
 26 65  1  0  0  0  0
 26 66  1  0  0  0  0
 27 28  1  0  0  0  0
 27 67  1  0  0  0  0
 28 29  1  0  0  0  0
 28 30  1  0  0  0  0
 28 70  1  0  0  0  0
 29 31  1  0  0  0  0
 29 32  1  0  0  0  0
 29 72  1  0  0  0  0
 30 74  1  0  0  0  0
 30 75  1  0  0  0  0
 30 76  1  0  0  0  0
 31 77  1  0  0  0  0
 31 78  1  0  0  0  0
 31 79  1  0  0  0  0
 32 80  1  0  0  0  0
 32 81  1  0  0  0  0
 32 82  1  0  0  0  0
M  END
> <PUBCHEM_COMPOUND_CID>
23724594

> <PUBCHEM_CONFORMER_RMSD>
1

> <PUBCHEM_CONFORMER_DIVERSEORDER>
1
12
6
2
3
8
13
7
10
9
4
11
5

> <PUBCHEM_MMFF94_PARTIAL_CHARGES>
12
1 -0.68
2 -0.68
23 0.28
24 0.28
25 0.28
27 0.28
3 -0.68
4 -0.68
68 0.4
69 0.4
71 0.4
73 0.4

> <PUBCHEM_EFFECTIVE_ROTOR_COUNT>
7.2

> <PUBCHEM_PHARMACOPHORE_FEATURES>
15
1 1 acceptor
1 1 donor
1 2 acceptor
1 2 donor
1 26 hydrophobe
1 3 acceptor
1 3 donor
1 30 hydrophobe
1 4 acceptor
1 4 donor
3 29 31 32 hydrophobe
5 5 6 10 14 16 rings
6 5 6 7 8 11 13 rings
6 7 8 9 12 15 17 rings
6 9 12 18 21 23 24 rings

> <PUBCHEM_HEAVY_ATOM_COUNT>
32

> <PUBCHEM_ATOM_DEF_STEREO_COUNT>
12

> <PUBCHEM_ATOM_UDEF_STEREO_COUNT>
1

> <PUBCHEM_BOND_DEF_STEREO_COUNT>
0

> <PUBCHEM_BOND_UDEF_STEREO_COUNT>
0

> <PUBCHEM_ISOTOPIC_ATOM_COUNT>
0

> <PUBCHEM_COMPONENT_COUNT>
1

> <PUBCHEM_CACTVS_TAUTO_COUNT>
1

> <PUBCHEM_CONFORMER_ID>
016A023200000001

> <PUBCHEM_MMFF94_ENERGY>
123.1899

> <PUBCHEM_FEATURE_SELFOVERLAP>
76.362

> <PUBCHEM_SHAPE_FINGERPRINT>
10 15 17632578227966437708
10299344 5 10087637109392577065
10411042 1 17837215140916181730
11135609 201 18334865965940160032
11961588 58 17675926486449412538
12236239 1 18334858372184785867
12592606 108 10375864165983319401
12596602 18 18413105086846781379
12633257 1 16917060015447412410
12925494 130 18196091032726235048
13533116 47 18200589319404895482
13685833 64 8214141863239711285
13782708 43 15195566792609450787
13811026 1 17775565321849962321
13914758 101 15769780165411684197
14347332 77 8718563687712650050
14347424 109 14907897154903936380
1454969 45 18113904871059371519
14856354 85 17603308133856612647
15064986 266 6771595836097098258
15082195 135 16008745776155955624
15131766 46 15552166889536926870
15183329 4 8790881848868683595
15475509 35 16056050168324195138
1577012 14 18114456868524701105
15840311 113 18411701001776230023
16090146 7 15358248282719424903
16994733 274 17967529103956309497
20105231 36 13840266966930501253
20157964 124 18411417336556355266
20511986 3 17917716825224756715
20775438 99 8573273070231157700
21033648 29 17060339656200730255
21150785 3 16298389050329129171
21344244 181 6338958875313067676
21403212 168 17918283047098927008
21859007 373 16916518059167456237
22224240 67 17989209239667231723
22956985 138 13540809601621839320
23559900 14 14763765556095912003
23569914 152 7778183136083842121
249057 25 18115303526389311099
25269216 80 16299247704348984685
2838139 119 18409447024509362985
335352 9 18412257360105176454
3472631 163 18187362108659846982
34797466 226 17458058278843251727
397830 11 18131059408088832435
3986486 107 17969477409097838044
4112364 45 17241631489092086810
4258327 124 18041554715827150932
4325135 7 18333452054253408623
4340502 62 18060699494121212058
5104073 3 17773884266654071569
550186 72 18260826055628240137
6004065 56 18272367530310436221

> <PUBCHEM_SHAPE_MULTIPOLES>
635.07
20.38
2.53
1.64
20.03
0.29
0.12
10.5
-1.57
-2.77
-0.34
0.54
0.02
0.11

> <PUBCHEM_SHAPE_SELFOVERLAP>
1312.383

> <PUBCHEM_SHAPE_VOLUME>
362.2

> <PUBCHEM_COORDINATE_TYPE>
2
5
10

$$$$

