5284517
  -OEChem-07051213102D

 63 64  0     1  0  0  0  0  0999 V2000
    5.1350   -2.1550    0.0000 O   0  0  0  0  0  0  0  0  0  0  0  0
    8.5991   -0.1550    0.0000 O   0  0  0  0  0  0  0  0  0  0  0  0
    5.1350   -0.1550    0.0000 O   0  0  0  0  0  0  0  0  0  0  0  0
    4.2690   -0.6550    0.0000 O   0  0  0  0  0  0  0  0  0  0  0  0
    8.5991   -2.1550    0.0000 O   0  0  0  0  0  0  0  0  0  0  0  0
    8.5991    0.8450    0.0000 O   0  0  0  0  0  0  0  0  0  0  0  0
    6.8671    0.8450    0.0000 N   0  0  0  0  0  0  0  0  0  0  0  0
    6.8671   -3.1550    0.0000 N   0  0  0  0  0  0  0  0  0  0  0  0
    3.4030   -3.1550    0.0000 N   0  0  0  0  0  0  0  0  0  0  0  0
    2.5369    1.3450    0.0000 N   0  0  0  0  0  0  0  0  0  0  0  0
    8.5991    2.8450    0.0000 N   0  0  0  0  0  0  0  0  0  0  0  0
    6.0010   -1.6550    0.0000 C   0  0  1  0  0  0  0  0  0  0  0  0
    6.8671   -0.1550    0.0000 C   0  0  1  0  0  0  0  0  0  0  0  0
    6.0010   -0.6550    0.0000 C   0  0  1  0  0  0  0  0  0  0  0  0
    6.8671   -2.1550    0.0000 C   0  0  2  0  0  0  0  0  0  0  0  0
    7.7331   -0.6550    0.0000 C   0  0  2  0  0  0  0  0  0  0  0  0
    7.7331   -1.6550    0.0000 C   0  0  1  0  0  0  0  0  0  0  0  0
    4.2690   -1.6550    0.0000 C   0  0  1  0  0  0  0  0  0  0  0  0
    3.4030   -2.1550    0.0000 C   0  0  1  0  0  0  0  0  0  0  0  0
    3.4030   -0.1550    0.0000 C   0  0  1  0  0  0  0  0  0  0  0  0
    2.5369   -1.6550    0.0000 C   0  0  0  0  0  0  0  0  0  0  0  0
    2.5369   -0.6550    0.0000 C   0  0  0  0  0  0  0  0  0  0  0  0
    3.4030    0.8450    0.0000 C   0  0  2  0  0  0  0  0  0  0  0  0
    6.0010    1.3450    0.0000 C   0  0  0  0  0  0  0  0  0  0  0  0
    7.7331    1.3450    0.0000 C   0  0  0  0  0  0  0  0  0  0  0  0
    9.4651   -0.6550    0.0000 C   0  0  0  0  0  0  0  0  0  0  0  0
    4.2690    1.3450    0.0000 C   0  0  0  0  0  0  0  0  0  0  0  0
    7.7331    2.3450    0.0000 C   0  0  0  0  0  0  0  0  0  0  0  0
    5.4641   -1.3450    0.0000 H   0  0  0  0  0  0  0  0  0  0  0  0
    6.3301    0.1550    0.0000 H   0  0  0  0  0  0  0  0  0  0  0  0
    5.4641   -0.9650    0.0000 H   0  0  0  0  0  0  0  0  0  0  0  0
    6.3301   -2.4650    0.0000 H   0  0  0  0  0  0  0  0  0  0  0  0
    7.7331   -0.0350    0.0000 H   0  0  0  0  0  0  0  0  0  0  0  0
    7.7331   -2.2750    0.0000 H   0  0  0  0  0  0  0  0  0  0  0  0
    4.2690   -2.2750    0.0000 H   0  0  0  0  0  0  0  0  0  0  0  0
    3.9399   -2.4650    0.0000 H   0  0  0  0  0  0  0  0  0  0  0  0
    4.1391    0.2700    0.0000 H   0  0  0  0  0  0  0  0  0  0  0  0
    1.9264   -1.5473    0.0000 H   0  0  0  0  0  0  0  0  0  0  0  0
    2.3249   -2.2376    0.0000 H   0  0  0  0  0  0  0  0  0  0  0  0
    7.4040   -3.4650    0.0000 H   0  0  0  0  0  0  0  0  0  0  0  0
    6.3301   -3.4650    0.0000 H   0  0  0  0  0  0  0  0  0  0  0  0
    2.3249   -0.0724    0.0000 H   0  0  0  0  0  0  0  0  0  0  0  0
    1.9264   -0.7627    0.0000 H   0  0  0  0  0  0  0  0  0  0  0  0
    5.1350    0.4650    0.0000 H   0  0  0  0  0  0  0  0  0  0  0  0
    8.5991   -2.7750    0.0000 H   0  0  0  0  0  0  0  0  0  0  0  0
    3.4030    1.4650    0.0000 H   0  0  0  0  0  0  0  0  0  0  0  0
    6.3110    1.8819    0.0000 H   0  0  0  0  0  0  0  0  0  0  0  0
    5.4641    1.6550    0.0000 H   0  0  0  0  0  0  0  0  0  0  0  0
    5.6910    0.8081    0.0000 H   0  0  0  0  0  0  0  0  0  0  0  0
    2.8660   -3.4650    0.0000 H   0  0  0  0  0  0  0  0  0  0  0  0
    3.9399   -3.4650    0.0000 H   0  0  0  0  0  0  0  0  0  0  0  0
    9.1551   -1.1919    0.0000 H   0  0  0  0  0  0  0  0  0  0  0  0
   10.0021   -0.9650    0.0000 H   0  0  0  0  0  0  0  0  0  0  0  0
    9.7751   -0.1181    0.0000 H   0  0  0  0  0  0  0  0  0  0  0  0
    4.5790    0.8081    0.0000 H   0  0  0  0  0  0  0  0  0  0  0  0
    4.8059    1.6550    0.0000 H   0  0  0  0  0  0  0  0  0  0  0  0
    3.9590    1.8819    0.0000 H   0  0  0  0  0  0  0  0  0  0  0  0
    7.5210    2.9276    0.0000 H   0  0  0  0  0  0  0  0  0  0  0  0
    7.1225    2.2373    0.0000 H   0  0  0  0  0  0  0  0  0  0  0  0
    2.5369    1.9650    0.0000 H   0  0  0  0  0  0  0  0  0  0  0  0
    2.0000    1.0350    0.0000 H   0  0  0  0  0  0  0  0  0  0  0  0
    8.5991    3.4650    0.0000 H   0  0  0  0  0  0  0  0  0  0  0  0
    9.1360    2.5350    0.0000 H   0  0  0  0  0  0  0  0  0  0  0  0
 12  1  1  1  0  0  0
 18  1  1  6  0  0  0
 16  2  1  1  0  0  0
  2 26  1  0  0  0  0
 14  3  1  6  0  0  0
  3 44  1  0  0  0  0
  4 18  1  0  0  0  0
  4 20  1  0  0  0  0
 17  5  1  1  0  0  0
  5 45  1  0  0  0  0
  6 25  2  0  0  0  0
 13  7  1  6  0  0  0
  7 24  1  0  0  0  0
  7 25  1  0  0  0  0
 15  8  1  6  0  0  0
  8 40  1  0  0  0  0
  8 41  1  0  0  0  0
 19  9  1  6  0  0  0
  9 50  1  0  0  0  0
  9 51  1  0  0  0  0
 23 10  1  1  0  0  0
 10 60  1  0  0  0  0
 10 61  1  0  0  0  0
 11 28  1  0  0  0  0
 11 62  1  0  0  0  0
 11 63  1  0  0  0  0
 12 14  1  0  0  0  0
 12 15  1  0  0  0  0
 12 29  1  0  0  0  0
 13 14  1  0  0  0  0
 13 16  1  0  0  0  0
 13 30  1  0  0  0  0
 14 31  1  0  0  0  0
 15 17  1  0  0  0  0
 15 32  1  0  0  0  0
 16 17  1  0  0  0  0
 16 33  1  0  0  0  0
 17 34  1  0  0  0  0
 18 19  1  0  0  0  0
 18 35  1  0  0  0  0
 19 21  1  0  0  0  0
 19 36  1  0  0  0  0
 20 22  1  0  0  0  0
 20 23  1  0  0  0  0
 20 37  1  6  0  0  0
 21 22  1  0  0  0  0
 21 38  1  0  0  0  0
 21 39  1  0  0  0  0
 22 42  1  0  0  0  0
 22 43  1  0  0  0  0
 23 27  1  0  0  0  0
 23 46  1  0  0  0  0
 24 47  1  0  0  0  0
 24 48  1  0  0  0  0
 24 49  1  0  0  0  0
 25 28  1  0  0  0  0
 26 52  1  0  0  0  0
 26 53  1  0  0  0  0
 26 54  1  0  0  0  0
 27 55  1  0  0  0  0
 27 56  1  0  0  0  0
 27 57  1  0  0  0  0
 28 58  1  0  0  0  0
 28 59  1  0  0  0  0
M  END
> <PUBCHEM_COMPOUND_CID>
5284517

> <PUBCHEM_COMPOUND_CANONICALIZED>
1

> <PUBCHEM_CACTVS_COMPLEXITY>
528

> <PUBCHEM_CACTVS_HBOND_ACCEPTOR>
10

> <PUBCHEM_CACTVS_HBOND_DONOR>
6

> <PUBCHEM_CACTVS_ROTATABLE_BOND>
6

> <PUBCHEM_CACTVS_SUBSKEYS>
AAADcfB7uAAAAAAAAAAAAAAAAAAAAAAAAAA0QAAAAAAAAAAAAAAAHgAQCAAACDzxgAcCCANABgAIAAEQEAAAAAAAAAAAAICIAAATUAIAgAA3QAAHFgCXAAHw8C8AAAAAAAAAAAACAQAUAACgAAAAAAAAAA==

> <PUBCHEM_IUPAC_OPENEYE_NAME>
2-amino-N-[(1S,2R,3R,4S,5S,6R)-4-amino-3-[(2R,3R,6S)-3-amino-6-[(1S)-1-aminoethyl]tetrahydropyran-2-yl]oxy-2,5-dihydroxy-6-methoxy-cyclohexyl]-N-methyl-acetamide

> <PUBCHEM_IUPAC_CAS_NAME>
2-amino-N-[(1S,2R,3R,4S,5S,6R)-4-amino-3-[[(2R,3R,6S)-3-amino-6-[(1S)-1-aminoethyl]-2-oxanyl]oxy]-2,5-dihydroxy-6-methoxycyclohexyl]-N-methylacetamide

> <PUBCHEM_IUPAC_NAME>
2-amino-N-[(1S,2R,3R,4S,5S,6R)-4-amino-3-[(2R,3R,6S)-3-amino-6-[(1S)-1-aminoethyl]oxan-2-yl]oxy-2,5-dihydroxy-6-methoxycyclohexyl]-N-methylacetamide

> <PUBCHEM_IUPAC_SYSTEMATIC_NAME>
2-azanyl-N-[(1S,2R,3S,4S,5R,6R)-4-azanyl-5-[(2R,3R,6S)-3-azanyl-6-[(1S)-1-azanylethyl]oxan-2-yl]oxy-2-methoxy-3,6-bis(oxidanyl)cyclohexyl]-N-methyl-ethanamide

> <PUBCHEM_IUPAC_TRADITIONAL_NAME>
2-amino-N-[(1S,2R,3R,4S,5S,6R)-4-amino-3-[(2R,3R,6S)-3-amino-6-[(1S)-1-aminoethyl]tetrahydropyran-2-yl]oxy-2,5-dihydroxy-6-methoxy-cyclohexyl]-N-methyl-acetamide

> <PUBCHEM_IUPAC_INCHI>
InChI=1S/C17H35N5O6/c1-7(19)9-5-4-8(20)17(27-9)28-15-11(21)13(24)16(26-3)12(14(15)25)22(2)10(23)6-18/h7-9,11-17,24-25H,4-6,18-21H2,1-3H3/t7-,8+,9-,11-,12-,13-,14+,15+,16+,17+/m0/s1

> <PUBCHEM_IUPAC_INCHIKEY>
BIDUPMYXGFNAEJ-APGVDKLISA-N

> <PUBCHEM_XLOGP3_AA>
-4.4

> <PUBCHEM_EXACT_MASS>
405.258734

> <PUBCHEM_MOLECULAR_FORMULA>
C17H35N5O6

> <PUBCHEM_MOLECULAR_WEIGHT>
405.4897

> <PUBCHEM_OPENEYE_CAN_SMILES>
CC(C1CCC(C(O1)OC2C(C(C(C(C2O)N(C)C(=O)CN)OC)O)N)N)N

> <PUBCHEM_OPENEYE_ISO_SMILES>
C[C@@H]([C@@H]1CC[C@H]([C@H](O1)O[C@@H]2[C@H]([C@@H]([C@@H]([C@H]([C@H]2O)N(C)C(=O)CN)OC)O)N)N)N

> <PUBCHEM_CACTVS_TPSA>
193

> <PUBCHEM_MONOISOTOPIC_WEIGHT>
405.258734

> <PUBCHEM_TOTAL_CHARGE>
0

> <PUBCHEM_HEAVY_ATOM_COUNT>
28

> <PUBCHEM_ATOM_DEF_STEREO_COUNT>
10

> <PUBCHEM_ATOM_UDEF_STEREO_COUNT>
0

> <PUBCHEM_BOND_DEF_STEREO_COUNT>
0

> <PUBCHEM_BOND_UDEF_STEREO_COUNT>
0

> <PUBCHEM_ISOTOPIC_ATOM_COUNT>
0

> <PUBCHEM_COMPONENT_COUNT>
1

> <PUBCHEM_CACTVS_TAUTO_COUNT>
1

> <PUBCHEM_COORDINATE_TYPE>
1
5
255

> <PUBCHEM_BONDANNOTATIONS>
12  1  5
18  1  6
23  10  5
16  2  5
20  37  6
14  3  6
17  5  5
13  7  6
15  8  6
19  9  6

$$$$

