5280389
  -OEChem-07051212453D

 36 40  0     1  0  0  0  0  0999 V2000
   -3.7672    0.7922    0.5227 O   0  0  0  0  0  0  0  0  0  0  0  0
   -4.8136   -1.0846   -0.5198 O   0  0  0  0  0  0  0  0  0  0  0  0
    0.3311   -1.4347    0.2582 O   0  0  0  0  0  0  0  0  0  0  0  0
    0.1995    3.4311    0.1020 O   0  0  0  0  0  0  0  0  0  0  0  0
    2.4202    2.0708   -0.0419 O   0  0  0  0  0  0  0  0  0  0  0  0
    4.6602    0.7323   -0.1922 O   0  0  0  0  0  0  0  0  0  0  0  0
   -2.6293   -1.3832    0.5062 C   0  0  2  0  0  0  0  0  0  0  0  0
   -3.9819   -0.6396    0.5782 C   0  0  1  0  0  0  0  0  0  0  0  0
   -1.6984   -0.2376    0.3816 C   0  0  0  0  0  0  0  0  0  0  0  0
   -2.4121    0.9513    0.4060 C   0  0  0  0  0  0  0  0  0  0  0  0
   -0.3164   -0.2278    0.2671 C   0  0  0  0  0  0  0  0  0  0  0  0
   -2.8101   -2.2049   -0.7091 C   0  0  0  0  0  0  0  0  0  0  0  0
    0.3288    1.0074    0.1710 C   0  0  0  0  0  0  0  0  0  0  0  0
   -1.7896    2.1828    0.3130 C   0  0  0  0  0  0  0  0  0  0  0  0
   -0.3993    2.2097    0.1932 C   0  0  0  0  0  0  0  0  0  0  0  0
   -4.0269   -1.9906   -1.1939 C   0  0  0  0  0  0  0  0  0  0  0  0
    1.7950    1.0246    0.0467 C   0  0  0  0  0  0  0  0  0  0  0  0
    2.4714   -0.2817    0.0318 C   0  0  0  0  0  0  0  0  0  0  0  0
    1.6985   -1.4377    0.1382 C   0  0  0  0  0  0  0  0  0  0  0  0
    3.8610   -0.3657   -0.0871 C   0  0  0  0  0  0  0  0  0  0  0  0
    2.3197   -2.6883    0.1261 C   0  0  0  0  0  0  0  0  0  0  0  0
    4.4759   -1.6178   -0.0989 C   0  0  0  0  0  0  0  0  0  0  0  0
    3.7071   -2.7770    0.0075 C   0  0  0  0  0  0  0  0  0  0  0  0
    0.3763    3.9690   -1.2066 C   0  0  0  0  0  0  0  0  0  0  0  0
   -2.4439   -1.9781    1.4056 H   0  0  0  0  0  0  0  0  0  0  0  0
   -4.5111   -0.8655    1.5124 H   0  0  0  0  0  0  0  0  0  0  0  0
   -2.0828   -2.8849   -1.1253 H   0  0  0  0  0  0  0  0  0  0  0  0
   -2.3683    3.1006    0.3329 H   0  0  0  0  0  0  0  0  0  0  0  0
   -4.4859   -2.4327   -2.0600 H   0  0  0  0  0  0  0  0  0  0  0  0
    1.7299   -3.5974    0.2082 H   0  0  0  0  0  0  0  0  0  0  0  0
    5.5553   -1.7086   -0.1900 H   0  0  0  0  0  0  0  0  0  0  0  0
    4.1892   -3.7504   -0.0019 H   0  0  0  0  0  0  0  0  0  0  0  0
   -0.5846    4.3168   -1.5984 H   0  0  0  0  0  0  0  0  0  0  0  0
    0.8086    3.2314   -1.8905 H   0  0  0  0  0  0  0  0  0  0  0  0
    1.0552    4.8234   -1.1376 H   0  0  0  0  0  0  0  0  0  0  0  0
    5.5887    0.4521   -0.2640 H   0  0  0  0  0  0  0  0  0  0  0  0
  1  8  1  0  0  0  0
  1 10  1  0  0  0  0
  2  8  1  0  0  0  0
  2 16  1  0  0  0  0
  3 11  1  0  0  0  0
  3 19  1  0  0  0  0
  4 15  1  0  0  0  0
  4 24  1  0  0  0  0
  5 17  2  0  0  0  0
  6 20  1  0  0  0  0
  6 36  1  0  0  0  0
  7  8  1  0  0  0  0
  7  9  1  0  0  0  0
  7 12  1  0  0  0  0
  7 25  1  0  0  0  0
  8 26  1  0  0  0  0
  9 10  1  0  0  0  0
  9 11  2  0  0  0  0
 10 14  2  0  0  0  0
 11 13  1  0  0  0  0
 12 16  2  0  0  0  0
 12 27  1  0  0  0  0
 13 15  2  0  0  0  0
 13 17  1  0  0  0  0
 14 15  1  0  0  0  0
 14 28  1  0  0  0  0
 16 29  1  0  0  0  0
 17 18  1  0  0  0  0
 18 19  1  0  0  0  0
 18 20  2  0  0  0  0
 19 21  2  0  0  0  0
 20 22  1  0  0  0  0
 21 23  1  0  0  0  0
 21 30  1  0  0  0  0
 22 23  2  0  0  0  0
 22 31  1  0  0  0  0
 23 32  1  0  0  0  0
 24 33  1  0  0  0  0
 24 34  1  0  0  0  0
 24 35  1  0  0  0  0
M  END
> <PUBCHEM_COMPOUND_CID>
5280389

> <PUBCHEM_CONFORMER_RMSD>
0.6

> <PUBCHEM_CONFORMER_DIVERSEORDER>
1

> <PUBCHEM_MMFF94_PARTIAL_CHARGES>
31
1 -0.36
10 0.08
11 0.08
12 -0.29
13 0.09
14 -0.15
15 0.08
16 -0.07
17 0.4
18 0.09
19 0.08
2 -0.36
20 0.08
21 -0.15
22 -0.15
23 -0.15
24 0.28
27 0.15
28 0.15
29 0.15
3 -0.17
30 0.15
31 0.15
32 0.15
36 0.45
4 -0.36
5 -0.57
6 -0.53
7 0.28
8 0.56
9 -0.14

> <PUBCHEM_EFFECTIVE_ROTOR_COUNT>
1.4

> <PUBCHEM_PHARMACOPHORE_FEATURES>
11
1 1 acceptor
1 2 acceptor
1 3 acceptor
1 4 acceptor
1 5 acceptor
1 6 donor
5 1 7 8 9 10 rings
5 2 7 8 12 16 rings
6 18 19 20 21 22 23 rings
6 3 11 13 17 18 19 rings
6 9 10 11 13 14 15 rings

> <PUBCHEM_HEAVY_ATOM_COUNT>
24

> <PUBCHEM_ATOM_DEF_STEREO_COUNT>
2

> <PUBCHEM_ATOM_UDEF_STEREO_COUNT>
0

> <PUBCHEM_BOND_DEF_STEREO_COUNT>
0

> <PUBCHEM_BOND_UDEF_STEREO_COUNT>
0

> <PUBCHEM_ISOTOPIC_ATOM_COUNT>
0

> <PUBCHEM_COMPONENT_COUNT>
1

> <PUBCHEM_CACTVS_TAUTO_COUNT>
5

> <PUBCHEM_CONFORMER_ID>
0050928500000001

> <PUBCHEM_MMFF94_ENERGY>
89.4965

> <PUBCHEM_FEATURE_SELFOVERLAP>
56.54

> <PUBCHEM_SHAPE_FINGERPRINT>
10319926 262 17833575731705601162
10411042 1 18411418444494608290
10616163 171 18263360459345655158
10622 236 17751665177283974935
10967382 1 18339075995598683434
11045515 52 18272374191435213501
11135609 187 18053101726828836860
11578080 2 17416699135863820748
12403259 226 18336833108243207016
12553582 1 18411698789894842251
13004483 165 18339370784926766227
13140716 1 18338227297065348489
13544653 18 18341888589049692163
13690498 29 18049423032185610078
138480 1 14520309882612224624
14223421 5 18265336277893570648
14576447 43 18262243205176246607
14790565 3 17979346465758600308
15196674 1 18410008874945693546
15352361 1 18409449197704792499
16087824 20 18123188168061321141
16728300 4 15182622603172434026
16945 1 18123753316156237512
17349148 13 17988643030044720458
17357779 13 18201170900614769151
17492 89 18265053522959427919
1813 80 17846211172215696685
19141452 34 18260827163475451161
200 152 18261115149543714415
20291156 8 18408604772827258659
21267235 1 18408876326762156307
21634736 98 18191589648884842119
21641784 216 18058993086967314996
221357 26 18341347634478297615
221490 88 18124873456770710907
2255824 54 18123749759870646749
23114952 82 17985558749568101997
2334 1 18411134723223114961
23402539 116 18409453608699489574
23559900 14 18265341611958330241
2871803 45 18412829092317177922
3091708 16 9283290472903808880
335352 9 18122341551768505109
34934 24 18339926012576208859
352729 6 16898774385141820248
46194498 28 17772206219242927031
463206 1 18339077094820797363
5104073 3 18336825393943964970
7164475 11 18269273633406920094
7364860 26 18193275200189221089
9709674 26 18338789108921663914
9981440 41 17330278264665788713

> <PUBCHEM_SHAPE_MULTIPOLES>
458.69
8.32
3.91
0.82
0.61
2.85
-0.15
-5.87
-0.68
0.66
-0.99
-0.49
0.04
-0.82

> <PUBCHEM_SHAPE_SELFOVERLAP>
1060.762

> <PUBCHEM_SHAPE_VOLUME>
234.3

> <PUBCHEM_COORDINATE_TYPE>
2
5
10

$$$$

