443612
  -OEChem-07051213022D

 42 45  0     1  0  0  0  0  0999 V2000
    3.1185    0.2231    0.0000 O   0  0  0  0  0  0  0  0  0  0  0  0
    5.7035    1.3953    0.0000 O   0  0  0  0  0  0  0  0  0  0  0  0
    2.0588    0.4714    0.0000 O   0  0  0  0  0  0  0  0  0  0  0  0
    3.5969    2.3612    0.0000 O   0  0  0  0  0  0  0  0  0  0  0  0
    2.5124   -1.9245    0.0000 O   0  0  0  0  0  0  0  0  0  0  0  0
    2.0000   -0.8786    0.0000 O   0  0  0  0  0  0  0  0  0  0  0  0
    7.0862    0.4714    0.0000 O   0  0  0  0  0  0  0  0  0  0  0  0
    4.7796   -0.8352    0.0000 C   0  0  2  0  0  0  0  0  0  0  0  0
    3.8558   -0.4525    0.0000 C   0  0  2  0  0  0  0  0  0  0  0  0
    3.4731    0.4714    0.0000 C   0  0  1  0  0  0  0  0  0  0  0  0
    4.6991   -1.8260    0.0000 C   0  0  1  0  0  0  0  0  0  0  0  0
    3.8558    1.3953    0.0000 C   0  0  2  0  0  0  0  0  0  0  0  0
    4.4136    0.4714    0.0000 C   0  0  0  0  0  0  0  0  0  0  0  0
    3.2121   -1.2101    0.0000 C   0  0  1  0  0  0  0  0  0  0  0  0
    4.7796    1.7780    0.0000 C   0  0  1  0  0  0  0  0  0  0  0  0
    3.7322   -2.0572    0.0000 C   0  0  0  0  0  0  0  0  0  0  0  0
    5.7035   -0.4525    0.0000 C   0  0  0  0  0  0  0  0  0  0  0  0
    2.7660    1.1785    0.0000 C   0  0  0  0  0  0  0  0  0  0  0  0
    2.7660   -0.2357    0.0000 C   0  0  0  0  0  0  0  0  0  0  0  0
    5.4583   -2.4767    0.0000 C   0  0  0  0  0  0  0  0  0  0  0  0
    2.9494    1.8179    0.0000 C   0  0  0  0  0  0  0  0  0  0  0  0
    6.0862    0.4714    0.0000 C   0  0  0  0  0  0  0  0  0  0  0  0
    4.5535   -2.4287    0.0000 H   0  0  0  0  0  0  0  0  0  0  0  0
    3.9071    0.8289    0.0000 H   0  0  0  0  0  0  0  0  0  0  0  0
    5.0336    0.4714    0.0000 H   0  0  0  0  0  0  0  0  0  0  0  0
    2.7541   -0.7922    0.0000 H   0  0  0  0  0  0  0  0  0  0  0  0
    4.7796    2.6280    0.0000 H   0  0  0  0  0  0  0  0  0  0  0  0
    3.1727   -2.3243    0.0000 H   0  0  0  0  0  0  0  0  0  0  0  0
    3.9390   -2.6417    0.0000 H   0  0  0  0  0  0  0  0  0  0  0  0
    5.7844   -1.0672    0.0000 H   0  0  0  0  0  0  0  0  0  0  0  0
    6.3182   -0.5334    0.0000 H   0  0  0  0  0  0  0  0  0  0  0  0
    3.2044    1.6169    0.0000 H   0  0  0  0  0  0  0  0  0  0  0  0
    2.3276    1.6169    0.0000 H   0  0  0  0  0  0  0  0  0  0  0  0
    5.0549   -2.9475    0.0000 H   0  0  0  0  0  0  0  0  0  0  0  0
    5.9291   -2.8802    0.0000 H   0  0  0  0  0  0  0  0  0  0  0  0
    5.8618   -2.0060    0.0000 H   0  0  0  0  0  0  0  0  0  0  0  0
    2.5956    0.5563    0.0000 H   0  0  0  0  0  0  0  0  0  0  0  0
    3.2115    2.3798    0.0000 H   0  0  0  0  0  0  0  0  0  0  0  0
    2.3875    2.0799    0.0000 H   0  0  0  0  0  0  0  0  0  0  0  0
    2.6874    1.2560    0.0000 H   0  0  0  0  0  0  0  0  0  0  0  0
    2.9980    2.5217    0.0000 H   0  0  0  0  0  0  0  0  0  0  0  0
    2.6791   -2.5217    0.0000 H   0  0  0  0  0  0  0  0  0  0  0  0
  9  1  1  1  0  0  0
  1 37  1  0  0  0  0
  2 15  1  0  0  0  0
  2 22  1  0  0  0  0
  3 18  1  0  0  0  0
  3 19  1  0  0  0  0
 12  4  1  1  0  0  0
  4 41  1  0  0  0  0
 14  5  1  1  0  0  0
  5 42  1  0  0  0  0
  6 19  2  0  0  0  0
  7 22  2  0  0  0  0
  8  9  1  0  0  0  0
  8 11  1  0  0  0  0
  8 13  1  1  0  0  0
  8 17  1  0  0  0  0
  9 10  1  0  0  0  0
  9 14  1  0  0  0  0
 10 12  1  0  0  0  0
 10 18  1  6  0  0  0
 10 19  1  0  0  0  0
 11 16  1  0  0  0  0
 11 20  1  6  0  0  0
 11 23  1  0  0  0  0
 12 15  1  0  0  0  0
 12 21  1  0  0  0  0
 13 15  1  0  0  0  0
 13 24  1  0  0  0  0
 13 25  1  0  0  0  0
 14 16  1  0  0  0  0
 14 26  1  0  0  0  0
 15 27  1  1  0  0  0
 16 28  1  0  0  0  0
 16 29  1  0  0  0  0
 17 22  1  0  0  0  0
 17 30  1  0  0  0  0
 17 31  1  0  0  0  0
 18 32  1  0  0  0  0
 18 33  1  0  0  0  0
 20 34  1  0  0  0  0
 20 35  1  0  0  0  0
 20 36  1  0  0  0  0
 21 38  1  0  0  0  0
 21 39  1  0  0  0  0
 21 40  1  0  0  0  0
M  END
> <PUBCHEM_COMPOUND_CID>
443612

> <PUBCHEM_COMPOUND_CANONICALIZED>
1

> <PUBCHEM_CACTVS_COMPLEXITY>
590

> <PUBCHEM_CACTVS_HBOND_ACCEPTOR>
7

> <PUBCHEM_CACTVS_HBOND_DONOR>
3

> <PUBCHEM_CACTVS_ROTATABLE_BOND>
0

> <PUBCHEM_CACTVS_SUBSKEYS>
AAADceBwOAAAAAAAAAAAAAAAAABIAYAAAAA0QAAAAAASAGAAAAAAGgAACAAAD1SggAICCAAABgAIAACQCAAAAAAAAAAAAAEAAAABEBYAAAACQAAFIAADAAHK7PzPgAAAAAAAAADCAAYQADCAAYAADCAAAA==

> <PUBCHEM_IUPAC_INCHI>
InChI=1S/C15H20O7/c1-7-3-8(16)15(20)13(7)4-9(22-10(17)5-13)12(2,19)14(15)6-21-11(14)18/h7-9,16,19-20H,3-6H2,1-2H3/t7-,8-,9-,12+,13-,14+,15-/m1/s1

> <PUBCHEM_IUPAC_INCHIKEY>
LHLMFHLJVCWKPV-RHVHFUDDSA-N

> <PUBCHEM_XLOGP3_AA>
-1.3

> <PUBCHEM_EXACT_MASS>
312.120903

> <PUBCHEM_MOLECULAR_FORMULA>
C15H20O7

> <PUBCHEM_MOLECULAR_WEIGHT>
312.3151

> <PUBCHEM_OPENEYE_CAN_SMILES>
CC1CC(C2(C13CC(C(C24COC4=O)(C)O)OC(=O)C3)O)O

> <PUBCHEM_OPENEYE_ISO_SMILES>
C[C@@H]1C[C@H]([C@]2([C@@]13C[C@H]([C@]([C@@]24COC4=O)(C)O)OC(=O)C3)O)O

> <PUBCHEM_CACTVS_TPSA>
113

> <PUBCHEM_MONOISOTOPIC_WEIGHT>
312.120903

> <PUBCHEM_TOTAL_CHARGE>
0

> <PUBCHEM_HEAVY_ATOM_COUNT>
22

> <PUBCHEM_ATOM_DEF_STEREO_COUNT>
7

> <PUBCHEM_ATOM_UDEF_STEREO_COUNT>
0

> <PUBCHEM_BOND_DEF_STEREO_COUNT>
0

> <PUBCHEM_BOND_UDEF_STEREO_COUNT>
0

> <PUBCHEM_ISOTOPIC_ATOM_COUNT>
0

> <PUBCHEM_COMPONENT_COUNT>
1

> <PUBCHEM_CACTVS_TAUTO_COUNT>
2

> <PUBCHEM_COORDINATE_TYPE>
1
5
255

> <PUBCHEM_BONDANNOTATIONS>
9  1  5
10  18  6
11  20  6
15  27  5
12  4  5
14  5  5
8  13  5

$$$$

