17396648
  -OEChem-06241222573D

 41 43  0     1  0  0  0  0  0999 V2000
    1.2116   -0.8446    1.3820 F   0  0  0  0  0  0  0  0  0  0  0  0
    6.2903   -1.0485   -0.6377 F   0  0  0  0  0  0  0  0  0  0  0  0
    0.7232    0.1989   -2.1026 O   0  0  0  0  0  0  0  0  0  0  0  0
   -1.7647   -1.4611   -0.9930 O   0  0  0  0  0  0  0  0  0  0  0  0
   -0.7117    2.2894    1.7412 O   0  0  0  0  0  0  0  0  0  0  0  0
   -0.3686    1.1921   -0.2947 N   0  0  0  0  0  0  0  0  0  0  0  0
    1.4090    1.8815    0.8605 N   0  0  0  0  0  0  0  0  0  0  0  0
    2.0013    1.2862   -0.3265 C   0  0  2  0  0  0  0  0  0  0  0  0
    0.7263    0.8091   -1.0403 C   0  0  0  0  0  0  0  0  0  0  0  0
    2.9127    0.1225    0.0376 C   0  0  0  0  0  0  0  0  0  0  0  0
   -1.7489    0.9341   -0.6534 C   0  0  0  0  0  0  0  0  0  0  0  0
    2.6204    2.3960   -1.1860 C   0  0  0  0  0  0  0  0  0  0  0  0
    0.0138    1.8397    0.8637 C   0  0  0  0  0  0  0  0  0  0  0  0
   -2.2176   -0.4218   -0.1252 C   0  0  1  0  0  0  0  0  0  0  0  0
    2.4551   -0.8878    0.8834 C   0  0  0  0  0  0  0  0  0  0  0  0
    4.2082    0.0682   -0.4764 C   0  0  0  0  0  0  0  0  0  0  0  0
   -3.7241   -0.4969   -0.0346 C   0  0  0  0  0  0  0  0  0  0  0  0
    5.0461   -0.9965   -0.1448 C   0  0  0  0  0  0  0  0  0  0  0  0
    3.2930   -1.9525    1.2151 C   0  0  0  0  0  0  0  0  0  0  0  0
    4.5886   -2.0069    0.7010 C   0  0  0  0  0  0  0  0  0  0  0  0
   -4.3724   -0.1077    1.1376 C   0  0  0  0  0  0  0  0  0  0  0  0
   -4.4664   -0.9556   -1.1227 C   0  0  0  0  0  0  0  0  0  0  0  0
   -5.7630   -0.1771    1.2214 C   0  0  0  0  0  0  0  0  0  0  0  0
   -5.8570   -1.0250   -1.0387 C   0  0  0  0  0  0  0  0  0  0  0  0
   -6.5054   -0.6357    0.1333 C   0  0  0  0  0  0  0  0  0  0  0  0
    1.9523    2.2978    1.6106 H   0  0  0  0  0  0  0  0  0  0  0  0
   -1.8298    0.9680   -1.7464 H   0  0  0  0  0  0  0  0  0  0  0  0
   -2.3548    1.7451   -0.2327 H   0  0  0  0  0  0  0  0  0  0  0  0
    2.9615    2.0194   -2.1572 H   0  0  0  0  0  0  0  0  0  0  0  0
    3.4666    2.8725   -0.6776 H   0  0  0  0  0  0  0  0  0  0  0  0
    1.8904    3.1880   -1.3970 H   0  0  0  0  0  0  0  0  0  0  0  0
   -1.7848   -0.6240    0.8626 H   0  0  0  0  0  0  0  0  0  0  0  0
    4.6078    0.8297   -1.1373 H   0  0  0  0  0  0  0  0  0  0  0  0
    2.9364   -2.7390    1.8734 H   0  0  0  0  0  0  0  0  0  0  0  0
   -2.0375   -2.3115   -0.6070 H   0  0  0  0  0  0  0  0  0  0  0  0
    5.2412   -2.8356    0.9591 H   0  0  0  0  0  0  0  0  0  0  0  0
   -3.8046    0.2533    1.9910 H   0  0  0  0  0  0  0  0  0  0  0  0
   -3.9889   -1.2516   -2.0527 H   0  0  0  0  0  0  0  0  0  0  0  0
   -6.2679    0.1268    2.1337 H   0  0  0  0  0  0  0  0  0  0  0  0
   -6.4356   -1.3789   -1.8871 H   0  0  0  0  0  0  0  0  0  0  0  0
   -7.5882   -0.6887    0.1982 H   0  0  0  0  0  0  0  0  0  0  0  0
  1 15  1  0  0  0  0
  2 18  1  0  0  0  0
  3  9  2  0  0  0  0
  4 14  1  0  0  0  0
  4 35  1  0  0  0  0
  5 13  2  0  0  0  0
  6  9  1  0  0  0  0
  6 11  1  0  0  0  0
  6 13  1  0  0  0  0
  7  8  1  0  0  0  0
  7 13  1  0  0  0  0
  7 26  1  0  0  0  0
  8  9  1  0  0  0  0
  8 10  1  0  0  0  0
  8 12  1  0  0  0  0
 10 15  2  0  0  0  0
 10 16  1  0  0  0  0
 11 14  1  0  0  0  0
 11 27  1  0  0  0  0
 11 28  1  0  0  0  0
 12 29  1  0  0  0  0
 12 30  1  0  0  0  0
 12 31  1  0  0  0  0
 14 17  1  0  0  0  0
 14 32  1  0  0  0  0
 15 19  1  0  0  0  0
 16 18  2  0  0  0  0
 16 33  1  0  0  0  0
 17 21  2  0  0  0  0
 17 22  1  0  0  0  0
 18 20  1  0  0  0  0
 19 20  2  0  0  0  0
 19 34  1  0  0  0  0
 20 36  1  0  0  0  0
 21 23  1  0  0  0  0
 21 37  1  0  0  0  0
 22 24  2  0  0  0  0
 22 38  1  0  0  0  0
 23 25  2  0  0  0  0
 23 39  1  0  0  0  0
 24 25  1  0  0  0  0
 24 40  1  0  0  0  0
 25 41  1  0  0  0  0
M  END
> <PUBCHEM_COMPOUND_CID>
17396648

> <PUBCHEM_CONFORMER_RMSD>
0.8

> <PUBCHEM_CONFORMER_DIVERSEORDER>
1
136
103
163
58
194
124
92
130
142
186
137
156
68
33
93
54
171
106
95
83
113
26
63
121
184
149
97
175
177
17
10
150
62
89
158
115
160
191
173
35
125
39
169
101
87
12
43
123
30
81
139
111
71
197
179
146
4
75
140
109
164
94
138
134
144
165
108
180
44
102
107
16
45
82
145
176
112
104
99
187
14
90
135
153
38
52
79
61
166
195
84
21
66
78
128
131
192
60
98
29
119
74
129
72
19
161
96
181
174
20
25
189
183
190
3
172
65
76
152
32
13
59
196
151
167
116
188
69
133
185
85
47
48
132
11
193
18
148
6
100
147
122
40
162
154
34
5
91
155
170
23
127
114
118
120
51
159
41
86
77
141
110
117
168
53
27
126
42
182
28
15
143
49
56
37
157
67
31
7
9
178
105
88
70
57
64
73
55
46
2
22
36
80
8
50
24

> <PUBCHEM_MMFF94_PARTIAL_CHARGES>
34
1 -0.19
10 -0.14
11 0.3
13 0.69
14 0.42
15 0.19
16 -0.15
17 -0.14
18 0.19
19 -0.15
2 -0.19
20 -0.15
21 -0.15
22 -0.15
23 -0.15
24 -0.15
25 -0.15
26 0.37
3 -0.57
33 0.15
34 0.15
35 0.4
36 0.15
37 0.15
38 0.15
39 0.15
4 -0.68
40 0.15
41 0.15
5 -0.57
6 -0.42
7 -0.73
8 0.5
9 0.57

> <PUBCHEM_EFFECTIVE_ROTOR_COUNT>
4.6

> <PUBCHEM_PHARMACOPHORE_FEATURES>
8
1 3 acceptor
1 4 acceptor
1 4 donor
1 5 acceptor
1 7 donor
5 6 7 8 9 13 rings
6 10 15 16 18 19 20 rings
6 17 21 22 23 24 25 rings

> <PUBCHEM_HEAVY_ATOM_COUNT>
25

> <PUBCHEM_ATOM_DEF_STEREO_COUNT>
0

> <PUBCHEM_ATOM_UDEF_STEREO_COUNT>
2

> <PUBCHEM_BOND_DEF_STEREO_COUNT>
0

> <PUBCHEM_BOND_UDEF_STEREO_COUNT>
0

> <PUBCHEM_ISOTOPIC_ATOM_COUNT>
0

> <PUBCHEM_COMPONENT_COUNT>
1

> <PUBCHEM_CACTVS_TAUTO_COUNT>
2

> <PUBCHEM_CONFORMER_ID>
010973A800000001

> <PUBCHEM_MMFF94_ENERGY>
59.6115

> <PUBCHEM_FEATURE_SELFOVERLAP>
40.595

> <PUBCHEM_SHAPE_FINGERPRINT>
10 15 14057010412036542442
11578080 2 18266483012529660360
11796584 16 18412823582137907511
11961588 58 13110668433463635198
12166972 35 18409732816640167813
12236239 1 18334290955538937489
12516196 113 18260834790815207467
12553582 1 18337405901823989534
12596602 18 17240770557695631907
12633257 1 17968095292293667119
12760667 363 18409730694293431283
12778500 126 18271799168750813585
12788726 201 17896017941127174801
13103583 49 18113894962269204235
13533116 47 18341050723072587433
13685833 64 18060135436340340099
13914758 101 18334864944328533837
13955234 65 18199467666915006664
14528608 73 11743839153697351351
14576447 43 18272653489274838002
14705955 166 16298667303796058562
14739800 52 16444766929908087793
15142383 8 18201157758516431453
15183329 4 17346606309080726069
15188451 53 16443643298529603199
15238133 3 16660634159621652361
15537594 2 18342461443293234638
15788980 27 18411702080567271541
17349148 13 17313385579002103135
17492 54 17346303917813977942
17492 89 17841160166892514114
17980427 26 17755599143582473036
1813 80 18341042016899500878
19319366 153 17918279753345295458
19489759 90 16443345378123225795
19784866 240 18342168994568951092
20567600 234 14201690719150534659
20645477 70 17988368087359527111
20775530 9 18054523666162866290
21267235 1 18412541050810179942
21403212 168 7709460486020487590
21421861 104 18263628701696295339
21521721 280 18129936789895452616
21637258 2 18342465862972194786
221357 26 17989211459864435655
2215653 11 17561092397576965015
23227448 37 6627452034938411121
23522609 53 18193807462775957381
23559900 14 17845934018124044973
239999 70 16487256517281002501
25147074 1 18335965537054458528
2838139 119 8358253726715981402
2871803 45 17560806554032711434
3004659 81 18411702079802412780
314194 84 18343023315051479546
3411729 13 16879643574488023648
345986 75 18264220260400664731
3472631 163 11383816178769033410
351380 3 18409168826476726143
3737641 26 18044091474052808414
4340502 62 18199753544623332480
46194498 28 16486970665743095879
465052 167 18335417954488312471
5104073 3 17386563532565987547
6086070 43 18261128378750160301
8509985 295 18187085031666350063

> <PUBCHEM_SHAPE_MULTIPOLES>
472.37
13.77
2.12
1.46
11.22
0.57
-0.04
-8.02
0.71
-2.43
-0.36
0.59
0.23
-1.12

> <PUBCHEM_SHAPE_SELFOVERLAP>
1031.023

> <PUBCHEM_SHAPE_VOLUME>
258.2

> <PUBCHEM_COORDINATE_TYPE>
2
5
10

$$$$

