27144
  -OEChem-07051213053D

 19 20  0     0  0  0  0  0  0999 V2000
   -4.3030   -0.5985    0.0005 Br  0  0  0  0  0  0  0  0  0  0  0  0
    3.8791    0.4776   -0.0005 O   0  0  0  0  0  0  0  0  0  0  0  0
    0.2129    0.6989    0.0001 C   0  0  0  0  0  0  0  0  0  0  0  0
   -0.1281   -0.6746   -0.0001 C   0  0  0  0  0  0  0  0  0  0  0  0
    1.5672    1.0703    0.0004 C   0  0  0  0  0  0  0  0  0  0  0  0
    0.8954   -1.6364    0.0000 C   0  0  0  0  0  0  0  0  0  0  0  0
   -0.8107    1.6606    0.0001 C   0  0  0  0  0  0  0  0  0  0  0  0
   -1.4824   -1.0461   -0.0003 C   0  0  0  0  0  0  0  0  0  0  0  0
    2.5710    0.1014    0.0004 C   0  0  0  0  0  0  0  0  0  0  0  0
    2.2359   -1.2493    0.0002 C   0  0  0  0  0  0  0  0  0  0  0  0
   -2.1510    1.2734   -0.0002 C   0  0  0  0  0  0  0  0  0  0  0  0
   -2.4862   -0.0773   -0.0004 C   0  0  0  0  0  0  0  0  0  0  0  0
    1.8462    2.1225    0.0004 H   0  0  0  0  0  0  0  0  0  0  0  0
    0.6566   -2.6979   -0.0002 H   0  0  0  0  0  0  0  0  0  0  0  0
   -0.5718    2.7221    0.0002 H   0  0  0  0  0  0  0  0  0  0  0  0
   -1.7508   -2.1015   -0.0004 H   0  0  0  0  0  0  0  0  0  0  0  0
    3.0086   -2.0134    0.0000 H   0  0  0  0  0  0  0  0  0  0  0  0
   -2.9212    2.0405   -0.0001 H   0  0  0  0  0  0  0  0  0  0  0  0
    4.4366   -0.3195   -0.0007 H   0  0  0  0  0  0  0  0  0  0  0  0
  1 12  1  0  0  0  0
  2  9  1  0  0  0  0
  2 19  1  0  0  0  0
  3  4  2  0  0  0  0
  3  5  1  0  0  0  0
  3  7  1  0  0  0  0
  4  6  1  0  0  0  0
  4  8  1  0  0  0  0
  5  9  2  0  0  0  0
  5 13  1  0  0  0  0
  6 10  2  0  0  0  0
  6 14  1  0  0  0  0
  7 11  2  0  0  0  0
  7 15  1  0  0  0  0
  8 12  2  0  0  0  0
  8 16  1  0  0  0  0
  9 10  1  0  0  0  0
 10 17  1  0  0  0  0
 11 12  1  0  0  0  0
 11 18  1  0  0  0  0
M  END
> <PUBCHEM_COMPOUND_CID>
27144

> <PUBCHEM_CONFORMER_RMSD>
0.4

> <PUBCHEM_CONFORMER_DIVERSEORDER>
1

> <PUBCHEM_MMFF94_PARTIAL_CHARGES>
17
1 -0.11
10 -0.15
11 -0.15
12 0.11
13 0.15
14 0.15
15 0.15
16 0.15
17 0.15
18 0.15
19 0.45
2 -0.53
5 -0.15
6 -0.15
7 -0.15
8 -0.15
9 0.08

> <PUBCHEM_EFFECTIVE_ROTOR_COUNT>
0

> <PUBCHEM_PHARMACOPHORE_FEATURES>
4
1 1 hydrophobe
1 2 donor
6 3 4 5 6 9 10 rings
6 3 4 7 8 11 12 rings

> <PUBCHEM_HEAVY_ATOM_COUNT>
12

> <PUBCHEM_ATOM_DEF_STEREO_COUNT>
0

> <PUBCHEM_ATOM_UDEF_STEREO_COUNT>
0

> <PUBCHEM_BOND_DEF_STEREO_COUNT>
0

> <PUBCHEM_BOND_UDEF_STEREO_COUNT>
0

> <PUBCHEM_ISOTOPIC_ATOM_COUNT>
0

> <PUBCHEM_COMPONENT_COUNT>
1

> <PUBCHEM_CACTVS_TAUTO_COUNT>
3

> <PUBCHEM_CONFORMER_ID>
00006A0800000001

> <PUBCHEM_MMFF94_ENERGY>
31.5765

> <PUBCHEM_FEATURE_SELFOVERLAP>
20.324

> <PUBCHEM_SHAPE_FINGERPRINT>
10219947 1 18408882919499655531
10967382 1 18410856529580319238
11132069 177 18335989674748796427
11471102 20 18411142437390573423
11806522 49 18337956693009709135
12032990 46 18411131433642344771
12932764 1 17023480718954170791
13380535 76 18412544297198950186
14144814 61 18410574019558668955
14252887 29 18113885053558359495
14325111 11 18410855507420482688
14576447 43 18116449050529626463
15775835 57 18260545614951494378
16945 1 18410575076078425573
17844478 74 18202557397989440997
193761 8 17906452477987980391
200 152 18187374220673330407
20201158 50 18342175557521722003
20510252 161 18187926222175294489
20588541 1 18411415081687845467
20645477 70 18338241578296324887
21501502 16 18266740366573248073
21501925 9 18341344386829134098
2334 1 17762055436967735815
23402539 116 18336838515253578903
23402655 69 18336555996974335829
23463225 33 18413389851610054676
23552423 10 18199464531408999790
25610 137 18411416215727938677
2748010 2 18194120939247009133
528886 8 18410016502712691690
53655031 270 18409446981712320153
53812653 166 18261116236043671224
8809292 202 18129938971280208835

> <PUBCHEM_SHAPE_MULTIPOLES>
247.03
5.85
1.66
0.62
1.95
0.07
0
-0.63
0
-0.05
0
0.08
-0.01
0

> <PUBCHEM_SHAPE_SELFOVERLAP>
527.658

> <PUBCHEM_SHAPE_VOLUME>
142.7

> <PUBCHEM_COORDINATE_TYPE>
2
5
10

$$$$

