1561
  -OEChem-07051212492D

 40 41  0     0  0  0  0  0  0999 V2000
    8.9282   -1.8450    0.0000 O   0  0  0  0  0  0  0  0  0  0  0  0
    8.9282    2.1550    0.0000 O   0  0  0  0  0  0  0  0  0  0  0  0
    8.9282   -0.8450    0.0000 N   0  0  0  0  0  0  0  0  0  0  0  0
    5.4641   -0.8450    0.0000 C   0  0  0  0  0  0  0  0  0  0  0  0
    6.3301   -0.3450    0.0000 C   0  0  0  0  0  0  0  0  0  0  0  0
    4.5981   -0.3450    0.0000 C   0  0  0  0  0  0  0  0  0  0  0  0
    7.1962   -0.8450    0.0000 C   0  0  0  0  0  0  0  0  0  0  0  0
    3.7320   -0.8450    0.0000 C   0  0  0  0  0  0  0  0  0  0  0  0
    8.0622   -0.3450    0.0000 C   0  0  0  0  0  0  0  0  0  0  0  0
    2.8660   -0.3450    0.0000 C   0  0  0  0  0  0  0  0  0  0  0  0
    9.7942   -0.3450    0.0000 C   0  0  0  0  0  0  0  0  0  0  0  0
    8.0622    0.6550    0.0000 C   0  0  0  0  0  0  0  0  0  0  0  0
    9.7942    0.6550    0.0000 C   0  0  0  0  0  0  0  0  0  0  0  0
    8.9282    1.1550    0.0000 C   0  0  0  0  0  0  0  0  0  0  0  0
    2.0000   -0.8450    0.0000 C   0  0  0  0  0  0  0  0  0  0  0  0
   10.6882   -0.8797    0.0000 C   0  0  0  0  0  0  0  0  0  0  0  0
   10.6882    1.1897    0.0000 C   0  0  0  0  0  0  0  0  0  0  0  0
   11.5942   -0.3658    0.0000 C   0  0  0  0  0  0  0  0  0  0  0  0
   11.5942    0.6758    0.0000 C   0  0  0  0  0  0  0  0  0  0  0  0
    5.0656   -1.3200    0.0000 H   0  0  0  0  0  0  0  0  0  0  0  0
    5.8626   -1.3200    0.0000 H   0  0  0  0  0  0  0  0  0  0  0  0
    6.7287    0.1299    0.0000 H   0  0  0  0  0  0  0  0  0  0  0  0
    5.9316    0.1299    0.0000 H   0  0  0  0  0  0  0  0  0  0  0  0
    4.9966    0.1299    0.0000 H   0  0  0  0  0  0  0  0  0  0  0  0
    4.1996    0.1299    0.0000 H   0  0  0  0  0  0  0  0  0  0  0  0
    6.7976   -1.3200    0.0000 H   0  0  0  0  0  0  0  0  0  0  0  0
    7.5947   -1.3200    0.0000 H   0  0  0  0  0  0  0  0  0  0  0  0
    3.3335   -1.3200    0.0000 H   0  0  0  0  0  0  0  0  0  0  0  0
    4.1306   -1.3200    0.0000 H   0  0  0  0  0  0  0  0  0  0  0  0
    3.2646    0.1299    0.0000 H   0  0  0  0  0  0  0  0  0  0  0  0
    2.4675    0.1299    0.0000 H   0  0  0  0  0  0  0  0  0  0  0  0
    7.5252    0.9650    0.0000 H   0  0  0  0  0  0  0  0  0  0  0  0
    1.6900   -0.3081    0.0000 H   0  0  0  0  0  0  0  0  0  0  0  0
    1.4631   -1.1550    0.0000 H   0  0  0  0  0  0  0  0  0  0  0  0
    2.3100   -1.3819    0.0000 H   0  0  0  0  0  0  0  0  0  0  0  0
   10.6810   -1.4996    0.0000 H   0  0  0  0  0  0  0  0  0  0  0  0
   10.6810    1.8096    0.0000 H   0  0  0  0  0  0  0  0  0  0  0  0
   12.1300   -0.6779    0.0000 H   0  0  0  0  0  0  0  0  0  0  0  0
   12.1300    0.9879    0.0000 H   0  0  0  0  0  0  0  0  0  0  0  0
    8.3913   -2.1550    0.0000 H   0  0  0  0  0  0  0  0  0  0  0  0
  1  3  1  0  0  0  0
  1 40  1  0  0  0  0
  2 14  2  0  0  0  0
  3  9  1  0  0  0  0
  3 11  1  0  0  0  0
  4  5  1  0  0  0  0
  4  6  1  0  0  0  0
  4 20  1  0  0  0  0
  4 21  1  0  0  0  0
  5  7  1  0  0  0  0
  5 22  1  0  0  0  0
  5 23  1  0  0  0  0
  6  8  1  0  0  0  0
  6 24  1  0  0  0  0
  6 25  1  0  0  0  0
  7  9  1  0  0  0  0
  7 26  1  0  0  0  0
  7 27  1  0  0  0  0
  8 10  1  0  0  0  0
  8 28  1  0  0  0  0
  8 29  1  0  0  0  0
  9 12  2  0  0  0  0
 10 15  1  0  0  0  0
 10 30  1  0  0  0  0
 10 31  1  0  0  0  0
 11 13  1  0  0  0  0
 11 16  2  0  0  0  0
 12 14  1  0  0  0  0
 12 32  1  0  0  0  0
 13 14  1  0  0  0  0
 13 17  2  0  0  0  0
 15 33  1  0  0  0  0
 15 34  1  0  0  0  0
 15 35  1  0  0  0  0
 16 18  1  0  0  0  0
 16 36  1  0  0  0  0
 17 19  1  0  0  0  0
 17 37  1  0  0  0  0
 18 19  2  0  0  0  0
 18 38  1  0  0  0  0
 19 39  1  0  0  0  0
M  END
> <PUBCHEM_COMPOUND_CID>
1561

> <PUBCHEM_COMPOUND_CANONICALIZED>
1

> <PUBCHEM_CACTVS_COMPLEXITY>
338

> <PUBCHEM_CACTVS_HBOND_ACCEPTOR>
3

> <PUBCHEM_CACTVS_HBOND_DONOR>
1

> <PUBCHEM_CACTVS_ROTATABLE_BOND>
6

> <PUBCHEM_CACTVS_SUBSKEYS>
AAADceB6MAAAAAAAAAAAAAAAAAAAAAAAAAAwQAAAAAAAAACBAAAAHgAECAAADAyBmAAywIIQAACIAqRSQACCAAAlAgAoiAEAZMgIIDrAlZGEIYhggADIyccYiICOAAAAAAACAAAAAAAAAAQAAAAAAAAAAA==

> <PUBCHEM_IUPAC_OPENEYE_NAME>
2-heptyl-1-hydroxy-quinolin-4-one

> <PUBCHEM_IUPAC_CAS_NAME>
2-heptyl-1-hydroxy-4-quinolinone

> <PUBCHEM_IUPAC_NAME>
2-heptyl-1-hydroxyquinolin-4-one

> <PUBCHEM_IUPAC_SYSTEMATIC_NAME>
2-heptyl-1-oxidanyl-quinolin-4-one

> <PUBCHEM_IUPAC_TRADITIONAL_NAME>
2-heptyl-1-hydroxy-4-quinolone

> <PUBCHEM_IUPAC_INCHI>
InChI=1S/C16H21NO2/c1-2-3-4-5-6-9-13-12-16(18)14-10-7-8-11-15(14)17(13)19/h7-8,10-12,19H,2-6,9H2,1H3

> <PUBCHEM_IUPAC_INCHIKEY>
ICTVCUOZYWNYHM-UHFFFAOYSA-N

> <PUBCHEM_XLOGP3_AA>
4.5

> <PUBCHEM_EXACT_MASS>
259.157229

> <PUBCHEM_MOLECULAR_FORMULA>
C16H21NO2

> <PUBCHEM_MOLECULAR_WEIGHT>
259.34344

> <PUBCHEM_OPENEYE_CAN_SMILES>
CCCCCCCC1=CC(=O)C2=CC=CC=C2N1O

> <PUBCHEM_OPENEYE_ISO_SMILES>
CCCCCCCC1=CC(=O)C2=CC=CC=C2N1O

> <PUBCHEM_CACTVS_TPSA>
40.5

> <PUBCHEM_MONOISOTOPIC_WEIGHT>
259.157229

> <PUBCHEM_TOTAL_CHARGE>
0

> <PUBCHEM_HEAVY_ATOM_COUNT>
19

> <PUBCHEM_ATOM_DEF_STEREO_COUNT>
0

> <PUBCHEM_ATOM_UDEF_STEREO_COUNT>
0

> <PUBCHEM_BOND_DEF_STEREO_COUNT>
0

> <PUBCHEM_BOND_UDEF_STEREO_COUNT>
0

> <PUBCHEM_ISOTOPIC_ATOM_COUNT>
0

> <PUBCHEM_COMPONENT_COUNT>
1

> <PUBCHEM_CACTVS_TAUTO_COUNT>
3

> <PUBCHEM_COORDINATE_TYPE>
1
5
255

> <PUBCHEM_BONDANNOTATIONS>
11  13  8
11  16  8
12  14  8
13  14  8
13  17  8
16  18  8
17  19  8
18  19  8
3  11  8
3  9  8
9  12  8

$$$$

