443417
  -OEChem-07051213023D

 54 59  0     1  0  0  0  0  0999 V2000
   -4.1648   -1.4233   -0.0703 O   0  0  0  0  0  0  0  0  0  0  0  0
   -2.4453    3.5250    0.4155 O   0  0  0  0  0  0  0  0  0  0  0  0
   -0.2743    3.7721   -0.3495 O   0  0  0  0  0  0  0  0  0  0  0  0
    5.6261   -0.4190   -0.5155 O   0  0  0  0  0  0  0  0  0  0  0  0
   -1.6804   -1.9418    1.1076 N   0  0  1  0  0  0  0  0  0  0  0  0
    1.3063    1.5808    0.5552 N   0  0  0  0  0  0  0  0  0  0  0  0
   -1.9603   -0.4869   -0.8539 C   0  0  1  0  0  0  0  0  0  0  0  0
   -0.9446   -1.3102   -0.0060 C   0  0  1  0  0  0  0  0  0  0  0  0
    0.1410   -0.4794    0.7225 C   0  0  2  0  0  0  0  0  0  0  0  0
   -3.2099   -1.3234   -1.1443 C   0  0  1  0  0  0  0  0  0  0  0  0
   -3.4436   -2.6162   -0.3932 C   0  0  1  0  0  0  0  0  0  0  0  0
   -2.4824   -3.0718    0.6637 C   0  0  0  0  0  0  0  0  0  0  0  0
   -2.3479    0.8295   -0.1080 C   0  0  0  0  0  0  0  0  0  0  0  0
    0.0108   -0.9014    2.2105 C   0  0  0  0  0  0  0  0  0  0  0  0
   -0.7201   -2.2331    2.1537 C   0  0  0  0  0  0  0  0  0  0  0  0
    0.0274    1.0555    0.5632 C   0  0  0  0  0  0  0  0  0  0  0  0
   -1.3067   -0.1523   -2.2200 C   0  0  0  0  0  0  0  0  0  0  0  0
    1.5867   -0.6949    0.2995 C   0  0  0  0  0  0  0  0  0  0  0  0
   -1.1371    1.6477    0.2515 C   0  0  0  0  0  0  0  0  0  0  0  0
    2.2234    0.5646    0.2719 C   0  0  0  0  0  0  0  0  0  0  0  0
   -0.9583   -1.4170   -2.9632 C   0  0  0  0  0  0  0  0  0  0  0  0
    2.2909   -1.8567    0.0403 C   0  0  0  0  0  0  0  0  0  0  0  0
   -1.2062    3.1004    0.0620 C   0  0  0  0  0  0  0  0  0  0  0  0
    3.5757    0.6786    0.0185 C   0  0  0  0  0  0  0  0  0  0  0  0
    3.6545   -1.7456   -0.2415 C   0  0  0  0  0  0  0  0  0  0  0  0
    4.2914   -0.4916   -0.2471 C   0  0  0  0  0  0  0  0  0  0  0  0
   -2.6704    4.9324    0.2842 C   0  0  0  0  0  0  0  0  0  0  0  0
    6.2181    0.8781   -0.5076 C   0  0  0  0  0  0  0  0  0  0  0  0
   -0.4760   -2.1155   -0.5796 H   0  0  0  0  0  0  0  0  0  0  0  0
   -3.6467   -1.1767   -2.1229 H   0  0  0  0  0  0  0  0  0  0  0  0
   -3.9817   -3.4206   -0.8737 H   0  0  0  0  0  0  0  0  0  0  0  0
   -3.0536   -3.4825    1.5038 H   0  0  0  0  0  0  0  0  0  0  0  0
   -1.8544   -3.8770    0.2636 H   0  0  0  0  0  0  0  0  0  0  0  0
   -2.9112    0.6196    0.8098 H   0  0  0  0  0  0  0  0  0  0  0  0
   -3.0237    1.3976   -0.7606 H   0  0  0  0  0  0  0  0  0  0  0  0
   -0.5976   -0.1769    2.7697 H   0  0  0  0  0  0  0  0  0  0  0  0
    0.9669   -0.9991    2.7375 H   0  0  0  0  0  0  0  0  0  0  0  0
   -0.0421   -3.0506    1.8829 H   0  0  0  0  0  0  0  0  0  0  0  0
   -1.1998   -2.4663    3.1090 H   0  0  0  0  0  0  0  0  0  0  0  0
   -0.4036    0.4577   -2.1174 H   0  0  0  0  0  0  0  0  0  0  0  0
   -2.0091    0.4324   -2.8282 H   0  0  0  0  0  0  0  0  0  0  0  0
    1.4875    2.5519    0.3535 H   0  0  0  0  0  0  0  0  0  0  0  0
   -0.0551   -1.8947   -2.5732 H   0  0  0  0  0  0  0  0  0  0  0  0
   -1.7573   -2.1609   -3.0037 H   0  0  0  0  0  0  0  0  0  0  0  0
   -0.7242   -1.1604   -4.0036 H   0  0  0  0  0  0  0  0  0  0  0  0
    1.8135   -2.8294    0.0698 H   0  0  0  0  0  0  0  0  0  0  0  0
    4.0071    1.6720    0.0281 H   0  0  0  0  0  0  0  0  0  0  0  0
    4.2304   -2.6448   -0.4468 H   0  0  0  0  0  0  0  0  0  0  0  0
   -1.9835    5.4876    0.9301 H   0  0  0  0  0  0  0  0  0  0  0  0
   -3.6960    5.1434    0.5985 H   0  0  0  0  0  0  0  0  0  0  0  0
   -2.5526    5.2387   -0.7597 H   0  0  0  0  0  0  0  0  0  0  0  0
    6.1621    1.3408    0.4836 H   0  0  0  0  0  0  0  0  0  0  0  0
    5.7960    1.5186   -1.2895 H   0  0  0  0  0  0  0  0  0  0  0  0
    7.2805    0.7499   -0.7397 H   0  0  0  0  0  0  0  0  0  0  0  0
  1 10  1  0  0  0  0
  1 11  1  0  0  0  0
  2 23  1  0  0  0  0
  2 27  1  0  0  0  0
  3 23  2  0  0  0  0
  4 26  1  0  0  0  0
  4 28  1  0  0  0  0
  5  8  1  0  0  0  0
  5 12  1  0  0  0  0
  5 15  1  0  0  0  0
  6 16  1  0  0  0  0
  6 20  1  0  0  0  0
  6 42  1  0  0  0  0
  7  8  1  0  0  0  0
  7 10  1  0  0  0  0
  7 13  1  0  0  0  0
  7 17  1  0  0  0  0
  8  9  1  0  0  0  0
  8 29  1  0  0  0  0
  9 14  1  0  0  0  0
  9 16  1  0  0  0  0
  9 18  1  0  0  0  0
 10 11  1  0  0  0  0
 10 30  1  0  0  0  0
 11 12  1  0  0  0  0
 11 31  1  0  0  0  0
 12 32  1  0  0  0  0
 12 33  1  0  0  0  0
 13 19  1  0  0  0  0
 13 34  1  0  0  0  0
 13 35  1  0  0  0  0
 14 15  1  0  0  0  0
 14 36  1  0  0  0  0
 14 37  1  0  0  0  0
 15 38  1  0  0  0  0
 15 39  1  0  0  0  0
 16 19  2  0  0  0  0
 17 21  1  0  0  0  0
 17 40  1  0  0  0  0
 17 41  1  0  0  0  0
 18 20  2  0  0  0  0
 18 22  1  0  0  0  0
 19 23  1  0  0  0  0
 20 24  1  0  0  0  0
 21 43  1  0  0  0  0
 21 44  1  0  0  0  0
 21 45  1  0  0  0  0
 22 25  2  0  0  0  0
 22 46  1  0  0  0  0
 24 26  2  0  0  0  0
 24 47  1  0  0  0  0
 25 26  1  0  0  0  0
 25 48  1  0  0  0  0
 27 49  1  0  0  0  0
 27 50  1  0  0  0  0
 27 51  1  0  0  0  0
 28 52  1  0  0  0  0
 28 53  1  0  0  0  0
 28 54  1  0  0  0  0
M  END
> <PUBCHEM_COMPOUND_CID>
443417

> <PUBCHEM_CONFORMER_RMSD>
0.8

> <PUBCHEM_CONFORMER_DIVERSEORDER>
1
3
4
2

> <PUBCHEM_MMFF94_PARTIAL_CHARGES>
31
1 -0.3
10 -0.05
11 -0.05
12 0.37
13 0.14
15 0.27
16 -0.04
18 -0.14
19 -0.12
2 -0.43
20 0.1
22 -0.15
23 0.71
24 -0.15
25 -0.15
26 0.08
27 0.28
28 0.28
3 -0.57
30 0.1
31 0.1
4 -0.36
42 0.4
46 0.15
47 0.15
48 0.15
5 -0.81
6 -0.6
7 0.09
8 0.27
9 0.28

> <PUBCHEM_EFFECTIVE_ROTOR_COUNT>
5.2

> <PUBCHEM_PHARMACOPHORE_FEATURES>
12
1 1 acceptor
1 21 hydrophobe
1 3 acceptor
1 4 acceptor
1 5 cation
1 6 cation
1 6 donor
5 5 8 9 14 15 rings
5 6 9 16 18 20 rings
6 18 20 22 24 25 26 rings
6 7 8 9 13 16 19 rings
7 1 5 7 8 10 11 12 rings

> <PUBCHEM_HEAVY_ATOM_COUNT>
28

> <PUBCHEM_ATOM_DEF_STEREO_COUNT>
3

> <PUBCHEM_ATOM_UDEF_STEREO_COUNT>
2

> <PUBCHEM_BOND_DEF_STEREO_COUNT>
0

> <PUBCHEM_BOND_UDEF_STEREO_COUNT>
0

> <PUBCHEM_ISOTOPIC_ATOM_COUNT>
0

> <PUBCHEM_COMPONENT_COUNT>
1

> <PUBCHEM_CACTVS_TAUTO_COUNT>
3

> <PUBCHEM_CONFORMER_ID>
0006C41900000001

> <PUBCHEM_MMFF94_ENERGY>
117.8878

> <PUBCHEM_FEATURE_SELFOVERLAP>
61.35

> <PUBCHEM_SHAPE_FINGERPRINT>
10165383 225 17560538256432507375
107951 10 18048307044487844767
10863032 1 18336832012340893646
10948715 1 17979068619764653289
1100329 8 18412260628037614545
121448 382 17775574147607050146
12156800 1 17551743344399470807
12160290 23 17974321937989665281
12236239 1 13901646090342656850
12293681 160 18131083605813057323
12293681 4 18341890758182393171
12422481 6 17823956005151344099
12553582 1 18337967692104631451
12714826 92 17676213476390848182
12788726 201 18413113869917706139
138480 1 15888277101337151225
13911987 19 18054778491489179142
14142880 1 17774438399044909133
14713325 29 18260824942581733223
14790565 3 17905323283836947592
14840074 17 17751351786457099212
14863182 85 15536982384591169379
15131766 46 16126082345779234772
16087824 20 18410571826023156785
16945 1 18264778838051056147
17349148 13 18130516271204285786
1813 80 17897707800182901110
19591789 44 16394645464648499088
19930381 70 17762058735529031897
200 152 18040992895930332298
20101258 96 18336817602994842376
23175994 123 18268429027650389535
23227448 37 18338230595859097188
23419403 2 17409950032565524943
23558518 356 18271239521299792456
23559900 14 18198348347240504728
23566358 27 17471578728739060343
238 59 16825636529825271679
298252 57 17609226988630178104
3380486 145 17695050120598448658
38695281 34 17545883092925350888
394222 165 15672741392086191799
531348 171 18261668294667236654
53917941 68 18200602513496994804
6669772 16 17613995622194746926
81228 2 18412269419276247353
9709674 26 18337383946452345366
9999458 23 17406541988689839557

> <PUBCHEM_SHAPE_MULTIPOLES>
542.79
7.81
4.41
1.7
13.54
6.12
-0.57
-1.1
-2.02
-5.53
0.83
-0.89
-1.16
-0.29

> <PUBCHEM_SHAPE_SELFOVERLAP>
1212.668

> <PUBCHEM_SHAPE_VOLUME>
289.8

> <PUBCHEM_COORDINATE_TYPE>
2
5
10

$$$$

