58521
  -OEChem-07051213102D

 60 63  0     0  0  0  0  0  0999 V2000
    5.7139    1.2312    0.0000 O   0  0  0  0  0  0  0  0  0  0  0  0
    9.0218    0.0272    0.0000 O   0  0  0  0  0  0  0  0  0  0  0  0
    2.4695   -0.2442    0.0000 O   0  0  0  0  0  0  0  0  0  0  0  0
    6.1250   -4.3236    0.0000 O   0  0  0  0  0  0  0  0  0  0  0  0
    9.1320    2.9442    0.0000 N   0  0  0  0  0  0  0  0  0  0  0  0
    7.4632    0.8912    0.0000 N   0  0  0  0  0  0  0  0  0  0  0  0
    7.4067   -0.7259    0.0000 N   0  0  0  0  0  0  0  0  0  0  0  0
    6.4670   -0.3839    0.0000 C   0  0  0  0  0  0  0  0  0  0  0  0
   10.1169    3.1178    0.0000 C   0  0  0  0  0  0  0  0  0  0  0  0
    8.4893    3.7102    0.0000 C   0  0  0  0  0  0  0  0  0  0  0  0
    8.7900    2.0045    0.0000 C   0  0  0  0  0  0  0  0  0  0  0  0
   10.4589    4.0575    0.0000 C   0  0  0  0  0  0  0  0  0  0  0  0
    8.8313    4.6499    0.0000 C   0  0  0  0  0  0  0  0  0  0  0  0
    9.8161    4.8236    0.0000 C   0  0  0  0  0  0  0  0  0  0  0  0
    7.8052    1.8308    0.0000 C   0  0  0  0  0  0  0  0  0  0  0  0
    6.5019    0.6155    0.0000 C   0  0  0  0  0  0  0  0  0  0  0  0
    8.0224    0.0621    0.0000 C   0  0  0  0  0  0  0  0  0  0  0  0
    6.1250   -1.3236    0.0000 C   0  0  0  0  0  0  0  0  0  0  0  0
    5.4676   -0.3490    0.0000 C   0  0  0  0  0  0  0  0  0  0  0  0
    4.9982    0.5340    0.0000 C   0  0  0  0  0  0  0  0  0  0  0  0
    5.2590   -1.8236    0.0000 C   0  0  0  0  0  0  0  0  0  0  0  0
    4.9377   -1.1970    0.0000 C   0  0  0  0  0  0  0  0  0  0  0  0
    6.9910   -1.8236    0.0000 C   0  0  0  0  0  0  0  0  0  0  0  0
    5.2590   -2.8236    0.0000 C   0  0  0  0  0  0  0  0  0  0  0  0
    3.9988    0.5689    0.0000 C   0  0  0  0  0  0  0  0  0  0  0  0
    6.9910   -2.8236    0.0000 C   0  0  0  0  0  0  0  0  0  0  0  0
    3.9383   -1.1621    0.0000 C   0  0  0  0  0  0  0  0  0  0  0  0
    6.1250   -3.3236    0.0000 C   0  0  0  0  0  0  0  0  0  0  0  0
    3.4689   -0.2792    0.0000 C   0  0  0  0  0  0  0  0  0  0  0  0
    6.9910   -4.8236    0.0000 C   0  0  0  0  0  0  0  0  0  0  0  0
    2.0000    0.6387    0.0000 C   0  0  0  0  0  0  0  0  0  0  0  0
    7.9523    4.0202    0.0000 H   0  0  0  0  0  0  0  0  0  0  0  0
    8.0907    3.2353    0.0000 H   0  0  0  0  0  0  0  0  0  0  0  0
   10.1169    2.4978    0.0000 H   0  0  0  0  0  0  0  0  0  0  0  0
   10.7274    3.0102    0.0000 H   0  0  0  0  0  0  0  0  0  0  0  0
    8.7900    1.3845    0.0000 H   0  0  0  0  0  0  0  0  0  0  0  0
    9.4006    1.8968    0.0000 H   0  0  0  0  0  0  0  0  0  0  0  0
    8.8313    5.2699    0.0000 H   0  0  0  0  0  0  0  0  0  0  0  0
    8.2207    4.7576    0.0000 H   0  0  0  0  0  0  0  0  0  0  0  0
   10.9958    3.7475    0.0000 H   0  0  0  0  0  0  0  0  0  0  0  0
   10.8574    4.5325    0.0000 H   0  0  0  0  0  0  0  0  0  0  0  0
   10.3530    5.1336    0.0000 H   0  0  0  0  0  0  0  0  0  0  0  0
    9.6040    5.4062    0.0000 H   0  0  0  0  0  0  0  0  0  0  0  0
    7.8052    2.4508    0.0000 H   0  0  0  0  0  0  0  0  0  0  0  0
    7.1946    1.9385    0.0000 H   0  0  0  0  0  0  0  0  0  0  0  0
    7.5776   -1.3219    0.0000 H   0  0  0  0  0  0  0  0  0  0  0  0
    5.3267    1.0598    0.0000 H   0  0  0  0  0  0  0  0  0  0  0  0
    4.7220   -1.5136    0.0000 H   0  0  0  0  0  0  0  0  0  0  0  0
    5.2288   -1.7444    0.0000 H   0  0  0  0  0  0  0  0  0  0  0  0
    7.5280   -1.5136    0.0000 H   0  0  0  0  0  0  0  0  0  0  0  0
    3.7077    1.1163    0.0000 H   0  0  0  0  0  0  0  0  0  0  0  0
    4.7220   -3.1336    0.0000 H   0  0  0  0  0  0  0  0  0  0  0  0
    3.6098   -1.6878    0.0000 H   0  0  0  0  0  0  0  0  0  0  0  0
    7.5280   -3.1336    0.0000 H   0  0  0  0  0  0  0  0  0  0  0  0
    6.6810   -5.3605    0.0000 H   0  0  0  0  0  0  0  0  0  0  0  0
    7.5280   -5.1336    0.0000 H   0  0  0  0  0  0  0  0  0  0  0  0
    7.3010   -4.2866    0.0000 H   0  0  0  0  0  0  0  0  0  0  0  0
    2.5474    0.9298    0.0000 H   0  0  0  0  0  0  0  0  0  0  0  0
    1.7089    1.1861    0.0000 H   0  0  0  0  0  0  0  0  0  0  0  0
    1.4526    0.3476    0.0000 H   0  0  0  0  0  0  0  0  0  0  0  0
  1 16  2  0  0  0  0
  2 17  2  0  0  0  0
  3 29  1  0  0  0  0
  3 31  1  0  0  0  0
  4 28  1  0  0  0  0
  4 30  1  0  0  0  0
  5  9  1  0  0  0  0
  5 10  1  0  0  0  0
  5 11  1  0  0  0  0
  6 15  1  0  0  0  0
  6 16  1  0  0  0  0
  6 17  1  0  0  0  0
  7  8  1  0  0  0  0
  7 17  1  0  0  0  0
  7 46  1  0  0  0  0
  8 16  1  0  0  0  0
  8 18  1  0  0  0  0
  8 19  1  0  0  0  0
  9 12  1  0  0  0  0
  9 34  1  0  0  0  0
  9 35  1  0  0  0  0
 10 13  1  0  0  0  0
 10 32  1  0  0  0  0
 10 33  1  0  0  0  0
 11 15  1  0  0  0  0
 11 36  1  0  0  0  0
 11 37  1  0  0  0  0
 12 14  1  0  0  0  0
 12 40  1  0  0  0  0
 12 41  1  0  0  0  0
 13 14  1  0  0  0  0
 13 38  1  0  0  0  0
 13 39  1  0  0  0  0
 14 42  1  0  0  0  0
 14 43  1  0  0  0  0
 15 44  1  0  0  0  0
 15 45  1  0  0  0  0
 18 21  2  0  0  0  0
 18 23  1  0  0  0  0
 19 20  2  0  0  0  0
 19 22  1  0  0  0  0
 20 25  1  0  0  0  0
 20 47  1  0  0  0  0
 21 24  1  0  0  0  0
 21 48  1  0  0  0  0
 22 27  2  0  0  0  0
 22 49  1  0  0  0  0
 23 26  2  0  0  0  0
 23 50  1  0  0  0  0
 24 28  2  0  0  0  0
 24 52  1  0  0  0  0
 25 29  2  0  0  0  0
 25 51  1  0  0  0  0
 26 28  1  0  0  0  0
 26 54  1  0  0  0  0
 27 29  1  0  0  0  0
 27 53  1  0  0  0  0
 30 55  1  0  0  0  0
 30 56  1  0  0  0  0
 30 57  1  0  0  0  0
 31 58  1  0  0  0  0
 31 59  1  0  0  0  0
 31 60  1  0  0  0  0
M  END
> <PUBCHEM_COMPOUND_CID>
58521

> <PUBCHEM_COMPOUND_CANONICALIZED>
1

> <PUBCHEM_CACTVS_COMPLEXITY>
596

> <PUBCHEM_CACTVS_HBOND_ACCEPTOR>
5

> <PUBCHEM_CACTVS_HBOND_DONOR>
1

> <PUBCHEM_CACTVS_ROTATABLE_BOND>
7

> <PUBCHEM_CACTVS_SUBSKEYS>
AAADceB7OAAAAAAAAAAAAAAAAAAAAWAAAAA8YIAAAAAAAAABQAAAHgAQAAAADIzBmAYzBoPABACIAiFSEACCCAAgIAAIiAGODIiMZjKEtTuUMChsxzOIqAeY2POOoAAAAAAAAABAAAAAAAAAAAAAAAAAAA==

> <PUBCHEM_IUPAC_OPENEYE_NAME>
5,5-bis(4-methoxyphenyl)-3-[2-(1-piperidyl)ethyl]imidazolidine-2,4-dione

> <PUBCHEM_IUPAC_CAS_NAME>
5,5-bis(4-methoxyphenyl)-3-[2-(1-piperidinyl)ethyl]imidazolidine-2,4-dione

> <PUBCHEM_IUPAC_NAME>
5,5-bis(4-methoxyphenyl)-3-(2-piperidin-1-ylethyl)imidazolidine-2,4-dione

> <PUBCHEM_IUPAC_SYSTEMATIC_NAME>
5,5-bis(4-methoxyphenyl)-3-(2-piperidin-1-ylethyl)imidazolidine-2,4-dione

> <PUBCHEM_IUPAC_TRADITIONAL_NAME>
5,5-bis(4-methoxyphenyl)-3-(2-piperidinoethyl)hydantoin

> <PUBCHEM_IUPAC_INCHI>
InChI=1S/C24H29N3O4/c1-30-20-10-6-18(7-11-20)24(19-8-12-21(31-2)13-9-19)22(28)27(23(29)25-24)17-16-26-14-4-3-5-15-26/h6-13H,3-5,14-17H2,1-2H3,(H,25,29)

> <PUBCHEM_IUPAC_INCHIKEY>
HVYGXNYMNHSBGD-UHFFFAOYSA-N

> <PUBCHEM_XLOGP3_AA>
3.1

> <PUBCHEM_EXACT_MASS>
423.215806

> <PUBCHEM_MOLECULAR_FORMULA>
C24H29N3O4

> <PUBCHEM_MOLECULAR_WEIGHT>
423.50476

> <PUBCHEM_OPENEYE_CAN_SMILES>
COC1=CC=C(C=C1)C2(C(=O)N(C(=O)N2)CCN3CCCCC3)C4=CC=C(C=C4)OC

> <PUBCHEM_OPENEYE_ISO_SMILES>
COC1=CC=C(C=C1)C2(C(=O)N(C(=O)N2)CCN3CCCCC3)C4=CC=C(C=C4)OC

> <PUBCHEM_CACTVS_TPSA>
71.1

> <PUBCHEM_MONOISOTOPIC_WEIGHT>
423.215806

> <PUBCHEM_TOTAL_CHARGE>
0

> <PUBCHEM_HEAVY_ATOM_COUNT>
31

> <PUBCHEM_ATOM_DEF_STEREO_COUNT>
0

> <PUBCHEM_ATOM_UDEF_STEREO_COUNT>
0

> <PUBCHEM_BOND_DEF_STEREO_COUNT>
0

> <PUBCHEM_BOND_UDEF_STEREO_COUNT>
0

> <PUBCHEM_ISOTOPIC_ATOM_COUNT>
0

> <PUBCHEM_COMPONENT_COUNT>
1

> <PUBCHEM_CACTVS_TAUTO_COUNT>
2

> <PUBCHEM_COORDINATE_TYPE>
1
5
255

> <PUBCHEM_BONDANNOTATIONS>
18  21  8
18  23  8
19  20  8
19  22  8
20  25  8
21  24  8
22  27  8
23  26  8
24  28  8
25  29  8
26  28  8
27  29  8

$$$$

