9543058
  -OEChem-07051213083D

 23 23  0     0  0  0  0  0  0999 V2000
   -3.5985   -1.5698    0.0176 O   0  0  0  0  0  0  0  0  0  0  0  0
   -0.1996    3.8878    0.0160 O   0  0  0  0  0  0  0  0  0  0  0  0
    3.2663    0.4677    0.0031 O   0  5  0  0  0  0  0  0  0  0  0  0
    2.7908   -1.6754    0.0040 O   0  0  0  0  0  0  0  0  0  0  0  0
   -2.2581   -1.8560   -0.0056 N   0  0  0  0  0  0  0  0  0  0  0  0
    2.4376   -0.4727    0.0018 N   0  3  0  0  0  0  0  0  0  0  0  0
   -1.1009    2.8538   -0.0098 N   0  0  0  0  0  0  0  0  0  0  0  0
    0.0873   -1.1749   -0.0024 C   0  0  0  0  0  0  0  0  0  0  0  0
   -1.2687   -0.8476   -0.0050 C   0  0  0  0  0  0  0  0  0  0  0  0
    1.0487   -0.1644   -0.0021 C   0  0  0  0  0  0  0  0  0  0  0  0
   -0.7017    1.5009   -0.0065 C   0  0  0  0  0  0  0  0  0  0  0  0
   -1.6631    0.4904   -0.0070 C   0  0  0  0  0  0  0  0  0  0  0  0
    0.6542    1.1735   -0.0042 C   0  0  0  0  0  0  0  0  0  0  0  0
    0.5056   -2.6132    0.0001 C   0  0  0  0  0  0  0  0  0  0  0  0
   -2.7161    0.7624   -0.0098 H   0  0  0  0  0  0  0  0  0  0  0  0
    1.3927    1.9716   -0.0045 H   0  0  0  0  0  0  0  0  0  0  0  0
    1.0410   -2.8720   -0.9204 H   0  0  0  0  0  0  0  0  0  0  0  0
    1.0819   -2.8557    0.9003 H   0  0  0  0  0  0  0  0  0  0  0  0
   -0.3129   -3.3323    0.0405 H   0  0  0  0  0  0  0  0  0  0  0  0
   -2.0397   -2.8211   -0.1978 H   0  0  0  0  0  0  0  0  0  0  0  0
   -2.0833    3.0970    0.0007 H   0  0  0  0  0  0  0  0  0  0  0  0
   -3.8396   -1.6587   -0.9201 H   0  0  0  0  0  0  0  0  0  0  0  0
   -0.3895    4.3392   -0.8238 H   0  0  0  0  0  0  0  0  0  0  0  0
  1  5  1  0  0  0  0
  1 22  1  0  0  0  0
  2  7  1  0  0  0  0
  2 23  1  0  0  0  0
  3  6  1  0  0  0  0
  4  6  2  0  0  0  0
  5  9  1  0  0  0  0
  5 20  1  0  0  0  0
  6 10  1  0  0  0  0
  7 11  1  0  0  0  0
  7 21  1  0  0  0  0
  8  9  2  0  0  0  0
  8 10  1  0  0  0  0
  8 14  1  0  0  0  0
  9 12  1  0  0  0  0
 10 13  2  0  0  0  0
 11 12  2  0  0  0  0
 11 13  1  0  0  0  0
 12 15  1  0  0  0  0
 13 16  1  0  0  0  0
 14 17  1  0  0  0  0
 14 18  1  0  0  0  0
 14 19  1  0  0  0  0
M  CHG  2   3  -1   6   1
M  END
> <PUBCHEM_COMPOUND_CID>
9543058

> <PUBCHEM_CONFORMER_RMSD>
0.6

> <PUBCHEM_CONFORMER_DIVERSEORDER>
1
2

> <PUBCHEM_MMFF94_PARTIAL_CHARGES>
20
1 -0.38
10 0.13
11 0.1
12 -0.15
13 -0.15
14 0.14
15 0.15
16 0.15
2 -0.38
20 0.4
21 0.4
22 0.4
23 0.4
3 -0.52
4 -0.52
5 -0.52
6 0.91
7 -0.52
8 -0.14
9 0.1

> <PUBCHEM_EFFECTIVE_ROTOR_COUNT>
3

> <PUBCHEM_PHARMACOPHORE_FEATURES>
6
1 1 anion
1 2 anion
1 3 acceptor
1 3 anion
1 4 acceptor
6 8 9 10 11 12 13 rings

> <PUBCHEM_HEAVY_ATOM_COUNT>
14

> <PUBCHEM_ATOM_DEF_STEREO_COUNT>
0

> <PUBCHEM_ATOM_UDEF_STEREO_COUNT>
0

> <PUBCHEM_BOND_DEF_STEREO_COUNT>
0

> <PUBCHEM_BOND_UDEF_STEREO_COUNT>
0

> <PUBCHEM_ISOTOPIC_ATOM_COUNT>
0

> <PUBCHEM_COMPONENT_COUNT>
1

> <PUBCHEM_CACTVS_TAUTO_COUNT>
1

> <PUBCHEM_CONFORMER_ID>
00919D9200000001

> <PUBCHEM_MMFF94_ENERGY>
62.9616

> <PUBCHEM_FEATURE_SELFOVERLAP>
30.528

> <PUBCHEM_SHAPE_FINGERPRINT>
1 1 16825871279457383125
10967382 1 18194402190932970886
13380535 76 17760658357142059094
14648413 74 17692533308333126443
16945 1 18194402427214246414
193761 8 18050568739858804039
20510252 161 18334860532642773016
20871998 184 18259987106015583822
21040471 1 17906452486741445284
21524375 3 17407954848188841361
2334 1 18338516331042113781
23402539 116 18261684662064882446
23526114 1 17257932594048421612
23552423 10 18271802488401914966
23559900 14 17612868610947000838
241688 4 18410293601223054113
2748010 2 18337681823233698821
3071541 12 17833828275022416885
3071541 158 18127699227407808597
7364860 26 17761209921327069649
81228 2 18340762745030178593

> <PUBCHEM_SHAPE_MULTIPOLES>
249.69
3.74
3.57
0.57
1.67
1.86
0
-1.01
0.01
-2.33
0.01
-0.01
-0.02
0.01

> <PUBCHEM_SHAPE_SELFOVERLAP>
522.368

> <PUBCHEM_SHAPE_VOLUME>
142.5

> <PUBCHEM_COORDINATE_TYPE>
2
5
10

$$$$

