3246291
  -OEChem-07051213062D

 40 41  0     1  0  0  0  0  0999 V2000
    2.5369    0.2327    0.0000 O   0  0  0  0  0  0  0  0  0  0  0  0
    3.4030    1.7327    0.0000 O   0  0  0  0  0  0  0  0  0  0  0  0
   10.3972    1.7568    0.0000 O   0  0  0  0  0  0  0  0  0  0  0  0
    5.1350   -0.2673    0.0000 C   0  0  2  0  0  0  0  0  0  0  0  0
    4.2690    0.2327    0.0000 C   0  0  0  0  0  0  0  0  0  0  0  0
    5.1350   -1.2673    0.0000 C   0  0  0  0  0  0  0  0  0  0  0  0
    6.0010    0.2327    0.0000 C   0  0  0  0  0  0  0  0  0  0  0  0
    3.7690   -0.6334    0.0000 C   0  0  0  0  0  0  0  0  0  0  0  0
    4.7690    1.0987    0.0000 C   0  0  0  0  0  0  0  0  0  0  0  0
    3.4030    0.7327    0.0000 C   0  0  0  0  0  0  0  0  0  0  0  0
    6.8671   -0.2673    0.0000 C   0  0  0  0  0  0  0  0  0  0  0  0
    6.0010   -1.7673    0.0000 C   0  0  0  0  0  0  0  0  0  0  0  0
    6.0010    1.2327    0.0000 C   0  0  0  0  0  0  0  0  0  0  0  0
    7.7331    0.2327    0.0000 C   0  0  0  0  0  0  0  0  0  0  0  0
    7.7331    1.2327    0.0000 C   0  0  0  0  0  0  0  0  0  0  0  0
    6.8671    1.7327    0.0000 C   0  0  0  0  0  0  0  0  0  0  0  0
    8.6270   -0.3020    0.0000 C   0  0  0  0  0  0  0  0  0  0  0  0
    8.6270    1.7673    0.0000 C   0  0  0  0  0  0  0  0  0  0  0  0
    9.5331    0.2119    0.0000 C   0  0  0  0  0  0  0  0  0  0  0  0
    9.5331    1.2535    0.0000 C   0  0  0  0  0  0  0  0  0  0  0  0
    5.6720   -0.5773    0.0000 H   0  0  0  0  0  0  0  0  0  0  0  0
    4.5244   -1.1597    0.0000 H   0  0  0  0  0  0  0  0  0  0  0  0
    4.9230   -1.8499    0.0000 H   0  0  0  0  0  0  0  0  0  0  0  0
    3.2320   -0.3234    0.0000 H   0  0  0  0  0  0  0  0  0  0  0  0
    3.4590   -1.1703    0.0000 H   0  0  0  0  0  0  0  0  0  0  0  0
    4.3059   -0.9434    0.0000 H   0  0  0  0  0  0  0  0  0  0  0  0
    5.3059    0.7887    0.0000 H   0  0  0  0  0  0  0  0  0  0  0  0
    5.0790    1.6356    0.0000 H   0  0  0  0  0  0  0  0  0  0  0  0
    4.2320    1.4087    0.0000 H   0  0  0  0  0  0  0  0  0  0  0  0
    6.8671   -0.8873    0.0000 H   0  0  0  0  0  0  0  0  0  0  0  0
    5.6910   -2.3043    0.0000 H   0  0  0  0  0  0  0  0  0  0  0  0
    6.5380   -2.0773    0.0000 H   0  0  0  0  0  0  0  0  0  0  0  0
    6.3110   -1.2304    0.0000 H   0  0  0  0  0  0  0  0  0  0  0  0
    5.4641    1.5427    0.0000 H   0  0  0  0  0  0  0  0  0  0  0  0
    6.8671    2.3527    0.0000 H   0  0  0  0  0  0  0  0  0  0  0  0
    8.6199   -0.9220    0.0000 H   0  0  0  0  0  0  0  0  0  0  0  0
    2.0000    0.5427    0.0000 H   0  0  0  0  0  0  0  0  0  0  0  0
    8.6199    2.3873    0.0000 H   0  0  0  0  0  0  0  0  0  0  0  0
   10.0688   -0.1002    0.0000 H   0  0  0  0  0  0  0  0  0  0  0  0
   10.9353    1.4489    0.0000 H   0  0  0  0  0  0  0  0  0  0  0  0
  1 10  1  0  0  0  0
  1 37  1  0  0  0  0
  2 10  2  0  0  0  0
  3 20  1  0  0  0  0
  3 40  1  0  0  0  0
  4  5  1  0  0  0  0
  4  6  1  1  0  0  0
  4  7  1  0  0  0  0
  4 21  1  0  0  0  0
  5  8  1  0  0  0  0
  5  9  1  0  0  0  0
  5 10  1  0  0  0  0
  6 12  1  0  0  0  0
  6 22  1  0  0  0  0
  6 23  1  0  0  0  0
  7 11  2  0  0  0  0
  7 13  1  0  0  0  0
  8 24  1  0  0  0  0
  8 25  1  0  0  0  0
  8 26  1  0  0  0  0
  9 27  1  0  0  0  0
  9 28  1  0  0  0  0
  9 29  1  0  0  0  0
 11 14  1  0  0  0  0
 11 30  1  0  0  0  0
 12 31  1  0  0  0  0
 12 32  1  0  0  0  0
 12 33  1  0  0  0  0
 13 16  2  0  0  0  0
 13 34  1  0  0  0  0
 14 15  2  0  0  0  0
 14 17  1  0  0  0  0
 15 16  1  0  0  0  0
 15 18  1  0  0  0  0
 16 35  1  0  0  0  0
 17 19  2  0  0  0  0
 17 36  1  0  0  0  0
 18 20  2  0  0  0  0
 18 38  1  0  0  0  0
 19 20  1  0  0  0  0
 19 39  1  0  0  0  0
M  END
> <PUBCHEM_COMPOUND_CID>
3246291

> <PUBCHEM_COMPOUND_CANONICALIZED>
1

> <PUBCHEM_CACTVS_COMPLEXITY>
350

> <PUBCHEM_CACTVS_HBOND_ACCEPTOR>
3

> <PUBCHEM_CACTVS_HBOND_DONOR>
2

> <PUBCHEM_CACTVS_ROTATABLE_BOND>
4

> <PUBCHEM_CACTVS_SUBSKEYS>
AAADceB4MAAAAAAAAAAAAAAAAAAAAAAAAAAwYAAAAAAAAADBUAAAGgAACAAADwSAmAAyDsAAAgCIAiDSCAACAAAgIAAIiAEGCIgIJjKCERKAcAAkwBEImAeIyPCP4AADAAAQAADAAAYAACAAAAAAAAAAAA==

> <PUBCHEM_IUPAC_OPENEYE_NAME>
(3R)-3-(6-hydroxy-2-naphthyl)-2,2-dimethyl-pentanoic acid

> <PUBCHEM_IUPAC_CAS_NAME>
(3R)-3-(6-hydroxy-2-naphthalenyl)-2,2-dimethylpentanoic acid

> <PUBCHEM_IUPAC_NAME>
(3R)-3-(6-hydroxynaphthalen-2-yl)-2,2-dimethylpentanoic acid

> <PUBCHEM_IUPAC_SYSTEMATIC_NAME>
(3R)-2,2-dimethyl-3-(6-oxidanylnaphthalen-2-yl)pentanoic acid

> <PUBCHEM_IUPAC_TRADITIONAL_NAME>
(3R)-3-(6-hydroxy-2-naphthyl)-2,2-dimethyl-valeric acid

> <PUBCHEM_IUPAC_INCHI>
InChI=1S/C17H20O3/c1-4-15(17(2,3)16(19)20)13-6-5-12-10-14(18)8-7-11(12)9-13/h5-10,15,18H,4H2,1-3H3,(H,19,20)/t15-/m1/s1

> <PUBCHEM_IUPAC_INCHIKEY>
OKLBSPJQRWHBMY-OAHLLOKOSA-N

> <PUBCHEM_XLOGP3_AA>
4.4

> <PUBCHEM_EXACT_MASS>
272.141245

> <PUBCHEM_MOLECULAR_FORMULA>
C17H20O3

> <PUBCHEM_MOLECULAR_WEIGHT>
272.3389

> <PUBCHEM_OPENEYE_CAN_SMILES>
CCC(C1=CC2=C(C=C1)C=C(C=C2)O)C(C)(C)C(=O)O

> <PUBCHEM_OPENEYE_ISO_SMILES>
CC[C@H](C1=CC2=C(C=C1)C=C(C=C2)O)C(C)(C)C(=O)O

> <PUBCHEM_CACTVS_TPSA>
57.5

> <PUBCHEM_MONOISOTOPIC_WEIGHT>
272.141245

> <PUBCHEM_TOTAL_CHARGE>
0

> <PUBCHEM_HEAVY_ATOM_COUNT>
20

> <PUBCHEM_ATOM_DEF_STEREO_COUNT>
1

> <PUBCHEM_ATOM_UDEF_STEREO_COUNT>
0

> <PUBCHEM_BOND_DEF_STEREO_COUNT>
0

> <PUBCHEM_BOND_UDEF_STEREO_COUNT>
0

> <PUBCHEM_ISOTOPIC_ATOM_COUNT>
0

> <PUBCHEM_COMPONENT_COUNT>
1

> <PUBCHEM_CACTVS_TAUTO_COUNT>
3

> <PUBCHEM_COORDINATE_TYPE>
1
5
255

> <PUBCHEM_BONDANNOTATIONS>
11  14  8
13  16  8
14  15  8
14  17  8
15  16  8
15  18  8
17  19  8
18  20  8
19  20  8
4  6  5
7  11  8
7  13  8

$$$$

