4192
  -OEChem-07051212533D

 36 39  0     0  0  0  0  0  0999 V2000
   -0.5811   -4.5922    0.9239 Cl  0  0  0  0  0  0  0  0  0  0  0  0
   -2.8905    2.1092    1.3591 F   0  0  0  0  0  0  0  0  0  0  0  0
    2.2445    0.5305   -0.0837 N   0  0  0  0  0  0  0  0  0  0  0  0
   -0.3743    1.7060    0.9627 N   0  0  0  0  0  0  0  0  0  0  0  0
    3.8094    1.9713   -0.7808 N   0  0  0  0  0  0  0  0  0  0  0  0
    1.5159   -0.6714    0.0871 C   0  0  0  0  0  0  0  0  0  0  0  0
    1.9958    1.7289    0.5523 C   0  0  0  0  0  0  0  0  0  0  0  0
    0.1594   -0.6715    0.4680 C   0  0  0  0  0  0  0  0  0  0  0  0
    0.9314    1.8921    1.5679 C   0  0  0  0  0  0  0  0  0  0  0  0
   -0.7038    0.5567    0.4785 C   0  0  0  0  0  0  0  0  0  0  0  0
    3.3761    0.7317   -0.8425 C   0  0  0  0  0  0  0  0  0  0  0  0
    2.9563    2.5974    0.0841 C   0  0  0  0  0  0  0  0  0  0  0  0
    2.1855   -1.8924   -0.0959 C   0  0  0  0  0  0  0  0  0  0  0  0
   -0.4723   -1.8974    0.7415 C   0  0  0  0  0  0  0  0  0  0  0  0
   -2.0571    0.4720   -0.1473 C   0  0  0  0  0  0  0  0  0  0  0  0
    3.9612   -0.2466   -1.7891 C   0  0  0  0  0  0  0  0  0  0  0  0
    1.5338   -3.1001    0.1564 C   0  0  0  0  0  0  0  0  0  0  0  0
    0.2128   -3.1023    0.5894 C   0  0  0  0  0  0  0  0  0  0  0  0
   -3.0888    1.2654    0.3363 C   0  0  0  0  0  0  0  0  0  0  0  0
   -2.2646   -0.4009   -1.2069 C   0  0  0  0  0  0  0  0  0  0  0  0
   -4.3515    1.1844   -0.2510 C   0  0  0  0  0  0  0  0  0  0  0  0
   -3.5273   -0.4818   -1.7940 C   0  0  0  0  0  0  0  0  0  0  0  0
   -4.5708    0.3109   -1.3160 C   0  0  0  0  0  0  0  0  0  0  0  0
    1.0790    1.2100    2.4143 H   0  0  0  0  0  0  0  0  0  0  0  0
    0.9744    2.9047    1.9855 H   0  0  0  0  0  0  0  0  0  0  0  0
    3.0902    3.6359    0.3507 H   0  0  0  0  0  0  0  0  0  0  0  0
    3.2420   -1.9754   -0.3067 H   0  0  0  0  0  0  0  0  0  0  0  0
   -1.5074   -1.9213    1.0775 H   0  0  0  0  0  0  0  0  0  0  0  0
    4.7011   -0.8850   -1.2982 H   0  0  0  0  0  0  0  0  0  0  0  0
    3.2078   -0.8456   -2.3078 H   0  0  0  0  0  0  0  0  0  0  0  0
    4.5024    0.2936   -2.5759 H   0  0  0  0  0  0  0  0  0  0  0  0
    2.0830   -4.0317    0.0436 H   0  0  0  0  0  0  0  0  0  0  0  0
   -1.4685   -1.0020   -1.6357 H   0  0  0  0  0  0  0  0  0  0  0  0
   -5.1636    1.8021    0.1208 H   0  0  0  0  0  0  0  0  0  0  0  0
   -3.6960   -1.1547   -2.6298 H   0  0  0  0  0  0  0  0  0  0  0  0
   -5.5533    0.2496   -1.7746 H   0  0  0  0  0  0  0  0  0  0  0  0
  1 18  1  0  0  0  0
  2 19  1  0  0  0  0
  3  6  1  0  0  0  0
  3  7  1  0  0  0  0
  3 11  1  0  0  0  0
  4  9  1  0  0  0  0
  4 10  2  0  0  0  0
  5 11  2  0  0  0  0
  5 12  1  0  0  0  0
  6  8  2  0  0  0  0
  6 13  1  0  0  0  0
  7  9  1  0  0  0  0
  7 12  2  0  0  0  0
  8 10  1  0  0  0  0
  8 14  1  0  0  0  0
  9 24  1  0  0  0  0
  9 25  1  0  0  0  0
 10 15  1  0  0  0  0
 11 16  1  0  0  0  0
 12 26  1  0  0  0  0
 13 17  2  0  0  0  0
 13 27  1  0  0  0  0
 14 18  2  0  0  0  0
 14 28  1  0  0  0  0
 15 19  1  0  0  0  0
 15 20  2  0  0  0  0
 16 29  1  0  0  0  0
 16 30  1  0  0  0  0
 16 31  1  0  0  0  0
 17 18  1  0  0  0  0
 17 32  1  0  0  0  0
 19 21  2  0  0  0  0
 20 22  1  0  0  0  0
 20 33  1  0  0  0  0
 21 23  1  0  0  0  0
 21 34  1  0  0  0  0
 22 23  2  0  0  0  0
 22 35  1  0  0  0  0
 23 36  1  0  0  0  0
M  END
> <PUBCHEM_COMPOUND_CID>
4192

> <PUBCHEM_CONFORMER_RMSD>
0.6

> <PUBCHEM_CONFORMER_DIVERSEORDER>
1
6
4
8
2
5
7
3

> <PUBCHEM_MMFF94_PARTIAL_CHARGES>
31
1 -0.18
10 0.28
11 0.01
12 0.08
13 -0.15
14 -0.15
15 0.09
16 0.18
17 -0.15
18 0.18
19 0.19
2 -0.19
20 -0.15
21 -0.15
22 -0.15
23 -0.15
26 0.15
27 0.15
28 0.15
3 0.33
32 0.15
33 0.15
34 0.15
35 0.15
36 0.15
4 -0.7
5 -0.57
6 -0.02
7 -0.33
8 0.09
9 0.43

> <PUBCHEM_EFFECTIVE_ROTOR_COUNT>
1.2

> <PUBCHEM_PHARMACOPHORE_FEATURES>
6
1 4 acceptor
3 3 5 11 cation
5 3 5 7 11 12 rings
6 15 19 20 21 22 23 rings
6 6 8 13 14 17 18 rings
7 3 4 6 7 8 9 10 rings

> <PUBCHEM_HEAVY_ATOM_COUNT>
23

> <PUBCHEM_ATOM_DEF_STEREO_COUNT>
0

> <PUBCHEM_ATOM_UDEF_STEREO_COUNT>
0

> <PUBCHEM_BOND_DEF_STEREO_COUNT>
0

> <PUBCHEM_BOND_UDEF_STEREO_COUNT>
0

> <PUBCHEM_ISOTOPIC_ATOM_COUNT>
0

> <PUBCHEM_COMPONENT_COUNT>
1

> <PUBCHEM_CACTVS_TAUTO_COUNT>
1

> <PUBCHEM_CONFORMER_ID>
0000106000000001

> <PUBCHEM_MMFF94_ENERGY>
84.9562

> <PUBCHEM_FEATURE_SELFOVERLAP>
30.499

> <PUBCHEM_SHAPE_FINGERPRINT>
10165383 225 18201704172154387893
10693767 8 18043534017362487934
108634 29 18048604711544170926
1100329 8 18341054107523407778
11370993 70 18342181007719189324
11387372 6 6982197212716293052
12035759 4 18114176505411639881
121448 382 18265060141292202979
12553582 1 17690285232499206059
12716301 132 17906473029770508842
12730499 353 18343015597680349083
12788726 201 17458908262421537681
13004483 165 16756921996243532531
13009979 54 17534626215881836571
13140716 1 18410012181980847667
13583140 156 17059782092010191424
13681431 1 17696491940887639363
15420108 30 16672723569590713072
15475509 35 5111715934372581469
16752209 62 17169002230359067421
16945 1 18340205301208844000
17357779 13 17472988293839675999
1813 80 17688031229003483071
18186145 218 18411982450978154205
19591789 44 18338783520952713387
19862831 5 18113898268850937093
20600515 1 15866338313709778859
21285901 2 17544742444449161830
21452121 99 18125732192520959986
21634736 98 18188211008407889463
22112679 90 17679308721871423297
22182313 1 17538840287864604424
22393880 68 18333740134431118949
2255824 54 18268156529102820411
22907989 373 17766270973117497692
23419403 2 16527713150999407243
23559900 14 18126019392963571083
23598291 2 17972315380839736509
238 59 18412826914731699387
25 1 18411981364430289484
2748010 2 17252875953068023152
3060560 45 18343027679049209332
3323516 105 18261679151711207031
352729 6 18265894649163902290
4409770 3 17762627187763015706
474 4 18341337763931248753
484989 97 18341603768341690811
633830 44 18334857208153833325
6442390 28 18270957943381607891
7471813 234 17975432500320068846
81228 2 17552630362204117114
84936 182 18335990838690494312
9981440 41 16595090961383027616

> <PUBCHEM_SHAPE_MULTIPOLES>
452.98
7.09
4.07
1.42
3.65
5.15
-0.32
-4.65
-3.9
-1.42
1.78
0.23
-0.23
-0.23

> <PUBCHEM_SHAPE_SELFOVERLAP>
1008.148

> <PUBCHEM_SHAPE_VOLUME>
242.5

> <PUBCHEM_COORDINATE_TYPE>
2
5
10

$$$$

