440035
  -OEChem-07051212482D

 75 78  0     0  0  0  0  0  0999 V2000
    8.8575   -1.1537    0.0000 Mg  0  2  0  0  0  0  0  0  0  0  0  0
    7.9909    5.2164    0.0000 O   0  0  0  0  0  0  0  0  0  0  0  0
    6.5959    4.1898    0.0000 O   0  0  0  0  0  0  0  0  0  0  0  0
    2.4934   -0.2001    0.0000 O   0  0  0  0  0  0  0  0  0  0  0  0
    3.5422    1.1784    0.0000 O   0  0  0  0  0  0  0  0  0  0  0  0
    8.8626    0.2098    0.0000 N   0  5  0  0  0  0  0  0  0  0  0  0
    8.8953   -2.4632    0.0000 N   0  5  0  0  0  0  0  0  0  0  0  0
    7.4280   -1.1267    0.0000 N   0  0  0  0  0  0  0  0  0  0  0  0
   10.3609   -1.1267    0.0000 N   0  0  0  0  0  0  0  0  0  0  0  0
    8.3741    1.7735    0.0000 C   0  0  0  0  0  0  0  0  0  0  0  0
    8.0799    0.8291    0.0000 C   0  0  0  0  0  0  0  0  0  0  0  0
    9.6779    0.8618    0.0000 C   0  0  0  0  0  0  0  0  0  0  0  0
    9.3512    1.7735    0.0000 C   0  0  0  0  0  0  0  0  0  0  0  0
    8.1126   -3.0826    0.0000 C   0  0  0  0  0  0  0  0  0  0  0  0
    7.7814    2.5789    0.0000 C   0  0  0  0  0  0  0  0  0  0  0  0
    9.6779   -3.0499    0.0000 C   0  0  0  0  0  0  0  0  0  0  0  0
    5.9297   -0.6382    0.0000 C   0  0  0  0  0  0  0  0  0  0  0  0
    6.8742   -0.3768    0.0000 C   0  0  0  0  0  0  0  0  0  0  0  0
    7.1356    0.5677    0.0000 C   0  0  0  0  0  0  0  0  0  0  0  0
    8.4067   -3.9943    0.0000 C   0  0  0  0  0  0  0  0  0  0  0  0
    5.9297   -1.6152    0.0000 C   0  0  0  0  0  0  0  0  0  0  0  0
    6.8742   -1.8767    0.0000 C   0  0  0  0  0  0  0  0  0  0  0  0
    9.3839   -3.9943    0.0000 C   0  0  0  0  0  0  0  0  0  0  0  0
   10.6223    0.5677    0.0000 C   0  0  0  0  0  0  0  0  0  0  0  0
    7.1682   -2.7884    0.0000 C   0  0  0  0  0  0  0  0  0  0  0  0
    5.1339   -0.0327    0.0000 C   0  0  0  0  0  0  0  0  0  0  0  0
    9.9268    2.5912    0.0000 C   0  0  0  0  0  0  0  0  0  0  0  0
   10.9148   -0.3441    0.0000 C   0  0  0  0  0  0  0  0  0  0  0  0
   10.6550   -2.7884    0.0000 C   0  0  0  0  0  0  0  0  0  0  0  0
   10.9475   -1.8440    0.0000 C   0  0  0  0  0  0  0  0  0  0  0  0
    8.1825    3.4950    0.0000 C   0  0  0  0  0  0  0  0  0  0  0  0
   11.8608   -1.5826    0.0000 C   0  0  0  0  0  0  0  0  0  0  0  0
   11.8608   -0.6056    0.0000 C   0  0  0  0  0  0  0  0  0  0  0  0
    7.8181   -4.8027    0.0000 C   0  0  0  0  0  0  0  0  0  0  0  0
    5.1338   -2.2207    0.0000 C   0  0  0  0  0  0  0  0  0  0  0  0
    4.2116   -0.4191    0.0000 C   0  0  0  0  0  0  0  0  0  0  0  0
    9.9766   -4.7997    0.0000 C   0  0  0  0  0  0  0  0  0  0  0  0
   12.6593   -2.1846    0.0000 C   0  0  0  0  0  0  0  0  0  0  0  0
    7.5898    4.3004    0.0000 C   0  0  0  0  0  0  0  0  0  0  0  0
   12.6565    0.0000    0.0000 C   0  0  0  0  0  0  0  0  0  0  0  0
    3.4157    0.1864    0.0000 C   0  0  0  0  0  0  0  0  0  0  0  0
    9.5756   -5.7157    0.0000 C   0  0  0  0  0  0  0  0  0  0  0  0
   13.5789   -0.3863    0.0000 C   0  0  0  0  0  0  0  0  0  0  0  0
    7.2652    2.9225    0.0000 H   0  0  0  0  0  0  0  0  0  0  0  0
    7.3534    2.1303    0.0000 H   0  0  0  0  0  0  0  0  0  0  0  0
    6.6972    1.0061    0.0000 H   0  0  0  0  0  0  0  0  0  0  0  0
   11.0588    1.0079    0.0000 H   0  0  0  0  0  0  0  0  0  0  0  0
    6.7320   -3.2290    0.0000 H   0  0  0  0  0  0  0  0  0  0  0  0
    5.5893    0.3880    0.0000 H   0  0  0  0  0  0  0  0  0  0  0  0
    4.7986    0.4888    0.0000 H   0  0  0  0  0  0  0  0  0  0  0  0
   10.4338    2.2344    0.0000 H   0  0  0  0  0  0  0  0  0  0  0  0
   10.2836    3.0982    0.0000 H   0  0  0  0  0  0  0  0  0  0  0  0
    9.4198    2.9481    0.0000 H   0  0  0  0  0  0  0  0  0  0  0  0
   11.0848   -3.2353    0.0000 H   0  0  0  0  0  0  0  0  0  0  0  0
    8.6986    3.1514    0.0000 H   0  0  0  0  0  0  0  0  0  0  0  0
    8.6105    3.9436    0.0000 H   0  0  0  0  0  0  0  0  0  0  0  0
    7.3168   -4.4378    0.0000 H   0  0  0  0  0  0  0  0  0  0  0  0
    7.4531   -5.3040    0.0000 H   0  0  0  0  0  0  0  0  0  0  0  0
    8.3193   -5.1677    0.0000 H   0  0  0  0  0  0  0  0  0  0  0  0
    4.7584   -1.7272    0.0000 H   0  0  0  0  0  0  0  0  0  0  0  0
    4.6404   -2.5961    0.0000 H   0  0  0  0  0  0  0  0  0  0  0  0
    5.5092   -2.7141    0.0000 H   0  0  0  0  0  0  0  0  0  0  0  0
    3.7562   -0.8399    0.0000 H   0  0  0  0  0  0  0  0  0  0  0  0
    4.5468   -0.9407    0.0000 H   0  0  0  0  0  0  0  0  0  0  0  0
   10.5928   -4.7311    0.0000 H   0  0  0  0  0  0  0  0  0  0  0  0
   12.2860   -2.6796    0.0000 H   0  0  0  0  0  0  0  0  0  0  0  0
   13.1543   -2.5578    0.0000 H   0  0  0  0  0  0  0  0  0  0  0  0
   13.0325   -1.6895    0.0000 H   0  0  0  0  0  0  0  0  0  0  0  0
   12.5780    0.6150    0.0000 H   0  0  0  0  0  0  0  0  0  0  0  0
    8.9594   -5.7844    0.0000 H   0  0  0  0  0  0  0  0  0  0  0  0
    9.9431   -6.2151    0.0000 H   0  0  0  0  0  0  0  0  0  0  0  0
   13.6574   -1.0013    0.0000 H   0  0  0  0  0  0  0  0  0  0  0  0
   14.0722   -0.0108    0.0000 H   0  0  0  0  0  0  0  0  0  0  0  0
    7.6235    5.7157    0.0000 H   0  0  0  0  0  0  0  0  0  0  0  0
    2.0000    0.1754    0.0000 H   0  0  0  0  0  0  0  0  0  0  0  0
  2 39  1  0  0  0  0
  2 74  1  0  0  0  0
  3 39  2  0  0  0  0
  4 41  1  0  0  0  0
  4 75  1  0  0  0  0
  5 41  2  0  0  0  0
  6 11  1  0  0  0  0
  6 12  1  0  0  0  0
  7 14  1  0  0  0  0
  7 16  1  0  0  0  0
  8 18  2  0  0  0  0
  8 22  1  0  0  0  0
  9 28  2  0  0  0  0
  9 30  1  0  0  0  0
 10 11  1  0  0  0  0
 10 13  2  0  0  0  0
 10 15  1  0  0  0  0
 11 19  2  0  0  0  0
 12 13  1  0  0  0  0
 12 24  2  0  0  0  0
 13 27  1  0  0  0  0
 14 20  2  0  0  0  0
 14 25  1  0  0  0  0
 15 31  1  0  0  0  0
 15 44  1  0  0  0  0
 15 45  1  0  0  0  0
 16 23  2  0  0  0  0
 16 29  1  0  0  0  0
 17 18  1  0  0  0  0
 17 21  2  0  0  0  0
 17 26  1  0  0  0  0
 18 19  1  0  0  0  0
 19 46  1  0  0  0  0
 20 23  1  0  0  0  0
 20 34  1  0  0  0  0
 21 22  1  0  0  0  0
 21 35  1  0  0  0  0
 22 25  2  0  0  0  0
 23 37  1  0  0  0  0
 24 28  1  0  0  0  0
 24 47  1  0  0  0  0
 25 48  1  0  0  0  0
 26 36  1  0  0  0  0
 26 49  1  0  0  0  0
 26 50  1  0  0  0  0
 27 51  1  0  0  0  0
 27 52  1  0  0  0  0
 27 53  1  0  0  0  0
 28 33  1  0  0  0  0
 29 30  2  0  0  0  0
 29 54  1  0  0  0  0
 30 32  1  0  0  0  0
 31 39  1  0  0  0  0
 31 55  1  0  0  0  0
 31 56  1  0  0  0  0
 32 33  2  0  0  0  0
 32 38  1  0  0  0  0
 33 40  1  0  0  0  0
 34 57  1  0  0  0  0
 34 58  1  0  0  0  0
 34 59  1  0  0  0  0
 35 60  1  0  0  0  0
 35 61  1  0  0  0  0
 35 62  1  0  0  0  0
 36 41  1  0  0  0  0
 36 63  1  0  0  0  0
 36 64  1  0  0  0  0
 37 42  2  0  0  0  0
 37 65  1  0  0  0  0
 38 66  1  0  0  0  0
 38 67  1  0  0  0  0
 38 68  1  0  0  0  0
 40 43  2  0  0  0  0
 40 69  1  0  0  0  0
 42 70  1  0  0  0  0
 42 71  1  0  0  0  0
 43 72  1  0  0  0  0
 43 73  1  0  0  0  0
M  CHG  3   1   2   6  -1   7  -1
M  END
> <PUBCHEM_COMPOUND_CID>
440035

> <PUBCHEM_COMPOUND_CANONICALIZED>
1

> <PUBCHEM_CACTVS_COMPLEXITY>
1580

> <PUBCHEM_CACTVS_HBOND_ACCEPTOR>
8

> <PUBCHEM_CACTVS_HBOND_DONOR>
2

> <PUBCHEM_CACTVS_ROTATABLE_BOND>
8

> <PUBCHEM_CACTVS_SUBSKEYS>
AAADcfB/uAAAACAAAAAAAAAAAAAAAWIECAAAAAAAAAAAAACBgAAAHgAACAAADAiBngACiJIIEgCoAyTyTACCgCAhAiAImCEwRJgIIHLAkJGEQAhkgADIyAeYWQIOgAAAAAAAAAAAAAAAAAAAAAAAAAAAAA==

> <PUBCHEM_IUPAC_OPENEYE_NAME>
magnesium 3-[18-(2-carboxyethyl)-3,8,13,17-tetramethyl-7,12-divinyl-porphyrin-21,23-diid-2-yl]propanoic acid

> <PUBCHEM_IUPAC_CAS_NAME>
magnesium 3-[18-(2-carboxyethyl)-7,12-bis(ethenyl)-3,8,13,17-tetramethyl-2-porphyrin-21,23-diidyl]propanoic acid

> <PUBCHEM_IUPAC_NAME>
magnesium 3-[18-(2-carboxyethyl)-7,12-bis(ethenyl)-3,8,13,17-tetramethylporphyrin-21,23-diid-2-yl]propanoic acid

> <PUBCHEM_IUPAC_SYSTEMATIC_NAME>
magnesium 3-[7,12-bis(ethenyl)-18-(3-hydroxy-3-oxopropyl)-3,8,13,17-tetramethyl-porphyrin-21,23-diid-2-yl]propanoic acid

> <PUBCHEM_IUPAC_TRADITIONAL_NAME>
magnesium 3-[18-(2-carboxyethyl)-3,8,13,17-tetramethyl-7,12-divinyl-porphine-21,23-diid-2-yl]propionic acid

> <PUBCHEM_IUPAC_INCHI>
InChI=1S/C34H34N4O4.Mg/c1-7-21-17(3)25-13-26-19(5)23(9-11-33(39)40)31(37-26)16-32-24(10-12-34(41)42)20(6)28(38-32)15-30-22(8-2)18(4)27(36-30)14-29(21)35-25;/h7-8,13-16H,1-2,9-12H2,3-6H3,(H4,35,36,37,38,39,40,41,42);/q;+2/p-2

> <PUBCHEM_IUPAC_INCHIKEY>
REJJDEGSUOCEEW-UHFFFAOYSA-L

> <PUBCHEM_EXACT_MASS>
584.227397

> <PUBCHEM_MOLECULAR_FORMULA>
C34H32MgN4O4

> <PUBCHEM_MOLECULAR_WEIGHT>
584.94728

> <PUBCHEM_OPENEYE_CAN_SMILES>
CC1=C(C2=CC3=NC(=CC4=C(C(=C([N-]4)C=C5C(=C(C(=N5)C=C1[N-]2)C)CCC(=O)O)CCC(=O)O)C)C(=C3C)C=C)C=C.[Mg+2]

> <PUBCHEM_OPENEYE_ISO_SMILES>
CC1=C(C2=CC3=NC(=CC4=C(C(=C([N-]4)C=C5C(=C(C(=N5)C=C1[N-]2)C)CCC(=O)O)CCC(=O)O)C)C(=C3C)C=C)C=C.[Mg+2]

> <PUBCHEM_CACTVS_TPSA>
101

> <PUBCHEM_MONOISOTOPIC_WEIGHT>
584.227397

> <PUBCHEM_TOTAL_CHARGE>
0

> <PUBCHEM_HEAVY_ATOM_COUNT>
43

> <PUBCHEM_ATOM_DEF_STEREO_COUNT>
0

> <PUBCHEM_ATOM_UDEF_STEREO_COUNT>
0

> <PUBCHEM_BOND_DEF_STEREO_COUNT>
0

> <PUBCHEM_BOND_UDEF_STEREO_COUNT>
0

> <PUBCHEM_ISOTOPIC_ATOM_COUNT>
0

> <PUBCHEM_COMPONENT_COUNT>
2

> <PUBCHEM_CACTVS_TAUTO_COUNT>
8

> <PUBCHEM_NONSTANDARDBOND>
1  6  7
1  7  7

> <PUBCHEM_COORDINATE_TYPE>
1
5
255

> <PUBCHEM_BONDANNOTATIONS>
10  11  8
10  13  8
11  19  8
12  13  8
12  24  8
14  20  8
14  25  8
16  23  8
16  29  8
18  19  8
20  23  8
22  25  8
24  28  8
29  30  8
6  11  8
6  12  8
7  14  8
7  16  8
8  18  8
8  22  8
9  28  8
9  30  8

$$$$

