5646
  -OEChem-06261200473D

 41 43  0     1  0  0  0  0  0999 V2000
   -0.5714    1.7446    0.3047 O   0  0  0  0  0  0  0  0  0  0  0  0
    1.7295   -1.7759   -0.6750 O   0  0  0  0  0  0  0  0  0  0  0  0
   -0.6138   -2.9301    0.6505 O   0  0  0  0  0  0  0  0  0  0  0  0
    4.1423    2.1344    0.3718 O   0  0  0  0  0  0  0  0  0  0  0  0
   -4.6430   -0.6784   -0.6398 O   0  0  0  0  0  0  0  0  0  0  0  0
    4.3110    0.1925   -1.9258 O   0  0  0  0  0  0  0  0  0  0  0  0
   -4.3363    1.9107   -1.2758 O   0  0  0  0  0  0  0  0  0  0  0  0
    0.7440   -0.1908    0.8605 C   0  0  2  0  0  0  0  0  0  0  0  0
   -0.6495   -0.5523    0.4419 C   0  0  0  0  0  0  0  0  0  0  0  0
    0.7290    1.2928    0.5457 C   0  0  0  0  0  0  0  0  0  0  0  0
    1.8717   -0.7789    0.0315 C   0  0  0  0  0  0  0  0  0  0  0  0
    3.2297   -0.0914    0.1822 C   0  0  2  0  0  0  0  0  0  0  0  0
   -1.3587    0.6231    0.1753 C   0  0  0  0  0  0  0  0  0  0  0  0
    0.9520   -0.4642    2.3535 C   0  0  0  0  0  0  0  0  0  0  0  0
   -1.2784   -1.7816    0.3587 C   0  0  0  0  0  0  0  0  0  0  0  0
    1.7985    2.0642    0.3308 C   0  0  0  0  0  0  0  0  0  0  0  0
    3.1377    1.4259    0.3157 C   0  0  0  0  0  0  0  0  0  0  0  0
   -2.6896    0.6196   -0.1871 C   0  0  0  0  0  0  0  0  0  0  0  0
   -2.6265   -1.8094   -0.0120 C   0  0  0  0  0  0  0  0  0  0  0  0
   -3.3256   -0.6191   -0.2822 C   0  0  0  0  0  0  0  0  0  0  0  0
    4.1829   -0.4833   -0.9060 C   0  0  0  0  0  0  0  0  0  0  0  0
   -3.3925    1.8636   -0.4625 C   0  0  0  0  0  0  0  0  0  0  0  0
   -3.3370   -3.1229   -0.1143 C   0  0  0  0  0  0  0  0  0  0  0  0
    4.9773   -1.7426   -0.6886 C   0  0  0  0  0  0  0  0  0  0  0  0
   -2.9834    3.1497    0.2464 C   0  0  0  0  0  0  0  0  0  0  0  0
    3.6503   -0.4405    1.1347 H   0  0  0  0  0  0  0  0  0  0  0  0
    0.9840   -1.5391    2.5637 H   0  0  0  0  0  0  0  0  0  0  0  0
    1.8943   -0.0421    2.7204 H   0  0  0  0  0  0  0  0  0  0  0  0
    0.1469   -0.0344    2.9623 H   0  0  0  0  0  0  0  0  0  0  0  0
    1.7210    3.1147    0.0798 H   0  0  0  0  0  0  0  0  0  0  0  0
   -3.8507   -3.3437    0.8267 H   0  0  0  0  0  0  0  0  0  0  0  0
   -4.0728   -3.1177   -0.9256 H   0  0  0  0  0  0  0  0  0  0  0  0
   -2.6497   -3.9456   -0.3372 H   0  0  0  0  0  0  0  0  0  0  0  0
    0.3208   -2.7348    0.8249 H   0  0  0  0  0  0  0  0  0  0  0  0
    5.6327   -1.6168    0.1769 H   0  0  0  0  0  0  0  0  0  0  0  0
    4.3068   -2.5904   -0.5321 H   0  0  0  0  0  0  0  0  0  0  0  0
    5.5933   -1.9433   -1.5698 H   0  0  0  0  0  0  0  0  0  0  0  0
   -5.0243    0.2112   -0.7036 H   0  0  0  0  0  0  0  0  0  0  0  0
   -2.2164    3.6677   -0.3338 H   0  0  0  0  0  0  0  0  0  0  0  0
   -2.6379    2.9460    1.2633 H   0  0  0  0  0  0  0  0  0  0  0  0
   -3.8625    3.7966    0.3322 H   0  0  0  0  0  0  0  0  0  0  0  0
  1 10  1  0  0  0  0
  1 13  1  0  0  0  0
  2 11  2  0  0  0  0
  3 15  1  0  0  0  0
  3 34  1  0  0  0  0
  4 17  2  0  0  0  0
  5 20  1  0  0  0  0
  5 38  1  0  0  0  0
  6 21  2  0  0  0  0
  7 22  2  0  0  0  0
  8  9  1  0  0  0  0
  8 10  1  0  0  0  0
  8 11  1  0  0  0  0
  8 14  1  0  0  0  0
  9 13  1  0  0  0  0
  9 15  2  0  0  0  0
 10 16  2  0  0  0  0
 11 12  1  0  0  0  0
 12 17  1  0  0  0  0
 12 21  1  0  0  0  0
 12 26  1  0  0  0  0
 13 18  2  0  0  0  0
 14 27  1  0  0  0  0
 14 28  1  0  0  0  0
 14 29  1  0  0  0  0
 15 19  1  0  0  0  0
 16 17  1  0  0  0  0
 16 30  1  0  0  0  0
 18 20  1  0  0  0  0
 18 22  1  0  0  0  0
 19 20  2  0  0  0  0
 19 23  1  0  0  0  0
 21 24  1  0  0  0  0
 22 25  1  0  0  0  0
 23 31  1  0  0  0  0
 23 32  1  0  0  0  0
 23 33  1  0  0  0  0
 24 35  1  0  0  0  0
 24 36  1  0  0  0  0
 24 37  1  0  0  0  0
 25 39  1  0  0  0  0
 25 40  1  0  0  0  0
 25 41  1  0  0  0  0
M  END
> <PUBCHEM_COMPOUND_CID>
5646

> <PUBCHEM_CONFORMER_RMSD>
0.6

> <PUBCHEM_CONFORMER_DIVERSEORDER>
4
17
16
18
2
9
14
1
7
10
5
11
15
3
12
8
13
6

> <PUBCHEM_MMFF94_PARTIAL_CHARGES>
27
1 -0.16
10 -0.06
11 0.45
12 0.18
13 0.08
15 0.08
16 -0.14
17 0.49
18 0.09
19 -0.14
2 -0.57
20 0.08
21 0.45
22 0.42
23 0.14
24 0.06
25 0.06
3 -0.53
30 0.15
34 0.45
38 0.45
4 -0.57
5 -0.53
6 -0.57
7 -0.57
8 0.34
9 -0.14

> <PUBCHEM_EFFECTIVE_ROTOR_COUNT>
2.4

> <PUBCHEM_PHARMACOPHORE_FEATURES>
11
1 1 acceptor
1 12 anion
1 2 acceptor
1 3 donor
1 4 acceptor
1 5 donor
1 6 acceptor
1 7 acceptor
5 1 8 9 10 13 rings
6 8 10 11 12 16 17 rings
6 9 13 15 18 19 20 rings

> <PUBCHEM_HEAVY_ATOM_COUNT>
25

> <PUBCHEM_ATOM_DEF_STEREO_COUNT>
0

> <PUBCHEM_ATOM_UDEF_STEREO_COUNT>
2

> <PUBCHEM_BOND_DEF_STEREO_COUNT>
0

> <PUBCHEM_BOND_UDEF_STEREO_COUNT>
0

> <PUBCHEM_ISOTOPIC_ATOM_COUNT>
0

> <PUBCHEM_COMPONENT_COUNT>
1

> <PUBCHEM_CACTVS_TAUTO_COUNT>
147

> <PUBCHEM_CONFORMER_ID>
0000160E00000004

> <PUBCHEM_MMFF94_ENERGY>
72.2136

> <PUBCHEM_FEATURE_SELFOVERLAP>
56.02

> <PUBCHEM_SHAPE_FINGERPRINT>
10498660 4 18271817860195427637
10863032 1 18409730689913827654
10967382 1 18194690495282313201
1100329 8 17835805570538936003
11578080 2 17386299687585911192
12173636 292 18341619200343035335
12403259 226 18262801744271555715
13140716 1 18268716176521608817
13944108 23 16901597922624044445
14251751 93 18410298016576138655
14251757 17 18261103127518861486
14790565 3 17904188579305216009
15196674 1 18408886209085771736
16752209 62 18340217336018619227
16945 1 18198337364586902032
18186145 218 18335137613414479928
19591789 44 18195245744375242497
200 152 17022619814540596134
20510252 161 18408890607765591289
20600515 1 18119274937009723288
20645477 70 17603578613289627956
20691752 17 17346604058322963440
20775438 99 17032242564619415639
20871999 31 18411131441957888518
221357 26 18334860506825444311
221490 88 18336260142199171906
22182313 1 18188772734823158584
22393880 68 18408878530328007062
23402539 116 18337675342602809478
23557571 272 18196938768526811353
23559900 14 18261677069089970274
2748010 2 18192436268395276960
3004659 81 18271522113522407726
335352 9 18265615557825599116
350125 39 18338229475246945361
4058900 60 17770217482087544429
4280585 95 17612579434698270358
474 4 17132110221774385564
5104073 3 18335422348408265658
5283173 99 18410012152559881632
7399639 24 17682973084852563600
9709674 26 18335704888399831708

> <PUBCHEM_SHAPE_MULTIPOLES>
473.4
8.8
3.2
1.19
3.25
0.11
-0.24
-0.2
3.84
-2.47
-0.04
0.7
0.06
0.84

> <PUBCHEM_SHAPE_SELFOVERLAP>
1050.681

> <PUBCHEM_SHAPE_VOLUME>
254.2

> <PUBCHEM_COORDINATE_TYPE>
2
5
10

$$$$

