443485
  -OEChem-07051213023D

 53 55  0     1  0  0  0  0  0999 V2000
    4.5417   -1.2620    0.4131 O   0  0  0  0  0  0  0  0  0  0  0  0
    1.1011    1.2922   -0.0390 C   0  0  2  0  0  0  0  0  0  0  0  0
    0.8496   -0.2857    0.0372 C   0  0  2  0  0  0  0  0  0  0  0  0
   -1.4507   -1.1923    1.1567 C   0  0  2  0  0  0  0  0  0  0  0  0
   -2.3969    0.0278    1.0354 C   0  0  0  0  0  0  0  0  0  0  0  0
    0.0741   -0.8433    1.2753 C   0  0  0  0  0  0  0  0  0  0  0  0
   -0.0071    2.0624   -0.8490 C   0  0  0  0  0  0  0  0  0  0  0  0
    2.4251    1.5251   -0.8474 C   0  0  0  0  0  0  0  0  0  0  0  0
   -2.0757    0.6501   -0.3272 C   0  0  0  0  0  0  0  0  0  0  0  0
   -1.4806    2.0358   -0.3823 C   0  0  0  0  0  0  0  0  0  0  0  0
   -1.7404   -2.2246    0.0410 C   0  0  0  0  0  0  0  0  0  0  0  0
    2.1639   -1.0835   -0.0992 C   0  0  0  0  0  0  0  0  0  0  0  0
    3.6678    0.8918   -0.2111 C   0  0  0  0  0  0  0  0  0  0  0  0
    1.2915    1.9946    1.3227 C   0  0  0  0  0  0  0  0  0  0  0  0
    3.3848   -0.4342    0.4967 C   0  0  2  0  0  0  0  0  0  0  0  0
   -2.2051   -1.6445   -1.3102 C   0  0  0  0  0  0  0  0  0  0  0  0
   -2.1417   -0.1353   -1.4340 C   0  0  0  0  0  0  0  0  0  0  0  0
   -2.2836    0.9337    2.2830 C   0  0  0  0  0  0  0  0  0  0  0  0
   -3.8960   -0.4054    1.0634 C   0  0  0  0  0  0  0  0  0  0  0  0
   -2.0180    0.3461   -2.8552 C   0  0  0  0  0  0  0  0  0  0  0  0
    2.1963   -2.2488   -0.7698 C   0  0  0  0  0  0  0  0  0  0  0  0
    0.3042   -0.5478   -0.8723 H   0  0  0  0  0  0  0  0  0  0  0  0
   -1.6906   -1.6990    2.1042 H   0  0  0  0  0  0  0  0  0  0  0  0
    0.5455   -1.7897    1.5813 H   0  0  0  0  0  0  0  0  0  0  0  0
    0.2310   -0.1987    2.1441 H   0  0  0  0  0  0  0  0  0  0  0  0
    0.0403    1.7262   -1.8915 H   0  0  0  0  0  0  0  0  0  0  0  0
    0.2808    3.1233   -0.8907 H   0  0  0  0  0  0  0  0  0  0  0  0
    2.6130    2.5973   -0.9908 H   0  0  0  0  0  0  0  0  0  0  0  0
    2.3045    1.1094   -1.8580 H   0  0  0  0  0  0  0  0  0  0  0  0
   -2.0803    2.6516   -1.0649 H   0  0  0  0  0  0  0  0  0  0  0  0
   -1.5533    2.5588    0.5730 H   0  0  0  0  0  0  0  0  0  0  0  0
   -2.5302   -2.9019    0.3946 H   0  0  0  0  0  0  0  0  0  0  0  0
   -0.8704   -2.8740   -0.1115 H   0  0  0  0  0  0  0  0  0  0  0  0
    4.4382    0.7662   -0.9830 H   0  0  0  0  0  0  0  0  0  0  0  0
    4.1047    1.5876    0.5169 H   0  0  0  0  0  0  0  0  0  0  0  0
    1.9346    1.4346    2.0049 H   0  0  0  0  0  0  0  0  0  0  0  0
    1.7474    2.9836    1.1907 H   0  0  0  0  0  0  0  0  0  0  0  0
    0.3506    2.1739    1.8348 H   0  0  0  0  0  0  0  0  0  0  0  0
    3.2119   -0.2618    1.5642 H   0  0  0  0  0  0  0  0  0  0  0  0
   -3.2209   -1.9865   -1.5426 H   0  0  0  0  0  0  0  0  0  0  0  0
   -1.5632   -2.0889   -2.0827 H   0  0  0  0  0  0  0  0  0  0  0  0
   -2.5787    0.3869    3.1876 H   0  0  0  0  0  0  0  0  0  0  0  0
   -1.2792    1.2975    2.4698 H   0  0  0  0  0  0  0  0  0  0  0  0
   -2.9430    1.8063    2.2060 H   0  0  0  0  0  0  0  0  0  0  0  0
   -4.1975   -1.0564    0.2405 H   0  0  0  0  0  0  0  0  0  0  0  0
   -4.1277   -0.9446    1.9901 H   0  0  0  0  0  0  0  0  0  0  0  0
   -4.5529    0.4725    1.0177 H   0  0  0  0  0  0  0  0  0  0  0  0
   -2.0914    1.4323   -2.9495 H   0  0  0  0  0  0  0  0  0  0  0  0
   -2.8286   -0.0751   -3.4601 H   0  0  0  0  0  0  0  0  0  0  0  0
   -1.0652    0.0246   -3.2879 H   0  0  0  0  0  0  0  0  0  0  0  0
    3.1110   -2.8141   -0.9067 H   0  0  0  0  0  0  0  0  0  0  0  0
    1.2977   -2.6676   -1.2101 H   0  0  0  0  0  0  0  0  0  0  0  0
    4.3933   -2.0343    0.9855 H   0  0  0  0  0  0  0  0  0  0  0  0
  1 15  1  0  0  0  0
  1 53  1  0  0  0  0
  2  3  1  0  0  0  0
  2  7  1  0  0  0  0
  2  8  1  0  0  0  0
  2 14  1  0  0  0  0
  3  6  1  0  0  0  0
  3 12  1  0  0  0  0
  3 22  1  0  0  0  0
  4  5  1  0  0  0  0
  4  6  1  0  0  0  0
  4 11  1  0  0  0  0
  4 23  1  0  0  0  0
  5  9  1  0  0  0  0
  5 18  1  0  0  0  0
  5 19  1  0  0  0  0
  6 24  1  0  0  0  0
  6 25  1  0  0  0  0
  7 10  1  0  0  0  0
  7 26  1  0  0  0  0
  7 27  1  0  0  0  0
  8 13  1  0  0  0  0
  8 28  1  0  0  0  0
  8 29  1  0  0  0  0
  9 10  1  0  0  0  0
  9 17  2  0  0  0  0
 10 30  1  0  0  0  0
 10 31  1  0  0  0  0
 11 16  1  0  0  0  0
 11 32  1  0  0  0  0
 11 33  1  0  0  0  0
 12 15  1  0  0  0  0
 12 21  2  0  0  0  0
 13 15  1  0  0  0  0
 13 34  1  0  0  0  0
 13 35  1  0  0  0  0
 14 36  1  0  0  0  0
 14 37  1  0  0  0  0
 14 38  1  0  0  0  0
 15 39  1  0  0  0  0
 16 17  1  0  0  0  0
 16 40  1  0  0  0  0
 16 41  1  0  0  0  0
 17 20  1  0  0  0  0
 18 42  1  0  0  0  0
 18 43  1  0  0  0  0
 18 44  1  0  0  0  0
 19 45  1  0  0  0  0
 19 46  1  0  0  0  0
 19 47  1  0  0  0  0
 20 48  1  0  0  0  0
 20 49  1  0  0  0  0
 20 50  1  0  0  0  0
 21 51  1  0  0  0  0
 21 52  1  0  0  0  0
M  END
> <PUBCHEM_COMPOUND_CID>
443485

> <PUBCHEM_CONFORMER_RMSD>
0.6

> <PUBCHEM_CONFORMER_DIVERSEORDER>
2
1

> <PUBCHEM_MMFF94_PARTIAL_CHARGES>
14
1 -0.68
10 0.14
12 -0.28
15 0.42
16 0.14
17 -0.28
20 0.14
21 -0.3
3 0.14
5 0.14
51 0.15
52 0.15
53 0.4
9 -0.28

> <PUBCHEM_EFFECTIVE_ROTOR_COUNT>
1.8

> <PUBCHEM_PHARMACOPHORE_FEATURES>
5
1 1 acceptor
1 1 donor
3 5 18 19 hydrophobe
6 2 3 8 12 13 15 rings
6 4 5 9 11 16 17 rings

> <PUBCHEM_HEAVY_ATOM_COUNT>
21

> <PUBCHEM_ATOM_DEF_STEREO_COUNT>
4

> <PUBCHEM_ATOM_UDEF_STEREO_COUNT>
0

> <PUBCHEM_BOND_DEF_STEREO_COUNT>
0

> <PUBCHEM_BOND_UDEF_STEREO_COUNT>
0

> <PUBCHEM_ISOTOPIC_ATOM_COUNT>
0

> <PUBCHEM_COMPONENT_COUNT>
1

> <PUBCHEM_CACTVS_TAUTO_COUNT>
1

> <PUBCHEM_CONFORMER_ID>
0006C45D00000002

> <PUBCHEM_MMFF94_ENERGY>
99.2595

> <PUBCHEM_FEATURE_SELFOVERLAP>
25.371

> <PUBCHEM_SHAPE_FINGERPRINT>
10863032 1 18261663784497505051
10948715 1 17682395107009013913
11132069 177 18409738361215957400
11578080 2 17315390035507076617
12403814 3 18412822490999520785
12553582 1 18408321081932389948
13140716 1 18338795603017197570
13224815 77 18339646638081293760
13583140 156 14129356130061689894
14251745 187 18342192041769747312
144361 1 17771357369963807405
14817 1 5742032569858446207
15881359 60 18116996800023678231
16945 1 18335144180472229272
17357779 13 17702954617275572447
18219364 16 18272655674854184911
18927931 339 18198627829695541234
18981168 100 15913057563490868899
200 152 18114753629047327599
20600515 1 16557595601052440729
21330990 113 16988558044245632209
21501502 16 18339354150460257146
21731516 1 16372426757318552511
22721475 48 18342167873767083712
22802520 49 18272370892757859508
23419403 2 16458029093470672745
23493267 7 16056609810287588600
23557571 272 15554164757571667868
23559900 14 18058460949446819698
238 59 17840898198902011230
2748010 2 18130507538723643053
3286 77 18337947900968866529
6992083 37 18261663844220826347

> <PUBCHEM_SHAPE_MULTIPOLES>
426.3
5.92
2.36
1.9
3.74
0.09
0.51
1.29
-0.66
0.55
0.2
-1.8
-0.31
-0.15

> <PUBCHEM_SHAPE_SELFOVERLAP>
884.862

> <PUBCHEM_SHAPE_VOLUME>
240.7

> <PUBCHEM_COORDINATE_TYPE>
2
5
10

$$$$

