1549008
  -OEChem-07051212543D

 47 48  0     1  0  0  0  0  0999 V2000
   -0.9064    2.1676   -0.8185 N   0  0  2  0  0  0  0  0  0  0  0  0
   -1.0240    1.4194    0.4340 C   0  0  0  0  0  0  0  0  0  0  0  0
   -2.3358    0.6961    0.5352 C   0  0  0  0  0  0  0  0  0  0  0  0
   -2.4976   -0.6142    0.0617 C   0  0  0  0  0  0  0  0  0  0  0  0
   -3.7599   -1.2416    0.1872 C   0  0  0  0  0  0  0  0  0  0  0  0
    5.4588   -0.9515    0.2910 C   0  0  0  0  0  0  0  0  0  0  0  0
    0.4019    2.8067   -0.9132 C   0  0  0  0  0  0  0  0  0  0  0  0
   -3.3969    1.3815    1.1232 C   0  0  0  0  0  0  0  0  0  0  0  0
   -1.4373   -1.3171   -0.5332 C   0  0  0  0  0  0  0  0  0  0  0  0
   -1.9741    3.1637   -0.9179 C   0  0  0  0  0  0  0  0  0  0  0  0
   -4.8200   -0.5385    0.7826 C   0  0  0  0  0  0  0  0  0  0  0  0
   -4.6381    0.7644    1.2471 C   0  0  0  0  0  0  0  0  0  0  0  0
   -3.9248   -2.5536   -0.2861 C   0  0  0  0  0  0  0  0  0  0  0  0
    6.7938   -0.2846   -0.0689 C   0  0  0  0  0  0  0  0  0  0  0  0
    5.1601   -2.0761   -0.7102 C   0  0  0  0  0  0  0  0  0  0  0  0
    5.5413   -1.5343    1.7088 C   0  0  0  0  0  0  0  0  0  0  0  0
    1.5125    1.8049   -0.8138 C   0  0  0  0  0  0  0  0  0  0  0  0
   -1.6191   -2.6199   -0.9982 C   0  0  0  0  0  0  0  0  0  0  0  0
   -2.8604   -3.2368   -0.8750 C   0  0  0  0  0  0  0  0  0  0  0  0
    4.3757    0.0554    0.2359 C   0  0  0  0  0  0  0  0  0  0  0  0
    2.4552    1.8371    0.1384 C   0  0  0  0  0  0  0  0  0  0  0  0
    3.4951    0.8713    0.1898 C   0  0  0  0  0  0  0  0  0  0  0  0
   -0.9308    2.1048    1.2910 H   0  0  0  0  0  0  0  0  0  0  0  0
   -0.2126    0.7043    0.5983 H   0  0  0  0  0  0  0  0  0  0  0  0
    0.4986    3.3031   -1.8870 H   0  0  0  0  0  0  0  0  0  0  0  0
    0.5133    3.5864   -0.1476 H   0  0  0  0  0  0  0  0  0  0  0  0
   -3.2763    2.3902    1.5091 H   0  0  0  0  0  0  0  0  0  0  0  0
   -0.4512   -0.8867   -0.6755 H   0  0  0  0  0  0  0  0  0  0  0  0
   -1.8030    3.8079   -1.7897 H   0  0  0  0  0  0  0  0  0  0  0  0
   -2.0285    3.8189   -0.0408 H   0  0  0  0  0  0  0  0  0  0  0  0
   -2.9504    2.7072   -1.1057 H   0  0  0  0  0  0  0  0  0  0  0  0
   -5.7986   -1.0015    0.8906 H   0  0  0  0  0  0  0  0  0  0  0  0
   -5.4653    1.2955    1.7091 H   0  0  0  0  0  0  0  0  0  0  0  0
   -4.8863   -3.0555   -0.2003 H   0  0  0  0  0  0  0  0  0  0  0  0
    6.7653    0.1470   -1.0766 H   0  0  0  0  0  0  0  0  0  0  0  0
    7.6186   -1.0054   -0.0374 H   0  0  0  0  0  0  0  0  0  0  0  0
    7.0337    0.5287    0.6265 H   0  0  0  0  0  0  0  0  0  0  0  0
    4.2078   -2.5701   -0.4829 H   0  0  0  0  0  0  0  0  0  0  0  0
    5.0898   -1.6902   -1.7343 H   0  0  0  0  0  0  0  0  0  0  0  0
    5.9452   -2.8405   -0.6942 H   0  0  0  0  0  0  0  0  0  0  0  0
    5.7492   -0.7531    2.4498 H   0  0  0  0  0  0  0  0  0  0  0  0
    4.5988   -2.0145    1.9981 H   0  0  0  0  0  0  0  0  0  0  0  0
    6.3357   -2.2854    1.7834 H   0  0  0  0  0  0  0  0  0  0  0  0
    1.5401    1.0269   -1.5749 H   0  0  0  0  0  0  0  0  0  0  0  0
   -0.7924   -3.1516   -1.4605 H   0  0  0  0  0  0  0  0  0  0  0  0
   -3.0015   -4.2507   -1.2381 H   0  0  0  0  0  0  0  0  0  0  0  0
    2.4431    2.6098    0.9003 H   0  0  0  0  0  0  0  0  0  0  0  0
  1  2  1  0  0  0  0
  1  7  1  0  0  0  0
  1 10  1  0  0  0  0
  2  3  1  0  0  0  0
  2 23  1  0  0  0  0
  2 24  1  0  0  0  0
  3  4  1  0  0  0  0
  3  8  2  0  0  0  0
  4  5  1  0  0  0  0
  4  9  2  0  0  0  0
  5 11  1  0  0  0  0
  5 13  2  0  0  0  0
  6 14  1  0  0  0  0
  6 15  1  0  0  0  0
  6 16  1  0  0  0  0
  6 20  1  0  0  0  0
  7 17  1  0  0  0  0
  7 25  1  0  0  0  0
  7 26  1  0  0  0  0
  8 12  1  0  0  0  0
  8 27  1  0  0  0  0
  9 18  1  0  0  0  0
  9 28  1  0  0  0  0
 10 29  1  0  0  0  0
 10 30  1  0  0  0  0
 10 31  1  0  0  0  0
 11 12  2  0  0  0  0
 11 32  1  0  0  0  0
 12 33  1  0  0  0  0
 13 19  1  0  0  0  0
 13 34  1  0  0  0  0
 14 35  1  0  0  0  0
 14 36  1  0  0  0  0
 14 37  1  0  0  0  0
 15 38  1  0  0  0  0
 15 39  1  0  0  0  0
 15 40  1  0  0  0  0
 16 41  1  0  0  0  0
 16 42  1  0  0  0  0
 16 43  1  0  0  0  0
 17 21  2  0  0  0  0
 17 44  1  0  0  0  0
 18 19  2  0  0  0  0
 18 45  1  0  0  0  0
 19 46  1  0  0  0  0
 20 22  3  0  0  0  0
 21 22  1  0  0  0  0
 21 47  1  0  0  0  0
M  END
> <PUBCHEM_COMPOUND_CID>
1549008

> <PUBCHEM_CONFORMER_RMSD>
0.6

> <PUBCHEM_CONFORMER_DIVERSEORDER>
1
8
25
18
40
55
65
73
31
3
19
50
30
26
33
23
36
28
16
42
4
66
6
20
11
14
45
17
13
10
49
27
44
5
61
60
48
70
64
68
32
54
52
43
29
53
9
38
51
56
69
2
15
34
22
7
58
39
24
75
76
47
21
74
12
71
59
72
57
35
63
46
41
67
37
62

> <PUBCHEM_MMFF94_PARTIAL_CHARGES>
26
1 -0.81
10 0.27
11 -0.15
12 -0.15
13 -0.15
17 -0.29
18 -0.15
19 -0.15
2 0.41
20 -0.2
21 -0.09
22 -0.06
27 0.15
28 0.15
3 -0.14
32 0.15
33 0.15
34 0.15
44 0.15
45 0.15
46 0.15
47 0.15
6 0.2
7 0.41
8 -0.15
9 -0.15

> <PUBCHEM_EFFECTIVE_ROTOR_COUNT>
4

> <PUBCHEM_PHARMACOPHORE_FEATURES>
4
1 1 cation
4 6 14 15 16 hydrophobe
6 3 4 5 8 11 12 rings
6 4 5 9 13 18 19 rings

> <PUBCHEM_HEAVY_ATOM_COUNT>
22

> <PUBCHEM_ATOM_DEF_STEREO_COUNT>
0

> <PUBCHEM_ATOM_UDEF_STEREO_COUNT>
0

> <PUBCHEM_BOND_DEF_STEREO_COUNT>
1

> <PUBCHEM_BOND_UDEF_STEREO_COUNT>
0

> <PUBCHEM_ISOTOPIC_ATOM_COUNT>
0

> <PUBCHEM_COMPONENT_COUNT>
1

> <PUBCHEM_CACTVS_TAUTO_COUNT>
1

> <PUBCHEM_CONFORMER_ID>
0017A2D000000001

> <PUBCHEM_MMFF94_ENERGY>
59.926

> <PUBCHEM_FEATURE_SELFOVERLAP>
20.324

> <PUBCHEM_SHAPE_FINGERPRINT>
10042902 136 18339075995925698758
10291535 26 9007048080656622884
10483366 6 18196960901437735565
10622 236 18046920281226704767
10928967 22 18343865528664187330
11524674 6 17531250594724714743
12107183 9 18336817667572560281
12174731 88 18056213594450169090
12422481 6 18260819427791243787
12633257 1 18114173134073400152
13551218 46 18410851083582971530
14100547 121 18114182995107413087
14251751 93 18270405013443911226
14420673 8 18262790878316176302
14950920 106 17894631444206228576
15250474 111 18264489486357447958
15537594 2 18201435904872148738
16110190 28 18335699417165443012
17492 89 17978789017489012435
17780758 139 18186803586601800344
17857418 61 18411420601047706058
1813 80 17775279465721968716
19141452 34 18408037424743014736
19319366 153 16463613439939844055
20621476 51 18335143029362881143
229767 44 18334294266648220486
235170 7 14117518770469753250
23559900 14 18042691593923973857
312425 54 18186522103177398424
351380 3 18202563990864344170
4409770 3 18199759196790089381
463206 1 18342735170364799354
5104073 3 18042677317494282609
559249 180 18412262844187316289
56633871 153 18408880716107923959
7064713 232 18113330929398384035
7970288 3 18200876162705844978

> <PUBCHEM_SHAPE_MULTIPOLES>
447.77
13.9
3.8
1.19
22.33
0.09
-0.2
7.73
-4.07
-2.44
1.6
-0.03
0.01
-1.27

> <PUBCHEM_SHAPE_SELFOVERLAP>
935.262

> <PUBCHEM_SHAPE_VOLUME>
253.5

> <PUBCHEM_COORDINATE_TYPE>
2
5
10

$$$$

