12253
  -OEChem-06261206433D

 15 14  0     0  0  0  0  0  0999 V2000
    0.4863   -1.3026    0.0037 O   0  0  0  0  0  0  0  0  0  0  0  0
   -0.0826    0.9547    0.0061 N   0  0  0  0  0  0  0  0  0  0  0  0
   -1.5190    0.7966   -0.0013 C   0  0  0  0  0  0  0  0  0  0  0  0
   -1.9164   -0.6651   -0.0065 C   0  0  0  0  0  0  0  0  0  0  0  0
    0.7969   -0.1143    0.0080 C   0  0  0  0  0  0  0  0  0  0  0  0
    2.2348    0.3307   -0.0099 C   0  0  0  0  0  0  0  0  0  0  0  0
   -1.9120    1.3053    0.8843 H   0  0  0  0  0  0  0  0  0  0  0  0
   -1.9033    1.3089   -0.8886 H   0  0  0  0  0  0  0  0  0  0  0  0
    0.2865    1.9012    0.0033 H   0  0  0  0  0  0  0  0  0  0  0  0
   -1.5985   -1.1911   -0.9126 H   0  0  0  0  0  0  0  0  0  0  0  0
   -1.6073   -1.1952    0.9003 H   0  0  0  0  0  0  0  0  0  0  0  0
   -3.0126   -0.7186   -0.0120 H   0  0  0  0  0  0  0  0  0  0  0  0
    2.8866   -0.5217    0.2006 H   0  0  0  0  0  0  0  0  0  0  0  0
    2.4789    0.7357   -0.9958 H   0  0  0  0  0  0  0  0  0  0  0  0
    2.4047    1.0971    0.7517 H   0  0  0  0  0  0  0  0  0  0  0  0
  1  5  2  0  0  0  0
  2  3  1  0  0  0  0
  2  5  1  0  0  0  0
  2  9  1  0  0  0  0
  3  4  1  0  0  0  0
  3  7  1  0  0  0  0
  3  8  1  0  0  0  0
  4 10  1  0  0  0  0
  4 11  1  0  0  0  0
  4 12  1  0  0  0  0
  5  6  1  0  0  0  0
  6 13  1  0  0  0  0
  6 14  1  0  0  0  0
  6 15  1  0  0  0  0
M  END
> <PUBCHEM_COMPOUND_CID>
12253

> <PUBCHEM_CONFORMER_RMSD>
0.4

> <PUBCHEM_CONFORMER_DIVERSEORDER>
1

> <PUBCHEM_MMFF94_PARTIAL_CHARGES>
6
1 -0.57
2 -0.73
3 0.3
5 0.57
6 0.06
9 0.37

> <PUBCHEM_EFFECTIVE_ROTOR_COUNT>
2

> <PUBCHEM_PHARMACOPHORE_FEATURES>
2
1 1 acceptor
1 2 donor

> <PUBCHEM_HEAVY_ATOM_COUNT>
6

> <PUBCHEM_ATOM_DEF_STEREO_COUNT>
0

> <PUBCHEM_ATOM_UDEF_STEREO_COUNT>
0

> <PUBCHEM_BOND_DEF_STEREO_COUNT>
0

> <PUBCHEM_BOND_UDEF_STEREO_COUNT>
0

> <PUBCHEM_ISOTOPIC_ATOM_COUNT>
0

> <PUBCHEM_COMPONENT_COUNT>
1

> <PUBCHEM_CACTVS_TAUTO_COUNT>
2

> <PUBCHEM_CONFORMER_ID>
00002FDD00000001

> <PUBCHEM_MMFF94_ENERGY>
11.1194

> <PUBCHEM_FEATURE_SELFOVERLAP>
10.148

> <PUBCHEM_SHAPE_FINGERPRINT>
139733 1 9295290538640631841
16714656 1 18337387141274647102
20096714 4 18409448124047137160
21040471 1 18338799030047600000
24536 1 18191318279902582841
29004967 10 18271799120962523033
5460574 1 9295294936455079840

> <PUBCHEM_SHAPE_MULTIPOLES>
112.63
2.74
1.15
0.59
0.34
0.13
0
-0.08
0.01
-0.19
0
-0.01
-0.01
0

> <PUBCHEM_SHAPE_SELFOVERLAP>
200.764

> <PUBCHEM_SHAPE_VOLUME>
73.1

> <PUBCHEM_COORDINATE_TYPE>
2
5
10

$$$$

