77093
  -OEChem-07051212513D

 27 28  0     0  0  0  0  0  0999 V2000
    0.8163    2.3983    0.5089 O   0  0  0  0  0  0  0  0  0  0  0  0
    0.8172   -2.4014    0.4957 O   0  0  0  0  0  0  0  0  0  0  0  0
   -0.6441   -0.0065    2.3292 O   0  0  0  0  0  0  0  0  0  0  0  0
    4.5978    0.0037   -1.1216 O   0  0  0  0  0  0  0  0  0  0  0  0
    0.8164   -0.0016    0.5022 C   0  0  0  0  0  0  0  0  0  0  0  0
   -0.5564   -0.0034    1.0923 C   0  0  0  0  0  0  0  0  0  0  0  0
   -1.7572   -0.0011    0.2721 C   0  0  0  0  0  0  0  0  0  0  0  0
    1.4243    1.2073    0.2444 C   0  0  0  0  0  0  0  0  0  0  0  0
    1.4247   -1.2087    0.2377 C   0  0  0  0  0  0  0  0  0  0  0  0
    2.7060    1.2089   -0.3059 C   0  0  0  0  0  0  0  0  0  0  0  0
    2.7064   -1.2069   -0.3127 C   0  0  0  0  0  0  0  0  0  0  0  0
    3.3471    0.0019   -0.5845 C   0  0  0  0  0  0  0  0  0  0  0  0
   -1.6523    0.0028   -1.1187 C   0  0  0  0  0  0  0  0  0  0  0  0
   -3.0144   -0.0024    0.8766 C   0  0  0  0  0  0  0  0  0  0  0  0
   -2.8043    0.0053   -1.9053 C   0  0  0  0  0  0  0  0  0  0  0  0
   -4.1664   -0.0001    0.0902 C   0  0  0  0  0  0  0  0  0  0  0  0
   -4.0613    0.0039   -1.3008 C   0  0  0  0  0  0  0  0  0  0  0  0
    3.2002    2.1545   -0.5157 H   0  0  0  0  0  0  0  0  0  0  0  0
    3.2132   -2.1434   -0.5329 H   0  0  0  0  0  0  0  0  0  0  0  0
   -0.6947    0.0041   -1.6304 H   0  0  0  0  0  0  0  0  0  0  0  0
   -3.1238   -0.0053    1.9579 H   0  0  0  0  0  0  0  0  0  0  0  0
   -2.7230    0.0083   -2.9883 H   0  0  0  0  0  0  0  0  0  0  0  0
   -5.1454   -0.0011    0.5604 H   0  0  0  0  0  0  0  0  0  0  0  0
   -4.9582    0.0058   -1.9131 H   0  0  0  0  0  0  0  0  0  0  0  0
   -0.0519    2.2552    0.9182 H   0  0  0  0  0  0  0  0  0  0  0  0
    1.4130   -3.1249    0.2361 H   0  0  0  0  0  0  0  0  0  0  0  0
    4.8873    0.9242   -1.2434 H   0  0  0  0  0  0  0  0  0  0  0  0
  1  8  1  0  0  0  0
  1 25  1  0  0  0  0
  2  9  1  0  0  0  0
  2 26  1  0  0  0  0
  3  6  2  0  0  0  0
  4 12  1  0  0  0  0
  4 27  1  0  0  0  0
  5  6  1  0  0  0  0
  5  8  2  0  0  0  0
  5  9  1  0  0  0  0
  6  7  1  0  0  0  0
  7 13  2  0  0  0  0
  7 14  1  0  0  0  0
  8 10  1  0  0  0  0
  9 11  2  0  0  0  0
 10 12  2  0  0  0  0
 10 18  1  0  0  0  0
 11 12  1  0  0  0  0
 11 19  1  0  0  0  0
 13 15  1  0  0  0  0
 13 20  1  0  0  0  0
 14 16  2  0  0  0  0
 14 21  1  0  0  0  0
 15 17  2  0  0  0  0
 15 22  1  0  0  0  0
 16 17  1  0  0  0  0
 16 23  1  0  0  0  0
 17 24  1  0  0  0  0
M  END
> <PUBCHEM_COMPOUND_CID>
77093

> <PUBCHEM_CONFORMER_RMSD>
0.6

> <PUBCHEM_CONFORMER_DIVERSEORDER>
1

> <PUBCHEM_MMFF94_PARTIAL_CHARGES>
27
1 -0.53
10 -0.15
11 -0.15
12 0.08
13 -0.15
14 -0.15
15 -0.15
16 -0.15
17 -0.15
18 0.15
19 0.15
2 -0.53
20 0.15
21 0.15
22 0.15
23 0.15
24 0.15
25 0.45
26 0.45
27 0.45
3 -0.57
4 -0.53
5 0.09
6 0.4
7 0.09
8 0.08
9 0.08

> <PUBCHEM_EFFECTIVE_ROTOR_COUNT>
2

> <PUBCHEM_PHARMACOPHORE_FEATURES>
6
1 1 donor
1 2 donor
1 3 acceptor
1 4 donor
6 5 8 9 10 11 12 rings
6 7 13 14 15 16 17 rings

> <PUBCHEM_HEAVY_ATOM_COUNT>
17

> <PUBCHEM_ATOM_DEF_STEREO_COUNT>
0

> <PUBCHEM_ATOM_UDEF_STEREO_COUNT>
0

> <PUBCHEM_BOND_DEF_STEREO_COUNT>
0

> <PUBCHEM_BOND_UDEF_STEREO_COUNT>
0

> <PUBCHEM_ISOTOPIC_ATOM_COUNT>
0

> <PUBCHEM_COMPONENT_COUNT>
1

> <PUBCHEM_CACTVS_TAUTO_COUNT>
15

> <PUBCHEM_CONFORMER_ID>
00012D2500000001

> <PUBCHEM_MMFF94_ENERGY>
55.5608

> <PUBCHEM_FEATURE_SELFOVERLAP>
30.446

> <PUBCHEM_SHAPE_FINGERPRINT>
10498660 4 16056330517581331709
11031198 65 18202003235043280791
12236239 1 17676199186802376985
12251169 10 8358252648673538349
12730499 353 18060699507433187043
13288520 33 15791723131551470572
13764800 53 15554163770325288437
14115302 16 17022904519264102789
14739800 52 15409762559203290260
14993402 34 18113614594987835134
15219456 202 17560802160123022443
16752209 62 16733270170275420441
16945 1 18410582785565814627
18186145 218 18408889498988535449
19422 9 17530965739967340325
19862831 5 18040435481825245399
200 152 18187641431689156448
20344682 1 17703782605017748359
20645476 183 17967819340697867759
20645477 70 18271806881794957651
22802520 49 17631178678222952613
23114952 82 17630614628658027535
232386 152 16081377319205148053
23402539 116 18187358870396917390
23402655 69 18411420656650432357
23526113 38 17846773048532776306
23557571 272 16916490494083239187
23559900 14 16773797030709183274
23598291 2 17898278661555882179
25 1 18272368689254923011
2748010 2 17976804412407420496
2838139 119 16486117385344488188
3060560 45 18339654368531913974
3323516 105 18341050722856478475
465052 167 16661773147011504831
474 4 17679881318374756440
7364860 26 14853319523583327243
74978 22 16226626074036597359
77492 1 17676480661826515051
81228 2 16613666626134159483

> <PUBCHEM_SHAPE_MULTIPOLES>
326.37
7.14
1.51
1.48
1.16
0.1
0
-3.18
-0.01
0.97
0
-1.24
0.25
0.01

> <PUBCHEM_SHAPE_SELFOVERLAP>
717.027

> <PUBCHEM_SHAPE_VOLUME>
175.8

> <PUBCHEM_COORDINATE_TYPE>
2
5
10

$$$$

