443278
  -OEChem-07051213013D

 35 38  0     0  0  0  0  0  0999 V2000
   -2.4879   -2.2088    0.3053 S   0  0  0  0  0  0  0  0  0  0  0  0
   -1.3137    0.0574   -0.0037 N   0  0  0  0  0  0  0  0  0  0  0  0
    0.2414   -1.5347    0.2125 N   0  0  0  0  0  0  0  0  0  0  0  0
   -2.6538    0.3766   -0.0472 C   0  0  0  0  0  0  0  0  0  0  0  0
   -3.1830    1.7590   -0.2241 C   0  0  0  0  0  0  0  0  0  0  0  0
   -4.6828    1.8326    0.1004 C   0  0  0  0  0  0  0  0  0  0  0  0
   -5.4536    0.6328   -0.4614 C   0  0  0  0  0  0  0  0  0  0  0  0
   -4.9156   -0.7020    0.0769 C   0  0  0  0  0  0  0  0  0  0  0  0
   -3.4235   -0.7201    0.1017 C   0  0  0  0  0  0  0  0  0  0  0  0
   -1.0339   -1.2646    0.1762 C   0  0  0  0  0  0  0  0  0  0  0  0
   -0.1212    0.7102   -0.0929 C   0  0  0  0  0  0  0  0  0  0  0  0
    0.8241   -0.2930    0.0434 C   0  0  0  0  0  0  0  0  0  0  0  0
    2.2382   -0.0783    0.0124 C   0  0  0  0  0  0  0  0  0  0  0  0
    2.7749    1.1335    0.4554 C   0  0  0  0  0  0  0  0  0  0  0  0
    3.0909   -1.0793   -0.4609 C   0  0  0  0  0  0  0  0  0  0  0  0
    5.0011    0.3410   -0.0480 C   0  0  0  0  0  0  0  0  0  0  0  0
    4.1537    1.3429    0.4253 C   0  0  0  0  0  0  0  0  0  0  0  0
    4.4696   -0.8701   -0.4910 C   0  0  0  0  0  0  0  0  0  0  0  0
    6.4751    0.5648   -0.0802 C   0  0  0  0  0  0  0  0  0  0  0  0
   -2.6467    2.4654    0.4199 H   0  0  0  0  0  0  0  0  0  0  0  0
   -3.0184    2.0727   -1.2621 H   0  0  0  0  0  0  0  0  0  0  0  0
   -4.8183    1.8670    1.1892 H   0  0  0  0  0  0  0  0  0  0  0  0
   -5.0982    2.7645   -0.2998 H   0  0  0  0  0  0  0  0  0  0  0  0
   -5.3793    0.6404   -1.5566 H   0  0  0  0  0  0  0  0  0  0  0  0
   -6.5177    0.7239   -0.2154 H   0  0  0  0  0  0  0  0  0  0  0  0
   -5.3039   -1.5165   -0.5454 H   0  0  0  0  0  0  0  0  0  0  0  0
   -5.2903   -0.8613    1.0953 H   0  0  0  0  0  0  0  0  0  0  0  0
   -0.0551    1.7792   -0.2458 H   0  0  0  0  0  0  0  0  0  0  0  0
    2.1454    1.9310    0.8426 H   0  0  0  0  0  0  0  0  0  0  0  0
    2.6995   -2.0304   -0.8147 H   0  0  0  0  0  0  0  0  0  0  0  0
    4.5565    2.2889    0.7775 H   0  0  0  0  0  0  0  0  0  0  0  0
    5.1197   -1.6586   -0.8609 H   0  0  0  0  0  0  0  0  0  0  0  0
    6.9249    0.2402    0.8633 H   0  0  0  0  0  0  0  0  0  0  0  0
    6.9414    0.0093   -0.9009 H   0  0  0  0  0  0  0  0  0  0  0  0
    6.7108    1.6231   -0.2357 H   0  0  0  0  0  0  0  0  0  0  0  0
  1  9  1  0  0  0  0
  1 10  1  0  0  0  0
  2  4  1  0  0  0  0
  2 10  1  0  0  0  0
  2 11  1  0  0  0  0
  3 10  2  0  0  0  0
  3 12  1  0  0  0  0
  4  5  1  0  0  0  0
  4  9  2  0  0  0  0
  5  6  1  0  0  0  0
  5 20  1  0  0  0  0
  5 21  1  0  0  0  0
  6  7  1  0  0  0  0
  6 22  1  0  0  0  0
  6 23  1  0  0  0  0
  7  8  1  0  0  0  0
  7 24  1  0  0  0  0
  7 25  1  0  0  0  0
  8  9  1  0  0  0  0
  8 26  1  0  0  0  0
  8 27  1  0  0  0  0
 11 12  2  0  0  0  0
 11 28  1  0  0  0  0
 12 13  1  0  0  0  0
 13 14  2  0  0  0  0
 13 15  1  0  0  0  0
 14 17  1  0  0  0  0
 14 29  1  0  0  0  0
 15 18  2  0  0  0  0
 15 30  1  0  0  0  0
 16 17  2  0  0  0  0
 16 18  1  0  0  0  0
 16 19  1  0  0  0  0
 17 31  1  0  0  0  0
 18 32  1  0  0  0  0
 19 33  1  0  0  0  0
 19 34  1  0  0  0  0
 19 35  1  0  0  0  0
M  END
> <PUBCHEM_COMPOUND_CID>
443278

> <PUBCHEM_CONFORMER_RMSD>
0.6

> <PUBCHEM_CONFORMER_DIVERSEORDER>
1

> <PUBCHEM_MMFF94_PARTIAL_CHARGES>
22
1 -0.16
10 0.24
11 -0.3
12 0.17
13 0.05
14 -0.15
15 -0.15
16 -0.14
17 -0.15
18 -0.15
19 0.14
2 0.33
28 0.15
29 0.15
3 -0.57
30 0.15
31 0.15
32 0.15
4 -0.17
5 0.14
8 0.14
9 -0.04

> <PUBCHEM_EFFECTIVE_ROTOR_COUNT>
1.8

> <PUBCHEM_PHARMACOPHORE_FEATURES>
5
3 2 3 10 cation
5 1 2 4 9 10 rings
5 2 3 10 11 12 rings
6 13 14 15 16 17 18 rings
6 4 5 6 7 8 9 rings

> <PUBCHEM_HEAVY_ATOM_COUNT>
19

> <PUBCHEM_ATOM_DEF_STEREO_COUNT>
0

> <PUBCHEM_ATOM_UDEF_STEREO_COUNT>
0

> <PUBCHEM_BOND_DEF_STEREO_COUNT>
0

> <PUBCHEM_BOND_UDEF_STEREO_COUNT>
0

> <PUBCHEM_ISOTOPIC_ATOM_COUNT>
0

> <PUBCHEM_COMPONENT_COUNT>
1

> <PUBCHEM_CACTVS_TAUTO_COUNT>
1

> <PUBCHEM_CONFORMER_ID>
0006C38E00000001

> <PUBCHEM_MMFF94_ENERGY>
37.459

> <PUBCHEM_FEATURE_SELFOVERLAP>
25.68

> <PUBCHEM_SHAPE_FINGERPRINT>
10014705 185 18412545401131710501
10411042 1 17836081179112962355
11315181 36 17988923336199359212
11578080 2 13841638143133754169
11595378 159 17131563832893526380
11719270 70 18114183069277404478
12107183 9 17693101077160564152
12236239 1 17346882234727536202
12390115 104 18262506122221704993
12403259 415 18187932750409487880
12596602 18 16200424741473987248
12916748 109 18413102874991260505
13073987 5 18341894125220455874
13533116 47 13840254936489598356
13668630 136 16226043375380593900
14251764 18 18273502269575919970
14573314 32 18408601478624071308
15042514 8 18125435316203736011
15196674 1 18410292535944563762
15242439 84 18334011688054065058
15375358 24 18334855021756951662
15788980 27 17748829609440053220
17844677 252 18339071597367880760
19489759 90 18131915949084340921
200 152 17095241427609491563
20281389 69 18131073740415830188
20645477 56 18413108364059717477
20645477 70 17531521092271743862
21033648 29 18187093827369327136
21065198 57 18410010996939099554
21236236 1 18408886205508573471
21267235 1 18339916035193334155
21279426 13 18264767851345202740
21421861 104 17702677703897035082
221357 26 18113340829467351953
2215653 11 18114177558163827134
23402539 116 18335989700887800583
23402655 69 18187366545208115204
23557571 272 18335132077201505420
23559900 14 18334298639140679480
2916195 48 18408610240542322200
293599 30 18412544349123270245
29717793 49 16443055119795976724
300161 21 18411705383028032210
3004659 81 18342172319886786894
34797466 226 17822561721233169940
34934 24 18412267246080765354
351380 180 18335422361119262188
3545911 37 18408039602549688712
4073 2 18131064884599389698
4214541 1 18410292505885177889
441001 317 18410012143727074633
495365 180 17458358411812024154
4990 188 18187079589542041558
5104073 3 18341893034340928811
5283173 99 18335984258932680001
542803 24 17418091010094318508
69090 78 18260831479490686007
77779 3 18409728443830580522
9709674 26 18335413569379678030

> <PUBCHEM_SHAPE_MULTIPOLES>
384.9
13.53
1.85
0.68
7.12
0.19
0
-3.85
0.87
-1.49
-0.12
0.07
0.01
0.62

> <PUBCHEM_SHAPE_SELFOVERLAP>
842.615

> <PUBCHEM_SHAPE_VOLUME>
212.3

> <PUBCHEM_COORDINATE_TYPE>
2
5
10

$$$$

