73668
  -OEChem-07051213123D

 37 38  0     1  0  0  0  0  0999 V2000
   -4.4227    0.9958    0.1452 F   0  0  0  0  0  0  0  0  0  0  0  0
   -5.8415   -0.6473    0.3961 F   0  0  0  0  0  0  0  0  0  0  0  0
   -4.9287   -0.3141   -1.5613 F   0  0  0  0  0  0  0  0  0  0  0  0
    1.8743    1.3014    1.7272 O   0  0  0  0  0  0  0  0  0  0  0  0
   -3.6579   -1.1595    0.1420 O   0  0  0  0  0  0  0  0  0  0  0  0
    3.7936   -1.5168   -1.5595 N   0  0  0  0  0  0  0  0  0  0  0  0
    3.9093   -2.0973    0.7765 N   0  0  0  0  0  0  0  0  0  0  0  0
    1.6066    0.8549    0.3813 C   0  0  2  0  0  0  0  0  0  0  0  0
    1.8662    2.1284   -0.5175 C   0  0  0  0  0  0  0  0  0  0  0  0
    0.1674    0.3044    0.3158 C   0  0  0  0  0  0  0  0  0  0  0  0
    2.5766   -0.2955    0.0472 C   0  0  0  0  0  0  0  0  0  0  0  0
    3.3167    2.6406   -0.4275 C   0  0  0  0  0  0  0  0  0  0  0  0
    0.9426    3.3065   -0.1477 C   0  0  0  0  0  0  0  0  0  0  0  0
   -0.3775   -0.2173    1.4592 C   0  0  0  0  0  0  0  0  0  0  0  0
   -0.4937    0.3648   -0.8827 C   0  0  0  0  0  0  0  0  0  0  0  0
    2.9464   -0.5192   -1.2315 C   0  0  0  0  0  0  0  0  0  0  0  0
    3.0585   -1.0821    1.0327 C   0  0  0  0  0  0  0  0  0  0  0  0
   -1.6790   -0.7154    1.4000 C   0  0  0  0  0  0  0  0  0  0  0  0
   -1.7953   -0.1332   -0.9420 C   0  0  0  0  0  0  0  0  0  0  0  0
   -2.3881   -0.6733    0.1993 C   0  0  0  0  0  0  0  0  0  0  0  0
    4.2302   -2.2558   -0.5217 C   0  0  0  0  0  0  0  0  0  0  0  0
   -4.7042   -0.2697   -0.2310 C   0  0  0  0  0  0  0  0  0  0  0  0
    1.6811    1.9115   -1.5747 H   0  0  0  0  0  0  0  0  0  0  0  0
    3.4459    3.5316   -1.0528 H   0  0  0  0  0  0  0  0  0  0  0  0
    3.5817    2.9186    0.5981 H   0  0  0  0  0  0  0  0  0  0  0  0
    4.0453    1.9043   -0.7755 H   0  0  0  0  0  0  0  0  0  0  0  0
   -0.1154    3.0365   -0.1970 H   0  0  0  0  0  0  0  0  0  0  0  0
    1.0926    4.1376   -0.8464 H   0  0  0  0  0  0  0  0  0  0  0  0
    1.1503    3.6878    0.8574 H   0  0  0  0  0  0  0  0  0  0  0  0
    0.1564   -0.2768    2.4014 H   0  0  0  0  0  0  0  0  0  0  0  0
   -0.0566    0.7545   -1.7934 H   0  0  0  0  0  0  0  0  0  0  0  0
    1.1230    1.8344    2.0379 H   0  0  0  0  0  0  0  0  0  0  0  0
    2.5903    0.0464   -2.0820 H   0  0  0  0  0  0  0  0  0  0  0  0
    2.8002   -0.9690    2.0785 H   0  0  0  0  0  0  0  0  0  0  0  0
   -2.1347   -1.1381    2.2914 H   0  0  0  0  0  0  0  0  0  0  0  0
   -2.3321   -0.1051   -1.8863 H   0  0  0  0  0  0  0  0  0  0  0  0
    4.9120   -3.0640   -0.7563 H   0  0  0  0  0  0  0  0  0  0  0  0
  1 22  1  0  0  0  0
  2 22  1  0  0  0  0
  3 22  1  0  0  0  0
  4  8  1  0  0  0  0
  4 32  1  0  0  0  0
  5 20  1  0  0  0  0
  5 22  1  0  0  0  0
  6 16  2  0  0  0  0
  6 21  1  0  0  0  0
  7 17  1  0  0  0  0
  7 21  2  0  0  0  0
  8  9  1  0  0  0  0
  8 10  1  0  0  0  0
  8 11  1  0  0  0  0
  9 12  1  0  0  0  0
  9 13  1  0  0  0  0
  9 23  1  0  0  0  0
 10 14  2  0  0  0  0
 10 15  1  0  0  0  0
 11 16  1  0  0  0  0
 11 17  2  0  0  0  0
 12 24  1  0  0  0  0
 12 25  1  0  0  0  0
 12 26  1  0  0  0  0
 13 27  1  0  0  0  0
 13 28  1  0  0  0  0
 13 29  1  0  0  0  0
 14 18  1  0  0  0  0
 14 30  1  0  0  0  0
 15 19  2  0  0  0  0
 15 31  1  0  0  0  0
 16 33  1  0  0  0  0
 17 34  1  0  0  0  0
 18 20  2  0  0  0  0
 18 35  1  0  0  0  0
 19 20  1  0  0  0  0
 19 36  1  0  0  0  0
 21 37  1  0  0  0  0
M  END
> <PUBCHEM_COMPOUND_CID>
73668

> <PUBCHEM_CONFORMER_RMSD>
0.8

> <PUBCHEM_CONFORMER_DIVERSEORDER>
1
16
10
13
12
14
6
17
7
15
3
9
2
11
8
5
4

> <PUBCHEM_MMFF94_PARTIAL_CHARGES>
27
1 -0.34
10 -0.14
11 -0.14
14 -0.15
15 -0.15
16 0.16
17 0.16
18 -0.15
19 -0.15
2 -0.34
20 0.08
21 0.47
22 1.3
3 -0.34
30 0.15
31 0.15
32 0.4
33 0.15
34 0.15
35 0.15
36 0.15
37 0.15
4 -0.68
5 -0.36
6 -0.62
7 -0.62
8 0.57

> <PUBCHEM_EFFECTIVE_ROTOR_COUNT>
5

> <PUBCHEM_PHARMACOPHORE_FEATURES>
8
1 4 acceptor
1 4 donor
1 5 acceptor
1 6 acceptor
3 6 7 21 cation
3 9 12 13 hydrophobe
6 10 14 15 18 19 20 rings
6 6 7 11 16 17 21 rings

> <PUBCHEM_HEAVY_ATOM_COUNT>
22

> <PUBCHEM_ATOM_DEF_STEREO_COUNT>
0

> <PUBCHEM_ATOM_UDEF_STEREO_COUNT>
1

> <PUBCHEM_BOND_DEF_STEREO_COUNT>
0

> <PUBCHEM_BOND_UDEF_STEREO_COUNT>
0

> <PUBCHEM_ISOTOPIC_ATOM_COUNT>
0

> <PUBCHEM_COMPONENT_COUNT>
1

> <PUBCHEM_CACTVS_TAUTO_COUNT>
1

> <PUBCHEM_CONFORMER_ID>
00011FC400000001

> <PUBCHEM_MMFF94_ENERGY>
78.7125

> <PUBCHEM_FEATURE_SELFOVERLAP>
40.594

> <PUBCHEM_SHAPE_FINGERPRINT>
10906281 52 18129372727393099280
11405975 8 18409163286643991939
116883 192 18337389456373309100
12363563 72 18338793533001391582
12403259 415 17632582643693796133
12553582 1 18196913647833205746
12730499 353 18127118684925405888
12892183 10 14635431692620451306
13533116 47 18337953390369665075
13544592 145 18060698381571656139
13583140 156 17678461853289594131
13675066 3 17313110769377078039
13955234 65 18337107839625501456
14115302 16 17676489419381311231
15163728 17 16770955733585956900
15788980 27 17749110006807298751
15848700 24 18336829787864117902
15848702 151 18410577292708824839
16945 1 16988263349211845888
17349148 13 16877939443233846175
17492 54 18193248877215099998
17492 89 18265613187247017599
17818456 19 17677603336492935417
17844677 252 18341889689289248721
1813 80 18188198922992540838
18186145 218 17988928847175078485
18222031 100 17968371346969208150
19784866 240 17967523614450073270
20361792 2 18335978770449388990
20369508 70 18272374182903268434
20388580 30 18335132120705066230
20645477 70 18410289181607052990
20832881 197 18130227176254024211
21304303 282 16600156351713071116
21503847 285 18272654567185450853
221357 26 18272374191783379549
22289505 5 18342182141506549244
2255824 54 18410291372441170614
23419403 2 17825982409423996344
23559900 14 18411700945920581867
2637199 183 14117513285522462546
29717793 49 18335430054270749087
312423 11 18261097574505839121
3286 77 18202289120946110214
4072396 5 15574711430792927495
465052 167 18335412474347724879
495365 180 18340772528965516584
4990 188 17918276445955940395
5281201 14 18413108342774928165
5374978 207 14418134028090225811
633830 44 18202012010362878605
7164475 11 18114175367435633177
7364860 26 18340204086192314288
81228 2 17977943811370458208
8272917 22 18337386041742011332
90127 26 17775287158261752161
960060 61 18272362083843382278
9709674 26 18199464359964028467
9841814 1 18272379676319278280
9971528 1 18334582351563216744

> <PUBCHEM_SHAPE_MULTIPOLES>
409.23
9.59
2.56
1.36
12.32
1.88
-0.08
-4.33
2.03
-3.77
0.15
-0.29
-0.26
0.3

> <PUBCHEM_SHAPE_SELFOVERLAP>
877.911

> <PUBCHEM_SHAPE_VOLUME>
227.4

> <PUBCHEM_COORDINATE_TYPE>
2
5
10

$$$$

