8768
  -OEChem-06261203052D

 16 16  0     0  0  0  0  0  0999 V2000
    4.2690    1.8450    0.0000 O   0  0  0  0  0  0  0  0  0  0  0  0
    2.5369    0.8450    0.0000 O   0  0  0  0  0  0  0  0  0  0  0  0
    6.0010   -2.1550    0.0000 O   0  0  0  0  0  0  0  0  0  0  0  0
    5.1350   -0.6550    0.0000 C   0  0  0  0  0  0  0  0  0  0  0  0
    4.2690    0.8450    0.0000 C   0  0  0  0  0  0  0  0  0  0  0  0
    5.1350    0.3450    0.0000 C   0  0  0  0  0  0  0  0  0  0  0  0
    3.4030    0.3450    0.0000 C   0  0  0  0  0  0  0  0  0  0  0  0
    4.2690   -1.1550    0.0000 C   0  0  0  0  0  0  0  0  0  0  0  0
    3.4030   -0.6550    0.0000 C   0  0  0  0  0  0  0  0  0  0  0  0
    6.0010   -1.1550    0.0000 C   0  0  0  0  0  0  0  0  0  0  0  0
    5.6720    0.6550    0.0000 H   0  0  0  0  0  0  0  0  0  0  0  0
    4.2690   -1.7750    0.0000 H   0  0  0  0  0  0  0  0  0  0  0  0
    2.8660   -0.9650    0.0000 H   0  0  0  0  0  0  0  0  0  0  0  0
    6.5380   -0.8450    0.0000 H   0  0  0  0  0  0  0  0  0  0  0  0
    4.8059    2.1550    0.0000 H   0  0  0  0  0  0  0  0  0  0  0  0
    2.0000    0.5350    0.0000 H   0  0  0  0  0  0  0  0  0  0  0  0
  1  5  1  0  0  0  0
  1 15  1  0  0  0  0
  2  7  1  0  0  0  0
  2 16  1  0  0  0  0
  3 10  2  0  0  0  0
  4  6  2  0  0  0  0
  4  8  1  0  0  0  0
  4 10  1  0  0  0  0
  5  6  1  0  0  0  0
  5  7  2  0  0  0  0
  6 11  1  0  0  0  0
  7  9  1  0  0  0  0
  8  9  2  0  0  0  0
  8 12  1  0  0  0  0
  9 13  1  0  0  0  0
 10 14  1  0  0  0  0
M  END
> <PUBCHEM_COMPOUND_CID>
8768

> <PUBCHEM_COMPOUND_CANONICALIZED>
1

> <PUBCHEM_CACTVS_COMPLEXITY>
124

> <PUBCHEM_CACTVS_HBOND_ACCEPTOR>
3

> <PUBCHEM_CACTVS_HBOND_DONOR>
2

> <PUBCHEM_CACTVS_ROTATABLE_BOND>
1

> <PUBCHEM_CACTVS_SUBSKEYS>
AAADcYBgMAAAAAAAAAAAAAAAAAAAAAAAAAAwAAAAAAAAAAABAAAAGgAACAAADASgmAIwBoAAAgCIAihSgAACAAAkIAAIiAEGiMgJJjKCFRKAcQEkwBEJmYeKzBDOIAABAAAAQABAAAIAAACAAAAAAAAAAA==

> <PUBCHEM_IUPAC_OPENEYE_NAME>
3,4-dihydroxybenzaldehyde

> <PUBCHEM_IUPAC_CAS_NAME>
3,4-dihydroxybenzaldehyde

> <PUBCHEM_IUPAC_NAME>
3,4-dihydroxybenzaldehyde

> <PUBCHEM_IUPAC_SYSTEMATIC_NAME>
3,4-bis(oxidanyl)benzaldehyde

> <PUBCHEM_IUPAC_TRADITIONAL_NAME>
3,4-dihydroxybenzaldehyde

> <PUBCHEM_IUPAC_INCHI>
InChI=1S/C7H6O3/c8-4-5-1-2-6(9)7(10)3-5/h1-4,9-10H

> <PUBCHEM_IUPAC_INCHIKEY>
IBGBGRVKPALMCQ-UHFFFAOYSA-N

> <PUBCHEM_XLOGP3>
1.3

> <PUBCHEM_EXACT_MASS>
138.031694

> <PUBCHEM_MOLECULAR_FORMULA>
C7H6O3

> <PUBCHEM_MOLECULAR_WEIGHT>
138.12074

> <PUBCHEM_OPENEYE_CAN_SMILES>
C1=CC(=C(C=C1C=O)O)O

> <PUBCHEM_OPENEYE_ISO_SMILES>
C1=CC(=C(C=C1C=O)O)O

> <PUBCHEM_CACTVS_TPSA>
57.5

> <PUBCHEM_MONOISOTOPIC_WEIGHT>
138.031694

> <PUBCHEM_TOTAL_CHARGE>
0

> <PUBCHEM_HEAVY_ATOM_COUNT>
10

> <PUBCHEM_ATOM_DEF_STEREO_COUNT>
0

> <PUBCHEM_ATOM_UDEF_STEREO_COUNT>
0

> <PUBCHEM_BOND_DEF_STEREO_COUNT>
0

> <PUBCHEM_BOND_UDEF_STEREO_COUNT>
0

> <PUBCHEM_ISOTOPIC_ATOM_COUNT>
0

> <PUBCHEM_COMPONENT_COUNT>
1

> <PUBCHEM_CACTVS_TAUTO_COUNT>
12

> <PUBCHEM_COORDINATE_TYPE>
1
5
255

> <PUBCHEM_BONDANNOTATIONS>
4  6  8
4  8  8
5  6  8
5  7  8
7  9  8
8  9  8

$$$$

