55977
  -OEChem-07051213022D

 17 18  0     0  0  0  0  0  0999 V2000
    5.1408   -0.5852    0.0000 S   0  0  0  0  0  0  0  0  0  0  0  0
    3.6418   -1.8864    0.0000 S   0  0  0  0  0  0  0  0  0  0  0  0
    5.7204    0.2224    0.0000 O   0  0  0  0  0  0  0  0  0  0  0  0
    3.6208    2.3104    0.0000 O   0  0  0  0  0  0  0  0  0  0  0  0
    5.4387    1.9763    0.0000 O   0  0  0  0  0  0  0  0  0  0  0  0
    4.1881    0.7148    0.0000 C   0  0  0  0  0  0  0  0  0  0  0  0
    4.1931   -0.2852    0.0000 C   0  0  0  0  0  0  0  0  0  0  0  0
    3.4144   -0.9126    0.0000 C   0  0  0  0  0  0  0  0  0  0  0  0
    3.4032    1.3344    0.0000 C   0  0  0  0  0  0  0  0  0  0  0  0
    5.1328    1.0242    0.0000 C   0  0  0  0  0  0  0  0  0  0  0  0
    2.4384   -0.6949    0.0000 C   0  0  0  0  0  0  0  0  0  0  0  0
    2.4294    1.1070    0.0000 C   0  0  0  0  0  0  0  0  0  0  0  0
    2.0000    0.2038    0.0000 C   0  0  0  0  0  0  0  0  0  0  0  0
    2.0542   -1.1816    0.0000 H   0  0  0  0  0  0  0  0  0  0  0  0
    2.0404    1.5898    0.0000 H   0  0  0  0  0  0  0  0  0  0  0  0
    1.3800    0.2008    0.0000 H   0  0  0  0  0  0  0  0  0  0  0  0
    3.1894   -2.3104    0.0000 H   0  0  0  0  0  0  0  0  0  0  0  0
  1  3  1  0  0  0  0
  1  7  1  0  0  0  0
  2  8  1  0  0  0  0
  2 17  1  0  0  0  0
  3 10  1  0  0  0  0
  4  9  2  0  0  0  0
  5 10  2  0  0  0  0
  6  7  2  0  0  0  0
  6  9  1  0  0  0  0
  6 10  1  0  0  0  0
  7  8  1  0  0  0  0
  8 11  2  0  0  0  0
  9 12  1  0  0  0  0
 11 13  1  0  0  0  0
 11 14  1  0  0  0  0
 12 13  2  0  0  0  0
 12 15  1  0  0  0  0
 13 16  1  0  0  0  0
M  END
> <PUBCHEM_COMPOUND_CID>
55977

> <PUBCHEM_COMPOUND_CANONICALIZED>
1

> <PUBCHEM_CACTVS_COMPLEXITY>
390

> <PUBCHEM_CACTVS_HBOND_ACCEPTOR>
5

> <PUBCHEM_CACTVS_HBOND_DONOR>
1

> <PUBCHEM_CACTVS_ROTATABLE_BOND>
0

> <PUBCHEM_CACTVS_SUBSKEYS>
AAADcYBwMABgAAAAAAAAAAAAAAAAAQAAAAAAAAAABAAAAACAAAAAGgQAAAAADASAwAAACAAAAAaIAqDSCAAAAAAgAAAICAEAAEgIBBQIAQAAEAAEoAAIgYIAAAAAAAAAAAAAAAAAAAAAAAAAAAAAAAAAAA==

> <PUBCHEM_IUPAC_OPENEYE_NAME>
8-sulfanylcyclohepta[c]oxathiole-3,4-dione

> <PUBCHEM_IUPAC_CAS_NAME>
8-mercaptocyclohepta[c]oxathiole-3,4-dione

> <PUBCHEM_IUPAC_NAME>
8-sulfanylcyclohepta[c]oxathiole-3,4-dione

> <PUBCHEM_IUPAC_SYSTEMATIC_NAME>
8-sulfanylcyclohepta[c][1,2]oxathiole-3,4-dione

> <PUBCHEM_IUPAC_TRADITIONAL_NAME>
8-mercaptocyclohepta[c]oxathiole-3,4-quinone

> <PUBCHEM_IUPAC_INCHI>
InChI=1S/C8H4O3S2/c9-4-2-1-3-5(12)7-6(4)8(10)11-13-7/h1-3,12H

> <PUBCHEM_IUPAC_INCHIKEY>
RWJXTYSZCDAMCD-UHFFFAOYSA-N

> <PUBCHEM_XLOGP3_AA>
1.3

> <PUBCHEM_EXACT_MASS>
211.960186

> <PUBCHEM_MOLECULAR_FORMULA>
C8H4O3S2

> <PUBCHEM_MOLECULAR_WEIGHT>
212.24556

> <PUBCHEM_OPENEYE_CAN_SMILES>
C1=CC(=O)C2=C(C(=C1)S)SOC2=O

> <PUBCHEM_OPENEYE_ISO_SMILES>
C1=CC(=O)C2=C(C(=C1)S)SOC2=O

> <PUBCHEM_CACTVS_TPSA>
69.7

> <PUBCHEM_MONOISOTOPIC_WEIGHT>
211.960186

> <PUBCHEM_TOTAL_CHARGE>
0

> <PUBCHEM_HEAVY_ATOM_COUNT>
13

> <PUBCHEM_ATOM_DEF_STEREO_COUNT>
0

> <PUBCHEM_ATOM_UDEF_STEREO_COUNT>
0

> <PUBCHEM_BOND_DEF_STEREO_COUNT>
0

> <PUBCHEM_BOND_UDEF_STEREO_COUNT>
0

> <PUBCHEM_ISOTOPIC_ATOM_COUNT>
0

> <PUBCHEM_COMPONENT_COUNT>
1

> <PUBCHEM_CACTVS_TAUTO_COUNT>
4

> <PUBCHEM_COORDINATE_TYPE>
1
5
255

> <PUBCHEM_BONDANNOTATIONS>
1  3  8
1  7  8
11  13  8
12  13  8
3  10  8
6  10  8
6  7  8
6  9  8
7  8  8
8  11  8
9  12  8

$$$$

