5280803
  -OEChem-07051212502D

 76 80  0     1  0  0  0  0  0999 V2000
   12.1254    2.5130    0.0000 O   0  0  0  0  0  0  0  0  0  0  0  0
   13.9046    2.6132    0.0000 O   0  0  0  0  0  0  0  0  0  0  0  0
   11.2690    0.0097    0.0000 O   0  0  0  0  0  0  0  0  0  0  0  0
   13.8558    5.2003    0.0000 O   0  0  0  0  0  0  0  0  0  0  0  0
   13.8613    1.5197    0.0000 O   0  0  0  0  0  0  0  0  0  0  0  0
   12.3444    4.6775    0.0000 O   0  0  0  0  0  0  0  0  0  0  0  0
   10.3972    1.5064    0.0000 O   0  0  0  0  0  0  0  0  0  0  0  0
   13.8690   -0.4803    0.0000 O   0  0  0  0  0  0  0  0  0  0  0  0
   15.7995    4.2296    0.0000 O   0  0  0  0  0  0  0  0  0  0  0  0
   11.2767   -1.9903    0.0000 O   0  0  0  0  0  0  0  0  0  0  0  0
    6.8671    1.4822    0.0000 O   0  0  0  0  0  0  0  0  0  0  0  0
   12.1485   -3.4869    0.0000 O   0  0  0  0  0  0  0  0  0  0  0  0
    8.6155   -1.5524    0.0000 O   0  0  0  0  0  0  0  0  0  0  0  0
    6.8671   -1.5178    0.0000 O   0  0  0  0  0  0  0  0  0  0  0  0
    9.5562   -4.9969    0.0000 O   0  0  0  0  0  0  0  0  0  0  0  0
   11.2883   -4.9903    0.0000 O   0  0  0  0  0  0  0  0  0  0  0  0
    2.5369    2.9822    0.0000 O   0  0  0  0  0  0  0  0  0  0  0  0
   12.1292    1.5130    0.0000 C   0  0  2  0  0  0  0  0  0  0  0  0
   14.0675    4.2230    0.0000 C   0  0  1  0  0  0  0  0  0  0  0  0
   12.9972    1.0164    0.0000 C   0  0  2  0  0  0  0  0  0  0  0  0
   13.0902    4.0113    0.0000 C   0  0  2  0  0  0  0  0  0  0  0  0
   12.9895    3.0164    0.0000 C   0  0  2  0  0  0  0  0  0  0  0  0
   13.0010    0.0164    0.0000 C   0  0  1  0  0  0  0  0  0  0  0  0
   11.2651    1.0097    0.0000 C   0  0  1  0  0  0  0  0  0  0  0  0
   12.1369   -0.4870    0.0000 C   0  0  1  0  0  0  0  0  0  0  0  0
   14.5708    3.3589    0.0000 C   0  0  0  0  0  0  0  0  0  0  0  0
   14.9316    4.7263    0.0000 C   0  0  0  0  0  0  0  0  0  0  0  0
   12.1408   -1.4870    0.0000 C   0  0  0  0  0  0  0  0  0  0  0  0
    9.5331    1.0030    0.0000 C   0  0  0  0  0  0  0  0  0  0  0  0
    8.6270    1.5169    0.0000 C   0  0  0  0  0  0  0  0  0  0  0  0
    9.5331   -0.0386    0.0000 C   0  0  0  0  0  0  0  0  0  0  0  0
   11.2806   -2.9903    0.0000 C   0  0  0  0  0  0  0  0  0  0  0  0
    7.7331    0.9822    0.0000 C   0  0  0  0  0  0  0  0  0  0  0  0
    8.6270   -0.5525    0.0000 C   0  0  0  0  0  0  0  0  0  0  0  0
    7.7331   -0.0178    0.0000 C   0  0  0  0  0  0  0  0  0  0  0  0
   10.4165   -3.4936    0.0000 C   0  0  0  0  0  0  0  0  0  0  0  0
    6.8671   -0.5178    0.0000 C   0  0  0  0  0  0  0  0  0  0  0  0
    6.0010    0.9822    0.0000 C   0  0  0  0  0  0  0  0  0  0  0  0
    6.0010   -0.0178    0.0000 C   0  0  0  0  0  0  0  0  0  0  0  0
   10.4203   -4.4936    0.0000 C   0  0  0  0  0  0  0  0  0  0  0  0
    5.1350    1.4822    0.0000 C   0  0  0  0  0  0  0  0  0  0  0  0
    5.1350    2.4822    0.0000 C   0  0  0  0  0  0  0  0  0  0  0  0
    4.2690    0.9822    0.0000 C   0  0  0  0  0  0  0  0  0  0  0  0
    4.2690    2.9822    0.0000 C   0  0  0  0  0  0  0  0  0  0  0  0
    3.4030    1.4822    0.0000 C   0  0  0  0  0  0  0  0  0  0  0  0
    3.4030    2.4822    0.0000 C   0  0  0  0  0  0  0  0  0  0  0  0
   12.6650    1.8251    0.0000 H   0  0  0  0  0  0  0  0  0  0  0  0
   13.5353    0.7084    0.0000 H   0  0  0  0  0  0  0  0  0  0  0  0
   13.2483    4.6108    0.0000 H   0  0  0  0  0  0  0  0  0  0  0  0
   13.0243    2.3973    0.0000 H   0  0  0  0  0  0  0  0  0  0  0  0
   13.0034   -0.6036    0.0000 H   0  0  0  0  0  0  0  0  0  0  0  0
   10.7294    0.6976    0.0000 H   0  0  0  0  0  0  0  0  0  0  0  0
   11.6012   -0.7990    0.0000 H   0  0  0  0  0  0  0  0  0  0  0  0
   14.9875    2.8997    0.0000 H   0  0  0  0  0  0  0  0  0  0  0  0
   15.0710    3.7252    0.0000 H   0  0  0  0  0  0  0  0  0  0  0  0
   15.3283    5.2028    0.0000 H   0  0  0  0  0  0  0  0  0  0  0  0
   14.5312    5.1997    0.0000 H   0  0  0  0  0  0  0  0  0  0  0  0
   12.3551   -2.0687    0.0000 H   0  0  0  0  0  0  0  0  0  0  0  0
   12.7510   -1.3769    0.0000 H   0  0  0  0  0  0  0  0  0  0  0  0
   14.3150    5.6169    0.0000 H   0  0  0  0  0  0  0  0  0  0  0  0
   14.3994    1.2118    0.0000 H   0  0  0  0  0  0  0  0  0  0  0  0
   12.4710    5.2845    0.0000 H   0  0  0  0  0  0  0  0  0  0  0  0
   13.8714   -1.1003    0.0000 H   0  0  0  0  0  0  0  0  0  0  0  0
   16.3353    4.5417    0.0000 H   0  0  0  0  0  0  0  0  0  0  0  0
    8.6199    2.1368    0.0000 H   0  0  0  0  0  0  0  0  0  0  0  0
   10.0688   -0.3507    0.0000 H   0  0  0  0  0  0  0  0  0  0  0  0
   10.2022   -2.9118    0.0000 H   0  0  0  0  0  0  0  0  0  0  0  0
    9.8063   -3.6036    0.0000 H   0  0  0  0  0  0  0  0  0  0  0  0
    5.4641   -0.3278    0.0000 H   0  0  0  0  0  0  0  0  0  0  0  0
    9.1488   -1.8686    0.0000 H   0  0  0  0  0  0  0  0  0  0  0  0
    5.6720    2.7922    0.0000 H   0  0  0  0  0  0  0  0  0  0  0  0
    4.2690    0.3622    0.0000 H   0  0  0  0  0  0  0  0  0  0  0  0
    9.5586   -5.6169    0.0000 H   0  0  0  0  0  0  0  0  0  0  0  0
    4.2690    3.6022    0.0000 H   0  0  0  0  0  0  0  0  0  0  0  0
    2.8660    1.1722    0.0000 H   0  0  0  0  0  0  0  0  0  0  0  0
    2.0000    2.6722    0.0000 H   0  0  0  0  0  0  0  0  0  0  0  0
 18  1  1  6  0  0  0
 22  1  1  1  0  0  0
  2 22  1  0  0  0  0
  2 26  1  0  0  0  0
  3 24  1  0  0  0  0
  3 25  1  0  0  0  0
 19  4  1  6  0  0  0
  4 60  1  0  0  0  0
 20  5  1  1  0  0  0
  5 61  1  0  0  0  0
 21  6  1  6  0  0  0
  6 62  1  0  0  0  0
 24  7  1  1  0  0  0
  7 29  1  0  0  0  0
 23  8  1  6  0  0  0
  8 63  1  0  0  0  0
  9 27  1  0  0  0  0
  9 64  1  0  0  0  0
 10 28  1  0  0  0  0
 10 32  1  0  0  0  0
 11 33  1  0  0  0  0
 11 38  1  0  0  0  0
 12 32  2  0  0  0  0
 13 34  1  0  0  0  0
 13 70  1  0  0  0  0
 14 37  2  0  0  0  0
 15 40  1  0  0  0  0
 15 73  1  0  0  0  0
 16 40  2  0  0  0  0
 17 46  1  0  0  0  0
 17 76  1  0  0  0  0
 18 20  1  0  0  0  0
 18 24  1  0  0  0  0
 18 47  1  0  0  0  0
 19 21  1  0  0  0  0
 19 26  1  0  0  0  0
 19 27  1  0  0  0  0
 20 23  1  0  0  0  0
 20 48  1  0  0  0  0
 21 22  1  0  0  0  0
 21 49  1  0  0  0  0
 22 50  1  0  0  0  0
 23 25  1  0  0  0  0
 23 51  1  0  0  0  0
 24 52  1  0  0  0  0
 25 28  1  1  0  0  0
 25 53  1  0  0  0  0
 26 54  1  0  0  0  0
 26 55  1  0  0  0  0
 27 56  1  0  0  0  0
 27 57  1  0  0  0  0
 28 58  1  0  0  0  0
 28 59  1  0  0  0  0
 29 30  1  0  0  0  0
 29 31  2  0  0  0  0
 30 33  2  0  0  0  0
 30 65  1  0  0  0  0
 31 34  1  0  0  0  0
 31 66  1  0  0  0  0
 32 36  1  0  0  0  0
 33 35  1  0  0  0  0
 34 35  2  0  0  0  0
 35 37  1  0  0  0  0
 36 40  1  0  0  0  0
 36 67  1  0  0  0  0
 36 68  1  0  0  0  0
 37 39  1  0  0  0  0
 38 39  2  0  0  0  0
 38 41  1  0  0  0  0
 39 69  1  0  0  0  0
 41 42  2  0  0  0  0
 41 43  1  0  0  0  0
 42 44  1  0  0  0  0
 42 71  1  0  0  0  0
 43 45  2  0  0  0  0
 43 72  1  0  0  0  0
 44 46  2  0  0  0  0
 44 74  1  0  0  0  0
 45 46  1  0  0  0  0
 45 75  1  0  0  0  0
M  END
> <PUBCHEM_COMPOUND_CID>
5280803

> <PUBCHEM_COMPOUND_CANONICALIZED>
1

> <PUBCHEM_CACTVS_COMPLEXITY>
1140

> <PUBCHEM_CACTVS_HBOND_ACCEPTOR>
17

> <PUBCHEM_CACTVS_HBOND_DONOR>
8

> <PUBCHEM_CACTVS_ROTATABLE_BOND>
11

> <PUBCHEM_CACTVS_SUBSKEYS>
AAADceB4PgAAAAAAAAAAAAAAAAAAASAAAAA0YIEAAAAAAACBQAAAGgAACAAADFSwmAMwDoAABgCIAqDSCAACCAAkIAAIiAEGCMgdNzaONRqieWCl4BUPuQfI7KzOIAAACAAIAABAAAAQABAAAAAAAAAAAA==

> <PUBCHEM_IUPAC_OPENEYE_NAME>
3-[[(2R,3S,4S,5R,6S)-5-[(2S,3R,4R)-3,4-dihydroxy-4-(hydroxymethyl)tetrahydrofuran-2-yl]oxy-3,4-dihydroxy-6-[5-hydroxy-2-(4-hydroxyphenyl)-4-oxo-chromen-7-yl]oxy-tetrahydropyran-2-yl]methoxy]-3-oxo-propanoic acid

> <PUBCHEM_IUPAC_CAS_NAME>
3-[[(2R,3S,4S,5R,6S)-5-[[(2S,3R,4R)-3,4-dihydroxy-4-(hydroxymethyl)-2-oxolanyl]oxy]-3,4-dihydroxy-6-[[5-hydroxy-2-(4-hydroxyphenyl)-4-oxo-1-benzopyran-7-yl]oxy]-2-oxanyl]methoxy]-3-oxopropanoic acid

> <PUBCHEM_IUPAC_NAME>
3-[[(2R,3S,4S,5R,6S)-5-[(2S,3R,4R)-3,4-dihydroxy-4-(hydroxymethyl)oxolan-2-yl]oxy-3,4-dihydroxy-6-[5-hydroxy-2-(4-hydroxyphenyl)-4-oxochromen-7-yl]oxyoxan-2-yl]methoxy]-3-oxopropanoic acid

> <PUBCHEM_IUPAC_SYSTEMATIC_NAME>
3-[[(2R,3S,4S,5R,6S)-5-[(2S,3R,4R)-4-(hydroxymethyl)-3,4-bis(oxidanyl)oxolan-2-yl]oxy-6-[2-(4-hydroxyphenyl)-5-oxidanyl-4-oxidanylidene-chromen-7-yl]oxy-3,4-bis(oxidanyl)oxan-2-yl]methoxy]-3-oxidanylidene-propanoic acid

> <PUBCHEM_IUPAC_TRADITIONAL_NAME>
3-[[(2R,3S,4S,5R,6S)-5-[(2S,3R,4R)-3,4-dihydroxy-4-methylol-tetrahydrofuran-2-yl]oxy-3,4-dihydroxy-6-[5-hydroxy-2-(4-hydroxyphenyl)-4-keto-chromen-7-yl]oxy-tetrahydropyran-2-yl]methoxy]-3-keto-propionic acid

> <PUBCHEM_IUPAC_INCHI>
InChI=1S/C29H30O17/c30-10-29(40)11-42-28(26(29)39)46-25-24(38)23(37)19(9-41-21(36)8-20(34)35)45-27(25)43-14-5-15(32)22-16(33)7-17(44-18(22)6-14)12-1-3-13(31)4-2-12/h1-7,19,23-28,30-32,37-40H,8-11H2,(H,34,35)/t19-,23-,24+,25-,26+,27-,28+,29-/m1/s1

> <PUBCHEM_IUPAC_INCHIKEY>
JNAHTYWPEQLJRT-CQRLEKJLSA-N

> <PUBCHEM_XLOGP3_AA>
-0.6

> <PUBCHEM_EXACT_MASS>
650.148299

> <PUBCHEM_MOLECULAR_FORMULA>
C29H30O17

> <PUBCHEM_MOLECULAR_WEIGHT>
650.5383

> <PUBCHEM_OPENEYE_CAN_SMILES>
C1C(C(C(O1)OC2C(C(C(OC2OC3=CC(=C4C(=C3)OC(=CC4=O)C5=CC=C(C=C5)O)O)COC(=O)CC(=O)O)O)O)O)(CO)O

> <PUBCHEM_OPENEYE_ISO_SMILES>
C1[C@@]([C@H]([C@@H](O1)O[C@@H]2[C@H]([C@@H]([C@H](O[C@H]2OC3=CC(=C4C(=C3)OC(=CC4=O)C5=CC=C(C=C5)O)O)COC(=O)CC(=O)O)O)O)O)(CO)O

> <PUBCHEM_CACTVS_TPSA>
268

> <PUBCHEM_MONOISOTOPIC_WEIGHT>
650.148299

> <PUBCHEM_TOTAL_CHARGE>
0

> <PUBCHEM_HEAVY_ATOM_COUNT>
46

> <PUBCHEM_ATOM_DEF_STEREO_COUNT>
8

> <PUBCHEM_ATOM_UDEF_STEREO_COUNT>
0

> <PUBCHEM_BOND_DEF_STEREO_COUNT>
0

> <PUBCHEM_BOND_UDEF_STEREO_COUNT>
0

> <PUBCHEM_ISOTOPIC_ATOM_COUNT>
0

> <PUBCHEM_COMPONENT_COUNT>
1

> <PUBCHEM_CACTVS_TAUTO_COUNT>
24

> <PUBCHEM_COORDINATE_TYPE>
1
5
255

> <PUBCHEM_BONDANNOTATIONS>
18  1  6
22  1  5
11  33  8
11  38  8
25  28  5
29  30  8
29  31  8
30  33  8
31  34  8
33  35  8
34  35  8
35  37  8
37  39  8
38  39  8
19  4  6
41  42  8
41  43  8
42  44  8
43  45  8
44  46  8
45  46  8
20  5  5
21  6  6
24  7  5
23  8  6

$$$$

