5029
  -OEChem-07051212542D

 46 48  0     1  0  0  0  0  0999 V2000
    6.2619   -0.4330    0.0000 S   0  0  3  0  0  0  0  0  0  0  0  0
    9.7619    0.4330    0.0000 O   0  0  0  0  0  0  0  0  0  0  0  0
   12.7619    2.1651    0.0000 O   0  0  0  0  0  0  0  0  0  0  0  0
    6.7619    0.4330    0.0000 O   0  0  0  0  0  0  0  0  0  0  0  0
    4.6783    0.3717    0.0000 N   0  0  0  0  0  0  0  0  0  0  0  0
    4.6783   -1.2377    0.0000 N   0  0  0  0  0  0  0  0  0  0  0  0
    8.2619   -2.1651    0.0000 N   0  0  0  0  0  0  0  0  0  0  0  0
    6.7619   -1.2990    0.0000 C   0  0  0  0  0  0  0  0  0  0  0  0
    7.7619   -1.2990    0.0000 C   0  0  0  0  0  0  0  0  0  0  0  0
    8.2619   -0.4330    0.0000 C   0  0  0  0  0  0  0  0  0  0  0  0
    9.2619   -0.4330    0.0000 C   0  0  0  0  0  0  0  0  0  0  0  0
    5.2619   -0.4330    0.0000 C   0  0  0  0  0  0  0  0  0  0  0  0
    3.7320    0.0670    0.0000 C   0  0  0  0  0  0  0  0  0  0  0  0
   10.7619    0.4330    0.0000 C   0  0  0  0  0  0  0  0  0  0  0  0
   11.2619    1.2990    0.0000 C   0  0  0  0  0  0  0  0  0  0  0  0
    3.7320   -0.9330    0.0000 C   0  0  0  0  0  0  0  0  0  0  0  0
    7.7619    0.4330    0.0000 C   0  0  0  0  0  0  0  0  0  0  0  0
    9.7619   -1.2990    0.0000 C   0  0  0  0  0  0  0  0  0  0  0  0
   12.2619    1.2990    0.0000 C   0  0  0  0  0  0  0  0  0  0  0  0
    2.8660    0.5670    0.0000 C   0  0  0  0  0  0  0  0  0  0  0  0
    9.2619   -2.1651    0.0000 C   0  0  0  0  0  0  0  0  0  0  0  0
    2.8660   -1.4330    0.0000 C   0  0  0  0  0  0  0  0  0  0  0  0
    2.0000    0.0670    0.0000 C   0  0  0  0  0  0  0  0  0  0  0  0
    2.0000   -0.9330    0.0000 C   0  0  0  0  0  0  0  0  0  0  0  0
   13.7619    2.1651    0.0000 C   0  0  0  0  0  0  0  0  0  0  0  0
    6.1793   -1.5111    0.0000 H   0  0  0  0  0  0  0  0  0  0  0  0
    6.8695   -1.9096    0.0000 H   0  0  0  0  0  0  0  0  0  0  0  0
   10.6542   -0.1776    0.0000 H   0  0  0  0  0  0  0  0  0  0  0  0
   11.3445    0.2210    0.0000 H   0  0  0  0  0  0  0  0  0  0  0  0
   11.3695    1.9096    0.0000 H   0  0  0  0  0  0  0  0  0  0  0  0
   10.6793    1.5111    0.0000 H   0  0  0  0  0  0  0  0  0  0  0  0
    4.8709    0.9610    0.0000 H   0  0  0  0  0  0  0  0  0  0  0  0
    8.2988    0.7430    0.0000 H   0  0  0  0  0  0  0  0  0  0  0  0
    7.4519    0.9699    0.0000 H   0  0  0  0  0  0  0  0  0  0  0  0
    7.2249    0.1230    0.0000 H   0  0  0  0  0  0  0  0  0  0  0  0
   10.3819   -1.2990    0.0000 H   0  0  0  0  0  0  0  0  0  0  0  0
   12.1542    0.6885    0.0000 H   0  0  0  0  0  0  0  0  0  0  0  0
   12.8445    1.0870    0.0000 H   0  0  0  0  0  0  0  0  0  0  0  0
    2.8660    1.1870    0.0000 H   0  0  0  0  0  0  0  0  0  0  0  0
    9.5719   -2.7020    0.0000 H   0  0  0  0  0  0  0  0  0  0  0  0
    2.8660   -2.0530    0.0000 H   0  0  0  0  0  0  0  0  0  0  0  0
    1.4631    0.3770    0.0000 H   0  0  0  0  0  0  0  0  0  0  0  0
    1.4631   -1.2430    0.0000 H   0  0  0  0  0  0  0  0  0  0  0  0
   13.7619    1.5451    0.0000 H   0  0  0  0  0  0  0  0  0  0  0  0
   14.3819    2.1651    0.0000 H   0  0  0  0  0  0  0  0  0  0  0  0
   13.7619    2.7851    0.0000 H   0  0  0  0  0  0  0  0  0  0  0  0
  1  4  2  0  0  0  0
  1  8  1  0  0  0  0
  1 12  1  0  0  0  0
  2 11  1  0  0  0  0
  2 14  1  0  0  0  0
  3 19  1  0  0  0  0
  3 25  1  0  0  0  0
  5 12  1  0  0  0  0
  5 13  1  0  0  0  0
  5 32  1  0  0  0  0
  6 12  2  0  0  0  0
  6 16  1  0  0  0  0
  7  9  2  0  0  0  0
  7 21  1  0  0  0  0
  8  9  1  0  0  0  0
  8 26  1  0  0  0  0
  8 27  1  0  0  0  0
  9 10  1  0  0  0  0
 10 11  2  0  0  0  0
 10 17  1  0  0  0  0
 11 18  1  0  0  0  0
 13 16  1  0  0  0  0
 13 20  2  0  0  0  0
 14 15  1  0  0  0  0
 14 28  1  0  0  0  0
 14 29  1  0  0  0  0
 15 19  1  0  0  0  0
 15 30  1  0  0  0  0
 15 31  1  0  0  0  0
 16 22  2  0  0  0  0
 17 33  1  0  0  0  0
 17 34  1  0  0  0  0
 17 35  1  0  0  0  0
 18 21  2  0  0  0  0
 18 36  1  0  0  0  0
 19 37  1  0  0  0  0
 19 38  1  0  0  0  0
 20 23  1  0  0  0  0
 20 39  1  0  0  0  0
 21 40  1  0  0  0  0
 22 24  1  0  0  0  0
 22 41  1  0  0  0  0
 23 24  2  0  0  0  0
 23 42  1  0  0  0  0
 24 43  1  0  0  0  0
 25 44  1  0  0  0  0
 25 45  1  0  0  0  0
 25 46  1  0  0  0  0
M  END
> <PUBCHEM_COMPOUND_CID>
5029

> <PUBCHEM_COMPOUND_CANONICALIZED>
1

> <PUBCHEM_CACTVS_COMPLEXITY>
440

> <PUBCHEM_CACTVS_HBOND_ACCEPTOR>
6

> <PUBCHEM_CACTVS_HBOND_DONOR>
1

> <PUBCHEM_CACTVS_ROTATABLE_BOND>
8

> <PUBCHEM_CACTVS_SUBSKEYS>
AAADceB7MABAAAAAAAAAAAAAAAAAAWAAAAA8QAAAAAAAAFgB/AAAHgQQAAAADAzl3ga/1rbJlAqgAzRnZEDK2i3xMrAJ2SA+fJiMbuLkuZuWOCjvkBrI6CcQAAAOAAAAAAAAACAAAAAAAAAAQAAAAAAAAA==

> <PUBCHEM_IUPAC_OPENEYE_NAME>
2-[[4-(3-methoxypropoxy)-3-methyl-2-pyridyl]methylsulfinyl]-1H-benzimidazole

> <PUBCHEM_IUPAC_CAS_NAME>
2-[[4-(3-methoxypropoxy)-3-methyl-2-pyridinyl]methylsulfinyl]-1H-benzimidazole

> <PUBCHEM_IUPAC_NAME>
2-[[4-(3-methoxypropoxy)-3-methylpyridin-2-yl]methylsulfinyl]-1H-benzimidazole

> <PUBCHEM_IUPAC_SYSTEMATIC_NAME>
2-[[4-(3-methoxypropoxy)-3-methyl-pyridin-2-yl]methylsulfinyl]-1H-benzimidazole

> <PUBCHEM_IUPAC_TRADITIONAL_NAME>
2-[[4-(3-methoxypropoxy)-3-methyl-2-pyridyl]methylsulfinyl]-1H-benzimidazole

> <PUBCHEM_IUPAC_INCHI>
InChI=1S/C18H21N3O3S/c1-13-16(19-9-8-17(13)24-11-5-10-23-2)12-25(22)18-20-14-6-3-4-7-15(14)21-18/h3-4,6-9H,5,10-12H2,1-2H3,(H,20,21)

> <PUBCHEM_IUPAC_INCHIKEY>
YREYEVIYCVEVJK-UHFFFAOYSA-N

> <PUBCHEM_XLOGP3>
1.9

> <PUBCHEM_EXACT_MASS>
359.130363

> <PUBCHEM_MOLECULAR_FORMULA>
C18H21N3O3S

> <PUBCHEM_MOLECULAR_WEIGHT>
359.44264

> <PUBCHEM_OPENEYE_CAN_SMILES>
CC1=C(C=CN=C1CS(=O)C2=NC3=CC=CC=C3N2)OCCCOC

> <PUBCHEM_OPENEYE_ISO_SMILES>
CC1=C(C=CN=C1CS(=O)C2=NC3=CC=CC=C3N2)OCCCOC

> <PUBCHEM_CACTVS_TPSA>
96.3

> <PUBCHEM_MONOISOTOPIC_WEIGHT>
359.130363

> <PUBCHEM_TOTAL_CHARGE>
0

> <PUBCHEM_HEAVY_ATOM_COUNT>
25

> <PUBCHEM_ATOM_DEF_STEREO_COUNT>
0

> <PUBCHEM_ATOM_UDEF_STEREO_COUNT>
1

> <PUBCHEM_BOND_DEF_STEREO_COUNT>
0

> <PUBCHEM_BOND_UDEF_STEREO_COUNT>
0

> <PUBCHEM_ISOTOPIC_ATOM_COUNT>
0

> <PUBCHEM_COMPONENT_COUNT>
1

> <PUBCHEM_CACTVS_TAUTO_COUNT>
1

> <PUBCHEM_COORDINATE_TYPE>
1
5
255

> <PUBCHEM_BONDANNOTATIONS>
1  8  3
10  11  8
11  18  8
13  16  8
13  20  8
16  22  8
18  21  8
20  23  8
22  24  8
23  24  8
5  12  8
5  13  8
6  12  8
6  16  8
7  21  8
7  9  8
9  10  8

$$$$

