13571
  -OEChem-06241222393D

 23 22  0     0  0  0  0  0  0999 V2000
    4.1703    1.3591    0.0407 Cl  0  0  0  0  0  0  0  0  0  0  0  0
    2.8755   -1.1821    1.6515 Cl  0  0  0  0  0  0  0  0  0  0  0  0
    2.9464   -1.1831   -1.6232 Cl  0  0  0  0  0  0  0  0  0  0  0  0
    2.6844   -0.0150    0.0089 Si  0  0  0  0  0  0  0  0  0  0  0  0
   -1.5139    0.6419   -0.0335 C   0  0  0  0  0  0  0  0  0  0  0  0
   -0.1942   -0.1336   -0.0535 C   0  0  0  0  0  0  0  0  0  0  0  0
   -2.7154   -0.3047   -0.0174 C   0  0  0  0  0  0  0  0  0  0  0  0
    1.0090    0.8157   -0.0277 C   0  0  0  0  0  0  0  0  0  0  0  0
   -4.0322    0.4692    0.0360 C   0  0  0  0  0  0  0  0  0  0  0  0
   -5.2299   -0.4675    0.0182 C   0  0  0  0  0  0  0  0  0  0  0  0
   -1.5704    1.2951   -0.9126 H   0  0  0  0  0  0  0  0  0  0  0  0
   -1.5460    1.2876    0.8525 H   0  0  0  0  0  0  0  0  0  0  0  0
   -0.1590   -0.7656   -0.9499 H   0  0  0  0  0  0  0  0  0  0  0  0
   -0.1613   -0.8077    0.8118 H   0  0  0  0  0  0  0  0  0  0  0  0
   -2.6480   -0.9721    0.8504 H   0  0  0  0  0  0  0  0  0  0  0  0
   -2.6949   -0.9370   -0.9135 H   0  0  0  0  0  0  0  0  0  0  0  0
    0.9650    1.4715   -0.9056 H   0  0  0  0  0  0  0  0  0  0  0  0
    0.9314    1.4676    0.8510 H   0  0  0  0  0  0  0  0  0  0  0  0
   -4.0674    1.0826    0.9438 H   0  0  0  0  0  0  0  0  0  0  0  0
   -4.0984    1.1516   -0.8195 H   0  0  0  0  0  0  0  0  0  0  0  0
   -5.2110   -1.1444    0.8784 H   0  0  0  0  0  0  0  0  0  0  0  0
   -6.1607    0.1068    0.0581 H   0  0  0  0  0  0  0  0  0  0  0  0
   -5.2421   -1.0715   -0.8946 H   0  0  0  0  0  0  0  0  0  0  0  0
  1  4  1  0  0  0  0
  2  4  1  0  0  0  0
  3  4  1  0  0  0  0
  4  8  1  0  0  0  0
  5  6  1  0  0  0  0
  5  7  1  0  0  0  0
  5 11  1  0  0  0  0
  5 12  1  0  0  0  0
  6  8  1  0  0  0  0
  6 13  1  0  0  0  0
  6 14  1  0  0  0  0
  7  9  1  0  0  0  0
  7 15  1  0  0  0  0
  7 16  1  0  0  0  0
  8 17  1  0  0  0  0
  8 18  1  0  0  0  0
  9 10  1  0  0  0  0
  9 19  1  0  0  0  0
  9 20  1  0  0  0  0
 10 21  1  0  0  0  0
 10 22  1  0  0  0  0
 10 23  1  0  0  0  0
M  END
> <PUBCHEM_COMPOUND_CID>
13571

> <PUBCHEM_CONFORMER_RMSD>
0.6

> <PUBCHEM_CONFORMER_DIVERSEORDER>
1
40
26
7
13
38
37
20
21
14
25
39
23
11
10
24
33
5
32
31
19
35
9
29
34
3
30
4
28
18
6
12
22
27
17
36
8
2
15
16

> <PUBCHEM_MMFF94_PARTIAL_CHARGES>
5
1 -0.37
2 -0.37
3 -0.37
4 1.19
8 -0.08

> <PUBCHEM_EFFECTIVE_ROTOR_COUNT>
5

> <PUBCHEM_PHARMACOPHORE_FEATURES>
2
1 10 hydrophobe
4 5 6 7 9 hydrophobe

> <PUBCHEM_HEAVY_ATOM_COUNT>
10

> <PUBCHEM_ATOM_DEF_STEREO_COUNT>
0

> <PUBCHEM_ATOM_UDEF_STEREO_COUNT>
0

> <PUBCHEM_BOND_DEF_STEREO_COUNT>
0

> <PUBCHEM_BOND_UDEF_STEREO_COUNT>
0

> <PUBCHEM_ISOTOPIC_ATOM_COUNT>
0

> <PUBCHEM_COMPONENT_COUNT>
1

> <PUBCHEM_CACTVS_TAUTO_COUNT>
1

> <PUBCHEM_CONFORMER_ID>
0000350300000001

> <PUBCHEM_MMFF94_ENERGY>
-1.2065

> <PUBCHEM_FEATURE_SELFOVERLAP>
10.149

> <PUBCHEM_SHAPE_FINGERPRINT>
12616999 72 17967527961373376956
12932764 1 18131631222532596108
13955234 65 17748825211836933002
14123238 8 18408887313277560149
14251718 22 18336264540182236637
14252887 29 18335132094581724096
170605 34 18410572852045183872
17834072 33 18040435447518410509
17834076 25 17312820459430976497
20279233 1 17632854213626654712
20645477 70 17967807288560744798
20724930 37 13758359951382357024
22485316 2 18060423504002010331
23402539 116 13830140451357617635
23557571 272 17988926708144540484
3060560 45 16056300796624537718
449060 50 18113899325349549293
522135 26 17346598594749769747
581208 293 17894353293370238894

> <PUBCHEM_SHAPE_MULTIPOLES>
229.62
10.04
1.28
1.21
13.32
0
-0.03
-0.05
-0.11
-1.34
0
-1.54
-0.62
0.02

> <PUBCHEM_SHAPE_SELFOVERLAP>
378.422

> <PUBCHEM_SHAPE_VOLUME>
158.4

> <PUBCHEM_COORDINATE_TYPE>
2
5
10

$$$$

