586220
  -OEChem-06241222452D

 51 53  0     1  0  0  0  0  0999 V2000
    5.8167   -0.3551    0.0000 O   0  0  0  0  0  0  0  0  0  0  0  0
    4.1437    0.0932    0.0000 O   0  0  0  0  0  0  0  0  0  0  0  0
    7.8076    1.6108    0.0000 C   0  0  3  0  0  0  0  0  0  0  0  0
    7.3298    3.5594    0.0000 C   0  0  0  0  0  0  0  0  0  0  0  0
    8.0664    2.5767    0.0000 C   0  0  3  0  0  0  0  0  0  0  0  0
    6.0755    0.6108    0.0000 C   0  0  3  0  0  0  0  0  0  0  0  0
    9.6395    0.8520    0.0000 C   0  0  0  0  0  0  0  0  0  0  0  0
    5.5755    1.4768    0.0000 C   0  0  0  0  0  0  0  0  0  0  0  0
    9.8984    1.8179    0.0000 C   0  0  0  0  0  0  0  0  0  0  0  0
    7.5488    0.6449    0.0000 C   0  0  0  0  0  0  0  0  0  0  0  0
    7.4343    4.5539    0.0000 C   0  0  0  0  0  0  0  0  0  0  0  0
    6.4162    3.9661    0.0000 C   0  0  0  0  0  0  0  0  0  0  0  0
    4.8508   -0.6139    0.0000 C   0  0  0  0  0  0  0  0  0  0  0  0
    4.5920   -1.5799    0.0000 C   0  0  3  0  0  0  0  0  0  0  0  0
    5.2213   -2.3570    0.0000 C   0  0  0  0  0  0  0  0  0  0  0  0
    3.6584   -1.9382    0.0000 C   0  0  0  0  0  0  0  0  0  0  0  0
    4.6767   -3.1957    0.0000 C   0  0  0  0  0  0  0  0  0  0  0  0
    3.7107   -2.9369    0.0000 C   0  0  0  0  0  0  0  0  0  0  0  0
    2.9336   -3.5662    0.0000 C   0  0  0  0  0  0  0  0  0  0  0  0
    3.0900   -4.5539    0.0000 C   0  0  0  0  0  0  0  0  0  0  0  0
    2.0000   -3.2078    0.0000 C   0  0  0  0  0  0  0  0  0  0  0  0
    8.0736    1.9568    0.0000 H   0  0  0  0  0  0  0  0  0  0  0  0
    6.5674    0.2334    0.0000 H   0  0  0  0  0  0  0  0  0  0  0  0
    9.4275    0.2694    0.0000 H   0  0  0  0  0  0  0  0  0  0  0  0
   10.2308    0.6656    0.0000 H   0  0  0  0  0  0  0  0  0  0  0  0
    5.3049    2.0346    0.0000 H   0  0  0  0  0  0  0  0  0  0  0  0
    5.0278    1.1863    0.0000 H   0  0  0  0  0  0  0  0  0  0  0  0
   10.4897    1.6315    0.0000 H   0  0  0  0  0  0  0  0  0  0  0  0
   10.1104    2.4005    0.0000 H   0  0  0  0  0  0  0  0  0  0  0  0
    6.9499    0.8054    0.0000 H   0  0  0  0  0  0  0  0  0  0  0  0
    7.3883    0.0460    0.0000 H   0  0  0  0  0  0  0  0  0  0  0  0
    8.1476    0.4844    0.0000 H   0  0  0  0  0  0  0  0  0  0  0  0
    8.0509    4.4891    0.0000 H   0  0  0  0  0  0  0  0  0  0  0  0
    6.6684    4.5325    0.0000 H   0  0  0  0  0  0  0  0  0  0  0  0
    5.8498    4.2183    0.0000 H   0  0  0  0  0  0  0  0  0  0  0  0
    6.1641    3.3997    0.0000 H   0  0  0  0  0  0  0  0  0  0  0  0
    7.4991    5.1705    0.0000 H   0  0  0  0  0  0  0  0  0  0  0  0
    6.8177    4.6187    0.0000 H   0  0  0  0  0  0  0  0  0  0  0  0
    5.1984   -1.4510    0.0000 H   0  0  0  0  0  0  0  0  0  0  0  0
    5.7031   -2.7472    0.0000 H   0  0  0  0  0  0  0  0  0  0  0  0
    5.6597   -1.9186    0.0000 H   0  0  0  0  0  0  0  0  0  0  0  0
    3.4979   -1.3394    0.0000 H   0  0  0  0  0  0  0  0  0  0  0  0
    3.0460   -2.0352    0.0000 H   0  0  0  0  0  0  0  0  0  0  0  0
    4.4545   -3.7745    0.0000 H   0  0  0  0  0  0  0  0  0  0  0  0
    5.2291   -3.4772    0.0000 H   0  0  0  0  0  0  0  0  0  0  0  0
    2.2222   -2.6290    0.0000 H   0  0  0  0  0  0  0  0  0  0  0  0
    1.4212   -2.9856    0.0000 H   0  0  0  0  0  0  0  0  0  0  0  0
    1.7778   -3.7866    0.0000 H   0  0  0  0  0  0  0  0  0  0  0  0
    2.4776   -4.6509    0.0000 H   0  0  0  0  0  0  0  0  0  0  0  0
    3.1870   -5.1662    0.0000 H   0  0  0  0  0  0  0  0  0  0  0  0
    3.7024   -4.4569    0.0000 H   0  0  0  0  0  0  0  0  0  0  0  0
  1  6  1  0  0  0  0
  1 13  1  0  0  0  0
  2 13  2  0  0  0  0
  3  4  1  0  0  0  0
  3  6  1  0  0  0  0
  3  7  1  0  0  0  0
  3 10  1  0  0  0  0
  4  5  1  0  0  0  0
  4 11  1  0  0  0  0
  4 12  1  0  0  0  0
  5  8  1  0  0  0  0
  5  9  1  0  0  0  0
  5 22  1  0  0  0  0
  6  8  1  0  0  0  0
  6 23  1  0  0  0  0
  7  9  1  0  0  0  0
  7 24  1  0  0  0  0
  7 25  1  0  0  0  0
  8 26  1  0  0  0  0
  8 27  1  0  0  0  0
  9 28  1  0  0  0  0
  9 29  1  0  0  0  0
 10 30  1  0  0  0  0
 10 31  1  0  0  0  0
 10 32  1  0  0  0  0
 11 33  1  0  0  0  0
 11 37  1  0  0  0  0
 11 38  1  0  0  0  0
 12 34  1  0  0  0  0
 12 35  1  0  0  0  0
 12 36  1  0  0  0  0
 13 14  1  0  0  0  0
 14 15  1  0  0  0  0
 14 16  1  0  0  0  0
 14 39  1  0  0  0  0
 15 17  1  0  0  0  0
 15 40  1  0  0  0  0
 15 41  1  0  0  0  0
 16 18  1  0  0  0  0
 16 42  1  0  0  0  0
 16 43  1  0  0  0  0
 17 18  1  0  0  0  0
 17 44  1  0  0  0  0
 17 45  1  0  0  0  0
 18 19  2  0  0  0  0
 19 20  1  0  0  0  0
 19 21  1  0  0  0  0
 20 49  1  0  0  0  0
 20 50  1  0  0  0  0
 20 51  1  0  0  0  0
 21 46  1  0  0  0  0
 21 47  1  0  0  0  0
 21 48  1  0  0  0  0
M  END
> <PUBCHEM_COMPOUND_CID>
586220

> <PUBCHEM_COMPOUND_CANONICALIZED>
1

> <PUBCHEM_CACTVS_COMPLEXITY>
484

> <PUBCHEM_CACTVS_HBOND_ACCEPTOR>
2

> <PUBCHEM_CACTVS_HBOND_DONOR>
0

> <PUBCHEM_CACTVS_ROTATABLE_BOND>
3

> <PUBCHEM_CACTVS_SUBSKEYS>
AAADceB4MAAAAAAAAAAAAAAAAAAAAYMGAAAwAAAAAAAAAAAAAAAAGgAAAAAADxSggAICCAAABACIAgDQCAAAAAAgAAAACAEAAAgAABIAAAACAAAEgAAIAAOIyPAPgAAAAAAAAACAAAIAABAAAYAADAAAAA==

> <PUBCHEM_IUPAC_OPENEYE_NAME>
(1,7,7-trimethylnorbornan-2-yl) 3-isopropylidenecyclopentanecarboxylate

> <PUBCHEM_IUPAC_CAS_NAME>
3-propan-2-ylidene-1-cyclopentanecarboxylic acid (4,7,7-trimethyl-3-bicyclo[2.2.1]heptanyl) ester

> <PUBCHEM_IUPAC_NAME>
(4,7,7-trimethyl-3-bicyclo[2.2.1]heptanyl) 3-propan-2-ylidenecyclopentane-1-carboxylate

> <PUBCHEM_IUPAC_SYSTEMATIC_NAME>
(4,7,7-trimethyl-3-bicyclo[2.2.1]heptanyl) 3-propan-2-ylidenecyclopentane-1-carboxylate

> <PUBCHEM_IUPAC_TRADITIONAL_NAME>
3-isopropylidenecyclopentanecarboxylic acid 2-bornyl ester

> <PUBCHEM_IUPAC_INCHI>
InChI=1S/C19H30O2/c1-12(2)13-6-7-14(10-13)17(20)21-16-11-15-8-9-19(16,5)18(15,3)4/h14-16H,6-11H2,1-5H3

> <PUBCHEM_IUPAC_INCHIKEY>
KEVVHIVJVQLNTR-UHFFFAOYSA-N

> <PUBCHEM_XLOGP3_AA>
5

> <PUBCHEM_EXACT_MASS>
290.22458

> <PUBCHEM_MOLECULAR_FORMULA>
C19H30O2

> <PUBCHEM_MOLECULAR_WEIGHT>
290.4403

> <PUBCHEM_OPENEYE_CAN_SMILES>
CC(=C1CCC(C1)C(=O)OC2CC3CCC2(C3(C)C)C)C

> <PUBCHEM_OPENEYE_ISO_SMILES>
CC(=C1CCC(C1)C(=O)OC2CC3CCC2(C3(C)C)C)C

> <PUBCHEM_CACTVS_TPSA>
26.3

> <PUBCHEM_MONOISOTOPIC_WEIGHT>
290.22458

> <PUBCHEM_TOTAL_CHARGE>
0

> <PUBCHEM_HEAVY_ATOM_COUNT>
21

> <PUBCHEM_ATOM_DEF_STEREO_COUNT>
0

> <PUBCHEM_ATOM_UDEF_STEREO_COUNT>
4

> <PUBCHEM_BOND_DEF_STEREO_COUNT>
0

> <PUBCHEM_BOND_UDEF_STEREO_COUNT>
0

> <PUBCHEM_ISOTOPIC_ATOM_COUNT>
0

> <PUBCHEM_COMPONENT_COUNT>
1

> <PUBCHEM_CACTVS_TAUTO_COUNT>
1

> <PUBCHEM_COORDINATE_TYPE>
1
5
255

> <PUBCHEM_BONDANNOTATIONS>
6  1  3
14  13  3
3  10  3
5  4  3

$$$$

