133058
  -OEChem-07051213043D

 32 33  0     0  0  0  0  0  0999 V2000
    5.7799    2.5496    0.0011 Cl  0  0  0  0  0  0  0  0  0  0  0  0
   -6.4898    0.0220   -0.0011 F   0  0  0  0  0  0  0  0  0  0  0  0
   -5.4408   -1.5377   -1.0831 F   0  0  0  0  0  0  0  0  0  0  0  0
   -5.4221   -1.5257    1.0913 F   0  0  0  0  0  0  0  0  0  0  0  0
    3.5945   -2.9023   -0.0009 O   0  0  0  0  0  0  0  0  0  0  0  0
    1.0441    1.4897   -0.0006 O   0  0  0  0  0  0  0  0  0  0  0  0
   -0.4358   -0.3265    0.0003 N   0  0  0  0  0  0  0  0  0  0  0  0
    1.8423   -0.7084    0.0007 N   0  0  0  0  0  0  0  0  0  0  0  0
   -1.6892    0.2863   -0.0002 C   0  0  0  0  0  0  0  0  0  0  0  0
   -4.0995    0.1208   -0.0011 C   0  0  0  0  0  0  0  0  0  0  0  0
   -2.8466   -0.4922   -0.0002 C   0  0  0  0  0  0  0  0  0  0  0  0
    3.2457   -0.5285    0.0007 C   0  0  0  0  0  0  0  0  0  0  0  0
   -1.7848    1.6779   -0.0010 C   0  0  0  0  0  0  0  0  0  0  0  0
   -4.1950    1.5124   -0.0018 C   0  0  0  0  0  0  0  0  0  0  0  0
   -3.0378    2.2910   -0.0017 C   0  0  0  0  0  0  0  0  0  0  0  0
    0.8443    0.2793    0.0000 C   0  0  0  0  0  0  0  0  0  0  0  0
    4.0857   -1.6308   -0.0006 C   0  0  0  0  0  0  0  0  0  0  0  0
   -5.3372   -0.7111   -0.0006 C   0  0  0  0  0  0  0  0  0  0  0  0
    3.7516    0.7620    0.0010 C   0  0  0  0  0  0  0  0  0  0  0  0
    5.4671   -1.4379   -0.0014 C   0  0  0  0  0  0  0  0  0  0  0  0
    5.1330    0.9550    0.0001 C   0  0  0  0  0  0  0  0  0  0  0  0
    5.9907   -0.1450   -0.0011 C   0  0  0  0  0  0  0  0  0  0  0  0
   -2.7769   -1.5777    0.0004 H   0  0  0  0  0  0  0  0  0  0  0  0
   -0.9385    2.3497   -0.0011 H   0  0  0  0  0  0  0  0  0  0  0  0
   -0.4481   -1.3435    0.0001 H   0  0  0  0  0  0  0  0  0  0  0  0
   -5.1617    2.0084   -0.0024 H   0  0  0  0  0  0  0  0  0  0  0  0
   -3.1135    3.3746   -0.0023 H   0  0  0  0  0  0  0  0  0  0  0  0
    1.5017   -1.6625    0.0297 H   0  0  0  0  0  0  0  0  0  0  0  0
    3.1494    1.6576    0.0023 H   0  0  0  0  0  0  0  0  0  0  0  0
    6.1409   -2.2905   -0.0023 H   0  0  0  0  0  0  0  0  0  0  0  0
    7.0693   -0.0098   -0.0017 H   0  0  0  0  0  0  0  0  0  0  0  0
    2.6766   -2.9068   -0.3116 H   0  0  0  0  0  0  0  0  0  0  0  0
  1 21  1  0  0  0  0
  2 18  1  0  0  0  0
  3 18  1  0  0  0  0
  4 18  1  0  0  0  0
  5 17  1  0  0  0  0
  5 32  1  0  0  0  0
  6 16  2  0  0  0  0
  7  9  1  0  0  0  0
  7 16  1  0  0  0  0
  7 25  1  0  0  0  0
  8 12  1  0  0  0  0
  8 16  1  0  0  0  0
  8 28  1  0  0  0  0
  9 11  1  0  0  0  0
  9 13  2  0  0  0  0
 10 11  2  0  0  0  0
 10 14  1  0  0  0  0
 10 18  1  0  0  0  0
 11 23  1  0  0  0  0
 12 17  2  0  0  0  0
 12 19  1  0  0  0  0
 13 15  1  0  0  0  0
 13 24  1  0  0  0  0
 14 15  2  0  0  0  0
 14 26  1  0  0  0  0
 15 27  1  0  0  0  0
 17 20  1  0  0  0  0
 19 21  2  0  0  0  0
 19 29  1  0  0  0  0
 20 22  2  0  0  0  0
 20 30  1  0  0  0  0
 21 22  1  0  0  0  0
 22 31  1  0  0  0  0
M  END
> <PUBCHEM_COMPOUND_CID>
133058

> <PUBCHEM_CONFORMER_RMSD>
0.8

> <PUBCHEM_CONFORMER_DIVERSEORDER>
1
12
15
10
3
11
9
16
2
13
8
6
14
4
5
7

> <PUBCHEM_MMFF94_PARTIAL_CHARGES>
32
1 -0.18
10 -0.14
11 -0.15
12 0.12
13 -0.15
14 -0.15
15 -0.15
16 0.69
17 0.08
18 1.16
19 -0.15
2 -0.34
20 -0.15
21 0.18
22 -0.15
23 0.15
24 0.15
25 0.37
26 0.15
27 0.15
28 0.37
29 0.15
3 -0.34
30 0.15
31 0.15
32 0.45
4 -0.34
5 -0.53
6 -0.57
7 -0.55
8 -0.55
9 0.12

> <PUBCHEM_EFFECTIVE_ROTOR_COUNT>
5

> <PUBCHEM_PHARMACOPHORE_FEATURES>
6
1 5 donor
1 6 acceptor
1 7 donor
1 8 donor
6 12 17 19 20 21 22 rings
6 9 10 11 13 14 15 rings

> <PUBCHEM_HEAVY_ATOM_COUNT>
22

> <PUBCHEM_ATOM_DEF_STEREO_COUNT>
0

> <PUBCHEM_ATOM_UDEF_STEREO_COUNT>
0

> <PUBCHEM_BOND_DEF_STEREO_COUNT>
0

> <PUBCHEM_BOND_UDEF_STEREO_COUNT>
0

> <PUBCHEM_ISOTOPIC_ATOM_COUNT>
0

> <PUBCHEM_COMPONENT_COUNT>
1

> <PUBCHEM_CACTVS_TAUTO_COUNT>
9

> <PUBCHEM_CONFORMER_ID>
000207C200000001

> <PUBCHEM_MMFF94_ENERGY>
60.2097

> <PUBCHEM_FEATURE_SELFOVERLAP>
30.498

> <PUBCHEM_SHAPE_FINGERPRINT>
10595046 47 18408886243609222304
10835480 77 18341338859180279157
11089746 13 13470689217637197287
11287383 113 18411699898338860656
11315181 36 17846774105189715025
11524674 6 15936412221974369095
12107183 9 17544473510723467800
12166972 35 18413102862529111836
12236239 1 18260266343298424253
12516196 113 18259987067582521608
12616971 3 17749118798563214604
12730499 353 18410006612273252258
13073987 5 18409729594776535424
13167823 11 18337112370800161054
13288520 33 18410011053079622997
13533116 47 18407760343987119002
1420 363 18341890792447036299
14251718 22 18342458140351997168
14251732 16 18410855425874087448
14341114 176 18410569582820639229
14461889 52 18341897325630292978
14528608 73 18410570687402733476
14933364 13 18410008853381322593
15196674 1 18410575123407799652
15716309 27 18333449842007621475
17492 89 18191868049145243910
17834072 33 18409450293195421836
17844677 252 18337383937429861536
17857418 61 18409450293132404135
18222031 100 16773794814310620052
18927931 339 18408600371213715935
19427546 62 18269835320940461122
19489759 90 17274823571253469957
200 152 18334015008027017601
20645477 70 18334855073987610254
21236236 1 18409166653993349257
21267235 1 18336540603811572606
21315763 129 18341334491688772420
220451 1 17967248680829724303
23402539 116 18411422817351077309
23522609 53 17897419779819261889
23559900 14 18341619153452167121
239999 70 18260261997762478278
3004659 81 18343301505110898850
314194 84 18334016077299924327
329604 57 18260546736270814072
34797466 226 17822282462639022980
3545911 37 18411698786153366460
4073 2 18202276983442508563
4214541 1 18338516451259220901
4325135 7 18409449172203832508
5104073 3 18337391646658645448
5312625 73 18335703806469181784
542803 24 16805319994016006745
7495541 125 17895199895890994600
77779 3 18338516447275327568

> <PUBCHEM_SHAPE_MULTIPOLES>
411.1
17.29
2.38
0.66
3.33
0.2
0
-1.89
0.01
-1.85
0
0.35
-0.09
0

> <PUBCHEM_SHAPE_SELFOVERLAP>
876.788

> <PUBCHEM_SHAPE_VOLUME>
228.9

> <PUBCHEM_COORDINATE_TYPE>
2
5
10

$$$$

