3037043
  -OEChem-07051212503D

 31 31  0     1  0  0  0  0  0999 V2000
   -4.5848    1.0706    0.3841 S   0  0  0  0  0  0  0  0  0  0  0  0
    1.4381    2.0199   -1.3167 O   0  0  0  0  0  0  0  0  0  0  0  0
    0.4734    1.9050    0.7334 O   0  0  0  0  0  0  0  0  0  0  0  0
    2.6098   -0.4835    0.0995 N   0  3  0  0  0  0  0  0  0  0  0  0
   -1.9866    0.2158    0.6540 N   0  0  0  0  0  0  0  0  0  0  0  0
   -3.2025   -1.0032   -0.7751 N   0  0  0  0  0  0  0  0  0  0  0  0
    1.1938   -0.1498   -0.3475 C   0  0  1  0  0  0  0  0  0  0  0  0
    0.2325   -0.9380    0.5439 C   0  0  0  0  0  0  0  0  0  0  0  0
    2.8371   -1.9841   -0.0132 C   0  0  0  0  0  0  0  0  0  0  0  0
    3.6070    0.2487   -0.7869 C   0  0  0  0  0  0  0  0  0  0  0  0
    2.8013   -0.0487    1.5453 C   0  0  0  0  0  0  0  0  0  0  0  0
   -1.1967   -0.7885    0.1373 C   0  0  0  0  0  0  0  0  0  0  0  0
    0.9826    1.3462   -0.2298 C   0  0  0  0  0  0  0  0  0  0  0  0
   -1.9303   -1.5170   -0.7195 C   0  0  0  0  0  0  0  0  0  0  0  0
   -3.2748    0.1068    0.0912 C   0  0  0  0  0  0  0  0  0  0  0  0
    1.0824   -0.4546   -1.3964 H   0  0  0  0  0  0  0  0  0  0  0  0
    0.2837   -0.6416    1.5969 H   0  0  0  0  0  0  0  0  0  0  0  0
    0.4273   -2.0137    0.5119 H   0  0  0  0  0  0  0  0  0  0  0  0
    2.4682   -2.3279   -0.9840 H   0  0  0  0  0  0  0  0  0  0  0  0
    3.9138   -2.1712    0.0577 H   0  0  0  0  0  0  0  0  0  0  0  0
    2.3551   -2.5076    0.8161 H   0  0  0  0  0  0  0  0  0  0  0  0
    3.6090    1.3142   -0.5445 H   0  0  0  0  0  0  0  0  0  0  0  0
    4.6060   -0.1481   -0.5775 H   0  0  0  0  0  0  0  0  0  0  0  0
    3.3510    0.0663   -1.8347 H   0  0  0  0  0  0  0  0  0  0  0  0
    2.6052    1.0188    1.6594 H   0  0  0  0  0  0  0  0  0  0  0  0
    2.1937   -0.6535    2.2207 H   0  0  0  0  0  0  0  0  0  0  0  0
    3.8530   -0.2302    1.7963 H   0  0  0  0  0  0  0  0  0  0  0  0
   -1.6771    0.9081    1.3250 H   0  0  0  0  0  0  0  0  0  0  0  0
   -1.6487   -2.3750   -1.3068 H   0  0  0  0  0  0  0  0  0  0  0  0
   -3.9497   -1.3737   -1.3490 H   0  0  0  0  0  0  0  0  0  0  0  0
    1.3055    2.9878   -1.2289 H   0  0  0  0  0  0  0  0  0  0  0  0
  1 15  2  0  0  0  0
  2 13  1  0  0  0  0
  2 31  1  0  0  0  0
  3 13  2  0  0  0  0
  4  7  1  0  0  0  0
  4  9  1  0  0  0  0
  4 10  1  0  0  0  0
  4 11  1  0  0  0  0
  5 12  1  0  0  0  0
  5 15  1  0  0  0  0
  5 28  1  0  0  0  0
  6 14  1  0  0  0  0
  6 15  1  0  0  0  0
  6 30  1  0  0  0  0
  7  8  1  0  0  0  0
  7 13  1  0  0  0  0
  7 16  1  0  0  0  0
  8 12  1  0  0  0  0
  8 17  1  0  0  0  0
  8 18  1  0  0  0  0
  9 19  1  0  0  0  0
  9 20  1  0  0  0  0
  9 21  1  0  0  0  0
 10 22  1  0  0  0  0
 10 23  1  0  0  0  0
 10 24  1  0  0  0  0
 11 25  1  0  0  0  0
 11 26  1  0  0  0  0
 11 27  1  0  0  0  0
 12 14  2  0  0  0  0
 14 29  1  0  0  0  0
M  CHG  1   4   1
M  END
> <PUBCHEM_COMPOUND_CID>
3037043

> <PUBCHEM_CONFORMER_RMSD>
0.6

> <PUBCHEM_CONFORMER_DIVERSEORDER>
2
9
5
7
8
6
4
1
3

> <PUBCHEM_MMFF94_PARTIAL_CHARGES>
19
1 -0.38
10 0.5
11 0.5
12 -0.03
13 0.66
14 -0.04
15 0.5
2 -0.65
28 0.37
29 0.15
3 -0.57
30 0.37
31 0.5
4 -1.01
5 -0.54
6 -0.54
7 0.56
8 0.14
9 0.5

> <PUBCHEM_EFFECTIVE_ROTOR_COUNT>
4

> <PUBCHEM_PHARMACOPHORE_FEATURES>
8
1 1 acceptor
1 2 acceptor
1 3 acceptor
1 4 cation
1 5 donor
1 6 donor
3 2 3 13 anion
5 5 6 12 14 15 rings

> <PUBCHEM_HEAVY_ATOM_COUNT>
15

> <PUBCHEM_ATOM_DEF_STEREO_COUNT>
1

> <PUBCHEM_ATOM_UDEF_STEREO_COUNT>
0

> <PUBCHEM_BOND_DEF_STEREO_COUNT>
0

> <PUBCHEM_BOND_UDEF_STEREO_COUNT>
0

> <PUBCHEM_ISOTOPIC_ATOM_COUNT>
0

> <PUBCHEM_COMPONENT_COUNT>
1

> <PUBCHEM_CACTVS_TAUTO_COUNT>
3

> <PUBCHEM_CONFORMER_ID>
002E577300000002

> <PUBCHEM_MMFF94_ENERGY>
60.2893

> <PUBCHEM_FEATURE_SELFOVERLAP>
40.721

> <PUBCHEM_SHAPE_FINGERPRINT>
10130415 120 18131638902023837722
10922523 26 18336828684041705279
12500047 106 17822297868021971327
12932764 1 17749105543772159115
13571099 22 18334855056090173175
13675066 3 18409166627948946835
14144814 61 18411421691574007235
14178342 30 18264789682780688458
14787075 74 10374424900313225039
14993402 34 18333446551624894510
15775835 57 18411975850014099885
15852999 172 14706928432268723221
16945 1 18202849837690675690
17041 49 18272942617197416001
18175812 5 16370729222886592810
18186145 218 17489587874360737258
18511873 20 18411135861668990575
19784866 34 17631157599056493332
200 152 9007055726146347635
20233049 118 18335416885078476129
20279233 1 14201392777358842813
20339313 130 18060696195401484989
20559304 39 18262800653276132747
20645476 183 18335696105492853415
21501502 16 18198341754201844303
21524375 3 17123670160034992380
22094290 62 18411418419088346545
22892500 29 16588318193251767266
23402539 116 17313394482237445793
23557571 272 16733270032578166363
23559900 14 17313105263513821850
23598291 2 18338518530366199679
25 1 18060414703260742298
7364860 26 18043815281895875616
74978 22 18270399386820702755
7832392 63 18334297552371346673
81228 2 18127128804290504360
9939556 21 18336266743516517743

> <PUBCHEM_SHAPE_MULTIPOLES>
285.86
7.06
1.85
1.07
4.74
0.24
-0.1
0.27
-0.19
-0.4
0.31
-0.54
0.18
-0.69

> <PUBCHEM_SHAPE_SELFOVERLAP>
566.863

> <PUBCHEM_SHAPE_VOLUME>
174.5

> <PUBCHEM_COORDINATE_TYPE>
2
5
10

$$$$

