7793
  -OEChem-07051213013D

 31 30  0     1  0  0  0  0  0999 V2000
   -3.9724    1.6111   -0.3953 O   0  0  0  0  0  0  0  0  0  0  0  0
   -1.1325   -0.7717    0.4003 C   0  0  1  0  0  0  0  0  0  0  0  0
   -0.0416   -1.3896   -0.5053 C   0  0  0  0  0  0  0  0  0  0  0  0
   -2.1030    0.1134   -0.4038 C   0  0  0  0  0  0  0  0  0  0  0  0
    0.8354   -0.3874   -1.2701 C   0  0  0  0  0  0  0  0  0  0  0  0
   -1.8729   -1.9030    1.1250 C   0  0  0  0  0  0  0  0  0  0  0  0
   -3.1580    0.8080    0.4507 C   0  0  0  0  0  0  0  0  0  0  0  0
    1.5418    0.5790   -0.3610 C   0  0  0  0  0  0  0  0  0  0  0  0
    2.7918    0.5008    0.1337 C   0  0  0  0  0  0  0  0  0  0  0  0
    3.4373    1.5082    1.0419 C   0  0  0  0  0  0  0  0  0  0  0  0
    3.6742   -0.6687   -0.2161 C   0  0  0  0  0  0  0  0  0  0  0  0
   -0.6476   -0.1544    1.1667 H   0  0  0  0  0  0  0  0  0  0  0  0
   -0.5169   -2.0544   -1.2386 H   0  0  0  0  0  0  0  0  0  0  0  0
    0.6103   -2.0264    0.1076 H   0  0  0  0  0  0  0  0  0  0  0  0
   -2.6011   -0.4808   -1.1810 H   0  0  0  0  0  0  0  0  0  0  0  0
   -1.5514    0.8928   -0.9411 H   0  0  0  0  0  0  0  0  0  0  0  0
    1.5461   -0.9384   -1.8953 H   0  0  0  0  0  0  0  0  0  0  0  0
    0.2326    0.1832   -1.9856 H   0  0  0  0  0  0  0  0  0  0  0  0
   -2.4580   -2.5077    0.4239 H   0  0  0  0  0  0  0  0  0  0  0  0
   -1.1656   -2.5663    1.6348 H   0  0  0  0  0  0  0  0  0  0  0  0
   -2.5506   -1.5122    1.8897 H   0  0  0  0  0  0  0  0  0  0  0  0
   -2.7020    1.4488    1.2116 H   0  0  0  0  0  0  0  0  0  0  0  0
   -3.8161    0.0898    0.9458 H   0  0  0  0  0  0  0  0  0  0  0  0
    0.9471    1.4452   -0.0728 H   0  0  0  0  0  0  0  0  0  0  0  0
   -3.3995    2.2824   -0.8036 H   0  0  0  0  0  0  0  0  0  0  0  0
    2.7660    2.3473    1.2522 H   0  0  0  0  0  0  0  0  0  0  0  0
    4.3439    1.9124    0.5806 H   0  0  0  0  0  0  0  0  0  0  0  0
    3.7050    1.0465    1.9977 H   0  0  0  0  0  0  0  0  0  0  0  0
    4.1573   -1.0540    0.6892 H   0  0  0  0  0  0  0  0  0  0  0  0
    3.1474   -1.5159   -0.6600 H   0  0  0  0  0  0  0  0  0  0  0  0
    4.4593   -0.3508   -0.9099 H   0  0  0  0  0  0  0  0  0  0  0  0
  1  7  1  0  0  0  0
  1 25  1  0  0  0  0
  2  3  1  0  0  0  0
  2  4  1  0  0  0  0
  2  6  1  0  0  0  0
  2 12  1  0  0  0  0
  3  5  1  0  0  0  0
  3 13  1  0  0  0  0
  3 14  1  0  0  0  0
  4  7  1  0  0  0  0
  4 15  1  0  0  0  0
  4 16  1  0  0  0  0
  5  8  1  0  0  0  0
  5 17  1  0  0  0  0
  5 18  1  0  0  0  0
  6 19  1  0  0  0  0
  6 20  1  0  0  0  0
  6 21  1  0  0  0  0
  7 22  1  0  0  0  0
  7 23  1  0  0  0  0
  8  9  2  0  0  0  0
  8 24  1  0  0  0  0
  9 10  1  0  0  0  0
  9 11  1  0  0  0  0
 10 26  1  0  0  0  0
 10 27  1  0  0  0  0
 10 28  1  0  0  0  0
 11 29  1  0  0  0  0
 11 30  1  0  0  0  0
 11 31  1  0  0  0  0
M  END
> <PUBCHEM_COMPOUND_CID>
7793

> <PUBCHEM_CONFORMER_RMSD>
0.6

> <PUBCHEM_CONFORMER_DIVERSEORDER>
1
88
24
68
33
91
59
67
20
19
47
48
94
83
21
92
61
51
31
62
80
72
38
84
49
5
78
43
69
75
89
55
10
34
79
63
65
30
40
86
56
66
14
29
53
74
82
58
22
32
71
93
7
18
3
57
90
42
9
87
85
25
17
36
39
73
52
45
76
54
27
12
35
81
2
77
44
64
23
41
13
37
50
70
11
46
60
6
8
28
15
26
4
16

> <PUBCHEM_MMFF94_PARTIAL_CHARGES>
9
1 -0.68
10 0.14
11 0.14
24 0.15
25 0.4
5 0.14
7 0.28
8 -0.29
9 -0.28

> <PUBCHEM_EFFECTIVE_ROTOR_COUNT>
5

> <PUBCHEM_PHARMACOPHORE_FEATURES>
5
1 1 acceptor
1 1 donor
1 6 hydrophobe
3 9 10 11 hydrophobe
5 2 3 4 5 8 hydrophobe

> <PUBCHEM_HEAVY_ATOM_COUNT>
11

> <PUBCHEM_ATOM_DEF_STEREO_COUNT>
1

> <PUBCHEM_ATOM_UDEF_STEREO_COUNT>
0

> <PUBCHEM_BOND_DEF_STEREO_COUNT>
0

> <PUBCHEM_BOND_UDEF_STEREO_COUNT>
0

> <PUBCHEM_ISOTOPIC_ATOM_COUNT>
0

> <PUBCHEM_COMPONENT_COUNT>
1

> <PUBCHEM_CACTVS_TAUTO_COUNT>
1

> <PUBCHEM_CONFORMER_ID>
00001E7100000001

> <PUBCHEM_MMFF94_ENERGY>
11.3525

> <PUBCHEM_FEATURE_SELFOVERLAP>
25.376

> <PUBCHEM_SHAPE_FINGERPRINT>
11127187 94 9582978859722948867
12006461 19 11311759688390026921
122479 349 18409450271515116813
124424 183 18333728044187539126
12500047 106 18341892983107353450
12507560 40 18337388241155559522
12897270 3 7997706280704060066
12932764 1 17969491616115766766
13571099 52 18334012800250206383
13922767 16 18186803616840306532
14252887 29 9943508735440185661
14325111 11 18260548892222563878
17834069 15 18273213122970200750
18186145 218 17240471482116527750
18511873 20 17846497049686768752
18522851 12 15339120126370578178
20281407 28 10015862085220920709
20653085 51 17894910719763563423
20715346 28 18262508196379354150
20871998 22 9655567518077539399
21524375 3 18339079401697666207
22096605 113 17458348537043906796
22169311 14 18413390934437776522
22485316 2 11527946746668757729
228727 97 14129053725213103343
23402539 116 18341338778145352855
23500284 214 18408598167426046537
23532345 11 17987798497144164330
305870 269 17915461803710572867
3086196 2 17914616051377395683
3248919 1 17988086560991077526
528716 315 5833996070044644137
83771 10 11167936965784676941

> <PUBCHEM_SHAPE_MULTIPOLES>
220.51
6.82
1.73
1.08
0.55
0.08
-0.04
-3.23
-0.99
-0.82
-0.37
0.08
0.14
1.08

> <PUBCHEM_SHAPE_SELFOVERLAP>
400.522

> <PUBCHEM_SHAPE_VOLUME>
141.9

> <PUBCHEM_COORDINATE_TYPE>
2
5
10

$$$$

