9638
  -OEChem-06261203532D

 14 13  0     0  0  0  0  0  0999 V2000
    5.0981   -0.6160    0.0000 F   0  0  0  0  0  0  0  0  0  0  0  0
    4.0981    1.1160    0.0000 F   0  0  0  0  0  0  0  0  0  0  0  0
    3.2320    0.6160    0.0000 F   0  0  0  0  0  0  0  0  0  0  0  0
    4.2320   -1.1160    0.0000 F   0  0  0  0  0  0  0  0  0  0  0  0
    6.3301    1.2500    0.0000 F   0  0  0  0  0  0  0  0  0  0  0  0
    5.9641   -0.1160    0.0000 F   0  0  0  0  0  0  0  0  0  0  0  0
    4.9641    1.6160    0.0000 F   0  0  0  0  0  0  0  0  0  0  0  0
    2.0000   -1.2500    0.0000 F   0  0  0  0  0  0  0  0  0  0  0  0
    2.3660    0.1160    0.0000 F   0  0  0  0  0  0  0  0  0  0  0  0
    3.3660   -1.6160    0.0000 F   0  0  0  0  0  0  0  0  0  0  0  0
    3.7320   -0.2500    0.0000 C   0  0  0  0  0  0  0  0  0  0  0  0
    4.5981    0.2500    0.0000 C   0  0  0  0  0  0  0  0  0  0  0  0
    2.8660   -0.7500    0.0000 C   0  0  0  0  0  0  0  0  0  0  0  0
    5.4641    0.7500    0.0000 C   0  0  0  0  0  0  0  0  0  0  0  0
  1 12  1  0  0  0  0
  2 12  1  0  0  0  0
  3 11  1  0  0  0  0
  4 11  1  0  0  0  0
  5 14  1  0  0  0  0
  6 14  1  0  0  0  0
  7 14  1  0  0  0  0
  8 13  1  0  0  0  0
  9 13  1  0  0  0  0
 10 13  1  0  0  0  0
 11 12  1  0  0  0  0
 11 13  1  0  0  0  0
 12 14  1  0  0  0  0
M  END
> <PUBCHEM_COMPOUND_CID>
9638

> <PUBCHEM_COMPOUND_CANONICALIZED>
1

> <PUBCHEM_CACTVS_COMPLEXITY>
181

> <PUBCHEM_CACTVS_HBOND_ACCEPTOR>
10

> <PUBCHEM_CACTVS_HBOND_DONOR>
0

> <PUBCHEM_CACTVS_ROTATABLE_BOND>
1

> <PUBCHEM_CACTVS_SUBSKEYS>
AAADcQBgAcAAAAAAAAAAAAAAAAAAAAAAAAAAAAAAAAAAAAAAAAAACQAAAAAACAAAABAAAAAAAAAAAAAAAAAAAAAAAAAAAAAAAAAAAAAAAAAAAAAAAAAAAAAAAAAAAAAAAAAAAAAAAAAAAAAAAAAAAAAAAA==

> <PUBCHEM_IUPAC_OPENEYE_NAME>
1,1,1,2,2,3,3,4,4,4-decafluorobutane

> <PUBCHEM_IUPAC_CAS_NAME>
1,1,1,2,2,3,3,4,4,4-decafluorobutane

> <PUBCHEM_IUPAC_NAME>
1,1,1,2,2,3,3,4,4,4-decafluorobutane

> <PUBCHEM_IUPAC_SYSTEMATIC_NAME>
1,1,1,2,2,3,3,4,4,4-decakis(fluoranyl)butane

> <PUBCHEM_IUPAC_TRADITIONAL_NAME>
1,1,1,2,2,3,3,4,4,4-decafluorobutane

> <PUBCHEM_IUPAC_INCHI>
InChI=1S/C4F10/c5-1(6,3(9,10)11)2(7,8)4(12,13)14

> <PUBCHEM_IUPAC_INCHIKEY>
KAVGMUDTWQVPDF-UHFFFAOYSA-N

> <PUBCHEM_XLOGP3_AA>
3.8

> <PUBCHEM_EXACT_MASS>
237.984032

> <PUBCHEM_MOLECULAR_FORMULA>
C4F10

> <PUBCHEM_MOLECULAR_WEIGHT>
238.026832

> <PUBCHEM_OPENEYE_CAN_SMILES>
C(C(C(F)(F)F)(F)F)(C(F)(F)F)(F)F

> <PUBCHEM_OPENEYE_ISO_SMILES>
C(C(C(F)(F)F)(F)F)(C(F)(F)F)(F)F

> <PUBCHEM_CACTVS_TPSA>
0

> <PUBCHEM_MONOISOTOPIC_WEIGHT>
237.984032

> <PUBCHEM_TOTAL_CHARGE>
0

> <PUBCHEM_HEAVY_ATOM_COUNT>
14

> <PUBCHEM_ATOM_DEF_STEREO_COUNT>
0

> <PUBCHEM_ATOM_UDEF_STEREO_COUNT>
0

> <PUBCHEM_BOND_DEF_STEREO_COUNT>
0

> <PUBCHEM_BOND_UDEF_STEREO_COUNT>
0

> <PUBCHEM_ISOTOPIC_ATOM_COUNT>
0

> <PUBCHEM_COMPONENT_COUNT>
1

> <PUBCHEM_CACTVS_TAUTO_COUNT>
1

> <PUBCHEM_COORDINATE_TYPE>
1
5
255

$$$$

