5282075
  -OEChem-07051213023D

 34 36  0     0  0  0  0  0  0999 V2000
   -1.6328    2.0094    0.2583 O   0  0  0  0  0  0  0  0  0  0  0  0
   -0.3139   -1.8227   -0.2151 O   0  0  0  0  0  0  0  0  0  0  0  0
   -2.7685   -2.6813   -0.1852 O   0  0  0  0  0  0  0  0  0  0  0  0
    1.7718    0.5596   -2.3691 O   0  0  0  0  0  0  0  0  0  0  0  0
    5.8238   -0.2292    0.0044 O   0  0  0  0  0  0  0  0  0  0  0  0
   -6.1672    0.6016    0.2768 O   0  0  0  0  0  0  0  0  0  0  0  0
    0.2404    0.4776    0.0514 C   0  0  0  0  0  0  0  0  0  0  0  0
   -2.1370   -0.3542    0.0338 C   0  0  0  0  0  0  0  0  0  0  0  0
    1.7006    0.2952    0.0188 C   0  0  0  0  0  0  0  0  0  0  0  0
   -0.6998   -0.6722   -0.0534 C   0  0  0  0  0  0  0  0  0  0  0  0
   -2.5303    0.9751    0.1846 C   0  0  0  0  0  0  0  0  0  0  0  0
   -3.0966   -1.3675   -0.0369 C   0  0  0  0  0  0  0  0  0  0  0  0
   -0.2960    1.6987    0.1969 C   0  0  0  0  0  0  0  0  0  0  0  0
    2.4109    0.3427   -1.1840 C   0  0  0  0  0  0  0  0  0  0  0  0
   -3.8850    1.2989    0.2656 C   0  0  0  0  0  0  0  0  0  0  0  0
    2.3849    0.0706    1.2165 C   0  0  0  0  0  0  0  0  0  0  0  0
   -4.4511   -1.0413    0.0449 C   0  0  0  0  0  0  0  0  0  0  0  0
   -4.8446    0.2890    0.1957 C   0  0  0  0  0  0  0  0  0  0  0  0
    3.7946    0.1669   -1.1890 C   0  0  0  0  0  0  0  0  0  0  0  0
    3.7686   -0.1053    1.2115 C   0  0  0  0  0  0  0  0  0  0  0  0
    4.4735   -0.0572    0.0089 C   0  0  0  0  0  0  0  0  0  0  0  0
    6.4537   -0.4544    1.2646 C   0  0  0  0  0  0  0  0  0  0  0  0
    0.2892    2.6057    0.2871 H   0  0  0  0  0  0  0  0  0  0  0  0
   -4.1938    2.3346    0.3832 H   0  0  0  0  0  0  0  0  0  0  0  0
    1.8502    0.0291    2.1628 H   0  0  0  0  0  0  0  0  0  0  0  0
   -5.1982   -1.8297   -0.0098 H   0  0  0  0  0  0  0  0  0  0  0  0
    4.3449    0.2042   -2.1258 H   0  0  0  0  0  0  0  0  0  0  0  0
    4.2323   -0.2755    2.1771 H   0  0  0  0  0  0  0  0  0  0  0  0
   -1.8059   -2.7919   -0.2111 H   0  0  0  0  0  0  0  0  0  0  0  0
    0.8138    0.6369   -2.2369 H   0  0  0  0  0  0  0  0  0  0  0  0
   -6.6892   -0.2165    0.2113 H   0  0  0  0  0  0  0  0  0  0  0  0
    6.1093   -1.3863    1.7259 H   0  0  0  0  0  0  0  0  0  0  0  0
    6.3384    0.4066    1.9317 H   0  0  0  0  0  0  0  0  0  0  0  0
    7.5258   -0.5695    1.0741 H   0  0  0  0  0  0  0  0  0  0  0  0
  1 11  1  0  0  0  0
  1 13  1  0  0  0  0
  2 10  2  0  0  0  0
  3 12  1  0  0  0  0
  3 29  1  0  0  0  0
  4 14  1  0  0  0  0
  4 30  1  0  0  0  0
  5 21  1  0  0  0  0
  5 22  1  0  0  0  0
  6 18  1  0  0  0  0
  6 31  1  0  0  0  0
  7  9  1  0  0  0  0
  7 10  1  0  0  0  0
  7 13  2  0  0  0  0
  8 10  1  0  0  0  0
  8 11  1  0  0  0  0
  8 12  2  0  0  0  0
  9 14  2  0  0  0  0
  9 16  1  0  0  0  0
 11 15  2  0  0  0  0
 12 17  1  0  0  0  0
 13 23  1  0  0  0  0
 14 19  1  0  0  0  0
 15 18  1  0  0  0  0
 15 24  1  0  0  0  0
 16 20  2  0  0  0  0
 16 25  1  0  0  0  0
 17 18  2  0  0  0  0
 17 26  1  0  0  0  0
 19 21  2  0  0  0  0
 19 27  1  0  0  0  0
 20 21  1  0  0  0  0
 20 28  1  0  0  0  0
 22 32  1  0  0  0  0
 22 33  1  0  0  0  0
 22 34  1  0  0  0  0
M  END
> <PUBCHEM_COMPOUND_CID>
5282075

> <PUBCHEM_CONFORMER_RMSD>
0.6

> <PUBCHEM_CONFORMER_DIVERSEORDER>
1
4
6
3
5
2

> <PUBCHEM_MMFF94_PARTIAL_CHARGES>
31
1 -0.16
10 0.47
11 0.08
12 0.08
13 -0.07
14 0.08
15 -0.15
16 -0.15
17 -0.15
18 0.08
19 -0.15
2 -0.57
20 -0.15
21 0.08
22 0.28
23 0.15
24 0.15
25 0.15
26 0.15
27 0.15
28 0.15
29 0.45
3 -0.53
30 0.45
31 0.45
4 -0.53
5 -0.36
6 -0.53
7 -0.01
8 0.09
9 0.03

> <PUBCHEM_EFFECTIVE_ROTOR_COUNT>
2

> <PUBCHEM_PHARMACOPHORE_FEATURES>
9
1 1 acceptor
1 2 acceptor
1 3 donor
1 4 donor
1 5 acceptor
1 6 donor
6 1 7 8 10 11 13 rings
6 8 11 12 15 17 18 rings
6 9 14 16 19 20 21 rings

> <PUBCHEM_HEAVY_ATOM_COUNT>
22

> <PUBCHEM_ATOM_DEF_STEREO_COUNT>
0

> <PUBCHEM_ATOM_UDEF_STEREO_COUNT>
0

> <PUBCHEM_BOND_DEF_STEREO_COUNT>
0

> <PUBCHEM_BOND_UDEF_STEREO_COUNT>
0

> <PUBCHEM_ISOTOPIC_ATOM_COUNT>
0

> <PUBCHEM_COMPONENT_COUNT>
1

> <PUBCHEM_CACTVS_TAUTO_COUNT>
36

> <PUBCHEM_CONFORMER_ID>
0050991B00000001

> <PUBCHEM_MMFF94_ENERGY>
78.232

> <PUBCHEM_FEATURE_SELFOVERLAP>
45.697

> <PUBCHEM_SHAPE_FINGERPRINT>
10 15 17531543014311947098
10062212 137 18272368629600303295
11045977 3 18040443156947868376
11646440 116 17968084314710673865
12107183 9 17550959521415830960
12236239 1 17917991676765511968
12403814 3 17704353286550469733
12616971 3 17632293454159269302
13140716 1 18264204717367726641
13288520 33 18410856563934821929
13533116 47 17988648527887462522
13590594 115 16988565718972961284
13862211 1 18337392648093003719
14386348 63 17603299358473320908
15196674 1 18336827472955977161
15375358 24 17603862299821016015
15788980 27 18131630075628654408
17804303 29 18334576802855840985
1813 80 17203043110339207862
18186145 218 15195288573228610085
19141452 34 17458626679690531071
19489759 90 18186523211252404483
200 152 16917071070471803124
20279233 1 17531239556637619111
20511986 3 18131081402442041196
20645477 70 14836135394182172856
21033648 29 16660657287936093632
21267235 1 18411413974129719139
22224240 67 16298678226256048326
23175994 123 14620790513979595798
23366157 5 17912082750701560501
23402539 116 18261117356739907183
23557571 272 18040710411425329856
23559900 14 18187352247541601140
26918003 58 17095241406150550954
3004659 81 18342728616587343772
335352 9 18409450276543268437
345986 75 17131009679639892872
34797466 226 18187354412564288524
4340502 62 14851604358516456389
5104073 3 18264763273226732705
5385378 56 18263352763581704715
542803 24 17917709097734227948
559249 180 18130794502647218627
602551 16 18334295336358405338
7226269 152 18260548943941870681
7495541 125 18186804643559420048
77492 1 17917989473442066396

> <PUBCHEM_SHAPE_MULTIPOLES>
417.53
12.68
1.61
1.17
5.41
0.44
0.41
1.16
-2.82
-2
0.01
1.62
-0.13
-0.61

> <PUBCHEM_SHAPE_SELFOVERLAP>
930.124

> <PUBCHEM_SHAPE_VOLUME>
221.8

> <PUBCHEM_COORDINATE_TYPE>
2
5
10

$$$$

