442833
  -OEChem-07051212592D

 67 72  0     1  0  0  0  0  0999 V2000
    8.1301   -1.7874    0.0000 O   0  0  0  0  0  0  0  0  0  0  0  0
    6.3981   -1.7874    0.0000 O   0  0  0  0  0  0  0  0  0  0  0  0
    8.1301   -4.7874    0.0000 O   0  0  0  0  0  0  0  0  0  0  0  0
    9.8622   -3.7874    0.0000 O   0  0  0  0  0  0  0  0  0  0  0  0
    6.3981   -3.7874    0.0000 O   0  0  0  0  0  0  0  0  0  0  0  0
    8.7939    0.2126    0.0000 O   0  0  0  0  0  0  0  0  0  0  0  0
    2.8680   -0.8116    0.0000 O   0  0  0  0  0  0  0  0  0  0  0  0
    2.8680    1.2367    0.0000 O   0  0  0  0  0  0  0  0  0  0  0  0
    8.5210    1.9678    0.0000 O   0  0  0  0  0  0  0  0  0  0  0  0
    8.0011    4.3796    0.0000 O   0  0  0  0  0  0  0  0  0  0  0  0
    6.6073    5.1844    0.0000 O   0  0  0  0  0  0  0  0  0  0  0  0
    8.1301   -3.7874    0.0000 C   0  0  2  0  0  0  0  0  0  0  0  0
    7.2641   -3.2874    0.0000 C   0  0  2  0  0  0  0  0  0  0  0  0
    8.9962   -3.2874    0.0000 C   0  0  1  0  0  0  0  0  0  0  0  0
    7.2641   -2.2874    0.0000 C   0  0  3  0  0  0  0  0  0  0  0  0
    8.9962   -2.2874    0.0000 C   0  0  0  0  0  0  0  0  0  0  0  0
    6.3981   -0.7874    0.0000 C   0  0  0  0  0  0  0  0  0  0  0  0
    7.2641   -0.2874    0.0000 C   0  0  0  0  0  0  0  0  0  0  0  0
    5.5320   -0.2874    0.0000 C   0  0  0  0  0  0  0  0  0  0  0  0
    7.2641    0.7126    0.0000 C   0  0  0  0  0  0  0  0  0  0  0  0
    6.3981    1.2126    0.0000 C   0  0  0  0  0  0  0  0  0  0  0  0
    5.5320    0.7126    0.0000 C   0  0  0  0  0  0  0  0  0  0  0  0
    8.2103   -0.5922    0.0000 C   0  0  0  0  0  0  0  0  0  0  0  0
    6.3981    2.2126    0.0000 C   0  0  0  0  0  0  0  0  0  0  0  0
    8.2103    1.0173    0.0000 C   0  0  0  0  0  0  0  0  0  0  0  0
    4.6381   -0.8221    0.0000 C   0  0  0  0  0  0  0  0  0  0  0  0
    4.6381    1.2472    0.0000 C   0  0  0  0  0  0  0  0  0  0  0  0
    8.9962   -5.2874    0.0000 C   0  0  0  0  0  0  0  0  0  0  0  0
   10.7282   -3.2874    0.0000 C   0  0  0  0  0  0  0  0  0  0  0  0
    3.7320   -0.3083    0.0000 C   0  0  0  0  0  0  0  0  0  0  0  0
    3.7320    0.7334    0.0000 C   0  0  0  0  0  0  0  0  0  0  0  0
    7.2641    2.7126    0.0000 C   0  0  0  0  0  0  0  0  0  0  0  0
    5.5320    2.7126    0.0000 C   0  0  0  0  0  0  0  0  0  0  0  0
    7.2641    3.7126    0.0000 C   0  0  0  0  0  0  0  0  0  0  0  0
    6.3981    4.2126    0.0000 C   0  0  0  0  0  0  0  0  0  0  0  0
    5.5320    3.7126    0.0000 C   0  0  0  0  0  0  0  0  0  0  0  0
    7.5960    5.2874    0.0000 C   0  0  0  0  0  0  0  0  0  0  0  0
    2.8718   -1.8116    0.0000 C   0  0  0  0  0  0  0  0  0  0  0  0
    2.0000    0.7401    0.0000 C   0  0  0  0  0  0  0  0  0  0  0  0
    8.6671   -4.0974    0.0000 H   0  0  0  0  0  0  0  0  0  0  0  0
    7.2641   -3.9074    0.0000 H   0  0  0  0  0  0  0  0  0  0  0  0
    8.9962   -3.9074    0.0000 H   0  0  0  0  0  0  0  0  0  0  0  0
    7.2641   -1.6674    0.0000 H   0  0  0  0  0  0  0  0  0  0  0  0
    9.6067   -2.3951    0.0000 H   0  0  0  0  0  0  0  0  0  0  0  0
    9.2082   -1.7048    0.0000 H   0  0  0  0  0  0  0  0  0  0  0  0
    7.9593   -1.1591    0.0000 H   0  0  0  0  0  0  0  0  0  0  0  0
    8.7477   -0.9014    0.0000 H   0  0  0  0  0  0  0  0  0  0  0  0
    6.3981   -4.4074    0.0000 H   0  0  0  0  0  0  0  0  0  0  0  0
    4.6453   -1.4421    0.0000 H   0  0  0  0  0  0  0  0  0  0  0  0
    4.6453    1.8672    0.0000 H   0  0  0  0  0  0  0  0  0  0  0  0
    8.6862   -5.8244    0.0000 H   0  0  0  0  0  0  0  0  0  0  0  0
    9.5331   -5.5974    0.0000 H   0  0  0  0  0  0  0  0  0  0  0  0
    9.3062   -4.7505    0.0000 H   0  0  0  0  0  0  0  0  0  0  0  0
   11.0382   -3.8244    0.0000 H   0  0  0  0  0  0  0  0  0  0  0  0
   11.2651   -2.9774    0.0000 H   0  0  0  0  0  0  0  0  0  0  0  0
   10.4182   -2.7505    0.0000 H   0  0  0  0  0  0  0  0  0  0  0  0
    7.8010    2.4026    0.0000 H   0  0  0  0  0  0  0  0  0  0  0  0
    4.9951    2.4026    0.0000 H   0  0  0  0  0  0  0  0  0  0  0  0
    4.9951    4.0226    0.0000 H   0  0  0  0  0  0  0  0  0  0  0  0
    8.1856    5.4792    0.0000 H   0  0  0  0  0  0  0  0  0  0  0  0
    7.4673    5.8939    0.0000 H   0  0  0  0  0  0  0  0  0  0  0  0
    2.2518   -1.8140    0.0000 H   0  0  0  0  0  0  0  0  0  0  0  0
    2.8742   -2.4316    0.0000 H   0  0  0  0  0  0  0  0  0  0  0  0
    3.4918   -1.8092    0.0000 H   0  0  0  0  0  0  0  0  0  0  0  0
    1.6921    1.2782    0.0000 H   0  0  0  0  0  0  0  0  0  0  0  0
    1.4619    0.4321    0.0000 H   0  0  0  0  0  0  0  0  0  0  0  0
    2.3079    0.2019    0.0000 H   0  0  0  0  0  0  0  0  0  0  0  0
  1 15  1  0  0  0  0
  1 16  1  0  0  0  0
  2 15  1  0  0  0  0
  2 17  1  0  0  0  0
 12  3  1  6  0  0  0
  3 28  1  0  0  0  0
 14  4  1  1  0  0  0
  4 29  1  0  0  0  0
 13  5  1  1  0  0  0
  5 48  1  0  0  0  0
  6 23  1  0  0  0  0
  6 25  1  0  0  0  0
  7 30  1  0  0  0  0
  7 38  1  0  0  0  0
  8 31  1  0  0  0  0
  8 39  1  0  0  0  0
  9 25  2  0  0  0  0
 10 34  1  0  0  0  0
 10 37  1  0  0  0  0
 11 35  1  0  0  0  0
 11 37  1  0  0  0  0
 12 13  1  0  0  0  0
 12 14  1  0  0  0  0
 12 40  1  0  0  0  0
 13 15  1  0  0  0  0
 13 41  1  0  0  0  0
 14 16  1  0  0  0  0
 14 42  1  0  0  0  0
 15 43  1  0  0  0  0
 16 44  1  0  0  0  0
 16 45  1  0  0  0  0
 17 18  2  0  0  0  0
 17 19  1  0  0  0  0
 18 20  1  0  0  0  0
 18 23  1  0  0  0  0
 19 22  1  0  0  0  0
 19 26  2  0  0  0  0
 20 21  2  0  0  0  0
 20 25  1  0  0  0  0
 21 22  1  0  0  0  0
 21 24  1  0  0  0  0
 22 27  2  0  0  0  0
 23 46  1  0  0  0  0
 23 47  1  0  0  0  0
 24 32  2  0  0  0  0
 24 33  1  0  0  0  0
 26 30  1  0  0  0  0
 26 49  1  0  0  0  0
 27 31  1  0  0  0  0
 27 50  1  0  0  0  0
 28 51  1  0  0  0  0
 28 52  1  0  0  0  0
 28 53  1  0  0  0  0
 29 54  1  0  0  0  0
 29 55  1  0  0  0  0
 29 56  1  0  0  0  0
 30 31  2  0  0  0  0
 32 34  1  0  0  0  0
 32 57  1  0  0  0  0
 33 36  2  0  0  0  0
 33 58  1  0  0  0  0
 34 35  2  0  0  0  0
 35 36  1  0  0  0  0
 36 59  1  0  0  0  0
 37 60  1  0  0  0  0
 37 61  1  0  0  0  0
 38 62  1  0  0  0  0
 38 63  1  0  0  0  0
 38 64  1  0  0  0  0
 39 65  1  0  0  0  0
 39 66  1  0  0  0  0
 39 67  1  0  0  0  0
M  END
> <PUBCHEM_COMPOUND_CID>
442833

> <PUBCHEM_COMPOUND_CANONICALIZED>
1

> <PUBCHEM_CACTVS_COMPLEXITY>
857

> <PUBCHEM_CACTVS_HBOND_ACCEPTOR>
11

> <PUBCHEM_CACTVS_HBOND_DONOR>
1

> <PUBCHEM_CACTVS_ROTATABLE_BOND>
7

> <PUBCHEM_CACTVS_SUBSKEYS>
AAADceB4PAAAAAAAAAAAAAAAAAAAASJAAAA0YMEAAAAAAEjBVAAAGgAACAAADBSwmAMyDsAABgCIAiDSCAACCAAkIAAIiAEGiMgdNzKENRqieSKlwBEPqQfK6PyO4AADAAAYQADAAAYAADCAAAAAAAAAAA==

> <PUBCHEM_IUPAC_OPENEYE_NAME>
9-(1,3-benzodioxol-5-yl)-4-[(3R,4R,5R)-3-hydroxy-4,5-dimethoxy-tetrahydropyran-2-yl]oxy-6,7-dimethoxy-3H-benzo[f]isobenzofuran-1-one

> <PUBCHEM_IUPAC_CAS_NAME>
9-(1,3-benzodioxol-5-yl)-4-[[(3R,4R,5R)-3-hydroxy-4,5-dimethoxy-2-oxanyl]oxy]-6,7-dimethoxy-3H-benzo[f]isobenzofuran-1-one

> <PUBCHEM_IUPAC_NAME>
9-(1,3-benzodioxol-5-yl)-4-[(3R,4R,5R)-3-hydroxy-4,5-dimethoxyoxan-2-yl]oxy-6,7-dimethoxy-3H-benzo[f][2]benzofuran-1-one

> <PUBCHEM_IUPAC_SYSTEMATIC_NAME>
9-(1,3-benzodioxol-5-yl)-4-[(3R,4R,5R)-4,5-dimethoxy-3-oxidanyl-oxan-2-yl]oxy-6,7-dimethoxy-3H-benzo[f][2]benzofuran-1-one

> <PUBCHEM_IUPAC_TRADITIONAL_NAME>
9-(1,3-benzodioxol-5-yl)-4-[(3R,4R,5R)-3-hydroxy-4,5-dimethoxy-tetrahydropyran-2-yl]oxy-6,7-dimethoxy-3H-benz[f]isobenzofuran-1-one

> <PUBCHEM_IUPAC_INCHI>
InChI=1S/C28H28O11/c1-31-18-8-14-15(9-19(18)32-2)25(39-28-24(29)26(34-4)21(33-3)11-36-28)16-10-35-27(30)23(16)22(14)13-5-6-17-20(7-13)38-12-37-17/h5-9,21,24,26,28-29H,10-12H2,1-4H3/t21-,24-,26+,28?/m1/s1

> <PUBCHEM_IUPAC_INCHIKEY>
FCOQWUOWHWHTJP-URRSQCJUSA-N

> <PUBCHEM_XLOGP3_AA>
3

> <PUBCHEM_EXACT_MASS>
540.163162

> <PUBCHEM_MOLECULAR_FORMULA>
C28H28O11

> <PUBCHEM_MOLECULAR_WEIGHT>
540.51532

> <PUBCHEM_OPENEYE_CAN_SMILES>
COC1COC(C(C1OC)O)OC2=C3COC(=O)C3=C(C4=CC(=C(C=C42)OC)OC)C5=CC6=C(C=C5)OCO6

> <PUBCHEM_OPENEYE_ISO_SMILES>
CO[C@@H]1COC([C@@H]([C@H]1OC)O)OC2=C3COC(=O)C3=C(C4=CC(=C(C=C42)OC)OC)C5=CC6=C(C=C5)OCO6

> <PUBCHEM_CACTVS_TPSA>
120

> <PUBCHEM_MONOISOTOPIC_WEIGHT>
540.163162

> <PUBCHEM_TOTAL_CHARGE>
0

> <PUBCHEM_HEAVY_ATOM_COUNT>
39

> <PUBCHEM_ATOM_DEF_STEREO_COUNT>
3

> <PUBCHEM_ATOM_UDEF_STEREO_COUNT>
1

> <PUBCHEM_BOND_DEF_STEREO_COUNT>
0

> <PUBCHEM_BOND_UDEF_STEREO_COUNT>
0

> <PUBCHEM_ISOTOPIC_ATOM_COUNT>
0

> <PUBCHEM_COMPONENT_COUNT>
1

> <PUBCHEM_CACTVS_TAUTO_COUNT>
1

> <PUBCHEM_COORDINATE_TYPE>
1
5
255

> <PUBCHEM_BONDANNOTATIONS>
17  18  8
17  19  8
18  20  8
19  22  8
19  26  8
15  2  3
20  21  8
21  22  8
22  27  8
24  32  8
24  33  8
26  30  8
27  31  8
12  3  6
30  31  8
32  34  8
33  36  8
34  35  8
35  36  8
14  4  5
13  5  5

$$$$

