32253
  -OEChem-07051213132D

 26 27  0     0  0  0  0  0  0999 V2000
    5.4921   -2.7694    0.0000 Cl  0  0  0  0  0  0  0  0  0  0  0  0
    2.0280   -2.7694    0.0000 Cl  0  0  0  0  0  0  0  0  0  0  0  0
    3.2601    1.7694    0.0000 O   0  0  0  0  0  0  0  0  0  0  0  0
    5.5202    0.5093    0.0000 O   0  0  0  0  0  0  0  0  0  0  0  0
    2.0000    0.5093    0.0000 O   0  0  0  0  0  0  0  0  0  0  0  0
    3.7601    0.2306    0.0000 N   0  0  0  0  0  0  0  0  0  0  0  0
    4.2601    1.7694    0.0000 C   0  0  0  0  0  0  0  0  0  0  0  0
    4.5691    0.8184    0.0000 C   0  0  0  0  0  0  0  0  0  0  0  0
    4.2601    2.7694    0.0000 C   0  0  0  0  0  0  0  0  0  0  0  0
    5.2111    2.0784    0.0000 C   0  0  0  0  0  0  0  0  0  0  0  0
    2.9511    0.8184    0.0000 C   0  0  0  0  0  0  0  0  0  0  0  0
    3.7601   -0.7694    0.0000 C   0  0  0  0  0  0  0  0  0  0  0  0
    2.8940   -1.2694    0.0000 C   0  0  0  0  0  0  0  0  0  0  0  0
    4.6261   -1.2694    0.0000 C   0  0  0  0  0  0  0  0  0  0  0  0
    4.6261   -2.2694    0.0000 C   0  0  0  0  0  0  0  0  0  0  0  0
    2.8940   -2.2694    0.0000 C   0  0  0  0  0  0  0  0  0  0  0  0
    3.7601   -2.7694    0.0000 C   0  0  0  0  0  0  0  0  0  0  0  0
    4.8801    2.7694    0.0000 H   0  0  0  0  0  0  0  0  0  0  0  0
    4.2601    3.3894    0.0000 H   0  0  0  0  0  0  0  0  0  0  0  0
    3.6401    2.7694    0.0000 H   0  0  0  0  0  0  0  0  0  0  0  0
    5.4027    1.4888    0.0000 H   0  0  0  0  0  0  0  0  0  0  0  0
    5.8008    2.2700    0.0000 H   0  0  0  0  0  0  0  0  0  0  0  0
    5.0195    2.6681    0.0000 H   0  0  0  0  0  0  0  0  0  0  0  0
    2.3571   -0.9594    0.0000 H   0  0  0  0  0  0  0  0  0  0  0  0
    5.1630   -0.9594    0.0000 H   0  0  0  0  0  0  0  0  0  0  0  0
    3.7601   -3.3894    0.0000 H   0  0  0  0  0  0  0  0  0  0  0  0
  1 15  1  0  0  0  0
  2 16  1  0  0  0  0
  3  7  1  0  0  0  0
  3 11  1  0  0  0  0
  4  8  2  0  0  0  0
  5 11  2  0  0  0  0
  6  8  1  0  0  0  0
  6 11  1  0  0  0  0
  6 12  1  0  0  0  0
  7  8  1  0  0  0  0
  7  9  1  0  0  0  0
  7 10  1  0  0  0  0
  9 18  1  0  0  0  0
  9 19  1  0  0  0  0
  9 20  1  0  0  0  0
 10 21  1  0  0  0  0
 10 22  1  0  0  0  0
 10 23  1  0  0  0  0
 12 13  2  0  0  0  0
 12 14  1  0  0  0  0
 13 16  1  0  0  0  0
 13 24  1  0  0  0  0
 14 15  2  0  0  0  0
 14 25  1  0  0  0  0
 15 17  1  0  0  0  0
 16 17  2  0  0  0  0
 17 26  1  0  0  0  0
M  END
> <PUBCHEM_COMPOUND_CID>
32253

> <PUBCHEM_COMPOUND_CANONICALIZED>
1

> <PUBCHEM_CACTVS_COMPLEXITY>
349

> <PUBCHEM_CACTVS_HBOND_ACCEPTOR>
3

> <PUBCHEM_CACTVS_HBOND_DONOR>
0

> <PUBCHEM_CACTVS_ROTATABLE_BOND>
1

> <PUBCHEM_CACTVS_SUBSKEYS>
AAADccByMAAGAAAAAAAAAAAAAAAAAWAAAAAwAAAAAAAAAAABAAAAHgIAAAAADE6BkCAyyIMABACIACVSWAKCAAAhBwAAiAFAZogKICLBk5WNIAhghCDYyAcQAAAAAAAAAAKAAAAAAAAABQAAAAAAAAAAAA==

> <PUBCHEM_IUPAC_OPENEYE_NAME>
3-(3,5-dichlorophenyl)-5,5-dimethyl-oxazolidine-2,4-dione

> <PUBCHEM_IUPAC_CAS_NAME>
3-(3,5-dichlorophenyl)-5,5-dimethyloxazolidine-2,4-dione

> <PUBCHEM_IUPAC_NAME>
3-(3,5-dichlorophenyl)-5,5-dimethyl-1,3-oxazolidine-2,4-dione

> <PUBCHEM_IUPAC_SYSTEMATIC_NAME>
3-[3,5-bis(chloranyl)phenyl]-5,5-dimethyl-1,3-oxazolidine-2,4-dione

> <PUBCHEM_IUPAC_TRADITIONAL_NAME>
3-(3,5-dichlorophenyl)-5,5-dimethyl-oxazolidine-2,4-quinone

> <PUBCHEM_IUPAC_INCHI>
InChI=1S/C11H9Cl2NO3/c1-11(2)9(15)14(10(16)17-11)8-4-6(12)3-7(13)5-8/h3-5H,1-2H3

> <PUBCHEM_IUPAC_INCHIKEY>
JDZSMXLTQNHBRF-UHFFFAOYSA-N

> <PUBCHEM_XLOGP3>
2.7

> <PUBCHEM_EXACT_MASS>
272.995949

> <PUBCHEM_MOLECULAR_FORMULA>
C11H9Cl2NO3

> <PUBCHEM_MOLECULAR_WEIGHT>
274.10006

> <PUBCHEM_OPENEYE_CAN_SMILES>
CC1(C(=O)N(C(=O)O1)C2=CC(=CC(=C2)Cl)Cl)C

> <PUBCHEM_OPENEYE_ISO_SMILES>
CC1(C(=O)N(C(=O)O1)C2=CC(=CC(=C2)Cl)Cl)C

> <PUBCHEM_CACTVS_TPSA>
46.6

> <PUBCHEM_MONOISOTOPIC_WEIGHT>
272.995949

> <PUBCHEM_TOTAL_CHARGE>
0

> <PUBCHEM_HEAVY_ATOM_COUNT>
17

> <PUBCHEM_ATOM_DEF_STEREO_COUNT>
0

> <PUBCHEM_ATOM_UDEF_STEREO_COUNT>
0

> <PUBCHEM_BOND_DEF_STEREO_COUNT>
0

> <PUBCHEM_BOND_UDEF_STEREO_COUNT>
0

> <PUBCHEM_ISOTOPIC_ATOM_COUNT>
0

> <PUBCHEM_COMPONENT_COUNT>
1

> <PUBCHEM_CACTVS_TAUTO_COUNT>
1

> <PUBCHEM_COORDINATE_TYPE>
1
5
255

> <PUBCHEM_BONDANNOTATIONS>
12  13  8
12  14  8
13  16  8
14  15  8
15  17  8
16  17  8

$$$$

