9676
  -OEChem-06261203563D

 55 59  0     1  0  0  0  0  0999 V2000
   -5.4479    1.2077   -0.4062 O   0  0  0  0  0  0  0  0  0  0  0  0
    5.9496    0.9697    0.3168 O   0  0  0  0  0  0  0  0  0  0  0  0
    5.5804   -0.3635    0.1543 N   0  0  0  0  0  0  0  0  0  0  0  0
   -2.4094   -0.6975    0.3145 C   0  0  2  0  0  0  0  0  0  0  0  0
   -3.0589    0.5810   -0.2574 C   0  0  1  0  0  0  0  0  0  0  0  0
   -0.9867   -0.9393   -0.2105 C   0  0  1  0  0  0  0  0  0  0  0  0
   -0.0952    0.2859    0.1643 C   0  0  1  0  0  0  0  0  0  0  0  0
    1.3964    0.1038   -0.3055 C   0  0  2  0  0  0  0  0  0  0  0  0
   -4.4904    0.4743    0.3544 C   0  0  2  0  0  0  0  0  0  0  0  0
   -2.2013    1.7786    0.1842 C   0  0  0  0  0  0  0  0  0  0  0  0
   -0.7370    1.6314   -0.2678 C   0  0  0  0  0  0  0  0  0  0  0  0
    1.9325   -1.2575    0.2929 C   0  0  1  0  0  0  0  0  0  0  0  0
   -3.4655   -1.7718    0.0743 C   0  0  0  0  0  0  0  0  0  0  0  0
   -0.3989   -2.2381    0.3583 C   0  0  0  0  0  0  0  0  0  0  0  0
   -4.8099   -1.0402    0.2447 C   0  0  0  0  0  0  0  0  0  0  0  0
    1.0472   -2.4548   -0.0734 C   0  0  0  0  0  0  0  0  0  0  0  0
    2.2722    1.2843    0.2510 C   0  0  0  0  0  0  0  0  0  0  0  0
   -3.1594    0.5826   -1.8110 C   0  0  0  0  0  0  0  0  0  0  0  0
    1.4984    0.1125   -1.8535 C   0  0  0  0  0  0  0  0  0  0  0  0
    3.4116   -1.5566   -0.0662 C   0  0  0  0  0  0  0  0  0  0  0  0
   -4.6299    0.9466    1.8069 C   0  0  0  0  0  0  0  0  0  0  0  0
    3.7218    0.9586    0.2457 C   0  0  0  0  0  0  0  0  0  0  0  0
    4.2457   -0.3449    0.1194 C   0  0  0  0  0  0  0  0  0  0  0  0
    4.8346    1.7470    0.3700 C   0  0  0  0  0  0  0  0  0  0  0  0
   -2.3190   -0.5923    1.4064 H   0  0  0  0  0  0  0  0  0  0  0  0
   -1.0237   -1.0497   -1.2991 H   0  0  0  0  0  0  0  0  0  0  0  0
   -0.0680    0.3184    1.2654 H   0  0  0  0  0  0  0  0  0  0  0  0
   -2.2005    1.8726    1.2766 H   0  0  0  0  0  0  0  0  0  0  0  0
   -2.6167    2.7143   -0.2086 H   0  0  0  0  0  0  0  0  0  0  0  0
   -0.6828    1.7551   -1.3531 H   0  0  0  0  0  0  0  0  0  0  0  0
   -0.1721    2.4666    0.1618 H   0  0  0  0  0  0  0  0  0  0  0  0
    1.8923   -1.1559    1.3894 H   0  0  0  0  0  0  0  0  0  0  0  0
   -3.3737   -2.6003    0.7842 H   0  0  0  0  0  0  0  0  0  0  0  0
   -3.3869   -2.1923   -0.9346 H   0  0  0  0  0  0  0  0  0  0  0  0
   -0.9953   -3.0975    0.0303 H   0  0  0  0  0  0  0  0  0  0  0  0
   -0.4478   -2.2209    1.4546 H   0  0  0  0  0  0  0  0  0  0  0  0
   -5.4676   -1.2710   -0.6014 H   0  0  0  0  0  0  0  0  0  0  0  0
   -5.3238   -1.4063    1.1413 H   0  0  0  0  0  0  0  0  0  0  0  0
    1.4289   -3.3593    0.4161 H   0  0  0  0  0  0  0  0  0  0  0  0
    1.0858   -2.6478   -1.1518 H   0  0  0  0  0  0  0  0  0  0  0  0
    1.9836    1.4998    1.2880 H   0  0  0  0  0  0  0  0  0  0  0  0
    2.0997    2.1993   -0.3282 H   0  0  0  0  0  0  0  0  0  0  0  0
   -3.5895    1.5254   -2.1690 H   0  0  0  0  0  0  0  0  0  0  0  0
   -2.1883    0.4787   -2.3014 H   0  0  0  0  0  0  0  0  0  0  0  0
   -3.7864   -0.2294   -2.1929 H   0  0  0  0  0  0  0  0  0  0  0  0
    1.1761    1.0718   -2.2708 H   0  0  0  0  0  0  0  0  0  0  0  0
    2.5255   -0.0394   -2.1999 H   0  0  0  0  0  0  0  0  0  0  0  0
    0.8887   -0.6670   -2.3172 H   0  0  0  0  0  0  0  0  0  0  0  0
    3.4935   -1.8976   -1.1051 H   0  0  0  0  0  0  0  0  0  0  0  0
    3.7836   -2.3695    0.5693 H   0  0  0  0  0  0  0  0  0  0  0  0
   -4.4558    2.0255    1.8846 H   0  0  0  0  0  0  0  0  0  0  0  0
   -5.6545    0.7849    2.1634 H   0  0  0  0  0  0  0  0  0  0  0  0
   -3.9510    0.4307    2.4911 H   0  0  0  0  0  0  0  0  0  0  0  0
   -5.6019    0.7570   -1.2526 H   0  0  0  0  0  0  0  0  0  0  0  0
    5.0036    2.8058    0.4974 H   0  0  0  0  0  0  0  0  0  0  0  0
  1  9  1  0  0  0  0
  1 54  1  0  0  0  0
  2  3  1  0  0  0  0
  2 24  1  0  0  0  0
  3 23  2  0  0  0  0
  4  5  1  0  0  0  0
  4  6  1  0  0  0  0
  4 13  1  0  0  0  0
  4 25  1  0  0  0  0
  5  9  1  0  0  0  0
  5 10  1  0  0  0  0
  5 18  1  0  0  0  0
  6  7  1  0  0  0  0
  6 14  1  0  0  0  0
  6 26  1  0  0  0  0
  7  8  1  0  0  0  0
  7 11  1  0  0  0  0
  7 27  1  0  0  0  0
  8 12  1  0  0  0  0
  8 17  1  0  0  0  0
  8 19  1  0  0  0  0
  9 15  1  0  0  0  0
  9 21  1  0  0  0  0
 10 11  1  0  0  0  0
 10 28  1  0  0  0  0
 10 29  1  0  0  0  0
 11 30  1  0  0  0  0
 11 31  1  0  0  0  0
 12 16  1  0  0  0  0
 12 20  1  0  0  0  0
 12 32  1  0  0  0  0
 13 15  1  0  0  0  0
 13 33  1  0  0  0  0
 13 34  1  0  0  0  0
 14 16  1  0  0  0  0
 14 35  1  0  0  0  0
 14 36  1  0  0  0  0
 15 37  1  0  0  0  0
 15 38  1  0  0  0  0
 16 39  1  0  0  0  0
 16 40  1  0  0  0  0
 17 22  1  0  0  0  0
 17 41  1  0  0  0  0
 17 42  1  0  0  0  0
 18 43  1  0  0  0  0
 18 44  1  0  0  0  0
 18 45  1  0  0  0  0
 19 46  1  0  0  0  0
 19 47  1  0  0  0  0
 19 48  1  0  0  0  0
 20 23  1  0  0  0  0
 20 49  1  0  0  0  0
 20 50  1  0  0  0  0
 21 51  1  0  0  0  0
 21 52  1  0  0  0  0
 21 53  1  0  0  0  0
 22 23  1  0  0  0  0
 22 24  2  0  0  0  0
 24 55  1  0  0  0  0
M  END
> <PUBCHEM_COMPOUND_CID>
9676

> <PUBCHEM_CONFORMER_RMSD>
0.6

> <PUBCHEM_CONFORMER_DIVERSEORDER>
1

> <PUBCHEM_MMFF94_PARTIAL_CHARGES>
11
1 -0.68
17 0.18
2 -0.02
20 0.18
22 -0.18
23 0.11
24 -0.01
3 -0.41
54 0.4
55 0.15
9 0.28

> <PUBCHEM_EFFECTIVE_ROTOR_COUNT>
1.8

> <PUBCHEM_PHARMACOPHORE_FEATURES>
8
1 1 acceptor
1 1 donor
1 3 acceptor
5 2 3 22 23 24 rings
5 4 5 9 13 15 rings
6 4 5 6 7 10 11 rings
6 6 7 8 12 14 16 rings
6 8 12 17 20 22 23 rings

> <PUBCHEM_HEAVY_ATOM_COUNT>
24

> <PUBCHEM_ATOM_DEF_STEREO_COUNT>
7

> <PUBCHEM_ATOM_UDEF_STEREO_COUNT>
0

> <PUBCHEM_BOND_DEF_STEREO_COUNT>
0

> <PUBCHEM_BOND_UDEF_STEREO_COUNT>
0

> <PUBCHEM_ISOTOPIC_ATOM_COUNT>
0

> <PUBCHEM_COMPONENT_COUNT>
1

> <PUBCHEM_CACTVS_TAUTO_COUNT>
1

> <PUBCHEM_CONFORMER_ID>
000025CC00000001

> <PUBCHEM_MMFF94_ENERGY>
85.9036

> <PUBCHEM_FEATURE_SELFOVERLAP>
40.776

> <PUBCHEM_SHAPE_FINGERPRINT>
10 15 18060417997527214232
10366900 7 17385732408716742641
10411042 1 17546165199284002466
10906281 52 18262216855899772172
11132069 177 18273491274016634311
11578080 2 16843056465811078015
11595378 159 17131849689042671532
12011746 2 18410290316163831724
12107183 9 17760646271304379994
12236239 1 17676488362608002513
12403259 415 18272652393546468420
12403814 3 17704353273707557981
12633257 1 18410867538151373904
12788726 201 16950837136974628713
13140716 1 18196927782137904065
13224815 77 18410855477535007747
13402501 40 18411700967421779008
13533116 47 17417539124124702858
13675066 3 17989483035099758419
14341114 176 18410851079609828992
14341114 328 18187082866596800528
14787075 74 18336831905050957874
14790565 3 18409725128068751640
15163728 17 15214684122426932649
15188451 53 15482379847471882547
15196674 1 18411138034664245906
15536298 74 18408601491498741734
15788980 27 17704352169204818677
1601671 61 18342176657328599412
17349148 13 17632291272421345308
17980427 23 17988358165784614101
1813 80 16845573123757679214
19489759 90 16128662959134637541
200 152 17894916221695732257
21033648 144 18189912932597703492
21033648 29 18200893823637869388
21236236 1 18337111159872831499
21267235 1 18411973650685090490
21279426 13 18337672035478011182
21421861 104 18057889241052911770
22182313 1 17916872459490367383
23227448 37 18262802861010915398
23402539 116 18334300837773434517
23557571 272 18115020805962021063
23559900 14 18408041827875783814
296302 2 18260828206804480735
335352 9 18410012139986008454
34797466 226 16298661685841502344
34934 24 18410298042767935463
350125 39 18411981365010778532
351380 180 18407761417549627296
3545911 37 18413107268547631924
3633792 109 18265058097684634693
3680242 22 18340770437743887106
392239 28 18409727356924481704
4214541 1 18411419496718878065
4325135 7 18187087213552292095
474 4 18335138683014226392
474229 33 18411139112780145410
5104073 3 18411699893690797594
542803 24 17458060473603253416
5486654 2 18409727335665760236
633830 44 18113615720200805518
9709674 26 18410849966981703910

> <PUBCHEM_SHAPE_MULTIPOLES>
477.19
11.8
2.15
1.09
4.02
0.7
0.29
-3.31
-2.11
0.17
-0.2
-0.85
-0.25
0.18

> <PUBCHEM_SHAPE_SELFOVERLAP>
1037.372

> <PUBCHEM_SHAPE_VOLUME>
260.7

> <PUBCHEM_COORDINATE_TYPE>
2
5
10

$$$$

