87176
  -OEChem-07051213122D

 47 48  0     0  0  0  0  0  0999 V2000
    4.7320    2.2500    0.0000 S   0  0  0  0  0  0  0  0  0  0  0  0
    3.0000   -0.7500    0.0000 S   0  0  0  0  0  0  0  0  0  0  0  0
    5.5981    2.7500    0.0000 S   0  0  0  0  0  0  0  0  0  0  0  0
    3.0000   -1.7500    0.0000 S   0  0  0  0  0  0  0  0  0  0  0  0
    5.0981    3.6160    0.0000 O   0  0  0  0  0  0  0  0  0  0  0  0
    6.0981    1.8840    0.0000 O   0  0  0  0  0  0  0  0  0  0  0  0
    4.0000   -1.7500    0.0000 O   0  0  0  0  0  0  0  0  0  0  0  0
    2.0000   -1.7500    0.0000 O   0  0  0  0  0  0  0  0  0  0  0  0
    3.0000    1.2500    0.0000 N   0  0  0  0  0  0  0  0  0  0  0  0
    3.8660    0.7500    0.0000 C   0  0  0  0  0  0  0  0  0  0  0  0
    4.7320    1.2500    0.0000 C   0  0  0  0  0  0  0  0  0  0  0  0
    3.8660   -0.2500    0.0000 C   0  0  0  0  0  0  0  0  0  0  0  0
    3.0000    2.2500    0.0000 C   0  0  0  0  0  0  0  0  0  0  0  0
    2.1340    0.7500    0.0000 C   0  0  0  0  0  0  0  0  0  0  0  0
    3.0000   -2.7500    0.0000 C   0  0  0  0  0  0  0  0  0  0  0  0
    6.4641    3.2500    0.0000 C   0  0  0  0  0  0  0  0  0  0  0  0
    7.3301    2.7500    0.0000 C   0  0  0  0  0  0  0  0  0  0  0  0
    2.1340   -3.2500    0.0000 C   0  0  0  0  0  0  0  0  0  0  0  0
    6.4641    4.2500    0.0000 C   0  0  0  0  0  0  0  0  0  0  0  0
    3.8660   -3.2500    0.0000 C   0  0  0  0  0  0  0  0  0  0  0  0
    8.1962    3.2500    0.0000 C   0  0  0  0  0  0  0  0  0  0  0  0
    2.1340   -4.2500    0.0000 C   0  0  0  0  0  0  0  0  0  0  0  0
    7.3301    4.7500    0.0000 C   0  0  0  0  0  0  0  0  0  0  0  0
    3.8660   -4.2500    0.0000 C   0  0  0  0  0  0  0  0  0  0  0  0
    8.1962    4.2500    0.0000 C   0  0  0  0  0  0  0  0  0  0  0  0
    3.0000   -4.7500    0.0000 C   0  0  0  0  0  0  0  0  0  0  0  0
    3.8660    1.3700    0.0000 H   0  0  0  0  0  0  0  0  0  0  0  0
    4.9441    0.6674    0.0000 H   0  0  0  0  0  0  0  0  0  0  0  0
    5.3426    1.3577    0.0000 H   0  0  0  0  0  0  0  0  0  0  0  0
    4.0781   -0.8326    0.0000 H   0  0  0  0  0  0  0  0  0  0  0  0
    4.4766   -0.1423    0.0000 H   0  0  0  0  0  0  0  0  0  0  0  0
    1.8240    1.2869    0.0000 H   0  0  0  0  0  0  0  0  0  0  0  0
    3.6200    2.2500    0.0000 H   0  0  0  0  0  0  0  0  0  0  0  0
    3.0000    2.8700    0.0000 H   0  0  0  0  0  0  0  0  0  0  0  0
    2.3800    2.2500    0.0000 H   0  0  0  0  0  0  0  0  0  0  0  0
    1.5970    0.4400    0.0000 H   0  0  0  0  0  0  0  0  0  0  0  0
    2.4440    0.2131    0.0000 H   0  0  0  0  0  0  0  0  0  0  0  0
    1.5970   -2.9400    0.0000 H   0  0  0  0  0  0  0  0  0  0  0  0
    7.3301    2.1300    0.0000 H   0  0  0  0  0  0  0  0  0  0  0  0
    4.4030   -2.9400    0.0000 H   0  0  0  0  0  0  0  0  0  0  0  0
    5.9272    4.5600    0.0000 H   0  0  0  0  0  0  0  0  0  0  0  0
    1.5970   -4.5600    0.0000 H   0  0  0  0  0  0  0  0  0  0  0  0
    8.7331    2.9400    0.0000 H   0  0  0  0  0  0  0  0  0  0  0  0
    4.4030   -4.5600    0.0000 H   0  0  0  0  0  0  0  0  0  0  0  0
    7.3301    5.3700    0.0000 H   0  0  0  0  0  0  0  0  0  0  0  0
    3.0000   -5.3700    0.0000 H   0  0  0  0  0  0  0  0  0  0  0  0
    8.7331    4.5600    0.0000 H   0  0  0  0  0  0  0  0  0  0  0  0
  1  3  1  0  0  0  0
  1 11  1  0  0  0  0
  2  4  1  0  0  0  0
  2 12  1  0  0  0  0
  3  5  2  0  0  0  0
  3  6  2  0  0  0  0
  3 16  1  0  0  0  0
  4  7  2  0  0  0  0
  4  8  2  0  0  0  0
  4 15  1  0  0  0  0
  9 10  1  0  0  0  0
  9 13  1  0  0  0  0
  9 14  1  0  0  0  0
 10 11  1  0  0  0  0
 10 12  1  0  0  0  0
 10 27  1  0  0  0  0
 11 28  1  0  0  0  0
 11 29  1  0  0  0  0
 12 30  1  0  0  0  0
 12 31  1  0  0  0  0
 13 33  1  0  0  0  0
 13 34  1  0  0  0  0
 13 35  1  0  0  0  0
 14 32  1  0  0  0  0
 14 36  1  0  0  0  0
 14 37  1  0  0  0  0
 15 18  2  0  0  0  0
 15 20  1  0  0  0  0
 16 17  2  0  0  0  0
 16 19  1  0  0  0  0
 17 21  1  0  0  0  0
 17 39  1  0  0  0  0
 18 22  1  0  0  0  0
 18 38  1  0  0  0  0
 19 23  2  0  0  0  0
 19 41  1  0  0  0  0
 20 24  2  0  0  0  0
 20 40  1  0  0  0  0
 21 25  2  0  0  0  0
 21 43  1  0  0  0  0
 22 26  2  0  0  0  0
 22 42  1  0  0  0  0
 23 25  1  0  0  0  0
 23 45  1  0  0  0  0
 24 26  1  0  0  0  0
 24 44  1  0  0  0  0
 25 47  1  0  0  0  0
 26 46  1  0  0  0  0
M  END
> <PUBCHEM_COMPOUND_CID>
87176

> <PUBCHEM_COMPOUND_CANONICALIZED>
1

> <PUBCHEM_CACTVS_COMPLEXITY>
558

> <PUBCHEM_CACTVS_HBOND_ACCEPTOR>
7

> <PUBCHEM_CACTVS_HBOND_DONOR>
0

> <PUBCHEM_CACTVS_ROTATABLE_BOND>
9

> <PUBCHEM_CACTVS_SUBSKEYS>
AAADceB6OABwAAAAAAAAAAAAAAAAAAAAAAAwYAAAAAAAAAABQAAAHAQAAAAACCjFUASyAYMAAAKAACBCAHBGAAAgAAAIiBgIAIgIICKAERCAIAAggAAIiAcAAAAAAAAAAAAAAAAAAAAAAAAAAAAAAAAAAA==

> <PUBCHEM_IUPAC_OPENEYE_NAME>
1,3-bis(benzenesulfonylsulfanyl)-N,N-dimethyl-propan-2-amine

> <PUBCHEM_IUPAC_CAS_NAME>
1,3-bis(benzenesulfonylthio)-N,N-dimethyl-2-propanamine

> <PUBCHEM_IUPAC_NAME>
1,3-bis(benzenesulfonylsulfanyl)-N,N-dimethylpropan-2-amine

> <PUBCHEM_IUPAC_SYSTEMATIC_NAME>
N,N-dimethyl-1,3-bis(phenylsulfonylsulfanyl)propan-2-amine

> <PUBCHEM_IUPAC_TRADITIONAL_NAME>
[2-(besylthio)-1-[(besylthio)methyl]ethyl]-dimethyl-amine

> <PUBCHEM_IUPAC_INCHI>
InChI=1S/C17H21NO4S4/c1-18(2)15(13-23-25(19,20)16-9-5-3-6-10-16)14-24-26(21,22)17-11-7-4-8-12-17/h3-12,15H,13-14H2,1-2H3

> <PUBCHEM_IUPAC_INCHIKEY>
YFXPPSKYMBTNAV-UHFFFAOYSA-N

> <PUBCHEM_XLOGP3>
3.4

> <PUBCHEM_EXACT_MASS>
431.035342

> <PUBCHEM_MOLECULAR_FORMULA>
C17H21NO4S4

> <PUBCHEM_MOLECULAR_WEIGHT>
431.61294

> <PUBCHEM_OPENEYE_CAN_SMILES>
CN(C)C(CSS(=O)(=O)C1=CC=CC=C1)CSS(=O)(=O)C2=CC=CC=C2

> <PUBCHEM_OPENEYE_ISO_SMILES>
CN(C)C(CSS(=O)(=O)C1=CC=CC=C1)CSS(=O)(=O)C2=CC=CC=C2

> <PUBCHEM_CACTVS_TPSA>
139

> <PUBCHEM_MONOISOTOPIC_WEIGHT>
431.035342

> <PUBCHEM_TOTAL_CHARGE>
0

> <PUBCHEM_HEAVY_ATOM_COUNT>
26

> <PUBCHEM_ATOM_DEF_STEREO_COUNT>
0

> <PUBCHEM_ATOM_UDEF_STEREO_COUNT>
0

> <PUBCHEM_BOND_DEF_STEREO_COUNT>
0

> <PUBCHEM_BOND_UDEF_STEREO_COUNT>
0

> <PUBCHEM_ISOTOPIC_ATOM_COUNT>
0

> <PUBCHEM_COMPONENT_COUNT>
1

> <PUBCHEM_CACTVS_TAUTO_COUNT>
1

> <PUBCHEM_COORDINATE_TYPE>
1
5
255

> <PUBCHEM_BONDANNOTATIONS>
15  18  8
15  20  8
16  17  8
16  19  8
17  21  8
18  22  8
19  23  8
20  24  8
21  25  8
22  26  8
23  25  8
24  26  8

$$$$

