13283
  -OEChem-06261208293D

 35 36  0     0  0  0  0  0  0999 V2000
   -4.7740   -0.0081   -1.3868 N   0  0  0  0  0  0  0  0  0  0  0  0
    4.7718   -0.0086   -1.3866 N   0  0  0  0  0  0  0  0  0  0  0  0
   -0.0011    0.6920    1.6366 C   0  0  0  0  0  0  0  0  0  0  0  0
   -1.2514    0.5034    0.8458 C   0  0  0  0  0  0  0  0  0  0  0  0
    1.2694    0.5003    0.8332 C   0  0  0  0  0  0  0  0  0  0  0  0
   -1.8365   -0.7596    0.7563 C   0  0  0  0  0  0  0  0  0  0  0  0
    1.8340   -0.7599    0.7562 C   0  0  0  0  0  0  0  0  0  0  0  0
   -3.0060   -0.9356    0.0166 C   0  0  0  0  0  0  0  0  0  0  0  0
    3.0034   -0.9360    0.0165 C   0  0  0  0  0  0  0  0  0  0  0  0
   -1.8357    1.5904    0.1958 C   0  0  0  0  0  0  0  0  0  0  0  0
    1.8336    1.5903    0.1961 C   0  0  0  0  0  0  0  0  0  0  0  0
   -3.5904    0.1513   -0.6333 C   0  0  0  0  0  0  0  0  0  0  0  0
    3.5878    0.1509   -0.6336 C   0  0  0  0  0  0  0  0  0  0  0  0
   -3.0052    1.4144   -0.5437 C   0  0  0  0  0  0  0  0  0  0  0  0
    3.0030    1.4141   -0.5438 C   0  0  0  0  0  0  0  0  0  0  0  0
   -3.6114   -2.2994   -0.0625 C   0  0  0  0  0  0  0  0  0  0  0  0
    3.6086   -2.2998   -0.0627 C   0  0  0  0  0  0  0  0  0  0  0  0
    0.0045    1.6908    2.0952 H   0  0  0  0  0  0  0  0  0  0  0  0
    0.0045    0.0090    2.4977 H   0  0  0  0  0  0  0  0  0  0  0  0
   -1.3789   -1.6049    1.2650 H   0  0  0  0  0  0  0  0  0  0  0  0
    1.3733   -1.6018    1.2658 H   0  0  0  0  0  0  0  0  0  0  0  0
   -1.3910    2.5801    0.2576 H   0  0  0  0  0  0  0  0  0  0  0  0
    1.3862    2.5777    0.2606 H   0  0  0  0  0  0  0  0  0  0  0  0
   -3.4501    2.2701   -1.0453 H   0  0  0  0  0  0  0  0  0  0  0  0
    3.4481    2.2698   -1.0453 H   0  0  0  0  0  0  0  0  0  0  0  0
   -4.6227   -2.2959    0.3575 H   0  0  0  0  0  0  0  0  0  0  0  0
   -3.6487   -2.6435   -1.1014 H   0  0  0  0  0  0  0  0  0  0  0  0
   -3.0295   -3.0367    0.5016 H   0  0  0  0  0  0  0  0  0  0  0  0
    4.6200   -2.2964    0.3570 H   0  0  0  0  0  0  0  0  0  0  0  0
    3.0266   -3.0368    0.5017 H   0  0  0  0  0  0  0  0  0  0  0  0
    3.6455   -2.6441   -1.1016 H   0  0  0  0  0  0  0  0  0  0  0  0
   -5.2213   -0.9102   -1.4696 H   0  0  0  0  0  0  0  0  0  0  0  0
   -5.1832    0.7925   -1.8506 H   0  0  0  0  0  0  0  0  0  0  0  0
    5.2181   -0.9111   -1.4706 H   0  0  0  0  0  0  0  0  0  0  0  0
    5.1804    0.7917   -1.8514 H   0  0  0  0  0  0  0  0  0  0  0  0
  1 12  1  0  0  0  0
  1 32  1  0  0  0  0
  1 33  1  0  0  0  0
  2 13  1  0  0  0  0
  2 34  1  0  0  0  0
  2 35  1  0  0  0  0
  3  4  1  0  0  0  0
  3  5  1  0  0  0  0
  3 18  1  0  0  0  0
  3 19  1  0  0  0  0
  4  6  2  0  0  0  0
  4 10  1  0  0  0  0
  5  7  2  0  0  0  0
  5 11  1  0  0  0  0
  6  8  1  0  0  0  0
  6 20  1  0  0  0  0
  7  9  1  0  0  0  0
  7 21  1  0  0  0  0
  8 12  2  0  0  0  0
  8 16  1  0  0  0  0
  9 13  2  0  0  0  0
  9 17  1  0  0  0  0
 10 14  2  0  0  0  0
 10 22  1  0  0  0  0
 11 15  2  0  0  0  0
 11 23  1  0  0  0  0
 12 14  1  0  0  0  0
 13 15  1  0  0  0  0
 14 24  1  0  0  0  0
 15 25  1  0  0  0  0
 16 26  1  0  0  0  0
 16 27  1  0  0  0  0
 16 28  1  0  0  0  0
 17 29  1  0  0  0  0
 17 30  1  0  0  0  0
 17 31  1  0  0  0  0
M  END
> <PUBCHEM_COMPOUND_CID>
13283

> <PUBCHEM_CONFORMER_RMSD>
0.6

> <PUBCHEM_CONFORMER_DIVERSEORDER>
1
4
7
10
8
5
11
6
9
2
3

> <PUBCHEM_MMFF94_PARTIAL_CHARGES>
27
1 -0.9
10 -0.15
11 -0.15
12 0.1
13 0.1
14 -0.15
15 -0.15
16 0.14
17 0.14
2 -0.9
20 0.15
21 0.15
22 0.15
23 0.15
24 0.15
25 0.15
3 0.29
32 0.4
33 0.4
34 0.4
35 0.4
4 -0.14
5 -0.14
6 -0.15
7 -0.15
8 -0.14
9 -0.14

> <PUBCHEM_EFFECTIVE_ROTOR_COUNT>
2

> <PUBCHEM_PHARMACOPHORE_FEATURES>
6
1 1 cation
1 1 donor
1 2 cation
1 2 donor
6 4 6 8 10 12 14 rings
6 5 7 9 11 13 15 rings

> <PUBCHEM_HEAVY_ATOM_COUNT>
17

> <PUBCHEM_ATOM_DEF_STEREO_COUNT>
0

> <PUBCHEM_ATOM_UDEF_STEREO_COUNT>
0

> <PUBCHEM_BOND_DEF_STEREO_COUNT>
0

> <PUBCHEM_BOND_UDEF_STEREO_COUNT>
0

> <PUBCHEM_ISOTOPIC_ATOM_COUNT>
0

> <PUBCHEM_COMPONENT_COUNT>
1

> <PUBCHEM_CACTVS_TAUTO_COUNT>
1

> <PUBCHEM_CONFORMER_ID>
000033E300000001

> <PUBCHEM_MMFF94_ENERGY>
67.6076

> <PUBCHEM_FEATURE_SELFOVERLAP>
30.446

> <PUBCHEM_SHAPE_FINGERPRINT>
10498660 4 16774086171732882709
11543360 7 18272086071922341604
12363563 72 16732988638720459905
12507560 40 9727365631413253920
12553582 1 18040707082603817930
12670546 177 18273215287485836812
12707595 3 17458347416067927352
12892183 10 7420944287831286535
13296908 3 16660368090450136744
13675066 3 5906051465354819553
13705890 14 18261108569753939944
14250199 8 17988353784855194236
14576447 43 18408037399532282726
15209289 33 4751165107488505996
15239191 94 16805600347985076229
15342168 16 13398352429893777455
16752209 62 17967821591065350291
1798214 20 18186805794014244334
1813 80 15068609466690558608
18186145 218 18412262822258877273
193927 3 17313650621149076902
19862831 5 18202283610487212760
200 152 18040714770563492480
20281475 54 18260828185545974411
20361792 2 16515406257062224849
20645477 70 17458353996021413949
20671657 53 18186521029256459752
20871999 31 18201725003468608915
21503847 285 9799690415983694970
21713013 43 18337671919213207263
21731228 192 10592041358063334056
21864079 5 15482393131162157149
221490 88 18339355271594518554
22393880 68 18411695504808921630
22646028 28 17530681021931650900
231179 274 13901908891038473668
23402539 116 17060340712989707116
23402655 69 18131350838472550756
23557571 272 17202751597501453219
23559900 14 18337400352721046632
27216 239 10807930453713625567
2838139 119 16414336872679653956
2871803 45 18339080371938580683
3082319 5 18342738528691419488
4028521 119 17346604092545461165
4280585 95 17688019130787739190
465052 167 17096086858274153871
4921388 177 17417802925194952027
5161694 15 18059576931182184823
5281201 14 17989481922439510815
633830 44 16773791545413362928
90316 7 5545209341278810539
93112 12 18341896289947074905
9709674 26 18343018843990322995

> <PUBCHEM_SHAPE_MULTIPOLES>
339.89
9.03
2.03
1.19
0.03
0.76
0.07
2.45
-4.34
0
-0.03
0
-0.17
0

> <PUBCHEM_SHAPE_SELFOVERLAP>
727.736

> <PUBCHEM_SHAPE_VOLUME>
189.8

> <PUBCHEM_COORDINATE_TYPE>
2
5
10

$$$$

