100492
  -OEChem-07051212593D

 44 48  0     0  0  0  0  0  0999 V2000
    0.8235    4.2640   -0.0970 O   0  0  0  0  0  0  0  0  0  0  0  0
   -3.3003    2.9494   -0.3855 O   0  0  0  0  0  0  0  0  0  0  0  0
    4.1753   -1.5888   -1.6063 O   0  0  0  0  0  0  0  0  0  0  0  0
    5.0104   -2.0227    0.6122 O   0  0  0  0  0  0  0  0  0  0  0  0
   -2.3641   -3.3680    0.1614 O   0  0  0  0  0  0  0  0  0  0  0  0
   -4.7046   -1.9143   -0.1635 O   0  0  0  0  0  0  0  0  0  0  0  0
    2.5157    2.7250    0.1739 O   0  0  0  0  0  0  0  0  0  0  0  0
    0.2070    0.7143    0.1056 C   0  0  0  0  0  0  0  0  0  0  0  0
    0.2062    2.0934    0.0050 C   0  0  0  0  0  0  0  0  0  0  0  0
   -0.9473    2.8275   -0.1562 C   0  0  0  0  0  0  0  0  0  0  0  0
   -1.0265    0.0465    0.0389 C   0  0  0  0  0  0  0  0  0  0  0  0
   -2.2294    0.7940   -0.1279 C   0  0  0  0  0  0  0  0  0  0  0  0
   -2.1761    2.1971   -0.2250 C   0  0  0  0  0  0  0  0  0  0  0  0
    1.4617    0.0009    0.2746 C   0  0  0  0  0  0  0  0  0  0  0  0
   -0.6200    4.2626   -0.2305 C   0  0  0  0  0  0  0  0  0  0  0  0
    1.3404    3.0029    0.0441 C   0  0  0  0  0  0  0  0  0  0  0  0
   -1.0972   -1.3519    0.1338 C   0  0  0  0  0  0  0  0  0  0  0  0
   -3.4538    0.1114   -0.1929 C   0  0  0  0  0  0  0  0  0  0  0  0
    2.1674   -0.4243   -0.8499 C   0  0  0  0  0  0  0  0  0  0  0  0
   -2.3261   -2.0090    0.0665 C   0  0  0  0  0  0  0  0  0  0  0  0
   -3.5005   -1.2798   -0.0963 C   0  0  0  0  0  0  0  0  0  0  0  0
    1.9439   -0.2495    1.5682 C   0  0  0  0  0  0  0  0  0  0  0  0
    3.3530   -1.0981   -0.6392 C   0  0  0  0  0  0  0  0  0  0  0  0
    3.8299   -1.3460    0.6276 C   0  0  0  0  0  0  0  0  0  0  0  0
    3.1474   -0.9339    1.7536 C   0  0  0  0  0  0  0  0  0  0  0  0
    5.2235   -2.1727   -0.8062 C   0  0  0  0  0  0  0  0  0  0  0  0
   -2.2642   -4.1052   -1.0551 C   0  0  0  0  0  0  0  0  0  0  0  0
   -5.3953   -2.1249    1.0662 C   0  0  0  0  0  0  0  0  0  0  0  0
   -0.8822    4.7045   -1.1954 H   0  0  0  0  0  0  0  0  0  0  0  0
   -1.0481    4.8352    0.5965 H   0  0  0  0  0  0  0  0  0  0  0  0
   -0.2087   -1.9656    0.2627 H   0  0  0  0  0  0  0  0  0  0  0  0
   -4.3975    0.6310   -0.3362 H   0  0  0  0  0  0  0  0  0  0  0  0
    1.8077   -0.2386   -1.8568 H   0  0  0  0  0  0  0  0  0  0  0  0
    1.3889    0.0848    2.4420 H   0  0  0  0  0  0  0  0  0  0  0  0
    3.5263   -1.1313    2.7499 H   0  0  0  0  0  0  0  0  0  0  0  0
   -4.0651    2.5032    0.0096 H   0  0  0  0  0  0  0  0  0  0  0  0
    6.1741   -1.6954   -1.0707 H   0  0  0  0  0  0  0  0  0  0  0  0
    5.2894   -3.2415   -1.0401 H   0  0  0  0  0  0  0  0  0  0  0  0
   -3.0927   -3.8567   -1.7258 H   0  0  0  0  0  0  0  0  0  0  0  0
   -2.3162   -5.1707   -0.8152 H   0  0  0  0  0  0  0  0  0  0  0  0
   -1.3078   -3.9037   -1.5481 H   0  0  0  0  0  0  0  0  0  0  0  0
   -5.6298   -1.1679    1.5431 H   0  0  0  0  0  0  0  0  0  0  0  0
   -4.7988   -2.7456    1.7422 H   0  0  0  0  0  0  0  0  0  0  0  0
   -6.3317   -2.6457    0.8483 H   0  0  0  0  0  0  0  0  0  0  0  0
  1 15  1  0  0  0  0
  1 16  1  0  0  0  0
  2 13  1  0  0  0  0
  2 36  1  0  0  0  0
  3 23  1  0  0  0  0
  3 26  1  0  0  0  0
  4 24  1  0  0  0  0
  4 26  1  0  0  0  0
  5 20  1  0  0  0  0
  5 27  1  0  0  0  0
  6 21  1  0  0  0  0
  6 28  1  0  0  0  0
  7 16  2  0  0  0  0
  8  9  2  0  0  0  0
  8 11  1  0  0  0  0
  8 14  1  0  0  0  0
  9 10  1  0  0  0  0
  9 16  1  0  0  0  0
 10 13  2  0  0  0  0
 10 15  1  0  0  0  0
 11 12  1  0  0  0  0
 11 17  2  0  0  0  0
 12 13  1  0  0  0  0
 12 18  2  0  0  0  0
 14 19  2  0  0  0  0
 14 22  1  0  0  0  0
 15 29  1  0  0  0  0
 15 30  1  0  0  0  0
 17 20  1  0  0  0  0
 17 31  1  0  0  0  0
 18 21  1  0  0  0  0
 18 32  1  0  0  0  0
 19 23  1  0  0  0  0
 19 33  1  0  0  0  0
 20 21  2  0  0  0  0
 22 25  2  0  0  0  0
 22 34  1  0  0  0  0
 23 24  2  0  0  0  0
 24 25  1  0  0  0  0
 25 35  1  0  0  0  0
 26 37  1  0  0  0  0
 26 38  1  0  0  0  0
 27 39  1  0  0  0  0
 27 40  1  0  0  0  0
 27 41  1  0  0  0  0
 28 42  1  0  0  0  0
 28 43  1  0  0  0  0
 28 44  1  0  0  0  0
M  END
> <PUBCHEM_COMPOUND_CID>
100492

> <PUBCHEM_CONFORMER_RMSD>
0.8

> <PUBCHEM_CONFORMER_DIVERSEORDER>
1
2

> <PUBCHEM_MMFF94_PARTIAL_CHARGES>
30
1 -0.43
10 -0.14
13 0.08
15 0.42
16 0.63
17 -0.15
18 -0.15
19 -0.15
2 -0.53
20 0.08
21 0.08
22 -0.15
23 0.08
24 0.08
25 -0.15
26 0.56
27 0.28
28 0.28
3 -0.36
31 0.15
32 0.15
33 0.15
34 0.15
35 0.15
36 0.45
4 -0.36
5 -0.36
6 -0.36
7 -0.57
9 0.09

> <PUBCHEM_EFFECTIVE_ROTOR_COUNT>
4

> <PUBCHEM_PHARMACOPHORE_FEATURES>
11
1 2 donor
1 3 acceptor
1 4 acceptor
1 5 acceptor
1 6 acceptor
1 7 acceptor
5 1 9 10 15 16 rings
5 3 4 23 24 26 rings
6 11 12 17 18 20 21 rings
6 14 19 22 23 24 25 rings
6 8 9 10 11 12 13 rings

> <PUBCHEM_HEAVY_ATOM_COUNT>
28

> <PUBCHEM_ATOM_DEF_STEREO_COUNT>
0

> <PUBCHEM_ATOM_UDEF_STEREO_COUNT>
0

> <PUBCHEM_BOND_DEF_STEREO_COUNT>
0

> <PUBCHEM_BOND_UDEF_STEREO_COUNT>
0

> <PUBCHEM_ISOTOPIC_ATOM_COUNT>
0

> <PUBCHEM_COMPONENT_COUNT>
1

> <PUBCHEM_CACTVS_TAUTO_COUNT>
3

> <PUBCHEM_CONFORMER_ID>
0001888C00000001

> <PUBCHEM_MMFF94_ENERGY>
113.5269

> <PUBCHEM_FEATURE_SELFOVERLAP>
56.095

> <PUBCHEM_SHAPE_FINGERPRINT>
10319926 262 18048906245004754226
10369192 42 17460902609190044984
10411042 1 18411417302228245931
1100329 8 18339080509810538121
11135926 11 18050856507052423997
11578080 2 17344940514389117308
12107183 9 18335686236338327019
12236239 1 17343492595203874672
12553582 1 18411987944420978963
12788726 201 18271801371794931282
12839892 36 17543369162799382320
13140716 1 18410013273335687337
138480 1 15096209858194111829
14251757 5 18339913939571073326
14790565 3 17905317786458448928
14844126 61 18269283520100181394
14863182 85 17189250496586781301
15042514 8 18267862959650658873
15230672 131 17259335000537028830
16752209 62 18270409398479283563
17492 89 18049159960996413247
1813 80 18335977605912034010
19319366 153 17487616561596675090
19591789 44 18411978079281526457
20028762 73 18188215403230461629
20511986 3 17344915341949525108
20775438 99 17397315609413363927
20905425 154 18265612083144757284
21033648 29 17532111520840362546
21421861 104 18198627622961916617
23184049 29 18412271609646043409
23366157 5 17912086053625564149
23557571 272 18335427898102097496
23559900 14 18336834103968581800
23566358 2 18341905034427065548
314173 41 18339638936725436346
3178227 256 18196074768107299329
335352 9 18411420657262388237
4280585 95 18411145723283342690
4409770 3 18054797444568166797
484989 97 18343027710000379245
7364860 26 18122062005206015689
9709674 26 18124880053872229963
9981440 41 17404582667596611696

> <PUBCHEM_SHAPE_MULTIPOLES>
535.14
8.89
5.33
1.07
2.36
3.54
0.19
-9.57
0.17
-2.43
-0.96
0.85
-0.61
0.58

> <PUBCHEM_SHAPE_SELFOVERLAP>
1224.706

> <PUBCHEM_SHAPE_VOLUME>
281.9

> <PUBCHEM_COORDINATE_TYPE>
2
5
10

$$$$

