12337
  -OEChem-06261206503D

 14 13  0     0  0  0  0  0  0999 V2000
   -3.7421    0.2859    0.0606 I   0  0  0  0  0  0  0  0  0  0  0  0
    3.7346   -0.2591    0.0529 I   0  0  0  0  0  0  0  0  0  0  0  0
   -0.6769    0.3180   -0.0506 C   0  0  0  0  0  0  0  0  0  0  0  0
    0.7012   -0.3542   -0.0239 C   0  0  0  0  0  0  0  0  0  0  0  0
   -1.8361   -0.6795   -0.0226 C   0  0  0  0  0  0  0  0  0  0  0  0
    1.8193    0.6889   -0.0165 C   0  0  0  0  0  0  0  0  0  0  0  0
   -0.7576    0.9938    0.8106 H   0  0  0  0  0  0  0  0  0  0  0  0
   -0.7557    0.9450   -0.9479 H   0  0  0  0  0  0  0  0  0  0  0  0
    0.8013   -1.0108   -0.8970 H   0  0  0  0  0  0  0  0  0  0  0  0
    0.7750   -0.9910    0.8665 H   0  0  0  0  0  0  0  0  0  0  0  0
   -1.7929   -1.3184   -0.9119 H   0  0  0  0  0  0  0  0  0  0  0  0
   -1.7350   -1.3365    0.8488 H   0  0  0  0  0  0  0  0  0  0  0  0
    1.7551    1.3147   -0.9136 H   0  0  0  0  0  0  0  0  0  0  0  0
    1.7117    1.3497    0.8510 H   0  0  0  0  0  0  0  0  0  0  0  0
  1  5  1  0  0  0  0
  2  6  1  0  0  0  0
  3  4  1  0  0  0  0
  3  5  1  0  0  0  0
  3  7  1  0  0  0  0
  3  8  1  0  0  0  0
  4  6  1  0  0  0  0
  4  9  1  0  0  0  0
  4 10  1  0  0  0  0
  5 11  1  0  0  0  0
  5 12  1  0  0  0  0
  6 13  1  0  0  0  0
  6 14  1  0  0  0  0
M  END
> <PUBCHEM_COMPOUND_CID>
12337

> <PUBCHEM_CONFORMER_RMSD>
0.4

> <PUBCHEM_CONFORMER_DIVERSEORDER>
1
11
12
8
3
6
10
4
9
7
2
5

> <PUBCHEM_MMFF94_PARTIAL_CHARGES>
4
1 -0.19
2 -0.19
5 0.19
6 0.19

> <PUBCHEM_EFFECTIVE_ROTOR_COUNT>
3

> <PUBCHEM_PHARMACOPHORE_FEATURES>
2
1 1 hydrophobe
1 2 hydrophobe

> <PUBCHEM_HEAVY_ATOM_COUNT>
6

> <PUBCHEM_ATOM_DEF_STEREO_COUNT>
0

> <PUBCHEM_ATOM_UDEF_STEREO_COUNT>
0

> <PUBCHEM_BOND_DEF_STEREO_COUNT>
0

> <PUBCHEM_BOND_UDEF_STEREO_COUNT>
0

> <PUBCHEM_ISOTOPIC_ATOM_COUNT>
0

> <PUBCHEM_COMPONENT_COUNT>
1

> <PUBCHEM_CACTVS_TAUTO_COUNT>
1

> <PUBCHEM_CONFORMER_ID>
0000303100000001

> <PUBCHEM_MMFF94_ENERGY>
1.6424

> <PUBCHEM_FEATURE_SELFOVERLAP>
10.149

> <PUBCHEM_SHAPE_FINGERPRINT>
11062470 55 15502375629599385721
12932764 1 15697449831542880522
14325111 11 18410575046029504750
14390081 3 18187366515275414329
18342897 14 18334013887151446680
20719005 15 18410573981241657675
3248919 1 15647323096422029726
5460574 1 9223236247168751998

> <PUBCHEM_SHAPE_MULTIPOLES>
147.35
7.95
0.9
0.72
0.08
0
-0.01
0.06
-0.27
0
0
0
0
-0.02

> <PUBCHEM_SHAPE_SELFOVERLAP>
216.209

> <PUBCHEM_SHAPE_VOLUME>
113.8

> <PUBCHEM_COORDINATE_TYPE>
2
5
10

$$$$

