3036942
  -OEChem-07051213093D

 46 48  0     1  0  0  0  0  0999 V2000
   -0.9175   -4.9382   -0.5828 S   0  0  0  0  0  0  0  0  0  0  0  0
    2.5311    1.7510   -1.2385 P   0  0  1  0  0  0  0  0  0  0  0  0
    3.0288   -0.6192    0.4348 P   0  0  2  0  0  0  0  0  0  0  0  0
    0.9518   -0.8546    2.5168 P   0  0  0  0  0  0  0  0  0  0  0  0
   -1.7824    1.7004   -1.3324 O   0  0  0  0  0  0  0  0  0  0  0  0
   -3.7430    2.7507    0.9798 O   0  0  0  0  0  0  0  0  0  0  0  0
   -1.2574    3.6606    1.6327 O   0  0  0  0  0  0  0  0  0  0  0  0
    0.9621    1.8330   -0.8517 O   0  0  0  0  0  0  0  0  0  0  0  0
    2.9420    0.2167   -0.9438 O   0  0  0  0  0  0  0  0  0  0  0  0
    2.5516    1.8357   -2.8539 O   0  0  0  0  0  0  0  0  0  0  0  0
    3.4028    2.7633   -0.5540 O   0  0  0  0  0  0  0  0  0  0  0  0
    1.5631   -0.4209    1.0850 O   0  0  0  0  0  0  0  0  0  0  0  0
    3.9835    0.2841    1.3759 O   0  0  0  0  0  0  0  0  0  0  0  0
    3.4591   -2.0491    0.2893 O   0  0  0  0  0  0  0  0  0  0  0  0
   -0.6100   -0.4607    2.3821 O   0  0  0  0  0  0  0  0  0  0  0  0
    0.9400   -2.4693    2.4511 O   0  0  0  0  0  0  0  0  0  0  0  0
    1.6578   -0.2660    3.7025 O   0  0  0  0  0  0  0  0  0  0  0  0
   -2.4878   -0.3507   -0.3680 N   0  0  0  0  0  0  0  0  0  0  0  0
   -2.7541   -2.5025    0.2073 N   0  0  0  0  0  0  0  0  0  0  0  0
   -0.4614   -0.6108   -1.6852 N   0  0  0  0  0  0  0  0  0  0  0  0
    0.3710   -2.8656   -1.8310 N   0  0  0  0  0  0  0  0  0  0  0  0
   -2.6770    1.8067    0.8920 C   0  0  2  0  0  0  0  0  0  0  0  0
   -1.3306    2.5031    0.8282 C   0  0  1  0  0  0  0  0  0  0  0  0
   -2.7512    1.0866   -0.4555 C   0  0  1  0  0  0  0  0  0  0  0  0
   -1.2038    2.8253   -0.6506 C   0  0  1  0  0  0  0  0  0  0  0  0
    0.2311    3.0203   -1.1066 C   0  0  0  0  0  0  0  0  0  0  0  0
   -1.4706   -1.0493   -0.9243 C   0  0  0  0  0  0  0  0  0  0  0  0
   -3.2431   -1.2790    0.3114 C   0  0  0  0  0  0  0  0  0  0  0  0
   -1.6347   -2.3630   -0.5718 C   0  0  0  0  0  0  0  0  0  0  0  0
   -0.6735   -3.3500   -1.0382 C   0  0  0  0  0  0  0  0  0  0  0  0
    0.4222   -1.5884   -2.1007 C   0  0  0  0  0  0  0  0  0  0  0  0
   -2.7606    1.1562    1.7674 H   0  0  0  0  0  0  0  0  0  0  0  0
   -0.5511    1.8042    1.1468 H   0  0  0  0  0  0  0  0  0  0  0  0
   -3.7351    1.1817   -0.9297 H   0  0  0  0  0  0  0  0  0  0  0  0
   -1.7844    3.7200   -0.9081 H   0  0  0  0  0  0  0  0  0  0  0  0
    0.7039    3.8591   -0.5870 H   0  0  0  0  0  0  0  0  0  0  0  0
    0.2559    3.2091   -2.1846 H   0  0  0  0  0  0  0  0  0  0  0  0
   -4.5758    2.2485    0.9766 H   0  0  0  0  0  0  0  0  0  0  0  0
   -0.3811    4.0594    1.4986 H   0  0  0  0  0  0  0  0  0  0  0  0
   -4.1344   -1.0043    0.8589 H   0  0  0  0  0  0  0  0  0  0  0  0
   -0.3354    0.3579   -1.9576 H   0  0  0  0  0  0  0  0  0  0  0  0
    1.2333   -1.1870   -2.7282 H   0  0  0  0  0  0  0  0  0  0  0  0
    2.4796    2.7140   -3.2846 H   0  0  0  0  0  0  0  0  0  0  0  0
    4.9536    0.2556    1.2345 H   0  0  0  0  0  0  0  0  0  0  0  0
   -1.1914   -0.5442    3.1676 H   0  0  0  0  0  0  0  0  0  0  0  0
    0.6765   -2.9754    3.2489 H   0  0  0  0  0  0  0  0  0  0  0  0
  1 30  2  0  0  0  0
  2  8  1  0  0  0  0
  2  9  1  0  0  0  0
  2 10  1  0  0  0  0
  2 11  2  0  0  0  0
  3  9  1  0  0  0  0
  3 12  1  0  0  0  0
  3 13  1  0  0  0  0
  3 14  2  0  0  0  0
  4 12  1  0  0  0  0
  4 15  1  0  0  0  0
  4 16  1  0  0  0  0
  4 17  2  0  0  0  0
  5 24  1  0  0  0  0
  5 25  1  0  0  0  0
  6 22  1  0  0  0  0
  6 38  1  0  0  0  0
  7 23  1  0  0  0  0
  7 39  1  0  0  0  0
  8 26  1  0  0  0  0
 10 43  1  0  0  0  0
 13 44  1  0  0  0  0
 15 45  1  0  0  0  0
 16 46  1  0  0  0  0
 18 24  1  0  0  0  0
 18 27  1  0  0  0  0
 18 28  1  0  0  0  0
 19 28  2  0  0  0  0
 19 29  1  0  0  0  0
 20 27  1  0  0  0  0
 20 31  1  0  0  0  0
 20 41  1  0  0  0  0
 21 30  1  0  0  0  0
 21 31  2  0  0  0  0
 22 23  1  0  0  0  0
 22 24  1  0  0  0  0
 22 32  1  0  0  0  0
 23 25  1  0  0  0  0
 23 33  1  0  0  0  0
 24 34  1  0  0  0  0
 25 26  1  0  0  0  0
 25 35  1  0  0  0  0
 26 36  1  0  0  0  0
 26 37  1  0  0  0  0
 27 29  2  0  0  0  0
 28 40  1  0  0  0  0
 29 30  1  0  0  0  0
 31 42  1  0  0  0  0
M  END
> <PUBCHEM_COMPOUND_CID>
3036942

> <PUBCHEM_CONFORMER_RMSD>
1.2

> <PUBCHEM_CONFORMER_DIVERSEORDER>
14
28
117
291
340
349
89
53
303
116
278
78
347
225
141
21
288
172
127
321
393
251
273
268
209
95
175
20
262
342
189
289
390
170
35
24
215
140
280
71
352
83
282
150
22
68
142
297
51
309
27
162
258
292
319
121
46
385
233
66
88
266
229
169
322
360
212
357
134
293
156
272
312
7
40
313
173
379
93
124
98
131
253
107
76
326
122
368
216
52
15
224
243
279
19
338
364
84
306
202
125
105
73
277
176
81
304
332
67
146
103
60
104
302
375
31
33
255
269
333
59
114
86
341
108
55
284
3
126
166
174
256
290
45
16
177
50
147
196
62
317
167
335
334
365
383
32
218
348
30
99
110
64
163
115
154
311
343
63
18
240
36
102
48
164
94
213
203
206
241
201
378
353
330
54
79
315
133
178
350
276
329
235
180
259
25
296
247
181
395
318
193
242
325
109
151
92
237
72
220
29
188
254
283
49
195
171
155
130
316
337
271
222
227
10
132
208
100
257
236
184
96
23
324
314
245
194
179
376
2
239
111
270
185
234
264
42
223
252
331
307
97
77
148
137
198
65
294
286
37
4
265
145
47
361
260
305
320
217
57
377
219
200
199
231
228
281
6
187
120
362
160
5
372
328
192
75
205
336
128
373
26
355
34
91
380
70
12
345
56
310
190
232
267
8
381
204
285
230
43
327
386
87
339
384
211
392
249
158
123
367
183
1
250
82
308
69
113
356
382
300
391
157
261
238
144
161
371
369
153
135
394
101
17
299
295
149
221
9
197
275
226
168
90
207
139
366
80
359
44
165
363
358
210
106
61
248
152
11
370
41
186
58
323
39
112
182
244
13
191
346
143
298
38
119
301
344
138
85
74
129
287
387
246
118
354
388
374
159
136
351
263
274
389
214

> <PUBCHEM_MMFF94_PARTIAL_CHARGES>
40
1 -0.38
10 -0.77
11 -0.7
12 -0.54
13 -0.77
14 -0.7
15 -0.77
16 -0.77
17 -0.7
18 0.05
19 -0.57
2 1.51
20 -0.53
21 -0.66
22 0.28
23 0.28
24 0.54
25 0.28
26 0.28
27 -0.07
28 0.04
29 0.14
3 1.51
30 0.68
31 0.44
38 0.4
39 0.4
4 1.51
40 0.15
41 0.4
42 0.06
43 0.5
44 0.5
45 0.5
46 0.5
5 -0.56
6 -0.68
7 -0.68
8 -0.55
9 -0.54

> <PUBCHEM_EFFECTIVE_ROTOR_COUNT>
9

> <PUBCHEM_PHARMACOPHORE_FEATURES>
20
1 1 acceptor
1 10 acceptor
1 11 acceptor
1 13 acceptor
1 14 acceptor
1 15 acceptor
1 16 acceptor
1 17 acceptor
1 20 donor
1 5 acceptor
1 6 acceptor
1 6 donor
1 7 acceptor
1 7 donor
3 18 19 28 cation
3 20 21 31 cation
4 4 15 16 17 anion
5 18 19 27 28 29 rings
5 5 22 23 24 25 rings
6 20 21 27 29 30 31 rings

> <PUBCHEM_HEAVY_ATOM_COUNT>
31

> <PUBCHEM_ATOM_DEF_STEREO_COUNT>
4

> <PUBCHEM_ATOM_UDEF_STEREO_COUNT>
0

> <PUBCHEM_BOND_DEF_STEREO_COUNT>
0

> <PUBCHEM_BOND_UDEF_STEREO_COUNT>
0

> <PUBCHEM_ISOTOPIC_ATOM_COUNT>
0

> <PUBCHEM_COMPONENT_COUNT>
1

> <PUBCHEM_CACTVS_TAUTO_COUNT>
3

> <PUBCHEM_CONFORMER_ID>
002E570E0000000E

> <PUBCHEM_MMFF94_ENERGY>
-2.6031

> <PUBCHEM_FEATURE_SELFOVERLAP>
101.678

> <PUBCHEM_SHAPE_FINGERPRINT>
11370993 70 17825397528992586160
12156800 1 13852561580570104426
12539773 59 18343026587853254961
12788726 201 18123172520677076148
13140716 1 18336815498423671525
133893 2 16530363197292146217
14787075 74 17198255569896676635
19930381 70 15961459843720901222
20600515 1 17258844269597937007
20691752 17 16971110151537546069
23419403 2 15022003294481278484
23559900 14 17546709917929057001
35225 105 17253492010344676842
3524813 1 17466790802060085303
5845 1 5504381639417524647
6287921 2 17758386762209267457

> <PUBCHEM_SHAPE_MULTIPOLES>
557.14
5.41
5.09
2.66
3.57
0.11
-1.66
-0.04
2.05
-2.92
-1.39
-0.35
-1.71
0.94

> <PUBCHEM_SHAPE_SELFOVERLAP>
1127.381

> <PUBCHEM_SHAPE_VOLUME>
328.4

> <PUBCHEM_COORDINATE_TYPE>
2
5
10

$$$$

