745105
  -OEChem-07051213053D

 32 33  0     0  0  0  0  0  0999 V2000
   -6.3565    0.4000    0.1119 O   0  0  0  0  0  0  0  0  0  0  0  0
    6.1809   -1.3632    0.3081 O   0  5  0  0  0  0  0  0  0  0  0  0
    6.4745    0.7034   -0.3719 O   0  0  0  0  0  0  0  0  0  0  0  0
    5.7259   -0.2424   -0.0260 N   0  3  0  0  0  0  0  0  0  0  0  0
    1.5604    0.3642    0.0143 C   0  0  0  0  0  0  0  0  0  0  0  0
   -2.2691   -0.1944    0.0233 C   0  0  0  0  0  0  0  0  0  0  0  0
    0.1212    0.5743    0.0256 C   0  0  0  0  0  0  0  0  0  0  0  0
   -0.8113   -0.4069   -0.0078 C   0  0  0  0  0  0  0  0  0  0  0  0
    2.0882   -0.8737    0.3812 C   0  0  0  0  0  0  0  0  0  0  0  0
    2.4128    1.4008   -0.3660 C   0  0  0  0  0  0  0  0  0  0  0  0
   -2.7697    1.0056    0.5012 C   0  0  0  0  0  0  0  0  0  0  0  0
   -3.1105   -1.1994   -0.4256 C   0  0  0  0  0  0  0  0  0  0  0  0
    4.3208   -0.0384   -0.0126 C   0  0  0  0  0  0  0  0  0  0  0  0
   -5.0102    0.2041    0.0825 C   0  0  0  0  0  0  0  0  0  0  0  0
    3.4685   -1.0750    0.3678 C   0  0  0  0  0  0  0  0  0  0  0  0
    3.7929    1.1994   -0.3796 C   0  0  0  0  0  0  0  0  0  0  0  0
   -4.1499    1.2062    0.5310 C   0  0  0  0  0  0  0  0  0  0  0  0
   -4.4905   -0.9986   -0.3958 C   0  0  0  0  0  0  0  0  0  0  0  0
   -7.1786   -0.6660   -0.3615 C   0  0  0  0  0  0  0  0  0  0  0  0
   -0.1785    1.6186    0.0445 H   0  0  0  0  0  0  0  0  0  0  0  0
   -0.5164   -1.4504   -0.0795 H   0  0  0  0  0  0  0  0  0  0  0  0
    1.4664   -1.7029    0.7054 H   0  0  0  0  0  0  0  0  0  0  0  0
    2.0198    2.3720   -0.6571 H   0  0  0  0  0  0  0  0  0  0  0  0
   -2.1399    1.8035    0.8814 H   0  0  0  0  0  0  0  0  0  0  0  0
   -2.7202   -2.1412   -0.8024 H   0  0  0  0  0  0  0  0  0  0  0  0
    3.8451   -2.0506    0.6645 H   0  0  0  0  0  0  0  0  0  0  0  0
    4.4264    2.0295   -0.6818 H   0  0  0  0  0  0  0  0  0  0  0  0
   -4.5497    2.1431    0.9095 H   0  0  0  0  0  0  0  0  0  0  0  0
   -5.1010   -1.8182   -0.7594 H   0  0  0  0  0  0  0  0  0  0  0  0
   -7.0034   -0.8680   -1.4237 H   0  0  0  0  0  0  0  0  0  0  0  0
   -8.2191   -0.3386   -0.2658 H   0  0  0  0  0  0  0  0  0  0  0  0
   -7.0679   -1.5640    0.2557 H   0  0  0  0  0  0  0  0  0  0  0  0
  1 14  1  0  0  0  0
  1 19  1  0  0  0  0
  2  4  1  0  0  0  0
  3  4  2  0  0  0  0
  4 13  1  0  0  0  0
  5  7  1  0  0  0  0
  5  9  2  0  0  0  0
  5 10  1  0  0  0  0
  6  8  1  0  0  0  0
  6 11  2  0  0  0  0
  6 12  1  0  0  0  0
  7  8  2  0  0  0  0
  7 20  1  0  0  0  0
  8 21  1  0  0  0  0
  9 15  1  0  0  0  0
  9 22  1  0  0  0  0
 10 16  2  0  0  0  0
 10 23  1  0  0  0  0
 11 17  1  0  0  0  0
 11 24  1  0  0  0  0
 12 18  2  0  0  0  0
 12 25  1  0  0  0  0
 13 15  2  0  0  0  0
 13 16  1  0  0  0  0
 14 17  2  0  0  0  0
 14 18  1  0  0  0  0
 15 26  1  0  0  0  0
 16 27  1  0  0  0  0
 17 28  1  0  0  0  0
 18 29  1  0  0  0  0
 19 30  1  0  0  0  0
 19 31  1  0  0  0  0
 19 32  1  0  0  0  0
M  CHG  2   2  -1   4   1
M  END
> <PUBCHEM_COMPOUND_CID>
745105

> <PUBCHEM_CONFORMER_RMSD>
0.6

> <PUBCHEM_CONFORMER_DIVERSEORDER>
2
1

> <PUBCHEM_MMFF94_PARTIAL_CHARGES>
29
1 -0.36
10 -0.15
11 -0.15
12 -0.15
13 0.13
14 0.08
15 -0.15
16 -0.15
17 -0.15
18 -0.15
19 0.28
2 -0.52
20 0.15
21 0.15
22 0.15
23 0.15
24 0.15
25 0.15
26 0.15
27 0.15
28 0.15
29 0.15
3 -0.52
4 0.91
5 0.03
6 0.03
7 -0.18
8 -0.18
9 -0.15

> <PUBCHEM_EFFECTIVE_ROTOR_COUNT>
4

> <PUBCHEM_PHARMACOPHORE_FEATURES>
6
1 1 acceptor
1 2 acceptor
1 2 anion
1 3 acceptor
6 5 9 10 13 15 16 rings
6 6 11 12 14 17 18 rings

> <PUBCHEM_HEAVY_ATOM_COUNT>
19

> <PUBCHEM_ATOM_DEF_STEREO_COUNT>
0

> <PUBCHEM_ATOM_UDEF_STEREO_COUNT>
0

> <PUBCHEM_BOND_DEF_STEREO_COUNT>
1

> <PUBCHEM_BOND_UDEF_STEREO_COUNT>
0

> <PUBCHEM_ISOTOPIC_ATOM_COUNT>
0

> <PUBCHEM_COMPONENT_COUNT>
1

> <PUBCHEM_CACTVS_TAUTO_COUNT>
1

> <PUBCHEM_CONFORMER_ID>
000B5E9100000002

> <PUBCHEM_MMFF94_ENERGY>
69.957

> <PUBCHEM_FEATURE_SELFOVERLAP>
30.528

> <PUBCHEM_SHAPE_FINGERPRINT>
10968037 39 18410573977278928327
11315181 36 18113897144133728761
11524674 6 15646773367069140535
12091667 2 18272368677382708473
12107183 9 17689434210166297017
12166972 35 18408885118117450560
12236239 1 18410292514469714280
12516196 113 17458064863059921080
13167823 11 18409731746528711775
13288520 33 18259704485205491517
13533116 47 18341899631358220403
14170010 4 18273496745921410300
14251764 18 18408321081779155625
14251764 46 16988844977339772986
15183329 4 18409443704773664006
17834072 33 18409449171945258924
17834076 25 18411136935120716203
18681886 176 18187651267243372840
19489759 90 17022619789018569515
200 152 18408041809946633672
20281389 69 18412546517633784120
20612939 158 18060412487442973668
20645477 70 18341332287695465738
21065198 48 18338234976567035425
21267235 1 18410287012748489923
21641784 216 17131538557744064292
2297311 6 17530677719444938713
23035841 295 18334013904062316379
23402539 116 18113341899277770397
23536379 177 18409166623189801176
23559900 14 18263089829393196545
29717793 49 18260263049454050044
300161 21 18411425002893312273
3004659 81 18412829079284355800
335352 9 18343298168232754238
34797466 226 16950557754106302776
3545911 37 18410011035530352203
4073 2 17988076674124159490
4214541 1 18409448098541246409
42788 4 18410573989446437937
4463277 17 18412262835470878412
5104073 3 18334856065417804275
542803 24 18410293605391413961
54446538 1 18410292514786621665
8209 1 18411700984575228844
9971528 1 18130508548558195324

> <PUBCHEM_SHAPE_MULTIPOLES>
368.42
17.65
1.33
0.69
2.07
0.04
0
-2.06
0.94
-0.33
-0.01
0.09
0.02
-0.97

> <PUBCHEM_SHAPE_SELFOVERLAP>
790.216

> <PUBCHEM_SHAPE_VOLUME>
205.4

> <PUBCHEM_COORDINATE_TYPE>
2
5
10

$$$$

