17396216
  -OEChem-06241222553D

 51 54  0     1  0  0  0  0  0999 V2000
    4.9032    1.7413   -0.7872 O   0  0  0  0  0  0  0  0  0  0  0  0
   -0.6420    1.8125   -1.7899 O   0  0  0  0  0  0  0  0  0  0  0  0
   -5.0400   -1.6378    0.7817 O   0  0  0  0  0  0  0  0  0  0  0  0
    0.1625    1.6318    0.4079 N   0  0  0  0  0  0  0  0  0  0  0  0
   -3.9915    0.4164    0.5156 N   0  0  0  0  0  0  0  0  0  0  0  0
   -2.8944    1.1435    0.1513 N   0  0  0  0  0  0  0  0  0  0  0  0
    2.5437    1.6178   -0.1201 C   0  0  2  0  0  0  0  0  0  0  0  0
    2.8389    0.5211    0.9059 C   0  0  0  0  0  0  0  0  0  0  0  0
    3.7916    2.4855   -0.2763 C   0  0  0  0  0  0  0  0  0  0  0  0
    1.3342    2.4476    0.2953 C   0  0  0  0  0  0  0  0  0  0  0  0
    4.1814   -0.1010    0.6434 C   0  0  0  0  0  0  0  0  0  0  0  0
    5.1275    0.5396   -0.1667 C   0  0  0  0  0  0  0  0  0  0  0  0
    4.5090   -1.3280    1.2354 C   0  0  0  0  0  0  0  0  0  0  0  0
    6.3662   -0.0588   -0.4118 C   0  0  0  0  0  0  0  0  0  0  0  0
   -0.7039    1.3981   -0.6433 C   0  0  0  0  0  0  0  0  0  0  0  0
   -1.8503    0.5205   -0.2865 C   0  0  0  0  0  0  0  0  0  0  0  0
    5.7515   -1.9177    0.9997 C   0  0  0  0  0  0  0  0  0  0  0  0
   -1.7534   -0.9304   -0.4363 C   0  0  0  0  0  0  0  0  0  0  0  0
    6.6777   -1.2852    0.1733 C   0  0  0  0  0  0  0  0  0  0  0  0
   -2.8667   -1.6731   -0.0601 C   0  0  0  0  0  0  0  0  0  0  0  0
   -5.1573    1.1360    1.0011 C   0  0  0  0  0  0  0  0  0  0  0  0
   -4.0608   -0.9731    0.4498 C   0  0  0  0  0  0  0  0  0  0  0  0
   -6.1175    1.5105   -0.1214 C   0  0  0  0  0  0  0  0  0  0  0  0
   -0.6168   -1.5680   -0.9390 C   0  0  0  0  0  0  0  0  0  0  0  0
   -2.8492   -3.0671   -0.1746 C   0  0  0  0  0  0  0  0  0  0  0  0
   -0.6000   -2.9589   -1.0527 C   0  0  0  0  0  0  0  0  0  0  0  0
   -1.7129   -3.7069   -0.6702 C   0  0  0  0  0  0  0  0  0  0  0  0
   -7.3308    2.2836    0.3756 C   0  0  0  0  0  0  0  0  0  0  0  0
    2.3405    1.1322   -1.0856 H   0  0  0  0  0  0  0  0  0  0  0  0
    2.8455    0.9348    1.9223 H   0  0  0  0  0  0  0  0  0  0  0  0
    2.0623   -0.2518    0.8607 H   0  0  0  0  0  0  0  0  0  0  0  0
    4.0840    2.9540    0.6724 H   0  0  0  0  0  0  0  0  0  0  0  0
    3.5987    3.2947   -0.9893 H   0  0  0  0  0  0  0  0  0  0  0  0
    1.1467    3.2378   -0.4406 H   0  0  0  0  0  0  0  0  0  0  0  0
    1.4972    2.9257    1.2675 H   0  0  0  0  0  0  0  0  0  0  0  0
   -0.0337    1.2048    1.3088 H   0  0  0  0  0  0  0  0  0  0  0  0
    3.7945   -1.8342    1.8797 H   0  0  0  0  0  0  0  0  0  0  0  0
    7.0960    0.4286   -1.0530 H   0  0  0  0  0  0  0  0  0  0  0  0
    5.9953   -2.8713    1.4587 H   0  0  0  0  0  0  0  0  0  0  0  0
    7.6431   -1.7464   -0.0135 H   0  0  0  0  0  0  0  0  0  0  0  0
   -5.6793    0.5243    1.7464 H   0  0  0  0  0  0  0  0  0  0  0  0
   -4.8072    2.0381    1.5176 H   0  0  0  0  0  0  0  0  0  0  0  0
   -6.4575    0.6042   -0.6369 H   0  0  0  0  0  0  0  0  0  0  0  0
   -5.5915    2.1146   -0.8706 H   0  0  0  0  0  0  0  0  0  0  0  0
    0.2625   -1.0089   -1.2444 H   0  0  0  0  0  0  0  0  0  0  0  0
   -3.7063   -3.6695    0.1133 H   0  0  0  0  0  0  0  0  0  0  0  0
    0.2824   -3.4599   -1.4404 H   0  0  0  0  0  0  0  0  0  0  0  0
   -1.6959   -4.7892   -0.7607 H   0  0  0  0  0  0  0  0  0  0  0  0
   -7.9911    2.5326   -0.4608 H   0  0  0  0  0  0  0  0  0  0  0  0
   -7.0273    3.2169    0.8603 H   0  0  0  0  0  0  0  0  0  0  0  0
   -7.9025    1.6912    1.0969 H   0  0  0  0  0  0  0  0  0  0  0  0
  1  9  1  0  0  0  0
  1 12  1  0  0  0  0
  2 15  2  0  0  0  0
  3 22  2  0  0  0  0
  4 10  1  0  0  0  0
  4 15  1  0  0  0  0
  4 36  1  0  0  0  0
  5  6  1  0  0  0  0
  5 21  1  0  0  0  0
  5 22  1  0  0  0  0
  6 16  2  0  0  0  0
  7  8  1  0  0  0  0
  7  9  1  0  0  0  0
  7 10  1  0  0  0  0
  7 29  1  0  0  0  0
  8 11  1  0  0  0  0
  8 30  1  0  0  0  0
  8 31  1  0  0  0  0
  9 32  1  0  0  0  0
  9 33  1  0  0  0  0
 10 34  1  0  0  0  0
 10 35  1  0  0  0  0
 11 12  1  0  0  0  0
 11 13  2  0  0  0  0
 12 14  2  0  0  0  0
 13 17  1  0  0  0  0
 13 37  1  0  0  0  0
 14 19  1  0  0  0  0
 14 38  1  0  0  0  0
 15 16  1  0  0  0  0
 16 18  1  0  0  0  0
 17 19  2  0  0  0  0
 17 39  1  0  0  0  0
 18 20  1  0  0  0  0
 18 24  2  0  0  0  0
 19 40  1  0  0  0  0
 20 22  1  0  0  0  0
 20 25  2  0  0  0  0
 21 23  1  0  0  0  0
 21 41  1  0  0  0  0
 21 42  1  0  0  0  0
 23 28  1  0  0  0  0
 23 43  1  0  0  0  0
 23 44  1  0  0  0  0
 24 26  1  0  0  0  0
 24 45  1  0  0  0  0
 25 27  1  0  0  0  0
 25 46  1  0  0  0  0
 26 27  2  0  0  0  0
 26 47  1  0  0  0  0
 27 48  1  0  0  0  0
 28 49  1  0  0  0  0
 28 50  1  0  0  0  0
 28 51  1  0  0  0  0
M  END
> <PUBCHEM_COMPOUND_CID>
17396216

> <PUBCHEM_CONFORMER_RMSD>
0.8

> <PUBCHEM_CONFORMER_DIVERSEORDER>
1
303
211
30
240
167
373
362
318
259
154
176
330
193
83
314
217
255
133
196
168
302
279
328
120
293
297
380
247
319
278
292
163
343
109
327
62
94
357
20
334
225
140
321
277
287
166
265
87
139
242
222
19
358
146
261
369
45
372
382
113
322
25
199
301
171
173
195
148
158
359
112
192
189
368
306
251
344
290
75
136
308
212
181
63
360
108
371
342
131
241
101
299
216
365
66
294
315
129
347
367
105
336
346
89
248
142
307
227
264
130
161
239
375
55
313
356
310
244
102
68
331
156
180
296
285
153
257
50
224
121
250
262
298
350
137
223
58
194
90
266
29
311
86
253
107
305
282
31
160
33
164
82
143
237
260
126
349
103
238
198
178
41
35
353
275
335
383
147
337
252
201
355
284
16
221
152
12
208
245
207
219
377
274
190
348
97
325
218
204
370
37
4
232
85
213
64
88
385
205
60
236
72
210
51
228
48
93
214
203
246
364
182
258
42
384
304
52
115
127
172
23
234
206
187
231
3
99
78
169
34
283
326
134
345
339
157
177
267
271
125
381
200
226
312
220
191
254
28
27
124
175
230
21
333
186
46
272
229
197
184
8
363
273
376
378
61
263
280
116
289
159
91
150
174
149
10
338
13
92
323
123
117
320
36
162
96
286
98
270
9
84
106
17
361
7
276
233
324
111
243
155
47
26
269
128
291
317
135
114
39
119
104
53
354
74
70
15
352
144
18
341
209
38
165
170
69
138
309
2
188
316
80
22
202
95
76
81
141
49
32
6
67
332
215
235
366
183
5
288
185
59
374
256
132
57
379
54
77
56
65
300
351
40
118
44
249
179
329
14
145
100
24
73
43
340
122
110
71
11
151
281
295
268
79

> <PUBCHEM_MMFF94_PARTIAL_CHARGES>
34
1 -0.36
10 0.3
11 -0.14
12 0.08
13 -0.15
14 -0.15
15 0.63
16 0.36
17 -0.15
18 0.09
19 -0.15
2 -0.57
20 0.09
21 0.3
22 0.54
24 -0.15
25 -0.15
26 -0.15
27 -0.15
3 -0.57
36 0.37
37 0.15
38 0.15
39 0.15
4 -0.73
40 0.15
45 0.15
46 0.15
47 0.15
48 0.15
5 -0.3
6 -0.51
8 0.14
9 0.28

> <PUBCHEM_EFFECTIVE_ROTOR_COUNT>
6.8

> <PUBCHEM_PHARMACOPHORE_FEATURES>
10
1 1 acceptor
1 2 acceptor
1 28 hydrophobe
1 3 acceptor
1 4 donor
1 6 acceptor
6 1 7 8 9 11 12 rings
6 11 12 13 14 17 19 rings
6 18 20 24 25 26 27 rings
6 5 6 16 18 20 22 rings

> <PUBCHEM_HEAVY_ATOM_COUNT>
28

> <PUBCHEM_ATOM_DEF_STEREO_COUNT>
0

> <PUBCHEM_ATOM_UDEF_STEREO_COUNT>
1

> <PUBCHEM_BOND_DEF_STEREO_COUNT>
0

> <PUBCHEM_BOND_UDEF_STEREO_COUNT>
0

> <PUBCHEM_ISOTOPIC_ATOM_COUNT>
0

> <PUBCHEM_COMPONENT_COUNT>
1

> <PUBCHEM_CACTVS_TAUTO_COUNT>
2

> <PUBCHEM_CONFORMER_ID>
010971F800000001

> <PUBCHEM_MMFF94_ENERGY>
66.4346

> <PUBCHEM_FEATURE_SELFOVERLAP>
50.798

> <PUBCHEM_SHAPE_FINGERPRINT>
11135609 12 18261107518088579718
11135926 11 18269565944997913284
11524674 6 17967819366203830047
11796584 16 18261104146058931540
12107183 9 18410854390887423569
12422481 6 18412823594737745215
12633257 1 18334576837125843654
12788726 201 17749377179195391528
13726171 33 17827610614409603628
14117953 113 18263361546029851556
14420673 8 18409725171155658954
14617045 38 18341048609980501698
14866123 147 18335985277156667447
15064986 96 18337377323433550451
15250474 111 18266184924808560526
15274700 259 17701835491080789293
15320294 125 18270695284968084586
15361156 5 17917422091114239116
15537594 2 18202847660611683930
16110190 28 18409733928888835546
1813 80 17346324739251037468
21403212 168 18262522614758568665
21703447 108 17103137892697843937
22950370 63 18342738481868908696
23516275 137 18125697201660433218
235170 7 14692307144133949050
23522609 53 18127098997234041556
23559900 14 17969198110782939700
23569917 315 18408321074002488223
24893992 56 17967816055813115249
3004659 81 18342457045926653488
3117164 225 18336547122907348257
335352 9 18409168822297667293
338550 245 18342173337403418734
3680242 22 18410849993194359666
4017518 198 17748824142089871302
4073 2 18127407852842970408
4093350 32 16516239781850312055
44880168 125 17968668236958584518
463206 1 18270963441161013674
5104073 3 18335707087961132088
5385378 56 18190167074908314569
54039377 194 18129382778117667082
559249 180 18410012126478497259
6371380 46 18187652426573878273
7226269 152 17603299362784463865

> <PUBCHEM_SHAPE_MULTIPOLES>
543.68
16.81
3.7
1.06
3.32
2.11
0.06
-3.67
-3.89
-2.24
0.68
0.24
0.07
-1.4

> <PUBCHEM_SHAPE_SELFOVERLAP>
1178.844

> <PUBCHEM_SHAPE_VOLUME>
296

> <PUBCHEM_COORDINATE_TYPE>
2
5
10

$$$$

