7571
  -OEChem-06261202103D

 32 33  0     0  0  0  0  0  0999 V2000
   -5.0908   -0.7640    0.1220 O   0  0  0  0  0  0  0  0  0  0  0  0
    5.0910   -0.7640   -0.1211 O   0  0  0  0  0  0  0  0  0  0  0  0
    0.0001    1.4709   -0.0005 N   0  0  0  0  0  0  0  0  0  0  0  0
   -1.2911    0.9043    0.0297 C   0  0  0  0  0  0  0  0  0  0  0  0
    1.2896    0.9051   -0.0302 C   0  0  0  0  0  0  0  0  0  0  0  0
   -2.3354    1.5821    0.6588 C   0  0  0  0  0  0  0  0  0  0  0  0
    2.3361    1.5826   -0.6581 C   0  0  0  0  0  0  0  0  0  0  0  0
   -1.5237   -0.3342   -0.5682 C   0  0  0  0  0  0  0  0  0  0  0  0
    1.5235   -0.3347    0.5669 C   0  0  0  0  0  0  0  0  0  0  0  0
   -3.8447   -0.2173    0.0924 C   0  0  0  0  0  0  0  0  0  0  0  0
    3.8450   -0.2173   -0.0920 C   0  0  0  0  0  0  0  0  0  0  0  0
   -3.6122    1.0213    0.6903 C   0  0  0  0  0  0  0  0  0  0  0  0
    3.6129    1.0218   -0.6891 C   0  0  0  0  0  0  0  0  0  0  0  0
   -2.8006   -0.8950   -0.5370 C   0  0  0  0  0  0  0  0  0  0  0  0
    2.8004   -0.8954    0.5361 C   0  0  0  0  0  0  0  0  0  0  0  0
   -5.2583   -2.0329   -0.5086 C   0  0  0  0  0  0  0  0  0  0  0  0
    5.2582   -2.0333    0.5086 C   0  0  0  0  0  0  0  0  0  0  0  0
   -0.0005    2.4871   -0.0006 H   0  0  0  0  0  0  0  0  0  0  0  0
   -2.1664    2.5474    1.1292 H   0  0  0  0  0  0  0  0  0  0  0  0
    2.1677    2.5483   -1.1281 H   0  0  0  0  0  0  0  0  0  0  0  0
   -0.7340   -0.8735   -1.0843 H   0  0  0  0  0  0  0  0  0  0  0  0
    0.7336   -0.8746    1.0821 H   0  0  0  0  0  0  0  0  0  0  0  0
   -4.4217    1.5539    1.1820 H   0  0  0  0  0  0  0  0  0  0  0  0
    4.4228    1.5547   -1.1799 H   0  0  0  0  0  0  0  0  0  0  0  0
   -2.9126   -1.8571   -1.0251 H   0  0  0  0  0  0  0  0  0  0  0  0
    2.9120   -1.8579    1.0237 H   0  0  0  0  0  0  0  0  0  0  0  0
   -4.6589   -2.8079   -0.0190 H   0  0  0  0  0  0  0  0  0  0  0  0
   -5.0642   -1.9759   -1.5850 H   0  0  0  0  0  0  0  0  0  0  0  0
   -6.3087   -2.3175   -0.3880 H   0  0  0  0  0  0  0  0  0  0  0  0
    6.3086   -2.3179    0.3885 H   0  0  0  0  0  0  0  0  0  0  0  0
    4.6591   -2.8081    0.0181 H   0  0  0  0  0  0  0  0  0  0  0  0
    5.0633   -1.9772    1.5849 H   0  0  0  0  0  0  0  0  0  0  0  0
  1 10  1  0  0  0  0
  1 16  1  0  0  0  0
  2 11  1  0  0  0  0
  2 17  1  0  0  0  0
  3  4  1  0  0  0  0
  3  5  1  0  0  0  0
  3 18  1  0  0  0  0
  4  6  2  0  0  0  0
  4  8  1  0  0  0  0
  5  7  2  0  0  0  0
  5  9  1  0  0  0  0
  6 12  1  0  0  0  0
  6 19  1  0  0  0  0
  7 13  1  0  0  0  0
  7 20  1  0  0  0  0
  8 14  2  0  0  0  0
  8 21  1  0  0  0  0
  9 15  2  0  0  0  0
  9 22  1  0  0  0  0
 10 12  2  0  0  0  0
 10 14  1  0  0  0  0
 11 13  2  0  0  0  0
 11 15  1  0  0  0  0
 12 23  1  0  0  0  0
 13 24  1  0  0  0  0
 14 25  1  0  0  0  0
 15 26  1  0  0  0  0
 16 27  1  0  0  0  0
 16 28  1  0  0  0  0
 16 29  1  0  0  0  0
 17 30  1  0  0  0  0
 17 31  1  0  0  0  0
 17 32  1  0  0  0  0
M  END
> <PUBCHEM_COMPOUND_CID>
7571

> <PUBCHEM_CONFORMER_RMSD>
0.6

> <PUBCHEM_CONFORMER_DIVERSEORDER>
1
6
9
3
8
7
4
5
2

> <PUBCHEM_MMFF94_PARTIAL_CHARGES>
26
1 -0.36
10 0.08
11 0.08
12 -0.15
13 -0.15
14 -0.15
15 -0.15
16 0.28
17 0.28
18 0.4
19 0.15
2 -0.36
20 0.15
21 0.15
22 0.15
23 0.15
24 0.15
25 0.15
26 0.15
3 -0.6
4 0.1
5 0.1
6 -0.15
7 -0.15
8 -0.15
9 -0.15

> <PUBCHEM_EFFECTIVE_ROTOR_COUNT>
4

> <PUBCHEM_PHARMACOPHORE_FEATURES>
6
1 1 acceptor
1 2 acceptor
1 3 cation
1 3 donor
6 4 6 8 10 12 14 rings
6 5 7 9 11 13 15 rings

> <PUBCHEM_HEAVY_ATOM_COUNT>
17

> <PUBCHEM_ATOM_DEF_STEREO_COUNT>
0

> <PUBCHEM_ATOM_UDEF_STEREO_COUNT>
0

> <PUBCHEM_BOND_DEF_STEREO_COUNT>
0

> <PUBCHEM_BOND_UDEF_STEREO_COUNT>
0

> <PUBCHEM_ISOTOPIC_ATOM_COUNT>
0

> <PUBCHEM_COMPONENT_COUNT>
1

> <PUBCHEM_CACTVS_TAUTO_COUNT>
1

> <PUBCHEM_CONFORMER_ID>
00001D9300000001

> <PUBCHEM_MMFF94_ENERGY>
79.0726

> <PUBCHEM_FEATURE_SELFOVERLAP>
30.446

> <PUBCHEM_SHAPE_FINGERPRINT>
10366900 7 16200433584784912176
10912923 1 18334284357979021712
11046707 91 18335422382799885497
11806522 49 18342738537903852704
12107183 9 17832983128231629865
12236239 1 18410853265405375657
12633257 1 15647344000033387395
12839892 36 17749108894031474959
12916754 54 18341896285826512349
13167823 11 18410573985151464128
13288520 33 18408321115917334965
13533116 47 18410575041718687312
13551218 46 18260264195915523055
13675066 3 17313105293335811420
13760787 5 18060409214245221205
1420 369 18408885161472766006
14576447 43 18343865528721858514
15188451 53 16226340205609368247
15196674 1 18410855464423259013
17804303 29 18040152903395607921
17834072 33 18411979135315947701
1813 80 18130496548540298862
18186145 218 16845570911501718944
193927 3 18410844465012247810
19422 9 18410569587105238853
19784866 240 18342455958471687671
200 152 18413389826130524729
20028762 73 18335144184968475382
20281475 54 18410856559645291684
20645477 70 18131354098684797334
21065198 48 18408317783033652568
21267235 1 18410566288570323046
221490 88 18129932365678036042
22646028 1 18410573985151672005
22646028 28 18410573985151451139
2297311 6 17604134991674398460
23402539 116 18411140272299976676
23559900 14 18336838481163184209
2871803 45 17846223249637248539
29717793 49 18409730668533982549
3004659 81 18201725050016780491
3286 77 18333734598023160128
351380 3 18410858758663538823
42 15 18259983786000478481
4214541 1 18410292549178002033
465052 167 18262231093980278279
474 4 17984697814636523540
5104073 3 18186796959493493953
5281201 14 17275105037587466772
542803 24 9511462221058126081
559249 180 18339646758134604259
573450 72 18261391178280354409
76465 3 18410858758663168548
77779 3 18410853261110505805
9981440 41 17404020327977199168

> <PUBCHEM_SHAPE_MULTIPOLES>
333.13
11.88
1.92
0.82
0
0.33
0
7.21
0
0
0
0
-0.04
-1.43

> <PUBCHEM_SHAPE_SELFOVERLAP>
707.318

> <PUBCHEM_SHAPE_VOLUME>
186.7

> <PUBCHEM_COORDINATE_TYPE>
2
5
10

$$$$

