16061239
  -OEChem-07051213083D

100101  0     1  0  0  0  0  0999 V2000
  -14.8659   -0.1362    0.6677 O   0  0  0  0  0  0  0  0  0  0  0  0
   14.8558    0.6548    0.6783 O   0  0  0  0  0  0  0  0  0  0  0  0
  -13.4944    2.5306   -1.3986 O   0  0  0  0  0  0  0  0  0  0  0  0
   13.7570   -2.0332   -1.5192 O   0  0  0  0  0  0  0  0  0  0  0  0
  -12.8833   -0.4209   -0.7859 C   0  0  0  0  0  0  0  0  0  0  0  0
   12.8496    0.8067   -0.7629 C   0  0  0  0  0  0  0  0  0  0  0  0
  -14.1993    0.3772   -0.4910 C   0  0  2  0  0  0  0  0  0  0  0  0
   14.2412    0.1337   -0.5055 C   0  0  2  0  0  0  0  0  0  0  0  0
  -13.9659    1.8634   -0.2350 C   0  0  1  0  0  0  0  0  0  0  0  0
   14.1617   -1.3793   -0.3235 C   0  0  1  0  0  0  0  0  0  0  0  0
  -11.7272    0.0144    0.1496 C   0  0  0  0  0  0  0  0  0  0  0  0
   11.7471    0.2102    0.1479 C   0  0  0  0  0  0  0  0  0  0  0  0
  -12.9748    2.0779    0.9047 C   0  0  0  0  0  0  0  0  0  0  0  0
   13.2015   -1.7498    0.8026 C   0  0  0  0  0  0  0  0  0  0  0  0
  -11.7921    1.1278    0.9219 C   0  0  0  0  0  0  0  0  0  0  0  0
   11.9279   -0.9275    0.8646 C   0  0  0  0  0  0  0  0  0  0  0  0
  -12.4560   -0.1791   -2.2559 C   0  0  0  0  0  0  0  0  0  0  0  0
  -13.1981   -1.9341   -0.6356 C   0  0  0  0  0  0  0  0  0  0  0  0
   12.4443    0.5952   -2.2438 C   0  0  0  0  0  0  0  0  0  0  0  0
   13.0087    2.3349   -0.5377 C   0  0  0  0  0  0  0  0  0  0  0  0
  -10.5457   -0.8344    0.1236 C   0  0  0  0  0  0  0  0  0  0  0  0
   10.4850    0.9339    0.1618 C   0  0  0  0  0  0  0  0  0  0  0  0
  -10.7274    1.5876    1.8931 C   0  0  0  0  0  0  0  0  0  0  0  0
   10.9190   -1.5409    1.8100 C   0  0  0  0  0  0  0  0  0  0  0  0
   -9.2942   -0.3486    0.1350 C   0  0  0  0  0  0  0  0  0  0  0  0
    9.2884    0.3248    0.1471 C   0  0  0  0  0  0  0  0  0  0  0  0
   -8.0594   -1.1327    0.1047 C   0  0  0  0  0  0  0  0  0  0  0  0
    7.9819    0.9833    0.1632 C   0  0  0  0  0  0  0  0  0  0  0  0
   -8.1846   -2.6351    0.0201 C   0  0  0  0  0  0  0  0  0  0  0  0
    7.9650    2.4940    0.2089 C   0  0  0  0  0  0  0  0  0  0  0  0
   -6.8257   -0.5838    0.1183 C   0  0  0  0  0  0  0  0  0  0  0  0
    6.8015    0.3268    0.1473 C   0  0  0  0  0  0  0  0  0  0  0  0
   -5.5373   -1.2476    0.0917 C   0  0  0  0  0  0  0  0  0  0  0  0
    5.4593    0.8800    0.1610 C   0  0  0  0  0  0  0  0  0  0  0  0
   -4.3572   -0.6058    0.1085 C   0  0  0  0  0  0  0  0  0  0  0  0
    4.3598    0.1065    0.1422 C   0  0  0  0  0  0  0  0  0  0  0  0
   -3.0239   -1.2160    0.1016 C   0  0  0  0  0  0  0  0  0  0  0  0
    2.9720    0.5699    0.1502 C   0  0  0  0  0  0  0  0  0  0  0  0
   -2.9538   -2.7215    0.0507 C   0  0  0  0  0  0  0  0  0  0  0  0
    2.7269    2.0579    0.2162 C   0  0  0  0  0  0  0  0  0  0  0  0
   -1.9503   -0.3969    0.1214 C   0  0  0  0  0  0  0  0  0  0  0  0
    1.9108   -0.2649    0.1302 C   0  0  0  0  0  0  0  0  0  0  0  0
   -0.5488   -0.7712    0.1153 C   0  0  0  0  0  0  0  0  0  0  0  0
    0.5008    0.0681    0.1354 C   0  0  0  0  0  0  0  0  0  0  0  0
  -14.8876    0.2528   -1.3366 H   0  0  0  0  0  0  0  0  0  0  0  0
   14.9103    0.3693   -1.3427 H   0  0  0  0  0  0  0  0  0  0  0  0
  -14.9140    2.3429    0.0383 H   0  0  0  0  0  0  0  0  0  0  0  0
   15.1549   -1.7723   -0.0725 H   0  0  0  0  0  0  0  0  0  0  0  0
  -12.5991    3.1084    0.8642 H   0  0  0  0  0  0  0  0  0  0  0  0
  -13.5024    1.9625    1.8606 H   0  0  0  0  0  0  0  0  0  0  0  0
   12.9328   -2.8100    0.7107 H   0  0  0  0  0  0  0  0  0  0  0  0
   13.7177   -1.6283    1.7640 H   0  0  0  0  0  0  0  0  0  0  0  0
  -13.2927   -0.3446   -2.9439 H   0  0  0  0  0  0  0  0  0  0  0  0
  -12.0772    0.8341   -2.4194 H   0  0  0  0  0  0  0  0  0  0  0  0
  -11.6536   -0.8641   -2.5561 H   0  0  0  0  0  0  0  0  0  0  0  0
  -14.1268   -2.1891   -1.1606 H   0  0  0  0  0  0  0  0  0  0  0  0
  -12.4167   -2.5689   -1.0680 H   0  0  0  0  0  0  0  0  0  0  0  0
  -13.3197   -2.2198    0.4155 H   0  0  0  0  0  0  0  0  0  0  0  0
   13.2575    0.8789   -2.9214 H   0  0  0  0  0  0  0  0  0  0  0  0
   12.1705   -0.4423   -2.4576 H   0  0  0  0  0  0  0  0  0  0  0  0
   11.5752    1.2085   -2.5113 H   0  0  0  0  0  0  0  0  0  0  0  0
   13.9048    2.7089   -1.0476 H   0  0  0  0  0  0  0  0  0  0  0  0
   12.1654    2.9071   -0.9398 H   0  0  0  0  0  0  0  0  0  0  0  0
   13.1039    2.5795    0.5265 H   0  0  0  0  0  0  0  0  0  0  0  0
  -10.7135   -1.9048    0.1404 H   0  0  0  0  0  0  0  0  0  0  0  0
   10.5449    2.0135    0.2329 H   0  0  0  0  0  0  0  0  0  0  0  0
  -10.0883    2.3488    1.4351 H   0  0  0  0  0  0  0  0  0  0  0  0
  -10.1163    0.7742    2.2920 H   0  0  0  0  0  0  0  0  0  0  0  0
  -11.1981    2.0415    2.7738 H   0  0  0  0  0  0  0  0  0  0  0  0
   10.3591   -2.3395    1.3135 H   0  0  0  0  0  0  0  0  0  0  0  0
   10.2295   -0.8147    2.2474 H   0  0  0  0  0  0  0  0  0  0  0  0
   11.4363   -1.9876    2.6681 H   0  0  0  0  0  0  0  0  0  0  0  0
  -15.7139    0.3320    0.7520 H   0  0  0  0  0  0  0  0  0  0  0  0
   15.7476    0.2722    0.7408 H   0  0  0  0  0  0  0  0  0  0  0  0
  -13.4218    3.4774   -1.1898 H   0  0  0  0  0  0  0  0  0  0  0  0
   13.7822   -2.9917   -1.3575 H   0  0  0  0  0  0  0  0  0  0  0  0
   -9.1264    0.7250    0.0871 H   0  0  0  0  0  0  0  0  0  0  0  0
    9.2277   -0.7560    0.0422 H   0  0  0  0  0  0  0  0  0  0  0  0
   -8.6607   -3.0219    0.9288 H   0  0  0  0  0  0  0  0  0  0  0  0
   -7.2593   -3.1952   -0.1075 H   0  0  0  0  0  0  0  0  0  0  0  0
   -8.8089   -2.9122   -0.8383 H   0  0  0  0  0  0  0  0  0  0  0  0
    8.4963    2.8999   -0.6605 H   0  0  0  0  0  0  0  0  0  0  0  0
    8.4717    2.8460    1.1156 H   0  0  0  0  0  0  0  0  0  0  0  0
    6.9881    2.9746    0.2079 H   0  0  0  0  0  0  0  0  0  0  0  0
   -6.7642    0.5044    0.1634 H   0  0  0  0  0  0  0  0  0  0  0  0
    6.8391   -0.7630    0.1191 H   0  0  0  0  0  0  0  0  0  0  0  0
   -5.5264   -2.3290    0.0752 H   0  0  0  0  0  0  0  0  0  0  0  0
    5.3381    1.9536    0.1831 H   0  0  0  0  0  0  0  0  0  0  0  0
   -4.3743    0.4839    0.1340 H   0  0  0  0  0  0  0  0  0  0  0  0
    4.4815   -0.9760    0.1161 H   0  0  0  0  0  0  0  0  0  0  0  0
   -3.4507   -3.0992   -0.8501 H   0  0  0  0  0  0  0  0  0  0  0  0
   -1.9367   -3.1174    0.0309 H   0  0  0  0  0  0  0  0  0  0  0  0
   -3.4401   -3.1577    0.9306 H   0  0  0  0  0  0  0  0  0  0  0  0
    3.2281    2.4813    1.0953 H   0  0  0  0  0  0  0  0  0  0  0  0
    1.6907    2.3836    0.2915 H   0  0  0  0  0  0  0  0  0  0  0  0
    3.1362    2.5431   -0.6779 H   0  0  0  0  0  0  0  0  0  0  0  0
   -2.1156    0.6806    0.1489 H   0  0  0  0  0  0  0  0  0  0  0  0
    2.1097   -1.3366    0.0980 H   0  0  0  0  0  0  0  0  0  0  0  0
   -0.3230   -1.8334    0.0966 H   0  0  0  0  0  0  0  0  0  0  0  0
    0.2402    1.1209    0.1492 H   0  0  0  0  0  0  0  0  0  0  0  0
  1  7  1  0  0  0  0
  1 73  1  0  0  0  0
  2  8  1  0  0  0  0
  2 74  1  0  0  0  0
  3  9  1  0  0  0  0
  3 75  1  0  0  0  0
  4 10  1  0  0  0  0
  4 76  1  0  0  0  0
  5  7  1  0  0  0  0
  5 11  1  0  0  0  0
  5 17  1  0  0  0  0
  5 18  1  0  0  0  0
  6  8  1  0  0  0  0
  6 12  1  0  0  0  0
  6 19  1  0  0  0  0
  6 20  1  0  0  0  0
  7  9  1  0  0  0  0
  7 45  1  0  0  0  0
  8 10  1  0  0  0  0
  8 46  1  0  0  0  0
  9 13  1  0  0  0  0
  9 47  1  0  0  0  0
 10 14  1  0  0  0  0
 10 48  1  0  0  0  0
 11 15  2  0  0  0  0
 11 21  1  0  0  0  0
 12 16  2  0  0  0  0
 12 22  1  0  0  0  0
 13 15  1  0  0  0  0
 13 49  1  0  0  0  0
 13 50  1  0  0  0  0
 14 16  1  0  0  0  0
 14 51  1  0  0  0  0
 14 52  1  0  0  0  0
 15 23  1  0  0  0  0
 16 24  1  0  0  0  0
 17 53  1  0  0  0  0
 17 54  1  0  0  0  0
 17 55  1  0  0  0  0
 18 56  1  0  0  0  0
 18 57  1  0  0  0  0
 18 58  1  0  0  0  0
 19 59  1  0  0  0  0
 19 60  1  0  0  0  0
 19 61  1  0  0  0  0
 20 62  1  0  0  0  0
 20 63  1  0  0  0  0
 20 64  1  0  0  0  0
 21 25  2  0  0  0  0
 21 65  1  0  0  0  0
 22 26  2  0  0  0  0
 22 66  1  0  0  0  0
 23 67  1  0  0  0  0
 23 68  1  0  0  0  0
 23 69  1  0  0  0  0
 24 70  1  0  0  0  0
 24 71  1  0  0  0  0
 24 72  1  0  0  0  0
 25 27  1  0  0  0  0
 25 77  1  0  0  0  0
 26 28  1  0  0  0  0
 26 78  1  0  0  0  0
 27 29  1  0  0  0  0
 27 31  2  0  0  0  0
 28 30  1  0  0  0  0
 28 32  2  0  0  0  0
 29 79  1  0  0  0  0
 29 80  1  0  0  0  0
 29 81  1  0  0  0  0
 30 82  1  0  0  0  0
 30 83  1  0  0  0  0
 30 84  1  0  0  0  0
 31 33  1  0  0  0  0
 31 85  1  0  0  0  0
 32 34  1  0  0  0  0
 32 86  1  0  0  0  0
 33 35  2  0  0  0  0
 33 87  1  0  0  0  0
 34 36  2  0  0  0  0
 34 88  1  0  0  0  0
 35 37  1  0  0  0  0
 35 89  1  0  0  0  0
 36 38  1  0  0  0  0
 36 90  1  0  0  0  0
 37 39  1  0  0  0  0
 37 41  2  0  0  0  0
 38 40  1  0  0  0  0
 38 42  2  0  0  0  0
 39 91  1  0  0  0  0
 39 92  1  0  0  0  0
 39 93  1  0  0  0  0
 40 94  1  0  0  0  0
 40 95  1  0  0  0  0
 40 96  1  0  0  0  0
 41 43  1  0  0  0  0
 41 97  1  0  0  0  0
 42 44  1  0  0  0  0
 42 98  1  0  0  0  0
 43 44  2  0  0  0  0
 43 99  1  0  0  0  0
 44100  1  0  0  0  0
M  END
> <PUBCHEM_COMPOUND_CID>
16061239

> <PUBCHEM_CONFORMER_RMSD>
1.2

> <PUBCHEM_CONFORMER_DIVERSEORDER>
1
52
69
63
58
3
67
50
25
48
71
70
36
9
45
2
37
18
11
26
60
57
24
46
39
29
4
35
44
13
49
56
33
15
17
54
41
20
55
40
8
53
65
19
38
6
59
43
28
61
10
7
42
12
14
64
31
5
23
66
62
27
32
51
21
22
34
16
30
68
47

> <PUBCHEM_MMFF94_PARTIAL_CHARGES>
58
1 -0.68
10 0.28
100 0.15
11 -0.14
12 -0.14
13 0.14
14 0.14
15 -0.28
16 -0.28
2 -0.68
21 -0.15
22 -0.15
23 0.14
24 0.14
25 -0.15
26 -0.15
27 -0.14
28 -0.14
29 0.14
3 -0.68
30 0.14
31 -0.15
32 -0.15
33 -0.15
34 -0.15
35 -0.15
36 -0.15
37 -0.14
38 -0.14
39 0.14
4 -0.68
40 0.14
41 -0.15
42 -0.15
43 -0.15
44 -0.15
5 0.14
6 0.14
65 0.15
66 0.15
7 0.28
73 0.4
74 0.4
75 0.4
76 0.4
77 0.15
78 0.15
8 0.28
85 0.15
86 0.15
87 0.15
88 0.15
89 0.15
9 0.28
90 0.15
97 0.15
98 0.15
99 0.15

> <PUBCHEM_EFFECTIVE_ROTOR_COUNT>
11.6

> <PUBCHEM_PHARMACOPHORE_FEATURES>
16
1 1 acceptor
1 1 donor
1 2 acceptor
1 2 donor
1 29 hydrophobe
1 3 acceptor
1 3 donor
1 30 hydrophobe
1 39 hydrophobe
1 4 acceptor
1 4 donor
1 40 hydrophobe
3 5 17 18 hydrophobe
3 6 19 20 hydrophobe
6 5 7 9 11 13 15 rings
6 6 8 10 12 14 16 rings

> <PUBCHEM_HEAVY_ATOM_COUNT>
44

> <PUBCHEM_ATOM_DEF_STEREO_COUNT>
4

> <PUBCHEM_ATOM_UDEF_STEREO_COUNT>
0

> <PUBCHEM_BOND_DEF_STEREO_COUNT>
9

> <PUBCHEM_BOND_UDEF_STEREO_COUNT>
0

> <PUBCHEM_ISOTOPIC_ATOM_COUNT>
0

> <PUBCHEM_COMPONENT_COUNT>
1

> <PUBCHEM_CACTVS_TAUTO_COUNT>
1

> <PUBCHEM_CONFORMER_ID>
00F5133700000001

> <PUBCHEM_MMFF94_ENERGY>
130.9655

> <PUBCHEM_FEATURE_SELFOVERLAP>
81.19

> <PUBCHEM_SHAPE_FINGERPRINT>
12013929 2 18187363211944378162
12559415 86 18060702814320504956
12559415 90 18113618975649151760
14251920 1 18410575080368118122
14251920 17 9511463321287289162
15061470 23 18408604734262399401
15343295 29 18410015447495727205
16728433 110 18340768157601867272
21057603 130 8214140747497689937
232437 2 18411419489342415794
3092352 35 18335422332283989159
3991529 128 16773798091259851387
9663363 56 16153426142634917250

> <PUBCHEM_SHAPE_MULTIPOLES>
882.02
102.94
2.31
1.23
7.03
0.09
-0.31
13.24
-12.93
-1.47
0.05
-0.06
0.1
-2.15

> <PUBCHEM_SHAPE_SELFOVERLAP>
1796.831

> <PUBCHEM_SHAPE_VOLUME>
508

> <PUBCHEM_COORDINATE_TYPE>
2
5
10

$$$$

