441275
  -OEChem-07051212533D

 54 55  0     1  0  0  0  0  0999 V2000
    0.3358   -1.1748    1.0043 O   0  0  0  0  0  0  0  0  0  0  0  0
    1.2403   -2.4802   -0.6694 O   0  0  0  0  0  0  0  0  0  0  0  0
   -0.7711    3.6342    0.8020 N   0  0  0  0  0  0  0  0  0  0  0  0
    0.3978   -0.0283    0.1422 C   0  0  2  0  0  0  0  0  0  0  0  0
   -0.1762    1.1975    0.9636 C   0  0  2  0  0  0  0  0  0  0  0  0
   -0.4694   -0.3365   -1.1203 C   0  0  0  0  0  0  0  0  0  0  0  0
   -0.1745    2.4946    0.1080 C   0  0  0  0  0  0  0  0  0  0  0  0
    1.8558    0.2333   -0.2720 C   0  0  0  0  0  0  0  0  0  0  0  0
    0.5812    1.4404    2.2843 C   0  0  0  0  0  0  0  0  0  0  0  0
   -1.9367   -0.6152   -0.8554 C   0  0  0  0  0  0  0  0  0  0  0  0
    2.8523   -0.0891    0.6145 C   0  0  0  0  0  0  0  0  0  0  0  0
    2.0932    0.7778   -1.5090 C   0  0  0  0  0  0  0  0  0  0  0  0
    0.7939   -2.3392    0.4608 C   0  0  0  0  0  0  0  0  0  0  0  0
   -2.1825    3.3777    1.0881 C   0  0  0  0  0  0  0  0  0  0  0  0
   -0.6249    4.8525    0.0058 C   0  0  0  0  0  0  0  0  0  0  0  0
   -2.3417   -1.9156   -0.6185 C   0  0  0  0  0  0  0  0  0  0  0  0
   -2.8321    0.4381   -0.8569 C   0  0  0  0  0  0  0  0  0  0  0  0
    4.1744    0.1487    0.2389 C   0  0  0  0  0  0  0  0  0  0  0  0
    3.4153    1.0153   -1.8848 C   0  0  0  0  0  0  0  0  0  0  0  0
    0.6614   -3.4385    1.4885 C   0  0  0  0  0  0  0  0  0  0  0  0
    4.4558    0.7009   -1.0109 C   0  0  0  0  0  0  0  0  0  0  0  0
   -3.6909   -2.1721   -0.3745 C   0  0  0  0  0  0  0  0  0  0  0  0
   -4.1812    0.1816   -0.6127 C   0  0  0  0  0  0  0  0  0  0  0  0
   -4.6106   -1.1235   -0.3717 C   0  0  0  0  0  0  0  0  0  0  0  0
    1.1344   -4.7796    0.9552 C   0  0  0  0  0  0  0  0  0  0  0  0
   -1.1901    0.9178    1.2639 H   0  0  0  0  0  0  0  0  0  0  0  0
   -0.0873   -1.1463   -1.7493 H   0  0  0  0  0  0  0  0  0  0  0  0
   -0.4811    0.5082   -1.8167 H   0  0  0  0  0  0  0  0  0  0  0  0
    0.8683    2.7624   -0.1002 H   0  0  0  0  0  0  0  0  0  0  0  0
   -0.6527    2.3607   -0.8633 H   0  0  0  0  0  0  0  0  0  0  0  0
    1.5734    1.8710    2.1185 H   0  0  0  0  0  0  0  0  0  0  0  0
    0.6932    0.5159    2.8592 H   0  0  0  0  0  0  0  0  0  0  0  0
    0.0302    2.1392    2.9232 H   0  0  0  0  0  0  0  0  0  0  0  0
    2.6626   -0.5088    1.5966 H   0  0  0  0  0  0  0  0  0  0  0  0
    1.3344    1.0713   -2.2204 H   0  0  0  0  0  0  0  0  0  0  0  0
   -2.7745    3.2235    0.1815 H   0  0  0  0  0  0  0  0  0  0  0  0
   -2.6125    4.2450    1.6047 H   0  0  0  0  0  0  0  0  0  0  0  0
   -2.3375    2.5411    1.7737 H   0  0  0  0  0  0  0  0  0  0  0  0
   -1.1314    4.7784   -0.9636 H   0  0  0  0  0  0  0  0  0  0  0  0
    0.4335    5.0725   -0.1736 H   0  0  0  0  0  0  0  0  0  0  0  0
   -1.0351    5.7148    0.5433 H   0  0  0  0  0  0  0  0  0  0  0  0
   -1.6456   -2.7467   -0.6383 H   0  0  0  0  0  0  0  0  0  0  0  0
   -2.5343    1.4473   -1.1017 H   0  0  0  0  0  0  0  0  0  0  0  0
    4.9847   -0.0933    0.9203 H   0  0  0  0  0  0  0  0  0  0  0  0
    3.6352    1.4518   -2.8548 H   0  0  0  0  0  0  0  0  0  0  0  0
   -0.3911   -3.5161    1.7807 H   0  0  0  0  0  0  0  0  0  0  0  0
    1.2581   -3.1658    2.3653 H   0  0  0  0  0  0  0  0  0  0  0  0
    5.4851    0.8882   -1.3025 H   0  0  0  0  0  0  0  0  0  0  0  0
   -4.0262   -3.1889   -0.1923 H   0  0  0  0  0  0  0  0  0  0  0  0
   -4.8996    0.9961   -0.6243 H   0  0  0  0  0  0  0  0  0  0  0  0
   -5.6618   -1.3237   -0.1860 H   0  0  0  0  0  0  0  0  0  0  0  0
    0.5525   -5.0804    0.0777 H   0  0  0  0  0  0  0  0  0  0  0  0
    1.0257   -5.5542    1.7204 H   0  0  0  0  0  0  0  0  0  0  0  0
    2.1878   -4.7354    0.6592 H   0  0  0  0  0  0  0  0  0  0  0  0
  1  4  1  0  0  0  0
  1 13  1  0  0  0  0
  2 13  2  0  0  0  0
  3  7  1  0  0  0  0
  3 14  1  0  0  0  0
  3 15  1  0  0  0  0
  4  5  1  0  0  0  0
  4  6  1  0  0  0  0
  4  8  1  0  0  0  0
  5  7  1  0  0  0  0
  5  9  1  0  0  0  0
  5 26  1  0  0  0  0
  6 10  1  0  0  0  0
  6 27  1  0  0  0  0
  6 28  1  0  0  0  0
  7 29  1  0  0  0  0
  7 30  1  0  0  0  0
  8 11  2  0  0  0  0
  8 12  1  0  0  0  0
  9 31  1  0  0  0  0
  9 32  1  0  0  0  0
  9 33  1  0  0  0  0
 10 16  2  0  0  0  0
 10 17  1  0  0  0  0
 11 18  1  0  0  0  0
 11 34  1  0  0  0  0
 12 19  2  0  0  0  0
 12 35  1  0  0  0  0
 13 20  1  0  0  0  0
 14 36  1  0  0  0  0
 14 37  1  0  0  0  0
 14 38  1  0  0  0  0
 15 39  1  0  0  0  0
 15 40  1  0  0  0  0
 15 41  1  0  0  0  0
 16 22  1  0  0  0  0
 16 42  1  0  0  0  0
 17 23  2  0  0  0  0
 17 43  1  0  0  0  0
 18 21  2  0  0  0  0
 18 44  1  0  0  0  0
 19 21  1  0  0  0  0
 19 45  1  0  0  0  0
 20 25  1  0  0  0  0
 20 46  1  0  0  0  0
 20 47  1  0  0  0  0
 21 48  1  0  0  0  0
 22 24  2  0  0  0  0
 22 49  1  0  0  0  0
 23 24  1  0  0  0  0
 23 50  1  0  0  0  0
 24 51  1  0  0  0  0
 25 52  1  0  0  0  0
 25 53  1  0  0  0  0
 25 54  1  0  0  0  0
M  END
> <PUBCHEM_COMPOUND_CID>
441275

> <PUBCHEM_CONFORMER_RMSD>
1

> <PUBCHEM_CONFORMER_DIVERSEORDER>
1
4
2
3

> <PUBCHEM_MMFF94_PARTIAL_CHARGES>
32
1 -0.43
10 -0.14
11 -0.15
12 -0.15
13 0.66
14 0.27
15 0.27
16 -0.15
17 -0.15
18 -0.15
19 -0.15
2 -0.57
20 0.06
21 -0.15
22 -0.15
23 -0.15
24 -0.15
3 -0.81
34 0.15
35 0.15
4 0.42
42 0.15
43 0.15
44 0.15
45 0.15
48 0.15
49 0.15
50 0.15
51 0.15
6 0.14
7 0.27
8 -0.14

> <PUBCHEM_EFFECTIVE_ROTOR_COUNT>
9

> <PUBCHEM_PHARMACOPHORE_FEATURES>
6
1 2 acceptor
1 25 hydrophobe
1 3 cation
1 9 hydrophobe
6 10 16 17 22 23 24 rings
6 8 11 12 18 19 21 rings

> <PUBCHEM_HEAVY_ATOM_COUNT>
25

> <PUBCHEM_ATOM_DEF_STEREO_COUNT>
2

> <PUBCHEM_ATOM_UDEF_STEREO_COUNT>
0

> <PUBCHEM_BOND_DEF_STEREO_COUNT>
0

> <PUBCHEM_BOND_UDEF_STEREO_COUNT>
0

> <PUBCHEM_ISOTOPIC_ATOM_COUNT>
0

> <PUBCHEM_COMPONENT_COUNT>
1

> <PUBCHEM_CACTVS_TAUTO_COUNT>
1

> <PUBCHEM_CONFORMER_ID>
0006BBBB00000001

> <PUBCHEM_MMFF94_ENERGY>
84.5619

> <PUBCHEM_FEATURE_SELFOVERLAP>
30.446

> <PUBCHEM_SHAPE_FINGERPRINT>
10366900 7 18199757951581570527
104564 63 18114742741347533941
10759866 29 18196930191894242301
11421498 54 18413105082868214545
12035758 1 17977107859877681514
12035759 4 18340762770931909550
12293681 160 18337384959590055344
12553582 1 18335711524746685765
12592029 89 17632302276344173434
12788726 201 18336815421441547860
13009979 54 18128274448119588122
13140716 1 18264503809915371457
13149001 5 17905324031308079598
133893 2 17487325191574820522
13911987 19 18200298923400854884
14178342 30 18123766506533612074
14943834 7 18051693544596186194
15209289 33 18267587901382098775
15420108 30 17547857816478450728
16945 1 18261385663405137748
17357779 13 17675930893407962645
1813 80 17896588510088561893
19784866 9 18341619230292021351
20600515 1 18047493148412210024
20691752 17 18052562987774108141
20775438 99 16966347590894556015
20905425 154 18189055459134439511
21285901 2 17676753327846739140
21421861 104 18196932394964513291
22907989 373 17838010924865764070
229495 10 16191680613403596934
23402539 116 18262239924274335220
23419403 2 17320125434650910706
23558518 356 18123743416282967882
23566358 27 17981876750955579666
23598288 3 17825968183869637678
266924 87 18338229470593256006
283562 15 18410009948977875720
3052486 1 18409455811975878521
3178227 256 18196363733358884827
394222 165 17417821608302533600
469060 322 18338221718003564689
5845 1 7691735761190452640
7164475 11 18336262448575582708
7226269 152 18337398136934211306
81228 2 18043785676902614640

> <PUBCHEM_SHAPE_MULTIPOLES>
497.77
6.58
5.27
1.57
1.28
0.74
-0.23
-0.88
2.97
1.02
-2.63
-0.77
0.2
-1.21

> <PUBCHEM_SHAPE_SELFOVERLAP>
1039.636

> <PUBCHEM_SHAPE_VOLUME>
280.6

> <PUBCHEM_COORDINATE_TYPE>
2
5
10

$$$$

