442695
  -OEChem-07051212592D

 60 65  0     0  0  0  0  0  0999 V2000
    6.4144    3.5692    0.0000 O   0  0  0  0  0  0  0  0  0  0  0  0
    4.6326    0.5105    0.0000 O   0  0  0  0  0  0  0  0  0  0  0  0
    8.1845   -0.5105    0.0000 O   0  0  0  0  0  0  0  0  0  0  0  0
    6.4028   -3.5692    0.0000 O   0  0  0  0  0  0  0  0  0  0  0  0
   10.8148    4.0797    0.0000 O   0  0  0  0  0  0  0  0  0  0  0  0
    2.0024   -4.0797    0.0000 O   0  0  0  0  0  0  0  0  0  0  0  0
    7.2967    1.0346    0.0000 C   0  0  0  0  0  0  0  0  0  0  0  0
    8.1628    0.5346    0.0000 C   0  0  0  0  0  0  0  0  0  0  0  0
    7.2967    2.0346    0.0000 C   0  0  0  0  0  0  0  0  0  0  0  0
    9.0288    1.0346    0.0000 C   0  0  0  0  0  0  0  0  0  0  0  0
    6.4028    0.5000    0.0000 C   0  0  0  0  0  0  0  0  0  0  0  0
    8.1628    2.5346    0.0000 C   0  0  0  0  0  0  0  0  0  0  0  0
    9.0288    2.0346    0.0000 C   0  0  0  0  0  0  0  0  0  0  0  0
    6.4144   -0.5000    0.0000 C   0  0  0  0  0  0  0  0  0  0  0  0
    6.4028    2.5693    0.0000 C   0  0  0  0  0  0  0  0  0  0  0  0
    5.5204   -1.0346    0.0000 C   0  0  0  0  0  0  0  0  0  0  0  0
    5.4967    1.0138    0.0000 C   0  0  0  0  0  0  0  0  0  0  0  0
    5.5204   -2.0346    0.0000 C   0  0  0  0  0  0  0  0  0  0  0  0
    5.4967    2.0554    0.0000 C   0  0  0  0  0  0  0  0  0  0  0  0
    9.9388    2.5415    0.0000 C   0  0  0  0  0  0  0  0  0  0  0  0
    8.1467    3.5761    0.0000 C   0  0  0  0  0  0  0  0  0  0  0  0
    7.3204   -1.0138    0.0000 C   0  0  0  0  0  0  0  0  0  0  0  0
    4.6544   -2.5346    0.0000 C   0  0  0  0  0  0  0  0  0  0  0  0
    6.4144   -2.5693    0.0000 C   0  0  0  0  0  0  0  0  0  0  0  0
    4.6544   -0.5346    0.0000 C   0  0  0  0  0  0  0  0  0  0  0  0
    3.7884   -2.0346    0.0000 C   0  0  0  0  0  0  0  0  0  0  0  0
    7.3204   -2.0554    0.0000 C   0  0  0  0  0  0  0  0  0  0  0  0
    9.9468    3.5831    0.0000 C   0  0  0  0  0  0  0  0  0  0  0  0
    9.0447    4.1039    0.0000 C   0  0  0  0  0  0  0  0  0  0  0  0
    3.7884   -1.0346    0.0000 C   0  0  0  0  0  0  0  0  0  0  0  0
    4.6704   -3.5761    0.0000 C   0  0  0  0  0  0  0  0  0  0  0  0
    2.8784   -2.5415    0.0000 C   0  0  0  0  0  0  0  0  0  0  0  0
    3.7724   -4.1039    0.0000 C   0  0  0  0  0  0  0  0  0  0  0  0
    2.8703   -3.5831    0.0000 C   0  0  0  0  0  0  0  0  0  0  0  0
    5.5542    4.0792    0.0000 C   0  0  0  0  0  0  0  0  0  0  0  0
    7.2630   -4.0792    0.0000 C   0  0  0  0  0  0  0  0  0  0  0  0
    7.7642    0.0597    0.0000 H   0  0  0  0  0  0  0  0  0  0  0  0
    8.5613    0.0597    0.0000 H   0  0  0  0  0  0  0  0  0  0  0  0
    9.2408    0.4520    0.0000 H   0  0  0  0  0  0  0  0  0  0  0  0
    9.6394    1.1423    0.0000 H   0  0  0  0  0  0  0  0  0  0  0  0
    4.9610    2.3675    0.0000 H   0  0  0  0  0  0  0  0  0  0  0  0
   10.4721    2.2253    0.0000 H   0  0  0  0  0  0  0  0  0  0  0  0
    7.6062    3.8799    0.0000 H   0  0  0  0  0  0  0  0  0  0  0  0
    4.6544    0.0854    0.0000 H   0  0  0  0  0  0  0  0  0  0  0  0
    7.8562   -2.3675    0.0000 H   0  0  0  0  0  0  0  0  0  0  0  0
    9.0424    4.7239    0.0000 H   0  0  0  0  0  0  0  0  0  0  0  0
    3.2514   -0.7246    0.0000 H   0  0  0  0  0  0  0  0  0  0  0  0
    5.2109   -3.8799    0.0000 H   0  0  0  0  0  0  0  0  0  0  0  0
    2.3450   -2.2253    0.0000 H   0  0  0  0  0  0  0  0  0  0  0  0
    4.0945    0.8184    0.0000 H   0  0  0  0  0  0  0  0  0  0  0  0
    3.7748   -4.7239    0.0000 H   0  0  0  0  0  0  0  0  0  0  0  0
    8.7226   -0.8184    0.0000 H   0  0  0  0  0  0  0  0  0  0  0  0
    5.8704    4.6125    0.0000 H   0  0  0  0  0  0  0  0  0  0  0  0
    5.0209    4.3954    0.0000 H   0  0  0  0  0  0  0  0  0  0  0  0
    5.2380    3.5459    0.0000 H   0  0  0  0  0  0  0  0  0  0  0  0
   10.8172    4.6997    0.0000 H   0  0  0  0  0  0  0  0  0  0  0  0
    6.9468   -4.6125    0.0000 H   0  0  0  0  0  0  0  0  0  0  0  0
    7.7963   -4.3954    0.0000 H   0  0  0  0  0  0  0  0  0  0  0  0
    7.5792   -3.5459    0.0000 H   0  0  0  0  0  0  0  0  0  0  0  0
    2.0000   -4.6997    0.0000 H   0  0  0  0  0  0  0  0  0  0  0  0
  1 15  1  0  0  0  0
  1 35  1  0  0  0  0
  2 17  1  0  0  0  0
  2 50  1  0  0  0  0
  3 22  1  0  0  0  0
  3 52  1  0  0  0  0
  4 24  1  0  0  0  0
  4 36  1  0  0  0  0
  5 28  1  0  0  0  0
  5 56  1  0  0  0  0
  6 34  1  0  0  0  0
  6 60  1  0  0  0  0
  7  8  1  0  0  0  0
  7  9  1  0  0  0  0
  7 11  2  0  0  0  0
  8 10  1  0  0  0  0
  8 37  1  0  0  0  0
  8 38  1  0  0  0  0
  9 12  1  0  0  0  0
  9 15  2  0  0  0  0
 10 13  1  0  0  0  0
 10 39  1  0  0  0  0
 10 40  1  0  0  0  0
 11 14  1  0  0  0  0
 11 17  1  0  0  0  0
 12 13  2  0  0  0  0
 12 21  1  0  0  0  0
 13 20  1  0  0  0  0
 14 16  2  0  0  0  0
 14 22  1  0  0  0  0
 15 19  1  0  0  0  0
 16 18  1  0  0  0  0
 16 25  1  0  0  0  0
 17 19  2  0  0  0  0
 18 23  1  0  0  0  0
 18 24  2  0  0  0  0
 19 41  1  0  0  0  0
 20 28  2  0  0  0  0
 20 42  1  0  0  0  0
 21 29  2  0  0  0  0
 21 43  1  0  0  0  0
 22 27  2  0  0  0  0
 23 26  2  0  0  0  0
 23 31  1  0  0  0  0
 24 27  1  0  0  0  0
 25 30  2  0  0  0  0
 25 44  1  0  0  0  0
 26 30  1  0  0  0  0
 26 32  1  0  0  0  0
 27 45  1  0  0  0  0
 28 29  1  0  0  0  0
 29 46  1  0  0  0  0
 30 47  1  0  0  0  0
 31 33  2  0  0  0  0
 31 48  1  0  0  0  0
 32 34  2  0  0  0  0
 32 49  1  0  0  0  0
 33 34  1  0  0  0  0
 33 51  1  0  0  0  0
 35 53  1  0  0  0  0
 35 54  1  0  0  0  0
 35 55  1  0  0  0  0
 36 57  1  0  0  0  0
 36 58  1  0  0  0  0
 36 59  1  0  0  0  0
M  END
> <PUBCHEM_COMPOUND_CID>
442695

> <PUBCHEM_COMPOUND_CANONICALIZED>
1

> <PUBCHEM_CACTVS_COMPLEXITY>
762

> <PUBCHEM_CACTVS_HBOND_ACCEPTOR>
6

> <PUBCHEM_CACTVS_HBOND_DONOR>
4

> <PUBCHEM_CACTVS_ROTATABLE_BOND>
3

> <PUBCHEM_CACTVS_SUBSKEYS>
AAADceB4OAAAAAAAAAAAAAAAAAAAAAAAAAAwYMGDAAAAAADBVAAAGgAACAAADASAmAIyBsAABgCAAiBCAAACCAAgIAAIiAAGCIgMJyKGMRqAcCAlwBUIuAfA4PwO4AADCAAYAADAAAYQADAAAAAAAAAAAA==

> <PUBCHEM_IUPAC_OPENEYE_NAME>
1-(2,7-dihydroxy-4-methoxy-9,10-dihydrophenanthren-1-yl)-4-methoxy-phenanthrene-2,7-diol

> <PUBCHEM_IUPAC_CAS_NAME>
1-(2,7-dihydroxy-4-methoxy-9,10-dihydrophenanthren-1-yl)-4-methoxyphenanthrene-2,7-diol

> <PUBCHEM_IUPAC_NAME>
1-(2,7-dihydroxy-4-methoxy-9,10-dihydrophenanthren-1-yl)-4-methoxyphenanthrene-2,7-diol

> <PUBCHEM_IUPAC_SYSTEMATIC_NAME>
4-methoxy-1-[4-methoxy-2,7-bis(oxidanyl)-9,10-dihydrophenanthren-1-yl]phenanthrene-2,7-diol

> <PUBCHEM_IUPAC_TRADITIONAL_NAME>
1-(2,7-dihydroxy-4-methoxy-9,10-dihydrophenanthren-1-yl)-4-methoxy-phenanthrene-2,7-diol

> <PUBCHEM_IUPAC_INCHI>
InChI=1S/C30H24O6/c1-35-25-13-23(33)29(21-7-3-15-11-17(31)5-9-19(15)27(21)25)30-22-8-4-16-12-18(32)6-10-20(16)28(22)26(36-2)14-24(30)34/h3,5-7,9-14,31-34H,4,8H2,1-2H3

> <PUBCHEM_IUPAC_INCHIKEY>
LCCDZCVHGDFKNQ-UHFFFAOYSA-N

> <PUBCHEM_XLOGP3_AA>
6.5

> <PUBCHEM_EXACT_MASS>
480.157288

> <PUBCHEM_MOLECULAR_FORMULA>
C30H24O6

> <PUBCHEM_MOLECULAR_WEIGHT>
480.50796

> <PUBCHEM_OPENEYE_CAN_SMILES>
COC1=CC(=C(C2=C1C3=C(C=C2)C=C(C=C3)O)C4=C5CCC6=C(C5=C(C=C4O)OC)C=CC(=C6)O)O

> <PUBCHEM_OPENEYE_ISO_SMILES>
COC1=CC(=C(C2=C1C3=C(C=C2)C=C(C=C3)O)C4=C5CCC6=C(C5=C(C=C4O)OC)C=CC(=C6)O)O

> <PUBCHEM_CACTVS_TPSA>
99.4

> <PUBCHEM_MONOISOTOPIC_WEIGHT>
480.157288

> <PUBCHEM_TOTAL_CHARGE>
0

> <PUBCHEM_HEAVY_ATOM_COUNT>
36

> <PUBCHEM_ATOM_DEF_STEREO_COUNT>
0

> <PUBCHEM_ATOM_UDEF_STEREO_COUNT>
0

> <PUBCHEM_BOND_DEF_STEREO_COUNT>
0

> <PUBCHEM_BOND_UDEF_STEREO_COUNT>
0

> <PUBCHEM_ISOTOPIC_ATOM_COUNT>
0

> <PUBCHEM_COMPONENT_COUNT>
1

> <PUBCHEM_CACTVS_TAUTO_COUNT>
982

> <PUBCHEM_COORDINATE_TYPE>
1
5
255

> <PUBCHEM_BONDANNOTATIONS>
11  17  8
12  13  8
12  21  8
13  20  8
14  16  8
14  22  8
15  19  8
16  18  8
16  25  8
17  19  8
18  23  8
18  24  8
20  28  8
21  29  8
22  27  8
23  26  8
23  31  8
24  27  8
25  30  8
26  30  8
26  32  8
28  29  8
31  33  8
32  34  8
33  34  8
7  11  8
7  9  8
9  15  8

$$$$

