5716814
  -OEChem-07051213053D

 35 36  0     0  0  0  0  0  0999 V2000
   -6.0194    0.1105    0.4990 O   0  0  0  0  0  0  0  0  0  0  0  0
    6.0038   -0.0262    0.2336 O   0  0  0  0  0  0  0  0  0  0  0  0
    0.3687   -1.4147   -2.4469 N   0  0  0  0  0  0  0  0  0  0  0  0
   -1.9405   -0.1790   -0.0742 C   0  0  0  0  0  0  0  0  0  0  0  0
    1.8663    0.1316    0.5229 C   0  0  0  0  0  0  0  0  0  0  0  0
   -0.4825   -0.2815   -0.2792 C   0  0  0  0  0  0  0  0  0  0  0  0
    0.4164    0.1874    0.6235 C   0  0  0  0  0  0  0  0  0  0  0  0
   -2.6055   -1.2014    0.5801 C   0  0  0  0  0  0  0  0  0  0  0  0
   -2.6109    0.9386   -0.5411 C   0  0  0  0  0  0  0  0  0  0  0  0
    2.5606   -0.9610    1.0420 C   0  0  0  0  0  0  0  0  0  0  0  0
    2.5623    1.1715   -0.0935 C   0  0  0  0  0  0  0  0  0  0  0  0
   -4.6752    0.0154    0.3098 C   0  0  0  0  0  0  0  0  0  0  0  0
   -3.9834   -1.1036    0.7735 C   0  0  0  0  0  0  0  0  0  0  0  0
   -3.9889    1.0366   -0.3476 C   0  0  0  0  0  0  0  0  0  0  0  0
    4.6473    0.0260    0.3284 C   0  0  0  0  0  0  0  0  0  0  0  0
    3.9511   -1.0138    0.9448 C   0  0  0  0  0  0  0  0  0  0  0  0
    3.9528    1.1187   -0.1908 C   0  0  0  0  0  0  0  0  0  0  0  0
   -0.0111   -0.9065   -1.4752 C   0  0  0  0  0  0  0  0  0  0  0  0
   -6.6645    1.2813   -0.0001 C   0  0  0  0  0  0  0  0  0  0  0  0
    6.6527    1.0702   -0.4089 C   0  0  0  0  0  0  0  0  0  0  0  0
    0.0534    0.6605    1.5349 H   0  0  0  0  0  0  0  0  0  0  0  0
   -2.0780   -2.0782    0.9463 H   0  0  0  0  0  0  0  0  0  0  0  0
   -2.0866    1.7404   -1.0544 H   0  0  0  0  0  0  0  0  0  0  0  0
    2.0324   -1.7793    1.5257 H   0  0  0  0  0  0  0  0  0  0  0  0
    2.0342    2.0298   -0.5025 H   0  0  0  0  0  0  0  0  0  0  0  0
   -4.5126   -1.9021    1.2863 H   0  0  0  0  0  0  0  0  0  0  0  0
   -4.4636    1.9324   -0.7330 H   0  0  0  0  0  0  0  0  0  0  0  0
    4.4866   -1.8676    1.3511 H   0  0  0  0  0  0  0  0  0  0  0  0
    4.4303    1.9598   -0.6818 H   0  0  0  0  0  0  0  0  0  0  0  0
   -6.5848    1.3508   -1.0904 H   0  0  0  0  0  0  0  0  0  0  0  0
   -6.3018    2.1851    0.5010 H   0  0  0  0  0  0  0  0  0  0  0  0
   -7.7294    1.1896    0.2374 H   0  0  0  0  0  0  0  0  0  0  0  0
    6.5009    2.0055    0.1405 H   0  0  0  0  0  0  0  0  0  0  0  0
    6.3563    1.1533   -1.4600 H   0  0  0  0  0  0  0  0  0  0  0  0
    7.7277    0.8625   -0.3954 H   0  0  0  0  0  0  0  0  0  0  0  0
  1 12  1  0  0  0  0
  1 19  1  0  0  0  0
  2 15  1  0  0  0  0
  2 20  1  0  0  0  0
  3 18  3  0  0  0  0
  4  6  1  0  0  0  0
  4  8  2  0  0  0  0
  4  9  1  0  0  0  0
  5  7  1  0  0  0  0
  5 10  2  0  0  0  0
  5 11  1  0  0  0  0
  6  7  2  0  0  0  0
  6 18  1  0  0  0  0
  7 21  1  0  0  0  0
  8 13  1  0  0  0  0
  8 22  1  0  0  0  0
  9 14  2  0  0  0  0
  9 23  1  0  0  0  0
 10 16  1  0  0  0  0
 10 24  1  0  0  0  0
 11 17  2  0  0  0  0
 11 25  1  0  0  0  0
 12 13  2  0  0  0  0
 12 14  1  0  0  0  0
 13 26  1  0  0  0  0
 14 27  1  0  0  0  0
 15 16  2  0  0  0  0
 15 17  1  0  0  0  0
 16 28  1  0  0  0  0
 17 29  1  0  0  0  0
 19 30  1  0  0  0  0
 19 31  1  0  0  0  0
 19 32  1  0  0  0  0
 20 33  1  0  0  0  0
 20 34  1  0  0  0  0
 20 35  1  0  0  0  0
M  END
> <PUBCHEM_COMPOUND_CID>
5716814

> <PUBCHEM_CONFORMER_RMSD>
0.6

> <PUBCHEM_CONFORMER_DIVERSEORDER>
1
12
14
2
11
15
3
7
6
8
10
4
13
9
5

> <PUBCHEM_MMFF94_PARTIAL_CHARGES>
29
1 -0.36
10 -0.15
11 -0.15
12 0.08
13 -0.15
14 -0.15
15 0.08
16 -0.15
17 -0.15
18 0.49
19 0.28
2 -0.36
20 0.28
21 0.15
22 0.15
23 0.15
24 0.15
25 0.15
26 0.15
27 0.15
28 0.15
29 0.15
3 -0.56
4 0.03
5 0.03
6 0.04
7 -0.18
8 -0.15
9 -0.15

> <PUBCHEM_EFFECTIVE_ROTOR_COUNT>
4

> <PUBCHEM_PHARMACOPHORE_FEATURES>
5
1 1 acceptor
1 2 acceptor
1 3 acceptor
6 4 8 9 12 13 14 rings
6 5 10 11 15 16 17 rings

> <PUBCHEM_HEAVY_ATOM_COUNT>
20

> <PUBCHEM_ATOM_DEF_STEREO_COUNT>
0

> <PUBCHEM_ATOM_UDEF_STEREO_COUNT>
0

> <PUBCHEM_BOND_DEF_STEREO_COUNT>
1

> <PUBCHEM_BOND_UDEF_STEREO_COUNT>
0

> <PUBCHEM_ISOTOPIC_ATOM_COUNT>
0

> <PUBCHEM_COMPONENT_COUNT>
1

> <PUBCHEM_CACTVS_TAUTO_COUNT>
1

> <PUBCHEM_CONFORMER_ID>
00573B4E00000001

> <PUBCHEM_MMFF94_ENERGY>
77.9026

> <PUBCHEM_FEATURE_SELFOVERLAP>
25.371

> <PUBCHEM_SHAPE_FINGERPRINT>
10354089 29 18272653450456621528
106641 1 16773789282466829545
12107183 9 17481722161391160545
12166972 35 9727633912867966830
12236239 1 18408041793267800920
12507560 40 17775292711189917671
12516196 113 13830131693560533597
13533116 47 15647327598138847126
14251764 18 18343585127249458779
14341114 176 18130785685079346888
15048467 5 17989207040480341936
15527383 91 16056878022383989325
1813 80 15195283170196896278
19141452 34 16988841653288703267
19489759 90 8214148451382050106
20681677 155 17895481324129622654
21033648 29 17458925802408487968
21267235 1 18131345323639343864
23035841 295 14692573216941023016
23402539 116 18410018728312612749
23559900 14 18130509639025915513
23569943 247 14636246400592144766
23622692 88 16272205289326715311
300161 21 17988650691670011211
314173 85 15051734217692541231
34797466 226 18272359876430314430
3545911 37 18202002131252587912
4072396 5 17822017552749662603
4073 2 17346310467275004298
4214541 1 18202567280477145649
4325135 7 16845570912187183438
474 4 14996578247682675155
5104073 3 18059860519346258993
542803 24 18260268550953760665
621550 34 16845302665588717354
77779 3 18131071532364348570
8272917 22 18411138082062172362

> <PUBCHEM_SHAPE_MULTIPOLES>
394.87
15.26
1.37
1.19
0.32
0.02
0.98
4.71
-3.14
0.1
-0.09
-0.15
-0.36
-0.19

> <PUBCHEM_SHAPE_SELFOVERLAP>
844.499

> <PUBCHEM_SHAPE_VOLUME>
217.6

> <PUBCHEM_COORDINATE_TYPE>
2
5
10

$$$$

