54740
  -OEChem-07051213122D

 40 41  0     1  0  0  0  0  0999 V2000
    6.2228    3.0784    0.0000 O   0  0  0  0  0  0  0  0  0  0  0  0
    2.5369   -0.7694    0.0000 O   0  0  0  0  0  0  0  0  0  0  0  0
    3.4030    0.7306    0.0000 O   0  0  0  0  0  0  0  0  0  0  0  0
    4.3260    1.3184    0.0000 N   0  0  0  0  0  0  0  0  0  0  0  0
    5.9440    1.3184    0.0000 N   0  0  0  0  0  0  0  0  0  0  0  0
    6.0010   -0.7694    0.0000 N   0  0  0  0  0  0  0  0  0  0  0  0
    4.6350    2.2694    0.0000 C   0  0  3  0  0  0  0  0  0  0  0  0
    4.6350    3.2694    0.0000 C   0  0  0  0  0  0  0  0  0  0  0  0
    5.6350    2.2694    0.0000 C   0  0  0  0  0  0  0  0  0  0  0  0
    3.6840    2.5784    0.0000 C   0  0  0  0  0  0  0  0  0  0  0  0
    3.7690    3.7694    0.0000 C   0  0  0  0  0  0  0  0  0  0  0  0
    5.5010    3.7694    0.0000 C   0  0  0  0  0  0  0  0  0  0  0  0
    5.1350    0.7306    0.0000 C   0  0  0  0  0  0  0  0  0  0  0  0
    5.1350   -0.2694    0.0000 C   0  0  0  0  0  0  0  0  0  0  0  0
    4.2690   -0.7694    0.0000 C   0  0  0  0  0  0  0  0  0  0  0  0
    5.1350   -2.2694    0.0000 C   0  0  0  0  0  0  0  0  0  0  0  0
    4.2690   -1.7694    0.0000 C   0  0  0  0  0  0  0  0  0  0  0  0
    6.0010   -1.7694    0.0000 C   0  0  0  0  0  0  0  0  0  0  0  0
    5.1350   -3.2694    0.0000 C   0  0  0  0  0  0  0  0  0  0  0  0
    3.4030   -0.2694    0.0000 C   0  0  0  0  0  0  0  0  0  0  0  0
    6.0010   -3.7694    0.0000 C   0  0  0  0  0  0  0  0  0  0  0  0
    4.6350    3.8894    0.0000 H   0  0  0  0  0  0  0  0  0  0  0  0
    3.8756    3.1681    0.0000 H   0  0  0  0  0  0  0  0  0  0  0  0
    3.0943    2.7700    0.0000 H   0  0  0  0  0  0  0  0  0  0  0  0
    3.4924    1.9888    0.0000 H   0  0  0  0  0  0  0  0  0  0  0  0
    4.0790    4.3064    0.0000 H   0  0  0  0  0  0  0  0  0  0  0  0
    3.2320    4.0794    0.0000 H   0  0  0  0  0  0  0  0  0  0  0  0
    3.4590    3.2325    0.0000 H   0  0  0  0  0  0  0  0  0  0  0  0
    5.8110    3.2325    0.0000 H   0  0  0  0  0  0  0  0  0  0  0  0
    6.0380    4.0794    0.0000 H   0  0  0  0  0  0  0  0  0  0  0  0
    5.1910    4.3064    0.0000 H   0  0  0  0  0  0  0  0  0  0  0  0
    6.5337    1.1268    0.0000 H   0  0  0  0  0  0  0  0  0  0  0  0
    3.7320   -2.0794    0.0000 H   0  0  0  0  0  0  0  0  0  0  0  0
    6.5380   -2.0794    0.0000 H   0  0  0  0  0  0  0  0  0  0  0  0
    4.5244   -3.1618    0.0000 H   0  0  0  0  0  0  0  0  0  0  0  0
    4.9230   -3.8520    0.0000 H   0  0  0  0  0  0  0  0  0  0  0  0
    5.6910   -4.3064    0.0000 H   0  0  0  0  0  0  0  0  0  0  0  0
    6.5380   -4.0794    0.0000 H   0  0  0  0  0  0  0  0  0  0  0  0
    6.3110   -3.2325    0.0000 H   0  0  0  0  0  0  0  0  0  0  0  0
    2.0000   -0.4594    0.0000 H   0  0  0  0  0  0  0  0  0  0  0  0
  1  9  2  0  0  0  0
  2 20  1  0  0  0  0
  2 40  1  0  0  0  0
  3 20  2  0  0  0  0
  4  7  1  0  0  0  0
  4 13  2  0  0  0  0
  5  9  1  0  0  0  0
  5 13  1  0  0  0  0
  5 32  1  0  0  0  0
  6 14  1  0  0  0  0
  6 18  2  0  0  0  0
  7  8  1  0  0  0  0
  7  9  1  0  0  0  0
  7 10  1  0  0  0  0
  8 11  1  0  0  0  0
  8 12  1  0  0  0  0
  8 22  1  0  0  0  0
 10 23  1  0  0  0  0
 10 24  1  0  0  0  0
 10 25  1  0  0  0  0
 11 26  1  0  0  0  0
 11 27  1  0  0  0  0
 11 28  1  0  0  0  0
 12 29  1  0  0  0  0
 12 30  1  0  0  0  0
 12 31  1  0  0  0  0
 13 14  1  0  0  0  0
 14 15  2  0  0  0  0
 15 17  1  0  0  0  0
 15 20  1  0  0  0  0
 16 17  2  0  0  0  0
 16 18  1  0  0  0  0
 16 19  1  0  0  0  0
 17 33  1  0  0  0  0
 18 34  1  0  0  0  0
 19 21  1  0  0  0  0
 19 35  1  0  0  0  0
 19 36  1  0  0  0  0
 21 37  1  0  0  0  0
 21 38  1  0  0  0  0
 21 39  1  0  0  0  0
M  END
> <PUBCHEM_COMPOUND_CID>
54740

> <PUBCHEM_COMPOUND_CANONICALIZED>
1

> <PUBCHEM_CACTVS_COMPLEXITY>
475

> <PUBCHEM_CACTVS_HBOND_ACCEPTOR>
5

> <PUBCHEM_CACTVS_HBOND_DONOR>
2

> <PUBCHEM_CACTVS_ROTATABLE_BOND>
4

> <PUBCHEM_CACTVS_SUBSKEYS>
AAADceBzMAAAAAAAAAAAAAAAAAAAAQAAAAAsAAAAAAAAAAABgAAAHgAQCAAADYjBngQ/iJLIEgCoAzf3fACCgCE1ACAB2CGoTNgIZvrAnZGUcYhmxAHI2ce82QIOgAAAAAAAAAAAAAAAAAAAAAAAAAAAAA==

> <PUBCHEM_IUPAC_OPENEYE_NAME>
5-ethyl-2-(4-isopropyl-4-methyl-5-oxo-1H-imidazol-2-yl)pyridine-3-carboxylic acid

> <PUBCHEM_IUPAC_CAS_NAME>
5-ethyl-2-(4-methyl-5-oxo-4-propan-2-yl-1H-imidazol-2-yl)-3-pyridinecarboxylic acid

> <PUBCHEM_IUPAC_NAME>
5-ethyl-2-(4-methyl-5-oxo-4-propan-2-yl-1H-imidazol-2-yl)pyridine-3-carboxylic acid

> <PUBCHEM_IUPAC_SYSTEMATIC_NAME>
5-ethyl-2-(4-methyl-5-oxidanylidene-4-propan-2-yl-1H-imidazol-2-yl)pyridine-3-carboxylic acid

> <PUBCHEM_IUPAC_TRADITIONAL_NAME>
5-ethyl-2-(4-isopropyl-5-keto-4-methyl-2-imidazolin-2-yl)nicotinic acid

> <PUBCHEM_IUPAC_INCHI>
InChI=1S/C15H19N3O3/c1-5-9-6-10(13(19)20)11(16-7-9)12-17-14(21)15(4,18-12)8(2)3/h6-8H,5H2,1-4H3,(H,19,20)(H,17,18,21)

> <PUBCHEM_IUPAC_INCHIKEY>
XVOKUMIPKHGGTN-UHFFFAOYSA-N

> <PUBCHEM_XLOGP3_AA>
2

> <PUBCHEM_EXACT_MASS>
289.142641

> <PUBCHEM_MOLECULAR_FORMULA>
C15H19N3O3

> <PUBCHEM_MOLECULAR_WEIGHT>
289.32966

> <PUBCHEM_OPENEYE_CAN_SMILES>
CCC1=CN=C(C(=C1)C(=O)O)C2=NC(C(=O)N2)(C)C(C)C

> <PUBCHEM_OPENEYE_ISO_SMILES>
CCC1=CN=C(C(=C1)C(=O)O)C2=NC(C(=O)N2)(C)C(C)C

> <PUBCHEM_CACTVS_TPSA>
91.6

> <PUBCHEM_MONOISOTOPIC_WEIGHT>
289.142641

> <PUBCHEM_TOTAL_CHARGE>
0

> <PUBCHEM_HEAVY_ATOM_COUNT>
21

> <PUBCHEM_ATOM_DEF_STEREO_COUNT>
0

> <PUBCHEM_ATOM_UDEF_STEREO_COUNT>
1

> <PUBCHEM_BOND_DEF_STEREO_COUNT>
0

> <PUBCHEM_BOND_UDEF_STEREO_COUNT>
0

> <PUBCHEM_ISOTOPIC_ATOM_COUNT>
0

> <PUBCHEM_COMPONENT_COUNT>
1

> <PUBCHEM_CACTVS_TAUTO_COUNT>
23

> <PUBCHEM_COORDINATE_TYPE>
1
5
255

> <PUBCHEM_BONDANNOTATIONS>
14  15  8
15  17  8
16  17  8
16  18  8
6  14  8
6  18  8
7  10  3

$$$$

