439556
  -OEChem-07051212463D

 32 31  0     1  0  0  0  0  0999 V2000
   -0.5316   -1.9066   -0.5385 P   0  0  1  0  0  0  0  0  0  0  0  0
   -1.4526   -0.7466    0.1167 O   0  0  0  0  0  0  0  0  0  0  0  0
    0.9916   -1.4102   -0.3057 O   0  0  0  0  0  0  0  0  0  0  0  0
   -0.7089   -3.1411    0.4933 O   0  0  0  0  0  0  0  0  0  0  0  0
   -0.8710   -2.2441   -1.9621 O   0  0  0  0  0  0  0  0  0  0  0  0
   -3.9685    0.1467    1.4548 O   0  0  0  0  0  0  0  0  0  0  0  0
   -4.6681    1.0672   -0.5013 O   0  0  0  0  0  0  0  0  0  0  0  0
   -2.4594    2.7611   -0.3742 N   0  0  0  0  0  0  0  0  0  0  0  0
    3.0118    0.5270    0.0497 N   0  0  0  0  0  0  0  0  0  0  0  0
    4.3976    2.1202   -0.9024 N   0  0  0  0  0  0  0  0  0  0  0  0
    5.3711    0.6048    0.4944 N   0  0  0  0  0  0  0  0  0  0  0  0
   -2.3858    1.4611    0.2904 C   0  0  2  0  0  0  0  0  0  0  0  0
   -1.4555    0.5351   -0.4882 C   0  0  0  0  0  0  0  0  0  0  0  0
    1.4337   -1.0621    0.9952 C   0  0  0  0  0  0  0  0  0  0  0  0
    2.8887   -0.6348    0.9343 C   0  0  0  0  0  0  0  0  0  0  0  0
   -3.7915    0.8932    0.3333 C   0  0  0  0  0  0  0  0  0  0  0  0
    4.1983    1.0292   -0.0896 C   0  0  0  0  0  0  0  0  0  0  0  0
   -2.0284    1.5977    1.3176 H   0  0  0  0  0  0  0  0  0  0  0  0
   -1.7935    0.4230   -1.5253 H   0  0  0  0  0  0  0  0  0  0  0  0
   -0.4354    0.9340   -0.5000 H   0  0  0  0  0  0  0  0  0  0  0  0
    0.8147   -0.2471    1.3834 H   0  0  0  0  0  0  0  0  0  0  0  0
    1.3283   -1.9273    1.6570 H   0  0  0  0  0  0  0  0  0  0  0  0
    3.4869   -1.4637    0.5372 H   0  0  0  0  0  0  0  0  0  0  0  0
    3.2318   -0.3920    1.9464 H   0  0  0  0  0  0  0  0  0  0  0  0
   -1.5272    3.1700   -0.4293 H   0  0  0  0  0  0  0  0  0  0  0  0
   -3.0168    3.4023    0.1893 H   0  0  0  0  0  0  0  0  0  0  0  0
   -0.3571   -4.0218    0.2431 H   0  0  0  0  0  0  0  0  0  0  0  0
   -4.8733   -0.2290    1.5047 H   0  0  0  0  0  0  0  0  0  0  0  0
    3.6263    2.5481   -1.4030 H   0  0  0  0  0  0  0  0  0  0  0  0
    5.3175    2.5290   -1.0255 H   0  0  0  0  0  0  0  0  0  0  0  0
    6.2482    1.0799    0.3102 H   0  0  0  0  0  0  0  0  0  0  0  0
    5.4059   -0.1901    1.1226 H   0  0  0  0  0  0  0  0  0  0  0  0
  1  2  1  0  0  0  0
  1  3  1  0  0  0  0
  1  4  1  0  0  0  0
  1  5  2  0  0  0  0
  2 13  1  0  0  0  0
  3 14  1  0  0  0  0
  4 27  1  0  0  0  0
  6 16  1  0  0  0  0
  6 28  1  0  0  0  0
  7 16  2  0  0  0  0
  8 12  1  0  0  0  0
  8 25  1  0  0  0  0
  8 26  1  0  0  0  0
  9 15  1  0  0  0  0
  9 17  2  0  0  0  0
 10 17  1  0  0  0  0
 10 29  1  0  0  0  0
 10 30  1  0  0  0  0
 11 17  1  0  0  0  0
 11 31  1  0  0  0  0
 11 32  1  0  0  0  0
 12 13  1  0  0  0  0
 12 16  1  0  0  0  0
 12 18  1  0  0  0  0
 13 19  1  0  0  0  0
 13 20  1  0  0  0  0
 14 15  1  0  0  0  0
 14 21  1  0  0  0  0
 14 22  1  0  0  0  0
 15 23  1  0  0  0  0
 15 24  1  0  0  0  0
M  END
> <PUBCHEM_COMPOUND_CID>
439556

> <PUBCHEM_CONFORMER_RMSD>
1

> <PUBCHEM_CONFORMER_DIVERSEORDER>
1
169
32
348
223
374
118
125
116
182
531
81
70
371
8
150
22
345
74
194
106
468
251
123
506
109
207
121
414
248
2
117
188
550
84
245
509
13
52
322
547
404
82
218
259
12
208
78
233
522
98
90
170
165
328
278
40
216
201
542
425
494
246
65
543
498
228
9
167
481
11
199
474
537
131
96
163
181
211
126
310
53
14
315
50
85
24
193
172
488
518
304
49
385
102
7
463
412
72
524
18
281
413
48
325
6
388
234
396
3
4
305
326
91
104
471
64
392
410
39
152
197
56
321
464
54
119
458
516
33
190
428
133
380
486

> <PUBCHEM_MMFF94_PARTIAL_CHARGES>
25
1 1.51
10 -0.85
11 -0.85
12 0.33
13 0.28
14 0.28
15 0.25
16 0.66
17 0.55
2 -0.55
25 0.36
26 0.36
27 0.5
28 0.5
29 0.4
3 -0.55
30 0.4
31 0.4
32 0.4
4 -0.77
5 -0.7
6 -0.65
7 -0.57
8 -0.99
9 -0.7

> <PUBCHEM_EFFECTIVE_ROTOR_COUNT>
8

> <PUBCHEM_PHARMACOPHORE_FEATURES>
10
1 10 donor
1 11 donor
1 4 acceptor
1 5 acceptor
1 6 acceptor
1 7 acceptor
1 8 cation
1 8 donor
3 6 7 16 anion
4 9 10 11 17 cation

> <PUBCHEM_HEAVY_ATOM_COUNT>
17

> <PUBCHEM_ATOM_DEF_STEREO_COUNT>
1

> <PUBCHEM_ATOM_UDEF_STEREO_COUNT>
0

> <PUBCHEM_BOND_DEF_STEREO_COUNT>
0

> <PUBCHEM_BOND_UDEF_STEREO_COUNT>
0

> <PUBCHEM_ISOTOPIC_ATOM_COUNT>
0

> <PUBCHEM_COMPONENT_COUNT>
1

> <PUBCHEM_CACTVS_TAUTO_COUNT>
2

> <PUBCHEM_CONFORMER_ID>
0006B50400000001

> <PUBCHEM_MMFF94_ENERGY>
8.6126

> <PUBCHEM_FEATURE_SELFOVERLAP>
50.868

> <PUBCHEM_SHAPE_FINGERPRINT>
10681291 71 18409440388974508928
122479 349 18411417302249371002
14026960 21 18342173414243240545
14123255 52 18412265047252279376
14251764 30 5977807832135970765
15534591 1 18410016503003101714
1741750 31 18334577919499904170
17834072 14 10159695759644384590
17834072 32 18410572877240176224
18785283 64 18267300014151330786
204376 136 18410574006990485963
20645477 56 18260549996408980160
21524375 3 18261398891835993467
21652331 79 18343021103259210456
22620623 9 16589450600203278143
23227448 37 18268144271308095892
23419403 2 17029040927992787255
23559900 14 17765158654583293643
44154327 71 18412545426954612644
458136 41 17749941293248291263
474229 33 18410573968589111267
6333272 397 18340488971061691787
81539 233 18264495159951340447

> <PUBCHEM_SHAPE_MULTIPOLES>
298.56
9.42
2.84
1.13
5.96
0.93
0.16
-7.44
-0.99
-0.7
0.71
-0.23
0.45
-0.69

> <PUBCHEM_SHAPE_SELFOVERLAP>
560.977

> <PUBCHEM_SHAPE_VOLUME>
185.2

> <PUBCHEM_COORDINATE_TYPE>
2
5
10

$$$$

