440004
  -OEChem-07051212483D

 38 40  0     1  0  0  0  0  0999 V2000
    2.4705    0.5903    0.9375 O   0  0  0  0  0  0  0  0  0  0  0  0
    1.9172   -2.2286   -1.2232 O   0  0  0  0  0  0  0  0  0  0  0  0
    4.1353   -1.8859    0.3090 O   0  0  0  0  0  0  0  0  0  0  0  0
    4.0009    2.8666    0.3555 O   0  0  0  0  0  0  0  0  0  0  0  0
    0.2729    0.1010    0.1884 N   0  0  0  0  0  0  0  0  0  0  0  0
   -1.3404    1.5751   -0.2613 N   0  0  0  0  0  0  0  0  0  0  0  0
   -1.0770   -1.8737    0.6138 N   0  0  0  0  0  0  0  0  0  0  0  0
   -4.2749    0.7802   -0.2139 N   0  0  0  0  0  0  0  0  0  0  0  0
   -3.4571   -1.3912    0.3725 N   0  0  0  0  0  0  0  0  0  0  0  0
    2.2935   -0.9086   -0.8876 C   0  0  1  0  0  0  0  0  0  0  0  0
    1.6178   -0.4335    0.3896 C   0  0  1  0  0  0  0  0  0  0  0  0
    3.7585   -0.7847   -0.5178 C   0  0  1  0  0  0  0  0  0  0  0  0
    3.7754    0.4889    0.3217 C   0  0  1  0  0  0  0  0  0  0  0  0
    4.0135    1.7431   -0.5075 C   0  0  0  0  0  0  0  0  0  0  0  0
   -0.9068   -0.5808    0.2991 C   0  0  0  0  0  0  0  0  0  0  0  0
   -0.0414    1.3920   -0.1493 C   0  0  0  0  0  0  0  0  0  0  0  0
   -1.8935    0.3502    0.0163 C   0  0  0  0  0  0  0  0  0  0  0  0
   -3.2106   -0.0960    0.0608 C   0  0  0  0  0  0  0  0  0  0  0  0
   -2.3908   -2.1877    0.6259 C   0  0  0  0  0  0  0  0  0  0  0  0
   -4.1604    2.1970    0.0811 C   0  0  0  0  0  0  0  0  0  0  0  0
   -5.5029    0.2863   -0.8105 C   0  0  0  0  0  0  0  0  0  0  0  0
    2.0566   -0.2508   -1.7319 H   0  0  0  0  0  0  0  0  0  0  0  0
    1.5329   -1.2317    1.1373 H   0  0  0  0  0  0  0  0  0  0  0  0
    4.4259   -0.7723   -1.3841 H   0  0  0  0  0  0  0  0  0  0  0  0
    4.5039    0.4391    1.1390 H   0  0  0  0  0  0  0  0  0  0  0  0
    3.2334    1.8935   -1.2603 H   0  0  0  0  0  0  0  0  0  0  0  0
    4.9847    1.7049   -1.0096 H   0  0  0  0  0  0  0  0  0  0  0  0
    2.1789   -2.8116   -0.4903 H   0  0  0  0  0  0  0  0  0  0  0  0
    5.0637   -1.7514    0.5655 H   0  0  0  0  0  0  0  0  0  0  0  0
    0.7102    2.1535   -0.3061 H   0  0  0  0  0  0  0  0  0  0  0  0
    3.1348    2.8871    0.7974 H   0  0  0  0  0  0  0  0  0  0  0  0
   -2.6251   -3.2179    0.8716 H   0  0  0  0  0  0  0  0  0  0  0  0
   -3.6453    2.7223   -0.7296 H   0  0  0  0  0  0  0  0  0  0  0  0
   -3.6331    2.3737    1.0253 H   0  0  0  0  0  0  0  0  0  0  0  0
   -5.1501    2.6551    0.1897 H   0  0  0  0  0  0  0  0  0  0  0  0
   -5.2858   -0.3523   -1.6738 H   0  0  0  0  0  0  0  0  0  0  0  0
   -6.1386    1.1053   -1.1639 H   0  0  0  0  0  0  0  0  0  0  0  0
   -6.0760   -0.2939   -0.0799 H   0  0  0  0  0  0  0  0  0  0  0  0
  1 11  1  0  0  0  0
  1 13  1  0  0  0  0
  2 10  1  0  0  0  0
  2 28  1  0  0  0  0
  3 12  1  0  0  0  0
  3 29  1  0  0  0  0
  4 14  1  0  0  0  0
  4 31  1  0  0  0  0
  5 11  1  0  0  0  0
  5 15  1  0  0  0  0
  5 16  1  0  0  0  0
  6 16  2  0  0  0  0
  6 17  1  0  0  0  0
  7 15  1  0  0  0  0
  7 19  2  0  0  0  0
  8 18  1  0  0  0  0
  8 20  1  0  0  0  0
  8 21  1  0  0  0  0
  9 18  2  0  0  0  0
  9 19  1  0  0  0  0
 10 11  1  0  0  0  0
 10 12  1  0  0  0  0
 10 22  1  0  0  0  0
 11 23  1  0  0  0  0
 12 13  1  0  0  0  0
 12 24  1  0  0  0  0
 13 14  1  0  0  0  0
 13 25  1  0  0  0  0
 14 26  1  0  0  0  0
 14 27  1  0  0  0  0
 15 17  2  0  0  0  0
 16 30  1  0  0  0  0
 17 18  1  0  0  0  0
 19 32  1  0  0  0  0
 20 33  1  0  0  0  0
 20 34  1  0  0  0  0
 20 35  1  0  0  0  0
 21 36  1  0  0  0  0
 21 37  1  0  0  0  0
 21 38  1  0  0  0  0
M  END
> <PUBCHEM_COMPOUND_CID>
440004

> <PUBCHEM_CONFORMER_RMSD>
0.6

> <PUBCHEM_CONFORMER_DIVERSEORDER>
3
23
31
20
12
18
9
16
1
10
11
8
22
17
5
29
24
19
14
27
25
7
28
32
30
13
2
26
6
21
15
4

> <PUBCHEM_MMFF94_PARTIAL_CHARGES>
26
1 -0.56
10 0.28
11 0.54
12 0.28
13 0.28
14 0.28
15 0.11
16 0.04
17 0.23
18 0.41
19 0.47
2 -0.68
20 0.37
21 0.37
28 0.4
29 0.4
3 -0.68
30 0.15
31 0.4
32 0.15
4 -0.68
5 0.05
6 -0.57
7 -0.57
8 -0.84
9 -0.62

> <PUBCHEM_EFFECTIVE_ROTOR_COUNT>
4

> <PUBCHEM_PHARMACOPHORE_FEATURES>
13
1 1 acceptor
1 2 acceptor
1 2 donor
1 3 acceptor
1 3 donor
1 4 acceptor
1 4 donor
3 5 6 16 cation
3 7 9 19 cation
3 8 9 18 cation
5 1 10 11 12 13 rings
5 5 6 15 16 17 rings
6 7 9 15 17 18 19 rings

> <PUBCHEM_HEAVY_ATOM_COUNT>
21

> <PUBCHEM_ATOM_DEF_STEREO_COUNT>
4

> <PUBCHEM_ATOM_UDEF_STEREO_COUNT>
0

> <PUBCHEM_BOND_DEF_STEREO_COUNT>
0

> <PUBCHEM_BOND_UDEF_STEREO_COUNT>
0

> <PUBCHEM_ISOTOPIC_ATOM_COUNT>
0

> <PUBCHEM_COMPONENT_COUNT>
1

> <PUBCHEM_CACTVS_TAUTO_COUNT>
1

> <PUBCHEM_CONFORMER_ID>
0006B6C400000003

> <PUBCHEM_MMFF94_ENERGY>
61.6345

> <PUBCHEM_FEATURE_SELFOVERLAP>
66.228

> <PUBCHEM_SHAPE_FINGERPRINT>
10014705 185 18202286875253233781
10366900 7 17821445742273285793
10498660 4 18341891870351887308
10608611 8 18410292501848757936
10616163 171 18338230441018481422
1100329 8 16753811486559632507
11405975 8 18342175583270329666
12236239 1 16917066676477503842
12633257 1 18270970141061848282
12916748 109 18342454855387779057
12969540 114 17987817283990285957
13544592 145 18265323087484898727
13675066 3 17846771910529907803
14528608 73 18260831457984194708
14790565 3 18267579290389707009
15196674 1 18412825763680411915
15219456 202 18408037390567775706
15375358 24 18410011026740139471
17980427 23 17702103556626360404
18186145 218 17703794725409948950
200 152 17313109691166122479
20279233 1 18335134310637474047
20510252 161 18409162199895791017
20645477 56 18272649052288732605
20645477 70 17822008756772678934
21065198 57 18411698785858162314
21452121 103 18409738339873308136
21859007 373 17272317857115531284
23402539 116 18338805627138446487
23557571 272 18270386188444133534
23559900 14 18410012165423548034
296302 2 18336824208437804375
335352 9 18340768268432032790
34934 24 18341337695000755963
3545911 37 18341892970269937340
4214541 1 18411981385899961665
4340502 62 15985103042169802073
474 4 17417241040419897572
495365 180 17677065580738102752
5104073 3 18342173358213429297
633830 44 18264774427473032269
69090 78 18335424594813654975
9709674 26 18334850675202679415

> <PUBCHEM_SHAPE_MULTIPOLES>
383.79
10.02
2.49
0.85
2.91
0.3
0.1
2.87
1.12
-0.85
-0.1
-0.18
-0.18
0.73

> <PUBCHEM_SHAPE_SELFOVERLAP>
825.034

> <PUBCHEM_SHAPE_VOLUME>
209.8

> <PUBCHEM_COORDINATE_TYPE>
2
5
10

$$$$

