11953933
  -OEChem-07051212572D

 44 45  0     1  0  0  0  0  0999 V2000
    4.0960   -1.3799    0.0000 O   0  0  0  0  0  0  0  0  0  0  0  0
    7.0495   -1.9590    0.0000 O   0  0  0  0  0  0  0  0  0  0  0  0
    2.7939    1.7277    0.0000 O   0  0  0  0  0  0  0  0  0  0  0  0
    4.1389   -3.2671    0.0000 O   0  0  0  0  0  0  0  0  0  0  0  0
    3.7301    3.1850    0.0000 O   0  0  0  0  0  0  0  0  0  0  0  0
    5.3424   -1.2519    0.0000 C   0  0  1  0  0  0  0  0  0  0  0  0
    4.6353   -0.5448    0.0000 C   0  0  1  0  0  0  0  0  0  0  0  0
    6.3424   -1.2519    0.0000 C   0  0  1  0  0  0  0  0  0  0  0  0
    6.3424   -0.2519    0.0000 C   0  0  0  0  0  0  0  0  0  0  0  0
    5.3918   -2.2448    0.0000 C   0  0  0  0  0  0  0  0  0  0  0  0
    3.6353   -0.5448    0.0000 C   0  0  0  0  0  0  0  0  0  0  0  0
    3.1353    0.3212    0.0000 C   0  0  0  0  0  0  0  0  0  0  0  0
    3.6353    1.1872    0.0000 C   0  0  1  0  0  0  0  0  0  0  0  0
    5.4764    0.2481    0.0000 C   0  0  0  0  0  0  0  0  0  0  0  0
    4.5929   -2.3761    0.0000 C   0  0  0  0  0  0  0  0  0  0  0  0
    4.6103    1.7481    0.0000 C   0  0  0  0  0  0  0  0  0  0  0  0
    5.4764    1.2481    0.0000 C   0  0  0  0  0  0  0  0  0  0  0  0
    6.0977   -2.9531    0.0000 C   0  0  0  0  0  0  0  0  0  0  0  0
    2.1353    0.3212    0.0000 C   0  0  0  0  0  0  0  0  0  0  0  0
    4.6103   -0.2519    0.0000 C   0  0  0  0  0  0  0  0  0  0  0  0
    2.8414    2.7266    0.0000 C   0  0  0  0  0  0  0  0  0  0  0  0
    2.0000    3.2671    0.0000 C   0  0  0  0  0  0  0  0  0  0  0  0
    5.9582   -1.8378    0.0000 H   0  0  0  0  0  0  0  0  0  0  0  0
    4.9606    0.2405    0.0000 H   0  0  0  0  0  0  0  0  0  0  0  0
    6.9152   -1.0147    0.0000 H   0  0  0  0  0  0  0  0  0  0  0  0
    6.9530   -0.3596    0.0000 H   0  0  0  0  0  0  0  0  0  0  0  0
    6.5544    0.3307    0.0000 H   0  0  0  0  0  0  0  0  0  0  0  0
    3.3253   -1.0818    0.0000 H   0  0  0  0  0  0  0  0  0  0  0  0
    3.6505    1.8070    0.0000 H   0  0  0  0  0  0  0  0  0  0  0  0
    5.0091    2.2228    0.0000 H   0  0  0  0  0  0  0  0  0  0  0  0
    4.2123    2.2234    0.0000 H   0  0  0  0  0  0  0  0  0  0  0  0
    6.0133    1.5581    0.0000 H   0  0  0  0  0  0  0  0  0  0  0  0
    7.6484   -1.7986    0.0000 H   0  0  0  0  0  0  0  0  0  0  0  0
    5.9362   -3.5517    0.0000 H   0  0  0  0  0  0  0  0  0  0  0  0
    6.6969   -2.7937    0.0000 H   0  0  0  0  0  0  0  0  0  0  0  0
    2.1353    0.9412    0.0000 H   0  0  0  0  0  0  0  0  0  0  0  0
    1.5153    0.3212    0.0000 H   0  0  0  0  0  0  0  0  0  0  0  0
    2.1353   -0.2988    0.0000 H   0  0  0  0  0  0  0  0  0  0  0  0
    4.3003    0.2850    0.0000 H   0  0  0  0  0  0  0  0  0  0  0  0
    4.0734   -0.5619    0.0000 H   0  0  0  0  0  0  0  0  0  0  0  0
    4.9203   -0.7889    0.0000 H   0  0  0  0  0  0  0  0  0  0  0  0
    2.3351    3.7887    0.0000 H   0  0  0  0  0  0  0  0  0  0  0  0
    1.4784    3.6022    0.0000 H   0  0  0  0  0  0  0  0  0  0  0  0
    1.6649    2.7454    0.0000 H   0  0  0  0  0  0  0  0  0  0  0  0
  1  7  1  0  0  0  0
  1 15  1  0  0  0  0
  8  2  1  1  0  0  0
  2 33  1  0  0  0  0
 13  3  1  6  0  0  0
  3 21  1  0  0  0  0
  4 15  2  0  0  0  0
  5 21  2  0  0  0  0
  6  7  1  0  0  0  0
  6  8  1  0  0  0  0
  6 10  1  0  0  0  0
  6 23  1  6  0  0  0
  7 11  1  0  0  0  0
  7 24  1  1  0  0  0
  8  9  1  0  0  0  0
  8 25  1  0  0  0  0
  9 14  1  0  0  0  0
  9 26  1  0  0  0  0
  9 27  1  0  0  0  0
 10 15  1  0  0  0  0
 10 18  2  0  0  0  0
 11 12  2  0  0  0  0
 11 28  1  0  0  0  0
 12 13  1  0  0  0  0
 12 19  1  0  0  0  0
 13 16  1  0  0  0  0
 13 29  1  0  0  0  0
 14 17  2  0  0  0  0
 14 20  1  0  0  0  0
 16 17  1  0  0  0  0
 16 30  1  0  0  0  0
 16 31  1  0  0  0  0
 17 32  1  0  0  0  0
 18 34  1  0  0  0  0
 18 35  1  0  0  0  0
 19 36  1  0  0  0  0
 19 37  1  0  0  0  0
 19 38  1  0  0  0  0
 20 39  1  0  0  0  0
 20 40  1  0  0  0  0
 20 41  1  0  0  0  0
 21 22  1  0  0  0  0
 22 42  1  0  0  0  0
 22 43  1  0  0  0  0
 22 44  1  0  0  0  0
M  END
> <PUBCHEM_COMPOUND_CID>
11953933

> <PUBCHEM_COMPOUND_CANONICALIZED>
1

> <PUBCHEM_CACTVS_COMPLEXITY>
557

> <PUBCHEM_CACTVS_HBOND_ACCEPTOR>
5

> <PUBCHEM_CACTVS_HBOND_DONOR>
1

> <PUBCHEM_CACTVS_ROTATABLE_BOND>
2

> <PUBCHEM_CACTVS_SUBSKEYS>
AAADceB4OAAAAAAAAAAAAAAAAAAAASAAAAAAAAAAAAAAAACAAAAAGgAACAAADRSggAICCAAABgCIAiDSCAAAAAAgAAAACAEAAEgAFBIAIQACUAAFwAAIIIPKyCCOAAAAAAAAAAAAAAAAAAAAAAAAAAAAAA==

> <PUBCHEM_IUPAC_OPENEYE_NAME>
[(3aR,4R,6E,9R,10Z,11aR)-4-hydroxy-6,10-dimethyl-3-methylene-2-oxo-3a,4,5,8,9,11a-hexahydrocyclodeca[b]furan-9-yl] acetate

> <PUBCHEM_IUPAC_CAS_NAME>
acetic acid [(3aR,4R,6E,9R,10Z,11aR)-4-hydroxy-6,10-dimethyl-3-methylene-2-oxo-3a,4,5,8,9,11a-hexahydrocyclodeca[b]furan-9-yl] ester

> <PUBCHEM_IUPAC_NAME>
[(3aR,4R,6E,9R,10Z,11aR)-4-hydroxy-6,10-dimethyl-3-methylidene-2-oxo-3a,4,5,8,9,11a-hexahydrocyclodeca[b]furan-9-yl] acetate

> <PUBCHEM_IUPAC_SYSTEMATIC_NAME>
[(3aR,4R,6E,9R,10Z,11aR)-6,10-dimethyl-3-methylidene-4-oxidanyl-2-oxidanylidene-3a,4,5,8,9,11a-hexahydrocyclodeca[b]furan-9-yl] ethanoate

> <PUBCHEM_IUPAC_TRADITIONAL_NAME>
acetic acid [(3aR,4R,6E,9R,10Z,11aR)-4-hydroxy-2-keto-6,10-dimethyl-3-methylene-3a,4,5,8,9,11a-hexahydrocyclodeca[b]furan-9-yl] ester

> <PUBCHEM_IUPAC_INCHI>
InChI=1S/C17H22O5/c1-9-5-6-14(21-12(4)18)10(2)8-15-16(13(19)7-9)11(3)17(20)22-15/h5,8,13-16,19H,3,6-7H2,1-2,4H3/b9-5+,10-8-/t13-,14-,15-,16-/m1/s1

> <PUBCHEM_IUPAC_INCHIKEY>
UYVDDCCDZKMLBM-IGERJXIRSA-N

> <PUBCHEM_XLOGP3_AA>
1.3

> <PUBCHEM_EXACT_MASS>
306.146724

> <PUBCHEM_MOLECULAR_FORMULA>
C17H22O5

> <PUBCHEM_MOLECULAR_WEIGHT>
306.35358

> <PUBCHEM_OPENEYE_CAN_SMILES>
CC1=CCC(C(=CC2C(C(C1)O)C(=C)C(=O)O2)C)OC(=O)C

> <PUBCHEM_OPENEYE_ISO_SMILES>
C/C/1=C\C[C@H](/C(=C\[C@@H]2[C@@H]([C@@H](C1)O)C(=C)C(=O)O2)/C)OC(=O)C

> <PUBCHEM_CACTVS_TPSA>
72.8

> <PUBCHEM_MONOISOTOPIC_WEIGHT>
306.146724

> <PUBCHEM_TOTAL_CHARGE>
0

> <PUBCHEM_HEAVY_ATOM_COUNT>
22

> <PUBCHEM_ATOM_DEF_STEREO_COUNT>
4

> <PUBCHEM_ATOM_UDEF_STEREO_COUNT>
0

> <PUBCHEM_BOND_DEF_STEREO_COUNT>
2

> <PUBCHEM_BOND_UDEF_STEREO_COUNT>
0

> <PUBCHEM_ISOTOPIC_ATOM_COUNT>
0

> <PUBCHEM_COMPONENT_COUNT>
1

> <PUBCHEM_CACTVS_TAUTO_COUNT>
1

> <PUBCHEM_COORDINATE_TYPE>
1
5
255

> <PUBCHEM_BONDANNOTATIONS>
8  2  5
13  3  6
6  23  6
7  24  5

$$$$

