188288
  -OEChem-07051213033D

 25 26  0     1  0  0  0  0  0999 V2000
   -3.3731   -0.4310    0.3535 O   0  0  0  0  0  0  0  0  0  0  0  0
    1.1315    0.7686   -0.4281 N   0  0  1  0  0  0  0  0  0  0  0  0
    0.2961   -0.4494   -0.4991 C   0  0  2  0  0  0  0  0  0  0  0  0
   -1.0116   -0.1015    0.2061 C   0  0  1  0  0  0  0  0  0  0  0  0
    1.1110   -1.5733    0.1274 C   0  0  0  0  0  0  0  0  0  0  0  0
   -1.1191    1.3951   -0.0561 C   0  0  0  0  0  0  0  0  0  0  0  0
    0.3202    1.8594    0.1237 C   0  0  0  0  0  0  0  0  0  0  0  0
    2.3196    0.4537    0.3677 C   0  0  0  0  0  0  0  0  0  0  0  0
    2.5294   -1.0282    0.1070 C   0  0  0  0  0  0  0  0  0  0  0  0
   -2.2038   -0.8934   -0.3021 C   0  0  0  0  0  0  0  0  0  0  0  0
    0.1210   -0.6664   -1.5607 H   0  0  0  0  0  0  0  0  0  0  0  0
   -0.9227   -0.2430    1.2926 H   0  0  0  0  0  0  0  0  0  0  0  0
    1.0290   -2.5091   -0.4337 H   0  0  0  0  0  0  0  0  0  0  0  0
    0.8041   -1.7678    1.1617 H   0  0  0  0  0  0  0  0  0  0  0  0
   -1.8002    1.8949    0.6395 H   0  0  0  0  0  0  0  0  0  0  0  0
   -1.4609    1.5947   -1.0794 H   0  0  0  0  0  0  0  0  0  0  0  0
    0.5101    2.7998   -0.4023 H   0  0  0  0  0  0  0  0  0  0  0  0
    0.5102    2.0223    1.1918 H   0  0  0  0  0  0  0  0  0  0  0  0
    2.1551    0.6058    1.4418 H   0  0  0  0  0  0  0  0  0  0  0  0
    3.1825    1.0506    0.0582 H   0  0  0  0  0  0  0  0  0  0  0  0
    3.1653   -1.5009    0.8609 H   0  0  0  0  0  0  0  0  0  0  0  0
    2.9838   -1.1869   -0.8787 H   0  0  0  0  0  0  0  0  0  0  0  0
   -2.0787   -1.9596   -0.0876 H   0  0  0  0  0  0  0  0  0  0  0  0
   -2.3388   -0.7667   -1.3814 H   0  0  0  0  0  0  0  0  0  0  0  0
   -4.1179   -0.9559    0.0140 H   0  0  0  0  0  0  0  0  0  0  0  0
  1 10  1  0  0  0  0
  1 25  1  0  0  0  0
  2  3  1  0  0  0  0
  2  7  1  0  0  0  0
  2  8  1  0  0  0  0
  3  4  1  0  0  0  0
  3  5  1  0  0  0  0
  3 11  1  0  0  0  0
  4  6  1  0  0  0  0
  4 10  1  0  0  0  0
  4 12  1  0  0  0  0
  5  9  1  0  0  0  0
  5 13  1  0  0  0  0
  5 14  1  0  0  0  0
  6  7  1  0  0  0  0
  6 15  1  0  0  0  0
  6 16  1  0  0  0  0
  7 17  1  0  0  0  0
  7 18  1  0  0  0  0
  8  9  1  0  0  0  0
  8 19  1  0  0  0  0
  8 20  1  0  0  0  0
  9 21  1  0  0  0  0
  9 22  1  0  0  0  0
 10 23  1  0  0  0  0
 10 24  1  0  0  0  0
M  END
> <PUBCHEM_COMPOUND_CID>
188288

> <PUBCHEM_CONFORMER_RMSD>
0.4

> <PUBCHEM_CONFORMER_DIVERSEORDER>
1
6
2
7
4
5
3

> <PUBCHEM_MMFF94_PARTIAL_CHARGES>
7
1 -0.68
10 0.28
2 -0.81
25 0.4
3 0.27
7 0.27
8 0.27

> <PUBCHEM_EFFECTIVE_ROTOR_COUNT>
2.2

> <PUBCHEM_PHARMACOPHORE_FEATURES>
5
1 1 acceptor
1 1 donor
1 2 cation
5 2 3 4 6 7 rings
5 2 3 5 8 9 rings

> <PUBCHEM_HEAVY_ATOM_COUNT>
10

> <PUBCHEM_ATOM_DEF_STEREO_COUNT>
2

> <PUBCHEM_ATOM_UDEF_STEREO_COUNT>
0

> <PUBCHEM_BOND_DEF_STEREO_COUNT>
0

> <PUBCHEM_BOND_UDEF_STEREO_COUNT>
0

> <PUBCHEM_ISOTOPIC_ATOM_COUNT>
0

> <PUBCHEM_COMPONENT_COUNT>
1

> <PUBCHEM_CACTVS_TAUTO_COUNT>
1

> <PUBCHEM_CONFORMER_ID>
0002DF8000000001

> <PUBCHEM_MMFF94_ENERGY>
18.4276

> <PUBCHEM_FEATURE_SELFOVERLAP>
25.664

> <PUBCHEM_SHAPE_FINGERPRINT>
10219947 1 18334857199373792943
10857977 72 18337404802227621698
12423570 1 6380935411941992684
14128692 85 18410569591537142006
16945 1 18338804420257832908
18185500 45 18336550429974052862
20201158 50 18272091586839977179
20871998 184 18044100270034411334
20871998 22 18262789795498939167
21040471 1 17546164104045359516
23552423 10 18200588228261285806
241688 4 18268709596378354080
2748010 2 18337398265303266876
29004967 10 18341613693936368835
5084963 1 18259983794885766850

> <PUBCHEM_SHAPE_MULTIPOLES>
194.94
3.7
1.73
0.68
1.46
0.43
0.01
-1.23
-0.45
-0.18
-0.02
-0.01
-0.01
-0.01

> <PUBCHEM_SHAPE_SELFOVERLAP>
397.909

> <PUBCHEM_SHAPE_VOLUME>
116.5

> <PUBCHEM_COORDINATE_TYPE>
2
5
10

$$$$

