442023
  -OEChem-07051212563D

 56 59  0     1  0  0  0  0  0999 V2000
   -4.4213   -1.6322    0.1706 O   0  0  0  0  0  0  0  0  0  0  0  0
   -5.6998    0.8043    0.2382 O   0  0  0  0  0  0  0  0  0  0  0  0
    3.2856   -1.6556    1.4635 O   0  0  0  0  0  0  0  0  0  0  0  0
    4.3973    0.3326    1.5481 O   0  0  0  0  0  0  0  0  0  0  0  0
   -1.2417   -0.7511   -0.3468 C   0  0  1  0  0  0  0  0  0  0  0  0
   -0.5792    0.6539   -0.5705 C   0  0  2  0  0  0  0  0  0  0  0  0
    0.9353    0.7969   -0.1021 C   0  0  1  0  0  0  0  0  0  0  0  0
    1.7381   -0.4338   -0.6664 C   0  0  2  0  0  0  0  0  0  0  0  0
   -1.7568   -0.9120    1.0913 C   0  0  0  0  0  0  0  0  0  0  0  0
   -2.9625    0.0279    1.0871 C   0  0  2  0  0  0  0  0  0  0  0  0
   -2.5790   -0.8293   -1.1640 C   0  0  0  0  0  0  0  0  0  0  0  0
   -0.3104   -1.8940   -0.7638 C   0  0  0  0  0  0  0  0  0  0  0  0
   -3.7024   -0.4375   -0.1808 C   0  0  1  0  0  0  0  0  0  0  0  0
   -1.5210    1.7998   -0.1143 C   0  0  0  0  0  0  0  0  0  0  0  0
    1.1084   -1.7653   -0.2188 C   0  0  0  0  0  0  0  0  0  0  0  0
   -2.4486    1.4721    1.0619 C   0  0  0  0  0  0  0  0  0  0  0  0
    3.2882   -0.3496   -0.4984 C   0  0  2  0  0  0  0  0  0  0  0  0
    1.5445    2.0837   -0.7435 C   0  0  0  0  0  0  0  0  0  0  0  0
    1.0508    0.9380    1.4330 C   0  0  0  0  0  0  0  0  0  0  0  0
    3.8056    0.9834   -1.0814 C   0  0  0  0  0  0  0  0  0  0  0  0
    3.0584    2.2118   -0.5778 C   0  0  0  0  0  0  0  0  0  0  0  0
   -4.7240    0.5362   -0.7533 C   0  0  0  0  0  0  0  0  0  0  0  0
    4.0052   -1.4920   -1.2488 C   0  0  0  0  0  0  0  0  0  0  0  0
    3.7295   -0.4882    0.9369 C   0  0  0  0  0  0  0  0  0  0  0  0
   -0.5173    0.7652   -1.6656 H   0  0  0  0  0  0  0  0  0  0  0  0
    1.5876   -0.4021   -1.7590 H   0  0  0  0  0  0  0  0  0  0  0  0
   -1.0404   -0.6548    1.8689 H   0  0  0  0  0  0  0  0  0  0  0  0
   -2.0733   -1.9449    1.2867 H   0  0  0  0  0  0  0  0  0  0  0  0
   -3.5655   -0.1343    1.9883 H   0  0  0  0  0  0  0  0  0  0  0  0
   -2.5463   -0.1659   -2.0356 H   0  0  0  0  0  0  0  0  0  0  0  0
   -2.7409   -1.8462   -1.5434 H   0  0  0  0  0  0  0  0  0  0  0  0
   -0.2556   -1.9319   -1.8605 H   0  0  0  0  0  0  0  0  0  0  0  0
   -0.7273   -2.8599   -0.4512 H   0  0  0  0  0  0  0  0  0  0  0  0
   -2.1493    2.0653   -0.9738 H   0  0  0  0  0  0  0  0  0  0  0  0
   -0.9757    2.7201    0.1125 H   0  0  0  0  0  0  0  0  0  0  0  0
    1.0602   -1.8637    0.8681 H   0  0  0  0  0  0  0  0  0  0  0  0
    1.6767   -2.6206   -0.5954 H   0  0  0  0  0  0  0  0  0  0  0  0
   -1.9103    1.6602    1.9989 H   0  0  0  0  0  0  0  0  0  0  0  0
   -3.2901    2.1748    1.0638 H   0  0  0  0  0  0  0  0  0  0  0  0
    1.0853    2.9844   -0.3218 H   0  0  0  0  0  0  0  0  0  0  0  0
    1.3186    2.0978   -1.8181 H   0  0  0  0  0  0  0  0  0  0  0  0
    0.8825    0.0001    1.9620 H   0  0  0  0  0  0  0  0  0  0  0  0
    2.0301    1.2931    1.7563 H   0  0  0  0  0  0  0  0  0  0  0  0
    0.3446    1.6755    1.8226 H   0  0  0  0  0  0  0  0  0  0  0  0
    3.7088    0.9565   -2.1757 H   0  0  0  0  0  0  0  0  0  0  0  0
    4.8766    1.1122   -0.8777 H   0  0  0  0  0  0  0  0  0  0  0  0
    3.3164    2.4198    0.4648 H   0  0  0  0  0  0  0  0  0  0  0  0
    3.4005    3.0878   -1.1429 H   0  0  0  0  0  0  0  0  0  0  0  0
   -5.2402    0.0896   -1.6105 H   0  0  0  0  0  0  0  0  0  0  0  0
   -4.2807    1.4800   -1.0775 H   0  0  0  0  0  0  0  0  0  0  0  0
    5.0939   -1.3590   -1.2132 H   0  0  0  0  0  0  0  0  0  0  0  0
    3.8053   -2.4838   -0.8316 H   0  0  0  0  0  0  0  0  0  0  0  0
    3.7118   -1.5118   -2.3046 H   0  0  0  0  0  0  0  0  0  0  0  0
   -4.8387   -1.9788   -0.6365 H   0  0  0  0  0  0  0  0  0  0  0  0
   -6.3456    1.4170   -0.1528 H   0  0  0  0  0  0  0  0  0  0  0  0
    3.5607   -1.7635    2.3988 H   0  0  0  0  0  0  0  0  0  0  0  0
  1 13  1  0  0  0  0
  1 54  1  0  0  0  0
  2 22  1  0  0  0  0
  2 55  1  0  0  0  0
  3 24  1  0  0  0  0
  3 56  1  0  0  0  0
  4 24  2  0  0  0  0
  5  6  1  0  0  0  0
  5  9  1  0  0  0  0
  5 11  1  0  0  0  0
  5 12  1  0  0  0  0
  6  7  1  0  0  0  0
  6 14  1  0  0  0  0
  6 25  1  0  0  0  0
  7  8  1  0  0  0  0
  7 18  1  0  0  0  0
  7 19  1  0  0  0  0
  8 15  1  0  0  0  0
  8 17  1  0  0  0  0
  8 26  1  0  0  0  0
  9 10  1  0  0  0  0
  9 27  1  0  0  0  0
  9 28  1  0  0  0  0
 10 13  1  0  0  0  0
 10 16  1  0  0  0  0
 10 29  1  0  0  0  0
 11 13  1  0  0  0  0
 11 30  1  0  0  0  0
 11 31  1  0  0  0  0
 12 15  1  0  0  0  0
 12 32  1  0  0  0  0
 12 33  1  0  0  0  0
 13 22  1  0  0  0  0
 14 16  1  0  0  0  0
 14 34  1  0  0  0  0
 14 35  1  0  0  0  0
 15 36  1  0  0  0  0
 15 37  1  0  0  0  0
 16 38  1  0  0  0  0
 16 39  1  0  0  0  0
 17 20  1  0  0  0  0
 17 23  1  0  0  0  0
 17 24  1  0  0  0  0
 18 21  1  0  0  0  0
 18 40  1  0  0  0  0
 18 41  1  0  0  0  0
 19 42  1  0  0  0  0
 19 43  1  0  0  0  0
 19 44  1  0  0  0  0
 20 21  1  0  0  0  0
 20 45  1  0  0  0  0
 20 46  1  0  0  0  0
 21 47  1  0  0  0  0
 21 48  1  0  0  0  0
 22 49  1  0  0  0  0
 22 50  1  0  0  0  0
 23 51  1  0  0  0  0
 23 52  1  0  0  0  0
 23 53  1  0  0  0  0
M  END
> <PUBCHEM_COMPOUND_CID>
442023

> <PUBCHEM_CONFORMER_RMSD>
0.8

> <PUBCHEM_CONFORMER_DIVERSEORDER>
1
2

> <PUBCHEM_MMFF94_PARTIAL_CHARGES>
11
1 -0.68
13 0.28
17 0.06
2 -0.68
22 0.28
24 0.66
3 -0.65
4 -0.57
54 0.4
55 0.4
56 0.5

> <PUBCHEM_EFFECTIVE_ROTOR_COUNT>
4.2

> <PUBCHEM_PHARMACOPHORE_FEATURES>
10
1 1 acceptor
1 1 donor
1 2 acceptor
1 2 donor
1 3 acceptor
1 4 acceptor
3 3 4 24 anion
6 5 6 7 8 12 15 rings
6 7 8 17 18 20 21 rings
8 5 6 9 10 11 13 14 16 rings

> <PUBCHEM_HEAVY_ATOM_COUNT>
24

> <PUBCHEM_ATOM_DEF_STEREO_COUNT>
7

> <PUBCHEM_ATOM_UDEF_STEREO_COUNT>
0

> <PUBCHEM_BOND_DEF_STEREO_COUNT>
0

> <PUBCHEM_BOND_UDEF_STEREO_COUNT>
0

> <PUBCHEM_ISOTOPIC_ATOM_COUNT>
0

> <PUBCHEM_COMPONENT_COUNT>
1

> <PUBCHEM_CACTVS_TAUTO_COUNT>
1

> <PUBCHEM_CONFORMER_ID>
0006BEA700000001

> <PUBCHEM_MMFF94_ENERGY>
105.0576

> <PUBCHEM_FEATURE_SELFOVERLAP>
50.839

> <PUBCHEM_SHAPE_FINGERPRINT>
10062212 137 18336552638236154479
10366900 7 17632568358020737130
10646746 165 17240477056815364080
10863032 1 17845650344060483019
11132069 177 18186522098555369831
11578080 2 18192176899858884344
12011746 2 18411411855988038991
12236239 1 18412546492322377060
12553582 1 18201427129884684576
12592029 89 18271807955863459075
12633257 1 17917711313926946626
12670545 2 18342460352297058462
12670546 56 17023182759929966395
12788726 201 18335691767375645024
13140716 1 18265902345576894250
13224815 77 18334852796926631084
13533116 47 17489308637162150195
13583140 156 17631726076068140129
13675066 3 18113337500825168151
14178342 30 18119812662356204176
14289901 80 16732990816479953282
15196674 1 18409725132458190407
15536298 74 18113613504092587190
15788980 27 17917712413385735443
16752209 62 18187356670756782028
16945 1 18341608231012450318
17349148 13 18408604773085591719
17492 89 18337386050338045791
1813 80 18341047545029156990
18186145 218 17918272039113578126
192875 21 18408887347284085105
19862831 5 17561367283445940089
200 152 18040435499527432029
20645477 70 18341890771114494966
20715895 44 18195253437026056389
21033648 29 17313681454339564978
21267235 1 18335969947974802407
2255824 54 18131062689649327756
22854114 59 17312824874583451858
23402539 116 18187092736742863847
23557571 272 17095517452415278009
23559900 14 18261104184486777526
2838139 119 17844829147200186157
296302 2 17703786998916686423
3286 77 17458065975414135537
335352 9 18410288155252151743
34797466 226 15502658157328588441
34934 24 18269273470003172436
350125 39 18408318904057150596
3680242 22 18270115850459897217
4072396 5 18339935908096644555
474 4 18410851057786884886
5104073 3 18341890754140529905
633830 44 18343302548313419255
9709674 26 18340477885566646911
9971528 1 18260547848830341196
9981440 41 17541671508483268472

> <PUBCHEM_SHAPE_MULTIPOLES>
470.43
9.21
2.09
1.34
4.5
0.22
-0.33
-0.15
-0.09
-0.77
0.27
-0.73
-0.05
-0.4

> <PUBCHEM_SHAPE_SELFOVERLAP>
1011.198

> <PUBCHEM_SHAPE_VOLUME>
258

> <PUBCHEM_COORDINATE_TYPE>
2
5
10

$$$$

