7289
  -OEChem-06261201593D

 12 11  0     0  0  0  0  0  0999 V2000
   -2.2337   -0.6145   -0.6971 Cl  0  0  0  0  0  0  0  0  0  0  0  0
    2.5976   -0.3094   -0.1928 Cl  0  0  0  0  0  0  0  0  0  0  0  0
    0.0913    1.4081   -0.4416 O   0  0  0  0  0  0  0  0  0  0  0  0
    0.0518    0.3546    0.5193 C   0  0  0  0  0  0  0  0  0  0  0  0
   -1.4104   -0.0181    0.7678 C   0  0  0  0  0  0  0  0  0  0  0  0
    0.9034   -0.8208    0.0444 C   0  0  0  0  0  0  0  0  0  0  0  0
    0.4639    0.7531    1.4544 H   0  0  0  0  0  0  0  0  0  0  0  0
   -1.9732    0.8600    1.0993 H   0  0  0  0  0  0  0  0  0  0  0  0
   -1.4915   -0.7951    1.5337 H   0  0  0  0  0  0  0  0  0  0  0  0
    0.8968   -1.6387    0.7704 H   0  0  0  0  0  0  0  0  0  0  0  0
    0.5706   -1.1990   -0.9258 H   0  0  0  0  0  0  0  0  0  0  0  0
    1.0257    1.6366   -0.5846 H   0  0  0  0  0  0  0  0  0  0  0  0
  1  5  1  0  0  0  0
  2  6  1  0  0  0  0
  3  4  1  0  0  0  0
  3 12  1  0  0  0  0
  4  5  1  0  0  0  0
  4  6  1  0  0  0  0
  4  7  1  0  0  0  0
  5  8  1  0  0  0  0
  5  9  1  0  0  0  0
  6 10  1  0  0  0  0
  6 11  1  0  0  0  0
M  END
> <PUBCHEM_COMPOUND_CID>
7289

> <PUBCHEM_CONFORMER_RMSD>
0.4

> <PUBCHEM_CONFORMER_DIVERSEORDER>
1
9
5
2
6
8
7
4
3

> <PUBCHEM_MMFF94_PARTIAL_CHARGES>
7
1 -0.29
12 0.4
2 -0.29
3 -0.68
4 0.28
5 0.29
6 0.29

> <PUBCHEM_EFFECTIVE_ROTOR_COUNT>
2

> <PUBCHEM_PHARMACOPHORE_FEATURES>
2
1 3 acceptor
1 3 donor

> <PUBCHEM_HEAVY_ATOM_COUNT>
6

> <PUBCHEM_ATOM_DEF_STEREO_COUNT>
0

> <PUBCHEM_ATOM_UDEF_STEREO_COUNT>
0

> <PUBCHEM_BOND_DEF_STEREO_COUNT>
0

> <PUBCHEM_BOND_UDEF_STEREO_COUNT>
0

> <PUBCHEM_ISOTOPIC_ATOM_COUNT>
0

> <PUBCHEM_COMPONENT_COUNT>
1

> <PUBCHEM_CACTVS_TAUTO_COUNT>
1

> <PUBCHEM_CONFORMER_ID>
00001C7900000001

> <PUBCHEM_MMFF94_ENERGY>
4.3861

> <PUBCHEM_FEATURE_SELFOVERLAP>
10.148

> <PUBCHEM_SHAPE_FINGERPRINT>
139733 1 10087637096032869603
14390081 3 14117797998767299446
16714656 1 18334853948088805174
20096714 4 11455892468382557587
20653085 51 13973395924092915222
29004967 10 18272360975504157042
5460574 1 11600004340822782306
5943 1 9488910632114076601

> <PUBCHEM_SHAPE_MULTIPOLES>
121.35
3.26
1.08
0.87
0.81
0.14
0.02
-0.99
-0.47
-0.05
-0.17
-0.24
0.05
-0.2

> <PUBCHEM_SHAPE_SELFOVERLAP>
196.524

> <PUBCHEM_SHAPE_VOLUME>
86.4

> <PUBCHEM_COORDINATE_TYPE>
2
5
10

$$$$

