14159
  -OEChem-06241222423D

 34 36  0     1  0  0  0  0  0999 V2000
   -2.8197    1.3805    1.5079 S   0  0  0  0  0  0  0  0  0  0  0  0
   -1.7835   -3.2713   -1.4625 O   0  0  0  0  0  0  0  0  0  0  0  0
    0.0295   -3.5798   -0.1315 O   0  0  0  0  0  0  0  0  0  0  0  0
   -0.8205   -1.3079   -0.4942 C   0  0  2  0  0  0  0  0  0  0  0  0
    0.3201   -0.7923    0.3283 C   0  0  0  0  0  0  0  0  0  0  0  0
   -2.2181   -0.8700    0.0289 C   0  0  0  0  0  0  0  0  0  0  0  0
    1.3162    0.0349   -0.2156 C   0  0  0  0  0  0  0  0  0  0  0  0
    2.3688    0.4887    0.6147 C   0  0  0  0  0  0  0  0  0  0  0  0
    0.3611   -1.1668    1.6716 C   0  0  0  0  0  0  0  0  0  0  0  0
   -2.4006    0.6300    0.0448 C   0  0  0  0  0  0  0  0  0  0  0  0
   -0.7903   -2.8322   -0.6450 C   0  0  0  0  0  0  0  0  0  0  0  0
    1.2908    0.4218   -1.5654 C   0  0  0  0  0  0  0  0  0  0  0  0
    2.3942    0.1014    1.9644 C   0  0  0  0  0  0  0  0  0  0  0  0
    1.3962   -0.7210    2.4881 C   0  0  0  0  0  0  0  0  0  0  0  0
    3.3649    1.3161    0.0707 C   0  0  0  0  0  0  0  0  0  0  0  0
   -2.2687    1.4886   -0.9991 C   0  0  0  0  0  0  0  0  0  0  0  0
    2.2888    1.2439   -2.0892 C   0  0  0  0  0  0  0  0  0  0  0  0
    3.3238    1.6903   -1.2728 C   0  0  0  0  0  0  0  0  0  0  0  0
   -2.5209    2.8305   -0.5917 C   0  0  0  0  0  0  0  0  0  0  0  0
   -2.8322    2.9147    0.7475 C   0  0  0  0  0  0  0  0  0  0  0  0
   -0.7729   -0.9705   -1.5289 H   0  0  0  0  0  0  0  0  0  0  0  0
   -2.4078   -1.3054    1.0185 H   0  0  0  0  0  0  0  0  0  0  0  0
   -3.0045   -1.2809   -0.6189 H   0  0  0  0  0  0  0  0  0  0  0  0
   -0.3999   -1.8103    2.1049 H   0  0  0  0  0  0  0  0  0  0  0  0
    0.5304    0.1235   -2.2754 H   0  0  0  0  0  0  0  0  0  0  0  0
    3.1938    0.4379    2.6211 H   0  0  0  0  0  0  0  0  0  0  0  0
    1.4284   -1.0138    3.5335 H   0  0  0  0  0  0  0  0  0  0  0  0
    4.1832    1.6767    0.6903 H   0  0  0  0  0  0  0  0  0  0  0  0
   -2.0118    1.1962   -2.0088 H   0  0  0  0  0  0  0  0  0  0  0  0
    2.2590    1.5362   -3.1349 H   0  0  0  0  0  0  0  0  0  0  0  0
    4.1004    2.3304   -1.6813 H   0  0  0  0  0  0  0  0  0  0  0  0
   -2.4771    3.6900   -1.2477 H   0  0  0  0  0  0  0  0  0  0  0  0
   -3.0664    3.8039    1.3158 H   0  0  0  0  0  0  0  0  0  0  0  0
   -1.7604   -4.2456   -1.5743 H   0  0  0  0  0  0  0  0  0  0  0  0
  1 10  1  0  0  0  0
  1 20  1  0  0  0  0
  2 11  1  0  0  0  0
  2 34  1  0  0  0  0
  3 11  2  0  0  0  0
  4  5  1  0  0  0  0
  4  6  1  0  0  0  0
  4 11  1  0  0  0  0
  4 21  1  0  0  0  0
  5  7  1  0  0  0  0
  5  9  2  0  0  0  0
  6 10  1  0  0  0  0
  6 22  1  0  0  0  0
  6 23  1  0  0  0  0
  7  8  1  0  0  0  0
  7 12  2  0  0  0  0
  8 13  1  0  0  0  0
  8 15  2  0  0  0  0
  9 14  1  0  0  0  0
  9 24  1  0  0  0  0
 10 16  2  0  0  0  0
 12 17  1  0  0  0  0
 12 25  1  0  0  0  0
 13 14  2  0  0  0  0
 13 26  1  0  0  0  0
 14 27  1  0  0  0  0
 15 18  1  0  0  0  0
 15 28  1  0  0  0  0
 16 19  1  0  0  0  0
 16 29  1  0  0  0  0
 17 18  2  0  0  0  0
 17 30  1  0  0  0  0
 18 31  1  0  0  0  0
 19 20  2  0  0  0  0
 19 32  1  0  0  0  0
 20 33  1  0  0  0  0
M  END
> <PUBCHEM_COMPOUND_CID>
14159

> <PUBCHEM_CONFORMER_RMSD>
0.6

> <PUBCHEM_CONFORMER_DIVERSEORDER>
1
48
59
57
34
65
61
29
58
62
42
31
23
3
37
21
16
2
11
63
52
43
64
49
50
17
66
26
30
55
7
38
20
5
32
53
44
54
67
51
60
15
35
4
45
13
39
8
47
40
14
22
10
12
9
28
36
46
25
33
19
6
27
41
18
56
24

> <PUBCHEM_MMFF94_PARTIAL_CHARGES>
29
1 -0.08
10 -0.14
11 0.66
12 -0.15
13 -0.15
14 -0.15
15 -0.15
16 -0.15
17 -0.15
18 -0.15
19 -0.15
2 -0.65
20 -0.11
24 0.15
25 0.15
26 0.15
27 0.15
28 0.15
29 0.15
3 -0.57
30 0.15
31 0.15
32 0.15
33 0.15
34 0.5
4 0.2
5 -0.14
6 0.18
9 -0.15

> <PUBCHEM_EFFECTIVE_ROTOR_COUNT>
4

> <PUBCHEM_PHARMACOPHORE_FEATURES>
6
1 2 acceptor
1 3 acceptor
3 2 3 11 anion
5 1 10 16 19 20 rings
6 5 7 8 9 13 14 rings
6 7 8 12 15 17 18 rings

> <PUBCHEM_HEAVY_ATOM_COUNT>
20

> <PUBCHEM_ATOM_DEF_STEREO_COUNT>
0

> <PUBCHEM_ATOM_UDEF_STEREO_COUNT>
1

> <PUBCHEM_BOND_DEF_STEREO_COUNT>
0

> <PUBCHEM_BOND_UDEF_STEREO_COUNT>
0

> <PUBCHEM_ISOTOPIC_ATOM_COUNT>
0

> <PUBCHEM_COMPONENT_COUNT>
1

> <PUBCHEM_CACTVS_TAUTO_COUNT>
1

> <PUBCHEM_CONFORMER_ID>
0000374F00000001

> <PUBCHEM_MMFF94_ENERGY>
52.4879

> <PUBCHEM_FEATURE_SELFOVERLAP>
30.531

> <PUBCHEM_SHAPE_FINGERPRINT>
10165383 225 17826195684361500641
11244481 83 17340939541730268035
11578080 2 17606375697941213600
11640471 11 18202010923035045789
11725454 13 16229190194965739218
12156800 1 14892797535528372140
12788726 201 18195535783168822151
128993 33 17896589777441777577
13009979 54 17912115805065120842
13134695 92 16745662980253413717
13583140 156 17026316248532880594
13681431 1 17253417415463774495
13965767 371 18055918937670271556
14617773 55 17986130525420469846
14713325 29 17982133813702241910
14817 1 6832085824506940306
15534591 1 17987219067765244248
15664445 248 17542222359218319990
16945 1 18264209101901419126
17357990 137 18272091638337178800
18981168 100 18191014815068097089
20369508 70 9582360891803455385
20600515 1 17394473307004063891
20715895 44 17411928432664287733
21524375 3 18272639156251734788
21756936 100 17343755155197745260
22112679 90 18051983519466461719
23419403 2 15606711728280790338
23557571 272 17755302275463318592
23559900 14 17763733696393839313
298252 57 18268404950126843268
3383291 50 10301229364061612466
350125 39 18262793107467298455
3797600 57 17915433087348664457
484985 159 13462009977938438489
6438718 38 17910077297458498948
6442390 28 18041820888568433723
6992083 37 17983892065770165410
7364860 26 17905041813381180533
81228 2 18045214934523299463

> <PUBCHEM_SHAPE_MULTIPOLES>
403.7
5.1
3.54
2.07
0.32
2.42
0.65
-4.78
0.23
1.92
-1.42
-1.02
0.09
-1.42

> <PUBCHEM_SHAPE_SELFOVERLAP>
873.864

> <PUBCHEM_SHAPE_VOLUME>
221.9

> <PUBCHEM_COORDINATE_TYPE>
2
5
10

$$$$

