582708
  -OEChem-06241222433D

 43 44  0     0  0  0  0  0  0999 V2000
    6.6229   -0.7649    0.7987 S   0  0  0  0  0  0  0  0  0  0  0  0
    8.1747    0.4753    0.1339 S   0  0  0  0  0  0  0  0  0  0  0  0
   -2.0104   -0.5264   -1.1367 O   0  0  0  0  0  0  0  0  0  0  0  0
    9.4996   -0.1055    0.8852 O   0  0  0  0  0  0  0  0  0  0  0  0
    8.3329    0.2472   -1.2897 O   0  0  0  0  0  0  0  0  0  0  0  0
    7.9171    1.8063    0.6489 O   0  0  0  0  0  0  0  0  0  0  0  0
    2.7750   -0.3005   -0.4009 N   0  0  0  0  0  0  0  0  0  0  0  0
   -5.7459   -0.6979    0.6558 N   0  0  0  0  0  0  0  0  0  0  0  0
    0.3606   -0.4213   -0.7905 C   0  0  0  0  0  0  0  0  0  0  0  0
    1.5531   -1.0111   -0.0444 C   0  0  0  0  0  0  0  0  0  0  0  0
   -0.9356   -1.1299   -0.4214 C   0  0  0  0  0  0  0  0  0  0  0  0
    3.9242   -0.8602    0.2966 C   0  0  0  0  0  0  0  0  0  0  0  0
   -3.2407   -0.5586   -0.5469 C   0  0  0  0  0  0  0  0  0  0  0  0
   -3.9340    0.6185   -0.2339 C   0  0  0  0  0  0  0  0  0  0  0  0
   -5.2009    0.5010    0.3751 C   0  0  0  0  0  0  0  0  0  0  0  0
    5.1803   -0.0770   -0.0642 C   0  0  0  0  0  0  0  0  0  0  0  0
   -3.7997   -1.7953   -0.2588 C   0  0  0  0  0  0  0  0  0  0  0  0
   -5.0441   -1.8097    0.3376 C   0  0  0  0  0  0  0  0  0  0  0  0
   -3.3955    1.8860   -0.5128 C   0  0  0  0  0  0  0  0  0  0  0  0
   -5.8893    1.6706    0.6857 C   0  0  0  0  0  0  0  0  0  0  0  0
   -4.1057    3.0392   -0.1914 C   0  0  0  0  0  0  0  0  0  0  0  0
   -5.3540    2.9310    0.4086 C   0  0  0  0  0  0  0  0  0  0  0  0
   -5.6847   -3.1169    0.6654 C   0  0  0  0  0  0  0  0  0  0  0  0
    0.2595    0.6490   -0.5678 H   0  0  0  0  0  0  0  0  0  0  0  0
    0.5144   -0.4879   -1.8754 H   0  0  0  0  0  0  0  0  0  0  0  0
    1.3766   -0.9412    1.0360 H   0  0  0  0  0  0  0  0  0  0  0  0
    1.6474   -2.0730   -0.3018 H   0  0  0  0  0  0  0  0  0  0  0  0
   -1.0993   -1.0559    0.6616 H   0  0  0  0  0  0  0  0  0  0  0  0
   -0.8778   -2.1892   -0.6967 H   0  0  0  0  0  0  0  0  0  0  0  0
    2.6774    0.6880   -0.1702 H   0  0  0  0  0  0  0  0  0  0  0  0
    4.0500   -1.9124    0.0121 H   0  0  0  0  0  0  0  0  0  0  0  0
    3.7600   -0.8177    1.3809 H   0  0  0  0  0  0  0  0  0  0  0  0
    5.0744    0.9756    0.2201 H   0  0  0  0  0  0  0  0  0  0  0  0
    5.3645   -0.1204   -1.1431 H   0  0  0  0  0  0  0  0  0  0  0  0
   -3.2858   -2.7198   -0.5002 H   0  0  0  0  0  0  0  0  0  0  0  0
   -2.4200    1.9931   -0.9816 H   0  0  0  0  0  0  0  0  0  0  0  0
   -6.8691    1.6128    1.1562 H   0  0  0  0  0  0  0  0  0  0  0  0
   -3.6864    4.0169   -0.4082 H   0  0  0  0  0  0  0  0  0  0  0  0
   -5.9151    3.8254    0.6628 H   0  0  0  0  0  0  0  0  0  0  0  0
   -6.6635   -2.9693    1.1338 H   0  0  0  0  0  0  0  0  0  0  0  0
   -5.8319   -3.7076   -0.2444 H   0  0  0  0  0  0  0  0  0  0  0  0
   -5.0592   -3.6833    1.3628 H   0  0  0  0  0  0  0  0  0  0  0  0
    9.4560   -0.1149    1.8702 H   0  0  0  0  0  0  0  0  0  0  0  0
  1  2  1  0  0  0  0
  1 16  1  0  0  0  0
  2  4  1  0  0  0  0
  2  5  2  0  0  0  0
  2  6  2  0  0  0  0
  3 11  1  0  0  0  0
  3 13  1  0  0  0  0
  4 43  1  0  0  0  0
  7 10  1  0  0  0  0
  7 12  1  0  0  0  0
  7 30  1  0  0  0  0
  8 15  1  0  0  0  0
  8 18  2  0  0  0  0
  9 10  1  0  0  0  0
  9 11  1  0  0  0  0
  9 24  1  0  0  0  0
  9 25  1  0  0  0  0
 10 26  1  0  0  0  0
 10 27  1  0  0  0  0
 11 28  1  0  0  0  0
 11 29  1  0  0  0  0
 12 16  1  0  0  0  0
 12 31  1  0  0  0  0
 12 32  1  0  0  0  0
 13 14  1  0  0  0  0
 13 17  2  0  0  0  0
 14 15  1  0  0  0  0
 14 19  2  0  0  0  0
 15 20  2  0  0  0  0
 16 33  1  0  0  0  0
 16 34  1  0  0  0  0
 17 18  1  0  0  0  0
 17 35  1  0  0  0  0
 18 23  1  0  0  0  0
 19 21  1  0  0  0  0
 19 36  1  0  0  0  0
 20 22  1  0  0  0  0
 20 37  1  0  0  0  0
 21 22  2  0  0  0  0
 21 38  1  0  0  0  0
 22 39  1  0  0  0  0
 23 40  1  0  0  0  0
 23 41  1  0  0  0  0
 23 42  1  0  0  0  0
M  END
> <PUBCHEM_COMPOUND_CID>
582708

> <PUBCHEM_CONFORMER_RMSD>
1

> <PUBCHEM_CONFORMER_DIVERSEORDER>
1
48
175
206
96
192
159
151
85
71
161
97
220
200
8
117
140
138
32
147
121
111
25
185
190
188
126
202
209
173
47
213
54
30
229
19
92
205
116
7
160
186
130
81
66
75
196
191
78
224
134
201
157
223
69
163
106
215
137
131
9
115
50
91
172
165
23
167
80
169
171
60
227
166
70
62
26
123
154
148
18
102
158
56
6
33
40
10
61
46
113
184
194
39
122
13
84
149
133
107
178
24
127
189
73
109
11
124
199
37
16
168
5
219
197
42
12
74
162
89
193
145
195
29
142
93
170
144
208
146
207
77
112
44
31
55
59
68
125
49
17
22
141
228
222
155
128
132
63
136
65
83
58
90
99
2
135
187
15
119
41
182
211
21
4
210
129
180
143
87
88
152
82
177
214
105
198
67
57
139
52
100
110
204
183
72
34
212
218
108
95
94
28
76
230
118
156
3
45
43
203
20
38
114
53
226
35
120
181
164
176
79
36
14
217
98
153
225
104
150
103
101
221
216
86
179
27
174
64
51

> <PUBCHEM_MMFF94_PARTIAL_CHARGES>
28
1 -0.35
10 0.27
11 0.28
12 0.27
13 0.08
15 0.31
16 0.23
17 -0.15
18 0.17
19 -0.15
2 1.6
20 -0.15
21 -0.15
22 -0.15
23 0.14
3 -0.36
30 0.36
35 0.15
36 0.15
37 0.15
38 0.15
39 0.15
4 -0.68
43 0.5
5 -0.65
6 -0.65
7 -0.9
8 -0.62

> <PUBCHEM_EFFECTIVE_ROTOR_COUNT>
9

> <PUBCHEM_PHARMACOPHORE_FEATURES>
10
1 3 acceptor
1 4 acceptor
1 5 acceptor
1 6 acceptor
1 7 cation
1 7 donor
1 8 acceptor
4 2 4 5 6 anion
6 14 15 19 20 21 22 rings
6 8 13 14 15 17 18 rings

> <PUBCHEM_HEAVY_ATOM_COUNT>
23

> <PUBCHEM_ATOM_DEF_STEREO_COUNT>
0

> <PUBCHEM_ATOM_UDEF_STEREO_COUNT>
0

> <PUBCHEM_BOND_DEF_STEREO_COUNT>
0

> <PUBCHEM_BOND_UDEF_STEREO_COUNT>
0

> <PUBCHEM_ISOTOPIC_ATOM_COUNT>
0

> <PUBCHEM_COMPONENT_COUNT>
1

> <PUBCHEM_CACTVS_TAUTO_COUNT>
1

> <PUBCHEM_CONFORMER_ID>
0008E43400000001

> <PUBCHEM_MMFF94_ENERGY>
45.9359

> <PUBCHEM_FEATURE_SELFOVERLAP>
50.832

> <PUBCHEM_SHAPE_FINGERPRINT>
10 15 18412543240652365033
100830 39 18409731789642239984
10100884 174 17914616051262436683
10299344 5 18060420210252912474
10319926 262 18336558160920480435
10411042 1 18122061997829930175
11315181 36 18130788945513613903
12082328 90 18410014338561182750
12091667 2 18186243917760806511
13073987 5 18342176691462127554
13403585 85 18409166623617003905
14251764 18 17846498115461312838
14844126 61 18343013360520119603
14849402 71 18059849507826020052
14933364 13 18335420171429603310
15183329 4 4823211685235863404
15461852 350 17604158060186046789
16989713 51 17386861508200882375
17093844 174 18343584053634261139
17780758 139 18201719553207857783
21130935 74 18343023320169691626
21756936 100 18334582343079134735
23559900 14 18047163514394620703
3663271 9 18201443601369316178
4073 2 18343577469291959610
5104073 3 18342181119404507714
5758199 1 17989487425136876298
9689198 14 18261109669676822942
9953998 17 18343863333882820025

> <PUBCHEM_SHAPE_MULTIPOLES>
447.59
27.56
2.83
0.93
75.2
0.86
-0.06
5.89
5.97
-7.57
0.45
0.46
-0.03
0.17

> <PUBCHEM_SHAPE_SELFOVERLAP>
899.207

> <PUBCHEM_SHAPE_VOLUME>
265.4

> <PUBCHEM_COORDINATE_TYPE>
2
5
10

$$$$

