245225
  -OEChem-07051213072D

 58 61  0     1  0  0  0  0  0999 V2000
    6.5169   -3.5887    0.0000 Br  0  0  0  0  0  0  0  0  0  0  0  0
    4.7848   -3.5954    0.0000 Br  0  0  0  0  0  0  0  0  0  0  0  0
    8.6500    2.2324    0.0000 O   0  0  0  0  0  0  0  0  0  0  0  0
    2.0000   -2.0751    0.0000 O   0  0  0  0  0  0  0  0  0  0  0  0
   10.2963    1.6944    0.0000 O   0  0  0  0  0  0  0  0  0  0  0  0
    7.3931   -0.0228    0.0000 C   0  0  2  0  0  0  0  0  0  0  0  0
    7.3931    0.9772    0.0000 C   0  0  2  0  0  0  0  0  0  0  0  0
    6.5271   -0.5228    0.0000 C   0  0  1  0  0  0  0  0  0  0  0  0
    5.6610   -0.0228    0.0000 C   0  0  1  0  0  0  0  0  0  0  0  0
    6.5271    1.4772    0.0000 C   0  0  0  0  0  0  0  0  0  0  0  0
    4.7510   -0.5297    0.0000 C   0  0  2  0  0  0  0  0  0  0  0  0
    8.3393    1.2819    0.0000 C   0  0  2  0  0  0  0  0  0  0  0  0
    5.6610    0.9772    0.0000 C   0  0  0  0  0  0  0  0  0  0  0  0
    8.3393   -0.3275    0.0000 C   0  0  0  0  0  0  0  0  0  0  0  0
    8.9229    0.4772    0.0000 C   0  0  0  0  0  0  0  0  0  0  0  0
    6.5431   -1.5643    0.0000 C   0  0  0  0  0  0  0  0  0  0  0  0
    7.3931    1.9772    0.0000 C   0  0  0  0  0  0  0  0  0  0  0  0
    4.7430   -1.5713    0.0000 C   0  0  0  0  0  0  0  0  0  0  0  0
    3.8242    0.0344    0.0000 C   0  0  0  0  0  0  0  0  0  0  0  0
    5.6451   -2.0921    0.0000 C   0  0  0  0  0  0  0  0  0  0  0  0
    4.7587    0.4703    0.0000 C   0  0  0  0  0  0  0  0  0  0  0  0
    2.8763   -0.4935    0.0000 C   0  0  0  0  0  0  0  0  0  0  0  0
    3.8076   -2.1210    0.0000 C   0  0  0  0  0  0  0  0  0  0  0  0
    2.8680   -1.5785    0.0000 C   0  0  0  0  0  0  0  0  0  0  0  0
    5.6489   -3.0921    0.0000 C   0  0  0  0  0  0  0  0  0  0  0  0
    9.6285    2.4387    0.0000 C   0  0  0  0  0  0  0  0  0  0  0  0
    9.9391    3.3892    0.0000 C   0  0  0  0  0  0  0  0  0  0  0  0
   10.9176    3.5954    0.0000 C   0  0  0  0  0  0  0  0  0  0  0  0
    7.4830   -0.8680    0.0000 H   0  0  0  0  0  0  0  0  0  0  0  0
    7.2664   -0.9421    0.0000 H   0  0  0  0  0  0  0  0  0  0  0  0
    6.3972    0.4022    0.0000 H   0  0  0  0  0  0  0  0  0  0  0  0
    6.9256    1.9521    0.0000 H   0  0  0  0  0  0  0  0  0  0  0  0
    6.1285    1.9521    0.0000 H   0  0  0  0  0  0  0  0  0  0  0  0
    7.9018    1.7213    0.0000 H   0  0  0  0  0  0  0  0  0  0  0  0
    5.4490    1.5598    0.0000 H   0  0  0  0  0  0  0  0  0  0  0  0
    5.0504    0.8695    0.0000 H   0  0  0  0  0  0  0  0  0  0  0  0
    8.0883   -0.8944    0.0000 H   0  0  0  0  0  0  0  0  0  0  0  0
    8.8767   -0.6368    0.0000 H   0  0  0  0  0  0  0  0  0  0  0  0
    9.3838    0.0625    0.0000 H   0  0  0  0  0  0  0  0  0  0  0  0
    9.3838    0.8919    0.0000 H   0  0  0  0  0  0  0  0  0  0  0  0
    6.7612   -2.1447    0.0000 H   0  0  0  0  0  0  0  0  0  0  0  0
    7.1523   -1.4488    0.0000 H   0  0  0  0  0  0  0  0  0  0  0  0
    8.0131    1.9772    0.0000 H   0  0  0  0  0  0  0  0  0  0  0  0
    7.3931    2.5972    0.0000 H   0  0  0  0  0  0  0  0  0  0  0  0
    6.7731    1.9772    0.0000 H   0  0  0  0  0  0  0  0  0  0  0  0
    4.2324    0.5011    0.0000 H   0  0  0  0  0  0  0  0  0  0  0  0
    3.4343    0.5165    0.0000 H   0  0  0  0  0  0  0  0  0  0  0  0
    5.3787    0.4655    0.0000 H   0  0  0  0  0  0  0  0  0  0  0  0
    4.7635    1.0903    0.0000 H   0  0  0  0  0  0  0  0  0  0  0  0
    4.1388    0.4751    0.0000 H   0  0  0  0  0  0  0  0  0  0  0  0
    2.6718    0.0918    0.0000 H   0  0  0  0  0  0  0  0  0  0  0  0
    2.2647   -0.5949    0.0000 H   0  0  0  0  0  0  0  0  0  0  0  0
    3.8100   -2.7410    0.0000 H   0  0  0  0  0  0  0  0  0  0  0  0
    9.9186    4.0088    0.0000 H   0  0  0  0  0  0  0  0  0  0  0  0
    9.3253    3.4765    0.0000 H   0  0  0  0  0  0  0  0  0  0  0  0
   11.0455    2.9887    0.0000 H   0  0  0  0  0  0  0  0  0  0  0  0
   11.5243    3.7232    0.0000 H   0  0  0  0  0  0  0  0  0  0  0  0
   10.7898    4.2021    0.0000 H   0  0  0  0  0  0  0  0  0  0  0  0
  1 25  1  0  0  0  0
  2 25  1  0  0  0  0
 12  3  1  1  0  0  0
  3 26  1  0  0  0  0
  4 24  2  0  0  0  0
  5 26  2  0  0  0  0
  6  7  1  0  0  0  0
  6  8  1  0  0  0  0
  6 14  1  0  0  0  0
  6 29  1  6  0  0  0
  7 10  1  0  0  0  0
  7 12  1  0  0  0  0
  7 17  1  1  0  0  0
  8  9  1  0  0  0  0
  8 16  1  0  0  0  0
  8 30  1  1  0  0  0
  9 11  1  0  0  0  0
  9 13  1  0  0  0  0
  9 31  1  6  0  0  0
 10 13  1  0  0  0  0
 10 32  1  0  0  0  0
 10 33  1  0  0  0  0
 11 18  1  0  0  0  0
 11 19  1  0  0  0  0
 11 21  1  1  0  0  0
 12 15  1  0  0  0  0
 12 34  1  0  0  0  0
 13 35  1  0  0  0  0
 13 36  1  0  0  0  0
 14 15  1  0  0  0  0
 14 37  1  0  0  0  0
 14 38  1  0  0  0  0
 15 39  1  0  0  0  0
 15 40  1  0  0  0  0
 16 20  1  0  0  0  0
 16 41  1  0  0  0  0
 16 42  1  0  0  0  0
 17 43  1  0  0  0  0
 17 44  1  0  0  0  0
 17 45  1  0  0  0  0
 18 20  1  0  0  0  0
 18 23  2  0  0  0  0
 19 22  1  0  0  0  0
 19 46  1  0  0  0  0
 19 47  1  0  0  0  0
 20 25  2  0  0  0  0
 21 48  1  0  0  0  0
 21 49  1  0  0  0  0
 21 50  1  0  0  0  0
 22 24  1  0  0  0  0
 22 51  1  0  0  0  0
 22 52  1  0  0  0  0
 23 24  1  0  0  0  0
 23 53  1  0  0  0  0
 26 27  1  0  0  0  0
 27 28  1  0  0  0  0
 27 54  1  0  0  0  0
 27 55  1  0  0  0  0
 28 56  1  0  0  0  0
 28 57  1  0  0  0  0
 28 58  1  0  0  0  0
M  END
> <PUBCHEM_COMPOUND_CID>
245225

> <PUBCHEM_COMPOUND_CANONICALIZED>
1

> <PUBCHEM_CACTVS_COMPLEXITY>
766

> <PUBCHEM_CACTVS_HBOND_ACCEPTOR>
3

> <PUBCHEM_CACTVS_HBOND_DONOR>
0

> <PUBCHEM_CACTVS_ROTATABLE_BOND>
3

> <PUBCHEM_CACTVS_SUBSKEYS>
AAADceB4MAAAGAAAAAAAAAAAAAAAAYAAAAAwYIAAAAAAAGDAAAAAGgBAAAABDxSggAICCAAABACIAqDSCAAAAAAgAAAACAEAAEgIABIAAAACAAAEgAAIgQOIyPCPgAAAAAAAAACAAAQAACAAAIAADAAAAA==

> <PUBCHEM_IUPAC_OPENEYE_NAME>
[(8R,9S,10R,13S,14S,17S)-6-(dibromomethylene)-10,13-dimethyl-3-oxo-2,7,8,9,11,12,14,15,16,17-decahydro-1H-cyclopenta[a]phenanthren-17-yl] propanoate

> <PUBCHEM_IUPAC_CAS_NAME>
propanoic acid [(8R,9S,10R,13S,14S,17S)-6-(dibromomethylidene)-10,13-dimethyl-3-oxo-2,7,8,9,11,12,14,15,16,17-decahydro-1H-cyclopenta[a]phenanthren-17-yl] ester

> <PUBCHEM_IUPAC_NAME>
[(8R,9S,10R,13S,14S,17S)-6-(dibromomethylidene)-10,13-dimethyl-3-oxo-2,7,8,9,11,12,14,15,16,17-decahydro-1H-cyclopenta[a]phenanthren-17-yl] propanoate

> <PUBCHEM_IUPAC_SYSTEMATIC_NAME>
[(8R,9S,10R,13S,14S,17S)-6-[bis(bromanyl)methylidene]-10,13-dimethyl-3-oxidanylidene-2,7,8,9,11,12,14,15,16,17-decahydro-1H-cyclopenta[a]phenanthren-17-yl] propanoate

> <PUBCHEM_IUPAC_TRADITIONAL_NAME>
propionic acid [(8R,9S,10R,13S,14S,17S)-6-(dibromomethylene)-3-keto-10,13-dimethyl-2,7,8,9,11,12,14,15,16,17-decahydro-1H-cyclopenta[a]phenanthren-17-yl] ester

> <PUBCHEM_IUPAC_INCHI>
InChI=1S/C23H30Br2O3/c1-4-20(27)28-19-6-5-16-14-12-15(21(24)25)18-11-13(26)7-9-22(18,2)17(14)8-10-23(16,19)3/h11,14,16-17,19H,4-10,12H2,1-3H3/t14-,16-,17-,19-,22+,23-/m0/s1

> <PUBCHEM_IUPAC_INCHIKEY>
ZVBFVKPTXOYOHX-WTBQFDOKSA-N

> <PUBCHEM_XLOGP3_AA>
5.5

> <PUBCHEM_EXACT_MASS>
514.054123

> <PUBCHEM_MOLECULAR_FORMULA>
C23H30Br2O3

> <PUBCHEM_MOLECULAR_WEIGHT>
514.2905

> <PUBCHEM_OPENEYE_CAN_SMILES>
CCC(=O)OC1CCC2C1(CCC3C2CC(=C(Br)Br)C4=CC(=O)CCC34C)C

> <PUBCHEM_OPENEYE_ISO_SMILES>
CCC(=O)O[C@H]1CC[C@@H]2[C@@]1(CC[C@H]3[C@H]2CC(=C(Br)Br)C4=CC(=O)CC[C@]34C)C

> <PUBCHEM_CACTVS_TPSA>
43.4

> <PUBCHEM_MONOISOTOPIC_WEIGHT>
512.056169

> <PUBCHEM_TOTAL_CHARGE>
0

> <PUBCHEM_HEAVY_ATOM_COUNT>
28

> <PUBCHEM_ATOM_DEF_STEREO_COUNT>
6

> <PUBCHEM_ATOM_UDEF_STEREO_COUNT>
0

> <PUBCHEM_BOND_DEF_STEREO_COUNT>
0

> <PUBCHEM_BOND_UDEF_STEREO_COUNT>
0

> <PUBCHEM_ISOTOPIC_ATOM_COUNT>
0

> <PUBCHEM_COMPONENT_COUNT>
1

> <PUBCHEM_CACTVS_TAUTO_COUNT>
2

> <PUBCHEM_COORDINATE_TYPE>
1
5
255

> <PUBCHEM_BONDANNOTATIONS>
11  21  5
12  3  5
6  29  6
7  17  5
8  30  5
9  31  6

$$$$

