5282258
  -OEChem-07051213042D

 21 20  0     0  0  0  0  0  0999 V2000
    5.1350    1.0600    0.0000 Br  0  0  0  0  0  0  0  0  0  0  0  0
    2.5369   -0.4400    0.0000 O   0  0  0  0  0  0  0  0  0  0  0  0
    3.4030    1.0600    0.0000 O   0  0  0  0  0  0  0  0  0  0  0  0
    6.8671    0.0600    0.0000 C   0  0  0  0  0  0  0  0  0  0  0  0
    7.7331   -0.4400    0.0000 C   0  0  0  0  0  0  0  0  0  0  0  0
    6.0010   -0.4400    0.0000 C   0  0  0  0  0  0  0  0  0  0  0  0
    8.5991    0.0600    0.0000 C   0  0  0  0  0  0  0  0  0  0  0  0
    5.1350    0.0600    0.0000 C   0  0  0  0  0  0  0  0  0  0  0  0
    4.2690   -0.4400    0.0000 C   0  0  0  0  0  0  0  0  0  0  0  0
    3.4030    0.0600    0.0000 C   0  0  0  0  0  0  0  0  0  0  0  0
    7.2656    0.5349    0.0000 H   0  0  0  0  0  0  0  0  0  0  0  0
    6.4685    0.5349    0.0000 H   0  0  0  0  0  0  0  0  0  0  0  0
    7.3346   -0.9149    0.0000 H   0  0  0  0  0  0  0  0  0  0  0  0
    8.1316   -0.9149    0.0000 H   0  0  0  0  0  0  0  0  0  0  0  0
    5.6025   -0.9149    0.0000 H   0  0  0  0  0  0  0  0  0  0  0  0
    6.3996   -0.9149    0.0000 H   0  0  0  0  0  0  0  0  0  0  0  0
    8.9091   -0.4769    0.0000 H   0  0  0  0  0  0  0  0  0  0  0  0
    9.1360    0.3700    0.0000 H   0  0  0  0  0  0  0  0  0  0  0  0
    8.2891    0.5969    0.0000 H   0  0  0  0  0  0  0  0  0  0  0  0
    4.2690   -1.0600    0.0000 H   0  0  0  0  0  0  0  0  0  0  0  0
    2.0000   -0.1300    0.0000 H   0  0  0  0  0  0  0  0  0  0  0  0
  1  8  1  0  0  0  0
  2 10  1  0  0  0  0
  2 21  1  0  0  0  0
  3 10  2  0  0  0  0
  4  5  1  0  0  0  0
  4  6  1  0  0  0  0
  4 11  1  0  0  0  0
  4 12  1  0  0  0  0
  5  7  1  0  0  0  0
  5 13  1  0  0  0  0
  5 14  1  0  0  0  0
  6  8  1  0  0  0  0
  6 15  1  0  0  0  0
  6 16  1  0  0  0  0
  7 17  1  0  0  0  0
  7 18  1  0  0  0  0
  7 19  1  0  0  0  0
  8  9  2  0  0  0  0
  9 10  1  0  0  0  0
  9 20  1  0  0  0  0
M  END
> <PUBCHEM_COMPOUND_CID>
5282258

> <PUBCHEM_COMPOUND_CANONICALIZED>
1

> <PUBCHEM_CACTVS_COMPLEXITY>
141

> <PUBCHEM_CACTVS_HBOND_ACCEPTOR>
2

> <PUBCHEM_CACTVS_HBOND_DONOR>
1

> <PUBCHEM_CACTVS_ROTATABLE_BOND>
4

> <PUBCHEM_CACTVS_SUBSKEYS>
AAADccBgMAAAEAAAAAAAAAAAAAAAAAAAAAAAAAAAAAAAAAAAAAAAGgBACAABiACAgAACCAAAAgCIACDSCAAAAAAgAAAACAAAAGgABAIAAQAAEAAAgAAIEQIAAAAAAAAAAAAAAAAAAAAAAAAAAAAAAAAAAA==

> <PUBCHEM_IUPAC_OPENEYE_NAME>
(Z)-3-bromohept-2-enoic acid

> <PUBCHEM_IUPAC_CAS_NAME>
(Z)-3-bromo-2-heptenoic acid

> <PUBCHEM_IUPAC_NAME>
(Z)-3-bromohept-2-enoic acid

> <PUBCHEM_IUPAC_SYSTEMATIC_NAME>
(Z)-3-bromanylhept-2-enoic acid

> <PUBCHEM_IUPAC_TRADITIONAL_NAME>
(Z)-3-bromohept-2-enoic acid

> <PUBCHEM_IUPAC_INCHI>
InChI=1S/C7H11BrO2/c1-2-3-4-6(8)5-7(9)10/h5H,2-4H2,1H3,(H,9,10)/b6-5-

> <PUBCHEM_IUPAC_INCHIKEY>
ZWQSWMXYEPWSRT-WAYWQWQTSA-N

> <PUBCHEM_XLOGP3_AA>
2.4

> <PUBCHEM_EXACT_MASS>
205.994242

> <PUBCHEM_MOLECULAR_FORMULA>
C7H11BrO2

> <PUBCHEM_MOLECULAR_WEIGHT>
207.06504

> <PUBCHEM_OPENEYE_CAN_SMILES>
CCCCC(=CC(=O)O)Br

> <PUBCHEM_OPENEYE_ISO_SMILES>
CCCC/C(=C/C(=O)O)/Br

> <PUBCHEM_CACTVS_TPSA>
37.3

> <PUBCHEM_MONOISOTOPIC_WEIGHT>
205.994242

> <PUBCHEM_TOTAL_CHARGE>
0

> <PUBCHEM_HEAVY_ATOM_COUNT>
10

> <PUBCHEM_ATOM_DEF_STEREO_COUNT>
0

> <PUBCHEM_ATOM_UDEF_STEREO_COUNT>
0

> <PUBCHEM_BOND_DEF_STEREO_COUNT>
1

> <PUBCHEM_BOND_UDEF_STEREO_COUNT>
0

> <PUBCHEM_ISOTOPIC_ATOM_COUNT>
0

> <PUBCHEM_COMPONENT_COUNT>
1

> <PUBCHEM_CACTVS_TAUTO_COUNT>
1

> <PUBCHEM_COORDINATE_TYPE>
1
5
255

$$$$

