10074
  -OEChem-07051212512D

 39 42  0     1  0  0  0  0  0999 V2000
    3.0332   -0.7732    0.0000 O   0  0  0  0  0  0  0  0  0  0  0  0
    2.8622    1.3938    0.0000 O   0  0  0  0  0  0  0  0  0  0  0  0
    2.0000   -0.1587    0.0000 O   0  0  0  0  0  0  0  0  0  0  0  0
    6.4088    0.3688    0.0000 N   0  0  3  0  0  0  0  0  0  0  0  0
    5.5393   -0.1332    0.0000 C   0  0  1  0  0  0  0  0  0  0  0  0
    4.6697    0.3688    0.0000 C   0  0  0  0  0  0  0  0  0  0  0  0
    4.5196   -0.3364    0.0000 C   0  0  0  0  0  0  0  0  0  0  0  0
    5.7493   -1.1091    0.0000 C   0  0  0  0  0  0  0  0  0  0  0  0
    6.4088    1.3729    0.0000 C   0  0  0  0  0  0  0  0  0  0  0  0
    7.1489   -0.3010    0.0000 C   0  0  0  0  0  0  0  0  0  0  0  0
    4.6697    1.3729    0.0000 C   0  0  0  0  0  0  0  0  0  0  0  0
    5.5393    1.8750    0.0000 C   0  0  0  0  0  0  0  0  0  0  0  0
    4.0000   -1.0285    0.0000 C   0  0  2  0  0  0  0  0  0  0  0  0
    6.7421   -1.2126    0.0000 C   0  0  0  0  0  0  0  0  0  0  0  0
    3.7720   -0.1681    0.0000 C   0  0  0  0  0  0  0  0  0  0  0  0
    5.2430   -1.7517    0.0000 C   0  0  0  0  0  0  0  0  0  0  0  0
    4.1130   -1.9098    0.0000 C   0  0  0  0  0  0  0  0  0  0  0  0
    3.7720    1.9098    0.0000 C   0  0  0  0  0  0  0  0  0  0  0  0
    2.8622    0.3479    0.0000 C   0  0  0  0  0  0  0  0  0  0  0  0
    2.3286   -1.4828    0.0000 C   0  0  0  0  0  0  0  0  0  0  0  0
    4.5713    0.2815    0.0000 H   0  0  0  0  0  0  0  0  0  0  0  0
    3.9401   -0.1158    0.0000 H   0  0  0  0  0  0  0  0  0  0  0  0
    7.0194    1.2653    0.0000 H   0  0  0  0  0  0  0  0  0  0  0  0
    6.6209    1.9555    0.0000 H   0  0  0  0  0  0  0  0  0  0  0  0
    7.6854   -0.6118    0.0000 H   0  0  0  0  0  0  0  0  0  0  0  0
    7.5143    0.1998    0.0000 H   0  0  0  0  0  0  0  0  0  0  0  0
    5.9378    2.3499    0.0000 H   0  0  0  0  0  0  0  0  0  0  0  0
    5.1407    2.3499    0.0000 H   0  0  0  0  0  0  0  0  0  0  0  0
    3.7966   -0.4429    0.0000 H   0  0  0  0  0  0  0  0  0  0  0  0
    7.0521   -1.7495    0.0000 H   0  0  0  0  0  0  0  0  0  0  0  0
    3.3784   -0.6471    0.0000 H   0  0  0  0  0  0  0  0  0  0  0  0
    4.1766   -0.6379    0.0000 H   0  0  0  0  0  0  0  0  0  0  0  0
    5.5517   -2.2894    0.0000 H   0  0  0  0  0  0  0  0  0  0  0  0
    3.7368   -2.4026    0.0000 H   0  0  0  0  0  0  0  0  0  0  0  0
    4.1766    2.3796    0.0000 H   0  0  0  0  0  0  0  0  0  0  0  0
    3.3784    2.3889    0.0000 H   0  0  0  0  0  0  0  0  0  0  0  0
    1.8886   -1.0460    0.0000 H   0  0  0  0  0  0  0  0  0  0  0  0
    1.8918   -1.9228    0.0000 H   0  0  0  0  0  0  0  0  0  0  0  0
    2.7686   -1.9196    0.0000 H   0  0  0  0  0  0  0  0  0  0  0  0
 13  1  1  6  0  0  0
  1 20  1  0  0  0  0
  2 18  1  0  0  0  0
  2 19  1  0  0  0  0
  3 19  2  0  0  0  0
  4  5  1  0  0  0  0
  4  9  1  0  0  0  0
  4 10  1  0  0  0  0
  5  6  1  0  0  0  0
  5  7  1  6  0  0  0
  5  8  1  0  0  0  0
  6 11  2  0  0  0  0
  6 15  1  0  0  0  0
  7 13  1  0  0  0  0
  7 21  1  0  0  0  0
  7 22  1  0  0  0  0
  8 14  2  0  0  0  0
  8 16  1  0  0  0  0
  9 12  1  0  0  0  0
  9 23  1  0  0  0  0
  9 24  1  0  0  0  0
 10 14  1  0  0  0  0
 10 25  1  0  0  0  0
 10 26  1  0  0  0  0
 11 12  1  0  0  0  0
 11 18  1  0  0  0  0
 12 27  1  0  0  0  0
 12 28  1  0  0  0  0
 13 17  1  0  0  0  0
 13 29  1  0  0  0  0
 14 30  1  0  0  0  0
 15 19  1  0  0  0  0
 15 31  1  0  0  0  0
 15 32  1  0  0  0  0
 16 17  2  0  0  0  0
 16 33  1  0  0  0  0
 17 34  1  0  0  0  0
 18 35  1  0  0  0  0
 18 36  1  0  0  0  0
 20 37  1  0  0  0  0
 20 38  1  0  0  0  0
 20 39  1  0  0  0  0
M  END
> <PUBCHEM_COMPOUND_CID>
10074

> <PUBCHEM_COMPOUND_CANONICALIZED>
1

> <PUBCHEM_CACTVS_COMPLEXITY>
560

> <PUBCHEM_CACTVS_HBOND_ACCEPTOR>
4

> <PUBCHEM_CACTVS_HBOND_DONOR>
0

> <PUBCHEM_CACTVS_ROTATABLE_BOND>
1

> <PUBCHEM_CACTVS_SUBSKEYS>
AAADceB6MAAAAAAAAAAAAAAAAAAAAQAAAAAgQIAAAAAAAECwAAAAHgAAAAAADJzhgAYCCAMABACIAiDSCACAAAAgAAAICAEIAAgIBBIAoQAGEAAGwACIoAOsyCCOAAAAAAAAAAAAAAAAAAAAAAAAAAAAAA==

> <PUBCHEM_IUPAC_INCHI>
InChI=1S/C16H19NO3/c1-19-13-3-2-12-5-7-17-6-4-11-10-20-15(18)8-14(11)16(12,17)9-13/h2-3,5,13H,4,6-10H2,1H3/t13-,16-/m0/s1

> <PUBCHEM_IUPAC_INCHIKEY>
PXWINCSLFXUWBZ-BBRMVZONSA-N

> <PUBCHEM_XLOGP3_AA>
-0.2

> <PUBCHEM_EXACT_MASS>
273.136493

> <PUBCHEM_MOLECULAR_FORMULA>
C16H19NO3

> <PUBCHEM_MOLECULAR_WEIGHT>
273.32696

> <PUBCHEM_OPENEYE_CAN_SMILES>
COC1CC23C4=C(CCN2CC=C3C=C1)COC(=O)C4

> <PUBCHEM_OPENEYE_ISO_SMILES>
CO[C@@H]1C[C@]23C4=C(CCN2CC=C3C=C1)COC(=O)C4

> <PUBCHEM_CACTVS_TPSA>
38.8

> <PUBCHEM_MONOISOTOPIC_WEIGHT>
273.136493

> <PUBCHEM_TOTAL_CHARGE>
0

> <PUBCHEM_HEAVY_ATOM_COUNT>
20

> <PUBCHEM_ATOM_DEF_STEREO_COUNT>
2

> <PUBCHEM_ATOM_UDEF_STEREO_COUNT>
0

> <PUBCHEM_BOND_DEF_STEREO_COUNT>
0

> <PUBCHEM_BOND_UDEF_STEREO_COUNT>
0

> <PUBCHEM_ISOTOPIC_ATOM_COUNT>
0

> <PUBCHEM_COMPONENT_COUNT>
1

> <PUBCHEM_CACTVS_TAUTO_COUNT>
2

> <PUBCHEM_COORDINATE_TYPE>
1
5
255

> <PUBCHEM_BONDANNOTATIONS>
13  1  6
5  7  6

$$$$

