442242
  -OEChem-07051212573D

 50 52  0     1  0  0  0  0  0999 V2000
    1.2265   -2.6428   -1.2013 O   0  0  0  0  0  0  0  0  0  0  0  0
   -1.3327    0.7209    0.2828 O   0  0  0  0  0  0  0  0  0  0  0  0
    3.3278   -0.9712   -0.2359 O   0  0  0  0  0  0  0  0  0  0  0  0
   -0.2925    2.9071    2.1900 O   0  0  0  0  0  0  0  0  0  0  0  0
    1.6314   -4.3696    0.2741 O   0  0  0  0  0  0  0  0  0  0  0  0
   -2.5670   -0.9428    1.2992 O   0  0  0  0  0  0  0  0  0  0  0  0
    0.9596    1.3798    0.7336 C   0  0  2  0  0  0  0  0  0  0  0  0
    1.2917    1.7255   -0.7435 C   0  0  2  0  0  0  0  0  0  0  0  0
   -0.0916    0.2637    0.8578 C   0  0  2  0  0  0  0  0  0  0  0  0
    2.4888    0.9845   -1.3712 C   0  0  1  0  0  0  0  0  0  0  0  0
    0.2218   -1.1043    0.2221 C   0  0  1  0  0  0  0  0  0  0  0  0
    1.0214   -1.2016   -1.0819 C   0  0  1  0  0  0  0  0  0  0  0  0
    2.4173   -0.5590   -1.2561 C   0  0  2  0  0  0  0  0  0  0  0  0
    0.3998    2.7233    1.1993 C   0  0  0  0  0  0  0  0  0  0  0  0
    2.1622    1.1454    1.6659 C   0  0  0  0  0  0  0  0  0  0  0  0
    1.4058    3.2323   -0.7230 C   0  0  0  0  0  0  0  0  0  0  0  0
    0.8657   -2.1928    1.0121 C   0  0  0  0  0  0  0  0  0  0  0  0
    2.6155    1.3511   -2.8649 C   0  0  0  0  0  0  0  0  0  0  0  0
    0.8595    3.8224    0.3408 C   0  0  0  0  0  0  0  0  0  0  0  0
    1.2973   -3.2233    0.0378 C   0  0  0  0  0  0  0  0  0  0  0  0
    1.0768   -2.3340    2.3220 C   0  0  0  0  0  0  0  0  0  0  0  0
   -2.3795   -0.1382    0.4022 C   0  0  0  0  0  0  0  0  0  0  0  0
   -3.2502    0.0692   -0.7793 C   0  0  0  0  0  0  0  0  0  0  0  0
   -4.5781   -0.1434   -0.8161 C   0  0  0  0  0  0  0  0  0  0  0  0
   -5.3405    0.1104   -2.0914 C   0  0  0  0  0  0  0  0  0  0  0  0
   -5.4367   -0.6127    0.3251 C   0  0  0  0  0  0  0  0  0  0  0  0
    0.4151    1.5185   -1.3758 H   0  0  0  0  0  0  0  0  0  0  0  0
   -0.3021    0.1320    1.9276 H   0  0  0  0  0  0  0  0  0  0  0  0
    3.4102    1.3408   -0.8909 H   0  0  0  0  0  0  0  0  0  0  0  0
   -0.7235   -1.5874   -0.0543 H   0  0  0  0  0  0  0  0  0  0  0  0
    0.3861   -0.9027   -1.9246 H   0  0  0  0  0  0  0  0  0  0  0  0
    2.8422   -1.0030   -2.1665 H   0  0  0  0  0  0  0  0  0  0  0  0
    2.5658    0.1384    1.6014 H   0  0  0  0  0  0  0  0  0  0  0  0
    2.9767    1.8512    1.4671 H   0  0  0  0  0  0  0  0  0  0  0  0
    1.8749    1.2857    2.7159 H   0  0  0  0  0  0  0  0  0  0  0  0
    1.8062    3.8081   -1.5464 H   0  0  0  0  0  0  0  0  0  0  0  0
    3.4750    0.8432   -3.3168 H   0  0  0  0  0  0  0  0  0  0  0  0
    1.7184    1.0592   -3.4216 H   0  0  0  0  0  0  0  0  0  0  0  0
    2.7747    2.4232   -3.0104 H   0  0  0  0  0  0  0  0  0  0  0  0
    0.7575    4.8727    0.5472 H   0  0  0  0  0  0  0  0  0  0  0  0
    4.2167   -0.6693   -0.4899 H   0  0  0  0  0  0  0  0  0  0  0  0
    0.7590   -1.5777    3.0303 H   0  0  0  0  0  0  0  0  0  0  0  0
    1.5743   -3.2094    2.7262 H   0  0  0  0  0  0  0  0  0  0  0  0
   -2.7443    0.4433   -1.6670 H   0  0  0  0  0  0  0  0  0  0  0  0
   -5.8482   -0.8039   -2.4162 H   0  0  0  0  0  0  0  0  0  0  0  0
   -4.6900    0.4362   -2.9100 H   0  0  0  0  0  0  0  0  0  0  0  0
   -6.0933    0.8902   -1.9354 H   0  0  0  0  0  0  0  0  0  0  0  0
   -4.9347   -0.5744    1.2937 H   0  0  0  0  0  0  0  0  0  0  0  0
   -5.7670   -1.6415    0.1493 H   0  0  0  0  0  0  0  0  0  0  0  0
   -6.3253    0.0222    0.4134 H   0  0  0  0  0  0  0  0  0  0  0  0
  1 12  1  0  0  0  0
  1 20  1  0  0  0  0
  2  9  1  0  0  0  0
  2 22  1  0  0  0  0
  3 13  1  0  0  0  0
  3 41  1  0  0  0  0
  4 14  2  0  0  0  0
  5 20  2  0  0  0  0
  6 22  2  0  0  0  0
  7  8  1  0  0  0  0
  7  9  1  0  0  0  0
  7 14  1  0  0  0  0
  7 15  1  0  0  0  0
  8 10  1  0  0  0  0
  8 16  1  0  0  0  0
  8 27  1  0  0  0  0
  9 11  1  0  0  0  0
  9 28  1  0  0  0  0
 10 13  1  0  0  0  0
 10 18  1  0  0  0  0
 10 29  1  0  0  0  0
 11 12  1  0  0  0  0
 11 17  1  0  0  0  0
 11 30  1  0  0  0  0
 12 13  1  0  0  0  0
 12 31  1  0  0  0  0
 13 32  1  0  0  0  0
 14 19  1  0  0  0  0
 15 33  1  0  0  0  0
 15 34  1  0  0  0  0
 15 35  1  0  0  0  0
 16 19  2  0  0  0  0
 16 36  1  0  0  0  0
 17 20  1  0  0  0  0
 17 21  2  0  0  0  0
 18 37  1  0  0  0  0
 18 38  1  0  0  0  0
 18 39  1  0  0  0  0
 19 40  1  0  0  0  0
 21 42  1  0  0  0  0
 21 43  1  0  0  0  0
 22 23  1  0  0  0  0
 23 24  2  0  0  0  0
 23 44  1  0  0  0  0
 24 25  1  0  0  0  0
 24 26  1  0  0  0  0
 25 45  1  0  0  0  0
 25 46  1  0  0  0  0
 25 47  1  0  0  0  0
 26 48  1  0  0  0  0
 26 49  1  0  0  0  0
 26 50  1  0  0  0  0
M  END
> <PUBCHEM_COMPOUND_CID>
442242

> <PUBCHEM_CONFORMER_RMSD>
0.8

> <PUBCHEM_CONFORMER_DIVERSEORDER>
1
6
7
5
4
2
3

> <PUBCHEM_MMFF94_PARTIAL_CHARGES>
29
1 -0.43
11 0.14
12 0.28
13 0.28
14 0.49
16 -0.29
17 -0.12
19 -0.14
2 -0.43
20 0.71
21 -0.3
22 0.71
23 -0.14
24 -0.28
25 0.14
26 0.14
3 -0.68
36 0.15
4 -0.57
40 0.15
41 0.4
42 0.15
43 0.15
44 0.15
5 -0.57
6 -0.57
7 0.06
8 0.14
9 0.28

> <PUBCHEM_EFFECTIVE_ROTOR_COUNT>
3.8

> <PUBCHEM_PHARMACOPHORE_FEATURES>
9
1 3 acceptor
1 3 donor
1 4 acceptor
1 5 acceptor
1 6 acceptor
3 24 25 26 hydrophobe
5 1 11 12 17 20 rings
5 7 8 14 16 19 rings
7 7 8 9 10 11 12 13 rings

> <PUBCHEM_HEAVY_ATOM_COUNT>
26

> <PUBCHEM_ATOM_DEF_STEREO_COUNT>
7

> <PUBCHEM_ATOM_UDEF_STEREO_COUNT>
0

> <PUBCHEM_BOND_DEF_STEREO_COUNT>
0

> <PUBCHEM_BOND_UDEF_STEREO_COUNT>
0

> <PUBCHEM_ISOTOPIC_ATOM_COUNT>
0

> <PUBCHEM_COMPONENT_COUNT>
1

> <PUBCHEM_CACTVS_TAUTO_COUNT>
3

> <PUBCHEM_CONFORMER_ID>
0006BF8200000001

> <PUBCHEM_MMFF94_ENERGY>
97.8002

> <PUBCHEM_FEATURE_SELFOVERLAP>
45.745

> <PUBCHEM_SHAPE_FINGERPRINT>
10165383 225 17695591127632383037
10764073 3 16977647666971743409
12553582 1 18188489206979116095
12730499 353 18269828728139470107
13134695 92 18053696751887336887
13149001 5 17829585306863821500
13681431 1 18269560601230064427
13761468 95 15256849095533775533
13911987 19 18197754692581618230
14863182 85 18410866464014079842
16945 1 18190152686071481988
20600515 1 17481174583157034233
20691752 17 18335684045330187648
20905425 154 18119527880201746084
21452121 199 18125733519328263554
21452121 99 17835235649810849388
2255824 54 18335703797815716157
22907989 373 16681477283822360789
23419403 2 17408292291295505112
23559900 14 17846506962904116551
238 59 18265609892895480863
2748010 2 17252835305861848748
3060560 45 18338243652264070013
44802255 64 16912807040352875126
484989 97 18053079753755044815
633830 44 18043516228171981745
6669772 16 18190470346432718864
7471813 234 18263932218276734495
81228 2 17476365375284905779
9925002 15 17689703577751785276

> <PUBCHEM_SHAPE_MULTIPOLES>
499.85
6.61
4.37
2.14
15.1
1.38
-0.33
-0.54
-3.55
-4.05
1.21
-0.76
-0.54
0.03

> <PUBCHEM_SHAPE_SELFOVERLAP>
1067.323

> <PUBCHEM_SHAPE_VOLUME>
274.6

> <PUBCHEM_COORDINATE_TYPE>
2
5
10

$$$$

