16231
  -OEChem-07051212522D

 23 23  0     0  0  0  0  0  0999 V2000
    7.7331   -0.0950    0.0000 Cl  0  0  0  0  0  0  0  0  0  0  0  0
    3.4030   -0.5950    0.0000 O   0  0  0  0  0  0  0  0  0  0  0  0
    6.0010   -2.0950    0.0000 N   0  0  0  0  0  0  0  0  0  0  0  0
    6.0010   -0.0950    0.0000 N   0  0  0  0  0  0  0  0  0  0  0  0
    4.2690   -2.0950    0.0000 N   0  0  0  0  0  0  0  0  0  0  0  0
    4.2690    0.9050    0.0000 N   0  0  0  0  0  0  0  0  0  0  0  0
    7.7331   -2.0950    0.0000 N   0  0  0  0  0  0  0  0  0  0  0  0
    3.4030    2.4050    0.0000 N   0  0  0  0  0  0  0  0  0  0  0  0
    2.5369    0.9050    0.0000 N   0  0  0  0  0  0  0  0  0  0  0  0
    5.1350   -0.5950    0.0000 C   0  0  0  0  0  0  0  0  0  0  0  0
    5.1350   -1.5950    0.0000 C   0  0  0  0  0  0  0  0  0  0  0  0
    6.8671   -1.5950    0.0000 C   0  0  0  0  0  0  0  0  0  0  0  0
    6.8671   -0.5950    0.0000 C   0  0  0  0  0  0  0  0  0  0  0  0
    4.2690   -0.0950    0.0000 C   0  0  0  0  0  0  0  0  0  0  0  0
    3.4030    1.4050    0.0000 C   0  0  0  0  0  0  0  0  0  0  0  0
    4.2690   -2.7150    0.0000 H   0  0  0  0  0  0  0  0  0  0  0  0
    3.7320   -1.7850    0.0000 H   0  0  0  0  0  0  0  0  0  0  0  0
    7.7331   -2.7150    0.0000 H   0  0  0  0  0  0  0  0  0  0  0  0
    8.2700   -1.7850    0.0000 H   0  0  0  0  0  0  0  0  0  0  0  0
    2.8660    2.7150    0.0000 H   0  0  0  0  0  0  0  0  0  0  0  0
    3.9399    2.7150    0.0000 H   0  0  0  0  0  0  0  0  0  0  0  0
    2.0000    1.2150    0.0000 H   0  0  0  0  0  0  0  0  0  0  0  0
    2.5369    0.2850    0.0000 H   0  0  0  0  0  0  0  0  0  0  0  0
  1 13  1  0  0  0  0
  2 14  2  0  0  0  0
  3 11  1  0  0  0  0
  3 12  2  0  0  0  0
  4 10  1  0  0  0  0
  4 13  2  0  0  0  0
  5 11  1  0  0  0  0
  5 16  1  0  0  0  0
  5 17  1  0  0  0  0
  6 14  1  0  0  0  0
  6 15  2  0  0  0  0
  7 12  1  0  0  0  0
  7 18  1  0  0  0  0
  7 19  1  0  0  0  0
  8 15  1  0  0  0  0
  8 20  1  0  0  0  0
  8 21  1  0  0  0  0
  9 15  1  0  0  0  0
  9 22  1  0  0  0  0
  9 23  1  0  0  0  0
 10 11  2  0  0  0  0
 10 14  1  0  0  0  0
 12 13  1  0  0  0  0
M  END
> <PUBCHEM_COMPOUND_CID>
16231

> <PUBCHEM_COMPOUND_CANONICALIZED>
1

> <PUBCHEM_CACTVS_COMPLEXITY>
279

> <PUBCHEM_CACTVS_HBOND_ACCEPTOR>
5

> <PUBCHEM_CACTVS_HBOND_DONOR>
4

> <PUBCHEM_CACTVS_ROTATABLE_BOND>
1

> <PUBCHEM_CACTVS_SUBSKEYS>
AAADccBjoAAEAAAAAAAAAAAAAAAAAAAAAAAsAAAAAAAAAAABgAAADgIQAAAACAoBliABsBJIEACoAQdwdACAgC0HECAAEAGgVECAQEhAQCBUAIAAAALAAGAAAAAAAAAAAAAAAAAAAAAAAAAAAAAAAAAAAA==

> <PUBCHEM_IUPAC_OPENEYE_NAME>
3,5-diamino-6-chloro-N-(diaminomethylene)pyrazine-2-carboxamide

> <PUBCHEM_IUPAC_CAS_NAME>
3,5-diamino-6-chloro-N-(diaminomethylidene)-2-pyrazinecarboxamide

> <PUBCHEM_IUPAC_NAME>
3,5-diamino-6-chloro-N-(diaminomethylidene)pyrazine-2-carboxamide

> <PUBCHEM_IUPAC_SYSTEMATIC_NAME>
3,5-bis(azanyl)-N-[bis(azanyl)methylidene]-6-chloranyl-pyrazine-2-carboxamide

> <PUBCHEM_IUPAC_TRADITIONAL_NAME>
3,5-diamino-6-chloro-N-(diaminomethylene)pyrazinamide

> <PUBCHEM_IUPAC_INCHI>
InChI=1S/C6H8ClN7O/c7-2-4(9)13-3(8)1(12-2)5(15)14-6(10)11/h(H4,8,9,13)(H4,10,11,14,15)

> <PUBCHEM_IUPAC_INCHIKEY>
XSDQTOBWRPYKKA-UHFFFAOYSA-N

> <PUBCHEM_XLOGP3_AA>
-0.7

> <PUBCHEM_EXACT_MASS>
229.047886

> <PUBCHEM_MOLECULAR_FORMULA>
C6H8ClN7O

> <PUBCHEM_MOLECULAR_WEIGHT>
229.62702

> <PUBCHEM_OPENEYE_CAN_SMILES>
C1(=C(N=C(C(=N1)Cl)N)N)C(=O)N=C(N)N

> <PUBCHEM_OPENEYE_ISO_SMILES>
C1(=C(N=C(C(=N1)Cl)N)N)C(=O)N=C(N)N

> <PUBCHEM_CACTVS_TPSA>
159

> <PUBCHEM_MONOISOTOPIC_WEIGHT>
229.047886

> <PUBCHEM_TOTAL_CHARGE>
0

> <PUBCHEM_HEAVY_ATOM_COUNT>
15

> <PUBCHEM_ATOM_DEF_STEREO_COUNT>
0

> <PUBCHEM_ATOM_UDEF_STEREO_COUNT>
0

> <PUBCHEM_BOND_DEF_STEREO_COUNT>
0

> <PUBCHEM_BOND_UDEF_STEREO_COUNT>
0

> <PUBCHEM_ISOTOPIC_ATOM_COUNT>
0

> <PUBCHEM_COMPONENT_COUNT>
1

> <PUBCHEM_CACTVS_TAUTO_COUNT>
33

> <PUBCHEM_COORDINATE_TYPE>
1
5
255

> <PUBCHEM_BONDANNOTATIONS>
10  11  8
12  13  8
3  11  8
3  12  8
4  10  8
4  13  8

$$$$

