4181
  -OEChem-06251223563D

 33 32  0     1  0  0  0  0  0999 V2000
    3.1402   -2.0358    0.8637 S   0  0  0  0  0  0  0  0  0  0  0  0
    5.2929   -0.7883   -0.7351 S   0  0  0  0  0  0  0  0  0  0  0  0
   -0.9516    1.7015    1.1359 O   0  0  0  0  0  0  0  0  0  0  0  0
   -2.0515    0.9981   -1.4241 O   0  0  0  0  0  0  0  0  0  0  0  0
    0.7347   -1.0012   -0.6676 O   0  0  0  0  0  0  0  0  0  0  0  0
   -3.3727   -0.7548    1.4970 O   0  0  0  0  0  0  0  0  0  0  0  0
   -4.5159   -1.4068   -0.9892 O   0  0  0  0  0  0  0  0  0  0  0  0
    2.9862    0.5530    0.0676 N   0  0  0  0  0  0  0  0  0  0  0  0
   -0.8007    0.3963    0.5803 C   0  0  1  0  0  0  0  0  0  0  0  0
   -2.0184    0.0907   -0.3240 C   0  0  1  0  0  0  0  0  0  0  0  0
    0.5525    0.3181   -0.1585 C   0  0  1  0  0  0  0  0  0  0  0  0
   -3.3664    0.1841    0.4237 C   0  0  1  0  0  0  0  0  0  0  0  0
    1.7296    0.6497    0.7633 C   0  0  0  0  0  0  0  0  0  0  0  0
   -4.5780   -0.0891   -0.4679 C   0  0  0  0  0  0  0  0  0  0  0  0
    3.4256    1.8024   -0.5845 C   0  0  0  0  0  0  0  0  0  0  0  0
    3.7936   -0.6180    0.0194 C   0  0  0  0  0  0  0  0  0  0  0  0
   -0.7941   -0.3260    1.4056 H   0  0  0  0  0  0  0  0  0  0  0  0
   -1.9001   -0.9199   -0.7318 H   0  0  0  0  0  0  0  0  0  0  0  0
    0.5545    1.0071   -1.0103 H   0  0  0  0  0  0  0  0  0  0  0  0
   -3.4967    1.1881    0.8457 H   0  0  0  0  0  0  0  0  0  0  0  0
    1.7208    0.0000    1.6428 H   0  0  0  0  0  0  0  0  0  0  0  0
    1.6400    1.6713    1.1517 H   0  0  0  0  0  0  0  0  0  0  0  0
   -4.6356    0.6152   -1.3026 H   0  0  0  0  0  0  0  0  0  0  0  0
   -5.5039   -0.0106    0.1119 H   0  0  0  0  0  0  0  0  0  0  0  0
   -0.3974    1.7508    1.9328 H   0  0  0  0  0  0  0  0  0  0  0  0
   -2.1090    1.8985   -1.0611 H   0  0  0  0  0  0  0  0  0  0  0  0
    0.7183   -1.6166    0.0851 H   0  0  0  0  0  0  0  0  0  0  0  0
   -2.8079   -0.4002    2.2040 H   0  0  0  0  0  0  0  0  0  0  0  0
    3.7212    2.5080    0.1980 H   0  0  0  0  0  0  0  0  0  0  0  0
    2.5908    2.2224   -1.1535 H   0  0  0  0  0  0  0  0  0  0  0  0
    4.2626    1.6628   -1.2682 H   0  0  0  0  0  0  0  0  0  0  0  0
   -4.4517   -2.0173   -0.2350 H   0  0  0  0  0  0  0  0  0  0  0  0
    4.1569   -2.8659    0.5891 H   0  0  0  0  0  0  0  0  0  0  0  0
  1 16  1  0  0  0  0
  1 33  1  0  0  0  0
  2 16  2  0  0  0  0
  3  9  1  0  0  0  0
  3 25  1  0  0  0  0
  4 10  1  0  0  0  0
  4 26  1  0  0  0  0
  5 11  1  0  0  0  0
  5 27  1  0  0  0  0
  6 12  1  0  0  0  0
  6 28  1  0  0  0  0
  7 14  1  0  0  0  0
  7 32  1  0  0  0  0
  8 13  1  0  0  0  0
  8 15  1  0  0  0  0
  8 16  1  0  0  0  0
  9 10  1  0  0  0  0
  9 11  1  0  0  0  0
  9 17  1  0  0  0  0
 10 12  1  0  0  0  0
 10 18  1  0  0  0  0
 11 13  1  0  0  0  0
 11 19  1  0  0  0  0
 12 14  1  0  0  0  0
 12 20  1  0  0  0  0
 13 21  1  0  0  0  0
 13 22  1  0  0  0  0
 14 23  1  0  0  0  0
 14 24  1  0  0  0  0
 15 29  1  0  0  0  0
 15 30  1  0  0  0  0
 15 31  1  0  0  0  0
M  END
> <PUBCHEM_COMPOUND_CID>
4181

> <PUBCHEM_CONFORMER_RMSD>
1

> <PUBCHEM_CONFORMER_DIVERSEORDER>
2
227
412
30
539
122
78
321
285
549
460
215
324
114
557
407
404
411
430
372
541
394
380
24
112
9
44
247
123
402
119
217
56
109
458
91
309
418
447
70
54
51
150
125
383
260
490
277
240
58
325
395
250
262
33
566
355
244
77
185
212
323
391
224
10
55
72
59
37
554
15
157
293
221
57
67
205
76
542
89
375
361
105
535
73
32
213
299
85
193
29
339
272
271
14
249
307
27
349
347
101
3
31
492
132
266
74
514
186
6
483
478
39
296
40
392
153
127
363
17
276
503
201
327
42
513
144
350
4
35
524
95
476
509
60
214
146
415
129
254
47
526
320
190
7
43
80
34
366
23
202
19
506
117
259
28
87
308
82
86
49
139
1
8
209
130
162

> <PUBCHEM_MMFF94_PARTIAL_CHARGES>
22
1 -0.32
10 0.28
11 0.28
12 0.28
13 0.3
14 0.28
15 0.3
16 0.58
2 -0.38
25 0.4
26 0.4
27 0.4
28 0.4
3 -0.68
32 0.4
33 0.18
4 -0.68
5 -0.68
6 -0.68
7 -0.68
8 -0.66
9 0.28

> <PUBCHEM_EFFECTIVE_ROTOR_COUNT>
7

> <PUBCHEM_PHARMACOPHORE_FEATURES>
12
1 2 acceptor
1 3 acceptor
1 3 donor
1 4 acceptor
1 4 donor
1 5 acceptor
1 5 donor
1 6 acceptor
1 6 donor
1 7 acceptor
1 7 donor
3 1 2 16 anion

> <PUBCHEM_HEAVY_ATOM_COUNT>
16

> <PUBCHEM_ATOM_DEF_STEREO_COUNT>
0

> <PUBCHEM_ATOM_UDEF_STEREO_COUNT>
4

> <PUBCHEM_BOND_DEF_STEREO_COUNT>
0

> <PUBCHEM_BOND_UDEF_STEREO_COUNT>
0

> <PUBCHEM_ISOTOPIC_ATOM_COUNT>
0

> <PUBCHEM_COMPONENT_COUNT>
1

> <PUBCHEM_CACTVS_TAUTO_COUNT>
1

> <PUBCHEM_CONFORMER_ID>
0000105500000002

> <PUBCHEM_MMFF94_ENERGY>
45.854

> <PUBCHEM_FEATURE_SELFOVERLAP>
60.905

> <PUBCHEM_SHAPE_FINGERPRINT>
10366900 7 17917710205978182848
11089746 13 12535341265064448318
11543360 7 17275098414389056646
11615757 297 18334010601216388248
12616999 72 17917988417413153850
13167823 11 18335704927154998151
13675066 3 4823219415649481697
13690532 89 18333448772729485502
13760787 5 18334569118769049121
14252887 29 17968093175144042566
14576447 43 18410857685591452474
14993402 34 13614518567186628616
15375462 6 18060420222583816204
15477762 27 18341895229818062050
17834072 33 18409445882622672644
17834074 16 18201717349261985202
17834076 25 13686296872349289340
18186145 218 16774080665548015385
18222031 100 17240777163518512085
18915474 69 18261959548313607294
19026448 4 17632294549407656121
200 152 18409730672665328273
20279233 1 16558740252797099058
20281475 54 17894908533635648675
20645477 56 17203330057003909893
20645477 70 18409731763982874790
20871999 31 17560796671407882964
22485316 2 18408609145414981497
22646028 1 18408045125788038506
23402539 116 18186522132809619629
23557571 272 17275388737140984813
23559900 14 17703507710279049208
23596394 208 17632302319272727698
3060560 45 18131066027097411998
3286 77 17676210164950042304
42 15 16732699484764158502
465052 167 17894909594498164231

> <PUBCHEM_SHAPE_MULTIPOLES>
302.64
10.39
1.65
1.15
0.76
0.09
0.05
3.11
-2.39
-1.25
0.13
0.54
0.04
-0.38

> <PUBCHEM_SHAPE_SELFOVERLAP>
557.499

> <PUBCHEM_SHAPE_VOLUME>
192.9

> <PUBCHEM_COORDINATE_TYPE>
2
5
10

$$$$

