5460646
  -OEChem-07051213073D

 41 42  0     1  0  0  0  0  0999 V2000
   -3.5194   -2.5997   -0.5338 P   0  0  0  0  0  0  0  0  0  0  0  0
   -1.3412    0.8220    0.9397 O   0  0  0  0  0  0  0  0  0  0  0  0
   -2.8359    3.4162    1.0167 O   0  0  0  0  0  0  0  0  0  0  0  0
   -0.9451    3.8781   -0.8920 O   0  0  0  0  0  0  0  0  0  0  0  0
   -3.0950   -1.2651    0.2789 O   0  0  0  0  0  0  0  0  0  0  0  0
   -5.0012   -2.2395   -1.0717 O   0  0  0  0  0  0  0  0  0  0  0  0
   -2.6130   -2.5388   -1.8716 O   0  0  0  0  0  0  0  0  0  0  0  0
   -3.4224   -3.8762    0.2495 O   0  0  0  0  0  0  0  0  0  0  0  0
    4.5211   -1.5189   -0.1506 O   0  0  0  0  0  0  0  0  0  0  0  0
    4.4469    0.1491   -3.3720 O   0  0  0  0  0  0  0  0  0  0  0  0
    0.6227    1.1793   -0.3385 N   0  0  0  0  0  0  0  0  0  0  0  0
    1.3969    0.1344    1.6491 N   0  0  0  0  0  0  0  0  0  0  0  0
    2.8490    0.0154   -1.6645 N   0  0  0  0  0  0  0  0  0  0  0  0
    3.3280   -1.2117    1.7832 N   0  0  0  0  0  0  0  0  0  0  0  0
    1.9861   -0.7942    3.6679 N   0  0  0  0  0  0  0  0  0  0  0  0
   -2.7323    2.4660   -0.0432 C   0  0  1  0  0  0  0  0  0  0  0  0
   -1.3642    2.5439   -0.6870 C   0  0  2  0  0  0  0  0  0  0  0  0
   -2.7149    1.0749    0.5739 C   0  0  1  0  0  0  0  0  0  0  0  0
   -0.4948    1.8070    0.3196 C   0  0  1  0  0  0  0  0  0  0  0  0
   -3.1585   -0.0176   -0.3897 C   0  0  0  0  0  0  0  0  0  0  0  0
    1.5307    0.3966    0.2993 C   0  0  0  0  0  0  0  0  0  0  0  0
    2.5900   -0.1571   -0.3334 C   0  0  0  0  0  0  0  0  0  0  0  0
    2.2875   -0.6506    2.3386 C   0  0  0  0  0  0  0  0  0  0  0  0
    3.5625   -1.0182    0.4332 C   0  0  0  0  0  0  0  0  0  0  0  0
    4.1165    0.0045   -2.2016 C   0  0  0  0  0  0  0  0  0  0  0  0
   -3.5581    2.6482   -0.7357 H   0  0  0  0  0  0  0  0  0  0  0  0
   -1.3828    2.0320   -1.6571 H   0  0  0  0  0  0  0  0  0  0  0  0
   -3.3033    1.0201    1.4970 H   0  0  0  0  0  0  0  0  0  0  0  0
   -0.1295    2.4924    1.0949 H   0  0  0  0  0  0  0  0  0  0  0  0
   -2.4996   -0.0593   -1.2623 H   0  0  0  0  0  0  0  0  0  0  0  0
   -4.1840    0.1684   -0.7233 H   0  0  0  0  0  0  0  0  0  0  0  0
    0.7875    1.3896   -1.3169 H   0  0  0  0  0  0  0  0  0  0  0  0
   -2.1751    3.2053    1.6972 H   0  0  0  0  0  0  0  0  0  0  0  0
   -0.0271    3.8486   -1.2113 H   0  0  0  0  0  0  0  0  0  0  0  0
    0.5987    0.5388    2.1243 H   0  0  0  0  0  0  0  0  0  0  0  0
    2.0865    0.2918   -2.2754 H   0  0  0  0  0  0  0  0  0  0  0  0
   -5.5228   -2.9344   -1.5270 H   0  0  0  0  0  0  0  0  0  0  0  0
   -2.6448   -3.2904   -2.5010 H   0  0  0  0  0  0  0  0  0  0  0  0
    1.1723   -0.3487    4.0776 H   0  0  0  0  0  0  0  0  0  0  0  0
    2.5705   -1.3516    4.2813 H   0  0  0  0  0  0  0  0  0  0  0  0
    4.9234    0.0233   -1.4604 H   0  0  0  0  0  0  0  0  0  0  0  0
  1  5  1  0  0  0  0
  1  6  1  0  0  0  0
  1  7  1  0  0  0  0
  1  8  2  0  0  0  0
  2 18  1  0  0  0  0
  2 19  1  0  0  0  0
  3 16  1  0  0  0  0
  3 33  1  0  0  0  0
  4 17  1  0  0  0  0
  4 34  1  0  0  0  0
  5 20  1  0  0  0  0
  6 37  1  0  0  0  0
  7 38  1  0  0  0  0
  9 24  2  0  0  0  0
 10 25  2  0  0  0  0
 11 19  1  0  0  0  0
 11 21  1  0  0  0  0
 11 32  1  0  0  0  0
 12 21  1  0  0  0  0
 12 23  1  0  0  0  0
 12 35  1  0  0  0  0
 13 22  1  0  0  0  0
 13 25  1  0  0  0  0
 13 36  1  0  0  0  0
 14 23  2  0  0  0  0
 14 24  1  0  0  0  0
 15 23  1  0  0  0  0
 15 39  1  0  0  0  0
 15 40  1  0  0  0  0
 16 17  1  0  0  0  0
 16 18  1  0  0  0  0
 16 26  1  0  0  0  0
 17 19  1  0  0  0  0
 17 27  1  0  0  0  0
 18 20  1  0  0  0  0
 18 28  1  0  0  0  0
 19 29  1  0  0  0  0
 20 30  1  0  0  0  0
 20 31  1  0  0  0  0
 21 22  2  0  0  0  0
 22 24  1  0  0  0  0
 25 41  1  0  0  0  0
M  END
> <PUBCHEM_COMPOUND_CID>
5460646

> <PUBCHEM_CONFORMER_RMSD>
0.8

> <PUBCHEM_CONFORMER_DIVERSEORDER>
1
304
395
75
148
202
405
363
43
408
256
323
404
324
191
69
221
249
92
365
373
86
176
282
301
285
402
56
237
410
277
298
204
240
281
336
150
35
331
52
273
228
400
377
378
8
270
380
394
321
229
345
385
315
261
367
291
91
263
13
259
146
407
173
366
180
368
10
152
195
356
346
412
327
351
227
332
142
201
242
94
160
374
340
413
183
355
224
297
196
216
325
103
6
280
231
251
354
362
211
397
154
246
25
358
18
326
406
7
255
403
110
379
311
401
15
388
313
416
264
206
248
167
364
376
114
98
357
177
244
26
409
314
254
415
268
105
232
136
104
274
71
238
302
275
96
319
283
144
88
339
169
115
307
60
383
317
253
265
335
59
247
381
139
310
127
294
343
243
269
205
181
222
24
145
143
126
384
361
108
41
241
320
208
260
287
349
170
306
235
286
36
299
300
193
89
393
399
226
372
328
360
305
262
102
329
106
218
370
267
40
375
212
342
344
213
207
68
333
258
141
396
369
135
84
184
116
387
353
214
23
187
101
47
391
334
245
138
386
322
338
295
109
158
119
308
197
290
233
61
288
120
76
199
203
58
147
179
200
293
234
79
112
392
118
20
121
99
19
162
303
72
309
220
223
156
398
190
192
188
371
51
266
296
348
45
175
417
230
189
80
122
54
382
171
389
312
225
97
155
350
3
292
64
55
31
166
341
271
125
276
9
107
347
272
153
209
352
30
172
239
53
29
330
123
85
87
168
81
137
134
164
390
39
161
37
257
63
185
95
32
38
186
236
66
217
337
113
250
90
359
131
2
133
151
117
163
34
49
414
182
174
219
140
252
33
48
111
82
100
210
65
73
284
74
16
21
289
411
83
5
159
149
12
198
132
316
93
27
17
44
129
46
70
128
50
318
28
130
62
278
77
14
215
124
57
11
22
194
178
67
4
78
157
279
42
165

> <PUBCHEM_MMFF94_PARTIAL_CHARGES>
35
1 1.51
10 -0.57
11 -0.87
12 -0.55
13 -0.54
14 -0.66
15 -0.85
16 0.28
17 0.28
18 0.28
19 0.65
2 -0.56
20 0.28
21 0.2
22 0.12
23 0.55
24 0.77
25 0.57
3 -0.68
32 0.4
33 0.4
34 0.4
35 0.4
36 0.37
37 0.5
38 0.5
39 0.4
4 -0.68
40 0.4
41 0.06
5 -0.55
6 -0.77
7 -0.77
8 -0.7
9 -0.57

> <PUBCHEM_EFFECTIVE_ROTOR_COUNT>
8

> <PUBCHEM_PHARMACOPHORE_FEATURES>
19
1 10 acceptor
1 11 cation
1 11 donor
1 12 donor
1 13 donor
1 14 donor
1 15 donor
1 2 acceptor
1 3 acceptor
1 3 donor
1 4 acceptor
1 4 donor
1 6 acceptor
1 7 acceptor
1 8 acceptor
1 9 acceptor
4 1 6 7 8 anion
5 2 16 17 18 19 rings
6 12 14 21 22 23 24 rings

> <PUBCHEM_HEAVY_ATOM_COUNT>
25

> <PUBCHEM_ATOM_DEF_STEREO_COUNT>
4

> <PUBCHEM_ATOM_UDEF_STEREO_COUNT>
0

> <PUBCHEM_BOND_DEF_STEREO_COUNT>
0

> <PUBCHEM_BOND_UDEF_STEREO_COUNT>
0

> <PUBCHEM_ISOTOPIC_ATOM_COUNT>
0

> <PUBCHEM_COMPONENT_COUNT>
1

> <PUBCHEM_CACTVS_TAUTO_COUNT>
18

> <PUBCHEM_CONFORMER_ID>
005352A600000001

> <PUBCHEM_MMFF94_ENERGY>
49.7315

> <PUBCHEM_FEATURE_SELFOVERLAP>
96.633

> <PUBCHEM_SHAPE_FINGERPRINT>
11049842 53 17185027813828197680
11720765 8 14545413524244252226
11796584 16 17899132999803789782
12363563 72 18264786363113573811
12553582 1 18340201887190268427
12788726 201 18343297072614881339
13911987 19 15696279942934414702
15842332 3 17916868040121915680
16752209 62 18339656641023079563
21452121 199 18049179782338276841
23559900 14 18260842500297834800
23598288 3 17987507277367031621
23598291 2 17774150357200398404
238 59 15554183526716018314
474 4 16629375096048207796
574716 61 17703782630914094654
602551 16 18262247727871300258
603831 33 17988916795238591084
633830 44 17201896310962870252

> <PUBCHEM_SHAPE_MULTIPOLES>
440.61
8.94
3.86
2.55
1.9
0.52
0.42
-5.9
-3.72
-6.88
-0.59
4.19
-0.72
-2

> <PUBCHEM_SHAPE_SELFOVERLAP>
908.792

> <PUBCHEM_SHAPE_VOLUME>
253.3

> <PUBCHEM_COORDINATE_TYPE>
2
5
10

$$$$

