24755534
  -OEChem-07051213153D

 71 73  0     1  0  0  0  0  0999 V2000
   -1.2461   -2.1612   -2.0384 P   0  0  1  0  0  0  0  0  0  0  0  0
    1.1764   -3.7028   -1.3967 P   0  0  2  0  0  0  0  0  0  0  0  0
   -0.9482    0.4305    0.4684 O   0  0  0  0  0  0  0  0  0  0  0  0
    4.3296   -1.0647   -0.0693 O   0  0  0  0  0  0  0  0  0  0  0  0
   -1.7502   -0.7574   -1.4205 O   0  0  0  0  0  0  0  0  0  0  0  0
   -2.9954    3.3834   -0.3107 O   0  0  0  0  0  0  0  0  0  0  0  0
    5.3045   -1.4762    2.7360 O   0  0  0  0  0  0  0  0  0  0  0  0
    4.1130    0.9732    2.8734 O   0  0  0  0  0  0  0  0  0  0  0  0
    2.5504   -3.1265   -0.7666 O   0  0  0  0  0  0  0  0  0  0  0  0
    0.1851   -2.4277   -1.3354 O   0  0  0  0  0  0  0  0  0  0  0  0
   -0.3512    3.8744    0.2521 O   0  0  0  0  0  0  0  0  0  0  0  0
    0.5733    2.1897    1.4781 O   0  0  0  0  0  0  0  0  0  0  0  0
   -2.2054   -3.2729   -1.3594 O   0  0  0  0  0  0  0  0  0  0  0  0
   -1.2126   -2.2053   -3.5387 O   0  0  0  0  0  0  0  0  0  0  0  0
   -6.2240    0.5302   -1.3790 O   0  0  0  0  0  0  0  0  0  0  0  0
   -3.9331   -2.7366    1.8347 O   0  0  0  0  0  0  0  0  0  0  0  0
    0.5943   -4.6720   -0.2397 O   0  0  0  0  0  0  0  0  0  0  0  0
    5.0430    2.9575    0.3810 O   0  0  0  0  0  0  0  0  0  0  0  0
    1.2968   -4.3356   -2.7524 O   0  0  0  0  0  0  0  0  0  0  0  0
    1.7598    3.7711   -2.7501 O   0  0  0  0  0  0  0  0  0  0  0  0
   -5.0285    1.4342    0.4019 N   0  0  0  0  0  0  0  0  0  0  0  0
   -3.4279   -0.4647    1.8290 N   0  0  0  0  0  0  0  0  0  0  0  0
    3.6928    1.1734   -0.2923 N   0  0  0  0  0  0  0  0  0  0  0  0
    3.4070    3.3608   -1.1777 N   0  0  0  0  0  0  0  0  0  0  0  0
   -3.7004    1.1010   -0.0632 C   0  0  2  0  0  0  0  0  0  0  0  0
   -3.2744   -0.3015    0.3985 C   0  0  1  0  0  0  0  0  0  0  0  0
   -2.6820    2.1647    0.3637 C   0  0  1  0  0  0  0  0  0  0  0  0
   -1.8253   -0.5929   -0.0067 C   0  0  2  0  0  0  0  0  0  0  0  0
    3.9661   -1.3729    2.2511 C   0  0  1  0  0  0  0  0  0  0  0  0
    3.6448    0.0640    1.8986 C   0  0  2  0  0  0  0  0  0  0  0  0
   -1.2666    1.7314   -0.0152 C   0  0  1  0  0  0  0  0  0  0  0  0
    3.9054   -2.0561    0.8918 C   0  0  1  0  0  0  0  0  0  0  0  0
    4.3492    0.2257    0.5625 C   0  0  1  0  0  0  0  0  0  0  0  0
    2.5046   -2.5167    0.5115 C   0  0  0  0  0  0  0  0  0  0  0  0
   -0.2457    2.5870    0.6628 C   0  0  0  0  0  0  0  0  0  0  0  0
   -6.1772    1.1173   -0.3013 C   0  0  0  0  0  0  0  0  0  0  0  0
   -3.7449   -1.6735    2.4204 C   0  0  0  0  0  0  0  0  0  0  0  0
    4.1176    2.5228   -0.3081 C   0  0  0  0  0  0  0  0  0  0  0  0
    2.6407    0.7641   -1.1033 C   0  0  0  0  0  0  0  0  0  0  0  0
   -7.4240    1.5560    0.4191 C   0  0  0  0  0  0  0  0  0  0  0  0
   -3.8182   -1.5693    3.9203 C   0  0  0  0  0  0  0  0  0  0  0  0
    1.9730    1.5745   -1.9270 C   0  0  0  0  0  0  0  0  0  0  0  0
    2.3536    2.9994   -2.0031 C   0  0  0  0  0  0  0  0  0  0  0  0
   -3.7465    1.0954   -1.1613 H   0  0  0  0  0  0  0  0  0  0  0  0
   -3.9302   -1.0362   -0.0871 H   0  0  0  0  0  0  0  0  0  0  0  0
   -2.7552    2.3573    1.4408 H   0  0  0  0  0  0  0  0  0  0  0  0
   -1.4925   -1.5179    0.4775 H   0  0  0  0  0  0  0  0  0  0  0  0
    3.2990   -1.7956    3.0078 H   0  0  0  0  0  0  0  0  0  0  0  0
    2.5609    0.1929    1.7961 H   0  0  0  0  0  0  0  0  0  0  0  0
    4.6077   -2.8933    0.8102 H   0  0  0  0  0  0  0  0  0  0  0  0
   -1.0842    1.7767   -1.0954 H   0  0  0  0  0  0  0  0  0  0  0  0
    5.3968    0.5200    0.6995 H   0  0  0  0  0  0  0  0  0  0  0  0
   -5.1171    1.8611    1.3197 H   0  0  0  0  0  0  0  0  0  0  0  0
   -3.2317    0.3339    2.4254 H   0  0  0  0  0  0  0  0  0  0  0  0
    1.7908   -1.6894    0.4964 H   0  0  0  0  0  0  0  0  0  0  0  0
    2.1625   -3.2505    1.2476 H   0  0  0  0  0  0  0  0  0  0  0  0
   -2.9145    3.2289   -1.2674 H   0  0  0  0  0  0  0  0  0  0  0  0
    5.4779   -2.4168    2.9123 H   0  0  0  0  0  0  0  0  0  0  0  0
    3.6980    0.7336    3.7195 H   0  0  0  0  0  0  0  0  0  0  0  0
    2.3459   -0.2738   -1.0637 H   0  0  0  0  0  0  0  0  0  0  0  0
   -7.3186    2.5867    0.7697 H   0  0  0  0  0  0  0  0  0  0  0  0
   -8.2791    1.5041   -0.2605 H   0  0  0  0  0  0  0  0  0  0  0  0
   -7.6015    0.8966    1.2731 H   0  0  0  0  0  0  0  0  0  0  0  0
   -4.4177   -0.7023    4.2125 H   0  0  0  0  0  0  0  0  0  0  0  0
   -4.2843   -2.4699    4.3294 H   0  0  0  0  0  0  0  0  0  0  0  0
   -2.8087   -1.4687    4.3280 H   0  0  0  0  0  0  0  0  0  0  0  0
    3.6951    4.3349   -1.2051 H   0  0  0  0  0  0  0  0  0  0  0  0
    1.1568    1.2191   -2.5440 H   0  0  0  0  0  0  0  0  0  0  0  0
    0.3125    4.4525    0.6853 H   0  0  0  0  0  0  0  0  0  0  0  0
   -2.1672   -4.1962   -1.6881 H   0  0  0  0  0  0  0  0  0  0  0  0
    0.3727   -4.2999    0.6399 H   0  0  0  0  0  0  0  0  0  0  0  0
  1  5  1  0  0  0  0
  1 10  1  0  0  0  0
  1 13  1  0  0  0  0
  1 14  2  0  0  0  0
  2  9  1  0  0  0  0
  2 10  1  0  0  0  0
  2 17  1  0  0  0  0
  2 19  2  0  0  0  0
  3 28  1  0  0  0  0
  3 31  1  0  0  0  0
  4 32  1  0  0  0  0
  4 33  1  0  0  0  0
  5 28  1  0  0  0  0
  6 27  1  0  0  0  0
  6 57  1  0  0  0  0
  7 29  1  0  0  0  0
  7 58  1  0  0  0  0
  8 30  1  0  0  0  0
  8 59  1  0  0  0  0
  9 34  1  0  0  0  0
 11 35  1  0  0  0  0
 11 69  1  0  0  0  0
 12 35  2  0  0  0  0
 13 70  1  0  0  0  0
 15 36  2  0  0  0  0
 16 37  2  0  0  0  0
 17 71  1  0  0  0  0
 18 38  2  0  0  0  0
 20 43  2  0  0  0  0
 21 25  1  0  0  0  0
 21 36  1  0  0  0  0
 21 53  1  0  0  0  0
 22 26  1  0  0  0  0
 22 37  1  0  0  0  0
 22 54  1  0  0  0  0
 23 33  1  0  0  0  0
 23 38  1  0  0  0  0
 23 39  1  0  0  0  0
 24 38  1  0  0  0  0
 24 43  1  0  0  0  0
 24 67  1  0  0  0  0
 25 26  1  0  0  0  0
 25 27  1  0  0  0  0
 25 44  1  0  0  0  0
 26 28  1  0  0  0  0
 26 45  1  0  0  0  0
 27 31  1  0  0  0  0
 27 46  1  0  0  0  0
 28 47  1  0  0  0  0
 29 30  1  0  0  0  0
 29 32  1  0  0  0  0
 29 48  1  0  0  0  0
 30 33  1  0  0  0  0
 30 49  1  0  0  0  0
 31 35  1  0  0  0  0
 31 51  1  0  0  0  0
 32 34  1  0  0  0  0
 32 50  1  0  0  0  0
 33 52  1  0  0  0  0
 34 55  1  0  0  0  0
 34 56  1  0  0  0  0
 36 40  1  0  0  0  0
 37 41  1  0  0  0  0
 39 42  2  0  0  0  0
 39 60  1  0  0  0  0
 40 61  1  0  0  0  0
 40 62  1  0  0  0  0
 40 63  1  0  0  0  0
 41 64  1  0  0  0  0
 41 65  1  0  0  0  0
 41 66  1  0  0  0  0
 42 43  1  0  0  0  0
 42 68  1  0  0  0  0
M  END
> <PUBCHEM_COMPOUND_CID>
24755534

> <PUBCHEM_CONFORMER_RMSD>
1.4

> <PUBCHEM_CONFORMER_DIVERSEORDER>
1
125
97
79
47
72
65
55
44
114
127
147
150
69
120
126
2
159
51
103
50
112
138
81
153
117
76
163
84
156
10
91
104
88
18
59
86
53
62
119
41
92
148
71
83
133
30
155
95
113
115
143
15
16
116
12
123
146
128
8
63
135
34
45
11
43
154
82
80
141
161
74
131
23
4
142
107
101
52
160
109
99
102
85
58
139
46
145
108
100
70
136
21
129
144
39
93
130
118
75
89
110
42
26
27
132
78
105
35
64
121
162
67
96
149
6
56
48
140
151
68
134
77
94
49
37
7
157
31
3
54
73
122
61
5
98
106
124
25
111
22
90
13
57
152
14
158
40
66
28
137
60
38
24
32
9
19
33
29
36
20
87
17

> <PUBCHEM_MMFF94_PARTIAL_CHARGES>
54
1 1.51
10 -0.54
11 -0.65
12 -0.57
13 -0.77
14 -0.7
15 -0.57
16 -0.57
17 -0.77
18 -0.57
19 -0.7
2 1.51
20 -0.57
21 -0.73
22 -0.73
23 -0.47
24 -0.49
25 0.3
26 0.3
27 0.28
28 0.56
29 0.28
3 -0.56
30 0.28
31 0.34
32 0.28
33 0.58
34 0.28
35 0.66
36 0.57
37 0.57
38 0.69
39 -0.04
4 -0.56
40 0.06
41 0.06
42 -0.14
43 0.62
5 -0.55
53 0.37
54 0.37
57 0.4
58 0.4
59 0.4
6 -0.68
60 0.15
67 0.37
68 0.15
69 0.5
7 -0.68
70 0.5
71 0.5
8 -0.68
9 -0.55

> <PUBCHEM_EFFECTIVE_ROTOR_COUNT>
15.2

> <PUBCHEM_PHARMACOPHORE_FEATURES>
25
1 11 acceptor
1 12 acceptor
1 13 acceptor
1 14 acceptor
1 15 acceptor
1 16 acceptor
1 17 acceptor
1 18 acceptor
1 19 acceptor
1 20 acceptor
1 21 donor
1 22 donor
1 24 donor
1 3 acceptor
1 4 acceptor
1 6 acceptor
1 6 donor
1 7 acceptor
1 7 donor
1 8 acceptor
1 8 donor
3 11 12 35 anion
5 4 29 30 32 33 rings
6 23 24 38 39 42 43 rings
6 3 25 26 27 28 31 rings

> <PUBCHEM_HEAVY_ATOM_COUNT>
43

> <PUBCHEM_ATOM_DEF_STEREO_COUNT>
9

> <PUBCHEM_ATOM_UDEF_STEREO_COUNT>
0

> <PUBCHEM_BOND_DEF_STEREO_COUNT>
0

> <PUBCHEM_BOND_UDEF_STEREO_COUNT>
0

> <PUBCHEM_ISOTOPIC_ATOM_COUNT>
0

> <PUBCHEM_COMPONENT_COUNT>
1

> <PUBCHEM_CACTVS_TAUTO_COUNT>
12

> <PUBCHEM_CONFORMER_ID>
0179BD4E00000001

> <PUBCHEM_MMFF94_ENERGY>
51.9671

> <PUBCHEM_FEATURE_SELFOVERLAP>
126.98

> <PUBCHEM_SHAPE_FINGERPRINT>
11513181 2 18041283188907464630
12422481 6 18123748914211053909
12788726 201 17829617162409773134
1361 2 18187937226335128611
15001296 14 18411423873723342532
150020 26 17972302169663181114
15274700 34 18130214975233794035
15297060 5 17968089777729907658
15406563 42 16413490218139378424
1979834 28 18262241135059648850
20511986 3 18267311936722153468
20764821 26 18189072931040085940
22149856 69 18040706009980111531
23559900 14 18200008755632149439
3493558 16 17103969587398333937
469060 322 18189060798212006491

> <PUBCHEM_SHAPE_MULTIPOLES>
767.05
12.3
5.62
3.08
11.84
1.41
0.67
-4.26
5.63
-3.11
-3.06
-0.36
2.22
-0.16

> <PUBCHEM_SHAPE_SELFOVERLAP>
1570.805

> <PUBCHEM_SHAPE_VOLUME>
442.4

> <PUBCHEM_COORDINATE_TYPE>
2
5
10

$$$$

