73230
  -OEChem-07051212572D

 33 36  0     1  0  0  0  0  0999 V2000
    2.3597    0.1730    0.0000 O   0  0  0  0  0  0  0  0  0  0  0  0
    4.1473   -1.4365    0.0000 O   0  0  0  0  0  0  0  0  0  0  0  0
    2.7624   -2.5580    0.0000 O   0  0  0  0  0  0  0  0  0  0  0  0
    4.2518    1.5580    0.0000 O   0  0  0  0  0  0  0  0  0  0  0  0
    7.7438    1.5926    0.0000 O   0  0  0  0  0  0  0  0  0  0  0  0
    9.5140    1.5821    0.0000 O   0  0  0  0  0  0  0  0  0  0  0  0
    2.6691   -0.7784    0.0000 C   0  0  1  0  0  0  0  0  0  0  0  0
    3.3383   -0.0353    0.0000 C   0  0  2  0  0  0  0  0  0  0  0  0
    4.2518   -0.4420    0.0000 C   0  0  2  0  0  0  0  0  0  0  0  0
    3.1691   -1.6444    0.0000 C   0  0  0  0  0  0  0  0  0  0  0  0
    2.0000   -1.5216    0.0000 C   0  0  0  0  0  0  0  0  0  0  0  0
    5.1178    0.0580    0.0000 C   0  0  0  0  0  0  0  0  0  0  0  0
    5.1178    1.0580    0.0000 C   0  0  0  0  0  0  0  0  0  0  0  0
    5.9839   -0.4420    0.0000 C   0  0  0  0  0  0  0  0  0  0  0  0
    6.8499    0.0580    0.0000 C   0  0  0  0  0  0  0  0  0  0  0  0
    5.9839    1.5580    0.0000 C   0  0  0  0  0  0  0  0  0  0  0  0
    6.8499    1.0580    0.0000 C   0  0  0  0  0  0  0  0  0  0  0  0
    7.7438   -0.4767    0.0000 C   0  0  0  0  0  0  0  0  0  0  0  0
    8.6499    0.0372    0.0000 C   0  0  0  0  0  0  0  0  0  0  0  0
    4.2518    2.5580    0.0000 C   0  0  0  0  0  0  0  0  0  0  0  0
    8.6499    1.0788    0.0000 C   0  0  0  0  0  0  0  0  0  0  0  0
    3.6010    0.7731    0.0000 H   0  0  0  0  0  0  0  0  0  0  0  0
    4.9647   -0.9050    0.0000 H   0  0  0  0  0  0  0  0  0  0  0  0
    1.5392   -1.1067    0.0000 H   0  0  0  0  0  0  0  0  0  0  0  0
    1.5851   -1.9823    0.0000 H   0  0  0  0  0  0  0  0  0  0  0  0
    2.4608   -1.9364    0.0000 H   0  0  0  0  0  0  0  0  0  0  0  0
    5.9839   -1.0620    0.0000 H   0  0  0  0  0  0  0  0  0  0  0  0
    5.9839    2.1780    0.0000 H   0  0  0  0  0  0  0  0  0  0  0  0
    7.7367   -1.0966    0.0000 H   0  0  0  0  0  0  0  0  0  0  0  0
    9.1856   -0.2749    0.0000 H   0  0  0  0  0  0  0  0  0  0  0  0
    4.8718    2.5580    0.0000 H   0  0  0  0  0  0  0  0  0  0  0  0
    4.2518    3.1780    0.0000 H   0  0  0  0  0  0  0  0  0  0  0  0
    3.6318    2.5580    0.0000 H   0  0  0  0  0  0  0  0  0  0  0  0
  1  7  1  0  0  0  0
  1  8  1  0  0  0  0
  2  9  1  0  0  0  0
  2 10  1  0  0  0  0
  3 10  2  0  0  0  0
  4 13  1  0  0  0  0
  4 20  1  0  0  0  0
  5 17  1  0  0  0  0
  5 21  1  0  0  0  0
  6 21  2  0  0  0  0
  7  8  1  0  0  0  0
  7 10  1  0  0  0  0
  7 11  1  6  0  0  0
  8  9  1  0  0  0  0
  8 22  1  6  0  0  0
  9 12  1  0  0  0  0
  9 23  1  1  0  0  0
 11 24  1  0  0  0  0
 11 25  1  0  0  0  0
 11 26  1  0  0  0  0
 12 13  2  0  0  0  0
 12 14  1  0  0  0  0
 13 16  1  0  0  0  0
 14 15  2  0  0  0  0
 14 27  1  0  0  0  0
 15 17  1  0  0  0  0
 15 18  1  0  0  0  0
 16 17  2  0  0  0  0
 16 28  1  0  0  0  0
 18 19  2  0  0  0  0
 18 29  1  0  0  0  0
 19 21  1  0  0  0  0
 19 30  1  0  0  0  0
 20 31  1  0  0  0  0
 20 32  1  0  0  0  0
 20 33  1  0  0  0  0
M  END
> <PUBCHEM_COMPOUND_CID>
73230

> <PUBCHEM_COMPOUND_CANONICALIZED>
1

> <PUBCHEM_CACTVS_COMPLEXITY>
528

> <PUBCHEM_CACTVS_HBOND_ACCEPTOR>
6

> <PUBCHEM_CACTVS_HBOND_DONOR>
0

> <PUBCHEM_CACTVS_ROTATABLE_BOND>
2

> <PUBCHEM_CACTVS_SUBSKEYS>
AAADccBwOAAAAAAAAAAAAAAAEgAAASAAAAA0QIAAAAAAAACBAAAAGgAAAAAADFSgmAIyDoAABACIAiDSCAICCAAgIAAIiAFGCMgNJzaEMR6COiCl4BUKqYfK6PyOIAACCAAIAABAAAQQABAAAAAAAAAAAA==

> <PUBCHEM_IUPAC_OPENEYE_NAME>
7-methoxy-6-[(1S,2S,5S)-5-methyl-4-oxo-3,6-dioxabicyclo[3.1.0]hexan-2-yl]chromen-2-one

> <PUBCHEM_IUPAC_CAS_NAME>
7-methoxy-6-[(1S,2S,5S)-5-methyl-4-oxo-3,6-dioxabicyclo[3.1.0]hexan-2-yl]-1-benzopyran-2-one

> <PUBCHEM_IUPAC_NAME>
7-methoxy-6-[(1S,2S,5S)-5-methyl-4-oxo-3,6-dioxabicyclo[3.1.0]hexan-2-yl]chromen-2-one

> <PUBCHEM_IUPAC_SYSTEMATIC_NAME>
7-methoxy-6-[(1S,2S,5S)-5-methyl-4-oxidanylidene-3,6-dioxabicyclo[3.1.0]hexan-2-yl]chromen-2-one

> <PUBCHEM_IUPAC_TRADITIONAL_NAME>
6-[(1S,2S,5S)-4-keto-5-methyl-3,6-dioxabicyclo[3.1.0]hexan-2-yl]-7-methoxy-coumarin

> <PUBCHEM_IUPAC_INCHI>
InChI=1S/C15H12O6/c1-15-13(21-15)12(20-14(15)17)8-5-7-3-4-11(16)19-9(7)6-10(8)18-2/h3-6,12-13H,1-2H3/t12-,13-,15-/m0/s1

> <PUBCHEM_IUPAC_INCHIKEY>
VIORQNDMAWQQCV-YDHLFZDLSA-N

> <PUBCHEM_XLOGP3_AA>
1.3

> <PUBCHEM_EXACT_MASS>
288.063388

> <PUBCHEM_MOLECULAR_FORMULA>
C15H12O6

> <PUBCHEM_MOLECULAR_WEIGHT>
288.25218

> <PUBCHEM_OPENEYE_CAN_SMILES>
CC12C(O1)C(OC2=O)C3=C(C=C4C(=C3)C=CC(=O)O4)OC

> <PUBCHEM_OPENEYE_ISO_SMILES>
C[C@@]12[C@@H](O1)[C@@H](OC2=O)C3=C(C=C4C(=C3)C=CC(=O)O4)OC

> <PUBCHEM_CACTVS_TPSA>
74.4

> <PUBCHEM_MONOISOTOPIC_WEIGHT>
288.063388

> <PUBCHEM_TOTAL_CHARGE>
0

> <PUBCHEM_HEAVY_ATOM_COUNT>
21

> <PUBCHEM_ATOM_DEF_STEREO_COUNT>
3

> <PUBCHEM_ATOM_UDEF_STEREO_COUNT>
0

> <PUBCHEM_BOND_DEF_STEREO_COUNT>
0

> <PUBCHEM_BOND_UDEF_STEREO_COUNT>
0

> <PUBCHEM_ISOTOPIC_ATOM_COUNT>
0

> <PUBCHEM_COMPONENT_COUNT>
1

> <PUBCHEM_CACTVS_TAUTO_COUNT>
1

> <PUBCHEM_COORDINATE_TYPE>
1
5
255

> <PUBCHEM_BONDANNOTATIONS>
12  13  8
12  14  8
13  16  8
14  15  8
15  17  8
15  18  8
16  17  8
18  19  8
19  21  8
5  17  8
5  21  8
7  11  6
8  22  6
9  23  5

$$$$

