5280631
  -OEChem-07051212493D

 44 46  0     0  0  0  0  0  0999 V2000
    1.6875   -3.1932   -0.6341 S   0  0  0  0  0  0  0  0  0  0  0  0
   -5.9637    2.1440   -0.9678 S   0  0  0  0  0  0  0  0  0  0  0  0
    5.3197    1.1875   -1.5644 S   0  0  0  0  0  0  0  0  0  0  0  0
   -0.8249    0.7062    0.8382 O   0  0  0  0  0  0  0  0  0  0  0  0
    1.2966   -2.3034    0.6671 O   0  0  0  0  0  0  0  0  0  0  0  0
   -5.4975    1.4438    0.4449 O   0  0  0  0  0  0  0  0  0  0  0  0
   -3.8501   -2.9879    0.0079 O   0  0  0  0  0  0  0  0  0  0  0  0
   -1.2651   -3.3012    0.2458 O   0  0  0  0  0  0  0  0  0  0  0  0
    4.2032    2.1667   -0.8599 O   0  0  0  0  0  0  0  0  0  0  0  0
    5.1398    2.5152    1.7330 O   0  0  0  0  0  0  0  0  0  0  0  0
    3.1014   -3.8974   -0.2227 O   0  0  0  0  0  0  0  0  0  0  0  0
    1.9371   -2.3091   -1.7578 O   0  0  0  0  0  0  0  0  0  0  0  0
    0.6918   -4.2434   -0.7413 O   0  0  0  0  0  0  0  0  0  0  0  0
   -7.1334    3.1900   -0.5179 O   0  0  0  0  0  0  0  0  0  0  0  0
    6.0357    2.1464   -2.6746 O   0  0  0  0  0  0  0  0  0  0  0  0
   -4.8561    2.9157   -1.5007 O   0  0  0  0  0  0  0  0  0  0  0  0
   -6.5897    1.1183   -1.7819 O   0  0  0  0  0  0  0  0  0  0  0  0
    6.3198    0.8242   -0.5773 O   0  0  0  0  0  0  0  0  0  0  0  0
    4.6034    0.1509   -2.2849 O   0  0  0  0  0  0  0  0  0  0  0  0
   -2.2893   -1.1841    0.4214 C   0  0  0  0  0  0  0  0  0  0  0  0
    0.2672   -0.1470    0.8248 C   0  0  0  0  0  0  0  0  0  0  0  0
   -2.0721    0.1757    0.6319 C   0  0  0  0  0  0  0  0  0  0  0  0
    0.1933   -1.4780    0.6418 C   0  0  0  0  0  0  0  0  0  0  0  0
    1.5442    0.5502    1.0593 C   0  0  0  0  0  0  0  0  0  0  0  0
   -1.1357   -2.0969    0.4195 C   0  0  0  0  0  0  0  0  0  0  0  0
   -3.5838   -1.6687    0.2176 C   0  0  0  0  0  0  0  0  0  0  0  0
   -3.1499    1.0614    0.6406 C   0  0  0  0  0  0  0  0  0  0  0  0
   -4.4439    0.5816    0.4372 C   0  0  0  0  0  0  0  0  0  0  0  0
   -4.6601   -0.7808    0.2261 C   0  0  0  0  0  0  0  0  0  0  0  0
    2.2822    1.0368   -0.0200 C   0  0  0  0  0  0  0  0  0  0  0  0
    2.0156    0.7242    2.3607 C   0  0  0  0  0  0  0  0  0  0  0  0
    3.4907    1.6972    0.2019 C   0  0  0  0  0  0  0  0  0  0  0  0
    3.2243    1.3842    2.5826 C   0  0  0  0  0  0  0  0  0  0  0  0
    3.9618    1.8709    1.5032 C   0  0  0  0  0  0  0  0  0  0  0  0
   -2.9830    2.1227    0.8072 H   0  0  0  0  0  0  0  0  0  0  0  0
   -5.6706   -1.1509    0.0701 H   0  0  0  0  0  0  0  0  0  0  0  0
    1.9200    0.9068   -1.0377 H   0  0  0  0  0  0  0  0  0  0  0  0
    1.4518    0.3510    3.2122 H   0  0  0  0  0  0  0  0  0  0  0  0
    3.5858    1.5165    3.5987 H   0  0  0  0  0  0  0  0  0  0  0  0
   -3.0311   -3.5063    0.0171 H   0  0  0  0  0  0  0  0  0  0  0  0
    5.5040    2.8060    0.8792 H   0  0  0  0  0  0  0  0  0  0  0  0
    3.1250   -4.3003    0.6768 H   0  0  0  0  0  0  0  0  0  0  0  0
   -7.8107    2.8245    0.0984 H   0  0  0  0  0  0  0  0  0  0  0  0
    5.4197    2.6747   -3.2345 H   0  0  0  0  0  0  0  0  0  0  0  0
  1  5  1  0  0  0  0
  1 11  1  0  0  0  0
  1 12  2  0  0  0  0
  1 13  2  0  0  0  0
  2  6  1  0  0  0  0
  2 14  1  0  0  0  0
  2 16  2  0  0  0  0
  2 17  2  0  0  0  0
  3  9  1  0  0  0  0
  3 15  1  0  0  0  0
  3 18  2  0  0  0  0
  3 19  2  0  0  0  0
  4 21  1  0  0  0  0
  4 22  1  0  0  0  0
  5 23  1  0  0  0  0
  6 28  1  0  0  0  0
  7 26  1  0  0  0  0
  7 40  1  0  0  0  0
  8 25  2  0  0  0  0
  9 32  1  0  0  0  0
 10 34  1  0  0  0  0
 10 41  1  0  0  0  0
 11 42  1  0  0  0  0
 14 43  1  0  0  0  0
 15 44  1  0  0  0  0
 20 22  1  0  0  0  0
 20 25  1  0  0  0  0
 20 26  2  0  0  0  0
 21 23  2  0  0  0  0
 21 24  1  0  0  0  0
 22 27  2  0  0  0  0
 23 25  1  0  0  0  0
 24 30  2  0  0  0  0
 24 31  1  0  0  0  0
 26 29  1  0  0  0  0
 27 28  1  0  0  0  0
 27 35  1  0  0  0  0
 28 29  2  0  0  0  0
 29 36  1  0  0  0  0
 30 32  1  0  0  0  0
 30 37  1  0  0  0  0
 31 33  2  0  0  0  0
 31 38  1  0  0  0  0
 32 34  2  0  0  0  0
 33 34  1  0  0  0  0
 33 39  1  0  0  0  0
M  END
> <PUBCHEM_COMPOUND_CID>
5280631

> <PUBCHEM_CONFORMER_RMSD>
1

> <PUBCHEM_CONFORMER_DIVERSEORDER>
1
19
7
28
38
14
13
11
26
12
33
32
18
6
25
27
10
22
40
17
24
41
3
30
20
15
36
9
21
37
35
8
4
23
29
31
39
5
16
2
34

> <PUBCHEM_MMFF94_PARTIAL_CHARGES>
44
1 1.67
10 -0.53
11 -0.68
12 -0.65
13 -0.65
14 -0.68
15 -0.68
16 -0.65
17 -0.65
18 -0.65
19 -0.65
2 1.67
20 0.09
21 0.05
22 0.08
23 0.09
24 0.03
25 0.47
26 0.08
27 -0.15
28 0.08
29 -0.15
3 1.67
30 -0.15
31 -0.15
32 0.08
33 -0.15
34 0.08
35 0.15
36 0.15
37 0.15
38 0.15
39 0.15
4 -0.16
40 0.45
41 0.45
42 0.5
43 0.5
44 0.5
5 -0.26
6 -0.27
7 -0.53
8 -0.57
9 -0.27

> <PUBCHEM_EFFECTIVE_ROTOR_COUNT>
7

> <PUBCHEM_PHARMACOPHORE_FEATURES>
19
1 10 donor
1 11 acceptor
1 12 acceptor
1 13 acceptor
1 14 acceptor
1 15 acceptor
1 16 acceptor
1 17 acceptor
1 18 acceptor
1 19 acceptor
1 4 acceptor
1 7 donor
1 8 acceptor
4 1 11 12 13 anion
4 2 14 16 17 anion
4 3 15 18 19 anion
6 20 22 26 27 28 29 rings
6 24 30 31 32 33 34 rings
6 4 20 21 22 23 25 rings

> <PUBCHEM_HEAVY_ATOM_COUNT>
34

> <PUBCHEM_ATOM_DEF_STEREO_COUNT>
0

> <PUBCHEM_ATOM_UDEF_STEREO_COUNT>
0

> <PUBCHEM_BOND_DEF_STEREO_COUNT>
0

> <PUBCHEM_BOND_UDEF_STEREO_COUNT>
0

> <PUBCHEM_ISOTOPIC_ATOM_COUNT>
0

> <PUBCHEM_COMPONENT_COUNT>
1

> <PUBCHEM_CACTVS_TAUTO_COUNT>
25

> <PUBCHEM_CONFORMER_ID>
0050937700000001

> <PUBCHEM_MMFF94_ENERGY>
89.7986

> <PUBCHEM_FEATURE_SELFOVERLAP>
96.654

> <PUBCHEM_SHAPE_FINGERPRINT>
105312 117 18339369556349581855
10670039 82 18342455894110663613
11578080 2 18271519883875075871
1200032 147 18129370652770798017
12236239 1 17773332144729974560
12440610 7 18340498815812900327
12661589 4 13913194274196923941
12788726 201 17261031018501790554
13383665 225 18272077281079166743
13383668 1 8789727353091241985
13540713 4 18410849980599920243
13617811 41 18051694348293641311
14294032 229 18340481180908654955
14747281 78 17970613298802542277
14931854 50 18042659799119072390
15163728 17 18131069337820767623
15324884 4 17679586627661655186
15961568 22 17775566468369672885
20554085 129 17678204666120756832
21033648 29 17897176727598486304
21279426 13 18187075140536177850
21859007 373 18338249193315811544
22149856 69 18340192104220236737
22182313 1 18411410714371068931
22393880 68 17967812704335266958
2260408 40 13973688385522064009
23366157 5 18271249425273695418
23559900 14 18186799158300685600
23569914 152 16882438829620087109
24771750 20 18338510945496717911
25025965 108 15867690692634334132
27425 322 17417519208477089582
3298306 158 18114457873536686910
4015057 19 16298663859226563800
4058900 60 18202281424739548411
50009960 94 8285332964970084373
508706 21 17972314006672365238
513532 50 16588320405360417290

> <PUBCHEM_SHAPE_MULTIPOLES>
617.34
15.07
4.43
1.98
9.1
4.1
-0.27
-15.89
-7.57
0.55
-1.16
-3.12
-1.31
1.92

> <PUBCHEM_SHAPE_SELFOVERLAP>
1316.624

> <PUBCHEM_SHAPE_VOLUME>
343.7

> <PUBCHEM_COORDINATE_TYPE>
2
5
10

$$$$

