446894
  -OEChem-07051212452D

 39 39  0     1  0  0  0  0  0999 V2000
    8.5991    3.4400    0.0000 P   0  0  0  0  0  0  0  0  0  0  0  0
    7.7331   -0.0600    0.0000 O   0  0  0  0  0  0  0  0  0  0  0  0
    6.0010    1.9400    0.0000 O   0  0  0  0  0  0  0  0  0  0  0  0
    7.7331    2.9400    0.0000 O   0  0  0  0  0  0  0  0  0  0  0  0
    5.1350    0.4400    0.0000 O   0  0  0  0  0  0  0  0  0  0  0  0
    9.4651    3.9400    0.0000 O   0  0  0  0  0  0  0  0  0  0  0  0
    8.0991    4.3060    0.0000 O   0  0  0  0  0  0  0  0  0  0  0  0
    9.0991    2.5740    0.0000 O   0  0  0  0  0  0  0  0  0  0  0  0
    2.5369   -3.0600    0.0000 O   0  0  0  0  0  0  0  0  0  0  0  0
    3.4030   -1.5600    0.0000 O   0  0  0  0  0  0  0  0  0  0  0  0
    5.1350   -1.5600    0.0000 N   0  0  0  0  0  0  0  0  0  0  0  0
    6.8671    0.4400    0.0000 C   0  0  2  0  0  0  0  0  0  0  0  0
    6.8671    1.4400    0.0000 C   0  0  1  0  0  0  0  0  0  0  0  0
    6.0010   -0.0600    0.0000 C   0  0  0  0  0  0  0  0  0  0  0  0
    7.7331    1.9400    0.0000 C   0  0  0  0  0  0  0  0  0  0  0  0
    6.0010   -1.0600    0.0000 C   0  0  0  0  0  0  0  0  0  0  0  0
    5.1350   -2.5600    0.0000 C   0  0  0  0  0  0  0  0  0  0  0  0
    4.2690   -3.0600    0.0000 C   0  0  0  0  0  0  0  0  0  0  0  0
    6.0010   -3.0600    0.0000 C   0  0  0  0  0  0  0  0  0  0  0  0
    4.2690   -4.0600    0.0000 C   0  0  0  0  0  0  0  0  0  0  0  0
    6.0010   -4.0600    0.0000 C   0  0  0  0  0  0  0  0  0  0  0  0
    5.1350   -4.5600    0.0000 C   0  0  0  0  0  0  0  0  0  0  0  0
    3.4030   -2.5600    0.0000 C   0  0  0  0  0  0  0  0  0  0  0  0
    7.4040    0.7500    0.0000 H   0  0  0  0  0  0  0  0  0  0  0  0
    6.3301    1.1300    0.0000 H   0  0  0  0  0  0  0  0  0  0  0  0
    7.9451    1.3574    0.0000 H   0  0  0  0  0  0  0  0  0  0  0  0
    8.3437    2.0477    0.0000 H   0  0  0  0  0  0  0  0  0  0  0  0
    6.2131   -1.6426    0.0000 H   0  0  0  0  0  0  0  0  0  0  0  0
    6.6116   -0.9523    0.0000 H   0  0  0  0  0  0  0  0  0  0  0  0
    4.5981   -1.2500    0.0000 H   0  0  0  0  0  0  0  0  0  0  0  0
    6.0010    2.5600    0.0000 H   0  0  0  0  0  0  0  0  0  0  0  0
    8.2700    0.2500    0.0000 H   0  0  0  0  0  0  0  0  0  0  0  0
    6.5380   -2.7500    0.0000 H   0  0  0  0  0  0  0  0  0  0  0  0
    3.7320   -4.3700    0.0000 H   0  0  0  0  0  0  0  0  0  0  0  0
    6.5380   -4.3700    0.0000 H   0  0  0  0  0  0  0  0  0  0  0  0
    5.1350   -5.1800    0.0000 H   0  0  0  0  0  0  0  0  0  0  0  0
    9.4651    4.5600    0.0000 H   0  0  0  0  0  0  0  0  0  0  0  0
    7.4791    4.3060    0.0000 H   0  0  0  0  0  0  0  0  0  0  0  0
    2.0000   -2.7500    0.0000 H   0  0  0  0  0  0  0  0  0  0  0  0
  1  4  1  0  0  0  0
  1  6  1  0  0  0  0
  1  7  1  0  0  0  0
  1  8  2  0  0  0  0
 12  2  1  1  0  0  0
  2 32  1  0  0  0  0
 13  3  1  6  0  0  0
  3 31  1  0  0  0  0
  4 15  1  0  0  0  0
  5 14  2  0  0  0  0
  6 37  1  0  0  0  0
  7 38  1  0  0  0  0
  9 23  1  0  0  0  0
  9 39  1  0  0  0  0
 10 23  2  0  0  0  0
 11 16  1  0  0  0  0
 11 17  1  0  0  0  0
 11 30  1  0  0  0  0
 12 13  1  0  0  0  0
 12 14  1  0  0  0  0
 12 24  1  0  0  0  0
 13 15  1  0  0  0  0
 13 25  1  0  0  0  0
 14 16  1  0  0  0  0
 15 26  1  0  0  0  0
 15 27  1  0  0  0  0
 16 28  1  0  0  0  0
 16 29  1  0  0  0  0
 17 18  1  0  0  0  0
 17 19  2  0  0  0  0
 18 20  2  0  0  0  0
 18 23  1  0  0  0  0
 19 21  1  0  0  0  0
 19 33  1  0  0  0  0
 20 22  1  0  0  0  0
 20 34  1  0  0  0  0
 21 22  2  0  0  0  0
 21 35  1  0  0  0  0
 22 36  1  0  0  0  0
M  END
> <PUBCHEM_COMPOUND_CID>
446894

> <PUBCHEM_COMPOUND_CANONICALIZED>
1

> <PUBCHEM_CACTVS_COMPLEXITY>
465

> <PUBCHEM_CACTVS_HBOND_ACCEPTOR>
10

> <PUBCHEM_CACTVS_HBOND_DONOR>
6

> <PUBCHEM_CACTVS_ROTATABLE_BOND>
9

> <PUBCHEM_CACTVS_SUBSKEYS>
AAADceByPAIAAAAAAAAAAAAAAAAAAAAAAAAwAAAAAAAAAAABAAAAHgAQCCAADBzhmAYwyILAAxCIQqTSSIKCAAAlAgAIiIHIbMgJNj7AlbGEcYhn8AHJ2ce62CKOAAAAAAACAAAAAAAAAAQAAAAAAAAAAA==

> <PUBCHEM_IUPAC_OPENEYE_NAME>
2-[[(3R,4R)-3,4-dihydroxy-2-oxo-5-phosphonooxy-pentyl]amino]benzoic acid

> <PUBCHEM_IUPAC_CAS_NAME>
2-[[(3R,4R)-3,4-dihydroxy-2-oxo-5-phosphonooxypentyl]amino]benzoic acid

> <PUBCHEM_IUPAC_NAME>
2-[[(3R,4R)-3,4-dihydroxy-2-oxo-5-phosphonooxypentyl]amino]benzoic acid

> <PUBCHEM_IUPAC_SYSTEMATIC_NAME>
2-[[(3R,4R)-3,4-bis(oxidanyl)-2-oxidanylidene-5-phosphonooxy-pentyl]amino]benzoic acid

> <PUBCHEM_IUPAC_TRADITIONAL_NAME>
2-[[(3R,4R)-3,4-dihydroxy-2-keto-5-phosphonooxy-pentyl]amino]benzoic acid

> <PUBCHEM_IUPAC_INCHI>
InChI=1S/C12H16NO9P/c14-9(11(16)10(15)6-22-23(19,20)21)5-13-8-4-2-1-3-7(8)12(17)18/h1-4,10-11,13,15-16H,5-6H2,(H,17,18)(H2,19,20,21)/t10-,11+/m1/s1

> <PUBCHEM_IUPAC_INCHIKEY>
QKMBYNRMPRKVTO-MNOVXSKESA-N

> <PUBCHEM_XLOGP3_AA>
-1.3

> <PUBCHEM_EXACT_MASS>
349.056268

> <PUBCHEM_MOLECULAR_FORMULA>
C12H16NO9P

> <PUBCHEM_MOLECULAR_WEIGHT>
349.230502

> <PUBCHEM_OPENEYE_CAN_SMILES>
C1=CC=C(C(=C1)C(=O)O)NCC(=O)C(C(COP(=O)(O)O)O)O

> <PUBCHEM_OPENEYE_ISO_SMILES>
C1=CC=C(C(=C1)C(=O)O)NCC(=O)[C@@H]([C@@H](COP(=O)(O)O)O)O

> <PUBCHEM_CACTVS_TPSA>
174

> <PUBCHEM_MONOISOTOPIC_WEIGHT>
349.056268

> <PUBCHEM_TOTAL_CHARGE>
0

> <PUBCHEM_HEAVY_ATOM_COUNT>
23

> <PUBCHEM_ATOM_DEF_STEREO_COUNT>
2

> <PUBCHEM_ATOM_UDEF_STEREO_COUNT>
0

> <PUBCHEM_BOND_DEF_STEREO_COUNT>
0

> <PUBCHEM_BOND_UDEF_STEREO_COUNT>
0

> <PUBCHEM_ISOTOPIC_ATOM_COUNT>
0

> <PUBCHEM_COMPONENT_COUNT>
1

> <PUBCHEM_CACTVS_TAUTO_COUNT>
107

> <PUBCHEM_COORDINATE_TYPE>
1
5
255

> <PUBCHEM_BONDANNOTATIONS>
17  18  8
17  19  8
18  20  8
19  21  8
12  2  5
20  22  8
21  22  8
13  3  6

$$$$

