443808
  -OEChem-07051213033D

 36 39  0     0  0  0  0  0  0999 V2000
   -1.6825   -2.5136    0.0418 O   0  0  0  0  0  0  0  0  0  0  0  0
    0.4252   -2.2408   -0.6416 O   0  0  0  0  0  0  0  0  0  0  0  0
    2.5436    2.5755   -0.1579 O   0  0  0  0  0  0  0  0  0  0  0  0
    4.8624    1.6101    0.3558 O   0  0  0  0  0  0  0  0  0  0  0  0
   -6.2846   -0.1307    1.2532 O   0  0  0  0  0  0  0  0  0  0  0  0
   -0.0535    0.0480   -0.1844 C   0  0  0  0  0  0  0  0  0  0  0  0
   -1.4850   -0.0638   -0.1570 C   0  0  0  0  0  0  0  0  0  0  0  0
    0.5556    1.3132   -0.1363 C   0  0  0  0  0  0  0  0  0  0  0  0
   -2.2473    1.1365   -0.1372 C   0  0  0  0  0  0  0  0  0  0  0  0
    2.2906   -0.9959   -0.0502 C   0  0  0  0  0  0  0  0  0  0  0  0
    0.8428   -1.1418   -0.3015 C   0  0  0  0  0  0  0  0  0  0  0  0
    2.8664    0.2677    0.0402 C   0  0  0  0  0  0  0  0  0  0  0  0
    2.0263    1.4668   -0.0959 C   0  0  0  0  0  0  0  0  0  0  0  0
   -0.2213    2.4717   -0.1109 C   0  0  0  0  0  0  0  0  0  0  0  0
   -2.2297   -1.2740   -0.1279 C   0  0  0  0  0  0  0  0  0  0  0  0
   -1.6074    2.3802   -0.1222 C   0  0  0  0  0  0  0  0  0  0  0  0
   -3.6522    1.0993   -0.1246 C   0  0  0  0  0  0  0  0  0  0  0  0
   -4.3401   -0.1087   -0.1160 C   0  0  0  0  0  0  0  0  0  0  0  0
   -3.6281   -1.2960   -0.1119 C   0  0  0  0  0  0  0  0  0  0  0  0
    4.2443    0.3995    0.2510 C   0  0  0  0  0  0  0  0  0  0  0  0
    3.0953   -2.1363    0.0703 C   0  0  0  0  0  0  0  0  0  0  0  0
   -5.8303   -0.1244   -0.0949 C   0  0  0  0  0  0  0  0  0  0  0  0
    5.0416   -0.7382    0.3740 C   0  0  0  0  0  0  0  0  0  0  0  0
    4.4677   -2.0044    0.2843 C   0  0  0  0  0  0  0  0  0  0  0  0
    0.2313    3.4593   -0.0792 H   0  0  0  0  0  0  0  0  0  0  0  0
   -2.1858    3.3023   -0.1043 H   0  0  0  0  0  0  0  0  0  0  0  0
   -4.2188    2.0299   -0.1134 H   0  0  0  0  0  0  0  0  0  0  0  0
   -4.1548   -2.2470   -0.0694 H   0  0  0  0  0  0  0  0  0  0  0  0
    2.6728   -3.1354    0.0030 H   0  0  0  0  0  0  0  0  0  0  0  0
   -6.2475    0.7539   -0.5987 H   0  0  0  0  0  0  0  0  0  0  0  0
   -6.2289   -1.0085   -0.6043 H   0  0  0  0  0  0  0  0  0  0  0  0
    6.1115   -0.6455    0.5409 H   0  0  0  0  0  0  0  0  0  0  0  0
    5.0893   -2.8900    0.3796 H   0  0  0  0  0  0  0  0  0  0  0  0
   -1.3227   -2.7718   -0.8248 H   0  0  0  0  0  0  0  0  0  0  0  0
    4.2097    2.3263    0.3724 H   0  0  0  0  0  0  0  0  0  0  0  0
   -5.8070   -0.8288    1.7330 H   0  0  0  0  0  0  0  0  0  0  0  0
  1 15  1  0  0  0  0
  1 34  1  0  0  0  0
  2 11  2  0  0  0  0
  3 13  2  0  0  0  0
  4 20  1  0  0  0  0
  4 35  1  0  0  0  0
  5 22  1  0  0  0  0
  5 36  1  0  0  0  0
  6  7  1  0  0  0  0
  6  8  2  0  0  0  0
  6 11  1  0  0  0  0
  7  9  1  0  0  0  0
  7 15  2  0  0  0  0
  8 13  1  0  0  0  0
  8 14  1  0  0  0  0
  9 16  1  0  0  0  0
  9 17  2  0  0  0  0
 10 11  1  0  0  0  0
 10 12  2  0  0  0  0
 10 21  1  0  0  0  0
 12 13  1  0  0  0  0
 12 20  1  0  0  0  0
 14 16  2  0  0  0  0
 14 25  1  0  0  0  0
 15 19  1  0  0  0  0
 16 26  1  0  0  0  0
 17 18  1  0  0  0  0
 17 27  1  0  0  0  0
 18 19  2  0  0  0  0
 18 22  1  0  0  0  0
 19 28  1  0  0  0  0
 20 23  2  0  0  0  0
 21 24  2  0  0  0  0
 21 29  1  0  0  0  0
 22 30  1  0  0  0  0
 22 31  1  0  0  0  0
 23 24  1  0  0  0  0
 23 32  1  0  0  0  0
 24 33  1  0  0  0  0
M  END
> <PUBCHEM_COMPOUND_CID>
443808

> <PUBCHEM_CONFORMER_RMSD>
0.6

> <PUBCHEM_CONFORMER_DIVERSEORDER>
1
2

> <PUBCHEM_MMFF94_PARTIAL_CHARGES>
32
1 -0.53
10 0.09
11 0.4
12 0.09
13 0.4
14 -0.15
15 0.08
16 -0.15
17 -0.15
18 -0.14
19 -0.15
2 -0.57
20 0.08
21 -0.15
22 0.42
23 -0.15
24 -0.15
25 0.15
26 0.15
27 0.15
28 0.15
29 0.15
3 -0.57
32 0.15
33 0.15
34 0.45
35 0.45
36 0.4
4 -0.53
5 -0.68
6 0.09
8 0.09

> <PUBCHEM_EFFECTIVE_ROTOR_COUNT>
1

> <PUBCHEM_PHARMACOPHORE_FEATURES>
10
1 1 donor
1 2 acceptor
1 3 acceptor
1 4 donor
1 5 acceptor
1 5 donor
6 10 12 20 21 23 24 rings
6 6 7 8 9 14 16 rings
6 6 8 10 11 12 13 rings
6 7 9 15 17 18 19 rings

> <PUBCHEM_HEAVY_ATOM_COUNT>
24

> <PUBCHEM_ATOM_DEF_STEREO_COUNT>
0

> <PUBCHEM_ATOM_UDEF_STEREO_COUNT>
0

> <PUBCHEM_BOND_DEF_STEREO_COUNT>
0

> <PUBCHEM_BOND_UDEF_STEREO_COUNT>
0

> <PUBCHEM_ISOTOPIC_ATOM_COUNT>
0

> <PUBCHEM_COMPONENT_COUNT>
1

> <PUBCHEM_CACTVS_TAUTO_COUNT>
29

> <PUBCHEM_CONFORMER_ID>
0006C5A000000001

> <PUBCHEM_MMFF94_ENERGY>
94.8029

> <PUBCHEM_FEATURE_SELFOVERLAP>
50.808

> <PUBCHEM_SHAPE_FINGERPRINT>
10 15 18338530668814008600
10411042 1 18121781896778465670
10616163 171 18337953368351672190
10688039 33 18131631214196311157
10906281 52 18337371791335863775
10967382 1 18410294687791802932
1100329 8 18339362967917664315
11578080 2 17097511799289293258
12011746 2 18410292531960969582
12107183 9 17759520366928509667
12236239 1 17749108881351741983
12403259 226 18340213015197402676
12788726 201 17895182333469541264
12838862 33 18265916716400394492
13140716 1 18337672992728151867
13402501 40 18411139155819391735
138480 1 14519467652632173892
13862211 1 18410298021166680423
14341114 176 18411416223953798466
14617045 38 18411411804828109310
14790565 3 18337667615851512577
15196674 1 18410576227177361101
15536298 74 18335423474011475636
15927050 60 17758959221447258980
17349148 13 18259990391712797471
17492 89 18123755515306756234
1813 80 17346878961688443004
19141452 34 18261394421212868871
19591789 44 18194686088614465726
200 152 18186809084391833157
20028762 73 18187370921917934383
20261772 1 18187372033991950198
21033648 29 17917165948034034149
21267235 1 18338512045239960206
21279426 13 18268153239363334085
21421861 104 18129955567176161746
21792934 111 18338245967705240337
221490 88 18342452591380851378
23402539 116 18334867125491548799
23559900 14 18409737270204762136
3004659 81 18202002157597183638
335352 9 18410857668221361381
34934 24 18337395937436507390
350125 39 18410291432154299684
3545911 37 18411138030722440124
3680242 22 18339635745822691907
3886686 26 16830970771885820082
4214541 1 18339082704147916452
465052 167 18413384349831093906
5104073 3 18337676437350199560
5283173 99 18057898028957283117
9709674 26 18410571799245680382

> <PUBCHEM_SHAPE_MULTIPOLES>
464.56
11.13
2.71
0.69
5.36
0.41
-0.05
-2.22
-2.35
-1.28
0.14
0.27
-0.05
0.05

> <PUBCHEM_SHAPE_SELFOVERLAP>
1065.614

> <PUBCHEM_SHAPE_VOLUME>
238.4

> <PUBCHEM_COORDINATE_TYPE>
2
5
10

$$$$

