46173762
  -OEChem-07051212513D

 82 88  0     1  0  0  0  0  0999 V2000
   -1.2494   -2.1452    1.2954 O   0  0  0  0  0  0  0  0  0  0  0  0
   -5.8141   -2.0759   -0.0073 O   0  0  0  0  0  0  0  0  0  0  0  0
   -1.3191   -2.0331   -1.6406 O   0  0  0  0  0  0  0  0  0  0  0  0
   -3.5327   -3.4677    0.6111 O   0  0  0  0  0  0  0  0  0  0  0  0
    2.8333    2.8544   -1.1160 O   0  0  0  0  0  0  0  0  0  0  0  0
    5.3713    3.7044   -0.9006 O   0  0  0  0  0  0  0  0  0  0  0  0
   -4.7968    2.8462    0.7788 N   0  0  1  0  0  0  0  0  0  0  0  0
    4.8405   -2.3104    0.3029 N   0  0  2  0  0  0  0  0  0  0  0  0
   -3.4553    2.2329    0.6104 C   0  0  1  0  0  0  0  0  0  0  0  0
    3.6409   -2.1569    1.1675 C   0  0  2  0  0  0  0  0  0  0  0  0
   -3.4818    0.7097    0.6058 C   0  0  0  0  0  0  0  0  0  0  0  0
    2.3028   -2.1382    0.4271 C   0  0  0  0  0  0  0  0  0  0  0  0
   -5.7850    2.2532   -0.1294 C   0  0  0  0  0  0  0  0  0  0  0  0
   -4.6645    0.0118    0.2903 C   0  0  0  0  0  0  0  0  0  0  0  0
   -5.9593    0.7445    0.0492 C   0  0  0  0  0  0  0  0  0  0  0  0
    4.5746   -3.0177   -0.9521 C   0  0  0  0  0  0  0  0  0  0  0  0
    2.2471   -2.1592   -0.9752 C   0  0  0  0  0  0  0  0  0  0  0  0
    3.5216   -2.2619   -1.7610 C   0  0  0  0  0  0  0  0  0  0  0  0
   -2.8242    2.7948   -0.6929 C   0  0  0  0  0  0  0  0  0  0  0  0
    3.8047   -0.8861    2.0591 C   0  0  0  0  0  0  0  0  0  0  0  0
   -2.3240   -0.0168    0.9243 C   0  0  0  0  0  0  0  0  0  0  0  0
    1.0993   -2.1330    1.1507 C   0  0  0  0  0  0  0  0  0  0  0  0
   -4.6714   -1.3913    0.2945 C   0  0  0  0  0  0  0  0  0  0  0  0
   -5.2437    2.8350    2.1716 C   0  0  0  0  0  0  0  0  0  0  0  0
   -2.3467   -1.4137    0.9106 C   0  0  0  0  0  0  0  0  0  0  0  0
    1.0110   -2.0857   -1.6311 C   0  0  0  0  0  0  0  0  0  0  0  0
    5.9461   -2.9525    1.0183 C   0  0  0  0  0  0  0  0  0  0  0  0
   -0.1319   -2.0786    0.4924 C   0  0  0  0  0  0  0  0  0  0  0  0
   -1.3139    2.7482   -0.7506 C   0  0  0  0  0  0  0  0  0  0  0  0
    4.1896    0.3742    1.3086 C   0  0  0  0  0  0  0  0  0  0  0  0
   -3.5179   -2.1039    0.6093 C   0  0  0  0  0  0  0  0  0  0  0  0
   -0.1774   -2.0490   -0.9018 C   0  0  0  0  0  0  0  0  0  0  0  0
    3.2558    1.0585    0.5157 C   0  0  0  0  0  0  0  0  0  0  0  0
   -0.6622    1.9687   -1.7175 C   0  0  0  0  0  0  0  0  0  0  0  0
   -0.5459    3.5334    0.1236 C   0  0  0  0  0  0  0  0  0  0  0  0
    5.5084    0.8477    1.3680 C   0  0  0  0  0  0  0  0  0  0  0  0
    3.6464    2.1722   -0.2361 C   0  0  0  0  0  0  0  0  0  0  0  0
    1.4752    2.7684   -0.9396 C   0  0  0  0  0  0  0  0  0  0  0  0
    0.7292    1.9852   -1.8199 C   0  0  0  0  0  0  0  0  0  0  0  0
    0.8455    3.5472    0.0305 C   0  0  0  0  0  0  0  0  0  0  0  0
    5.8941    1.9664    0.6314 C   0  0  0  0  0  0  0  0  0  0  0  0
    4.9686    2.6200   -0.1780 C   0  0  0  0  0  0  0  0  0  0  0  0
   -6.0254   -2.4041   -1.3776 C   0  0  0  0  0  0  0  0  0  0  0  0
   -1.8633   -3.2961   -2.0197 C   0  0  0  0  0  0  0  0  0  0  0  0
   -2.8395    2.5577    1.4600 H   0  0  0  0  0  0  0  0  0  0  0  0
    3.5744   -3.0331    1.8294 H   0  0  0  0  0  0  0  0  0  0  0  0
   -5.4890    2.4599   -1.1655 H   0  0  0  0  0  0  0  0  0  0  0  0
   -6.7556    2.7520   -0.0137 H   0  0  0  0  0  0  0  0  0  0  0  0
   -6.4603    0.3565   -0.8441 H   0  0  0  0  0  0  0  0  0  0  0  0
   -6.6193    0.5577    0.9061 H   0  0  0  0  0  0  0  0  0  0  0  0
    4.2487   -4.0491   -0.7605 H   0  0  0  0  0  0  0  0  0  0  0  0
    5.4898   -3.0695   -1.5547 H   0  0  0  0  0  0  0  0  0  0  0  0
    3.3450   -2.8017   -2.6989 H   0  0  0  0  0  0  0  0  0  0  0  0
    3.8724   -1.2540   -2.0148 H   0  0  0  0  0  0  0  0  0  0  0  0
   -3.2374    2.2819   -1.5718 H   0  0  0  0  0  0  0  0  0  0  0  0
   -3.0987    3.8531   -0.8118 H   0  0  0  0  0  0  0  0  0  0  0  0
    2.8921   -0.6765    2.6310 H   0  0  0  0  0  0  0  0  0  0  0  0
    4.5675   -1.0850    2.8236 H   0  0  0  0  0  0  0  0  0  0  0  0
   -1.4120    0.5043    1.2037 H   0  0  0  0  0  0  0  0  0  0  0  0
    1.1198   -2.1720    2.2378 H   0  0  0  0  0  0  0  0  0  0  0  0
   -6.2163    3.3306    2.2661 H   0  0  0  0  0  0  0  0  0  0  0  0
   -5.3312    1.8270    2.5901 H   0  0  0  0  0  0  0  0  0  0  0  0
   -4.5466    3.4024    2.7984 H   0  0  0  0  0  0  0  0  0  0  0  0
    0.9791   -2.0829   -2.7188 H   0  0  0  0  0  0  0  0  0  0  0  0
    5.7040   -3.9815    1.3076 H   0  0  0  0  0  0  0  0  0  0  0  0
    6.8455   -2.9751    0.3926 H   0  0  0  0  0  0  0  0  0  0  0  0
    6.2158   -2.3960    1.9212 H   0  0  0  0  0  0  0  0  0  0  0  0
    2.2341    0.6949    0.4733 H   0  0  0  0  0  0  0  0  0  0  0  0
   -1.2355    1.3595   -2.4118 H   0  0  0  0  0  0  0  0  0  0  0  0
   -1.0316    4.1592    0.8683 H   0  0  0  0  0  0  0  0  0  0  0  0
    6.2499    0.3372    1.9776 H   0  0  0  0  0  0  0  0  0  0  0  0
    1.2208    1.3974   -2.5899 H   0  0  0  0  0  0  0  0  0  0  0  0
    1.4246    4.1805    0.6963 H   0  0  0  0  0  0  0  0  0  0  0  0
    6.9238    2.3092    0.6889 H   0  0  0  0  0  0  0  0  0  0  0  0
   -4.4401   -3.7690    0.4343 H   0  0  0  0  0  0  0  0  0  0  0  0
   -5.7484   -1.5794   -2.0424 H   0  0  0  0  0  0  0  0  0  0  0  0
   -5.4487   -3.2960   -1.6401 H   0  0  0  0  0  0  0  0  0  0  0  0
   -7.0874   -2.6237   -1.5173 H   0  0  0  0  0  0  0  0  0  0  0  0
   -1.3545   -3.6532   -2.9205 H   0  0  0  0  0  0  0  0  0  0  0  0
   -1.7568   -4.0425   -1.2263 H   0  0  0  0  0  0  0  0  0  0  0  0
   -2.9226   -3.1630   -2.2535 H   0  0  0  0  0  0  0  0  0  0  0  0
    6.3156    3.8658   -0.7324 H   0  0  0  0  0  0  0  0  0  0  0  0
  1 25  1  0  0  0  0
  1 28  1  0  0  0  0
  2 23  1  0  0  0  0
  2 43  1  0  0  0  0
  3 32  1  0  0  0  0
  3 44  1  0  0  0  0
  4 31  1  0  0  0  0
  4 75  1  0  0  0  0
  5 37  1  0  0  0  0
  5 38  1  0  0  0  0
  6 42  1  0  0  0  0
  6 82  1  0  0  0  0
  7  9  1  0  0  0  0
  7 13  1  0  0  0  0
  7 24  1  0  0  0  0
  8 10  1  0  0  0  0
  8 16  1  0  0  0  0
  8 27  1  0  0  0  0
  9 11  1  0  0  0  0
  9 19  1  0  0  0  0
  9 45  1  0  0  0  0
 10 12  1  0  0  0  0
 10 20  1  0  0  0  0
 10 46  1  0  0  0  0
 11 14  1  0  0  0  0
 11 21  2  0  0  0  0
 12 17  1  0  0  0  0
 12 22  2  0  0  0  0
 13 15  1  0  0  0  0
 13 47  1  0  0  0  0
 13 48  1  0  0  0  0
 14 15  1  0  0  0  0
 14 23  2  0  0  0  0
 15 49  1  0  0  0  0
 15 50  1  0  0  0  0
 16 18  1  0  0  0  0
 16 51  1  0  0  0  0
 16 52  1  0  0  0  0
 17 18  1  0  0  0  0
 17 26  2  0  0  0  0
 18 53  1  0  0  0  0
 18 54  1  0  0  0  0
 19 29  1  0  0  0  0
 19 55  1  0  0  0  0
 19 56  1  0  0  0  0
 20 30  1  0  0  0  0
 20 57  1  0  0  0  0
 20 58  1  0  0  0  0
 21 25  1  0  0  0  0
 21 59  1  0  0  0  0
 22 28  1  0  0  0  0
 22 60  1  0  0  0  0
 23 31  1  0  0  0  0
 24 61  1  0  0  0  0
 24 62  1  0  0  0  0
 24 63  1  0  0  0  0
 25 31  2  0  0  0  0
 26 32  1  0  0  0  0
 26 64  1  0  0  0  0
 27 65  1  0  0  0  0
 27 66  1  0  0  0  0
 27 67  1  0  0  0  0
 28 32  2  0  0  0  0
 29 34  2  0  0  0  0
 29 35  1  0  0  0  0
 30 33  2  0  0  0  0
 30 36  1  0  0  0  0
 33 37  1  0  0  0  0
 33 68  1  0  0  0  0
 34 39  1  0  0  0  0
 34 69  1  0  0  0  0
 35 40  2  0  0  0  0
 35 70  1  0  0  0  0
 36 41  2  0  0  0  0
 36 71  1  0  0  0  0
 37 42  2  0  0  0  0
 38 39  2  0  0  0  0
 38 40  1  0  0  0  0
 39 72  1  0  0  0  0
 40 73  1  0  0  0  0
 41 42  1  0  0  0  0
 41 74  1  0  0  0  0
 43 76  1  0  0  0  0
 43 77  1  0  0  0  0
 43 78  1  0  0  0  0
 44 79  1  0  0  0  0
 44 80  1  0  0  0  0
 44 81  1  0  0  0  0
M  END
> <PUBCHEM_COMPOUND_CID>
46173762

> <PUBCHEM_CONFORMER_RMSD>
1

> <PUBCHEM_CONFORMER_DIVERSEORDER>
1
2
3
6
5
4

> <PUBCHEM_MMFF94_PARTIAL_CHARGES>
56
1 -0.17
10 0.41
11 -0.14
12 -0.14
13 0.27
14 -0.14
15 0.14
16 0.27
17 -0.14
18 0.14
19 0.14
2 -0.36
20 0.14
21 -0.15
22 -0.15
23 0.08
24 0.27
25 0.08
26 -0.15
27 0.27
28 0.08
29 -0.14
3 -0.36
30 -0.14
31 0.08
32 0.08
33 -0.15
34 -0.15
35 -0.15
36 -0.15
37 0.08
38 0.08
39 -0.15
4 -0.53
40 -0.15
41 -0.15
42 0.08
43 0.28
44 0.28
5 -0.17
59 0.15
6 -0.53
60 0.15
64 0.15
68 0.15
69 0.15
7 -0.81
70 0.15
71 0.15
72 0.15
73 0.15
74 0.15
75 0.45
8 -0.81
82 0.45
9 0.41

> <PUBCHEM_EFFECTIVE_ROTOR_COUNT>
4

> <PUBCHEM_PHARMACOPHORE_FEATURES>
14
1 1 acceptor
1 2 acceptor
1 3 acceptor
1 4 donor
1 5 acceptor
1 6 donor
1 7 cation
1 8 cation
6 11 14 21 23 25 31 rings
6 12 17 22 26 28 32 rings
6 29 34 35 38 39 40 rings
6 30 33 36 37 41 42 rings
6 7 9 11 13 14 15 rings
6 8 10 12 16 17 18 rings

> <PUBCHEM_HEAVY_ATOM_COUNT>
44

> <PUBCHEM_ATOM_DEF_STEREO_COUNT>
2

> <PUBCHEM_ATOM_UDEF_STEREO_COUNT>
0

> <PUBCHEM_BOND_DEF_STEREO_COUNT>
0

> <PUBCHEM_BOND_UDEF_STEREO_COUNT>
0

> <PUBCHEM_ISOTOPIC_ATOM_COUNT>
0

> <PUBCHEM_COMPONENT_COUNT>
1

> <PUBCHEM_CACTVS_TAUTO_COUNT>
1

> <PUBCHEM_CONFORMER_ID>
02C08E4200000001

> <PUBCHEM_MMFF94_ENERGY>
175.9528

> <PUBCHEM_FEATURE_SELFOVERLAP>
71.086

> <PUBCHEM_SHAPE_FINGERPRINT>
10439779 11 18336543815883029905
10677394 325 18116454578653014935
10864689 126 17548417463027229517
10939801 23 17980761533287276816
11411753 29 18193810769821667291
11513181 2 18260259754834729079
12107698 1 18341618169894061546
12422481 6 18340770428705727936
131258 38 17416133995746812010
13165054 235 18266761124340192327
13811026 1 18342747325385678935
14725015 67 17983015840744086832
14747281 78 16153986976193063169
14790565 3 17910102522308343892
15001296 14 18343584048828130392
15264996 154 17987221254199478006
15264996 163 16827560610564987526
15320467 1 18125157130527882680
15484559 13 16116602656465840029
15961568 22 18340769243558290280
15968369 153 18187094974758571316
16112460 7 18338223989920009769
19311894 1 16394634474613724772
20764821 26 18341888644821009045
21033648 29 17750531730475741691
21133410 38 18336537270974798201
21133410 90 17458359536798375696
22223350 30 17773571928185037619
3388396 114 16820815119418668764
3493558 16 18410286991321256643
354706 109 18049187714789782737
373842 8 18410576184206361713
392239 28 18196936779946514224
4112364 45 17825370029008807737
4144715 1 18343011169089896443
42626532 9 18057578006707477194
513532 50 18041548179630342166

> <PUBCHEM_SHAPE_MULTIPOLES>
860.32
14.44
5.77
1.76
2.63
1.39
0.19
0.79
-3.71
-1.07
1.25
-0.36
-0.4
-1.59

> <PUBCHEM_SHAPE_SELFOVERLAP>
1905.127

> <PUBCHEM_SHAPE_VOLUME>
459.3

> <PUBCHEM_COORDINATE_TYPE>
2
5
10

$$$$

