9587
  -OEChem-06261203503D

 32 33  0     0  0  0  0  0  0999 V2000
   -2.3286   -2.4536   -0.0476 F   0  0  0  0  0  0  0  0  0  0  0  0
   -5.1496    2.2321   -0.1161 F   0  0  0  0  0  0  0  0  0  0  0  0
    5.1609    0.1209   -0.1864 N   0  0  0  0  0  0  0  0  0  0  0  0
   -0.3798    0.0501    0.6146 N   0  0  0  0  0  0  0  0  0  0  0  0
   -0.9706   -0.0728   -0.4840 N   0  0  0  0  0  0  0  0  0  0  0  0
    3.7650    0.1033    0.0152 C   0  0  0  0  0  0  0  0  0  0  0  0
    3.0425    1.2964   -0.0021 C   0  0  0  0  0  0  0  0  0  0  0  0
    3.1069   -1.1074    0.2321 C   0  0  0  0  0  0  0  0  0  0  0  0
    1.0041    0.0685    0.4143 C   0  0  0  0  0  0  0  0  0  0  0  0
    1.6621    1.2790    0.1975 C   0  0  0  0  0  0  0  0  0  0  0  0
    1.7264   -1.1248    0.4316 C   0  0  0  0  0  0  0  0  0  0  0  0
    5.9466    1.2692    0.2191 C   0  0  0  0  0  0  0  0  0  0  0  0
    5.8296   -1.0151   -0.7892 C   0  0  0  0  0  0  0  0  0  0  0  0
   -2.3613   -0.0914   -0.2822 C   0  0  0  0  0  0  0  0  0  0  0  0
   -3.0134   -1.3014   -0.0664 C   0  0  0  0  0  0  0  0  0  0  0  0
   -3.0758    1.1025   -0.3000 C   0  0  0  0  0  0  0  0  0  0  0  0
   -4.4562    1.0861   -0.1002 C   0  0  0  0  0  0  0  0  0  0  0  0
   -4.3939   -1.3176    0.1335 C   0  0  0  0  0  0  0  0  0  0  0  0
   -5.1152   -0.1239    0.1165 C   0  0  0  0  0  0  0  0  0  0  0  0
    3.5223    2.2547   -0.1801 H   0  0  0  0  0  0  0  0  0  0  0  0
    3.6407   -2.0530    0.2639 H   0  0  0  0  0  0  0  0  0  0  0  0
    1.1074    2.2136    0.1804 H   0  0  0  0  0  0  0  0  0  0  0  0
    1.2226   -2.0726    0.6031 H   0  0  0  0  0  0  0  0  0  0  0  0
    5.6314    1.6452    1.1991 H   0  0  0  0  0  0  0  0  0  0  0  0
    7.0078    1.0109    0.3078 H   0  0  0  0  0  0  0  0  0  0  0  0
    5.8650    2.0751   -0.5177 H   0  0  0  0  0  0  0  0  0  0  0  0
    5.9831   -1.8109   -0.0529 H   0  0  0  0  0  0  0  0  0  0  0  0
    6.8141   -0.7327   -1.1788 H   0  0  0  0  0  0  0  0  0  0  0  0
    5.2595   -1.4138   -1.6360 H   0  0  0  0  0  0  0  0  0  0  0  0
   -2.5708    2.0497   -0.4689 H   0  0  0  0  0  0  0  0  0  0  0  0
   -4.9068   -2.2598    0.3024 H   0  0  0  0  0  0  0  0  0  0  0  0
   -6.1899   -0.1364    0.2721 H   0  0  0  0  0  0  0  0  0  0  0  0
  1 15  1  0  0  0  0
  2 17  1  0  0  0  0
  3  6  1  0  0  0  0
  3 12  1  0  0  0  0
  3 13  1  0  0  0  0
  4  5  2  0  0  0  0
  4  9  1  0  0  0  0
  5 14  1  0  0  0  0
  6  7  2  0  0  0  0
  6  8  1  0  0  0  0
  7 10  1  0  0  0  0
  7 20  1  0  0  0  0
  8 11  2  0  0  0  0
  8 21  1  0  0  0  0
  9 10  2  0  0  0  0
  9 11  1  0  0  0  0
 10 22  1  0  0  0  0
 11 23  1  0  0  0  0
 12 24  1  0  0  0  0
 12 25  1  0  0  0  0
 12 26  1  0  0  0  0
 13 27  1  0  0  0  0
 13 28  1  0  0  0  0
 13 29  1  0  0  0  0
 14 15  2  0  0  0  0
 14 16  1  0  0  0  0
 15 18  1  0  0  0  0
 16 17  2  0  0  0  0
 16 30  1  0  0  0  0
 17 19  1  0  0  0  0
 18 19  2  0  0  0  0
 18 31  1  0  0  0  0
 19 32  1  0  0  0  0
M  END
> <PUBCHEM_COMPOUND_CID>
9587

> <PUBCHEM_CONFORMER_RMSD>
0.6

> <PUBCHEM_CONFORMER_DIVERSEORDER>
1
6
8
2
4
7
3
5

> <PUBCHEM_MMFF94_PARTIAL_CHARGES>
26
1 -0.19
10 -0.15
11 -0.15
12 0.37
13 0.37
14 0.18
15 0.19
16 -0.15
17 0.19
18 -0.15
19 -0.15
2 -0.19
20 0.15
21 0.15
22 0.15
23 0.15
3 -0.84
30 0.15
31 0.15
32 0.15
4 -0.18
5 -0.18
6 0.1
7 -0.15
8 -0.15
9 0.18

> <PUBCHEM_EFFECTIVE_ROTOR_COUNT>
3

> <PUBCHEM_PHARMACOPHORE_FEATURES>
3
1 3 cation
6 14 15 16 17 18 19 rings
6 6 7 8 9 10 11 rings

> <PUBCHEM_HEAVY_ATOM_COUNT>
19

> <PUBCHEM_ATOM_DEF_STEREO_COUNT>
0

> <PUBCHEM_ATOM_UDEF_STEREO_COUNT>
0

> <PUBCHEM_BOND_DEF_STEREO_COUNT>
0

> <PUBCHEM_BOND_UDEF_STEREO_COUNT>
0

> <PUBCHEM_ISOTOPIC_ATOM_COUNT>
0

> <PUBCHEM_COMPONENT_COUNT>
1

> <PUBCHEM_CACTVS_TAUTO_COUNT>
1

> <PUBCHEM_CONFORMER_ID>
0000257300000001

> <PUBCHEM_MMFF94_ENERGY>
61.7489

> <PUBCHEM_FEATURE_SELFOVERLAP>
15.223

> <PUBCHEM_SHAPE_FINGERPRINT>
10616163 171 18338235964463040223
11287383 113 18410573955677556328
12107183 9 17764313142488210241
12236239 1 18040996245761710264
12788726 201 17750515259333566881
13167823 11 18412546483268543610
13760787 19 18413393150161106683
14251731 8 18335420183707876277
14251764 18 18187361022281034233
14341114 176 18410006633004387420
15042514 8 18195805168788858795
15183329 4 18410009983295130130
15196674 1 18411139142934593802
15242433 33 18411702110030987026
15788980 27 18342172259034174906
17834072 33 18409449167892936732
17844677 252 18409722933140016240
19489759 90 7709461614995597079
200 152 18113617867594639626
20281389 69 18202004360499168829
20621476 66 18115018723335633441
20645477 56 18413110576226526157
20645477 70 17967528013129619950
20681677 155 18342177769187169643
21267235 1 18341043039381480059
21709351 56 18341900662171113196
221490 88 18195522593629938474
2297311 6 18409160013620280397
23402539 116 18411705378421854748
23402655 69 18412546517886452520
23536379 177 18411419518737098536
23557571 272 18409162212269113157
23559900 14 18261401009233804256
2916195 48 18335991848672590216
29717793 49 17458621259589502860
300161 21 18343028799729373810
3004659 81 18341328981514783070
34797466 226 17895183356251739788
3545911 37 18410855469066405457
4073 2 18130784508923186818
4214541 1 18410856560014459369
42788 4 18410575085016558760
4463277 17 18409448081604002784
4990 188 18335415768961615486
5104073 3 18342461451734717096
542803 24 17203889665039985076
559249 180 18409451418202962486
6327066 14 17985839366005592957
633830 44 17917151598437177098
77779 3 18411982451246828499
9709674 26 18409726244939869447

> <PUBCHEM_SHAPE_MULTIPOLES>
361.52
14.26
1.81
0.7
5.28
0.08
0.01
-1.95
1.3
-1.15
0.03
0.23
0.04
0.45

> <PUBCHEM_SHAPE_SELFOVERLAP>
773.246

> <PUBCHEM_SHAPE_VOLUME>
202.7

> <PUBCHEM_COORDINATE_TYPE>
2
5
10

$$$$

