12437
  -OEChem-06261206563D

 20 19  0     0  0  0  0  0  0999 V2000
   -0.0001   -1.8310    0.0000 O   0  0  0  0  0  0  0  0  0  0  0  0
   -1.1951    0.1353    0.0990 N   0  0  0  0  0  0  0  0  0  0  0  0
    1.1950    0.1352   -0.0989 N   0  0  0  0  0  0  0  0  0  0  0  0
    0.0000   -0.5929    0.0000 C   0  0  0  0  0  0  0  0  0  0  0  0
   -2.4644   -0.3738   -0.4156 C   0  0  0  0  0  0  0  0  0  0  0  0
   -1.2554    1.4506    0.7216 C   0  0  0  0  0  0  0  0  0  0  0  0
    2.4643   -0.3739    0.4157 C   0  0  0  0  0  0  0  0  0  0  0  0
    1.2557    1.4504   -0.7217 C   0  0  0  0  0  0  0  0  0  0  0  0
   -3.1533   -0.5176    0.4213 H   0  0  0  0  0  0  0  0  0  0  0  0
   -2.3151   -1.3271   -0.9295 H   0  0  0  0  0  0  0  0  0  0  0  0
   -2.8787    0.3534   -1.1195 H   0  0  0  0  0  0  0  0  0  0  0  0
   -0.3701    1.6541    1.3277 H   0  0  0  0  0  0  0  0  0  0  0  0
   -2.1201    1.4770    1.3933 H   0  0  0  0  0  0  0  0  0  0  0  0
   -1.3908    2.2157   -0.0473 H   0  0  0  0  0  0  0  0  0  0  0  0
    3.1532   -0.5178   -0.4211 H   0  0  0  0  0  0  0  0  0  0  0  0
    2.3150   -1.3271    0.9298 H   0  0  0  0  0  0  0  0  0  0  0  0
    2.8787    0.3534    1.1195 H   0  0  0  0  0  0  0  0  0  0  0  0
    1.3914    2.2156    0.0470 H   0  0  0  0  0  0  0  0  0  0  0  0
    0.3705    1.6540   -1.3279 H   0  0  0  0  0  0  0  0  0  0  0  0
    2.1203    1.4764   -1.3934 H   0  0  0  0  0  0  0  0  0  0  0  0
  1  4  2  0  0  0  0
  2  4  1  0  0  0  0
  2  5  1  0  0  0  0
  2  6  1  0  0  0  0
  3  4  1  0  0  0  0
  3  7  1  0  0  0  0
  3  8  1  0  0  0  0
  5  9  1  0  0  0  0
  5 10  1  0  0  0  0
  5 11  1  0  0  0  0
  6 12  1  0  0  0  0
  6 13  1  0  0  0  0
  6 14  1  0  0  0  0
  7 15  1  0  0  0  0
  7 16  1  0  0  0  0
  7 17  1  0  0  0  0
  8 18  1  0  0  0  0
  8 19  1  0  0  0  0
  8 20  1  0  0  0  0
M  END
> <PUBCHEM_COMPOUND_CID>
12437

> <PUBCHEM_CONFORMER_RMSD>
0.4

> <PUBCHEM_CONFORMER_DIVERSEORDER>
1
2

> <PUBCHEM_MMFF94_PARTIAL_CHARGES>
8
1 -0.57
2 -0.66
3 -0.66
4 0.69
5 0.3
6 0.3
7 0.3
8 0.3

> <PUBCHEM_EFFECTIVE_ROTOR_COUNT>
2

> <PUBCHEM_PHARMACOPHORE_FEATURES>
1
1 1 acceptor

> <PUBCHEM_HEAVY_ATOM_COUNT>
8

> <PUBCHEM_ATOM_DEF_STEREO_COUNT>
0

> <PUBCHEM_ATOM_UDEF_STEREO_COUNT>
0

> <PUBCHEM_BOND_DEF_STEREO_COUNT>
0

> <PUBCHEM_BOND_UDEF_STEREO_COUNT>
0

> <PUBCHEM_ISOTOPIC_ATOM_COUNT>
0

> <PUBCHEM_COMPONENT_COUNT>
1

> <PUBCHEM_CACTVS_TAUTO_COUNT>
1

> <PUBCHEM_CONFORMER_ID>
0000309500000001

> <PUBCHEM_MMFF94_ENERGY>
26.8147

> <PUBCHEM_FEATURE_SELFOVERLAP>
5.074

> <PUBCHEM_SHAPE_FINGERPRINT>
18185500 45 18336264664520179241
20096714 4 18270674277570194780
21040471 1 18338231557572665860
23552423 10 18338228379228529031
24536 1 18338784671956014276
29004967 10 15697994171856747440
5084963 1 18410858771574405264

> <PUBCHEM_SHAPE_MULTIPOLES>
148.8
3
1.58
0.78
0
0.07
0
-0.09
0
0
0
0
0.2
-0.47

> <PUBCHEM_SHAPE_SELFOVERLAP>
269.711

> <PUBCHEM_SHAPE_VOLUME>
97.1

> <PUBCHEM_COORDINATE_TYPE>
2
5
10

$$$$

