442156
  -OEChem-07051212572D

 48 51  0     1  0  0  0  0  0999 V2000
    2.8718    0.5814    0.0000 O   0  0  0  0  0  0  0  0  0  0  0  0
    2.8560   -1.4668    0.0000 O   0  0  0  0  0  0  0  0  0  0  0  0
    4.6298   -2.4910    0.0000 O   0  0  0  0  0  0  0  0  0  0  0  0
    7.2564   -0.9563    0.0000 O   0  0  0  0  0  0  0  0  0  0  0  0
    9.0381    0.0541    0.0000 O   0  0  0  0  0  0  0  0  0  0  0  0
    4.7348    2.0732    0.0000 N   0  0  0  0  0  0  0  0  0  0  0  0
    5.5080    0.0783    0.0000 C   0  0  1  0  0  0  0  0  0  0  0  0
    4.6419    0.5783    0.0000 C   0  0  2  0  0  0  0  0  0  0  0  0
    6.7562    0.9061    0.0000 C   0  0  0  0  0  0  0  0  0  0  0  0
    4.6419    1.5783    0.0000 C   0  0  0  0  0  0  0  0  0  0  0  0
    5.5240   -0.9633    0.0000 C   0  0  0  0  0  0  0  0  0  0  0  0
    6.3740    0.5783    0.0000 C   0  0  0  0  0  0  0  0  0  0  0  0
    6.2149    2.3027    0.0000 C   0  0  0  0  0  0  0  0  0  0  0  0
    3.7319    0.0714    0.0000 C   0  0  0  0  0  0  0  0  0  0  0  0
    5.5080    2.0783    0.0000 C   0  0  0  0  0  0  0  0  0  0  0  0
    6.3740    1.5783    0.0000 C   0  0  0  0  0  0  0  0  0  0  0  0
    4.6260   -1.4910    0.0000 C   0  0  0  0  0  0  0  0  0  0  0  0
    3.7239   -0.9702    0.0000 C   0  0  0  0  0  0  0  0  0  0  0  0
    7.2679    0.0436    0.0000 C   0  0  0  0  0  0  0  0  0  0  0  0
    7.2679    2.1129    0.0000 C   0  0  0  0  0  0  0  0  0  0  0  0
    8.1740    0.5574    0.0000 C   0  0  0  0  0  0  0  0  0  0  0  0
    8.1740    1.5991    0.0000 C   0  0  0  0  0  0  0  0  0  0  0  0
    2.0000    0.0914    0.0000 C   0  0  0  0  0  0  0  0  0  0  0  0
    2.8521   -2.4668    0.0000 C   0  0  0  0  0  0  0  0  0  0  0  0
    9.9060    0.5508    0.0000 C   0  0  0  0  0  0  0  0  0  0  0  0
    7.0608    0.3661    0.0000 H   0  0  0  0  0  0  0  0  0  0  0  0
    7.3167    1.1712    0.0000 H   0  0  0  0  0  0  0  0  0  0  0  0
    4.4299    2.1609    0.0000 H   0  0  0  0  0  0  0  0  0  0  0  0
    4.0314    1.4706    0.0000 H   0  0  0  0  0  0  0  0  0  0  0  0
    5.7420   -1.5436    0.0000 H   0  0  0  0  0  0  0  0  0  0  0  0
    6.1332   -0.8478    0.0000 H   0  0  0  0  0  0  0  0  0  0  0  0
    4.2767    2.4910    0.0000 H   0  0  0  0  0  0  0  0  0  0  0  0
    6.8076    2.4846    0.0000 H   0  0  0  0  0  0  0  0  0  0  0  0
    6.0761    2.9070    0.0000 H   0  0  0  0  0  0  0  0  0  0  0  0
    5.9065    2.5532    0.0000 H   0  0  0  0  0  0  0  0  0  0  0  0
    5.1094    2.5532    0.0000 H   0  0  0  0  0  0  0  0  0  0  0  0
    7.2608    2.7329    0.0000 H   0  0  0  0  0  0  0  0  0  0  0  0
    8.7097    1.9111    0.0000 H   0  0  0  0  0  0  0  0  0  0  0  0
    7.7897   -1.2725    0.0000 H   0  0  0  0  0  0  0  0  0  0  0  0
    1.6962    0.6319    0.0000 H   0  0  0  0  0  0  0  0  0  0  0  0
    1.4595   -0.2123    0.0000 H   0  0  0  0  0  0  0  0  0  0  0  0
    2.3038   -0.4490    0.0000 H   0  0  0  0  0  0  0  0  0  0  0  0
    2.2321   -2.4644    0.0000 H   0  0  0  0  0  0  0  0  0  0  0  0
    2.8497   -3.0868    0.0000 H   0  0  0  0  0  0  0  0  0  0  0  0
    3.4721   -2.4692    0.0000 H   0  0  0  0  0  0  0  0  0  0  0  0
   10.2140    0.0126    0.0000 H   0  0  0  0  0  0  0  0  0  0  0  0
   10.4442    0.8587    0.0000 H   0  0  0  0  0  0  0  0  0  0  0  0
    9.5981    1.0889    0.0000 H   0  0  0  0  0  0  0  0  0  0  0  0
  1 14  1  0  0  0  0
  1 23  1  0  0  0  0
  2 18  1  0  0  0  0
  2 24  1  0  0  0  0
  3 17  2  0  0  0  0
  4 19  1  0  0  0  0
  4 39  1  0  0  0  0
  5 21  1  0  0  0  0
  5 25  1  0  0  0  0
  8  6  1  1  0  0  0
  6 13  1  0  0  0  0
  6 32  1  0  0  0  0
  7  8  1  0  0  0  0
  7  9  1  1  0  0  0
  7 11  1  0  0  0  0
  7 12  1  0  0  0  0
  8 10  1  0  0  0  0
  8 14  1  0  0  0  0
  9 13  1  0  0  0  0
  9 26  1  0  0  0  0
  9 27  1  0  0  0  0
 10 15  1  0  0  0  0
 10 28  1  0  0  0  0
 10 29  1  0  0  0  0
 11 17  1  0  0  0  0
 11 30  1  0  0  0  0
 11 31  1  0  0  0  0
 12 16  2  0  0  0  0
 12 19  1  0  0  0  0
 13 33  1  0  0  0  0
 13 34  1  0  0  0  0
 14 18  2  0  0  0  0
 15 16  1  0  0  0  0
 15 35  1  0  0  0  0
 15 36  1  0  0  0  0
 16 20  1  0  0  0  0
 17 18  1  0  0  0  0
 19 21  2  0  0  0  0
 20 22  2  0  0  0  0
 20 37  1  0  0  0  0
 21 22  1  0  0  0  0
 22 38  1  0  0  0  0
 23 40  1  0  0  0  0
 23 41  1  0  0  0  0
 23 42  1  0  0  0  0
 24 43  1  0  0  0  0
 24 44  1  0  0  0  0
 24 45  1  0  0  0  0
 25 46  1  0  0  0  0
 25 47  1  0  0  0  0
 25 48  1  0  0  0  0
M  END
> <PUBCHEM_COMPOUND_CID>
442156

> <PUBCHEM_COMPOUND_CANONICALIZED>
1

> <PUBCHEM_CACTVS_COMPLEXITY>
605

> <PUBCHEM_CACTVS_HBOND_ACCEPTOR>
6

> <PUBCHEM_CACTVS_HBOND_DONOR>
2

> <PUBCHEM_CACTVS_ROTATABLE_BOND>
3

> <PUBCHEM_CACTVS_SUBSKEYS>
AAADceB6OAAAAAAAAAAAAAAAAAAAAWAAAAAwYIAAAAAAAFjBAAAAHgAQCAAADozBmAYyBoLABgCIAqBSAAKCCAAgIAAIiIFOiMgPJjKGsR+FcCMk0BGbuQe8/f/PoAABAAAYQADQAAaAADSAAAAAAAAAAA==

> <PUBCHEM_IUPAC_INCHI>
InChI=1S/C19H23NO5/c1-23-13-5-4-11-6-7-19-17(25-3)16(24-2)12(21)10-18(19,8-9-20-19)14(11)15(13)22/h4-5,20,22H,6-10H2,1-3H3/t18-,19+/m0/s1

> <PUBCHEM_IUPAC_INCHIKEY>
KTRLYLXLXTXHPM-RBUKOAKNSA-N

> <PUBCHEM_XLOGP3_AA>
1.3

> <PUBCHEM_EXACT_MASS>
345.157623

> <PUBCHEM_MOLECULAR_FORMULA>
C19H23NO5

> <PUBCHEM_MOLECULAR_WEIGHT>
345.38962

> <PUBCHEM_OPENEYE_CAN_SMILES>
COC1=C(C2=C(CCC34C2(CCN3)CC(=O)C(=C4OC)OC)C=C1)O

> <PUBCHEM_OPENEYE_ISO_SMILES>
COC1=C(C2=C(CC[C@@]34[C@@]2(CCN3)CC(=O)C(=C4OC)OC)C=C1)O

> <PUBCHEM_CACTVS_TPSA>
77

> <PUBCHEM_MONOISOTOPIC_WEIGHT>
345.157623

> <PUBCHEM_TOTAL_CHARGE>
0

> <PUBCHEM_HEAVY_ATOM_COUNT>
25

> <PUBCHEM_ATOM_DEF_STEREO_COUNT>
2

> <PUBCHEM_ATOM_UDEF_STEREO_COUNT>
0

> <PUBCHEM_BOND_DEF_STEREO_COUNT>
0

> <PUBCHEM_BOND_UDEF_STEREO_COUNT>
0

> <PUBCHEM_ISOTOPIC_ATOM_COUNT>
0

> <PUBCHEM_COMPONENT_COUNT>
1

> <PUBCHEM_CACTVS_TAUTO_COUNT>
18

> <PUBCHEM_COORDINATE_TYPE>
1
5
255

> <PUBCHEM_BONDANNOTATIONS>
12  16  8
12  19  8
16  20  8
19  21  8
20  22  8
21  22  8
8  6  5
7  9  5

$$$$

