51090902
  -OEChem-06241223003D

 50 51  0     0  0  0  0  0  0999 V2000
   -4.3529    1.1350    0.0725 S   0  0  0  0  0  0  0  0  0  0  0  0
   -4.8067    1.4701    1.4039 O   0  0  0  0  0  0  0  0  0  0  0  0
   -5.2686    1.0322   -1.0417 O   0  0  0  0  0  0  0  0  0  0  0  0
   -0.0045   -1.4686   -1.5654 O   0  0  0  0  0  0  0  0  0  0  0  0
    1.4781    0.2477    1.1150 O   0  0  0  0  0  0  0  0  0  0  0  0
   -3.4239   -0.3034    0.1547 N   0  0  0  0  0  0  0  0  0  0  0  0
    3.7228    0.2075    0.5170 N   0  0  0  0  0  0  0  0  0  0  0  0
    0.9168   -2.1379    0.4651 N   0  0  0  0  0  0  0  0  0  0  0  0
   -1.4313   -2.4343    0.0894 C   0  0  0  0  0  0  0  0  0  0  0  0
   -2.5175   -2.2958   -0.9788 C   0  0  0  0  0  0  0  0  0  0  0  0
   -1.8089   -1.7098    1.3829 C   0  0  0  0  0  0  0  0  0  0  0  0
   -2.9865   -0.8544   -1.1596 C   0  0  0  0  0  0  0  0  0  0  0  0
   -2.3127   -0.2873    1.1484 C   0  0  0  0  0  0  0  0  0  0  0  0
   -0.1131   -1.9508   -0.4409 C   0  0  0  0  0  0  0  0  0  0  0  0
    4.9097   -0.4930    0.0103 C   0  0  0  0  0  0  0  0  0  0  0  0
    3.9607    1.5887    0.9417 C   0  0  0  0  0  0  0  0  0  0  0  0
    5.5506    0.2865   -1.1360 C   0  0  0  0  0  0  0  0  0  0  0  0
    4.5818    2.4073   -0.1868 C   0  0  0  0  0  0  0  0  0  0  0  0
    5.8387    1.7317   -0.7325 C   0  0  0  0  0  0  0  0  0  0  0  0
   -3.0691    2.2748   -0.3739 C   0  0  0  0  0  0  0  0  0  0  0  0
    2.2885   -1.7768    0.1886 C   0  0  0  0  0  0  0  0  0  0  0  0
    2.4520   -0.3508    0.6508 C   0  0  0  0  0  0  0  0  0  0  0  0
   -3.6040    3.6813   -0.5247 C   0  0  0  0  0  0  0  0  0  0  0  0
   -1.3035   -3.5030    0.3094 H   0  0  0  0  0  0  0  0  0  0  0  0
   -2.1847   -2.7009   -1.9420 H   0  0  0  0  0  0  0  0  0  0  0  0
   -3.3791   -2.9033   -0.6703 H   0  0  0  0  0  0  0  0  0  0  0  0
   -2.6167   -2.2803    1.8616 H   0  0  0  0  0  0  0  0  0  0  0  0
   -0.9911   -1.6820    2.1099 H   0  0  0  0  0  0  0  0  0  0  0  0
   -2.6631    0.1215    2.1016 H   0  0  0  0  0  0  0  0  0  0  0  0
   -1.4830    0.3285    0.7879 H   0  0  0  0  0  0  0  0  0  0  0  0
   -2.1943   -0.2343   -1.5880 H   0  0  0  0  0  0  0  0  0  0  0  0
   -3.8261   -0.8618   -1.8622 H   0  0  0  0  0  0  0  0  0  0  0  0
    5.6115   -0.5860    0.8476 H   0  0  0  0  0  0  0  0  0  0  0  0
    3.0302    2.0615    1.2713 H   0  0  0  0  0  0  0  0  0  0  0  0
    4.6345    1.5534    1.8059 H   0  0  0  0  0  0  0  0  0  0  0  0
    4.6741   -1.5039   -0.3272 H   0  0  0  0  0  0  0  0  0  0  0  0
    4.8250    3.4134    0.1721 H   0  0  0  0  0  0  0  0  0  0  0  0
    3.8529    2.5190   -0.9992 H   0  0  0  0  0  0  0  0  0  0  0  0
    4.8746    0.2830   -2.0002 H   0  0  0  0  0  0  0  0  0  0  0  0
    6.4788   -0.2049   -1.4478 H   0  0  0  0  0  0  0  0  0  0  0  0
    6.2169    2.2908   -1.5956 H   0  0  0  0  0  0  0  0  0  0  0  0
    6.6247    1.7484    0.0324 H   0  0  0  0  0  0  0  0  0  0  0  0
   -2.6242    1.9536   -1.3182 H   0  0  0  0  0  0  0  0  0  0  0  0
   -2.3107    2.2811    0.4114 H   0  0  0  0  0  0  0  0  0  0  0  0
    0.7306   -2.5962    1.3516 H   0  0  0  0  0  0  0  0  0  0  0  0
    2.4862   -1.8567   -0.8837 H   0  0  0  0  0  0  0  0  0  0  0  0
    2.9330   -2.4455    0.7645 H   0  0  0  0  0  0  0  0  0  0  0  0
   -2.7975    4.3692   -0.7970 H   0  0  0  0  0  0  0  0  0  0  0  0
   -4.0535    4.0366    0.4082 H   0  0  0  0  0  0  0  0  0  0  0  0
   -4.3711    3.7313   -1.3042 H   0  0  0  0  0  0  0  0  0  0  0  0
  1  2  2  0  0  0  0
  1  3  2  0  0  0  0
  1  6  1  0  0  0  0
  1 20  1  0  0  0  0
  4 14  2  0  0  0  0
  5 22  2  0  0  0  0
  6 12  1  0  0  0  0
  6 13  1  0  0  0  0
  7 15  1  0  0  0  0
  7 16  1  0  0  0  0
  7 22  1  0  0  0  0
  8 14  1  0  0  0  0
  8 21  1  0  0  0  0
  8 45  1  0  0  0  0
  9 10  1  0  0  0  0
  9 11  1  0  0  0  0
  9 14  1  0  0  0  0
  9 24  1  0  0  0  0
 10 12  1  0  0  0  0
 10 25  1  0  0  0  0
 10 26  1  0  0  0  0
 11 13  1  0  0  0  0
 11 27  1  0  0  0  0
 11 28  1  0  0  0  0
 12 31  1  0  0  0  0
 12 32  1  0  0  0  0
 13 29  1  0  0  0  0
 13 30  1  0  0  0  0
 15 17  1  0  0  0  0
 15 33  1  0  0  0  0
 15 36  1  0  0  0  0
 16 18  1  0  0  0  0
 16 34  1  0  0  0  0
 16 35  1  0  0  0  0
 17 19  1  0  0  0  0
 17 39  1  0  0  0  0
 17 40  1  0  0  0  0
 18 19  1  0  0  0  0
 18 37  1  0  0  0  0
 18 38  1  0  0  0  0
 19 41  1  0  0  0  0
 19 42  1  0  0  0  0
 20 23  1  0  0  0  0
 20 43  1  0  0  0  0
 20 44  1  0  0  0  0
 21 22  1  0  0  0  0
 21 46  1  0  0  0  0
 21 47  1  0  0  0  0
 23 48  1  0  0  0  0
 23 49  1  0  0  0  0
 23 50  1  0  0  0  0
M  END
> <PUBCHEM_COMPOUND_CID>
51090902

> <PUBCHEM_CONFORMER_RMSD>
1.2

> <PUBCHEM_CONFORMER_DIVERSEORDER>
1
63
88
82
36
5
35
42
91
57
48
64
3
93
46
78
27
96
4
90
60
34
59
70
51
33
39
44
21
56
26
9
73
47
81
32
55
95
30
66
71
6
61
68
87
67
22
85
53
31
75
97
11
40
52
83
45
25
2
10
37
86
54
7
14
12
77
58
43
29
16
89
41
69
38
80
49
74
15
24
72
17
28
62
65
18
50
19
84
13
92
20
8
79
94
23
76

> <PUBCHEM_MMFF94_PARTIAL_CHARGES>
18
1 1.33
12 0.36
13 0.36
14 0.57
15 0.3
16 0.3
2 -0.65
20 0.11
21 0.36
22 0.57
3 -0.65
4 -0.57
45 0.37
5 -0.57
6 -0.85
7 -0.66
8 -0.73
9 0.06

> <PUBCHEM_EFFECTIVE_ROTOR_COUNT>
9.4

> <PUBCHEM_PHARMACOPHORE_FEATURES>
7
1 2 acceptor
1 3 acceptor
1 4 acceptor
1 5 acceptor
1 8 donor
6 6 9 10 11 12 13 rings
6 7 15 16 17 18 19 rings

> <PUBCHEM_HEAVY_ATOM_COUNT>
23

> <PUBCHEM_ATOM_DEF_STEREO_COUNT>
0

> <PUBCHEM_ATOM_UDEF_STEREO_COUNT>
0

> <PUBCHEM_BOND_DEF_STEREO_COUNT>
0

> <PUBCHEM_BOND_UDEF_STEREO_COUNT>
0

> <PUBCHEM_ISOTOPIC_ATOM_COUNT>
0

> <PUBCHEM_COMPONENT_COUNT>
1

> <PUBCHEM_CACTVS_TAUTO_COUNT>
2

> <PUBCHEM_CONFORMER_ID>
030B95D600000001

> <PUBCHEM_MMFF94_ENERGY>
29.2717

> <PUBCHEM_FEATURE_SELFOVERLAP>
35.537

> <PUBCHEM_SHAPE_FINGERPRINT>
10498660 4 18259988137081788130
10615611 76 17488726896953792388
10670039 82 18411139091727393324
10871710 139 18265338309144167423
11014199 57 17836083368843799206
12596602 18 16917348138764725825
12760667 363 9655576297212362097
12892183 10 17489018374993627235
13994607 96 18343018866008198879
14251752 14 18411976967449233062
14251757 5 18336261258664211968
14251764 38 18124318474029193645
14251764 75 18046904068147460577
14347329 18 18410012135211188416
14840074 17 18273491273758769525
14848178 5 8574710187245588952
14950920 106 16916796226819187744
15052358 14 18114727318583899422
15163728 17 18114169856855156575
15183329 4 18407758158154798510
15575132 122 18342462573328439957
16994733 274 16700089044238597087
17834072 32 18410008832032917872
20403669 9 9583518737059639817
20567600 70 8790877472238973596
21864079 5 18341620265690051466
221357 26 17969225525358527802
22393880 68 18040721312284201874
23559900 14 17895756317869360550
25122255 55 9078849497602844268
2838139 119 18338242660026267781
5104073 3 17846225402212741954
633830 44 18272374136022956386
7288768 16 17703789228025955443
76465 3 8214149555568713182
7808743 9 18412265038351062985
90127 26 18340761525876709994

> <PUBCHEM_SHAPE_MULTIPOLES>
438.76
13.05
3.47
1.28
10.45
1.61
0.01
10.1
-1.88
-2.57
-0.49
-0.42
-0.17
-0.17

> <PUBCHEM_SHAPE_SELFOVERLAP>
869.578

> <PUBCHEM_SHAPE_VOLUME>
260.4

> <PUBCHEM_COORDINATE_TYPE>
2
5
10

$$$$

