17396095
  -OEChem-06241222543D

 51 53  0     0  0  0  0  0  0999 V2000
    7.6194   -0.9952    0.1869 S   0  0  0  0  0  0  0  0  0  0  0  0
   -0.2191    3.1115    0.0126 O   0  0  0  0  0  0  0  0  0  0  0  0
   -3.3817   -0.9237   -0.0306 N   0  0  0  0  0  0  0  0  0  0  0  0
   -2.9771   -3.7478    0.1137 N   0  0  0  0  0  0  0  0  0  0  0  0
   -1.3402    1.0436    0.0011 N   0  0  0  0  0  0  0  0  0  0  0  0
   -3.8132   -1.7848   -1.1360 C   0  0  0  0  0  0  0  0  0  0  0  0
   -3.2518   -1.5831    1.2750 C   0  0  0  0  0  0  0  0  0  0  0  0
   -2.9695   -3.0611   -1.1837 C   0  0  0  0  0  0  0  0  0  0  0  0
   -2.4254   -2.8650    1.1491 C   0  0  0  0  0  0  0  0  0  0  0  0
   -3.6946    0.4400   -0.0503 C   0  0  0  0  0  0  0  0  0  0  0  0
   -2.2126   -4.9922    0.0402 C   0  0  0  0  0  0  0  0  0  0  0  0
   -2.6895    1.4070   -0.0336 C   0  0  0  0  0  0  0  0  0  0  0  0
   -5.0343    0.8271   -0.0854 C   0  0  0  0  0  0  0  0  0  0  0  0
   -3.0240    2.7610   -0.0521 C   0  0  0  0  0  0  0  0  0  0  0  0
   -5.3688    2.1811   -0.1039 C   0  0  0  0  0  0  0  0  0  0  0  0
   -4.3637    3.1481   -0.0871 C   0  0  0  0  0  0  0  0  0  0  0  0
   -0.2218    1.8861    0.0208 C   0  0  0  0  0  0  0  0  0  0  0  0
    1.0533    1.1063    0.0570 C   0  0  0  0  0  0  0  0  0  0  0  0
    2.2321    1.7460    0.0797 C   0  0  0  0  0  0  0  0  0  0  0  0
    3.5453    1.0780    0.1064 C   0  0  0  0  0  0  0  0  0  0  0  0
    3.6442   -0.2495    0.5231 C   0  0  0  0  0  0  0  0  0  0  0  0
    4.6894    1.7729   -0.2858 C   0  0  0  0  0  0  0  0  0  0  0  0
    4.8870   -0.8821    0.5475 C   0  0  0  0  0  0  0  0  0  0  0  0
    5.9323    1.1403   -0.2613 C   0  0  0  0  0  0  0  0  0  0  0  0
    6.0311   -0.1871    0.1554 C   0  0  0  0  0  0  0  0  0  0  0  0
    7.3532   -2.3775   -0.9589 C   0  0  0  0  0  0  0  0  0  0  0  0
   -4.8731   -2.0417   -1.0148 H   0  0  0  0  0  0  0  0  0  0  0  0
   -3.7063   -1.2577   -2.0920 H   0  0  0  0  0  0  0  0  0  0  0  0
   -2.7595   -0.9189    1.9961 H   0  0  0  0  0  0  0  0  0  0  0  0
   -4.2503   -1.8126    1.6687 H   0  0  0  0  0  0  0  0  0  0  0  0
   -3.3841   -3.7171   -1.9586 H   0  0  0  0  0  0  0  0  0  0  0  0
   -1.9427   -2.8103   -1.4832 H   0  0  0  0  0  0  0  0  0  0  0  0
   -1.3816   -2.6074    0.9234 H   0  0  0  0  0  0  0  0  0  0  0  0
   -2.4331   -3.3744    2.1204 H   0  0  0  0  0  0  0  0  0  0  0  0
   -2.2488   -5.5224    0.9983 H   0  0  0  0  0  0  0  0  0  0  0  0
   -1.1617   -4.8198   -0.2192 H   0  0  0  0  0  0  0  0  0  0  0  0
   -2.6461   -5.6657   -0.7073 H   0  0  0  0  0  0  0  0  0  0  0  0
   -5.8315    0.0882   -0.0922 H   0  0  0  0  0  0  0  0  0  0  0  0
   -2.3124    3.5734   -0.0412 H   0  0  0  0  0  0  0  0  0  0  0  0
   -6.4119    2.4826   -0.1297 H   0  0  0  0  0  0  0  0  0  0  0  0
   -1.1728    0.0396    0.0105 H   0  0  0  0  0  0  0  0  0  0  0  0
   -4.6258    4.2021   -0.1011 H   0  0  0  0  0  0  0  0  0  0  0  0
    0.9717    0.0256    0.0413 H   0  0  0  0  0  0  0  0  0  0  0  0
    2.2673    2.8327    0.0673 H   0  0  0  0  0  0  0  0  0  0  0  0
    2.7849   -0.8229    0.8581 H   0  0  0  0  0  0  0  0  0  0  0  0
    4.6309    2.8076   -0.6149 H   0  0  0  0  0  0  0  0  0  0  0  0
    4.9421   -1.9136    0.8868 H   0  0  0  0  0  0  0  0  0  0  0  0
    6.8128    1.6978   -0.5711 H   0  0  0  0  0  0  0  0  0  0  0  0
    6.6180   -3.0787   -0.5560 H   0  0  0  0  0  0  0  0  0  0  0  0
    7.0098   -2.0070   -1.9286 H   0  0  0  0  0  0  0  0  0  0  0  0
    8.2971   -2.9099   -1.1025 H   0  0  0  0  0  0  0  0  0  0  0  0
  1 25  1  0  0  0  0
  1 26  1  0  0  0  0
  2 17  2  0  0  0  0
  3  6  1  0  0  0  0
  3  7  1  0  0  0  0
  3 10  1  0  0  0  0
  4  8  1  0  0  0  0
  4  9  1  0  0  0  0
  4 11  1  0  0  0  0
  5 12  1  0  0  0  0
  5 17  1  0  0  0  0
  5 41  1  0  0  0  0
  6  8  1  0  0  0  0
  6 27  1  0  0  0  0
  6 28  1  0  0  0  0
  7  9  1  0  0  0  0
  7 29  1  0  0  0  0
  7 30  1  0  0  0  0
  8 31  1  0  0  0  0
  8 32  1  0  0  0  0
  9 33  1  0  0  0  0
  9 34  1  0  0  0  0
 10 12  1  0  0  0  0
 10 13  2  0  0  0  0
 11 35  1  0  0  0  0
 11 36  1  0  0  0  0
 11 37  1  0  0  0  0
 12 14  2  0  0  0  0
 13 15  1  0  0  0  0
 13 38  1  0  0  0  0
 14 16  1  0  0  0  0
 14 39  1  0  0  0  0
 15 16  2  0  0  0  0
 15 40  1  0  0  0  0
 16 42  1  0  0  0  0
 17 18  1  0  0  0  0
 18 19  2  0  0  0  0
 18 43  1  0  0  0  0
 19 20  1  0  0  0  0
 19 44  1  0  0  0  0
 20 21  2  0  0  0  0
 20 22  1  0  0  0  0
 21 23  1  0  0  0  0
 21 45  1  0  0  0  0
 22 24  2  0  0  0  0
 22 46  1  0  0  0  0
 23 25  2  0  0  0  0
 23 47  1  0  0  0  0
 24 25  1  0  0  0  0
 24 48  1  0  0  0  0
 26 49  1  0  0  0  0
 26 50  1  0  0  0  0
 26 51  1  0  0  0  0
M  END
> <PUBCHEM_COMPOUND_CID>
17396095

> <PUBCHEM_CONFORMER_RMSD>
0.8

> <PUBCHEM_CONFORMER_DIVERSEORDER>
1
27
17
12
9
21
18
11
4
28
7
15
8
26
5
22
19
20
6
16
10
25
13
14
23
3
2
24

> <PUBCHEM_MMFF94_PARTIAL_CHARGES>
37
1 -0.33
10 0.1
11 0.27
12 0.12
13 -0.15
14 -0.15
15 -0.15
16 -0.15
17 0.62
18 -0.14
19 -0.18
2 -0.57
20 0.03
21 -0.15
22 -0.15
23 -0.15
24 -0.15
25 0.1
26 0.23
3 -0.84
38 0.15
39 0.15
4 -0.81
40 0.15
41 0.37
42 0.15
43 0.15
44 0.15
45 0.15
46 0.15
47 0.15
48 0.15
5 -0.55
6 0.37
7 0.37
8 0.27
9 0.27

> <PUBCHEM_EFFECTIVE_ROTOR_COUNT>
7.2

> <PUBCHEM_PHARMACOPHORE_FEATURES>
8
1 2 acceptor
1 26 hydrophobe
1 3 cation
1 4 cation
1 5 donor
6 10 12 13 14 15 16 rings
6 20 21 22 23 24 25 rings
6 3 4 6 7 8 9 rings

> <PUBCHEM_HEAVY_ATOM_COUNT>
26

> <PUBCHEM_ATOM_DEF_STEREO_COUNT>
0

> <PUBCHEM_ATOM_UDEF_STEREO_COUNT>
0

> <PUBCHEM_BOND_DEF_STEREO_COUNT>
1

> <PUBCHEM_BOND_UDEF_STEREO_COUNT>
0

> <PUBCHEM_ISOTOPIC_ATOM_COUNT>
0

> <PUBCHEM_COMPONENT_COUNT>
1

> <PUBCHEM_CACTVS_TAUTO_COUNT>
2

> <PUBCHEM_CONFORMER_ID>
0109717F00000001

> <PUBCHEM_MMFF94_ENERGY>
90.6192

> <PUBCHEM_FEATURE_SELFOVERLAP>
40.597

> <PUBCHEM_SHAPE_FINGERPRINT>
10369192 42 13758068636208316713
10391435 84 18408330986828224440
10462674 125 14786344834762971134
10483366 6 18264504910339875999
10940486 97 18272365343592068173
11135609 99 18409729604458317774
11315181 36 17748829635025981480
11524674 6 17531252785105379333
11796584 16 18408602587385178792
12643181 29 18412267272419976090
14251757 5 18410858746063058321
14444916 359 18265882743662276633
14461889 52 18261405386987036664
14659021 117 18124046641058390547
14844126 61 18340485561221669043
14866123 147 18337107866228897675
15042514 8 18267864987592582401
15230672 131 18269276944800701738
15250474 111 18271539632234975002
15348495 7 18186812348699302128
15361156 5 17917416628290430500
15439362 3 17764594605535632165
15484559 13 14392301273141761460
16719943 64 18410577322763299699
17492 89 18123191199558242801
20771845 38 18337385037548268715
21133410 171 17329490065105763594
21133410 52 15737421160001617092
21133665 82 18265614475541326150
21703447 108 17831032234032891817
23516275 137 17983277516254055538
23559900 14 18336554823953223360
249057 3 18342739654020934516
25122255 55 18187919617216933734
3004659 81 18272369819723216176
335507 130 18201146652005369236
3383291 50 18410295796637703179
3610482 184 17988064617976736852
4073 2 18412826859561853856
437795 96 18187918517389750326
44062 13 18409448055190406488
445580 160 18409441514672840918
508706 21 18334288738845858990
5309563 4 17690559685157070707
531348 171 18410291410869373994
5364581 5 18046081371219450856
559249 180 18411984688909368173
613672 6 17545626464846150555
6431902 208 18196655099286438778
6437827 68 18409166636655165982
7970288 3 17689998934063472035
999808 66 17917698090297739945

> <PUBCHEM_SHAPE_MULTIPOLES>
518.1
17.96
5.11
0.9
33.88
5.44
0
2.47
1.68
-7.4
0.27
-0.26
0.61
0.36

> <PUBCHEM_SHAPE_SELFOVERLAP>
1077.564

> <PUBCHEM_SHAPE_VOLUME>
296.6

> <PUBCHEM_COORDINATE_TYPE>
2
5
10

$$$$

