5580
  -OEChem-06261200453D

 26 26  0     0  0  0  0  0  0999 V2000
   -1.9289    0.0034   -0.0001 N   0  3  0  0  0  0  0  0  0  0  0  0
    3.7174   -0.0103   -0.0004 N   0  0  0  0  0  0  0  0  0  0  0  0
   -0.3983   -0.0002    0.0002 C   0  0  0  0  0  0  0  0  0  0  0  0
   -2.4176    0.7273   -1.2516 C   0  0  0  0  0  0  0  0  0  0  0  0
   -2.4185    0.7090    1.2614 C   0  0  0  0  0  0  0  0  0  0  0  0
   -2.5096   -1.4091   -0.0101 C   0  0  0  0  0  0  0  0  0  0  0  0
    0.2176    1.2063    0.0005 C   0  0  0  0  0  0  0  0  0  0  0  0
    0.2118   -1.2096   -0.0002 C   0  0  0  0  0  0  0  0  0  0  0  0
    1.6125    1.2029    0.0004 C   0  0  0  0  0  0  0  0  0  0  0  0
    1.6066   -1.2130   -0.0003 C   0  0  0  0  0  0  0  0  0  0  0  0
    2.3070   -0.0067    0.0002 C   0  0  0  0  0  0  0  0  0  0  0  0
   -1.9828    0.2407   -2.1307 H   0  0  0  0  0  0  0  0  0  0  0  0
   -3.5094    0.6522   -1.2826 H   0  0  0  0  0  0  0  0  0  0  0  0
   -2.1359    1.7829   -1.2072 H   0  0  0  0  0  0  0  0  0  0  0  0
   -2.1317    1.7638    1.2344 H   0  0  0  0  0  0  0  0  0  0  0  0
   -3.5107    0.6376    1.2882 H   0  0  0  0  0  0  0  0  0  0  0  0
   -1.9877    0.2071    2.1337 H   0  0  0  0  0  0  0  0  0  0  0  0
   -2.2109   -1.9368    0.9017 H   0  0  0  0  0  0  0  0  0  0  0  0
   -3.6021   -1.3200   -0.0128 H   0  0  0  0  0  0  0  0  0  0  0  0
   -2.2051   -1.9259   -0.9262 H   0  0  0  0  0  0  0  0  0  0  0  0
   -0.2985    2.1585    0.0019 H   0  0  0  0  0  0  0  0  0  0  0  0
   -0.2661   -2.1789   -0.0002 H   0  0  0  0  0  0  0  0  0  0  0  0
    2.1471    2.1494    0.0008 H   0  0  0  0  0  0  0  0  0  0  0  0
    2.1376   -2.1618   -0.0006 H   0  0  0  0  0  0  0  0  0  0  0  0
    4.2214   -0.8872    0.0008 H   0  0  0  0  0  0  0  0  0  0  0  0
    4.2258    0.8639    0.0012 H   0  0  0  0  0  0  0  0  0  0  0  0
  1  3  1  0  0  0  0
  1  4  1  0  0  0  0
  1  5  1  0  0  0  0
  1  6  1  0  0  0  0
  2 11  1  0  0  0  0
  2 25  1  0  0  0  0
  2 26  1  0  0  0  0
  3  7  2  0  0  0  0
  3  8  1  0  0  0  0
  4 12  1  0  0  0  0
  4 13  1  0  0  0  0
  4 14  1  0  0  0  0
  5 15  1  0  0  0  0
  5 16  1  0  0  0  0
  5 17  1  0  0  0  0
  6 18  1  0  0  0  0
  6 19  1  0  0  0  0
  6 20  1  0  0  0  0
  7  9  1  0  0  0  0
  7 21  1  0  0  0  0
  8 10  2  0  0  0  0
  8 22  1  0  0  0  0
  9 11  2  0  0  0  0
  9 23  1  0  0  0  0
 10 11  1  0  0  0  0
 10 24  1  0  0  0  0
M  CHG  1   1   1
M  END
> <PUBCHEM_COMPOUND_CID>
5580

> <PUBCHEM_CONFORMER_RMSD>
0.4

> <PUBCHEM_CONFORMER_DIVERSEORDER>
1

> <PUBCHEM_MMFF94_PARTIAL_CHARGES>
17
1 -0.87
10 -0.15
11 0.1
2 -0.9
21 0.15
22 0.15
23 0.15
24 0.15
25 0.4
26 0.4
3 0.36
4 0.5
5 0.5
6 0.5
7 -0.15
8 -0.15
9 -0.15

> <PUBCHEM_EFFECTIVE_ROTOR_COUNT>
1

> <PUBCHEM_PHARMACOPHORE_FEATURES>
4
1 1 cation
1 2 cation
1 2 donor
6 3 7 8 9 10 11 rings

> <PUBCHEM_HEAVY_ATOM_COUNT>
11

> <PUBCHEM_ATOM_DEF_STEREO_COUNT>
0

> <PUBCHEM_ATOM_UDEF_STEREO_COUNT>
0

> <PUBCHEM_BOND_DEF_STEREO_COUNT>
0

> <PUBCHEM_BOND_UDEF_STEREO_COUNT>
0

> <PUBCHEM_ISOTOPIC_ATOM_COUNT>
0

> <PUBCHEM_COMPONENT_COUNT>
1

> <PUBCHEM_CACTVS_TAUTO_COUNT>
1

> <PUBCHEM_CONFORMER_ID>
000015CC00000001

> <PUBCHEM_MMFF94_ENERGY>
58.5854

> <PUBCHEM_FEATURE_SELFOVERLAP>
20.297

> <PUBCHEM_SHAPE_FINGERPRINT>
12032990 46 18409441484391882870
12138202 97 17631752563448004783
12423570 1 5974669756671482555
124424 183 17560534996140690480
12897270 3 18411426110963232781
12932764 1 18060419127087457322
14325111 11 18410575054920184644
15775835 57 18272088309663625855
16945 1 18410574032596655392
17844478 74 17846483851415934945
200 152 18041852722723645815
20201158 50 18341336659982384863
21040471 1 18266459811020212484
23235685 24 18407759252590633144
23402539 116 14346359069118428809
23402655 69 18194422171838621205
23552423 10 18343581811170774182
2748010 2 18266461997058456388
29004967 10 18201712985548565720
3248919 1 18040437719471674918
369184 2 17988645211471089443
5084963 1 18270120102192696161
528886 8 18408325513963800755
8030462 33 17749398091189999783

> <PUBCHEM_SHAPE_MULTIPOLES>
216.41
4.6
1.44
0.9
1.4
0.2
0
0.06
0
-0.18
0
-0.73
-0.22
0

> <PUBCHEM_SHAPE_SELFOVERLAP>
440.046

> <PUBCHEM_SHAPE_VOLUME>
128.5

> <PUBCHEM_COORDINATE_TYPE>
2
5
10

$$$$

