5315675
  -OEChem-07051213093D

 25 25  0     0  0  0  0  0  0999 V2000
    0.0626    1.9999   -0.4409 O   0  0  0  0  0  0  0  0  0  0  0  0
    1.5497    0.2236   -0.0693 C   0  0  0  0  0  0  0  0  0  0  0  0
    1.7411   -1.1062   -0.3881 C   0  0  0  0  0  0  0  0  0  0  0  0
    2.5834    1.0290    0.3657 C   0  0  0  0  0  0  0  0  0  0  0  0
    0.1918    0.8051   -0.1979 C   0  0  0  0  0  0  0  0  0  0  0  0
    3.0185   -1.6530   -0.2668 C   0  0  0  0  0  0  0  0  0  0  0  0
    3.8609    0.4822    0.4870 C   0  0  0  0  0  0  0  0  0  0  0  0
    4.0785   -0.8589    0.1708 C   0  0  0  0  0  0  0  0  0  0  0  0
   -0.9716   -0.1005    0.0095 C   0  0  0  0  0  0  0  0  0  0  0  0
   -2.2184    0.3842   -0.0765 C   0  0  0  0  0  0  0  0  0  0  0  0
   -3.3915   -0.4382    0.1238 C   0  0  0  0  0  0  0  0  0  0  0  0
   -4.6431    0.0360    0.0400 C   0  0  0  0  0  0  0  0  0  0  0  0
   -5.8619   -0.8031    0.2427 C   0  0  0  0  0  0  0  0  0  0  0  0
    0.9537   -1.7474   -0.7693 H   0  0  0  0  0  0  0  0  0  0  0  0
    2.4292    2.0734    0.6204 H   0  0  0  0  0  0  0  0  0  0  0  0
    3.1905   -2.6948   -0.5216 H   0  0  0  0  0  0  0  0  0  0  0  0
    4.6863    1.1002    0.8284 H   0  0  0  0  0  0  0  0  0  0  0  0
   -0.8107   -1.1381    0.2778 H   0  0  0  0  0  0  0  0  0  0  0  0
    5.0735   -1.2841    0.2635 H   0  0  0  0  0  0  0  0  0  0  0  0
   -2.3907    1.4300   -0.3181 H   0  0  0  0  0  0  0  0  0  0  0  0
   -3.2316   -1.4890    0.3522 H   0  0  0  0  0  0  0  0  0  0  0  0
   -4.8143    1.0855   -0.1877 H   0  0  0  0  0  0  0  0  0  0  0  0
   -6.4534   -0.4059    1.0732 H   0  0  0  0  0  0  0  0  0  0  0  0
   -5.6160   -1.8459    0.4670 H   0  0  0  0  0  0  0  0  0  0  0  0
   -6.4805   -0.7852   -0.6598 H   0  0  0  0  0  0  0  0  0  0  0  0
  1  5  2  0  0  0  0
  2  3  2  0  0  0  0
  2  4  1  0  0  0  0
  2  5  1  0  0  0  0
  3  6  1  0  0  0  0
  3 14  1  0  0  0  0
  4  7  2  0  0  0  0
  4 15  1  0  0  0  0
  5  9  1  0  0  0  0
  6  8  2  0  0  0  0
  6 16  1  0  0  0  0
  7  8  1  0  0  0  0
  7 17  1  0  0  0  0
  8 19  1  0  0  0  0
  9 10  2  0  0  0  0
  9 18  1  0  0  0  0
 10 11  1  0  0  0  0
 10 20  1  0  0  0  0
 11 12  2  0  0  0  0
 11 21  1  0  0  0  0
 12 13  1  0  0  0  0
 12 22  1  0  0  0  0
 13 23  1  0  0  0  0
 13 24  1  0  0  0  0
 13 25  1  0  0  0  0
M  END
> <PUBCHEM_COMPOUND_CID>
5315675

> <PUBCHEM_CONFORMER_RMSD>
0.6

> <PUBCHEM_CONFORMER_DIVERSEORDER>
1
4
3
2
6
5
7
8

> <PUBCHEM_MMFF94_PARTIAL_CHARGES>
22
1 -0.57
10 -0.15
11 -0.15
12 -0.29
13 0.14
14 0.15
15 0.15
16 0.15
17 0.15
18 0.15
19 0.15
2 0.09
20 0.15
21 0.15
22 0.15
3 -0.15
4 -0.15
5 0.47
6 -0.15
7 -0.15
8 -0.15
9 -0.14

> <PUBCHEM_EFFECTIVE_ROTOR_COUNT>
3

> <PUBCHEM_PHARMACOPHORE_FEATURES>
3
1 1 acceptor
1 13 hydrophobe
6 2 3 4 6 7 8 rings

> <PUBCHEM_HEAVY_ATOM_COUNT>
13

> <PUBCHEM_ATOM_DEF_STEREO_COUNT>
0

> <PUBCHEM_ATOM_UDEF_STEREO_COUNT>
0

> <PUBCHEM_BOND_DEF_STEREO_COUNT>
2

> <PUBCHEM_BOND_UDEF_STEREO_COUNT>
0

> <PUBCHEM_ISOTOPIC_ATOM_COUNT>
0

> <PUBCHEM_COMPONENT_COUNT>
1

> <PUBCHEM_CACTVS_TAUTO_COUNT>
1

> <PUBCHEM_CONFORMER_ID>
00511C5B00000001

> <PUBCHEM_MMFF94_ENERGY>
30.2146

> <PUBCHEM_FEATURE_SELFOVERLAP>
15.223

> <PUBCHEM_SHAPE_FINGERPRINT>
100836 57 7709455043674788547
12032990 46 18341331175293206685
12251169 10 17967536770040051638
12346645 6 18186800270944712662
13690532 89 18412262835597336011
14115302 16 16916777466280601843
14123238 8 18335420154028188011
14251717 144 18408603664646652950
14252887 29 18335132115814201282
15477762 27 18412824676890038836
15885798 251 18343018913110687069
17834072 33 18259988132976763607
200 152 18259706701107948953
20279233 1 18131063827456978075
20432913 95 18409724067485869995
20645477 70 18408885165472496759
20871998 22 18262231252450631758
21119208 17 13542463167898120595
21267235 1 18408877460311567678
21501925 9 18411138043217153228
22224240 67 18188503376144440522
22485316 2 18410577288387652599
23402539 116 17894918434463914749
23557571 272 17275111651494367116
26918003 58 18408605855464927163
276578 36 13984663676557742676
2871803 45 18272653492863092394
33824 294 18411139151651447354
4047638 21 8718824293263862918
42 15 18335136501529354131
4214541 1 18409166649656105953
465052 167 18333726935975694574
5104073 3 18263087776377542104
5374978 207 17530685411398796859
69090 78 18335706022619727679

> <PUBCHEM_SHAPE_MULTIPOLES>
261.66
10.53
1.44
0.68
13.58
0.09
-0.01
-3.32
-1.49
-1.01
0.15
-0.1
0.01
0.34

> <PUBCHEM_SHAPE_SELFOVERLAP>
536.776

> <PUBCHEM_SHAPE_VOLUME>
150.7

> <PUBCHEM_COORDINATE_TYPE>
2
5
10

$$$$

