442744
  -OEChem-07051212593D

 47 50  0     1  0  0  0  0  0999 V2000
   -3.4166   -0.2533    0.9856 O   0  0  0  0  0  0  0  0  0  0  0  0
   -5.4138    1.9175    0.8472 O   0  0  0  0  0  0  0  0  0  0  0  0
   -2.6219   -0.6026   -1.2167 O   0  0  0  0  0  0  0  0  0  0  0  0
   -5.0362    1.2630   -1.8354 O   0  0  0  0  0  0  0  0  0  0  0  0
   -7.6140    0.4089    1.6883 O   0  0  0  0  0  0  0  0  0  0  0  0
    0.8779   -3.5747   -0.0495 O   0  0  0  0  0  0  0  0  0  0  0  0
    1.4130    2.3717   -0.6772 O   0  0  0  0  0  0  0  0  0  0  0  0
    3.1970   -2.5609    0.3451 O   0  0  0  0  0  0  0  0  0  0  0  0
    5.5720   -1.7057    0.7790 O   0  0  0  0  0  0  0  0  0  0  0  0
   -5.5760    0.5556    0.4497 C   0  0  1  0  0  0  0  0  0  0  0  0
   -4.8212    0.2836   -0.8380 C   0  0  2  0  0  0  0  0  0  0  0  0
   -3.3761    0.2450   -0.3626 C   0  0  1  0  0  0  0  0  0  0  0  0
   -4.7903   -0.3106    1.4212 C   0  0  0  0  0  0  0  0  0  0  0  0
   -7.0587    0.2299    0.3957 C   0  0  0  0  0  0  0  0  0  0  0  0
   -1.3138   -0.7999   -0.8956 C   0  0  0  0  0  0  0  0  0  0  0  0
    0.9047    0.0852   -0.5035 C   0  0  0  0  0  0  0  0  0  0  0  0
   -0.4407    0.2866   -0.8341 C   0  0  0  0  0  0  0  0  0  0  0  0
    1.3706   -1.2036   -0.2357 C   0  0  0  0  0  0  0  0  0  0  0  0
   -0.8490   -2.0860   -0.6281 C   0  0  0  0  0  0  0  0  0  0  0  0
    0.4910   -2.2911   -0.2981 C   0  0  0  0  0  0  0  0  0  0  0  0
    3.2391    1.0147   -0.0919 C   0  0  0  0  0  0  0  0  0  0  0  0
    3.7051   -0.2742    0.1757 C   0  0  0  0  0  0  0  0  0  0  0  0
    1.8218    1.2415   -0.4411 C   0  0  0  0  0  0  0  0  0  0  0  0
    2.7881   -1.4306    0.1130 C   0  0  0  0  0  0  0  0  0  0  0  0
    4.1187    2.1022   -0.0297 C   0  0  0  0  0  0  0  0  0  0  0  0
    5.0508   -0.4756    0.5057 C   0  0  0  0  0  0  0  0  0  0  0  0
    5.4589    1.8969    0.2991 C   0  0  0  0  0  0  0  0  0  0  0  0
    5.9239    0.6108    0.5663 C   0  0  0  0  0  0  0  0  0  0  0  0
    6.3957    3.0557    0.3657 C   0  0  0  0  0  0  0  0  0  0  0  0
   -5.1004   -0.6908   -1.2598 H   0  0  0  0  0  0  0  0  0  0  0  0
   -2.9488    1.2550   -0.3571 H   0  0  0  0  0  0  0  0  0  0  0  0
   -4.8357    0.0432    2.4556 H   0  0  0  0  0  0  0  0  0  0  0  0
   -5.0983   -1.3613    1.3848 H   0  0  0  0  0  0  0  0  0  0  0  0
   -7.2373   -0.8042    0.0852 H   0  0  0  0  0  0  0  0  0  0  0  0
   -7.5902    0.8967   -0.2909 H   0  0  0  0  0  0  0  0  0  0  0  0
   -4.4754    2.0862    1.0338 H   0  0  0  0  0  0  0  0  0  0  0  0
   -5.9861    1.2691   -2.0418 H   0  0  0  0  0  0  0  0  0  0  0  0
   -7.4511    1.3305    1.9527 H   0  0  0  0  0  0  0  0  0  0  0  0
   -0.8049    1.2850   -1.0616 H   0  0  0  0  0  0  0  0  0  0  0  0
   -1.5417   -2.9229   -0.6793 H   0  0  0  0  0  0  0  0  0  0  0  0
    3.7691    3.1106   -0.2376 H   0  0  0  0  0  0  0  0  0  0  0  0
    6.9687    0.4488    0.8213 H   0  0  0  0  0  0  0  0  0  0  0  0
    0.1160   -4.1709   -0.1471 H   0  0  0  0  0  0  0  0  0  0  0  0
    6.8306    3.2442   -0.6208 H   0  0  0  0  0  0  0  0  0  0  0  0
    5.8792    3.9614    0.7014 H   0  0  0  0  0  0  0  0  0  0  0  0
    7.2080    2.8691    1.0765 H   0  0  0  0  0  0  0  0  0  0  0  0
    4.8899   -2.3906    0.7167 H   0  0  0  0  0  0  0  0  0  0  0  0
  1 12  1  0  0  0  0
  1 13  1  0  0  0  0
  2 10  1  0  0  0  0
  2 36  1  0  0  0  0
  3 12  1  0  0  0  0
  3 15  1  0  0  0  0
  4 11  1  0  0  0  0
  4 37  1  0  0  0  0
  5 14  1  0  0  0  0
  5 38  1  0  0  0  0
  6 20  1  0  0  0  0
  6 43  1  0  0  0  0
  7 23  2  0  0  0  0
  8 24  2  0  0  0  0
  9 26  1  0  0  0  0
  9 47  1  0  0  0  0
 10 11  1  0  0  0  0
 10 13  1  0  0  0  0
 10 14  1  0  0  0  0
 11 12  1  0  0  0  0
 11 30  1  0  0  0  0
 12 31  1  0  0  0  0
 13 32  1  0  0  0  0
 13 33  1  0  0  0  0
 14 34  1  0  0  0  0
 14 35  1  0  0  0  0
 15 17  2  0  0  0  0
 15 19  1  0  0  0  0
 16 17  1  0  0  0  0
 16 18  2  0  0  0  0
 16 23  1  0  0  0  0
 17 39  1  0  0  0  0
 18 20  1  0  0  0  0
 18 24  1  0  0  0  0
 19 20  2  0  0  0  0
 19 40  1  0  0  0  0
 21 22  2  0  0  0  0
 21 23  1  0  0  0  0
 21 25  1  0  0  0  0
 22 24  1  0  0  0  0
 22 26  1  0  0  0  0
 25 27  2  0  0  0  0
 25 41  1  0  0  0  0
 26 28  2  0  0  0  0
 27 28  1  0  0  0  0
 27 29  1  0  0  0  0
 28 42  1  0  0  0  0
 29 44  1  0  0  0  0
 29 45  1  0  0  0  0
 29 46  1  0  0  0  0
M  END
> <PUBCHEM_COMPOUND_CID>
442744

> <PUBCHEM_CONFORMER_RMSD>
0.8

> <PUBCHEM_CONFORMER_DIVERSEORDER>
2
23
3
29
31
20
10
7
9
30
24
6
22
33
17
25
28
11
8
4
21
26
12
5
16
19
32
27
14
15
1
18
13

> <PUBCHEM_MMFF94_PARTIAL_CHARGES>
38
1 -0.56
10 0.28
11 0.28
12 0.56
13 0.28
14 0.28
15 0.08
16 0.09
17 -0.15
18 0.09
19 -0.15
2 -0.68
20 0.08
21 0.09
22 0.09
23 0.4
24 0.4
25 -0.15
26 0.08
27 -0.14
28 -0.15
29 0.14
3 -0.36
36 0.4
37 0.4
38 0.4
39 0.15
4 -0.68
40 0.15
41 0.15
42 0.15
43 0.45
47 0.45
5 -0.68
6 -0.53
7 -0.57
8 -0.57
9 -0.53

> <PUBCHEM_EFFECTIVE_ROTOR_COUNT>
4

> <PUBCHEM_PHARMACOPHORE_FEATURES>
16
1 1 acceptor
1 2 acceptor
1 2 donor
1 3 acceptor
1 4 acceptor
1 4 donor
1 5 acceptor
1 5 donor
1 6 donor
1 7 acceptor
1 8 acceptor
1 9 donor
5 1 10 11 12 13 rings
6 15 16 17 18 19 20 rings
6 16 18 21 22 23 24 rings
6 21 22 25 26 27 28 rings

> <PUBCHEM_HEAVY_ATOM_COUNT>
29

> <PUBCHEM_ATOM_DEF_STEREO_COUNT>
3

> <PUBCHEM_ATOM_UDEF_STEREO_COUNT>
0

> <PUBCHEM_BOND_DEF_STEREO_COUNT>
0

> <PUBCHEM_BOND_UDEF_STEREO_COUNT>
0

> <PUBCHEM_ISOTOPIC_ATOM_COUNT>
0

> <PUBCHEM_COMPONENT_COUNT>
1

> <PUBCHEM_CACTVS_TAUTO_COUNT>
57

> <PUBCHEM_CONFORMER_ID>
0006C17800000002

> <PUBCHEM_MMFF94_ENERGY>
104.8039

> <PUBCHEM_FEATURE_SELFOVERLAP>
81.288

> <PUBCHEM_SHAPE_FINGERPRINT>
10 15 18060139808137083808
10162869 55 18410016499657148447
10319926 262 17132109156859755937
10411042 1 17905610261600596774
10493431 412 18339082588442171534
10670039 82 15647319871102155241
10688039 33 17846500369586388564
10906281 52 18335696084455457500
11089746 13 17530973453633996120
11578080 2 17533516534361996912
11724838 91 18335420137170293343
12236239 1 17967256394501271807
12422481 6 17775291555880729796
12596602 18 18411417298043860747
12788726 201 17603294956390877792
13140716 1 18340770351565400894
13583140 156 16271109045567541918
13631057 29 18043261137438269207
13785724 45 17903073679400409974
14020679 6 17488745558676188736
14251764 75 18266739074448033572
14294032 229 17241324647727978047
14341114 176 18202281411611825501
14394314 77 18261391105361616321
14790565 3 18410295804900453644
14849402 71 18263081028984621105
15081414 286 18410575098044308204
15188451 53 15697996302593010723
15196674 1 18339933606548211462
15475509 35 16629975446566118770
1577012 14 18040436572952881381
15840311 113 18408318895424732333
20642791 178 17769655300954524532
20739085 24 18271799159897063540
21033648 144 18341622494751912695
21033648 29 17560807671325452749
21033650 10 14852150832669836107
21130935 74 18271519892966456291
21267235 1 18341614884623907294
21421861 104 17987258715399352802
21623969 137 18343863329292219633
21781055 127 17822005433512288882
22122407 14 18114169853177485225
22224240 67 18343021073695508459
22393880 68 6411005440286104381
22956985 138 13756421615509719144
23559900 14 17058929055591775655
25147074 1 18188788166229833527
25223398 141 14274031961535378293
2838139 119 17603592923619868353
3178227 256 18343022225052764154
335352 9 18410580583329286494
3411729 13 18409726278945796702
350125 39 18193842544052571727
351380 3 12175621772028906337
3680242 22 18270981097935013530
397830 11 18059565841982873947
4073 2 18130503024765847362
4093350 32 17458062669349627566
4340502 62 18412260631751813406
474 4 18407762542641486143
5104073 3 18270695147417913722
5385378 56 18408880763067565251
5758199 1 18335137557585231569
7226269 152 17894627015810083336
7970288 3 10591768670621554481

> <PUBCHEM_SHAPE_MULTIPOLES>
543.98
17.71
2.81
1.12
15.88
0.9
0.01
-10.42
6.48
-4.04
0.01
1.73
-0.15
-0.39

> <PUBCHEM_SHAPE_SELFOVERLAP>
1214.372

> <PUBCHEM_SHAPE_VOLUME>
288.8

> <PUBCHEM_COORDINATE_TYPE>
2
5
10

$$$$

