124211
  -OEChem-07051212592D

 45 47  0     0  0  0  0  0  0999 V2000
    6.3580    0.6193    0.0000 O   0  0  0  0  0  0  0  0  0  0  0  0
    4.5981    1.5846    0.0000 O   0  0  0  0  0  0  0  0  0  0  0  0
    2.8660    0.5846    0.0000 O   0  0  0  0  0  0  0  0  0  0  0  0
    2.8660   -1.4154    0.0000 O   0  0  0  0  0  0  0  0  0  0  0  0
    4.5981   -2.4154    0.0000 O   0  0  0  0  0  0  0  0  0  0  0  0
    9.0000   -0.8879    0.0000 O   0  0  0  0  0  0  0  0  0  0  0  0
    6.3465   -2.4500    0.0000 O   0  0  0  0  0  0  0  0  0  0  0  0
    7.2564    2.1054    0.0000 O   0  0  0  0  0  0  0  0  0  0  0  0
    5.4641   -0.9154    0.0000 C   0  0  0  0  0  0  0  0  0  0  0  0
    5.4641    0.0846    0.0000 C   0  0  0  0  0  0  0  0  0  0  0  0
    4.5981    0.5846    0.0000 C   0  0  0  0  0  0  0  0  0  0  0  0
    7.2641    0.1054    0.0000 C   0  0  0  0  0  0  0  0  0  0  0  0
    4.5981   -1.4154    0.0000 C   0  0  0  0  0  0  0  0  0  0  0  0
    3.7320    0.0846    0.0000 C   0  0  0  0  0  0  0  0  0  0  0  0
    6.3580   -1.4501    0.0000 C   0  0  0  0  0  0  0  0  0  0  0  0
    3.7320   -0.9154    0.0000 C   0  0  0  0  0  0  0  0  0  0  0  0
    8.1282    0.6088    0.0000 C   0  0  0  0  0  0  0  0  0  0  0  0
    7.2641   -0.9362    0.0000 C   0  0  0  0  0  0  0  0  0  0  0  0
    8.9962    0.1121    0.0000 C   0  0  0  0  0  0  0  0  0  0  0  0
    8.1244    1.6087    0.0000 C   0  0  0  0  0  0  0  0  0  0  0  0
    9.8602    0.6154    0.0000 C   0  0  0  0  0  0  0  0  0  0  0  0
    8.9884    2.1121    0.0000 C   0  0  0  0  0  0  0  0  0  0  0  0
    9.8564    1.6154    0.0000 C   0  0  0  0  0  0  0  0  0  0  0  0
    3.7320    2.0846    0.0000 C   0  0  0  0  0  0  0  0  0  0  0  0
    2.0000    0.0846    0.0000 C   0  0  0  0  0  0  0  0  0  0  0  0
    2.0000   -0.9154    0.0000 C   0  0  0  0  0  0  0  0  0  0  0  0
    9.8680   -1.3846    0.0000 C   0  0  0  0  0  0  0  0  0  0  0  0
    7.7998   -1.2483    0.0000 H   0  0  0  0  0  0  0  0  0  0  0  0
   10.3984    0.3075    0.0000 H   0  0  0  0  0  0  0  0  0  0  0  0
    8.9860    2.7321    0.0000 H   0  0  0  0  0  0  0  0  0  0  0  0
   10.3921    1.9275    0.0000 H   0  0  0  0  0  0  0  0  0  0  0  0
    4.0611   -2.7254    0.0000 H   0  0  0  0  0  0  0  0  0  0  0  0
    4.0420    2.6215    0.0000 H   0  0  0  0  0  0  0  0  0  0  0  0
    3.1951    2.3946    0.0000 H   0  0  0  0  0  0  0  0  0  0  0  0
    3.4220    1.5477    0.0000 H   0  0  0  0  0  0  0  0  0  0  0  0
    1.6900    0.6215    0.0000 H   0  0  0  0  0  0  0  0  0  0  0  0
    1.4631   -0.2254    0.0000 H   0  0  0  0  0  0  0  0  0  0  0  0
    2.3100   -0.4523    0.0000 H   0  0  0  0  0  0  0  0  0  0  0  0
    2.3100   -0.3785    0.0000 H   0  0  0  0  0  0  0  0  0  0  0  0
    1.4631   -0.6054    0.0000 H   0  0  0  0  0  0  0  0  0  0  0  0
    1.6900   -1.4523    0.0000 H   0  0  0  0  0  0  0  0  0  0  0  0
    7.2540    2.7254    0.0000 H   0  0  0  0  0  0  0  0  0  0  0  0
    9.5600   -1.9227    0.0000 H   0  0  0  0  0  0  0  0  0  0  0  0
   10.4061   -1.6925    0.0000 H   0  0  0  0  0  0  0  0  0  0  0  0
   10.1759   -0.8464    0.0000 H   0  0  0  0  0  0  0  0  0  0  0  0
  1 10  1  0  0  0  0
  1 12  1  0  0  0  0
  2 11  1  0  0  0  0
  2 24  1  0  0  0  0
  3 14  1  0  0  0  0
  3 25  1  0  0  0  0
  4 16  1  0  0  0  0
  4 26  1  0  0  0  0
  5 13  1  0  0  0  0
  5 32  1  0  0  0  0
  6 19  1  0  0  0  0
  6 27  1  0  0  0  0
  7 15  2  0  0  0  0
  8 20  1  0  0  0  0
  8 42  1  0  0  0  0
  9 10  1  0  0  0  0
  9 13  2  0  0  0  0
  9 15  1  0  0  0  0
 10 11  2  0  0  0  0
 11 14  1  0  0  0  0
 12 17  1  0  0  0  0
 12 18  2  0  0  0  0
 13 16  1  0  0  0  0
 14 16  2  0  0  0  0
 15 18  1  0  0  0  0
 17 19  1  0  0  0  0
 17 20  2  0  0  0  0
 18 28  1  0  0  0  0
 19 21  2  0  0  0  0
 20 22  1  0  0  0  0
 21 23  1  0  0  0  0
 21 29  1  0  0  0  0
 22 23  2  0  0  0  0
 22 30  1  0  0  0  0
 23 31  1  0  0  0  0
 24 33  1  0  0  0  0
 24 34  1  0  0  0  0
 24 35  1  0  0  0  0
 25 36  1  0  0  0  0
 25 37  1  0  0  0  0
 25 38  1  0  0  0  0
 26 39  1  0  0  0  0
 26 40  1  0  0  0  0
 26 41  1  0  0  0  0
 27 43  1  0  0  0  0
 27 44  1  0  0  0  0
 27 45  1  0  0  0  0
M  END
> <PUBCHEM_COMPOUND_CID>
124211

> <PUBCHEM_COMPOUND_CANONICALIZED>
1

> <PUBCHEM_CACTVS_COMPLEXITY>
564

> <PUBCHEM_CACTVS_HBOND_ACCEPTOR>
8

> <PUBCHEM_CACTVS_HBOND_DONOR>
2

> <PUBCHEM_CACTVS_ROTATABLE_BOND>
5

> <PUBCHEM_CACTVS_SUBSKEYS>
AAADceB4PAAAAAAAAAAAAAAAAAAAAAAAAAAwYIAAAAAAAACBQAAAGgAACAAADASAmAIyBoAABgCIAqBSAAACCAAkIAAIiAEGiMgNJzaGNRqCeWOl4BULuQfK7LzOIQABCAAIQABCAAIQABCAAAAAAAAAAA==

> <PUBCHEM_IUPAC_OPENEYE_NAME>
5-hydroxy-2-(2-hydroxy-6-methoxy-phenyl)-6,7,8-trimethoxy-chromen-4-one

> <PUBCHEM_IUPAC_CAS_NAME>
5-hydroxy-2-(2-hydroxy-6-methoxyphenyl)-6,7,8-trimethoxy-1-benzopyran-4-one

> <PUBCHEM_IUPAC_NAME>
5-hydroxy-2-(2-hydroxy-6-methoxyphenyl)-6,7,8-trimethoxychromen-4-one

> <PUBCHEM_IUPAC_SYSTEMATIC_NAME>
6,7,8-trimethoxy-2-(2-methoxy-6-oxidanyl-phenyl)-5-oxidanyl-chromen-4-one

> <PUBCHEM_IUPAC_TRADITIONAL_NAME>
5-hydroxy-2-(2-hydroxy-6-methoxy-phenyl)-6,7,8-trimethoxy-chromone

> <PUBCHEM_IUPAC_INCHI>
InChI=1S/C19H18O8/c1-23-11-7-5-6-9(20)13(11)12-8-10(21)14-15(22)17(24-2)19(26-4)18(25-3)16(14)27-12/h5-8,20,22H,1-4H3

> <PUBCHEM_IUPAC_INCHIKEY>
GMQFOKBGMKVUQZ-UHFFFAOYSA-N

> <PUBCHEM_XLOGP3_AA>
2.9

> <PUBCHEM_EXACT_MASS>
374.100168

> <PUBCHEM_MOLECULAR_FORMULA>
C19H18O8

> <PUBCHEM_MOLECULAR_WEIGHT>
374.34142

> <PUBCHEM_OPENEYE_CAN_SMILES>
COC1=CC=CC(=C1C2=CC(=O)C3=C(O2)C(=C(C(=C3O)OC)OC)OC)O

> <PUBCHEM_OPENEYE_ISO_SMILES>
COC1=CC=CC(=C1C2=CC(=O)C3=C(O2)C(=C(C(=C3O)OC)OC)OC)O

> <PUBCHEM_CACTVS_TPSA>
104

> <PUBCHEM_MONOISOTOPIC_WEIGHT>
374.100168

> <PUBCHEM_TOTAL_CHARGE>
0

> <PUBCHEM_HEAVY_ATOM_COUNT>
27

> <PUBCHEM_ATOM_DEF_STEREO_COUNT>
0

> <PUBCHEM_ATOM_UDEF_STEREO_COUNT>
0

> <PUBCHEM_BOND_DEF_STEREO_COUNT>
0

> <PUBCHEM_BOND_UDEF_STEREO_COUNT>
0

> <PUBCHEM_ISOTOPIC_ATOM_COUNT>
0

> <PUBCHEM_COMPONENT_COUNT>
1

> <PUBCHEM_CACTVS_TAUTO_COUNT>
22

> <PUBCHEM_COORDINATE_TYPE>
1
5
255

> <PUBCHEM_BONDANNOTATIONS>
1  10  8
1  12  8
10  11  8
11  14  8
12  18  8
13  16  8
14  16  8
15  18  8
17  19  8
17  20  8
19  21  8
20  22  8
21  23  8
22  23  8
9  10  8
9  13  8
9  15  8

$$$$

