6173
  -OEChem-06261201092D

 59 60  0     1  0  0  0  0  0999 V2000
    7.6290    0.8660    0.0000 S   0  0  0  0  0  0  0  0  0  0  0  0
    8.4951    1.3660    0.0000 O   0  0  0  0  0  0  0  0  0  0  0  0
    6.7630    0.3660    0.0000 O   0  0  0  0  0  0  0  0  0  0  0  0
    7.1290    1.7320    0.0000 O   0  0  0  0  0  0  0  0  0  0  0  0
    8.1290    0.0000    0.0000 O   0  0  0  0  0  0  0  0  0  0  0  0
    1.5407    6.0738    0.0000 N   0  0  3  0  0  0  0  0  0  0  0  0
    7.2934    7.9398    0.0000 N   0  0  3  0  0  0  0  0  0  0  0  0
    3.2158    2.9860    0.0000 N   0  0  0  0  0  0  0  0  0  0  0  0
    8.9684    4.8520    0.0000 N   0  0  0  0  0  0  0  0  0  0  0  0
    2.3497    5.4860    0.0000 C   0  0  3  0  0  0  0  0  0  0  0  0
    8.1024    7.3520    0.0000 C   0  0  3  0  0  0  0  0  0  0  0  0
    3.1587    6.0738    0.0000 C   0  0  0  0  0  0  0  0  0  0  0  0
    8.9114    7.9398    0.0000 C   0  0  0  0  0  0  0  0  0  0  0  0
    2.8497    7.0249    0.0000 C   0  0  0  0  0  0  0  0  0  0  0  0
    8.6024    8.8909    0.0000 C   0  0  0  0  0  0  0  0  0  0  0  0
    1.8497    7.0249    0.0000 C   0  0  0  0  0  0  0  0  0  0  0  0
    7.6024    8.8909    0.0000 C   0  0  0  0  0  0  0  0  0  0  0  0
    8.1024    6.3520    0.0000 C   0  0  0  0  0  0  0  0  0  0  0  0
    2.3497    4.4860    0.0000 C   0  0  0  0  0  0  0  0  0  0  0  0
    6.3423    7.6308    0.0000 C   0  0  0  0  0  0  0  0  0  0  0  0
    0.5897    5.7648    0.0000 C   0  0  0  0  0  0  0  0  0  0  0  0
    1.4837    3.9860    0.0000 C   0  0  0  0  0  0  0  0  0  0  0  0
    7.2364    5.8520    0.0000 C   0  0  0  0  0  0  0  0  0  0  0  0
    8.9684    5.8520    0.0000 C   0  0  0  0  0  0  0  0  0  0  0  0
    3.2158    3.9860    0.0000 C   0  0  0  0  0  0  0  0  0  0  0  0
    1.4837    2.9860    0.0000 C   0  0  0  0  0  0  0  0  0  0  0  0
    7.2364    4.8520    0.0000 C   0  0  0  0  0  0  0  0  0  0  0  0
    2.3497    2.4860    0.0000 C   0  0  0  0  0  0  0  0  0  0  0  0
    8.1024    4.3520    0.0000 C   0  0  0  0  0  0  0  0  0  0  0  0
    2.9021    5.2046    0.0000 H   0  0  0  0  0  0  0  0  0  0  0  0
    8.6548    7.0706    0.0000 H   0  0  0  0  0  0  0  0  0  0  0  0
    3.4688    5.5369    0.0000 H   0  0  0  0  0  0  0  0  0  0  0  0
    3.7251    6.3260    0.0000 H   0  0  0  0  0  0  0  0  0  0  0  0
    9.2214    7.4029    0.0000 H   0  0  0  0  0  0  0  0  0  0  0  0
    9.4778    8.1920    0.0000 H   0  0  0  0  0  0  0  0  0  0  0  0
    3.4562    7.1538    0.0000 H   0  0  0  0  0  0  0  0  0  0  0  0
    2.7849    7.6415    0.0000 H   0  0  0  0  0  0  0  0  0  0  0  0
    9.2089    9.0198    0.0000 H   0  0  0  0  0  0  0  0  0  0  0  0
    8.5376    9.5075    0.0000 H   0  0  0  0  0  0  0  0  0  0  0  0
    1.9145    7.6415    0.0000 H   0  0  0  0  0  0  0  0  0  0  0  0
    1.2433    7.1538    0.0000 H   0  0  0  0  0  0  0  0  0  0  0  0
    7.6672    9.5075    0.0000 H   0  0  0  0  0  0  0  0  0  0  0  0
    6.9960    9.0198    0.0000 H   0  0  0  0  0  0  0  0  0  0  0  0
    6.1508    8.2205    0.0000 H   0  0  0  0  0  0  0  0  0  0  0  0
    5.7527    7.4392    0.0000 H   0  0  0  0  0  0  0  0  0  0  0  0
    0.3981    6.3544    0.0000 H   0  0  0  0  0  0  0  0  0  0  0  0
    6.5339    7.0412    0.0000 H   0  0  0  0  0  0  0  0  0  0  0  0
    0.0000    5.5732    0.0000 H   0  0  0  0  0  0  0  0  0  0  0  0
    0.7812    5.1751    0.0000 H   0  0  0  0  0  0  0  0  0  0  0  0
    0.9468    4.2960    0.0000 H   0  0  0  0  0  0  0  0  0  0  0  0
    6.6995    6.1620    0.0000 H   0  0  0  0  0  0  0  0  0  0  0  0
    3.7527    4.2960    0.0000 H   0  0  0  0  0  0  0  0  0  0  0  0
    9.5054    6.1620    0.0000 H   0  0  0  0  0  0  0  0  0  0  0  0
    6.6995    4.5420    0.0000 H   0  0  0  0  0  0  0  0  0  0  0  0
    0.9468    2.6760    0.0000 H   0  0  0  0  0  0  0  0  0  0  0  0
    2.3497    1.8660    0.0000 H   0  0  0  0  0  0  0  0  0  0  0  0
    8.1024    3.7320    0.0000 H   0  0  0  0  0  0  0  0  0  0  0  0
    9.0320    1.0560    0.0000 H   0  0  0  0  0  0  0  0  0  0  0  0
    6.2261    0.6760    0.0000 H   0  0  0  0  0  0  0  0  0  0  0  0
  1  2  1  0  0  0  0
  1  3  1  0  0  0  0
  1  4  2  0  0  0  0
  1  5  2  0  0  0  0
  2 58  1  0  0  0  0
  3 59  1  0  0  0  0
  6 10  1  0  0  0  0
  6 16  1  0  0  0  0
  6 21  1  0  0  0  0
  7 11  1  0  0  0  0
  7 17  1  0  0  0  0
  7 20  1  0  0  0  0
  8 25  1  0  0  0  0
  8 28  2  0  0  0  0
  9 24  1  0  0  0  0
  9 29  2  0  0  0  0
 10 12  1  0  0  0  0
 10 19  1  0  0  0  0
 10 30  1  0  0  0  0
 11 13  1  0  0  0  0
 11 18  1  0  0  0  0
 11 31  1  0  0  0  0
 12 14  1  0  0  0  0
 12 32  1  0  0  0  0
 12 33  1  0  0  0  0
 13 15  1  0  0  0  0
 13 34  1  0  0  0  0
 13 35  1  0  0  0  0
 14 16  1  0  0  0  0
 14 36  1  0  0  0  0
 14 37  1  0  0  0  0
 15 17  1  0  0  0  0
 15 38  1  0  0  0  0
 15 39  1  0  0  0  0
 16 40  1  0  0  0  0
 16 41  1  0  0  0  0
 17 42  1  0  0  0  0
 17 43  1  0  0  0  0
 18 23  1  0  0  0  0
 18 24  2  0  0  0  0
 19 22  1  0  0  0  0
 19 25  2  0  0  0  0
 20 44  1  0  0  0  0
 20 45  1  0  0  0  0
 20 47  1  0  0  0  0
 21 46  1  0  0  0  0
 21 48  1  0  0  0  0
 21 49  1  0  0  0  0
 22 26  2  0  0  0  0
 22 50  1  0  0  0  0
 23 27  2  0  0  0  0
 23 51  1  0  0  0  0
 24 53  1  0  0  0  0
 25 52  1  0  0  0  0
 26 28  1  0  0  0  0
 26 55  1  0  0  0  0
 27 29  1  0  0  0  0
 27 54  1  0  0  0  0
 28 56  1  0  0  0  0
 29 57  1  0  0  0  0
M  END
> <PUBCHEM_COMPOUND_CID>
6173

> <PUBCHEM_COMPOUND_CANONICALIZED>
1

> <PUBCHEM_CACTVS_COMPLEXITY>
228

> <PUBCHEM_CACTVS_HBOND_ACCEPTOR>
8

> <PUBCHEM_CACTVS_HBOND_DONOR>
2

> <PUBCHEM_CACTVS_ROTATABLE_BOND>
2

> <PUBCHEM_CACTVS_SUBSKEYS>
AAADceB7uABAAAAAAAAAAAAAAAAAAWLAAAAsWAAAAAAAAAAB4AAAHAAACAAADCjBGgQ+gJMIEICgAjBnRDCCgCAxAiAI2CA4ZJgIIOLA0ZGEIAhggADIyAcQgIAOAAAAAAAAAAAAAAAAAAAAAAAAAAAAAA==

> <PUBCHEM_IUPAC_OPENEYE_NAME>
3-(1-methylpyrrolidin-2-yl)pyridine; sulfuric acid

> <PUBCHEM_IUPAC_CAS_NAME>
3-(1-methyl-2-pyrrolidinyl)pyridine; sulfuric acid

> <PUBCHEM_IUPAC_NAME>
3-(1-methylpyrrolidin-2-yl)pyridine; sulfuric acid

> <PUBCHEM_IUPAC_SYSTEMATIC_NAME>
3-(1-methylpyrrolidin-2-yl)pyridine; sulfuric acid

> <PUBCHEM_IUPAC_TRADITIONAL_NAME>
nicotine; sulfuric acid

> <PUBCHEM_IUPAC_INCHI>
InChI=1S/2C10H14N2.H2O4S/c2*1-12-7-3-5-10(12)9-4-2-6-11-8-9;1-5(2,3)4/h2*2,4,6,8,10H,3,5,7H2,1H3;(H2,1,2,3,4)

> <PUBCHEM_IUPAC_INCHIKEY>
IECQULMJVNSKDB-UHFFFAOYSA-N

> <PUBCHEM_EXACT_MASS>
422.198776

> <PUBCHEM_MOLECULAR_FORMULA>
C20H30N4O4S

> <PUBCHEM_MOLECULAR_WEIGHT>
422.5416

> <PUBCHEM_OPENEYE_CAN_SMILES>
CN1CCCC1C2=CN=CC=C2.CN1CCCC1C2=CN=CC=C2.OS(=O)(=O)O

> <PUBCHEM_OPENEYE_ISO_SMILES>
CN1CCCC1C2=CN=CC=C2.CN1CCCC1C2=CN=CC=C2.OS(=O)(=O)O

> <PUBCHEM_CACTVS_TPSA>
115

> <PUBCHEM_MONOISOTOPIC_WEIGHT>
422.198776

> <PUBCHEM_TOTAL_CHARGE>
0

> <PUBCHEM_HEAVY_ATOM_COUNT>
29

> <PUBCHEM_ATOM_DEF_STEREO_COUNT>
0

> <PUBCHEM_ATOM_UDEF_STEREO_COUNT>
2

> <PUBCHEM_BOND_DEF_STEREO_COUNT>
0

> <PUBCHEM_BOND_UDEF_STEREO_COUNT>
0

> <PUBCHEM_ISOTOPIC_ATOM_COUNT>
0

> <PUBCHEM_COMPONENT_COUNT>
3

> <PUBCHEM_CACTVS_TAUTO_COUNT>
1

> <PUBCHEM_COORDINATE_TYPE>
1
5
255

> <PUBCHEM_BONDANNOTATIONS>
10  19  3
11  18  3
18  23  8
18  24  8
19  22  8
19  25  8
22  26  8
23  27  8
26  28  8
27  29  8
8  25  8
8  28  8
9  24  8
9  29  8

$$$$

