13187055
  -OEChem-07051213113D

 58 59  0     1  0  0  0  0  0999 V2000
   -0.0098   -0.6853   -0.5600 O   0  0  0  0  0  0  0  0  0  0  0  0
   -1.7833   -0.6672    1.0075 O   0  0  0  0  0  0  0  0  0  0  0  0
    4.2641    0.7476   -1.5364 O   0  0  0  0  0  0  0  0  0  0  0  0
    2.0048   -2.0899    0.8695 O   0  0  0  0  0  0  0  0  0  0  0  0
    3.5210   -0.0087    2.0091 N   0  0  0  0  0  0  0  0  0  0  0  0
    0.2230    2.2058   -0.5655 N   0  0  0  0  0  0  0  0  0  0  0  0
   -0.3731   -3.4987   -0.9547 N   0  0  0  0  0  0  0  0  0  0  0  0
   -4.8109    1.1885    0.0278 N   0  0  0  0  0  0  0  0  0  0  0  0
    1.0789   -0.0090    0.0769 C   0  0  1  0  0  0  0  0  0  0  0  0
    3.5868   -0.2635    0.5649 C   0  0  1  0  0  0  0  0  0  0  0  0
    2.2964   -0.9431    0.0680 C   0  0  1  0  0  0  0  0  0  0  0  0
    1.3604    1.2885   -0.6971 C   0  0  2  0  0  0  0  0  0  0  0  0
    3.8561    1.0432   -0.2000 C   0  0  2  0  0  0  0  0  0  0  0  0
    2.6450    1.9836   -0.2207 C   0  0  0  0  0  0  0  0  0  0  0  0
   -0.7611   -1.4508    0.3798 C   0  0  1  0  0  0  0  0  0  0  0  0
   -1.3866   -2.6809   -0.2939 C   0  0  1  0  0  0  0  0  0  0  0  0
   -2.4653   -2.2601   -1.2954 C   0  0  0  0  0  0  0  0  0  0  0  0
   -2.7757   -0.1852    0.0942 C   0  0  1  0  0  0  0  0  0  0  0  0
   -3.4788   -1.3481   -0.6089 C   0  0  0  0  0  0  0  0  0  0  0  0
   -3.7687    0.6507    0.8910 C   0  0  0  0  0  0  0  0  0  0  0  0
    4.7771    0.5424    2.4868 C   0  0  0  0  0  0  0  0  0  0  0  0
    4.6257    1.9271   -2.2354 C   0  0  0  0  0  0  0  0  0  0  0  0
   -5.7651    1.9792    0.7934 C   0  0  0  0  0  0  0  0  0  0  0  0
   -6.8611    2.5338   -0.1007 C   0  0  0  0  0  0  0  0  0  0  0  0
    0.8000    0.2445    1.1099 H   0  0  0  0  0  0  0  0  0  0  0  0
    4.4043   -0.9739    0.3802 H   0  0  0  0  0  0  0  0  0  0  0  0
    2.4495   -1.3165   -0.9528 H   0  0  0  0  0  0  0  0  0  0  0  0
    1.4600    1.0511   -1.7643 H   0  0  0  0  0  0  0  0  0  0  0  0
    4.7018    1.5769    0.2435 H   0  0  0  0  0  0  0  0  0  0  0  0
    2.4836    2.3532    0.8016 H   0  0  0  0  0  0  0  0  0  0  0  0
    2.8196    2.8836   -0.8188 H   0  0  0  0  0  0  0  0  0  0  0  0
   -0.1478   -1.8104    1.2082 H   0  0  0  0  0  0  0  0  0  0  0  0
   -1.8726   -3.2870    0.4821 H   0  0  0  0  0  0  0  0  0  0  0  0
   -2.0171   -1.7307   -2.1462 H   0  0  0  0  0  0  0  0  0  0  0  0
   -2.9791   -3.1402   -1.7008 H   0  0  0  0  0  0  0  0  0  0  0  0
    2.7569    0.6244    2.2368 H   0  0  0  0  0  0  0  0  0  0  0  0
   -2.2901    0.4538   -0.6522 H   0  0  0  0  0  0  0  0  0  0  0  0
   -4.0343   -1.9439    0.1271 H   0  0  0  0  0  0  0  0  0  0  0  0
   -4.1989   -0.9908   -1.3529 H   0  0  0  0  0  0  0  0  0  0  0  0
    0.4060    3.0556   -1.0979 H   0  0  0  0  0  0  0  0  0  0  0  0
   -0.6037    1.7817   -0.9822 H   0  0  0  0  0  0  0  0  0  0  0  0
    2.7836   -2.6714    0.8412 H   0  0  0  0  0  0  0  0  0  0  0  0
   -3.2265    1.4618    1.3942 H   0  0  0  0  0  0  0  0  0  0  0  0
   -4.2063    0.0336    1.6867 H   0  0  0  0  0  0  0  0  0  0  0  0
    4.8125    0.4255    3.5754 H   0  0  0  0  0  0  0  0  0  0  0  0
    5.6502    0.0158    2.0869 H   0  0  0  0  0  0  0  0  0  0  0  0
    4.8696    1.6154    2.2949 H   0  0  0  0  0  0  0  0  0  0  0  0
   -0.8044   -4.3395   -1.3363 H   0  0  0  0  0  0  0  0  0  0  0  0
    0.3152   -3.8107   -0.2710 H   0  0  0  0  0  0  0  0  0  0  0  0
    5.2594    1.6294   -3.0767 H   0  0  0  0  0  0  0  0  0  0  0  0
    5.2010    2.6254   -1.6189 H   0  0  0  0  0  0  0  0  0  0  0  0
    3.7446    2.4133   -2.6632 H   0  0  0  0  0  0  0  0  0  0  0  0
   -4.3928    1.7634   -0.7033 H   0  0  0  0  0  0  0  0  0  0  0  0
   -5.2578    2.8150    1.2898 H   0  0  0  0  0  0  0  0  0  0  0  0
   -6.2302    1.3608    1.5700 H   0  0  0  0  0  0  0  0  0  0  0  0
   -6.4474    3.1900   -0.8739 H   0  0  0  0  0  0  0  0  0  0  0  0
   -7.4134    1.7274   -0.5950 H   0  0  0  0  0  0  0  0  0  0  0  0
   -7.5735    3.1174    0.4913 H   0  0  0  0  0  0  0  0  0  0  0  0
  1  9  1  0  0  0  0
  1 15  1  0  0  0  0
  2 15  1  0  0  0  0
  2 18  1  0  0  0  0
  3 13  1  0  0  0  0
  3 22  1  0  0  0  0
  4 11  1  0  0  0  0
  4 42  1  0  0  0  0
  5 10  1  0  0  0  0
  5 21  1  0  0  0  0
  5 36  1  0  0  0  0
  6 12  1  0  0  0  0
  6 40  1  0  0  0  0
  6 41  1  0  0  0  0
  7 16  1  0  0  0  0
  7 48  1  0  0  0  0
  7 49  1  0  0  0  0
  8 20  1  0  0  0  0
  8 23  1  0  0  0  0
  8 53  1  0  0  0  0
  9 11  1  0  0  0  0
  9 12  1  0  0  0  0
  9 25  1  0  0  0  0
 10 11  1  0  0  0  0
 10 13  1  0  0  0  0
 10 26  1  0  0  0  0
 11 27  1  0  0  0  0
 12 14  1  0  0  0  0
 12 28  1  0  0  0  0
 13 14  1  0  0  0  0
 13 29  1  0  0  0  0
 14 30  1  0  0  0  0
 14 31  1  0  0  0  0
 15 16  1  0  0  0  0
 15 32  1  0  0  0  0
 16 17  1  0  0  0  0
 16 33  1  0  0  0  0
 17 19  1  0  0  0  0
 17 34  1  0  0  0  0
 17 35  1  0  0  0  0
 18 19  1  0  0  0  0
 18 20  1  0  0  0  0
 18 37  1  0  0  0  0
 19 38  1  0  0  0  0
 19 39  1  0  0  0  0
 20 43  1  0  0  0  0
 20 44  1  0  0  0  0
 21 45  1  0  0  0  0
 21 46  1  0  0  0  0
 21 47  1  0  0  0  0
 22 50  1  0  0  0  0
 22 51  1  0  0  0  0
 22 52  1  0  0  0  0
 23 24  1  0  0  0  0
 23 54  1  0  0  0  0
 23 55  1  0  0  0  0
 24 56  1  0  0  0  0
 24 57  1  0  0  0  0
 24 58  1  0  0  0  0
M  END
> <PUBCHEM_COMPOUND_CID>
13187055

> <PUBCHEM_CONFORMER_RMSD>
1

> <PUBCHEM_CONFORMER_DIVERSEORDER>
1
8
31
14
21
13
5
32
25
6
42
38
24
40
23
43
4
26
12
20
34
36
17
30
33
19
37
41
28
16
3
11
35
9
7
2
44
45
15
22
10
18
39
29
27

> <PUBCHEM_MMFF94_PARTIAL_CHARGES>
27
1 -0.56
10 0.27
11 0.28
12 0.27
13 0.28
15 0.56
16 0.27
18 0.28
2 -0.56
20 0.27
21 0.27
22 0.28
23 0.27
3 -0.56
36 0.36
4 -0.68
40 0.36
41 0.36
42 0.4
48 0.36
49 0.36
5 -0.9
53 0.36
6 -0.99
7 -0.99
8 -0.9
9 0.28

> <PUBCHEM_EFFECTIVE_ROTOR_COUNT>
9.4

> <PUBCHEM_PHARMACOPHORE_FEATURES>
15
1 1 acceptor
1 2 acceptor
1 3 acceptor
1 4 acceptor
1 4 donor
1 5 cation
1 5 donor
1 6 cation
1 6 donor
1 7 cation
1 7 donor
1 8 cation
1 8 donor
6 2 15 16 17 18 19 rings
6 9 10 11 12 13 14 rings

> <PUBCHEM_HEAVY_ATOM_COUNT>
24

> <PUBCHEM_ATOM_DEF_STEREO_COUNT>
8

> <PUBCHEM_ATOM_UDEF_STEREO_COUNT>
0

> <PUBCHEM_BOND_DEF_STEREO_COUNT>
0

> <PUBCHEM_BOND_UDEF_STEREO_COUNT>
0

> <PUBCHEM_ISOTOPIC_ATOM_COUNT>
0

> <PUBCHEM_COMPONENT_COUNT>
1

> <PUBCHEM_CACTVS_TAUTO_COUNT>
1

> <PUBCHEM_CONFORMER_ID>
00C937EF00000001

> <PUBCHEM_MMFF94_ENERGY>
43.6452

> <PUBCHEM_FEATURE_SELFOVERLAP>
76.159

> <PUBCHEM_SHAPE_FINGERPRINT>
10411042 1 17257086494773063111
12403259 118 18342458132516222595
12403259 415 17531520984322346603
12422481 6 17987239013825690029
12596602 18 16917058963318205641
12633257 1 17704081689265336546
12788726 201 17982170015792364587
14178342 30 18191883231738655866
14251764 30 12319455532447058465
14294032 229 18261380119673204659
14790565 3 18271231729860560788
15238133 3 18411703175488929264
1601671 61 18411975854330367660
16752209 62 18115026277618643447
19078846 21 18269562654551440408
20715895 44 18264491861791270017
21033648 29 18186802452571912625
212916 134 18187656803282293595
21421861 104 17846506971556991208
21864079 5 18267862779140921048
23557571 272 17386852707659411050
23559900 14 17531235133417552364
268830 7 17703796877273044732
34797466 226 16009039380178689969
34934 24 18343577417619852860
5104073 3 17988929916084106144
513532 50 17604148232868382580
633830 44 18131066013658914302
7064713 232 18335432252449927200
7832392 63 18338796706565225476

> <PUBCHEM_SHAPE_MULTIPOLES>
450.51
12.25
3.18
1.64
12.01
1.35
0.29
-11.36
1.45
2.88
-1.07
-2.82
-0.37
-1.96

> <PUBCHEM_SHAPE_SELFOVERLAP>
895.898

> <PUBCHEM_SHAPE_VOLUME>
264.8

> <PUBCHEM_COORDINATE_TYPE>
2
5
10

$$$$

