168115
  -OEChem-07051213103D

 59 59  0     1  0  0  0  0  0999 V2000
   -3.1003   -3.5729   -0.6254 O   0  0  0  0  0  0  0  0  0  0  0  0
   -3.9399   -0.6560   -0.4114 O   0  0  0  0  0  0  0  0  0  0  0  0
   -0.6322    1.6434    2.7972 O   0  0  0  0  0  0  0  0  0  0  0  0
    1.6856    2.7198    1.7035 O   0  0  0  0  0  0  0  0  0  0  0  0
    1.5737   -3.4310    0.8860 C   0  0  0  0  0  0  0  0  0  0  0  0
    0.2623   -2.6518    0.7609 C   0  0  0  0  0  0  0  0  0  0  0  0
    2.6289   -2.7139    1.7336 C   0  0  0  0  0  0  0  0  0  0  0  0
   -0.7684   -3.4327   -0.0635 C   0  0  0  0  0  0  0  0  0  0  0  0
    3.0809   -1.3445    1.2154 C   0  0  0  0  0  0  0  0  0  0  0  0
   -2.0781   -2.6548   -0.2395 C   0  0  1  0  0  0  0  0  0  0  0  0
    3.6498   -1.3280   -0.2071 C   0  0  0  0  0  0  0  0  0  0  0  0
   -1.9316   -1.5862   -1.3223 C   0  0  0  0  0  0  0  0  0  0  0  0
    4.0085    0.0769   -0.6979 C   0  0  0  0  0  0  0  0  0  0  0  0
   -3.0219   -0.5343   -1.2228 C   0  0  0  0  0  0  0  0  0  0  0  0
    4.6506    0.0835   -2.0875 C   0  0  0  0  0  0  0  0  0  0  0  0
   -2.9547    0.6256   -2.2052 C   0  0  0  0  0  0  0  0  0  0  0  0
   -2.9090    1.9944   -1.5242 C   0  0  0  0  0  0  0  0  0  0  0  0
    4.9873    1.4783   -2.5923 C   0  0  0  0  0  0  0  0  0  0  0  0
   -1.6858    2.1868   -0.6606 C   0  0  0  0  0  0  0  0  0  0  0  0
   -1.7185    1.8242    0.6859 C   0  0  0  0  0  0  0  0  0  0  0  0
   -0.5228    2.7269   -1.2095 C   0  0  0  0  0  0  0  0  0  0  0  0
   -0.5880    2.0016    1.4836 C   0  0  0  0  0  0  0  0  0  0  0  0
    0.6076    2.9045   -0.4117 C   0  0  0  0  0  0  0  0  0  0  0  0
    0.5750    2.5418    0.9349 C   0  0  0  0  0  0  0  0  0  0  0  0
   -1.8589    1.0987    3.2797 C   0  0  0  0  0  0  0  0  0  0  0  0
    1.3666   -4.4027    1.3520 H   0  0  0  0  0  0  0  0  0  0  0  0
    1.9762   -3.6502   -0.1093 H   0  0  0  0  0  0  0  0  0  0  0  0
   -0.1424   -2.4500    1.7600 H   0  0  0  0  0  0  0  0  0  0  0  0
    0.4566   -1.6838    0.2902 H   0  0  0  0  0  0  0  0  0  0  0  0
    2.2459   -2.5919    2.7543 H   0  0  0  0  0  0  0  0  0  0  0  0
    3.5083   -3.3656    1.8096 H   0  0  0  0  0  0  0  0  0  0  0  0
   -0.3546   -3.7001   -1.0442 H   0  0  0  0  0  0  0  0  0  0  0  0
   -0.9804   -4.3851    0.4397 H   0  0  0  0  0  0  0  0  0  0  0  0
    2.2420   -0.6409    1.2763 H   0  0  0  0  0  0  0  0  0  0  0  0
    3.8448   -0.9569    1.9016 H   0  0  0  0  0  0  0  0  0  0  0  0
   -2.3789   -2.2233    0.7216 H   0  0  0  0  0  0  0  0  0  0  0  0
    2.9219   -1.7556   -0.9055 H   0  0  0  0  0  0  0  0  0  0  0  0
    4.5399   -1.9678   -0.2423 H   0  0  0  0  0  0  0  0  0  0  0  0
   -0.9806   -1.0534   -1.2286 H   0  0  0  0  0  0  0  0  0  0  0  0
   -1.9934   -2.0313   -2.3217 H   0  0  0  0  0  0  0  0  0  0  0  0
    4.6973    0.5445    0.0164 H   0  0  0  0  0  0  0  0  0  0  0  0
    3.1022    0.6943   -0.7145 H   0  0  0  0  0  0  0  0  0  0  0  0
    3.9720   -0.3963   -2.8028 H   0  0  0  0  0  0  0  0  0  0  0  0
    5.5677   -0.5172   -2.0671 H   0  0  0  0  0  0  0  0  0  0  0  0
   -2.0742    0.4958   -2.8456 H   0  0  0  0  0  0  0  0  0  0  0  0
   -3.8338    0.5545   -2.8556 H   0  0  0  0  0  0  0  0  0  0  0  0
   -3.8093    2.1388   -0.9130 H   0  0  0  0  0  0  0  0  0  0  0  0
   -2.9411    2.7806   -2.2891 H   0  0  0  0  0  0  0  0  0  0  0  0
   -2.8195   -4.0054   -1.4499 H   0  0  0  0  0  0  0  0  0  0  0  0
    5.6942    1.9758   -1.9209 H   0  0  0  0  0  0  0  0  0  0  0  0
    4.0861    2.0958   -2.6610 H   0  0  0  0  0  0  0  0  0  0  0  0
    5.4410    1.4241   -3.5867 H   0  0  0  0  0  0  0  0  0  0  0  0
   -2.6507    1.4159    1.0606 H   0  0  0  0  0  0  0  0  0  0  0  0
   -0.4844    3.0106   -2.2578 H   0  0  0  0  0  0  0  0  0  0  0  0
    1.5078    3.3245   -0.8524 H   0  0  0  0  0  0  0  0  0  0  0  0
    2.3949    3.0938    1.1530 H   0  0  0  0  0  0  0  0  0  0  0  0
   -1.7137    0.8684    4.3404 H   0  0  0  0  0  0  0  0  0  0  0  0
   -2.1050    0.1547    2.7812 H   0  0  0  0  0  0  0  0  0  0  0  0
   -2.6748    1.8272    3.2220 H   0  0  0  0  0  0  0  0  0  0  0  0
  1 10  1  0  0  0  0
  1 49  1  0  0  0  0
  2 14  2  0  0  0  0
  3 22  1  0  0  0  0
  3 25  1  0  0  0  0
  4 24  1  0  0  0  0
  4 56  1  0  0  0  0
  5  6  1  0  0  0  0
  5  7  1  0  0  0  0
  5 26  1  0  0  0  0
  5 27  1  0  0  0  0
  6  8  1  0  0  0  0
  6 28  1  0  0  0  0
  6 29  1  0  0  0  0
  7  9  1  0  0  0  0
  7 30  1  0  0  0  0
  7 31  1  0  0  0  0
  8 10  1  0  0  0  0
  8 32  1  0  0  0  0
  8 33  1  0  0  0  0
  9 11  1  0  0  0  0
  9 34  1  0  0  0  0
  9 35  1  0  0  0  0
 10 12  1  0  0  0  0
 10 36  1  0  0  0  0
 11 13  1  0  0  0  0
 11 37  1  0  0  0  0
 11 38  1  0  0  0  0
 12 14  1  0  0  0  0
 12 39  1  0  0  0  0
 12 40  1  0  0  0  0
 13 15  1  0  0  0  0
 13 41  1  0  0  0  0
 13 42  1  0  0  0  0
 14 16  1  0  0  0  0
 15 18  1  0  0  0  0
 15 43  1  0  0  0  0
 15 44  1  0  0  0  0
 16 17  1  0  0  0  0
 16 45  1  0  0  0  0
 16 46  1  0  0  0  0
 17 19  1  0  0  0  0
 17 47  1  0  0  0  0
 17 48  1  0  0  0  0
 18 50  1  0  0  0  0
 18 51  1  0  0  0  0
 18 52  1  0  0  0  0
 19 20  2  0  0  0  0
 19 21  1  0  0  0  0
 20 22  1  0  0  0  0
 20 53  1  0  0  0  0
 21 23  2  0  0  0  0
 21 54  1  0  0  0  0
 22 24  2  0  0  0  0
 23 24  1  0  0  0  0
 23 55  1  0  0  0  0
 25 57  1  0  0  0  0
 25 58  1  0  0  0  0
 25 59  1  0  0  0  0
M  END
> <PUBCHEM_COMPOUND_CID>
168115

> <PUBCHEM_CONFORMER_RMSD>
1.6

> <PUBCHEM_CONFORMER_DIVERSEORDER>
4
64
56
1
66
33
22
41
35
51
53
45
28
15
26
37
69
72
21
70
3
81
7
62
73
8
10
25
48
76
54
20
49
12
58
79
57
16
9
27
36
68
75
65
23
46
40
31
61
60
44
38
63
59
74
77
71
14
55
11
17
42
13
67
18
39
47
32
34
24
78
80
19
2
30
50
5
29
52
6
43

> <PUBCHEM_MMFF94_PARTIAL_CHARGES>
21
1 -0.68
10 0.28
12 0.06
14 0.45
16 0.06
17 0.14
19 -0.14
2 -0.57
20 -0.15
21 -0.15
22 0.08
23 -0.15
24 0.08
25 0.28
3 -0.36
4 -0.53
49 0.4
53 0.15
54 0.15
55 0.15
56 0.45

> <PUBCHEM_EFFECTIVE_ROTOR_COUNT>
14

> <PUBCHEM_PHARMACOPHORE_FEATURES>
7
1 1 acceptor
1 1 donor
1 18 hydrophobe
1 2 acceptor
1 3 acceptor
1 4 donor
6 19 20 21 22 23 24 rings

> <PUBCHEM_HEAVY_ATOM_COUNT>
25

> <PUBCHEM_ATOM_DEF_STEREO_COUNT>
1

> <PUBCHEM_ATOM_UDEF_STEREO_COUNT>
0

> <PUBCHEM_BOND_DEF_STEREO_COUNT>
0

> <PUBCHEM_BOND_UDEF_STEREO_COUNT>
0

> <PUBCHEM_ISOTOPIC_ATOM_COUNT>
0

> <PUBCHEM_COMPONENT_COUNT>
1

> <PUBCHEM_CACTVS_TAUTO_COUNT>
9

> <PUBCHEM_CONFORMER_ID>
000290B300000004

> <PUBCHEM_MMFF94_ENERGY>
41.3641

> <PUBCHEM_FEATURE_SELFOVERLAP>
35.521

> <PUBCHEM_SHAPE_FINGERPRINT>
10708813 3 17040654244540572718
12539773 59 15081622512906102033
13122387 1 18194989390235199059
13617811 41 17987256481537032509
14251740 79 18269255916719539654
14932702 115 18337123331387849933
19930381 70 15164622558322575433
20531524 4 18051707542416739440
20764821 26 17981917166666465246
22749437 52 17254583988447374083
238918 7 17180258703886529416
35225 105 16445587423306325897
469060 322 17487308496583117402

> <PUBCHEM_SHAPE_MULTIPOLES>
491.01
7.35
5.21
2.79
8.01
3
-1.34
-0.17
5.11
-0.49
-0.34
-0.01
-1.59
-2.53

> <PUBCHEM_SHAPE_SELFOVERLAP>
965.109

> <PUBCHEM_SHAPE_VOLUME>
293.9

> <PUBCHEM_COORDINATE_TYPE>
2
5
10

$$$$

