56928097
  -OEChem-07051213103D

 42 42  0     1  0  0  0  0  0999 V2000
    4.0355    1.9374    0.8054 Br  0  0  0  0  0  0  0  0  0  0  0  0
   -4.1108   -1.0473   -0.3053 O   0  0  0  0  0  0  0  0  0  0  0  0
    2.0285    0.4678   -0.7811 C   0  0  0  0  0  0  0  0  0  0  0  0
    0.7468   -0.4507   -0.7599 C   0  0  2  0  0  0  0  0  0  0  0  0
    2.3985    0.8559    0.6830 C   0  0  1  0  0  0  0  0  0  0  0  0
   -0.5591    0.2842   -0.4148 C   0  0  0  0  0  0  0  0  0  0  0  0
    0.9358   -1.6164    0.1989 C   0  0  0  0  0  0  0  0  0  0  0  0
    2.5641   -0.3492    1.6170 C   0  0  0  0  0  0  0  0  0  0  0  0
    1.3348   -1.2558    1.6055 C   0  0  0  0  0  0  0  0  0  0  0  0
    1.7532    1.7310   -1.6290 C   0  0  0  0  0  0  0  0  0  0  0  0
    3.1678   -0.3160   -1.4868 C   0  0  0  0  0  0  0  0  0  0  0  0
   -1.7501   -0.6666   -0.4970 C   0  0  0  0  0  0  0  0  0  0  0  0
   -3.1239   -0.0038   -0.2370 C   0  0  1  0  0  0  0  0  0  0  0  0
    0.7833   -2.8919   -0.1895 C   0  0  0  0  0  0  0  0  0  0  0  0
   -3.4751    1.0063   -1.3379 C   0  0  0  0  0  0  0  0  0  0  0  0
   -3.1984    0.5378    1.1738 C   0  0  0  0  0  0  0  0  0  0  0  0
   -3.5308    1.7774    1.5547 C   0  0  0  0  0  0  0  0  0  0  0  0
    0.6198   -0.8464   -1.7790 H   0  0  0  0  0  0  0  0  0  0  0  0
    1.6293    1.5193    1.0960 H   0  0  0  0  0  0  0  0  0  0  0  0
   -0.5041    0.7448    0.5769 H   0  0  0  0  0  0  0  0  0  0  0  0
   -0.7175    1.0949   -1.1316 H   0  0  0  0  0  0  0  0  0  0  0  0
    2.7387   -0.0070    2.6452 H   0  0  0  0  0  0  0  0  0  0  0  0
    3.4509   -0.9339    1.3410 H   0  0  0  0  0  0  0  0  0  0  0  0
    0.4983   -0.7487    2.1010 H   0  0  0  0  0  0  0  0  0  0  0  0
    1.5475   -2.1516    2.2014 H   0  0  0  0  0  0  0  0  0  0  0  0
    2.6747    2.2798   -1.8518 H   0  0  0  0  0  0  0  0  0  0  0  0
    1.0820    2.4278   -1.1162 H   0  0  0  0  0  0  0  0  0  0  0  0
    1.3005    1.4669   -2.5917 H   0  0  0  0  0  0  0  0  0  0  0  0
    4.0654    0.2959   -1.6217 H   0  0  0  0  0  0  0  0  0  0  0  0
    2.8543   -0.6357   -2.4878 H   0  0  0  0  0  0  0  0  0  0  0  0
    3.4622   -1.2149   -0.9373 H   0  0  0  0  0  0  0  0  0  0  0  0
   -1.6448   -1.4887    0.2223 H   0  0  0  0  0  0  0  0  0  0  0  0
   -1.7708   -1.1501   -1.4836 H   0  0  0  0  0  0  0  0  0  0  0  0
    0.5058   -3.1421   -1.2079 H   0  0  0  0  0  0  0  0  0  0  0  0
    0.9311   -3.7140    0.5026 H   0  0  0  0  0  0  0  0  0  0  0  0
   -3.3961    0.5427   -2.3284 H   0  0  0  0  0  0  0  0  0  0  0  0
   -2.8279    1.8886   -1.3233 H   0  0  0  0  0  0  0  0  0  0  0  0
   -4.5154    1.3411   -1.2451 H   0  0  0  0  0  0  0  0  0  0  0  0
   -2.9658   -0.1728    1.9662 H   0  0  0  0  0  0  0  0  0  0  0  0
   -4.0695   -1.4431   -1.1928 H   0  0  0  0  0  0  0  0  0  0  0  0
   -3.5513    2.0347    2.6086 H   0  0  0  0  0  0  0  0  0  0  0  0
   -3.7862    2.5563    0.8467 H   0  0  0  0  0  0  0  0  0  0  0  0
  1  5  1  0  0  0  0
  2 13  1  0  0  0  0
  2 40  1  0  0  0  0
  3  4  1  0  0  0  0
  3  5  1  0  0  0  0
  3 10  1  0  0  0  0
  3 11  1  0  0  0  0
  4  6  1  0  0  0  0
  4  7  1  0  0  0  0
  4 18  1  0  0  0  0
  5  8  1  0  0  0  0
  5 19  1  0  0  0  0
  6 12  1  0  0  0  0
  6 20  1  0  0  0  0
  6 21  1  0  0  0  0
  7  9  1  0  0  0  0
  7 14  2  0  0  0  0
  8  9  1  0  0  0  0
  8 22  1  0  0  0  0
  8 23  1  0  0  0  0
  9 24  1  0  0  0  0
  9 25  1  0  0  0  0
 10 26  1  0  0  0  0
 10 27  1  0  0  0  0
 10 28  1  0  0  0  0
 11 29  1  0  0  0  0
 11 30  1  0  0  0  0
 11 31  1  0  0  0  0
 12 13  1  0  0  0  0
 12 32  1  0  0  0  0
 12 33  1  0  0  0  0
 13 15  1  0  0  0  0
 13 16  1  0  0  0  0
 14 34  1  0  0  0  0
 14 35  1  0  0  0  0
 15 36  1  0  0  0  0
 15 37  1  0  0  0  0
 15 38  1  0  0  0  0
 16 17  2  0  0  0  0
 16 39  1  0  0  0  0
 17 41  1  0  0  0  0
 17 42  1  0  0  0  0
M  END
> <PUBCHEM_COMPOUND_CID>
56928097

> <PUBCHEM_CONFORMER_RMSD>
0.6

> <PUBCHEM_CONFORMER_DIVERSEORDER>
1
49
32
37
14
44
45
28
11
47
29
25
6
35
39
8
17
46
43
31
5
18
48
21
33
13
38
16
30
9
40
20
42
10
7
27
12
34
36
2
41
3
23
4
15
19
22
26
24

> <PUBCHEM_MMFF94_PARTIAL_CHARGES>
16
1 -0.23
13 0.42
14 -0.3
16 -0.29
17 -0.3
2 -0.68
34 0.15
35 0.15
39 0.15
4 0.14
40 0.4
41 0.15
42 0.15
5 0.23
7 -0.28
9 0.14

> <PUBCHEM_EFFECTIVE_ROTOR_COUNT>
5

> <PUBCHEM_PHARMACOPHORE_FEATURES>
6
1 1 hydrophobe
1 17 hydrophobe
1 2 acceptor
1 2 donor
3 3 10 11 hydrophobe
6 3 4 5 7 8 9 rings

> <PUBCHEM_HEAVY_ATOM_COUNT>
17

> <PUBCHEM_ATOM_DEF_STEREO_COUNT>
2

> <PUBCHEM_ATOM_UDEF_STEREO_COUNT>
1

> <PUBCHEM_BOND_DEF_STEREO_COUNT>
0

> <PUBCHEM_BOND_UDEF_STEREO_COUNT>
0

> <PUBCHEM_ISOTOPIC_ATOM_COUNT>
0

> <PUBCHEM_COMPONENT_COUNT>
1

> <PUBCHEM_CACTVS_TAUTO_COUNT>
1

> <PUBCHEM_CONFORMER_ID>
0364A76100000001

> <PUBCHEM_MMFF94_ENERGY>
44.1721

> <PUBCHEM_FEATURE_SELFOVERLAP>
30.447

> <PUBCHEM_SHAPE_FINGERPRINT>
10366900 7 16845282818275654917
10498660 4 17821727260616849169
10980938 120 18202001044615169703
11471102 22 17203334407156790944
11715629 250 16081381730046851449
12251169 10 17489035863593800446
12788726 201 17406825190655386018
12932764 1 18130782399856562021
13464514 151 17822563933315283624
13583140 156 15266499496031626437
13693222 15 17418372493755889723
13965767 371 18269557298231856929
14178342 30 18411979178698150443
14787075 74 17827933823260886191
15163728 17 17754723941486331692
15422964 175 14978305550562639808
15775835 57 18269849635359629080
16945 1 18264497345910261526
18186145 218 18409439289346895380
201361 129 18188485886346566586
20279233 1 15985100821513272011
20645477 70 17703796967805292975
20671657 1 18336827601383548470
21503847 285 18115015411372269144
21524375 3 18128531566199521740
21713013 43 4895262755028863229
21730867 7 17988914600409978615
21864079 5 18041272270646878001
23557571 272 17828485769408446354
276578 36 18131071507122019850
2838139 119 17169280239281931328
474 4 18337670815174886737
6333272 397 18262522472497042833
633830 44 18113613499665854900
7364860 26 18263929997826186550
7615 1 18042695077521524439
81228 2 16906346171866071438

> <PUBCHEM_SHAPE_MULTIPOLES>
349.92
7.33
2.24
1.72
4.79
0.74
0.12
-3.7
0.84
-0.84
0.29
-0.4
-0.44
-0.46

> <PUBCHEM_SHAPE_SELFOVERLAP>
677.895

> <PUBCHEM_SHAPE_VOLUME>
217.2

> <PUBCHEM_COORDINATE_TYPE>
2
5
10

$$$$

