7074631
  -OEChem-07051213073D

 55 58  0     1  0  0  0  0  0999 V2000
    0.4919   -0.1967    1.3067 F   0  0  0  0  0  0  0  0  0  0  0  0
   -5.0114    0.8233    0.3574 O   0  0  0  0  0  0  0  0  0  0  0  0
   -0.3906    2.4641   -0.9363 O   0  0  0  0  0  0  0  0  0  0  0  0
    5.8355   -0.3503    0.8281 O   0  0  0  0  0  0  0  0  0  0  0  0
   -1.8042   -0.8685   -0.1242 C   0  0  1  0  0  0  0  0  0  0  0  0
   -0.4422   -0.6874   -0.8156 C   0  0  1  0  0  0  0  0  0  0  0  0
   -2.6054    0.4530   -0.0323 C   0  0  1  0  0  0  0  0  0  0  0  0
    0.4049    0.3225    0.0241 C   0  0  2  0  0  0  0  0  0  0  0  0
    1.8901    0.3883   -0.4921 C   0  0  2  0  0  0  0  0  0  0  0  0
   -3.9260   -0.0624    0.6264 C   0  0  2  0  0  0  0  0  0  0  0  0
   -0.3391    1.6709    0.2369 C   0  0  2  0  0  0  0  0  0  0  0  0
   -1.7760    1.4704    0.7793 C   0  0  0  0  0  0  0  0  0  0  0  0
    2.5515   -1.0444   -0.3692 C   0  0  2  0  0  0  0  0  0  0  0  0
   -2.8204   -1.8463   -0.7080 C   0  0  0  0  0  0  0  0  0  0  0  0
    0.2924   -2.0192   -1.0622 C   0  0  0  0  0  0  0  0  0  0  0  0
   -4.1649   -1.4231   -0.0843 C   0  0  0  0  0  0  0  0  0  0  0  0
    1.5411   -2.1980   -0.2144 C   0  0  0  0  0  0  0  0  0  0  0  0
    2.6954    1.4265    0.3462 C   0  0  0  0  0  0  0  0  0  0  0  0
   -2.9543    1.0683   -1.4220 C   0  0  0  0  0  0  0  0  0  0  0  0
    1.9751    0.8121   -1.9838 C   0  0  0  0  0  0  0  0  0  0  0  0
    3.5775   -1.1456    0.7704 C   0  0  0  0  0  0  0  0  0  0  0  0
   -3.8796   -0.2470    2.1485 C   0  0  0  0  0  0  0  0  0  0  0  0
    4.2078    1.2862    0.2071 C   0  0  0  0  0  0  0  0  0  0  0  0
    4.6507   -0.0966    0.6133 C   0  0  0  0  0  0  0  0  0  0  0  0
   -1.5858   -1.2312    0.8909 H   0  0  0  0  0  0  0  0  0  0  0  0
   -0.6235   -0.2633   -1.8087 H   0  0  0  0  0  0  0  0  0  0  0  0
    0.1864    2.2566    1.0012 H   0  0  0  0  0  0  0  0  0  0  0  0
   -1.6789    1.1287    1.8163 H   0  0  0  0  0  0  0  0  0  0  0  0
   -2.3005    2.4334    0.8095 H   0  0  0  0  0  0  0  0  0  0  0  0
    3.1057   -1.2396   -1.2992 H   0  0  0  0  0  0  0  0  0  0  0  0
   -2.5884   -2.8856   -0.4552 H   0  0  0  0  0  0  0  0  0  0  0  0
   -2.8646   -1.7744   -1.8005 H   0  0  0  0  0  0  0  0  0  0  0  0
    0.5877   -2.0642   -2.1188 H   0  0  0  0  0  0  0  0  0  0  0  0
   -0.3650   -2.8805   -0.9092 H   0  0  0  0  0  0  0  0  0  0  0  0
   -4.9335   -1.3462   -0.8622 H   0  0  0  0  0  0  0  0  0  0  0  0
   -4.5093   -2.1880    0.6213 H   0  0  0  0  0  0  0  0  0  0  0  0
    1.2462   -2.3181    0.8356 H   0  0  0  0  0  0  0  0  0  0  0  0
    2.0306   -3.1405   -0.4915 H   0  0  0  0  0  0  0  0  0  0  0  0
    2.4368    1.3205    1.4083 H   0  0  0  0  0  0  0  0  0  0  0  0
    2.4136    2.4479    0.0638 H   0  0  0  0  0  0  0  0  0  0  0  0
   -3.4233    2.0519   -1.3007 H   0  0  0  0  0  0  0  0  0  0  0  0
   -2.0858    1.2080   -2.0672 H   0  0  0  0  0  0  0  0  0  0  0  0
   -3.6572    0.4499   -1.9899 H   0  0  0  0  0  0  0  0  0  0  0  0
    1.6290    1.8339   -2.1498 H   0  0  0  0  0  0  0  0  0  0  0  0
    3.0084    0.7774   -2.3474 H   0  0  0  0  0  0  0  0  0  0  0  0
    1.3992    0.1531   -2.6385 H   0  0  0  0  0  0  0  0  0  0  0  0
    4.0570   -2.1315    0.7566 H   0  0  0  0  0  0  0  0  0  0  0  0
    3.1064   -1.0148    1.7509 H   0  0  0  0  0  0  0  0  0  0  0  0
   -3.0794   -0.9171    2.4735 H   0  0  0  0  0  0  0  0  0  0  0  0
   -3.7632    0.7146    2.6605 H   0  0  0  0  0  0  0  0  0  0  0  0
   -4.8298   -0.6600    2.5086 H   0  0  0  0  0  0  0  0  0  0  0  0
    4.7009    2.0111    0.8636 H   0  0  0  0  0  0  0  0  0  0  0  0
    4.5350    1.4699   -0.8200 H   0  0  0  0  0  0  0  0  0  0  0  0
   -4.7985    1.6836    0.7577 H   0  0  0  0  0  0  0  0  0  0  0  0
    0.3899    3.0429   -0.9357 H   0  0  0  0  0  0  0  0  0  0  0  0
  1  8  1  0  0  0  0
  2 10  1  0  0  0  0
  2 54  1  0  0  0  0
  3 11  1  0  0  0  0
  3 55  1  0  0  0  0
  4 24  2  0  0  0  0
  5  6  1  0  0  0  0
  5  7  1  0  0  0  0
  5 14  1  0  0  0  0
  5 25  1  0  0  0  0
  6  8  1  0  0  0  0
  6 15  1  0  0  0  0
  6 26  1  0  0  0  0
  7 10  1  0  0  0  0
  7 12  1  0  0  0  0
  7 19  1  0  0  0  0
  8  9  1  0  0  0  0
  8 11  1  0  0  0  0
  9 13  1  0  0  0  0
  9 18  1  0  0  0  0
  9 20  1  0  0  0  0
 10 16  1  0  0  0  0
 10 22  1  0  0  0  0
 11 12  1  0  0  0  0
 11 27  1  0  0  0  0
 12 28  1  0  0  0  0
 12 29  1  0  0  0  0
 13 17  1  0  0  0  0
 13 21  1  0  0  0  0
 13 30  1  0  0  0  0
 14 16  1  0  0  0  0
 14 31  1  0  0  0  0
 14 32  1  0  0  0  0
 15 17  1  0  0  0  0
 15 33  1  0  0  0  0
 15 34  1  0  0  0  0
 16 35  1  0  0  0  0
 16 36  1  0  0  0  0
 17 37  1  0  0  0  0
 17 38  1  0  0  0  0
 18 23  1  0  0  0  0
 18 39  1  0  0  0  0
 18 40  1  0  0  0  0
 19 41  1  0  0  0  0
 19 42  1  0  0  0  0
 19 43  1  0  0  0  0
 20 44  1  0  0  0  0
 20 45  1  0  0  0  0
 20 46  1  0  0  0  0
 21 24  1  0  0  0  0
 21 47  1  0  0  0  0
 21 48  1  0  0  0  0
 22 49  1  0  0  0  0
 22 50  1  0  0  0  0
 22 51  1  0  0  0  0
 23 24  1  0  0  0  0
 23 52  1  0  0  0  0
 23 53  1  0  0  0  0
M  END
> <PUBCHEM_COMPOUND_CID>
7074631

> <PUBCHEM_CONFORMER_RMSD>
0.6

> <PUBCHEM_CONFORMER_DIVERSEORDER>
1

> <PUBCHEM_MMFF94_PARTIAL_CHARGES>
12
1 -0.34
10 0.28
11 0.28
2 -0.68
21 0.06
23 0.06
24 0.45
3 -0.68
4 -0.57
54 0.4
55 0.4
8 0.34

> <PUBCHEM_EFFECTIVE_ROTOR_COUNT>
2

> <PUBCHEM_PHARMACOPHORE_FEATURES>
9
1 2 acceptor
1 2 donor
1 3 acceptor
1 3 donor
1 4 acceptor
5 5 7 10 14 16 rings
6 5 6 7 8 11 12 rings
6 6 8 9 13 15 17 rings
6 9 13 18 21 23 24 rings

> <PUBCHEM_HEAVY_ATOM_COUNT>
24

> <PUBCHEM_ATOM_DEF_STEREO_COUNT>
8

> <PUBCHEM_ATOM_UDEF_STEREO_COUNT>
0

> <PUBCHEM_BOND_DEF_STEREO_COUNT>
0

> <PUBCHEM_BOND_UDEF_STEREO_COUNT>
0

> <PUBCHEM_ISOTOPIC_ATOM_COUNT>
0

> <PUBCHEM_COMPONENT_COUNT>
1

> <PUBCHEM_CACTVS_TAUTO_COUNT>
3

> <PUBCHEM_CONFORMER_ID>
006BF34700000001

> <PUBCHEM_MMFF94_ENERGY>
109.0564

> <PUBCHEM_FEATURE_SELFOVERLAP>
45.759

> <PUBCHEM_SHAPE_FINGERPRINT>
10062212 137 18337957792273501543
10863032 1 18334862696842137734
11132069 177 18333726931585365695
11796584 16 16272209695314230859
12236239 1 18272089383822077236
12251169 10 18334575758714414770
12403259 415 18336274491885803240
12403814 3 18343865511504942829
12422481 6 18264767829938970490
12553582 1 18336808841440555733
12592029 89 18409727383200830362
12633257 1 18040157301399875784
12788726 201 17604133874967448360
12839892 36 18335151916178178730
128620 24 18131912658722660762
13140716 1 18262800648880867417
13224815 77 18335135388621283983
13544653 18 18131633395717560426
13583140 156 17775015608141799970
13675066 3 18131633374168883896
14178342 30 18334564763883162121
14223421 5 18192995039561887942
14341114 176 18335137626884937706
14341114 328 17967529043568147976
14787075 74 18339646629201345474
14790565 3 18192425278086286260
15163728 17 13841364386656022379
15196674 1 18335423434971797502
15209294 21 17603578638700729035
15788980 27 18202285796641332073
16945 1 18114735040338887799
17349148 13 17989203737840233008
1813 80 17632292410951760558
18186145 218 18113892762924052460
19784866 9 18334013904072892058
200 152 17489872648077845272
20261772 1 18408041793025324602
20715895 44 18125729139116314917
21033648 29 18339663203470007040
21267235 1 18409725132205424326
21421861 104 18127977609860620234
22182313 1 18266456701173798980
22854114 111 18410851053533992198
23184049 59 18408601448496022476
23402539 116 18412270523019135615
23557571 272 17917715746507600581
23559900 14 17531508937561554580
26918003 58 17775565342586353347
2748010 2 17758950815763432375
296302 2 15285356223548058198
3286 77 15913323568111164374
34934 24 18335424603640829887
350125 39 18408606946803669888
3633792 109 17896601881223710617
392239 28 17894913992713207960
4340502 62 17822004315971484803
5104073 3 18262523589573753338
633830 44 17458058249052982108
7064713 232 18113054943437376498

> <PUBCHEM_SHAPE_MULTIPOLES>
469.03
9.23
2.09
1.38
2.83
0.2
0.01
0.24
-3.2
-0.07
0.43
-0.47
-0.15
-0.24

> <PUBCHEM_SHAPE_SELFOVERLAP>
1007.431

> <PUBCHEM_SHAPE_VOLUME>
259.2

> <PUBCHEM_COORDINATE_TYPE>
2
5
10

$$$$

