17396085
  -OEChem-06241222543D

 60 63  0     1  0  0  0  0  0999 V2000
    4.1245   -0.7716    0.1519 S   0  0  0  0  0  0  0  0  0  0  0  0
    2.8637    1.4205    1.6705 S   0  0  0  0  0  0  0  0  0  0  0  0
    5.1766   -0.8955   -0.8348 O   0  0  0  0  0  0  0  0  0  0  0  0
    4.2513   -1.3237    1.4835 O   0  0  0  0  0  0  0  0  0  0  0  0
    0.5340   -2.3569    1.2896 O   0  0  0  0  0  0  0  0  0  0  0  0
    2.6585   -1.3210   -0.5454 N   0  0  2  0  0  0  0  0  0  0  0  0
   -1.1857   -3.2557    0.0036 N   0  0  0  0  0  0  0  0  0  0  0  0
   -3.5094    0.3179    0.8222 N   0  0  0  0  0  0  0  0  0  0  0  0
   -4.3877   -0.2186   -0.0420 N   0  0  0  0  0  0  0  0  0  0  0  0
    1.0321   -3.1687   -0.9021 C   0  0  1  0  0  0  0  0  0  0  0  0
    0.5314   -2.4638   -2.1646 C   0  0  0  0  0  0  0  0  0  0  0  0
    2.4777   -2.8046   -0.5645 C   0  0  0  0  0  0  0  0  0  0  0  0
    0.8277   -0.9650   -2.1469 C   0  0  0  0  0  0  0  0  0  0  0  0
    2.2958   -0.6921   -1.8469 C   0  0  0  0  0  0  0  0  0  0  0  0
    0.1200   -2.8692    0.2529 C   0  0  0  0  0  0  0  0  0  0  0  0
    3.9596    0.9882    0.4277 C   0  0  0  0  0  0  0  0  0  0  0  0
   -2.2540   -3.0981    0.9640 C   0  0  0  0  0  0  0  0  0  0  0  0
   -2.9281   -1.7864    0.7512 C   0  0  0  0  0  0  0  0  0  0  0  0
   -2.6136   -0.5791    1.3257 C   0  0  0  0  0  0  0  0  0  0  0  0
    4.5377    2.0924   -0.1588 C   0  0  0  0  0  0  0  0  0  0  0  0
   -4.0276   -1.5042   -0.0813 C   0  0  0  0  0  0  0  0  0  0  0  0
   -3.5895    1.7281    1.1248 C   0  0  0  0  0  0  0  0  0  0  0  0
   -1.5617   -0.2038    2.2899 C   0  0  0  0  0  0  0  0  0  0  0  0
    4.0751    3.3094    0.4200 C   0  0  0  0  0  0  0  0  0  0  0  0
    3.1610    3.0890    1.4265 C   0  0  0  0  0  0  0  0  0  0  0  0
   -4.7744   -2.4405   -0.9404 C   0  0  0  0  0  0  0  0  0  0  0  0
   -2.7468    2.5413    0.1799 C   0  0  0  0  0  0  0  0  0  0  0  0
   -3.2986    3.0253   -1.0064 C   0  0  0  0  0  0  0  0  0  0  0  0
   -1.4139    2.8117    0.4902 C   0  0  0  0  0  0  0  0  0  0  0  0
   -2.5177    3.7793   -1.8823 C   0  0  0  0  0  0  0  0  0  0  0  0
   -0.6331    3.5659   -0.3857 C   0  0  0  0  0  0  0  0  0  0  0  0
   -1.1850    4.0496   -1.5720 C   0  0  0  0  0  0  0  0  0  0  0  0
    0.9838   -4.2543   -1.0629 H   0  0  0  0  0  0  0  0  0  0  0  0
    1.0500   -2.9029   -3.0276 H   0  0  0  0  0  0  0  0  0  0  0  0
   -0.5359   -2.6136   -2.3539 H   0  0  0  0  0  0  0  0  0  0  0  0
    2.7573   -3.2279    0.4068 H   0  0  0  0  0  0  0  0  0  0  0  0
    3.1518   -3.2308   -1.3180 H   0  0  0  0  0  0  0  0  0  0  0  0
    0.1998   -0.4773   -1.3906 H   0  0  0  0  0  0  0  0  0  0  0  0
    0.5615   -0.5261   -3.1151 H   0  0  0  0  0  0  0  0  0  0  0  0
    2.9327   -1.0923   -2.6441 H   0  0  0  0  0  0  0  0  0  0  0  0
    2.4419    0.3910   -1.8030 H   0  0  0  0  0  0  0  0  0  0  0  0
   -1.4155   -3.7288   -0.8646 H   0  0  0  0  0  0  0  0  0  0  0  0
   -2.9545   -3.9265    0.8168 H   0  0  0  0  0  0  0  0  0  0  0  0
   -1.8512   -3.1784    1.9788 H   0  0  0  0  0  0  0  0  0  0  0  0
    5.2574    2.0339   -0.9651 H   0  0  0  0  0  0  0  0  0  0  0  0
   -4.6432    2.0274    1.0537 H   0  0  0  0  0  0  0  0  0  0  0  0
   -3.3051    1.9024    2.1666 H   0  0  0  0  0  0  0  0  0  0  0  0
   -0.6724    0.1588    1.7665 H   0  0  0  0  0  0  0  0  0  0  0  0
   -1.8866    0.5566    3.0041 H   0  0  0  0  0  0  0  0  0  0  0  0
   -1.2592   -1.0681    2.8900 H   0  0  0  0  0  0  0  0  0  0  0  0
    4.3957    4.2964    0.1130 H   0  0  0  0  0  0  0  0  0  0  0  0
    2.6523    3.8280    2.0295 H   0  0  0  0  0  0  0  0  0  0  0  0
   -4.0943   -2.9707   -1.6152 H   0  0  0  0  0  0  0  0  0  0  0  0
   -5.5181   -1.9242   -1.5567 H   0  0  0  0  0  0  0  0  0  0  0  0
   -5.3005   -3.1823   -0.3310 H   0  0  0  0  0  0  0  0  0  0  0  0
   -4.3353    2.8213   -1.2604 H   0  0  0  0  0  0  0  0  0  0  0  0
   -0.9722    2.4631    1.4182 H   0  0  0  0  0  0  0  0  0  0  0  0
   -2.9472    4.1560   -2.8060 H   0  0  0  0  0  0  0  0  0  0  0  0
    0.4029    3.7812   -0.1426 H   0  0  0  0  0  0  0  0  0  0  0  0
   -0.5771    4.6375   -2.2533 H   0  0  0  0  0  0  0  0  0  0  0  0
  1  3  2  0  0  0  0
  1  4  2  0  0  0  0
  1  6  1  0  0  0  0
  1 16  1  0  0  0  0
  2 16  1  0  0  0  0
  2 25  1  0  0  0  0
  5 15  2  0  0  0  0
  6 12  1  0  0  0  0
  6 14  1  0  0  0  0
  7 15  1  0  0  0  0
  7 17  1  0  0  0  0
  7 42  1  0  0  0  0
  8  9  1  0  0  0  0
  8 19  1  0  0  0  0
  8 22  1  0  0  0  0
  9 21  2  0  0  0  0
 10 11  1  0  0  0  0
 10 12  1  0  0  0  0
 10 15  1  0  0  0  0
 10 33  1  0  0  0  0
 11 13  1  0  0  0  0
 11 34  1  0  0  0  0
 11 35  1  0  0  0  0
 12 36  1  0  0  0  0
 12 37  1  0  0  0  0
 13 14  1  0  0  0  0
 13 38  1  0  0  0  0
 13 39  1  0  0  0  0
 14 40  1  0  0  0  0
 14 41  1  0  0  0  0
 16 20  2  0  0  0  0
 17 18  1  0  0  0  0
 17 43  1  0  0  0  0
 17 44  1  0  0  0  0
 18 19  2  0  0  0  0
 18 21  1  0  0  0  0
 19 23  1  0  0  0  0
 20 24  1  0  0  0  0
 20 45  1  0  0  0  0
 21 26  1  0  0  0  0
 22 27  1  0  0  0  0
 22 46  1  0  0  0  0
 22 47  1  0  0  0  0
 23 48  1  0  0  0  0
 23 49  1  0  0  0  0
 23 50  1  0  0  0  0
 24 25  2  0  0  0  0
 24 51  1  0  0  0  0
 25 52  1  0  0  0  0
 26 53  1  0  0  0  0
 26 54  1  0  0  0  0
 26 55  1  0  0  0  0
 27 28  2  0  0  0  0
 27 29  1  0  0  0  0
 28 30  1  0  0  0  0
 28 56  1  0  0  0  0
 29 31  2  0  0  0  0
 29 57  1  0  0  0  0
 30 32  2  0  0  0  0
 30 58  1  0  0  0  0
 31 32  1  0  0  0  0
 31 59  1  0  0  0  0
 32 60  1  0  0  0  0
M  END
> <PUBCHEM_COMPOUND_CID>
17396085

> <PUBCHEM_CONFORMER_RMSD>
1.4

> <PUBCHEM_CONFORMER_DIVERSEORDER>
1
138
126
24
133
83
11
49
99
137
156
61
57
136
66
158
155
176
144
209
45
205
44
15
55
154
33
63
189
77
10
85
171
140
130
42
148
64
150
143
175
59
109
98
12
76
65
114
2
74
93
102
36
90
6
146
9
119
151
157
81
53
108
203
103
210
127
30
188
213
86
194
75
149
211
162
163
118
94
23
169
124
117
52
68
208
172
27
50
198
78
100
197
19
79
129
167
21
134
164
128
32
97
174
107
82
212
25
196
89
22
182
135
39
165
204
160
110
190
202
141
186
120
60
199
48
184
106
116
58
20
71
104
170
37
73
13
200
35
201
193
125
95
72
54
43
142
145
69
195
115
84
47
28
122
207
159
101
180
183
87
191
177
38
161
152
34
5
26
113
62
112
147
168
96
179
178
139
192
173
181
51
88
29
18
91
8
46
92
185
16
206
105
3
187
7
80
111
123
41
67
132
131
70
17
31
166
121
56
153
40
4
14

> <PUBCHEM_MMFF94_PARTIAL_CHARGES>
39
1 1.5
10 0.06
12 0.36
14 0.36
15 0.57
16 -0.02
17 0.48
18 -0.18
19 -0.33
2 -0.08
20 -0.15
21 0.11
22 0.4
23 0.18
24 -0.15
25 -0.11
26 0.18
27 -0.14
28 -0.15
29 -0.15
3 -0.65
30 -0.15
31 -0.15
32 -0.15
4 -0.65
42 0.37
45 0.15
5 -0.57
51 0.15
52 0.15
56 0.15
57 0.15
58 0.15
59 0.15
6 -0.85
60 0.15
7 -0.73
8 0.31
9 -0.71

> <PUBCHEM_EFFECTIVE_ROTOR_COUNT>
9.2

> <PUBCHEM_PHARMACOPHORE_FEATURES>
9
1 3 acceptor
1 4 acceptor
1 5 acceptor
1 7 donor
1 9 acceptor
5 2 16 20 24 25 rings
5 8 9 18 19 21 rings
6 27 28 29 30 31 32 rings
6 6 10 11 12 13 14 rings

> <PUBCHEM_HEAVY_ATOM_COUNT>
32

> <PUBCHEM_ATOM_DEF_STEREO_COUNT>
0

> <PUBCHEM_ATOM_UDEF_STEREO_COUNT>
1

> <PUBCHEM_BOND_DEF_STEREO_COUNT>
0

> <PUBCHEM_BOND_UDEF_STEREO_COUNT>
0

> <PUBCHEM_ISOTOPIC_ATOM_COUNT>
0

> <PUBCHEM_COMPONENT_COUNT>
1

> <PUBCHEM_CACTVS_TAUTO_COUNT>
2

> <PUBCHEM_CONFORMER_ID>
0109717500000001

> <PUBCHEM_MMFF94_ENERGY>
45.9913

> <PUBCHEM_FEATURE_SELFOVERLAP>
45.686

> <PUBCHEM_SHAPE_FINGERPRINT>
10439779 11 17908440382331904346
10670039 82 18339345376369547180
11513181 2 17823405012101694342
12100795 323 18409731733770709312
12156800 1 16962738147738674685
13122387 1 17259616474684531361
13402501 40 18336260231971726040
13561361 72 18338803321078891456
1361 2 18048041766028011817
14081887 123 18267579289835007381
14251764 38 18334573546806244578
14840074 17 18043808676436374661
15264996 154 17262143732695556206
15264996 163 16176794810938063916
15840311 113 17461965974436173067
15961568 22 18195243313249465372
15975801 100 17558544953541721484
17921350 177 18268718388598408840
17974551 9 17631449154084259698
20398071 114 18339924947208236345
20567600 299 16109240430127908973
20764821 26 18337949107744348464
22113638 7 17833553388414573797
238 59 18044670920959237052
25265897 201 16881841683141855037
35225 105 17701288981528829564
373842 8 17907015080165147335
463206 1 15240032842781982945
469060 322 18125126469442432291
474144 1 16903279595345503668
4742675 86 18191609500234123724
508706 21 18339920514860074118
6004065 56 18122074096414693359

> <PUBCHEM_SHAPE_MULTIPOLES>
628.71
9.52
6.13
1.97
3.75
3.07
-0.3
1.29
1.17
-1.75
-1.81
-0.01
0.13
2.08

> <PUBCHEM_SHAPE_SELFOVERLAP>
1312.548

> <PUBCHEM_SHAPE_VOLUME>
358.9

> <PUBCHEM_COORDINATE_TYPE>
2
5
10

$$$$

