10620
  -OEChem-06261204453D

 53 54  0     1  0  0  0  0  0999 V2000
   -0.8728   -3.0469    0.5409 O   0  0  0  0  0  0  0  0  0  0  0  0
    2.7561   -0.6102    0.0804 N   0  3  0  0  0  0  0  0  0  0  0  0
    3.6505   -0.7897   -1.1517 C   0  0  0  0  0  0  0  0  0  0  0  0
    2.5996    0.8755    0.4246 C   0  0  0  0  0  0  0  0  0  0  0  0
    1.3673   -1.1699   -0.2542 C   0  0  0  0  0  0  0  0  0  0  0  0
    4.9965   -0.0968   -0.9814 C   0  0  0  0  0  0  0  0  0  0  0  0
    3.9481    1.5645    0.5906 C   0  0  0  0  0  0  0  0  0  0  0  0
    4.8366    1.3760   -0.6310 C   0  0  0  0  0  0  0  0  0  0  0  0
    0.4526   -1.1046    0.9624 C   0  0  0  0  0  0  0  0  0  0  0  0
    3.2892   -1.4030    1.2734 C   0  0  0  0  0  0  0  0  0  0  0  0
   -0.9780   -1.6394    0.7638 C   0  0  1  0  0  0  0  0  0  0  0  0
   -1.8058   -0.9472   -0.3633 C   0  0  1  0  0  0  0  0  0  0  0  0
   -3.1713   -1.6585   -0.6548 C   0  0  0  0  0  0  0  0  0  0  0  0
   -2.0020    0.5468   -0.1016 C   0  0  0  0  0  0  0  0  0  0  0  0
   -4.1527   -1.5412    0.5192 C   0  0  0  0  0  0  0  0  0  0  0  0
   -3.8522   -1.0804   -1.9068 C   0  0  0  0  0  0  0  0  0  0  0  0
   -1.9522    1.4153   -1.1683 C   0  0  0  0  0  0  0  0  0  0  0  0
   -2.2216    0.9671    1.1905 C   0  0  0  0  0  0  0  0  0  0  0  0
   -2.1313    2.7778   -0.9299 C   0  0  0  0  0  0  0  0  0  0  0  0
   -2.4009    2.3297    1.4288 C   0  0  0  0  0  0  0  0  0  0  0  0
   -2.3556    3.2351    0.3685 C   0  0  0  0  0  0  0  0  0  0  0  0
    3.1111   -0.3643   -2.0067 H   0  0  0  0  0  0  0  0  0  0  0  0
    3.7788   -1.8657   -1.3150 H   0  0  0  0  0  0  0  0  0  0  0  0
    2.0495    0.9722    1.3637 H   0  0  0  0  0  0  0  0  0  0  0  0
    2.0269    1.3432   -0.3849 H   0  0  0  0  0  0  0  0  0  0  0  0
    0.9757   -0.5794   -1.0891 H   0  0  0  0  0  0  0  0  0  0  0  0
    1.5061   -2.2032   -0.5925 H   0  0  0  0  0  0  0  0  0  0  0  0
    5.5604   -0.1823   -1.9179 H   0  0  0  0  0  0  0  0  0  0  0  0
    5.6031   -0.5979   -0.2198 H   0  0  0  0  0  0  0  0  0  0  0  0
    4.4610    1.1814    1.4807 H   0  0  0  0  0  0  0  0  0  0  0  0
    3.7887    2.6355    0.7620 H   0  0  0  0  0  0  0  0  0  0  0  0
    5.8202    1.8231   -0.4479 H   0  0  0  0  0  0  0  0  0  0  0  0
    4.3993    1.9083   -1.4848 H   0  0  0  0  0  0  0  0  0  0  0  0
    0.3648   -0.0857    1.3421 H   0  0  0  0  0  0  0  0  0  0  0  0
    0.8688   -1.7115    1.7734 H   0  0  0  0  0  0  0  0  0  0  0  0
    3.1464   -2.4707    1.0818 H   0  0  0  0  0  0  0  0  0  0  0  0
    4.3544   -1.1975    1.3944 H   0  0  0  0  0  0  0  0  0  0  0  0
    2.7838   -1.0828    2.1882 H   0  0  0  0  0  0  0  0  0  0  0  0
   -1.4912   -1.5647    1.7263 H   0  0  0  0  0  0  0  0  0  0  0  0
   -1.2191   -1.0591   -1.2859 H   0  0  0  0  0  0  0  0  0  0  0  0
   -2.9799   -2.7218   -0.8440 H   0  0  0  0  0  0  0  0  0  0  0  0
   -0.5405   -3.1821   -0.3626 H   0  0  0  0  0  0  0  0  0  0  0  0
   -4.5018   -0.5167    0.6782 H   0  0  0  0  0  0  0  0  0  0  0  0
   -3.7182   -1.9144    1.4507 H   0  0  0  0  0  0  0  0  0  0  0  0
   -5.0428   -2.1493    0.3188 H   0  0  0  0  0  0  0  0  0  0  0  0
   -4.2324   -0.0664   -1.7508 H   0  0  0  0  0  0  0  0  0  0  0  0
   -3.1656   -1.0735   -2.7596 H   0  0  0  0  0  0  0  0  0  0  0  0
   -4.7103   -1.7031   -2.1853 H   0  0  0  0  0  0  0  0  0  0  0  0
   -1.7704    1.0712   -2.1815 H   0  0  0  0  0  0  0  0  0  0  0  0
   -2.2892    0.2982    2.0394 H   0  0  0  0  0  0  0  0  0  0  0  0
   -2.0946    3.4830   -1.7552 H   0  0  0  0  0  0  0  0  0  0  0  0
   -2.5812    2.6859    2.4389 H   0  0  0  0  0  0  0  0  0  0  0  0
   -2.4961    4.2959    0.5540 H   0  0  0  0  0  0  0  0  0  0  0  0
  1 11  1  0  0  0  0
  1 42  1  0  0  0  0
  2  3  1  0  0  0  0
  2  4  1  0  0  0  0
  2  5  1  0  0  0  0
  2 10  1  0  0  0  0
  3  6  1  0  0  0  0
  3 22  1  0  0  0  0
  3 23  1  0  0  0  0
  4  7  1  0  0  0  0
  4 24  1  0  0  0  0
  4 25  1  0  0  0  0
  5  9  1  0  0  0  0
  5 26  1  0  0  0  0
  5 27  1  0  0  0  0
  6  8  1  0  0  0  0
  6 28  1  0  0  0  0
  6 29  1  0  0  0  0
  7  8  1  0  0  0  0
  7 30  1  0  0  0  0
  7 31  1  0  0  0  0
  8 32  1  0  0  0  0
  8 33  1  0  0  0  0
  9 11  1  0  0  0  0
  9 34  1  0  0  0  0
  9 35  1  0  0  0  0
 10 36  1  0  0  0  0
 10 37  1  0  0  0  0
 10 38  1  0  0  0  0
 11 12  1  0  0  0  0
 11 39  1  0  0  0  0
 12 13  1  0  0  0  0
 12 14  1  0  0  0  0
 12 40  1  0  0  0  0
 13 15  1  0  0  0  0
 13 16  1  0  0  0  0
 13 41  1  0  0  0  0
 14 17  2  0  0  0  0
 14 18  1  0  0  0  0
 15 43  1  0  0  0  0
 15 44  1  0  0  0  0
 15 45  1  0  0  0  0
 16 46  1  0  0  0  0
 16 47  1  0  0  0  0
 16 48  1  0  0  0  0
 17 19  1  0  0  0  0
 17 49  1  0  0  0  0
 18 20  2  0  0  0  0
 18 50  1  0  0  0  0
 19 21  2  0  0  0  0
 19 51  1  0  0  0  0
 20 21  1  0  0  0  0
 20 52  1  0  0  0  0
 21 53  1  0  0  0  0
M  CHG  1   2   1
M  END
> <PUBCHEM_COMPOUND_CID>
10620

> <PUBCHEM_CONFORMER_RMSD>
0.8

> <PUBCHEM_CONFORMER_DIVERSEORDER>
5
49
47
3
38
20
22
19
9
40
13
25
48
27
15
18
36
44
29
46
28
33
1
32
31
16
30
45
23
11
7
26
14
42
17
24
12
21
10
8
39
34
43
2
37
4
50
6
35
41

> <PUBCHEM_MMFF94_PARTIAL_CHARGES>
20
1 -0.68
10 0.5
11 0.28
12 0.14
14 -0.14
17 -0.15
18 -0.15
19 -0.15
2 -1.01
20 -0.15
21 -0.15
3 0.5
4 0.5
42 0.4
49 0.15
5 0.5
50 0.15
51 0.15
52 0.15
53 0.15

> <PUBCHEM_EFFECTIVE_ROTOR_COUNT>
7.2

> <PUBCHEM_PHARMACOPHORE_FEATURES>
6
1 1 acceptor
1 1 donor
1 2 cation
3 13 15 16 hydrophobe
6 14 17 18 19 20 21 rings
6 2 3 4 6 7 8 rings

> <PUBCHEM_HEAVY_ATOM_COUNT>
21

> <PUBCHEM_ATOM_DEF_STEREO_COUNT>
0

> <PUBCHEM_ATOM_UDEF_STEREO_COUNT>
2

> <PUBCHEM_BOND_DEF_STEREO_COUNT>
0

> <PUBCHEM_BOND_UDEF_STEREO_COUNT>
0

> <PUBCHEM_ISOTOPIC_ATOM_COUNT>
0

> <PUBCHEM_COMPONENT_COUNT>
1

> <PUBCHEM_CACTVS_TAUTO_COUNT>
1

> <PUBCHEM_CONFORMER_ID>
0000297C00000005

> <PUBCHEM_MMFF94_ENERGY>
62.5454

> <PUBCHEM_FEATURE_SELFOVERLAP>
30.446

> <PUBCHEM_SHAPE_FINGERPRINT>
10366900 7 18262521373402113852
10498660 4 18272096006234711396
10670039 82 18271511019579678196
10871710 139 18341890814201733677
11578080 2 14422016365646961747
11725454 13 16052394429337172373
11759241 127 18114461154453370942
12173636 292 18411417349324881471
12403260 363 18268728232389540650
12633257 1 18195531617477611356
12788726 201 18409455773584351643
13224815 77 18202562895384062628
13583140 156 17128170864917131073
14123250 116 18262800803674140057
14142880 1 18271524294954220541
14251751 93 18262795284640755380
14347332 77 18334297591053069518
14863182 85 13780374102437026983
15342168 16 17905885126200236513
15849732 13 17968371248833962463
17357779 13 18263932046488370953
18186145 218 18263078963310326376
20510252 161 18410857646514526475
21095088 737 18342182137269337588
21524375 3 18055072322538238851
21623110 236 18196924492045658420
21864079 5 18270959158714563984
221357 26 18260543403581446228
22182937 141 18335974380365409529
22907989 373 18041573528242746157
23227448 37 18335699498469518037
23352939 185 17968935280369575817
23402539 116 18335985268408185151
23557571 272 18337386037378556798
23559900 14 18340489963721623362
283562 15 18412263930819609203
312423 11 18272372013976562546
3268164 11 18334298664541088246
350125 39 18339921631477828755
4028521 119 18201164260505957238
469060 322 17489575737189158905
5048184 11 18267862972393681560
5252454 2 18197772413363927996
5281201 14 18040705983777713006
6049 1 17240495701289449786
7399639 24 17896326813916179962
7615 1 18200889485841752322

> <PUBCHEM_SHAPE_MULTIPOLES>
421.32
9.31
3.24
1.43
9.72
1.49
-0.17
0.53
-2.26
-2.95
0.43
-0.51
0
-0.6

> <PUBCHEM_SHAPE_SELFOVERLAP>
848.301

> <PUBCHEM_SHAPE_VOLUME>
247.2

> <PUBCHEM_COORDINATE_TYPE>
2
5
10

$$$$

