3229
  -OEChem-07051212523D

 40 42  0     0  0  0  0  0  0999 V2000
   -2.1154    2.6499   -0.4619 F   0  0  0  0  0  0  0  0  0  0  0  0
    2.9252    2.2611   -0.3533 O   0  0  0  0  0  0  0  0  0  0  0  0
    5.2271    1.3101    0.4885 O   0  0  0  0  0  0  0  0  0  0  0  0
    5.6093   -0.8127   -0.2713 O   0  0  0  0  0  0  0  0  0  0  0  0
   -3.0150    0.1116    0.0010 N   0  0  0  0  0  0  0  0  0  0  0  0
   -5.7757   -0.5684    0.2563 N   0  0  0  0  0  0  0  0  0  0  0  0
    1.4852   -1.4794    0.3311 N   0  0  0  0  0  0  0  0  0  0  0  0
   -0.7903   -0.6745    0.1646 N   0  0  0  0  0  0  0  0  0  0  0  0
   -3.4879   -1.2155   -0.4156 C   0  0  0  0  0  0  0  0  0  0  0  0
   -3.8552    0.8073    0.9820 C   0  0  0  0  0  0  0  0  0  0  0  0
   -4.9642   -1.1588   -0.8070 C   0  0  0  0  0  0  0  0  0  0  0  0
   -5.3188    0.7905    0.5417 C   0  0  0  0  0  0  0  0  0  0  0  0
   -1.6383    0.3609   -0.0341 C   0  0  0  0  0  0  0  0  0  0  0  0
    0.5479   -0.4328    0.1300 C   0  0  0  0  0  0  0  0  0  0  0  0
    1.0289    0.8663   -0.1075 C   0  0  0  0  0  0  0  0  0  0  0  0
   -1.2340    1.6599   -0.2722 C   0  0  0  0  0  0  0  0  0  0  0  0
    0.1283    1.9148   -0.3090 C   0  0  0  0  0  0  0  0  0  0  0  0
    0.9319   -2.8059    0.5722 C   0  0  0  0  0  0  0  0  0  0  0  0
    2.4891    1.1357   -0.1465 C   0  0  0  0  0  0  0  0  0  0  0  0
    2.8389   -1.2162    0.2920 C   0  0  0  0  0  0  0  0  0  0  0  0
    3.3955   -0.0191    0.0741 C   0  0  0  0  0  0  0  0  0  0  0  0
    0.7323   -3.5675   -0.7219 C   0  0  0  0  0  0  0  0  0  0  0  0
    4.8551    0.0828    0.0667 C   0  0  0  0  0  0  0  0  0  0  0  0
   -3.3403   -1.9319    0.4027 H   0  0  0  0  0  0  0  0  0  0  0  0
   -2.9165   -1.5742   -1.2810 H   0  0  0  0  0  0  0  0  0  0  0  0
   -3.5522    1.8492    1.1279 H   0  0  0  0  0  0  0  0  0  0  0  0
   -3.7517    0.3090    1.9548 H   0  0  0  0  0  0  0  0  0  0  0  0
   -5.0881   -0.5842   -1.7336 H   0  0  0  0  0  0  0  0  0  0  0  0
   -5.3221   -2.1742   -1.0094 H   0  0  0  0  0  0  0  0  0  0  0  0
   -5.9389    1.2155    1.3384 H   0  0  0  0  0  0  0  0  0  0  0  0
   -5.4543    1.4244   -0.3437 H   0  0  0  0  0  0  0  0  0  0  0  0
   -6.7506   -0.5400   -0.0412 H   0  0  0  0  0  0  0  0  0  0  0  0
    0.4711    2.9286   -0.4943 H   0  0  0  0  0  0  0  0  0  0  0  0
    1.6224   -3.3785    1.2056 H   0  0  0  0  0  0  0  0  0  0  0  0
   -0.0046   -2.7698    1.1426 H   0  0  0  0  0  0  0  0  0  0  0  0
    3.4422   -2.1026    0.4620 H   0  0  0  0  0  0  0  0  0  0  0  0
    0.0195   -3.0580   -1.3786 H   0  0  0  0  0  0  0  0  0  0  0  0
    1.6748   -3.6714   -1.2698 H   0  0  0  0  0  0  0  0  0  0  0  0
    0.3464   -4.5712   -0.5175 H   0  0  0  0  0  0  0  0  0  0  0  0
    6.2022    1.4170    0.4972 H   0  0  0  0  0  0  0  0  0  0  0  0
  1 16  1  0  0  0  0
  2 19  2  0  0  0  0
  3 23  1  0  0  0  0
  3 40  1  0  0  0  0
  4 23  2  0  0  0  0
  5  9  1  0  0  0  0
  5 10  1  0  0  0  0
  5 13  1  0  0  0  0
  6 11  1  0  0  0  0
  6 12  1  0  0  0  0
  6 32  1  0  0  0  0
  7 14  1  0  0  0  0
  7 18  1  0  0  0  0
  7 20  1  0  0  0  0
  8 13  1  0  0  0  0
  8 14  2  0  0  0  0
  9 11  1  0  0  0  0
  9 24  1  0  0  0  0
  9 25  1  0  0  0  0
 10 12  1  0  0  0  0
 10 26  1  0  0  0  0
 10 27  1  0  0  0  0
 11 28  1  0  0  0  0
 11 29  1  0  0  0  0
 12 30  1  0  0  0  0
 12 31  1  0  0  0  0
 13 16  2  0  0  0  0
 14 15  1  0  0  0  0
 15 17  2  0  0  0  0
 15 19  1  0  0  0  0
 16 17  1  0  0  0  0
 17 33  1  0  0  0  0
 18 22  1  0  0  0  0
 18 34  1  0  0  0  0
 18 35  1  0  0  0  0
 19 21  1  0  0  0  0
 20 21  2  0  0  0  0
 20 36  1  0  0  0  0
 21 23  1  0  0  0  0
 22 37  1  0  0  0  0
 22 38  1  0  0  0  0
 22 39  1  0  0  0  0
M  END
> <PUBCHEM_COMPOUND_CID>
3229

> <PUBCHEM_CONFORMER_RMSD>
0.8

> <PUBCHEM_CONFORMER_DIVERSEORDER>
1
5
2
4
3

> <PUBCHEM_MMFF94_PARTIAL_CHARGES>
26
1 -0.19
10 0.37
11 0.27
12 0.27
13 0.41
14 0.41
15 0.09
16 0.19
17 -0.15
18 0.37
19 0.47
2 -0.57
20 -0.05
21 0.03
23 0.71
3 -0.65
32 0.36
33 0.15
36 0.15
4 -0.57
40 0.5
5 -0.84
6 -0.9
7 -0.57
8 -0.62
9 0.37

> <PUBCHEM_EFFECTIVE_ROTOR_COUNT>
4.2

> <PUBCHEM_PHARMACOPHORE_FEATURES>
12
1 2 acceptor
1 21 anion
1 3 acceptor
1 4 acceptor
1 5 cation
1 6 cation
1 6 donor
3 3 4 23 anion
3 7 8 14 cation
6 5 6 9 10 11 12 rings
6 7 14 15 19 20 21 rings
6 8 13 14 15 16 17 rings

> <PUBCHEM_HEAVY_ATOM_COUNT>
23

> <PUBCHEM_ATOM_DEF_STEREO_COUNT>
0

> <PUBCHEM_ATOM_UDEF_STEREO_COUNT>
0

> <PUBCHEM_BOND_DEF_STEREO_COUNT>
0

> <PUBCHEM_BOND_UDEF_STEREO_COUNT>
0

> <PUBCHEM_ISOTOPIC_ATOM_COUNT>
0

> <PUBCHEM_COMPONENT_COUNT>
1

> <PUBCHEM_CACTVS_TAUTO_COUNT>
1

> <PUBCHEM_CONFORMER_ID>
00000C9D00000001

> <PUBCHEM_MMFF94_ENERGY>
66.6836

> <PUBCHEM_FEATURE_SELFOVERLAP>
61.32

> <PUBCHEM_SHAPE_FINGERPRINT>
10090160 65 18202284697230229835
10616163 171 18409448081482923911
10906281 52 18201136828702616945
10967382 1 18412544301403778890
1100329 8 18267869380605823266
11488393 25 17751903942778865590
11578080 2 16843053175966226255
12107183 9 17613991215985160201
12236239 1 18113336401471574985
12553582 1 18339374019300721711
12596602 18 17530683195491123369
12839892 36 18267321974244937874
13140716 1 18269550542216002347
13583140 156 13984668053350924405
13836976 161 18343017770490968742
13862211 1 18342461456562706402
14178342 30 18122355828567078704
14787075 74 18334860489461186144
14790565 3 18410007693724536285
14863182 85 18341038701185293902
15196674 1 18411138038916755280
15927050 60 17616246983869150109
17349148 13 17989769998812837649
1813 80 17632284722944418021
18681886 176 18335989675102166064
19591789 44 18338237063757773046
200 152 18407762530057011201
20028762 73 18260552190663229734
20645477 70 18342178882079642615
21054139 6 18262246525534223639
21197605 99 18196080050553083035
21267235 1 18411692180256353307
21421861 104 18056762254788355515
21673915 165 18409166627658887051
21709351 56 18342179972748193637
23402539 116 18408045100055099757
23559900 14 17834125512186387994
26918003 58 17704349961966201241
2871803 45 18342462546961945711
335352 9 18412543201907995270
33824 294 18413388760778402754
34797466 226 16515958160201576344
34934 24 18339365270594647619
350125 39 18411699881149065508
465052 167 17917989477737014610
474229 33 18412265021398293954
5104073 3 18269278039684819736
5486654 2 18337669724648462164
9709674 26 18270111443913583267

> <PUBCHEM_SHAPE_MULTIPOLES>
428.52
11.23
2.84
0.77
3.44
1.58
0.02
-0.63
0.73
-0.84
-0.43
0.34
0.09
-0.44

> <PUBCHEM_SHAPE_SELFOVERLAP>
923.278

> <PUBCHEM_SHAPE_VOLUME>
235.1

> <PUBCHEM_COORDINATE_TYPE>
2
5
10

$$$$

