11040809
  -OEChem-07051213153D

 27 27  0     1  0  0  0  0  0999 V2000
   -1.7936    1.5725    0.1431 O   0  0  0  0  0  0  0  0  0  0  0  0
    0.9321    1.2095   -0.2466 N   0  0  0  0  0  0  0  0  0  0  0  0
    0.0995    0.1042    0.2443 C   0  0  2  0  0  0  0  0  0  0  0  0
    0.6628   -1.2474   -0.2159 C   0  0  0  0  0  0  0  0  0  0  0  0
    2.1169   -1.4161    0.2161 C   0  0  0  0  0  0  0  0  0  0  0  0
   -1.3288    0.2905   -0.2644 C   0  0  1  0  0  0  0  0  0  0  0  0
    2.9493   -0.2182   -0.2276 C   0  0  0  0  0  0  0  0  0  0  0  0
    2.3132    1.0947    0.2225 C   0  0  0  0  0  0  0  0  0  0  0  0
   -2.2566   -0.7860    0.2977 C   0  0  0  0  0  0  0  0  0  0  0  0
   -3.6948   -0.6037   -0.1692 C   0  0  0  0  0  0  0  0  0  0  0  0
    0.0928    0.1470    1.3424 H   0  0  0  0  0  0  0  0  0  0  0  0
    0.5953   -1.3370   -1.3079 H   0  0  0  0  0  0  0  0  0  0  0  0
    0.1015   -2.0827    0.2136 H   0  0  0  0  0  0  0  0  0  0  0  0
   -1.3612    0.2578   -1.3613 H   0  0  0  0  0  0  0  0  0  0  0  0
    2.5306   -2.3383   -0.2067 H   0  0  0  0  0  0  0  0  0  0  0  0
    2.1660   -1.5113    1.3079 H   0  0  0  0  0  0  0  0  0  0  0  0
    3.9626   -0.2994    0.1816 H   0  0  0  0  0  0  0  0  0  0  0  0
    3.0441   -0.2250   -1.3210 H   0  0  0  0  0  0  0  0  0  0  0  0
    0.5512    2.0967    0.0801 H   0  0  0  0  0  0  0  0  0  0  0  0
    2.3484    1.1787    1.3156 H   0  0  0  0  0  0  0  0  0  0  0  0
    2.8944    1.9311   -0.1810 H   0  0  0  0  0  0  0  0  0  0  0  0
   -1.9432   -1.7867   -0.0121 H   0  0  0  0  0  0  0  0  0  0  0  0
   -2.2483   -0.7554    1.3941 H   0  0  0  0  0  0  0  0  0  0  0  0
   -3.7579   -0.6255   -1.2619 H   0  0  0  0  0  0  0  0  0  0  0  0
   -4.1128    0.3449    0.1818 H   0  0  0  0  0  0  0  0  0  0  0  0
   -4.3231   -1.4103    0.2223 H   0  0  0  0  0  0  0  0  0  0  0  0
   -1.3684    2.2351   -0.4269 H   0  0  0  0  0  0  0  0  0  0  0  0
  1  6  1  0  0  0  0
  1 27  1  0  0  0  0
  2  3  1  0  0  0  0
  2  8  1  0  0  0  0
  2 19  1  0  0  0  0
  3  4  1  0  0  0  0
  3  6  1  0  0  0  0
  3 11  1  0  0  0  0
  4  5  1  0  0  0  0
  4 12  1  0  0  0  0
  4 13  1  0  0  0  0
  5  7  1  0  0  0  0
  5 15  1  0  0  0  0
  5 16  1  0  0  0  0
  6  9  1  0  0  0  0
  6 14  1  0  0  0  0
  7  8  1  0  0  0  0
  7 17  1  0  0  0  0
  7 18  1  0  0  0  0
  8 20  1  0  0  0  0
  8 21  1  0  0  0  0
  9 10  1  0  0  0  0
  9 22  1  0  0  0  0
  9 23  1  0  0  0  0
 10 24  1  0  0  0  0
 10 25  1  0  0  0  0
 10 26  1  0  0  0  0
M  END
> <PUBCHEM_COMPOUND_CID>
11040809

> <PUBCHEM_CONFORMER_RMSD>
0.6

> <PUBCHEM_CONFORMER_DIVERSEORDER>
2
7
6
3
5
1
4

> <PUBCHEM_MMFF94_PARTIAL_CHARGES>
7
1 -0.68
19 0.36
2 -0.9
27 0.4
3 0.27
6 0.28
8 0.27

> <PUBCHEM_EFFECTIVE_ROTOR_COUNT>
3.2

> <PUBCHEM_PHARMACOPHORE_FEATURES>
6
1 1 acceptor
1 1 donor
1 10 hydrophobe
1 2 cation
1 2 donor
6 2 3 4 5 7 8 rings

> <PUBCHEM_HEAVY_ATOM_COUNT>
10

> <PUBCHEM_ATOM_DEF_STEREO_COUNT>
2

> <PUBCHEM_ATOM_UDEF_STEREO_COUNT>
0

> <PUBCHEM_BOND_DEF_STEREO_COUNT>
0

> <PUBCHEM_BOND_UDEF_STEREO_COUNT>
0

> <PUBCHEM_ISOTOPIC_ATOM_COUNT>
0

> <PUBCHEM_COMPONENT_COUNT>
1

> <PUBCHEM_CACTVS_TAUTO_COUNT>
1

> <PUBCHEM_CONFORMER_ID>
00A8782900000002

> <PUBCHEM_MMFF94_ENERGY>
3.005

> <PUBCHEM_FEATURE_SELFOVERLAP>
30.45

> <PUBCHEM_SHAPE_FINGERPRINT>
10857977 72 18411146835141711490
11062470 55 14836127636906791607
12897270 3 18412263917491257719
12932764 1 17458355129792364812
14325111 11 18410292505890485089
15775835 57 18041277647523438740
16945 1 18340483374608483322
17990270 104 18337106894748591614
19973954 147 18410572932926921496
20201158 50 18342739606897249747
20645477 70 18410862079295868055
20653091 64 18342459283166563624
20711978 1 18411421730318169227
20871998 22 18117836827356094830
21040471 1 18338797815125613260
21501502 16 18340485685205923521
21501925 9 18341063994352941626
23235685 24 18341337673684252964
23402655 69 18409738386954288237
23552423 10 18272085032466324942
2748010 2 18338520853779755268
29004967 10 18412261765860329082
3248919 1 17418084429829933024
5084963 1 18261108565057890136
581208 293 18337115557475763214

> <PUBCHEM_SHAPE_MULTIPOLES>
194.94
5.08
1.52
0.65
2.52
0.12
0
-0.71
0.11
-0.35
-0.04
-0.01
-0.03
0

> <PUBCHEM_SHAPE_SELFOVERLAP>
371.977

> <PUBCHEM_SHAPE_VOLUME>
119.5

> <PUBCHEM_COORDINATE_TYPE>
2
5
10

$$$$

