13382
  -OEChem-06261209323D

 33 32  0     0  0  0  0  0  0999 V2000
   -0.0035   -1.0091    0.0000 S   0  0  0  0  0  0  0  0  0  0  0  0
    2.7121   -0.5513    0.0145 C   0  0  0  0  0  0  0  0  0  0  0  0
   -2.7123   -0.5535   -0.0145 C   0  0  0  0  0  0  0  0  0  0  0  0
    3.8754    0.4442    0.0274 C   0  0  0  0  0  0  0  0  0  0  0  0
   -3.8742    0.4434   -0.0274 C   0  0  0  0  0  0  0  0  0  0  0  0
    1.3712    0.1772    0.0073 C   0  0  0  0  0  0  0  0  0  0  0  0
   -1.3704    0.1734   -0.0073 C   0  0  0  0  0  0  0  0  0  0  0  0
    5.2238   -0.2750   -0.0015 C   0  0  0  0  0  0  0  0  0  0  0  0
   -5.2236   -0.2741    0.0016 C   0  0  0  0  0  0  0  0  0  0  0  0
    6.3807    0.7113   -0.0231 C   0  0  0  0  0  0  0  0  0  0  0  0
   -6.3792    0.7136    0.0230 C   0  0  0  0  0  0  0  0  0  0  0  0
    2.7850   -1.2008    0.8960 H   0  0  0  0  0  0  0  0  0  0  0  0
    2.7954   -1.1920   -0.8724 H   0  0  0  0  0  0  0  0  0  0  0  0
   -2.7864   -1.2028   -0.8961 H   0  0  0  0  0  0  0  0  0  0  0  0
   -2.7968   -1.1940    0.8726 H   0  0  0  0  0  0  0  0  0  0  0  0
    3.8124    1.0733    0.9236 H   0  0  0  0  0  0  0  0  0  0  0  0
    3.7972    1.1099   -0.8410 H   0  0  0  0  0  0  0  0  0  0  0  0
   -3.8105    1.0725   -0.9237 H   0  0  0  0  0  0  0  0  0  0  0  0
   -3.7952    1.1091    0.8410 H   0  0  0  0  0  0  0  0  0  0  0  0
    1.2949    0.8125   -0.8813 H   0  0  0  0  0  0  0  0  0  0  0  0
    1.2855    0.8120    0.8955 H   0  0  0  0  0  0  0  0  0  0  0  0
   -1.2953    0.8096    0.8808 H   0  0  0  0  0  0  0  0  0  0  0  0
   -1.2859    0.8091   -0.8951 H   0  0  0  0  0  0  0  0  0  0  0  0
    5.3186   -0.9236    0.8771 H   0  0  0  0  0  0  0  0  0  0  0  0
    5.2848   -0.9177   -0.8875 H   0  0  0  0  0  0  0  0  0  0  0  0
   -5.3191   -0.9227   -0.8769 H   0  0  0  0  0  0  0  0  0  0  0  0
   -5.2854   -0.9167    0.8877 H   0  0  0  0  0  0  0  0  0  0  0  0
    6.3333    1.3526   -0.9091 H   0  0  0  0  0  0  0  0  0  0  0  0
    6.3676    1.3506    0.8654 H   0  0  0  0  0  0  0  0  0  0  0  0
    7.3350    0.1757   -0.0422 H   0  0  0  0  0  0  0  0  0  0  0  0
   -6.3311    1.3549    0.9089 H   0  0  0  0  0  0  0  0  0  0  0  0
   -6.3653    1.3528   -0.8655 H   0  0  0  0  0  0  0  0  0  0  0  0
   -7.3342    0.1792    0.0421 H   0  0  0  0  0  0  0  0  0  0  0  0
  1  6  1  0  0  0  0
  1  7  1  0  0  0  0
  2  4  1  0  0  0  0
  2  6  1  0  0  0  0
  2 12  1  0  0  0  0
  2 13  1  0  0  0  0
  3  5  1  0  0  0  0
  3  7  1  0  0  0  0
  3 14  1  0  0  0  0
  3 15  1  0  0  0  0
  4  8  1  0  0  0  0
  4 16  1  0  0  0  0
  4 17  1  0  0  0  0
  5  9  1  0  0  0  0
  5 18  1  0  0  0  0
  5 19  1  0  0  0  0
  6 20  1  0  0  0  0
  6 21  1  0  0  0  0
  7 22  1  0  0  0  0
  7 23  1  0  0  0  0
  8 10  1  0  0  0  0
  8 24  1  0  0  0  0
  8 25  1  0  0  0  0
  9 11  1  0  0  0  0
  9 26  1  0  0  0  0
  9 27  1  0  0  0  0
 10 28  1  0  0  0  0
 10 29  1  0  0  0  0
 10 30  1  0  0  0  0
 11 31  1  0  0  0  0
 11 32  1  0  0  0  0
 11 33  1  0  0  0  0
M  END
> <PUBCHEM_COMPOUND_CID>
13382

> <PUBCHEM_CONFORMER_RMSD>
0.8

> <PUBCHEM_CONFORMER_DIVERSEORDER>
1
51
95
13
11
76
73
53
16
46
5
140
126
9
105
133
7
65
37
49
71
17
109
132
38
88
74
83
116
68
130
14
56
131
137
138
41
47
52
54
18
3
43
26
101
15
122
120
79
24
115
4
108
2
134
8
59
6
39
19
78
94
55
102
30
82
33
127
10
12
80
81
66
139
75
77
99
63
60
128
100
36
89
124
107
70
50
22
117
45
84
40
23
35
28
114
62
112
29
57
69
110
64
48
32
34
87
27
42
136
106
86
103
96
25
72
111
121
91
119
98
85
21
58
135
67
31
104
90
92
20
93
123
97
44
129
118
125
113
61

> <PUBCHEM_MMFF94_PARTIAL_CHARGES>
3
1 -0.46
6 0.23
7 0.23

> <PUBCHEM_EFFECTIVE_ROTOR_COUNT>
8

> <PUBCHEM_PHARMACOPHORE_FEATURES>
2
1 10 hydrophobe
1 11 hydrophobe

> <PUBCHEM_HEAVY_ATOM_COUNT>
11

> <PUBCHEM_ATOM_DEF_STEREO_COUNT>
0

> <PUBCHEM_ATOM_UDEF_STEREO_COUNT>
0

> <PUBCHEM_BOND_DEF_STEREO_COUNT>
0

> <PUBCHEM_BOND_UDEF_STEREO_COUNT>
0

> <PUBCHEM_ISOTOPIC_ATOM_COUNT>
0

> <PUBCHEM_COMPONENT_COUNT>
1

> <PUBCHEM_CACTVS_TAUTO_COUNT>
1

> <PUBCHEM_CONFORMER_ID>
0000344600000001

> <PUBCHEM_MMFF94_ENERGY>
0.3529

> <PUBCHEM_FEATURE_SELFOVERLAP>
10.149

> <PUBCHEM_SHAPE_FINGERPRINT>
10354089 29 17489869336953381124
12091667 2 18260829289784994799
12714333 28 17967252000665175795
12815109 37 18410573989446574340
13533116 47 18339084890914342922
14123238 8 18410575088963346951
1420 363 10447928386290270776
14251718 22 18040154006975271631
15048467 5 18410856559639971460
15242439 84 16226049976655786266
15501527 16 18411981347261002267
17834072 8 16732702744311981312
17834076 25 18410856559639789575
187816 3 15430034353045767262
20281389 69 18272936033297757964
20605781 2 18409730660033724750
20621476 8 18337106864467237557
20645477 70 17677325147245509438
20767249 213 18411136926514950853
21130983 4 18273210889761358188
23035841 295 8718828686593686549
23402539 116 18113624464780463935
23521765 1 18335421270176301061
366044 4 18410012130584041090
42788 4 18410293609686368263
8209 1 18334576845251482868

> <PUBCHEM_SHAPE_MULTIPOLES>
230.22
17.11
0.93
0.62
0.03
0.07
0
-4.64
0
0
0
0
0.01
-0.01

> <PUBCHEM_SHAPE_SELFOVERLAP>
391.309

> <PUBCHEM_SHAPE_VOLUME>
153.6

> <PUBCHEM_COORDINATE_TYPE>
2
5
10

$$$$

