3658
  -OEChem-07051212522D

 53 55  0     1  0  0  0  0  0999 V2000
    2.0000   -5.0600    0.0000 Cl  0  0  0  0  0  0  0  0  0  0  0  0
    6.3301    2.4400    0.0000 O   0  0  0  0  0  0  0  0  0  0  0  0
    8.0622    4.4400    0.0000 O   0  0  0  0  0  0  0  0  0  0  0  0
    5.4641   -2.0600    0.0000 N   0  0  0  0  0  0  0  0  0  0  0  0
    5.4641   -0.0600    0.0000 N   0  0  0  0  0  0  0  0  0  0  0  0
    4.5981   -1.5600    0.0000 C   0  0  0  0  0  0  0  0  0  0  0  0
    6.3301   -1.5600    0.0000 C   0  0  0  0  0  0  0  0  0  0  0  0
    6.3301   -0.5600    0.0000 C   0  0  0  0  0  0  0  0  0  0  0  0
    4.5981   -0.5600    0.0000 C   0  0  0  0  0  0  0  0  0  0  0  0
    5.4641   -3.0600    0.0000 C   0  0  3  0  0  0  0  0  0  0  0  0
    5.4641    0.9400    0.0000 C   0  0  0  0  0  0  0  0  0  0  0  0
    4.5981   -3.5600    0.0000 C   0  0  0  0  0  0  0  0  0  0  0  0
    6.3301   -3.5600    0.0000 C   0  0  0  0  0  0  0  0  0  0  0  0
    6.3301    1.4400    0.0000 C   0  0  0  0  0  0  0  0  0  0  0  0
    3.7320   -3.0600    0.0000 C   0  0  0  0  0  0  0  0  0  0  0  0
    4.5981   -4.5600    0.0000 C   0  0  0  0  0  0  0  0  0  0  0  0
    6.3301   -4.5600    0.0000 C   0  0  0  0  0  0  0  0  0  0  0  0
    7.1962   -3.0600    0.0000 C   0  0  0  0  0  0  0  0  0  0  0  0
    2.8660   -3.5600    0.0000 C   0  0  0  0  0  0  0  0  0  0  0  0
    3.7320   -5.0600    0.0000 C   0  0  0  0  0  0  0  0  0  0  0  0
    7.1962   -5.0600    0.0000 C   0  0  0  0  0  0  0  0  0  0  0  0
    8.0622   -3.5600    0.0000 C   0  0  0  0  0  0  0  0  0  0  0  0
    2.8660   -4.5600    0.0000 C   0  0  0  0  0  0  0  0  0  0  0  0
    8.0622   -4.5600    0.0000 C   0  0  0  0  0  0  0  0  0  0  0  0
    7.1962    2.9400    0.0000 C   0  0  0  0  0  0  0  0  0  0  0  0
    7.1962    3.9400    0.0000 C   0  0  0  0  0  0  0  0  0  0  0  0
    6.5422   -2.1426    0.0000 H   0  0  0  0  0  0  0  0  0  0  0  0
    6.9407   -1.4523    0.0000 H   0  0  0  0  0  0  0  0  0  0  0  0
    3.9875   -1.4523    0.0000 H   0  0  0  0  0  0  0  0  0  0  0  0
    4.3860   -2.1426    0.0000 H   0  0  0  0  0  0  0  0  0  0  0  0
    6.9407   -0.6677    0.0000 H   0  0  0  0  0  0  0  0  0  0  0  0
    6.5422    0.0226    0.0000 H   0  0  0  0  0  0  0  0  0  0  0  0
    4.3860    0.0226    0.0000 H   0  0  0  0  0  0  0  0  0  0  0  0
    3.9875   -0.6677    0.0000 H   0  0  0  0  0  0  0  0  0  0  0  0
    5.4641   -3.6800    0.0000 H   0  0  0  0  0  0  0  0  0  0  0  0
    5.2520    1.5226    0.0000 H   0  0  0  0  0  0  0  0  0  0  0  0
    4.8535    0.8323    0.0000 H   0  0  0  0  0  0  0  0  0  0  0  0
    6.5422    0.8574    0.0000 H   0  0  0  0  0  0  0  0  0  0  0  0
    6.9407    1.5477    0.0000 H   0  0  0  0  0  0  0  0  0  0  0  0
    3.7320   -2.4400    0.0000 H   0  0  0  0  0  0  0  0  0  0  0  0
    5.1350   -4.8700    0.0000 H   0  0  0  0  0  0  0  0  0  0  0  0
    5.7932   -4.8700    0.0000 H   0  0  0  0  0  0  0  0  0  0  0  0
    7.1962   -2.4400    0.0000 H   0  0  0  0  0  0  0  0  0  0  0  0
    2.3291   -3.2500    0.0000 H   0  0  0  0  0  0  0  0  0  0  0  0
    3.7320   -5.6800    0.0000 H   0  0  0  0  0  0  0  0  0  0  0  0
    7.1962   -5.6800    0.0000 H   0  0  0  0  0  0  0  0  0  0  0  0
    8.5991   -3.2500    0.0000 H   0  0  0  0  0  0  0  0  0  0  0  0
    8.5991   -4.8700    0.0000 H   0  0  0  0  0  0  0  0  0  0  0  0
    7.4082    2.3574    0.0000 H   0  0  0  0  0  0  0  0  0  0  0  0
    7.8067    3.0477    0.0000 H   0  0  0  0  0  0  0  0  0  0  0  0
    6.9841    4.5226    0.0000 H   0  0  0  0  0  0  0  0  0  0  0  0
    6.5856    3.8323    0.0000 H   0  0  0  0  0  0  0  0  0  0  0  0
    8.0622    5.0600    0.0000 H   0  0  0  0  0  0  0  0  0  0  0  0
  1 23  1  0  0  0  0
  2 14  1  0  0  0  0
  2 25  1  0  0  0  0
  3 26  1  0  0  0  0
  3 53  1  0  0  0  0
  4  6  1  0  0  0  0
  4  7  1  0  0  0  0
  4 10  1  0  0  0  0
  5  8  1  0  0  0  0
  5  9  1  0  0  0  0
  5 11  1  0  0  0  0
  6  9  1  0  0  0  0
  6 29  1  0  0  0  0
  6 30  1  0  0  0  0
  7  8  1  0  0  0  0
  7 27  1  0  0  0  0
  7 28  1  0  0  0  0
  8 31  1  0  0  0  0
  8 32  1  0  0  0  0
  9 33  1  0  0  0  0
  9 34  1  0  0  0  0
 10 12  1  0  0  0  0
 10 13  1  0  0  0  0
 10 35  1  0  0  0  0
 11 14  1  0  0  0  0
 11 36  1  0  0  0  0
 11 37  1  0  0  0  0
 12 15  2  0  0  0  0
 12 16  1  0  0  0  0
 13 17  2  0  0  0  0
 13 18  1  0  0  0  0
 14 38  1  0  0  0  0
 14 39  1  0  0  0  0
 15 19  1  0  0  0  0
 15 40  1  0  0  0  0
 16 20  2  0  0  0  0
 16 41  1  0  0  0  0
 17 21  1  0  0  0  0
 17 42  1  0  0  0  0
 18 22  2  0  0  0  0
 18 43  1  0  0  0  0
 19 23  2  0  0  0  0
 19 44  1  0  0  0  0
 20 23  1  0  0  0  0
 20 45  1  0  0  0  0
 21 24  2  0  0  0  0
 21 46  1  0  0  0  0
 22 24  1  0  0  0  0
 22 47  1  0  0  0  0
 24 48  1  0  0  0  0
 25 26  1  0  0  0  0
 25 49  1  0  0  0  0
 25 50  1  0  0  0  0
 26 51  1  0  0  0  0
 26 52  1  0  0  0  0
M  END
> <PUBCHEM_COMPOUND_CID>
3658

> <PUBCHEM_COMPOUND_CANONICALIZED>
1

> <PUBCHEM_CACTVS_COMPLEXITY>
376

> <PUBCHEM_CACTVS_HBOND_ACCEPTOR>
4

> <PUBCHEM_CACTVS_HBOND_DONOR>
1

> <PUBCHEM_CACTVS_ROTATABLE_BOND>
8

> <PUBCHEM_CACTVS_SUBSKEYS>
AAADceB7MAAEAAAAAAAAAAAAAAAAAAAAAAA8YIAAAAAAAAABQAAAHgIACAAADCrhmCYwAIMABgCAAiBCAACCAAAgBQAIiAAIBogLcCKBkxGXIAhggACbiAcQgMAOBAAAAAAAAAAIAAAAAAAAAAAAAAAAAA==

> <PUBCHEM_IUPAC_OPENEYE_NAME>
2-[2-[4-[(4-chlorophenyl)-phenyl-methyl]piperazin-1-yl]ethoxy]ethanol

> <PUBCHEM_IUPAC_CAS_NAME>
2-[2-[4-[(4-chlorophenyl)-phenylmethyl]-1-piperazinyl]ethoxy]ethanol

> <PUBCHEM_IUPAC_NAME>
2-[2-[4-[(4-chlorophenyl)-phenylmethyl]piperazin-1-yl]ethoxy]ethanol

> <PUBCHEM_IUPAC_SYSTEMATIC_NAME>
2-[2-[4-[(4-chlorophenyl)-phenyl-methyl]piperazin-1-yl]ethoxy]ethanol

> <PUBCHEM_IUPAC_TRADITIONAL_NAME>
2-[2-[4-[(4-chlorophenyl)-phenyl-methyl]piperazino]ethoxy]ethanol

> <PUBCHEM_IUPAC_INCHI>
InChI=1S/C21H27ClN2O2/c22-20-8-6-19(7-9-20)21(18-4-2-1-3-5-18)24-12-10-23(11-13-24)14-16-26-17-15-25/h1-9,21,25H,10-17H2

> <PUBCHEM_IUPAC_INCHIKEY>
ZQDWXGKKHFNSQK-UHFFFAOYSA-N

> <PUBCHEM_XLOGP3>
3.7

> <PUBCHEM_EXACT_MASS>
374.176106

> <PUBCHEM_MOLECULAR_FORMULA>
C21H27ClN2O2

> <PUBCHEM_MOLECULAR_WEIGHT>
374.90428

> <PUBCHEM_OPENEYE_CAN_SMILES>
C1CN(CCN1CCOCCO)C(C2=CC=CC=C2)C3=CC=C(C=C3)Cl

> <PUBCHEM_OPENEYE_ISO_SMILES>
C1CN(CCN1CCOCCO)C(C2=CC=CC=C2)C3=CC=C(C=C3)Cl

> <PUBCHEM_CACTVS_TPSA>
35.9

> <PUBCHEM_MONOISOTOPIC_WEIGHT>
374.176106

> <PUBCHEM_TOTAL_CHARGE>
0

> <PUBCHEM_HEAVY_ATOM_COUNT>
26

> <PUBCHEM_ATOM_DEF_STEREO_COUNT>
0

> <PUBCHEM_ATOM_UDEF_STEREO_COUNT>
1

> <PUBCHEM_BOND_DEF_STEREO_COUNT>
0

> <PUBCHEM_BOND_UDEF_STEREO_COUNT>
0

> <PUBCHEM_ISOTOPIC_ATOM_COUNT>
0

> <PUBCHEM_COMPONENT_COUNT>
1

> <PUBCHEM_CACTVS_TAUTO_COUNT>
1

> <PUBCHEM_COORDINATE_TYPE>
1
5
255

> <PUBCHEM_BONDANNOTATIONS>
10  13  3
12  15  8
12  16  8
13  17  8
13  18  8
15  19  8
16  20  8
17  21  8
18  22  8
19  23  8
20  23  8
21  24  8
22  24  8

$$$$

