23724748
  -OEChem-07051213083D

 60 62  0     1  0  0  0  0  0999 V2000
    3.3770    1.1009   -2.0457 P   0  0  1  0  0  0  0  0  0  0  0  0
    3.0919    3.2839   -0.0916 P   0  0  2  0  0  0  0  0  0  0  0  0
    1.8236    2.2855    2.3779 P   0  0  0  0  0  0  0  0  0  0  0  0
    1.9120   -1.8267    0.7791 O   0  0  0  0  0  0  0  0  0  0  0  0
    0.6900   -5.1000   -0.0650 O   0  0  0  0  0  0  0  0  0  0  0  0
    3.2585   -4.5590    0.6389 O   0  0  0  0  0  0  0  0  0  0  0  0
    3.2843   -0.0637   -0.9262 O   0  0  0  0  0  0  0  0  0  0  0  0
    3.8405    2.4145   -1.2276 O   0  0  0  0  0  0  0  0  0  0  0  0
    4.6898    0.7221   -2.9120 O   0  0  0  0  0  0  0  0  0  0  0  0
    2.1310    1.2921   -2.8609 O   0  0  0  0  0  0  0  0  0  0  0  0
    2.7001    2.1829    1.0241 O   0  0  0  0  0  0  0  0  0  0  0  0
    1.6711    3.6593   -0.7651 O   0  0  0  0  0  0  0  0  0  0  0  0
    3.8693    4.4550    0.4328 O   0  0  0  0  0  0  0  0  0  0  0  0
    0.3370    2.6022    1.8281 O   0  0  0  0  0  0  0  0  0  0  0  0
    1.7209    0.7530    2.8804 O   0  0  0  0  0  0  0  0  0  0  0  0
    2.3495    3.2591    3.3913 O   0  0  0  0  0  0  0  0  0  0  0  0
   -0.4211   -2.2557    0.8284 N   0  0  0  0  0  0  0  0  0  0  0  0
   -2.5910   -1.9721    1.2633 N   0  0  0  0  0  0  0  0  0  0  0  0
   -0.0277   -0.3250   -0.5931 N   0  0  0  0  0  0  0  0  0  0  0  0
   -2.0637    0.9870   -0.8923 N   0  0  0  0  0  0  0  0  0  0  0  0
   -4.1441    0.3802    0.1231 N   0  0  0  0  0  0  0  0  0  0  0  0
    1.1848   -3.7995   -0.3108 C   0  0  2  0  0  0  0  0  0  0  0  0
    2.6977   -3.7452   -0.3913 C   0  0  1  0  0  0  0  0  0  0  0  0
    0.9096   -2.8586    0.8522 C   0  0  1  0  0  0  0  0  0  0  0  0
    2.9877   -2.2814   -0.0744 C   0  0  1  0  0  0  0  0  0  0  0  0
    3.0207   -1.4008   -1.3156 C   0  0  0  0  0  0  0  0  0  0  0  0
   -0.7962   -1.1194    0.1674 C   0  0  0  0  0  0  0  0  0  0  0  0
   -1.5350   -2.7306    1.4710 C   0  0  0  0  0  0  0  0  0  0  0  0
   -2.1435   -0.9612    0.4502 C   0  0  0  0  0  0  0  0  0  0  0  0
   -2.7791    0.1413   -0.1122 C   0  0  0  0  0  0  0  0  0  0  0  0
   -0.7519    0.7054   -1.0815 C   0  0  0  0  0  0  0  0  0  0  0  0
   -4.8483    1.4986   -0.4301 C   0  0  0  0  0  0  0  0  0  0  0  0
   -6.2694    1.4536    0.0395 C   0  0  0  0  0  0  0  0  0  0  0  0
   -7.3164    0.8527   -0.5577 C   0  0  0  0  0  0  0  0  0  0  0  0
   -8.7237    0.8448   -0.0316 C   0  0  0  0  0  0  0  0  0  0  0  0
   -7.1357    0.1245   -1.8630 C   0  0  0  0  0  0  0  0  0  0  0  0
    0.7413   -3.4257   -1.2410 H   0  0  0  0  0  0  0  0  0  0  0  0
    3.1060   -4.0848   -1.3474 H   0  0  0  0  0  0  0  0  0  0  0  0
    1.0097   -3.3556    1.8252 H   0  0  0  0  0  0  0  0  0  0  0  0
    3.9151   -2.1580    0.4965 H   0  0  0  0  0  0  0  0  0  0  0  0
    2.0679   -1.4226   -1.8523 H   0  0  0  0  0  0  0  0  0  0  0  0
    3.8110   -1.7343   -1.9956 H   0  0  0  0  0  0  0  0  0  0  0  0
    1.0230   -5.3957    0.7990 H   0  0  0  0  0  0  0  0  0  0  0  0
    3.0849   -5.4858    0.4012 H   0  0  0  0  0  0  0  0  0  0  0  0
   -1.5158   -3.6298    2.0716 H   0  0  0  0  0  0  0  0  0  0  0  0
   -0.2155    1.4096   -1.7057 H   0  0  0  0  0  0  0  0  0  0  0  0
   -4.6311   -0.2873    0.7121 H   0  0  0  0  0  0  0  0  0  0  0  0
   -4.7817    1.5122   -1.5230 H   0  0  0  0  0  0  0  0  0  0  0  0
   -4.4020    2.4387   -0.0830 H   0  0  0  0  0  0  0  0  0  0  0  0
    4.6160    0.0395   -3.6126 H   0  0  0  0  0  0  0  0  0  0  0  0
   -6.4556    1.9676    0.9819 H   0  0  0  0  0  0  0  0  0  0  0  0
    1.6346    4.3859   -1.4230 H   0  0  0  0  0  0  0  0  0  0  0  0
   -9.0550   -0.1809    0.1589 H   0  0  0  0  0  0  0  0  0  0  0  0
   -8.8060    1.4027    0.9069 H   0  0  0  0  0  0  0  0  0  0  0  0
   -9.4041    1.3049   -0.7552 H   0  0  0  0  0  0  0  0  0  0  0  0
   -7.6038   -0.8647   -1.8039 H   0  0  0  0  0  0  0  0  0  0  0  0
   -6.0950   -0.0477   -2.1458 H   0  0  0  0  0  0  0  0  0  0  0  0
   -7.6201    0.6812   -2.6720 H   0  0  0  0  0  0  0  0  0  0  0  0
   -0.3759    2.7998    2.4722 H   0  0  0  0  0  0  0  0  0  0  0  0
    1.2898    0.5627    3.7408 H   0  0  0  0  0  0  0  0  0  0  0  0
  1  7  1  0  0  0  0
  1  8  1  0  0  0  0
  1  9  1  0  0  0  0
  1 10  2  0  0  0  0
  2  8  1  0  0  0  0
  2 11  1  0  0  0  0
  2 12  1  0  0  0  0
  2 13  2  0  0  0  0
  3 11  1  0  0  0  0
  3 14  1  0  0  0  0
  3 15  1  0  0  0  0
  3 16  2  0  0  0  0
  4 24  1  0  0  0  0
  4 25  1  0  0  0  0
  5 22  1  0  0  0  0
  5 43  1  0  0  0  0
  6 23  1  0  0  0  0
  6 44  1  0  0  0  0
  7 26  1  0  0  0  0
  9 50  1  0  0  0  0
 12 52  1  0  0  0  0
 14 59  1  0  0  0  0
 15 60  1  0  0  0  0
 17 24  1  0  0  0  0
 17 27  1  0  0  0  0
 17 28  1  0  0  0  0
 18 28  2  0  0  0  0
 18 29  1  0  0  0  0
 19 27  2  0  0  0  0
 19 31  1  0  0  0  0
 20 30  1  0  0  0  0
 20 31  2  0  0  0  0
 21 30  1  0  0  0  0
 21 32  1  0  0  0  0
 21 47  1  0  0  0  0
 22 23  1  0  0  0  0
 22 24  1  0  0  0  0
 22 37  1  0  0  0  0
 23 25  1  0  0  0  0
 23 38  1  0  0  0  0
 24 39  1  0  0  0  0
 25 26  1  0  0  0  0
 25 40  1  0  0  0  0
 26 41  1  0  0  0  0
 26 42  1  0  0  0  0
 27 29  1  0  0  0  0
 28 45  1  0  0  0  0
 29 30  2  0  0  0  0
 31 46  1  0  0  0  0
 32 33  1  0  0  0  0
 32 48  1  0  0  0  0
 32 49  1  0  0  0  0
 33 34  2  0  0  0  0
 33 51  1  0  0  0  0
 34 35  1  0  0  0  0
 34 36  1  0  0  0  0
 35 53  1  0  0  0  0
 35 54  1  0  0  0  0
 35 55  1  0  0  0  0
 36 56  1  0  0  0  0
 36 57  1  0  0  0  0
 36 58  1  0  0  0  0
M  END
> <PUBCHEM_COMPOUND_CID>
23724748

> <PUBCHEM_CONFORMER_RMSD>
1.2

> <PUBCHEM_CONFORMER_DIVERSEORDER>
1
424
448
398
77
216
60
259
473
262
254
416
432
266
82
229
358
73
479
271
438
460
181
31
286
191
470
353
480
362
293
400
364
233
445
112
478
171
50
265
44
338
308
419
328
367
440
162
125
434
269
203
295
327
177
368
285
425
413
387
167
267
325
235
124
430
446
336
439
313
178
489
376
481
133
272
455
243
459
482
465
306
483
26
215
437
435
379
451
127
317
148
52
268
472
332
149
318
405
214
180
130
352
312
197
294
137
341
304
301
422
246
189
374
426
361
81
380
287
412
487
423
42
346
194
218
447
110
375
120
476
310
360
388
485
65
463
204
431
253
457
417
452
175
458
399
443
183
102
377
49
276
152
146
104
373
386
339
365
170
78
433
453
258
101
222
311
199
228
283
236
315
184
392
234
343
46
111
323
492
484
296
436
179
477
138
429
249
196
349
347
136
86
250
95
68
30
209
289
474
185
454
91
391
154
281
488
427
227
142
5
408
134
363
201
224
147
441
356
116
411
397
67
284
206
221
28
98
36
340
263
232
140
369
159
75
475
97
329
420
85
418
202
462
76
256
188
92
493
469
70
334
354
409
309
190
350
494
182
39
370
156
99
342
307
248
205
467
471
165
100
131
450
335
90
217
428
144
302
261
491
126
9
449
385
468
164
252
390
161
186
87
169
444
403
244
19
237
113
355
176
366
139
299
384
275
10
223
74
270
382
291
466
94
292
410
359
464
93
257
145
279
288
357
105
66
305
260
290
7
378
219
316
210
128
297
198
247
207
264
153
372
393
404
230
394
213
351
415
461
348
255
200
226
381
383
273
38
69
193
280
326
402
172
29
108
322
331
109
303
240
107
319
173
119
274
208
166
25
242
123
414
155
371
18
211
84
401
298
135
238
71
330
45
117
231
27
163
143
395
157
83
344
168
21
407
251
57
239
129
225
150
61
282
277
495
320
192
324
80
132
321
2
51
498
456
442
16
35
56
96
406
241
22
34
158
151
300
141
421
118
337
114
389
4
40
20
106
23
64
396
89
115
79
43
497
220
187
48
160
11
278
345
195
103
63
314
14
24
496
333
121
32
245
54
55
88
122
59
212
72
37
53
174
486
33
3
17
47
15
62
13
490
58
6
8
12
41

> <PUBCHEM_MMFF94_PARTIAL_CHARGES>
46
1 1.51
10 -0.7
11 -0.54
12 -0.77
13 -0.7
14 -0.77
15 -0.77
16 -0.7
17 0.05
18 -0.57
19 -0.57
2 1.51
20 -0.62
21 -0.87
22 0.28
23 0.28
24 0.54
25 0.28
26 0.28
27 0.11
28 0.04
29 0.23
3 1.51
30 0.41
31 0.47
32 0.51
33 -0.29
34 -0.28
35 0.14
36 0.14
4 -0.56
43 0.4
44 0.4
45 0.15
46 0.15
47 0.4
5 -0.68
50 0.5
51 0.15
52 0.5
59 0.5
6 -0.68
60 0.5
7 -0.55
8 -0.54
9 -0.77

> <PUBCHEM_EFFECTIVE_ROTOR_COUNT>
12

> <PUBCHEM_PHARMACOPHORE_FEATURES>
22
1 10 acceptor
1 12 acceptor
1 13 acceptor
1 14 acceptor
1 15 acceptor
1 16 acceptor
1 21 cation
1 21 donor
1 4 acceptor
1 5 acceptor
1 5 donor
1 6 acceptor
1 6 donor
1 9 acceptor
3 17 18 28 cation
3 17 19 27 cation
3 19 20 31 cation
3 34 35 36 hydrophobe
4 3 14 15 16 anion
5 17 18 27 28 29 rings
5 4 22 23 24 25 rings
6 19 20 27 29 30 31 rings

> <PUBCHEM_HEAVY_ATOM_COUNT>
36

> <PUBCHEM_ATOM_DEF_STEREO_COUNT>
4

> <PUBCHEM_ATOM_UDEF_STEREO_COUNT>
0

> <PUBCHEM_BOND_DEF_STEREO_COUNT>
0

> <PUBCHEM_BOND_UDEF_STEREO_COUNT>
0

> <PUBCHEM_ISOTOPIC_ATOM_COUNT>
0

> <PUBCHEM_COMPONENT_COUNT>
1

> <PUBCHEM_CACTVS_TAUTO_COUNT>
3

> <PUBCHEM_CONFORMER_ID>
016A02CC00000001

> <PUBCHEM_MMFF94_ENERGY>
-0.1819

> <PUBCHEM_FEATURE_SELFOVERLAP>
112.313

> <PUBCHEM_SHAPE_FINGERPRINT>
10675989 125 18408598154257003168
10721379 63 17676498232764602771
12166972 35 18124878112346435155
12522641 24 18334574681543072713
12741549 16 17979087298698899274
131258 43 17827057804826613126
13383668 362 18131360678295679642
13533116 47 18340764944596766389
14068700 675 17979070814831065030
15082195 135 18412554193500127591
15322687 12 18341886390142585108
20554085 129 18410015403264536168
21792965 20 16984936342742984803
23559900 14 18341896328950323547
44317340 157 18340493369957523005
495365 180 18335989692055246599
508706 21 17470153766544048356
513532 50 17312829259782315808
552612 73 18269253709264787115

> <PUBCHEM_SHAPE_MULTIPOLES>
651.21
13.47
5.93
2.37
40.89
2.87
0.53
-7.14
-5.81
-9.75
1.98
-2.82
-2.06
0.79

> <PUBCHEM_SHAPE_SELFOVERLAP>
1317.271

> <PUBCHEM_SHAPE_VOLUME>
382.9

> <PUBCHEM_COORDINATE_TYPE>
2
5
10

$$$$

