17395503
  -OEChem-06241222502D

 43 44  0     1  0  0  0  0  0999 V2000
    5.7567    3.3170    0.0000 O   0  0  0  0  0  0  0  0  0  0  0  0
    6.6227   -0.1830    0.0000 O   0  0  0  0  0  0  0  0  0  0  0  0
    2.4067   -2.4035    0.0000 O   0  0  0  0  0  0  0  0  0  0  0  0
    3.9890   -3.1080    0.0000 O   0  0  0  0  0  0  0  0  0  0  0  0
    5.7567    1.3170    0.0000 N   0  0  0  0  0  0  0  0  0  0  0  0
    3.9771    0.2238    0.0000 N   0  0  0  0  0  0  0  0  0  0  0  0
    6.6227    1.8170    0.0000 C   0  0  0  0  0  0  0  0  0  0  0  0
    4.8907    1.8170    0.0000 C   0  0  0  0  0  0  0  0  0  0  0  0
    6.6227    2.8170    0.0000 C   0  0  3  0  0  0  0  0  0  0  0  0
    4.8907    2.8170    0.0000 C   0  0  3  0  0  0  0  0  0  0  0  0
    5.7567    0.3170    0.0000 C   0  0  0  0  0  0  0  0  0  0  0  0
    4.0246    3.3170    0.0000 C   0  0  0  0  0  0  0  0  0  0  0  0
    7.4888    3.3170    0.0000 C   0  0  0  0  0  0  0  0  0  0  0  0
    4.8907   -0.1830    0.0000 C   0  0  0  0  0  0  0  0  0  0  0  0
    4.7861   -1.1775    0.0000 C   0  0  0  0  0  0  0  0  0  0  0  0
    3.8080   -1.3854    0.0000 C   0  0  0  0  0  0  0  0  0  0  0  0
    3.3080   -0.5194    0.0000 C   0  0  0  0  0  0  0  0  0  0  0  0
    5.5293   -1.8466    0.0000 C   0  0  0  0  0  0  0  0  0  0  0  0
    2.3135   -0.4149    0.0000 C   0  0  0  0  0  0  0  0  0  0  0  0
    3.4013   -2.2990    0.0000 C   0  0  0  0  0  0  0  0  0  0  0  0
    2.0000   -3.3170    0.0000 C   0  0  0  0  0  0  0  0  0  0  0  0
    4.2801    1.9247    0.0000 H   0  0  0  0  0  0  0  0  0  0  0  0
    4.6786    1.2344    0.0000 H   0  0  0  0  0  0  0  0  0  0  0  0
    6.8348    1.2344    0.0000 H   0  0  0  0  0  0  0  0  0  0  0  0
    7.2333    1.9247    0.0000 H   0  0  0  0  0  0  0  0  0  0  0  0
    4.8907    3.4370    0.0000 H   0  0  0  0  0  0  0  0  0  0  0  0
    6.6227    3.4370    0.0000 H   0  0  0  0  0  0  0  0  0  0  0  0
    4.3346    3.8540    0.0000 H   0  0  0  0  0  0  0  0  0  0  0  0
    3.4877    3.6270    0.0000 H   0  0  0  0  0  0  0  0  0  0  0  0
    3.7146    2.7801    0.0000 H   0  0  0  0  0  0  0  0  0  0  0  0
    7.7988    2.7801    0.0000 H   0  0  0  0  0  0  0  0  0  0  0  0
    8.0257    3.6270    0.0000 H   0  0  0  0  0  0  0  0  0  0  0  0
    7.1788    3.8540    0.0000 H   0  0  0  0  0  0  0  0  0  0  0  0
    3.8482    0.8302    0.0000 H   0  0  0  0  0  0  0  0  0  0  0  0
    5.1144   -2.3074    0.0000 H   0  0  0  0  0  0  0  0  0  0  0  0
    5.9900   -2.2615    0.0000 H   0  0  0  0  0  0  0  0  0  0  0  0
    5.9441   -1.3859    0.0000 H   0  0  0  0  0  0  0  0  0  0  0  0
    2.3783    0.2018    0.0000 H   0  0  0  0  0  0  0  0  0  0  0  0
    1.6969   -0.3500    0.0000 H   0  0  0  0  0  0  0  0  0  0  0  0
    2.2487   -1.0315    0.0000 H   0  0  0  0  0  0  0  0  0  0  0  0
    1.4336   -3.0648    0.0000 H   0  0  0  0  0  0  0  0  0  0  0  0
    1.7478   -3.8834    0.0000 H   0  0  0  0  0  0  0  0  0  0  0  0
    2.5664   -3.5692    0.0000 H   0  0  0  0  0  0  0  0  0  0  0  0
  1  9  1  0  0  0  0
  1 10  1  0  0  0  0
  2 11  2  0  0  0  0
  3 20  1  0  0  0  0
  3 21  1  0  0  0  0
  4 20  2  0  0  0  0
  5  7  1  0  0  0  0
  5  8  1  0  0  0  0
  5 11  1  0  0  0  0
  6 14  1  0  0  0  0
  6 17  1  0  0  0  0
  6 34  1  0  0  0  0
  7  9  1  0  0  0  0
  7 24  1  0  0  0  0
  7 25  1  0  0  0  0
  8 10  1  0  0  0  0
  8 22  1  0  0  0  0
  8 23  1  0  0  0  0
  9 13  1  0  0  0  0
  9 27  1  0  0  0  0
 10 12  1  0  0  0  0
 10 26  1  0  0  0  0
 11 14  1  0  0  0  0
 12 28  1  0  0  0  0
 12 29  1  0  0  0  0
 12 30  1  0  0  0  0
 13 31  1  0  0  0  0
 13 32  1  0  0  0  0
 13 33  1  0  0  0  0
 14 15  2  0  0  0  0
 15 16  1  0  0  0  0
 15 18  1  0  0  0  0
 16 17  2  0  0  0  0
 16 20  1  0  0  0  0
 17 19  1  0  0  0  0
 18 35  1  0  0  0  0
 18 36  1  0  0  0  0
 18 37  1  0  0  0  0
 19 38  1  0  0  0  0
 19 39  1  0  0  0  0
 19 40  1  0  0  0  0
 21 41  1  0  0  0  0
 21 42  1  0  0  0  0
 21 43  1  0  0  0  0
M  END
> <PUBCHEM_COMPOUND_CID>
17395503

> <PUBCHEM_COMPOUND_CANONICALIZED>
1

> <PUBCHEM_CACTVS_COMPLEXITY>
405

> <PUBCHEM_CACTVS_HBOND_ACCEPTOR>
4

> <PUBCHEM_CACTVS_HBOND_DONOR>
1

> <PUBCHEM_CACTVS_ROTATABLE_BOND>
3

> <PUBCHEM_CACTVS_SUBSKEYS>
AAADceBzOAAAAAAAAAAAAAAAAAAAAWAAAAAsAAAAAAAAAAABgAAAHgAQAAAADBzhngYCiJPJlACoAwXwXACCgCAnACAAmSG4TNgKZnrAtLmXEYhm1gHY6Ue8HwIegAAAAAAAAAAAAAAAAAAAAAAAAAAAAA==

> <PUBCHEM_IUPAC_OPENEYE_NAME>
methyl 5-(2,6-dimethylmorpholine-4-carbonyl)-2,4-dimethyl-1H-pyrrole-3-carboxylate

> <PUBCHEM_IUPAC_CAS_NAME>
5-[(2,6-dimethyl-4-morpholinyl)-oxomethyl]-2,4-dimethyl-1H-pyrrole-3-carboxylic acid methyl ester

> <PUBCHEM_IUPAC_NAME>
methyl 5-(2,6-dimethylmorpholine-4-carbonyl)-2,4-dimethyl-1H-pyrrole-3-carboxylate

> <PUBCHEM_IUPAC_SYSTEMATIC_NAME>
methyl 5-(2,6-dimethylmorpholin-4-yl)carbonyl-2,4-dimethyl-1H-pyrrole-3-carboxylate

> <PUBCHEM_IUPAC_TRADITIONAL_NAME>
5-(2,6-dimethylmorpholine-4-carbonyl)-2,4-dimethyl-1H-pyrrole-3-carboxylic acid methyl ester

> <PUBCHEM_IUPAC_INCHI>
InChI=1S/C15H22N2O4/c1-8-6-17(7-9(2)21-8)14(18)13-10(3)12(11(4)16-13)15(19)20-5/h8-9,16H,6-7H2,1-5H3

> <PUBCHEM_IUPAC_INCHIKEY>
WARZNIQEKKHDME-UHFFFAOYSA-N

> <PUBCHEM_XLOGP3_AA>
1.6

> <PUBCHEM_EXACT_MASS>
294.157957

> <PUBCHEM_MOLECULAR_FORMULA>
C15H22N2O4

> <PUBCHEM_MOLECULAR_WEIGHT>
294.34618

> <PUBCHEM_OPENEYE_CAN_SMILES>
CC1CN(CC(O1)C)C(=O)C2=C(C(=C(N2)C)C(=O)OC)C

> <PUBCHEM_OPENEYE_ISO_SMILES>
CC1CN(CC(O1)C)C(=O)C2=C(C(=C(N2)C)C(=O)OC)C

> <PUBCHEM_CACTVS_TPSA>
71.6

> <PUBCHEM_MONOISOTOPIC_WEIGHT>
294.157957

> <PUBCHEM_TOTAL_CHARGE>
0

> <PUBCHEM_HEAVY_ATOM_COUNT>
21

> <PUBCHEM_ATOM_DEF_STEREO_COUNT>
0

> <PUBCHEM_ATOM_UDEF_STEREO_COUNT>
2

> <PUBCHEM_BOND_DEF_STEREO_COUNT>
0

> <PUBCHEM_BOND_UDEF_STEREO_COUNT>
0

> <PUBCHEM_ISOTOPIC_ATOM_COUNT>
0

> <PUBCHEM_COMPONENT_COUNT>
1

> <PUBCHEM_CACTVS_TAUTO_COUNT>
10

> <PUBCHEM_COORDINATE_TYPE>
1
5
255

> <PUBCHEM_BONDANNOTATIONS>
10  12  3
14  15  8
15  16  8
16  17  8
6  14  8
6  17  8
9  13  3

$$$$

