12450
  -OEChem-06261206573D

 62 64  0     0  0  0  0  0  0999 V2000
   -4.5853   -1.9559    0.0763 N   0  3  0  0  0  0  0  0  0  0  0  0
    4.9393   -1.5155   -0.0692 N   0  0  0  0  0  0  0  0  0  0  0  0
   -0.0706    1.1055   -0.0044 C   0  0  0  0  0  0  0  0  0  0  0  0
   -1.1822    0.3517    0.0150 C   0  0  0  0  0  0  0  0  0  0  0  0
    1.2465    0.4165   -0.0214 C   0  0  0  0  0  0  0  0  0  0  0  0
   -3.5227   -1.2352    0.0577 C   0  0  0  0  0  0  0  0  0  0  0  0
    3.6898   -0.8618   -0.0531 C   0  0  0  0  0  0  0  0  0  0  0  0
   -4.5172   -3.4399    0.0793 C   0  0  0  0  0  0  0  0  0  0  0  0
   -5.9386   -1.3436    0.0958 C   0  0  0  0  0  0  0  0  0  0  0  0
    5.5648   -1.8724   -1.3272 C   0  0  0  0  0  0  0  0  0  0  0  0
    5.6080   -1.8516    1.1720 C   0  0  0  0  0  0  0  0  0  0  0  0
   -0.2218    2.5845   -0.0069 C   0  0  0  0  0  0  0  0  0  0  0  0
   -1.0820   -1.1000    0.0182 C   0  0  0  0  0  0  0  0  0  0  0  0
   -2.4936    0.9821    0.0333 C   0  0  0  0  0  0  0  0  0  0  0  0
    1.8535    0.1120    1.1788 C   0  0  0  0  0  0  0  0  0  0  0  0
    1.8183    0.1042   -1.2370 C   0  0  0  0  0  0  0  0  0  0  0  0
   -2.1784   -1.8702    0.0384 C   0  0  0  0  0  0  0  0  0  0  0  0
   -3.6149    0.2487    0.0540 C   0  0  0  0  0  0  0  0  0  0  0  0
    3.0895   -0.5344    1.1628 C   0  0  0  0  0  0  0  0  0  0  0  0
    3.0542   -0.5424   -1.2530 C   0  0  0  0  0  0  0  0  0  0  0  0
   -4.4471   -3.9337    1.5084 C   0  0  0  0  0  0  0  0  0  0  0  0
   -6.4057   -1.1190   -1.3264 C   0  0  0  0  0  0  0  0  0  0  0  0
    4.9890   -3.1656   -1.8792 C   0  0  0  0  0  0  0  0  0  0  0  0
    6.3504   -0.6528    1.7377 C   0  0  0  0  0  0  0  0  0  0  0  0
   -0.3071    3.2424   -1.2160 C   0  0  0  0  0  0  0  0  0  0  0  0
   -0.2719    3.2504    1.1998 C   0  0  0  0  0  0  0  0  0  0  0  0
   -0.4487    4.6301   -1.2186 C   0  0  0  0  0  0  0  0  0  0  0  0
   -0.4135    4.6381    1.1971 C   0  0  0  0  0  0  0  0  0  0  0  0
   -0.5020    5.3278   -0.0122 C   0  0  0  0  0  0  0  0  0  0  0  0
   -5.4386   -3.8108   -0.3860 H   0  0  0  0  0  0  0  0  0  0  0  0
   -3.7097   -3.8083   -0.5580 H   0  0  0  0  0  0  0  0  0  0  0  0
   -6.6127   -2.0544    0.5892 H   0  0  0  0  0  0  0  0  0  0  0  0
   -5.9669   -0.4467    0.7192 H   0  0  0  0  0  0  0  0  0  0  0  0
    6.6404   -2.0277   -1.1690 H   0  0  0  0  0  0  0  0  0  0  0  0
    5.5216   -1.0631   -2.0649 H   0  0  0  0  0  0  0  0  0  0  0  0
    6.3463   -2.6432    0.9873 H   0  0  0  0  0  0  0  0  0  0  0  0
    4.9288   -2.2917    1.9108 H   0  0  0  0  0  0  0  0  0  0  0  0
   -0.1303   -1.6179    0.0161 H   0  0  0  0  0  0  0  0  0  0  0  0
   -2.6224    2.0579    0.0198 H   0  0  0  0  0  0  0  0  0  0  0  0
    1.3944    0.3620    2.1312 H   0  0  0  0  0  0  0  0  0  0  0  0
    1.3315    0.3482   -2.1771 H   0  0  0  0  0  0  0  0  0  0  0  0
   -2.0331   -2.9415    0.0665 H   0  0  0  0  0  0  0  0  0  0  0  0
   -4.5569    0.7797    0.0403 H   0  0  0  0  0  0  0  0  0  0  0  0
    3.5289   -0.7552    2.1290 H   0  0  0  0  0  0  0  0  0  0  0  0
    3.4657   -0.7683   -2.2303 H   0  0  0  0  0  0  0  0  0  0  0  0
   -3.5455   -3.5837    2.0218 H   0  0  0  0  0  0  0  0  0  0  0  0
   -5.3115   -3.6026    2.0947 H   0  0  0  0  0  0  0  0  0  0  0  0
   -4.4352   -5.0284    1.5251 H   0  0  0  0  0  0  0  0  0  0  0  0
   -5.7596   -0.4196   -1.8671 H   0  0  0  0  0  0  0  0  0  0  0  0
   -6.4318   -2.0541   -1.8969 H   0  0  0  0  0  0  0  0  0  0  0  0
   -7.4185   -0.7032   -1.3257 H   0  0  0  0  0  0  0  0  0  0  0  0
    5.1223   -3.9864   -1.1660 H   0  0  0  0  0  0  0  0  0  0  0  0
    3.9200   -3.0910   -2.0973 H   0  0  0  0  0  0  0  0  0  0  0  0
    5.5018   -3.4399   -2.8066 H   0  0  0  0  0  0  0  0  0  0  0  0
    7.0914   -0.2815    1.0213 H   0  0  0  0  0  0  0  0  0  0  0  0
    5.6845    0.1797    1.9812 H   0  0  0  0  0  0  0  0  0  0  0  0
    6.8805   -0.9363    2.6525 H   0  0  0  0  0  0  0  0  0  0  0  0
   -0.2671    2.7094   -2.1618 H   0  0  0  0  0  0  0  0  0  0  0  0
   -0.2041    2.7239    2.1475 H   0  0  0  0  0  0  0  0  0  0  0  0
   -0.5176    5.1672   -2.1601 H   0  0  0  0  0  0  0  0  0  0  0  0
   -0.4552    5.1816    2.1364 H   0  0  0  0  0  0  0  0  0  0  0  0
   -0.6124    6.4083   -0.0141 H   0  0  0  0  0  0  0  0  0  0  0  0
  1  6  2  0  0  0  0
  1  8  1  0  0  0  0
  1  9  1  0  0  0  0
  2  7  1  0  0  0  0
  2 10  1  0  0  0  0
  2 11  1  0  0  0  0
  3  4  2  0  0  0  0
  3  5  1  0  0  0  0
  3 12  1  0  0  0  0
  4 13  1  0  0  0  0
  4 14  1  0  0  0  0
  5 15  2  0  0  0  0
  5 16  1  0  0  0  0
  6 17  1  0  0  0  0
  6 18  1  0  0  0  0
  7 19  2  0  0  0  0
  7 20  1  0  0  0  0
  8 21  1  0  0  0  0
  8 30  1  0  0  0  0
  8 31  1  0  0  0  0
  9 22  1  0  0  0  0
  9 32  1  0  0  0  0
  9 33  1  0  0  0  0
 10 23  1  0  0  0  0
 10 34  1  0  0  0  0
 10 35  1  0  0  0  0
 11 24  1  0  0  0  0
 11 36  1  0  0  0  0
 11 37  1  0  0  0  0
 12 25  2  0  0  0  0
 12 26  1  0  0  0  0
 13 17  2  0  0  0  0
 13 38  1  0  0  0  0
 14 18  2  0  0  0  0
 14 39  1  0  0  0  0
 15 19  1  0  0  0  0
 15 40  1  0  0  0  0
 16 20  2  0  0  0  0
 16 41  1  0  0  0  0
 17 42  1  0  0  0  0
 18 43  1  0  0  0  0
 19 44  1  0  0  0  0
 20 45  1  0  0  0  0
 21 46  1  0  0  0  0
 21 47  1  0  0  0  0
 21 48  1  0  0  0  0
 22 49  1  0  0  0  0
 22 50  1  0  0  0  0
 22 51  1  0  0  0  0
 23 52  1  0  0  0  0
 23 53  1  0  0  0  0
 23 54  1  0  0  0  0
 24 55  1  0  0  0  0
 24 56  1  0  0  0  0
 24 57  1  0  0  0  0
 25 27  1  0  0  0  0
 25 58  1  0  0  0  0
 26 28  2  0  0  0  0
 26 59  1  0  0  0  0
 27 29  2  0  0  0  0
 27 60  1  0  0  0  0
 28 29  1  0  0  0  0
 28 61  1  0  0  0  0
 29 62  1  0  0  0  0
M  CHG  1   1   1
M  END
> <PUBCHEM_COMPOUND_CID>
12450

> <PUBCHEM_CONFORMER_RMSD>
0.8

> <PUBCHEM_CONFORMER_DIVERSEORDER>
1
4
3
2

> <PUBCHEM_MMFF94_PARTIAL_CHARGES>
37
1 -0.09
10 0.37
11 0.37
12 0.03
13 -0.15
14 -0.15
15 -0.15
16 -0.15
17 -0.14
18 -0.14
19 -0.15
2 -0.84
20 -0.15
25 -0.15
26 -0.15
27 -0.15
28 -0.15
29 -0.15
3 -0.06
38 0.15
39 0.15
40 0.15
41 0.15
42 0.15
43 0.15
44 0.15
45 0.15
5 0.03
58 0.15
59 0.15
6 0.37
60 0.15
61 0.15
62 0.15
7 0.1
8 0.35
9 0.35

> <PUBCHEM_EFFECTIVE_ROTOR_COUNT>
7

> <PUBCHEM_PHARMACOPHORE_FEATURES>
4
1 2 cation
6 12 25 26 27 28 29 rings
6 4 6 13 14 17 18 rings
6 5 7 15 16 19 20 rings

> <PUBCHEM_HEAVY_ATOM_COUNT>
29

> <PUBCHEM_ATOM_DEF_STEREO_COUNT>
0

> <PUBCHEM_ATOM_UDEF_STEREO_COUNT>
0

> <PUBCHEM_BOND_DEF_STEREO_COUNT>
0

> <PUBCHEM_BOND_UDEF_STEREO_COUNT>
0

> <PUBCHEM_ISOTOPIC_ATOM_COUNT>
0

> <PUBCHEM_COMPONENT_COUNT>
1

> <PUBCHEM_CACTVS_TAUTO_COUNT>
1

> <PUBCHEM_CONFORMER_ID>
000030A200000001

> <PUBCHEM_MMFF94_ENERGY>
116.3202

> <PUBCHEM_FEATURE_SELFOVERLAP>
20.297

> <PUBCHEM_SHAPE_FINGERPRINT>
10169797 241 17268619907316693683
11056379 131 18194957672312817492
11331351 85 18113618997851695713
12342043 65 17604979481551565742
12516196 113 18409732828765628802
12788726 201 18129669736727878243
13004483 165 18409735049500850972
131258 43 18189594087252605324
13140716 1 18410011039530310392
13540713 4 17842286861689611091
13673619 4 17894906361094684594
13690498 29 18188480398217529158
13782708 43 17531804774756403086
13955234 65 17761201125503131697
14068700 675 18202285822954526452
14347424 109 17977646638758253915
15042514 8 18337383958941445877
15219462 58 17834156204797801418
15927050 60 17615121518186150719
17492 89 18051975814854698275
17686467 74 18411140226273687456
1813 80 18336260163199131301
19315092 285 16699529392630239424
19958102 18 17906737260353422508
20600515 1 18260818324164263233
20775438 99 17404593173372012891
21033648 29 16877931755216162051
21120745 212 18266156453328268308
21304303 172 18260544567734439513
21716022 299 17984676983654332892
21796203 349 17909232872354638674
23366157 5 17909830934066149989
23559900 14 18197224650957625747
24771750 20 17479726122596002036
255183 313 17975681003345175305
283562 15 18270122447376689538
3004659 81 18201995521809979902
3103668 31 18269839890802385453
3380486 145 17753082468850855148
4046055 4 18337107972627569453
437815 12 18408891732999257783
4408954 87 17172904487600472937
4409770 3 18055646250723935621
463206 1 18271806778890186523
613672 6 18408887321477819463
6673363 416 18337940218401963676
6697151 62 18266481831771499351
7399639 24 18187376419912870240
77188 2 18409729525962606653
9962374 69 18119251654403909311

> <PUBCHEM_SHAPE_MULTIPOLES>
586.84
13.21
6.28
1.5
3.63
8.94
-0.07
-19.78
-0.01
-3.82
0.13
1.58
-0.3
1.59

> <PUBCHEM_SHAPE_SELFOVERLAP>
1246.474

> <PUBCHEM_SHAPE_VOLUME>
326.7

> <PUBCHEM_COORDINATE_TYPE>
2
5
10

$$$$

