442767
  -OEChem-07051212592D

 37 39  0     0  0  0  0  0  0999 V2000
    8.1465    2.0346    0.0000 O   0  0  0  0  0  0  0  0  0  0  0  0
    8.1465   -2.0346    0.0000 O   0  0  0  0  0  0  0  0  0  0  0  0
    6.3981    2.0000    0.0000 O   0  0  0  0  0  0  0  0  0  0  0  0
    6.3981   -2.0000    0.0000 O   0  0  0  0  0  0  0  0  0  0  0  0
    4.6497    2.0346    0.0000 O   0  0  0  0  0  0  0  0  0  0  0  0
    2.8680   -1.0241    0.0000 O   0  0  0  0  0  0  0  0  0  0  0  0
    7.2641    0.5000    0.0000 C   0  0  0  0  0  0  0  0  0  0  0  0
    7.2641   -0.5000    0.0000 C   0  0  0  0  0  0  0  0  0  0  0  0
    5.5320    0.5000    0.0000 C   0  0  0  0  0  0  0  0  0  0  0  0
    5.5320   -0.5000    0.0000 C   0  0  0  0  0  0  0  0  0  0  0  0
    9.0641    0.5208    0.0000 C   0  0  0  0  0  0  0  0  0  0  0  0
    9.0641   -0.5208    0.0000 C   0  0  0  0  0  0  0  0  0  0  0  0
    8.1580    1.0347    0.0000 C   0  0  0  0  0  0  0  0  0  0  0  0
    8.1580   -1.0347    0.0000 C   0  0  0  0  0  0  0  0  0  0  0  0
    6.3981    1.0000    0.0000 C   0  0  0  0  0  0  0  0  0  0  0  0
    6.3981   -1.0000    0.0000 C   0  0  0  0  0  0  0  0  0  0  0  0
    4.6381    1.0347    0.0000 C   0  0  0  0  0  0  0  0  0  0  0  0
    4.6381   -1.0347    0.0000 C   0  0  0  0  0  0  0  0  0  0  0  0
    9.9282    1.0241    0.0000 C   0  0  0  0  0  0  0  0  0  0  0  0
    9.9282   -1.0241    0.0000 C   0  0  0  0  0  0  0  0  0  0  0  0
    3.7320   -0.5208    0.0000 C   0  0  0  0  0  0  0  0  0  0  0  0
    3.7320    0.5208    0.0000 C   0  0  0  0  0  0  0  0  0  0  0  0
    2.0000   -0.5275    0.0000 C   0  0  0  0  0  0  0  0  0  0  0  0
    4.6453   -1.6546    0.0000 H   0  0  0  0  0  0  0  0  0  0  0  0
   10.2403    0.4884    0.0000 H   0  0  0  0  0  0  0  0  0  0  0  0
   10.4639    1.3362    0.0000 H   0  0  0  0  0  0  0  0  0  0  0  0
    9.6161    1.5599    0.0000 H   0  0  0  0  0  0  0  0  0  0  0  0
    9.6161   -1.5599    0.0000 H   0  0  0  0  0  0  0  0  0  0  0  0
   10.4639   -1.3362    0.0000 H   0  0  0  0  0  0  0  0  0  0  0  0
   10.2403   -0.4884    0.0000 H   0  0  0  0  0  0  0  0  0  0  0  0
    3.1963    0.8329    0.0000 H   0  0  0  0  0  0  0  0  0  0  0  0
    8.6798    2.3508    0.0000 H   0  0  0  0  0  0  0  0  0  0  0  0
    8.6798   -2.3508    0.0000 H   0  0  0  0  0  0  0  0  0  0  0  0
    4.1164    2.3508    0.0000 H   0  0  0  0  0  0  0  0  0  0  0  0
    2.3079    0.0106    0.0000 H   0  0  0  0  0  0  0  0  0  0  0  0
    1.4619   -0.2196    0.0000 H   0  0  0  0  0  0  0  0  0  0  0  0
    1.6921   -1.0656    0.0000 H   0  0  0  0  0  0  0  0  0  0  0  0
  1 13  1  0  0  0  0
  1 32  1  0  0  0  0
  2 14  1  0  0  0  0
  2 33  1  0  0  0  0
  3 15  2  0  0  0  0
  4 16  2  0  0  0  0
  5 17  1  0  0  0  0
  5 34  1  0  0  0  0
  6 21  1  0  0  0  0
  6 23  1  0  0  0  0
  7  8  1  0  0  0  0
  7 13  2  0  0  0  0
  7 15  1  0  0  0  0
  8 14  2  0  0  0  0
  8 16  1  0  0  0  0
  9 10  2  0  0  0  0
  9 15  1  0  0  0  0
  9 17  1  0  0  0  0
 10 16  1  0  0  0  0
 10 18  1  0  0  0  0
 11 12  2  0  0  0  0
 11 13  1  0  0  0  0
 11 19  1  0  0  0  0
 12 14  1  0  0  0  0
 12 20  1  0  0  0  0
 17 22  2  0  0  0  0
 18 21  2  0  0  0  0
 18 24  1  0  0  0  0
 19 25  1  0  0  0  0
 19 26  1  0  0  0  0
 19 27  1  0  0  0  0
 20 28  1  0  0  0  0
 20 29  1  0  0  0  0
 20 30  1  0  0  0  0
 21 22  1  0  0  0  0
 22 31  1  0  0  0  0
 23 35  1  0  0  0  0
 23 36  1  0  0  0  0
 23 37  1  0  0  0  0
M  END
> <PUBCHEM_COMPOUND_CID>
442767

> <PUBCHEM_COMPOUND_CANONICALIZED>
1

> <PUBCHEM_CACTVS_COMPLEXITY>
505

> <PUBCHEM_CACTVS_HBOND_ACCEPTOR>
6

> <PUBCHEM_CACTVS_HBOND_DONOR>
3

> <PUBCHEM_CACTVS_ROTATABLE_BOND>
1

> <PUBCHEM_CACTVS_SUBSKEYS>
AAADccB4OAAAAAAAAAAAAAAAAAAAAAAAAAAwYMAAAAAAAADBQAAAGgAACAAADASAmAIyBoAABgCIAqBSAAACCAAkIAAAiAEGCMgMJzaGNRqAcWAl4BUIuYfL7PzO4QADCAAYAADCAAYQADAAAAAAAAAAAA==

> <PUBCHEM_IUPAC_OPENEYE_NAME>
1,4,5-trihydroxy-7-methoxy-2,3-dimethyl-anthracene-9,10-dione

> <PUBCHEM_IUPAC_CAS_NAME>
1,4,5-trihydroxy-7-methoxy-2,3-dimethylanthracene-9,10-dione

> <PUBCHEM_IUPAC_NAME>
1,4,5-trihydroxy-7-methoxy-2,3-dimethylanthracene-9,10-dione

> <PUBCHEM_IUPAC_SYSTEMATIC_NAME>
7-methoxy-2,3-dimethyl-1,4,5-tris(oxidanyl)anthracene-9,10-dione

> <PUBCHEM_IUPAC_TRADITIONAL_NAME>
1,4,5-trihydroxy-7-methoxy-2,3-dimethyl-9,10-anthraquinone

> <PUBCHEM_IUPAC_INCHI>
InChI=1S/C17H14O6/c1-6-7(2)15(20)13-12(14(6)19)16(21)9-4-8(23-3)5-10(18)11(9)17(13)22/h4-5,18-20H,1-3H3

> <PUBCHEM_IUPAC_INCHIKEY>
LYCLASMOMOWSCE-UHFFFAOYSA-N

> <PUBCHEM_XLOGP3_AA>
3.6

> <PUBCHEM_EXACT_MASS>
314.079038

> <PUBCHEM_MOLECULAR_FORMULA>
C17H14O6

> <PUBCHEM_MOLECULAR_WEIGHT>
314.28946

> <PUBCHEM_OPENEYE_CAN_SMILES>
CC1=C(C2=C(C(=C1C)O)C(=O)C3=C(C=C(C=C3C2=O)OC)O)O

> <PUBCHEM_OPENEYE_ISO_SMILES>
CC1=C(C2=C(C(=C1C)O)C(=O)C3=C(C=C(C=C3C2=O)OC)O)O

> <PUBCHEM_CACTVS_TPSA>
104

> <PUBCHEM_MONOISOTOPIC_WEIGHT>
314.079038

> <PUBCHEM_TOTAL_CHARGE>
0

> <PUBCHEM_HEAVY_ATOM_COUNT>
23

> <PUBCHEM_ATOM_DEF_STEREO_COUNT>
0

> <PUBCHEM_ATOM_UDEF_STEREO_COUNT>
0

> <PUBCHEM_BOND_DEF_STEREO_COUNT>
0

> <PUBCHEM_BOND_UDEF_STEREO_COUNT>
0

> <PUBCHEM_ISOTOPIC_ATOM_COUNT>
0

> <PUBCHEM_COMPONENT_COUNT>
1

> <PUBCHEM_CACTVS_TAUTO_COUNT>
366

> <PUBCHEM_COORDINATE_TYPE>
1
5
255

> <PUBCHEM_BONDANNOTATIONS>
10  18  8
11  12  8
11  13  8
12  14  8
17  22  8
18  21  8
21  22  8
7  13  8
7  8  8
8  14  8
9  10  8
9  17  8

$$$$

