444450
  -OEChem-07051212502D

 35 37  0     1  0  0  0  0  0999 V2000
    8.4752    1.9346    0.0000 P   0  0  0  0  0  0  0  0  0  0  0  0
    5.9405    0.1702    0.0000 O   0  0  0  0  0  0  0  0  0  0  0  0
    3.4026    0.6746    0.0000 O   0  0  0  0  0  0  0  0  0  0  0  0
    4.6844    2.4324    0.0000 O   0  0  0  0  0  0  0  0  0  0  0  0
    7.6651    1.3482    0.0000 O   0  0  0  0  0  0  0  0  0  0  0  0
    9.2852    2.5210    0.0000 O   0  0  0  0  0  0  0  0  0  0  0  0
    9.0615    1.1246    0.0000 O   0  0  0  0  0  0  0  0  0  0  0  0
    7.8888    2.7446    0.0000 O   0  0  0  0  0  0  0  0  0  0  0  0
    4.6783   -1.0877    0.0000 N   0  0  0  0  0  0  0  0  0  0  0  0
    4.6783   -2.6972    0.0000 N   0  0  0  0  0  0  0  0  0  0  0  0
    2.8660   -0.8925    0.0000 N   0  0  0  0  0  0  0  0  0  0  0  0
    2.0000   -2.3925    0.0000 N   0  0  0  0  0  0  0  0  0  0  0  0
    4.4026    0.6728    0.0000 C   0  0  2  0  0  0  0  0  0  0  0  0
    4.9917    1.4808    0.0000 C   0  0  1  0  0  0  0  0  0  0  0  0
    4.9889   -0.1372    0.0000 C   0  0  1  0  0  0  0  0  0  0  0  0
    5.9422    1.1702    0.0000 C   0  0  1  0  0  0  0  0  0  0  0  0
    6.7523    1.7566    0.0000 C   0  0  0  0  0  0  0  0  0  0  0  0
    3.7320   -1.3924    0.0000 C   0  0  0  0  0  0  0  0  0  0  0  0
    5.2619   -1.8924    0.0000 C   0  0  0  0  0  0  0  0  0  0  0  0
    3.7320   -2.3925    0.0000 C   0  0  0  0  0  0  0  0  0  0  0  0
    2.8660   -2.8925    0.0000 C   0  0  0  0  0  0  0  0  0  0  0  0
    2.0000   -1.3924    0.0000 C   0  0  0  0  0  0  0  0  0  0  0  0
    4.1220    1.2257    0.0000 H   0  0  0  0  0  0  0  0  0  0  0  0
    5.4309    1.9185    0.0000 H   0  0  0  0  0  0  0  0  0  0  0  0
    5.4266   -0.5764    0.0000 H   0  0  0  0  0  0  0  0  0  0  0  0
    6.4942    0.8877    0.0000 H   0  0  0  0  0  0  0  0  0  0  0  0
    7.0999    2.2700    0.0000 H   0  0  0  0  0  0  0  0  0  0  0  0
    6.3070    2.1880    0.0000 H   0  0  0  0  0  0  0  0  0  0  0  0
    3.0935    1.2120    0.0000 H   0  0  0  0  0  0  0  0  0  0  0  0
    5.1000    2.8925    0.0000 H   0  0  0  0  0  0  0  0  0  0  0  0
    5.8819   -1.8924    0.0000 H   0  0  0  0  0  0  0  0  0  0  0  0
    2.8660   -3.5124    0.0000 H   0  0  0  0  0  0  0  0  0  0  0  0
    1.4631   -1.0824    0.0000 H   0  0  0  0  0  0  0  0  0  0  0  0
    9.8512    2.2678    0.0000 H   0  0  0  0  0  0  0  0  0  0  0  0
    8.8084    0.5586    0.0000 H   0  0  0  0  0  0  0  0  0  0  0  0
  1  5  1  0  0  0  0
  1  6  1  0  0  0  0
  1  7  1  0  0  0  0
  1  8  2  0  0  0  0
  2 15  1  0  0  0  0
  2 16  1  0  0  0  0
 13  3  1  6  0  0  0
  3 29  1  0  0  0  0
 14  4  1  6  0  0  0
  4 30  1  0  0  0  0
  5 17  1  0  0  0  0
  6 34  1  0  0  0  0
  7 35  1  0  0  0  0
 15  9  1  1  0  0  0
  9 18  1  0  0  0  0
  9 19  1  0  0  0  0
 10 19  2  0  0  0  0
 10 20  1  0  0  0  0
 11 18  2  0  0  0  0
 11 22  1  0  0  0  0
 12 21  1  0  0  0  0
 12 22  2  0  0  0  0
 13 14  1  0  0  0  0
 13 15  1  0  0  0  0
 13 23  1  0  0  0  0
 14 16  1  0  0  0  0
 14 24  1  0  0  0  0
 15 25  1  0  0  0  0
 16 17  1  1  0  0  0
 16 26  1  0  0  0  0
 17 27  1  0  0  0  0
 17 28  1  0  0  0  0
 18 20  1  0  0  0  0
 19 31  1  0  0  0  0
 20 21  2  0  0  0  0
 21 32  1  0  0  0  0
 22 33  1  0  0  0  0
M  END
> <PUBCHEM_COMPOUND_CID>
444450

> <PUBCHEM_COMPOUND_CANONICALIZED>
1

> <PUBCHEM_CACTVS_COMPLEXITY>
451

> <PUBCHEM_CACTVS_HBOND_ACCEPTOR>
10

> <PUBCHEM_CACTVS_HBOND_DONOR>
4

> <PUBCHEM_CACTVS_ROTATABLE_BOND>
4

> <PUBCHEM_CACTVS_SUBSKEYS>
AAADccBzuAIAAAAAAAAAAAAAAAAAAWJAAAAsAAAAAAAAAFgB+AAAHgAACCAACBzhlwYt8L8MFxCgQRZnZICAgC0REqABUCA4dBCDWIJAyEAeRAgPAALTACDwMAIAAAAAAAAAAAAAAAAAAAAAAAAAAAAAAA==

> <PUBCHEM_IUPAC_OPENEYE_NAME>
[(2R,3S,4R,5R)-3,4-dihydroxy-5-purin-9-yl-tetrahydrofuran-2-yl]methyl dihydrogen phosphate

> <PUBCHEM_IUPAC_CAS_NAME>
[(2R,3S,4R,5R)-3,4-dihydroxy-5-(9-purinyl)-2-oxolanyl]methyl dihydrogen phosphate

> <PUBCHEM_IUPAC_NAME>
[(2R,3S,4R,5R)-3,4-dihydroxy-5-purin-9-yloxolan-2-yl]methyl dihydrogen phosphate

> <PUBCHEM_IUPAC_SYSTEMATIC_NAME>
[(2R,3S,4R,5R)-3,4-bis(oxidanyl)-5-purin-9-yl-oxolan-2-yl]methyl dihydrogen phosphate

> <PUBCHEM_IUPAC_TRADITIONAL_NAME>
[(2R,3S,4R,5R)-3,4-dihydroxy-5-purin-9-yl-tetrahydrofuran-2-yl]methyl dihydrogen phosphate

> <PUBCHEM_IUPAC_INCHI>
InChI=1S/C10H13N4O7P/c15-7-6(2-20-22(17,18)19)21-10(8(7)16)14-4-13-5-1-11-3-12-9(5)14/h1,3-4,6-8,10,15-16H,2H2,(H2,17,18,19)/t6-,7-,8-,10-/m1/s1

> <PUBCHEM_IUPAC_INCHIKEY>
MCWDCZIDTUQRHK-FDDDBJFASA-N

> <PUBCHEM_XLOGP3>
-3.2

> <PUBCHEM_EXACT_MASS>
332.052185

> <PUBCHEM_MOLECULAR_FORMULA>
C10H13N4O7P

> <PUBCHEM_MOLECULAR_WEIGHT>
332.206582

> <PUBCHEM_OPENEYE_CAN_SMILES>
C1=C2C(=NC=N1)N(C=N2)C3C(C(C(O3)COP(=O)(O)O)O)O

> <PUBCHEM_OPENEYE_ISO_SMILES>
C1=C2C(=NC=N1)N(C=N2)[C@H]3[C@@H]([C@@H]([C@H](O3)COP(=O)(O)O)O)O

> <PUBCHEM_CACTVS_TPSA>
160

> <PUBCHEM_MONOISOTOPIC_WEIGHT>
332.052185

> <PUBCHEM_TOTAL_CHARGE>
0

> <PUBCHEM_HEAVY_ATOM_COUNT>
22

> <PUBCHEM_ATOM_DEF_STEREO_COUNT>
4

> <PUBCHEM_ATOM_UDEF_STEREO_COUNT>
0

> <PUBCHEM_BOND_DEF_STEREO_COUNT>
0

> <PUBCHEM_BOND_UDEF_STEREO_COUNT>
0

> <PUBCHEM_ISOTOPIC_ATOM_COUNT>
0

> <PUBCHEM_COMPONENT_COUNT>
1

> <PUBCHEM_CACTVS_TAUTO_COUNT>
1

> <PUBCHEM_COORDINATE_TYPE>
1
5
255

> <PUBCHEM_BONDANNOTATIONS>
10  19  8
10  20  8
11  18  8
11  22  8
12  21  8
12  22  8
16  17  5
18  20  8
20  21  8
13  3  6
14  4  6
15  9  5
9  18  8
9  19  8

$$$$

