442154
  -OEChem-07051212573D

 34 36  0     1  0  0  0  0  0999 V2000
    0.2051    0.7484   -0.1989 O   0  0  0  0  0  0  0  0  0  0  0  0
   -0.9417   -2.7643   -0.0177 O   0  0  0  0  0  0  0  0  0  0  0  0
    4.1612   -2.0161    0.2047 O   0  0  0  0  0  0  0  0  0  0  0  0
    4.5020    2.7244   -0.0187 O   0  0  0  0  0  0  0  0  0  0  0  0
   -6.0020    0.9423    0.3992 O   0  0  0  0  0  0  0  0  0  0  0  0
   -0.1471   -1.6351    0.3296 C   0  0  2  0  0  0  0  0  0  0  0  0
   -0.5774   -0.4180   -0.5012 C   0  0  1  0  0  0  0  0  0  0  0  0
    1.3158   -1.9557    0.0347 C   0  0  0  0  0  0  0  0  0  0  0  0
    2.1490   -0.7101    0.0206 C   0  0  0  0  0  0  0  0  0  0  0  0
    1.5568    0.5511   -0.1058 C   0  0  0  0  0  0  0  0  0  0  0  0
   -2.0305   -0.0531   -0.2596 C   0  0  0  0  0  0  0  0  0  0  0  0
    3.5446   -0.8033    0.1066 C   0  0  0  0  0  0  0  0  0  0  0  0
    2.3472    1.7037   -0.1068 C   0  0  0  0  0  0  0  0  0  0  0  0
   -2.9298   -0.0464   -1.3234 C   0  0  0  0  0  0  0  0  0  0  0  0
   -2.4600    0.2729    1.0247 C   0  0  0  0  0  0  0  0  0  0  0  0
    4.3329    0.3476    0.0933 C   0  0  0  0  0  0  0  0  0  0  0  0
    3.7340    1.6009   -0.0094 C   0  0  0  0  0  0  0  0  0  0  0  0
   -4.2657    0.2881   -1.1017 C   0  0  0  0  0  0  0  0  0  0  0  0
   -3.7958    0.6075    1.2466 C   0  0  0  0  0  0  0  0  0  0  0  0
   -4.6986    0.6152    0.1834 C   0  0  0  0  0  0  0  0  0  0  0  0
   -0.2622   -1.4416    1.4032 H   0  0  0  0  0  0  0  0  0  0  0  0
   -0.4484   -0.6406   -1.5702 H   0  0  0  0  0  0  0  0  0  0  0  0
    1.4050   -2.4578   -0.9374 H   0  0  0  0  0  0  0  0  0  0  0  0
    1.6788   -2.6637    0.7899 H   0  0  0  0  0  0  0  0  0  0  0  0
    1.8755    2.6802   -0.1900 H   0  0  0  0  0  0  0  0  0  0  0  0
   -0.6298   -3.5162    0.5142 H   0  0  0  0  0  0  0  0  0  0  0  0
   -2.6075   -0.2992   -2.3298 H   0  0  0  0  0  0  0  0  0  0  0  0
   -1.7699    0.2835    1.8636 H   0  0  0  0  0  0  0  0  0  0  0  0
    5.4156    0.2755    0.1637 H   0  0  0  0  0  0  0  0  0  0  0  0
   -4.9591    0.2903   -1.9384 H   0  0  0  0  0  0  0  0  0  0  0  0
   -4.1267    0.8638    2.2493 H   0  0  0  0  0  0  0  0  0  0  0  0
    5.1233   -1.8827    0.2537 H   0  0  0  0  0  0  0  0  0  0  0  0
    3.9229    3.5020   -0.0965 H   0  0  0  0  0  0  0  0  0  0  0  0
   -6.4825    0.8963   -0.4453 H   0  0  0  0  0  0  0  0  0  0  0  0
  1  7  1  0  0  0  0
  1 10  1  0  0  0  0
  2  6  1  0  0  0  0
  2 26  1  0  0  0  0
  3 12  1  0  0  0  0
  3 32  1  0  0  0  0
  4 17  1  0  0  0  0
  4 33  1  0  0  0  0
  5 20  1  0  0  0  0
  5 34  1  0  0  0  0
  6  7  1  0  0  0  0
  6  8  1  0  0  0  0
  6 21  1  0  0  0  0
  7 11  1  0  0  0  0
  7 22  1  0  0  0  0
  8  9  1  0  0  0  0
  8 23  1  0  0  0  0
  8 24  1  0  0  0  0
  9 10  1  0  0  0  0
  9 12  2  0  0  0  0
 10 13  2  0  0  0  0
 11 14  2  0  0  0  0
 11 15  1  0  0  0  0
 12 16  1  0  0  0  0
 13 17  1  0  0  0  0
 13 25  1  0  0  0  0
 14 18  1  0  0  0  0
 14 27  1  0  0  0  0
 15 19  2  0  0  0  0
 15 28  1  0  0  0  0
 16 17  2  0  0  0  0
 16 29  1  0  0  0  0
 18 20  2  0  0  0  0
 18 30  1  0  0  0  0
 19 20  1  0  0  0  0
 19 31  1  0  0  0  0
M  END
> <PUBCHEM_COMPOUND_CID>
442154

> <PUBCHEM_CONFORMER_RMSD>
0.6

> <PUBCHEM_CONFORMER_DIVERSEORDER>
1
2
3
4

> <PUBCHEM_MMFF94_PARTIAL_CHARGES>
30
1 -0.36
10 0.08
11 -0.14
12 0.08
13 -0.15
14 -0.15
15 -0.15
16 -0.15
17 0.08
18 -0.15
19 -0.15
2 -0.68
20 0.08
25 0.15
26 0.4
27 0.15
28 0.15
29 0.15
3 -0.53
30 0.15
31 0.15
32 0.45
33 0.45
34 0.45
4 -0.53
5 -0.53
6 0.28
7 0.42
8 0.14
9 -0.14

> <PUBCHEM_EFFECTIVE_ROTOR_COUNT>
1.8

> <PUBCHEM_PHARMACOPHORE_FEATURES>
9
1 1 acceptor
1 2 acceptor
1 2 donor
1 3 donor
1 4 donor
1 5 donor
6 1 6 7 8 9 10 rings
6 11 14 15 18 19 20 rings
6 9 10 12 13 16 17 rings

> <PUBCHEM_HEAVY_ATOM_COUNT>
20

> <PUBCHEM_ATOM_DEF_STEREO_COUNT>
2

> <PUBCHEM_ATOM_UDEF_STEREO_COUNT>
0

> <PUBCHEM_BOND_DEF_STEREO_COUNT>
0

> <PUBCHEM_BOND_UDEF_STEREO_COUNT>
0

> <PUBCHEM_ISOTOPIC_ATOM_COUNT>
0

> <PUBCHEM_COMPONENT_COUNT>
1

> <PUBCHEM_CACTVS_TAUTO_COUNT>
18

> <PUBCHEM_CONFORMER_ID>
0006BF2A00000001

> <PUBCHEM_MMFF94_ENERGY>
57.9996

> <PUBCHEM_FEATURE_SELFOVERLAP>
45.698

> <PUBCHEM_SHAPE_FINGERPRINT>
10411042 1 17762618795318707482
11089746 13 17749109946752051688
11471102 20 18411983580955167630
11543360 7 16081652171268480644
12107183 9 17613429369706510513
12236239 1 17967255329939972493
12390115 104 17979342072402357724
12403259 415 17988928902751275461
12616971 3 18260272979465872023
12633257 1 18341624698307239026
12644460 14 18201725076303542938
12788726 201 17531231881605551504
13140716 1 18341896260320550306
13167372 99 18189611812714803273
13583140 156 16127837178446515124
13675066 3 17775565325364272828
13760787 5 18335989730857729965
14739800 52 17313966129726560920
14848178 96 18118126875013987312
15196674 1 18411138000304559427
15342168 16 18341608170767039301
15475509 35 16414927451862063936
15848702 151 17896598581818682062
16945 1 18412266172781884142
1813 80 17681824443247278838
18186145 218 18409448094093090686
200 152 18261117387469296701
204376 136 18412543189265926435
20612939 158 18409449202215836452
20645477 56 18059300872375584060
20645477 70 18340772627855571038
21033648 144 18338809918127358092
21033648 29 17774736319393530061
21033650 10 16444163422878793304
22079108 93 18337107874428136859
22854114 59 18272650151689512549
23184049 59 18342736329689172004
23402539 116 17821734939849107749
23402655 69 18187931638234263788
23559900 14 18334297553030996018
25147074 1 18265912284590237518
335352 9 18410855456809179958
34797466 226 14851892404629865777
34934 24 18338521833533542888
350125 39 18339922739906685404
4340502 62 18340756114508060979
474 4 18335137600655983531
5104073 3 18270688558652972354
5283173 99 7204230490458117731
602551 16 15984810511240220897
633830 44 18260259780804615679
69090 78 18411986840450522239
76465 3 8790345308595760388
8272917 22 18335136543941236527
9971528 1 18041564745366934702
9981440 41 17103434786422895504
9999458 23 18202561804547096870

> <PUBCHEM_SHAPE_MULTIPOLES>
382.24
10.64
2.17
0.93
5.42
0.47
-0.03
-4.68
0.61
-2.67
0.09
1.06
-0.07
-0.39

> <PUBCHEM_SHAPE_SELFOVERLAP>
842.074

> <PUBCHEM_SHAPE_VOLUME>
204.8

> <PUBCHEM_COORDINATE_TYPE>
2
5
10

$$$$

