5280698
  -OEChem-07051212493D

 36 37  0     0  0  0  0  0  0999 V2000
   -5.2776    1.3682    0.1967 O   0  0  0  0  0  0  0  0  0  0  0  0
    5.1982   -1.0757    1.0453 O   0  0  0  0  0  0  0  0  0  0  0  0
   -5.8797   -1.3103   -0.2387 O   0  0  0  0  0  0  0  0  0  0  0  0
    5.8694    1.3260   -0.1827 O   0  0  0  0  0  0  0  0  0  0  0  0
   -1.9302   -0.0300   -0.2528 C   0  0  0  0  0  0  0  0  0  0  0  0
    1.9360    0.0606   -0.1051 C   0  0  0  0  0  0  0  0  0  0  0  0
   -0.5452    0.4139   -0.2586 C   0  0  0  0  0  0  0  0  0  0  0  0
    0.5322   -0.3866   -0.0798 C   0  0  0  0  0  0  0  0  0  0  0  0
   -2.9562    0.8881   -0.0289 C   0  0  0  0  0  0  0  0  0  0  0  0
    2.9096   -0.7269    0.4874 C   0  0  0  0  0  0  0  0  0  0  0  0
   -4.2844    0.4621   -0.0232 C   0  0  0  0  0  0  0  0  0  0  0  0
    4.2384   -0.3035    0.4635 C   0  0  0  0  0  0  0  0  0  0  0  0
   -2.2325   -1.3743   -0.4710 C   0  0  0  0  0  0  0  0  0  0  0  0
    2.2547    1.2601   -0.7207 C   0  0  0  0  0  0  0  0  0  0  0  0
   -4.5866   -0.8820   -0.2415 C   0  0  0  0  0  0  0  0  0  0  0  0
    4.5753    0.9018   -0.1525 C   0  0  0  0  0  0  0  0  0  0  0  0
   -3.5607   -1.8003   -0.4653 C   0  0  0  0  0  0  0  0  0  0  0  0
    3.5834    1.6837   -0.7445 C   0  0  0  0  0  0  0  0  0  0  0  0
   -5.6742    1.5792    1.5504 C   0  0  0  0  0  0  0  0  0  0  0  0
    5.8301   -2.0541    0.2220 C   0  0  0  0  0  0  0  0  0  0  0  0
   -0.4186    1.4834   -0.4035 H   0  0  0  0  0  0  0  0  0  0  0  0
    0.4081   -1.4480    0.1176 H   0  0  0  0  0  0  0  0  0  0  0  0
   -2.7328    1.9388    0.1433 H   0  0  0  0  0  0  0  0  0  0  0  0
    2.6557   -1.6668    0.9718 H   0  0  0  0  0  0  0  0  0  0  0  0
   -1.4705   -2.1216   -0.6718 H   0  0  0  0  0  0  0  0  0  0  0  0
    1.5202    1.8889   -1.2136 H   0  0  0  0  0  0  0  0  0  0  0  0
   -3.7831   -2.8494   -0.6414 H   0  0  0  0  0  0  0  0  0  0  0  0
    3.8333    2.6223   -1.2321 H   0  0  0  0  0  0  0  0  0  0  0  0
   -5.8965   -2.2685   -0.4051 H   0  0  0  0  0  0  0  0  0  0  0  0
    5.9127    2.1780   -0.6499 H   0  0  0  0  0  0  0  0  0  0  0  0
   -4.8357    1.9637    2.1398 H   0  0  0  0  0  0  0  0  0  0  0  0
   -6.0494    0.6505    1.9918 H   0  0  0  0  0  0  0  0  0  0  0  0
   -6.4777    2.3206    1.5604 H   0  0  0  0  0  0  0  0  0  0  0  0
    6.5743   -2.5808    0.8256 H   0  0  0  0  0  0  0  0  0  0  0  0
    6.3379   -1.5778   -0.6225 H   0  0  0  0  0  0  0  0  0  0  0  0
    5.0964   -2.7805   -0.1416 H   0  0  0  0  0  0  0  0  0  0  0  0
  1 11  1  0  0  0  0
  1 19  1  0  0  0  0
  2 12  1  0  0  0  0
  2 20  1  0  0  0  0
  3 15  1  0  0  0  0
  3 29  1  0  0  0  0
  4 16  1  0  0  0  0
  4 30  1  0  0  0  0
  5  7  1  0  0  0  0
  5  9  2  0  0  0  0
  5 13  1  0  0  0  0
  6  8  1  0  0  0  0
  6 10  2  0  0  0  0
  6 14  1  0  0  0  0
  7  8  2  0  0  0  0
  7 21  1  0  0  0  0
  8 22  1  0  0  0  0
  9 11  1  0  0  0  0
  9 23  1  0  0  0  0
 10 12  1  0  0  0  0
 10 24  1  0  0  0  0
 11 15  2  0  0  0  0
 12 16  2  0  0  0  0
 13 17  2  0  0  0  0
 13 25  1  0  0  0  0
 14 18  2  0  0  0  0
 14 26  1  0  0  0  0
 15 17  1  0  0  0  0
 16 18  1  0  0  0  0
 17 27  1  0  0  0  0
 18 28  1  0  0  0  0
 19 31  1  0  0  0  0
 19 32  1  0  0  0  0
 19 33  1  0  0  0  0
 20 34  1  0  0  0  0
 20 35  1  0  0  0  0
 20 36  1  0  0  0  0
M  END
> <PUBCHEM_COMPOUND_CID>
5280698

> <PUBCHEM_CONFORMER_RMSD>
0.6

> <PUBCHEM_CONFORMER_DIVERSEORDER>
7
4
5
3
8
6
1
9
2

> <PUBCHEM_MMFF94_PARTIAL_CHARGES>
30
1 -0.36
10 -0.15
11 0.08
12 0.08
13 -0.15
14 -0.15
15 0.08
16 0.08
17 -0.15
18 -0.15
19 0.28
2 -0.36
20 0.28
21 0.15
22 0.15
23 0.15
24 0.15
25 0.15
26 0.15
27 0.15
28 0.15
29 0.45
3 -0.53
30 0.45
4 -0.53
5 0.03
6 0.03
7 -0.18
8 -0.18
9 -0.15

> <PUBCHEM_EFFECTIVE_ROTOR_COUNT>
4

> <PUBCHEM_PHARMACOPHORE_FEATURES>
6
1 1 acceptor
1 2 acceptor
1 3 donor
1 4 donor
6 5 9 11 13 15 17 rings
6 6 10 12 14 16 18 rings

> <PUBCHEM_HEAVY_ATOM_COUNT>
20

> <PUBCHEM_ATOM_DEF_STEREO_COUNT>
0

> <PUBCHEM_ATOM_UDEF_STEREO_COUNT>
0

> <PUBCHEM_BOND_DEF_STEREO_COUNT>
1

> <PUBCHEM_BOND_UDEF_STEREO_COUNT>
0

> <PUBCHEM_ISOTOPIC_ATOM_COUNT>
0

> <PUBCHEM_COMPONENT_COUNT>
1

> <PUBCHEM_CACTVS_TAUTO_COUNT>
5

> <PUBCHEM_CONFORMER_ID>
005093BA00000007

> <PUBCHEM_MMFF94_ENERGY>
80.4558

> <PUBCHEM_FEATURE_SELFOVERLAP>
30.446

> <PUBCHEM_SHAPE_FINGERPRINT>
10595046 47 18266459806419329340
10912923 1 18412263908917121417
11089746 13 17095817588998444529
11315181 36 18409731729807642065
11405975 8 18410573967976902456
11796584 16 17894628154582961374
12107183 9 17835807769245070080
12236239 1 18410856559645070840
12596602 18 18408041805583049569
12616971 3 18272367577043016125
13073987 5 18337110077203008273
13167372 99 18337106864483588040
13167823 11 18341898467537964790
13533116 47 18410578383873455610
13785724 45 17975692011583776694
1420 363 16271923822312062033
14251764 18 18408882928479830905
14341114 176 18201716275667782564
15183329 4 18411138060454940958
15196674 1 18412546500595976014
15250474 111 18336841783645401446
15788980 27 18342175565826585995
17834072 33 18412266099308257438
17844677 252 18273495701774735732
1813 80 17203325637118507430
19489759 90 17530686520043632323
200 152 18411704257414154887
20281389 69 18411418427810637225
20645477 70 18273219707793537866
21033648 29 15357695314116732857
21065198 48 18410856542465221253
21267235 1 18343016696548827246
220451 1 18342170064342719126
2303208 19 15913326905174224387
23081809 10 18333734610775751541
23402539 116 18260835908018433325
23522609 53 18197751423758844348
23536379 177 18410012139052117386
23559900 14 18266188244812843057
23569943 247 17630900506298451746
300161 21 18411143515058287948
3004659 81 18411417332836290550
314173 85 16200155395426398669
34797466 226 17241036588006856012
4214541 1 18411139138792451509
5104073 3 18411419479544284329
542803 24 18187365423884157653
559249 180 18410016567564702815
573450 72 18335707122036078623
5758199 1 18200313213712362976
7495541 125 18113904805754050088
77779 3 18341051830614948190
9971528 1 17917994962747972188

> <PUBCHEM_SHAPE_MULTIPOLES>
388.11
16.18
1.89
0.89
0.26
0.25
-0.19
0.34
-2.95
0.2
0.01
-0.27
-0.17
-2.02

> <PUBCHEM_SHAPE_SELFOVERLAP>
829.753

> <PUBCHEM_SHAPE_VOLUME>
216.7

> <PUBCHEM_COORDINATE_TYPE>
2
5
10

$$$$

