16590
  -OEChem-07051212553D

 18 17  0     0  0  0  0  0  0999 V2000
    0.8651    0.9643    0.5519 S   0  0  0  0  0  0  0  0  0  0  0  0
   -0.8663    0.9576   -0.5565 S   0  0  0  0  0  0  0  0  0  0  0  0
    1.8508   -0.2947   -0.3024 C   0  0  0  0  0  0  0  0  0  0  0  0
   -1.8507   -0.2914    0.3056 C   0  0  0  0  0  0  0  0  0  0  0  0
    3.1806   -0.4475    0.3631 C   0  0  0  0  0  0  0  0  0  0  0  0
   -3.1796   -0.4506   -0.3605 C   0  0  0  0  0  0  0  0  0  0  0  0
    4.3499   -0.2198   -0.2461 C   0  0  0  0  0  0  0  0  0  0  0  0
   -4.3498   -0.2180    0.2448 C   0  0  0  0  0  0  0  0  0  0  0  0
    1.3268   -1.2553   -0.2636 H   0  0  0  0  0  0  0  0  0  0  0  0
    1.9678   -0.0078   -1.3530 H   0  0  0  0  0  0  0  0  0  0  0  0
   -1.3271   -1.2527    0.2765 H   0  0  0  0  0  0  0  0  0  0  0  0
   -1.9700    0.0038    1.3537 H   0  0  0  0  0  0  0  0  0  0  0  0
    3.1948   -0.7886    1.3958 H   0  0  0  0  0  0  0  0  0  0  0  0
   -3.1922   -0.8012   -1.3900 H   0  0  0  0  0  0  0  0  0  0  0  0
    5.2836   -0.3610    0.2874 H   0  0  0  0  0  0  0  0  0  0  0  0
    4.3981    0.1092   -1.2781 H   0  0  0  0  0  0  0  0  0  0  0  0
   -5.2826   -0.3643   -0.2888 H   0  0  0  0  0  0  0  0  0  0  0  0
   -4.3998    0.1204    1.2738 H   0  0  0  0  0  0  0  0  0  0  0  0
  1  2  1  0  0  0  0
  1  3  1  0  0  0  0
  2  4  1  0  0  0  0
  3  5  1  0  0  0  0
  3  9  1  0  0  0  0
  3 10  1  0  0  0  0
  4  6  1  0  0  0  0
  4 11  1  0  0  0  0
  4 12  1  0  0  0  0
  5  7  2  0  0  0  0
  5 13  1  0  0  0  0
  6  8  2  0  0  0  0
  6 14  1  0  0  0  0
  7 15  1  0  0  0  0
  7 16  1  0  0  0  0
  8 17  1  0  0  0  0
  8 18  1  0  0  0  0
M  END
> <PUBCHEM_COMPOUND_CID>
16590

> <PUBCHEM_CONFORMER_RMSD>
0.6

> <PUBCHEM_CONFORMER_DIVERSEORDER>
3
15
34
61
56
24
33
54
23
13
59
29
26
1
42
36
4
30
27
11
46
6
44
60
2
31
48
35
39
52
47
57
40
9
14
32
55
62
53
8
51
22
20
28
41
43
37
58
25
50
21
38
7
16
10
17
49
12
18
45
19
5

> <PUBCHEM_MMFF94_PARTIAL_CHARGES>
14
1 -0.23
13 0.15
14 0.15
15 0.15
16 0.15
17 0.15
18 0.15
2 -0.23
3 0.37
4 0.37
5 -0.29
6 -0.29
7 -0.3
8 -0.3

> <PUBCHEM_EFFECTIVE_ROTOR_COUNT>
5

> <PUBCHEM_PHARMACOPHORE_FEATURES>
4
1 7 hydrophobe
1 8 hydrophobe
3 1 3 5 hydrophobe
3 2 4 6 hydrophobe

> <PUBCHEM_HEAVY_ATOM_COUNT>
8

> <PUBCHEM_ATOM_DEF_STEREO_COUNT>
0

> <PUBCHEM_ATOM_UDEF_STEREO_COUNT>
0

> <PUBCHEM_BOND_DEF_STEREO_COUNT>
0

> <PUBCHEM_BOND_UDEF_STEREO_COUNT>
0

> <PUBCHEM_ISOTOPIC_ATOM_COUNT>
0

> <PUBCHEM_COMPONENT_COUNT>
1

> <PUBCHEM_CACTVS_TAUTO_COUNT>
1

> <PUBCHEM_CONFORMER_ID>
000040CE00000003

> <PUBCHEM_MMFF94_ENERGY>
-3.6188

> <PUBCHEM_FEATURE_SELFOVERLAP>
20.349

> <PUBCHEM_SHAPE_FINGERPRINT>
11062470 55 18411136935104898442
114248 4 15841548561335765110
12815109 37 18410857663446410629
170605 34 9439410133094749913
18342897 14 17676487250232637001
20201158 50 18411417319239368602
20211469 26 18186519916585246432
20281407 28 18411983563400706664
20605781 2 9007065656089994179
20719005 15 18410573985156758370
21119208 17 15698000738408166243
21293036 1 15482671277433691628
22485316 2 18410860961981430370
23402539 116 8718546077945810099

> <PUBCHEM_SHAPE_MULTIPOLES>
172.34
8.6
0.98
0.79
0
0.24
0
-2.43
0
0
0
0
0.07
0.11

> <PUBCHEM_SHAPE_SELFOVERLAP>
283.36

> <PUBCHEM_SHAPE_VOLUME>
119.6

> <PUBCHEM_COORDINATE_TYPE>
2
5
10

$$$$

