5282167
  -OEChem-07051213032D

 95100  0     1  0  0  0  0  0999 V2000
    8.5991   -0.8450    0.0000 O   0  0  0  0  0  0  0  0  0  0  0  0
    7.7331   -2.3450    0.0000 O   0  0  0  0  0  0  0  0  0  0  0  0
    6.8671    0.1550    0.0000 O   0  0  0  0  0  0  0  0  0  0  0  0
   11.1972   -1.3450    0.0000 O   0  0  0  0  0  0  0  0  0  0  0  0
    5.1350    0.1550    0.0000 O   0  0  0  0  0  0  0  0  0  0  0  0
    5.1350   -0.8450    0.0000 O   0  0  0  0  0  0  0  0  0  0  0  0
    5.1350   -2.8450    0.0000 O   0  0  0  0  0  0  0  0  0  0  0  0
    8.5991   -2.8450    0.0000 O   0  0  0  0  0  0  0  0  0  0  0  0
   10.3312    0.1550    0.0000 O   0  0  0  0  0  0  0  0  0  0  0  0
   10.3312   -3.8450    0.0000 O   0  0  0  0  0  0  0  0  0  0  0  0
    6.8671    2.1550    0.0000 O   0  0  0  0  0  0  0  0  0  0  0  0
    5.1350    3.1550    0.0000 O   0  0  0  0  0  0  0  0  0  0  0  0
    3.4030    2.1550    0.0000 O   0  0  0  0  0  0  0  0  0  0  0  0
    6.0010   -4.3450    0.0000 O   0  0  0  0  0  0  0  0  0  0  0  0
   12.0632   -3.8450    0.0000 O   0  0  0  0  0  0  0  0  0  0  0  0
    2.5369    0.6550    0.0000 O   0  0  0  0  0  0  0  0  0  0  0  0
   12.0632    2.1550    0.0000 O   0  0  0  0  0  0  0  0  0  0  0  0
   12.0632   -0.8450    0.0000 O   0  0  0  0  0  0  0  0  0  0  0  0
   13.8116   -0.8796    0.0000 O   0  0  0  0  0  0  0  0  0  0  0  0
   15.5933    2.1792    0.0000 O   0  0  0  0  0  0  0  0  0  0  0  0
    9.4651    4.6550    0.0000 O   0  0  0  0  0  0  0  0  0  0  0  0
    7.7331    3.6550    0.0000 O   0  0  0  0  0  0  0  0  0  0  0  0
    6.8671   -0.8450    0.0000 C   0  0  1  0  0  0  0  0  0  0  0  0
    7.7331   -1.3450    0.0000 C   0  0  2  0  0  0  0  0  0  0  0  0
    6.0010   -1.3450    0.0000 C   0  0  2  0  0  0  0  0  0  0  0  0
    6.0010   -2.3450    0.0000 C   0  0  1  0  0  0  0  0  0  0  0  0
    9.4651   -1.3450    0.0000 C   0  0  2  0  0  0  0  0  0  0  0  0
    6.8671   -2.8450    0.0000 C   0  0  1  0  0  0  0  0  0  0  0  0
    9.4651   -2.3450    0.0000 C   0  0  2  0  0  0  0  0  0  0  0  0
    6.0010    0.6550    0.0000 C   0  0  2  0  0  0  0  0  0  0  0  0
   10.3312   -2.8450    0.0000 C   0  0  1  0  0  0  0  0  0  0  0  0
   10.3312   -0.8450    0.0000 C   0  0  1  0  0  0  0  0  0  0  0  0
    6.0010    1.6550    0.0000 C   0  0  1  0  0  0  0  0  0  0  0  0
   11.1972   -2.3450    0.0000 C   0  0  1  0  0  0  0  0  0  0  0  0
    5.1350    2.1550    0.0000 C   0  0  2  0  0  0  0  0  0  0  0  0
    4.2690    1.6550    0.0000 C   0  0  1  0  0  0  0  0  0  0  0  0
    4.2690    0.6550    0.0000 C   0  0  1  0  0  0  0  0  0  0  0  0
    6.8671   -3.8450    0.0000 C   0  0  0  0  0  0  0  0  0  0  0  0
   12.0632   -2.8450    0.0000 C   0  0  0  0  0  0  0  0  0  0  0  0
    3.4030    0.1550    0.0000 C   0  0  0  0  0  0  0  0  0  0  0  0
   11.1972    0.6550    0.0000 C   0  0  0  0  0  0  0  0  0  0  0  0
   11.1972    1.6550    0.0000 C   0  0  0  0  0  0  0  0  0  0  0  0
   12.0632    0.1550    0.0000 C   0  0  0  0  0  0  0  0  0  0  0  0
   12.9292    0.6550    0.0000 C   0  0  0  0  0  0  0  0  0  0  0  0
   10.3312    2.1550    0.0000 C   0  0  0  0  0  0  0  0  0  0  0  0
   12.9292    1.6550    0.0000 C   0  0  0  0  0  0  0  0  0  0  0  0
   13.8232    0.1203    0.0000 C   0  0  0  0  0  0  0  0  0  0  0  0
   13.8232    2.1897    0.0000 C   0  0  0  0  0  0  0  0  0  0  0  0
   10.3312    3.1550    0.0000 C   0  0  0  0  0  0  0  0  0  0  0  0
    9.4651    1.6550    0.0000 C   0  0  0  0  0  0  0  0  0  0  0  0
   14.7292    0.6342    0.0000 C   0  0  0  0  0  0  0  0  0  0  0  0
   14.7292    1.6758    0.0000 C   0  0  0  0  0  0  0  0  0  0  0  0
    9.4651    3.6550    0.0000 C   0  0  0  0  0  0  0  0  0  0  0  0
    8.5991    2.1550    0.0000 C   0  0  0  0  0  0  0  0  0  0  0  0
    8.5991    3.1550    0.0000 C   0  0  0  0  0  0  0  0  0  0  0  0
    6.3301   -0.5350    0.0000 H   0  0  0  0  0  0  0  0  0  0  0  0
    7.7331   -0.7250    0.0000 H   0  0  0  0  0  0  0  0  0  0  0  0
    5.4641   -1.6550    0.0000 H   0  0  0  0  0  0  0  0  0  0  0  0
    5.4641   -2.0350    0.0000 H   0  0  0  0  0  0  0  0  0  0  0  0
    9.4651   -0.7250    0.0000 H   0  0  0  0  0  0  0  0  0  0  0  0
    7.4040   -3.1550    0.0000 H   0  0  0  0  0  0  0  0  0  0  0  0
    9.4651   -2.9650    0.0000 H   0  0  0  0  0  0  0  0  0  0  0  0
    6.5380    0.9650    0.0000 H   0  0  0  0  0  0  0  0  0  0  0  0
   10.8681   -3.1550    0.0000 H   0  0  0  0  0  0  0  0  0  0  0  0
    9.7942   -0.5350    0.0000 H   0  0  0  0  0  0  0  0  0  0  0  0
    6.5380    1.3450    0.0000 H   0  0  0  0  0  0  0  0  0  0  0  0
   11.7341   -2.0350    0.0000 H   0  0  0  0  0  0  0  0  0  0  0  0
    5.6720    2.4650    0.0000 H   0  0  0  0  0  0  0  0  0  0  0  0
    4.2690    2.2750    0.0000 H   0  0  0  0  0  0  0  0  0  0  0  0
    4.2690    0.0350    0.0000 H   0  0  0  0  0  0  0  0  0  0  0  0
    7.0791   -4.4276    0.0000 H   0  0  0  0  0  0  0  0  0  0  0  0
    7.4776   -3.7373    0.0000 H   0  0  0  0  0  0  0  0  0  0  0  0
    4.5981   -1.1550    0.0000 H   0  0  0  0  0  0  0  0  0  0  0  0
   12.6738   -2.9527    0.0000 H   0  0  0  0  0  0  0  0  0  0  0  0
   12.2753   -2.2624    0.0000 H   0  0  0  0  0  0  0  0  0  0  0  0
    4.5981   -2.5350    0.0000 H   0  0  0  0  0  0  0  0  0  0  0  0
    3.0044   -0.3199    0.0000 H   0  0  0  0  0  0  0  0  0  0  0  0
    3.8015   -0.3199    0.0000 H   0  0  0  0  0  0  0  0  0  0  0  0
    8.5991   -3.4650    0.0000 H   0  0  0  0  0  0  0  0  0  0  0  0
    9.7942   -4.1550    0.0000 H   0  0  0  0  0  0  0  0  0  0  0  0
    6.8671    2.7750    0.0000 H   0  0  0  0  0  0  0  0  0  0  0  0
    4.5981    3.4650    0.0000 H   0  0  0  0  0  0  0  0  0  0  0  0
    3.4030    2.7750    0.0000 H   0  0  0  0  0  0  0  0  0  0  0  0
    6.0010   -4.9650    0.0000 H   0  0  0  0  0  0  0  0  0  0  0  0
   12.6002   -4.1550    0.0000 H   0  0  0  0  0  0  0  0  0  0  0  0
    2.0000    0.3450    0.0000 H   0  0  0  0  0  0  0  0  0  0  0  0
   13.8160    2.8096    0.0000 H   0  0  0  0  0  0  0  0  0  0  0  0
   10.8681    3.4650    0.0000 H   0  0  0  0  0  0  0  0  0  0  0  0
    9.4651    1.0350    0.0000 H   0  0  0  0  0  0  0  0  0  0  0  0
   15.2650    0.3221    0.0000 H   0  0  0  0  0  0  0  0  0  0  0  0
    8.0622    1.8450    0.0000 H   0  0  0  0  0  0  0  0  0  0  0  0
   14.3449   -1.1958    0.0000 H   0  0  0  0  0  0  0  0  0  0  0  0
   16.1315    1.8712    0.0000 H   0  0  0  0  0  0  0  0  0  0  0  0
   10.0021    4.9650    0.0000 H   0  0  0  0  0  0  0  0  0  0  0  0
    7.1962    3.3450    0.0000 H   0  0  0  0  0  0  0  0  0  0  0  0
 24  1  1  6  0  0  0
 27  1  1  1  0  0  0
  2 24  1  0  0  0  0
  2 28  1  0  0  0  0
 23  3  1  1  0  0  0
 30  3  1  6  0  0  0
  4 32  1  0  0  0  0
  4 34  1  0  0  0  0
  5 30  1  0  0  0  0
  5 37  1  0  0  0  0
 25  6  1  6  0  0  0
  6 73  1  0  0  0  0
 26  7  1  1  0  0  0
  7 76  1  0  0  0  0
 29  8  1  6  0  0  0
  8 79  1  0  0  0  0
 32  9  1  6  0  0  0
  9 41  1  0  0  0  0
 31 10  1  1  0  0  0
 10 80  1  0  0  0  0
 33 11  1  1  0  0  0
 11 81  1  0  0  0  0
 35 12  1  6  0  0  0
 12 82  1  0  0  0  0
 36 13  1  1  0  0  0
 13 83  1  0  0  0  0
 14 38  1  0  0  0  0
 14 84  1  0  0  0  0
 15 39  1  0  0  0  0
 15 85  1  0  0  0  0
 16 40  1  0  0  0  0
 16 86  1  0  0  0  0
 17 42  1  0  0  0  0
 17 46  1  0  0  0  0
 18 43  2  0  0  0  0
 19 47  1  0  0  0  0
 19 92  1  0  0  0  0
 20 52  1  0  0  0  0
 20 93  1  0  0  0  0
 21 53  1  0  0  0  0
 21 94  1  0  0  0  0
 22 55  1  0  0  0  0
 22 95  1  0  0  0  0
 23 24  1  0  0  0  0
 23 25  1  0  0  0  0
 23 56  1  0  0  0  0
 24 57  1  0  0  0  0
 25 26  1  0  0  0  0
 25 58  1  0  0  0  0
 26 28  1  0  0  0  0
 26 59  1  0  0  0  0
 27 29  1  0  0  0  0
 27 32  1  0  0  0  0
 27 60  1  0  0  0  0
 28 38  1  6  0  0  0
 28 61  1  0  0  0  0
 29 31  1  0  0  0  0
 29 62  1  0  0  0  0
 30 33  1  0  0  0  0
 30 63  1  0  0  0  0
 31 34  1  0  0  0  0
 31 64  1  0  0  0  0
 32 65  1  0  0  0  0
 33 35  1  0  0  0  0
 33 66  1  0  0  0  0
 34 39  1  6  0  0  0
 34 67  1  0  0  0  0
 35 36  1  0  0  0  0
 35 68  1  0  0  0  0
 36 37  1  0  0  0  0
 36 69  1  0  0  0  0
 37 40  1  6  0  0  0
 37 70  1  0  0  0  0
 38 71  1  0  0  0  0
 38 72  1  0  0  0  0
 39 74  1  0  0  0  0
 39 75  1  0  0  0  0
 40 77  1  0  0  0  0
 40 78  1  0  0  0  0
 41 42  2  0  0  0  0
 41 43  1  0  0  0  0
 42 45  1  0  0  0  0
 43 44  1  0  0  0  0
 44 46  1  0  0  0  0
 44 47  2  0  0  0  0
 45 49  2  0  0  0  0
 45 50  1  0  0  0  0
 46 48  2  0  0  0  0
 47 51  1  0  0  0  0
 48 52  1  0  0  0  0
 48 87  1  0  0  0  0
 49 53  1  0  0  0  0
 49 88  1  0  0  0  0
 50 54  2  0  0  0  0
 50 89  1  0  0  0  0
 51 52  2  0  0  0  0
 51 90  1  0  0  0  0
 53 55  2  0  0  0  0
 54 55  1  0  0  0  0
 54 91  1  0  0  0  0
M  END
> <PUBCHEM_COMPOUND_CID>
5282167

> <PUBCHEM_COMPOUND_CANONICALIZED>
1

> <PUBCHEM_CACTVS_COMPLEXITY>
1340

> <PUBCHEM_CACTVS_HBOND_ACCEPTOR>
22

> <PUBCHEM_CACTVS_HBOND_DONOR>
14

> <PUBCHEM_CACTVS_ROTATABLE_BOND>
10

> <PUBCHEM_CACTVS_SUBSKEYS>
AAADcfB8PgAAAAAAAAAAAAAAAAAAAAAAAAA0aJECAAAAAACBQAAAGgAACAAADBSwmAMwDoAABgCIAqBSAAICCAAkIAAIiAFGiMgdNzaGNR6ieWGl4BUPuQfI7LzOIAABCAAIQABAAAIQABCAAAAAAAAAAA==

> <PUBCHEM_IUPAC_OPENEYE_NAME>
3-[(2S,3R,4S,5S,6R)-3-[(2S,3R,4S,5S,6R)-4,5-dihydroxy-6-(hydroxymethyl)-3-[(2S,3R,4S,5S,6R)-3,4,5-trihydroxy-6-(hydroxymethyl)tetrahydropyran-2-yl]oxy-tetrahydropyran-2-yl]oxy-4,5-dihydroxy-6-(hydroxymethyl)tetrahydropyran-2-yl]oxy-2-(3,4-dihydroxyphenyl)-5,7-dihydroxy-chromen-4-one

> <PUBCHEM_IUPAC_CAS_NAME>
3-[[(2S,3R,4S,5S,6R)-3-[[(2S,3R,4S,5S,6R)-4,5-dihydroxy-6-(hydroxymethyl)-3-[[(2S,3R,4S,5S,6R)-3,4,5-trihydroxy-6-(hydroxymethyl)-2-oxanyl]oxy]-2-oxanyl]oxy]-4,5-dihydroxy-6-(hydroxymethyl)-2-oxanyl]oxy]-2-(3,4-dihydroxyphenyl)-5,7-dihydroxy-1-benzopyran-4-one

> <PUBCHEM_IUPAC_NAME>
3-[(2S,3R,4S,5S,6R)-3-[(2S,3R,4S,5S,6R)-4,5-dihydroxy-6-(hydroxymethyl)-3-[(2S,3R,4S,5S,6R)-3,4,5-trihydroxy-6-(hydroxymethyl)oxan-2-yl]oxyoxan-2-yl]oxy-4,5-dihydroxy-6-(hydroxymethyl)oxan-2-yl]oxy-2-(3,4-dihydroxyphenyl)-5,7-dihydroxychromen-4-one

> <PUBCHEM_IUPAC_SYSTEMATIC_NAME>
2-[3,4-bis(oxidanyl)phenyl]-3-[(2S,3R,4S,5S,6R)-6-(hydroxymethyl)-3-[(2S,3R,4S,5S,6R)-6-(hydroxymethyl)-3-[(2S,3R,4S,5S,6R)-6-(hydroxymethyl)-3,4,5-tris(oxidanyl)oxan-2-yl]oxy-4,5-bis(oxidanyl)oxan-2-yl]oxy-4,5-bis(oxidanyl)oxan-2-yl]oxy-5,7-bis(oxidanyl)chromen-4-one

> <PUBCHEM_IUPAC_TRADITIONAL_NAME>
3-[(2S,3R,4S,5S,6R)-3-[(2S,3R,4S,5S,6R)-4,5-dihydroxy-6-methylol-3-[(2S,3R,4S,5S,6R)-3,4,5-trihydroxy-6-methylol-tetrahydropyran-2-yl]oxy-tetrahydropyran-2-yl]oxy-4,5-dihydroxy-6-methylol-tetrahydropyran-2-yl]oxy-2-(3,4-dihydroxyphenyl)-5,7-dihydroxy-chromone

> <PUBCHEM_IUPAC_INCHI>
InChI=1S/C33H40O22/c34-6-15-19(41)23(45)26(48)31(50-15)54-29-24(46)20(42)17(8-36)52-33(29)55-30-25(47)21(43)16(7-35)51-32(30)53-28-22(44)18-13(40)4-10(37)5-14(18)49-27(28)9-1-2-11(38)12(39)3-9/h1-5,15-17,19-21,23-26,29-43,45-48H,6-8H2/t15-,16-,17-,19-,20-,21-,23+,24+,25+,26-,29-,30-,31+,32+,33+/m1/s1

> <PUBCHEM_IUPAC_INCHIKEY>
IQBMWEYFKNVACH-MEBVLIOMSA-N

> <PUBCHEM_XLOGP3_AA>
-2.8

> <PUBCHEM_EXACT_MASS>
788.201123

> <PUBCHEM_MOLECULAR_FORMULA>
C33H40O22

> <PUBCHEM_MOLECULAR_WEIGHT>
788.6575

> <PUBCHEM_OPENEYE_CAN_SMILES>
C1=CC(=C(C=C1C2=C(C(=O)C3=C(C=C(C=C3O2)O)O)OC4C(C(C(C(O4)CO)O)O)OC5C(C(C(C(O5)CO)O)O)OC6C(C(C(C(O6)CO)O)O)O)O)O

> <PUBCHEM_OPENEYE_ISO_SMILES>
C1=CC(=C(C=C1C2=C(C(=O)C3=C(C=C(C=C3O2)O)O)O[C@H]4[C@@H]([C@H]([C@@H]([C@H](O4)CO)O)O)O[C@H]5[C@@H]([C@H]([C@@H]([C@H](O5)CO)O)O)O[C@H]6[C@@H]([C@H]([C@@H]([C@H](O6)CO)O)O)O)O)O

> <PUBCHEM_CACTVS_TPSA>
365

> <PUBCHEM_MONOISOTOPIC_WEIGHT>
788.201123

> <PUBCHEM_TOTAL_CHARGE>
0

> <PUBCHEM_HEAVY_ATOM_COUNT>
55

> <PUBCHEM_ATOM_DEF_STEREO_COUNT>
15

> <PUBCHEM_ATOM_UDEF_STEREO_COUNT>
0

> <PUBCHEM_BOND_DEF_STEREO_COUNT>
0

> <PUBCHEM_BOND_UDEF_STEREO_COUNT>
0

> <PUBCHEM_ISOTOPIC_ATOM_COUNT>
0

> <PUBCHEM_COMPONENT_COUNT>
1

> <PUBCHEM_CACTVS_TAUTO_COUNT>
162

> <PUBCHEM_COORDINATE_TYPE>
1
5
255

> <PUBCHEM_BONDANNOTATIONS>
24  1  6
27  1  5
31  10  5
33  11  5
35  12  6
36  13  5
17  42  8
17  46  8
28  38  6
23  3  5
30  3  6
34  39  6
37  40  6
41  42  8
41  43  8
43  44  8
44  46  8
44  47  8
45  49  8
45  50  8
46  48  8
47  51  8
48  52  8
49  53  8
50  54  8
51  52  8
53  55  8
54  55  8
25  6  6
26  7  5
29  8  6
32  9  6

$$$$

