104767
  -OEChem-07051213043D

 35 38  0     1  0  0  0  0  0999 V2000
   -2.3823   -3.9075   -0.0675 Br  0  0  0  0  0  0  0  0  0  0  0  0
    4.1060    0.7198   -0.5676 P   0  0  2  0  0  0  0  0  0  0  0  0
    0.6445   -0.7474    1.5676 O   0  0  0  0  0  0  0  0  0  0  0  0
    3.1454   -0.5294   -0.9746 O   0  0  0  0  0  0  0  0  0  0  0  0
    3.8705    0.9580    1.0229 O   0  0  0  0  0  0  0  0  0  0  0  0
    1.8204   -2.9321   -0.4669 O   0  0  0  0  0  0  0  0  0  0  0  0
    3.4094    2.0057   -1.2624 O   0  0  0  0  0  0  0  0  0  0  0  0
    5.5465    0.5385   -0.9526 O   0  0  0  0  0  0  0  0  0  0  0  0
   -4.9762    1.2102   -0.7121 O   0  0  0  0  0  0  0  0  0  0  0  0
   -1.2873   -1.2183    0.2558 N   0  0  0  0  0  0  0  0  0  0  0  0
   -1.0557    1.2014    0.3426 N   0  0  0  0  0  0  0  0  0  0  0  0
   -3.4544   -1.2860   -0.3276 N   0  0  0  0  0  0  0  0  0  0  0  0
   -3.0636    2.4083   -0.1852 N   0  0  0  0  0  0  0  0  0  0  0  0
   -1.0549    3.5123    0.3663 N   0  0  0  0  0  0  0  0  0  0  0  0
    1.8590   -0.5258   -0.3983 C   0  0  2  0  0  0  0  0  0  0  0  0
    1.9695   -0.4831    1.1115 C   0  0  1  0  0  0  0  0  0  0  0  0
    1.0145   -1.7642   -0.5922 C   0  0  2  0  0  0  0  0  0  0  0  0
    0.0575   -1.6721    0.6118 C   0  0  1  0  0  0  0  0  0  0  0  0
    2.5522    0.8416    1.5607 C   0  0  0  0  0  0  0  0  0  0  0  0
   -1.7216    0.0596    0.1523 C   0  0  0  0  0  0  0  0  0  0  0  0
   -2.3789   -2.0023   -0.0463 C   0  0  0  0  0  0  0  0  0  0  0  0
   -3.0380    0.0095   -0.2023 C   0  0  0  0  0  0  0  0  0  0  0  0
   -3.7936    1.2314   -0.3931 C   0  0  0  0  0  0  0  0  0  0  0  0
   -1.7887    2.3719    0.1572 C   0  0  0  0  0  0  0  0  0  0  0  0
    1.3045    0.3356   -0.7857 H   0  0  0  0  0  0  0  0  0  0  0  0
    2.6302   -1.2853    1.4700 H   0  0  0  0  0  0  0  0  0  0  0  0
    0.5227   -1.7991   -1.5689 H   0  0  0  0  0  0  0  0  0  0  0  0
   -0.0440   -2.6286    1.1344 H   0  0  0  0  0  0  0  0  0  0  0  0
    1.9518    1.6982    1.2401 H   0  0  0  0  0  0  0  0  0  0  0  0
    2.6145    0.8837    2.6525 H   0  0  0  0  0  0  0  0  0  0  0  0
    1.2281   -3.7007   -0.5321 H   0  0  0  0  0  0  0  0  0  0  0  0
   -0.0900    1.2474    0.6408 H   0  0  0  0  0  0  0  0  0  0  0  0
    2.4766    2.2251   -1.0549 H   0  0  0  0  0  0  0  0  0  0  0  0
   -1.4721    4.4309    0.2635 H   0  0  0  0  0  0  0  0  0  0  0  0
   -0.0757    3.4709    0.6269 H   0  0  0  0  0  0  0  0  0  0  0  0
  1 21  1  0  0  0  0
  2  4  1  0  0  0  0
  2  5  1  0  0  0  0
  2  7  1  0  0  0  0
  2  8  2  0  0  0  0
  3 16  1  0  0  0  0
  3 18  1  0  0  0  0
  4 15  1  0  0  0  0
  5 19  1  0  0  0  0
  6 17  1  0  0  0  0
  6 31  1  0  0  0  0
  7 33  1  0  0  0  0
  9 23  2  0  0  0  0
 10 18  1  0  0  0  0
 10 20  1  0  0  0  0
 10 21  1  0  0  0  0
 11 20  1  0  0  0  0
 11 24  1  0  0  0  0
 11 32  1  0  0  0  0
 12 21  2  0  0  0  0
 12 22  1  0  0  0  0
 13 23  1  0  0  0  0
 13 24  2  0  0  0  0
 14 24  1  0  0  0  0
 14 34  1  0  0  0  0
 14 35  1  0  0  0  0
 15 16  1  0  0  0  0
 15 17  1  0  0  0  0
 15 25  1  0  0  0  0
 16 19  1  0  0  0  0
 16 26  1  0  0  0  0
 17 18  1  0  0  0  0
 17 27  1  0  0  0  0
 18 28  1  0  0  0  0
 19 29  1  0  0  0  0
 19 30  1  0  0  0  0
 20 22  2  0  0  0  0
 22 23  1  0  0  0  0
M  END
> <PUBCHEM_COMPOUND_CID>
104767

> <PUBCHEM_CONFORMER_RMSD>
0.6

> <PUBCHEM_CONFORMER_DIVERSEORDER>
1
6
7
5
4
3
2

> <PUBCHEM_MMFF94_PARTIAL_CHARGES>
29
1 -0.06
10 0.05
11 -0.53
12 -0.57
13 -0.66
14 -0.85
15 0.28
16 0.28
17 0.28
18 0.54
19 0.28
2 1.51
20 -0.07
21 0.24
22 0.14
23 0.87
24 0.55
3 -0.56
31 0.4
32 0.4
33 0.5
34 0.4
35 0.4
4 -0.55
5 -0.55
6 -0.68
7 -0.77
8 -0.7
9 -0.57

> <PUBCHEM_EFFECTIVE_ROTOR_COUNT>
2.2

> <PUBCHEM_PHARMACOPHORE_FEATURES>
15
1 1 hydrophobe
1 11 donor
1 13 donor
1 14 donor
1 3 acceptor
1 6 acceptor
1 6 donor
1 7 acceptor
1 8 acceptor
1 9 acceptor
3 10 12 21 cation
5 10 12 20 21 22 rings
5 3 15 16 17 18 rings
6 11 13 20 22 23 24 rings
6 2 4 5 15 16 19 rings

> <PUBCHEM_HEAVY_ATOM_COUNT>
24

> <PUBCHEM_ATOM_DEF_STEREO_COUNT>
4

> <PUBCHEM_ATOM_UDEF_STEREO_COUNT>
0

> <PUBCHEM_BOND_DEF_STEREO_COUNT>
0

> <PUBCHEM_BOND_UDEF_STEREO_COUNT>
0

> <PUBCHEM_ISOTOPIC_ATOM_COUNT>
0

> <PUBCHEM_COMPONENT_COUNT>
1

> <PUBCHEM_CACTVS_TAUTO_COUNT>
6

> <PUBCHEM_CONFORMER_ID>
0001993F00000001

> <PUBCHEM_MMFF94_ENERGY>
49.3411

> <PUBCHEM_FEATURE_SELFOVERLAP>
76.457

> <PUBCHEM_SHAPE_FINGERPRINT>
10366900 7 18040722480045775349
10411042 1 17762898766914381223
10498660 4 18410296903979363113
10646746 165 18409169900772035336
10759866 29 18201723993808201994
11640471 11 17704067417094052358
12173636 292 18338244881046502069
12403259 226 18115587020480763186
12403259 415 18114461142090643394
12403260 363 17977679919747108035
12553582 1 18194690263597308875
12788726 201 17914056399827469986
13140716 1 18193280680931234617
14739800 52 17982464698521367824
14787075 74 17558546898850819755
14790565 3 18264483065756672753
15183329 4 18341320194169659110
16945 1 18409735040911215171
18186145 218 17749103353639434410
19591789 44 14737050227738160331
20510252 161 18335985359008251619
20715895 44 17626971990276319789
20871999 31 18336271158991006391
21857420 4 15873688166863458718
22182313 1 17898864439044067626
23114952 82 17823972531663259614
23227448 37 18341611482355415317
23352939 185 17830155927681613507
23402539 116 18411422770064219518
23557571 272 18262512602662482479
23558518 356 17763749085029149811
23559900 14 18335984246527611534
2748010 2 17974588896118859915
350125 39 18050568740021983675
4028521 119 18410856581230839629
4340502 62 16415192434486396553
474 4 17775278378847296444
7097593 13 17912957116001532114
7808743 9 18342175557353079276
9981440 41 18271806791985604490

> <PUBCHEM_SHAPE_MULTIPOLES>
437.71
8.35
3.72
1.1
4.82
0.91
-0.22
-2.95
2.47
-3.59
0.2
1.06
-0.09
0.15

> <PUBCHEM_SHAPE_SELFOVERLAP>
935.549

> <PUBCHEM_SHAPE_VOLUME>
247.2

> <PUBCHEM_COORDINATE_TYPE>
2
5
10

$$$$

