8709
  -OEChem-06261203013D

 51 51  0     0  0  0  0  0  0999 V2000
    6.1614    2.3910    0.3058 O   0  0  0  0  0  0  0  0  0  0  0  0
    4.6163    0.1654   -0.4457 N   0  0  0  0  0  0  0  0  0  0  0  0
    4.4451   -1.9667    0.3489 N   0  0  0  0  0  0  0  0  0  0  0  0
    0.1538   -0.3081    0.8243 C   0  0  0  0  0  0  0  0  0  0  0  0
   -1.0551   -0.5083   -0.0922 C   0  0  0  0  0  0  0  0  0  0  0  0
    1.4864   -0.6469    0.1521 C   0  0  0  0  0  0  0  0  0  0  0  0
   -2.3567   -0.1262    0.6164 C   0  0  0  0  0  0  0  0  0  0  0  0
    2.6940   -0.4234    1.0559 C   0  0  0  0  0  0  0  0  0  0  0  0
   -3.5700   -0.3574   -0.2860 C   0  0  0  0  0  0  0  0  0  0  0  0
    3.9436   -0.7566    0.3120 C   0  0  0  0  0  0  0  0  0  0  0  0
   -4.8679    0.0557    0.4100 C   0  0  0  0  0  0  0  0  0  0  0  0
    5.6841   -0.4917   -1.1537 C   0  0  0  0  0  0  0  0  0  0  0  0
   -6.0784   -0.1447   -0.5050 C   0  0  0  0  0  0  0  0  0  0  0  0
    5.6773   -1.8742   -0.4888 C   0  0  0  0  0  0  0  0  0  0  0  0
    4.2091    1.5053   -0.7773 C   0  0  0  0  0  0  0  0  0  0  0  0
   -7.3715    0.3009    0.1815 C   0  0  0  0  0  0  0  0  0  0  0  0
   -8.6117    0.1435   -0.7010 C   0  0  0  0  0  0  0  0  0  0  0  0
    4.7431    2.4816    0.2569 C   0  0  0  0  0  0  0  0  0  0  0  0
   -9.9027    0.5609   -0.0142 C   0  0  0  0  0  0  0  0  0  0  0  0
    0.0363   -0.9283    1.7215 H   0  0  0  0  0  0  0  0  0  0  0  0
    0.1809    0.7356    1.1616 H   0  0  0  0  0  0  0  0  0  0  0  0
   -1.1009   -1.5564   -0.4115 H   0  0  0  0  0  0  0  0  0  0  0  0
   -0.9357    0.1009   -0.9962 H   0  0  0  0  0  0  0  0  0  0  0  0
    1.4656   -1.6961   -0.1706 H   0  0  0  0  0  0  0  0  0  0  0  0
    1.5840   -0.0550   -0.7654 H   0  0  0  0  0  0  0  0  0  0  0  0
   -2.3147    0.9283    0.9150 H   0  0  0  0  0  0  0  0  0  0  0  0
   -2.4649   -0.7180    1.5335 H   0  0  0  0  0  0  0  0  0  0  0  0
    2.7249    0.6099    1.4115 H   0  0  0  0  0  0  0  0  0  0  0  0
    2.6253   -1.0693    1.9390 H   0  0  0  0  0  0  0  0  0  0  0  0
   -3.4518    0.2180   -1.2123 H   0  0  0  0  0  0  0  0  0  0  0  0
   -3.6239   -1.4161   -0.5675 H   0  0  0  0  0  0  0  0  0  0  0  0
   -4.9976   -0.5319    1.3269 H   0  0  0  0  0  0  0  0  0  0  0  0
   -4.8044    1.1096    0.7073 H   0  0  0  0  0  0  0  0  0  0  0  0
    5.4545   -0.5752   -2.2214 H   0  0  0  0  0  0  0  0  0  0  0  0
    6.6481    0.0101   -1.0301 H   0  0  0  0  0  0  0  0  0  0  0  0
   -5.9407    0.4287   -1.4296 H   0  0  0  0  0  0  0  0  0  0  0  0
   -6.1576   -1.2013   -0.7877 H   0  0  0  0  0  0  0  0  0  0  0  0
    5.6825   -2.6721   -1.2382 H   0  0  0  0  0  0  0  0  0  0  0  0
    6.5543   -2.0019    0.1554 H   0  0  0  0  0  0  0  0  0  0  0  0
    4.6110    1.7730   -1.7623 H   0  0  0  0  0  0  0  0  0  0  0  0
    3.1214    1.5938   -0.8490 H   0  0  0  0  0  0  0  0  0  0  0  0
   -7.2794    1.3520    0.4823 H   0  0  0  0  0  0  0  0  0  0  0  0
   -7.5101   -0.2803    1.1016 H   0  0  0  0  0  0  0  0  0  0  0  0
   -8.7022   -0.9030   -1.0159 H   0  0  0  0  0  0  0  0  0  0  0  0
   -8.4863    0.7396   -1.6127 H   0  0  0  0  0  0  0  0  0  0  0  0
    4.4686    3.5064   -0.0121 H   0  0  0  0  0  0  0  0  0  0  0  0
    4.3531    2.2642    1.2557 H   0  0  0  0  0  0  0  0  0  0  0  0
   -9.8637    1.6137    0.2827 H   0  0  0  0  0  0  0  0  0  0  0  0
  -10.0807   -0.0422    0.8816 H   0  0  0  0  0  0  0  0  0  0  0  0
  -10.7534    0.4280   -0.6898 H   0  0  0  0  0  0  0  0  0  0  0  0
    6.4654    3.0328    0.9701 H   0  0  0  0  0  0  0  0  0  0  0  0
  1 18  1  0  0  0  0
  1 51  1  0  0  0  0
  2 10  1  0  0  0  0
  2 12  1  0  0  0  0
  2 15  1  0  0  0  0
  3 10  2  0  0  0  0
  3 14  1  0  0  0  0
  4  5  1  0  0  0  0
  4  6  1  0  0  0  0
  4 20  1  0  0  0  0
  4 21  1  0  0  0  0
  5  7  1  0  0  0  0
  5 22  1  0  0  0  0
  5 23  1  0  0  0  0
  6  8  1  0  0  0  0
  6 24  1  0  0  0  0
  6 25  1  0  0  0  0
  7  9  1  0  0  0  0
  7 26  1  0  0  0  0
  7 27  1  0  0  0  0
  8 10  1  0  0  0  0
  8 28  1  0  0  0  0
  8 29  1  0  0  0  0
  9 11  1  0  0  0  0
  9 30  1  0  0  0  0
  9 31  1  0  0  0  0
 11 13  1  0  0  0  0
 11 32  1  0  0  0  0
 11 33  1  0  0  0  0
 12 14  1  0  0  0  0
 12 34  1  0  0  0  0
 12 35  1  0  0  0  0
 13 16  1  0  0  0  0
 13 36  1  0  0  0  0
 13 37  1  0  0  0  0
 14 38  1  0  0  0  0
 14 39  1  0  0  0  0
 15 18  1  0  0  0  0
 15 40  1  0  0  0  0
 15 41  1  0  0  0  0
 16 17  1  0  0  0  0
 16 42  1  0  0  0  0
 16 43  1  0  0  0  0
 17 19  1  0  0  0  0
 17 44  1  0  0  0  0
 17 45  1  0  0  0  0
 18 46  1  0  0  0  0
 18 47  1  0  0  0  0
 19 48  1  0  0  0  0
 19 49  1  0  0  0  0
 19 50  1  0  0  0  0
M  END
> <PUBCHEM_COMPOUND_CID>
8709

> <PUBCHEM_CONFORMER_RMSD>
1.4

> <PUBCHEM_CONFORMER_DIVERSEORDER>
1
46
11
29
23
48
28
22
15
40
19
38
25
6
45
31
3
32
33
2
14
39
26
49
37
7
35
27
21
20
8
51
41
42
50
4
10
16
17
18
34
44
52
36
13
5
9
47
30
24
12
43

> <PUBCHEM_MMFF94_PARTIAL_CHARGES>
10
1 -0.68
10 0.44
12 0.37
14 0.25
15 0.37
18 0.28
2 -0.79
3 -0.7
51 0.4
8 0.06

> <PUBCHEM_EFFECTIVE_ROTOR_COUNT>
12.6

> <PUBCHEM_PHARMACOPHORE_FEATURES>
5
1 1 acceptor
1 1 donor
1 19 hydrophobe
3 2 3 10 cation
5 2 3 10 12 14 rings

> <PUBCHEM_HEAVY_ATOM_COUNT>
19

> <PUBCHEM_ATOM_DEF_STEREO_COUNT>
0

> <PUBCHEM_ATOM_UDEF_STEREO_COUNT>
0

> <PUBCHEM_BOND_DEF_STEREO_COUNT>
0

> <PUBCHEM_BOND_UDEF_STEREO_COUNT>
0

> <PUBCHEM_ISOTOPIC_ATOM_COUNT>
0

> <PUBCHEM_COMPONENT_COUNT>
1

> <PUBCHEM_CACTVS_TAUTO_COUNT>
1

> <PUBCHEM_CONFORMER_ID>
0000220500000001

> <PUBCHEM_MMFF94_ENERGY>
16.5367

> <PUBCHEM_FEATURE_SELFOVERLAP>
25.371

> <PUBCHEM_SHAPE_FINGERPRINT>
10 15 13542460965165349707
10299344 5 18040716979089299151
10638233 991 18259980466492263473
11135609 127 18114471050617683752
11638347 137 10375876285853410401
13533116 47 17131279067929481370
13885169 127 6266905650369585443
14170010 4 17917991668276018949
14251757 52 18410577271334527041
14251764 46 18409730681598504891
14933364 13 18272088305980419341
15183329 4 16950276296124475049
15716309 27 10592043558056598193
20157964 124 18410855456318517178
20165401 70 9871479698740964497
20281389 69 18202286922672005749
20554085 129 16271932601531482633
20812841 46 18272379672683785216
21150785 3 17458344113565435993
21315763 28 18410293653332321499
221357 26 18342738546282985708
22224240 67 14405181773310638659
23035841 295 16660366987635168679
23081809 10 17603297168245806635
23424782 7 18129657492409412139
28498 318 16298386898898797039
29717793 49 18040430010353564326
34797466 226 18334856125700385181
5758199 1 16128655280645449881
8209 1 18411419536291663347

> <PUBCHEM_SHAPE_MULTIPOLES>
375.18
27.69
1.77
0.93
63.28
0.95
0.03
5.45
5.16
-5.54
-0.04
-0.47
-0.04
0.24

> <PUBCHEM_SHAPE_SELFOVERLAP>
708.328

> <PUBCHEM_SHAPE_VOLUME>
233.4

> <PUBCHEM_COORDINATE_TYPE>
2
5
10

$$$$

