42029
  -OEChem-07051213052D

 33 37  0     0  0  0  0  0  0999 V2000
    2.5405    0.2694    0.0000 O   0  0  0  0  0  0  0  0  0  0  0  0
    5.1767   -0.2337    0.0000 C   0  0  0  0  0  0  0  0  0  0  0  0
    5.1928   -1.2752    0.0000 C   0  0  0  0  0  0  0  0  0  0  0  0
    4.3107    0.2663    0.0000 C   0  0  0  0  0  0  0  0  0  0  0  0
    6.0427    0.2663    0.0000 C   0  0  0  0  0  0  0  0  0  0  0  0
    4.3107    1.2663    0.0000 C   0  0  0  0  0  0  0  0  0  0  0  0
    4.2947   -1.8030    0.0000 C   0  0  0  0  0  0  0  0  0  0  0  0
    6.0699   -1.7380    0.0000 C   0  0  0  0  0  0  0  0  0  0  0  0
    5.1767    1.7663    0.0000 C   0  0  0  0  0  0  0  0  0  0  0  0
    3.4007   -0.2406    0.0000 C   0  0  0  0  0  0  0  0  0  0  0  0
    6.0427    1.2663    0.0000 C   0  0  0  0  0  0  0  0  0  0  0  0
    3.3926   -1.2822    0.0000 C   0  0  0  0  0  0  0  0  0  0  0  0
    6.9022   -0.2285    0.0000 C   0  0  0  0  0  0  0  0  0  0  0  0
    6.9156   -1.2201    0.0000 C   0  0  0  0  0  0  0  0  0  0  0  0
    4.3208   -2.8445    0.0000 C   0  0  0  0  0  0  0  0  0  0  0  0
    6.1200   -2.7786    0.0000 C   0  0  0  0  0  0  0  0  0  0  0  0
    3.4007    1.7731    0.0000 C   0  0  0  0  0  0  0  0  0  0  0  0
    5.1928    2.8078    0.0000 C   0  0  0  0  0  0  0  0  0  0  0  0
    5.2396   -3.3356    0.0000 C   0  0  0  0  0  0  0  0  0  0  0  0
    3.3926    2.8147    0.0000 C   0  0  0  0  0  0  0  0  0  0  0  0
    4.2947    3.3356    0.0000 C   0  0  0  0  0  0  0  0  0  0  0  0
    6.5797    1.5763    0.0000 H   0  0  0  0  0  0  0  0  0  0  0  0
    2.8545   -1.5901    0.0000 H   0  0  0  0  0  0  0  0  0  0  0  0
    7.4368    0.0855    0.0000 H   0  0  0  0  0  0  0  0  0  0  0  0
    7.4586   -1.5195    0.0000 H   0  0  0  0  0  0  0  0  0  0  0  0
    3.7930   -3.1698    0.0000 H   0  0  0  0  0  0  0  0  0  0  0  0
    6.6702   -3.0645    0.0000 H   0  0  0  0  0  0  0  0  0  0  0  0
    2.8674    1.4569    0.0000 H   0  0  0  0  0  0  0  0  0  0  0  0
    5.7332    3.1116    0.0000 H   0  0  0  0  0  0  0  0  0  0  0  0
    5.2623   -3.9551    0.0000 H   0  0  0  0  0  0  0  0  0  0  0  0
    2.8545    3.1227    0.0000 H   0  0  0  0  0  0  0  0  0  0  0  0
    4.2971    3.9555    0.0000 H   0  0  0  0  0  0  0  0  0  0  0  0
    2.0000   -0.0344    0.0000 H   0  0  0  0  0  0  0  0  0  0  0  0
  1 10  1  0  0  0  0
  1 33  1  0  0  0  0
  2  3  1  0  0  0  0
  2  4  2  0  0  0  0
  2  5  1  0  0  0  0
  3  7  1  0  0  0  0
  3  8  2  0  0  0  0
  4  6  1  0  0  0  0
  4 10  1  0  0  0  0
  5 11  2  0  0  0  0
  5 13  1  0  0  0  0
  6  9  1  0  0  0  0
  6 17  2  0  0  0  0
  7 12  1  0  0  0  0
  7 15  2  0  0  0  0
  8 14  1  0  0  0  0
  8 16  1  0  0  0  0
  9 11  1  0  0  0  0
  9 18  2  0  0  0  0
 10 12  2  0  0  0  0
 11 22  1  0  0  0  0
 12 23  1  0  0  0  0
 13 14  2  0  0  0  0
 13 24  1  0  0  0  0
 14 25  1  0  0  0  0
 15 19  1  0  0  0  0
 15 26  1  0  0  0  0
 16 19  2  0  0  0  0
 16 27  1  0  0  0  0
 17 20  1  0  0  0  0
 17 28  1  0  0  0  0
 18 21  1  0  0  0  0
 18 29  1  0  0  0  0
 19 30  1  0  0  0  0
 20 21  2  0  0  0  0
 20 31  1  0  0  0  0
 21 32  1  0  0  0  0
M  END
> <PUBCHEM_COMPOUND_CID>
42029

> <PUBCHEM_COMPOUND_CANONICALIZED>
1

> <PUBCHEM_CACTVS_COMPLEXITY>
405

> <PUBCHEM_CACTVS_HBOND_ACCEPTOR>
1

> <PUBCHEM_CACTVS_HBOND_DONOR>
1

> <PUBCHEM_CACTVS_ROTATABLE_BOND>
0

> <PUBCHEM_CACTVS_SUBSKEYS>
AAADccB4IAAAAAAAAAAAAAAAAAAAAAAAAAAwYMGDAAAAAADBVAAAGgAACAAADASAmAAwBsAAAgCAAiBCAAACAAAgIAAIiAAGCIgIJiKCERKAcAAkwBEImAeAwPAO4AADAAAYAADAAAYAADAAAAAAAAAAAA==

> <PUBCHEM_IUPAC_OPENEYE_NAME>
benzo[a]pyren-11-ol

> <PUBCHEM_IUPAC_CAS_NAME>
11-benzo[a]pyrenol

> <PUBCHEM_IUPAC_NAME>
benzo[a]pyren-11-ol

> <PUBCHEM_IUPAC_SYSTEMATIC_NAME>
benzo[a]pyren-11-ol

> <PUBCHEM_IUPAC_TRADITIONAL_NAME>
benzo[a]pyren-11-ol

> <PUBCHEM_IUPAC_INCHI>
InChI=1S/C20H12O/c21-17-11-14-6-3-5-12-8-9-15-10-13-4-1-2-7-16(13)20(17)19(15)18(12)14/h1-11,21H

> <PUBCHEM_IUPAC_INCHIKEY>
JATVWVYVLWEYNL-UHFFFAOYSA-N

> <PUBCHEM_XLOGP3_AA>
5.9

> <PUBCHEM_EXACT_MASS>
268.088815

> <PUBCHEM_MOLECULAR_FORMULA>
C20H12O

> <PUBCHEM_MOLECULAR_WEIGHT>
268.30868

> <PUBCHEM_OPENEYE_CAN_SMILES>
C1=CC=C2C(=C1)C=C3C=CC4=C5C3=C2C(=CC5=CC=C4)O

> <PUBCHEM_OPENEYE_ISO_SMILES>
C1=CC=C2C(=C1)C=C3C=CC4=C5C3=C2C(=CC5=CC=C4)O

> <PUBCHEM_CACTVS_TPSA>
20.2

> <PUBCHEM_MONOISOTOPIC_WEIGHT>
268.088815

> <PUBCHEM_TOTAL_CHARGE>
0

> <PUBCHEM_HEAVY_ATOM_COUNT>
21

> <PUBCHEM_ATOM_DEF_STEREO_COUNT>
0

> <PUBCHEM_ATOM_UDEF_STEREO_COUNT>
0

> <PUBCHEM_BOND_DEF_STEREO_COUNT>
0

> <PUBCHEM_BOND_UDEF_STEREO_COUNT>
0

> <PUBCHEM_ISOTOPIC_ATOM_COUNT>
0

> <PUBCHEM_COMPONENT_COUNT>
1

> <PUBCHEM_CACTVS_TAUTO_COUNT>
2

> <PUBCHEM_COORDINATE_TYPE>
1
5
255

> <PUBCHEM_BONDANNOTATIONS>
10  12  8
13  14  8
15  19  8
16  19  8
17  20  8
18  21  8
2  3  8
2  4  8
2  5  8
20  21  8
3  7  8
3  8  8
4  10  8
4  6  8
5  11  8
5  13  8
6  17  8
6  9  8
7  12  8
7  15  8
8  14  8
8  16  8
9  11  8
9  18  8

$$$$

