5280666
  -OEChem-07051212492D

 34 36  0     0  0  0  0  0  0999 V2000
    6.8671    0.1754    0.0000 O   0  0  0  0  0  0  0  0  0  0  0  0
    8.6155   -2.8592    0.0000 O   0  0  0  0  0  0  0  0  0  0  0  0
    4.2690    2.6754    0.0000 O   0  0  0  0  0  0  0  0  0  0  0  0
    6.8671   -2.8246    0.0000 O   0  0  0  0  0  0  0  0  0  0  0  0
   10.3972    0.1995    0.0000 O   0  0  0  0  0  0  0  0  0  0  0  0
    2.5369    1.6754    0.0000 O   0  0  0  0  0  0  0  0  0  0  0  0
    7.7331   -1.3246    0.0000 C   0  0  0  0  0  0  0  0  0  0  0  0
    6.0010   -0.3246    0.0000 C   0  0  0  0  0  0  0  0  0  0  0  0
    7.7331   -0.3246    0.0000 C   0  0  0  0  0  0  0  0  0  0  0  0
    5.1350    0.1754    0.0000 C   0  0  0  0  0  0  0  0  0  0  0  0
    6.8671   -1.8246    0.0000 C   0  0  0  0  0  0  0  0  0  0  0  0
    6.0010   -1.3246    0.0000 C   0  0  0  0  0  0  0  0  0  0  0  0
    8.6270   -1.8593    0.0000 C   0  0  0  0  0  0  0  0  0  0  0  0
    8.6270    0.2101    0.0000 C   0  0  0  0  0  0  0  0  0  0  0  0
    5.1350    1.1754    0.0000 C   0  0  0  0  0  0  0  0  0  0  0  0
    4.2690   -0.3246    0.0000 C   0  0  0  0  0  0  0  0  0  0  0  0
    9.5331   -0.3038    0.0000 C   0  0  0  0  0  0  0  0  0  0  0  0
    9.5331   -1.3454    0.0000 C   0  0  0  0  0  0  0  0  0  0  0  0
    4.2690    1.6754    0.0000 C   0  0  0  0  0  0  0  0  0  0  0  0
    3.4030    0.1754    0.0000 C   0  0  0  0  0  0  0  0  0  0  0  0
    3.4030    1.1754    0.0000 C   0  0  0  0  0  0  0  0  0  0  0  0
    5.1350    3.1754    0.0000 C   0  0  0  0  0  0  0  0  0  0  0  0
    5.4641   -1.6346    0.0000 H   0  0  0  0  0  0  0  0  0  0  0  0
    8.6199    0.8300    0.0000 H   0  0  0  0  0  0  0  0  0  0  0  0
    5.6720    1.4854    0.0000 H   0  0  0  0  0  0  0  0  0  0  0  0
    4.2690   -0.9446    0.0000 H   0  0  0  0  0  0  0  0  0  0  0  0
   10.0688   -1.6575    0.0000 H   0  0  0  0  0  0  0  0  0  0  0  0
    2.8660   -0.1346    0.0000 H   0  0  0  0  0  0  0  0  0  0  0  0
    9.1488   -3.1754    0.0000 H   0  0  0  0  0  0  0  0  0  0  0  0
   10.9353   -0.1084    0.0000 H   0  0  0  0  0  0  0  0  0  0  0  0
    2.0000    1.3654    0.0000 H   0  0  0  0  0  0  0  0  0  0  0  0
    5.4450    2.6385    0.0000 H   0  0  0  0  0  0  0  0  0  0  0  0
    5.6720    3.4854    0.0000 H   0  0  0  0  0  0  0  0  0  0  0  0
    4.8250    3.7123    0.0000 H   0  0  0  0  0  0  0  0  0  0  0  0
  1  8  1  0  0  0  0
  1  9  1  0  0  0  0
  2 13  1  0  0  0  0
  2 29  1  0  0  0  0
  3 19  1  0  0  0  0
  3 22  1  0  0  0  0
  4 11  2  0  0  0  0
  5 17  1  0  0  0  0
  5 30  1  0  0  0  0
  6 21  1  0  0  0  0
  6 31  1  0  0  0  0
  7  9  1  0  0  0  0
  7 11  1  0  0  0  0
  7 13  2  0  0  0  0
  8 10  1  0  0  0  0
  8 12  2  0  0  0  0
  9 14  2  0  0  0  0
 10 15  2  0  0  0  0
 10 16  1  0  0  0  0
 11 12  1  0  0  0  0
 12 23  1  0  0  0  0
 13 18  1  0  0  0  0
 14 17  1  0  0  0  0
 14 24  1  0  0  0  0
 15 19  1  0  0  0  0
 15 25  1  0  0  0  0
 16 20  2  0  0  0  0
 16 26  1  0  0  0  0
 17 18  2  0  0  0  0
 18 27  1  0  0  0  0
 19 21  2  0  0  0  0
 20 21  1  0  0  0  0
 20 28  1  0  0  0  0
 22 32  1  0  0  0  0
 22 33  1  0  0  0  0
 22 34  1  0  0  0  0
M  END
> <PUBCHEM_COMPOUND_CID>
5280666

> <PUBCHEM_COMPOUND_CANONICALIZED>
1

> <PUBCHEM_CACTVS_COMPLEXITY>
462

> <PUBCHEM_CACTVS_HBOND_ACCEPTOR>
6

> <PUBCHEM_CACTVS_HBOND_DONOR>
3

> <PUBCHEM_CACTVS_ROTATABLE_BOND>
2

> <PUBCHEM_CACTVS_SUBSKEYS>
AAADccB4OAAAAAAAAAAAAAAAAAAAAAAAAAAwYIAAAAAAAACBQAAAGgAACAAADASAmAIyBoAABgCIAqBSAAACCAAkIAAIiAEGiMgNJzaGNRqCeWOl4BULuQfI7LzOIAABCAAIQABAAAIQABCAAAAAAAAAAA==

> <PUBCHEM_IUPAC_OPENEYE_NAME>
5,7-dihydroxy-2-(4-hydroxy-3-methoxy-phenyl)chromen-4-one

> <PUBCHEM_IUPAC_CAS_NAME>
5,7-dihydroxy-2-(4-hydroxy-3-methoxyphenyl)-1-benzopyran-4-one

> <PUBCHEM_IUPAC_NAME>
5,7-dihydroxy-2-(4-hydroxy-3-methoxyphenyl)chromen-4-one

> <PUBCHEM_IUPAC_SYSTEMATIC_NAME>
2-(3-methoxy-4-oxidanyl-phenyl)-5,7-bis(oxidanyl)chromen-4-one

> <PUBCHEM_IUPAC_TRADITIONAL_NAME>
5,7-dihydroxy-2-(4-hydroxy-3-methoxy-phenyl)chromone

> <PUBCHEM_IUPAC_INCHI>
InChI=1S/C16H12O6/c1-21-14-4-8(2-3-10(14)18)13-7-12(20)16-11(19)5-9(17)6-15(16)22-13/h2-7,17-19H,1H3

> <PUBCHEM_IUPAC_INCHIKEY>
SCZVLDHREVKTSH-UHFFFAOYSA-N

> <PUBCHEM_XLOGP3>
1.7

> <PUBCHEM_EXACT_MASS>
300.063388

> <PUBCHEM_MOLECULAR_FORMULA>
C16H12O6

> <PUBCHEM_MOLECULAR_WEIGHT>
300.26288

> <PUBCHEM_OPENEYE_CAN_SMILES>
COC1=C(C=CC(=C1)C2=CC(=O)C3=C(C=C(C=C3O2)O)O)O

> <PUBCHEM_OPENEYE_ISO_SMILES>
COC1=C(C=CC(=C1)C2=CC(=O)C3=C(C=C(C=C3O2)O)O)O

> <PUBCHEM_CACTVS_TPSA>
96.2

> <PUBCHEM_MONOISOTOPIC_WEIGHT>
300.063388

> <PUBCHEM_TOTAL_CHARGE>
0

> <PUBCHEM_HEAVY_ATOM_COUNT>
22

> <PUBCHEM_ATOM_DEF_STEREO_COUNT>
0

> <PUBCHEM_ATOM_UDEF_STEREO_COUNT>
0

> <PUBCHEM_BOND_DEF_STEREO_COUNT>
0

> <PUBCHEM_BOND_UDEF_STEREO_COUNT>
0

> <PUBCHEM_ISOTOPIC_ATOM_COUNT>
0

> <PUBCHEM_COMPONENT_COUNT>
1

> <PUBCHEM_CACTVS_TAUTO_COUNT>
69

> <PUBCHEM_COORDINATE_TYPE>
1
5
255

> <PUBCHEM_BONDANNOTATIONS>
1  8  8
1  9  8
10  15  8
10  16  8
11  12  8
13  18  8
14  17  8
15  19  8
16  20  8
17  18  8
19  21  8
20  21  8
7  11  8
7  13  8
7  9  8
8  12  8
9  14  8

$$$$

