15951
  -OEChem-07051213123D

 31 31  0     0  0  0  0  0  0999 V2000
   -0.5206    3.8205   -0.3822 Cl  0  0  0  0  0  0  0  0  0  0  0  0
   -1.7790   -0.9492   -0.0055 N   0  0  0  0  0  0  0  0  0  0  0  0
    0.5057   -0.4230    0.0662 N   0  0  0  0  0  0  0  0  0  0  0  0
    2.7750    0.1661    0.1311 N   0  0  0  0  0  0  0  0  0  0  0  0
   -1.1448    1.3009   -0.1824 N   0  0  0  0  0  0  0  0  0  0  0  0
    1.1848    1.8714   -0.1126 N   0  0  0  0  0  0  0  0  0  0  0  0
   -1.4631   -2.3640    0.1438 C   0  0  0  0  0  0  0  0  0  0  0  0
   -3.1816   -0.5655   -0.1016 C   0  0  0  0  0  0  0  0  0  0  0  0
   -0.7684    0.0115   -0.0420 C   0  0  0  0  0  0  0  0  0  0  0  0
   -1.0641   -2.9808   -1.1860 C   0  0  0  0  0  0  0  0  0  0  0  0
   -3.7163   -0.0985    1.2417 C   0  0  0  0  0  0  0  0  0  0  0  0
    1.4227    0.5568    0.0229 C   0  0  0  0  0  0  0  0  0  0  0  0
    3.1787   -1.1970    0.2800 C   0  0  0  0  0  0  0  0  0  0  0  0
   -0.1210    2.1691   -0.2097 C   0  0  0  0  0  0  0  0  0  0  0  0
    4.6921   -1.3185    0.3363 C   0  0  0  0  0  0  0  0  0  0  0  0
   -0.6696   -2.5155    0.8858 H   0  0  0  0  0  0  0  0  0  0  0  0
   -2.3339   -2.9051    0.5348 H   0  0  0  0  0  0  0  0  0  0  0  0
   -3.3277    0.2134   -0.8600 H   0  0  0  0  0  0  0  0  0  0  0  0
   -3.7822   -1.4183   -0.4419 H   0  0  0  0  0  0  0  0  0  0  0  0
   -1.8625   -2.8650   -1.9267 H   0  0  0  0  0  0  0  0  0  0  0  0
   -0.1611   -2.5165   -1.5944 H   0  0  0  0  0  0  0  0  0  0  0  0
   -0.8666   -4.0503   -1.0631 H   0  0  0  0  0  0  0  0  0  0  0  0
   -3.6082   -0.8813    1.9999 H   0  0  0  0  0  0  0  0  0  0  0  0
   -3.1881    0.7896    1.6025 H   0  0  0  0  0  0  0  0  0  0  0  0
   -4.7788    0.1514    1.1600 H   0  0  0  0  0  0  0  0  0  0  0  0
    2.7565   -1.6188    1.1996 H   0  0  0  0  0  0  0  0  0  0  0  0
    2.8109   -1.7963   -0.5614 H   0  0  0  0  0  0  0  0  0  0  0  0
    3.4649    0.9080    0.1009 H   0  0  0  0  0  0  0  0  0  0  0  0
    5.1509   -0.9291   -0.5787 H   0  0  0  0  0  0  0  0  0  0  0  0
    5.0994   -0.7535    1.1814 H   0  0  0  0  0  0  0  0  0  0  0  0
    4.9879   -2.3660    0.4496 H   0  0  0  0  0  0  0  0  0  0  0  0
  1 14  1  0  0  0  0
  2  7  1  0  0  0  0
  2  8  1  0  0  0  0
  2  9  1  0  0  0  0
  3  9  1  0  0  0  0
  3 12  2  0  0  0  0
  4 12  1  0  0  0  0
  4 13  1  0  0  0  0
  4 28  1  0  0  0  0
  5  9  2  0  0  0  0
  5 14  1  0  0  0  0
  6 12  1  0  0  0  0
  6 14  2  0  0  0  0
  7 10  1  0  0  0  0
  7 16  1  0  0  0  0
  7 17  1  0  0  0  0
  8 11  1  0  0  0  0
  8 18  1  0  0  0  0
  8 19  1  0  0  0  0
 10 20  1  0  0  0  0
 10 21  1  0  0  0  0
 10 22  1  0  0  0  0
 11 23  1  0  0  0  0
 11 24  1  0  0  0  0
 11 25  1  0  0  0  0
 13 15  1  0  0  0  0
 13 26  1  0  0  0  0
 13 27  1  0  0  0  0
 15 29  1  0  0  0  0
 15 30  1  0  0  0  0
 15 31  1  0  0  0  0
M  END
> <PUBCHEM_COMPOUND_CID>
15951

> <PUBCHEM_CONFORMER_RMSD>
0.6

> <PUBCHEM_CONFORMER_DIVERSEORDER>
1
37
47
25
42
53
65
61
26
17
60
31
29
44
59
30
11
67
70
27
63
51
21
66
6
34
57
58
38
64
10
40
54
55
62
56
15
32
49
35
9
14
12
36
8
4
52
41
33
13
46
45
19
28
2
16
24
5
68
20
7
22
69
3
23
18
50
48
39
43

> <PUBCHEM_MMFF94_PARTIAL_CHARGES>
13
1 -0.18
12 0.72
13 0.37
14 0.8
2 -0.84
28 0.4
3 -0.62
4 -0.87
5 -0.62
6 -0.62
7 0.37
8 0.37
9 0.72

> <PUBCHEM_EFFECTIVE_ROTOR_COUNT>
5

> <PUBCHEM_PHARMACOPHORE_FEATURES>
4
1 4 donor
4 2 3 5 9 cation
4 3 4 6 12 cation
6 3 5 6 9 12 14 rings

> <PUBCHEM_HEAVY_ATOM_COUNT>
15

> <PUBCHEM_ATOM_DEF_STEREO_COUNT>
0

> <PUBCHEM_ATOM_UDEF_STEREO_COUNT>
0

> <PUBCHEM_BOND_DEF_STEREO_COUNT>
0

> <PUBCHEM_BOND_UDEF_STEREO_COUNT>
0

> <PUBCHEM_ISOTOPIC_ATOM_COUNT>
0

> <PUBCHEM_COMPONENT_COUNT>
1

> <PUBCHEM_CACTVS_TAUTO_COUNT>
4

> <PUBCHEM_CONFORMER_ID>
00003E4F00000001

> <PUBCHEM_MMFF94_ENERGY>
34.5725

> <PUBCHEM_FEATURE_SELFOVERLAP>
20.34

> <PUBCHEM_SHAPE_FINGERPRINT>
11357001 24 18198346345495529624
12507560 14 18335417942093643845
12553582 1 18411702063055404622
13140716 1 18337670806753627506
13380535 76 17619640514791404796
14178342 30 17903085425491516208
15279308 51 18191308173945054703
15375462 189 18202848751254120706
15442244 35 18265049141933809435
16752209 62 18197233635332909050
16945 1 18123753058701065597
20510252 161 18189903200206591976
20671657 1 18122613960375533581
20711985 365 18341051912493854276
20871998 184 18265054815522180558
21029758 27 18272077305841407900
21501502 16 18048876286779266327
22959321 94 18341904012815562978
23402539 116 18261404376814906495
23552423 10 17762055437184078759
23557571 272 18261103132794789796
23598291 2 18191020101745590143
23598294 1 18197507439809240008
2748010 2 17976819010236609070
3091708 16 8993095248056713472
34934 24 18339930294674524464
352729 6 17979641461149505300
4175511 71 18340761551155974609
6992083 37 18335129865567726075
7364860 26 17906171754683618864
74978 22 18121214286441831359
81228 2 18342458196482205168

> <PUBCHEM_SHAPE_MULTIPOLES>
285.66
5.83
3.74
0.84
5.21
2.4
0.01
-3.53
1.88
-1.19
-1.2
-0.46
-0.29
-0.29

> <PUBCHEM_SHAPE_SELFOVERLAP>
555.924

> <PUBCHEM_SHAPE_VOLUME>
171

> <PUBCHEM_COORDINATE_TYPE>
2
5
10

$$$$

