10813
  -OEChem-07051213132D

 21 21  0     0  0  0  0  0  0999 V2000
    6.3301   -1.0000    0.0000 Cl  0  0  0  0  0  0  0  0  0  0  0  0
    2.8660   -1.0000    0.0000 N   0  0  0  0  0  0  0  0  0  0  0  0
    4.5981   -1.0000    0.0000 N   0  0  0  0  0  0  0  0  0  0  0  0
    5.4641    0.5000    0.0000 N   0  0  0  0  0  0  0  0  0  0  0  0
    3.7320   -0.5000    0.0000 C   0  0  0  0  0  0  0  0  0  0  0  0
    3.7320    0.5000    0.0000 C   0  0  0  0  0  0  0  0  0  0  0  0
    4.5981    1.0000    0.0000 C   0  0  0  0  0  0  0  0  0  0  0  0
    2.0000   -0.5000    0.0000 C   0  0  0  0  0  0  0  0  0  0  0  0
    2.8660   -2.0000    0.0000 C   0  0  0  0  0  0  0  0  0  0  0  0
    4.5981    2.0000    0.0000 C   0  0  0  0  0  0  0  0  0  0  0  0
    5.4641   -0.5000    0.0000 C   0  0  0  0  0  0  0  0  0  0  0  0
    3.1951    0.8100    0.0000 H   0  0  0  0  0  0  0  0  0  0  0  0
    2.3100    0.0369    0.0000 H   0  0  0  0  0  0  0  0  0  0  0  0
    1.4631   -0.1900    0.0000 H   0  0  0  0  0  0  0  0  0  0  0  0
    1.6900   -1.0369    0.0000 H   0  0  0  0  0  0  0  0  0  0  0  0
    2.2460   -2.0000    0.0000 H   0  0  0  0  0  0  0  0  0  0  0  0
    2.8660   -2.6200    0.0000 H   0  0  0  0  0  0  0  0  0  0  0  0
    3.4860   -2.0000    0.0000 H   0  0  0  0  0  0  0  0  0  0  0  0
    5.2181    2.0000    0.0000 H   0  0  0  0  0  0  0  0  0  0  0  0
    4.5981    2.6200    0.0000 H   0  0  0  0  0  0  0  0  0  0  0  0
    3.9781    2.0000    0.0000 H   0  0  0  0  0  0  0  0  0  0  0  0
  1 11  1  0  0  0  0
  2  5  1  0  0  0  0
  2  8  1  0  0  0  0
  2  9  1  0  0  0  0
  3  5  2  0  0  0  0
  3 11  1  0  0  0  0
  4  7  1  0  0  0  0
  4 11  2  0  0  0  0
  5  6  1  0  0  0  0
  6  7  2  0  0  0  0
  6 12  1  0  0  0  0
  7 10  1  0  0  0  0
  8 13  1  0  0  0  0
  8 14  1  0  0  0  0
  8 15  1  0  0  0  0
  9 16  1  0  0  0  0
  9 17  1  0  0  0  0
  9 18  1  0  0  0  0
 10 19  1  0  0  0  0
 10 20  1  0  0  0  0
 10 21  1  0  0  0  0
M  END
> <PUBCHEM_COMPOUND_CID>
10813

> <PUBCHEM_COMPOUND_CANONICALIZED>
1

> <PUBCHEM_CACTVS_COMPLEXITY>
129

> <PUBCHEM_CACTVS_HBOND_ACCEPTOR>
3

> <PUBCHEM_CACTVS_HBOND_DONOR>
0

> <PUBCHEM_CACTVS_ROTATABLE_BOND>
1

> <PUBCHEM_CACTVS_SUBSKEYS>
AAADccBjAAAEAAAAAAAAAAAAAAAAAAAAAAAsAAAAAAAAAAABgAAAHAIAAAAACAiBFgQzsJcIEACgASZiZACAgCkhAqABGCA4ZBiAKABAycAEBAhIAAJAQCAAAAAAAAAAAAAAAAAAAAAAAAAAAAAAAAAAAA==

> <PUBCHEM_IUPAC_OPENEYE_NAME>
2-chloro-N,N,6-trimethyl-pyrimidin-4-amine

> <PUBCHEM_IUPAC_CAS_NAME>
2-chloro-N,N,6-trimethyl-4-pyrimidinamine

> <PUBCHEM_IUPAC_NAME>
2-chloro-N,N,6-trimethylpyrimidin-4-amine

> <PUBCHEM_IUPAC_SYSTEMATIC_NAME>
2-chloranyl-N,N,6-trimethyl-pyrimidin-4-amine

> <PUBCHEM_IUPAC_TRADITIONAL_NAME>
(2-chloro-6-methyl-pyrimidin-4-yl)-dimethyl-amine

> <PUBCHEM_IUPAC_INCHI>
InChI=1S/C7H10ClN3/c1-5-4-6(11(2)3)10-7(8)9-5/h4H,1-3H3

> <PUBCHEM_IUPAC_INCHIKEY>
HJIUPFPIEBPYIE-UHFFFAOYSA-N

> <PUBCHEM_XLOGP3_AA>
2

> <PUBCHEM_EXACT_MASS>
171.056325

> <PUBCHEM_MOLECULAR_FORMULA>
C7H10ClN3

> <PUBCHEM_MOLECULAR_WEIGHT>
171.6274

> <PUBCHEM_OPENEYE_CAN_SMILES>
CC1=CC(=NC(=N1)Cl)N(C)C

> <PUBCHEM_OPENEYE_ISO_SMILES>
CC1=CC(=NC(=N1)Cl)N(C)C

> <PUBCHEM_CACTVS_TPSA>
29

> <PUBCHEM_MONOISOTOPIC_WEIGHT>
171.056325

> <PUBCHEM_TOTAL_CHARGE>
0

> <PUBCHEM_HEAVY_ATOM_COUNT>
11

> <PUBCHEM_ATOM_DEF_STEREO_COUNT>
0

> <PUBCHEM_ATOM_UDEF_STEREO_COUNT>
0

> <PUBCHEM_BOND_DEF_STEREO_COUNT>
0

> <PUBCHEM_BOND_UDEF_STEREO_COUNT>
0

> <PUBCHEM_ISOTOPIC_ATOM_COUNT>
0

> <PUBCHEM_COMPONENT_COUNT>
1

> <PUBCHEM_CACTVS_TAUTO_COUNT>
1

> <PUBCHEM_COORDINATE_TYPE>
1
5
255

> <PUBCHEM_BONDANNOTATIONS>
3  11  8
3  5  8
4  11  8
4  7  8
5  6  8
6  7  8

$$$$

