17174
  -OEChem-07051212472D

 14 14  0     0  0  0  0  0  0999 V2000
    3.7320   -1.5194    0.0000 O   0  0  0  0  0  0  0  0  0  0  0  0
    2.8660   -0.0194    0.0000 N   0  0  0  0  0  0  0  0  0  0  0  0
    2.3660    1.5194    0.0000 N   0  0  0  0  0  0  0  0  0  0  0  0
    2.8660   -1.0194    0.0000 C   0  0  0  0  0  0  0  0  0  0  0  0
    3.6750    0.5684    0.0000 C   0  0  0  0  0  0  0  0  0  0  0  0
    2.0570    0.5684    0.0000 C   0  0  0  0  0  0  0  0  0  0  0  0
    2.0000   -1.5194    0.0000 C   0  0  0  0  0  0  0  0  0  0  0  0
    3.3660    1.5194    0.0000 C   0  0  0  0  0  0  0  0  0  0  0  0
    4.2647    0.3768    0.0000 H   0  0  0  0  0  0  0  0  0  0  0  0
    1.4674    0.3768    0.0000 H   0  0  0  0  0  0  0  0  0  0  0  0
    1.6900   -0.9825    0.0000 H   0  0  0  0  0  0  0  0  0  0  0  0
    1.4631   -1.8294    0.0000 H   0  0  0  0  0  0  0  0  0  0  0  0
    2.3100   -2.0564    0.0000 H   0  0  0  0  0  0  0  0  0  0  0  0
    3.7304    2.0210    0.0000 H   0  0  0  0  0  0  0  0  0  0  0  0
  1  4  2  0  0  0  0
  2  4  1  0  0  0  0
  2  5  1  0  0  0  0
  2  6  1  0  0  0  0
  3  6  2  0  0  0  0
  3  8  1  0  0  0  0
  4  7  1  0  0  0  0
  5  8  2  0  0  0  0
  5  9  1  0  0  0  0
  6 10  1  0  0  0  0
  7 11  1  0  0  0  0
  7 12  1  0  0  0  0
  7 13  1  0  0  0  0
  8 14  1  0  0  0  0
M  END
> <PUBCHEM_COMPOUND_CID>
17174

> <PUBCHEM_COMPOUND_CANONICALIZED>
1

> <PUBCHEM_CACTVS_COMPLEXITY>
103

> <PUBCHEM_CACTVS_HBOND_ACCEPTOR>
2

> <PUBCHEM_CACTVS_HBOND_DONOR>
0

> <PUBCHEM_CACTVS_ROTATABLE_BOND>
0

> <PUBCHEM_CACTVS_SUBSKEYS>
AAADcYBjIAAAAAAAAAAAAAAAAAAAAWAAAAAAAAAAAAAAAAABgAAAHgAAAAAAAADBggQvkBcMEACoABE3dAAAgC0REqAJQAAYMACASAAACAAQAAAIBwKAACAAAAAAAAAAAAAAAAAAAAAAAAAAAAAAAAAAAA==

> <PUBCHEM_IUPAC_OPENEYE_NAME>
1-imidazol-1-ylethanone

> <PUBCHEM_IUPAC_CAS_NAME>
1-(1-imidazolyl)ethanone

> <PUBCHEM_IUPAC_NAME>
1-imidazol-1-ylethanone

> <PUBCHEM_IUPAC_SYSTEMATIC_NAME>
1-imidazol-1-ylethanone

> <PUBCHEM_IUPAC_TRADITIONAL_NAME>
1-imidazol-1-ylethanone

> <PUBCHEM_IUPAC_INCHI>
InChI=1S/C5H6N2O/c1-5(8)7-3-2-6-4-7/h2-4H,1H3

> <PUBCHEM_IUPAC_INCHIKEY>
VIHYIVKEECZGOU-UHFFFAOYSA-N

> <PUBCHEM_XLOGP3>
-0.3

> <PUBCHEM_EXACT_MASS>
110.048013

> <PUBCHEM_MOLECULAR_FORMULA>
C5H6N2O

> <PUBCHEM_MOLECULAR_WEIGHT>
110.11394

> <PUBCHEM_OPENEYE_CAN_SMILES>
CC(=O)N1C=CN=C1

> <PUBCHEM_OPENEYE_ISO_SMILES>
CC(=O)N1C=CN=C1

> <PUBCHEM_CACTVS_TPSA>
34.9

> <PUBCHEM_MONOISOTOPIC_WEIGHT>
110.048013

> <PUBCHEM_TOTAL_CHARGE>
0

> <PUBCHEM_HEAVY_ATOM_COUNT>
8

> <PUBCHEM_ATOM_DEF_STEREO_COUNT>
0

> <PUBCHEM_ATOM_UDEF_STEREO_COUNT>
0

> <PUBCHEM_BOND_DEF_STEREO_COUNT>
0

> <PUBCHEM_BOND_UDEF_STEREO_COUNT>
0

> <PUBCHEM_ISOTOPIC_ATOM_COUNT>
0

> <PUBCHEM_COMPONENT_COUNT>
1

> <PUBCHEM_CACTVS_TAUTO_COUNT>
1

> <PUBCHEM_COORDINATE_TYPE>
1
5
255

> <PUBCHEM_BONDANNOTATIONS>
2  5  8
2  6  8
3  6  8
3  8  8
5  8  8

$$$$

