25246219
  -OEChem-07051212543D

 27 28  0     0  0  0  0  0  0999 V2000
    0.3697   -2.3108   -0.0006 O   0  0  0  0  0  0  0  0  0  0  0  0
    3.1977    2.0347   -0.0001 O   0  0  0  0  0  0  0  0  0  0  0  0
    5.4291    0.7178    0.0001 O   0  0  0  0  0  0  0  0  0  0  0  0
    4.4043   -1.3071    0.0003 O   0  0  0  0  0  0  0  0  0  0  0  0
   -2.8080   -0.7264    0.0003 C   0  0  0  0  0  0  0  0  0  0  0  0
   -1.9558    0.3947    0.0002 C   0  0  0  0  0  0  0  0  0  0  0  0
   -2.0559   -2.0335    0.0000 C   0  0  0  0  0  0  0  0  0  0  0  0
   -0.5761   -0.0825    0.0003 C   0  0  0  0  0  0  0  0  0  0  0  0
   -0.6053   -1.5790    0.0003 C   0  0  0  0  0  0  0  0  0  0  0  0
   -4.1861   -0.5710   -0.0001 C   0  0  0  0  0  0  0  0  0  0  0  0
   -2.4712    1.6815    0.0003 C   0  0  0  0  0  0  0  0  0  0  0  0
    0.5552    0.6251   -0.0001 C   0  0  0  0  0  0  0  0  0  0  0  0
   -4.7097    0.7234   -0.0005 C   0  0  0  0  0  0  0  0  0  0  0  0
   -3.8594    1.8400    0.0000 C   0  0  0  0  0  0  0  0  0  0  0  0
    1.8728    0.0171    0.0002 C   0  0  0  0  0  0  0  0  0  0  0  0
    3.0566    0.6612   -0.0003 C   0  0  0  0  0  0  0  0  0  0  0  0
    4.3420   -0.0853   -0.0002 C   0  0  0  0  0  0  0  0  0  0  0  0
   -2.2647   -2.6054    0.9075 H   0  0  0  0  0  0  0  0  0  0  0  0
   -2.2645   -2.6049   -0.9078 H   0  0  0  0  0  0  0  0  0  0  0  0
   -4.8470   -1.4313   -0.0003 H   0  0  0  0  0  0  0  0  0  0  0  0
   -1.8262    2.5538    0.0004 H   0  0  0  0  0  0  0  0  0  0  0  0
    0.5174    1.7111   -0.0004 H   0  0  0  0  0  0  0  0  0  0  0  0
   -5.7865    0.8693   -0.0009 H   0  0  0  0  0  0  0  0  0  0  0  0
   -4.2870    2.8392   -0.0001 H   0  0  0  0  0  0  0  0  0  0  0  0
    1.9726   -1.0543    0.0006 H   0  0  0  0  0  0  0  0  0  0  0  0
    4.1472    2.2442   -0.0003 H   0  0  0  0  0  0  0  0  0  0  0  0
    6.2655    0.2052    0.0004 H   0  0  0  0  0  0  0  0  0  0  0  0
  1  9  2  0  0  0  0
  2 16  1  0  0  0  0
  2 26  1  0  0  0  0
  3 17  1  0  0  0  0
  3 27  1  0  0  0  0
  4 17  2  0  0  0  0
  5  6  1  0  0  0  0
  5  7  1  0  0  0  0
  5 10  2  0  0  0  0
  6  8  1  0  0  0  0
  6 11  2  0  0  0  0
  7  9  1  0  0  0  0
  7 18  1  0  0  0  0
  7 19  1  0  0  0  0
  8  9  1  0  0  0  0
  8 12  2  0  0  0  0
 10 13  1  0  0  0  0
 10 20  1  0  0  0  0
 11 14  1  0  0  0  0
 11 21  1  0  0  0  0
 12 15  1  0  0  0  0
 12 22  1  0  0  0  0
 13 14  2  0  0  0  0
 13 23  1  0  0  0  0
 14 24  1  0  0  0  0
 15 16  2  0  0  0  0
 15 25  1  0  0  0  0
 16 17  1  0  0  0  0
M  END
> <PUBCHEM_COMPOUND_CID>
25246219

> <PUBCHEM_CONFORMER_RMSD>
0.6

> <PUBCHEM_CONFORMER_DIVERSEORDER>
1

> <PUBCHEM_MMFF94_PARTIAL_CHARGES>
25
1 -0.57
10 -0.15
11 -0.15
12 -0.15
13 -0.15
14 -0.15
15 -0.15
16 0.09
17 0.71
2 -0.53
20 0.15
21 0.15
22 0.15
23 0.15
24 0.15
25 0.15
26 0.45
27 0.5
3 -0.65
4 -0.57
5 -0.14
6 0.03
7 0.2
8 -0.01
9 0.49

> <PUBCHEM_EFFECTIVE_ROTOR_COUNT>
2.2

> <PUBCHEM_PHARMACOPHORE_FEATURES>
7
1 1 acceptor
1 2 donor
1 3 acceptor
1 4 acceptor
3 3 4 17 anion
5 5 6 7 8 9 rings
6 5 6 10 11 13 14 rings

> <PUBCHEM_HEAVY_ATOM_COUNT>
17

> <PUBCHEM_ATOM_DEF_STEREO_COUNT>
0

> <PUBCHEM_ATOM_UDEF_STEREO_COUNT>
0

> <PUBCHEM_BOND_DEF_STEREO_COUNT>
2

> <PUBCHEM_BOND_UDEF_STEREO_COUNT>
0

> <PUBCHEM_ISOTOPIC_ATOM_COUNT>
0

> <PUBCHEM_COMPONENT_COUNT>
1

> <PUBCHEM_CACTVS_TAUTO_COUNT>
7

> <PUBCHEM_CONFORMER_ID>
01813A0B00000001

> <PUBCHEM_MMFF94_ENERGY>
51.0662

> <PUBCHEM_FEATURE_SELFOVERLAP>
35.658

> <PUBCHEM_SHAPE_FINGERPRINT>
10411042 1 17834114144030947775
10608611 8 18335703784799166352
12107183 9 17836652198828975984
12236239 1 17847063272621599408
12390115 104 18116416206867227889
12592029 89 18341893043004962970
12644460 14 18057884843016989075
13140716 1 18122896543864841347
13380535 76 18410854386850925255
13675066 3 18272365352144357850
14866123 147 16962652682575114562
15042514 8 18195804077487331547
15196674 1 18410575110649439842
15536298 74 18262517125279057758
17804303 29 18409727331207307973
1813 80 16702017608575321270
18186145 218 18341902891459683828
200 152 17240203231259744925
20300324 65 18113341899356846005
20510252 161 18335416803848124563
20645477 56 18410858728825452264
20645477 70 17095513050638140190
21267235 1 18411973650653351027
21524375 3 18411418431841425111
23366157 5 17914892269087639738
23402539 116 18333457538462519693
23559900 14 18260268534528310896
3004659 81 18270675481190088718
335352 9 18338516446985054236
351380 180 18334859415460866708
3545911 37 18408321073532313824
366044 4 18411419514051968419
4214541 1 18410575080558275524
474 4 17202198500461991476
474229 33 18410854335638326347
495365 180 17313116220043784090
5104073 3 18411138008894202656
559249 180 18340492274197776930
6138700 20 18194115451118464798
6430166 295 18411139151471598960
69090 78 18334016072846708126
7364860 26 18191585474261279687
77779 3 18411698764420125544
9709674 26 18335413556674124246

> <PUBCHEM_SHAPE_MULTIPOLES>
326.37
10.1
2.08
0.59
8.28
0.39
0
-2.85
0
-0.67
0
-0.08
0
0

> <PUBCHEM_SHAPE_SELFOVERLAP>
706.457

> <PUBCHEM_SHAPE_VOLUME>
179.6

> <PUBCHEM_COORDINATE_TYPE>
2
5
10

$$$$

