443075
  -OEChem-07051213013D

 16 15  0     0  0  0  0  0  0999 V2000
    1.7522    1.3832    0.0006 O   0  0  0  0  0  0  0  0  0  0  0  0
   -1.0806    1.6123   -0.0007 O   0  0  0  0  0  0  0  0  0  0  0  0
   -3.3106    0.3086    0.0004 O   0  0  0  0  0  0  0  0  0  0  0  0
   -2.1825   -1.6797    0.0002 O   0  0  0  0  0  0  0  0  0  0  0  0
    0.1964   -0.3532    0.0000 N   0  0  0  0  0  0  0  0  0  0  0  0
    2.4508   -0.8301   -0.0005 N   0  0  0  0  0  0  0  0  0  0  0  0
    1.4919    0.1809    0.0006 C   0  0  0  0  0  0  0  0  0  0  0  0
   -0.9701    0.3961   -0.0006 C   0  0  0  0  0  0  0  0  0  0  0  0
    3.8674   -0.5528   -0.0001 C   0  0  0  0  0  0  0  0  0  0  0  0
   -2.2148   -0.4653    0.0000 C   0  0  0  0  0  0  0  0  0  0  0  0
    0.1139   -1.3664   -0.0003 H   0  0  0  0  0  0  0  0  0  0  0  0
    2.1462   -1.7975    0.0442 H   0  0  0  0  0  0  0  0  0  0  0  0
    4.3878   -1.4026   -0.4478 H   0  0  0  0  0  0  0  0  0  0  0  0
    4.1932   -0.4235    1.0350 H   0  0  0  0  0  0  0  0  0  0  0  0
    4.0786    0.3574   -0.5670 H   0  0  0  0  0  0  0  0  0  0  0  0
   -4.1376   -0.2190    0.0007 H   0  0  0  0  0  0  0  0  0  0  0  0
  1  7  2  0  0  0  0
  2  8  2  0  0  0  0
  3 10  1  0  0  0  0
  3 16  1  0  0  0  0
  4 10  2  0  0  0  0
  5  7  1  0  0  0  0
  5  8  1  0  0  0  0
  5 11  1  0  0  0  0
  6  7  1  0  0  0  0
  6  9  1  0  0  0  0
  6 12  1  0  0  0  0
  8 10  1  0  0  0  0
  9 13  1  0  0  0  0
  9 14  1  0  0  0  0
  9 15  1  0  0  0  0
M  END
> <PUBCHEM_COMPOUND_CID>
443075

> <PUBCHEM_CONFORMER_RMSD>
0.6

> <PUBCHEM_CONFORMER_DIVERSEORDER>
1
2
3

> <PUBCHEM_MMFF94_PARTIAL_CHARGES>
13
1 -0.57
10 0.72
11 0.37
12 0.37
16 0.5
2 -0.57
3 -0.65
4 -0.57
5 -0.49
6 -0.73
7 0.69
8 0.63
9 0.3

> <PUBCHEM_EFFECTIVE_ROTOR_COUNT>
4

> <PUBCHEM_PHARMACOPHORE_FEATURES>
7
1 1 acceptor
1 2 acceptor
1 3 acceptor
1 4 acceptor
1 5 donor
1 6 donor
3 3 4 10 anion

> <PUBCHEM_HEAVY_ATOM_COUNT>
10

> <PUBCHEM_ATOM_DEF_STEREO_COUNT>
0

> <PUBCHEM_ATOM_UDEF_STEREO_COUNT>
0

> <PUBCHEM_BOND_DEF_STEREO_COUNT>
0

> <PUBCHEM_BOND_UDEF_STEREO_COUNT>
0

> <PUBCHEM_ISOTOPIC_ATOM_COUNT>
0

> <PUBCHEM_COMPONENT_COUNT>
1

> <PUBCHEM_CACTVS_TAUTO_COUNT>
5

> <PUBCHEM_CONFORMER_ID>
0006C2C300000001

> <PUBCHEM_MMFF94_ENERGY>
11.0818

> <PUBCHEM_FEATURE_SELFOVERLAP>
35.641

> <PUBCHEM_SHAPE_FINGERPRINT>
11062470 55 17458347459001840770
12897270 3 18412827971119366334
12932764 1 17346612858341375977
14325111 11 18410856516727059360
18342897 69 18411142454359530514
20201158 50 18334857242228669854
23402539 116 18114190765462685669
23552423 10 18201156550954965807
3248919 1 17167849851319117517

> <PUBCHEM_SHAPE_MULTIPOLES>
172.36
5.55
1.35
0.56
2.43
0.12
0
-1.35
0
-0.35
0
0.03
-0.01
0

> <PUBCHEM_SHAPE_SELFOVERLAP>
333.377

> <PUBCHEM_SHAPE_VOLUME>
103.6

> <PUBCHEM_COORDINATE_TYPE>
2
5
10

$$$$

