13217
  -OEChem-06261207543D

 17 18  0     0  0  0  0  0  0999 V2000
    1.6787    1.1087    0.0008 O   0  0  0  0  0  0  0  0  0  0  0  0
    1.8614   -1.1209   -0.0004 N   0  0  0  0  0  0  0  0  0  0  0  0
    3.1369   -0.5879   -0.0003 N   0  0  0  0  0  0  0  0  0  0  0  0
   -0.3908   -0.0489   -0.0003 C   0  0  0  0  0  0  0  0  0  0  0  0
    1.0511   -0.0950    0.0004 C   0  0  0  0  0  0  0  0  0  0  0  0
   -1.0486    1.1812   -0.0006 C   0  0  0  0  0  0  0  0  0  0  0  0
   -1.1273   -1.2336    0.0001 C   0  0  0  0  0  0  0  0  0  0  0  0
   -2.4427    1.2268   -0.0003 C   0  0  0  0  0  0  0  0  0  0  0  0
   -2.5215   -1.1880    0.0003 C   0  0  0  0  0  0  0  0  0  0  0  0
   -3.1790    0.0422    0.0002 C   0  0  0  0  0  0  0  0  0  0  0  0
    2.9818    0.7155    0.0001 C   0  0  0  0  0  0  0  0  0  0  0  0
   -0.5097    2.1252   -0.0008 H   0  0  0  0  0  0  0  0  0  0  0  0
   -0.6357   -2.2035    0.0005 H   0  0  0  0  0  0  0  0  0  0  0  0
   -2.9553    2.1843   -0.0004 H   0  0  0  0  0  0  0  0  0  0  0  0
   -3.0952   -2.1101    0.0007 H   0  0  0  0  0  0  0  0  0  0  0  0
   -4.2645    0.0776    0.0004 H   0  0  0  0  0  0  0  0  0  0  0  0
    3.7324    1.4901    0.0002 H   0  0  0  0  0  0  0  0  0  0  0  0
  1  5  1  0  0  0  0
  1 11  1  0  0  0  0
  2  3  1  0  0  0  0
  2  5  2  0  0  0  0
  3 11  2  0  0  0  0
  4  5  1  0  0  0  0
  4  6  2  0  0  0  0
  4  7  1  0  0  0  0
  6  8  1  0  0  0  0
  6 12  1  0  0  0  0
  7  9  2  0  0  0  0
  7 13  1  0  0  0  0
  8 10  2  0  0  0  0
  8 14  1  0  0  0  0
  9 10  1  0  0  0  0
  9 15  1  0  0  0  0
 10 16  1  0  0  0  0
 11 17  1  0  0  0  0
M  END
> <PUBCHEM_COMPOUND_CID>
13217

> <PUBCHEM_CONFORMER_RMSD>
0.4

> <PUBCHEM_CONFORMER_DIVERSEORDER>
1

> <PUBCHEM_MMFF94_PARTIAL_CHARGES>
17
1 -0.28
10 -0.15
11 0.33
12 0.15
13 0.15
14 0.15
15 0.15
16 0.15
17 0.15
2 -0.34
3 -0.34
4 0.05
5 0.43
6 -0.15
7 -0.15
8 -0.15
9 -0.15

> <PUBCHEM_EFFECTIVE_ROTOR_COUNT>
1

> <PUBCHEM_PHARMACOPHORE_FEATURES>
2
5 1 2 3 5 11 rings
6 4 6 7 8 9 10 rings

> <PUBCHEM_HEAVY_ATOM_COUNT>
11

> <PUBCHEM_ATOM_DEF_STEREO_COUNT>
0

> <PUBCHEM_ATOM_UDEF_STEREO_COUNT>
0

> <PUBCHEM_BOND_DEF_STEREO_COUNT>
0

> <PUBCHEM_BOND_UDEF_STEREO_COUNT>
0

> <PUBCHEM_ISOTOPIC_ATOM_COUNT>
0

> <PUBCHEM_COMPONENT_COUNT>
1

> <PUBCHEM_CACTVS_TAUTO_COUNT>
1

> <PUBCHEM_CONFORMER_ID>
000033A100000001

> <PUBCHEM_MMFF94_ENERGY>
19.9022

> <PUBCHEM_FEATURE_SELFOVERLAP>
10.149

> <PUBCHEM_SHAPE_FINGERPRINT>
10608611 8 18409453582908749184
12897270 3 18410575058903831190
12932764 1 18410570686637666872
13024252 1 15769775758553692329
14144814 61 18411701006092237458
14325111 11 18410575101864170529
15775835 57 18271522095461239001
16945 1 18410856546950072997
19973954 147 18410290298287993868
20201158 50 18334576862463188991
20871998 184 18187641341590315287
23402539 116 18187656816652472637
23463225 33 18341333400297470418
23552423 10 18272932682948642199
2748010 2 18410292493015976957
3248919 1 18410019835607131366
369184 2 18409730660054706841
5084963 1 18408323302103245953
6333449 129 18408888429879256413

> <PUBCHEM_SHAPE_MULTIPOLES>
210.54
5.16
1.42
0.59
1.51
0.01
0
0.05
0
-0.39
0
-0.06
0
0

> <PUBCHEM_SHAPE_SELFOVERLAP>
458.682

> <PUBCHEM_SHAPE_VOLUME>
116.5

> <PUBCHEM_COORDINATE_TYPE>
2
5
10

$$$$

