21368
  -OEChem-07051213003D

 27 27  0     0  0  0  0  0  0999 V2000
   -2.7128    0.8791   -0.1023 O   0  0  0  0  0  0  0  0  0  0  0  0
    2.6342    0.1131    0.8424 O   0  0  0  0  0  0  0  0  0  0  0  0
    2.6197   -0.2261   -1.4344 O   0  0  0  0  0  0  0  0  0  0  0  0
   -0.0676    1.7084   -0.4845 N   0  0  0  0  0  0  0  0  0  0  0  0
   -0.3740    0.3527   -0.2228 C   0  0  0  0  0  0  0  0  0  0  0  0
    0.6446   -0.5975   -0.1513 C   0  0  0  0  0  0  0  0  0  0  0  0
   -1.7015   -0.0326   -0.0363 C   0  0  0  0  0  0  0  0  0  0  0  0
    0.3357   -1.9331    0.1066 C   0  0  0  0  0  0  0  0  0  0  0  0
   -2.0105   -1.3681    0.2216 C   0  0  0  0  0  0  0  0  0  0  0  0
   -0.9918   -2.3184    0.2932 C   0  0  0  0  0  0  0  0  0  0  0  0
    2.0422   -0.2295   -0.3413 C   0  0  0  0  0  0  0  0  0  0  0  0
   -0.3929    2.7631    0.4218 C   0  0  0  0  0  0  0  0  0  0  0  0
   -4.0374    0.3922    0.1014 C   0  0  0  0  0  0  0  0  0  0  0  0
    4.0123    0.4967    0.7860 C   0  0  0  0  0  0  0  0  0  0  0  0
    1.1204   -2.6831    0.1648 H   0  0  0  0  0  0  0  0  0  0  0  0
   -3.0162   -1.7427    0.3770 H   0  0  0  0  0  0  0  0  0  0  0  0
    0.7691    1.8551   -1.0417 H   0  0  0  0  0  0  0  0  0  0  0  0
   -1.2312   -3.3587    0.4941 H   0  0  0  0  0  0  0  0  0  0  0  0
   -0.0650    2.5272    1.4396 H   0  0  0  0  0  0  0  0  0  0  0  0
   -1.4649    2.9777    0.4362 H   0  0  0  0  0  0  0  0  0  0  0  0
    0.1151    3.6832    0.1152 H   0  0  0  0  0  0  0  0  0  0  0  0
   -4.1690   -0.0123    1.1108 H   0  0  0  0  0  0  0  0  0  0  0  0
   -4.3307   -0.3205   -0.6770 H   0  0  0  0  0  0  0  0  0  0  0  0
   -4.7120    1.2506    0.0145 H   0  0  0  0  0  0  0  0  0  0  0  0
    4.6188   -0.3307    0.4062 H   0  0  0  0  0  0  0  0  0  0  0  0
    4.3404    0.7379    1.8004 H   0  0  0  0  0  0  0  0  0  0  0  0
    4.1308    1.3838    0.1567 H   0  0  0  0  0  0  0  0  0  0  0  0
  1  7  1  0  0  0  0
  1 13  1  0  0  0  0
  2 11  1  0  0  0  0
  2 14  1  0  0  0  0
  3 11  2  0  0  0  0
  4  5  1  0  0  0  0
  4 12  1  0  0  0  0
  4 17  1  0  0  0  0
  5  6  2  0  0  0  0
  5  7  1  0  0  0  0
  6  8  1  0  0  0  0
  6 11  1  0  0  0  0
  7  9  2  0  0  0  0
  8 10  2  0  0  0  0
  8 15  1  0  0  0  0
  9 10  1  0  0  0  0
  9 16  1  0  0  0  0
 10 18  1  0  0  0  0
 12 19  1  0  0  0  0
 12 20  1  0  0  0  0
 12 21  1  0  0  0  0
 13 22  1  0  0  0  0
 13 23  1  0  0  0  0
 13 24  1  0  0  0  0
 14 25  1  0  0  0  0
 14 26  1  0  0  0  0
 14 27  1  0  0  0  0
M  END
> <PUBCHEM_COMPOUND_CID>
21368

> <PUBCHEM_CONFORMER_RMSD>
0.6

> <PUBCHEM_CONFORMER_DIVERSEORDER>
12
1
9
15
10
6
16
8
11
13
7
5
14
2
3
4

> <PUBCHEM_MMFF94_PARTIAL_CHARGES>
18
1 -0.36
10 -0.15
11 0.63
12 0.37
13 0.28
14 0.28
15 0.15
16 0.15
17 0.4
18 0.15
2 -0.43
3 -0.57
4 -0.87
5 0.1
6 0.09
7 0.08
8 -0.15
9 -0.15

> <PUBCHEM_EFFECTIVE_ROTOR_COUNT>
4

> <PUBCHEM_PHARMACOPHORE_FEATURES>
5
1 1 acceptor
1 3 acceptor
1 4 cation
1 4 donor
6 5 6 7 8 9 10 rings

> <PUBCHEM_HEAVY_ATOM_COUNT>
14

> <PUBCHEM_ATOM_DEF_STEREO_COUNT>
0

> <PUBCHEM_ATOM_UDEF_STEREO_COUNT>
0

> <PUBCHEM_BOND_DEF_STEREO_COUNT>
0

> <PUBCHEM_BOND_UDEF_STEREO_COUNT>
0

> <PUBCHEM_ISOTOPIC_ATOM_COUNT>
0

> <PUBCHEM_COMPONENT_COUNT>
1

> <PUBCHEM_CACTVS_TAUTO_COUNT>
2

> <PUBCHEM_CONFORMER_ID>
000053780000000C

> <PUBCHEM_MMFF94_ENERGY>
67.7202

> <PUBCHEM_FEATURE_SELFOVERLAP>
25.371

> <PUBCHEM_SHAPE_FINGERPRINT>
11132069 177 18410293605417781219
12119455 92 17458635518580225646
12382932 28 18411419496761160730
12423570 1 6552928184595541070
13140716 1 18268143154959347617
13214271 11 18188498956338178004
13380535 76 18413109467977602043
14614273 12 18127982007801570981
15219456 202 18040994025633110726
15775835 57 18342182171797686418
16945 1 18271802436735265279
17846911 113 18410863173942277008
193761 8 17834674898986035605
20510252 161 18335423529456212848
20588541 1 18407760347849524066
20645476 183 17488444326443987486
21501502 16 18051692140289566997
22802520 49 18043229414002322214
2334 1 18051688841839144629
23402539 116 18261689111429156126
23419403 2 17404906594124339598
23557571 272 18190169101837446462
23559900 14 18336254696755569662
2748010 2 18124312697408359311
5255222 1 17188401110832525636
528886 8 18411420622264209651
53812653 166 18408326579353138539
6333449 129 18335708204120034279
7364860 26 18119532291070498462
77492 1 17417812795108808622
81228 2 18264754610008917496

> <PUBCHEM_SHAPE_MULTIPOLES>
265.52
5.27
2.32
0.85
1.18
0.5
-0.1
0.92
0.72
-0.85
0.31
0.57
0.02
0.26

> <PUBCHEM_SHAPE_SELFOVERLAP>
546.823

> <PUBCHEM_SHAPE_VOLUME>
153.9

> <PUBCHEM_COORDINATE_TYPE>
2
5
10

$$$$

