12783
  -OEChem-06261207222D

 25 26  0     0  0  0  0  0  0999 V2000
    4.5878    0.6981    0.0000 O   0  0  0  0  0  0  0  0  0  0  0  0
    6.3479    0.9769    0.0000 O   0  0  0  0  0  0  0  0  0  0  0  0
    4.0000   -0.1109    0.0000 C   0  0  0  0  0  0  0  0  0  0  0  0
    3.5000   -0.9769    0.0000 C   0  0  0  0  0  0  0  0  0  0  0  0
    3.5000    0.7551    0.0000 C   0  0  0  0  0  0  0  0  0  0  0  0
    4.5878   -0.9199    0.0000 C   0  0  0  0  0  0  0  0  0  0  0  0
    2.5000    0.7551    0.0000 C   0  0  0  0  0  0  0  0  0  0  0  0
    2.5000   -0.9769    0.0000 C   0  0  0  0  0  0  0  0  0  0  0  0
    2.0000   -0.1109    0.0000 C   0  0  0  0  0  0  0  0  0  0  0  0
    5.5388   -0.6109    0.0000 C   0  0  0  0  0  0  0  0  0  0  0  0
    5.5388    0.3891    0.0000 C   0  0  0  0  0  0  0  0  0  0  0  0
    4.0826    0.9672    0.0000 H   0  0  0  0  0  0  0  0  0  0  0  0
    3.3923    1.3657    0.0000 H   0  0  0  0  0  0  0  0  0  0  0  0
    3.3923   -1.5875    0.0000 H   0  0  0  0  0  0  0  0  0  0  0  0
    4.0826   -1.1890    0.0000 H   0  0  0  0  0  0  0  0  0  0  0  0
    4.0508   -1.2299    0.0000 H   0  0  0  0  0  0  0  0  0  0  0  0
    4.8400   -1.4863    0.0000 H   0  0  0  0  0  0  0  0  0  0  0  0
    2.6077    1.3657    0.0000 H   0  0  0  0  0  0  0  0  0  0  0  0
    1.9174    0.9672    0.0000 H   0  0  0  0  0  0  0  0  0  0  0  0
    1.9174   -1.1890    0.0000 H   0  0  0  0  0  0  0  0  0  0  0  0
    2.6077   -1.5875    0.0000 H   0  0  0  0  0  0  0  0  0  0  0  0
    1.5250    0.2876    0.0000 H   0  0  0  0  0  0  0  0  0  0  0  0
    1.5250   -0.5094    0.0000 H   0  0  0  0  0  0  0  0  0  0  0  0
    5.6678   -1.2173    0.0000 H   0  0  0  0  0  0  0  0  0  0  0  0
    6.1554   -0.5461    0.0000 H   0  0  0  0  0  0  0  0  0  0  0  0
  1  3  1  0  0  0  0
  1 11  1  0  0  0  0
  2 11  2  0  0  0  0
  3  4  1  0  0  0  0
  3  5  1  0  0  0  0
  3  6  1  0  0  0  0
  4  8  1  0  0  0  0
  4 14  1  0  0  0  0
  4 15  1  0  0  0  0
  5  7  1  0  0  0  0
  5 12  1  0  0  0  0
  5 13  1  0  0  0  0
  6 10  1  0  0  0  0
  6 16  1  0  0  0  0
  6 17  1  0  0  0  0
  7  9  1  0  0  0  0
  7 18  1  0  0  0  0
  7 19  1  0  0  0  0
  8  9  1  0  0  0  0
  8 20  1  0  0  0  0
  8 21  1  0  0  0  0
  9 22  1  0  0  0  0
  9 23  1  0  0  0  0
 10 11  1  0  0  0  0
 10 24  1  0  0  0  0
 10 25  1  0  0  0  0
M  END
> <PUBCHEM_COMPOUND_CID>
12783

> <PUBCHEM_COMPOUND_CANONICALIZED>
1

> <PUBCHEM_CACTVS_COMPLEXITY>
168

> <PUBCHEM_CACTVS_HBOND_ACCEPTOR>
2

> <PUBCHEM_CACTVS_HBOND_DONOR>
0

> <PUBCHEM_CACTVS_ROTATABLE_BOND>
0

> <PUBCHEM_CACTVS_SUBSKEYS>
AAADccBwMAAAAAAAAAAAAAAAAAAAASAAAAAwAAAAAAAAAAAAAAAAGgAAAAAADESAgAAACAAABAAIAACQCAAAAAAAAAAAAAEAAAAAABIAAAACAAAEAAAAAAGKyKCOAAAAAAAAAAAAAAAAAAAAAAAAAAAAAA==

> <PUBCHEM_IUPAC_OPENEYE_NAME>
1-oxaspiro[4.5]decan-2-one

> <PUBCHEM_IUPAC_CAS_NAME>
1-oxaspiro[4.5]decan-2-one

> <PUBCHEM_IUPAC_NAME>
1-oxaspiro[4.5]decan-2-one

> <PUBCHEM_IUPAC_SYSTEMATIC_NAME>
1-oxaspiro[4.5]decan-2-one

> <PUBCHEM_IUPAC_TRADITIONAL_NAME>
1-oxaspiro[4.5]decan-2-one

> <PUBCHEM_IUPAC_INCHI>
InChI=1S/C9H14O2/c10-8-4-7-9(11-8)5-2-1-3-6-9/h1-7H2

> <PUBCHEM_IUPAC_INCHIKEY>
QYNYVJFXPJUEMW-UHFFFAOYSA-N

> <PUBCHEM_XLOGP3_AA>
1.8

> <PUBCHEM_EXACT_MASS>
154.09938

> <PUBCHEM_MOLECULAR_FORMULA>
C9H14O2

> <PUBCHEM_MOLECULAR_WEIGHT>
154.20626

> <PUBCHEM_OPENEYE_CAN_SMILES>
C1CCC2(CC1)CCC(=O)O2

> <PUBCHEM_OPENEYE_ISO_SMILES>
C1CCC2(CC1)CCC(=O)O2

> <PUBCHEM_CACTVS_TPSA>
26.3

> <PUBCHEM_MONOISOTOPIC_WEIGHT>
154.09938

> <PUBCHEM_TOTAL_CHARGE>
0

> <PUBCHEM_HEAVY_ATOM_COUNT>
11

> <PUBCHEM_ATOM_DEF_STEREO_COUNT>
0

> <PUBCHEM_ATOM_UDEF_STEREO_COUNT>
0

> <PUBCHEM_BOND_DEF_STEREO_COUNT>
0

> <PUBCHEM_BOND_UDEF_STEREO_COUNT>
0

> <PUBCHEM_ISOTOPIC_ATOM_COUNT>
0

> <PUBCHEM_COMPONENT_COUNT>
1

> <PUBCHEM_CACTVS_TAUTO_COUNT>
2

> <PUBCHEM_COORDINATE_TYPE>
1
5
255

$$$$

