156224
  -OEChem-07051213063D

 40 42  0     1  0  0  0  0  0999 V2000
    5.4117   -1.3671    0.4126 O   0  0  0  0  0  0  0  0  0  0  0  0
   -5.6902   -0.8362    0.9521 O   0  0  0  0  0  0  0  0  0  0  0  0
   -0.3408    0.1646   -0.6831 C   0  0  1  0  0  0  0  0  0  0  0  0
    0.4197    1.2230    0.1932 C   0  0  1  0  0  0  0  0  0  0  0  0
    0.5747   -1.1106   -0.7267 C   0  0  2  0  0  0  0  0  0  0  0  0
    1.8139    0.6732    0.2917 C   0  0  0  0  0  0  0  0  0  0  0  0
    1.8998   -0.6196   -0.2177 C   0  0  0  0  0  0  0  0  0  0  0  0
    0.4051    2.6142   -0.4446 C   0  0  0  0  0  0  0  0  0  0  0  0
   -1.7849   -0.1051   -0.2420 C   0  0  0  0  0  0  0  0  0  0  0  0
    0.6911   -1.6860   -2.1402 C   0  0  0  0  0  0  0  0  0  0  0  0
    2.9275    1.2907    0.8501 C   0  0  0  0  0  0  0  0  0  0  0  0
    3.1008   -1.3191   -0.1781 C   0  0  0  0  0  0  0  0  0  0  0  0
   -1.0014    3.1798   -0.5125 C   0  0  0  0  0  0  0  0  0  0  0  0
   -2.8404    0.1671   -1.1106 C   0  0  0  0  0  0  0  0  0  0  0  0
   -2.0384   -0.6231    1.0269 C   0  0  0  0  0  0  0  0  0  0  0  0
    4.2258   -0.7001    0.3687 C   0  0  0  0  0  0  0  0  0  0  0  0
    4.1396    0.5995    0.8805 C   0  0  0  0  0  0  0  0  0  0  0  0
   -4.1534   -0.0788   -0.7091 C   0  0  0  0  0  0  0  0  0  0  0  0
   -3.3513   -0.8693    1.4284 C   0  0  0  0  0  0  0  0  0  0  0  0
   -4.4089   -0.5970    0.5605 C   0  0  0  0  0  0  0  0  0  0  0  0
   -0.3838    0.5583   -1.7101 H   0  0  0  0  0  0  0  0  0  0  0  0
    0.0040    1.2717    1.2073 H   0  0  0  0  0  0  0  0  0  0  0  0
    0.2065   -1.8878   -0.0467 H   0  0  0  0  0  0  0  0  0  0  0  0
    0.8480    2.5978   -1.4482 H   0  0  0  0  0  0  0  0  0  0  0  0
    1.0162    3.3027    0.1516 H   0  0  0  0  0  0  0  0  0  0  0  0
   -0.2972   -1.9612   -2.5234 H   0  0  0  0  0  0  0  0  0  0  0  0
    1.1374   -0.9657   -2.8352 H   0  0  0  0  0  0  0  0  0  0  0  0
    1.3133   -2.5873   -2.1520 H   0  0  0  0  0  0  0  0  0  0  0  0
    2.8659    2.2907    1.2667 H   0  0  0  0  0  0  0  0  0  0  0  0
    3.1658   -2.3336   -0.5592 H   0  0  0  0  0  0  0  0  0  0  0  0
   -1.5964    2.6925   -1.2875 H   0  0  0  0  0  0  0  0  0  0  0  0
   -1.5208    3.0904    0.4468 H   0  0  0  0  0  0  0  0  0  0  0  0
   -0.9593    4.2436   -0.7701 H   0  0  0  0  0  0  0  0  0  0  0  0
   -2.6582    0.5652   -2.1050 H   0  0  0  0  0  0  0  0  0  0  0  0
   -1.2264   -0.8407    1.7154 H   0  0  0  0  0  0  0  0  0  0  0  0
    5.0124    1.0808    1.3142 H   0  0  0  0  0  0  0  0  0  0  0  0
   -4.9729    0.1341   -1.3901 H   0  0  0  0  0  0  0  0  0  0  0  0
   -3.5371   -1.2730    2.4201 H   0  0  0  0  0  0  0  0  0  0  0  0
    6.0812   -0.7933    0.8231 H   0  0  0  0  0  0  0  0  0  0  0  0
   -5.6816   -1.1928    1.8570 H   0  0  0  0  0  0  0  0  0  0  0  0
  1 16  1  0  0  0  0
  1 39  1  0  0  0  0
  2 20  1  0  0  0  0
  2 40  1  0  0  0  0
  3  4  1  0  0  0  0
  3  5  1  0  0  0  0
  3  9  1  0  0  0  0
  3 21  1  0  0  0  0
  4  6  1  0  0  0  0
  4  8  1  0  0  0  0
  4 22  1  0  0  0  0
  5  7  1  0  0  0  0
  5 10  1  0  0  0  0
  5 23  1  0  0  0  0
  6  7  2  0  0  0  0
  6 11  1  0  0  0  0
  7 12  1  0  0  0  0
  8 13  1  0  0  0  0
  8 24  1  0  0  0  0
  8 25  1  0  0  0  0
  9 14  2  0  0  0  0
  9 15  1  0  0  0  0
 10 26  1  0  0  0  0
 10 27  1  0  0  0  0
 10 28  1  0  0  0  0
 11 17  2  0  0  0  0
 11 29  1  0  0  0  0
 12 16  2  0  0  0  0
 12 30  1  0  0  0  0
 13 31  1  0  0  0  0
 13 32  1  0  0  0  0
 13 33  1  0  0  0  0
 14 18  1  0  0  0  0
 14 34  1  0  0  0  0
 15 19  2  0  0  0  0
 15 35  1  0  0  0  0
 16 17  1  0  0  0  0
 17 36  1  0  0  0  0
 18 20  2  0  0  0  0
 18 37  1  0  0  0  0
 19 20  1  0  0  0  0
 19 38  1  0  0  0  0
M  END
> <PUBCHEM_COMPOUND_CID>
156224

> <PUBCHEM_CONFORMER_RMSD>
0.6

> <PUBCHEM_CONFORMER_DIVERSEORDER>
3
14
9
10
6
4
11
13
7
1
12
5
2
8

> <PUBCHEM_MMFF94_PARTIAL_CHARGES>
26
1 -0.53
11 -0.15
12 -0.15
14 -0.15
15 -0.15
16 0.08
17 -0.15
18 -0.15
19 -0.15
2 -0.53
20 0.08
29 0.15
3 0.14
30 0.15
34 0.15
35 0.15
36 0.15
37 0.15
38 0.15
39 0.45
4 0.14
40 0.45
5 0.14
6 -0.14
7 -0.14
9 -0.14

> <PUBCHEM_EFFECTIVE_ROTOR_COUNT>
2.6

> <PUBCHEM_PHARMACOPHORE_FEATURES>
6
1 1 donor
1 13 hydrophobe
1 2 donor
5 3 4 5 6 7 rings
6 6 7 11 12 16 17 rings
6 9 14 15 18 19 20 rings

> <PUBCHEM_HEAVY_ATOM_COUNT>
20

> <PUBCHEM_ATOM_DEF_STEREO_COUNT>
0

> <PUBCHEM_ATOM_UDEF_STEREO_COUNT>
3

> <PUBCHEM_BOND_DEF_STEREO_COUNT>
0

> <PUBCHEM_BOND_UDEF_STEREO_COUNT>
0

> <PUBCHEM_ISOTOPIC_ATOM_COUNT>
0

> <PUBCHEM_COMPONENT_COUNT>
1

> <PUBCHEM_CACTVS_TAUTO_COUNT>
18

> <PUBCHEM_CONFORMER_ID>
0002624000000003

> <PUBCHEM_MMFF94_ENERGY>
59.2262

> <PUBCHEM_FEATURE_SELFOVERLAP>
30.52

> <PUBCHEM_SHAPE_FINGERPRINT>
10465860 250 18131354115516487377
10688039 33 18201720660908915989
10906281 52 18338783607221311277
11796584 16 16988846068588852275
12236239 1 16950566566988498791
12251169 10 18113054930668798094
12363563 72 18273204296938930249
12633257 1 18270948052198045403
13134695 92 18339081484488351069
13140716 1 18115878408205192930
13544653 18 18342742909552760773
14115302 16 16845283913407828387
14252887 29 18335414686128917682
14386348 63 18273214196627693907
14787075 74 17773312340556345432
14790565 3 17620192032049091844
15238133 3 18201142356805880333
15309172 13 17894635859305624406
15885798 251 18272086097871766465
16945 1 18410013221842857300
17349148 13 18113616738461631535
17357779 13 18339094764474379181
17804303 29 17489590030929828331
1813 80 18262502775982966412
200 152 17967822639248282535
20261772 1 18187089433902483030
20600515 1 17988630905130290141
20739085 24 18334565833161544944
21033648 29 18188227454049059177
21041028 32 18411696582693368493
21267235 1 18335700590198150794
21637258 2 17060349517398578426
22182313 1 17751924863969615934
22854114 59 17749107798492638162
23175994 123 18272653441729666781
23184049 59 18187647976976689980
23402539 116 18409175424105324335
23557571 272 18200872993103843829
23559900 14 17917999403596345778
2748010 2 17825674627888037886
350125 39 18333453166666191440
465052 167 18409724050153260042
474 4 17385438791493192859
5104073 3 18264783228145852528
6992083 37 18041569018083746278
7495541 125 18058720300477204659
81228 2 18053364768106281461

> <PUBCHEM_SHAPE_MULTIPOLES>
399.85
9.34
2.2
1.32
2
2
0.26
-3.94
-3.64
-0.64
0.6
0.59
-0.45
0.9

> <PUBCHEM_SHAPE_SELFOVERLAP>
866.442

> <PUBCHEM_SHAPE_VOLUME>
221.5

> <PUBCHEM_COORDINATE_TYPE>
2
5
10

$$$$

