442745
  -OEChem-07051212592D

 33 34  0     0  0  0  0  0  0999 V2000
    2.5369   -1.0000    0.0000 O   0  0  0  0  0  0  0  0  0  0  0  0
    6.0174   -2.0346    0.0000 O   0  0  0  0  0  0  0  0  0  0  0  0
    7.7991   -1.0241    0.0000 O   0  0  0  0  0  0  0  0  0  0  0  0
    3.4030   -2.5000    0.0000 O   0  0  0  0  0  0  0  0  0  0  0  0
    4.2690    2.0000    0.0000 C   0  0  0  0  0  0  0  0  0  0  0  0
    4.2690    1.0000    0.0000 C   0  0  0  0  0  0  0  0  0  0  0  0
    5.1350    0.5000    0.0000 C   0  0  0  0  0  0  0  0  0  0  0  0
    5.1350   -0.5000    0.0000 C   0  0  0  0  0  0  0  0  0  0  0  0
    3.4030    0.5000    0.0000 C   0  0  0  0  0  0  0  0  0  0  0  0
    4.2690   -1.0000    0.0000 C   0  0  0  0  0  0  0  0  0  0  0  0
    6.0290    1.0347    0.0000 C   0  0  0  0  0  0  0  0  0  0  0  0
    3.4030    2.5000    0.0000 C   0  0  0  0  0  0  0  0  0  0  0  0
    5.1350    2.5000    0.0000 C   0  0  0  0  0  0  0  0  0  0  0  0
    3.4030   -0.5000    0.0000 C   0  0  0  0  0  0  0  0  0  0  0  0
    6.9350    0.5208    0.0000 C   0  0  0  0  0  0  0  0  0  0  0  0
    6.0290   -1.0347    0.0000 C   0  0  0  0  0  0  0  0  0  0  0  0
    6.9350   -0.5208    0.0000 C   0  0  0  0  0  0  0  0  0  0  0  0
    7.7991    1.0241    0.0000 C   0  0  0  0  0  0  0  0  0  0  0  0
    4.2690   -2.0000    0.0000 C   0  0  0  0  0  0  0  0  0  0  0  0
    4.2690    2.6200    0.0000 H   0  0  0  0  0  0  0  0  0  0  0  0
    2.8660    0.8100    0.0000 H   0  0  0  0  0  0  0  0  0  0  0  0
    6.0218    1.6546    0.0000 H   0  0  0  0  0  0  0  0  0  0  0  0
    3.7130    3.0369    0.0000 H   0  0  0  0  0  0  0  0  0  0  0  0
    2.8660    2.8100    0.0000 H   0  0  0  0  0  0  0  0  0  0  0  0
    3.0930    1.9631    0.0000 H   0  0  0  0  0  0  0  0  0  0  0  0
    5.4450    1.9631    0.0000 H   0  0  0  0  0  0  0  0  0  0  0  0
    5.6720    2.8100    0.0000 H   0  0  0  0  0  0  0  0  0  0  0  0
    4.8250    3.0369    0.0000 H   0  0  0  0  0  0  0  0  0  0  0  0
    8.1112    0.4884    0.0000 H   0  0  0  0  0  0  0  0  0  0  0  0
    8.3348    1.3362    0.0000 H   0  0  0  0  0  0  0  0  0  0  0  0
    7.4870    1.5599    0.0000 H   0  0  0  0  0  0  0  0  0  0  0  0
    4.8059   -2.3100    0.0000 H   0  0  0  0  0  0  0  0  0  0  0  0
    2.0000   -0.6900    0.0000 H   0  0  0  0  0  0  0  0  0  0  0  0
  1 14  1  0  0  0  0
  1 33  1  0  0  0  0
  2 16  2  0  0  0  0
  3 17  2  0  0  0  0
  4 19  2  0  0  0  0
  5  6  1  0  0  0  0
  5 12  1  0  0  0  0
  5 13  1  0  0  0  0
  5 20  1  0  0  0  0
  6  7  1  0  0  0  0
  6  9  2  0  0  0  0
  7  8  2  0  0  0  0
  7 11  1  0  0  0  0
  8 10  1  0  0  0  0
  8 16  1  0  0  0  0
  9 14  1  0  0  0  0
  9 21  1  0  0  0  0
 10 14  2  0  0  0  0
 10 19  1  0  0  0  0
 11 15  2  0  0  0  0
 11 22  1  0  0  0  0
 12 23  1  0  0  0  0
 12 24  1  0  0  0  0
 12 25  1  0  0  0  0
 13 26  1  0  0  0  0
 13 27  1  0  0  0  0
 13 28  1  0  0  0  0
 15 17  1  0  0  0  0
 15 18  1  0  0  0  0
 16 17  1  0  0  0  0
 18 29  1  0  0  0  0
 18 30  1  0  0  0  0
 18 31  1  0  0  0  0
 19 32  1  0  0  0  0
M  END
> <PUBCHEM_COMPOUND_CID>
442745

> <PUBCHEM_COMPOUND_CANONICALIZED>
1

> <PUBCHEM_CACTVS_COMPLEXITY>
449

> <PUBCHEM_CACTVS_HBOND_ACCEPTOR>
4

> <PUBCHEM_CACTVS_HBOND_DONOR>
1

> <PUBCHEM_CACTVS_ROTATABLE_BOND>
2

> <PUBCHEM_CACTVS_SUBSKEYS>
AAADccBwOAAAAAAAAAAAAAAAAAAAAAAAAAAwQAAAAAAAAACBAAAAGgAACAAADQSgmAIyBoAAAgCIAqhSgAACAAAkIAAAiAEGCMgIJjaCFRKAcUAk4BEImYeLzvDu4AADAAAYAADAAAYAADAAAAAAAAAAAA==

> <PUBCHEM_IUPAC_OPENEYE_NAME>
2-hydroxy-4-isopropyl-6-methyl-7,8-dioxo-naphthalene-1-carbaldehyde

> <PUBCHEM_IUPAC_CAS_NAME>
2-hydroxy-6-methyl-7,8-dioxo-4-propan-2-yl-1-naphthalenecarboxaldehyde

> <PUBCHEM_IUPAC_NAME>
2-hydroxy-6-methyl-7,8-dioxo-4-propan-2-ylnaphthalene-1-carbaldehyde

> <PUBCHEM_IUPAC_SYSTEMATIC_NAME>
6-methyl-2-oxidanyl-7,8-bis(oxidanylidene)-4-propan-2-yl-naphthalene-1-carbaldehyde

> <PUBCHEM_IUPAC_TRADITIONAL_NAME>
2-hydroxy-4-isopropyl-7,8-diketo-6-methyl-naphthalene-1-carbaldehyde

> <PUBCHEM_IUPAC_INCHI>
InChI=1S/C15H14O4/c1-7(2)9-5-12(17)11(6-16)13-10(9)4-8(3)14(18)15(13)19/h4-7,17H,1-3H3

> <PUBCHEM_IUPAC_INCHIKEY>
RYRSAPYRKZIJNE-UHFFFAOYSA-N

> <PUBCHEM_XLOGP3_AA>
2.6

> <PUBCHEM_EXACT_MASS>
258.089209

> <PUBCHEM_MOLECULAR_FORMULA>
C15H14O4

> <PUBCHEM_MOLECULAR_WEIGHT>
258.26926

> <PUBCHEM_OPENEYE_CAN_SMILES>
CC1=CC2=C(C(=C(C=C2C(C)C)O)C=O)C(=O)C1=O

> <PUBCHEM_OPENEYE_ISO_SMILES>
CC1=CC2=C(C(=C(C=C2C(C)C)O)C=O)C(=O)C1=O

> <PUBCHEM_CACTVS_TPSA>
71.4

> <PUBCHEM_MONOISOTOPIC_WEIGHT>
258.089209

> <PUBCHEM_TOTAL_CHARGE>
0

> <PUBCHEM_HEAVY_ATOM_COUNT>
19

> <PUBCHEM_ATOM_DEF_STEREO_COUNT>
0

> <PUBCHEM_ATOM_UDEF_STEREO_COUNT>
0

> <PUBCHEM_BOND_DEF_STEREO_COUNT>
0

> <PUBCHEM_BOND_UDEF_STEREO_COUNT>
0

> <PUBCHEM_ISOTOPIC_ATOM_COUNT>
0

> <PUBCHEM_COMPONENT_COUNT>
1

> <PUBCHEM_CACTVS_TAUTO_COUNT>
188

> <PUBCHEM_COORDINATE_TYPE>
1
5
255

> <PUBCHEM_BONDANNOTATIONS>
10  14  8
6  7  8
6  9  8
7  8  8
8  10  8
9  14  8

$$$$

