9174
  -OEChem-06261203282D

 29 32  0     0  0  0  0  0  0999 V2000
    4.7607   -1.8206    0.0000 N   0  0  0  0  0  0  0  0  0  0  0  0
    2.9847    0.1863    0.0000 C   0  0  0  0  0  0  0  0  0  0  0  0
    3.8507   -0.3137    0.0000 C   0  0  0  0  0  0  0  0  0  0  0  0
    2.9686    1.2278    0.0000 C   0  0  0  0  0  0  0  0  0  0  0  0
    3.8507   -1.3137    0.0000 C   0  0  0  0  0  0  0  0  0  0  0  0
    3.8667    1.7555    0.0000 C   0  0  0  0  0  0  0  0  0  0  0  0
    2.9847   -1.8137    0.0000 C   0  0  0  0  0  0  0  0  0  0  0  0
    2.1187   -0.3137    0.0000 C   0  0  0  0  0  0  0  0  0  0  0  0
    4.7607    0.1931    0.0000 C   0  0  0  0  0  0  0  0  0  0  0  0
    4.7688    1.2347    0.0000 C   0  0  0  0  0  0  0  0  0  0  0  0
    2.1187   -1.3137    0.0000 C   0  0  0  0  0  0  0  0  0  0  0  0
    2.0167    1.7484    0.0000 C   0  0  0  0  0  0  0  0  0  0  0  0
    3.8751    2.8405    0.0000 C   0  0  0  0  0  0  0  0  0  0  0  0
    2.9686   -2.8552    0.0000 C   0  0  0  0  0  0  0  0  0  0  0  0
    2.0000    2.8333    0.0000 C   0  0  0  0  0  0  0  0  0  0  0  0
    2.9354    3.3830    0.0000 C   0  0  0  0  0  0  0  0  0  0  0  0
    3.8667   -3.3830    0.0000 C   0  0  0  0  0  0  0  0  0  0  0  0
    4.7688   -2.8622    0.0000 C   0  0  0  0  0  0  0  0  0  0  0  0
    1.5818   -0.0037    0.0000 H   0  0  0  0  0  0  0  0  0  0  0  0
    5.2941   -0.1231    0.0000 H   0  0  0  0  0  0  0  0  0  0  0  0
    5.3069    1.5426    0.0000 H   0  0  0  0  0  0  0  0  0  0  0  0
    1.5818   -1.6237    0.0000 H   0  0  0  0  0  0  0  0  0  0  0  0
    1.4859    1.4281    0.0000 H   0  0  0  0  0  0  0  0  0  0  0  0
    4.4132    3.1484    0.0000 H   0  0  0  0  0  0  0  0  0  0  0  0
    2.4282   -3.1590    0.0000 H   0  0  0  0  0  0  0  0  0  0  0  0
    1.4595    3.1370    0.0000 H   0  0  0  0  0  0  0  0  0  0  0  0
    2.9330    4.0030    0.0000 H   0  0  0  0  0  0  0  0  0  0  0  0
    3.8643   -4.0030    0.0000 H   0  0  0  0  0  0  0  0  0  0  0  0
    5.3069   -3.1701    0.0000 H   0  0  0  0  0  0  0  0  0  0  0  0
  1  5  1  0  0  0  0
  1 18  2  0  0  0  0
  2  3  2  0  0  0  0
  2  4  1  0  0  0  0
  2  8  1  0  0  0  0
  3  5  1  0  0  0  0
  3  9  1  0  0  0  0
  4  6  1  0  0  0  0
  4 12  2  0  0  0  0
  5  7  2  0  0  0  0
  6 10  1  0  0  0  0
  6 13  2  0  0  0  0
  7 11  1  0  0  0  0
  7 14  1  0  0  0  0
  8 11  2  0  0  0  0
  8 19  1  0  0  0  0
  9 10  2  0  0  0  0
  9 20  1  0  0  0  0
 10 21  1  0  0  0  0
 11 22  1  0  0  0  0
 12 15  1  0  0  0  0
 12 23  1  0  0  0  0
 13 16  1  0  0  0  0
 13 24  1  0  0  0  0
 14 17  2  0  0  0  0
 14 25  1  0  0  0  0
 15 16  2  0  0  0  0
 15 26  1  0  0  0  0
 16 27  1  0  0  0  0
 17 18  1  0  0  0  0
 17 28  1  0  0  0  0
 18 29  1  0  0  0  0
M  END
> <PUBCHEM_COMPOUND_CID>
9174

> <PUBCHEM_COMPOUND_CANONICALIZED>
1

> <PUBCHEM_CACTVS_COMPLEXITY>
300

> <PUBCHEM_CACTVS_HBOND_ACCEPTOR>
1

> <PUBCHEM_CACTVS_HBOND_DONOR>
0

> <PUBCHEM_CACTVS_ROTATABLE_BOND>
0

> <PUBCHEM_CACTVS_SUBSKEYS>
AAADccB6AAAAAAAAAAAAAAAAAAAAAAAAAAA8YMEAAAAAAADx9AAAHAAAAAAADAjBHgQ8wPIIEACgAzRnRACCgCAxAiAI2CA4ZJgIIOLAkZGEIAhggADIyAcQgMAOwAACQAASAACAAASAACQAAAAAAAAAAA==

> <PUBCHEM_IUPAC_OPENEYE_NAME>
naphtho[1,2-h]quinoline

> <PUBCHEM_IUPAC_CAS_NAME>
naphtho[1,2-h]quinoline

> <PUBCHEM_IUPAC_NAME>
naphtho[1,2-h]quinoline

> <PUBCHEM_IUPAC_SYSTEMATIC_NAME>
naphtho[1,2-h]quinoline

> <PUBCHEM_IUPAC_TRADITIONAL_NAME>
naphtho[1,2-h]quinoline

> <PUBCHEM_IUPAC_INCHI>
InChI=1S/C17H11N/c1-2-6-14-12(4-1)7-10-16-15(14)9-8-13-5-3-11-18-17(13)16/h1-11H

> <PUBCHEM_IUPAC_INCHIKEY>
OZIRORHUKSXTLG-UHFFFAOYSA-N

> <PUBCHEM_XLOGP3>
4.8

> <PUBCHEM_EXACT_MASS>
229.089149

> <PUBCHEM_MOLECULAR_FORMULA>
C17H11N

> <PUBCHEM_MOLECULAR_WEIGHT>
229.27594

> <PUBCHEM_OPENEYE_CAN_SMILES>
C1=CC=C2C(=C1)C=CC3=C2C=CC4=C3N=CC=C4

> <PUBCHEM_OPENEYE_ISO_SMILES>
C1=CC=C2C(=C1)C=CC3=C2C=CC4=C3N=CC=C4

> <PUBCHEM_CACTVS_TPSA>
12.9

> <PUBCHEM_MONOISOTOPIC_WEIGHT>
229.089149

> <PUBCHEM_TOTAL_CHARGE>
0

> <PUBCHEM_HEAVY_ATOM_COUNT>
18

> <PUBCHEM_ATOM_DEF_STEREO_COUNT>
0

> <PUBCHEM_ATOM_UDEF_STEREO_COUNT>
0

> <PUBCHEM_BOND_DEF_STEREO_COUNT>
0

> <PUBCHEM_BOND_UDEF_STEREO_COUNT>
0

> <PUBCHEM_ISOTOPIC_ATOM_COUNT>
0

> <PUBCHEM_COMPONENT_COUNT>
1

> <PUBCHEM_CACTVS_TAUTO_COUNT>
1

> <PUBCHEM_COORDINATE_TYPE>
1
5
255

> <PUBCHEM_BONDANNOTATIONS>
1  18  8
1  5  8
12  15  8
13  16  8
14  17  8
15  16  8
17  18  8
2  3  8
2  4  8
2  8  8
3  5  8
3  9  8
4  12  8
4  6  8
5  7  8
6  10  8
6  13  8
7  11  8
7  14  8
8  11  8
9  10  8

$$$$

