12791
  -OEChem-06261207223D

 21 21  0     1  0  0  0  0  0999 V2000
    2.0763    0.3076   -1.4859 O   0  0  0  0  0  0  0  0  0  0  0  0
    1.5374    1.5090    1.1766 N   0  0  0  0  0  0  0  0  0  0  0  0
    2.9112   -1.3021   -0.0778 N   0  0  0  0  0  0  0  0  0  0  0  0
    1.1499    0.1483    0.7610 C   0  0  1  0  0  0  0  0  0  0  0  0
   -0.2847    0.0355    0.3687 C   0  0  0  0  0  0  0  0  0  0  0  0
   -0.9419    1.1294   -0.1943 C   0  0  0  0  0  0  0  0  0  0  0  0
   -0.9692   -1.1638    0.5651 C   0  0  0  0  0  0  0  0  0  0  0  0
    2.0839   -0.2434   -0.3869 C   0  0  0  0  0  0  0  0  0  0  0  0
   -2.2837    1.0241   -0.5608 C   0  0  0  0  0  0  0  0  0  0  0  0
   -2.3110   -1.2693    0.1986 C   0  0  0  0  0  0  0  0  0  0  0  0
   -2.9681   -0.1752   -0.3644 C   0  0  0  0  0  0  0  0  0  0  0  0
    1.3272   -0.4989    1.6287 H   0  0  0  0  0  0  0  0  0  0  0  0
   -0.4414    2.0747   -0.3803 H   0  0  0  0  0  0  0  0  0  0  0  0
   -0.4684   -2.0244    1.0008 H   0  0  0  0  0  0  0  0  0  0  0  0
    1.5799    2.1274    0.3671 H   0  0  0  0  0  0  0  0  0  0  0  0
    2.4836    1.4870    1.5567 H   0  0  0  0  0  0  0  0  0  0  0  0
   -2.7948    1.8744   -1.0030 H   0  0  0  0  0  0  0  0  0  0  0  0
   -2.8439   -2.2033    0.3506 H   0  0  0  0  0  0  0  0  0  0  0  0
   -4.0125   -0.2577   -0.6509 H   0  0  0  0  0  0  0  0  0  0  0  0
    2.9033   -1.7584    0.8286 H   0  0  0  0  0  0  0  0  0  0  0  0
    3.5698   -1.6627   -0.7603 H   0  0  0  0  0  0  0  0  0  0  0  0
  1  8  2  0  0  0  0
  2  4  1  0  0  0  0
  2 15  1  0  0  0  0
  2 16  1  0  0  0  0
  3  8  1  0  0  0  0
  3 20  1  0  0  0  0
  3 21  1  0  0  0  0
  4  5  1  0  0  0  0
  4  8  1  0  0  0  0
  4 12  1  0  0  0  0
  5  6  2  0  0  0  0
  5  7  1  0  0  0  0
  6  9  1  0  0  0  0
  6 13  1  0  0  0  0
  7 10  2  0  0  0  0
  7 14  1  0  0  0  0
  9 11  2  0  0  0  0
  9 17  1  0  0  0  0
 10 11  1  0  0  0  0
 10 18  1  0  0  0  0
 11 19  1  0  0  0  0
M  END
> <PUBCHEM_COMPOUND_CID>
12791

> <PUBCHEM_CONFORMER_RMSD>
0.4

> <PUBCHEM_CONFORMER_DIVERSEORDER>
5
2
13
9
15
10
8
14
4
6
11
3
12
1
7

> <PUBCHEM_MMFF94_PARTIAL_CHARGES>
20
1 -0.57
10 -0.15
11 -0.15
13 0.15
14 0.15
15 0.36
16 0.36
17 0.15
18 0.15
19 0.15
2 -0.99
20 0.37
21 0.37
3 -0.8
4 0.47
5 -0.14
6 -0.15
7 -0.15
8 0.57
9 -0.15

> <PUBCHEM_EFFECTIVE_ROTOR_COUNT>
2

> <PUBCHEM_PHARMACOPHORE_FEATURES>
5
1 1 acceptor
1 2 cation
1 2 donor
1 3 donor
6 5 6 7 9 10 11 rings

> <PUBCHEM_HEAVY_ATOM_COUNT>
11

> <PUBCHEM_ATOM_DEF_STEREO_COUNT>
0

> <PUBCHEM_ATOM_UDEF_STEREO_COUNT>
1

> <PUBCHEM_BOND_DEF_STEREO_COUNT>
0

> <PUBCHEM_BOND_UDEF_STEREO_COUNT>
0

> <PUBCHEM_ISOTOPIC_ATOM_COUNT>
0

> <PUBCHEM_COMPONENT_COUNT>
1

> <PUBCHEM_CACTVS_TAUTO_COUNT>
2

> <PUBCHEM_CONFORMER_ID>
000031F700000005

> <PUBCHEM_MMFF94_ENERGY>
26.6555

> <PUBCHEM_FEATURE_SELFOVERLAP>
25.371

> <PUBCHEM_SHAPE_FINGERPRINT>
12524768 44 18195536895807672033
12716758 59 18342745126051265059
12897270 3 18201145555981152046
12932764 1 18261670381192894039
15219456 202 18261683571037479872
16945 1 18336271227409412803
20201158 50 18186803612134194574
20645464 45 18263943067469385449
20645476 183 17131839767731593083
20653085 51 17131823304905266925
20711985 344 17172058949645354408
21040471 1 18129395932815887209
22802520 49 18411696586729249323
23552423 10 17917996087443983939
23559900 14 18264215893157720626
2748010 2 18269564836299738331
29004967 10 17022620892297708674
369184 2 6338957728693351087
5084963 1 18131355249393095753

> <PUBCHEM_SHAPE_MULTIPOLES>
210.54
4.3
1.42
1.01
0.26
0.04
0.05
0.72
0.89
-0.18
-0.16
0.52
-0.22
0.4

> <PUBCHEM_SHAPE_SELFOVERLAP>
435.06

> <PUBCHEM_SHAPE_VOLUME>
120.3

> <PUBCHEM_COORDINATE_TYPE>
2
5
10

$$$$

