46173856
  -OEChem-07051213093D

 58 61  0     1  0  0  0  0  0999 V2000
   -0.8084   -2.5810    0.6040 O   0  0  0  0  0  0  0  0  0  0  0  0
   -0.1615    2.8228    0.4056 O   0  0  0  0  0  0  0  0  0  0  0  0
   -3.6888    1.2086   -1.5103 O   0  0  0  0  0  0  0  0  0  0  0  0
   -2.8813    3.2229    0.1879 O   0  0  0  0  0  0  0  0  0  0  0  0
    1.6664    1.4913    1.6132 O   0  0  0  0  0  0  0  0  0  0  0  0
    4.4195    1.4266    1.2469 O   0  0  0  0  0  0  0  0  0  0  0  0
   -2.1354   -3.2496    2.2906 O   0  0  0  0  0  0  0  0  0  0  0  0
   -1.3110   -0.6133   -0.8549 C   0  0  2  0  0  0  0  0  0  0  0  0
   -0.3558    0.4059   -0.1219 C   0  0  1  0  0  0  0  0  0  0  0  0
    1.1859    0.2542   -0.4676 C   0  0  1  0  0  0  0  0  0  0  0  0
   -2.7259   -0.5742   -0.1741 C   0  0  2  0  0  0  0  0  0  0  0  0
   -0.7782   -2.0534   -0.7393 C   0  0  1  0  0  0  0  0  0  0  0  0
    1.6140   -1.2588   -0.4360 C   0  0  1  0  0  0  0  0  0  0  0  0
   -0.9681    1.8392   -0.2396 C   0  0  1  0  0  0  0  0  0  0  0  0
   -3.3571    0.8570   -0.1594 C   0  0  1  0  0  0  0  0  0  0  0  0
    0.6728   -2.1854   -1.2164 C   0  0  0  0  0  0  0  0  0  0  0  0
   -2.3676    1.9032    0.3990 C   0  0  2  0  0  0  0  0  0  0  0  0
   -1.4774   -0.3282   -2.3778 C   0  0  0  0  0  0  0  0  0  0  0  0
   -2.6892   -1.1862    1.2329 C   0  0  0  0  0  0  0  0  0  0  0  0
    3.1049   -1.4478   -0.8471 C   0  0  1  0  0  0  0  0  0  0  0  0
    1.5398    0.9676   -1.7909 C   0  0  0  0  0  0  0  0  0  0  0  0
    2.0885    0.8501    0.6538 C   0  0  0  0  0  0  0  0  0  0  0  0
   -4.6934    0.8944    0.6018 C   0  0  0  0  0  0  0  0  0  0  0  0
   -1.8924   -2.4480    1.3918 C   0  0  0  0  0  0  0  0  0  0  0  0
    3.9982   -0.4516   -0.1426 C   0  0  0  0  0  0  0  0  0  0  0  0
    3.5571    0.5936    0.5715 C   0  0  0  0  0  0  0  0  0  0  0  0
    3.6148   -2.8635   -0.5461 C   0  0  0  0  0  0  0  0  0  0  0  0
    4.8299    2.5034    0.4247 C   0  0  0  0  0  0  0  0  0  0  0  0
   -0.3959    0.1633    0.9499 H   0  0  0  0  0  0  0  0  0  0  0  0
   -3.3826   -1.2231   -0.7739 H   0  0  0  0  0  0  0  0  0  0  0  0
   -1.3939   -2.7340   -1.3427 H   0  0  0  0  0  0  0  0  0  0  0  0
    1.5450   -1.5826    0.6162 H   0  0  0  0  0  0  0  0  0  0  0  0
   -1.0254    2.1674   -1.2802 H   0  0  0  0  0  0  0  0  0  0  0  0
    0.7683   -2.0068   -2.2910 H   0  0  0  0  0  0  0  0  0  0  0  0
    0.9749   -3.2265   -1.0532 H   0  0  0  0  0  0  0  0  0  0  0  0
   -2.2615    1.7861    1.4848 H   0  0  0  0  0  0  0  0  0  0  0  0
   -0.6165   -0.6339   -2.9722 H   0  0  0  0  0  0  0  0  0  0  0  0
   -1.6457    0.7222   -2.6161 H   0  0  0  0  0  0  0  0  0  0  0  0
   -2.3257   -0.8931   -2.7836 H   0  0  0  0  0  0  0  0  0  0  0  0
   -2.2967   -0.4766    1.9688 H   0  0  0  0  0  0  0  0  0  0  0  0
   -3.7150   -1.4323    1.5341 H   0  0  0  0  0  0  0  0  0  0  0  0
    3.2110   -1.2847   -1.9272 H   0  0  0  0  0  0  0  0  0  0  0  0
    1.1069    0.4730   -2.6598 H   0  0  0  0  0  0  0  0  0  0  0  0
    2.6170    1.0213   -1.9758 H   0  0  0  0  0  0  0  0  0  0  0  0
    1.2039    2.0089   -1.7891 H   0  0  0  0  0  0  0  0  0  0  0  0
   -5.2344    1.8276    0.4080 H   0  0  0  0  0  0  0  0  0  0  0  0
   -4.5560    0.7996    1.6833 H   0  0  0  0  0  0  0  0  0  0  0  0
   -5.3551    0.0885    0.2633 H   0  0  0  0  0  0  0  0  0  0  0  0
    5.0719   -0.6105   -0.2195 H   0  0  0  0  0  0  0  0  0  0  0  0
   -0.1029    2.5882    1.3474 H   0  0  0  0  0  0  0  0  0  0  0  0
   -4.3216    0.5516   -1.8474 H   0  0  0  0  0  0  0  0  0  0  0  0
    3.1159   -3.6094   -1.1718 H   0  0  0  0  0  0  0  0  0  0  0  0
    4.6882   -2.9496   -0.7515 H   0  0  0  0  0  0  0  0  0  0  0  0
    3.4529   -3.1330    0.5035 H   0  0  0  0  0  0  0  0  0  0  0  0
   -3.6541    3.3362    0.7662 H   0  0  0  0  0  0  0  0  0  0  0  0
    5.3894    2.1470   -0.4472 H   0  0  0  0  0  0  0  0  0  0  0  0
    3.9727    3.1046    0.1015 H   0  0  0  0  0  0  0  0  0  0  0  0
    5.4924    3.1472    1.0109 H   0  0  0  0  0  0  0  0  0  0  0  0
  1 12  1  0  0  0  0
  1 24  1  0  0  0  0
  2 14  1  0  0  0  0
  2 50  1  0  0  0  0
  3 15  1  0  0  0  0
  3 51  1  0  0  0  0
  4 17  1  0  0  0  0
  4 55  1  0  0  0  0
  5 22  2  0  0  0  0
  6 26  1  0  0  0  0
  6 28  1  0  0  0  0
  7 24  2  0  0  0  0
  8  9  1  0  0  0  0
  8 11  1  0  0  0  0
  8 12  1  0  0  0  0
  8 18  1  0  0  0  0
  9 10  1  0  0  0  0
  9 14  1  0  0  0  0
  9 29  1  0  0  0  0
 10 13  1  0  0  0  0
 10 21  1  0  0  0  0
 10 22  1  0  0  0  0
 11 15  1  0  0  0  0
 11 19  1  0  0  0  0
 11 30  1  0  0  0  0
 12 16  1  0  0  0  0
 12 31  1  0  0  0  0
 13 16  1  0  0  0  0
 13 20  1  0  0  0  0
 13 32  1  0  0  0  0
 14 17  1  0  0  0  0
 14 33  1  0  0  0  0
 15 17  1  0  0  0  0
 15 23  1  0  0  0  0
 16 34  1  0  0  0  0
 16 35  1  0  0  0  0
 17 36  1  0  0  0  0
 18 37  1  0  0  0  0
 18 38  1  0  0  0  0
 18 39  1  0  0  0  0
 19 24  1  0  0  0  0
 19 40  1  0  0  0  0
 19 41  1  0  0  0  0
 20 25  1  0  0  0  0
 20 27  1  0  0  0  0
 20 42  1  0  0  0  0
 21 43  1  0  0  0  0
 21 44  1  0  0  0  0
 21 45  1  0  0  0  0
 22 26  1  0  0  0  0
 23 46  1  0  0  0  0
 23 47  1  0  0  0  0
 23 48  1  0  0  0  0
 25 26  2  0  0  0  0
 25 49  1  0  0  0  0
 27 52  1  0  0  0  0
 27 53  1  0  0  0  0
 27 54  1  0  0  0  0
 28 56  1  0  0  0  0
 28 57  1  0  0  0  0
 28 58  1  0  0  0  0
M  END
> <PUBCHEM_COMPOUND_CID>
46173856

> <PUBCHEM_CONFORMER_RMSD>
0.6

> <PUBCHEM_CONFORMER_DIVERSEORDER>
1

> <PUBCHEM_MMFF94_PARTIAL_CHARGES>
23
1 -0.43
10 0.06
12 0.28
14 0.28
15 0.28
17 0.28
19 0.06
2 -0.68
20 0.14
22 0.49
24 0.66
25 -0.29
26 0.09
28 0.28
3 -0.68
4 -0.68
49 0.15
5 -0.57
50 0.4
51 0.4
55 0.4
6 -0.36
7 -0.57

> <PUBCHEM_EFFECTIVE_ROTOR_COUNT>
2.4

> <PUBCHEM_PHARMACOPHORE_FEATURES>
13
1 2 acceptor
1 2 donor
1 3 acceptor
1 3 donor
1 4 acceptor
1 4 donor
1 5 acceptor
1 6 acceptor
1 7 acceptor
6 1 8 11 12 19 24 rings
6 10 13 20 22 25 26 rings
6 8 9 10 12 13 16 rings
6 8 9 11 14 15 17 rings

> <PUBCHEM_HEAVY_ATOM_COUNT>
28

> <PUBCHEM_ATOM_DEF_STEREO_COUNT>
10

> <PUBCHEM_ATOM_UDEF_STEREO_COUNT>
0

> <PUBCHEM_BOND_DEF_STEREO_COUNT>
0

> <PUBCHEM_BOND_UDEF_STEREO_COUNT>
0

> <PUBCHEM_ISOTOPIC_ATOM_COUNT>
0

> <PUBCHEM_COMPONENT_COUNT>
1

> <PUBCHEM_CACTVS_TAUTO_COUNT>
6

> <PUBCHEM_CONFORMER_ID>
02C08EA000000001

> <PUBCHEM_MMFF94_ENERGY>
122.9562

> <PUBCHEM_FEATURE_SELFOVERLAP>
66.183

> <PUBCHEM_SHAPE_FINGERPRINT>
10366900 7 18261120621068331576
10863032 1 18333452062062673486
10906281 52 18337099082525112893
10948715 1 18334861670429323973
10967382 1 18260834825533752276
1100329 8 16609410438066076691
11370993 70 18339929315121430564
11640471 11 15286178692859093963
11680986 33 18410568500916324030
12035758 1 18269822148201899195
12403259 415 18341330110558373749
12553582 1 17764288566554064198
12592029 89 17532089569552773391
12633257 1 18199210497732659474
12788726 201 17607804208537503178
13140716 1 18264199373742477971
13224815 77 18335139774057212972
13583140 156 18187922833503834154
14178342 30 18131069307977854378
14223421 5 18337386050569283658
14787075 74 18335991908701619461
15209289 33 18122621922949455862
15295992 7 18261945349194067707
15420108 30 16893680867234835386
16945 1 17978498742150595255
19049666 15 18409443713242636634
19784866 170 18337105649540183816
20600515 1 17560236912710446263
20691752 17 18198626725202975133
20905425 154 17542500982547216541
21033648 29 17988365991405379469
22182313 1 18261939761884545366
23419403 2 17100258507751680743
23558518 356 18337666537645909673
23559900 14 18410571817015919070
2748010 2 18335689520985975294
3380486 145 18121771743386022811
350125 39 18190736634173209236
392239 28 18267851964909038563
4340502 62 18272087240870825341
469060 322 17756155491975662890
5104073 3 18263641930063796305
633830 44 18192158307076679165
9709674 26 18408603673547843494
9981440 41 18189919559742362154

> <PUBCHEM_SHAPE_MULTIPOLES>
535.14
7.67
3.51
1.62
3.46
0.46
0.13
-2.99
-1.45
0.12
-1.03
-0.59
0.61
1.76

> <PUBCHEM_SHAPE_SELFOVERLAP>
1150.312

> <PUBCHEM_SHAPE_VOLUME>
288

> <PUBCHEM_COORDINATE_TYPE>
2
5
10

$$$$

