72300
  -OEChem-07051213003D

 38 39  0     0  0  0  0  0  0999 V2000
    0.1809   -1.8701   -1.9989 O   0  0  0  0  0  0  0  0  0  0  0  0
   -0.1809    1.8703   -1.9989 O   0  0  0  0  0  0  0  0  0  0  0  0
   -0.6227   -0.3705   -0.3010 C   0  0  0  0  0  0  0  0  0  0  0  0
    0.6227    0.3705   -0.3010 C   0  0  0  0  0  0  0  0  0  0  0  0
   -2.8533   -0.6792    0.5748 C   0  0  0  0  0  0  0  0  0  0  0  0
    2.8532    0.6792    0.5748 C   0  0  0  0  0  0  0  0  0  0  0  0
   -1.6474    0.0219    0.5604 C   0  0  0  0  0  0  0  0  0  0  0  0
    1.6474   -0.0219    0.5603 C   0  0  0  0  0  0  0  0  0  0  0  0
   -0.8040   -1.4641   -1.1478 C   0  0  0  0  0  0  0  0  0  0  0  0
    0.8040    1.4642   -1.1478 C   0  0  0  0  0  0  0  0  0  0  0  0
   -3.9490   -0.2602    1.4955 C   0  0  0  0  0  0  0  0  0  0  0  0
    3.9490    0.2600    1.4956 C   0  0  0  0  0  0  0  0  0  0  0  0
   -3.0344   -1.7726   -0.2720 C   0  0  0  0  0  0  0  0  0  0  0  0
    3.0344    1.7726   -0.2719 C   0  0  0  0  0  0  0  0  0  0  0  0
   -2.0098   -2.1652   -1.1331 C   0  0  0  0  0  0  0  0  0  0  0  0
    2.0099    2.1653   -1.1330 C   0  0  0  0  0  0  0  0  0  0  0  0
   -4.8840    0.7482    0.8794 C   0  0  0  0  0  0  0  0  0  0  0  0
    4.8840   -0.7482    0.8794 C   0  0  0  0  0  0  0  0  0  0  0  0
   -5.0613    1.9905    1.3427 C   0  0  0  0  0  0  0  0  0  0  0  0
    5.0613   -1.9906    1.3426 C   0  0  0  0  0  0  0  0  0  0  0  0
   -1.5113    0.8753    1.2220 H   0  0  0  0  0  0  0  0  0  0  0  0
    1.5113   -0.8754    1.2217 H   0  0  0  0  0  0  0  0  0  0  0  0
   -4.5361   -1.1371    1.7982 H   0  0  0  0  0  0  0  0  0  0  0  0
   -3.5175    0.1285    2.4275 H   0  0  0  0  0  0  0  0  0  0  0  0
    4.5361    1.1369    1.7983 H   0  0  0  0  0  0  0  0  0  0  0  0
    3.5175   -0.1286    2.4276 H   0  0  0  0  0  0  0  0  0  0  0  0
   -3.9695   -2.3266   -0.2718 H   0  0  0  0  0  0  0  0  0  0  0  0
    3.9695    2.3266   -0.2715 H   0  0  0  0  0  0  0  0  0  0  0  0
   -2.1656   -3.0190   -1.7873 H   0  0  0  0  0  0  0  0  0  0  0  0
    2.1656    3.0191   -1.7871 H   0  0  0  0  0  0  0  0  0  0  0  0
   -5.4587    0.4317    0.0123 H   0  0  0  0  0  0  0  0  0  0  0  0
    5.4589   -0.4317    0.0123 H   0  0  0  0  0  0  0  0  0  0  0  0
   -0.1306   -2.6418   -2.5022 H   0  0  0  0  0  0  0  0  0  0  0  0
    0.1305    2.6421   -2.5020 H   0  0  0  0  0  0  0  0  0  0  0  0
   -5.7572    2.6646    0.8554 H   0  0  0  0  0  0  0  0  0  0  0  0
   -4.5193    2.3553    2.2081 H   0  0  0  0  0  0  0  0  0  0  0  0
    5.7573   -2.6647    0.8553 H   0  0  0  0  0  0  0  0  0  0  0  0
    4.5193   -2.3555    2.2079 H   0  0  0  0  0  0  0  0  0  0  0  0
  1  9  1  0  0  0  0
  1 33  1  0  0  0  0
  2 10  1  0  0  0  0
  2 34  1  0  0  0  0
  3  4  1  0  0  0  0
  3  7  1  0  0  0  0
  3  9  2  0  0  0  0
  4  8  1  0  0  0  0
  4 10  2  0  0  0  0
  5  7  2  0  0  0  0
  5 11  1  0  0  0  0
  5 13  1  0  0  0  0
  6  8  2  0  0  0  0
  6 12  1  0  0  0  0
  6 14  1  0  0  0  0
  7 21  1  0  0  0  0
  8 22  1  0  0  0  0
  9 15  1  0  0  0  0
 10 16  1  0  0  0  0
 11 17  1  0  0  0  0
 11 23  1  0  0  0  0
 11 24  1  0  0  0  0
 12 18  1  0  0  0  0
 12 25  1  0  0  0  0
 12 26  1  0  0  0  0
 13 15  2  0  0  0  0
 13 27  1  0  0  0  0
 14 16  2  0  0  0  0
 14 28  1  0  0  0  0
 15 29  1  0  0  0  0
 16 30  1  0  0  0  0
 17 19  2  0  0  0  0
 17 31  1  0  0  0  0
 18 20  2  0  0  0  0
 18 32  1  0  0  0  0
 19 35  1  0  0  0  0
 19 36  1  0  0  0  0
 20 37  1  0  0  0  0
 20 38  1  0  0  0  0
M  END
> <PUBCHEM_COMPOUND_CID>
72300

> <PUBCHEM_CONFORMER_RMSD>
0.8

> <PUBCHEM_CONFORMER_DIVERSEORDER>
1
18
11
17
22
6
26
8
23
12
25
24
2
4
19
14
5
9
28
7
20
3
15
16
27
21
10
13

> <PUBCHEM_MMFF94_PARTIAL_CHARGES>
32
1 -0.53
10 0.08
11 0.28
12 0.28
13 -0.15
14 -0.15
15 -0.15
16 -0.15
17 -0.29
18 -0.29
19 -0.3
2 -0.53
20 -0.3
21 0.15
22 0.15
27 0.15
28 0.15
29 0.15
30 0.15
31 0.15
32 0.15
33 0.45
34 0.45
35 0.15
36 0.15
37 0.15
38 0.15
5 -0.14
6 -0.14
7 -0.15
8 -0.15
9 0.08

> <PUBCHEM_EFFECTIVE_ROTOR_COUNT>
5

> <PUBCHEM_PHARMACOPHORE_FEATURES>
6
1 1 donor
1 19 hydrophobe
1 2 donor
1 20 hydrophobe
6 3 5 7 9 13 15 rings
6 4 6 8 10 14 16 rings

> <PUBCHEM_HEAVY_ATOM_COUNT>
20

> <PUBCHEM_ATOM_DEF_STEREO_COUNT>
0

> <PUBCHEM_ATOM_UDEF_STEREO_COUNT>
0

> <PUBCHEM_BOND_DEF_STEREO_COUNT>
0

> <PUBCHEM_BOND_UDEF_STEREO_COUNT>
0

> <PUBCHEM_ISOTOPIC_ATOM_COUNT>
0

> <PUBCHEM_COMPONENT_COUNT>
1

> <PUBCHEM_CACTVS_TAUTO_COUNT>
5

> <PUBCHEM_CONFORMER_ID>
00011A6C00000001

> <PUBCHEM_MMFF94_ENERGY>
51.3295

> <PUBCHEM_FEATURE_SELFOVERLAP>
30.446

> <PUBCHEM_SHAPE_FINGERPRINT>
10042902 136 14907031804951193491
11725454 13 15647345176854167065
11961588 58 6554825959140025810
12107183 9 18338517555049661107
12236239 1 18266740168973090894
12403260 363 18041849407172410353
12422481 6 18338517563639595081
12553582 1 17774739631340686706
12714826 92 14692302724269345993
12892183 10 18194682566345228715
13103583 49 17918267675695954657
13533116 47 18127693721376124043
14251758 9 18410856598294495278
14251764 30 16200146633814583730
14294032 229 17968358080516551897
14739800 52 17752493053488681424
15375358 24 15647047144778530384
15527383 91 18060698398867440008
15806764 133 15985112876906353630
15842332 3 18123186796984643318
173720 79 18260828173077842487
17818456 19 18334009527416964480
1813 80 18202561800515588022
19141452 34 18336273405011021090
20645477 70 17558572234862761886
20739085 24 17917983962909647404
21065201 7 17241874398629024910
212916 134 17530402832589266507
21304303 282 16733569177229513015
21403212 168 18189344643851811627
22182313 1 18122344845950321294
22950370 63 17917989490833023370
23175994 123 17131841953642703679
23402539 116 17023193733735133113
23419403 2 17610335313578228046
23557571 272 16155095111561066191
23559900 14 17023725850498261604
23598291 2 18269559338314494022
23622692 88 18410574023806156835
2838139 119 14634874179562481410
495365 180 15936676142955295924
6049 1 15697734596459272119
621550 5 15698000738397461431
7097593 13 18128815244267640754
7615 1 18120376458386443277
77492 1 18122626058934026526
8217 86 9654991374327963809
9862522 239 18335706065790849517
9981440 41 18041270076356362059

> <PUBCHEM_SHAPE_MULTIPOLES>
399.85
9.89
2.43
1.74
0
0
0.34
0
-7.38
0
0.85
0
0
-2.22

> <PUBCHEM_SHAPE_SELFOVERLAP>
852.466

> <PUBCHEM_SHAPE_VOLUME>
222.5

> <PUBCHEM_COORDINATE_TYPE>
2
5
10

$$$$

