5217
  -OEChem-06261200353D

 57 58  0     0  0  0  0  0  0999 V2000
   -3.6063   -4.2859    0.8268 Cl  0  0  0  0  0  0  0  0  0  0  0  0
   -1.1809   -1.9249   -2.2429 Cl  0  0  0  0  0  0  0  0  0  0  0  0
   -3.6247    1.5943    0.9241 O   0  0  0  0  0  0  0  0  0  0  0  0
    4.2716   -1.4780   -0.0849 O   0  0  0  0  0  0  0  0  0  0  0  0
   -0.9439    2.2521    0.2808 O   0  0  0  0  0  0  0  0  0  0  0  0
    3.1741    1.5348    0.9101 O   0  0  0  0  0  0  0  0  0  0  0  0
   -1.5507    1.3053   -1.7289 O   0  0  0  0  0  0  0  0  0  0  0  0
    4.7794    1.3630   -0.7323 O   0  0  0  0  0  0  0  0  0  0  0  0
   -3.2566    2.2575   -0.2779 C   0  0  0  0  0  0  0  0  0  0  0  0
    4.5026   -0.4492    0.8681 C   0  0  0  0  0  0  0  0  0  0  0  0
    1.2972    3.0233    0.6649 C   0  0  0  0  0  0  0  0  0  0  0  0
    0.4300    1.9690   -0.0031 C   0  0  0  0  0  0  0  0  0  0  0  0
    2.7768    2.7986    0.3953 C   0  0  0  0  0  0  0  0  0  0  0  0
   -1.8368    1.8632   -0.6762 C   0  0  0  0  0  0  0  0  0  0  0  0
    4.1992    0.9122    0.2483 C   0  0  0  0  0  0  0  0  0  0  0  0
   -4.2525    1.8612   -1.3665 C   0  0  0  0  0  0  0  0  0  0  0  0
   -3.2998    3.7604   -0.0203 C   0  0  0  0  0  0  0  0  0  0  0  0
    3.6023   -0.7056    2.0756 C   0  0  0  0  0  0  0  0  0  0  0  0
    5.9745   -0.4957    1.2659 C   0  0  0  0  0  0  0  0  0  0  0  0
   -3.6205    0.2239    0.9003 C   0  0  0  0  0  0  0  0  0  0  0  0
    3.0004   -1.5815   -0.5869 C   0  0  0  0  0  0  0  0  0  0  0  0
   -2.4629   -0.4760    1.2406 C   0  0  0  0  0  0  0  0  0  0  0  0
    2.6440   -0.8731   -1.7344 C   0  0  0  0  0  0  0  0  0  0  0  0
   -4.7743   -0.4710    0.5378 C   0  0  0  0  0  0  0  0  0  0  0  0
    2.0638   -2.3970    0.0483 C   0  0  0  0  0  0  0  0  0  0  0  0
   -2.4589   -1.8705    1.2183 C   0  0  0  0  0  0  0  0  0  0  0  0
    1.3510   -0.9800   -2.2466 C   0  0  0  0  0  0  0  0  0  0  0  0
   -4.7706   -1.8656    0.5154 C   0  0  0  0  0  0  0  0  0  0  0  0
    0.7709   -2.5039   -0.4638 C   0  0  0  0  0  0  0  0  0  0  0  0
   -3.6129   -2.5654    0.8557 C   0  0  0  0  0  0  0  0  0  0  0  0
    0.4144   -1.7954   -1.6112 C   0  0  0  0  0  0  0  0  0  0  0  0
    0.9996    4.0214    0.3226 H   0  0  0  0  0  0  0  0  0  0  0  0
    1.1072    2.9975    1.7452 H   0  0  0  0  0  0  0  0  0  0  0  0
    0.6258    1.9742   -1.0815 H   0  0  0  0  0  0  0  0  0  0  0  0
    0.6543    0.9734    0.3931 H   0  0  0  0  0  0  0  0  0  0  0  0
    3.3627    3.5732    0.9014 H   0  0  0  0  0  0  0  0  0  0  0  0
    2.9589    2.8779   -0.6830 H   0  0  0  0  0  0  0  0  0  0  0  0
   -5.2874    1.9975   -1.0335 H   0  0  0  0  0  0  0  0  0  0  0  0
   -4.1097    2.4827   -2.2592 H   0  0  0  0  0  0  0  0  0  0  0  0
   -4.1366    0.8255   -1.7033 H   0  0  0  0  0  0  0  0  0  0  0  0
   -4.3204    4.0834    0.2152 H   0  0  0  0  0  0  0  0  0  0  0  0
   -2.6864    4.0398    0.8442 H   0  0  0  0  0  0  0  0  0  0  0  0
   -2.9475    4.3302   -0.8868 H   0  0  0  0  0  0  0  0  0  0  0  0
    3.7380   -1.7263    2.4527 H   0  0  0  0  0  0  0  0  0  0  0  0
    3.8528   -0.0243    2.8985 H   0  0  0  0  0  0  0  0  0  0  0  0
    2.5329   -0.5735    1.8812 H   0  0  0  0  0  0  0  0  0  0  0  0
    6.2289   -1.4644    1.7107 H   0  0  0  0  0  0  0  0  0  0  0  0
    6.6221   -0.3767    0.3893 H   0  0  0  0  0  0  0  0  0  0  0  0
    6.2255    0.2949    1.9811 H   0  0  0  0  0  0  0  0  0  0  0  0
   -1.5658    0.0470    1.5565 H   0  0  0  0  0  0  0  0  0  0  0  0
    3.3679   -0.2527   -2.2540 H   0  0  0  0  0  0  0  0  0  0  0  0
   -5.6903    0.0589    0.2932 H   0  0  0  0  0  0  0  0  0  0  0  0
    2.3345   -2.9763    0.9264 H   0  0  0  0  0  0  0  0  0  0  0  0
   -1.5598   -2.4027    1.5137 H   0  0  0  0  0  0  0  0  0  0  0  0
    1.0880   -0.4245   -3.1431 H   0  0  0  0  0  0  0  0  0  0  0  0
   -5.6783   -2.3940    0.2354 H   0  0  0  0  0  0  0  0  0  0  0  0
    0.0621   -3.1639    0.0271 H   0  0  0  0  0  0  0  0  0  0  0  0
  1 30  1  0  0  0  0
  2 31  1  0  0  0  0
  3  9  1  0  0  0  0
  3 20  1  0  0  0  0
  4 10  1  0  0  0  0
  4 21  1  0  0  0  0
  5 12  1  0  0  0  0
  5 14  1  0  0  0  0
  6 13  1  0  0  0  0
  6 15  1  0  0  0  0
  7 14  2  0  0  0  0
  8 15  2  0  0  0  0
  9 14  1  0  0  0  0
  9 16  1  0  0  0  0
  9 17  1  0  0  0  0
 10 15  1  0  0  0  0
 10 18  1  0  0  0  0
 10 19  1  0  0  0  0
 11 12  1  0  0  0  0
 11 13  1  0  0  0  0
 11 32  1  0  0  0  0
 11 33  1  0  0  0  0
 12 34  1  0  0  0  0
 12 35  1  0  0  0  0
 13 36  1  0  0  0  0
 13 37  1  0  0  0  0
 16 38  1  0  0  0  0
 16 39  1  0  0  0  0
 16 40  1  0  0  0  0
 17 41  1  0  0  0  0
 17 42  1  0  0  0  0
 17 43  1  0  0  0  0
 18 44  1  0  0  0  0
 18 45  1  0  0  0  0
 18 46  1  0  0  0  0
 19 47  1  0  0  0  0
 19 48  1  0  0  0  0
 19 49  1  0  0  0  0
 20 22  2  0  0  0  0
 20 24  1  0  0  0  0
 21 23  2  0  0  0  0
 21 25  1  0  0  0  0
 22 26  1  0  0  0  0
 22 50  1  0  0  0  0
 23 27  1  0  0  0  0
 23 51  1  0  0  0  0
 24 28  2  0  0  0  0
 24 52  1  0  0  0  0
 25 29  2  0  0  0  0
 25 53  1  0  0  0  0
 26 30  2  0  0  0  0
 26 54  1  0  0  0  0
 27 31  2  0  0  0  0
 27 55  1  0  0  0  0
 28 30  1  0  0  0  0
 28 56  1  0  0  0  0
 29 31  1  0  0  0  0
 29 57  1  0  0  0  0
M  END
> <PUBCHEM_COMPOUND_CID>
5217

> <PUBCHEM_CONFORMER_RMSD>
1.8

> <PUBCHEM_CONFORMER_DIVERSEORDER>
2
9
31
16
15
33
12
5
27
23
26
7
24
4
11
30
22
36
13
32
17
10
18
25
20
29
35
1
28
19
34
6
3
14
8
21

> <PUBCHEM_MMFF94_PARTIAL_CHARGES>
34
1 -0.18
10 0.34
12 0.28
13 0.28
14 0.66
15 0.66
2 -0.18
20 0.08
21 0.08
22 -0.15
23 -0.15
24 -0.15
25 -0.15
26 -0.15
27 -0.15
28 -0.15
29 -0.15
3 -0.36
30 0.18
31 0.18
4 -0.36
5 -0.43
50 0.15
51 0.15
52 0.15
53 0.15
54 0.15
55 0.15
56 0.15
57 0.15
6 -0.43
7 -0.57
8 -0.57
9 0.34

> <PUBCHEM_EFFECTIVE_ROTOR_COUNT>
12

> <PUBCHEM_PHARMACOPHORE_FEATURES>
8
1 3 acceptor
1 4 acceptor
1 7 acceptor
1 8 acceptor
3 10 18 19 hydrophobe
3 9 16 17 hydrophobe
6 20 22 24 26 28 30 rings
6 21 23 25 27 29 31 rings

> <PUBCHEM_HEAVY_ATOM_COUNT>
31

> <PUBCHEM_ATOM_DEF_STEREO_COUNT>
0

> <PUBCHEM_ATOM_UDEF_STEREO_COUNT>
0

> <PUBCHEM_BOND_DEF_STEREO_COUNT>
0

> <PUBCHEM_BOND_UDEF_STEREO_COUNT>
0

> <PUBCHEM_ISOTOPIC_ATOM_COUNT>
0

> <PUBCHEM_COMPONENT_COUNT>
1

> <PUBCHEM_CACTVS_TAUTO_COUNT>
1

> <PUBCHEM_CONFORMER_ID>
0000146100000002

> <PUBCHEM_MMFF94_ENERGY>
102.4689

> <PUBCHEM_FEATURE_SELFOVERLAP>
40.596

> <PUBCHEM_SHAPE_FINGERPRINT>
10675989 125 15668176103733311911
11595378 159 18340764823884494886
12156800 1 15257177643758172180
12422481 6 17969492728338489263
12633257 1 18411691106430127345
13402501 40 18410011069557911376
13583140 156 18200327613798417702
13726171 33 18266153129203273320
14081887 123 18340479075515096607
14840074 17 18044086857268264239
14950920 106 18058744506781568610
20764821 26 18340202011279810585
21033648 29 17677064532840273546
23559900 14 18051405464123766070
3459 110 18411700941757710615
392239 28 18413105030944024139
42626532 9 18123437657741592122
469060 322 17895773798206518183
5081480 168 16661744731133120500
508706 21 18409728491032944967
5309563 4 18051406263208839443
6823239 73 18189035629771314436

> <PUBCHEM_SHAPE_MULTIPOLES>
606.49
11.11
4.58
1.83
4.85
0.58
-0.72
-1.07
3.97
-4.23
0.3
0.41
-0.8
1.63

> <PUBCHEM_SHAPE_SELFOVERLAP>
1253.114

> <PUBCHEM_SHAPE_VOLUME>
349.3

> <PUBCHEM_COORDINATE_TYPE>
2
5
10

$$$$

