656691
  -OEChem-07051213033D

 34 35  0     1  0  0  0  0  0999 V2000
    0.2002   -2.2617    1.3946 O   0  0  0  0  0  0  0  0  0  0  0  0
    3.7133    2.7976    0.1159 O   0  0  0  0  0  0  0  0  0  0  0  0
   -4.2646    2.2088    0.3890 O   0  0  0  0  0  0  0  0  0  0  0  0
    0.6777   -1.9579    0.0764 C   0  0  1  0  0  0  0  0  0  0  0  0
   -0.5604   -1.8559   -0.8709 C   0  0  0  0  0  0  0  0  0  0  0  0
    1.4998   -0.6695    0.0872 C   0  0  0  0  0  0  0  0  0  0  0  0
    1.5617   -3.1524   -0.3284 C   0  0  0  0  0  0  0  0  0  0  0  0
   -1.5392   -0.7815   -0.5377 C   0  0  0  0  0  0  0  0  0  0  0  0
    2.1036   -0.2620   -1.0807 C   0  0  0  0  0  0  0  0  0  0  0  0
    1.6063    0.0358    1.2647 C   0  0  0  0  0  0  0  0  0  0  0  0
   -2.6017   -1.0492    0.3252 C   0  0  0  0  0  0  0  0  0  0  0  0
   -1.3922    0.4913   -1.0893 C   0  0  0  0  0  0  0  0  0  0  0  0
    2.8541    0.9137   -1.0709 C   0  0  0  0  0  0  0  0  0  0  0  0
    2.3567    1.2115    1.2746 C   0  0  0  0  0  0  0  0  0  0  0  0
    2.9806    1.6506    0.1068 C   0  0  0  0  0  0  0  0  0  0  0  0
   -3.5175   -0.0442    0.6365 C   0  0  0  0  0  0  0  0  0  0  0  0
   -2.3079    1.4963   -0.7779 C   0  0  0  0  0  0  0  0  0  0  0  0
   -3.3706    1.2286    0.0851 C   0  0  0  0  0  0  0  0  0  0  0  0
   -1.0949   -2.8167   -0.8570 H   0  0  0  0  0  0  0  0  0  0  0  0
   -0.2337   -1.7332   -1.9125 H   0  0  0  0  0  0  0  0  0  0  0  0
    1.0053   -4.0938   -0.2464 H   0  0  0  0  0  0  0  0  0  0  0  0
    1.9335   -3.0726   -1.3549 H   0  0  0  0  0  0  0  0  0  0  0  0
    2.4248   -3.2440    0.3420 H   0  0  0  0  0  0  0  0  0  0  0  0
    2.0124   -0.8189   -2.0075 H   0  0  0  0  0  0  0  0  0  0  0  0
    1.1322   -0.2725    2.1901 H   0  0  0  0  0  0  0  0  0  0  0  0
   -0.3300   -3.0754    1.3454 H   0  0  0  0  0  0  0  0  0  0  0  0
   -2.7284   -2.0361    0.7623 H   0  0  0  0  0  0  0  0  0  0  0  0
   -0.5807    0.7151   -1.7755 H   0  0  0  0  0  0  0  0  0  0  0  0
    3.3340    1.2457   -1.9877 H   0  0  0  0  0  0  0  0  0  0  0  0
    2.4510    1.7821    2.1946 H   0  0  0  0  0  0  0  0  0  0  0  0
   -4.3410   -0.2656    1.3102 H   0  0  0  0  0  0  0  0  0  0  0  0
   -2.1901    2.4849   -1.2132 H   0  0  0  0  0  0  0  0  0  0  0  0
    4.0720    2.9495   -0.7753 H   0  0  0  0  0  0  0  0  0  0  0  0
   -4.9319    1.8488    0.9982 H   0  0  0  0  0  0  0  0  0  0  0  0
  1  4  1  0  0  0  0
  1 26  1  0  0  0  0
  2 15  1  0  0  0  0
  2 33  1  0  0  0  0
  3 18  1  0  0  0  0
  3 34  1  0  0  0  0
  4  5  1  0  0  0  0
  4  6  1  0  0  0  0
  4  7  1  0  0  0  0
  5  8  1  0  0  0  0
  5 19  1  0  0  0  0
  5 20  1  0  0  0  0
  6  9  2  0  0  0  0
  6 10  1  0  0  0  0
  7 21  1  0  0  0  0
  7 22  1  0  0  0  0
  7 23  1  0  0  0  0
  8 11  2  0  0  0  0
  8 12  1  0  0  0  0
  9 13  1  0  0  0  0
  9 24  1  0  0  0  0
 10 14  2  0  0  0  0
 10 25  1  0  0  0  0
 11 16  1  0  0  0  0
 11 27  1  0  0  0  0
 12 17  2  0  0  0  0
 12 28  1  0  0  0  0
 13 15  2  0  0  0  0
 13 29  1  0  0  0  0
 14 15  1  0  0  0  0
 14 30  1  0  0  0  0
 16 18  2  0  0  0  0
 16 31  1  0  0  0  0
 17 18  1  0  0  0  0
 17 32  1  0  0  0  0
M  END
> <PUBCHEM_COMPOUND_CID>
656691

> <PUBCHEM_CONFORMER_RMSD>
0.6

> <PUBCHEM_CONFORMER_DIVERSEORDER>
1
6
5
7
4
8
2
3
9
10

> <PUBCHEM_MMFF94_PARTIAL_CHARGES>
28
1 -0.68
10 -0.15
11 -0.15
12 -0.15
13 -0.15
14 -0.15
15 0.08
16 -0.15
17 -0.15
18 0.08
2 -0.53
24 0.15
25 0.15
26 0.4
27 0.15
28 0.15
29 0.15
3 -0.53
30 0.15
31 0.15
32 0.15
33 0.45
34 0.45
4 0.42
5 0.14
6 -0.14
8 -0.14
9 -0.15

> <PUBCHEM_EFFECTIVE_ROTOR_COUNT>
3

> <PUBCHEM_PHARMACOPHORE_FEATURES>
6
1 1 acceptor
1 1 donor
1 2 donor
1 3 donor
6 6 9 10 13 14 15 rings
6 8 11 12 16 17 18 rings

> <PUBCHEM_HEAVY_ATOM_COUNT>
18

> <PUBCHEM_ATOM_DEF_STEREO_COUNT>
0

> <PUBCHEM_ATOM_UDEF_STEREO_COUNT>
1

> <PUBCHEM_BOND_DEF_STEREO_COUNT>
0

> <PUBCHEM_BOND_UDEF_STEREO_COUNT>
0

> <PUBCHEM_ISOTOPIC_ATOM_COUNT>
0

> <PUBCHEM_COMPONENT_COUNT>
1

> <PUBCHEM_CACTVS_TAUTO_COUNT>
4

> <PUBCHEM_CONFORMER_ID>
000A053300000001

> <PUBCHEM_MMFF94_ENERGY>
53.7702

> <PUBCHEM_FEATURE_SELFOVERLAP>
30.446

> <PUBCHEM_SHAPE_FINGERPRINT>
10165383 225 18190723285161333969
10382601 240 18131353050633831352
10498660 4 18410296878594733453
11221954 11 17318472898449328616
11471102 22 14260533270112617608
11725454 13 16301513750943483666
12173636 292 18192715548670131668
12633257 1 17916313903583681113
128993 33 18335139791042078509
13132413 78 17975142247015722046
13134695 92 17905619043990468230
13294875 104 18041574606348070146
13464514 151 18334848442378477790
13764800 53 18128250086732937883
13878862 14 17981618375104999141
13965767 371 18059023872639218980
14123255 52 18409448059506875549
14386348 128 18335419062742660425
14648413 74 18266461099384262023
15775835 57 18409730633973725177
16945 1 18336838601079403006
17134986 127 18335421287424755308
18186145 218 18040984125421938660
18981168 100 18200325423423008791
20510252 161 18119808006421562667
20671657 1 18337110193156764103
21041028 32 17834115625440444582
21524375 3 18340215089571582986
21731228 192 18271252629392306194
21731516 1 9222954849512041334
22854114 111 18337112366441617423
23175994 123 17831011695304187735
23402539 116 17614293164876454358
23419403 2 17264911521153059242
23557571 272 17329989097813392404
23559900 14 18195812001722649879
25 1 17895182269408319968
2637199 183 17968923297163107381
305870 269 18411428293202543690
31174 14 17983296212277744727
350125 39 18410011030977636743
3797600 57 16555904465642087316
49207404 50 18272357686049656451
5939293 188 17762346107554031261
6442390 28 18265318526425127299
7226269 152 17967538939774425544
7364860 26 18265615566320841382
7808743 9 18193837042146847792
81228 2 17472709026760978906
8988823 20 14548439294951070717

> <PUBCHEM_SHAPE_MULTIPOLES>
352.82
6.32
3
1.21
3.24
0.85
0.1
-5.3
0.48
-1.38
0.11
-0.37
0.03
0.19

> <PUBCHEM_SHAPE_SELFOVERLAP>
757.747

> <PUBCHEM_SHAPE_VOLUME>
195.4

> <PUBCHEM_COORDINATE_TYPE>
2
5
10

$$$$

