44563198
  -OEChem-07051213103D

 65 67  0     1  0  0  0  0  0999 V2000
    0.6505    0.5649   -0.6398 O   0  0  0  0  0  0  0  0  0  0  0  0
   -5.0360   -1.6676   -1.2645 O   0  0  0  0  0  0  0  0  0  0  0  0
    2.4616   -3.8139   -1.0160 O   0  0  0  0  0  0  0  0  0  0  0  0
    5.3999   -0.2362   -0.0073 O   0  0  0  0  0  0  0  0  0  0  0  0
    4.3632    2.1505    0.0885 O   0  0  0  0  0  0  0  0  0  0  0  0
   -0.2781    3.4413    2.1959 O   0  0  0  0  0  0  0  0  0  0  0  0
   -3.9112    4.8498   -0.5482 O   0  0  0  0  0  0  0  0  0  0  0  0
   -0.8553   -1.8809   -0.0132 C   0  0  2  0  0  0  0  0  0  0  0  0
   -2.2572   -2.3368   -0.4876 C   0  0  0  0  0  0  0  0  0  0  0  0
    0.1767   -2.1262   -1.1420 C   0  0  0  0  0  0  0  0  0  0  0  0
   -3.3848   -1.9256    0.4748 C   0  0  0  0  0  0  0  0  0  0  0  0
   -4.8017   -2.3025   -0.0059 C   0  0  0  0  0  0  0  0  0  0  0  0
    1.5583   -1.6001   -0.8311 C   0  0  0  0  0  0  0  0  0  0  0  0
   -0.4349   -2.5239    1.3059 C   0  0  0  0  0  0  0  0  0  0  0  0
    1.7575   -0.2419   -0.5808 C   0  0  0  0  0  0  0  0  0  0  0  0
    0.7960    1.7709    0.1261 C   0  0  1  0  0  0  0  0  0  0  0  0
    3.0448    0.2344   -0.3157 C   0  0  0  0  0  0  0  0  0  0  0  0
    2.0325    2.5529   -0.3125 C   0  0  0  0  0  0  0  0  0  0  0  0
   -5.8396   -1.7712    0.9885 C   0  0  0  0  0  0  0  0  0  0  0  0
   -4.9743   -3.8125   -0.1841 C   0  0  0  0  0  0  0  0  0  0  0  0
    2.6381   -2.4822   -0.7842 C   0  0  0  0  0  0  0  0  0  0  0  0
    3.2517    1.6858   -0.1343 C   0  0  0  0  0  0  0  0  0  0  0  0
    4.1273   -0.6474   -0.2666 C   0  0  0  0  0  0  0  0  0  0  0  0
   -0.2755   -4.0187    1.3618 C   0  0  0  0  0  0  0  0  0  0  0  0
    3.9185   -2.0075   -0.4978 C   0  0  0  0  0  0  0  0  0  0  0  0
   -0.4609    2.5987   -0.0407 C   0  0  0  0  0  0  0  0  0  0  0  0
   -0.2129   -1.7731    2.3977 C   0  0  0  0  0  0  0  0  0  0  0  0
   -0.9352    3.3932    1.0033 C   0  0  0  0  0  0  0  0  0  0  0  0
   -1.1462    2.5609   -1.2552 C   0  0  0  0  0  0  0  0  0  0  0  0
   -2.0947    4.1496    0.8327 C   0  0  0  0  0  0  0  0  0  0  0  0
   -2.3058    3.3172   -1.4255 C   0  0  0  0  0  0  0  0  0  0  0  0
   -2.7801    4.1117   -0.3816 C   0  0  0  0  0  0  0  0  0  0  0  0
    5.8077   -0.2137    1.3593 C   0  0  0  0  0  0  0  0  0  0  0  0
   -0.9596   -0.8050    0.1559 H   0  0  0  0  0  0  0  0  0  0  0  0
   -2.2604   -3.4222   -0.6354 H   0  0  0  0  0  0  0  0  0  0  0  0
   -2.4558   -1.8892   -1.4698 H   0  0  0  0  0  0  0  0  0  0  0  0
   -0.1630   -1.6247   -2.0592 H   0  0  0  0  0  0  0  0  0  0  0  0
    0.1949   -3.1916   -1.3997 H   0  0  0  0  0  0  0  0  0  0  0  0
   -3.2117   -2.3726    1.4611 H   0  0  0  0  0  0  0  0  0  0  0  0
   -3.3335   -0.8358    0.6012 H   0  0  0  0  0  0  0  0  0  0  0  0
    0.8836    1.4681    1.1795 H   0  0  0  0  0  0  0  0  0  0  0  0
    1.9802    2.8390   -1.3696 H   0  0  0  0  0  0  0  0  0  0  0  0
    2.1508    3.4575    0.2940 H   0  0  0  0  0  0  0  0  0  0  0  0
   -5.7679   -0.6815    1.0818 H   0  0  0  0  0  0  0  0  0  0  0  0
   -5.7107   -2.2148    1.9812 H   0  0  0  0  0  0  0  0  0  0  0  0
   -6.8582   -1.9838    0.6440 H   0  0  0  0  0  0  0  0  0  0  0  0
   -6.0094   -4.0558   -0.4516 H   0  0  0  0  0  0  0  0  0  0  0  0
   -4.3582   -4.1930   -1.0053 H   0  0  0  0  0  0  0  0  0  0  0  0
   -4.7205   -4.3573    0.7309 H   0  0  0  0  0  0  0  0  0  0  0  0
    0.0673   -4.3555    2.3464 H   0  0  0  0  0  0  0  0  0  0  0  0
    0.4544   -4.3709    0.6303 H   0  0  0  0  0  0  0  0  0  0  0  0
   -1.2308   -4.5149    1.1656 H   0  0  0  0  0  0  0  0  0  0  0  0
    4.7613   -2.6940   -0.4616 H   0  0  0  0  0  0  0  0  0  0  0  0
   -5.9320   -1.9046   -1.5589 H   0  0  0  0  0  0  0  0  0  0  0  0
   -0.3244   -0.6941    2.3757 H   0  0  0  0  0  0  0  0  0  0  0  0
    0.0856   -2.2193    3.3405 H   0  0  0  0  0  0  0  0  0  0  0  0
   -0.7921    1.9611   -2.0891 H   0  0  0  0  0  0  0  0  0  0  0  0
    3.3185   -4.2670   -0.9374 H   0  0  0  0  0  0  0  0  0  0  0  0
   -2.4653    4.7692    1.6458 H   0  0  0  0  0  0  0  0  0  0  0  0
   -2.8339    3.2857   -2.3746 H   0  0  0  0  0  0  0  0  0  0  0  0
    5.0796    0.3120    1.9855 H   0  0  0  0  0  0  0  0  0  0  0  0
    5.9414   -1.2363    1.7257 H   0  0  0  0  0  0  0  0  0  0  0  0
    6.7663    0.3084    1.4226 H   0  0  0  0  0  0  0  0  0  0  0  0
   -0.7519    4.0423    2.7960 H   0  0  0  0  0  0  0  0  0  0  0  0
   -4.0934    5.3380    0.2731 H   0  0  0  0  0  0  0  0  0  0  0  0
  1 15  1  0  0  0  0
  1 16  1  0  0  0  0
  2 12  1  0  0  0  0
  2 54  1  0  0  0  0
  3 21  1  0  0  0  0
  3 58  1  0  0  0  0
  4 23  1  0  0  0  0
  4 33  1  0  0  0  0
  5 22  2  0  0  0  0
  6 28  1  0  0  0  0
  6 64  1  0  0  0  0
  7 32  1  0  0  0  0
  7 65  1  0  0  0  0
  8  9  1  0  0  0  0
  8 10  1  0  0  0  0
  8 14  1  0  0  0  0
  8 34  1  0  0  0  0
  9 11  1  0  0  0  0
  9 35  1  0  0  0  0
  9 36  1  0  0  0  0
 10 13  1  0  0  0  0
 10 37  1  0  0  0  0
 10 38  1  0  0  0  0
 11 12  1  0  0  0  0
 11 39  1  0  0  0  0
 11 40  1  0  0  0  0
 12 19  1  0  0  0  0
 12 20  1  0  0  0  0
 13 15  2  0  0  0  0
 13 21  1  0  0  0  0
 14 24  1  0  0  0  0
 14 27  2  0  0  0  0
 15 17  1  0  0  0  0
 16 18  1  0  0  0  0
 16 26  1  0  0  0  0
 16 41  1  0  0  0  0
 17 22  1  0  0  0  0
 17 23  2  0  0  0  0
 18 22  1  0  0  0  0
 18 42  1  0  0  0  0
 18 43  1  0  0  0  0
 19 44  1  0  0  0  0
 19 45  1  0  0  0  0
 19 46  1  0  0  0  0
 20 47  1  0  0  0  0
 20 48  1  0  0  0  0
 20 49  1  0  0  0  0
 21 25  2  0  0  0  0
 23 25  1  0  0  0  0
 24 50  1  0  0  0  0
 24 51  1  0  0  0  0
 24 52  1  0  0  0  0
 25 53  1  0  0  0  0
 26 28  2  0  0  0  0
 26 29  1  0  0  0  0
 27 55  1  0  0  0  0
 27 56  1  0  0  0  0
 28 30  1  0  0  0  0
 29 31  2  0  0  0  0
 29 57  1  0  0  0  0
 30 32  2  0  0  0  0
 30 59  1  0  0  0  0
 31 32  1  0  0  0  0
 31 60  1  0  0  0  0
 33 61  1  0  0  0  0
 33 62  1  0  0  0  0
 33 63  1  0  0  0  0
M  END
> <PUBCHEM_COMPOUND_CID>
44563198

> <PUBCHEM_CONFORMER_RMSD>
1

> <PUBCHEM_CONFORMER_DIVERSEORDER>
1
63
126
45
93
118
133
68
15
104
17
47
145
57
9
66
95
34
94
37
119
42
130
92
138
18
97
120
141
19
55
124
81
109
25
24
65
10
75
128
140
132
110
29
28
49
135
115
114
20
4
33
131
134
14
46
2
117
146
56
44
85
100
152
129
76
69
123
144
5
143
113
78
50
136
150
127
107
26
84
35
106
96
52
27
89
121
122
13
148
112
105
137
77
60
147
31
98
82
70
59
103
51
83
116
151
149
67
71
32
142
153
21
101
23
108
87
139
72
3
58
154
74
43
125
48
61
6
80
12
86
91
102
7
111
11
22
36
38
30
99
88
62
16
40
90
8
39
64
79
54
73
53
41

> <PUBCHEM_MMFF94_PARTIAL_CHARGES>
39
1 -0.36
10 0.14
12 0.28
13 -0.14
14 -0.28
15 0.08
16 0.42
17 0.09
18 0.06
2 -0.68
21 0.08
22 0.42
23 0.08
24 0.14
25 -0.15
26 -0.14
27 -0.3
28 0.08
29 -0.15
3 -0.53
30 -0.15
31 -0.15
32 0.08
33 0.28
4 -0.36
5 -0.57
53 0.15
54 0.4
55 0.15
56 0.15
57 0.15
58 0.45
59 0.15
6 -0.53
60 0.15
64 0.45
65 0.45
7 -0.53
8 0.14

> <PUBCHEM_EFFECTIVE_ROTOR_COUNT>
8.6

> <PUBCHEM_PHARMACOPHORE_FEATURES>
13
1 1 acceptor
1 2 acceptor
1 2 donor
1 3 donor
1 4 acceptor
1 5 acceptor
1 6 donor
1 7 donor
3 12 19 20 hydrophobe
5 8 9 10 11 14 hydrophobe
6 1 15 16 17 18 22 rings
6 13 15 17 21 23 25 rings
6 26 28 29 30 31 32 rings

> <PUBCHEM_HEAVY_ATOM_COUNT>
33

> <PUBCHEM_ATOM_DEF_STEREO_COUNT>
2

> <PUBCHEM_ATOM_UDEF_STEREO_COUNT>
0

> <PUBCHEM_BOND_DEF_STEREO_COUNT>
0

> <PUBCHEM_BOND_UDEF_STEREO_COUNT>
0

> <PUBCHEM_ISOTOPIC_ATOM_COUNT>
0

> <PUBCHEM_COMPONENT_COUNT>
1

> <PUBCHEM_CACTVS_TAUTO_COUNT>
81

> <PUBCHEM_CONFORMER_ID>
02A7FAFE00000001

> <PUBCHEM_MMFF94_ENERGY>
101.9561

> <PUBCHEM_FEATURE_SELFOVERLAP>
66.008

> <PUBCHEM_SHAPE_FINGERPRINT>
10439779 11 17759806944384753619
10688039 33 18272369720363539933
10930396 42 18052004449474865232
1100329 8 17764313138383594574
11578080 2 16519672435535545130
11646440 116 18270111319185608059
12156800 1 18124344780392282601
12293681 4 18272083851498674586
12788726 201 18342176635753581858
13140716 1 18123472679363118966
13402501 40 18198629830817667231
13540713 4 18115306808641422582
14028597 1 17774737410573673490
140371 6 18200020734327385164
14681490 219 18410857633967500935
14705955 166 18191050983351363504
14725015 67 18340498780804049418
150020 26 17621309140161978715
15351339 4 18197797685641970417
15483637 11 18338515352422833101
15927050 60 18052256499150997614
20642791 13 18412265064543009550
20775438 99 17830195836254166255
21860390 5 18046893893332363903
22113638 7 17903072235873848823
23558518 356 18270956951037908006
23559900 14 17835243342562260171
25019877 29 8465054509865955843
3380486 145 18053649283682279346
3383291 50 16681466928773326030
6004065 56 18048886199659309295
6086070 43 17983604934886671383
653340 110 18337392737606497368
9777508 108 18266461090693879861

> <PUBCHEM_SHAPE_MULTIPOLES>
638.04
9.98
7.14
1.48
1.54
5.98
-0.64
-5.87
-0.24
7.39
-0.31
0.22
-0.11
0.92

> <PUBCHEM_SHAPE_SELFOVERLAP>
1358.782

> <PUBCHEM_SHAPE_VOLUME>
355.3

> <PUBCHEM_COORDINATE_TYPE>
2
5
10

$$$$

