72279
  -OEChem-07051213043D

 28 30  0     0  0  0  0  0  0999 V2000
    0.1078    0.8481   -0.0763 O   0  0  0  0  0  0  0  0  0  0  0  0
   -1.5002   -2.8796    0.2648 O   0  0  0  0  0  0  0  0  0  0  0  0
   -5.3959    0.4086   -0.0600 O   0  0  0  0  0  0  0  0  0  0  0  0
   -1.8704   -0.5559    0.0483 C   0  0  0  0  0  0  0  0  0  0  0  0
   -1.2548    0.6894   -0.0667 C   0  0  0  0  0  0  0  0  0  0  0  0
    0.9051   -0.2803    0.0404 C   0  0  0  0  0  0  0  0  0  0  0  0
    2.3541    0.0030    0.0115 C   0  0  0  0  0  0  0  0  0  0  0  0
   -1.0278   -1.7559    0.1640 C   0  0  0  0  0  0  0  0  0  0  0  0
    0.4319   -1.5319    0.1503 C   0  0  0  0  0  0  0  0  0  0  0  0
   -3.2634   -0.6578    0.0516 C   0  0  0  0  0  0  0  0  0  0  0  0
   -2.0310    1.8432   -0.1798 C   0  0  0  0  0  0  0  0  0  0  0  0
   -4.0372    0.4979   -0.0612 C   0  0  0  0  0  0  0  0  0  0  0  0
   -3.4226    1.7455   -0.1767 C   0  0  0  0  0  0  0  0  0  0  0  0
    3.2427   -0.9373   -0.5159 C   0  0  0  0  0  0  0  0  0  0  0  0
    2.8429    1.2127    0.5109 C   0  0  0  0  0  0  0  0  0  0  0  0
    4.6113   -0.6696   -0.5438 C   0  0  0  0  0  0  0  0  0  0  0  0
    4.2116    1.4805    0.4830 C   0  0  0  0  0  0  0  0  0  0  0  0
    5.0958    0.5393   -0.0444 C   0  0  0  0  0  0  0  0  0  0  0  0
    1.0571   -2.4111    0.2538 H   0  0  0  0  0  0  0  0  0  0  0  0
   -3.7475   -1.6267    0.1408 H   0  0  0  0  0  0  0  0  0  0  0  0
   -1.5607    2.8184   -0.2703 H   0  0  0  0  0  0  0  0  0  0  0  0
   -4.0240    2.6463   -0.2651 H   0  0  0  0  0  0  0  0  0  0  0  0
    2.9034   -1.8810   -0.9347 H   0  0  0  0  0  0  0  0  0  0  0  0
    2.1776    1.9608    0.9351 H   0  0  0  0  0  0  0  0  0  0  0  0
    5.2997   -1.4000   -0.9589 H   0  0  0  0  0  0  0  0  0  0  0  0
    4.5894    2.4210    0.8733 H   0  0  0  0  0  0  0  0  0  0  0  0
    6.1613    0.7482   -0.0669 H   0  0  0  0  0  0  0  0  0  0  0  0
   -5.6508   -0.5260    0.0273 H   0  0  0  0  0  0  0  0  0  0  0  0
  1  5  1  0  0  0  0
  1  6  1  0  0  0  0
  2  8  2  0  0  0  0
  3 12  1  0  0  0  0
  3 28  1  0  0  0  0
  4  5  2  0  0  0  0
  4  8  1  0  0  0  0
  4 10  1  0  0  0  0
  5 11  1  0  0  0  0
  6  7  1  0  0  0  0
  6  9  2  0  0  0  0
  7 14  2  0  0  0  0
  7 15  1  0  0  0  0
  8  9  1  0  0  0  0
  9 19  1  0  0  0  0
 10 12  2  0  0  0  0
 10 20  1  0  0  0  0
 11 13  2  0  0  0  0
 11 21  1  0  0  0  0
 12 13  1  0  0  0  0
 13 22  1  0  0  0  0
 14 16  1  0  0  0  0
 14 23  1  0  0  0  0
 15 17  2  0  0  0  0
 15 24  1  0  0  0  0
 16 18  2  0  0  0  0
 16 25  1  0  0  0  0
 17 18  1  0  0  0  0
 17 26  1  0  0  0  0
 18 27  1  0  0  0  0
M  END
> <PUBCHEM_COMPOUND_CID>
72279

> <PUBCHEM_CONFORMER_RMSD>
0.6

> <PUBCHEM_CONFORMER_DIVERSEORDER>
1

> <PUBCHEM_MMFF94_PARTIAL_CHARGES>
28
1 -0.16
10 -0.15
11 -0.15
12 0.08
13 -0.15
14 -0.15
15 -0.15
16 -0.15
17 -0.15
18 -0.15
19 0.15
2 -0.57
20 0.15
21 0.15
22 0.15
23 0.15
24 0.15
25 0.15
26 0.15
27 0.15
28 0.45
3 -0.53
4 0.09
5 0.08
6 0.05
7 0.03
8 0.47
9 -0.14

> <PUBCHEM_EFFECTIVE_ROTOR_COUNT>
1

> <PUBCHEM_PHARMACOPHORE_FEATURES>
6
1 1 acceptor
1 2 acceptor
1 3 donor
6 1 4 5 6 8 9 rings
6 4 5 10 11 12 13 rings
6 7 14 15 16 17 18 rings

> <PUBCHEM_HEAVY_ATOM_COUNT>
18

> <PUBCHEM_ATOM_DEF_STEREO_COUNT>
0

> <PUBCHEM_ATOM_UDEF_STEREO_COUNT>
0

> <PUBCHEM_BOND_DEF_STEREO_COUNT>
0

> <PUBCHEM_BOND_UDEF_STEREO_COUNT>
0

> <PUBCHEM_ISOTOPIC_ATOM_COUNT>
0

> <PUBCHEM_COMPONENT_COUNT>
1

> <PUBCHEM_CACTVS_TAUTO_COUNT>
3

> <PUBCHEM_CONFORMER_ID>
00011A5700000001

> <PUBCHEM_MMFF94_ENERGY>
54.1733

> <PUBCHEM_FEATURE_SELFOVERLAP>
30.474

> <PUBCHEM_SHAPE_FINGERPRINT>
10411042 1 17691404109913376347
10498660 4 18270969062630022085
10608611 8 18335704893243522664
10646746 165 18411699889864944532
11132069 177 18341613698220935948
11578080 2 16445333161168946010
12173636 292 18412267271866101509
12236239 1 17275103921017151940
12390115 104 18190164858125532097
12403259 415 18340772632029491925
12500047 106 18410577271265786206
12916748 109 18411696603750914889
12969540 114 18270982205667090101
13081056 2 18408604777106525124
13140716 1 18125432013040699089
13544592 145 18335974363797281774
15042514 8 18270112393296670947
15196674 1 18410012117529814402
15219456 202 18333447621593873550
15375358 24 18333730213156651214
15536298 74 18335139812717082756
18186145 218 18335421326211602352
200 152 17022621987561802888
20279233 1 18261104167428227294
20510252 161 18334857251034947513
20602899 9 16081087056651848183
20645477 56 18412262813753299352
20645477 70 17385715942112979342
21033648 29 18339938081282200297
21267235 1 18410846676930649487
21524375 3 18340767138750249019
221357 26 18114181972984421304
22224240 67 18411409623717940099
23227448 37 18337674105108863988
23402539 116 18408611340090639535
23402655 69 18113618993340418124
23557571 272 18263635169875247894
23558518 356 17769095640285960656
23559900 14 18334857217318390718
3004659 81 18270953674901625070
335352 9 18410574020197180518
351380 180 18334860519483648628
3545911 37 18408321077874708356
366044 4 18413108372723713059
4028521 119 18411423929220222573
4214541 1 18410011031319878376
474 4 16844156845692251668
474229 33 18411700985192608619
495365 180 17458357312368981098
4990 188 18113614629431911132
5104073 3 18411418444499422650
633830 44 18188494708410093077
69090 78 18334579035732478086
7364860 26 18194122039160219466
77779 3 18408040719325698644
9709674 26 18334571326672610702

> <PUBCHEM_SHAPE_MULTIPOLES>
352.82
10.01
2.07
0.67
2.87
0.68
0
-3.04
0.55
-0.82
-0.15
0.23
-0.01
0.65

> <PUBCHEM_SHAPE_SELFOVERLAP>
787.715

> <PUBCHEM_SHAPE_VOLUME>
186.4

> <PUBCHEM_COORDINATE_TYPE>
2
5
10

$$$$

