159204
  -OEChem-07051212582D

 58 61  0     1  0  0  0  0  0999 V2000
    5.9236    0.5717    0.0000 O   0  0  0  0  0  0  0  0  0  0  0  0
    4.8384   -2.7582    0.0000 O   0  0  0  0  0  0  0  0  0  0  0  0
    8.3037   -2.0356    0.0000 O   0  0  0  0  0  0  0  0  0  0  0  0
    8.8170   -0.3334    0.0000 O   0  0  0  0  0  0  0  0  0  0  0  0
    6.0358   -4.0724    0.0000 O   0  0  0  0  0  0  0  0  0  0  0  0
    6.5077    2.1238    0.0000 C   0  0  2  0  0  0  0  0  0  0  0  0
    8.3397    1.8827    0.0000 C   0  0  0  0  0  0  0  0  0  0  0  0
    6.7666    3.0898    0.0000 C   0  0  2  0  0  0  0  0  0  0  0  0
    4.9726    0.8807    0.0000 C   0  0  2  0  0  0  0  0  0  0  0  0
    6.0299    4.0724    0.0000 C   0  0  0  0  0  0  0  0  0  0  0  0
    4.1636    2.2820    0.0000 C   0  0  0  0  0  0  0  0  0  0  0  0
    4.0590    1.2874    0.0000 C   0  0  0  0  0  0  0  0  0  0  0  0
    4.2294    0.2116    0.0000 C   0  0  0  0  0  0  0  0  0  0  0  0
    9.2057    2.3827    0.0000 C   0  0  0  0  0  0  0  0  0  0  0  0
    8.8397    1.0166    0.0000 C   0  0  0  0  0  0  0  0  0  0  0  0
    4.4374   -0.7666    0.0000 C   0  0  1  0  0  0  0  0  0  0  0  0
    5.3884   -1.0756    0.0000 C   0  0  0  0  0  0  0  0  0  0  0  0
    6.1316   -0.4065    0.0000 C   0  0  0  0  0  0  0  0  0  0  0  0
    3.6942   -1.4357    0.0000 C   0  0  0  0  0  0  0  0  0  0  0  0
    2.7431   -1.1267    0.0000 C   0  0  0  0  0  0  0  0  0  0  0  0
    7.1270   -0.7130    0.0000 C   0  0  0  0  0  0  0  0  0  0  0  0
    5.5892   -2.0977    0.0000 C   0  0  0  0  0  0  0  0  0  0  0  0
    6.5774   -2.4272    0.0000 C   0  0  0  0  0  0  0  0  0  0  0  0
    7.3515   -1.7302    0.0000 C   0  0  0  0  0  0  0  0  0  0  0  0
    2.0000   -1.7958    0.0000 C   0  0  0  0  0  0  0  0  0  0  0  0
    2.5352   -0.1485    0.0000 C   0  0  0  0  0  0  0  0  0  0  0  0
    7.8624   -0.0354    0.0000 C   0  0  0  0  0  0  0  0  0  0  0  0
    6.7815   -3.4061    0.0000 C   0  0  0  0  0  0  0  0  0  0  0  0
    6.2877    1.3028    0.0000 H   0  0  0  0  0  0  0  0  0  0  0  0
    6.9866    3.9108    0.0000 H   0  0  0  0  0  0  0  0  0  0  0  0
    6.3477    4.6047    0.0000 H   0  0  0  0  0  0  0  0  0  0  0  0
    5.4168    4.1644    0.0000 H   0  0  0  0  0  0  0  0  0  0  0  0
    4.0613    2.8935    0.0000 H   0  0  0  0  0  0  0  0  0  0  0  0
    3.5438    2.2631    0.0000 H   0  0  0  0  0  0  0  0  0  0  0  0
    3.4526    1.4164    0.0000 H   0  0  0  0  0  0  0  0  0  0  0  0
    3.8674    0.6978    0.0000 H   0  0  0  0  0  0  0  0  0  0  0  0
    3.9009    0.7374    0.0000 H   0  0  0  0  0  0  0  0  0  0  0  0
    3.6546   -0.0207    0.0000 H   0  0  0  0  0  0  0  0  0  0  0  0
    8.3028    0.7066    0.0000 H   0  0  0  0  0  0  0  0  0  0  0  0
    9.1497    0.4797    0.0000 H   0  0  0  0  0  0  0  0  0  0  0  0
    9.3766    1.3266    0.0000 H   0  0  0  0  0  0  0  0  0  0  0  0
    9.5157    1.8457    0.0000 H   0  0  0  0  0  0  0  0  0  0  0  0
    9.7426    2.6927    0.0000 H   0  0  0  0  0  0  0  0  0  0  0  0
    8.8957    2.9196    0.0000 H   0  0  0  0  0  0  0  0  0  0  0  0
    3.8477   -0.5750    0.0000 H   0  0  0  0  0  0  0  0  0  0  0  0
    3.4031   -1.9831    0.0000 H   0  0  0  0  0  0  0  0  0  0  0  0
    4.1828   -1.8174    0.0000 H   0  0  0  0  0  0  0  0  0  0  0  0
    3.2039   -0.7118    0.0000 H   0  0  0  0  0  0  0  0  0  0  0  0
    3.1417   -0.0196    0.0000 H   0  0  0  0  0  0  0  0  0  0  0  0
    2.4063    0.4579    0.0000 H   0  0  0  0  0  0  0  0  0  0  0  0
    1.9288   -0.2774    0.0000 H   0  0  0  0  0  0  0  0  0  0  0  0
    1.5851   -1.3351    0.0000 H   0  0  0  0  0  0  0  0  0  0  0  0
    1.5392   -2.2107    0.0000 H   0  0  0  0  0  0  0  0  0  0  0  0
    2.4149   -2.2566    0.0000 H   0  0  0  0  0  0  0  0  0  0  0  0
    7.7265    0.5696    0.0000 H   0  0  0  0  0  0  0  0  0  0  0  0
    4.9603   -3.3661    0.0000 H   0  0  0  0  0  0  0  0  0  0  0  0
    7.3704   -3.6000    0.0000 H   0  0  0  0  0  0  0  0  0  0  0  0
    8.4349   -2.6415    0.0000 H   0  0  0  0  0  0  0  0  0  0  0  0
  9  1  1  1  0  0  0
  1 18  1  0  0  0  0
  2 22  1  0  0  0  0
  2 56  1  0  0  0  0
  3 24  1  0  0  0  0
  3 58  1  0  0  0  0
  4 27  2  0  0  0  0
  5 28  2  0  0  0  0
  6  7  1  0  0  0  0
  6  9  1  0  0  0  0
  6 10  1  0  0  0  0
  6 29  1  1  0  0  0
  7  8  1  0  0  0  0
  7 14  1  0  0  0  0
  7 15  1  0  0  0  0
  8 10  1  0  0  0  0
  8 11  1  0  0  0  0
  8 30  1  6  0  0  0
  9 12  1  0  0  0  0
  9 13  1  0  0  0  0
 10 31  1  0  0  0  0
 10 32  1  0  0  0  0
 11 12  1  0  0  0  0
 11 33  1  0  0  0  0
 11 34  1  0  0  0  0
 12 35  1  0  0  0  0
 12 36  1  0  0  0  0
 13 16  1  0  0  0  0
 13 37  1  0  0  0  0
 13 38  1  0  0  0  0
 14 42  1  0  0  0  0
 14 43  1  0  0  0  0
 14 44  1  0  0  0  0
 15 39  1  0  0  0  0
 15 40  1  0  0  0  0
 15 41  1  0  0  0  0
 16 17  1  0  0  0  0
 16 19  1  1  0  0  0
 16 45  1  0  0  0  0
 17 18  1  0  0  0  0
 17 22  2  0  0  0  0
 18 21  2  0  0  0  0
 19 20  1  0  0  0  0
 19 46  1  0  0  0  0
 19 47  1  0  0  0  0
 20 25  1  0  0  0  0
 20 26  1  0  0  0  0
 20 48  1  0  0  0  0
 21 24  1  0  0  0  0
 21 27  1  0  0  0  0
 22 23  1  0  0  0  0
 23 24  2  0  0  0  0
 23 28  1  0  0  0  0
 25 52  1  0  0  0  0
 25 53  1  0  0  0  0
 25 54  1  0  0  0  0
 26 49  1  0  0  0  0
 26 50  1  0  0  0  0
 26 51  1  0  0  0  0
 27 55  1  0  0  0  0
 28 57  1  0  0  0  0
M  END
> <PUBCHEM_COMPOUND_CID>
159204

> <PUBCHEM_COMPOUND_CANONICALIZED>
1

> <PUBCHEM_CACTVS_COMPLEXITY>
631

> <PUBCHEM_CACTVS_HBOND_ACCEPTOR>
5

> <PUBCHEM_CACTVS_HBOND_DONOR>
2

> <PUBCHEM_CACTVS_ROTATABLE_BOND>
4

> <PUBCHEM_CACTVS_SUBSKEYS>
AAADceB4OAAAAAAAAAAAAAAAAABgAAAAAAA0YMEAAAAAAACRAAAAGgAACAAAD0SgmAICBoAABgCIAghQgAACCAAkIAAAiAEECMgMJzaGNBqCeWCl4BUIuQeI7vzPoAACCAAIAADAAAYQADAAAAAAAAAAAA==

> <PUBCHEM_IUPAC_OPENEYE_NAME>
(1'R,2R,4S,5'S)-5,7-dihydroxy-4-isobutyl-6',6'-dimethyl-spiro[chromane-2,2'-norpinane]-6,8-dicarbaldehyde

> <PUBCHEM_IUPAC_CAS_NAME>
(1'S,2R,4S,5'R)-5,7-dihydroxy-6',6'-dimethyl-4-(2-methylpropyl)spiro[3,4-dihydro-2H-1-benzopyran-2,4'-bicyclo[3.1.1]heptane]-6,8-dicarboxaldehyde

> <PUBCHEM_IUPAC_NAME>
(1'S,2R,4S,5'R)-5,7-dihydroxy-6',6'-dimethyl-4-(2-methylpropyl)spiro[3,4-dihydrochromene-2,4'-bicyclo[3.1.1]heptane]-6,8-dicarbaldehyde

> <PUBCHEM_IUPAC_SYSTEMATIC_NAME>
(1'S,2R,4S,5'R)-6',6'-dimethyl-4-(2-methylpropyl)-5,7-bis(oxidanyl)spiro[3,4-dihydrochromene-2,4'-bicyclo[3.1.1]heptane]-6,8-dicarbaldehyde

> <PUBCHEM_IUPAC_TRADITIONAL_NAME>
(1'R,2R,4S,5'S)-5,7-dihydroxy-4-isobutyl-6',6'-dimethyl-spiro[chroman-2,2'-norpinane]-6,8-dicarbaldehyde

> <PUBCHEM_IUPAC_INCHI>
InChI=1S/C23H30O5/c1-12(2)7-13-9-23(6-5-14-8-17(23)22(14,3)4)28-21-16(11-25)19(26)15(10-24)20(27)18(13)21/h10-14,17,26-27H,5-9H2,1-4H3/t13-,14-,17+,23+/m0/s1

> <PUBCHEM_IUPAC_INCHIKEY>
SULUCYRQUAHFJK-MJDLOBTFSA-N

> <PUBCHEM_XLOGP3_AA>
5.5

> <PUBCHEM_EXACT_MASS>
386.209324

> <PUBCHEM_MOLECULAR_FORMULA>
C23H30O5

> <PUBCHEM_MOLECULAR_WEIGHT>
386.4813

> <PUBCHEM_OPENEYE_CAN_SMILES>
CC(C)CC1CC2(CCC3CC2C3(C)C)OC4=C(C(=C(C(=C14)O)C=O)O)C=O

> <PUBCHEM_OPENEYE_ISO_SMILES>
CC(C)C[C@H]1C[C@@]2(CC[C@H]3C[C@@H]2C3(C)C)OC4=C(C(=C(C(=C14)O)C=O)O)C=O

> <PUBCHEM_CACTVS_TPSA>
83.8

> <PUBCHEM_MONOISOTOPIC_WEIGHT>
386.209324

> <PUBCHEM_TOTAL_CHARGE>
0

> <PUBCHEM_HEAVY_ATOM_COUNT>
28

> <PUBCHEM_ATOM_DEF_STEREO_COUNT>
4

> <PUBCHEM_ATOM_UDEF_STEREO_COUNT>
0

> <PUBCHEM_BOND_DEF_STEREO_COUNT>
0

> <PUBCHEM_BOND_UDEF_STEREO_COUNT>
0

> <PUBCHEM_ISOTOPIC_ATOM_COUNT>
0

> <PUBCHEM_COMPONENT_COUNT>
1

> <PUBCHEM_CACTVS_TAUTO_COUNT>
17

> <PUBCHEM_COORDINATE_TYPE>
1
5
255

> <PUBCHEM_BONDANNOTATIONS>
9  1  5
16  19  5
17  18  8
17  22  8
18  21  8
21  24  8
22  23  8
23  24  8
6  29  5
8  30  6

$$$$

