44123583
  -OEChem-07051213112D

 19 19  0     0  0  0  0  0  0999 V2000
    3.7601   -0.3665    0.0000 O   0  0  0  0  0  0  0  0  0  0  0  0
    2.0000   -0.0877    0.0000 O   0  0  0  0  0  0  0  0  0  0  0  0
    6.6791   -1.3749    0.0000 O   0  0  0  0  0  0  0  0  0  0  0  0
    4.9849   -1.7350    0.0000 O   0  0  0  0  0  0  0  0  0  0  0  0
    4.2601    1.1723    0.0000 C   0  0  0  0  0  0  0  0  0  0  0  0
    3.2601    1.1723    0.0000 C   0  0  0  0  0  0  0  0  0  0  0  0
    4.5691    0.2213    0.0000 C   0  0  0  0  0  0  0  0  0  0  0  0
    5.5202   -0.0877    0.0000 C   0  0  0  0  0  0  0  0  0  0  0  0
    2.9511    0.2213    0.0000 C   0  0  0  0  0  0  0  0  0  0  0  0
    4.8479    1.9814    0.0000 C   0  0  0  0  0  0  0  0  0  0  0  0
    5.7281   -1.0659    0.0000 C   0  0  0  0  0  0  0  0  0  0  0  0
    3.3249    1.7889    0.0000 H   0  0  0  0  0  0  0  0  0  0  0  0
    2.6536    1.3012    0.0000 H   0  0  0  0  0  0  0  0  0  0  0  0
    6.1398   -0.0661    0.0000 H   0  0  0  0  0  0  0  0  0  0  0  0
    5.6064    0.5262    0.0000 H   0  0  0  0  0  0  0  0  0  0  0  0
    5.3494    1.6169    0.0000 H   0  0  0  0  0  0  0  0  0  0  0  0
    5.2123    2.4829    0.0000 H   0  0  0  0  0  0  0  0  0  0  0  0
    4.3463    2.3458    0.0000 H   0  0  0  0  0  0  0  0  0  0  0  0
    6.8080   -1.9814    0.0000 H   0  0  0  0  0  0  0  0  0  0  0  0
  1  7  1  0  0  0  0
  1  9  1  0  0  0  0
  2  9  2  0  0  0  0
  3 11  1  0  0  0  0
  3 19  1  0  0  0  0
  4 11  2  0  0  0  0
  5  6  1  0  0  0  0
  5  7  2  0  0  0  0
  5 10  1  0  0  0  0
  6  9  1  0  0  0  0
  6 12  1  0  0  0  0
  6 13  1  0  0  0  0
  7  8  1  0  0  0  0
  8 11  1  0  0  0  0
  8 14  1  0  0  0  0
  8 15  1  0  0  0  0
 10 16  1  0  0  0  0
 10 17  1  0  0  0  0
 10 18  1  0  0  0  0
M  END
> <PUBCHEM_COMPOUND_CID>
44123583

> <PUBCHEM_COMPOUND_CANONICALIZED>
1

> <PUBCHEM_CACTVS_COMPLEXITY>
239

> <PUBCHEM_CACTVS_HBOND_ACCEPTOR>
4

> <PUBCHEM_CACTVS_HBOND_DONOR>
1

> <PUBCHEM_CACTVS_ROTATABLE_BOND>
2

> <PUBCHEM_CACTVS_SUBSKEYS>
AAADccBgOAAAAAAAAAAAAAAAAAAAAQAAAAAAAAAAAAAAAAAAAAAAGgAACAAADASAgAACCAAABgCIAgDQCAAACAAgIAAACAEAAAgAABQAAAACQAAFYAAIAAIAAAAAAAAAAAAAAAAAAAAAAAAAAAAAAAAAAA==

> <PUBCHEM_IUPAC_OPENEYE_NAME>
2-(4-methyl-2-oxo-3H-furan-5-yl)acetic acid

> <PUBCHEM_IUPAC_CAS_NAME>
2-(4-methyl-2-oxo-3H-furan-5-yl)acetic acid

> <PUBCHEM_IUPAC_NAME>
2-(4-methyl-2-oxo-3H-furan-5-yl)acetic acid

> <PUBCHEM_IUPAC_SYSTEMATIC_NAME>
2-(4-methyl-2-oxidanylidene-3H-furan-5-yl)ethanoic acid

> <PUBCHEM_IUPAC_TRADITIONAL_NAME>
2-(2-keto-4-methyl-3H-furan-5-yl)acetic acid

> <PUBCHEM_IUPAC_INCHI>
InChI=1S/C7H8O4/c1-4-2-7(10)11-5(4)3-6(8)9/h2-3H2,1H3,(H,8,9)

> <PUBCHEM_IUPAC_INCHIKEY>
DAJDHKXIQYXYPH-UHFFFAOYSA-N

> <PUBCHEM_XLOGP3_AA>
-0.4

> <PUBCHEM_EXACT_MASS>
156.042259

> <PUBCHEM_MOLECULAR_FORMULA>
C7H8O4

> <PUBCHEM_MOLECULAR_WEIGHT>
156.13602

> <PUBCHEM_OPENEYE_CAN_SMILES>
CC1=C(OC(=O)C1)CC(=O)O

> <PUBCHEM_OPENEYE_ISO_SMILES>
CC1=C(OC(=O)C1)CC(=O)O

> <PUBCHEM_CACTVS_TPSA>
63.6

> <PUBCHEM_MONOISOTOPIC_WEIGHT>
156.042259

> <PUBCHEM_TOTAL_CHARGE>
0

> <PUBCHEM_HEAVY_ATOM_COUNT>
11

> <PUBCHEM_ATOM_DEF_STEREO_COUNT>
0

> <PUBCHEM_ATOM_UDEF_STEREO_COUNT>
0

> <PUBCHEM_BOND_DEF_STEREO_COUNT>
0

> <PUBCHEM_BOND_UDEF_STEREO_COUNT>
0

> <PUBCHEM_ISOTOPIC_ATOM_COUNT>
0

> <PUBCHEM_COMPONENT_COUNT>
1

> <PUBCHEM_CACTVS_TAUTO_COUNT>
2

> <PUBCHEM_COORDINATE_TYPE>
1
5
255

$$$$

