6429303
  -OEChem-07051213152D

 39 40  0     1  0  0  0  0  0999 V2000
    6.2806    0.2042    0.0000 C   0  0  1  0  0  0  0  0  0  0  0  0
    4.7075    1.4113    0.0000 C   0  0  2  0  0  0  0  0  0  0  0  0
    4.4487    0.4454    0.0000 C   0  0  1  0  0  0  0  0  0  0  0  0
    3.9709    2.3939    0.0000 C   0  0  0  0  0  0  0  0  0  0  0  0
    2.1045    0.6035    0.0000 C   0  0  0  0  0  0  0  0  0  0  0  0
    6.7806   -0.6618    0.0000 C   0  0  0  0  0  0  0  0  0  0  0  0
    2.9136   -0.7978    0.0000 C   0  0  0  0  0  0  0  0  0  0  0  0
    7.1467    0.7042    0.0000 C   0  0  0  0  0  0  0  0  0  0  0  0
    2.0000   -0.3910    0.0000 C   0  0  0  0  0  0  0  0  0  0  0  0
    7.7806   -0.6618    0.0000 C   0  0  0  0  0  0  0  0  0  0  0  0
    3.1215   -1.7759    0.0000 C   0  0  0  0  0  0  0  0  0  0  0  0
    8.2806   -1.5279    0.0000 C   0  0  0  0  0  0  0  0  0  0  0  0
    9.2806   -1.5279    0.0000 C   0  0  0  0  0  0  0  0  0  0  0  0
    9.7806   -2.3939    0.0000 C   0  0  0  0  0  0  0  0  0  0  0  0
    9.7806   -0.6618    0.0000 C   0  0  0  0  0  0  0  0  0  0  0  0
    4.9275    2.2323    0.0000 H   0  0  0  0  0  0  0  0  0  0  0  0
    4.2287   -0.3757    0.0000 H   0  0  0  0  0  0  0  0  0  0  0  0
    4.2887    2.9262    0.0000 H   0  0  0  0  0  0  0  0  0  0  0  0
    3.3578    2.4858    0.0000 H   0  0  0  0  0  0  0  0  0  0  0  0
    2.0023    1.2150    0.0000 H   0  0  0  0  0  0  0  0  0  0  0  0
    1.4848    0.5846    0.0000 H   0  0  0  0  0  0  0  0  0  0  0  0
    6.1980   -0.8739    0.0000 H   0  0  0  0  0  0  0  0  0  0  0  0
    6.8883   -1.2724    0.0000 H   0  0  0  0  0  0  0  0  0  0  0  0
    7.4567    0.1672    0.0000 H   0  0  0  0  0  0  0  0  0  0  0  0
    7.6836    1.0142    0.0000 H   0  0  0  0  0  0  0  0  0  0  0  0
    6.8367    1.2411    0.0000 H   0  0  0  0  0  0  0  0  0  0  0  0
    1.4631   -0.7010    0.0000 H   0  0  0  0  0  0  0  0  0  0  0  0
    8.3633   -0.4498    0.0000 H   0  0  0  0  0  0  0  0  0  0  0  0
    7.6730   -0.0513    0.0000 H   0  0  0  0  0  0  0  0  0  0  0  0
    2.5150   -1.9048    0.0000 H   0  0  0  0  0  0  0  0  0  0  0  0
    3.2504   -2.3824    0.0000 H   0  0  0  0  0  0  0  0  0  0  0  0
    3.7279   -1.6470    0.0000 H   0  0  0  0  0  0  0  0  0  0  0  0
    7.9706   -2.0648    0.0000 H   0  0  0  0  0  0  0  0  0  0  0  0
    9.2437   -2.7039    0.0000 H   0  0  0  0  0  0  0  0  0  0  0  0
   10.0907   -2.9308    0.0000 H   0  0  0  0  0  0  0  0  0  0  0  0
   10.3176   -2.0839    0.0000 H   0  0  0  0  0  0  0  0  0  0  0  0
   10.3176   -0.9718    0.0000 H   0  0  0  0  0  0  0  0  0  0  0  0
   10.0907   -0.1249    0.0000 H   0  0  0  0  0  0  0  0  0  0  0  0
    9.2437   -0.3518    0.0000 H   0  0  0  0  0  0  0  0  0  0  0  0
  1  2  1  0  0  0  0
  1  3  1  0  0  0  0
  1  6  1  0  0  0  0
  1  8  1  1  0  0  0
  2  4  1  0  0  0  0
  2  5  1  0  0  0  0
  2 16  1  6  0  0  0
  3  4  1  0  0  0  0
  3  7  1  0  0  0  0
  3 17  1  1  0  0  0
  4 18  1  0  0  0  0
  4 19  1  0  0  0  0
  5  9  1  0  0  0  0
  5 20  1  0  0  0  0
  5 21  1  0  0  0  0
  6 10  1  0  0  0  0
  6 22  1  0  0  0  0
  6 23  1  0  0  0  0
  7  9  2  0  0  0  0
  7 11  1  0  0  0  0
  8 24  1  0  0  0  0
  8 25  1  0  0  0  0
  8 26  1  0  0  0  0
  9 27  1  0  0  0  0
 10 12  1  0  0  0  0
 10 28  1  0  0  0  0
 10 29  1  0  0  0  0
 11 30  1  0  0  0  0
 11 31  1  0  0  0  0
 11 32  1  0  0  0  0
 12 13  2  0  0  0  0
 12 33  1  0  0  0  0
 13 14  1  0  0  0  0
 13 15  1  0  0  0  0
 14 34  1  0  0  0  0
 14 35  1  0  0  0  0
 14 36  1  0  0  0  0
 15 37  1  0  0  0  0
 15 38  1  0  0  0  0
 15 39  1  0  0  0  0
M  END
> <PUBCHEM_COMPOUND_CID>
6429303

> <PUBCHEM_COMPOUND_CANONICALIZED>
1

> <PUBCHEM_CACTVS_COMPLEXITY>
304

> <PUBCHEM_CACTVS_HBOND_ACCEPTOR>
0

> <PUBCHEM_CACTVS_HBOND_DONOR>
0

> <PUBCHEM_CACTVS_ROTATABLE_BOND>
3

> <PUBCHEM_CACTVS_SUBSKEYS>
AAADceBwAAAAAAAAAAAAAAAAAABgAAAAAAAgQAAAAAAAAAAAAAAAGAAAAAAADwCAAAACAAAAAACAAiBCAAAAAAAgAAAACAAAAAgAAAIAAQAAAAAAgAAIAAMAgMAPgAAAAAAAAAAAAAAAAAAAAAAAAAAAAA==

> <PUBCHEM_IUPAC_OPENEYE_NAME>
(1S,5S,6S)-4,6-dimethyl-6-(4-methylpent-3-enyl)bicyclo[3.1.1]hept-3-ene

> <PUBCHEM_IUPAC_CAS_NAME>
(1S,5S,6S)-4,6-dimethyl-6-(4-methylpent-3-enyl)bicyclo[3.1.1]hept-3-ene

> <PUBCHEM_IUPAC_NAME>
(1S,5S,6S)-4,6-dimethyl-6-(4-methylpent-3-enyl)bicyclo[3.1.1]hept-3-ene

> <PUBCHEM_IUPAC_SYSTEMATIC_NAME>
(1S,5S,6S)-4,6-dimethyl-6-(4-methylpent-3-enyl)bicyclo[3.1.1]hept-3-ene

> <PUBCHEM_IUPAC_TRADITIONAL_NAME>
(1S,5S,6S)-4,6-dimethyl-6-(4-methylpent-3-enyl)bicyclo[3.1.1]hept-3-ene

> <PUBCHEM_IUPAC_INCHI>
InChI=1S/C15H24/c1-11(2)6-5-9-15(4)13-8-7-12(3)14(15)10-13/h6-7,13-14H,5,8-10H2,1-4H3/t13-,14-,15-/m0/s1

> <PUBCHEM_IUPAC_INCHIKEY>
YMBFCQPIMVLNIU-KKUMJFAQSA-N

> <PUBCHEM_XLOGP3_AA>
4.8

> <PUBCHEM_EXACT_MASS>
204.187801

> <PUBCHEM_MOLECULAR_FORMULA>
C15H24

> <PUBCHEM_MOLECULAR_WEIGHT>
204.35106

> <PUBCHEM_OPENEYE_CAN_SMILES>
CC1=CCC2CC1C2(C)CCC=C(C)C

> <PUBCHEM_OPENEYE_ISO_SMILES>
CC1=CC[C@H]2C[C@@H]1[C@@]2(C)CCC=C(C)C

> <PUBCHEM_CACTVS_TPSA>
0

> <PUBCHEM_MONOISOTOPIC_WEIGHT>
204.187801

> <PUBCHEM_TOTAL_CHARGE>
0

> <PUBCHEM_HEAVY_ATOM_COUNT>
15

> <PUBCHEM_ATOM_DEF_STEREO_COUNT>
3

> <PUBCHEM_ATOM_UDEF_STEREO_COUNT>
0

> <PUBCHEM_BOND_DEF_STEREO_COUNT>
0

> <PUBCHEM_BOND_UDEF_STEREO_COUNT>
0

> <PUBCHEM_ISOTOPIC_ATOM_COUNT>
0

> <PUBCHEM_COMPONENT_COUNT>
1

> <PUBCHEM_CACTVS_TAUTO_COUNT>
1

> <PUBCHEM_COORDINATE_TYPE>
1
5
255

> <PUBCHEM_BONDANNOTATIONS>
1  8  5
2  16  6
3  17  5

$$$$

