10905426
  -OEChem-07051213123D

 62 63  0     0  0  0  0  0  0999 V2000
   -2.5101    1.1434   -2.4413 O   0  0  0  0  0  0  0  0  0  0  0  0
   -2.5880   -0.9755    1.8225 O   0  0  0  0  0  0  0  0  0  0  0  0
    5.0796   -0.6662   -1.7342 O   0  0  0  0  0  0  0  0  0  0  0  0
   -6.1510   -0.6206    0.4286 O   0  0  0  0  0  0  0  0  0  0  0  0
   -4.7895   -0.5071    0.6336 N   0  0  0  0  0  0  0  0  0  0  0  0
    0.0053    0.9572    0.1712 C   0  0  0  0  0  0  0  0  0  0  0  0
    1.5068    1.1431    0.2917 C   0  0  0  0  0  0  0  0  0  0  0  0
   -0.4358    0.8549   -1.2934 C   0  0  0  0  0  0  0  0  0  0  0  0
   -0.4768   -0.2653    0.9606 C   0  0  0  0  0  0  0  0  0  0  0  0
    2.3754    0.1584   -0.1804 C   0  0  0  0  0  0  0  0  0  0  0  0
    2.0196    2.3012    0.8772 C   0  0  0  0  0  0  0  0  0  0  0  0
   -1.9412    0.7626   -1.4197 C   0  0  0  0  0  0  0  0  0  0  0  0
   -1.9838   -0.3999    0.9192 C   0  0  0  0  0  0  0  0  0  0  0  0
   -2.6850    0.1400   -0.2841 C   0  0  0  0  0  0  0  0  0  0  0  0
    3.7549    0.3316   -0.0672 C   0  0  0  0  0  0  0  0  0  0  0  0
    4.2666    1.4897    0.5182 C   0  0  0  0  0  0  0  0  0  0  0  0
    3.3990    2.4745    0.9902 C   0  0  0  0  0  0  0  0  0  0  0  0
    1.8220   -1.0829   -0.8078 C   0  0  0  0  0  0  0  0  0  0  0  0
   -4.0215    0.0662   -0.3451 C   0  0  0  0  0  0  0  0  0  0  0  0
    1.1124    3.3711    1.3908 C   0  0  0  0  0  0  0  0  0  0  0  0
    4.6653   -0.6972   -0.5602 C   0  0  0  0  0  0  0  0  0  0  0  0
    5.7394    1.7035    0.6538 C   0  0  0  0  0  0  0  0  0  0  0  0
   -4.7645    0.6030   -1.5495 C   0  0  0  0  0  0  0  0  0  0  0  0
    5.1179   -1.8291    0.3769 C   0  0  0  0  0  0  0  0  0  0  0  0
    5.4370   -3.1309   -0.3583 C   0  0  0  0  0  0  0  0  0  0  0  0
   -4.9508   -0.4516   -2.6326 C   0  0  0  0  0  0  0  0  0  0  0  0
    5.8481   -4.2300    0.6078 C   0  0  0  0  0  0  0  0  0  0  0  0
   -6.6768   -1.2438    1.5945 C   0  0  0  0  0  0  0  0  0  0  0  0
   -8.1744   -1.4005    1.4372 C   0  0  0  0  0  0  0  0  0  0  0  0
   -0.5318    1.8157    0.5882 H   0  0  0  0  0  0  0  0  0  0  0  0
   -0.1479    1.7964   -1.7841 H   0  0  0  0  0  0  0  0  0  0  0  0
   -0.0242    0.0710   -1.9234 H   0  0  0  0  0  0  0  0  0  0  0  0
   -0.0732   -1.2459    0.7221 H   0  0  0  0  0  0  0  0  0  0  0  0
   -0.2156   -0.0949    2.0153 H   0  0  0  0  0  0  0  0  0  0  0  0
    3.7981    3.3768    1.4476 H   0  0  0  0  0  0  0  0  0  0  0  0
    0.7658   -1.2622   -0.9297 H   0  0  0  0  0  0  0  0  0  0  0  0
    2.1791   -1.9491   -0.2363 H   0  0  0  0  0  0  0  0  0  0  0  0
    2.2324   -1.1700   -1.8223 H   0  0  0  0  0  0  0  0  0  0  0  0
    0.4714    2.9887    2.1920 H   0  0  0  0  0  0  0  0  0  0  0  0
    1.6797    4.2071    1.8162 H   0  0  0  0  0  0  0  0  0  0  0  0
    0.5016    3.7871    0.5827 H   0  0  0  0  0  0  0  0  0  0  0  0
    6.2389    1.6010   -0.3152 H   0  0  0  0  0  0  0  0  0  0  0  0
    5.9714    2.7076    1.0256 H   0  0  0  0  0  0  0  0  0  0  0  0
    6.1665    0.9860    1.3614 H   0  0  0  0  0  0  0  0  0  0  0  0
   -5.7772    0.8965   -1.2350 H   0  0  0  0  0  0  0  0  0  0  0  0
   -4.4286    1.5733   -1.9217 H   0  0  0  0  0  0  0  0  0  0  0  0
    6.0058   -1.4757    0.9131 H   0  0  0  0  0  0  0  0  0  0  0  0
    4.3280   -2.0075    1.1155 H   0  0  0  0  0  0  0  0  0  0  0  0
   -4.3750   -0.9354    1.4513 H   0  0  0  0  0  0  0  0  0  0  0  0
    4.5611   -3.4559   -0.9322 H   0  0  0  0  0  0  0  0  0  0  0  0
    6.2448   -2.9648   -1.0806 H   0  0  0  0  0  0  0  0  0  0  0  0
   -5.5120   -1.3135   -2.2555 H   0  0  0  0  0  0  0  0  0  0  0  0
   -5.5168   -0.0306   -3.4701 H   0  0  0  0  0  0  0  0  0  0  0  0
   -3.9979   -0.8201   -3.0239 H   0  0  0  0  0  0  0  0  0  0  0  0
    5.0458   -4.4461    1.3204 H   0  0  0  0  0  0  0  0  0  0  0  0
    6.0735   -5.1508    0.0607 H   0  0  0  0  0  0  0  0  0  0  0  0
    6.7411   -3.9424    1.1718 H   0  0  0  0  0  0  0  0  0  0  0  0
   -6.2224   -2.2331    1.7291 H   0  0  0  0  0  0  0  0  0  0  0  0
   -6.4665   -0.6272    2.4769 H   0  0  0  0  0  0  0  0  0  0  0  0
   -8.6126   -1.8781    2.3180 H   0  0  0  0  0  0  0  0  0  0  0  0
   -8.6506   -0.4254    1.2901 H   0  0  0  0  0  0  0  0  0  0  0  0
   -8.4081   -2.0048    0.5544 H   0  0  0  0  0  0  0  0  0  0  0  0
  1 12  2  0  0  0  0
  2 13  2  0  0  0  0
  3 21  2  0  0  0  0
  4  5  1  0  0  0  0
  4 28  1  0  0  0  0
  5 19  1  0  0  0  0
  5 49  1  0  0  0  0
  6  7  1  0  0  0  0
  6  8  1  0  0  0  0
  6  9  1  0  0  0  0
  6 30  1  0  0  0  0
  7 10  2  0  0  0  0
  7 11  1  0  0  0  0
  8 12  1  0  0  0  0
  8 31  1  0  0  0  0
  8 32  1  0  0  0  0
  9 13  1  0  0  0  0
  9 33  1  0  0  0  0
  9 34  1  0  0  0  0
 10 15  1  0  0  0  0
 10 18  1  0  0  0  0
 11 17  2  0  0  0  0
 11 20  1  0  0  0  0
 12 14  1  0  0  0  0
 13 14  1  0  0  0  0
 14 19  2  0  0  0  0
 15 16  2  0  0  0  0
 15 21  1  0  0  0  0
 16 17  1  0  0  0  0
 16 22  1  0  0  0  0
 17 35  1  0  0  0  0
 18 36  1  0  0  0  0
 18 37  1  0  0  0  0
 18 38  1  0  0  0  0
 19 23  1  0  0  0  0
 20 39  1  0  0  0  0
 20 40  1  0  0  0  0
 20 41  1  0  0  0  0
 21 24  1  0  0  0  0
 22 42  1  0  0  0  0
 22 43  1  0  0  0  0
 22 44  1  0  0  0  0
 23 26  1  0  0  0  0
 23 45  1  0  0  0  0
 23 46  1  0  0  0  0
 24 25  1  0  0  0  0
 24 47  1  0  0  0  0
 24 48  1  0  0  0  0
 25 27  1  0  0  0  0
 25 50  1  0  0  0  0
 25 51  1  0  0  0  0
 26 52  1  0  0  0  0
 26 53  1  0  0  0  0
 26 54  1  0  0  0  0
 27 55  1  0  0  0  0
 27 56  1  0  0  0  0
 27 57  1  0  0  0  0
 28 29  1  0  0  0  0
 28 58  1  0  0  0  0
 28 59  1  0  0  0  0
 29 60  1  0  0  0  0
 29 61  1  0  0  0  0
 29 62  1  0  0  0  0
M  END
> <PUBCHEM_COMPOUND_CID>
10905426

> <PUBCHEM_CONFORMER_RMSD>
1

> <PUBCHEM_CONFORMER_DIVERSEORDER>
7
8
3
5
2
9
6
1
4

> <PUBCHEM_MMFF94_PARTIAL_CHARGES>
27
1 -0.57
10 -0.14
11 -0.14
12 0.49
13 0.49
14 0.03
15 0.09
16 -0.14
17 -0.15
18 0.14
19 -0.04
2 -0.57
20 0.14
21 0.42
22 0.14
23 0.14
24 0.06
28 0.28
3 -0.57
35 0.15
4 -0.26
49 0.4
5 -0.52
6 0.14
7 -0.14
8 0.06
9 0.06

> <PUBCHEM_EFFECTIVE_ROTOR_COUNT>
8.6

> <PUBCHEM_PHARMACOPHORE_FEATURES>
8
1 1 acceptor
1 14 anion
1 2 acceptor
1 26 hydrophobe
1 27 hydrophobe
1 3 acceptor
6 6 8 9 12 13 14 rings
6 7 10 11 15 16 17 rings

> <PUBCHEM_HEAVY_ATOM_COUNT>
29

> <PUBCHEM_ATOM_DEF_STEREO_COUNT>
0

> <PUBCHEM_ATOM_UDEF_STEREO_COUNT>
0

> <PUBCHEM_BOND_DEF_STEREO_COUNT>
0

> <PUBCHEM_BOND_UDEF_STEREO_COUNT>
0

> <PUBCHEM_ISOTOPIC_ATOM_COUNT>
0

> <PUBCHEM_COMPONENT_COUNT>
1

> <PUBCHEM_CACTVS_TAUTO_COUNT>
26

> <PUBCHEM_CONFORMER_ID>
00A6675200000007

> <PUBCHEM_MMFF94_ENERGY>
102.2482

> <PUBCHEM_FEATURE_SELFOVERLAP>
40.594

> <PUBCHEM_SHAPE_FINGERPRINT>
10673678 19 17984409743049157820
117089 54 17831010592358221750
11796584 16 17703794738912198898
12236239 1 16515965865747490636
12422481 6 16733256979808836548
12616971 3 17458343022833477973
13073987 5 18335420187992768656
13140716 1 17827091615304701312
13533116 47 18334010579852386850
13617811 41 16486975068453806079
13673619 4 18343858931277506661
13692114 37 16592508612185882305
13782708 43 18273216421558227851
13955234 65 18261962830360075496
14910302 57 17846500352701619126
15131766 46 17535752893885317393
15183329 4 17530686498337259069
15510800 12 18271529814335791146
1577012 14 16877662336091306037
17349148 13 17095241397602840396
1813 80 17676486190061653724
18222031 100 17821729477162254406
18335252 98 18131345289601423710
19301679 30 17897151636373155390
20028762 73 17530974613602688982
20645477 70 18334583455997396916
21033648 29 18199204918591844625
21033650 10 16343138172430590492
21279426 13 18271251641376125013
21344244 78 17023181660645166914
22033318 11 17751048454307755329
2303208 19 18202845452824329223
23559900 14 17846779637460949006
23569914 152 17330875767836555943
23569943 247 18200028594324201395
345986 75 17531245102068341232
34797466 226 17346590842639801484
3680242 22 18041006158752373950
4073 2 18193272988149091242
46194498 28 17846498098012672252
463206 1 18337116747652092870
5104073 3 17968376844348031824
6669772 16 18339373981020913482
8863177 126 18412540977199877291

> <PUBCHEM_SHAPE_MULTIPOLES>
568.35
17.51
3.17
1.86
18.33
1.44
-0.83
12.86
3.78
-7.7
1.37
3.14
0.01
2.14

> <PUBCHEM_SHAPE_SELFOVERLAP>
1183.499

> <PUBCHEM_SHAPE_VOLUME>
322.9

> <PUBCHEM_COORDINATE_TYPE>
2
5
10

$$$$

