5281460
  -OEChem-07051212572D

 38 39  0     1  0  0  0  0  0999 V2000
    3.5836   -0.7097    0.0000 O   0  0  0  0  0  0  0  0  0  0  0  0
    5.3958    2.0950    0.0000 O   0  0  0  0  0  0  0  0  0  0  0  0
    2.0000    0.0950    0.0000 O   0  0  0  0  0  0  0  0  0  0  0  0
    4.5298    0.5950    0.0000 C   0  0  1  0  0  0  0  0  0  0  0  0
    4.5298   -0.4050    0.0000 C   0  0  1  0  0  0  0  0  0  0  0  0
    5.3958    1.0950    0.0000 C   0  0  1  0  0  0  0  0  0  0  0  0
    6.2619    0.5950    0.0000 C   0  0  0  0  0  0  0  0  0  0  0  0
    3.5836    0.8997    0.0000 C   0  0  0  0  0  0  0  0  0  0  0  0
    5.3958   -0.9050    0.0000 C   0  0  0  0  0  0  0  0  0  0  0  0
    6.2619   -0.4050    0.0000 C   0  0  0  0  0  0  0  0  0  0  0  0
    3.0000    0.0950    0.0000 C   0  0  0  0  0  0  0  0  0  0  0  0
    5.3958   -1.9050    0.0000 C   0  0  0  0  0  0  0  0  0  0  0  0
    6.2619   -2.4050    0.0000 C   0  0  0  0  0  0  0  0  0  0  0  0
    7.1279   -1.9050    0.0000 C   0  0  0  0  0  0  0  0  0  0  0  0
    7.1279   -0.9050    0.0000 C   0  0  0  0  0  0  0  0  0  0  0  0
    3.2729    1.8502    0.0000 C   0  0  0  0  0  0  0  0  0  0  0  0
    4.8053   -0.9351    0.0000 C   0  0  0  0  0  0  0  0  0  0  0  0
    4.5298   -2.4050    0.0000 C   0  0  0  0  0  0  0  0  0  0  0  0
    4.4399    1.4402    0.0000 H   0  0  0  0  0  0  0  0  0  0  0  0
    4.4399   -1.2502    0.0000 H   0  0  0  0  0  0  0  0  0  0  0  0
    5.9328    1.4050    0.0000 H   0  0  0  0  0  0  0  0  0  0  0  0
    6.8725    0.4873    0.0000 H   0  0  0  0  0  0  0  0  0  0  0  0
    6.4739    1.1776    0.0000 H   0  0  0  0  0  0  0  0  0  0  0  0
    6.0064   -1.0127    0.0000 H   0  0  0  0  0  0  0  0  0  0  0  0
    5.8633   -2.8800    0.0000 H   0  0  0  0  0  0  0  0  0  0  0  0
    6.6604   -2.8800    0.0000 H   0  0  0  0  0  0  0  0  0  0  0  0
    7.3400   -2.4876    0.0000 H   0  0  0  0  0  0  0  0  0  0  0  0
    7.7385   -1.7973    0.0000 H   0  0  0  0  0  0  0  0  0  0  0  0
    7.6648   -0.5950    0.0000 H   0  0  0  0  0  0  0  0  0  0  0  0
    5.9328    2.4050    0.0000 H   0  0  0  0  0  0  0  0  0  0  0  0
    3.6870    2.3117    0.0000 H   0  0  0  0  0  0  0  0  0  0  0  0
    2.6663    1.9781    0.0000 H   0  0  0  0  0  0  0  0  0  0  0  0
    4.5933   -0.3525    0.0000 H   0  0  0  0  0  0  0  0  0  0  0  0
    4.2227   -1.1471    0.0000 H   0  0  0  0  0  0  0  0  0  0  0  0
    5.0174   -1.5177    0.0000 H   0  0  0  0  0  0  0  0  0  0  0  0
    4.2198   -1.8681    0.0000 H   0  0  0  0  0  0  0  0  0  0  0  0
    3.9929   -2.7150    0.0000 H   0  0  0  0  0  0  0  0  0  0  0  0
    4.8398   -2.9419    0.0000 H   0  0  0  0  0  0  0  0  0  0  0  0
  1  5  1  0  0  0  0
  1 11  1  0  0  0  0
  6  2  1  6  0  0  0
  2 30  1  0  0  0  0
  3 11  2  0  0  0  0
  4  5  1  0  0  0  0
  4  6  1  0  0  0  0
  4  8  1  0  0  0  0
  4 19  1  1  0  0  0
  5  9  1  0  0  0  0
  5 20  1  6  0  0  0
  6  7  1  0  0  0  0
  6 21  1  0  0  0  0
  7 10  1  0  0  0  0
  7 22  1  0  0  0  0
  7 23  1  0  0  0  0
  8 11  1  0  0  0  0
  8 16  2  0  0  0  0
  9 12  2  0  0  0  0
  9 24  1  0  0  0  0
 10 15  2  0  0  0  0
 10 17  1  0  0  0  0
 12 13  1  0  0  0  0
 12 18  1  0  0  0  0
 13 14  1  0  0  0  0
 13 25  1  0  0  0  0
 13 26  1  0  0  0  0
 14 15  1  0  0  0  0
 14 27  1  0  0  0  0
 14 28  1  0  0  0  0
 15 29  1  0  0  0  0
 16 31  1  0  0  0  0
 16 32  1  0  0  0  0
 17 33  1  0  0  0  0
 17 34  1  0  0  0  0
 17 35  1  0  0  0  0
 18 36  1  0  0  0  0
 18 37  1  0  0  0  0
 18 38  1  0  0  0  0
M  END
> <PUBCHEM_COMPOUND_CID>
5281460

> <PUBCHEM_COMPOUND_CANONICALIZED>
1

> <PUBCHEM_CACTVS_COMPLEXITY>
431

> <PUBCHEM_CACTVS_HBOND_ACCEPTOR>
3

> <PUBCHEM_CACTVS_HBOND_DONOR>
1

> <PUBCHEM_CACTVS_ROTATABLE_BOND>
0

> <PUBCHEM_CACTVS_SUBSKEYS>
AAADceBwMAAAAAAAAAAAAAAAAAAAASAAAAAAAAAAAAAAAACAAAAAGgAACAAADRSggAICCAAABgCIAiDSCAAAAAAgAAAACAEAAEgAFBIAIQACUAAFwAAIIIPKyCCOAAAAAAAAAAAAAAAAAAAAAAAAAAAAAA==

> <PUBCHEM_IUPAC_OPENEYE_NAME>
(3aR,4R,6E,10E,11aR)-4-hydroxy-6,10-dimethyl-3-methylene-3a,4,5,8,9,11a-hexahydrocyclodeca[b]furan-2-one

> <PUBCHEM_IUPAC_CAS_NAME>
(3aR,4R,6E,10E,11aR)-4-hydroxy-6,10-dimethyl-3-methylene-3a,4,5,8,9,11a-hexahydrocyclodeca[b]furan-2-one

> <PUBCHEM_IUPAC_NAME>
(3aR,4R,6E,10E,11aR)-4-hydroxy-6,10-dimethyl-3-methylidene-3a,4,5,8,9,11a-hexahydrocyclodeca[b]furan-2-one

> <PUBCHEM_IUPAC_SYSTEMATIC_NAME>
(3aR,4R,6E,10E,11aR)-6,10-dimethyl-3-methylidene-4-oxidanyl-3a,4,5,8,9,11a-hexahydrocyclodeca[b]furan-2-one

> <PUBCHEM_IUPAC_TRADITIONAL_NAME>
(3aR,4R,6E,10E,11aR)-4-hydroxy-6,10-dimethyl-3-methylene-3a,4,5,8,9,11a-hexahydrocyclodeca[b]furan-2-one

> <PUBCHEM_IUPAC_INCHI>
InChI=1S/C15H20O3/c1-9-5-4-6-10(2)8-13-14(12(16)7-9)11(3)15(17)18-13/h5,8,12-14,16H,3-4,6-7H2,1-2H3/b9-5+,10-8+/t12-,13-,14-/m1/s1

> <PUBCHEM_IUPAC_INCHIKEY>
PDEJECFRCJOMEN-OURLZOILSA-N

> <PUBCHEM_XLOGP3>
1.1

> <PUBCHEM_EXACT_MASS>
248.141245

> <PUBCHEM_MOLECULAR_FORMULA>
C15H20O3

> <PUBCHEM_MOLECULAR_WEIGHT>
248.3175

> <PUBCHEM_OPENEYE_CAN_SMILES>
CC1=CC2C(C(CC(=CCC1)C)O)C(=C)C(=O)O2

> <PUBCHEM_OPENEYE_ISO_SMILES>
C/C/1=C\[C@@H]2[C@@H]([C@@H](C/C(=C/CC1)/C)O)C(=C)C(=O)O2

> <PUBCHEM_CACTVS_TPSA>
46.5

> <PUBCHEM_MONOISOTOPIC_WEIGHT>
248.141245

> <PUBCHEM_TOTAL_CHARGE>
0

> <PUBCHEM_HEAVY_ATOM_COUNT>
18

> <PUBCHEM_ATOM_DEF_STEREO_COUNT>
3

> <PUBCHEM_ATOM_UDEF_STEREO_COUNT>
0

> <PUBCHEM_BOND_DEF_STEREO_COUNT>
2

> <PUBCHEM_BOND_UDEF_STEREO_COUNT>
0

> <PUBCHEM_ISOTOPIC_ATOM_COUNT>
0

> <PUBCHEM_COMPONENT_COUNT>
1

> <PUBCHEM_CACTVS_TAUTO_COUNT>
1

> <PUBCHEM_COORDINATE_TYPE>
1
5
255

> <PUBCHEM_BONDANNOTATIONS>
6  2  6
4  19  5
5  20  6

$$$$

