443324
  -OEChem-07051213022D

114122  0     1  0  0  0  0  0999 V2000
    6.8102   -4.6594    0.0000 O   0  0  0  0  0  0  0  0  0  0  0  0
    8.0777   -2.7047    0.0000 O   0  0  0  0  0  0  0  0  0  0  0  0
    8.8208   -3.3738    0.0000 O   0  0  0  0  0  0  0  0  0  0  0  0
    8.6130   -4.3519    0.0000 O   0  0  0  0  0  0  0  0  0  0  0  0
    8.1801    1.7856    0.0000 O   0  0  0  0  0  0  0  0  0  0  0  0
    8.0974   -5.8184    0.0000 O   0  0  0  0  0  0  0  0  0  0  0  0
    6.5287    0.4726    0.0000 O   0  0  0  0  0  0  0  0  0  0  0  0
    5.2439    0.5176    0.0000 O   0  0  0  0  0  0  0  0  0  0  0  0
    4.3838   -2.4307    0.0000 N   0  0  3  0  0  0  0  0  0  0  0  0
    7.4632   -1.4301    0.0000 N   0  0  3  0  0  0  0  0  0  0  0  0
    4.6681    1.8492    0.0000 N   0  0  0  0  0  0  0  0  0  0  0  0
    6.8864    5.0043    0.0000 N   0  0  3  0  0  0  0  0  0  0  0  0
    5.9235   -1.9304    0.0000 C   0  0  1  0  0  0  0  0  0  0  0  0
    5.2980   -2.6250    0.0000 C   0  0  2  0  0  0  0  0  0  0  0  0
    5.5869   -3.5140    0.0000 C   0  0  1  0  0  0  0  0  0  0  0  0
    6.8378   -2.1248    0.0000 C   0  0  2  0  0  0  0  0  0  0  0  0
    7.1266   -3.0137    0.0000 C   0  0  1  0  0  0  0  0  0  0  0  0
    5.5384   -0.8948    0.0000 C   0  0  0  0  0  0  0  0  0  0  0  0
    6.5012   -3.7083    0.0000 C   0  0  2  0  0  0  0  0  0  0  0  0
    6.2601   -0.3468    0.0000 C   0  0  0  0  0  0  0  0  0  0  0  0
    4.0949   -1.5417    0.0000 C   0  0  0  0  0  0  0  0  0  0  0  0
    5.8959   -4.4650    0.0000 C   0  0  0  0  0  0  0  0  0  0  0  0
    7.1744   -0.5411    0.0000 C   0  0  0  0  0  0  0  0  0  0  0  0
    4.9614   -4.2086    0.0000 C   0  0  0  0  0  0  0  0  0  0  0  0
    3.7583   -3.1253    0.0000 C   0  0  0  0  0  0  0  0  0  0  0  0
    4.0472   -4.0143    0.0000 C   0  0  0  0  0  0  0  0  0  0  0  0
    7.8698   -3.6828    0.0000 C   0  0  0  0  0  0  0  0  0  0  0  0
    5.9713    0.5422    0.0000 C   0  0  0  0  0  0  0  0  0  0  0  0
    8.4143   -1.1211    0.0000 C   0  0  0  0  0  0  0  0  0  0  0  0
    5.2268   -5.2082    0.0000 C   0  0  0  0  0  0  0  0  0  0  0  0
    7.7998    0.1535    0.0000 C   0  0  0  0  0  0  0  0  0  0  0  0
    6.5967    1.2368    0.0000 C   0  0  0  0  0  0  0  0  0  0  0  0
    7.5110    1.0425    0.0000 C   0  0  0  0  0  0  0  0  0  0  0  0
    6.2877    2.1878    0.0000 C   0  0  1  0  0  0  0  0  0  0  0  0
    7.1192   -5.6104    0.0000 C   0  0  0  0  0  0  0  0  0  0  0  0
    7.2388    2.4969    0.0000 C   0  0  0  0  0  0  0  0  0  0  0  0
    5.3605    2.5624    0.0000 C   0  0  0  0  0  0  0  0  0  0  0  0
    5.9131    1.2607    0.0000 C   0  0  0  0  0  0  0  0  0  0  0  0
    6.4501   -6.3536    0.0000 C   0  0  0  0  0  0  0  0  0  0  0  0
    9.5640   -4.0430    0.0000 C   0  0  0  0  0  0  0  0  0  0  0  0
    7.7687    3.3449    0.0000 C   0  0  2  0  0  0  0  0  0  0  0  0
    4.8910    3.4454    0.0000 C   0  0  0  0  0  0  0  0  0  0  0  0
    7.6295    4.3352    0.0000 C   0  0  0  0  0  0  0  0  0  0  0  0
    9.1583    1.5777    0.0000 C   0  0  0  0  0  0  0  0  0  0  0  0
    5.0990    4.4236    0.0000 C   0  0  0  0  0  0  0  0  0  0  0  0
    8.6440    3.8662    0.0000 C   0  0  0  0  0  0  0  0  0  0  0  0
    3.9125    3.2702    0.0000 C   0  0  0  0  0  0  0  0  0  0  0  0
    3.7750    2.2857    0.0000 C   0  0  0  0  0  0  0  0  0  0  0  0
    5.8870    5.0392    0.0000 C   0  0  0  0  0  0  0  0  0  0  0  0
    7.8080    5.4385    0.0000 C   0  0  0  0  0  0  0  0  0  0  0  0
    8.6631    4.8847    0.0000 C   0  0  0  0  0  0  0  0  0  0  0  0
    3.1059    3.9195    0.0000 C   0  0  0  0  0  0  0  0  0  0  0  0
    2.8214    1.8822    0.0000 C   0  0  0  0  0  0  0  0  0  0  0  0
    7.6676    0.6327    0.0000 C   0  0  0  0  0  0  0  0  0  0  0  0
    9.5460    5.3542    0.0000 C   0  0  0  0  0  0  0  0  0  0  0  0
    2.1432    3.5382    0.0000 C   0  0  0  0  0  0  0  0  0  0  0  0
    2.0000    2.5127    0.0000 C   0  0  0  0  0  0  0  0  0  0  0  0
    9.5809    6.3536    0.0000 C   0  0  0  0  0  0  0  0  0  0  0  0
    5.0354   -1.8166    0.0000 H   0  0  0  0  0  0  0  0  0  0  0  0
    7.6692   -2.3015    0.0000 H   0  0  0  0  0  0  0  0  0  0  0  0
    6.1147   -0.6661    0.0000 H   0  0  0  0  0  0  0  0  0  0  0  0
    5.2972   -0.3236    0.0000 H   0  0  0  0  0  0  0  0  0  0  0  0
    7.1076   -3.8372    0.0000 H   0  0  0  0  0  0  0  0  0  0  0  0
    3.8617   -0.9673    0.0000 H   0  0  0  0  0  0  0  0  0  0  0  0
    3.5125   -1.7543    0.0000 H   0  0  0  0  0  0  0  0  0  0  0  0
    6.2776   -4.9536    0.0000 H   0  0  0  0  0  0  0  0  0  0  0  0
    6.4433   -4.1740    0.0000 H   0  0  0  0  0  0  0  0  0  0  0  0
    5.1530   -4.7983    0.0000 H   0  0  0  0  0  0  0  0  0  0  0  0
    3.3766   -2.6368    0.0000 H   0  0  0  0  0  0  0  0  0  0  0  0
    3.2109   -3.4164    0.0000 H   0  0  0  0  0  0  0  0  0  0  0  0
    3.6323   -4.4750    0.0000 H   0  0  0  0  0  0  0  0  0  0  0  0
    5.3648    0.6711    0.0000 H   0  0  0  0  0  0  0  0  0  0  0  0
    8.4925   -2.2439    0.0000 H   0  0  0  0  0  0  0  0  0  0  0  0
    8.6059   -1.7108    0.0000 H   0  0  0  0  0  0  0  0  0  0  0  0
    9.0039   -0.9295    0.0000 H   0  0  0  0  0  0  0  0  0  0  0  0
    8.2227   -0.5314    0.0000 H   0  0  0  0  0  0  0  0  0  0  0  0
    4.7660   -4.7933    0.0000 H   0  0  0  0  0  0  0  0  0  0  0  0
    4.8119   -5.6690    0.0000 H   0  0  0  0  0  0  0  0  0  0  0  0
    5.6875   -5.6231    0.0000 H   0  0  0  0  0  0  0  0  0  0  0  0
    8.4063    0.0246    0.0000 H   0  0  0  0  0  0  0  0  0  0  0  0
    7.2532    1.8770    0.0000 H   0  0  0  0  0  0  0  0  0  0  0  0
    7.8367    2.3329    0.0000 H   0  0  0  0  0  0  0  0  0  0  0  0
    5.9894   -5.9387    0.0000 H   0  0  0  0  0  0  0  0  0  0  0  0
    6.0352   -6.8144    0.0000 H   0  0  0  0  0  0  0  0  0  0  0  0
    6.9108   -6.7685    0.0000 H   0  0  0  0  0  0  0  0  0  0  0  0
    9.1491   -4.5037    0.0000 H   0  0  0  0  0  0  0  0  0  0  0  0
   10.0247   -4.4578    0.0000 H   0  0  0  0  0  0  0  0  0  0  0  0
    9.9788   -3.5822    0.0000 H   0  0  0  0  0  0  0  0  0  0  0  0
    8.3633    2.7375    0.0000 H   0  0  0  0  0  0  0  0  0  0  0  0
    4.3572    1.3128    0.0000 H   0  0  0  0  0  0  0  0  0  0  0  0
    8.2424    4.2418    0.0000 H   0  0  0  0  0  0  0  0  0  0  0  0
    7.8948    4.8956    0.0000 H   0  0  0  0  0  0  0  0  0  0  0  0
    9.0294    0.9712    0.0000 H   0  0  0  0  0  0  0  0  0  0  0  0
    9.7647    1.4488    0.0000 H   0  0  0  0  0  0  0  0  0  0  0  0
    9.2872    2.1841    0.0000 H   0  0  0  0  0  0  0  0  0  0  0  0
    4.8734    5.0011    0.0000 H   0  0  0  0  0  0  0  0  0  0  0  0
    4.4810    4.3731    0.0000 H   0  0  0  0  0  0  0  0  0  0  0  0
    9.1801    3.5548    0.0000 H   0  0  0  0  0  0  0  0  0  0  0  0
    6.0854    5.6266    0.0000 H   0  0  0  0  0  0  0  0  0  0  0  0
    5.3812    5.3978    0.0000 H   0  0  0  0  0  0  0  0  0  0  0  0
    8.2351    5.8879    0.0000 H   0  0  0  0  0  0  0  0  0  0  0  0
    7.4449    5.9411    0.0000 H   0  0  0  0  0  0  0  0  0  0  0  0
    3.1988    4.5325    0.0000 H   0  0  0  0  0  0  0  0  0  0  0  0
    2.7427    1.2672    0.0000 H   0  0  0  0  0  0  0  0  0  0  0  0
    7.7538    0.0187    0.0000 H   0  0  0  0  0  0  0  0  0  0  0  0
    8.2815    0.7190    0.0000 H   0  0  0  0  0  0  0  0  0  0  0  0
    7.5813    1.2467    0.0000 H   0  0  0  0  0  0  0  0  0  0  0  0
    9.7376    4.7646    0.0000 H   0  0  0  0  0  0  0  0  0  0  0  0
   10.1600    5.4405    0.0000 H   0  0  0  0  0  0  0  0  0  0  0  0
    1.6558    3.9214    0.0000 H   0  0  0  0  0  0  0  0  0  0  0  0
    1.4262    2.2778    0.0000 H   0  0  0  0  0  0  0  0  0  0  0  0
   10.2005    6.3320    0.0000 H   0  0  0  0  0  0  0  0  0  0  0  0
    9.6026    6.9732    0.0000 H   0  0  0  0  0  0  0  0  0  0  0  0
    8.9613    6.3752    0.0000 H   0  0  0  0  0  0  0  0  0  0  0  0
 19  1  1  6  0  0  0
  1 35  1  0  0  0  0
 17  2  1  6  0  0  0
  2 73  1  0  0  0  0
  3 27  1  0  0  0  0
  3 40  1  0  0  0  0
  4 27  2  0  0  0  0
  5 33  1  0  0  0  0
  5 44  1  0  0  0  0
  6 35  2  0  0  0  0
  7 38  1  0  0  0  0
  7 54  1  0  0  0  0
  8 38  2  0  0  0  0
  9 14  1  0  0  0  0
  9 21  1  0  0  0  0
  9 25  1  0  0  0  0
 10 16  1  0  0  0  0
 10 23  1  0  0  0  0
 10 29  1  0  0  0  0
 11 37  1  0  0  0  0
 11 48  1  0  0  0  0
 11 90  1  0  0  0  0
 12 43  1  0  0  0  0
 12 49  1  0  0  0  0
 12 50  1  0  0  0  0
 13 14  1  0  0  0  0
 13 16  1  0  0  0  0
 13 18  1  6  0  0  0
 13 20  1  0  0  0  0
 14 15  1  0  0  0  0
 14 59  1  1  0  0  0
 15 19  1  0  0  0  0
 15 22  1  1  0  0  0
 15 24  1  0  0  0  0
 16 17  1  0  0  0  0
 16 60  1  6  0  0  0
 17 19  1  0  0  0  0
 17 27  1  0  0  0  0
 18 21  1  0  0  0  0
 18 61  1  0  0  0  0
 18 62  1  0  0  0  0
 19 63  1  0  0  0  0
 20 23  1  0  0  0  0
 20 28  2  0  0  0  0
 21 64  1  0  0  0  0
 21 65  1  0  0  0  0
 22 30  1  0  0  0  0
 22 66  1  0  0  0  0
 22 67  1  0  0  0  0
 23 31  2  0  0  0  0
 24 26  2  0  0  0  0
 24 68  1  0  0  0  0
 25 26  1  0  0  0  0
 25 69  1  0  0  0  0
 25 70  1  0  0  0  0
 26 71  1  0  0  0  0
 28 32  1  0  0  0  0
 28 72  1  0  0  0  0
 29 74  1  0  0  0  0
 29 75  1  0  0  0  0
 29 76  1  0  0  0  0
 30 77  1  0  0  0  0
 30 78  1  0  0  0  0
 30 79  1  0  0  0  0
 31 33  1  0  0  0  0
 31 80  1  0  0  0  0
 32 33  2  0  0  0  0
 32 34  1  0  0  0  0
 34 36  1  0  0  0  0
 34 37  1  0  0  0  0
 34 38  1  1  0  0  0
 35 39  1  0  0  0  0
 36 41  1  0  0  0  0
 36 81  1  0  0  0  0
 36 82  1  0  0  0  0
 37 42  2  0  0  0  0
 39 83  1  0  0  0  0
 39 84  1  0  0  0  0
 39 85  1  0  0  0  0
 40 86  1  0  0  0  0
 40 87  1  0  0  0  0
 40 88  1  0  0  0  0
 41 43  1  0  0  0  0
 41 46  1  0  0  0  0
 41 89  1  1  0  0  0
 42 45  1  0  0  0  0
 42 47  1  0  0  0  0
 43 91  1  0  0  0  0
 43 92  1  0  0  0  0
 44 93  1  0  0  0  0
 44 94  1  0  0  0  0
 44 95  1  0  0  0  0
 45 49  1  0  0  0  0
 45 96  1  0  0  0  0
 45 97  1  0  0  0  0
 46 51  2  0  0  0  0
 46 98  1  0  0  0  0
 47 48  1  0  0  0  0
 47 52  2  0  0  0  0
 48 53  2  0  0  0  0
 49 99  1  0  0  0  0
 49100  1  0  0  0  0
 50 51  1  0  0  0  0
 50101  1  0  0  0  0
 50102  1  0  0  0  0
 51 55  1  0  0  0  0
 52 56  1  0  0  0  0
 52103  1  0  0  0  0
 53 57  1  0  0  0  0
 53104  1  0  0  0  0
 54105  1  0  0  0  0
 54106  1  0  0  0  0
 54107  1  0  0  0  0
 55 58  1  0  0  0  0
 55108  1  0  0  0  0
 55109  1  0  0  0  0
 56 57  2  0  0  0  0
 56110  1  0  0  0  0
 57111  1  0  0  0  0
 58112  1  0  0  0  0
 58113  1  0  0  0  0
 58114  1  0  0  0  0
M  END
> <PUBCHEM_COMPOUND_CID>
443324

> <PUBCHEM_COMPOUND_CANONICALIZED>
1

> <PUBCHEM_CACTVS_COMPLEXITY>
1710

> <PUBCHEM_CACTVS_HBOND_ACCEPTOR>
11

> <PUBCHEM_CACTVS_HBOND_DONOR>
2

> <PUBCHEM_CACTVS_ROTATABLE_BOND>
10

> <PUBCHEM_CACTVS_SUBSKEYS>
AAADcfB/vAAAAAAAAAAAAAAAAAAAAWLFgAAwYMECAAAAAFiB9AAAHgAQCAAAD3zhngYyzvPJlgCoAyTyTAKCiCAhIiAImSF+bJgPJv7E9ZuGcChn8Bnb6Af62fOfqAACAgAKAABQgAYECBSgAAAAAAAAAA==

> <PUBCHEM_IUPAC_INCHI>
InChI=1S/C46H56N4O8/c1-8-28-21-29-24-45(41(52)56-6,37-31(15-19-49(25-28)26-29)30-13-10-11-14-34(30)47-37)33-22-32-35(23-36(33)55-5)48(4)39-44(32)17-20-50-18-12-16-43(9-2,38(44)50)40(58-27(3)51)46(39,54)42(53)57-7/h10-14,16,21-23,29,38-40,47,54H,8-9,15,17-20,24-26H2,1-7H3/t29-,38+,39-,40-,43-,44-,45+,46+/m1/s1

> <PUBCHEM_IUPAC_INCHIKEY>
FFRFGVHNKJYNOV-DOVUUNBWSA-N

> <PUBCHEM_XLOGP3>
4

> <PUBCHEM_EXACT_MASS>
792.409815

> <PUBCHEM_MOLECULAR_FORMULA>
C46H56N4O8

> <PUBCHEM_MOLECULAR_WEIGHT>
792.95884

> <PUBCHEM_OPENEYE_CAN_SMILES>
CCC1=CC2CC(C3=C(CCN(C2)C1)C4=CC=CC=C4N3)(C5=C(C=C6C(=C5)C78CCN9C7C(C=CC9)(C(C(C8N6C)(C(=O)OC)O)OC(=O)C)CC)OC)C(=O)OC

> <PUBCHEM_OPENEYE_ISO_SMILES>
CCC1=C[C@@H]2C[C@@](C3=C(CCN(C2)C1)C4=CC=CC=C4N3)(C5=C(C=C6C(=C5)[C@]78CCN9[C@H]7[C@@](C=CC9)([C@H]([C@@]([C@@H]8N6C)(C(=O)OC)O)OC(=O)C)CC)OC)C(=O)OC

> <PUBCHEM_CACTVS_TPSA>
134

> <PUBCHEM_MONOISOTOPIC_WEIGHT>
792.409815

> <PUBCHEM_TOTAL_CHARGE>
0

> <PUBCHEM_HEAVY_ATOM_COUNT>
58

> <PUBCHEM_ATOM_DEF_STEREO_COUNT>
8

> <PUBCHEM_ATOM_UDEF_STEREO_COUNT>
0

> <PUBCHEM_BOND_DEF_STEREO_COUNT>
0

> <PUBCHEM_BOND_UDEF_STEREO_COUNT>
0

> <PUBCHEM_ISOTOPIC_ATOM_COUNT>
0

> <PUBCHEM_COMPONENT_COUNT>
1

> <PUBCHEM_CACTVS_TAUTO_COUNT>
1

> <PUBCHEM_COORDINATE_TYPE>
1
5
255

> <PUBCHEM_BONDANNOTATIONS>
19  1  6
11  37  8
11  48  8
13  18  6
14  59  5
15  22  5
16  60  6
17  2  6
20  23  8
20  28  8
23  31  8
28  32  8
31  33  8
32  33  8
34  38  5
37  42  8
41  89  5
42  47  8
47  48  8
47  52  8
48  53  8
52  56  8
53  57  8
56  57  8

$$$$

