10357552
  -OEChem-07051213152D

 47 46  0     0  0  0  0  0  0999 V2000
    3.4030   -0.2015    0.0000 P   0  0  0  0  0  0  0  0  0  0  0  0
    4.2690    0.2985    0.0000 O   0  0  0  0  0  0  0  0  0  0  0  0
    2.5369   -0.7015    0.0000 O   0  0  0  0  0  0  0  0  0  0  0  0
    2.9030    0.6645    0.0000 O   0  0  0  0  0  0  0  0  0  0  0  0
    3.9030   -1.0675    0.0000 O   0  0  0  0  0  0  0  0  0  0  0  0
    8.5991   -0.2015    0.0000 C   0  0  0  0  0  0  0  0  0  0  0  0
   11.1972    0.2985    0.0000 C   0  0  0  0  0  0  0  0  0  0  0  0
    7.7331    0.2985    0.0000 C   0  0  0  0  0  0  0  0  0  0  0  0
   10.3312   -0.2015    0.0000 C   0  0  0  0  0  0  0  0  0  0  0  0
    9.4651    0.2985    0.0000 C   0  0  0  0  0  0  0  0  0  0  0  0
   12.0632   -0.2015    0.0000 C   0  0  0  0  0  0  0  0  0  0  0  0
    6.8671   -0.2015    0.0000 C   0  0  0  0  0  0  0  0  0  0  0  0
   10.3312   -1.2015    0.0000 C   0  0  0  0  0  0  0  0  0  0  0  0
   12.9292    0.2985    0.0000 C   0  0  0  0  0  0  0  0  0  0  0  0
    6.0010    0.2985    0.0000 C   0  0  0  0  0  0  0  0  0  0  0  0
    6.8671   -1.2015    0.0000 C   0  0  0  0  0  0  0  0  0  0  0  0
   13.7953   -0.2015    0.0000 C   0  0  0  0  0  0  0  0  0  0  0  0
    5.1350   -0.2015    0.0000 C   0  0  0  0  0  0  0  0  0  0  0  0
   14.6613    0.2985    0.0000 C   0  0  0  0  0  0  0  0  0  0  0  0
   13.7953   -1.2015    0.0000 C   0  0  0  0  0  0  0  0  0  0  0  0
    8.2006   -0.6764    0.0000 H   0  0  0  0  0  0  0  0  0  0  0  0
    8.9976   -0.6764    0.0000 H   0  0  0  0  0  0  0  0  0  0  0  0
   11.5957    0.7735    0.0000 H   0  0  0  0  0  0  0  0  0  0  0  0
   10.7987    0.7735    0.0000 H   0  0  0  0  0  0  0  0  0  0  0  0
    8.1316    0.7735    0.0000 H   0  0  0  0  0  0  0  0  0  0  0  0
    7.3346    0.7735    0.0000 H   0  0  0  0  0  0  0  0  0  0  0  0
    9.4651    0.9185    0.0000 H   0  0  0  0  0  0  0  0  0  0  0  0
   11.6647   -0.6764    0.0000 H   0  0  0  0  0  0  0  0  0  0  0  0
   12.4617   -0.6764    0.0000 H   0  0  0  0  0  0  0  0  0  0  0  0
    9.7112   -1.2015    0.0000 H   0  0  0  0  0  0  0  0  0  0  0  0
   10.3312   -1.8215    0.0000 H   0  0  0  0  0  0  0  0  0  0  0  0
   10.9512   -1.2015    0.0000 H   0  0  0  0  0  0  0  0  0  0  0  0
   12.9292    0.9185    0.0000 H   0  0  0  0  0  0  0  0  0  0  0  0
    6.0010    0.9185    0.0000 H   0  0  0  0  0  0  0  0  0  0  0  0
    6.2471   -1.2015    0.0000 H   0  0  0  0  0  0  0  0  0  0  0  0
    6.8671   -1.8215    0.0000 H   0  0  0  0  0  0  0  0  0  0  0  0
    7.4871   -1.2015    0.0000 H   0  0  0  0  0  0  0  0  0  0  0  0
    4.7365   -0.6764    0.0000 H   0  0  0  0  0  0  0  0  0  0  0  0
    5.5335   -0.6764    0.0000 H   0  0  0  0  0  0  0  0  0  0  0  0
   14.9713   -0.2384    0.0000 H   0  0  0  0  0  0  0  0  0  0  0  0
   15.1982    0.6085    0.0000 H   0  0  0  0  0  0  0  0  0  0  0  0
   14.3513    0.8355    0.0000 H   0  0  0  0  0  0  0  0  0  0  0  0
   13.1753   -1.2015    0.0000 H   0  0  0  0  0  0  0  0  0  0  0  0
   13.7953   -1.8215    0.0000 H   0  0  0  0  0  0  0  0  0  0  0  0
   14.4153   -1.2015    0.0000 H   0  0  0  0  0  0  0  0  0  0  0  0
    2.0000   -0.3915    0.0000 H   0  0  0  0  0  0  0  0  0  0  0  0
    3.2130    1.2015    0.0000 H   0  0  0  0  0  0  0  0  0  0  0  0
  1  2  1  0  0  0  0
  1  3  1  0  0  0  0
  1  4  1  0  0  0  0
  1  5  2  0  0  0  0
  2 18  1  0  0  0  0
  3 46  1  0  0  0  0
  4 47  1  0  0  0  0
  6  8  1  0  0  0  0
  6 10  1  0  0  0  0
  6 21  1  0  0  0  0
  6 22  1  0  0  0  0
  7  9  1  0  0  0  0
  7 11  1  0  0  0  0
  7 23  1  0  0  0  0
  7 24  1  0  0  0  0
  8 12  1  0  0  0  0
  8 25  1  0  0  0  0
  8 26  1  0  0  0  0
  9 10  2  0  0  0  0
  9 13  1  0  0  0  0
 10 27  1  0  0  0  0
 11 14  1  0  0  0  0
 11 28  1  0  0  0  0
 11 29  1  0  0  0  0
 12 15  2  0  0  0  0
 12 16  1  0  0  0  0
 13 30  1  0  0  0  0
 13 31  1  0  0  0  0
 13 32  1  0  0  0  0
 14 17  2  0  0  0  0
 14 33  1  0  0  0  0
 15 18  1  0  0  0  0
 15 34  1  0  0  0  0
 16 35  1  0  0  0  0
 16 36  1  0  0  0  0
 16 37  1  0  0  0  0
 17 19  1  0  0  0  0
 17 20  1  0  0  0  0
 18 38  1  0  0  0  0
 18 39  1  0  0  0  0
 19 40  1  0  0  0  0
 19 41  1  0  0  0  0
 19 42  1  0  0  0  0
 20 43  1  0  0  0  0
 20 44  1  0  0  0  0
 20 45  1  0  0  0  0
M  END
> <PUBCHEM_COMPOUND_CID>
10357552

> <PUBCHEM_COMPOUND_CANONICALIZED>
1

> <PUBCHEM_CACTVS_COMPLEXITY>
412

> <PUBCHEM_CACTVS_HBOND_ACCEPTOR>
4

> <PUBCHEM_CACTVS_HBOND_DONOR>
2

> <PUBCHEM_CACTVS_ROTATABLE_BOND>
9

> <PUBCHEM_CACTVS_SUBSKEYS>
AAADceBwOAIAAAAAAAAAAAAAAAAAAAAAAAAAAAAAAAAAAAAAAAAAGgAACCAADACggAICAAAAARCAQiBCAIAAAAAgAAAACAAAAAgABAIAAQAAEAAAgAAIAAIAAAAAAAAAAAAAAAAAAAAAAAAAAAAAAAAAAA==

> <PUBCHEM_IUPAC_OPENEYE_NAME>
[(2E,6E)-3,7,11-trimethyldodeca-2,6,10-trienyl] dihydrogen phosphate

> <PUBCHEM_IUPAC_CAS_NAME>
[(2E,6E)-3,7,11-trimethyldodeca-2,6,10-trienyl] dihydrogen phosphate

> <PUBCHEM_IUPAC_NAME>
[(2E,6E)-3,7,11-trimethyldodeca-2,6,10-trienyl] dihydrogen phosphate

> <PUBCHEM_IUPAC_SYSTEMATIC_NAME>
[(2E,6E)-3,7,11-trimethyldodeca-2,6,10-trienyl] dihydrogen phosphate

> <PUBCHEM_IUPAC_TRADITIONAL_NAME>
[(2E,6E)-3,7,11-trimethyldodeca-2,6,10-trienyl] dihydrogen phosphate

> <PUBCHEM_IUPAC_INCHI>
InChI=1S/C15H27O4P/c1-13(2)7-5-8-14(3)9-6-10-15(4)11-12-19-20(16,17)18/h7,9,11H,5-6,8,10,12H2,1-4H3,(H2,16,17,18)/b14-9+,15-11+

> <PUBCHEM_IUPAC_INCHIKEY>
ALEWCKXBHSDCCT-YFVJMOTDSA-N

> <PUBCHEM_XLOGP3_AA>
3.7

> <PUBCHEM_EXACT_MASS>
302.164696

> <PUBCHEM_MOLECULAR_FORMULA>
C15H27O4P

> <PUBCHEM_MOLECULAR_WEIGHT>
302.346242

> <PUBCHEM_OPENEYE_CAN_SMILES>
CC(=CCCC(=CCCC(=CCOP(=O)(O)O)C)C)C

> <PUBCHEM_OPENEYE_ISO_SMILES>
CC(=CCC/C(=C/CC/C(=C/COP(=O)(O)O)/C)/C)C

> <PUBCHEM_CACTVS_TPSA>
66.8

> <PUBCHEM_MONOISOTOPIC_WEIGHT>
302.164696

> <PUBCHEM_TOTAL_CHARGE>
0

> <PUBCHEM_HEAVY_ATOM_COUNT>
20

> <PUBCHEM_ATOM_DEF_STEREO_COUNT>
0

> <PUBCHEM_ATOM_UDEF_STEREO_COUNT>
0

> <PUBCHEM_BOND_DEF_STEREO_COUNT>
2

> <PUBCHEM_BOND_UDEF_STEREO_COUNT>
0

> <PUBCHEM_ISOTOPIC_ATOM_COUNT>
0

> <PUBCHEM_COMPONENT_COUNT>
1

> <PUBCHEM_CACTVS_TAUTO_COUNT>
1

> <PUBCHEM_COORDINATE_TYPE>
1
5
255

$$$$

