11912
  -OEChem-06261206163D

 45 47  0     0  0  0  0  0  0999 V2000
   -2.9813   -1.1163    0.9521 O   0  0  0  0  0  0  0  0  0  0  0  0
    1.5381    0.1593    0.2535 O   0  0  0  0  0  0  0  0  0  0  0  0
    2.6257   -3.6530   -0.6860 O   0  0  0  0  0  0  0  0  0  0  0  0
   -6.8480    1.5484   -0.2534 N   0  0  0  0  0  0  0  0  0  0  0  0
   -4.8953    0.1944    0.3380 C   0  0  0  0  0  0  0  0  0  0  0  0
   -5.4128    1.5888   -0.0001 C   0  0  0  0  0  0  0  0  0  0  0  0
   -3.4009    0.2085    0.6295 C   0  0  0  0  0  0  0  0  0  0  0  0
    0.9024   -2.1648   -0.0536 C   0  0  0  0  0  0  0  0  0  0  0  0
    0.5991   -0.8408    0.2592 C   0  0  0  0  0  0  0  0  0  0  0  0
   -1.7059   -1.4596    0.6220 C   0  0  0  0  0  0  0  0  0  0  0  0
   -0.7069   -0.4861    0.5981 C   0  0  0  0  0  0  0  0  0  0  0  0
   -0.0949   -3.1426   -0.0306 C   0  0  0  0  0  0  0  0  0  0  0  0
    2.8433   -0.1621   -0.0866 C   0  0  0  0  0  0  0  0  0  0  0  0
   -1.4003   -2.7848    0.3083 C   0  0  0  0  0  0  0  0  0  0  0  0
   -7.1455    0.6843   -1.3972 C   0  0  0  0  0  0  0  0  0  0  0  0
   -7.3687    2.8965   -0.4869 C   0  0  0  0  0  0  0  0  0  0  0  0
    2.2879   -2.5113   -0.4054 C   0  0  0  0  0  0  0  0  0  0  0  0
    3.2598   -1.3992   -0.4004 C   0  0  0  0  0  0  0  0  0  0  0  0
    3.7714    0.9860   -0.0558 C   0  0  0  0  0  0  0  0  0  0  0  0
    4.8859    1.0104   -0.8981 C   0  0  0  0  0  0  0  0  0  0  0  0
    3.5395    2.0532    0.8156 C   0  0  0  0  0  0  0  0  0  0  0  0
    5.7629    2.0947   -0.8690 C   0  0  0  0  0  0  0  0  0  0  0  0
    4.4164    3.1376    0.8446 C   0  0  0  0  0  0  0  0  0  0  0  0
    5.5280    3.1583    0.0023 C   0  0  0  0  0  0  0  0  0  0  0  0
   -5.4307   -0.2183    1.2028 H   0  0  0  0  0  0  0  0  0  0  0  0
   -5.0477   -0.5156   -0.4823 H   0  0  0  0  0  0  0  0  0  0  0  0
   -4.8667    1.9957   -0.8613 H   0  0  0  0  0  0  0  0  0  0  0  0
   -5.2090    2.2491    0.8526 H   0  0  0  0  0  0  0  0  0  0  0  0
   -3.1868    0.8652    1.4806 H   0  0  0  0  0  0  0  0  0  0  0  0
   -2.8898    0.5902   -0.2641 H   0  0  0  0  0  0  0  0  0  0  0  0
   -0.9048    0.5482    0.8653 H   0  0  0  0  0  0  0  0  0  0  0  0
    0.1241   -4.1788   -0.2716 H   0  0  0  0  0  0  0  0  0  0  0  0
   -2.1773   -3.5444    0.3264 H   0  0  0  0  0  0  0  0  0  0  0  0
   -7.0128   -0.3746   -1.1565 H   0  0  0  0  0  0  0  0  0  0  0  0
   -6.5445    0.9338   -2.2792 H   0  0  0  0  0  0  0  0  0  0  0  0
   -8.2016    0.7769   -1.6794 H   0  0  0  0  0  0  0  0  0  0  0  0
   -8.4559    2.8724   -0.6214 H   0  0  0  0  0  0  0  0  0  0  0  0
   -6.9210    3.3652   -1.3709 H   0  0  0  0  0  0  0  0  0  0  0  0
   -7.1763    3.5393    0.3795 H   0  0  0  0  0  0  0  0  0  0  0  0
    4.2858   -1.6535   -0.6389 H   0  0  0  0  0  0  0  0  0  0  0  0
    5.0920    0.2127   -1.6068 H   0  0  0  0  0  0  0  0  0  0  0  0
    2.6862    2.0604    1.4894 H   0  0  0  0  0  0  0  0  0  0  0  0
    6.6258    2.1138   -1.5283 H   0  0  0  0  0  0  0  0  0  0  0  0
    4.2349    3.9652    1.5241 H   0  0  0  0  0  0  0  0  0  0  0  0
    6.2103    4.0030    0.0243 H   0  0  0  0  0  0  0  0  0  0  0  0
  1  7  1  0  0  0  0
  1 10  1  0  0  0  0
  2  9  1  0  0  0  0
  2 13  1  0  0  0  0
  3 17  2  0  0  0  0
  4  6  1  0  0  0  0
  4 15  1  0  0  0  0
  4 16  1  0  0  0  0
  5  6  1  0  0  0  0
  5  7  1  0  0  0  0
  5 25  1  0  0  0  0
  5 26  1  0  0  0  0
  6 27  1  0  0  0  0
  6 28  1  0  0  0  0
  7 29  1  0  0  0  0
  7 30  1  0  0  0  0
  8  9  2  0  0  0  0
  8 12  1  0  0  0  0
  8 17  1  0  0  0  0
  9 11  1  0  0  0  0
 10 11  2  0  0  0  0
 10 14  1  0  0  0  0
 11 31  1  0  0  0  0
 12 14  2  0  0  0  0
 12 32  1  0  0  0  0
 13 18  2  0  0  0  0
 13 19  1  0  0  0  0
 14 33  1  0  0  0  0
 15 34  1  0  0  0  0
 15 35  1  0  0  0  0
 15 36  1  0  0  0  0
 16 37  1  0  0  0  0
 16 38  1  0  0  0  0
 16 39  1  0  0  0  0
 17 18  1  0  0  0  0
 18 40  1  0  0  0  0
 19 20  2  0  0  0  0
 19 21  1  0  0  0  0
 20 22  1  0  0  0  0
 20 41  1  0  0  0  0
 21 23  2  0  0  0  0
 21 42  1  0  0  0  0
 22 24  2  0  0  0  0
 22 43  1  0  0  0  0
 23 24  1  0  0  0  0
 23 44  1  0  0  0  0
 24 45  1  0  0  0  0
M  END
> <PUBCHEM_COMPOUND_CID>
11912

> <PUBCHEM_CONFORMER_RMSD>
0.8

> <PUBCHEM_CONFORMER_DIVERSEORDER>
8
31
22
24
7
32
36
5
28
27
30
49
4
33
9
25
6
46
26
14
3
1
13
21
38
35
37
16
47
44
40
29
11
43
34
19
45
48
41
18
2
39
23
12
42
20
10
17
15

> <PUBCHEM_MMFF94_PARTIAL_CHARGES>
32
1 -0.36
10 0.08
11 -0.15
12 -0.15
13 0.05
14 -0.15
15 0.27
16 0.27
17 0.47
18 -0.14
19 0.03
2 -0.16
20 -0.15
21 -0.15
22 -0.15
23 -0.15
24 -0.15
3 -0.57
31 0.15
32 0.15
33 0.15
4 -0.81
40 0.15
41 0.15
42 0.15
43 0.15
44 0.15
45 0.15
6 0.27
7 0.28
8 0.09
9 0.08

> <PUBCHEM_EFFECTIVE_ROTOR_COUNT>
6

> <PUBCHEM_PHARMACOPHORE_FEATURES>
7
1 1 acceptor
1 2 acceptor
1 3 acceptor
1 4 cation
6 19 20 21 22 23 24 rings
6 2 8 9 13 17 18 rings
6 8 9 10 11 12 14 rings

> <PUBCHEM_HEAVY_ATOM_COUNT>
24

> <PUBCHEM_ATOM_DEF_STEREO_COUNT>
0

> <PUBCHEM_ATOM_UDEF_STEREO_COUNT>
0

> <PUBCHEM_BOND_DEF_STEREO_COUNT>
0

> <PUBCHEM_BOND_UDEF_STEREO_COUNT>
0

> <PUBCHEM_ISOTOPIC_ATOM_COUNT>
0

> <PUBCHEM_COMPONENT_COUNT>
1

> <PUBCHEM_CACTVS_TAUTO_COUNT>
1

> <PUBCHEM_CONFORMER_ID>
00002E8800000008

> <PUBCHEM_MMFF94_ENERGY>
75.1821

> <PUBCHEM_FEATURE_SELFOVERLAP>
35.548

> <PUBCHEM_SHAPE_FINGERPRINT>
10050765 1 18411136918195146043
10411042 1 17761490696615462662
10675989 125 18338513165619464609
11297010 23 18260263062666123614
11408170 253 17608087895772064537
12403259 118 17702094773043342073
12403259 415 18342161281330258483
12769317 202 18261111859350807368
12821665 9 18409173182818217775
13540713 4 18270098172375500755
13878862 14 18341346577019576316
14251764 30 8790890683437452965
14528608 73 18335986454314537191
14848178 96 18334571334871895560
14931854 50 18040705970455688584
15198563 99 17540818295918531191
15510800 12 6843913992852838925
16120349 189 18267867185898972140
17980427 26 18200327605225190507
18335252 114 18335702780193258454
20157964 124 18408603695143784811
20554085 129 17968393264366310914
20715895 44 18410575067926763392
21033648 29 17774992514978245651
21049683 118 17703794738764857123
21279426 13 18115850938058201932
23559900 14 18262232326404257722
270888 7 18413108333836996161
2748736 6 18341338829394978637
2838139 119 18410015398905901591
335352 9 18409725201774266414
3862424 121 14419278508838280405
44555599 121 17970905799034778793
465052 167 10087920782886180440
5104073 3 18272363157416564203
5312510 48 18336546114112494041
6201460 15 5903283895245487316
6327066 14 18340206288977917284
7970288 3 9222690872470263724

> <PUBCHEM_SHAPE_MULTIPOLES>
471.32
17.33
4.43
0.95
28.24
0.89
-0.08
-22.8
-4.85
-2.97
-0.2
0.19
-0.19
1.57

> <PUBCHEM_SHAPE_SELFOVERLAP>
1011.077

> <PUBCHEM_SHAPE_VOLUME>
261.4

> <PUBCHEM_COORDINATE_TYPE>
2
5
10

$$$$

