189045
  -OEChem-07051213103D

 84 88  0     1  0  0  0  0  0999 V2000
    7.0183   -0.2407   -0.4150 O   0  0  0  0  0  0  0  0  0  0  0  0
   -1.6811   -0.8466    0.1897 C   0  0  1  0  0  0  0  0  0  0  0  0
   -1.0977    0.5740   -0.2453 C   0  0  2  0  0  0  0  0  0  0  0  0
   -3.1707   -0.9194   -0.2399 C   0  0  2  0  0  0  0  0  0  0  0  0
   -4.0988    0.2095    0.2857 C   0  0  2  0  0  0  0  0  0  0  0  0
    0.3833    0.6879    0.3140 C   0  0  1  0  0  0  0  0  0  0  0  0
   -2.0202    1.7147    0.2978 C   0  0  0  0  0  0  0  0  0  0  0  0
   -5.3894   -0.1931   -0.4853 C   0  0  1  0  0  0  0  0  0  0  0  0
   -3.5056    1.5720   -0.1119 C   0  0  0  0  0  0  0  0  0  0  0  0
   -3.9964   -2.1918   -0.0457 C   0  0  0  0  0  0  0  0  0  0  0  0
   -0.8464   -1.9293   -0.5438 C   0  0  0  0  0  0  0  0  0  0  0  0
    2.7407   -0.4963    0.4165 C   0  0  2  0  0  0  0  0  0  0  0  0
    1.2282   -0.5777    0.0410 C   0  0  0  0  0  0  0  0  0  0  0  0
   -5.4425   -1.7331   -0.3273 C   0  0  0  0  0  0  0  0  0  0  0  0
    3.3455    0.8257   -0.1827 C   0  0  1  0  0  0  0  0  0  0  0  0
    1.1003    1.9639   -0.1720 C   0  0  0  0  0  0  0  0  0  0  0  0
   -1.5251   -1.1182    1.7167 C   0  0  0  0  0  0  0  0  0  0  0  0
   -1.0597    0.7495   -1.8047 C   0  0  0  0  0  0  0  0  0  0  0  0
    2.5504    2.0582    0.2903 C   0  0  0  0  0  0  0  0  0  0  0  0
    0.6407   -1.7166   -0.3942 C   0  0  0  0  0  0  0  0  0  0  0  0
   -4.3813    0.2130    1.8072 C   0  0  0  0  0  0  0  0  0  0  0  0
    4.9094    1.0017   -0.0782 C   0  0  0  0  0  0  0  0  0  0  0  0
   -6.6901    0.4860   -0.0802 C   0  0  0  0  0  0  0  0  0  0  0  0
    3.5628   -1.6985   -0.1321 C   0  0  0  0  0  0  0  0  0  0  0  0
    5.6033   -0.2920   -0.5909 C   0  0  2  0  0  0  0  0  0  0  0  0
    2.7727   -0.5716    1.9648 C   0  0  0  0  0  0  0  0  0  0  0  0
    5.0694   -1.5630    0.0563 C   0  0  0  0  0  0  0  0  0  0  0  0
    5.3154    1.1684    1.4146 C   0  0  0  0  0  0  0  0  0  0  0  0
    5.4444    2.2588   -0.7972 C   0  0  0  0  0  0  0  0  0  0  0  0
   -6.5752    2.0040   -0.2206 C   0  0  0  0  0  0  0  0  0  0  0  0
   -7.8584   -0.0395   -0.9145 C   0  0  0  0  0  0  0  0  0  0  0  0
    7.6535   -1.3599   -1.0132 C   0  0  0  0  0  0  0  0  0  0  0  0
   -3.1478   -0.8223   -1.3350 H   0  0  0  0  0  0  0  0  0  0  0  0
    0.3160    0.7804    1.4069 H   0  0  0  0  0  0  0  0  0  0  0  0
   -1.6705    2.6878   -0.0683 H   0  0  0  0  0  0  0  0  0  0  0  0
   -1.9434    1.7731    1.3888 H   0  0  0  0  0  0  0  0  0  0  0  0
   -5.2268    0.0139   -1.5550 H   0  0  0  0  0  0  0  0  0  0  0  0
   -4.0346    2.4012    0.3632 H   0  0  0  0  0  0  0  0  0  0  0  0
   -3.5978    1.7280   -1.1930 H   0  0  0  0  0  0  0  0  0  0  0  0
   -3.9252   -2.5961    0.9676 H   0  0  0  0  0  0  0  0  0  0  0  0
   -3.6924   -2.9840   -0.7379 H   0  0  0  0  0  0  0  0  0  0  0  0
   -1.0879   -1.9730   -1.6123 H   0  0  0  0  0  0  0  0  0  0  0  0
   -1.0960   -2.9180   -0.1367 H   0  0  0  0  0  0  0  0  0  0  0  0
   -5.8254   -2.2029   -1.2401 H   0  0  0  0  0  0  0  0  0  0  0  0
   -6.0904   -2.0413    0.5013 H   0  0  0  0  0  0  0  0  0  0  0  0
    3.1645    0.7620   -1.2695 H   0  0  0  0  0  0  0  0  0  0  0  0
    0.5676    2.8526    0.1842 H   0  0  0  0  0  0  0  0  0  0  0  0
    1.1086    2.0176   -1.2659 H   0  0  0  0  0  0  0  0  0  0  0  0
   -0.5299   -1.4900    1.9815 H   0  0  0  0  0  0  0  0  0  0  0  0
   -1.6641   -0.2237    2.3233 H   0  0  0  0  0  0  0  0  0  0  0  0
   -2.2216   -1.8827    2.0705 H   0  0  0  0  0  0  0  0  0  0  0  0
   -0.8690    1.7934   -2.0795 H   0  0  0  0  0  0  0  0  0  0  0  0
   -0.2766    0.1488   -2.2770 H   0  0  0  0  0  0  0  0  0  0  0  0
   -1.9992    0.4912   -2.2963 H   0  0  0  0  0  0  0  0  0  0  0  0
    2.9644    2.9747   -0.1414 H   0  0  0  0  0  0  0  0  0  0  0  0
    2.5858    2.1878    1.3752 H   0  0  0  0  0  0  0  0  0  0  0  0
    1.2276   -2.6092   -0.5834 H   0  0  0  0  0  0  0  0  0  0  0  0
   -3.5191    0.5165    2.3990 H   0  0  0  0  0  0  0  0  0  0  0  0
   -5.1586    0.9353    2.0741 H   0  0  0  0  0  0  0  0  0  0  0  0
   -4.7069   -0.7628    2.1789 H   0  0  0  0  0  0  0  0  0  0  0  0
   -6.9369    0.2570    0.9634 H   0  0  0  0  0  0  0  0  0  0  0  0
    3.3668   -1.8172   -1.2069 H   0  0  0  0  0  0  0  0  0  0  0  0
    3.2469   -2.6322    0.3515 H   0  0  0  0  0  0  0  0  0  0  0  0
    5.4066   -0.3431   -1.6719 H   0  0  0  0  0  0  0  0  0  0  0  0
    2.0542   -1.3193    2.3278 H   0  0  0  0  0  0  0  0  0  0  0  0
    3.7278   -0.9008    2.3723 H   0  0  0  0  0  0  0  0  0  0  0  0
    2.5057    0.3701    2.4502 H   0  0  0  0  0  0  0  0  0  0  0  0
    5.3627   -1.6444    1.1070 H   0  0  0  0  0  0  0  0  0  0  0  0
    5.5068   -2.4513   -0.4143 H   0  0  0  0  0  0  0  0  0  0  0  0
    6.3599    1.5012    1.4850 H   0  0  0  0  0  0  0  0  0  0  0  0
    4.7238    1.9403    1.9159 H   0  0  0  0  0  0  0  0  0  0  0  0
    5.2725    0.2647    2.0144 H   0  0  0  0  0  0  0  0  0  0  0  0
    6.5398    2.2838   -0.8047 H   0  0  0  0  0  0  0  0  0  0  0  0
    5.1095    2.2744   -1.8400 H   0  0  0  0  0  0  0  0  0  0  0  0
    5.1093    3.1841   -0.3184 H   0  0  0  0  0  0  0  0  0  0  0  0
   -6.0881    2.2971   -1.1559 H   0  0  0  0  0  0  0  0  0  0  0  0
   -7.5714    2.4625   -0.2217 H   0  0  0  0  0  0  0  0  0  0  0  0
   -6.0543    2.4540    0.6260 H   0  0  0  0  0  0  0  0  0  0  0  0
   -7.6883    0.1246   -1.9842 H   0  0  0  0  0  0  0  0  0  0  0  0
   -8.7892    0.4704   -0.6426 H   0  0  0  0  0  0  0  0  0  0  0  0
   -8.0232   -1.1097   -0.7555 H   0  0  0  0  0  0  0  0  0  0  0  0
    8.7069   -1.1012   -1.1593 H   0  0  0  0  0  0  0  0  0  0  0  0
    7.2326   -1.6052   -1.9937 H   0  0  0  0  0  0  0  0  0  0  0  0
    7.6310   -2.2258   -0.3454 H   0  0  0  0  0  0  0  0  0  0  0  0
  1 25  1  0  0  0  0
  1 32  1  0  0  0  0
  2  3  1  0  0  0  0
  2  4  1  0  0  0  0
  2 11  1  0  0  0  0
  2 17  1  0  0  0  0
  3  6  1  0  0  0  0
  3  7  1  0  0  0  0
  3 18  1  0  0  0  0
  4  5  1  0  0  0  0
  4 10  1  0  0  0  0
  4 33  1  0  0  0  0
  5  8  1  0  0  0  0
  5  9  1  0  0  0  0
  5 21  1  0  0  0  0
  6 13  1  0  0  0  0
  6 16  1  0  0  0  0
  6 34  1  0  0  0  0
  7  9  1  0  0  0  0
  7 35  1  0  0  0  0
  7 36  1  0  0  0  0
  8 14  1  0  0  0  0
  8 23  1  0  0  0  0
  8 37  1  0  0  0  0
  9 38  1  0  0  0  0
  9 39  1  0  0  0  0
 10 14  1  0  0  0  0
 10 40  1  0  0  0  0
 10 41  1  0  0  0  0
 11 20  1  0  0  0  0
 11 42  1  0  0  0  0
 11 43  1  0  0  0  0
 12 13  1  0  0  0  0
 12 15  1  0  0  0  0
 12 24  1  0  0  0  0
 12 26  1  0  0  0  0
 13 20  2  0  0  0  0
 14 44  1  0  0  0  0
 14 45  1  0  0  0  0
 15 19  1  0  0  0  0
 15 22  1  0  0  0  0
 15 46  1  0  0  0  0
 16 19  1  0  0  0  0
 16 47  1  0  0  0  0
 16 48  1  0  0  0  0
 17 49  1  0  0  0  0
 17 50  1  0  0  0  0
 17 51  1  0  0  0  0
 18 52  1  0  0  0  0
 18 53  1  0  0  0  0
 18 54  1  0  0  0  0
 19 55  1  0  0  0  0
 19 56  1  0  0  0  0
 20 57  1  0  0  0  0
 21 58  1  0  0  0  0
 21 59  1  0  0  0  0
 21 60  1  0  0  0  0
 22 25  1  0  0  0  0
 22 28  1  0  0  0  0
 22 29  1  0  0  0  0
 23 30  1  0  0  0  0
 23 31  1  0  0  0  0
 23 61  1  0  0  0  0
 24 27  1  0  0  0  0
 24 62  1  0  0  0  0
 24 63  1  0  0  0  0
 25 27  1  0  0  0  0
 25 64  1  0  0  0  0
 26 65  1  0  0  0  0
 26 66  1  0  0  0  0
 26 67  1  0  0  0  0
 27 68  1  0  0  0  0
 27 69  1  0  0  0  0
 28 70  1  0  0  0  0
 28 71  1  0  0  0  0
 28 72  1  0  0  0  0
 29 73  1  0  0  0  0
 29 74  1  0  0  0  0
 29 75  1  0  0  0  0
 30 76  1  0  0  0  0
 30 77  1  0  0  0  0
 30 78  1  0  0  0  0
 31 79  1  0  0  0  0
 31 80  1  0  0  0  0
 31 81  1  0  0  0  0
 32 82  1  0  0  0  0
 32 83  1  0  0  0  0
 32 84  1  0  0  0  0
M  END
> <PUBCHEM_COMPOUND_CID>
189045

> <PUBCHEM_CONFORMER_RMSD>
0.8

> <PUBCHEM_CONFORMER_DIVERSEORDER>
1

> <PUBCHEM_MMFF94_PARTIAL_CHARGES>
9
1 -0.56
11 0.14
12 0.14
13 -0.28
20 -0.29
25 0.28
32 0.28
57 0.15
6 0.14

> <PUBCHEM_EFFECTIVE_ROTOR_COUNT>
4.4

> <PUBCHEM_PHARMACOPHORE_FEATURES>
8
1 1 acceptor
3 22 28 29 hydrophobe
3 23 30 31 hydrophobe
5 4 5 8 10 14 rings
6 12 15 22 24 25 27 rings
6 2 3 4 5 7 9 rings
6 2 3 6 11 13 20 rings
6 6 12 13 15 16 19 rings

> <PUBCHEM_HEAVY_ATOM_COUNT>
32

> <PUBCHEM_ATOM_DEF_STEREO_COUNT>
9

> <PUBCHEM_ATOM_UDEF_STEREO_COUNT>
0

> <PUBCHEM_BOND_DEF_STEREO_COUNT>
0

> <PUBCHEM_BOND_UDEF_STEREO_COUNT>
0

> <PUBCHEM_ISOTOPIC_ATOM_COUNT>
0

> <PUBCHEM_COMPONENT_COUNT>
1

> <PUBCHEM_CACTVS_TAUTO_COUNT>
1

> <PUBCHEM_CONFORMER_ID>
0002E27500000001

> <PUBCHEM_MMFF94_ENERGY>
157.6646

> <PUBCHEM_FEATURE_SELFOVERLAP>
40.694

> <PUBCHEM_SHAPE_FINGERPRINT>
10366900 7 17418375783722093688
10906281 52 18343007896577185937
11135609 187 18054221034699592300
11315181 36 17821726126771304403
11524674 6 16515405153619594783
11578080 2 14058097907052479217
11719270 70 18186804690165990726
12011746 2 18342175570111029798
12107183 9 17833831951171245819
12107698 1 18342459270524306512
12166972 35 17748826289356662848
12236239 1 18343022164258115613
12516196 113 18261115162307368665
12788726 201 18340488970993607929
13782708 43 16226047743299290263
13811026 1 18412268307407075467
14117953 113 18412546531135761333
14294032 229 17773879894404492501
14341114 176 18410570686901521393
14790565 3 18410852131723835740
14856354 85 16008749087575851613
15131766 46 16484988143879535148
15183329 4 18410009948571362562
15196674 1 18410293601096446659
15361156 5 18130779023584986564
15840311 113 18131066000473339341
15849732 13 17821450157636692724
18681886 176 18334300842063133608
19611394 137 17986940874855490723
20511986 3 18187376406205366747
21033648 29 17895773815095834258
21267235 1 18410287004042530251
21792934 111 18337405927836224488
221357 26 18410293627467845028
23522609 53 18119215472866236856
23559900 14 18336552599439290513
23569917 315 18187077326696657783
249057 3 18409168801302774695
3004659 81 18343019991542831404
335352 9 18409729560242470623
350125 39 18411420617795331517
3633792 109 17968374640818480483
4017518 198 17240195543886322542
404807 14 17176848490583673871
4073 2 18059289864158328099
4325135 7 18342738529050050886
5104073 3 18408040710366590738
6086070 43 17603872182630571625
6138700 20 18410290328368290479
6328613 192 18342453716651967301

> <PUBCHEM_SHAPE_MULTIPOLES>
652.68
18.79
2.28
1.24
0.48
0.2
-0.4
0.42
3.71
-0.41
0.22
-0.17
-0.03
0.26

> <PUBCHEM_SHAPE_SELFOVERLAP>
1378.579

> <PUBCHEM_SHAPE_VOLUME>
364.1

> <PUBCHEM_COORDINATE_TYPE>
2
5
10

$$$$

