443801
  -OEChem-07051213033D

 36 39  0     0  0  0  0  0  0999 V2000
   -0.0140    3.5682   -0.0190 O   0  0  0  0  0  0  0  0  0  0  0  0
    1.9392   -2.6834    0.1768 O   0  0  0  0  0  0  0  0  0  0  0  0
   -0.1399   -2.4024   -0.5873 O   0  0  0  0  0  0  0  0  0  0  0  0
   -2.2516    2.4253   -0.1974 O   0  0  0  0  0  0  0  0  0  0  0  0
   -4.5963    1.4705    0.2351 O   0  0  0  0  0  0  0  0  0  0  0  0
    0.3324   -0.1147   -0.1175 C   0  0  0  0  0  0  0  0  0  0  0  0
    1.7612   -0.2332   -0.0347 C   0  0  0  0  0  0  0  0  0  0  0  0
   -0.2720    1.1536   -0.0957 C   0  0  0  0  0  0  0  0  0  0  0  0
    2.5281    0.9635    0.0116 C   0  0  0  0  0  0  0  0  0  0  0  0
   -2.0201   -1.1470   -0.0695 C   0  0  0  0  0  0  0  0  0  0  0  0
   -0.5647   -1.3004   -0.2658 C   0  0  0  0  0  0  0  0  0  0  0  0
   -2.5928    0.1196   -0.0042 C   0  0  0  0  0  0  0  0  0  0  0  0
   -1.7424    1.3143   -0.1120 C   0  0  0  0  0  0  0  0  0  0  0  0
    0.5089    2.3085   -0.0431 C   0  0  0  0  0  0  0  0  0  0  0  0
    1.8942    2.2102   -0.0007 C   0  0  0  0  0  0  0  0  0  0  0  0
    2.4984   -1.4468    0.0256 C   0  0  0  0  0  0  0  0  0  0  0  0
    3.9314    0.9197    0.0781 C   0  0  0  0  0  0  0  0  0  0  0  0
    4.6124   -0.2916    0.1154 C   0  0  0  0  0  0  0  0  0  0  0  0
    3.8950   -1.4755    0.0950 C   0  0  0  0  0  0  0  0  0  0  0  0
   -3.9769    0.2586    0.1544 C   0  0  0  0  0  0  0  0  0  0  0  0
   -2.8342   -2.2832    0.0240 C   0  0  0  0  0  0  0  0  0  0  0  0
   -4.7837   -0.8750    0.2512 C   0  0  0  0  0  0  0  0  0  0  0  0
   -4.2131   -2.1442    0.1865 C   0  0  0  0  0  0  0  0  0  0  0  0
    6.1006   -0.3146    0.1932 C   0  0  0  0  0  0  0  0  0  0  0  0
    2.4846    3.1250    0.0386 H   0  0  0  0  0  0  0  0  0  0  0  0
    4.5022    1.8472    0.1088 H   0  0  0  0  0  0  0  0  0  0  0  0
    4.4148   -2.4291    0.1599 H   0  0  0  0  0  0  0  0  0  0  0  0
   -2.4143   -3.2845   -0.0246 H   0  0  0  0  0  0  0  0  0  0  0  0
   -5.8595   -0.7871    0.3784 H   0  0  0  0  0  0  0  0  0  0  0  0
   -4.8418   -3.0267    0.2613 H   0  0  0  0  0  0  0  0  0  0  0  0
    6.4233   -0.2738    1.2383 H   0  0  0  0  0  0  0  0  0  0  0  0
    6.5078   -1.2231   -0.2634 H   0  0  0  0  0  0  0  0  0  0  0  0
    6.5364    0.5355   -0.3429 H   0  0  0  0  0  0  0  0  0  0  0  0
   -0.9732    3.5426    0.1127 H   0  0  0  0  0  0  0  0  0  0  0  0
    1.1666   -2.5949    0.7591 H   0  0  0  0  0  0  0  0  0  0  0  0
   -5.5537    1.3412    0.3456 H   0  0  0  0  0  0  0  0  0  0  0  0
  1 14  1  0  0  0  0
  1 34  1  0  0  0  0
  2 16  1  0  0  0  0
  2 35  1  0  0  0  0
  3 11  2  0  0  0  0
  4 13  2  0  0  0  0
  5 20  1  0  0  0  0
  5 36  1  0  0  0  0
  6  7  2  0  0  0  0
  6  8  1  0  0  0  0
  6 11  1  0  0  0  0
  7  9  1  0  0  0  0
  7 16  1  0  0  0  0
  8 13  1  0  0  0  0
  8 14  2  0  0  0  0
  9 15  2  0  0  0  0
  9 17  1  0  0  0  0
 10 11  1  0  0  0  0
 10 12  2  0  0  0  0
 10 21  1  0  0  0  0
 12 13  1  0  0  0  0
 12 20  1  0  0  0  0
 14 15  1  0  0  0  0
 15 25  1  0  0  0  0
 16 19  2  0  0  0  0
 17 18  2  0  0  0  0
 17 26  1  0  0  0  0
 18 19  1  0  0  0  0
 18 24  1  0  0  0  0
 19 27  1  0  0  0  0
 20 22  2  0  0  0  0
 21 23  2  0  0  0  0
 21 28  1  0  0  0  0
 22 23  1  0  0  0  0
 22 29  1  0  0  0  0
 23 30  1  0  0  0  0
 24 31  1  0  0  0  0
 24 32  1  0  0  0  0
 24 33  1  0  0  0  0
M  END
> <PUBCHEM_COMPOUND_CID>
443801

> <PUBCHEM_CONFORMER_RMSD>
0.6

> <PUBCHEM_CONFORMER_DIVERSEORDER>
1

> <PUBCHEM_MMFF94_PARTIAL_CHARGES>
31
1 -0.53
10 0.09
11 0.4
12 0.09
13 0.4
14 0.08
15 -0.15
16 0.08
17 -0.15
18 -0.14
19 -0.15
2 -0.53
20 0.08
21 -0.15
22 -0.15
23 -0.15
24 0.14
25 0.15
26 0.15
27 0.15
28 0.15
29 0.15
3 -0.57
30 0.15
34 0.45
35 0.45
36 0.45
4 -0.57
5 -0.53
6 0.09
8 0.09

> <PUBCHEM_EFFECTIVE_ROTOR_COUNT>
0

> <PUBCHEM_PHARMACOPHORE_FEATURES>
9
1 1 donor
1 2 donor
1 3 acceptor
1 4 acceptor
1 5 donor
6 10 12 20 21 22 23 rings
6 6 7 8 9 14 15 rings
6 6 8 10 11 12 13 rings
6 7 9 16 17 18 19 rings

> <PUBCHEM_HEAVY_ATOM_COUNT>
24

> <PUBCHEM_ATOM_DEF_STEREO_COUNT>
0

> <PUBCHEM_ATOM_UDEF_STEREO_COUNT>
0

> <PUBCHEM_BOND_DEF_STEREO_COUNT>
0

> <PUBCHEM_BOND_UDEF_STEREO_COUNT>
0

> <PUBCHEM_ISOTOPIC_ATOM_COUNT>
0

> <PUBCHEM_COMPONENT_COUNT>
1

> <PUBCHEM_CACTVS_TAUTO_COUNT>
244

> <PUBCHEM_CONFORMER_ID>
0006C59900000001

> <PUBCHEM_MMFF94_ENERGY>
95.0731

> <PUBCHEM_FEATURE_SELFOVERLAP>
45.733

> <PUBCHEM_SHAPE_FINGERPRINT>
10319926 262 18192735530002848354
10411042 1 18338798897025244959
10616163 171 18410009940203259783
10675989 125 16757207869330902525
10967382 1 18410293613981335612
1100329 8 18267022756700083898
11578080 2 17416991536910616188
12011746 2 18410015450482439223
12107183 9 17764312034386862266
12236239 1 17917991685687723542
12403259 226 18266745684328706157
12553582 1 18339092518195667058
12788726 201 18271810193567866008
12838862 33 18338537311973503784
13140716 1 18265613191087550873
13402501 40 18410011043883124330
13583140 156 14129062516805384695
138480 1 15096208754430325405
13862211 1 18410296882578451182
14787075 74 18130503059478759818
14790565 3 18267578001698837380
15042514 8 18339364192347009208
15196674 1 18410575046203694976
15352361 1 18411419492423891242
15442244 35 18410009901648482057
15536298 74 18335138635584800808
15927050 60 17543627531390077972
1601671 61 18408038520244420842
16087824 20 18267584783695180613
16945 1 18193564358777709861
17492 89 17979073782558605299
17804303 29 18409164389880816037
1813 80 17417816119139209060
19591789 44 18410293566963633126
20028762 73 18042125354052328575
20510252 161 18190180276757022240
20642791 178 18200581519264257684
20905425 154 18264487471833234726
21033648 29 17604163570207334802
21267235 1 18411129212854290810
21421861 104 17986677180321095194
221490 88 18198054785750848707
22182313 1 18114737248089494870
2297311 6 18335410293057531414
2334 1 18410014333738201004
23366157 5 17914618241726534740
23402539 116 18334019384361322086
23557571 272 18261385693954945748
23559900 14 18410019809832488257
23622692 118 18043258937971661431
2748010 2 18336835272241982028
3004659 81 18202282490270953148
335352 9 18411138043871320349
34934 24 18339647835923703083
350125 39 18411136901410227092
4214541 1 18411138047511958129
5104073 3 18409730621131054704
9709674 26 18410849962734222351

> <PUBCHEM_SHAPE_MULTIPOLES>
464.56
9.86
3.13
0.63
3.13
1.06
0
-3.03
1.12
-0.79
-0.08
0
-0.04
-0.02

> <PUBCHEM_SHAPE_SELFOVERLAP>
1070.631

> <PUBCHEM_SHAPE_VOLUME>
237.4

> <PUBCHEM_COORDINATE_TYPE>
2
5
10

$$$$

