3354
  -OEChem-06251223213D

 54 57  0     0  0  0  0  0  0999 V2000
   -2.0443   -1.1347    0.2415 O   0  0  0  0  0  0  0  0  0  0  0  0
    1.8380   -0.0459    0.1650 O   0  0  0  0  0  0  0  0  0  0  0  0
   -0.5818    0.3452    1.2265 O   0  0  0  0  0  0  0  0  0  0  0  0
    4.7345   -2.7857   -0.6555 O   0  0  0  0  0  0  0  0  0  0  0  0
   -5.5493    0.0328    0.1589 N   0  0  0  0  0  0  0  0  0  0  0  0
   -5.3618    1.3067   -0.5496 C   0  0  0  0  0  0  0  0  0  0  0  0
   -6.7985   -0.6241   -0.2507 C   0  0  0  0  0  0  0  0  0  0  0  0
   -6.5249    2.2631   -0.2819 C   0  0  0  0  0  0  0  0  0  0  0  0
   -8.0086    0.2693    0.0270 C   0  0  0  0  0  0  0  0  0  0  0  0
   -7.8612    1.6278   -0.6486 C   0  0  0  0  0  0  0  0  0  0  0  0
   -4.4072   -0.8522   -0.0692 C   0  0  0  0  0  0  0  0  0  0  0  0
   -3.1294   -0.2294    0.4703 C   0  0  0  0  0  0  0  0  0  0  0  0
    0.2072   -1.7379    0.3762 C   0  0  0  0  0  0  0  0  0  0  0  0
   -0.8082   -0.7340    0.6668 C   0  0  0  0  0  0  0  0  0  0  0  0
    1.5323   -1.3796    0.1261 C   0  0  0  0  0  0  0  0  0  0  0  0
    2.4797   -2.3603   -0.1492 C   0  0  0  0  0  0  0  0  0  0  0  0
    4.1657   -0.4939   -0.3552 C   0  0  0  0  0  0  0  0  0  0  0  0
    3.1434    0.3417   -0.0826 C   0  0  0  0  0  0  0  0  0  0  0  0
    3.8696   -1.9547   -0.4079 C   0  0  0  0  0  0  0  0  0  0  0  0
   -0.1654   -3.0818    0.3498 C   0  0  0  0  0  0  0  0  0  0  0  0
    2.1104   -3.7080   -0.1772 C   0  0  0  0  0  0  0  0  0  0  0  0
    3.3077    1.7999   -0.0102 C   0  0  0  0  0  0  0  0  0  0  0  0
    0.7849   -4.0652    0.0736 C   0  0  0  0  0  0  0  0  0  0  0  0
    5.5955   -0.1096   -0.6053 C   0  0  0  0  0  0  0  0  0  0  0  0
    3.1415    2.5789   -1.1557 C   0  0  0  0  0  0  0  0  0  0  0  0
    3.6294    2.4070    1.2041 C   0  0  0  0  0  0  0  0  0  0  0  0
    3.2971    3.9635   -1.0871 C   0  0  0  0  0  0  0  0  0  0  0  0
    3.7849    3.7915    1.2729 C   0  0  0  0  0  0  0  0  0  0  0  0
    3.6187    4.5697    0.1272 C   0  0  0  0  0  0  0  0  0  0  0  0
   -5.2561    1.1449   -1.6303 H   0  0  0  0  0  0  0  0  0  0  0  0
   -4.4728    1.8413   -0.2055 H   0  0  0  0  0  0  0  0  0  0  0  0
   -6.9289   -1.5576    0.3102 H   0  0  0  0  0  0  0  0  0  0  0  0
   -6.7711   -0.8853   -1.3170 H   0  0  0  0  0  0  0  0  0  0  0  0
   -6.3860    3.1861   -0.8563 H   0  0  0  0  0  0  0  0  0  0  0  0
   -6.5337    2.5448    0.7789 H   0  0  0  0  0  0  0  0  0  0  0  0
   -8.1208    0.4097    1.1097 H   0  0  0  0  0  0  0  0  0  0  0  0
   -8.9212   -0.2228   -0.3277 H   0  0  0  0  0  0  0  0  0  0  0  0
   -8.6851    2.2865   -0.3531 H   0  0  0  0  0  0  0  0  0  0  0  0
   -7.9212    1.5038   -1.7368 H   0  0  0  0  0  0  0  0  0  0  0  0
   -4.2844   -1.0946   -1.1334 H   0  0  0  0  0  0  0  0  0  0  0  0
   -4.5618   -1.8108    0.4430 H   0  0  0  0  0  0  0  0  0  0  0  0
   -3.2177   -0.0379    1.5464 H   0  0  0  0  0  0  0  0  0  0  0  0
   -2.8665    0.6976   -0.0451 H   0  0  0  0  0  0  0  0  0  0  0  0
   -1.1850   -3.3985    0.5540 H   0  0  0  0  0  0  0  0  0  0  0  0
    2.8356   -4.4885   -0.3893 H   0  0  0  0  0  0  0  0  0  0  0  0
    0.4933   -5.1114    0.0567 H   0  0  0  0  0  0  0  0  0  0  0  0
    5.9060   -0.4373   -1.6032 H   0  0  0  0  0  0  0  0  0  0  0  0
    6.2499   -0.5840    0.1338 H   0  0  0  0  0  0  0  0  0  0  0  0
    5.7698    0.9682   -0.5486 H   0  0  0  0  0  0  0  0  0  0  0  0
    2.8901    2.1209   -2.1094 H   0  0  0  0  0  0  0  0  0  0  0  0
    3.7616    1.8139    2.1058 H   0  0  0  0  0  0  0  0  0  0  0  0
    3.1676    4.5696   -1.9790 H   0  0  0  0  0  0  0  0  0  0  0  0
    4.0352    4.2637    2.2184 H   0  0  0  0  0  0  0  0  0  0  0  0
    3.7397    5.6477    0.1808 H   0  0  0  0  0  0  0  0  0  0  0  0
  1 12  1  0  0  0  0
  1 14  1  0  0  0  0
  2 15  1  0  0  0  0
  2 18  1  0  0  0  0
  3 14  2  0  0  0  0
  4 19  2  0  0  0  0
  5  6  1  0  0  0  0
  5  7  1  0  0  0  0
  5 11  1  0  0  0  0
  6  8  1  0  0  0  0
  6 30  1  0  0  0  0
  6 31  1  0  0  0  0
  7  9  1  0  0  0  0
  7 32  1  0  0  0  0
  7 33  1  0  0  0  0
  8 10  1  0  0  0  0
  8 34  1  0  0  0  0
  8 35  1  0  0  0  0
  9 10  1  0  0  0  0
  9 36  1  0  0  0  0
  9 37  1  0  0  0  0
 10 38  1  0  0  0  0
 10 39  1  0  0  0  0
 11 12  1  0  0  0  0
 11 40  1  0  0  0  0
 11 41  1  0  0  0  0
 12 42  1  0  0  0  0
 12 43  1  0  0  0  0
 13 14  1  0  0  0  0
 13 15  1  0  0  0  0
 13 20  2  0  0  0  0
 15 16  2  0  0  0  0
 16 19  1  0  0  0  0
 16 21  1  0  0  0  0
 17 18  2  0  0  0  0
 17 19  1  0  0  0  0
 17 24  1  0  0  0  0
 18 22  1  0  0  0  0
 20 23  1  0  0  0  0
 20 44  1  0  0  0  0
 21 23  2  0  0  0  0
 21 45  1  0  0  0  0
 22 25  2  0  0  0  0
 22 26  1  0  0  0  0
 23 46  1  0  0  0  0
 24 47  1  0  0  0  0
 24 48  1  0  0  0  0
 24 49  1  0  0  0  0
 25 27  1  0  0  0  0
 25 50  1  0  0  0  0
 26 28  2  0  0  0  0
 26 51  1  0  0  0  0
 27 29  2  0  0  0  0
 27 52  1  0  0  0  0
 28 29  1  0  0  0  0
 28 53  1  0  0  0  0
 29 54  1  0  0  0  0
M  END
> <PUBCHEM_COMPOUND_CID>
3354

> <PUBCHEM_CONFORMER_RMSD>
0.8

> <PUBCHEM_CONFORMER_DIVERSEORDER>
1
67
120
35
79
61
84
112
98
74
55
57
113
2
38
44
97
83
125
76
93
58
10
7
41
122
101
14
54
11
34
32
92
46
30
42
115
15
77
73
82
72
87
23
109
20
91
26
75
99
40
95
118
64
52
3
90
45
37
33
111
89
29
63
39
4
48
81
96
5
102
127
49
60
128
59
71
31
80
94
100
27
56
65
13
12
47
36
85
116
62
50
9
86
88
66
107
22
28
70
129
18
121
117
24
114
103
68
108
106
51
16
104
53
105
69
21
17
124
119
78
43
110
25
126
8
6
19
123

> <PUBCHEM_MMFF94_PARTIAL_CHARGES>
34
1 -0.43
11 0.27
12 0.28
13 0.09
14 0.63
15 0.08
16 0.09
17 -0.12
18 0.05
19 0.47
2 -0.16
20 -0.15
21 -0.15
22 0.03
23 -0.15
24 0.14
25 -0.15
26 -0.15
27 -0.15
28 -0.15
29 -0.15
3 -0.57
4 -0.57
44 0.15
45 0.15
46 0.15
5 -0.81
50 0.15
51 0.15
52 0.15
53 0.15
54 0.15
6 0.27
7 0.27

> <PUBCHEM_EFFECTIVE_ROTOR_COUNT>
7.2

> <PUBCHEM_PHARMACOPHORE_FEATURES>
8
1 2 acceptor
1 3 acceptor
1 4 acceptor
1 5 cation
6 13 15 16 20 21 23 rings
6 2 15 16 17 18 19 rings
6 22 25 26 27 28 29 rings
6 5 6 7 8 9 10 rings

> <PUBCHEM_HEAVY_ATOM_COUNT>
29

> <PUBCHEM_ATOM_DEF_STEREO_COUNT>
0

> <PUBCHEM_ATOM_UDEF_STEREO_COUNT>
0

> <PUBCHEM_BOND_DEF_STEREO_COUNT>
0

> <PUBCHEM_BOND_UDEF_STEREO_COUNT>
0

> <PUBCHEM_ISOTOPIC_ATOM_COUNT>
0

> <PUBCHEM_COMPONENT_COUNT>
1

> <PUBCHEM_CACTVS_TAUTO_COUNT>
1

> <PUBCHEM_CONFORMER_ID>
00000D1A00000001

> <PUBCHEM_MMFF94_ENERGY>
72.1989

> <PUBCHEM_FEATURE_SELFOVERLAP>
40.63

> <PUBCHEM_SHAPE_FINGERPRINT>
10050765 1 18338799996611310467
10411042 1 17834676372424887450
10673678 19 18336262362818544259
10675989 125 18334294236414820296
10763959 59 18341890809558372676
11135609 127 18334867091121676345
11456790 92 18131072688016701714
1200032 147 17416958436167741692
12107183 9 18197234555416494280
13140716 1 18122624956182778154
1361 2 18340769239321754573
13878862 14 18341065055025312693
13944108 23 18269829960352291124
13965767 371 17985564247363636700
14117953 113 18410291402854212044
14556957 393 17313662754907098385
14790565 3 18266459811189225471
15003188 100 18411980265129567309
15082195 135 18336262427010887041
15183329 4 18263927803904571627
15439362 3 18337953364732113404
15979999 66 18047745185709948014
16988056 13 18338516451749818644
17844677 252 18337949108477051553
18335252 114 18338520845084592215
18681886 176 18262241143908813050
19053607 189 18196657289250943432
19301679 30 17764881582191863266
19427546 62 18412263904844382339
20715895 44 18338240371093737344
21033648 29 18131069281822636408
21049683 118 17774451494405918555
21133410 230 18192446367287826882
21344244 78 17840606000062934538
22149856 69 18337938014835249675
23522609 53 17749653157526255153
23559900 14 18409732889006006051
23569914 2 17412232851293172277
255183 451 17754730860109317502
283562 15 17979622766074919430
335352 9 18410285918487164118
335507 130 18334860490163118031
376196 1 18341894047980155611
4066623 53 18047172323557232606
4073 2 18060128861141711779
44317340 157 18334575729367068441
44555599 121 18187919656072613057
5109719 28 18341605959597288945
5312510 48 18410572898888910577
53794403 172 18270676468004016348
6371009 1 18407760347965984968
9849439 229 18194688063998864928

> <PUBCHEM_SHAPE_MULTIPOLES>
568.35
17.9
5.63
0.95
47.19
1.87
-0.07
11.45
3.23
-9.25
0.1
-0.64
0.6
1.31

> <PUBCHEM_SHAPE_SELFOVERLAP>
1231.366

> <PUBCHEM_SHAPE_VOLUME>
310.9

> <PUBCHEM_COORDINATE_TYPE>
2
5
10

$$$$

