5284649
  -OEChem-07051213053D

 30 32  0     0  0  0  0  0  0999 V2000
    1.0418    2.0171   -0.0134 O   0  0  0  0  0  0  0  0  0  0  0  0
   -0.1853   -1.8737   -0.0779 O   0  0  0  0  0  0  0  0  0  0  0  0
    4.8899   -1.9421    0.0199 O   0  0  0  0  0  0  0  0  0  0  0  0
    5.6086    0.7402    0.0398 O   0  0  0  0  0  0  0  0  0  0  0  0
   -6.3561   -0.4161    0.0429 O   0  0  0  0  0  0  0  0  0  0  0  0
    1.6033   -0.3442   -0.0155 C   0  0  0  0  0  0  0  0  0  0  0  0
   -0.7944    0.4276   -0.0263 C   0  0  0  0  0  0  0  0  0  0  0  0
    1.9644    1.0026   -0.0055 C   0  0  0  0  0  0  0  0  0  0  0  0
    0.1734   -0.7038   -0.0387 C   0  0  0  0  0  0  0  0  0  0  0  0
   -2.2497    0.2077   -0.0082 C   0  0  0  0  0  0  0  0  0  0  0  0
    2.5875   -1.3361   -0.0077 C   0  0  0  0  0  0  0  0  0  0  0  0
   -0.2873    1.6695   -0.0137 C   0  0  0  0  0  0  0  0  0  0  0  0
    3.3115    1.3653    0.0120 C   0  0  0  0  0  0  0  0  0  0  0  0
    3.9342   -0.9708    0.0105 C   0  0  0  0  0  0  0  0  0  0  0  0
    4.2957    0.3769    0.0201 C   0  0  0  0  0  0  0  0  0  0  0  0
   -2.9603    0.1227   -1.2072 C   0  0  0  0  0  0  0  0  0  0  0  0
   -2.9241    0.0822    1.2081 C   0  0  0  0  0  0  0  0  0  0  0  0
   -4.3393   -0.0865   -1.1902 C   0  0  0  0  0  0  0  0  0  0  0  0
   -4.3031   -0.1271    1.2252 C   0  0  0  0  0  0  0  0  0  0  0  0
   -5.0108   -0.2114    0.0260 C   0  0  0  0  0  0  0  0  0  0  0  0
    2.3128   -2.3878   -0.0154 H   0  0  0  0  0  0  0  0  0  0  0  0
   -0.8941    2.5668    0.0003 H   0  0  0  0  0  0  0  0  0  0  0  0
    3.5950    2.4148    0.0197 H   0  0  0  0  0  0  0  0  0  0  0  0
   -2.4511    0.2169   -2.1635 H   0  0  0  0  0  0  0  0  0  0  0  0
   -2.3867    0.1445    2.1514 H   0  0  0  0  0  0  0  0  0  0  0  0
   -4.8789   -0.1508   -2.1314 H   0  0  0  0  0  0  0  0  0  0  0  0
   -4.8205   -0.2242    2.1757 H   0  0  0  0  0  0  0  0  0  0  0  0
    4.4576   -2.8132    0.0113 H   0  0  0  0  0  0  0  0  0  0  0  0
    6.1499   -0.0684    0.0435 H   0  0  0  0  0  0  0  0  0  0  0  0
   -6.6815   -0.4480   -0.8732 H   0  0  0  0  0  0  0  0  0  0  0  0
  1  8  1  0  0  0  0
  1 12  1  0  0  0  0
  2  9  2  0  0  0  0
  3 14  1  0  0  0  0
  3 28  1  0  0  0  0
  4 15  1  0  0  0  0
  4 29  1  0  0  0  0
  5 20  1  0  0  0  0
  5 30  1  0  0  0  0
  6  8  1  0  0  0  0
  6  9  1  0  0  0  0
  6 11  2  0  0  0  0
  7  9  1  0  0  0  0
  7 10  1  0  0  0  0
  7 12  2  0  0  0  0
  8 13  2  0  0  0  0
 10 16  2  0  0  0  0
 10 17  1  0  0  0  0
 11 14  1  0  0  0  0
 11 21  1  0  0  0  0
 12 22  1  0  0  0  0
 13 15  1  0  0  0  0
 13 23  1  0  0  0  0
 14 15  2  0  0  0  0
 16 18  1  0  0  0  0
 16 24  1  0  0  0  0
 17 19  2  0  0  0  0
 17 25  1  0  0  0  0
 18 20  2  0  0  0  0
 18 26  1  0  0  0  0
 19 20  1  0  0  0  0
 19 27  1  0  0  0  0
M  END
> <PUBCHEM_COMPOUND_CID>
5284649

> <PUBCHEM_CONFORMER_RMSD>
0.6

> <PUBCHEM_CONFORMER_DIVERSEORDER>
1
2

> <PUBCHEM_MMFF94_PARTIAL_CHARGES>
30
1 -0.16
10 0.03
11 -0.15
12 -0.07
13 -0.15
14 0.08
15 0.08
16 -0.15
17 -0.15
18 -0.15
19 -0.15
2 -0.57
20 0.08
21 0.15
22 0.15
23 0.15
24 0.15
25 0.15
26 0.15
27 0.15
28 0.45
29 0.45
3 -0.53
30 0.45
4 -0.53
5 -0.53
6 0.09
7 -0.01
8 0.08
9 0.47

> <PUBCHEM_EFFECTIVE_ROTOR_COUNT>
1

> <PUBCHEM_PHARMACOPHORE_FEATURES>
8
1 1 acceptor
1 2 acceptor
1 3 donor
1 4 donor
1 5 donor
6 1 6 7 8 9 12 rings
6 10 16 17 18 19 20 rings
6 6 8 11 13 14 15 rings

> <PUBCHEM_HEAVY_ATOM_COUNT>
20

> <PUBCHEM_ATOM_DEF_STEREO_COUNT>
0

> <PUBCHEM_ATOM_UDEF_STEREO_COUNT>
0

> <PUBCHEM_BOND_DEF_STEREO_COUNT>
0

> <PUBCHEM_BOND_UDEF_STEREO_COUNT>
0

> <PUBCHEM_ISOTOPIC_ATOM_COUNT>
0

> <PUBCHEM_COMPONENT_COUNT>
1

> <PUBCHEM_CACTVS_TAUTO_COUNT>
20

> <PUBCHEM_CONFORMER_ID>
0050A32900000001

> <PUBCHEM_MMFF94_ENERGY>
59.745

> <PUBCHEM_FEATURE_SELFOVERLAP>
40.627

> <PUBCHEM_SHAPE_FINGERPRINT>
10 15 18059864901226035952
11287383 113 17060335197750604076
11471102 20 18411982455715895076
11796584 16 16702302351510415531
12107183 9 17247218317224289715
12236239 1 17821728338805977617
13140716 1 18122064209072884536
13533116 47 17967252026799392202
13760787 5 18408604768505820324
13862211 1 18410858802014151458
14386348 63 17917709098050687225
14573314 32 17060061475200327615
15196674 1 18338517546776522764
15788980 27 18342460352539580183
15848702 151 17895750811066542567
15961568 22 15840982248787261244
17349148 13 18187081758484727547
17862501 102 17748827423243664217
1813 80 18262222413265823860
19489759 90 16271930419640148461
200 152 18333453149206305489
20028762 73 18186243939220475151
20645477 70 18341333378907166382
21033648 29 18130242492097300365
21033650 10 16300041620384541944
21267235 1 18337387240760800694
21641784 216 18130208450561423220
21682296 61 18265046019482665870
23175994 123 18131347506010640701
23184049 59 18408036312462276230
23402539 116 18040156227299407229
23557571 272 16988569017449510029
23559900 14 17132110238716845322
26918003 58 18201717336461284457
2871803 45 18202565115903136864
335352 9 18410290282231465396
345986 75 18041568069312751194
34797466 226 16343691136595539622
34934 24 18337397033196272382
3545911 37 18412825764213012454
4340502 62 16845576409318002850
465052 167 18409443687224906606
5104073 3 18337960116151535256
542803 24 17312821580549173187
602551 16 15141257489518307253
7495541 125 17203320066451056197

> <PUBCHEM_SHAPE_MULTIPOLES>
382.24
12.05
1.57
0.91
3.77
0
0.01
1.98
0.19
-1.83
-0.01
1.14
0
0.03

> <PUBCHEM_SHAPE_SELFOVERLAP>
855.676

> <PUBCHEM_SHAPE_VOLUME>
202

> <PUBCHEM_COORDINATE_TYPE>
2
5
10

$$$$

