241545
  -OEChem-07051213062D

 44 46  0     1  0  0  0  0  0999 V2000
    6.4082    2.7967    0.0000 O   0  0  0  0  0  0  0  0  0  0  0  0
    2.0000    0.2516    0.0000 O   0  0  0  0  0  0  0  0  0  0  0  0
    2.0000   -1.7967    0.0000 O   0  0  0  0  0  0  0  0  0  0  0  0
    6.3961   -0.2726    0.0000 N   0  0  3  0  0  0  0  0  0  0  0  0
    5.5301    0.2274    0.0000 C   0  0  3  0  0  0  0  0  0  0  0  0
    7.3062    0.2343    0.0000 C   0  0  0  0  0  0  0  0  0  0  0  0
    7.3142    1.2759    0.0000 C   0  0  3  0  0  0  0  0  0  0  0  0
    5.5141    1.2690    0.0000 C   0  0  0  0  0  0  0  0  0  0  0  0
    6.3961   -1.2726    0.0000 C   0  0  0  0  0  0  0  0  0  0  0  0
    4.6641   -0.2726    0.0000 C   0  0  0  0  0  0  0  0  0  0  0  0
    6.4121    1.7967    0.0000 C   0  0  0  0  0  0  0  0  0  0  0  0
    5.5301   -1.7726    0.0000 C   0  0  0  0  0  0  0  0  0  0  0  0
    4.6641   -1.2726    0.0000 C   0  0  0  0  0  0  0  0  0  0  0  0
    8.1821    1.7726    0.0000 C   0  0  0  0  0  0  0  0  0  0  0  0
    3.7702    0.2621    0.0000 C   0  0  0  0  0  0  0  0  0  0  0  0
    3.7702   -1.8072    0.0000 C   0  0  0  0  0  0  0  0  0  0  0  0
    9.0462    1.2692    0.0000 C   0  0  0  0  0  0  0  0  0  0  0  0
    2.8641   -0.2517    0.0000 C   0  0  0  0  0  0  0  0  0  0  0  0
    2.8641   -1.2934    0.0000 C   0  0  0  0  0  0  0  0  0  0  0  0
    2.0038    1.2516    0.0000 C   0  0  0  0  0  0  0  0  0  0  0  0
    2.0038   -2.7967    0.0000 C   0  0  0  0  0  0  0  0  0  0  0  0
    6.0647    0.5416    0.0000 H   0  0  0  0  0  0  0  0  0  0  0  0
    7.5107   -0.3510    0.0000 H   0  0  0  0  0  0  0  0  0  0  0  0
    7.9178    0.3357    0.0000 H   0  0  0  0  0  0  0  0  0  0  0  0
    7.3154    1.8959    0.0000 H   0  0  0  0  0  0  0  0  0  0  0  0
    5.2960    1.8494    0.0000 H   0  0  0  0  0  0  0  0  0  0  0  0
    4.9049    1.1534    0.0000 H   0  0  0  0  0  0  0  0  0  0  0  0
    6.6082   -1.8552    0.0000 H   0  0  0  0  0  0  0  0  0  0  0  0
    7.0067   -1.1649    0.0000 H   0  0  0  0  0  0  0  0  0  0  0  0
    5.1316   -2.2475    0.0000 H   0  0  0  0  0  0  0  0  0  0  0  0
    5.9286   -2.2475    0.0000 H   0  0  0  0  0  0  0  0  0  0  0  0
    8.5825    2.2460    0.0000 H   0  0  0  0  0  0  0  0  0  0  0  0
    7.7854    2.2490    0.0000 H   0  0  0  0  0  0  0  0  0  0  0  0
    3.7773    0.8821    0.0000 H   0  0  0  0  0  0  0  0  0  0  0  0
    3.7773   -2.4272    0.0000 H   0  0  0  0  0  0  0  0  0  0  0  0
    8.7342    0.7335    0.0000 H   0  0  0  0  0  0  0  0  0  0  0  0
    9.5820    0.9571    0.0000 H   0  0  0  0  0  0  0  0  0  0  0  0
    9.3583    1.8050    0.0000 H   0  0  0  0  0  0  0  0  0  0  0  0
    2.6238    1.2492    0.0000 H   0  0  0  0  0  0  0  0  0  0  0  0
    2.0062    1.8716    0.0000 H   0  0  0  0  0  0  0  0  0  0  0  0
    1.3839    1.2540    0.0000 H   0  0  0  0  0  0  0  0  0  0  0  0
    1.3839   -2.7991    0.0000 H   0  0  0  0  0  0  0  0  0  0  0  0
    2.0062   -3.4167    0.0000 H   0  0  0  0  0  0  0  0  0  0  0  0
    2.6238   -2.7943    0.0000 H   0  0  0  0  0  0  0  0  0  0  0  0
  1 11  2  0  0  0  0
  2 18  1  0  0  0  0
  2 20  1  0  0  0  0
  3 19  1  0  0  0  0
  3 21  1  0  0  0  0
  4  5  1  0  0  0  0
  4  6  1  0  0  0  0
  4  9  1  0  0  0  0
  5  8  1  0  0  0  0
  5 10  1  0  0  0  0
  5 22  1  0  0  0  0
  6  7  1  0  0  0  0
  6 23  1  0  0  0  0
  6 24  1  0  0  0  0
  7 11  1  0  0  0  0
  7 14  1  0  0  0  0
  7 25  1  0  0  0  0
  8 11  1  0  0  0  0
  8 26  1  0  0  0  0
  8 27  1  0  0  0  0
  9 12  1  0  0  0  0
  9 28  1  0  0  0  0
  9 29  1  0  0  0  0
 10 13  1  0  0  0  0
 10 15  2  0  0  0  0
 12 13  1  0  0  0  0
 12 30  1  0  0  0  0
 12 31  1  0  0  0  0
 13 16  2  0  0  0  0
 14 17  1  0  0  0  0
 14 32  1  0  0  0  0
 14 33  1  0  0  0  0
 15 18  1  0  0  0  0
 15 34  1  0  0  0  0
 16 19  1  0  0  0  0
 16 35  1  0  0  0  0
 17 36  1  0  0  0  0
 17 37  1  0  0  0  0
 17 38  1  0  0  0  0
 18 19  2  0  0  0  0
 20 39  1  0  0  0  0
 20 40  1  0  0  0  0
 20 41  1  0  0  0  0
 21 42  1  0  0  0  0
 21 43  1  0  0  0  0
 21 44  1  0  0  0  0
M  END
> <PUBCHEM_COMPOUND_CID>
241545

> <PUBCHEM_COMPOUND_CANONICALIZED>
1

> <PUBCHEM_CACTVS_COMPLEXITY>
386

> <PUBCHEM_CACTVS_HBOND_ACCEPTOR>
4

> <PUBCHEM_CACTVS_HBOND_DONOR>
0

> <PUBCHEM_CACTVS_ROTATABLE_BOND>
3

> <PUBCHEM_CACTVS_SUBSKEYS>
AAADceB6MAAAAAAAAAAAAAAAAAAAAAAAAAA8WIAAAAAAAACxAAAAHgAAAAAADSzBmAYyBoMABACIAqBSAACCCAAgIAAAiAEOjIgNJjqEsRuEMCpkwBGKqAe42POOoAABAAAQQABAAAIAACCAAAAAAAAAAA==

> <PUBCHEM_IUPAC_OPENEYE_NAME>
3-ethyl-9,10-dimethoxy-1,3,4,6,7,11b-hexahydrobenzo[a]quinolizin-2-one

> <PUBCHEM_IUPAC_CAS_NAME>
3-ethyl-9,10-dimethoxy-1,3,4,6,7,11b-hexahydrobenzo[a]quinolizin-2-one

> <PUBCHEM_IUPAC_NAME>
3-ethyl-9,10-dimethoxy-1,3,4,6,7,11b-hexahydrobenzo[a]quinolizin-2-one

> <PUBCHEM_IUPAC_SYSTEMATIC_NAME>
3-ethyl-9,10-dimethoxy-1,3,4,6,7,11b-hexahydrobenzo[a]quinolizin-2-one

> <PUBCHEM_IUPAC_TRADITIONAL_NAME>
3-ethyl-9,10-dimethoxy-1,3,4,6,7,11b-hexahydrobenzo[a]quinolizin-2-one

> <PUBCHEM_IUPAC_INCHI>
InChI=1S/C17H23NO3/c1-4-11-10-18-6-5-12-7-16(20-2)17(21-3)8-13(12)14(18)9-15(11)19/h7-8,11,14H,4-6,9-10H2,1-3H3

> <PUBCHEM_IUPAC_INCHIKEY>
BOBCQOOZINHVMK-UHFFFAOYSA-N

> <PUBCHEM_XLOGP3_AA>
2.2

> <PUBCHEM_EXACT_MASS>
289.167794

> <PUBCHEM_MOLECULAR_FORMULA>
C17H23NO3

> <PUBCHEM_MOLECULAR_WEIGHT>
289.36942

> <PUBCHEM_OPENEYE_CAN_SMILES>
CCC1CN2CCC3=CC(=C(C=C3C2CC1=O)OC)OC

> <PUBCHEM_OPENEYE_ISO_SMILES>
CCC1CN2CCC3=CC(=C(C=C3C2CC1=O)OC)OC

> <PUBCHEM_CACTVS_TPSA>
38.8

> <PUBCHEM_MONOISOTOPIC_WEIGHT>
289.167794

> <PUBCHEM_TOTAL_CHARGE>
0

> <PUBCHEM_HEAVY_ATOM_COUNT>
21

> <PUBCHEM_ATOM_DEF_STEREO_COUNT>
0

> <PUBCHEM_ATOM_UDEF_STEREO_COUNT>
2

> <PUBCHEM_BOND_DEF_STEREO_COUNT>
0

> <PUBCHEM_BOND_UDEF_STEREO_COUNT>
0

> <PUBCHEM_ISOTOPIC_ATOM_COUNT>
0

> <PUBCHEM_COMPONENT_COUNT>
1

> <PUBCHEM_CACTVS_TAUTO_COUNT>
3

> <PUBCHEM_COORDINATE_TYPE>
1
5
255

> <PUBCHEM_BONDANNOTATIONS>
10  13  8
10  15  8
13  16  8
15  18  8
16  19  8
18  19  8
5  8  3
7  14  3

$$$$

