10951
  -OEChem-06261205092D

 35 34  0     0  0  0  0  0  0999 V2000
    6.2089    0.8660    0.0000 S   0  0  0  0  0  0  0  0  0  0  0  0
    7.0749    1.3660    0.0000 O   0  0  0  0  0  0  0  0  0  0  0  0
    5.3429    0.3660    0.0000 O   0  0  0  0  0  0  0  0  0  0  0  0
    5.7089    1.7320    0.0000 O   0  0  0  0  0  0  0  0  0  0  0  0
    6.7089    0.0000    0.0000 O   0  0  0  0  0  0  0  0  0  0  0  0
    1.4030    5.4860    0.0000 N   0  0  0  0  0  0  0  0  0  0  0  0
    6.2089    7.3520    0.0000 N   0  0  0  0  0  0  0  0  0  0  0  0
    1.4030    4.4860    0.0000 C   0  0  0  0  0  0  0  0  0  0  0  0
    6.2089    6.3520    0.0000 C   0  0  0  0  0  0  0  0  0  0  0  0
    0.5369    3.9860    0.0000 C   0  0  0  0  0  0  0  0  0  0  0  0
    5.3429    5.8520    0.0000 C   0  0  0  0  0  0  0  0  0  0  0  0
    2.2690    3.9860    0.0000 C   0  0  0  0  0  0  0  0  0  0  0  0
    7.0749    5.8520    0.0000 C   0  0  0  0  0  0  0  0  0  0  0  0
    5.3429    4.8520    0.0000 C   0  0  0  0  0  0  0  0  0  0  0  0
    0.5369    2.9860    0.0000 C   0  0  0  0  0  0  0  0  0  0  0  0
    7.0749    4.8520    0.0000 C   0  0  0  0  0  0  0  0  0  0  0  0
    2.2690    2.9860    0.0000 C   0  0  0  0  0  0  0  0  0  0  0  0
    6.2089    4.3520    0.0000 C   0  0  0  0  0  0  0  0  0  0  0  0
    1.4030    2.4860    0.0000 C   0  0  0  0  0  0  0  0  0  0  0  0
    0.0000    4.2960    0.0000 H   0  0  0  0  0  0  0  0  0  0  0  0
    4.8059    6.1620    0.0000 H   0  0  0  0  0  0  0  0  0  0  0  0
    2.8059    4.2960    0.0000 H   0  0  0  0  0  0  0  0  0  0  0  0
    7.6118    6.1620    0.0000 H   0  0  0  0  0  0  0  0  0  0  0  0
    0.0000    2.6760    0.0000 H   0  0  0  0  0  0  0  0  0  0  0  0
    4.8059    4.5420    0.0000 H   0  0  0  0  0  0  0  0  0  0  0  0
    2.8059    2.6760    0.0000 H   0  0  0  0  0  0  0  0  0  0  0  0
    7.6118    4.5420    0.0000 H   0  0  0  0  0  0  0  0  0  0  0  0
    6.2089    3.7320    0.0000 H   0  0  0  0  0  0  0  0  0  0  0  0
    1.4030    1.8660    0.0000 H   0  0  0  0  0  0  0  0  0  0  0  0
    1.9399    5.7960    0.0000 H   0  0  0  0  0  0  0  0  0  0  0  0
    0.8660    5.7960    0.0000 H   0  0  0  0  0  0  0  0  0  0  0  0
    6.7458    7.6620    0.0000 H   0  0  0  0  0  0  0  0  0  0  0  0
    5.6720    7.6620    0.0000 H   0  0  0  0  0  0  0  0  0  0  0  0
    7.6118    1.0560    0.0000 H   0  0  0  0  0  0  0  0  0  0  0  0
    4.8059    0.6760    0.0000 H   0  0  0  0  0  0  0  0  0  0  0  0
  1  2  1  0  0  0  0
  1  3  1  0  0  0  0
  1  4  2  0  0  0  0
  1  5  2  0  0  0  0
  2 34  1  0  0  0  0
  3 35  1  0  0  0  0
  6  8  1  0  0  0  0
  6 30  1  0  0  0  0
  6 31  1  0  0  0  0
  7  9  1  0  0  0  0
  7 32  1  0  0  0  0
  7 33  1  0  0  0  0
  8 10  2  0  0  0  0
  8 12  1  0  0  0  0
  9 11  2  0  0  0  0
  9 13  1  0  0  0  0
 10 15  1  0  0  0  0
 10 20  1  0  0  0  0
 11 14  1  0  0  0  0
 11 21  1  0  0  0  0
 12 17  2  0  0  0  0
 12 22  1  0  0  0  0
 13 16  2  0  0  0  0
 13 23  1  0  0  0  0
 14 18  2  0  0  0  0
 14 25  1  0  0  0  0
 15 19  2  0  0  0  0
 15 24  1  0  0  0  0
 16 18  1  0  0  0  0
 16 27  1  0  0  0  0
 17 19  1  0  0  0  0
 17 26  1  0  0  0  0
 18 28  1  0  0  0  0
 19 29  1  0  0  0  0
M  END
> <PUBCHEM_COMPOUND_CID>
10951

> <PUBCHEM_COMPOUND_CANONICALIZED>
1

> <PUBCHEM_CACTVS_COMPLEXITY>
127

> <PUBCHEM_CACTVS_HBOND_ACCEPTOR>
6

> <PUBCHEM_CACTVS_HBOND_DONOR>
4

> <PUBCHEM_CACTVS_ROTATABLE_BOND>
0

> <PUBCHEM_CACTVS_SUBSKEYS>
AAADceBzOABAAAAAAAAAAAAAAAAAAAAAAAAwYAAAAAAAAAABQAAAHAAQCAAACAiBEAAwwIBAAICAACRCQDCCAAAgAgAIiAAAZIgIICKAkZGAIABgkAAIyAcQAAAAAAAAAAAAAAAAAAAAAAAAAAAAAAAAAA==

> <PUBCHEM_IUPAC_OPENEYE_NAME>
aniline; sulfuric acid

> <PUBCHEM_IUPAC_CAS_NAME>
aniline; sulfuric acid

> <PUBCHEM_IUPAC_NAME>
aniline; sulfuric acid

> <PUBCHEM_IUPAC_SYSTEMATIC_NAME>
aniline; sulfuric acid

> <PUBCHEM_IUPAC_TRADITIONAL_NAME>
phenylamine; sulfuric acid

> <PUBCHEM_IUPAC_INCHI>
InChI=1S/2C6H7N.H2O4S/c2*7-6-4-2-1-3-5-6;1-5(2,3)4/h2*1-5H,7H2;(H2,1,2,3,4)

> <PUBCHEM_IUPAC_INCHIKEY>
FUKMEFZGEMVGLD-UHFFFAOYSA-N

> <PUBCHEM_EXACT_MASS>
284.083078

> <PUBCHEM_MOLECULAR_FORMULA>
C12H16N2O4S

> <PUBCHEM_MOLECULAR_WEIGHT>
284.33144

> <PUBCHEM_OPENEYE_CAN_SMILES>
C1=CC=C(C=C1)N.C1=CC=C(C=C1)N.OS(=O)(=O)O

> <PUBCHEM_OPENEYE_ISO_SMILES>
C1=CC=C(C=C1)N.C1=CC=C(C=C1)N.OS(=O)(=O)O

> <PUBCHEM_CACTVS_TPSA>
135

> <PUBCHEM_MONOISOTOPIC_WEIGHT>
284.083078

> <PUBCHEM_TOTAL_CHARGE>
0

> <PUBCHEM_HEAVY_ATOM_COUNT>
19

> <PUBCHEM_ATOM_DEF_STEREO_COUNT>
0

> <PUBCHEM_ATOM_UDEF_STEREO_COUNT>
0

> <PUBCHEM_BOND_DEF_STEREO_COUNT>
0

> <PUBCHEM_BOND_UDEF_STEREO_COUNT>
0

> <PUBCHEM_ISOTOPIC_ATOM_COUNT>
0

> <PUBCHEM_COMPONENT_COUNT>
3

> <PUBCHEM_CACTVS_TAUTO_COUNT>
1

> <PUBCHEM_COORDINATE_TYPE>
1
5
255

> <PUBCHEM_BONDANNOTATIONS>
10  15  8
11  14  8
12  17  8
13  16  8
14  18  8
15  19  8
16  18  8
17  19  8
8  10  8
8  12  8
9  11  8
9  13  8

$$$$

