14167253
  -OEChem-07051213153D

 82 86  0     1  0  0  0  0  0999 V2000
    6.5825   -1.7393   -0.7455 O   0  0  0  0  0  0  0  0  0  0  0  0
    5.3820    2.0736    0.5254 O   0  0  0  0  0  0  0  0  0  0  0  0
    0.4149    0.9136    0.1780 C   0  0  2  0  0  0  0  0  0  0  0  0
    1.0210   -0.5324    0.3541 C   0  0  1  0  0  0  0  0  0  0  0  0
    2.5924   -0.6417    0.6161 C   0  0  2  0  0  0  0  0  0  0  0  0
   -1.1014    0.7738   -0.4267 C   0  0  1  0  0  0  0  0  0  0  0  0
    3.3091    0.2129   -0.4942 C   0  0  1  0  0  0  0  0  0  0  0  0
    1.3220    1.7476   -0.7694 C   0  0  0  0  0  0  0  0  0  0  0  0
   -1.9207   -0.2417    0.3886 C   0  0  0  0  0  0  0  0  0  0  0  0
    2.8187    1.6746   -0.4580 C   0  0  0  0  0  0  0  0  0  0  0  0
    4.8683    0.0353   -0.6097 C   0  0  2  0  0  0  0  0  0  0  0  0
   -3.4516   -0.2092    0.3654 C   0  0  1  0  0  0  0  0  0  0  0  0
   -4.0874    1.2109    0.2593 C   0  0  1  0  0  0  0  0  0  0  0  0
   -1.8129    2.1599   -0.4376 C   0  0  0  0  0  0  0  0  0  0  0  0
    0.1530   -1.3791    1.3088 C   0  0  0  0  0  0  0  0  0  0  0  0
    3.0200   -2.1305    0.4303 C   0  0  0  0  0  0  0  0  0  0  0  0
   -3.3097    2.0983   -0.7383 C   0  0  0  0  0  0  0  0  0  0  0  0
    0.3652    1.6614    1.5445 C   0  0  0  0  0  0  0  0  0  0  0  0
   -1.3224   -1.1805    1.1481 C   0  0  0  0  0  0  0  0  0  0  0  0
    5.1779   -1.4866   -0.7354 C   0  0  2  0  0  0  0  0  0  0  0  0
    2.9905   -0.2232    2.0540 C   0  0  0  0  0  0  0  0  0  0  0  0
    4.5299   -2.3459    0.3457 C   0  0  0  0  0  0  0  0  0  0  0  0
   -1.0817    0.2580   -1.8974 C   0  0  0  0  0  0  0  0  0  0  0  0
   -4.0511   -1.1620   -0.6893 C   0  0  0  0  0  0  0  0  0  0  0  0
   -5.5662    1.1301   -0.2275 C   0  0  0  0  0  0  0  0  0  0  0  0
   -5.5661   -1.4112   -0.4496 C   0  0  0  0  0  0  0  0  0  0  0  0
   -6.2473   -0.1734    0.1875 C   0  0  0  0  0  0  0  0  0  0  0  0
    5.6583    0.6901    0.5409 C   0  0  0  0  0  0  0  0  0  0  0  0
    5.3779    0.7110   -1.9138 C   0  0  0  0  0  0  0  0  0  0  0  0
   -4.0720    1.8690    1.6616 C   0  0  0  0  0  0  0  0  0  0  0  0
   -5.7614   -2.6216    0.4837 C   0  0  0  0  0  0  0  0  0  0  0  0
   -6.2318   -1.7422   -1.7996 C   0  0  0  0  0  0  0  0  0  0  0  0
    0.9036   -1.0135   -0.6259 H   0  0  0  0  0  0  0  0  0  0  0  0
    2.9320   -0.1888   -1.4503 H   0  0  0  0  0  0  0  0  0  0  0  0
    1.0118    2.7997   -0.7667 H   0  0  0  0  0  0  0  0  0  0  0  0
    1.2155    1.4060   -1.8027 H   0  0  0  0  0  0  0  0  0  0  0  0
    3.3259    2.2804   -1.2143 H   0  0  0  0  0  0  0  0  0  0  0  0
    3.0030    2.1572    0.5040 H   0  0  0  0  0  0  0  0  0  0  0  0
   -3.7715   -0.6134    1.3388 H   0  0  0  0  0  0  0  0  0  0  0  0
   -1.3392    2.8143   -1.1802 H   0  0  0  0  0  0  0  0  0  0  0  0
   -1.7051    2.6748    0.5191 H   0  0  0  0  0  0  0  0  0  0  0  0
    0.3836   -1.1742    2.3570 H   0  0  0  0  0  0  0  0  0  0  0  0
    0.3628   -2.4420    1.1430 H   0  0  0  0  0  0  0  0  0  0  0  0
    2.5726   -2.5290   -0.4899 H   0  0  0  0  0  0  0  0  0  0  0  0
    2.6310   -2.7434    1.2525 H   0  0  0  0  0  0  0  0  0  0  0  0
   -3.7142    3.1190   -0.7182 H   0  0  0  0  0  0  0  0  0  0  0  0
   -3.4597    1.7435   -1.7645 H   0  0  0  0  0  0  0  0  0  0  0  0
    0.1343    2.7239    1.4146 H   0  0  0  0  0  0  0  0  0  0  0  0
   -0.3813    1.2440    2.2262 H   0  0  0  0  0  0  0  0  0  0  0  0
    1.3161    1.6525    2.0707 H   0  0  0  0  0  0  0  0  0  0  0  0
   -1.9391   -1.8752    1.7153 H   0  0  0  0  0  0  0  0  0  0  0  0
    4.8026   -1.8396   -1.7049 H   0  0  0  0  0  0  0  0  0  0  0  0
    3.2215    0.8390    2.1458 H   0  0  0  0  0  0  0  0  0  0  0  0
    2.2142   -0.4470    2.7876 H   0  0  0  0  0  0  0  0  0  0  0  0
    3.8682   -0.7596    2.4218 H   0  0  0  0  0  0  0  0  0  0  0  0
    5.0117   -2.1672    1.3130 H   0  0  0  0  0  0  0  0  0  0  0  0
    4.7306   -3.4035    0.1302 H   0  0  0  0  0  0  0  0  0  0  0  0
   -0.6213    0.9795   -2.5789 H   0  0  0  0  0  0  0  0  0  0  0  0
   -0.5592   -0.6956   -2.0079 H   0  0  0  0  0  0  0  0  0  0  0  0
   -2.0847    0.0950   -2.2962 H   0  0  0  0  0  0  0  0  0  0  0  0
   -3.9148   -0.7299   -1.6867 H   0  0  0  0  0  0  0  0  0  0  0  0
   -3.5134   -2.1189   -0.7015 H   0  0  0  0  0  0  0  0  0  0  0  0
   -5.6168    1.2098   -1.3210 H   0  0  0  0  0  0  0  0  0  0  0  0
   -6.1405    1.9818    0.1580 H   0  0  0  0  0  0  0  0  0  0  0  0
   -6.2283   -0.2451    1.2824 H   0  0  0  0  0  0  0  0  0  0  0  0
   -7.3080   -0.1364   -0.0903 H   0  0  0  0  0  0  0  0  0  0  0  0
    6.7374    0.5763    0.3881 H   0  0  0  0  0  0  0  0  0  0  0  0
    5.4358    0.2815    1.5237 H   0  0  0  0  0  0  0  0  0  0  0  0
    6.4450    0.5139   -2.0709 H   0  0  0  0  0  0  0  0  0  0  0  0
    4.8450    0.3215   -2.7889 H   0  0  0  0  0  0  0  0  0  0  0  0
    5.2581    1.7978   -1.9191 H   0  0  0  0  0  0  0  0  0  0  0  0
   -4.4229    2.9061    1.6150 H   0  0  0  0  0  0  0  0  0  0  0  0
   -4.7268    1.3324    2.3573 H   0  0  0  0  0  0  0  0  0  0  0  0
   -3.0715    1.8753    2.1051 H   0  0  0  0  0  0  0  0  0  0  0  0
   -5.2787   -2.4622    1.4538 H   0  0  0  0  0  0  0  0  0  0  0  0
   -6.8253   -2.8088    0.6683 H   0  0  0  0  0  0  0  0  0  0  0  0
   -5.3346   -3.5319    0.0476 H   0  0  0  0  0  0  0  0  0  0  0  0
   -7.2947   -1.9762   -1.6715 H   0  0  0  0  0  0  0  0  0  0  0  0
   -6.1598   -0.9009   -2.4975 H   0  0  0  0  0  0  0  0  0  0  0  0
   -5.7552   -2.6088   -2.2718 H   0  0  0  0  0  0  0  0  0  0  0  0
    6.9175   -1.6358    0.1610 H   0  0  0  0  0  0  0  0  0  0  0  0
    5.8927    2.4786    1.2468 H   0  0  0  0  0  0  0  0  0  0  0  0
  1 20  1  0  0  0  0
  1 81  1  0  0  0  0
  2 28  1  0  0  0  0
  2 82  1  0  0  0  0
  3  4  1  0  0  0  0
  3  6  1  0  0  0  0
  3  8  1  0  0  0  0
  3 18  1  0  0  0  0
  4  5  1  0  0  0  0
  4 15  1  0  0  0  0
  4 33  1  0  0  0  0
  5  7  1  0  0  0  0
  5 16  1  0  0  0  0
  5 21  1  0  0  0  0
  6  9  1  0  0  0  0
  6 14  1  0  0  0  0
  6 23  1  0  0  0  0
  7 10  1  0  0  0  0
  7 11  1  0  0  0  0
  7 34  1  0  0  0  0
  8 10  1  0  0  0  0
  8 35  1  0  0  0  0
  8 36  1  0  0  0  0
  9 12  1  0  0  0  0
  9 19  2  0  0  0  0
 10 37  1  0  0  0  0
 10 38  1  0  0  0  0
 11 20  1  0  0  0  0
 11 28  1  0  0  0  0
 11 29  1  0  0  0  0
 12 13  1  0  0  0  0
 12 24  1  0  0  0  0
 12 39  1  0  0  0  0
 13 17  1  0  0  0  0
 13 25  1  0  0  0  0
 13 30  1  0  0  0  0
 14 17  1  0  0  0  0
 14 40  1  0  0  0  0
 14 41  1  0  0  0  0
 15 19  1  0  0  0  0
 15 42  1  0  0  0  0
 15 43  1  0  0  0  0
 16 22  1  0  0  0  0
 16 44  1  0  0  0  0
 16 45  1  0  0  0  0
 17 46  1  0  0  0  0
 17 47  1  0  0  0  0
 18 48  1  0  0  0  0
 18 49  1  0  0  0  0
 18 50  1  0  0  0  0
 19 51  1  0  0  0  0
 20 22  1  0  0  0  0
 20 52  1  0  0  0  0
 21 53  1  0  0  0  0
 21 54  1  0  0  0  0
 21 55  1  0  0  0  0
 22 56  1  0  0  0  0
 22 57  1  0  0  0  0
 23 58  1  0  0  0  0
 23 59  1  0  0  0  0
 23 60  1  0  0  0  0
 24 26  1  0  0  0  0
 24 61  1  0  0  0  0
 24 62  1  0  0  0  0
 25 27  1  0  0  0  0
 25 63  1  0  0  0  0
 25 64  1  0  0  0  0
 26 27  1  0  0  0  0
 26 31  1  0  0  0  0
 26 32  1  0  0  0  0
 27 65  1  0  0  0  0
 27 66  1  0  0  0  0
 28 67  1  0  0  0  0
 28 68  1  0  0  0  0
 29 69  1  0  0  0  0
 29 70  1  0  0  0  0
 29 71  1  0  0  0  0
 30 72  1  0  0  0  0
 30 73  1  0  0  0  0
 30 74  1  0  0  0  0
 31 75  1  0  0  0  0
 31 76  1  0  0  0  0
 31 77  1  0  0  0  0
 32 78  1  0  0  0  0
 32 79  1  0  0  0  0
 32 80  1  0  0  0  0
M  END
> <PUBCHEM_COMPOUND_CID>
14167253

> <PUBCHEM_CONFORMER_RMSD>
0.8

> <PUBCHEM_CONFORMER_DIVERSEORDER>
1
2

> <PUBCHEM_MMFF94_PARTIAL_CHARGES>
12
1 -0.68
12 0.14
15 0.14
19 -0.29
2 -0.68
20 0.28
28 0.28
51 0.15
6 0.14
81 0.4
82 0.4
9 -0.28

> <PUBCHEM_EFFECTIVE_ROTOR_COUNT>
3.6

> <PUBCHEM_PHARMACOPHORE_FEATURES>
10
1 1 acceptor
1 1 donor
1 2 acceptor
1 2 donor
3 26 31 32 hydrophobe
6 12 13 24 25 26 27 rings
6 3 4 5 7 8 10 rings
6 3 4 6 9 15 19 rings
6 5 7 11 16 20 22 rings
6 6 9 12 13 14 17 rings

> <PUBCHEM_HEAVY_ATOM_COUNT>
32

> <PUBCHEM_ATOM_DEF_STEREO_COUNT>
9

> <PUBCHEM_ATOM_UDEF_STEREO_COUNT>
0

> <PUBCHEM_BOND_DEF_STEREO_COUNT>
0

> <PUBCHEM_BOND_UDEF_STEREO_COUNT>
0

> <PUBCHEM_ISOTOPIC_ATOM_COUNT>
0

> <PUBCHEM_COMPONENT_COUNT>
1

> <PUBCHEM_CACTVS_TAUTO_COUNT>
1

> <PUBCHEM_CONFORMER_ID>
00D82CD500000001

> <PUBCHEM_MMFF94_ENERGY>
152.8181

> <PUBCHEM_FEATURE_SELFOVERLAP>
50.808

> <PUBCHEM_SHAPE_FINGERPRINT>
10595046 47 18410011039492997121
11524674 6 16443067201576015015
11545043 162 17458346359769723113
11578080 2 17315086454375417386
11991303 11 15554437462462784587
12107183 9 17832985327550342993
12166972 35 18261107461172706736
12236239 1 18333167275808634733
12516196 113 18334858311685946201
12596602 18 18113054934847695304
12788726 201 18197777910911706224
13533116 47 18334858268783810872
13583140 156 16443349823034348289
1361 2 18412262835355314550
13782708 43 17313106345434325631
14347332 77 18409452500988044613
14787075 74 18343582953742929393
14790565 3 17987509475899754660
14840074 17 17489862739488333439
14856354 85 17748821934787214957
14955137 171 17894352180778842145
15082195 135 17844514518996085196
15183329 4 18201718465810992222
15799311 1 18336532915303492367
17349148 13 18260543437767046265
17844677 252 18040712571682915392
17857418 61 18411702084450821087
18681886 176 18410577262728651216
18927931 339 17967813834976821655
19958102 18 18273219702770830399
21033648 29 14923946803438576233
21236236 1 18410009957794390779
21267235 1 18342171151676534619
21424621 283 13541922273498778175
221357 26 18342176678207343437
22393880 68 18058455463871612852
22950370 63 18409448119731031885
23516275 137 17971165223016843203
23522609 53 18194087868005143877
23559900 14 18340492149696427369
23569914 152 17264166185571870879
23569943 247 18055635268376821154
24771293 8 18271529698028899324
24771750 20 17270018511797777181
2838139 119 14045473228131598639
3004659 81 18271524290870152210
34797466 226 17676200235201924840
350125 39 18411139143372463289
3633792 109 18272380763294124773
4073 2 18201995495575692667
4325135 7 18273493494272100982
497634 4 18335700576827926261
504579 68 18341059570932064551
5104073 3 18334016120186145096
6086070 43 17676217870881202001
6913067 236 16630535028842822180
7495541 125 17748830700066490281

> <PUBCHEM_SHAPE_MULTIPOLES>
646.81
16.1
2.56
1.53
1.01
0.31
-0.02
5.44
-3.7
0.65
0.09
-0.12
-0.07
-0.75

> <PUBCHEM_SHAPE_SELFOVERLAP>
1366.612

> <PUBCHEM_SHAPE_VOLUME>
359

> <PUBCHEM_COORDINATE_TYPE>
2
5
10

$$$$

