39929
  -OEChem-07051213112D

 21 23  0     0  0  0  0  0  0999 V2000
    8.3764   -1.4303    0.0000 Cl  0  0  0  0  0  0  0  0  0  0  0  0
    2.6330   -1.4303    0.0000 Cl  0  0  0  0  0  0  0  0  0  0  0  0
    2.0000    0.5178    0.0000 Cl  0  0  0  0  0  0  0  0  0  0  0  0
    9.0094    0.5178    0.0000 Cl  0  0  0  0  0  0  0  0  0  0  0  0
    5.5047    1.4303    0.0000 O   0  0  0  0  0  0  0  0  0  0  0  0
    6.0047   -0.1085    0.0000 C   0  0  0  0  0  0  0  0  0  0  0  0
    5.0047   -0.1085    0.0000 C   0  0  0  0  0  0  0  0  0  0  0  0
    6.3137    0.8425    0.0000 C   0  0  0  0  0  0  0  0  0  0  0  0
    4.6957    0.8425    0.0000 C   0  0  0  0  0  0  0  0  0  0  0  0
    4.3197   -0.8933    0.0000 C   0  0  0  0  0  0  0  0  0  0  0  0
    6.6897   -0.8933    0.0000 C   0  0  0  0  0  0  0  0  0  0  0  0
    7.3291    1.0748    0.0000 C   0  0  0  0  0  0  0  0  0  0  0  0
    3.6803    1.0748    0.0000 C   0  0  0  0  0  0  0  0  0  0  0  0
    7.7102   -0.6846    0.0000 C   0  0  0  0  0  0  0  0  0  0  0  0
    3.2992   -0.6846    0.0000 C   0  0  0  0  0  0  0  0  0  0  0  0
    8.0321    0.3061    0.0000 C   0  0  0  0  0  0  0  0  0  0  0  0
    2.9773    0.3061    0.0000 C   0  0  0  0  0  0  0  0  0  0  0  0
    6.4913   -1.4807    0.0000 H   0  0  0  0  0  0  0  0  0  0  0  0
    4.5181   -1.4807    0.0000 H   0  0  0  0  0  0  0  0  0  0  0  0
    7.5139    1.6666    0.0000 H   0  0  0  0  0  0  0  0  0  0  0  0
    3.4955    1.6666    0.0000 H   0  0  0  0  0  0  0  0  0  0  0  0
  1 14  1  0  0  0  0
  2 15  1  0  0  0  0
  3 17  1  0  0  0  0
  4 16  1  0  0  0  0
  5  8  1  0  0  0  0
  5  9  1  0  0  0  0
  6  7  1  0  0  0  0
  6  8  1  0  0  0  0
  6 11  2  0  0  0  0
  7  9  1  0  0  0  0
  7 10  2  0  0  0  0
  8 12  2  0  0  0  0
  9 13  2  0  0  0  0
 10 15  1  0  0  0  0
 10 19  1  0  0  0  0
 11 14  1  0  0  0  0
 11 18  1  0  0  0  0
 12 16  1  0  0  0  0
 12 20  1  0  0  0  0
 13 17  1  0  0  0  0
 13 21  1  0  0  0  0
 14 16  2  0  0  0  0
 15 17  2  0  0  0  0
M  END
> <PUBCHEM_COMPOUND_CID>
39929

> <PUBCHEM_COMPOUND_CANONICALIZED>
1

> <PUBCHEM_CACTVS_COMPLEXITY>
272

> <PUBCHEM_CACTVS_HBOND_ACCEPTOR>
1

> <PUBCHEM_CACTVS_HBOND_DONOR>
0

> <PUBCHEM_CACTVS_ROTATABLE_BOND>
0

> <PUBCHEM_CACTVS_SUBSKEYS>
AAADcYBwIAAHAAAAAAAAAAAAAAAAASAAAAAwYAAAAAAAAEgB/AAAGgIAAAAADAaAmCAwBsAABECIAqBSAAACCAAkJQAAikEGCsgMJjKFNhqCOSCkwBEIrYeIyOCOhCAAIQAIAAQIQABCABAACAAAAAAAAA==

> <PUBCHEM_IUPAC_OPENEYE_NAME>
2,3,7,8-tetrachlorodibenzofuran

> <PUBCHEM_IUPAC_CAS_NAME>
2,3,7,8-tetrachlorodibenzofuran

> <PUBCHEM_IUPAC_NAME>
2,3,7,8-tetrachlorodibenzofuran

> <PUBCHEM_IUPAC_SYSTEMATIC_NAME>
2,3,7,8-tetrakis(chloranyl)dibenzofuran

> <PUBCHEM_IUPAC_TRADITIONAL_NAME>
2,3,7,8-tetrachlorodibenzofuran

> <PUBCHEM_IUPAC_INCHI>
InChI=1S/C12H4Cl4O/c13-7-1-5-6-2-8(14)10(16)4-12(6)17-11(5)3-9(7)15/h1-4H

> <PUBCHEM_IUPAC_INCHIKEY>
KSMVNVHUTQZITP-UHFFFAOYSA-N

> <PUBCHEM_XLOGP3>
6.5

> <PUBCHEM_EXACT_MASS>
305.898675

> <PUBCHEM_MOLECULAR_FORMULA>
C12H4Cl4O

> <PUBCHEM_MOLECULAR_WEIGHT>
305.97156

> <PUBCHEM_OPENEYE_CAN_SMILES>
C1=C2C3=CC(=C(C=C3OC2=CC(=C1Cl)Cl)Cl)Cl

> <PUBCHEM_OPENEYE_ISO_SMILES>
C1=C2C3=CC(=C(C=C3OC2=CC(=C1Cl)Cl)Cl)Cl

> <PUBCHEM_CACTVS_TPSA>
13.1

> <PUBCHEM_MONOISOTOPIC_WEIGHT>
303.901625

> <PUBCHEM_TOTAL_CHARGE>
0

> <PUBCHEM_HEAVY_ATOM_COUNT>
17

> <PUBCHEM_ATOM_DEF_STEREO_COUNT>
0

> <PUBCHEM_ATOM_UDEF_STEREO_COUNT>
0

> <PUBCHEM_BOND_DEF_STEREO_COUNT>
0

> <PUBCHEM_BOND_UDEF_STEREO_COUNT>
0

> <PUBCHEM_ISOTOPIC_ATOM_COUNT>
0

> <PUBCHEM_COMPONENT_COUNT>
1

> <PUBCHEM_CACTVS_TAUTO_COUNT>
1

> <PUBCHEM_COORDINATE_TYPE>
1
5
255

> <PUBCHEM_BONDANNOTATIONS>
10  15  8
11  14  8
12  16  8
13  17  8
14  16  8
15  17  8
5  8  8
5  9  8
6  11  8
6  7  8
6  8  8
7  10  8
7  9  8
8  12  8
9  13  8

$$$$

