168985
  -OEChem-07051213103D

 51 55  0     1  0  0  0  0  0999 V2000
    4.2994    0.0384    0.9880 O   0  0  0  0  0  0  0  0  0  0  0  0
   -1.6400    2.7066   -1.7632 O   0  0  0  0  0  0  0  0  0  0  0  0
    1.1594   -2.6533   -1.1256 O   0  0  0  0  0  0  0  0  0  0  0  0
    1.6318   -3.1425    1.0872 O   0  0  0  0  0  0  0  0  0  0  0  0
    0.5086    2.1168    0.5095 N   0  0  2  0  0  0  0  0  0  0  0  0
   -3.1569    0.9310   -1.5629 N   0  0  0  0  0  0  0  0  0  0  0  0
   -0.1335    0.8237    0.2566 C   0  0  1  0  0  0  0  0  0  0  0  0
   -1.6150    1.2199    0.2244 C   0  0  2  0  0  0  0  0  0  0  0  0
    0.4616    0.1888   -0.9976 C   0  0  0  0  0  0  0  0  0  0  0  0
    2.6632    1.2968   -0.3989 C   0  0  1  0  0  0  0  0  0  0  0  0
    1.9846   -0.0283   -0.8517 C   0  0  1  0  0  0  0  0  0  0  0  0
   -1.7109    2.3432    1.2751 C   0  0  0  0  0  0  0  0  0  0  0  0
    1.9288    1.9608    0.7993 C   0  0  0  0  0  0  0  0  0  0  0  0
   -0.2595    2.7180    1.5969 C   0  0  0  0  0  0  0  0  0  0  0  0
   -2.5580    0.0701    0.4620 C   0  0  0  0  0  0  0  0  0  0  0  0
    4.1413    1.0492   -0.0233 C   0  0  2  0  0  0  0  0  0  0  0  0
   -2.0988    1.7497   -1.1570 C   0  0  0  0  0  0  0  0  0  0  0  0
    2.4002   -1.1423    0.0740 C   0  0  0  0  0  0  0  0  0  0  0  0
   -3.4291   -0.0511   -0.6188 C   0  0  0  0  0  0  0  0  0  0  0  0
   -2.6492   -0.8076    1.5287 C   0  0  0  0  0  0  0  0  0  0  0  0
    5.0212    0.6986   -1.2243 C   0  0  0  0  0  0  0  0  0  0  0  0
    3.4531   -1.0367    0.8960 C   0  0  0  0  0  0  0  0  0  0  0  0
   -4.4050   -1.0258   -0.6863 C   0  0  0  0  0  0  0  0  0  0  0  0
    1.6971   -2.4266    0.0998 C   0  0  0  0  0  0  0  0  0  0  0  0
   -3.6288   -1.8049    1.4855 C   0  0  0  0  0  0  0  0  0  0  0  0
   -4.4994   -1.9129    0.3866 C   0  0  0  0  0  0  0  0  0  0  0  0
    0.4338   -3.8797   -1.2601 C   0  0  0  0  0  0  0  0  0  0  0  0
    0.0413    0.1499    1.1089 H   0  0  0  0  0  0  0  0  0  0  0  0
    0.3133    0.8513   -1.8608 H   0  0  0  0  0  0  0  0  0  0  0  0
   -0.0846   -0.7250   -1.2404 H   0  0  0  0  0  0  0  0  0  0  0  0
    2.6251    2.0050   -1.2391 H   0  0  0  0  0  0  0  0  0  0  0  0
    2.3658   -0.2876   -1.8492 H   0  0  0  0  0  0  0  0  0  0  0  0
   -2.2198    2.0244    2.1920 H   0  0  0  0  0  0  0  0  0  0  0  0
   -2.2505    3.2158    0.8878 H   0  0  0  0  0  0  0  0  0  0  0  0
    2.0757    1.3805    1.7190 H   0  0  0  0  0  0  0  0  0  0  0  0
    2.3715    2.9493    0.9745 H   0  0  0  0  0  0  0  0  0  0  0  0
   -0.1250    3.8034    1.6373 H   0  0  0  0  0  0  0  0  0  0  0  0
    0.0176    2.2978    2.5721 H   0  0  0  0  0  0  0  0  0  0  0  0
    4.5484    1.9722    0.4081 H   0  0  0  0  0  0  0  0  0  0  0  0
   -3.6722    1.0350   -2.4290 H   0  0  0  0  0  0  0  0  0  0  0  0
   -1.9814   -0.7317    2.3800 H   0  0  0  0  0  0  0  0  0  0  0  0
    4.9586    1.4697   -1.9980 H   0  0  0  0  0  0  0  0  0  0  0  0
    6.0666    0.6079   -0.9091 H   0  0  0  0  0  0  0  0  0  0  0  0
    4.7498   -0.2648   -1.6670 H   0  0  0  0  0  0  0  0  0  0  0  0
    3.7737   -1.8012    1.5917 H   0  0  0  0  0  0  0  0  0  0  0  0
   -5.0750   -1.1060   -1.5347 H   0  0  0  0  0  0  0  0  0  0  0  0
   -3.7192   -2.5061    2.3108 H   0  0  0  0  0  0  0  0  0  0  0  0
   -5.2529   -2.6958    0.3751 H   0  0  0  0  0  0  0  0  0  0  0  0
    0.0660   -3.9458   -2.2874 H   0  0  0  0  0  0  0  0  0  0  0  0
   -0.4228   -3.8874   -0.5792 H   0  0  0  0  0  0  0  0  0  0  0  0
    1.0907   -4.7327   -1.0657 H   0  0  0  0  0  0  0  0  0  0  0  0
  1 16  1  0  0  0  0
  1 22  1  0  0  0  0
  2 17  2  0  0  0  0
  3 24  1  0  0  0  0
  3 27  1  0  0  0  0
  4 24  2  0  0  0  0
  5  7  1  0  0  0  0
  5 13  1  0  0  0  0
  5 14  1  0  0  0  0
  6 17  1  0  0  0  0
  6 19  1  0  0  0  0
  6 40  1  0  0  0  0
  7  8  1  0  0  0  0
  7  9  1  0  0  0  0
  7 28  1  0  0  0  0
  8 12  1  0  0  0  0
  8 15  1  0  0  0  0
  8 17  1  0  0  0  0
  9 11  1  0  0  0  0
  9 29  1  0  0  0  0
  9 30  1  0  0  0  0
 10 11  1  0  0  0  0
 10 13  1  0  0  0  0
 10 16  1  0  0  0  0
 10 31  1  0  0  0  0
 11 18  1  0  0  0  0
 11 32  1  0  0  0  0
 12 14  1  0  0  0  0
 12 33  1  0  0  0  0
 12 34  1  0  0  0  0
 13 35  1  0  0  0  0
 13 36  1  0  0  0  0
 14 37  1  0  0  0  0
 14 38  1  0  0  0  0
 15 19  1  0  0  0  0
 15 20  2  0  0  0  0
 16 21  1  0  0  0  0
 16 39  1  0  0  0  0
 18 22  2  0  0  0  0
 18 24  1  0  0  0  0
 19 23  2  0  0  0  0
 20 25  1  0  0  0  0
 20 41  1  0  0  0  0
 21 42  1  0  0  0  0
 21 43  1  0  0  0  0
 21 44  1  0  0  0  0
 22 45  1  0  0  0  0
 23 26  1  0  0  0  0
 23 46  1  0  0  0  0
 25 26  2  0  0  0  0
 25 47  1  0  0  0  0
 26 48  1  0  0  0  0
 27 49  1  0  0  0  0
 27 50  1  0  0  0  0
 27 51  1  0  0  0  0
M  END
> <PUBCHEM_COMPOUND_CID>
168985

> <PUBCHEM_CONFORMER_RMSD>
0.8

> <PUBCHEM_CONFORMER_DIVERSEORDER>
1
3
5
4
2

> <PUBCHEM_MMFF94_PARTIAL_CHARGES>
29
1 -0.36
11 0.14
13 0.27
14 0.27
15 -0.14
16 0.28
17 0.57
18 -0.12
19 0.12
2 -0.57
20 -0.15
22 -0.07
23 -0.15
24 0.71
25 -0.15
26 -0.15
27 0.28
3 -0.43
4 -0.57
40 0.37
41 0.15
45 0.15
46 0.15
47 0.15
48 0.15
5 -0.81
6 -0.55
7 0.27
8 0.2

> <PUBCHEM_EFFECTIVE_ROTOR_COUNT>
3.4

> <PUBCHEM_PHARMACOPHORE_FEATURES>
10
1 1 acceptor
1 2 acceptor
1 4 acceptor
1 5 cation
1 6 donor
5 5 7 8 12 14 rings
5 6 8 15 17 19 rings
6 1 10 11 16 18 22 rings
6 15 19 20 23 25 26 rings
6 5 7 9 10 11 13 rings

> <PUBCHEM_HEAVY_ATOM_COUNT>
27

> <PUBCHEM_ATOM_DEF_STEREO_COUNT>
5

> <PUBCHEM_ATOM_UDEF_STEREO_COUNT>
0

> <PUBCHEM_BOND_DEF_STEREO_COUNT>
0

> <PUBCHEM_BOND_UDEF_STEREO_COUNT>
0

> <PUBCHEM_ISOTOPIC_ATOM_COUNT>
0

> <PUBCHEM_COMPONENT_COUNT>
1

> <PUBCHEM_CACTVS_TAUTO_COUNT>
2

> <PUBCHEM_CONFORMER_ID>
0002941900000001

> <PUBCHEM_MMFF94_ENERGY>
80.3502

> <PUBCHEM_FEATURE_SELFOVERLAP>
51.003

> <PUBCHEM_SHAPE_FINGERPRINT>
10366900 7 18341049631723554849
10616163 171 18410008870613698979
10759866 29 17988640762380972802
1100329 8 18046068151404136088
11370993 70 17918283064157704154
11513181 2 16667954467495193958
11578080 2 17700122485559717212
12156800 1 12241550864242392851
12506688 2 18411135823061757907
12553582 1 18187643583446744195
12596602 18 16371288805986834235
12633257 1 17983862456260248258
13140716 1 18047473326921769866
13224815 77 18113901606261838064
13402501 40 18199745852300092955
13544653 18 18410289181928689457
13911987 19 18336264531334235980
14178342 30 18190739924160213424
14223421 5 18338795744429338702
14659021 117 16391843492468231527
14787075 74 18264486196296363452
14840074 17 18267855099866113447
15324884 4 17910411493612597917
17980427 23 16415186854849112836
18981168 100 5977240341631678355
19591789 44 18191587449856272678
20028762 73 17533214159510883055
20905425 154 18272093824433659451
21285901 2 18131080342149414111
21421861 104 18192977425890276131
21857420 4 13306656776104110765
22393880 68 18271523221212085022
23558518 356 17831581242427076336
23559900 14 18123766501985417618
238 59 18193869022525503711
3383291 50 18260821627970365734
3493558 16 13537367794923849910
3797600 57 18335136484233518346
392239 28 18042138574187460128
4258327 124 17485350194404779180
445580 102 18410293622740646947
463206 1 18121502350141727163
5309563 4 18266736875493083627
81228 2 16966052393612390922
9709674 26 18270685405857079399

> <PUBCHEM_SHAPE_MULTIPOLES>
522.21
8.17
3.69
1.56
0.91
2.07
0.07
1.68
0.2
0.01
0.01
-0.58
-0.25
0.51

> <PUBCHEM_SHAPE_SELFOVERLAP>
1155.448

> <PUBCHEM_SHAPE_VOLUME>
278.8

> <PUBCHEM_COORDINATE_TYPE>
2
5
10

$$$$

