91751
  -OEChem-07051213002D

 44 45  0     0  0  0  0  0  0999 V2000
    4.5981   -1.6230    0.0000 S   0  0  0  0  0  0  0  0  0  0  0  0
    6.3301    2.3770    0.0000 F   0  0  0  0  0  0  0  0  0  0  0  0
    4.9641    2.7430    0.0000 F   0  0  0  0  0  0  0  0  0  0  0  0
    5.9641    1.0110    0.0000 F   0  0  0  0  0  0  0  0  0  0  0  0
    4.0981   -2.4890    0.0000 O   0  0  0  0  0  0  0  0  0  0  0  0
    5.0981   -0.7570    0.0000 O   0  0  0  0  0  0  0  0  0  0  0  0
    6.3301   -0.6230    0.0000 O   0  0  0  0  0  0  0  0  0  0  0  0
   10.6603   -2.1230    0.0000 O   0  0  0  0  0  0  0  0  0  0  0  0
    5.4641   -2.1230    0.0000 N   0  0  0  0  0  0  0  0  0  0  0  0
    7.1962   -2.1230    0.0000 N   0  0  0  0  0  0  0  0  0  0  0  0
    8.0622   -0.6230    0.0000 N   0  0  0  0  0  0  0  0  0  0  0  0
    8.9282   -2.1230    0.0000 N   0  0  0  0  0  0  0  0  0  0  0  0
    9.7942   -0.6230    0.0000 N   0  0  0  0  0  0  0  0  0  0  0  0
    3.7320   -0.1230    0.0000 C   0  0  0  0  0  0  0  0  0  0  0  0
    4.5981    0.3770    0.0000 C   0  0  0  0  0  0  0  0  0  0  0  0
    3.7320   -1.1230    0.0000 C   0  0  0  0  0  0  0  0  0  0  0  0
    4.5981    1.3770    0.0000 C   0  0  0  0  0  0  0  0  0  0  0  0
    2.8660    0.3770    0.0000 C   0  0  0  0  0  0  0  0  0  0  0  0
    2.8660   -1.6230    0.0000 C   0  0  0  0  0  0  0  0  0  0  0  0
    5.4641    1.8770    0.0000 C   0  0  0  0  0  0  0  0  0  0  0  0
    2.0000   -0.1230    0.0000 C   0  0  0  0  0  0  0  0  0  0  0  0
    2.0000   -1.1230    0.0000 C   0  0  0  0  0  0  0  0  0  0  0  0
    6.3301   -1.6230    0.0000 C   0  0  0  0  0  0  0  0  0  0  0  0
    8.0622   -1.6230    0.0000 C   0  0  0  0  0  0  0  0  0  0  0  0
    8.9282   -0.1230    0.0000 C   0  0  0  0  0  0  0  0  0  0  0  0
    9.7942   -1.6230    0.0000 C   0  0  0  0  0  0  0  0  0  0  0  0
    8.9282    0.8770    0.0000 C   0  0  0  0  0  0  0  0  0  0  0  0
   11.5263   -1.6230    0.0000 C   0  0  0  0  0  0  0  0  0  0  0  0
    4.8101   -0.2056    0.0000 H   0  0  0  0  0  0  0  0  0  0  0  0
    5.2087    0.4846    0.0000 H   0  0  0  0  0  0  0  0  0  0  0  0
    4.3860    1.9596    0.0000 H   0  0  0  0  0  0  0  0  0  0  0  0
    3.9875    1.2693    0.0000 H   0  0  0  0  0  0  0  0  0  0  0  0
    2.8660    0.9970    0.0000 H   0  0  0  0  0  0  0  0  0  0  0  0
    2.8660   -2.2430    0.0000 H   0  0  0  0  0  0  0  0  0  0  0  0
    1.4631    0.1870    0.0000 H   0  0  0  0  0  0  0  0  0  0  0  0
    1.4631   -1.4330    0.0000 H   0  0  0  0  0  0  0  0  0  0  0  0
    5.4641   -2.7430    0.0000 H   0  0  0  0  0  0  0  0  0  0  0  0
    7.1962   -2.7430    0.0000 H   0  0  0  0  0  0  0  0  0  0  0  0
    9.5482    0.8770    0.0000 H   0  0  0  0  0  0  0  0  0  0  0  0
    8.9282    1.4970    0.0000 H   0  0  0  0  0  0  0  0  0  0  0  0
    8.3082    0.8770    0.0000 H   0  0  0  0  0  0  0  0  0  0  0  0
   11.8363   -2.1599    0.0000 H   0  0  0  0  0  0  0  0  0  0  0  0
   12.0632   -1.3130    0.0000 H   0  0  0  0  0  0  0  0  0  0  0  0
   11.2163   -1.0861    0.0000 H   0  0  0  0  0  0  0  0  0  0  0  0
  1  5  2  0  0  0  0
  1  6  2  0  0  0  0
  1  9  1  0  0  0  0
  1 16  1  0  0  0  0
  2 20  1  0  0  0  0
  3 20  1  0  0  0  0
  4 20  1  0  0  0  0
  7 23  2  0  0  0  0
  8 26  1  0  0  0  0
  8 28  1  0  0  0  0
  9 23  1  0  0  0  0
  9 37  1  0  0  0  0
 10 23  1  0  0  0  0
 10 24  1  0  0  0  0
 10 38  1  0  0  0  0
 11 24  1  0  0  0  0
 11 25  2  0  0  0  0
 12 24  2  0  0  0  0
 12 26  1  0  0  0  0
 13 25  1  0  0  0  0
 13 26  2  0  0  0  0
 14 15  1  0  0  0  0
 14 16  1  0  0  0  0
 14 18  2  0  0  0  0
 15 17  1  0  0  0  0
 15 29  1  0  0  0  0
 15 30  1  0  0  0  0
 16 19  2  0  0  0  0
 17 20  1  0  0  0  0
 17 31  1  0  0  0  0
 17 32  1  0  0  0  0
 18 21  1  0  0  0  0
 18 33  1  0  0  0  0
 19 22  1  0  0  0  0
 19 34  1  0  0  0  0
 21 22  2  0  0  0  0
 21 35  1  0  0  0  0
 22 36  1  0  0  0  0
 25 27  1  0  0  0  0
 27 39  1  0  0  0  0
 27 40  1  0  0  0  0
 27 41  1  0  0  0  0
 28 42  1  0  0  0  0
 28 43  1  0  0  0  0
 28 44  1  0  0  0  0
M  END
> <PUBCHEM_COMPOUND_CID>
91751

> <PUBCHEM_COMPOUND_CANONICALIZED>
1

> <PUBCHEM_CACTVS_COMPLEXITY>
628

> <PUBCHEM_CACTVS_HBOND_ACCEPTOR>
10

> <PUBCHEM_CACTVS_HBOND_DONOR>
2

> <PUBCHEM_CACTVS_ROTATABLE_BOND>
6

> <PUBCHEM_CACTVS_SUBSKEYS>
AAADceBzuYBAAAAAAAAAAAAAAAAAAAAAAAA8QAAAAAAAAAABwAAAHwQQQAAADACBWxIzEYbIFAKoAiJiNHBCgBkgAKAJiBgQAIiIKCKAGRCAIAAogQIIiAcAgIAOAAAAAAAEAAAAAAAAAAgAAAAAAAAAAA==

> <PUBCHEM_IUPAC_OPENEYE_NAME>
1-(4-methoxy-6-methyl-1,3,5-triazin-2-yl)-3-[2-(3,3,3-trifluoropropyl)phenyl]sulfonyl-urea

> <PUBCHEM_IUPAC_CAS_NAME>
1-(4-methoxy-6-methyl-1,3,5-triazin-2-yl)-3-[2-(3,3,3-trifluoropropyl)phenyl]sulfonylurea

> <PUBCHEM_IUPAC_NAME>
1-(4-methoxy-6-methyl-1,3,5-triazin-2-yl)-3-[2-(3,3,3-trifluoropropyl)phenyl]sulfonylurea

> <PUBCHEM_IUPAC_SYSTEMATIC_NAME>
1-(4-methoxy-6-methyl-1,3,5-triazin-2-yl)-3-[2-[3,3,3-tris(fluoranyl)propyl]phenyl]sulfonyl-urea

> <PUBCHEM_IUPAC_TRADITIONAL_NAME>
1-(4-methoxy-6-methyl-s-triazin-2-yl)-3-[2-(3,3,3-trifluoropropyl)phenyl]sulfonyl-urea

> <PUBCHEM_IUPAC_INCHI>
InChI=1S/C15H16F3N5O4S/c1-9-19-12(22-14(20-9)27-2)21-13(24)23-28(25,26)11-6-4-3-5-10(11)7-8-15(16,17)18/h3-6H,7-8H2,1-2H3,(H2,19,20,21,22,23,24)

> <PUBCHEM_IUPAC_INCHIKEY>
LTUNNEGNEKBSEH-UHFFFAOYSA-N

> <PUBCHEM_XLOGP3_AA>
3.4

> <PUBCHEM_EXACT_MASS>
419.08751

> <PUBCHEM_MOLECULAR_FORMULA>
C15H16F3N5O4S

> <PUBCHEM_MOLECULAR_WEIGHT>
419.37885

> <PUBCHEM_OPENEYE_CAN_SMILES>
CC1=NC(=NC(=N1)OC)NC(=O)NS(=O)(=O)C2=CC=CC=C2CCC(F)(F)F

> <PUBCHEM_OPENEYE_ISO_SMILES>
CC1=NC(=NC(=N1)OC)NC(=O)NS(=O)(=O)C2=CC=CC=C2CCC(F)(F)F

> <PUBCHEM_CACTVS_TPSA>
132

> <PUBCHEM_MONOISOTOPIC_WEIGHT>
419.08751

> <PUBCHEM_TOTAL_CHARGE>
0

> <PUBCHEM_HEAVY_ATOM_COUNT>
28

> <PUBCHEM_ATOM_DEF_STEREO_COUNT>
0

> <PUBCHEM_ATOM_UDEF_STEREO_COUNT>
0

> <PUBCHEM_BOND_DEF_STEREO_COUNT>
0

> <PUBCHEM_BOND_UDEF_STEREO_COUNT>
0

> <PUBCHEM_ISOTOPIC_ATOM_COUNT>
0

> <PUBCHEM_COMPONENT_COUNT>
1

> <PUBCHEM_CACTVS_TAUTO_COUNT>
9

> <PUBCHEM_COORDINATE_TYPE>
1
5
255

> <PUBCHEM_BONDANNOTATIONS>
11  24  8
11  25  8
12  24  8
12  26  8
13  25  8
13  26  8
14  16  8
14  18  8
16  19  8
18  21  8
19  22  8
21  22  8

$$$$

