17395549
  -OEChem-06241222512D

 52 56  0     0  0  0  0  0  0999 V2000
    7.2129    3.4594    0.0000 S   0  0  0  0  0  0  0  0  0  0  0  0
    6.2619   -3.9222    0.0000 O   0  0  0  0  0  0  0  0  0  0  0  0
    5.2531    1.4290    0.0000 O   0  0  0  0  0  0  0  0  0  0  0  0
    5.6103   -0.2659    0.0000 N   0  0  0  0  0  0  0  0  0  0  0  0
    4.6783   -3.1174    0.0000 N   0  0  0  0  0  0  0  0  0  0  0  0
    4.6783   -4.7269    0.0000 N   0  0  0  0  0  0  0  0  0  0  0  0
    8.1617    2.1488    0.0000 N   0  0  0  0  0  0  0  0  0  0  0  0
    4.9889   -2.1669    0.0000 C   0  0  0  0  0  0  0  0  0  0  0  0
    4.3211   -1.4226    0.0000 C   0  0  0  0  0  0  0  0  0  0  0  0
    5.9674   -1.9607    0.0000 C   0  0  0  0  0  0  0  0  0  0  0  0
    4.6318   -0.4721    0.0000 C   0  0  0  0  0  0  0  0  0  0  0  0
    6.2781   -1.0102    0.0000 C   0  0  0  0  0  0  0  0  0  0  0  0
    3.7320   -3.4222    0.0000 C   0  0  0  0  0  0  0  0  0  0  0  0
    5.2619   -3.9222    0.0000 C   0  0  0  0  0  0  0  0  0  0  0  0
    5.9209    0.6846    0.0000 C   0  0  0  0  0  0  0  0  0  0  0  0
    3.7320   -4.4222    0.0000 C   0  0  0  0  0  0  0  0  0  0  0  0
    6.8994    0.8909    0.0000 C   0  0  0  0  0  0  0  0  0  0  0  0
    2.8660   -2.9222    0.0000 C   0  0  0  0  0  0  0  0  0  0  0  0
    2.8660   -4.9222    0.0000 C   0  0  0  0  0  0  0  0  0  0  0  0
    2.0000   -3.4222    0.0000 C   0  0  0  0  0  0  0  0  0  0  0  0
    2.0000   -4.4222    0.0000 C   0  0  0  0  0  0  0  0  0  0  0  0
    7.2101    1.8414    0.0000 C   0  0  0  0  0  0  0  0  0  0  0  0
    6.6237    2.6514    0.0000 C   0  0  0  0  0  0  0  0  0  0  0  0
    8.1634    3.1488    0.0000 C   0  0  0  0  0  0  0  0  0  0  0  0
    8.9734    3.7351    0.0000 C   0  0  0  0  0  0  0  0  0  0  0  0
    9.8863    3.3268    0.0000 C   0  0  0  0  0  0  0  0  0  0  0  0
    8.8706    4.7298    0.0000 C   0  0  0  0  0  0  0  0  0  0  0  0
   10.6963    3.9132    0.0000 C   0  0  0  0  0  0  0  0  0  0  0  0
    9.6807    5.3162    0.0000 C   0  0  0  0  0  0  0  0  0  0  0  0
   10.5935    4.9079    0.0000 C   0  0  0  0  0  0  0  0  0  0  0  0
    5.4030   -2.6284    0.0000 H   0  0  0  0  0  0  0  0  0  0  0  0
    5.9880   -2.5804    0.0000 H   0  0  0  0  0  0  0  0  0  0  0  0
    6.5812   -2.0480    0.0000 H   0  0  0  0  0  0  0  0  0  0  0  0
    3.7742   -1.1306    0.0000 H   0  0  0  0  0  0  0  0  0  0  0  0
    3.9385   -1.9105    0.0000 H   0  0  0  0  0  0  0  0  0  0  0  0
    6.8250   -1.3022    0.0000 H   0  0  0  0  0  0  0  0  0  0  0  0
    6.6607   -0.5223    0.0000 H   0  0  0  0  0  0  0  0  0  0  0  0
    4.6112    0.1476    0.0000 H   0  0  0  0  0  0  0  0  0  0  0  0
    4.0179   -0.3847    0.0000 H   0  0  0  0  0  0  0  0  0  0  0  0
    4.8709   -5.3162    0.0000 H   0  0  0  0  0  0  0  0  0  0  0  0
    6.9200    0.2712    0.0000 H   0  0  0  0  0  0  0  0  0  0  0  0
    7.5132    0.8035    0.0000 H   0  0  0  0  0  0  0  0  0  0  0  0
    2.8660   -2.3022    0.0000 H   0  0  0  0  0  0  0  0  0  0  0  0
    2.8660   -5.5422    0.0000 H   0  0  0  0  0  0  0  0  0  0  0  0
    1.4631   -3.1122    0.0000 H   0  0  0  0  0  0  0  0  0  0  0  0
    1.4631   -4.7322    0.0000 H   0  0  0  0  0  0  0  0  0  0  0  0
    6.0037    2.6525    0.0000 H   0  0  0  0  0  0  0  0  0  0  0  0
    9.9500    2.7101    0.0000 H   0  0  0  0  0  0  0  0  0  0  0  0
    8.3047    4.9830    0.0000 H   0  0  0  0  0  0  0  0  0  0  0  0
   11.2623    3.6600    0.0000 H   0  0  0  0  0  0  0  0  0  0  0  0
    9.6169    5.9329    0.0000 H   0  0  0  0  0  0  0  0  0  0  0  0
   11.0957    5.2715    0.0000 H   0  0  0  0  0  0  0  0  0  0  0  0
  1 23  1  0  0  0  0
  1 24  1  0  0  0  0
  2 14  2  0  0  0  0
  3 15  2  0  0  0  0
  4 11  1  0  0  0  0
  4 12  1  0  0  0  0
  4 15  1  0  0  0  0
  5  8  1  0  0  0  0
  5 13  1  0  0  0  0
  5 14  1  0  0  0  0
  6 14  1  0  0  0  0
  6 16  1  0  0  0  0
  6 40  1  0  0  0  0
  7 22  1  0  0  0  0
  7 24  2  0  0  0  0
  8  9  1  0  0  0  0
  8 10  1  0  0  0  0
  8 31  1  0  0  0  0
  9 11  1  0  0  0  0
  9 34  1  0  0  0  0
  9 35  1  0  0  0  0
 10 12  1  0  0  0  0
 10 32  1  0  0  0  0
 10 33  1  0  0  0  0
 11 38  1  0  0  0  0
 11 39  1  0  0  0  0
 12 36  1  0  0  0  0
 12 37  1  0  0  0  0
 13 16  1  0  0  0  0
 13 18  2  0  0  0  0
 15 17  1  0  0  0  0
 16 19  2  0  0  0  0
 17 22  1  0  0  0  0
 17 41  1  0  0  0  0
 17 42  1  0  0  0  0
 18 20  1  0  0  0  0
 18 43  1  0  0  0  0
 19 21  1  0  0  0  0
 19 44  1  0  0  0  0
 20 21  2  0  0  0  0
 20 45  1  0  0  0  0
 21 46  1  0  0  0  0
 22 23  2  0  0  0  0
 23 47  1  0  0  0  0
 24 25  1  0  0  0  0
 25 26  2  0  0  0  0
 25 27  1  0  0  0  0
 26 28  1  0  0  0  0
 26 48  1  0  0  0  0
 27 29  2  0  0  0  0
 27 49  1  0  0  0  0
 28 30  2  0  0  0  0
 28 50  1  0  0  0  0
 29 30  1  0  0  0  0
 29 51  1  0  0  0  0
 30 52  1  0  0  0  0
M  END
> <PUBCHEM_COMPOUND_CID>
17395549

> <PUBCHEM_COMPOUND_CANONICALIZED>
1

> <PUBCHEM_CACTVS_COMPLEXITY>
633

> <PUBCHEM_CACTVS_HBOND_ACCEPTOR>
4

> <PUBCHEM_CACTVS_HBOND_DONOR>
1

> <PUBCHEM_CACTVS_ROTATABLE_BOND>
4

> <PUBCHEM_CACTVS_SUBSKEYS>
AAADceB7sABAAAAAAAAAAAAAAAAAAWLAAAA8YIAAAAAAAFgB0AAAHgQQAAAADCjF3gSxwZPIEAisAyVyVACC8KBhCjgIiDU4dJiIYLrg1ZGUIAholgLoyCcQgAAOAAAAAAAAACAAAAAAAAAAQAAAAAAAAA==

> <PUBCHEM_IUPAC_OPENEYE_NAME>
3-[1-[2-(2-phenylthiazol-4-yl)acetyl]-4-piperidyl]-1H-benzimidazol-2-one

> <PUBCHEM_IUPAC_CAS_NAME>
3-[1-[1-oxo-2-(2-phenyl-4-thiazolyl)ethyl]-4-piperidinyl]-1H-benzimidazol-2-one

> <PUBCHEM_IUPAC_NAME>
3-[1-[2-(2-phenyl-1,3-thiazol-4-yl)acetyl]piperidin-4-yl]-1H-benzimidazol-2-one

> <PUBCHEM_IUPAC_SYSTEMATIC_NAME>
3-[1-[2-(2-phenyl-1,3-thiazol-4-yl)ethanoyl]piperidin-4-yl]-1H-benzimidazol-2-one

> <PUBCHEM_IUPAC_TRADITIONAL_NAME>
3-[1-[2-(2-phenylthiazol-4-yl)acetyl]-4-piperidyl]-1H-benzimidazol-2-one

> <PUBCHEM_IUPAC_INCHI>
InChI=1S/C23H22N4O2S/c28-21(14-17-15-30-22(24-17)16-6-2-1-3-7-16)26-12-10-18(11-13-26)27-20-9-5-4-8-19(20)25-23(27)29/h1-9,15,18H,10-14H2,(H,25,29)

> <PUBCHEM_IUPAC_INCHIKEY>
CEAVENRHVASPTI-UHFFFAOYSA-N

> <PUBCHEM_XLOGP3_AA>
3.1

> <PUBCHEM_EXACT_MASS>
418.146347

> <PUBCHEM_MOLECULAR_FORMULA>
C23H22N4O2S

> <PUBCHEM_MOLECULAR_WEIGHT>
418.51138

> <PUBCHEM_OPENEYE_CAN_SMILES>
C1CN(CCC1N2C3=CC=CC=C3NC2=O)C(=O)CC4=CSC(=N4)C5=CC=CC=C5

> <PUBCHEM_OPENEYE_ISO_SMILES>
C1CN(CCC1N2C3=CC=CC=C3NC2=O)C(=O)CC4=CSC(=N4)C5=CC=CC=C5

> <PUBCHEM_CACTVS_TPSA>
93.8

> <PUBCHEM_MONOISOTOPIC_WEIGHT>
418.146347

> <PUBCHEM_TOTAL_CHARGE>
0

> <PUBCHEM_HEAVY_ATOM_COUNT>
30

> <PUBCHEM_ATOM_DEF_STEREO_COUNT>
0

> <PUBCHEM_ATOM_UDEF_STEREO_COUNT>
0

> <PUBCHEM_BOND_DEF_STEREO_COUNT>
0

> <PUBCHEM_BOND_UDEF_STEREO_COUNT>
0

> <PUBCHEM_ISOTOPIC_ATOM_COUNT>
0

> <PUBCHEM_COMPONENT_COUNT>
1

> <PUBCHEM_CACTVS_TAUTO_COUNT>
2

> <PUBCHEM_COORDINATE_TYPE>
1
5
255

> <PUBCHEM_BONDANNOTATIONS>
1  23  8
1  24  8
13  16  8
13  18  8
16  19  8
18  20  8
19  21  8
20  21  8
22  23  8
25  26  8
25  27  8
26  28  8
27  29  8
28  30  8
29  30  8
5  13  8
5  14  8
6  14  8
6  16  8
7  22  8
7  24  8

$$$$

