249699
  -OEChem-07051213063D

 50 52  0     0  0  0  0  0  0999 V2000
    0.2712    0.3228    0.0088 O   0  0  0  0  0  0  0  0  0  0  0  0
   -3.8835   -2.1600    0.1410 O   0  0  0  0  0  0  0  0  0  0  0  0
   -1.1439    2.6265   -0.1724 O   0  0  0  0  0  0  0  0  0  0  0  0
   -5.2511    0.1936   -0.0429 O   0  0  0  0  0  0  0  0  0  0  0  0
   -3.8986    2.5876   -0.1993 O   0  0  0  0  0  0  0  0  0  0  0  0
   -1.5457   -3.3159    0.2464 O   0  0  0  0  0  0  0  0  0  0  0  0
    6.5811   -0.0751    0.0842 O   0  0  0  0  0  0  0  0  0  0  0  0
   -1.7834   -0.9708    0.0792 C   0  0  0  0  0  0  0  0  0  0  0  0
   -1.0982    0.2404    0.0001 C   0  0  0  0  0  0  0  0  0  0  0  0
   -3.1799   -0.9947    0.0652 C   0  0  0  0  0  0  0  0  0  0  0  0
   -1.8075    1.4379   -0.0940 C   0  0  0  0  0  0  0  0  0  0  0  0
    1.0030   -0.8508    0.1078 C   0  0  0  0  0  0  0  0  0  0  0  0
   -3.8869    0.2045   -0.0287 C   0  0  0  0  0  0  0  0  0  0  0  0
   -3.2025    1.4183   -0.1081 C   0  0  0  0  0  0  0  0  0  0  0  0
   -1.0103   -2.2184    0.1759 C   0  0  0  0  0  0  0  0  0  0  0  0
    0.4596   -2.0761    0.1833 C   0  0  0  0  0  0  0  0  0  0  0  0
    2.4658   -0.6481    0.1016 C   0  0  0  0  0  0  0  0  0  0  0  0
    3.3081   -1.6236   -0.4374 C   0  0  0  0  0  0  0  0  0  0  0  0
    3.0138    0.5212    0.6350 C   0  0  0  0  0  0  0  0  0  0  0  0
    5.2333   -0.2624    0.0903 C   0  0  0  0  0  0  0  0  0  0  0  0
    4.6896   -1.4312   -0.4429 C   0  0  0  0  0  0  0  0  0  0  0  0
    4.3953    0.7138    0.6294 C   0  0  0  0  0  0  0  0  0  0  0  0
   -4.2031   -2.8041   -1.0902 C   0  0  0  0  0  0  0  0  0  0  0  0
   -0.8429    3.2817    1.0575 C   0  0  0  0  0  0  0  0  0  0  0  0
   -5.9110    0.2794    1.2176 C   0  0  0  0  0  0  0  0  0  0  0  0
   -4.2145    3.0515   -1.5097 C   0  0  0  0  0  0  0  0  0  0  0  0
    7.0497    1.2701    0.0005 C   0  0  0  0  0  0  0  0  0  0  0  0
    8.3925    1.2819   -0.6983 C   0  0  0  0  0  0  0  0  0  0  0  0
    1.0337   -2.9910    0.2730 H   0  0  0  0  0  0  0  0  0  0  0  0
    2.9228   -2.5372   -0.8821 H   0  0  0  0  0  0  0  0  0  0  0  0
    2.3847    1.2919    1.0741 H   0  0  0  0  0  0  0  0  0  0  0  0
    5.3375   -2.1926   -0.8685 H   0  0  0  0  0  0  0  0  0  0  0  0
    4.7795    1.6238    1.0805 H   0  0  0  0  0  0  0  0  0  0  0  0
   -4.5452   -3.8185   -0.8675 H   0  0  0  0  0  0  0  0  0  0  0  0
   -3.3331   -2.8646   -1.7519 H   0  0  0  0  0  0  0  0  0  0  0  0
   -5.0121   -2.2659   -1.5935 H   0  0  0  0  0  0  0  0  0  0  0  0
   -0.1979    2.6545    1.6811 H   0  0  0  0  0  0  0  0  0  0  0  0
   -1.7622    3.5283    1.5979 H   0  0  0  0  0  0  0  0  0  0  0  0
   -0.3120    4.2100    0.8297 H   0  0  0  0  0  0  0  0  0  0  0  0
   -5.6433   -0.5712    1.8523 H   0  0  0  0  0  0  0  0  0  0  0  0
   -6.9899    0.2572    1.0413 H   0  0  0  0  0  0  0  0  0  0  0  0
   -5.6588    1.2176    1.7219 H   0  0  0  0  0  0  0  0  0  0  0  0
   -4.8427    2.3252   -2.0350 H   0  0  0  0  0  0  0  0  0  0  0  0
   -3.3011    3.2410   -2.0823 H   0  0  0  0  0  0  0  0  0  0  0  0
   -4.7688    3.9893   -1.4165 H   0  0  0  0  0  0  0  0  0  0  0  0
    6.3698    1.9036   -0.5829 H   0  0  0  0  0  0  0  0  0  0  0  0
    7.1545    1.6781    1.0119 H   0  0  0  0  0  0  0  0  0  0  0  0
    8.7875    2.2992   -0.7707 H   0  0  0  0  0  0  0  0  0  0  0  0
    9.1142    0.6609   -0.1572 H   0  0  0  0  0  0  0  0  0  0  0  0
    8.3064    0.8635   -1.7067 H   0  0  0  0  0  0  0  0  0  0  0  0
  1  9  1  0  0  0  0
  1 12  1  0  0  0  0
  2 10  1  0  0  0  0
  2 23  1  0  0  0  0
  3 11  1  0  0  0  0
  3 24  1  0  0  0  0
  4 13  1  0  0  0  0
  4 25  1  0  0  0  0
  5 14  1  0  0  0  0
  5 26  1  0  0  0  0
  6 15  2  0  0  0  0
  7 20  1  0  0  0  0
  7 27  1  0  0  0  0
  8  9  2  0  0  0  0
  8 10  1  0  0  0  0
  8 15  1  0  0  0  0
  9 11  1  0  0  0  0
 10 13  2  0  0  0  0
 11 14  2  0  0  0  0
 12 16  2  0  0  0  0
 12 17  1  0  0  0  0
 13 14  1  0  0  0  0
 15 16  1  0  0  0  0
 16 29  1  0  0  0  0
 17 18  2  0  0  0  0
 17 19  1  0  0  0  0
 18 21  1  0  0  0  0
 18 30  1  0  0  0  0
 19 22  2  0  0  0  0
 19 31  1  0  0  0  0
 20 21  2  0  0  0  0
 20 22  1  0  0  0  0
 21 32  1  0  0  0  0
 22 33  1  0  0  0  0
 23 34  1  0  0  0  0
 23 35  1  0  0  0  0
 23 36  1  0  0  0  0
 24 37  1  0  0  0  0
 24 38  1  0  0  0  0
 24 39  1  0  0  0  0
 25 40  1  0  0  0  0
 25 41  1  0  0  0  0
 25 42  1  0  0  0  0
 26 43  1  0  0  0  0
 26 44  1  0  0  0  0
 26 45  1  0  0  0  0
 27 28  1  0  0  0  0
 27 46  1  0  0  0  0
 27 47  1  0  0  0  0
 28 48  1  0  0  0  0
 28 49  1  0  0  0  0
 28 50  1  0  0  0  0
M  END
> <PUBCHEM_COMPOUND_CID>
249699

> <PUBCHEM_CONFORMER_RMSD>
0.8

> <PUBCHEM_CONFORMER_DIVERSEORDER>
1
4
5
10
11
6
7
2
3
8
9

> <PUBCHEM_MMFF94_PARTIAL_CHARGES>
32
1 -0.16
10 0.08
11 0.08
12 0.05
13 0.08
14 0.08
15 0.47
16 -0.14
17 0.03
18 -0.15
19 -0.15
2 -0.36
20 0.08
21 -0.15
22 -0.15
23 0.28
24 0.28
25 0.28
26 0.28
27 0.28
29 0.15
3 -0.36
30 0.15
31 0.15
32 0.15
33 0.15
4 -0.36
5 -0.36
6 -0.57
7 -0.36
8 0.09
9 0.08

> <PUBCHEM_EFFECTIVE_ROTOR_COUNT>
7

> <PUBCHEM_PHARMACOPHORE_FEATURES>
10
1 1 acceptor
1 2 acceptor
1 3 acceptor
1 4 acceptor
1 5 acceptor
1 6 acceptor
1 7 acceptor
6 1 8 9 12 15 16 rings
6 17 18 19 20 21 22 rings
6 8 9 10 11 13 14 rings

> <PUBCHEM_HEAVY_ATOM_COUNT>
28

> <PUBCHEM_ATOM_DEF_STEREO_COUNT>
0

> <PUBCHEM_ATOM_UDEF_STEREO_COUNT>
0

> <PUBCHEM_BOND_DEF_STEREO_COUNT>
0

> <PUBCHEM_BOND_UDEF_STEREO_COUNT>
0

> <PUBCHEM_ISOTOPIC_ATOM_COUNT>
0

> <PUBCHEM_COMPONENT_COUNT>
1

> <PUBCHEM_CACTVS_TAUTO_COUNT>
1

> <PUBCHEM_CONFORMER_ID>
0003CF6300000001

> <PUBCHEM_MMFF94_ENERGY>
131.7003

> <PUBCHEM_FEATURE_SELFOVERLAP>
50.806

> <PUBCHEM_SHAPE_FINGERPRINT>
10 15 18273492377316801568
10290309 65 18337391659733859839
10411042 1 17835800799047060979
10498660 4 18339365295737028809
10595046 47 18413110559300040002
10675989 125 16900756800671358421
10730089 173 18411417298355122384
1100329 8 18337388249977680785
11135609 187 18053111898340256397
11315181 36 17703228413008980610
12107183 9 17911532201114899090
12236239 1 17632579383096161154
12390115 104 18262788700414063097
12403259 415 18339640160737699164
12596602 18 17632579383518343184
12838862 33 18339941384707539033
13140716 1 18266734689686714673
13402501 40 18333453131963159016
13726171 33 18269552900285865585
14341114 176 18410288155684524852
14765038 42 18115009922868172145
14790565 3 17614557473006260169
15196674 1 18339363088144794746
15961568 22 18412539912876208948
16087824 20 18410860989386284383
18336668 15 18060136505455154229
18608769 82 18411133593768425346
19611394 137 17987220145886270122
21033648 29 18337966665417732472
21236236 1 18335703810532235143
21267235 1 18266176137179183971
21279426 13 18265051525720059582
21792961 116 17967806181561416582
23402539 116 18335425642516799335
23557571 272 18334853892681465814
23559900 14 18261960652610806384
283562 15 18412266129843131163
335352 9 18409172087327088213
34797466 226 18040988545502644308
350125 39 18409446964891381000
3545911 37 18407759240333439720
4073 2 18201714034280800202
445580 37 18341038650420789100
5104073 3 18056475282279613555
5171179 24 17970641675029150329
6327066 14 18128546049072539077
9981440 41 18201996681129442275

> <PUBCHEM_SHAPE_MULTIPOLES>
535.14
16.21
3.45
0.9
29.05
0.57
-0.08
5.26
-1.73
-4.13
-0.45
-0.62
0.32
0.3

> <PUBCHEM_SHAPE_SELFOVERLAP>
1156.452

> <PUBCHEM_SHAPE_VOLUME>
295

> <PUBCHEM_COORDINATE_TYPE>
2
5
10

$$$$

