25572
  -OEChem-07051213122D

 35 37  0     1  0  0  0  0  0999 V2000
    2.3100    1.3170    0.0000 O   0  0  0  0  0  0  0  0  0  0  0  0
    3.3100   -2.6830    0.0000 O   0  0  0  0  0  0  0  0  0  0  0  0
    5.8100    2.1830    0.0000 N   0  0  0  0  0  0  0  0  0  0  0  0
    5.8100    0.4510    0.0000 N   0  0  0  0  0  0  0  0  0  0  0  0
    3.3100    2.3170    0.0000 C   0  0  0  0  0  0  0  0  0  0  0  0
    3.8100    3.1830    0.0000 C   0  0  0  0  0  0  0  0  0  0  0  0
    2.8100    3.1830    0.0000 C   0  0  0  0  0  0  0  0  0  0  0  0
    3.3100    1.3170    0.0000 C   0  0  3  0  0  0  0  0  0  0  0  0
    3.3100    0.3170    0.0000 C   0  0  0  0  0  0  0  0  0  0  0  0
    4.3100    1.3170    0.0000 C   0  0  0  0  0  0  0  0  0  0  0  0
    2.4440   -0.1830    0.0000 C   0  0  0  0  0  0  0  0  0  0  0  0
    4.1760   -0.1830    0.0000 C   0  0  0  0  0  0  0  0  0  0  0  0
    4.8100    2.1830    0.0000 C   0  0  0  0  0  0  0  0  0  0  0  0
    4.8100    0.4510    0.0000 C   0  0  0  0  0  0  0  0  0  0  0  0
    2.4440   -1.1830    0.0000 C   0  0  0  0  0  0  0  0  0  0  0  0
    4.1760   -1.1830    0.0000 C   0  0  0  0  0  0  0  0  0  0  0  0
    3.3100   -1.6830    0.0000 C   0  0  0  0  0  0  0  0  0  0  0  0
    6.3100    1.3170    0.0000 C   0  0  0  0  0  0  0  0  0  0  0  0
    2.4440   -3.1830    0.0000 C   0  0  0  0  0  0  0  0  0  0  0  0
    3.9089    2.1565    0.0000 H   0  0  0  0  0  0  0  0  0  0  0  0
    4.3926    2.9710    0.0000 H   0  0  0  0  0  0  0  0  0  0  0  0
    3.9177    3.7936    0.0000 H   0  0  0  0  0  0  0  0  0  0  0  0
    2.7023    3.7936    0.0000 H   0  0  0  0  0  0  0  0  0  0  0  0
    2.2274    2.9710    0.0000 H   0  0  0  0  0  0  0  0  0  0  0  0
    2.0000    1.8539    0.0000 H   0  0  0  0  0  0  0  0  0  0  0  0
    1.9070    0.1270    0.0000 H   0  0  0  0  0  0  0  0  0  0  0  0
    4.7130    0.1270    0.0000 H   0  0  0  0  0  0  0  0  0  0  0  0
    4.5000    2.7200    0.0000 H   0  0  0  0  0  0  0  0  0  0  0  0
    4.5000   -0.0860    0.0000 H   0  0  0  0  0  0  0  0  0  0  0  0
    1.9070   -1.4930    0.0000 H   0  0  0  0  0  0  0  0  0  0  0  0
    4.7130   -1.4930    0.0000 H   0  0  0  0  0  0  0  0  0  0  0  0
    6.9300    1.3170    0.0000 H   0  0  0  0  0  0  0  0  0  0  0  0
    2.1340   -2.6461    0.0000 H   0  0  0  0  0  0  0  0  0  0  0  0
    1.9070   -3.4930    0.0000 H   0  0  0  0  0  0  0  0  0  0  0  0
    2.7540   -3.7200    0.0000 H   0  0  0  0  0  0  0  0  0  0  0  0
  1  8  1  0  0  0  0
  1 25  1  0  0  0  0
  2 17  1  0  0  0  0
  2 19  1  0  0  0  0
  3 13  2  0  0  0  0
  3 18  1  0  0  0  0
  4 14  1  0  0  0  0
  4 18  2  0  0  0  0
  5  6  1  0  0  0  0
  5  7  1  0  0  0  0
  5  8  1  0  0  0  0
  5 20  1  0  0  0  0
  6  7  1  0  0  0  0
  6 21  1  0  0  0  0
  6 22  1  0  0  0  0
  7 23  1  0  0  0  0
  7 24  1  0  0  0  0
  8  9  1  0  0  0  0
  8 10  1  0  0  0  0
  9 11  2  0  0  0  0
  9 12  1  0  0  0  0
 10 13  1  0  0  0  0
 10 14  2  0  0  0  0
 11 15  1  0  0  0  0
 11 26  1  0  0  0  0
 12 16  2  0  0  0  0
 12 27  1  0  0  0  0
 13 28  1  0  0  0  0
 14 29  1  0  0  0  0
 15 17  2  0  0  0  0
 15 30  1  0  0  0  0
 16 17  1  0  0  0  0
 16 31  1  0  0  0  0
 18 32  1  0  0  0  0
 19 33  1  0  0  0  0
 19 34  1  0  0  0  0
 19 35  1  0  0  0  0
M  END
> <PUBCHEM_COMPOUND_CID>
25572

> <PUBCHEM_COMPOUND_CANONICALIZED>
1

> <PUBCHEM_CACTVS_COMPLEXITY>
295

> <PUBCHEM_CACTVS_HBOND_ACCEPTOR>
4

> <PUBCHEM_CACTVS_HBOND_DONOR>
1

> <PUBCHEM_CACTVS_ROTATABLE_BOND>
4

> <PUBCHEM_CACTVS_SUBSKEYS>
AAADceBzMAAAAAAAAAAAAAAAGAAAAAAAAAA8QAAAAAAAAAABwAAAHgAACAAADUTBmgY/lpYIFgCgAjBnZACCiCkxIKAJ2CAuTJiMLqLE+VqEdCguwBNI+CeQ4PwOoAAAAAAAAABAAAAAAAAAAAAAAAAAAA==

> <PUBCHEM_IUPAC_OPENEYE_NAME>
cyclopropyl-(4-methoxyphenyl)-pyrimidin-5-yl-methanol

> <PUBCHEM_IUPAC_CAS_NAME>
cyclopropyl-(4-methoxyphenyl)-(5-pyrimidinyl)methanol

> <PUBCHEM_IUPAC_NAME>
cyclopropyl-(4-methoxyphenyl)-pyrimidin-5-ylmethanol

> <PUBCHEM_IUPAC_SYSTEMATIC_NAME>
cyclopropyl-(4-methoxyphenyl)-pyrimidin-5-yl-methanol

> <PUBCHEM_IUPAC_TRADITIONAL_NAME>
cyclopropyl-(4-methoxyphenyl)-(5-pyrimidyl)methanol

> <PUBCHEM_IUPAC_INCHI>
InChI=1S/C15H16N2O2/c1-19-14-6-4-12(5-7-14)15(18,11-2-3-11)13-8-16-10-17-9-13/h4-11,18H,2-3H2,1H3

> <PUBCHEM_IUPAC_INCHIKEY>
HUTDUHSNJYTCAR-UHFFFAOYSA-N

> <PUBCHEM_XLOGP3_AA>
1.6

> <PUBCHEM_EXACT_MASS>
256.121178

> <PUBCHEM_MOLECULAR_FORMULA>
C15H16N2O2

> <PUBCHEM_MOLECULAR_WEIGHT>
256.29974

> <PUBCHEM_OPENEYE_CAN_SMILES>
COC1=CC=C(C=C1)C(C2CC2)(C3=CN=CN=C3)O

> <PUBCHEM_OPENEYE_ISO_SMILES>
COC1=CC=C(C=C1)C(C2CC2)(C3=CN=CN=C3)O

> <PUBCHEM_CACTVS_TPSA>
55.2

> <PUBCHEM_MONOISOTOPIC_WEIGHT>
256.121178

> <PUBCHEM_TOTAL_CHARGE>
0

> <PUBCHEM_HEAVY_ATOM_COUNT>
19

> <PUBCHEM_ATOM_DEF_STEREO_COUNT>
0

> <PUBCHEM_ATOM_UDEF_STEREO_COUNT>
1

> <PUBCHEM_BOND_DEF_STEREO_COUNT>
0

> <PUBCHEM_BOND_UDEF_STEREO_COUNT>
0

> <PUBCHEM_ISOTOPIC_ATOM_COUNT>
0

> <PUBCHEM_COMPONENT_COUNT>
1

> <PUBCHEM_CACTVS_TAUTO_COUNT>
1

> <PUBCHEM_COORDINATE_TYPE>
1
5
255

> <PUBCHEM_BONDANNOTATIONS>
8  1  3
10  13  8
10  14  8
11  15  8
12  16  8
15  17  8
16  17  8
3  13  8
3  18  8
4  14  8
4  18  8
9  11  8
9  12  8

$$$$

