242127
  -OEChem-07051213063D

 52 55  0     1  0  0  0  0  0999 V2000
    4.3402   -1.7355   -0.0257 F   0  0  0  0  0  0  0  0  0  0  0  0
    4.2817   -0.0007   -1.3249 F   0  0  0  0  0  0  0  0  0  0  0  0
   -5.4208    0.6710   -0.1980 O   0  0  0  0  0  0  0  0  0  0  0  0
    4.9830    0.1718    1.7376 O   0  0  0  0  0  0  0  0  0  0  0  0
   -2.9708    0.4235   -0.1975 C   0  0  1  0  0  0  0  0  0  0  0  0
   -2.0921   -0.7630    0.2459 C   0  0  2  0  0  0  0  0  0  0  0  0
   -0.6818   -0.7341   -0.3579 C   0  0  1  0  0  0  0  0  0  0  0  0
    0.0360    0.5956    0.0385 C   0  0  1  0  0  0  0  0  0  0  0  0
   -4.3289    0.0410    0.4687 C   0  0  2  0  0  0  0  0  0  0  0  0
   -2.2897    1.7096    0.2961 C   0  0  0  0  0  0  0  0  0  0  0  0
    1.4798    0.6654   -0.5981 C   0  0  2  0  0  0  0  0  0  0  0  0
   -2.9698   -1.9803   -0.0261 C   0  0  0  0  0  0  0  0  0  0  0  0
   -0.8529    1.8398   -0.2425 C   0  0  0  0  0  0  0  0  0  0  0  0
   -4.4025   -1.4968    0.2658 C   0  0  0  0  0  0  0  0  0  0  0  0
    0.1303   -1.9579    0.0925 C   0  0  0  0  0  0  0  0  0  0  0  0
   -3.1589    0.5134   -1.7402 C   0  0  0  0  0  0  0  0  0  0  0  0
    2.2386   -0.6373   -0.2957 C   0  0  0  0  0  0  0  0  0  0  0  0
    2.3006    1.8640   -0.0216 C   0  0  0  0  0  0  0  0  0  0  0  0
   -4.4564    0.3984    1.9550 C   0  0  0  0  0  0  0  0  0  0  0  0
    1.6128   -1.7909   -0.0044 C   0  0  0  0  0  0  0  0  0  0  0  0
    1.4103    0.8430   -2.1342 C   0  0  0  0  0  0  0  0  0  0  0  0
    3.7386   -0.5243   -0.1925 C   0  0  0  0  0  0  0  0  0  0  0  0
    3.0546    1.5138    1.2594 C   0  0  0  0  0  0  0  0  0  0  0  0
    4.0179    0.3706    0.9998 C   0  0  0  0  0  0  0  0  0  0  0  0
   -1.9581   -0.7145    1.3375 H   0  0  0  0  0  0  0  0  0  0  0  0
   -0.7661   -0.7903   -1.4482 H   0  0  0  0  0  0  0  0  0  0  0  0
    0.1667    0.5674    1.1320 H   0  0  0  0  0  0  0  0  0  0  0  0
   -2.2322    1.7234    1.3910 H   0  0  0  0  0  0  0  0  0  0  0  0
   -2.8739    2.5903    0.0037 H   0  0  0  0  0  0  0  0  0  0  0  0
   -2.7003   -2.8292    0.6107 H   0  0  0  0  0  0  0  0  0  0  0  0
   -2.8853   -2.3107   -1.0675 H   0  0  0  0  0  0  0  0  0  0  0  0
   -0.8958    2.0503   -1.3146 H   0  0  0  0  0  0  0  0  0  0  0  0
   -0.4137    2.7279    0.2230 H   0  0  0  0  0  0  0  0  0  0  0  0
   -5.0657   -1.7638   -0.5654 H   0  0  0  0  0  0  0  0  0  0  0  0
   -4.7972   -2.0009    1.1556 H   0  0  0  0  0  0  0  0  0  0  0  0
   -0.1687   -2.8287   -0.5033 H   0  0  0  0  0  0  0  0  0  0  0  0
   -0.1007   -2.1998    1.1378 H   0  0  0  0  0  0  0  0  0  0  0  0
   -3.7385    1.4052   -2.0063 H   0  0  0  0  0  0  0  0  0  0  0  0
   -2.2137    0.5810   -2.2844 H   0  0  0  0  0  0  0  0  0  0  0  0
   -3.6930   -0.3515   -2.1467 H   0  0  0  0  0  0  0  0  0  0  0  0
    1.6712    2.7394    0.1575 H   0  0  0  0  0  0  0  0  0  0  0  0
    3.0421    2.1928   -0.7639 H   0  0  0  0  0  0  0  0  0  0  0  0
   -4.4429    1.4839    2.1030 H   0  0  0  0  0  0  0  0  0  0  0  0
   -5.4232    0.0579    2.3449 H   0  0  0  0  0  0  0  0  0  0  0  0
   -3.6711   -0.0494    2.5698 H   0  0  0  0  0  0  0  0  0  0  0  0
    2.1983   -2.6711    0.2492 H   0  0  0  0  0  0  0  0  0  0  0  0
    0.9634    1.8034   -2.4097 H   0  0  0  0  0  0  0  0  0  0  0  0
    2.4084    0.8259   -2.5872 H   0  0  0  0  0  0  0  0  0  0  0  0
    0.8359    0.0496   -2.6215 H   0  0  0  0  0  0  0  0  0  0  0  0
   -5.3106    1.6327   -0.1045 H   0  0  0  0  0  0  0  0  0  0  0  0
    2.3651    1.2185    2.0565 H   0  0  0  0  0  0  0  0  0  0  0  0
    3.6312    2.3820    1.5951 H   0  0  0  0  0  0  0  0  0  0  0  0
  1 22  1  0  0  0  0
  2 22  1  0  0  0  0
  3  9  1  0  0  0  0
  3 50  1  0  0  0  0
  4 24  2  0  0  0  0
  5  6  1  0  0  0  0
  5  9  1  0  0  0  0
  5 10  1  0  0  0  0
  5 16  1  0  0  0  0
  6  7  1  0  0  0  0
  6 12  1  0  0  0  0
  6 25  1  0  0  0  0
  7  8  1  0  0  0  0
  7 15  1  0  0  0  0
  7 26  1  0  0  0  0
  8 11  1  0  0  0  0
  8 13  1  0  0  0  0
  8 27  1  0  0  0  0
  9 14  1  0  0  0  0
  9 19  1  0  0  0  0
 10 13  1  0  0  0  0
 10 28  1  0  0  0  0
 10 29  1  0  0  0  0
 11 17  1  0  0  0  0
 11 18  1  0  0  0  0
 11 21  1  0  0  0  0
 12 14  1  0  0  0  0
 12 30  1  0  0  0  0
 12 31  1  0  0  0  0
 13 32  1  0  0  0  0
 13 33  1  0  0  0  0
 14 34  1  0  0  0  0
 14 35  1  0  0  0  0
 15 20  1  0  0  0  0
 15 36  1  0  0  0  0
 15 37  1  0  0  0  0
 16 38  1  0  0  0  0
 16 39  1  0  0  0  0
 16 40  1  0  0  0  0
 17 20  2  0  0  0  0
 17 22  1  0  0  0  0
 18 23  1  0  0  0  0
 18 41  1  0  0  0  0
 18 42  1  0  0  0  0
 19 43  1  0  0  0  0
 19 44  1  0  0  0  0
 19 45  1  0  0  0  0
 20 46  1  0  0  0  0
 21 47  1  0  0  0  0
 21 48  1  0  0  0  0
 21 49  1  0  0  0  0
 22 24  1  0  0  0  0
 23 24  1  0  0  0  0
 23 51  1  0  0  0  0
 23 52  1  0  0  0  0
M  END
> <PUBCHEM_COMPOUND_CID>
242127

> <PUBCHEM_CONFORMER_RMSD>
0.6

> <PUBCHEM_CONFORMER_DIVERSEORDER>
1
2

> <PUBCHEM_MMFF94_PARTIAL_CHARGES>
14
1 -0.34
11 0.14
15 0.14
17 -0.28
2 -0.34
20 -0.29
22 0.88
23 0.06
24 0.45
3 -0.68
4 -0.57
46 0.15
50 0.4
9 0.28

> <PUBCHEM_EFFECTIVE_ROTOR_COUNT>
1.8

> <PUBCHEM_PHARMACOPHORE_FEATURES>
7
1 3 acceptor
1 3 donor
1 4 acceptor
5 5 6 9 12 14 rings
6 11 17 18 22 23 24 rings
6 5 6 7 8 10 13 rings
6 7 8 11 15 17 20 rings

> <PUBCHEM_HEAVY_ATOM_COUNT>
24

> <PUBCHEM_ATOM_DEF_STEREO_COUNT>
6

> <PUBCHEM_ATOM_UDEF_STEREO_COUNT>
0

> <PUBCHEM_BOND_DEF_STEREO_COUNT>
0

> <PUBCHEM_BOND_UDEF_STEREO_COUNT>
0

> <PUBCHEM_ISOTOPIC_ATOM_COUNT>
0

> <PUBCHEM_COMPONENT_COUNT>
1

> <PUBCHEM_CACTVS_TAUTO_COUNT>
2

> <PUBCHEM_CONFORMER_ID>
0003B1CF00000001

> <PUBCHEM_MMFF94_ENERGY>
80.4827

> <PUBCHEM_FEATURE_SELFOVERLAP>
35.632

> <PUBCHEM_SHAPE_FINGERPRINT>
10062212 137 18271808973892131211
10646746 165 18260545645274851680
11132069 177 18411980252387181187
11796584 16 15482675692892077363
11961588 58 6482773953376790050
12236239 1 17632294567009427484
12403259 226 18410862070230991172
12403259 415 18413111666636789500
12403814 3 17775565334719040343
12553582 1 18340474613191931557
12633257 1 18262531307719804112
12670546 56 17749390394766978169
13140716 1 18268150863929687186
13224815 77 18411980222016448501
13583140 156 18041856033615916581
13675066 3 18343581828582732475
14004511 7 18333726918821633675
14178342 30 18198625625717850816
14223421 5 18335984280327862446
14341114 176 18334290981145263072
14790565 3 17691683386077899428
15196674 1 18410572851628335575
15209294 21 17895463821926726521
15536298 74 18333448729199615698
15788980 27 17917994970968452857
1601671 61 18343015589032489854
16945 1 18411986892216664948
17349148 13 18059855051905397379
1813 80 17418094321413948732
18186145 218 18334574633448801070
200 152 18334299756169682647
21033648 29 18341067283939531801
21267235 1 18339630179856630535
21637258 2 15625681487242946824
21756936 100 17319873647005738232
22182313 1 18127696134809829079
22646028 1 17775288239986589539
22854114 59 18260551112557145186
23184049 59 18261111863455629902
23402539 116 18261402130641845783
23557571 272 18115012014163966383
23559900 14 18408599241389416620
26918003 58 18411143532496626513
2838139 119 15575575531200436624
296302 2 15791731879940909813
335352 9 18411135878801569359
34797466 226 14490473028474948281
350125 39 18413100675831192836
392239 28 18334581221849648896
465052 167 17060048233895178267
474 4 17967819297315671472
5104073 3 18337951195198292035
633830 44 17822008700916744892
7495541 125 15769482145398055484
9709674 26 18411134693201002979
9981440 41 17263838083897502424

> <PUBCHEM_SHAPE_MULTIPOLES>
467.62
10.08
1.99
1.41
1.07
0.33
-0.1
0.48
2.81
-0.01
0.05
-0.24
-0.44
0.26

> <PUBCHEM_SHAPE_SELFOVERLAP>
1011.348

> <PUBCHEM_SHAPE_VOLUME>
258.1

> <PUBCHEM_COORDINATE_TYPE>
2
5
10

$$$$

