10174
  -OEChem-06261204212D

 28 31  0     0  0  0  0  0  0999 V2000
    5.9065   -1.4213    0.0000 O   0  0  0  0  0  0  0  0  0  0  0  0
    8.0505    0.6472    0.0000 O   0  0  0  0  0  0  0  0  0  0  0  0
    6.7634    1.8062    0.0000 O   0  0  0  0  0  0  0  0  0  0  0  0
    2.4170   -0.5171    0.0000 O   0  0  0  0  0  0  0  0  0  0  0  0
   10.6901   -1.6970    0.0000 O   0  0  0  0  0  0  0  0  0  0  0  0
    6.4033    0.1120    0.0000 C   0  0  0  0  0  0  0  0  0  0  0  0
    6.7123   -0.8391    0.0000 C   0  0  0  0  0  0  0  0  0  0  0  0
    5.4092    0.1094    0.0000 C   0  0  0  0  0  0  0  0  0  0  0  0
    7.6904   -1.0470    0.0000 C   0  0  0  0  0  0  0  0  0  0  0  0
    5.1028   -0.8363    0.0000 C   0  0  0  0  0  0  0  0  0  0  0  0
    8.3596   -0.3039    0.0000 C   0  0  0  0  0  0  0  0  0  0  0  0
    7.0724    0.8551    0.0000 C   0  0  0  0  0  0  0  0  0  0  0  0
    4.7276    0.8889    0.0000 C   0  0  0  0  0  0  0  0  0  0  0  0
    4.0936   -1.0681    0.0000 C   0  0  0  0  0  0  0  0  0  0  0  0
    7.9970   -2.0425    0.0000 C   0  0  0  0  0  0  0  0  0  0  0  0
    9.3816   -0.5047    0.0000 C   0  0  0  0  0  0  0  0  0  0  0  0
    3.7133    0.6805    0.0000 C   0  0  0  0  0  0  0  0  0  0  0  0
    3.3942   -0.3045    0.0000 C   0  0  0  0  0  0  0  0  0  0  0  0
    9.0142   -2.2669    0.0000 C   0  0  0  0  0  0  0  0  0  0  0  0
    9.7112   -1.4928    0.0000 C   0  0  0  0  0  0  0  0  0  0  0  0
    4.9255    1.4765    0.0000 H   0  0  0  0  0  0  0  0  0  0  0  0
    3.9094   -1.6600    0.0000 H   0  0  0  0  0  0  0  0  0  0  0  0
    7.5768   -2.4984    0.0000 H   0  0  0  0  0  0  0  0  0  0  0  0
    9.7911   -0.0392    0.0000 H   0  0  0  0  0  0  0  0  0  0  0  0
    3.2998    1.1425    0.0000 H   0  0  0  0  0  0  0  0  0  0  0  0
    9.2035   -2.8573    0.0000 H   0  0  0  0  0  0  0  0  0  0  0  0
    7.1782    2.2669    0.0000 H   0  0  0  0  0  0  0  0  0  0  0  0
    2.0000   -0.0583    0.0000 H   0  0  0  0  0  0  0  0  0  0  0  0
  1  7  1  0  0  0  0
  1 10  1  0  0  0  0
  2 11  1  0  0  0  0
  2 12  1  0  0  0  0
  3 12  1  0  0  0  0
  3 27  1  0  0  0  0
  4 18  1  0  0  0  0
  4 28  1  0  0  0  0
  5 20  2  0  0  0  0
  6  7  1  0  0  0  0
  6  8  1  0  0  0  0
  6 12  2  0  0  0  0
  7  9  2  0  0  0  0
  8 10  2  0  0  0  0
  8 13  1  0  0  0  0
  9 11  1  0  0  0  0
  9 15  1  0  0  0  0
 10 14  1  0  0  0  0
 11 16  2  0  0  0  0
 13 17  2  0  0  0  0
 13 21  1  0  0  0  0
 14 18  2  0  0  0  0
 14 22  1  0  0  0  0
 15 19  2  0  0  0  0
 15 23  1  0  0  0  0
 16 20  1  0  0  0  0
 16 24  1  0  0  0  0
 17 18  1  0  0  0  0
 17 25  1  0  0  0  0
 19 20  1  0  0  0  0
 19 26  1  0  0  0  0
M  END
> <PUBCHEM_COMPOUND_CID>
10174

> <PUBCHEM_COMPOUND_CANONICALIZED>
1

> <PUBCHEM_CACTVS_COMPLEXITY>
622

> <PUBCHEM_CACTVS_HBOND_ACCEPTOR>
5

> <PUBCHEM_CACTVS_HBOND_DONOR>
2

> <PUBCHEM_CACTVS_ROTATABLE_BOND>
0

> <PUBCHEM_CACTVS_SUBSKEYS>
AAADccBwOAAAAAAAAAAAAAAAAAAAASAAAAAwQIAAAAAAAEiBAAAAGgAACAAADASAmAAwDoAABgCIAqBSAAACCAAgIAAIiAAGCMgcJyKGMRqCeCClwBUMuYeA4KwOIAAACAAIAABAAAAQABAAAAAAAAAAAA==

> <PUBCHEM_IUPAC_OPENEYE_NAME>
6,9-dihydroxybenzofuro[3,2-c]chromen-3-one

> <PUBCHEM_IUPAC_CAS_NAME>
6,9-dihydroxy-3-benzofuro[3,2-c][1]benzopyranone

> <PUBCHEM_IUPAC_NAME>
6,9-dihydroxy-[1]benzofuro[3,2-c]chromen-3-one

> <PUBCHEM_IUPAC_SYSTEMATIC_NAME>
6,9-bis(oxidanyl)-[1]benzofuro[3,2-c]chromen-3-one

> <PUBCHEM_IUPAC_TRADITIONAL_NAME>
6,9-dihydroxybenzofuro[3,2-c]chromen-3-one

> <PUBCHEM_IUPAC_INCHI>
InChI=1S/C15H8O5/c16-7-1-3-9-11(5-7)19-14-10-4-2-8(17)6-12(10)20-15(18)13(9)14/h1-6,16,18H

> <PUBCHEM_IUPAC_INCHIKEY>
ACTAOGWZGLEKIC-UHFFFAOYSA-N

> <PUBCHEM_XLOGP3_AA>
1

> <PUBCHEM_EXACT_MASS>
268.037173

> <PUBCHEM_MOLECULAR_FORMULA>
C15H8O5

> <PUBCHEM_MOLECULAR_WEIGHT>
268.22102

> <PUBCHEM_OPENEYE_CAN_SMILES>
C1=CC2=C(C=C1O)OC3=C4C=CC(=O)C=C4OC(=C23)O

> <PUBCHEM_OPENEYE_ISO_SMILES>
C1=CC2=C(C=C1O)OC3=C4C=CC(=O)C=C4OC(=C23)O

> <PUBCHEM_CACTVS_TPSA>
76

> <PUBCHEM_MONOISOTOPIC_WEIGHT>
268.037173

> <PUBCHEM_TOTAL_CHARGE>
0

> <PUBCHEM_HEAVY_ATOM_COUNT>
20

> <PUBCHEM_ATOM_DEF_STEREO_COUNT>
0

> <PUBCHEM_ATOM_UDEF_STEREO_COUNT>
0

> <PUBCHEM_BOND_DEF_STEREO_COUNT>
0

> <PUBCHEM_BOND_UDEF_STEREO_COUNT>
0

> <PUBCHEM_ISOTOPIC_ATOM_COUNT>
0

> <PUBCHEM_COMPONENT_COUNT>
1

> <PUBCHEM_CACTVS_TAUTO_COUNT>
3

> <PUBCHEM_COORDINATE_TYPE>
1
5
255

> <PUBCHEM_BONDANNOTATIONS>
1  10  8
1  7  8
10  14  8
11  16  8
13  17  8
14  18  8
15  19  8
16  20  8
17  18  8
19  20  8
2  11  8
2  12  8
6  12  8
6  7  8
6  8  8
7  9  8
8  10  8
8  13  8
9  15  8

$$$$

