12668
  -OEChem-06261207133D

 30 30  0     0  0  0  0  0  0999 V2000
   -0.5094   -2.0617    0.5584 C   0  0  0  0  0  0  0  0  0  0  0  0
    0.5398   -2.0533   -0.5589 C   0  0  0  0  0  0  0  0  0  0  0  0
   -2.1223    0.6313    0.4299 C   0  0  0  0  0  0  0  0  0  0  0  0
    2.1134    0.6626   -0.4293 C   0  0  0  0  0  0  0  0  0  0  0  0
   -1.4169    1.3761   -0.7054 C   0  0  0  0  0  0  0  0  0  0  0  0
    1.3950    1.3953    0.7055 C   0  0  0  0  0  0  0  0  0  0  0  0
   -1.9001   -1.8731    0.0188 C   0  0  0  0  0  0  0  0  0  0  0  0
    1.9276   -1.8449   -0.0191 C   0  0  0  0  0  0  0  0  0  0  0  0
   -2.5925   -0.7222   -0.0311 C   0  0  0  0  0  0  0  0  0  0  0  0
    2.6033   -0.6841    0.0313 C   0  0  0  0  0  0  0  0  0  0  0  0
   -0.6340    2.5827   -0.2708 C   0  0  0  0  0  0  0  0  0  0  0  0
    0.5961    2.5911    0.2707 C   0  0  0  0  0  0  0  0  0  0  0  0
   -0.2849   -1.3005    1.3111 H   0  0  0  0  0  0  0  0  0  0  0  0
   -0.4698   -3.0188    1.0940 H   0  0  0  0  0  0  0  0  0  0  0  0
    0.3041   -1.2943   -1.3105 H   0  0  0  0  0  0  0  0  0  0  0  0
    0.5143   -3.0101   -1.0958 H   0  0  0  0  0  0  0  0  0  0  0  0
   -2.9915    1.2094    0.7681 H   0  0  0  0  0  0  0  0  0  0  0  0
   -1.4807    0.5332    1.3101 H   0  0  0  0  0  0  0  0  0  0  0  0
    2.9742    1.2541   -0.7658 H   0  0  0  0  0  0  0  0  0  0  0  0
    1.4744    0.5555   -1.3105 H   0  0  0  0  0  0  0  0  0  0  0  0
   -2.1647    1.7014   -1.4410 H   0  0  0  0  0  0  0  0  0  0  0  0
   -0.7546    0.7048   -1.2595 H   0  0  0  0  0  0  0  0  0  0  0  0
    2.1366    1.7304    1.4431 H   0  0  0  0  0  0  0  0  0  0  0  0
    0.7416    0.7137    1.2574 H   0  0  0  0  0  0  0  0  0  0  0  0
   -2.3765   -2.7653   -0.3827 H   0  0  0  0  0  0  0  0  0  0  0  0
    2.4168   -2.7303    0.3821 H   0  0  0  0  0  0  0  0  0  0  0  0
   -3.5866   -0.7517   -0.4730 H   0  0  0  0  0  0  0  0  0  0  0  0
    3.5977   -0.6993    0.4731 H   0  0  0  0  0  0  0  0  0  0  0  0
   -1.0968    3.5455   -0.4789 H   0  0  0  0  0  0  0  0  0  0  0  0
    1.0461    3.5600    0.4782 H   0  0  0  0  0  0  0  0  0  0  0  0
  1  2  1  0  0  0  0
  1  7  1  0  0  0  0
  1 13  1  0  0  0  0
  1 14  1  0  0  0  0
  2  8  1  0  0  0  0
  2 15  1  0  0  0  0
  2 16  1  0  0  0  0
  3  5  1  0  0  0  0
  3  9  1  0  0  0  0
  3 17  1  0  0  0  0
  3 18  1  0  0  0  0
  4  6  1  0  0  0  0
  4 10  1  0  0  0  0
  4 19  1  0  0  0  0
  4 20  1  0  0  0  0
  5 11  1  0  0  0  0
  5 21  1  0  0  0  0
  5 22  1  0  0  0  0
  6 12  1  0  0  0  0
  6 23  1  0  0  0  0
  6 24  1  0  0  0  0
  7  9  2  0  0  0  0
  7 25  1  0  0  0  0
  8 10  2  0  0  0  0
  8 26  1  0  0  0  0
  9 27  1  0  0  0  0
 10 28  1  0  0  0  0
 11 12  2  0  0  0  0
 11 29  1  0  0  0  0
 12 30  1  0  0  0  0
M  END
> <PUBCHEM_COMPOUND_CID>
12668

> <PUBCHEM_CONFORMER_RMSD>
0.4

> <PUBCHEM_CONFORMER_DIVERSEORDER>
1

> <PUBCHEM_MMFF94_PARTIAL_CHARGES>
18
1 0.14
10 -0.29
11 -0.29
12 -0.29
2 0.14
25 0.15
26 0.15
27 0.15
28 0.15
29 0.15
3 0.14
30 0.15
4 0.14
5 0.14
6 0.14
7 -0.29
8 -0.29
9 -0.29

> <PUBCHEM_EFFECTIVE_ROTOR_COUNT>
1.2

> <PUBCHEM_PHARMACOPHORE_FEATURES>
0

> <PUBCHEM_HEAVY_ATOM_COUNT>
12

> <PUBCHEM_ATOM_DEF_STEREO_COUNT>
0

> <PUBCHEM_ATOM_UDEF_STEREO_COUNT>
0

> <PUBCHEM_BOND_DEF_STEREO_COUNT>
0

> <PUBCHEM_BOND_UDEF_STEREO_COUNT>
3

> <PUBCHEM_ISOTOPIC_ATOM_COUNT>
0

> <PUBCHEM_COMPONENT_COUNT>
1

> <PUBCHEM_CACTVS_TAUTO_COUNT>
1

> <PUBCHEM_CONFORMER_ID>
0000317C00000001

> <PUBCHEM_MMFF94_ENERGY>
12.4236

> <PUBCHEM_FEATURE_SELFOVERLAP>
0

> <PUBCHEM_SHAPE_FINGERPRINT>
13618510 140 17330274965977306813
13897977 150 18194406576537886647
1420 336 17546446034293962699
14251711 518 16391004560921291173
14251717 144 17400084071986007271
15775835 57 18410845564523654722
15881359 60 17543953046481036583
19930374 2 17618823191078751241
20201158 50 18194971729445280627
20388701 513 18337968882221931938
22802520 49 16384230443971113727
2334 1 18410573950791738759
241688 4 18411419518325577107
2748010 2 18337956688165933740
2897 32 16753531115225953972
66348 1 18194398892345327043

> <PUBCHEM_SHAPE_MULTIPOLES>
246.95
3.54
3.49
0.79
0.02
0.79
0
-0.92
0
-0.02
0
0
0.06
0.3

> <PUBCHEM_SHAPE_SELFOVERLAP>
472.827

> <PUBCHEM_SHAPE_VOLUME>
144

> <PUBCHEM_COORDINATE_TYPE>
2
5
10

$$$$

