11954114
  -OEChem-07051213063D

 66 69  0     1  0  0  0  0  0999 V2000
    3.8088    0.9697    1.1448 P   0  0  1  0  0  0  0  0  0  0  0  0
    4.3740    2.3008    0.4423 O   0  0  0  0  0  0  0  0  0  0  0  0
    5.0913    0.0158    1.3306 O   0  0  0  0  0  0  0  0  0  0  0  0
    2.9929    1.1845    2.3690 O   0  0  0  0  0  0  0  0  0  0  0  0
    3.9593   -2.3204   -1.0961 O   0  0  0  0  0  0  0  0  0  0  0  0
   -7.1566    0.7012    0.7740 O   0  0  0  0  0  0  0  0  0  0  0  0
    0.9369   -1.3546   -0.2895 C   0  0  1  0  0  0  0  0  0  0  0  0
    0.4694    0.0981   -0.0744 C   0  0  2  0  0  0  0  0  0  0  0  0
   -0.9376    0.3675   -0.6189 C   0  0  1  0  0  0  0  0  0  0  0  0
   -1.9587   -0.5915    0.0740 C   0  0  1  0  0  0  0  0  0  0  0  0
    2.3561   -1.2514    0.3095 C   0  0  2  0  0  0  0  0  0  0  0  0
    1.6346    0.9280   -0.6038 C   0  0  0  0  0  0  0  0  0  0  0  0
   -0.0222   -2.2664    0.4861 C   0  0  0  0  0  0  0  0  0  0  0  0
   -3.4184   -0.3624   -0.4840 C   0  0  2  0  0  0  0  0  0  0  0  0
    2.8790    0.1251   -0.1693 C   0  0  1  0  0  0  0  0  0  0  0  0
   -1.4795   -2.0710    0.0316 C   0  0  0  0  0  0  0  0  0  0  0  0
   -1.3293    1.8385   -0.4136 C   0  0  0  0  0  0  0  0  0  0  0  0
    0.9896   -1.7863   -1.7779 C   0  0  0  0  0  0  0  0  0  0  0  0
   -3.7408    1.1378   -0.4889 C   0  0  0  0  0  0  0  0  0  0  0  0
   -4.4830   -1.1035    0.3911 C   0  0  0  0  0  0  0  0  0  0  0  0
   -2.8002    2.0964   -0.4664 C   0  0  0  0  0  0  0  0  0  0  0  0
   -3.5570   -0.8873   -1.9334 C   0  0  0  0  0  0  0  0  0  0  0  0
    3.2733   -2.3707   -0.0763 C   0  0  0  0  0  0  0  0  0  0  0  0
   -5.2010    1.4925   -0.3863 C   0  0  0  0  0  0  0  0  0  0  0  0
   -5.0491   -0.2290    1.5146 C   0  0  0  0  0  0  0  0  0  0  0  0
   -5.7726    1.0036    0.9512 C   0  0  2  0  0  0  0  0  0  0  0  0
    3.3164   -3.5588    0.8459 C   0  0  0  0  0  0  0  0  0  0  0  0
    5.2354    2.2422   -0.6804 C   0  0  0  0  0  0  0  0  0  0  0  0
    5.5888    3.6516   -1.1050 C   0  0  0  0  0  0  0  0  0  0  0  0
    0.4254    0.2890    1.0113 H   0  0  0  0  0  0  0  0  0  0  0  0
   -0.9405    0.1812   -1.6983 H   0  0  0  0  0  0  0  0  0  0  0  0
   -1.9752   -0.3152    1.1402 H   0  0  0  0  0  0  0  0  0  0  0  0
    2.2996   -1.2386    1.4059 H   0  0  0  0  0  0  0  0  0  0  0  0
    1.5941    1.0097   -1.6958 H   0  0  0  0  0  0  0  0  0  0  0  0
    1.6306    1.9432   -0.1958 H   0  0  0  0  0  0  0  0  0  0  0  0
    0.0414   -2.0589    1.5620 H   0  0  0  0  0  0  0  0  0  0  0  0
    0.2509   -3.3192    0.3553 H   0  0  0  0  0  0  0  0  0  0  0  0
    3.5441    0.0234   -1.0311 H   0  0  0  0  0  0  0  0  0  0  0  0
   -1.5873   -2.4798   -0.9771 H   0  0  0  0  0  0  0  0  0  0  0  0
   -2.1081   -2.6905    0.6789 H   0  0  0  0  0  0  0  0  0  0  0  0
   -0.8337    2.4530   -1.1749 H   0  0  0  0  0  0  0  0  0  0  0  0
   -0.9695    2.1942    0.5603 H   0  0  0  0  0  0  0  0  0  0  0  0
    1.7155   -1.2075   -2.3576 H   0  0  0  0  0  0  0  0  0  0  0  0
    1.2710   -2.8421   -1.8655 H   0  0  0  0  0  0  0  0  0  0  0  0
    0.0268   -1.6785   -2.2841 H   0  0  0  0  0  0  0  0  0  0  0  0
   -4.0789   -2.0211    0.8265 H   0  0  0  0  0  0  0  0  0  0  0  0
   -5.3259   -1.4284   -0.2349 H   0  0  0  0  0  0  0  0  0  0  0  0
   -3.1008    3.1406   -0.4245 H   0  0  0  0  0  0  0  0  0  0  0  0
   -2.8185   -0.4455   -2.6091 H   0  0  0  0  0  0  0  0  0  0  0  0
   -3.4512   -1.9758   -1.9803 H   0  0  0  0  0  0  0  0  0  0  0  0
   -4.5436   -0.6542   -2.3517 H   0  0  0  0  0  0  0  0  0  0  0  0
   -5.3695    2.5734   -0.4728 H   0  0  0  0  0  0  0  0  0  0  0  0
   -5.7480    1.0517   -1.2292 H   0  0  0  0  0  0  0  0  0  0  0  0
   -5.7339   -0.8242    2.1298 H   0  0  0  0  0  0  0  0  0  0  0  0
   -4.2248    0.0920    2.1633 H   0  0  0  0  0  0  0  0  0  0  0  0
   -5.7185    1.8043    1.6986 H   0  0  0  0  0  0  0  0  0  0  0  0
    3.5602   -3.2321    1.8599 H   0  0  0  0  0  0  0  0  0  0  0  0
    2.3583   -4.0802    0.8360 H   0  0  0  0  0  0  0  0  0  0  0  0
    4.0945   -4.2507    0.5107 H   0  0  0  0  0  0  0  0  0  0  0  0
    5.7417    0.2203    2.0356 H   0  0  0  0  0  0  0  0  0  0  0  0
   -7.5911    1.5060    0.4433 H   0  0  0  0  0  0  0  0  0  0  0  0
    6.1425    1.6904   -0.4169 H   0  0  0  0  0  0  0  0  0  0  0  0
    4.7386    1.7345   -1.5101 H   0  0  0  0  0  0  0  0  0  0  0  0
    6.2556    3.6434   -1.9718 H   0  0  0  0  0  0  0  0  0  0  0  0
    4.6853    4.2157   -1.3593 H   0  0  0  0  0  0  0  0  0  0  0  0
    6.0796    4.1891   -0.2869 H   0  0  0  0  0  0  0  0  0  0  0  0
  1  2  1  0  0  0  0
  1  3  1  0  0  0  0
  1  4  2  0  0  0  0
  1 15  1  0  0  0  0
  2 28  1  0  0  0  0
  3 60  1  0  0  0  0
  5 23  2  0  0  0  0
  6 26  1  0  0  0  0
  6 61  1  0  0  0  0
  7  8  1  0  0  0  0
  7 11  1  0  0  0  0
  7 13  1  0  0  0  0
  7 18  1  0  0  0  0
  8  9  1  0  0  0  0
  8 12  1  0  0  0  0
  8 30  1  0  0  0  0
  9 10  1  0  0  0  0
  9 17  1  0  0  0  0
  9 31  1  0  0  0  0
 10 14  1  0  0  0  0
 10 16  1  0  0  0  0
 10 32  1  0  0  0  0
 11 15  1  0  0  0  0
 11 23  1  0  0  0  0
 11 33  1  0  0  0  0
 12 15  1  0  0  0  0
 12 34  1  0  0  0  0
 12 35  1  0  0  0  0
 13 16  1  0  0  0  0
 13 36  1  0  0  0  0
 13 37  1  0  0  0  0
 14 19  1  0  0  0  0
 14 20  1  0  0  0  0
 14 22  1  0  0  0  0
 15 38  1  0  0  0  0
 16 39  1  0  0  0  0
 16 40  1  0  0  0  0
 17 21  1  0  0  0  0
 17 41  1  0  0  0  0
 17 42  1  0  0  0  0
 18 43  1  0  0  0  0
 18 44  1  0  0  0  0
 18 45  1  0  0  0  0
 19 21  2  0  0  0  0
 19 24  1  0  0  0  0
 20 25  1  0  0  0  0
 20 46  1  0  0  0  0
 20 47  1  0  0  0  0
 21 48  1  0  0  0  0
 22 49  1  0  0  0  0
 22 50  1  0  0  0  0
 22 51  1  0  0  0  0
 23 27  1  0  0  0  0
 24 26  1  0  0  0  0
 24 52  1  0  0  0  0
 24 53  1  0  0  0  0
 25 26  1  0  0  0  0
 25 54  1  0  0  0  0
 25 55  1  0  0  0  0
 26 56  1  0  0  0  0
 27 57  1  0  0  0  0
 27 58  1  0  0  0  0
 27 59  1  0  0  0  0
 28 29  1  0  0  0  0
 28 62  1  0  0  0  0
 28 63  1  0  0  0  0
 29 64  1  0  0  0  0
 29 65  1  0  0  0  0
 29 66  1  0  0  0  0
M  END
> <PUBCHEM_COMPOUND_CID>
11954114

> <PUBCHEM_CONFORMER_RMSD>
0.8

> <PUBCHEM_CONFORMER_DIVERSEORDER>
1
11
6
8
9
2
5
10
7
4
3

> <PUBCHEM_MMFF94_PARTIAL_CHARGES>
19
1 1.24
11 0.06
14 0.14
17 0.14
19 -0.28
2 -0.55
21 -0.29
23 0.45
24 0.14
26 0.28
27 0.06
28 0.28
3 -0.77
4 -0.7
48 0.15
5 -0.57
6 -0.68
60 0.5
61 0.4

> <PUBCHEM_EFFECTIVE_ROTOR_COUNT>
6

> <PUBCHEM_PHARMACOPHORE_FEATURES>
9
1 3 acceptor
1 4 acceptor
1 5 acceptor
1 6 acceptor
1 6 donor
5 7 8 11 12 15 rings
6 14 19 20 24 25 26 rings
6 7 8 9 10 13 16 rings
6 9 10 14 17 19 21 rings

> <PUBCHEM_HEAVY_ATOM_COUNT>
29

> <PUBCHEM_ATOM_DEF_STEREO_COUNT>
7

> <PUBCHEM_ATOM_UDEF_STEREO_COUNT>
1

> <PUBCHEM_BOND_DEF_STEREO_COUNT>
0

> <PUBCHEM_BOND_UDEF_STEREO_COUNT>
0

> <PUBCHEM_ISOTOPIC_ATOM_COUNT>
0

> <PUBCHEM_COMPONENT_COUNT>
1

> <PUBCHEM_CACTVS_TAUTO_COUNT>
3

> <PUBCHEM_CONFORMER_ID>
00B667C200000001

> <PUBCHEM_MMFF94_ENERGY>
65.8058

> <PUBCHEM_FEATURE_SELFOVERLAP>
45.791

> <PUBCHEM_SHAPE_FINGERPRINT>
10 15 18131347488983641921
10906281 52 18269827640610729052
11405975 8 18262243334304664867
11578080 2 18339626850840290730
11595378 159 17489035958130820081
12403259 415 18272370927333707189
12596602 18 17346885515787690953
12788726 201 17458613553664151321
12892183 10 16128393578701390852
13140716 1 17979350859372201521
13224815 77 18411989087098031311
13583140 156 16343160034177837957
13757389 114 17617925947426589198
14341114 176 18339639057226704427
14790565 3 18338509841573616781
14849402 71 18343020034561310298
15183329 4 8574440845393656336
15196674 1 18411419535938196631
15297060 5 18265604387196690116
15475509 35 16558194937826733466
16126227 98 17980193094392116204
17844677 252 18338794645181487369
17980427 23 18200312100592920445
1813 80 16917062278895184541
21033648 29 17489595601586976695
21033650 10 14346058859420662835
21267235 1 18196925789399984551
21421861 104 18200606885947815130
21756936 100 18051136896262167124
21792934 111 18200310061332968529
21859007 373 17202218489540286093
22149856 69 18198600264943310009
22182313 1 18058465350738408253
23559900 14 18340772653905105470
3411729 13 18410854348438546382
350125 39 18338795719086672814
392239 28 18341333378922705427
4073 2 18271800177915303475
4093350 32 17313099800041101990
5104073 3 18339922748691305721
5252454 2 18187936027749024672
5265222 85 17907004090030464412
633830 44 18338806701049471911
7808743 9 18268431222721601672
9981440 41 18127973014646098178

> <PUBCHEM_SHAPE_MULTIPOLES>
571.31
13.69
3.44
1.43
7.04
0.16
0.13
-8.06
2.79
-5.66
-0.45
-0.25
0.03
-0.5

> <PUBCHEM_SHAPE_SELFOVERLAP>
1185.932

> <PUBCHEM_SHAPE_VOLUME>
329.9

> <PUBCHEM_COORDINATE_TYPE>
2
5
10

$$$$

