44138996
  -OEChem-07051213153D

 41 40  0     1  0  0  0  0  0999 V2000
    5.1804    0.5080    1.6458 O   0  0  0  0  0  0  0  0  0  0  0  0
   -8.5978   -2.6931    0.2973 O   0  0  0  0  0  0  0  0  0  0  0  0
    5.0820   -0.3373    0.4987 C   0  0  2  0  0  0  0  0  0  0  0  0
    6.0589   -1.5060    0.6892 C   0  0  0  0  0  0  0  0  0  0  0  0
    5.3603    0.4859   -0.7687 C   0  0  0  0  0  0  0  0  0  0  0  0
    5.9872   -2.5528   -0.4217 C   0  0  0  0  0  0  0  0  0  0  0  0
    4.4332    1.6952   -0.9595 C   0  0  0  0  0  0  0  0  0  0  0  0
    6.9984   -3.6671   -0.1990 C   0  0  0  0  0  0  0  0  0  0  0  0
    2.9803    1.3217   -1.0403 C   0  0  0  0  0  0  0  0  0  0  0  0
    2.0406    1.8131   -0.2186 C   0  0  0  0  0  0  0  0  0  0  0  0
    0.6464    1.4386   -0.2994 C   0  0  0  0  0  0  0  0  0  0  0  0
   -0.2904    1.9312    0.5229 C   0  0  0  0  0  0  0  0  0  0  0  0
   -1.6527    1.5403    0.4161 C   0  0  0  0  0  0  0  0  0  0  0  0
   -2.8044    1.2123    0.3301 C   0  0  0  0  0  0  0  0  0  0  0  0
   -8.4084   -1.5478   -0.5217 C   0  0  0  0  0  0  0  0  0  0  0  0
   -6.9890   -1.0974   -0.3969 C   0  0  0  0  0  0  0  0  0  0  0  0
   -6.6339    0.1157    0.0479 C   0  0  0  0  0  0  0  0  0  0  0  0
   -4.1201    0.8356    0.2318 C   0  0  0  0  0  0  0  0  0  0  0  0
   -5.2709    0.5039    0.1461 C   0  0  0  0  0  0  0  0  0  0  0  0
    4.0594   -0.7306    0.4697 H   0  0  0  0  0  0  0  0  0  0  0  0
    5.8579   -1.9866    1.6558 H   0  0  0  0  0  0  0  0  0  0  0  0
    7.0807   -1.1118    0.7674 H   0  0  0  0  0  0  0  0  0  0  0  0
    6.3906    0.8624   -0.7335 H   0  0  0  0  0  0  0  0  0  0  0  0
    5.2800   -0.1496   -1.6574 H   0  0  0  0  0  0  0  0  0  0  0  0
    6.1953   -2.1007   -1.3962 H   0  0  0  0  0  0  0  0  0  0  0  0
    4.9785   -2.9788   -0.4666 H   0  0  0  0  0  0  0  0  0  0  0  0
    4.6058    2.4185   -0.1532 H   0  0  0  0  0  0  0  0  0  0  0  0
    4.7081    2.2021   -1.8924 H   0  0  0  0  0  0  0  0  0  0  0  0
    6.8148   -4.1791    0.7509 H   0  0  0  0  0  0  0  0  0  0  0  0
    8.0200   -3.2737   -0.1860 H   0  0  0  0  0  0  0  0  0  0  0  0
    6.9298   -4.4074   -1.0023 H   0  0  0  0  0  0  0  0  0  0  0  0
    4.9395   -0.0228    2.4241 H   0  0  0  0  0  0  0  0  0  0  0  0
    2.7039    0.6172   -1.8218 H   0  0  0  0  0  0  0  0  0  0  0  0
    2.3233    2.5206    0.5566 H   0  0  0  0  0  0  0  0  0  0  0  0
    0.3696    0.7229   -1.0708 H   0  0  0  0  0  0  0  0  0  0  0  0
   -0.0325    2.6461    1.2983 H   0  0  0  0  0  0  0  0  0  0  0  0
   -9.1169   -0.7744   -0.2081 H   0  0  0  0  0  0  0  0  0  0  0  0
   -8.6211   -1.8201   -1.5600 H   0  0  0  0  0  0  0  0  0  0  0  0
   -6.2241   -1.8111   -0.6954 H   0  0  0  0  0  0  0  0  0  0  0  0
   -7.3888    0.8362    0.3458 H   0  0  0  0  0  0  0  0  0  0  0  0
   -9.5206   -2.9771    0.1819 H   0  0  0  0  0  0  0  0  0  0  0  0
  1  3  1  0  0  0  0
  1 32  1  0  0  0  0
  2 15  1  0  0  0  0
  2 41  1  0  0  0  0
  3  4  1  0  0  0  0
  3  5  1  0  0  0  0
  3 20  1  0  0  0  0
  4  6  1  0  0  0  0
  4 21  1  0  0  0  0
  4 22  1  0  0  0  0
  5  7  1  0  0  0  0
  5 23  1  0  0  0  0
  5 24  1  0  0  0  0
  6  8  1  0  0  0  0
  6 25  1  0  0  0  0
  6 26  1  0  0  0  0
  7  9  1  0  0  0  0
  7 27  1  0  0  0  0
  7 28  1  0  0  0  0
  8 29  1  0  0  0  0
  8 30  1  0  0  0  0
  8 31  1  0  0  0  0
  9 10  2  0  0  0  0
  9 33  1  0  0  0  0
 10 11  1  0  0  0  0
 10 34  1  0  0  0  0
 11 12  2  0  0  0  0
 11 35  1  0  0  0  0
 12 13  1  0  0  0  0
 12 36  1  0  0  0  0
 13 14  3  0  0  0  0
 14 18  1  0  0  0  0
 15 16  1  0  0  0  0
 15 37  1  0  0  0  0
 15 38  1  0  0  0  0
 16 17  2  0  0  0  0
 16 39  1  0  0  0  0
 17 19  1  0  0  0  0
 17 40  1  0  0  0  0
 18 19  3  0  0  0  0
M  END
> <PUBCHEM_COMPOUND_CID>
44138996

> <PUBCHEM_CONFORMER_RMSD>
0.8

> <PUBCHEM_CONFORMER_DIVERSEORDER>
1
68
88
92
8
38
34
94
62
109
35
82
12
83
51
33
74
13
50
17
2
100
29
48
26
60
114
27
16
46
78
37
103
90
71
9
115
99
18
55
67
95
72
59
112
20
93
10
76
36
117
40
24
63
97
11
98
25
61
102
32
80
66
3
41
56
75
122
86
77
44
6
15
53
31
43
110
39
87
54
107
19
120
7
52
116
22
58
65
28
91
113
105
96
49
4
119
21
84
108
106
79
81
111
70
104
5
30
85
42
23
69
73
45
64
101
89
57
14
118
121
47

> <PUBCHEM_MMFF94_PARTIAL_CHARGES>
21
1 -0.68
10 -0.15
11 -0.15
12 -0.09
13 -0.06
15 0.42
16 -0.29
17 -0.09
19 -0.06
2 -0.68
3 0.28
32 0.4
33 0.15
34 0.15
35 0.15
36 0.15
39 0.15
40 0.15
41 0.4
7 0.14
9 -0.29

> <PUBCHEM_EFFECTIVE_ROTOR_COUNT>
7

> <PUBCHEM_PHARMACOPHORE_FEATURES>
5
1 1 acceptor
1 1 donor
1 2 acceptor
1 2 donor
1 8 hydrophobe

> <PUBCHEM_HEAVY_ATOM_COUNT>
19

> <PUBCHEM_ATOM_DEF_STEREO_COUNT>
1

> <PUBCHEM_ATOM_UDEF_STEREO_COUNT>
0

> <PUBCHEM_BOND_DEF_STEREO_COUNT>
3

> <PUBCHEM_BOND_UDEF_STEREO_COUNT>
0

> <PUBCHEM_ISOTOPIC_ATOM_COUNT>
0

> <PUBCHEM_COMPONENT_COUNT>
1

> <PUBCHEM_CACTVS_TAUTO_COUNT>
1

> <PUBCHEM_CONFORMER_ID>
02A181F400000001

> <PUBCHEM_MMFF94_ENERGY>
8.5614

> <PUBCHEM_FEATURE_SELFOVERLAP>
25.371

> <PUBCHEM_SHAPE_FINGERPRINT>
10066227 49 18413670210602578847
10669705 251 17969497285647470598
10693767 8 18202286943835632330
11386260 185 16773509975879061132
11973863 73 18334846231192922979
125118 31 8935010265301431607
13533116 47 18411416220413731536
13668630 136 18343868827024522761
13862211 1 18408882932479840777
14251757 52 9367344833969713863
14428016 167 18339083821225139398
15183329 4 16917072174294527881
15475509 35 18114188549074704496
15690457 1 18410858754711073128
1768 124 18334295405267974774
20028762 73 18337107990435159814
20165401 70 18408888451397083694
2026 5 18271527606031627747
20281389 69 7637410614017506393
20526848 3 9727632808739196213
20621476 38 18411136960879950999
21130935 74 18334294300933709720
21521239 73 17988925565313812097
21585483 132 18201445834446887890
2215653 11 16845286159718292528
22224240 67 4678824956807143397
22864921 47 17967823743002436103
23081809 10 18339631287853100637
270888 7 9367044663733573448
3014063 24 18412262874083197700
33532 11 18410573981378775327
3472631 163 10231456529099258304
3711267 37 11095893683169221439
406291 66 18338799017463917730
54076057 255 11167941342382706663
5718773 13 18410856589709835405
636783 126 17095510843378949494
6438161 24 18272377451078053225

> <PUBCHEM_SHAPE_MULTIPOLES>
379.27
27.75
3.32
0.97
37.44
3.22
0.08
29.64
-1.09
-3.83
-0.28
-1.13
-0.19
-0.96

> <PUBCHEM_SHAPE_SELFOVERLAP>
722.79

> <PUBCHEM_SHAPE_VOLUME>
230.1

> <PUBCHEM_COORDINATE_TYPE>
2
5
10

$$$$

