9243
  -OEChem-06261203322D

 31 30  0     0  0  0  0  0  0999 V2000
    6.8671    2.0600    0.0000 O   0  0  0  0  0  0  0  0  0  0  0  0
    5.1350    2.0600    0.0000 O   0  0  0  0  0  0  0  0  0  0  0  0
    6.0010    0.5600    0.0000 O   0  0  0  0  0  0  0  0  0  0  0  0
    2.5369    1.5600    0.0000 N   0  0  0  0  0  0  0  0  0  0  0  0
    4.2690   -1.4400    0.0000 N   0  0  0  0  0  0  0  0  0  0  0  0
    9.4651    1.5600    0.0000 N   0  0  0  0  0  0  0  0  0  0  0  0
    4.2690    1.5600    0.0000 C   0  0  0  0  0  0  0  0  0  0  0  0
    5.1350    0.0600    0.0000 C   0  0  0  0  0  0  0  0  0  0  0  0
    7.7331    1.5600    0.0000 C   0  0  0  0  0  0  0  0  0  0  0  0
    3.4030    2.0600    0.0000 C   0  0  0  0  0  0  0  0  0  0  0  0
    5.1350   -0.9400    0.0000 C   0  0  0  0  0  0  0  0  0  0  0  0
    8.5991    2.0600    0.0000 C   0  0  0  0  0  0  0  0  0  0  0  0
    6.0010    1.5600    0.0000 B   0  0  0  0  0  0  0  0  0  0  0  0
    3.8705    1.0850    0.0000 H   0  0  0  0  0  0  0  0  0  0  0  0
    4.6675    1.0850    0.0000 H   0  0  0  0  0  0  0  0  0  0  0  0
    4.9230    0.6426    0.0000 H   0  0  0  0  0  0  0  0  0  0  0  0
    4.5244   -0.0477    0.0000 H   0  0  0  0  0  0  0  0  0  0  0  0
    7.3346    1.0850    0.0000 H   0  0  0  0  0  0  0  0  0  0  0  0
    8.1316    1.0850    0.0000 H   0  0  0  0  0  0  0  0  0  0  0  0
    3.8015    2.5349    0.0000 H   0  0  0  0  0  0  0  0  0  0  0  0
    3.0044    2.5349    0.0000 H   0  0  0  0  0  0  0  0  0  0  0  0
    5.3471   -1.5226    0.0000 H   0  0  0  0  0  0  0  0  0  0  0  0
    5.7456   -0.8323    0.0000 H   0  0  0  0  0  0  0  0  0  0  0  0
    8.9976    2.5349    0.0000 H   0  0  0  0  0  0  0  0  0  0  0  0
    8.2006    2.5349    0.0000 H   0  0  0  0  0  0  0  0  0  0  0  0
   10.0021    1.8700    0.0000 H   0  0  0  0  0  0  0  0  0  0  0  0
    9.4651    0.9400    0.0000 H   0  0  0  0  0  0  0  0  0  0  0  0
    4.2690   -2.0600    0.0000 H   0  0  0  0  0  0  0  0  0  0  0  0
    3.7320   -1.1300    0.0000 H   0  0  0  0  0  0  0  0  0  0  0  0
    2.0000    1.8700    0.0000 H   0  0  0  0  0  0  0  0  0  0  0  0
    2.5369    0.9400    0.0000 H   0  0  0  0  0  0  0  0  0  0  0  0
  1  9  1  0  0  0  0
  1 13  1  0  0  0  0
  2  7  1  0  0  0  0
  2 13  1  0  0  0  0
  3  8  1  0  0  0  0
  3 13  1  0  0  0  0
  4 10  1  0  0  0  0
  4 30  1  0  0  0  0
  4 31  1  0  0  0  0
  5 11  1  0  0  0  0
  5 28  1  0  0  0  0
  5 29  1  0  0  0  0
  6 12  1  0  0  0  0
  6 26  1  0  0  0  0
  6 27  1  0  0  0  0
  7 10  1  0  0  0  0
  7 14  1  0  0  0  0
  7 15  1  0  0  0  0
  8 11  1  0  0  0  0
  8 16  1  0  0  0  0
  8 17  1  0  0  0  0
  9 12  1  0  0  0  0
  9 18  1  0  0  0  0
  9 19  1  0  0  0  0
 10 20  1  0  0  0  0
 10 21  1  0  0  0  0
 11 22  1  0  0  0  0
 11 23  1  0  0  0  0
 12 24  1  0  0  0  0
 12 25  1  0  0  0  0
M  END
> <PUBCHEM_COMPOUND_CID>
9243

> <PUBCHEM_COMPOUND_CANONICALIZED>
1

> <PUBCHEM_CACTVS_COMPLEXITY>
90.1

> <PUBCHEM_CACTVS_HBOND_ACCEPTOR>
6

> <PUBCHEM_CACTVS_HBOND_DONOR>
3

> <PUBCHEM_CACTVS_ROTATABLE_BOND>
9

> <PUBCHEM_CACTVS_SUBSKEYS>
AAADceJjMAAAAAAAAAAAAAAAAAAAAAAAAAAAAAAAAAAAAAAAAAAIHgAQAAAAAADhgAYAAABAAAAAAAAAAAAAAAAAAAAAAIAAAAACAAAAAAAAAAAAEAAAAAAAAAAAAAAAAAAAAAAAAAAAAAAAAAAAAAAAAA==

> <PUBCHEM_IUPAC_OPENEYE_NAME>
tris(2-aminoethyl) borate

> <PUBCHEM_IUPAC_CAS_NAME>
tris(2-aminoethyl) borate

> <PUBCHEM_IUPAC_NAME>
tris(2-aminoethyl) borate

> <PUBCHEM_IUPAC_SYSTEMATIC_NAME>
tris(2-azanylethyl) borate

> <PUBCHEM_IUPAC_TRADITIONAL_NAME>
tris(2-aminoethyl) borate

> <PUBCHEM_IUPAC_INCHI>
InChI=1S/C6H18BN3O3/c8-1-4-11-7(12-5-2-9)13-6-3-10/h1-6,8-10H2

> <PUBCHEM_IUPAC_INCHIKEY>
LIFLTRKTCZIBEB-UHFFFAOYSA-N

> <PUBCHEM_EXACT_MASS>
191.144122

> <PUBCHEM_MOLECULAR_FORMULA>
C6H18BN3O3

> <PUBCHEM_MOLECULAR_WEIGHT>
191.03642

> <PUBCHEM_OPENEYE_CAN_SMILES>
B(OCCN)(OCCN)OCCN

> <PUBCHEM_OPENEYE_ISO_SMILES>
B(OCCN)(OCCN)OCCN

> <PUBCHEM_CACTVS_TPSA>
106

> <PUBCHEM_MONOISOTOPIC_WEIGHT>
191.144122

> <PUBCHEM_TOTAL_CHARGE>
0

> <PUBCHEM_HEAVY_ATOM_COUNT>
13

> <PUBCHEM_ATOM_DEF_STEREO_COUNT>
0

> <PUBCHEM_ATOM_UDEF_STEREO_COUNT>
0

> <PUBCHEM_BOND_DEF_STEREO_COUNT>
0

> <PUBCHEM_BOND_UDEF_STEREO_COUNT>
0

> <PUBCHEM_ISOTOPIC_ATOM_COUNT>
0

> <PUBCHEM_COMPONENT_COUNT>
1

> <PUBCHEM_CACTVS_TAUTO_COUNT>
1

> <PUBCHEM_COORDINATE_TYPE>
1
5
255

$$$$

