46173921
  -OEChem-07051213102D

 39 39  0     0  0  0  0  0  0999 V2000
    4.2690   -1.1900    0.0000 O   0  0  0  0  0  0  0  0  0  0  0  0
    2.5369    0.8100    0.0000 O   0  0  0  0  0  0  0  0  0  0  0  0
    8.5991    0.3100    0.0000 C   0  0  0  0  0  0  0  0  0  0  0  0
    5.1350    0.3100    0.0000 C   0  0  0  0  0  0  0  0  0  0  0  0
    6.0010    0.8100    0.0000 C   0  0  0  0  0  0  0  0  0  0  0  0
    8.5991   -0.6900    0.0000 C   0  0  0  0  0  0  0  0  0  0  0  0
    7.7331    0.8100    0.0000 C   0  0  0  0  0  0  0  0  0  0  0  0
    6.0010   -1.1900    0.0000 C   0  0  0  0  0  0  0  0  0  0  0  0
    6.8671   -0.6900    0.0000 C   0  0  0  0  0  0  0  0  0  0  0  0
    6.8671    0.3100    0.0000 C   0  0  0  0  0  0  0  0  0  0  0  0
    5.1350   -0.6900    0.0000 C   0  0  0  0  0  0  0  0  0  0  0  0
    7.7331   -1.1900    0.0000 C   0  0  0  0  0  0  0  0  0  0  0  0
    4.2690    0.8100    0.0000 C   0  0  0  0  0  0  0  0  0  0  0  0
    7.7331    1.8100    0.0000 C   0  0  0  0  0  0  0  0  0  0  0  0
    6.5979    0.8365    0.0000 C   0  0  0  0  0  0  0  0  0  0  0  0
    3.4030    0.3100    0.0000 C   0  0  0  0  0  0  0  0  0  0  0  0
    4.2690    1.8100    0.0000 C   0  0  0  0  0  0  0  0  0  0  0  0
    9.2097    0.2023    0.0000 H   0  0  0  0  0  0  0  0  0  0  0  0
    8.8112    0.8926    0.0000 H   0  0  0  0  0  0  0  0  0  0  0  0
    6.3996    1.2850    0.0000 H   0  0  0  0  0  0  0  0  0  0  0  0
    5.6025    1.2850    0.0000 H   0  0  0  0  0  0  0  0  0  0  0  0
    8.8112   -1.2726    0.0000 H   0  0  0  0  0  0  0  0  0  0  0  0
    9.2097   -0.5823    0.0000 H   0  0  0  0  0  0  0  0  0  0  0  0
    5.6025   -1.6650    0.0000 H   0  0  0  0  0  0  0  0  0  0  0  0
    6.3996   -1.6650    0.0000 H   0  0  0  0  0  0  0  0  0  0  0  0
    7.2657   -0.1649    0.0000 H   0  0  0  0  0  0  0  0  0  0  0  0
    7.7331   -1.8100    0.0000 H   0  0  0  0  0  0  0  0  0  0  0  0
    8.3531    1.8100    0.0000 H   0  0  0  0  0  0  0  0  0  0  0  0
    7.7331    2.4300    0.0000 H   0  0  0  0  0  0  0  0  0  0  0  0
    7.1131    1.8100    0.0000 H   0  0  0  0  0  0  0  0  0  0  0  0
    7.2085    0.9441    0.0000 H   0  0  0  0  0  0  0  0  0  0  0  0
    6.4902    1.4470    0.0000 H   0  0  0  0  0  0  0  0  0  0  0  0
    5.9873    0.7288    0.0000 H   0  0  0  0  0  0  0  0  0  0  0  0
    3.0044   -0.1649    0.0000 H   0  0  0  0  0  0  0  0  0  0  0  0
    3.8015   -0.1649    0.0000 H   0  0  0  0  0  0  0  0  0  0  0  0
    4.8890    1.8100    0.0000 H   0  0  0  0  0  0  0  0  0  0  0  0
    4.2690    2.4300    0.0000 H   0  0  0  0  0  0  0  0  0  0  0  0
    3.6490    1.8100    0.0000 H   0  0  0  0  0  0  0  0  0  0  0  0
    2.0000    0.5000    0.0000 H   0  0  0  0  0  0  0  0  0  0  0  0
  1 11  2  0  0  0  0
  2 16  1  0  0  0  0
  2 39  1  0  0  0  0
  3  6  1  0  0  0  0
  3  7  1  0  0  0  0
  3 18  1  0  0  0  0
  3 19  1  0  0  0  0
  4  5  1  0  0  0  0
  4 11  1  0  0  0  0
  4 13  2  0  0  0  0
  5 10  1  0  0  0  0
  5 20  1  0  0  0  0
  5 21  1  0  0  0  0
  6 12  1  0  0  0  0
  6 22  1  0  0  0  0
  6 23  1  0  0  0  0
  7 10  2  0  0  0  0
  7 14  1  0  0  0  0
  8  9  1  0  0  0  0
  8 11  1  0  0  0  0
  8 24  1  0  0  0  0
  8 25  1  0  0  0  0
  9 12  2  0  0  0  0
  9 15  1  0  0  0  0
 10 26  1  0  0  0  0
 12 27  1  0  0  0  0
 13 16  1  0  0  0  0
 13 17  1  0  0  0  0
 14 28  1  0  0  0  0
 14 29  1  0  0  0  0
 14 30  1  0  0  0  0
 15 31  1  0  0  0  0
 15 32  1  0  0  0  0
 15 33  1  0  0  0  0
 16 34  1  0  0  0  0
 16 35  1  0  0  0  0
 17 36  1  0  0  0  0
 17 37  1  0  0  0  0
 17 38  1  0  0  0  0
M  END
> <PUBCHEM_COMPOUND_CID>
46173921

> <PUBCHEM_COMPOUND_CANONICALIZED>
1

> <PUBCHEM_CACTVS_COMPLEXITY>
384

> <PUBCHEM_CACTVS_HBOND_ACCEPTOR>
2

> <PUBCHEM_CACTVS_HBOND_DONOR>
1

> <PUBCHEM_CACTVS_ROTATABLE_BOND>
1

> <PUBCHEM_CACTVS_SUBSKEYS>
AAADceBwMAAAAAAAAAAAAAAAAAAAAAAAAAAAAAAAAAAAAACAAAAAGgAACAAADASggAICAAAAAgCIAqBSAAAAAAAgAAAACAEAAEgAFBIAAQAAUAAAgAAIEQMAgAAAAAAAAAAAAAAAAAAAAAAAAAAAAAAAAA==

> <PUBCHEM_IUPAC_OPENEYE_NAME>
(3E,7E,10Z)-10-(2-hydroxy-1-methyl-ethylidene)-3,7-dimethyl-cyclodeca-3,7-dien-1-one

> <PUBCHEM_IUPAC_CAS_NAME>
(3E,7E,10Z)-10-(1-hydroxypropan-2-ylidene)-3,7-dimethyl-1-cyclodeca-3,7-dienone

> <PUBCHEM_IUPAC_NAME>
(3E,7E,10Z)-10-(1-hydroxypropan-2-ylidene)-3,7-dimethylcyclodeca-3,7-dien-1-one

> <PUBCHEM_IUPAC_SYSTEMATIC_NAME>
(3E,7E,10Z)-3,7-dimethyl-10-(1-oxidanylpropan-2-ylidene)cyclodeca-3,7-dien-1-one

> <PUBCHEM_IUPAC_TRADITIONAL_NAME>
(3E,7E,10Z)-10-(2-hydroxy-1-methyl-ethylidene)-3,7-dimethyl-cyclodeca-3,7-dien-1-one

> <PUBCHEM_IUPAC_INCHI>
InChI=1S/C15H22O2/c1-11-5-4-6-12(2)9-15(17)14(8-7-11)13(3)10-16/h6-7,16H,4-5,8-10H2,1-3H3/b11-7+,12-6+,14-13-

> <PUBCHEM_IUPAC_INCHIKEY>
OYONKNQJEXRUQZ-AMEYMCPOSA-N

> <PUBCHEM_XLOGP3_AA>
2.2

> <PUBCHEM_EXACT_MASS>
234.16198

> <PUBCHEM_MOLECULAR_FORMULA>
C15H22O2

> <PUBCHEM_MOLECULAR_WEIGHT>
234.33398

> <PUBCHEM_OPENEYE_CAN_SMILES>
CC1=CCC(=C(C)CO)C(=O)CC(=CCC1)C

> <PUBCHEM_OPENEYE_ISO_SMILES>
C/C/1=C\C/C(=C(\C)/CO)/C(=O)C/C(=C/CC1)/C

> <PUBCHEM_CACTVS_TPSA>
37.3

> <PUBCHEM_MONOISOTOPIC_WEIGHT>
234.16198

> <PUBCHEM_TOTAL_CHARGE>
0

> <PUBCHEM_HEAVY_ATOM_COUNT>
17

> <PUBCHEM_ATOM_DEF_STEREO_COUNT>
0

> <PUBCHEM_ATOM_UDEF_STEREO_COUNT>
0

> <PUBCHEM_BOND_DEF_STEREO_COUNT>
3

> <PUBCHEM_BOND_UDEF_STEREO_COUNT>
0

> <PUBCHEM_ISOTOPIC_ATOM_COUNT>
0

> <PUBCHEM_COMPONENT_COUNT>
1

> <PUBCHEM_CACTVS_TAUTO_COUNT>
13

> <PUBCHEM_COORDINATE_TYPE>
1
5
255

$$$$

