5280996
  -OEChem-07051212523D

 17 16  0     0  0  0  0  0  0999 V2000
   -0.5521   -1.4841   -0.1303 O   0  0  0  0  0  0  0  0  0  0  0  0
   -2.9650   -0.8384    0.2088 O   0  0  0  0  0  0  0  0  0  0  0  0
   -2.4217    1.3874    0.0835 O   0  0  0  0  0  0  0  0  0  0  0  0
    0.3380    0.7904   -0.2414 C   0  0  0  0  0  0  0  0  0  0  0  0
    1.6792    0.1583   -0.4478 C   0  0  0  0  0  0  0  0  0  0  0  0
   -0.7272   -0.2747   -0.1065 C   0  0  0  0  0  0  0  0  0  0  0  0
    2.7231    0.3399    0.3745 C   0  0  0  0  0  0  0  0  0  0  0  0
    4.0623   -0.2859    0.1677 C   0  0  0  0  0  0  0  0  0  0  0  0
   -2.1365    0.2070    0.0916 C   0  0  0  0  0  0  0  0  0  0  0  0
    0.1010    1.4149   -1.1090 H   0  0  0  0  0  0  0  0  0  0  0  0
    0.3232    1.4130    0.6597 H   0  0  0  0  0  0  0  0  0  0  0  0
    1.8004   -0.4654   -1.3305 H   0  0  0  0  0  0  0  0  0  0  0  0
    2.6117    0.9705    1.2525 H   0  0  0  0  0  0  0  0  0  0  0  0
    4.8261    0.4918    0.0725 H   0  0  0  0  0  0  0  0  0  0  0  0
    4.0956   -0.9086   -0.7319 H   0  0  0  0  0  0  0  0  0  0  0  0
    4.3164   -0.9142    1.0268 H   0  0  0  0  0  0  0  0  0  0  0  0
   -3.9001   -0.5617    0.3151 H   0  0  0  0  0  0  0  0  0  0  0  0
  1  6  2  0  0  0  0
  2  9  1  0  0  0  0
  2 17  1  0  0  0  0
  3  9  2  0  0  0  0
  4  5  1  0  0  0  0
  4  6  1  0  0  0  0
  4 10  1  0  0  0  0
  4 11  1  0  0  0  0
  5  7  2  0  0  0  0
  5 12  1  0  0  0  0
  6  9  1  0  0  0  0
  7  8  1  0  0  0  0
  7 13  1  0  0  0  0
  8 14  1  0  0  0  0
  8 15  1  0  0  0  0
  8 16  1  0  0  0  0
M  END
> <PUBCHEM_COMPOUND_CID>
5280996

> <PUBCHEM_CONFORMER_RMSD>
0.6

> <PUBCHEM_CONFORMER_DIVERSEORDER>
1
3
7
4
2
5
6

> <PUBCHEM_MMFF94_PARTIAL_CHARGES>
12
1 -0.57
12 0.15
13 0.15
17 0.5
2 -0.65
3 -0.57
4 0.2
5 -0.29
6 0.51
7 -0.29
8 0.14
9 0.72

> <PUBCHEM_EFFECTIVE_ROTOR_COUNT>
3

> <PUBCHEM_PHARMACOPHORE_FEATURES>
5
1 1 acceptor
1 2 acceptor
1 3 acceptor
1 8 hydrophobe
3 2 3 9 anion

> <PUBCHEM_HEAVY_ATOM_COUNT>
9

> <PUBCHEM_ATOM_DEF_STEREO_COUNT>
0

> <PUBCHEM_ATOM_UDEF_STEREO_COUNT>
0

> <PUBCHEM_BOND_DEF_STEREO_COUNT>
1

> <PUBCHEM_BOND_UDEF_STEREO_COUNT>
0

> <PUBCHEM_ISOTOPIC_ATOM_COUNT>
0

> <PUBCHEM_COMPONENT_COUNT>
1

> <PUBCHEM_CACTVS_TAUTO_COUNT>
3

> <PUBCHEM_CONFORMER_ID>
005094E400000001

> <PUBCHEM_MMFF94_ENERGY>
6.6423

> <PUBCHEM_FEATURE_SELFOVERLAP>
25.441

> <PUBCHEM_SHAPE_FINGERPRINT>
11062470 55 5328746266192708090
12932764 1 17458632189853827708
14325111 11 18410011052625890316
14390081 3 18113619018677692193
15310529 11 12103576277114369800
190213 19 17703791410016917264
20645464 45 18040149621708011542
20871998 184 18043244652330140591
21293036 1 9295286127524550681
23402539 116 18041289824336231821
369184 2 17821449036449748457

> <PUBCHEM_SHAPE_MULTIPOLES>
167.61
5.78
1.13
0.64
3.48
0.06
0.01
0.24
-0.76
-0.65
0.01
0.14
-0.02
-0.01

> <PUBCHEM_SHAPE_SELFOVERLAP>
318.586

> <PUBCHEM_SHAPE_VOLUME>
102.3

> <PUBCHEM_COORDINATE_TYPE>
2
5
10

$$$$

