440281
  -OEChem-07051212492D

 30 30  0     1  0  0  0  0  0999 V2000
    6.0010    0.0205    0.0000 O   0  0  0  0  0  0  0  0  0  0  0  0
    2.5369    0.0205    0.0000 O   0  0  0  0  0  0  0  0  0  0  0  0
    6.0010   -1.9795    0.0000 O   0  0  0  0  0  0  0  0  0  0  0  0
    2.5369   -1.9795    0.0000 O   0  0  0  0  0  0  0  0  0  0  0  0
    4.2690   -2.9795    0.0000 O   0  0  0  0  0  0  0  0  0  0  0  0
    4.2690    1.0205    0.0000 N   0  0  0  0  0  0  0  0  0  0  0  0
    4.2690    2.7526    0.0000 N   0  0  0  0  0  0  0  0  0  0  0  0
    5.7690    1.8865    0.0000 N   0  0  0  0  0  0  0  0  0  0  0  0
    4.2690    0.0205    0.0000 C   0  0  0  0  0  0  0  0  0  0  0  0
    3.4030   -0.4795    0.0000 C   0  0  1  0  0  0  0  0  0  0  0  0
    5.1350   -0.4795    0.0000 C   0  0  2  0  0  0  0  0  0  0  0  0
    3.4030   -1.4795    0.0000 C   0  0  2  0  0  0  0  0  0  0  0  0
    5.1350   -1.4795    0.0000 C   0  0  1  0  0  0  0  0  0  0  0  0
    4.2690   -1.9795    0.0000 C   0  0  0  0  0  0  0  0  0  0  0  0
    4.7690    1.8865    0.0000 C   0  0  0  0  0  0  0  0  0  0  0  0
    4.8059    0.3305    0.0000 H   0  0  0  0  0  0  0  0  0  0  0  0
    5.1350    0.1405    0.0000 H   0  0  0  0  0  0  0  0  0  0  0  0
    3.4030    0.1405    0.0000 H   0  0  0  0  0  0  0  0  0  0  0  0
    5.1350   -2.0995    0.0000 H   0  0  0  0  0  0  0  0  0  0  0  0
    3.4030   -2.0995    0.0000 H   0  0  0  0  0  0  0  0  0  0  0  0
    4.8059   -2.2895    0.0000 H   0  0  0  0  0  0  0  0  0  0  0  0
    2.0000   -0.2895    0.0000 H   0  0  0  0  0  0  0  0  0  0  0  0
    6.5380   -0.2895    0.0000 H   0  0  0  0  0  0  0  0  0  0  0  0
    2.5369   -2.5995    0.0000 H   0  0  0  0  0  0  0  0  0  0  0  0
    6.0010   -2.5995    0.0000 H   0  0  0  0  0  0  0  0  0  0  0  0
    3.7320   -3.2895    0.0000 H   0  0  0  0  0  0  0  0  0  0  0  0
    4.5790    3.2895    0.0000 H   0  0  0  0  0  0  0  0  0  0  0  0
    3.6490    2.7526    0.0000 H   0  0  0  0  0  0  0  0  0  0  0  0
    6.0790    2.4235    0.0000 H   0  0  0  0  0  0  0  0  0  0  0  0
    6.0790    1.3496    0.0000 H   0  0  0  0  0  0  0  0  0  0  0  0
 11  1  1  1  0  0  0
  1 23  1  0  0  0  0
 10  2  1  1  0  0  0
  2 22  1  0  0  0  0
 13  3  1  6  0  0  0
  3 25  1  0  0  0  0
 12  4  1  6  0  0  0
  4 24  1  0  0  0  0
  5 14  1  0  0  0  0
  5 26  1  0  0  0  0
  6  9  1  0  0  0  0
  6 15  2  0  0  0  0
  7 15  1  0  0  0  0
  7 27  1  0  0  0  0
  7 28  1  0  0  0  0
  8 15  1  0  0  0  0
  8 29  1  0  0  0  0
  8 30  1  0  0  0  0
  9 10  1  0  0  0  0
  9 11  1  0  0  0  0
  9 16  1  0  0  0  0
 10 12  1  0  0  0  0
 10 18  1  0  0  0  0
 11 13  1  0  0  0  0
 11 17  1  0  0  0  0
 12 14  1  0  0  0  0
 12 20  1  0  0  0  0
 13 14  1  0  0  0  0
 13 19  1  0  0  0  0
 14 21  1  0  0  0  0
M  END
> <PUBCHEM_COMPOUND_CID>
440281

> <PUBCHEM_COMPOUND_CANONICALIZED>
1

> <PUBCHEM_CACTVS_COMPLEXITY>
241

> <PUBCHEM_CACTVS_HBOND_ACCEPTOR>
6

> <PUBCHEM_CACTVS_HBOND_DONOR>
7

> <PUBCHEM_CACTVS_ROTATABLE_BOND>
1

> <PUBCHEM_CACTVS_SUBSKEYS>
AAADccBjOAAAAAAAAAAAAAAAAAAAAAAAAAAwAAAAAAAAAAAAAAAAHgAQCAAACDzhgAYBAAJAAgAgAAAAJAAAAAEAAAAAAAAAAAADEAIAgAAAQAAHAAABAAHwcAUAAAAAAAAAAAACgAAUAACgAAAAAAAAAA==

> <PUBCHEM_IUPAC_OPENEYE_NAME>
2-[(2S,3R,5S,6R)-2,3,4,5,6-pentahydroxycyclohexyl]guanidine

> <PUBCHEM_IUPAC_CAS_NAME>
2-[(2S,3R,5S,6R)-2,3,4,5,6-pentahydroxycyclohexyl]guanidine

> <PUBCHEM_IUPAC_NAME>
2-[(2S,3R,5S,6R)-2,3,4,5,6-pentahydroxycyclohexyl]guanidine

> <PUBCHEM_IUPAC_SYSTEMATIC_NAME>
2-[(2S,3R,5S,6R)-2,3,4,5,6-pentakis(oxidanyl)cyclohexyl]guanidine

> <PUBCHEM_IUPAC_TRADITIONAL_NAME>
2-[(2S,3R,5S,6R)-2,3,4,5,6-pentahydroxycyclohexyl]guanidine

> <PUBCHEM_IUPAC_INCHI>
InChI=1S/C7H15N3O5/c8-7(9)10-1-2(11)4(13)6(15)5(14)3(1)12/h1-6,11-15H,(H4,8,9,10)/t1?,2-,3+,4+,5-,6?

> <PUBCHEM_IUPAC_INCHIKEY>
LXQDZCCPYLOHOJ-UYSNGIAKSA-N

> <PUBCHEM_XLOGP3_AA>
-4.6

> <PUBCHEM_EXACT_MASS>
221.101171

> <PUBCHEM_MOLECULAR_FORMULA>
C7H15N3O5

> <PUBCHEM_MOLECULAR_WEIGHT>
221.2111

> <PUBCHEM_OPENEYE_CAN_SMILES>
C1(C(C(C(C(C1O)O)O)O)O)N=C(N)N

> <PUBCHEM_OPENEYE_ISO_SMILES>
[C@H]1([C@H](C([C@H]([C@@H](C1N=C(N)N)O)O)O)O)O

> <PUBCHEM_CACTVS_TPSA>
166

> <PUBCHEM_MONOISOTOPIC_WEIGHT>
221.101171

> <PUBCHEM_TOTAL_CHARGE>
0

> <PUBCHEM_HEAVY_ATOM_COUNT>
15

> <PUBCHEM_ATOM_DEF_STEREO_COUNT>
4

> <PUBCHEM_ATOM_UDEF_STEREO_COUNT>
0

> <PUBCHEM_BOND_DEF_STEREO_COUNT>
0

> <PUBCHEM_BOND_UDEF_STEREO_COUNT>
0

> <PUBCHEM_ISOTOPIC_ATOM_COUNT>
0

> <PUBCHEM_COMPONENT_COUNT>
1

> <PUBCHEM_CACTVS_TAUTO_COUNT>
2

> <PUBCHEM_COORDINATE_TYPE>
1
5
255

> <PUBCHEM_BONDANNOTATIONS>
11  1  5
10  2  5
13  3  6
12  4  6

$$$$

