4130
  -OEChem-07051213043D

 26 26  0     0  0  0  0  0  0999 V2000
    2.5505    0.4512   -2.1579 S   0  0  0  0  0  0  0  0  0  0  0  0
    2.6306    0.1030   -0.2406 P   0  0  0  0  0  0  0  0  0  0  0  0
    1.4274   -0.7766    0.3975 O   0  0  0  0  0  0  0  0  0  0  0  0
    3.9325   -0.7268    0.2777 O   0  0  0  0  0  0  0  0  0  0  0  0
    2.6716    1.3922    0.7511 O   0  0  0  0  0  0  0  0  0  0  0  0
   -4.8301   -0.7404   -0.0761 O   0  5  0  0  0  0  0  0  0  0  0  0
   -4.4219    1.4118   -0.2193 O   0  0  0  0  0  0  0  0  0  0  0  0
   -4.0304    0.2263   -0.0936 N   0  3  0  0  0  0  0  0  0  0  0  0
    0.0864   -0.5302    0.2765 C   0  0  0  0  0  0  0  0  0  0  0  0
   -0.8142   -1.5900    0.2964 C   0  0  0  0  0  0  0  0  0  0  0  0
   -0.3644    0.7782    0.1358 C   0  0  0  0  0  0  0  0  0  0  0  0
   -2.6393   -0.0291    0.0330 C   0  0  0  0  0  0  0  0  0  0  0  0
   -2.1809   -1.3389    0.1742 C   0  0  0  0  0  0  0  0  0  0  0  0
   -1.7311    1.0295    0.0139 C   0  0  0  0  0  0  0  0  0  0  0  0
    4.0973   -2.0851   -0.0940 C   0  0  0  0  0  0  0  0  0  0  0  0
    3.6161    2.4248    0.5253 C   0  0  0  0  0  0  0  0  0  0  0  0
   -0.4607   -2.6114    0.4061 H   0  0  0  0  0  0  0  0  0  0  0  0
    0.3100    1.6262    0.1246 H   0  0  0  0  0  0  0  0  0  0  0  0
   -2.8590   -2.1883    0.1929 H   0  0  0  0  0  0  0  0  0  0  0  0
   -2.0525    2.0625   -0.0931 H   0  0  0  0  0  0  0  0  0  0  0  0
    5.0059   -2.4672    0.3782 H   0  0  0  0  0  0  0  0  0  0  0  0
    4.2003   -2.1706   -1.1783 H   0  0  0  0  0  0  0  0  0  0  0  0
    3.2454   -2.6779    0.2483 H   0  0  0  0  0  0  0  0  0  0  0  0
    3.6869    3.0358    1.4286 H   0  0  0  0  0  0  0  0  0  0  0  0
    3.2842    3.0556   -0.3029 H   0  0  0  0  0  0  0  0  0  0  0  0
    4.6001    2.0023    0.3052 H   0  0  0  0  0  0  0  0  0  0  0  0
  1  2  2  0  0  0  0
  2  3  1  0  0  0  0
  2  4  1  0  0  0  0
  2  5  1  0  0  0  0
  3  9  1  0  0  0  0
  4 15  1  0  0  0  0
  5 16  1  0  0  0  0
  6  8  1  0  0  0  0
  7  8  2  0  0  0  0
  8 12  1  0  0  0  0
  9 10  2  0  0  0  0
  9 11  1  0  0  0  0
 10 13  1  0  0  0  0
 10 17  1  0  0  0  0
 11 14  2  0  0  0  0
 11 18  1  0  0  0  0
 12 13  2  0  0  0  0
 12 14  1  0  0  0  0
 13 19  1  0  0  0  0
 14 20  1  0  0  0  0
 15 21  1  0  0  0  0
 15 22  1  0  0  0  0
 15 23  1  0  0  0  0
 16 24  1  0  0  0  0
 16 25  1  0  0  0  0
 16 26  1  0  0  0  0
M  CHG  2   6  -1   8   1
M  END
> <PUBCHEM_COMPOUND_CID>
4130

> <PUBCHEM_CONFORMER_RMSD>
0.6

> <PUBCHEM_CONFORMER_DIVERSEORDER>
1
5
12
18
11
7
15
2
16
13
10
9
6
3
8
17
14
4

> <PUBCHEM_MMFF94_PARTIAL_CHARGES>
20
1 -0.68
10 -0.15
11 -0.15
12 0.13
13 -0.15
14 -0.15
15 0.28
16 0.28
17 0.15
18 0.15
19 0.15
2 1.49
20 0.15
3 -0.35
4 -0.55
5 -0.55
6 -0.52
7 -0.52
8 0.91
9 0.08

> <PUBCHEM_EFFECTIVE_ROTOR_COUNT>
5

> <PUBCHEM_PHARMACOPHORE_FEATURES>
4
1 6 acceptor
1 6 anion
1 7 acceptor
6 9 10 11 12 13 14 rings

> <PUBCHEM_HEAVY_ATOM_COUNT>
16

> <PUBCHEM_ATOM_DEF_STEREO_COUNT>
0

> <PUBCHEM_ATOM_UDEF_STEREO_COUNT>
0

> <PUBCHEM_BOND_DEF_STEREO_COUNT>
0

> <PUBCHEM_BOND_UDEF_STEREO_COUNT>
0

> <PUBCHEM_ISOTOPIC_ATOM_COUNT>
0

> <PUBCHEM_COMPONENT_COUNT>
1

> <PUBCHEM_CACTVS_TAUTO_COUNT>
1

> <PUBCHEM_CONFORMER_ID>
0000102200000001

> <PUBCHEM_MMFF94_ENERGY>
38.8742

> <PUBCHEM_FEATURE_SELFOVERLAP>
20.379

> <PUBCHEM_SHAPE_FINGERPRINT>
10608611 8 18410578357581431768
11543360 7 16732990778120718301
13675066 3 18130786741794276059
14115302 16 18272079518039787270
15196674 1 18410577275518601033
15536298 74 18410014316727227848
17802600 8 18341054107169219464
18186145 218 17632582651445194251
200 152 17749394792576203147
20369508 70 18334575772158667758
20645476 183 17987780913553686566
20645477 56 18271246019247869969
20645477 70 18040428880745491174
212847 35 18343015622907139196
21452121 103 18336558139973287944
23402539 116 18260839240622852727
23557571 272 18045492015658477350
23559900 14 18335143102941742914
3060560 45 16298943148635171508
3248919 1 16805591564988147290
3286 77 18410012178065701092
3545911 37 18338797814967598208
474 4 17203039678232842932
4990 188 18040150734357794351
5104073 3 18412262831096550409
633830 44 18336836363580296141
69090 78 18335145279989216303
7364860 26 18408604752006413602
9709674 26 18409727335650481554

> <PUBCHEM_SHAPE_MULTIPOLES>
302.64
8.86
2.01
1.04
4.32
0.16
0.69
0.45
0.36
-1.8
-0.37
-1.11
0.26
0.38

> <PUBCHEM_SHAPE_SELFOVERLAP>
590.65

> <PUBCHEM_SHAPE_VOLUME>
185.2

> <PUBCHEM_COORDINATE_TYPE>
2
5
10

$$$$

