4036
  -OEChem-06251223503D

 29 30  0     0  0  0  0  0  0999 V2000
    1.3828   -0.1219   -2.4871 Cl  0  0  0  0  0  0  0  0  0  0  0  0
    0.8921    0.8195    2.8550 Cl  0  0  0  0  0  0  0  0  0  0  0  0
   -1.7738    2.3657   -0.4582 O   0  5  0  0  0  0  0  0  0  0  0  0
   -3.9877    1.9439   -0.5948 O   0  0  0  0  0  0  0  0  0  0  0  0
   -0.1156    0.5328    0.0242 N   0  0  0  0  0  0  0  0  0  0  0  0
    1.2662    0.3283    0.1931 C   0  0  0  0  0  0  0  0  0  0  0  0
   -1.2240   -0.3414    0.0735 C   0  0  0  0  0  0  0  0  0  0  0  0
    3.4470   -0.1862   -0.7324 C   0  0  0  0  0  0  0  0  0  0  0  0
    2.0774    0.0156   -0.9039 C   0  0  0  0  0  0  0  0  0  0  0  0
    1.8432    0.4360    1.4637 C   0  0  0  0  0  0  0  0  0  0  0  0
   -2.5195    0.1324   -0.1340 C   0  0  0  0  0  0  0  0  0  0  0  0
    4.0146   -0.0772    0.5370 C   0  0  0  0  0  0  0  0  0  0  0  0
    3.2128    0.2340    1.6351 C   0  0  0  0  0  0  0  0  0  0  0  0
   -1.0098   -1.6950    0.3338 C   0  0  0  0  0  0  0  0  0  0  0  0
    4.3462   -0.5217   -1.8789 C   0  0  0  0  0  0  0  0  0  0  0  0
   -3.6006   -0.7475   -0.0811 C   0  0  0  0  0  0  0  0  0  0  0  0
   -2.0909   -2.5748    0.3867 C   0  0  0  0  0  0  0  0  0  0  0  0
   -3.3862   -2.1011    0.1792 C   0  0  0  0  0  0  0  0  0  0  0  0
   -2.7743    1.5585   -0.4109 C   0  0  0  0  0  0  0  0  0  0  0  0
   -0.2994    1.4262   -0.4177 H   0  0  0  0  0  0  0  0  0  0  0  0
    5.0795   -0.2311    0.6903 H   0  0  0  0  0  0  0  0  0  0  0  0
    3.6709    0.3153    2.6176 H   0  0  0  0  0  0  0  0  0  0  0  0
   -0.0123   -2.0930    0.4994 H   0  0  0  0  0  0  0  0  0  0  0  0
    4.3332    0.2787   -2.6261 H   0  0  0  0  0  0  0  0  0  0  0  0
    5.3869   -0.6448   -1.5589 H   0  0  0  0  0  0  0  0  0  0  0  0
    4.0407   -1.4640   -2.3455 H   0  0  0  0  0  0  0  0  0  0  0  0
   -4.6222   -0.4122   -0.2379 H   0  0  0  0  0  0  0  0  0  0  0  0
   -1.9243   -3.6288    0.5893 H   0  0  0  0  0  0  0  0  0  0  0  0
   -4.2277   -2.7865    0.2205 H   0  0  0  0  0  0  0  0  0  0  0  0
  1  9  1  0  0  0  0
  2 10  1  0  0  0  0
  3 19  1  0  0  0  0
  4 19  2  0  0  0  0
  5  6  1  0  0  0  0
  5  7  1  0  0  0  0
  5 20  1  0  0  0  0
  6  9  1  0  0  0  0
  6 10  2  0  0  0  0
  7 11  1  0  0  0  0
  7 14  2  0  0  0  0
  8  9  2  0  0  0  0
  8 12  1  0  0  0  0
  8 15  1  0  0  0  0
 10 13  1  0  0  0  0
 11 16  2  0  0  0  0
 11 19  1  0  0  0  0
 12 13  2  0  0  0  0
 12 21  1  0  0  0  0
 13 22  1  0  0  0  0
 14 17  1  0  0  0  0
 14 23  1  0  0  0  0
 15 24  1  0  0  0  0
 15 25  1  0  0  0  0
 15 26  1  0  0  0  0
 16 18  1  0  0  0  0
 16 27  1  0  0  0  0
 17 18  2  0  0  0  0
 17 28  1  0  0  0  0
 18 29  1  0  0  0  0
M  CHG  1   3  -1
M  END
> <PUBCHEM_COMPOUND_CID>
4036

> <PUBCHEM_CONFORMER_RMSD>
0.6

> <PUBCHEM_CONFORMER_DIVERSEORDER>
1
10
9
6
5
12
11
7
8
4
3
2

> <PUBCHEM_MMFF94_PARTIAL_CHARGES>
26
1 -0.18
10 0.18
11 -0.18
12 -0.15
13 -0.15
14 -0.15
15 0.14
16 -0.15
17 -0.15
18 -0.15
19 0.98
2 -0.18
20 0.4
21 0.15
22 0.15
23 0.15
27 0.15
28 0.15
29 0.15
3 -0.9
4 -0.9
5 -0.6
6 0.1
7 0.1
8 -0.14
9 0.18

> <PUBCHEM_EFFECTIVE_ROTOR_COUNT>
3

> <PUBCHEM_PHARMACOPHORE_FEATURES>
7
1 3 acceptor
1 4 acceptor
1 5 cation
1 5 donor
3 3 4 19 anion
6 6 8 9 10 12 13 rings
6 7 11 14 16 17 18 rings

> <PUBCHEM_HEAVY_ATOM_COUNT>
19

> <PUBCHEM_ATOM_DEF_STEREO_COUNT>
0

> <PUBCHEM_ATOM_UDEF_STEREO_COUNT>
0

> <PUBCHEM_BOND_DEF_STEREO_COUNT>
0

> <PUBCHEM_BOND_UDEF_STEREO_COUNT>
0

> <PUBCHEM_ISOTOPIC_ATOM_COUNT>
0

> <PUBCHEM_COMPONENT_COUNT>
1

> <PUBCHEM_CACTVS_TAUTO_COUNT>
2

> <PUBCHEM_CONFORMER_ID>
00000FC400000001

> <PUBCHEM_MMFF94_ENERGY>
75.4464

> <PUBCHEM_FEATURE_SELFOVERLAP>
35.582

> <PUBCHEM_SHAPE_FINGERPRINT>
11543360 7 18270382916106179356
11582403 64 16383186762581105137
11615757 297 15913329069895828539
11725454 13 17391120045299108913
11796584 16 18337104692042675534
12236239 1 17346602971252807570
12500047 106 18411144666114752502
12553582 1 18127970798338114843
12596599 1 16702303451291477562
12714826 92 18334846186956398306
13009979 54 17631749247638235610
13134695 92 16732702757640118704
13296908 3 17748823003780468702
13538477 17 17989213641750104305
13583140 156 18114197332082637078
14294032 229 18129386072384002869
15653759 3 18187364307240133538
16752209 62 18201454549277779043
16945 1 18341898471848587563
18186145 218 18113615720063479905
18219364 16 17022910012295146238
19049666 15 18040713722580935794
19422 9 17418098723607837898
19862831 5 16917074312929544474
20600515 1 18268161880943327153
20645476 183 17203608173221203691
20645477 70 16877943854086001750
21618674 53 17489859453632428360
21639500 275 16081663166368713586
22112679 90 17632306669768448684
23175994 123 17385713703764994248
23402539 116 18337405855059306695
23526113 38 17677054666967785786
23557571 272 18336830788560194000
23559900 14 18335418015382466286
23598291 2 17131840905591561862
23598294 1 18202567272055912313
474 4 16485554413695021644
6049 1 18113617837482473848
6992083 37 17561091344502485831
77492 1 17346605170371008752
81228 2 18339366249884231595

> <PUBCHEM_SHAPE_MULTIPOLES>
378.03
7.6
2.08
1.95
1.09
0.71
-0.09
-1.76
-0.12
2.24
0.07
-2.88
-0.2
1.55

> <PUBCHEM_SHAPE_SELFOVERLAP>
797.488

> <PUBCHEM_SHAPE_VOLUME>
213.3

> <PUBCHEM_COORDINATE_TYPE>
2
5
10

$$$$

