47205143
  -OEChem-06241222583D

 31 32  0     0  0  0  0  0  0999 V2000
   -0.3462    1.4644    1.4237 O   0  0  0  0  0  0  0  0  0  0  0  0
    0.7921    1.8488   -0.5630 N   0  0  0  0  0  0  0  0  0  0  0  0
   -1.5007    1.6884   -0.5764 N   0  0  0  0  0  0  0  0  0  0  0  0
   -3.5950   -0.6252   -1.1010 N   0  0  0  0  0  0  0  0  0  0  0  0
   -3.9168   -1.9085   -0.8654 N   0  0  0  0  0  0  0  0  0  0  0  0
    2.1267    1.8588   -0.0102 C   0  0  0  0  0  0  0  0  0  0  0  0
   -2.8257    1.5109   -0.0307 C   0  0  0  0  0  0  0  0  0  0  0  0
    2.7431    0.4897   -0.0053 C   0  0  0  0  0  0  0  0  0  0  0  0
   -3.2250    0.0643    0.0162 C   0  0  0  0  0  0  0  0  0  0  0  0
   -0.3504    1.6499    0.2075 C   0  0  0  0  0  0  0  0  0  0  0  0
    2.5748   -0.3476    1.0975 C   0  0  0  0  0  0  0  0  0  0  0  0
    3.4840    0.0551   -1.1042 C   0  0  0  0  0  0  0  0  0  0  0  0
   -3.3111   -0.8301    1.0550 C   0  0  0  0  0  0  0  0  0  0  0  0
    3.1473   -1.6197    1.1014 C   0  0  0  0  0  0  0  0  0  0  0  0
    4.0563   -1.2170   -1.1006 C   0  0  0  0  0  0  0  0  0  0  0  0
    3.8880   -2.0543    0.0023 C   0  0  0  0  0  0  0  0  0  0  0  0
   -3.7413   -2.0279    0.4533 C   0  0  0  0  0  0  0  0  0  0  0  0
    2.0974    2.2675    1.0068 H   0  0  0  0  0  0  0  0  0  0  0  0
    2.7276    2.5491   -0.6130 H   0  0  0  0  0  0  0  0  0  0  0  0
   -3.5204    2.0738   -0.6633 H   0  0  0  0  0  0  0  0  0  0  0  0
   -2.8615    1.9418    0.9761 H   0  0  0  0  0  0  0  0  0  0  0  0
    0.6868    1.9709   -1.5655 H   0  0  0  0  0  0  0  0  0  0  0  0
   -1.4049    1.8243   -1.5780 H   0  0  0  0  0  0  0  0  0  0  0  0
    2.0030   -0.0216    1.9619 H   0  0  0  0  0  0  0  0  0  0  0  0
    3.6209    0.6973   -1.9702 H   0  0  0  0  0  0  0  0  0  0  0  0
   -3.0930   -0.6439    2.0964 H   0  0  0  0  0  0  0  0  0  0  0  0
   -3.6498   -0.2850   -2.0531 H   0  0  0  0  0  0  0  0  0  0  0  0
    3.0167   -2.2715    1.9602 H   0  0  0  0  0  0  0  0  0  0  0  0
    4.6327   -1.5557   -1.9565 H   0  0  0  0  0  0  0  0  0  0  0  0
   -3.9339   -2.9827    0.9210 H   0  0  0  0  0  0  0  0  0  0  0  0
    4.3337   -3.0447    0.0052 H   0  0  0  0  0  0  0  0  0  0  0  0
  1 10  2  0  0  0  0
  2  6  1  0  0  0  0
  2 10  1  0  0  0  0
  2 22  1  0  0  0  0
  3  7  1  0  0  0  0
  3 10  1  0  0  0  0
  3 23  1  0  0  0  0
  4  5  1  0  0  0  0
  4  9  1  0  0  0  0
  4 27  1  0  0  0  0
  5 17  2  0  0  0  0
  6  8  1  0  0  0  0
  6 18  1  0  0  0  0
  6 19  1  0  0  0  0
  7  9  1  0  0  0  0
  7 20  1  0  0  0  0
  7 21  1  0  0  0  0
  8 11  2  0  0  0  0
  8 12  1  0  0  0  0
  9 13  2  0  0  0  0
 11 14  1  0  0  0  0
 11 24  1  0  0  0  0
 12 15  2  0  0  0  0
 12 25  1  0  0  0  0
 13 17  1  0  0  0  0
 13 26  1  0  0  0  0
 14 16  2  0  0  0  0
 14 28  1  0  0  0  0
 15 16  1  0  0  0  0
 15 29  1  0  0  0  0
 16 31  1  0  0  0  0
 17 30  1  0  0  0  0
M  END
> <PUBCHEM_COMPOUND_CID>
47205143

> <PUBCHEM_CONFORMER_RMSD>
0.8

> <PUBCHEM_CONFORMER_DIVERSEORDER>
1
18
47
76
97
43
84
73
111
50
16
110
105
101
6
14
54
112
56
115
44
81
19
11
74
117
57
99
106
12
48
22
2
70
20
86
66
63
59
83
15
75
4
82
37
21
69
98
41
103
64
9
17
71
92
7
23
51
13
80
33
31
72
34
25
118
49
10
3
68
113
62
120
88
89
5
78
8
61
121
38
116
24
29
122
55
39
104
26
96
108
67
94
32
79
46
85
36
114
27
90
119
42
107
30
58
45
102
53
40
109
35
95
93
28
52
65
87
91
77
100
60

> <PUBCHEM_MMFF94_PARTIAL_CHARGES>
27
1 -0.57
10 0.69
11 -0.15
12 -0.15
13 -0.15
14 -0.15
15 -0.15
16 -0.15
17 0.14
2 -0.73
22 0.37
23 0.37
24 0.15
25 0.15
26 0.15
27 0.27
28 0.15
29 0.15
3 -0.73
30 0.15
31 0.15
4 0.3
5 -0.71
6 0.44
7 0.48
8 -0.14
9 -0.33

> <PUBCHEM_EFFECTIVE_ROTOR_COUNT>
6

> <PUBCHEM_PHARMACOPHORE_FEATURES>
7
1 1 acceptor
1 2 donor
1 3 donor
1 4 donor
1 5 acceptor
5 4 5 9 13 17 rings
6 8 11 12 14 15 16 rings

> <PUBCHEM_HEAVY_ATOM_COUNT>
17

> <PUBCHEM_ATOM_DEF_STEREO_COUNT>
0

> <PUBCHEM_ATOM_UDEF_STEREO_COUNT>
0

> <PUBCHEM_BOND_DEF_STEREO_COUNT>
0

> <PUBCHEM_BOND_UDEF_STEREO_COUNT>
0

> <PUBCHEM_ISOTOPIC_ATOM_COUNT>
0

> <PUBCHEM_COMPONENT_COUNT>
1

> <PUBCHEM_CACTVS_TAUTO_COUNT>
6

> <PUBCHEM_CONFORMER_ID>
02D04B1700000001

> <PUBCHEM_MMFF94_ENERGY>
20.8929

> <PUBCHEM_FEATURE_SELFOVERLAP>
35.572

> <PUBCHEM_SHAPE_FINGERPRINT>
10498660 4 11024106555499837639
10968037 57 18260542334066355495
11552529 35 14491344936868971132
12173636 292 10015566299266208153
12553582 1 18343862246839239545
12596599 1 18187354475991544898
12824470 246 18261668191007538825
13533116 47 18115869586611204155
13911882 115 18261392192361887882
14251705 54 18409448098187896486
14251710 61 18409161112720347535
14251731 5 18410008814963948283
14576447 43 18343016688538836142
15239191 94 18409164415566100333
15342168 16 10519443943277579447
15537594 2 18270664450569055051
1798214 55 9583520927455913790
18186145 218 14548730746440620512
18915474 69 18272363209351361590
20281475 54 18411696586676807009
20291156 8 18410290311151497932
20403669 9 18407758144816501871
20442098 301 18333454226741872036
20621476 51 18114473305043186055
20645477 70 18339086973551039893
21634736 98 18343016671063509290
221490 88 18341325626522598808
23379529 103 18118953931302031270
23503958 25 9654991421123684774
23503958 8 17823409569077819082
235170 7 15913324676155184851
23559900 14 18336555979336056648
26353 1 16917069949295617893
27216 239 7853575725572628111
312425 83 16271933760893136110
49207404 50 7132435773802879981
633830 44 15913042191787352125
960060 61 18202567246080399943
9709674 26 18271242716412692817

> <PUBCHEM_SHAPE_MULTIPOLES>
324.06
9.43
2.58
1.2
1.82
0.06
0.07
6.3
-1.5
0.41
0.04
-0.27
0.22
-0.25

> <PUBCHEM_SHAPE_SELFOVERLAP>
680.081

> <PUBCHEM_SHAPE_VOLUME>
182.2

> <PUBCHEM_COORDINATE_TYPE>
2
5
10

$$$$

