14104
  -OEChem-06241222422D

 28 28  0     0  0  0  0  0  0999 V2000
    2.8660    0.7500    0.0000 O   0  0  0  0  0  0  0  0  0  0  0  0
    4.5981    1.7500    0.0000 C   0  0  0  0  0  0  0  0  0  0  0  0
    4.5981    0.7500    0.0000 C   0  0  0  0  0  0  0  0  0  0  0  0
    3.7320    0.2500    0.0000 C   0  0  0  0  0  0  0  0  0  0  0  0
    5.4641    2.2500    0.0000 C   0  0  0  0  0  0  0  0  0  0  0  0
    3.7320    2.2500    0.0000 C   0  0  0  0  0  0  0  0  0  0  0  0
    5.4641    0.2500    0.0000 C   0  0  0  0  0  0  0  0  0  0  0  0
    4.5981   -1.2500    0.0000 C   0  0  0  0  0  0  0  0  0  0  0  0
    3.7320   -0.7500    0.0000 C   0  0  0  0  0  0  0  0  0  0  0  0
    5.4641   -0.7500    0.0000 C   0  0  0  0  0  0  0  0  0  0  0  0
    4.5981   -2.2500    0.0000 C   0  0  0  0  0  0  0  0  0  0  0  0
    2.0000    0.2500    0.0000 C   0  0  0  0  0  0  0  0  0  0  0  0
    4.5981    2.3700    0.0000 H   0  0  0  0  0  0  0  0  0  0  0  0
    5.7741    1.7131    0.0000 H   0  0  0  0  0  0  0  0  0  0  0  0
    6.0010    2.5600    0.0000 H   0  0  0  0  0  0  0  0  0  0  0  0
    5.1541    2.7869    0.0000 H   0  0  0  0  0  0  0  0  0  0  0  0
    4.0420    2.7869    0.0000 H   0  0  0  0  0  0  0  0  0  0  0  0
    3.1951    2.5600    0.0000 H   0  0  0  0  0  0  0  0  0  0  0  0
    3.4220    1.7131    0.0000 H   0  0  0  0  0  0  0  0  0  0  0  0
    6.0010    0.5600    0.0000 H   0  0  0  0  0  0  0  0  0  0  0  0
    3.1951   -1.0600    0.0000 H   0  0  0  0  0  0  0  0  0  0  0  0
    6.0010   -1.0600    0.0000 H   0  0  0  0  0  0  0  0  0  0  0  0
    3.9781   -2.2500    0.0000 H   0  0  0  0  0  0  0  0  0  0  0  0
    4.5981   -2.8700    0.0000 H   0  0  0  0  0  0  0  0  0  0  0  0
    5.2181   -2.2500    0.0000 H   0  0  0  0  0  0  0  0  0  0  0  0
    1.6900    0.7869    0.0000 H   0  0  0  0  0  0  0  0  0  0  0  0
    1.4631   -0.0600    0.0000 H   0  0  0  0  0  0  0  0  0  0  0  0
    2.3100   -0.2869    0.0000 H   0  0  0  0  0  0  0  0  0  0  0  0
  1  4  1  0  0  0  0
  1 12  1  0  0  0  0
  2  3  1  0  0  0  0
  2  5  1  0  0  0  0
  2  6  1  0  0  0  0
  2 13  1  0  0  0  0
  3  4  2  0  0  0  0
  3  7  1  0  0  0  0
  4  9  1  0  0  0  0
  5 14  1  0  0  0  0
  5 15  1  0  0  0  0
  5 16  1  0  0  0  0
  6 17  1  0  0  0  0
  6 18  1  0  0  0  0
  6 19  1  0  0  0  0
  7 10  2  0  0  0  0
  7 20  1  0  0  0  0
  8  9  2  0  0  0  0
  8 10  1  0  0  0  0
  8 11  1  0  0  0  0
  9 21  1  0  0  0  0
 10 22  1  0  0  0  0
 11 23  1  0  0  0  0
 11 24  1  0  0  0  0
 11 25  1  0  0  0  0
 12 26  1  0  0  0  0
 12 27  1  0  0  0  0
 12 28  1  0  0  0  0
M  END
> <PUBCHEM_COMPOUND_CID>
14104

> <PUBCHEM_COMPOUND_CANONICALIZED>
1

> <PUBCHEM_CACTVS_COMPLEXITY>
131

> <PUBCHEM_CACTVS_HBOND_ACCEPTOR>
1

> <PUBCHEM_CACTVS_HBOND_DONOR>
0

> <PUBCHEM_CACTVS_ROTATABLE_BOND>
2

> <PUBCHEM_CACTVS_SUBSKEYS>
AAADceBwIAAAAAAAAAAAAAAAAAAAAAAAAAAwAAAAAAAAAAABAAAAGgAAAAAADQSAmAIyBoAABACAAiBCAAACCAAgIAAIiAAGCIgMJiKEMRqAMCAkwBEIqAeAwPAOwAABAAAIAACAAAIAABAAAAAAAAAAAA==

> <PUBCHEM_IUPAC_OPENEYE_NAME>
1-isopropyl-2-methoxy-4-methyl-benzene

> <PUBCHEM_IUPAC_CAS_NAME>
2-methoxy-4-methyl-1-propan-2-ylbenzene

> <PUBCHEM_IUPAC_NAME>
2-methoxy-4-methyl-1-propan-2-ylbenzene

> <PUBCHEM_IUPAC_SYSTEMATIC_NAME>
2-methoxy-4-methyl-1-propan-2-yl-benzene

> <PUBCHEM_IUPAC_TRADITIONAL_NAME>
1-isopropyl-2-methoxy-4-methyl-benzene

> <PUBCHEM_IUPAC_INCHI>
InChI=1S/C11H16O/c1-8(2)10-6-5-9(3)7-11(10)12-4/h5-8H,1-4H3

> <PUBCHEM_IUPAC_INCHIKEY>
LSQXNMXDFRRDSJ-UHFFFAOYSA-N

> <PUBCHEM_XLOGP3>
3.8

> <PUBCHEM_EXACT_MASS>
164.120115

> <PUBCHEM_MOLECULAR_FORMULA>
C11H16O

> <PUBCHEM_MOLECULAR_WEIGHT>
164.24414

> <PUBCHEM_OPENEYE_CAN_SMILES>
CC1=CC(=C(C=C1)C(C)C)OC

> <PUBCHEM_OPENEYE_ISO_SMILES>
CC1=CC(=C(C=C1)C(C)C)OC

> <PUBCHEM_CACTVS_TPSA>
9.2

> <PUBCHEM_MONOISOTOPIC_WEIGHT>
164.120115

> <PUBCHEM_TOTAL_CHARGE>
0

> <PUBCHEM_HEAVY_ATOM_COUNT>
12

> <PUBCHEM_ATOM_DEF_STEREO_COUNT>
0

> <PUBCHEM_ATOM_UDEF_STEREO_COUNT>
0

> <PUBCHEM_BOND_DEF_STEREO_COUNT>
0

> <PUBCHEM_BOND_UDEF_STEREO_COUNT>
0

> <PUBCHEM_ISOTOPIC_ATOM_COUNT>
0

> <PUBCHEM_COMPONENT_COUNT>
1

> <PUBCHEM_CACTVS_TAUTO_COUNT>
1

> <PUBCHEM_COORDINATE_TYPE>
1
5
255

> <PUBCHEM_BONDANNOTATIONS>
3  4  8
3  7  8
4  9  8
7  10  8
8  10  8
8  9  8

$$$$

