17395419
  -OEChem-06241222503D

 35 36  0     0  0  0  0  0  0999 V2000
   -2.6645   -2.6515    0.8499 Br  0  0  0  0  0  0  0  0  0  0  0  0
   -1.4568   -0.4090   -0.9536 O   0  0  0  0  0  0  0  0  0  0  0  0
    0.9125   -1.4878   -0.7346 O   0  0  0  0  0  0  0  0  0  0  0  0
    1.9495    0.5413   -0.1522 N   0  0  0  0  0  0  0  0  0  0  0  0
    3.6329   -1.1220   -0.1837 N   0  0  0  0  0  0  0  0  0  0  0  0
    4.2154    1.1586    0.3682 C   0  0  0  0  0  0  0  0  0  0  0  0
    3.3060    0.1749    0.0143 C   0  0  0  0  0  0  0  0  0  0  0  0
   -2.7103   -0.1150   -0.5057 C   0  0  0  0  0  0  0  0  0  0  0  0
   -5.2724    0.5485    0.3758 C   0  0  0  0  0  0  0  0  0  0  0  0
   -0.4113    0.4886   -0.5869 C   0  0  0  0  0  0  0  0  0  0  0  0
   -3.4154   -0.9957    0.3144 C   0  0  0  0  0  0  0  0  0  0  0  0
   -3.2862    1.0974   -0.8851 C   0  0  0  0  0  0  0  0  0  0  0  0
   -4.6965   -0.6639    0.7552 C   0  0  0  0  0  0  0  0  0  0  0  0
   -4.5674    1.4292   -0.4444 C   0  0  0  0  0  0  0  0  0  0  0  0
    0.8875   -0.2831   -0.5015 C   0  0  0  0  0  0  0  0  0  0  0  0
    5.5458    0.7876    0.5293 C   0  0  0  0  0  0  0  0  0  0  0  0
    3.8173    2.5801    0.5778 C   0  0  0  0  0  0  0  0  0  0  0  0
   -6.6422    0.9038    0.8467 C   0  0  0  0  0  0  0  0  0  0  0  0
    5.9208   -0.5371    0.3343 C   0  0  0  0  0  0  0  0  0  0  0  0
    4.9351   -1.4450   -0.0181 C   0  0  0  0  0  0  0  0  0  0  0  0
   -0.6064    0.9490    0.3898 H   0  0  0  0  0  0  0  0  0  0  0  0
   -0.3154    1.2651   -1.3537 H   0  0  0  0  0  0  0  0  0  0  0  0
    1.7247    1.5205    0.0001 H   0  0  0  0  0  0  0  0  0  0  0  0
   -2.7541    1.7903   -1.5313 H   0  0  0  0  0  0  0  0  0  0  0  0
   -5.2522   -1.3473    1.3935 H   0  0  0  0  0  0  0  0  0  0  0  0
   -5.0066    2.3750   -0.7502 H   0  0  0  0  0  0  0  0  0  0  0  0
    6.3019    1.5173    0.8060 H   0  0  0  0  0  0  0  0  0  0  0  0
    3.3944    3.0032   -0.3394 H   0  0  0  0  0  0  0  0  0  0  0  0
    3.0890    2.6625    1.3913 H   0  0  0  0  0  0  0  0  0  0  0  0
    4.6759    3.2033    0.8519 H   0  0  0  0  0  0  0  0  0  0  0  0
   -7.3921    0.4999    0.1594 H   0  0  0  0  0  0  0  0  0  0  0  0
   -6.8302    0.5027    1.8485 H   0  0  0  0  0  0  0  0  0  0  0  0
   -6.7721    1.9897    0.9073 H   0  0  0  0  0  0  0  0  0  0  0  0
    6.9518   -0.8491    0.4543 H   0  0  0  0  0  0  0  0  0  0  0  0
    5.1757   -2.4903   -0.1817 H   0  0  0  0  0  0  0  0  0  0  0  0
  1 11  1  0  0  0  0
  2  8  1  0  0  0  0
  2 10  1  0  0  0  0
  3 15  2  0  0  0  0
  4  7  1  0  0  0  0
  4 15  1  0  0  0  0
  4 23  1  0  0  0  0
  5  7  1  0  0  0  0
  5 20  2  0  0  0  0
  6  7  2  0  0  0  0
  6 16  1  0  0  0  0
  6 17  1  0  0  0  0
  8 11  2  0  0  0  0
  8 12  1  0  0  0  0
  9 13  2  0  0  0  0
  9 14  1  0  0  0  0
  9 18  1  0  0  0  0
 10 15  1  0  0  0  0
 10 21  1  0  0  0  0
 10 22  1  0  0  0  0
 11 13  1  0  0  0  0
 12 14  2  0  0  0  0
 12 24  1  0  0  0  0
 13 25  1  0  0  0  0
 14 26  1  0  0  0  0
 16 19  2  0  0  0  0
 16 27  1  0  0  0  0
 17 28  1  0  0  0  0
 17 29  1  0  0  0  0
 17 30  1  0  0  0  0
 18 31  1  0  0  0  0
 18 32  1  0  0  0  0
 18 33  1  0  0  0  0
 19 20  1  0  0  0  0
 19 34  1  0  0  0  0
 20 35  1  0  0  0  0
M  END
> <PUBCHEM_COMPOUND_CID>
17395419

> <PUBCHEM_CONFORMER_RMSD>
0.8

> <PUBCHEM_CONFORMER_DIVERSEORDER>
1
31
121
125
132
61
115
82
3
15
90
80
60
143
124
81
11
122
87
127
19
135
56
89
102
10
98
66
62
35
72
105
5
73
18
70
50
141
146
57
129
139
46
76
2
95
118
84
68
38
119
25
43
117
93
99
88
16
83
33
120
8
114
37
74
138
75
126
44
96
53
108
12
78
112
106
145
24
71
116
94
58
85
34
110
27
104
51
79
91
131
86
47
123
39
45
134
140
101
4
32
128
30
133
22
64
55
59
26
48
49
77
100
42
40
9
69
142
130
52
144
20
28
92
136
21
17
113
65
54
6
97
13
23
41
103
63
7
36
111
137
14
109
67
29
107

> <PUBCHEM_MMFF94_PARTIAL_CHARGES>
27
1 -0.11
10 0.34
11 0.11
12 -0.15
13 -0.15
14 -0.15
15 0.57
16 -0.15
17 0.14
18 0.14
19 -0.15
2 -0.36
20 0.16
23 0.37
24 0.15
25 0.15
26 0.15
27 0.15
3 -0.57
34 0.15
35 0.15
4 -0.55
5 -0.62
6 -0.14
7 0.43
8 0.08
9 -0.14

> <PUBCHEM_EFFECTIVE_ROTOR_COUNT>
5

> <PUBCHEM_PHARMACOPHORE_FEATURES>
7
1 1 hydrophobe
1 2 acceptor
1 3 acceptor
1 4 donor
1 5 acceptor
6 5 6 7 16 19 20 rings
6 8 9 11 12 13 14 rings

> <PUBCHEM_HEAVY_ATOM_COUNT>
20

> <PUBCHEM_ATOM_DEF_STEREO_COUNT>
0

> <PUBCHEM_ATOM_UDEF_STEREO_COUNT>
0

> <PUBCHEM_BOND_DEF_STEREO_COUNT>
0

> <PUBCHEM_BOND_UDEF_STEREO_COUNT>
0

> <PUBCHEM_ISOTOPIC_ATOM_COUNT>
0

> <PUBCHEM_COMPONENT_COUNT>
1

> <PUBCHEM_CACTVS_TAUTO_COUNT>
3

> <PUBCHEM_CONFORMER_ID>
01096EDB00000001

> <PUBCHEM_MMFF94_ENERGY>
59.0784

> <PUBCHEM_FEATURE_SELFOVERLAP>
35.535

> <PUBCHEM_SHAPE_FINGERPRINT>
10 15 18201999906438566017
11045977 3 18411981343103139594
11089746 13 16660370280914995553
11370993 144 18411136935231654943
11405975 8 18412548686897762658
12236239 1 16950568787185774286
12596602 18 18408319969535646451
12616971 3 18040159500185748012
13167372 99 17895471535176644401
13533116 47 18335983185359654482
13675066 3 18412266112372449092
13785724 45 17682672179882233942
14251718 22 8646768893521765000
14341114 176 18341891900638457820
14350574 20 11383827165157810879
14933364 13 18412823582132535092
15042514 8 17988068982360225003
15348495 7 18341049618696306528
15475509 35 17131007485375095096
15537594 2 16702025274670042443
17844677 252 18413666907282215380
1813 80 16056878048164700166
18222031 100 15769779026506950790
19141452 34 18272368646574567615
19433438 28 18202286921928454261
20281389 69 18261112989080466113
20645477 56 18272091612846774629
21033648 29 18115037307378879458
21065198 57 18412546474936870486
21150785 3 11455881464850353698
21236236 1 18336267843371439687
21267235 1 18336264652632264038
21637258 2 14548730657084772313
22122407 14 17385995153394122433
22224240 67 18412820310137283819
23402539 116 18413112749527347063
23522609 53 12606547978599477055
23559900 14 18411421700490846608
26918003 58 18408603660499190474
2767999 5 16081370764895039945
2838139 119 17240486940173857713
300161 21 15068626006292753452
351380 3 14692571017780500112
3545911 37 18412825802160862428
4015057 19 18263375706933067637
4073 2 18129940083919292770
4214541 1 18341896281293752351
465052 167 13830130603023884536
5104073 3 18340213981728172346
5364581 5 18126571106919049560
542803 24 17530966890686344149
5924683 9 18265336114690815791
9995097 60 18410009940182186722

> <PUBCHEM_SHAPE_MULTIPOLES>
395.83
16.36
2.12
0.93
2.08
0.46
-0.01
-3.22
-4.29
0.03
-0.44
-0.49
-0.01
1.07

> <PUBCHEM_SHAPE_SELFOVERLAP>
822.676

> <PUBCHEM_SHAPE_VOLUME>
230.5

> <PUBCHEM_COORDINATE_TYPE>
2
5
10

$$$$

