5690
  -OEChem-06261200493D

 58 63  0     1  0  0  0  0  0999 V2000
    2.7059   -2.5206    0.5476 O   0  0  0  0  0  0  0  0  0  0  0  0
    7.7953    0.9899   -1.0414 O   0  0  0  0  0  0  0  0  0  0  0  0
   -1.5304    2.9153    0.7591 O   0  0  0  0  0  0  0  0  0  0  0  0
    1.6368    0.1429    0.6817 N   0  0  0  0  0  0  0  0  0  0  0  0
    5.1371    0.0542   -0.6421 N   0  0  0  0  0  0  0  0  0  0  0  0
    3.0852   -0.0149    0.7159 C   0  0  2  0  0  0  0  0  0  0  0  0
    3.6857    0.2243   -0.6679 C   0  0  0  0  0  0  0  0  0  0  0  0
    0.8732   -0.9810    0.5561 C   0  0  0  0  0  0  0  0  0  0  0  0
    3.4079   -1.4476    1.2344 C   0  0  0  0  0  0  0  0  0  0  0  0
    0.8482    1.2468    0.7432 C   0  0  0  0  0  0  0  0  0  0  0  0
   -0.4545   -0.6092    0.4929 C   0  0  0  0  0  0  0  0  0  0  0  0
   -0.4637    0.8128    0.6232 C   0  0  0  0  0  0  0  0  0  0  0  0
    1.3532   -2.2801    0.4863 C   0  0  0  0  0  0  0  0  0  0  0  0
    5.7590    1.0170    0.2776 C   0  0  0  0  0  0  0  0  0  0  0  0
    5.7042    0.2059   -1.9890 C   0  0  0  0  0  0  0  0  0  0  0  0
    7.2734    0.8290    0.2782 C   0  0  0  0  0  0  0  0  0  0  0  0
    7.2198    0.0359   -1.9347 C   0  0  0  0  0  0  0  0  0  0  0  0
    1.3996    2.6086    0.8977 C   0  0  0  0  0  0  0  0  0  0  0  0
   -1.4034   -1.6347    0.3276 C   0  0  0  0  0  0  0  0  0  0  0  0
    0.4152   -3.2870    0.2950 C   0  0  0  0  0  0  0  0  0  0  0  0
   -1.6085    1.6811    0.6283 C   0  0  0  0  0  0  0  0  0  0  0  0
   -0.9478   -2.9657    0.2245 C   0  0  0  0  0  0  0  0  0  0  0  0
   -2.9909    1.1323    0.4871 C   0  0  0  0  0  0  0  0  0  0  0  0
   -3.5205    0.9999   -0.7757 C   0  0  0  0  0  0  0  0  0  0  0  0
   -3.6757    0.7813    1.6235 C   0  0  0  0  0  0  0  0  0  0  0  0
   -4.8186    0.4849   -0.9250 C   0  0  0  0  0  0  0  0  0  0  0  0
   -5.5523    0.1135    0.2267 C   0  0  0  0  0  0  0  0  0  0  0  0
   -4.9665    0.2678    1.4938 C   0  0  0  0  0  0  0  0  0  0  0  0
   -5.4044    0.3302   -2.1920 C   0  0  0  0  0  0  0  0  0  0  0  0
   -6.8503   -0.4017    0.0776 C   0  0  0  0  0  0  0  0  0  0  0  0
   -6.6953   -0.1830   -2.3215 C   0  0  0  0  0  0  0  0  0  0  0  0
   -7.4169   -0.5482   -1.1889 C   0  0  0  0  0  0  0  0  0  0  0  0
    3.4363    0.7067    1.4589 H   0  0  0  0  0  0  0  0  0  0  0  0
    3.4162    1.2258   -1.0297 H   0  0  0  0  0  0  0  0  0  0  0  0
    3.2493   -0.4869   -1.3820 H   0  0  0  0  0  0  0  0  0  0  0  0
    4.4776   -1.6710    1.1712 H   0  0  0  0  0  0  0  0  0  0  0  0
    3.1484   -1.5211    2.3004 H   0  0  0  0  0  0  0  0  0  0  0  0
    5.4385    0.8739    1.3125 H   0  0  0  0  0  0  0  0  0  0  0  0
    5.5168    2.0450   -0.0216 H   0  0  0  0  0  0  0  0  0  0  0  0
    5.4631    1.1973   -2.3943 H   0  0  0  0  0  0  0  0  0  0  0  0
    5.2867   -0.5487   -2.6654 H   0  0  0  0  0  0  0  0  0  0  0  0
    7.7432    1.5853    0.9152 H   0  0  0  0  0  0  0  0  0  0  0  0
    7.5592   -0.1561    0.6671 H   0  0  0  0  0  0  0  0  0  0  0  0
    7.5025   -0.9765   -1.6211 H   0  0  0  0  0  0  0  0  0  0  0  0
    7.6498    0.2073   -2.9266 H   0  0  0  0  0  0  0  0  0  0  0  0
    1.0587    3.2534    0.0808 H   0  0  0  0  0  0  0  0  0  0  0  0
    1.0660    3.0481    1.8436 H   0  0  0  0  0  0  0  0  0  0  0  0
    2.4921    2.6402    0.8908 H   0  0  0  0  0  0  0  0  0  0  0  0
   -2.4692   -1.4577    0.2654 H   0  0  0  0  0  0  0  0  0  0  0  0
    0.7295   -4.3231    0.2092 H   0  0  0  0  0  0  0  0  0  0  0  0
   -1.6745   -3.7631    0.0855 H   0  0  0  0  0  0  0  0  0  0  0  0
   -2.9417    1.2904   -1.6495 H   0  0  0  0  0  0  0  0  0  0  0  0
   -3.2379    0.8938    2.6106 H   0  0  0  0  0  0  0  0  0  0  0  0
   -5.5119   -0.0116    2.3928 H   0  0  0  0  0  0  0  0  0  0  0  0
   -4.8587    0.6089   -3.0911 H   0  0  0  0  0  0  0  0  0  0  0  0
   -7.4326   -0.6938    0.9491 H   0  0  0  0  0  0  0  0  0  0  0  0
   -7.1368   -0.2976   -3.3072 H   0  0  0  0  0  0  0  0  0  0  0  0
   -8.4217   -0.9477   -1.2904 H   0  0  0  0  0  0  0  0  0  0  0  0
  1  9  1  0  0  0  0
  1 13  1  0  0  0  0
  2 16  1  0  0  0  0
  2 17  1  0  0  0  0
  3 21  2  0  0  0  0
  4  6  1  0  0  0  0
  4  8  1  0  0  0  0
  4 10  1  0  0  0  0
  5  7  1  0  0  0  0
  5 14  1  0  0  0  0
  5 15  1  0  0  0  0
  6  7  1  0  0  0  0
  6  9  1  0  0  0  0
  6 33  1  0  0  0  0
  7 34  1  0  0  0  0
  7 35  1  0  0  0  0
  8 11  2  0  0  0  0
  8 13  1  0  0  0  0
  9 36  1  0  0  0  0
  9 37  1  0  0  0  0
 10 12  2  0  0  0  0
 10 18  1  0  0  0  0
 11 12  1  0  0  0  0
 11 19  1  0  0  0  0
 12 21  1  0  0  0  0
 13 20  2  0  0  0  0
 14 16  1  0  0  0  0
 14 38  1  0  0  0  0
 14 39  1  0  0  0  0
 15 17  1  0  0  0  0
 15 40  1  0  0  0  0
 15 41  1  0  0  0  0
 16 42  1  0  0  0  0
 16 43  1  0  0  0  0
 17 44  1  0  0  0  0
 17 45  1  0  0  0  0
 18 46  1  0  0  0  0
 18 47  1  0  0  0  0
 18 48  1  0  0  0  0
 19 22  2  0  0  0  0
 19 49  1  0  0  0  0
 20 22  1  0  0  0  0
 20 50  1  0  0  0  0
 21 23  1  0  0  0  0
 22 51  1  0  0  0  0
 23 24  2  0  0  0  0
 23 25  1  0  0  0  0
 24 26  1  0  0  0  0
 24 52  1  0  0  0  0
 25 28  2  0  0  0  0
 25 53  1  0  0  0  0
 26 27  1  0  0  0  0
 26 29  2  0  0  0  0
 27 28  1  0  0  0  0
 27 30  2  0  0  0  0
 28 54  1  0  0  0  0
 29 31  1  0  0  0  0
 29 55  1  0  0  0  0
 30 32  1  0  0  0  0
 30 56  1  0  0  0  0
 31 32  2  0  0  0  0
 31 57  1  0  0  0  0
 32 58  1  0  0  0  0
M  END
> <PUBCHEM_COMPOUND_CID>
5690

> <PUBCHEM_CONFORMER_RMSD>
0.8

> <PUBCHEM_CONFORMER_DIVERSEORDER>
6
33
19
41
7
24
38
16
1
36
20
11
45
34
31
14
4
9
37
22
12
23
27
46
5
30
43
10
2
26
28
25
18
42
21
15
3
29
13
44
39
32
8
17
40
35

> <PUBCHEM_MMFF94_PARTIAL_CHARGES>
39
1 -0.36
10 -0.33
12 -0.09
13 0.08
14 0.27
15 0.27
16 0.28
17 0.28
18 0.18
19 -0.15
2 -0.56
20 -0.15
21 0.57
22 -0.15
23 0.09
24 -0.15
25 -0.15
28 -0.15
29 -0.15
3 -0.57
30 -0.15
31 -0.15
32 -0.15
4 0.05
49 0.15
5 -0.81
50 0.15
51 0.15
52 0.15
53 0.15
54 0.15
55 0.15
56 0.15
57 0.15
58 0.15
6 0.26
7 0.27
8 -0.15
9 0.28

> <PUBCHEM_EFFECTIVE_ROTOR_COUNT>
5.8

> <PUBCHEM_PHARMACOPHORE_FEATURES>
11
1 1 acceptor
1 2 acceptor
1 3 acceptor
1 4 cation
1 5 cation
5 4 8 10 11 12 rings
6 1 4 6 8 9 13 rings
6 2 5 14 15 16 17 rings
6 23 24 25 26 27 28 rings
6 26 27 29 30 31 32 rings
6 8 11 13 19 20 22 rings

> <PUBCHEM_HEAVY_ATOM_COUNT>
32

> <PUBCHEM_ATOM_DEF_STEREO_COUNT>
0

> <PUBCHEM_ATOM_UDEF_STEREO_COUNT>
1

> <PUBCHEM_BOND_DEF_STEREO_COUNT>
0

> <PUBCHEM_BOND_UDEF_STEREO_COUNT>
0

> <PUBCHEM_ISOTOPIC_ATOM_COUNT>
0

> <PUBCHEM_COMPONENT_COUNT>
1

> <PUBCHEM_CACTVS_TAUTO_COUNT>
1

> <PUBCHEM_CONFORMER_ID>
0000163A00000006

> <PUBCHEM_MMFF94_ENERGY>
95.8491

> <PUBCHEM_FEATURE_SELFOVERLAP>
56.087

> <PUBCHEM_SHAPE_FINGERPRINT>
10299344 5 16298102081788891708
11007060 377 18261388931885696121
11135609 187 18412268367246532449
11135926 11 18413100676295371123
11479125 193 16914800441379523468
11607047 74 16446470048298750017
117089 54 16952551074198350759
11991303 11 17917423168956358442
12236239 1 17531252743121082913
12373685 5 16056610824021119411
12522641 126 18199750409609001690
12838862 33 18341063934487234408
13540713 4 18048317738993088312
13617811 41 18342178856109989380
13673619 4 14273740654987421747
13782708 43 5039653894959183437
13911987 19 18343022203239934031
13947920 75 17822014189821931623
1454969 45 18411138047543671921
14767858 380 18409730668349340004
14931854 50 18335987544492555589
15131766 46 16055171478266022150
15183329 4 17894910741571021310
15352257 5 15791449331243624380
15461852 350 14836113352093400937
15849732 13 17703788098602420324
15961568 22 16845296055317369901
17492 54 18342178877304439243
19301679 30 7781257525783547052
19319366 153 18271535272411243770
19958102 18 18339633534347304678
20028762 73 17967827054396308367
2026 5 17242156072229819126
20511986 3 13110974119619282391
208703 8 17168723921026202349
21033648 29 13470121819079125284
21150785 3 17603586313954901748
21267235 1 17967532342704300801
21344244 181 17676198083539757798
21792938 703 17532101488392981559
21814621 53 14779830524277964570
22122407 14 15769477773686228364
23522609 53 17896858010818063496
23559900 14 18188482490177662608
23569917 315 18340487867625460154
23569943 247 17242998305940847246
23576562 1 17987232222981209861
2838139 119 16343702110447815565
3103668 31 18052534374682162595
335352 9 18410290295090045068
44880568 143 17202775937545291887
484989 97 18267019449707271443
6058803 2 17905046206990222185

> <PUBCHEM_SHAPE_MULTIPOLES>
630.97
19.46
2.55
1.7
7.4
1.42
0.95
-3.97
11.93
0.79
-0.92
-0.83
-0.23
-0.75

> <PUBCHEM_SHAPE_SELFOVERLAP>
1417.86

> <PUBCHEM_SHAPE_VOLUME>
332.8

> <PUBCHEM_COORDINATE_TYPE>
2
5
10

$$$$

