72386
  -OEChem-07051212552D

 23 23  0     0  0  0  0  0  0999 V2000
    8.9282    0.0000    0.0000 S   0  0  0  0  0  0  0  0  0  0  0  0
    8.0622   -0.5000    0.0000 S   0  0  0  0  0  0  0  0  0  0  0  0
    8.0622    1.5000    0.0000 C   0  0  0  0  0  0  0  0  0  0  0  0
    7.1962    1.0000    0.0000 C   0  0  0  0  0  0  0  0  0  0  0  0
    8.9282    1.0000    0.0000 C   0  0  0  0  0  0  0  0  0  0  0  0
    7.1962    0.0000    0.0000 C   0  0  0  0  0  0  0  0  0  0  0  0
    9.7942    1.5000    0.0000 C   0  0  0  0  0  0  0  0  0  0  0  0
    6.3301   -0.5000    0.0000 C   0  0  0  0  0  0  0  0  0  0  0  0
   10.6603    2.0000    0.0000 C   0  0  0  0  0  0  0  0  0  0  0  0
   11.5263    2.5000    0.0000 C   0  0  0  0  0  0  0  0  0  0  0  0
    5.4641   -1.0000    0.0000 C   0  0  0  0  0  0  0  0  0  0  0  0
    4.5981   -1.5000    0.0000 C   0  0  0  0  0  0  0  0  0  0  0  0
    2.8660   -2.5000    0.0000 C   0  0  0  0  0  0  0  0  0  0  0  0
    3.7320   -2.0000    0.0000 C   0  0  0  0  0  0  0  0  0  0  0  0
    2.0000   -2.0000    0.0000 C   0  0  0  0  0  0  0  0  0  0  0  0
    8.0622    2.1200    0.0000 H   0  0  0  0  0  0  0  0  0  0  0  0
    6.6592    1.3100    0.0000 H   0  0  0  0  0  0  0  0  0  0  0  0
   11.8363    1.9631    0.0000 H   0  0  0  0  0  0  0  0  0  0  0  0
   12.0632    2.8100    0.0000 H   0  0  0  0  0  0  0  0  0  0  0  0
   11.2163    3.0369    0.0000 H   0  0  0  0  0  0  0  0  0  0  0  0
    2.8660   -3.1200    0.0000 H   0  0  0  0  0  0  0  0  0  0  0  0
    2.0000   -1.3800    0.0000 H   0  0  0  0  0  0  0  0  0  0  0  0
    1.4631   -2.3100    0.0000 H   0  0  0  0  0  0  0  0  0  0  0  0
  1  2  1  0  0  0  0
  1  5  1  0  0  0  0
  2  6  1  0  0  0  0
  3  4  1  0  0  0  0
  3  5  2  0  0  0  0
  3 16  1  0  0  0  0
  4  6  2  0  0  0  0
  4 17  1  0  0  0  0
  5  7  1  0  0  0  0
  6  8  1  0  0  0  0
  7  9  3  0  0  0  0
  8 11  3  0  0  0  0
  9 10  1  0  0  0  0
 10 18  1  0  0  0  0
 10 19  1  0  0  0  0
 10 20  1  0  0  0  0
 11 12  1  0  0  0  0
 12 14  3  0  0  0  0
 13 14  1  0  0  0  0
 13 15  2  0  0  0  0
 13 21  1  0  0  0  0
 15 22  1  0  0  0  0
 15 23  1  0  0  0  0
M  END
> <PUBCHEM_COMPOUND_CID>
72386

> <PUBCHEM_COMPOUND_CANONICALIZED>
1

> <PUBCHEM_CACTVS_COMPLEXITY>
521

> <PUBCHEM_CACTVS_HBOND_ACCEPTOR>
2

> <PUBCHEM_CACTVS_HBOND_DONOR>
0

> <PUBCHEM_CACTVS_ROTATABLE_BOND>
3

> <PUBCHEM_CACTVS_SUBSKEYS>
AAADccBwAABgAAAAAAAAAAAAAAAAAAAAAAAgAAAAAAAAAAAAAAAAGAQAAAAACACAQAACAAAAAADAECBCAAAAAAAAAAAICAAAAAAIAAAAAAAAAAAAAAAAgAAAAAAAAAAAAAAAAAAAAAAAAAAAAAAAAAAAAA==

> <PUBCHEM_IUPAC_OPENEYE_NAME>
3-hex-5-en-1,3-diynyl-6-prop-1-ynyl-dithiine

> <PUBCHEM_IUPAC_CAS_NAME>
3-hex-5-en-1,3-diynyl-6-prop-1-ynyldithiin

> <PUBCHEM_IUPAC_NAME>
3-hex-5-en-1,3-diynyl-6-prop-1-ynyldithiine

> <PUBCHEM_IUPAC_SYSTEMATIC_NAME>
3-hex-5-en-1,3-diynyl-6-prop-1-ynyl-1,2-dithiine

> <PUBCHEM_IUPAC_TRADITIONAL_NAME>
3-hex-5-en-1,3-diynyl-6-prop-1-ynyl-dithiin

> <PUBCHEM_IUPAC_INCHI>
InChI=1S/C13H8S2/c1-3-5-6-7-9-13-11-10-12(8-4-2)14-15-13/h3,10-11H,1H2,2H3

> <PUBCHEM_IUPAC_INCHIKEY>
XZHCLKKXXPKULI-UHFFFAOYSA-N

> <PUBCHEM_XLOGP3_AA>
3.8

> <PUBCHEM_EXACT_MASS>
228.006742

> <PUBCHEM_MOLECULAR_FORMULA>
C13H8S2

> <PUBCHEM_MOLECULAR_WEIGHT>
228.33262

> <PUBCHEM_OPENEYE_CAN_SMILES>
CC#CC1=CC=C(SS1)C#CC#CC=C

> <PUBCHEM_OPENEYE_ISO_SMILES>
CC#CC1=CC=C(SS1)C#CC#CC=C

> <PUBCHEM_CACTVS_TPSA>
50.6

> <PUBCHEM_MONOISOTOPIC_WEIGHT>
228.006742

> <PUBCHEM_TOTAL_CHARGE>
0

> <PUBCHEM_HEAVY_ATOM_COUNT>
15

> <PUBCHEM_ATOM_DEF_STEREO_COUNT>
0

> <PUBCHEM_ATOM_UDEF_STEREO_COUNT>
0

> <PUBCHEM_BOND_DEF_STEREO_COUNT>
0

> <PUBCHEM_BOND_UDEF_STEREO_COUNT>
0

> <PUBCHEM_ISOTOPIC_ATOM_COUNT>
0

> <PUBCHEM_COMPONENT_COUNT>
1

> <PUBCHEM_CACTVS_TAUTO_COUNT>
1

> <PUBCHEM_COORDINATE_TYPE>
1
5
255

$$$$

