6611
  -OEChem-06261201253D

 34 34  0     1  0  0  0  0  0999 V2000
    3.8352   -0.9681    0.5158 O   0  0  0  0  0  0  0  0  0  0  0  0
   -1.3299   -0.9323    0.1024 C   0  0  0  0  0  0  0  0  0  0  0  0
   -2.7085   -0.3087   -0.3423 C   0  0  1  0  0  0  0  0  0  0  0  0
   -3.0585    0.9176    0.5186 C   0  0  0  0  0  0  0  0  0  0  0  0
   -0.2657    0.1608    0.2999 C   0  0  0  0  0  0  0  0  0  0  0  0
   -1.9863    2.0005    0.4396 C   0  0  0  0  0  0  0  0  0  0  0  0
   -1.5238   -1.6660    1.4537 C   0  0  0  0  0  0  0  0  0  0  0  0
   -0.8927   -1.9935   -0.9373 C   0  0  0  0  0  0  0  0  0  0  0  0
   -2.7751    0.0713   -1.8328 C   0  0  0  0  0  0  0  0  0  0  0  0
   -0.5887    1.4610    0.4381 C   0  0  0  0  0  0  0  0  0  0  0  0
    1.1298   -0.2226    0.3668 C   0  0  0  0  0  0  0  0  0  0  0  0
    2.0975    0.5012   -0.1912 C   0  0  0  0  0  0  0  0  0  0  0  0
    3.5143    0.0535   -0.0874 C   0  0  0  0  0  0  0  0  0  0  0  0
    4.5525    0.9252   -0.7439 C   0  0  0  0  0  0  0  0  0  0  0  0
   -3.4972   -1.0568   -0.1810 H   0  0  0  0  0  0  0  0  0  0  0  0
   -3.1867    0.6111    1.5637 H   0  0  0  0  0  0  0  0  0  0  0  0
   -4.0248    1.3381    0.2137 H   0  0  0  0  0  0  0  0  0  0  0  0
   -2.1095    2.6842    1.2876 H   0  0  0  0  0  0  0  0  0  0  0  0
   -2.1264    2.5990   -0.4684 H   0  0  0  0  0  0  0  0  0  0  0  0
   -1.7585   -0.9745    2.2699 H   0  0  0  0  0  0  0  0  0  0  0  0
   -0.6227   -2.2158    1.7494 H   0  0  0  0  0  0  0  0  0  0  0  0
   -2.3389   -2.3961    1.3902 H   0  0  0  0  0  0  0  0  0  0  0  0
   -1.7101   -2.6916   -1.1526 H   0  0  0  0  0  0  0  0  0  0  0  0
   -0.0496   -2.5942   -0.5763 H   0  0  0  0  0  0  0  0  0  0  0  0
   -0.5774   -1.5342   -1.8808 H   0  0  0  0  0  0  0  0  0  0  0  0
   -1.9396    0.7093   -2.1367 H   0  0  0  0  0  0  0  0  0  0  0  0
   -2.7663   -0.8209   -2.4670 H   0  0  0  0  0  0  0  0  0  0  0  0
   -3.7053    0.6058   -2.0550 H   0  0  0  0  0  0  0  0  0  0  0  0
    0.1784    2.2172    0.5912 H   0  0  0  0  0  0  0  0  0  0  0  0
    1.3532   -1.1444    0.8954 H   0  0  0  0  0  0  0  0  0  0  0  0
    1.9110    1.4147   -0.7453 H   0  0  0  0  0  0  0  0  0  0  0  0
    5.2751    0.2910   -1.2653 H   0  0  0  0  0  0  0  0  0  0  0  0
    4.1016    1.5949   -1.4812 H   0  0  0  0  0  0  0  0  0  0  0  0
    5.0604    1.5191    0.0200 H   0  0  0  0  0  0  0  0  0  0  0  0
  1 13  2  0  0  0  0
  2  3  1  0  0  0  0
  2  5  1  0  0  0  0
  2  7  1  0  0  0  0
  2  8  1  0  0  0  0
  3  4  1  0  0  0  0
  3  9  1  0  0  0  0
  3 15  1  0  0  0  0
  4  6  1  0  0  0  0
  4 16  1  0  0  0  0
  4 17  1  0  0  0  0
  5 10  2  0  0  0  0
  5 11  1  0  0  0  0
  6 10  1  0  0  0  0
  6 18  1  0  0  0  0
  6 19  1  0  0  0  0
  7 20  1  0  0  0  0
  7 21  1  0  0  0  0
  7 22  1  0  0  0  0
  8 23  1  0  0  0  0
  8 24  1  0  0  0  0
  8 25  1  0  0  0  0
  9 26  1  0  0  0  0
  9 27  1  0  0  0  0
  9 28  1  0  0  0  0
 10 29  1  0  0  0  0
 11 12  2  0  0  0  0
 11 30  1  0  0  0  0
 12 13  1  0  0  0  0
 12 31  1  0  0  0  0
 13 14  1  0  0  0  0
 14 32  1  0  0  0  0
 14 33  1  0  0  0  0
 14 34  1  0  0  0  0
M  END
> <PUBCHEM_COMPOUND_CID>
6611

> <PUBCHEM_CONFORMER_RMSD>
0.6

> <PUBCHEM_CONFORMER_DIVERSEORDER>
4
6
3
5
2
8
7
1

> <PUBCHEM_MMFF94_PARTIAL_CHARGES>
12
1 -0.57
10 -0.29
11 -0.15
12 -0.14
13 0.49
14 0.06
2 0.14
29 0.15
30 0.15
31 0.15
5 -0.14
6 0.14

> <PUBCHEM_EFFECTIVE_ROTOR_COUNT>
2.8

> <PUBCHEM_PHARMACOPHORE_FEATURES>
3
1 1 acceptor
3 2 7 8 hydrophobe
6 2 3 4 5 6 10 rings

> <PUBCHEM_HEAVY_ATOM_COUNT>
14

> <PUBCHEM_ATOM_DEF_STEREO_COUNT>
1

> <PUBCHEM_ATOM_UDEF_STEREO_COUNT>
0

> <PUBCHEM_BOND_DEF_STEREO_COUNT>
0

> <PUBCHEM_BOND_UDEF_STEREO_COUNT>
1

> <PUBCHEM_ISOTOPIC_ATOM_COUNT>
0

> <PUBCHEM_COMPONENT_COUNT>
1

> <PUBCHEM_CACTVS_TAUTO_COUNT>
2

> <PUBCHEM_CONFORMER_ID>
000019D300000004

> <PUBCHEM_MMFF94_ENERGY>
32.4846

> <PUBCHEM_FEATURE_SELFOVERLAP>
15.223

> <PUBCHEM_SHAPE_FINGERPRINT>
10062212 137 18117009976978281899
11127187 94 18336552603391106711
12423570 1 5581194621831321803
12932764 1 18040431058515365266
13024252 1 12895354378637123633
13380535 76 18337668740731790195
14144814 61 18411698803201386464
15669948 3 18334859390123553606
16945 1 18262254265069896411
18186145 218 17918270970173084362
187816 3 18410864248195661135
20279233 1 17458344143978119686
20645476 183 17846789489804858419
20645477 70 18412261770646432910
20871998 184 18261662697459484727
20871999 31 18268438944787989615
21524375 3 18121500412673380153
23402539 116 18187938295264897453
23559900 14 17967816068307119744
2748010 2 17902807266392951625
3248919 1 18342178873500075690
3312278 4 18272083847398405322
4175511 318 18202285783793379814
5939293 188 16104726943259638593
9709674 26 18334288803813576510

> <PUBCHEM_SHAPE_MULTIPOLES>
282.24
6.65
1.82
1.2
9.06
0.08
0.28
-1.14
1.25
-1.01
-0.24
-0.82
0.29
-0.41

> <PUBCHEM_SHAPE_SELFOVERLAP>
563.771

> <PUBCHEM_SHAPE_VOLUME>
166.5

> <PUBCHEM_COORDINATE_TYPE>
2
5
10

$$$$

