12554
  -OEChem-06261207052D

 44 46  0     0  0  0  0  0  0999 V2000
    4.6316    2.2488    0.0000 O   0  0  0  0  0  0  0  0  0  0  0  0
    5.6021   -3.2457    0.0000 O   0  0  0  0  0  0  0  0  0  0  0  0
    2.2522    3.4748    0.0000 O   0  0  0  0  0  0  0  0  0  0  0  0
    3.8345    4.1793    0.0000 O   0  0  0  0  0  0  0  0  0  0  0  0
   11.7361   -0.7732    0.0000 O   0  0  0  0  0  0  0  0  0  0  0  0
    7.3342   -0.2457    0.0000 N   0  0  0  0  0  0  0  0  0  0  0  0
    7.3342   -3.2457    0.0000 N   0  0  0  0  0  0  0  0  0  0  0  0
   10.8643   -2.2698    0.0000 N   0  0  0  0  0  0  0  0  0  0  0  0
    3.2467    3.3703    0.0000 N   0  0  0  0  0  0  0  0  0  0  0  0
    8.2002   -1.7457    0.0000 C   0  0  0  0  0  0  0  0  0  0  0  0
    8.2002   -0.7457    0.0000 C   0  0  0  0  0  0  0  0  0  0  0  0
    7.3342   -2.2457    0.0000 C   0  0  0  0  0  0  0  0  0  0  0  0
    6.4682   -0.7457    0.0000 C   0  0  0  0  0  0  0  0  0  0  0  0
    9.0942   -2.2804    0.0000 C   0  0  0  0  0  0  0  0  0  0  0  0
    6.4682   -1.7457    0.0000 C   0  0  0  0  0  0  0  0  0  0  0  0
    9.0942   -0.2110    0.0000 C   0  0  0  0  0  0  0  0  0  0  0  0
   10.0002   -1.7665    0.0000 C   0  0  0  0  0  0  0  0  0  0  0  0
   10.0002   -0.7249    0.0000 C   0  0  0  0  0  0  0  0  0  0  0  0
    5.6021   -0.2457    0.0000 C   0  0  0  0  0  0  0  0  0  0  0  0
    5.6021    0.7543    0.0000 C   0  0  0  0  0  0  0  0  0  0  0  0
    4.7361    1.2543    0.0000 C   0  0  0  0  0  0  0  0  0  0  0  0
    3.8226    0.8476    0.0000 C   0  0  0  0  0  0  0  0  0  0  0  0
    3.6534    2.4567    0.0000 C   0  0  0  0  0  0  0  0  0  0  0  0
    3.1534    1.5907    0.0000 C   0  0  0  0  0  0  0  0  0  0  0  0
    6.4682   -3.7457    0.0000 C   0  0  0  0  0  0  0  0  0  0  0  0
   11.7323   -1.7732    0.0000 C   0  0  0  0  0  0  0  0  0  0  0  0
    6.4682   -4.7457    0.0000 C   0  0  0  0  0  0  0  0  0  0  0  0
   12.5964   -2.2765    0.0000 C   0  0  0  0  0  0  0  0  0  0  0  0
    9.0870   -2.9003    0.0000 H   0  0  0  0  0  0  0  0  0  0  0  0
    5.9312   -2.0557    0.0000 H   0  0  0  0  0  0  0  0  0  0  0  0
    9.0870    0.4089    0.0000 H   0  0  0  0  0  0  0  0  0  0  0  0
   10.5360   -0.4128    0.0000 H   0  0  0  0  0  0  0  0  0  0  0  0
    5.0652   -0.5557    0.0000 H   0  0  0  0  0  0  0  0  0  0  0  0
    6.1391    1.0643    0.0000 H   0  0  0  0  0  0  0  0  0  0  0  0
    3.6937    0.2411    0.0000 H   0  0  0  0  0  0  0  0  0  0  0  0
    2.5368    1.5259    0.0000 H   0  0  0  0  0  0  0  0  0  0  0  0
    5.8482   -4.7457    0.0000 H   0  0  0  0  0  0  0  0  0  0  0  0
    6.4682   -5.3657    0.0000 H   0  0  0  0  0  0  0  0  0  0  0  0
    7.0882   -4.7457    0.0000 H   0  0  0  0  0  0  0  0  0  0  0  0
   12.2843   -2.8123    0.0000 H   0  0  0  0  0  0  0  0  0  0  0  0
   13.1321   -2.5886    0.0000 H   0  0  0  0  0  0  0  0  0  0  0  0
   12.9084   -1.7408    0.0000 H   0  0  0  0  0  0  0  0  0  0  0  0
    2.0000    4.0412    0.0000 H   0  0  0  0  0  0  0  0  0  0  0  0
    3.5823    4.7457    0.0000 H   0  0  0  0  0  0  0  0  0  0  0  0
  1 21  1  0  0  0  0
  1 23  1  0  0  0  0
  2 25  2  0  0  0  0
  3  9  1  0  0  0  0
  3 43  1  0  0  0  0
  4  9  1  0  0  0  0
  4 44  1  0  0  0  0
  5 26  2  0  0  0  0
  6 11  2  0  0  0  0
  6 13  1  0  0  0  0
  7 12  2  0  0  0  0
  7 25  1  0  0  0  0
  8 17  2  0  0  0  0
  8 26  1  0  0  0  0
  9 23  1  0  0  0  0
 10 11  1  0  0  0  0
 10 12  1  0  0  0  0
 10 14  2  0  0  0  0
 11 16  1  0  0  0  0
 12 15  1  0  0  0  0
 13 15  2  0  0  0  0
 13 19  1  0  0  0  0
 14 17  1  0  0  0  0
 14 29  1  0  0  0  0
 15 30  1  0  0  0  0
 16 18  2  0  0  0  0
 16 31  1  0  0  0  0
 17 18  1  0  0  0  0
 18 32  1  0  0  0  0
 19 20  2  3  0  0  0
 19 33  1  0  0  0  0
 20 21  1  0  0  0  0
 20 34  1  0  0  0  0
 21 22  2  0  0  0  0
 22 24  1  0  0  0  0
 22 35  1  0  0  0  0
 23 24  2  0  0  0  0
 24 36  1  0  0  0  0
 25 27  1  0  0  0  0
 26 28  1  0  0  0  0
 27 37  1  0  0  0  0
 27 38  1  0  0  0  0
 27 39  1  0  0  0  0
 28 40  1  0  0  0  0
 28 41  1  0  0  0  0
 28 42  1  0  0  0  0
M  END
> <PUBCHEM_COMPOUND_CID>
12554

> <PUBCHEM_COMPOUND_CANONICALIZED>
1

> <PUBCHEM_CACTVS_COMPLEXITY>
905

> <PUBCHEM_CACTVS_HBOND_ACCEPTOR>
7

> <PUBCHEM_CACTVS_HBOND_DONOR>
2

> <PUBCHEM_CACTVS_ROTATABLE_BOND>
3

> <PUBCHEM_CACTVS_SUBSKEYS>
AAADceB7uAAAAAAAAAAAAAAAAAAAASAAAAAgQAAAAAAAAACBgAAAHgAECAAADAyBkAAyhIIQRECoA6VyVACCCAAsIgAoiAE2bNgMJjKEtZuKGSDkwBEI6Ya8AAAAAAAAAAAAAAAAAAAAAAAAAAAAAAAAAA==

> <PUBCHEM_IUPAC_OPENEYE_NAME>
N-[4-acetylimino-2-[2-[5-(dihydroxyamino)-2-furyl]vinyl]-6-quinolylidene]acetamide

> <PUBCHEM_IUPAC_CAS_NAME>
N-[4-acetylimino-2-[2-[5-(dihydroxyamino)-2-furanyl]ethenyl]-6-quinolinylidene]acetamide

> <PUBCHEM_IUPAC_NAME>
N-[4-acetylimino-2-[2-[5-(dihydroxyamino)furan-2-yl]ethenyl]quinolin-6-ylidene]acetamide

> <PUBCHEM_IUPAC_SYSTEMATIC_NAME>
N-[2-[2-[5-[bis(oxidanyl)amino]furan-2-yl]ethenyl]-4-ethanoylimino-quinolin-6-ylidene]ethanamide

> <PUBCHEM_IUPAC_TRADITIONAL_NAME>
N-[4-acetylimino-2-[2-[5-(dihydroxyamino)-2-furyl]vinyl]-6-quinolylidene]acetamide

> <PUBCHEM_IUPAC_INCHI>
InChI=1S/C19H16N4O5/c1-11(24)20-13-4-7-17-16(9-13)18(21-12(2)25)10-14(22-17)3-5-15-6-8-19(28-15)23(26)27/h3-10,26-27H,1-2H3

> <PUBCHEM_IUPAC_INCHIKEY>
YHFHROFIBFYLDN-UHFFFAOYSA-N

> <PUBCHEM_XLOGP3_AA>
0.9

> <PUBCHEM_EXACT_MASS>
380.11207

> <PUBCHEM_MOLECULAR_FORMULA>
C19H16N4O5

> <PUBCHEM_MOLECULAR_WEIGHT>
380.35414

> <PUBCHEM_OPENEYE_CAN_SMILES>
CC(=O)N=C1C=CC2=NC(=CC(=NC(=O)C)C2=C1)C=CC3=CC=C(O3)N(O)O

> <PUBCHEM_OPENEYE_ISO_SMILES>
CC(=O)N=C1C=CC2=NC(=CC(=NC(=O)C)C2=C1)C=CC3=CC=C(O3)N(O)O

> <PUBCHEM_CACTVS_TPSA>
128

> <PUBCHEM_MONOISOTOPIC_WEIGHT>
380.11207

> <PUBCHEM_TOTAL_CHARGE>
0

> <PUBCHEM_HEAVY_ATOM_COUNT>
28

> <PUBCHEM_ATOM_DEF_STEREO_COUNT>
0

> <PUBCHEM_ATOM_UDEF_STEREO_COUNT>
0

> <PUBCHEM_BOND_DEF_STEREO_COUNT>
0

> <PUBCHEM_BOND_UDEF_STEREO_COUNT>
1

> <PUBCHEM_ISOTOPIC_ATOM_COUNT>
0

> <PUBCHEM_COMPONENT_COUNT>
1

> <PUBCHEM_CACTVS_TAUTO_COUNT>
1

> <PUBCHEM_COORDINATE_TYPE>
1
5
255

> <PUBCHEM_BONDANNOTATIONS>
1  21  8
1  23  8
19  20  1
21  22  8
22  24  8
23  24  8

$$$$

