9173
  -OEChem-06261203282D

 29 32  0     0  0  0  0  0  0999 V2000
    7.3855    1.8164    0.0000 N   0  0  0  0  0  0  0  0  0  0  0  0
    4.6660    0.2182    0.0000 C   0  0  0  0  0  0  0  0  0  0  0  0
    5.5321   -0.2818    0.0000 C   0  0  0  0  0  0  0  0  0  0  0  0
    3.8000   -0.2818    0.0000 C   0  0  0  0  0  0  0  0  0  0  0  0
    6.4421    0.2251    0.0000 C   0  0  0  0  0  0  0  0  0  0  0  0
    3.8000   -1.2818    0.0000 C   0  0  0  0  0  0  0  0  0  0  0  0
    5.5321   -1.2818    0.0000 C   0  0  0  0  0  0  0  0  0  0  0  0
    6.4501    1.2667    0.0000 C   0  0  0  0  0  0  0  0  0  0  0  0
    4.6500    1.2598    0.0000 C   0  0  0  0  0  0  0  0  0  0  0  0
    4.6660   -1.7818    0.0000 C   0  0  0  0  0  0  0  0  0  0  0  0
    5.5480    1.7875    0.0000 C   0  0  0  0  0  0  0  0  0  0  0  0
    2.9061    0.2529    0.0000 C   0  0  0  0  0  0  0  0  0  0  0  0
    7.3689   -0.3390    0.0000 C   0  0  0  0  0  0  0  0  0  0  0  0
    2.9061   -1.8164    0.0000 C   0  0  0  0  0  0  0  0  0  0  0  0
    2.0000   -0.2609    0.0000 C   0  0  0  0  0  0  0  0  0  0  0  0
    2.0000   -1.3026    0.0000 C   0  0  0  0  0  0  0  0  0  0  0  0
    8.3168    0.1890    0.0000 C   0  0  0  0  0  0  0  0  0  0  0  0
    8.3252    1.2739    0.0000 C   0  0  0  0  0  0  0  0  0  0  0  0
    6.0690   -1.5918    0.0000 H   0  0  0  0  0  0  0  0  0  0  0  0
    4.1095    1.5635    0.0000 H   0  0  0  0  0  0  0  0  0  0  0  0
    4.6660   -2.4018    0.0000 H   0  0  0  0  0  0  0  0  0  0  0  0
    5.5456    2.4075    0.0000 H   0  0  0  0  0  0  0  0  0  0  0  0
    2.9132    0.8729    0.0000 H   0  0  0  0  0  0  0  0  0  0  0  0
    7.3570   -0.9589    0.0000 H   0  0  0  0  0  0  0  0  0  0  0  0
    2.9132   -2.4364    0.0000 H   0  0  0  0  0  0  0  0  0  0  0  0
    1.4643    0.0511    0.0000 H   0  0  0  0  0  0  0  0  0  0  0  0
    1.4643   -1.6146    0.0000 H   0  0  0  0  0  0  0  0  0  0  0  0
    8.8501   -0.1272    0.0000 H   0  0  0  0  0  0  0  0  0  0  0  0
    8.8633    1.5818    0.0000 H   0  0  0  0  0  0  0  0  0  0  0  0
  1  8  1  0  0  0  0
  1 18  2  0  0  0  0
  2  3  2  0  0  0  0
  2  4  1  0  0  0  0
  2  9  1  0  0  0  0
  3  5  1  0  0  0  0
  3  7  1  0  0  0  0
  4  6  1  0  0  0  0
  4 12  2  0  0  0  0
  5  8  2  0  0  0  0
  5 13  1  0  0  0  0
  6 10  1  0  0  0  0
  6 14  2  0  0  0  0
  7 10  2  0  0  0  0
  7 19  1  0  0  0  0
  8 11  1  0  0  0  0
  9 11  2  0  0  0  0
  9 20  1  0  0  0  0
 10 21  1  0  0  0  0
 11 22  1  0  0  0  0
 12 15  1  0  0  0  0
 12 23  1  0  0  0  0
 13 17  2  0  0  0  0
 13 24  1  0  0  0  0
 14 16  1  0  0  0  0
 14 25  1  0  0  0  0
 15 16  2  0  0  0  0
 15 26  1  0  0  0  0
 16 27  1  0  0  0  0
 17 18  1  0  0  0  0
 17 28  1  0  0  0  0
 18 29  1  0  0  0  0
M  END
> <PUBCHEM_COMPOUND_CID>
9173

> <PUBCHEM_COMPOUND_CANONICALIZED>
1

> <PUBCHEM_CACTVS_COMPLEXITY>
300

> <PUBCHEM_CACTVS_HBOND_ACCEPTOR>
1

> <PUBCHEM_CACTVS_HBOND_DONOR>
0

> <PUBCHEM_CACTVS_ROTATABLE_BOND>
0

> <PUBCHEM_CACTVS_SUBSKEYS>
AAADccB6AAAAAAAAAAAAAAAAAAAAAAAAAAA8YMEAAAAAAADx9AAAHAAAAAAADAjBHgQ8wPIIEACgAzRnRACCgCAxAiAI2CA4ZJgIIOLAkZGEIAhggADIyAcQgMAOyAACQAASAACQAASAACQAAAAAAAAAAA==

> <PUBCHEM_IUPAC_OPENEYE_NAME>
naphtho[2,1-f]quinoline

> <PUBCHEM_IUPAC_CAS_NAME>
naphtho[2,1-f]quinoline

> <PUBCHEM_IUPAC_NAME>
naphtho[2,1-f]quinoline

> <PUBCHEM_IUPAC_SYSTEMATIC_NAME>
naphtho[2,1-f]quinoline

> <PUBCHEM_IUPAC_TRADITIONAL_NAME>
naphtho[2,1-f]quinoline

> <PUBCHEM_IUPAC_INCHI>
InChI=1S/C17H11N/c1-2-5-13-12(4-1)7-8-15-14(13)9-10-17-16(15)6-3-11-18-17/h1-11H

> <PUBCHEM_IUPAC_INCHIKEY>
ZKWHSGRDDNYNAN-UHFFFAOYSA-N

> <PUBCHEM_XLOGP3>
4.8

> <PUBCHEM_EXACT_MASS>
229.089149

> <PUBCHEM_MOLECULAR_FORMULA>
C17H11N

> <PUBCHEM_MOLECULAR_WEIGHT>
229.27594

> <PUBCHEM_OPENEYE_CAN_SMILES>
C1=CC=C2C(=C1)C=CC3=C2C=CC4=C3C=CC=N4

> <PUBCHEM_OPENEYE_ISO_SMILES>
C1=CC=C2C(=C1)C=CC3=C2C=CC4=C3C=CC=N4

> <PUBCHEM_CACTVS_TPSA>
12.9

> <PUBCHEM_MONOISOTOPIC_WEIGHT>
229.089149

> <PUBCHEM_TOTAL_CHARGE>
0

> <PUBCHEM_HEAVY_ATOM_COUNT>
18

> <PUBCHEM_ATOM_DEF_STEREO_COUNT>
0

> <PUBCHEM_ATOM_UDEF_STEREO_COUNT>
0

> <PUBCHEM_BOND_DEF_STEREO_COUNT>
0

> <PUBCHEM_BOND_UDEF_STEREO_COUNT>
0

> <PUBCHEM_ISOTOPIC_ATOM_COUNT>
0

> <PUBCHEM_COMPONENT_COUNT>
1

> <PUBCHEM_CACTVS_TAUTO_COUNT>
1

> <PUBCHEM_COORDINATE_TYPE>
1
5
255

> <PUBCHEM_BONDANNOTATIONS>
1  18  8
1  8  8
12  15  8
13  17  8
14  16  8
15  16  8
17  18  8
2  3  8
2  4  8
2  9  8
3  5  8
3  7  8
4  12  8
4  6  8
5  13  8
5  8  8
6  10  8
6  14  8
7  10  8
8  11  8
9  11  8

$$$$

