47205753
  -OEChem-06241223003D

 34 35  0     1  0  0  0  0  0999 V2000
   -4.0992   -1.9457   -1.4969 O   0  0  0  0  0  0  0  0  0  0  0  0
   -0.7234    1.7108   -0.6408 O   0  0  0  0  0  0  0  0  0  0  0  0
   -5.1321    0.8746    1.9678 O   0  0  0  0  0  0  0  0  0  0  0  0
    3.1332   -1.4940    0.2437 O   0  0  0  0  0  0  0  0  0  0  0  0
   -3.3880    0.8636    0.4097 N   0  0  0  0  0  0  0  0  0  0  0  0
   -4.9180   -0.7497    0.3169 N   0  0  0  0  0  0  0  0  0  0  0  0
    0.7564   -0.0688   -0.2392 N   0  0  0  0  0  0  0  0  0  0  0  0
    4.4033    0.4362    0.1899 N   0  0  0  0  0  0  0  0  0  0  0  0
   -2.9604    0.0574   -0.7079 C   0  0  1  0  0  0  0  0  0  0  0  0
   -1.5824   -0.5341   -0.4966 C   0  0  0  0  0  0  0  0  0  0  0  0
   -4.0422   -1.0127   -0.7080 C   0  0  0  0  0  0  0  0  0  0  0  0
   -0.4834    0.5199   -0.4717 C   0  0  0  0  0  0  0  0  0  0  0  0
   -4.5513    0.3810    1.0111 C   0  0  0  0  0  0  0  0  0  0  0  0
    2.0131    0.5752   -0.1461 C   0  0  0  0  0  0  0  0  0  0  0  0
    3.1806   -0.1322    0.0914 C   0  0  0  0  0  0  0  0  0  0  0  0
    2.1064    1.9549   -0.2922 C   0  0  0  0  0  0  0  0  0  0  0  0
    3.3469    2.5761   -0.1976 C   0  0  0  0  0  0  0  0  0  0  0  0
    4.3701   -2.1535    0.4849 C   0  0  0  0  0  0  0  0  0  0  0  0
    4.4547    1.7791    0.0424 C   0  0  0  0  0  0  0  0  0  0  0  0
    4.1156   -3.6379    0.6391 C   0  0  0  0  0  0  0  0  0  0  0  0
   -3.0351    0.6617   -1.6174 H   0  0  0  0  0  0  0  0  0  0  0  0
   -1.5426   -1.0942    0.4469 H   0  0  0  0  0  0  0  0  0  0  0  0
   -1.3533   -1.2410   -1.3037 H   0  0  0  0  0  0  0  0  0  0  0  0
   -2.9195    1.7141    0.7064 H   0  0  0  0  0  0  0  0  0  0  0  0
   -5.7312   -1.3145    0.5334 H   0  0  0  0  0  0  0  0  0  0  0  0
    0.7842   -1.0792   -0.1198 H   0  0  0  0  0  0  0  0  0  0  0  0
    1.2649    2.6066   -0.4797 H   0  0  0  0  0  0  0  0  0  0  0  0
    3.4448    3.6500   -0.3080 H   0  0  0  0  0  0  0  0  0  0  0  0
    4.8287   -1.7751    1.4064 H   0  0  0  0  0  0  0  0  0  0  0  0
    5.0539   -1.9949   -0.3576 H   0  0  0  0  0  0  0  0  0  0  0  0
    5.4449    2.2148    0.1249 H   0  0  0  0  0  0  0  0  0  0  0  0
    3.4256   -3.8268    1.4683 H   0  0  0  0  0  0  0  0  0  0  0  0
    3.6470   -4.0446   -0.2632 H   0  0  0  0  0  0  0  0  0  0  0  0
    5.0482   -4.1777    0.8262 H   0  0  0  0  0  0  0  0  0  0  0  0
  1 11  2  0  0  0  0
  2 12  2  0  0  0  0
  3 13  2  0  0  0  0
  4 15  1  0  0  0  0
  4 18  1  0  0  0  0
  5  9  1  0  0  0  0
  5 13  1  0  0  0  0
  5 24  1  0  0  0  0
  6 11  1  0  0  0  0
  6 13  1  0  0  0  0
  6 25  1  0  0  0  0
  7 12  1  0  0  0  0
  7 14  1  0  0  0  0
  7 26  1  0  0  0  0
  8 15  1  0  0  0  0
  8 19  2  0  0  0  0
  9 10  1  0  0  0  0
  9 11  1  0  0  0  0
  9 21  1  0  0  0  0
 10 12  1  0  0  0  0
 10 22  1  0  0  0  0
 10 23  1  0  0  0  0
 14 15  2  0  0  0  0
 14 16  1  0  0  0  0
 16 17  2  0  0  0  0
 16 27  1  0  0  0  0
 17 19  1  0  0  0  0
 17 28  1  0  0  0  0
 18 20  1  0  0  0  0
 18 29  1  0  0  0  0
 18 30  1  0  0  0  0
 19 31  1  0  0  0  0
 20 32  1  0  0  0  0
 20 33  1  0  0  0  0
 20 34  1  0  0  0  0
M  END
> <PUBCHEM_COMPOUND_CID>
47205753

> <PUBCHEM_CONFORMER_RMSD>
0.8

> <PUBCHEM_CONFORMER_DIVERSEORDER>
1
90
104
111
159
142
145
62
81
134
92
36
6
35
133
44
49
141
70
135
2
78
165
105
97
91
130
166
156
125
123
117
38
68
23
89
5
19
67
22
96
109
54
63
131
118
47
85
129
17
93
9
126
153
119
51
103
146
161
143
39
86
83
34
75
115
3
25
107
128
24
56
82
7
136
26
71
59
122
11
110
149
120
32
10
140
102
138
29
116
15
137
65
100
64
124
163
139
42
113
55
158
16
61
101
164
150
18
20
77
127
48
41
121
155
114
66
27
13
160
167
132
99
80
157
88
148
30
21
43
74
4
37
58
28
152
95
73
14
46
112
106
76
40
162
98
53
45
52
144
8
108
12
87
33
79
84
72
50
31
69
57
151
147
60
154
94

> <PUBCHEM_MMFF94_PARTIAL_CHARGES>
25
1 -0.57
10 0.06
11 0.57
12 0.57
13 0.69
14 0.12
15 0.39
16 -0.15
17 -0.15
18 0.28
19 0.16
2 -0.57
24 0.37
25 0.37
26 0.37
27 0.15
28 0.15
3 -0.57
31 0.15
4 -0.36
5 -0.73
6 -0.49
7 -0.55
8 -0.62
9 0.36

> <PUBCHEM_EFFECTIVE_ROTOR_COUNT>
6.6

> <PUBCHEM_PHARMACOPHORE_FEATURES>
10
1 1 acceptor
1 2 acceptor
1 3 acceptor
1 4 acceptor
1 5 donor
1 6 donor
1 7 donor
1 8 acceptor
5 5 6 9 11 13 rings
6 8 14 15 16 17 19 rings

> <PUBCHEM_HEAVY_ATOM_COUNT>
20

> <PUBCHEM_ATOM_DEF_STEREO_COUNT>
0

> <PUBCHEM_ATOM_UDEF_STEREO_COUNT>
1

> <PUBCHEM_BOND_DEF_STEREO_COUNT>
0

> <PUBCHEM_BOND_UDEF_STEREO_COUNT>
0

> <PUBCHEM_ISOTOPIC_ATOM_COUNT>
0

> <PUBCHEM_COMPONENT_COUNT>
1

> <PUBCHEM_CACTVS_TAUTO_COUNT>
16

> <PUBCHEM_CONFORMER_ID>
02D04D7900000001

> <PUBCHEM_MMFF94_ENERGY>
49.8462

> <PUBCHEM_FEATURE_SELFOVERLAP>
50.864

> <PUBCHEM_SHAPE_FINGERPRINT>
10912923 1 18114181913054852015
11370993 144 18272365404169385529
11405975 8 18339083808049632433
114674 6 18060421343887240362
11552529 35 18044380418209508663
12107183 9 18047185534216816265
12236239 1 17967529043784535944
12596602 18 17458909241146177224
12633257 1 18187643656345247863
13167823 11 18260830362872886263
13533116 47 18409735028242565035
13631057 29 17903361398826584855
13675066 3 17917710201857568213
13785724 45 17829317339607236086
13955234 65 18411984642223572856
14252887 29 18060701680380806868
14739800 52 17386299683660488392
14863182 85 18343301458214411926
15142526 21 17684660831233773928
15238133 3 17023178387705968289
15250474 111 18188503384165429567
15475509 84 18042402620161347992
17818456 19 17750226083417099665
17844677 252 18341611555153808653
1813 80 17561077012355121941
19078846 21 17530965778163532601
20281475 54 18334585624243757319
20645477 70 18201733846458085862
21065198 48 18260828177034933373
21065201 7 15647052616640842245
212916 134 16008751342111727127
21421861 104 18261662792112198162
221490 88 18271812379911609620
23503953 91 18040434429769286827
23559900 14 18341344369796652388
33824 294 18342463604283445264
341906 21 16298381383585679001
3421961 26 18340492270129461594
5104073 3 18260547814228205019
573450 72 17822013103611774415
5758199 1 18264208016140486840
8863177 126 17916852591103927778
88748 71 17984703578598380314
9709674 26 18272653445813611466

> <PUBCHEM_SHAPE_MULTIPOLES>
368.19
12.55
2.91
1.04
7.48
1.86
0.22
3.26
2.95
-5.44
0.16
1.68
0.08
-1.82

> <PUBCHEM_SHAPE_SELFOVERLAP>
774.441

> <PUBCHEM_SHAPE_VOLUME>
206.7

> <PUBCHEM_COORDINATE_TYPE>
2
5
10

$$$$

