11954128
  -OEChem-07051213073D

 22 24  0     0  0  0  0  0  0999 V2000
    5.0589   -0.1126   -0.0017 Cl  0  0  0  0  0  0  0  0  0  0  0  0
    0.1651   -1.7060    0.0004 O   0  0  0  0  0  0  0  0  0  0  0  0
   -4.3399    1.3783    0.0000 O   0  0  0  0  0  0  0  0  0  0  0  0
   -0.8325    0.3235    0.0002 C   0  0  0  0  0  0  0  0  0  0  0  0
    0.5800    0.5170    0.0007 C   0  0  0  0  0  0  0  0  0  0  0  0
   -1.0306   -1.0537    0.0004 C   0  0  0  0  0  0  0  0  0  0  0  0
    1.1413   -0.7562    0.0005 C   0  0  0  0  0  0  0  0  0  0  0  0
   -1.9625    1.1619   -0.0009 C   0  0  0  0  0  0  0  0  0  0  0  0
    1.4429    1.6283    0.0009 C   0  0  0  0  0  0  0  0  0  0  0  0
   -2.2841   -1.6632   -0.0002 C   0  0  0  0  0  0  0  0  0  0  0  0
    2.5126   -1.0062    0.0002 C   0  0  0  0  0  0  0  0  0  0  0  0
   -3.2363    0.5777   -0.0008 C   0  0  0  0  0  0  0  0  0  0  0  0
   -3.3916   -0.8103   -0.0003 C   0  0  0  0  0  0  0  0  0  0  0  0
    2.8270    1.4083    0.0004 C   0  0  0  0  0  0  0  0  0  0  0  0
    3.3499    0.1131   -0.0002 C   0  0  0  0  0  0  0  0  0  0  0  0
   -1.8521    2.2426   -0.0011 H   0  0  0  0  0  0  0  0  0  0  0  0
    1.0520    2.6415    0.0010 H   0  0  0  0  0  0  0  0  0  0  0  0
   -2.3967   -2.7409   -0.0001 H   0  0  0  0  0  0  0  0  0  0  0  0
    2.8989   -2.0193   -0.0002 H   0  0  0  0  0  0  0  0  0  0  0  0
   -4.3868   -1.2498   -0.0001 H   0  0  0  0  0  0  0  0  0  0  0  0
    3.4908    2.2703    0.0002 H   0  0  0  0  0  0  0  0  0  0  0  0
   -5.1358    0.8193    0.0003 H   0  0  0  0  0  0  0  0  0  0  0  0
  1 15  1  0  0  0  0
  2  6  1  0  0  0  0
  2  7  1  0  0  0  0
  3 12  1  0  0  0  0
  3 22  1  0  0  0  0
  4  5  1  0  0  0  0
  4  6  2  0  0  0  0
  4  8  1  0  0  0  0
  5  7  2  0  0  0  0
  5  9  1  0  0  0  0
  6 10  1  0  0  0  0
  7 11  1  0  0  0  0
  8 12  2  0  0  0  0
  8 16  1  0  0  0  0
  9 14  2  0  0  0  0
  9 17  1  0  0  0  0
 10 13  2  0  0  0  0
 10 18  1  0  0  0  0
 11 15  2  0  0  0  0
 11 19  1  0  0  0  0
 12 13  1  0  0  0  0
 13 20  1  0  0  0  0
 14 15  1  0  0  0  0
 14 21  1  0  0  0  0
M  END
> <PUBCHEM_COMPOUND_CID>
11954128

> <PUBCHEM_CONFORMER_RMSD>
0.4

> <PUBCHEM_CONFORMER_DIVERSEORDER>
1

> <PUBCHEM_MMFF94_PARTIAL_CHARGES>
20
1 -0.18
10 -0.15
11 -0.15
12 0.08
13 -0.15
14 -0.15
15 0.18
16 0.15
17 0.15
18 0.15
19 0.15
2 -0.28
20 0.15
21 0.15
22 0.45
3 -0.53
6 0.14
7 0.14
8 -0.15
9 -0.15

> <PUBCHEM_EFFECTIVE_ROTOR_COUNT>
0

> <PUBCHEM_PHARMACOPHORE_FEATURES>
5
1 2 acceptor
1 3 donor
5 2 4 5 6 7 rings
6 4 6 8 10 12 13 rings
6 5 7 9 11 14 15 rings

> <PUBCHEM_HEAVY_ATOM_COUNT>
15

> <PUBCHEM_ATOM_DEF_STEREO_COUNT>
0

> <PUBCHEM_ATOM_UDEF_STEREO_COUNT>
0

> <PUBCHEM_BOND_DEF_STEREO_COUNT>
0

> <PUBCHEM_BOND_UDEF_STEREO_COUNT>
0

> <PUBCHEM_ISOTOPIC_ATOM_COUNT>
0

> <PUBCHEM_COMPONENT_COUNT>
1

> <PUBCHEM_CACTVS_TAUTO_COUNT>
3

> <PUBCHEM_CONFORMER_ID>
00B667D000000001

> <PUBCHEM_MMFF94_ENERGY>
30.1435

> <PUBCHEM_FEATURE_SELFOVERLAP>
25.573

> <PUBCHEM_SHAPE_FINGERPRINT>
10062212 137 18409739443052226866
10608611 8 18337675221842837953
10967382 1 18338799021446992487
11132069 177 18409452483438929712
11401426 45 18334299768743256952
11471102 20 18410015476204802532
12032990 46 18339074891602359570
12251169 10 18413389843025420849
13380535 76 18409729573264827455
13675066 3 18187649063983256570
13922767 16 18334579040285908224
14144814 61 18411702075518008138
14325111 11 18410855425842458337
14897335 6 18409451401291715935
15196674 1 18410573946718512420
15219456 202 18261103101796523999
15442244 35 18266178524932502674
15536298 74 18334576790007914120
15775835 57 18343581858394250409
16945 1 18338799025953079783
17802600 8 18410580556456864205
17804303 29 18410008815064058108
18186145 218 18341618117747487004
18522853 276 18334858312018223120
200 152 17821733818778130519
20645477 70 18115025336925801910
21267235 1 18339071610215878755
21501502 16 18339643326112765518
23402539 116 18187373133366349964
23402655 69 18262246633103286005
23463225 33 18413672409266657548
23559900 14 18260548927326081224
25 1 18340490057603956631
2748010 2 18337952281566404869
335352 9 18338799021515616668
3545911 37 18409165528110310049
474 4 16843597164098257292
4990 188 18114173142858163132
5104073 3 18411137991888536728
528886 8 18410298016380862394
53812653 166 18409171017194513576
6430166 295 18412266155069135028
69090 78 18333736805673026743
7364860 26 18264770046227062622
8809292 202 18272084938019645538
9709674 26 18337103484486835278
9981440 41 17190099328491950056

> <PUBCHEM_SHAPE_MULTIPOLES>
298.82
7.72
1.73
0.61
2.54
0.01
0
-0.95
0
-0.55
0
0.04
0
0

> <PUBCHEM_SHAPE_SELFOVERLAP>
668.927

> <PUBCHEM_SHAPE_VOLUME>
160.8

> <PUBCHEM_COORDINATE_TYPE>
2
5
10

$$$$

