23724693
  -OEChem-07051213082D

101101  0     0  0  0  0  0  0999 V2000
   15.1244    9.7500    0.0000 O   0  0  0  0  0  0  0  0  0  0  0  0
   11.6603    7.7500    0.0000 O   0  0  0  0  0  0  0  0  0  0  0  0
    3.0000   -9.2500    0.0000 C   0  0  0  0  0  0  0  0  0  0  0  0
    3.0000  -10.2500    0.0000 C   0  0  0  0  0  0  0  0  0  0  0  0
    3.8660  -10.7500    0.0000 C   0  0  0  0  0  0  0  0  0  0  0  0
    3.8660   -8.7500    0.0000 C   0  0  0  0  0  0  0  0  0  0  0  0
    4.7320  -10.2500    0.0000 C   0  0  0  0  0  0  0  0  0  0  0  0
    4.7320   -9.2500    0.0000 C   0  0  0  0  0  0  0  0  0  0  0  0
    2.0000   -9.2500    0.0000 C   0  0  0  0  0  0  0  0  0  0  0  0
    2.5000   -8.3840    0.0000 C   0  0  0  0  0  0  0  0  0  0  0  0
    3.8660   -7.7500    0.0000 C   0  0  0  0  0  0  0  0  0  0  0  0
    5.5981   -8.7500    0.0000 C   0  0  0  0  0  0  0  0  0  0  0  0
    4.7320   -7.2500    0.0000 C   0  0  0  0  0  0  0  0  0  0  0  0
    4.7320   -6.2500    0.0000 C   0  0  0  0  0  0  0  0  0  0  0  0
    3.8660   -5.7500    0.0000 C   0  0  0  0  0  0  0  0  0  0  0  0
    5.5981   -5.7500    0.0000 C   0  0  0  0  0  0  0  0  0  0  0  0
   14.2583    9.2500    0.0000 C   0  0  0  0  0  0  0  0  0  0  0  0
   13.3923    8.7500    0.0000 C   0  0  0  0  0  0  0  0  0  0  0  0
   13.3923    7.7500    0.0000 C   0  0  0  0  0  0  0  0  0  0  0  0
   13.7583   10.1160    0.0000 C   0  0  0  0  0  0  0  0  0  0  0  0
   14.7583    8.3840    0.0000 C   0  0  0  0  0  0  0  0  0  0  0  0
    5.5981   -4.7500    0.0000 C   0  0  0  0  0  0  0  0  0  0  0  0
   12.5263    7.2500    0.0000 C   0  0  0  0  0  0  0  0  0  0  0  0
    6.4641   -4.2500    0.0000 C   0  0  0  0  0  0  0  0  0  0  0  0
   15.1244   10.7500    0.0000 C   0  0  0  0  0  0  0  0  0  0  0  0
   12.5263    6.2500    0.0000 C   0  0  0  0  0  0  0  0  0  0  0  0
    6.4641   -3.2500    0.0000 C   0  0  0  0  0  0  0  0  0  0  0  0
   13.3923    5.7500    0.0000 C   0  0  0  0  0  0  0  0  0  0  0  0
   11.6603    5.7500    0.0000 C   0  0  0  0  0  0  0  0  0  0  0  0
    5.5981   -2.7500    0.0000 C   0  0  0  0  0  0  0  0  0  0  0  0
    7.3301   -2.7500    0.0000 C   0  0  0  0  0  0  0  0  0  0  0  0
   11.6603    4.7500    0.0000 C   0  0  0  0  0  0  0  0  0  0  0  0
   10.7942    4.2500    0.0000 C   0  0  0  0  0  0  0  0  0  0  0  0
    7.3301   -1.7500    0.0000 C   0  0  0  0  0  0  0  0  0  0  0  0
   10.7942    3.2500    0.0000 C   0  0  0  0  0  0  0  0  0  0  0  0
    8.1962   -1.2500    0.0000 C   0  0  0  0  0  0  0  0  0  0  0  0
   11.6603    2.7500    0.0000 C   0  0  0  0  0  0  0  0  0  0  0  0
    9.9282    2.7500    0.0000 C   0  0  0  0  0  0  0  0  0  0  0  0
    8.1962   -0.2500    0.0000 C   0  0  0  0  0  0  0  0  0  0  0  0
    9.9282    1.7500    0.0000 C   0  0  0  0  0  0  0  0  0  0  0  0
    9.0622    0.2500    0.0000 C   0  0  0  0  0  0  0  0  0  0  0  0
    9.0622    1.2500    0.0000 C   0  0  0  0  0  0  0  0  0  0  0  0
    9.9282   -0.2500    0.0000 C   0  0  0  0  0  0  0  0  0  0  0  0
    2.3894  -10.1423    0.0000 H   0  0  0  0  0  0  0  0  0  0  0  0
    2.7880  -10.8326    0.0000 H   0  0  0  0  0  0  0  0  0  0  0  0
    3.4675  -11.2249    0.0000 H   0  0  0  0  0  0  0  0  0  0  0  0
    4.2646  -11.2249    0.0000 H   0  0  0  0  0  0  0  0  0  0  0  0
    4.9441  -10.8326    0.0000 H   0  0  0  0  0  0  0  0  0  0  0  0
    5.3426  -10.1423    0.0000 H   0  0  0  0  0  0  0  0  0  0  0  0
    2.0000   -8.6300    0.0000 H   0  0  0  0  0  0  0  0  0  0  0  0
    1.3800   -9.2500    0.0000 H   0  0  0  0  0  0  0  0  0  0  0  0
    2.0000   -9.8700    0.0000 H   0  0  0  0  0  0  0  0  0  0  0  0
    3.0369   -8.0740    0.0000 H   0  0  0  0  0  0  0  0  0  0  0  0
    2.1900   -7.8470    0.0000 H   0  0  0  0  0  0  0  0  0  0  0  0
    1.9631   -8.6940    0.0000 H   0  0  0  0  0  0  0  0  0  0  0  0
    3.3291   -7.4400    0.0000 H   0  0  0  0  0  0  0  0  0  0  0  0
    5.9081   -9.2869    0.0000 H   0  0  0  0  0  0  0  0  0  0  0  0
    6.1350   -8.4400    0.0000 H   0  0  0  0  0  0  0  0  0  0  0  0
    5.2881   -8.2131    0.0000 H   0  0  0  0  0  0  0  0  0  0  0  0
    5.2690   -7.5600    0.0000 H   0  0  0  0  0  0  0  0  0  0  0  0
    4.1760   -5.2131    0.0000 H   0  0  0  0  0  0  0  0  0  0  0  0
    3.3291   -5.4400    0.0000 H   0  0  0  0  0  0  0  0  0  0  0  0
    3.5560   -6.2869    0.0000 H   0  0  0  0  0  0  0  0  0  0  0  0
    6.1350   -6.0600    0.0000 H   0  0  0  0  0  0  0  0  0  0  0  0
   13.1803    9.3326    0.0000 H   0  0  0  0  0  0  0  0  0  0  0  0
   12.7817    8.6423    0.0000 H   0  0  0  0  0  0  0  0  0  0  0  0
   13.6044    7.1674    0.0000 H   0  0  0  0  0  0  0  0  0  0  0  0
   14.0029    7.8577    0.0000 H   0  0  0  0  0  0  0  0  0  0  0  0
   14.2953   10.4260    0.0000 H   0  0  0  0  0  0  0  0  0  0  0  0
   13.4483   10.6530    0.0000 H   0  0  0  0  0  0  0  0  0  0  0  0
   13.2214    9.8060    0.0000 H   0  0  0  0  0  0  0  0  0  0  0  0
   14.2214    8.0740    0.0000 H   0  0  0  0  0  0  0  0  0  0  0  0
   15.0683    7.8470    0.0000 H   0  0  0  0  0  0  0  0  0  0  0  0
   15.2953    8.6940    0.0000 H   0  0  0  0  0  0  0  0  0  0  0  0
    5.0611   -4.4400    0.0000 H   0  0  0  0  0  0  0  0  0  0  0  0
   15.7444   10.7500    0.0000 H   0  0  0  0  0  0  0  0  0  0  0  0
   15.1244   11.3700    0.0000 H   0  0  0  0  0  0  0  0  0  0  0  0
   14.5044   10.7500    0.0000 H   0  0  0  0  0  0  0  0  0  0  0  0
    7.0010   -4.5600    0.0000 H   0  0  0  0  0  0  0  0  0  0  0  0
   13.0823    5.2131    0.0000 H   0  0  0  0  0  0  0  0  0  0  0  0
   13.9292    5.4400    0.0000 H   0  0  0  0  0  0  0  0  0  0  0  0
   13.7023    6.2869    0.0000 H   0  0  0  0  0  0  0  0  0  0  0  0
   11.1233    6.0600    0.0000 H   0  0  0  0  0  0  0  0  0  0  0  0
    5.9081   -2.2131    0.0000 H   0  0  0  0  0  0  0  0  0  0  0  0
    5.0611   -2.4400    0.0000 H   0  0  0  0  0  0  0  0  0  0  0  0
    5.2881   -3.2869    0.0000 H   0  0  0  0  0  0  0  0  0  0  0  0
   12.1972    4.4400    0.0000 H   0  0  0  0  0  0  0  0  0  0  0  0
    7.8671   -3.0600    0.0000 H   0  0  0  0  0  0  0  0  0  0  0  0
   10.2573    4.5600    0.0000 H   0  0  0  0  0  0  0  0  0  0  0  0
    6.7932   -1.4400    0.0000 H   0  0  0  0  0  0  0  0  0  0  0  0
    8.7331   -1.5600    0.0000 H   0  0  0  0  0  0  0  0  0  0  0  0
   11.3503    2.2131    0.0000 H   0  0  0  0  0  0  0  0  0  0  0  0
   12.1972    2.4400    0.0000 H   0  0  0  0  0  0  0  0  0  0  0  0
   11.9703    3.2869    0.0000 H   0  0  0  0  0  0  0  0  0  0  0  0
    9.3913    3.0600    0.0000 H   0  0  0  0  0  0  0  0  0  0  0  0
    7.6592    0.0600    0.0000 H   0  0  0  0  0  0  0  0  0  0  0  0
   10.4651    1.4400    0.0000 H   0  0  0  0  0  0  0  0  0  0  0  0
    8.5252    1.5600    0.0000 H   0  0  0  0  0  0  0  0  0  0  0  0
    9.6182   -0.7869    0.0000 H   0  0  0  0  0  0  0  0  0  0  0  0
   10.4651   -0.5600    0.0000 H   0  0  0  0  0  0  0  0  0  0  0  0
   10.2382    0.2869    0.0000 H   0  0  0  0  0  0  0  0  0  0  0  0
  1 17  1  0  0  0  0
  1 25  1  0  0  0  0
  2 23  2  0  0  0  0
  3  4  1  0  0  0  0
  3  6  1  0  0  0  0
  3  9  1  0  0  0  0
  3 10  1  0  0  0  0
  4  5  1  0  0  0  0
  4 44  1  0  0  0  0
  4 45  1  0  0  0  0
  5  7  1  0  0  0  0
  5 46  1  0  0  0  0
  5 47  1  0  0  0  0
  6  8  2  0  0  0  0
  6 11  1  0  0  0  0
  7  8  1  0  0  0  0
  7 48  1  0  0  0  0
  7 49  1  0  0  0  0
  8 12  1  0  0  0  0
  9 50  1  0  0  0  0
  9 51  1  0  0  0  0
  9 52  1  0  0  0  0
 10 53  1  0  0  0  0
 10 54  1  0  0  0  0
 10 55  1  0  0  0  0
 11 13  2  0  0  0  0
 11 56  1  0  0  0  0
 12 57  1  0  0  0  0
 12 58  1  0  0  0  0
 12 59  1  0  0  0  0
 13 14  1  0  0  0  0
 13 60  1  0  0  0  0
 14 15  1  0  0  0  0
 14 16  2  0  0  0  0
 15 61  1  0  0  0  0
 15 62  1  0  0  0  0
 15 63  1  0  0  0  0
 16 22  1  0  0  0  0
 16 64  1  0  0  0  0
 17 18  1  0  0  0  0
 17 20  1  0  0  0  0
 17 21  1  0  0  0  0
 18 19  1  0  0  0  0
 18 65  1  0  0  0  0
 18 66  1  0  0  0  0
 19 23  1  0  0  0  0
 19 67  1  0  0  0  0
 19 68  1  0  0  0  0
 20 69  1  0  0  0  0
 20 70  1  0  0  0  0
 20 71  1  0  0  0  0
 21 72  1  0  0  0  0
 21 73  1  0  0  0  0
 21 74  1  0  0  0  0
 22 24  2  0  0  0  0
 22 75  1  0  0  0  0
 23 26  1  0  0  0  0
 24 27  1  0  0  0  0
 24 79  1  0  0  0  0
 25 76  1  0  0  0  0
 25 77  1  0  0  0  0
 25 78  1  0  0  0  0
 26 28  1  0  0  0  0
 26 29  2  0  0  0  0
 27 30  1  0  0  0  0
 27 31  2  0  0  0  0
 28 80  1  0  0  0  0
 28 81  1  0  0  0  0
 28 82  1  0  0  0  0
 29 32  1  0  0  0  0
 29 83  1  0  0  0  0
 30 84  1  0  0  0  0
 30 85  1  0  0  0  0
 30 86  1  0  0  0  0
 31 34  1  0  0  0  0
 31 88  1  0  0  0  0
 32 33  2  0  0  0  0
 32 87  1  0  0  0  0
 33 35  1  0  0  0  0
 33 89  1  0  0  0  0
 34 36  2  0  0  0  0
 34 90  1  0  0  0  0
 35 37  1  0  0  0  0
 35 38  2  0  0  0  0
 36 39  1  0  0  0  0
 36 91  1  0  0  0  0
 37 92  1  0  0  0  0
 37 93  1  0  0  0  0
 37 94  1  0  0  0  0
 38 40  1  0  0  0  0
 38 95  1  0  0  0  0
 39 41  2  0  0  0  0
 39 96  1  0  0  0  0
 40 42  2  0  0  0  0
 40 97  1  0  0  0  0
 41 42  1  0  0  0  0
 41 43  1  0  0  0  0
 42 98  1  0  0  0  0
 43 99  1  0  0  0  0
 43100  1  0  0  0  0
 43101  1  0  0  0  0
M  END
> <PUBCHEM_COMPOUND_CID>
23724693

> <PUBCHEM_COMPOUND_CANONICALIZED>
1

> <PUBCHEM_CACTVS_COMPLEXITY>
1270

> <PUBCHEM_CACTVS_HBOND_ACCEPTOR>
2

> <PUBCHEM_CACTVS_HBOND_DONOR>
0

> <PUBCHEM_CACTVS_ROTATABLE_BOND>
15

> <PUBCHEM_CACTVS_SUBSKEYS>
AAADcfB8MAAAAAAAAAAAAAAAAAAAAAAAAAAgAAAAAAAAAAAAAAAAGgAAAAAADkSAgAICAAAABACIAqBSAAAAAAAgAAAICAEAAEgIABIAAQAAAAAEgAAIgYOKwMAPAAAAAAAAAAAAAAAAAAAAAAAAAAAAAA==

> <PUBCHEM_IUPAC_OPENEYE_NAME>
(6E,8E,10E,12E,14E,16E,18E,20E,22E,24E)-2-methoxy-2,6,10,14,19,23-hexamethyl-25-(2,6,6-trimethylcyclohexen-1-yl)pentacosa-6,8,10,12,14,16,18,20,22,24-decaen-5-one

> <PUBCHEM_IUPAC_CAS_NAME>
(6E,8E,10E,12E,14E,16E,18E,20E,22E,24E)-2-methoxy-2,6,10,14,19,23-hexamethyl-25-(2,6,6-trimethyl-1-cyclohexenyl)-5-pentacosa-6,8,10,12,14,16,18,20,22,24-decaenone

> <PUBCHEM_IUPAC_NAME>
(6E,8E,10E,12E,14E,16E,18E,20E,22E,24E)-2-methoxy-2,6,10,14,19,23-hexamethyl-25-(2,6,6-trimethylcyclohexen-1-yl)pentacosa-6,8,10,12,14,16,18,20,22,24-decaen-5-one

> <PUBCHEM_IUPAC_SYSTEMATIC_NAME>
(6E,8E,10E,12E,14E,16E,18E,20E,22E,24E)-2-methoxy-2,6,10,14,19,23-hexamethyl-25-(2,6,6-trimethylcyclohexen-1-yl)pentacosa-6,8,10,12,14,16,18,20,22,24-decaen-5-one

> <PUBCHEM_IUPAC_TRADITIONAL_NAME>
(6E,8E,10E,12E,14E,16E,18E,20E,22E,24E)-2-methoxy-2,6,10,14,19,23-hexamethyl-25-(2,6,6-trimethylcyclohexen-1-yl)pentacosa-6,8,10,12,14,16,18,20,22,24-decaen-5-one

> <PUBCHEM_IUPAC_INCHI>
InChI=1S/C41H58O2/c1-32(20-14-22-34(3)24-16-25-37(6)39(42)29-31-41(9,10)43-11)18-12-13-19-33(2)21-15-23-35(4)27-28-38-36(5)26-17-30-40(38,7)8/h12-16,18-25,27-28H,17,26,29-31H2,1-11H3/b13-12+,20-14+,21-15+,24-16+,28-27+,32-18+,33-19+,34-22+,35-23+,37-25+

> <PUBCHEM_IUPAC_INCHIKEY>
VOXGPKABGLVWPB-XBIRMVLJSA-N

> <PUBCHEM_XLOGP3_AA>
12.3

> <PUBCHEM_EXACT_MASS>
582.443681

> <PUBCHEM_MOLECULAR_FORMULA>
C41H58O2

> <PUBCHEM_MOLECULAR_WEIGHT>
582.89802

> <PUBCHEM_OPENEYE_CAN_SMILES>
CC1=C(C(CCC1)(C)C)C=CC(=CC=CC(=CC=CC=C(C)C=CC=C(C)C=CC=C(C)C(=O)CCC(C)(C)OC)C)C

> <PUBCHEM_OPENEYE_ISO_SMILES>
CC1=C(C(CCC1)(C)C)/C=C/C(=C/C=C/C(=C/C=C/C=C(\C)/C=C/C=C(\C)/C=C/C=C(\C)/C(=O)CCC(C)(C)OC)/C)/C

> <PUBCHEM_CACTVS_TPSA>
26.3

> <PUBCHEM_MONOISOTOPIC_WEIGHT>
582.443681

> <PUBCHEM_TOTAL_CHARGE>
0

> <PUBCHEM_HEAVY_ATOM_COUNT>
43

> <PUBCHEM_ATOM_DEF_STEREO_COUNT>
0

> <PUBCHEM_ATOM_UDEF_STEREO_COUNT>
0

> <PUBCHEM_BOND_DEF_STEREO_COUNT>
10

> <PUBCHEM_BOND_UDEF_STEREO_COUNT>
0

> <PUBCHEM_ISOTOPIC_ATOM_COUNT>
0

> <PUBCHEM_COMPONENT_COUNT>
1

> <PUBCHEM_CACTVS_TAUTO_COUNT>
2

> <PUBCHEM_COORDINATE_TYPE>
1
5
255

$$$$

