12468
  -OEChem-06261206583D

 12 12  0     0  0  0  0  0  0999 V2000
    2.8328    0.0003    0.0004 Cl  0  0  0  0  0  0  0  0  0  0  0  0
    1.1927    2.7447   -0.0002 Cl  0  0  0  0  0  0  0  0  0  0  0  0
    1.1934   -2.7444   -0.0001 Cl  0  0  0  0  0  0  0  0  0  0  0  0
   -3.4164   -0.0004    0.0000 Cl  0  0  0  0  0  0  0  0  0  0  0  0
    1.0945    0.0002   -0.0002 C   0  0  0  0  0  0  0  0  0  0  0  0
    0.3968    1.2080   -0.0001 C   0  0  0  0  0  0  0  0  0  0  0  0
    0.3972   -1.2080   -0.0001 C   0  0  0  0  0  0  0  0  0  0  0  0
   -0.9981    1.2079    0.0001 C   0  0  0  0  0  0  0  0  0  0  0  0
   -0.9977   -1.2081    0.0000 C   0  0  0  0  0  0  0  0  0  0  0  0
   -1.6953   -0.0001    0.0002 C   0  0  0  0  0  0  0  0  0  0  0  0
   -1.5458    2.1481    0.0002 H   0  0  0  0  0  0  0  0  0  0  0  0
   -1.5452   -2.1485    0.0000 H   0  0  0  0  0  0  0  0  0  0  0  0
  1  5  1  0  0  0  0
  2  6  1  0  0  0  0
  3  7  1  0  0  0  0
  4 10  1  0  0  0  0
  5  6  2  0  0  0  0
  5  7  1  0  0  0  0
  6  8  1  0  0  0  0
  7  9  2  0  0  0  0
  8 10  2  0  0  0  0
  8 11  1  0  0  0  0
  9 10  1  0  0  0  0
  9 12  1  0  0  0  0
M  END
> <PUBCHEM_COMPOUND_CID>
12468

> <PUBCHEM_CONFORMER_RMSD>
0.4

> <PUBCHEM_CONFORMER_DIVERSEORDER>
1

> <PUBCHEM_MMFF94_PARTIAL_CHARGES>
12
1 -0.18
10 0.18
11 0.15
12 0.15
2 -0.18
3 -0.18
4 -0.18
5 0.18
6 0.18
7 0.18
8 -0.15
9 -0.15

> <PUBCHEM_EFFECTIVE_ROTOR_COUNT>
0

> <PUBCHEM_PHARMACOPHORE_FEATURES>
1
6 5 6 7 8 9 10 rings

> <PUBCHEM_HEAVY_ATOM_COUNT>
10

> <PUBCHEM_ATOM_DEF_STEREO_COUNT>
0

> <PUBCHEM_ATOM_UDEF_STEREO_COUNT>
0

> <PUBCHEM_BOND_DEF_STEREO_COUNT>
0

> <PUBCHEM_BOND_UDEF_STEREO_COUNT>
0

> <PUBCHEM_ISOTOPIC_ATOM_COUNT>
0

> <PUBCHEM_COMPONENT_COUNT>
1

> <PUBCHEM_CACTVS_TAUTO_COUNT>
1

> <PUBCHEM_CONFORMER_ID>
000030B400000001

> <PUBCHEM_MMFF94_ENERGY>
20.037

> <PUBCHEM_FEATURE_SELFOVERLAP>
5.074

> <PUBCHEM_SHAPE_FINGERPRINT>
1 1 18339081488777433095
12423570 1 7993118078541913303
13380535 76 17903925456812645636
13380536 305 18338510829173306852
161256 15 18119525685536982118
16945 1 18410855460328602373
193761 8 17762337320172152356
20511035 2 17984975995008411470
20588541 1 18342734135045435571
20871998 184 16532279053380383404
21040471 1 17906170650892815553
2334 1 17978509728581485959
23402655 69 18193575556775932997
23552423 10 18337113371680353031
241688 4 17906450278996367233
2748010 2 18124311597522217599
5084963 1 18113899299605852953

> <PUBCHEM_SHAPE_MULTIPOLES>
213.27
3.62
2.78
0.63
2.09
0
0
0
0
-1.7
0
-0.01
0
0

> <PUBCHEM_SHAPE_SELFOVERLAP>
408.648

> <PUBCHEM_SHAPE_VOLUME>
128.6

> <PUBCHEM_COORDINATE_TYPE>
2
5
10

$$$$

