16061255
  -OEChem-07051213082D

 99100  0     1  0  0  0  0  0999 V2000
   24.1876    0.3770    0.0000 O   0  0  0  0  0  0  0  0  0  0  0  0
   24.1876   -1.6230    0.0000 O   0  0  0  0  0  0  0  0  0  0  0  0
    2.5369    1.8770    0.0000 O   0  0  0  0  0  0  0  0  0  0  0  0
   22.4555    0.3770    0.0000 C   0  0  0  0  0  0  0  0  0  0  0  0
   23.3215   -0.1230    0.0000 C   0  0  2  0  0  0  0  0  0  0  0  0
    5.1350    1.3770    0.0000 C   0  0  0  0  0  0  0  0  0  0  0  0
   23.3215   -1.1230    0.0000 C   0  0  1  0  0  0  0  0  0  0  0  0
   21.5895   -0.1230    0.0000 C   0  0  0  0  0  0  0  0  0  0  0  0
    4.2690    1.8770    0.0000 C   0  0  0  0  0  0  0  0  0  0  0  0
   22.4555   -1.6230    0.0000 C   0  0  0  0  0  0  0  0  0  0  0  0
   21.5895   -1.1230    0.0000 C   0  0  0  0  0  0  0  0  0  0  0  0
    3.4030    1.3770    0.0000 C   0  0  1  0  0  0  0  0  0  0  0  0
    5.1350    0.3770    0.0000 C   0  0  0  0  0  0  0  0  0  0  0  0
   22.9555    1.2430    0.0000 C   0  0  0  0  0  0  0  0  0  0  0  0
   21.9555    1.2430    0.0000 C   0  0  0  0  0  0  0  0  0  0  0  0
    3.4030    0.3770    0.0000 C   0  0  0  0  0  0  0  0  0  0  0  0
    4.2690   -0.1230    0.0000 C   0  0  0  0  0  0  0  0  0  0  0  0
    5.6350    2.2430    0.0000 C   0  0  0  0  0  0  0  0  0  0  0  0
    6.1350    1.3770    0.0000 C   0  0  0  0  0  0  0  0  0  0  0  0
   20.7235    0.3770    0.0000 C   0  0  0  0  0  0  0  0  0  0  0  0
   20.7235   -1.6230    0.0000 C   0  0  0  0  0  0  0  0  0  0  0  0
    6.0010   -0.1230    0.0000 C   0  0  0  0  0  0  0  0  0  0  0  0
    4.2690   -1.1230    0.0000 C   0  0  0  0  0  0  0  0  0  0  0  0
   19.8574   -0.1230    0.0000 C   0  0  0  0  0  0  0  0  0  0  0  0
    6.8671    0.3770    0.0000 C   0  0  0  0  0  0  0  0  0  0  0  0
   18.9914    0.3770    0.0000 C   0  0  0  0  0  0  0  0  0  0  0  0
    7.7331   -0.1230    0.0000 C   0  0  0  0  0  0  0  0  0  0  0  0
   18.9914    1.3770    0.0000 C   0  0  0  0  0  0  0  0  0  0  0  0
   18.1254   -0.1230    0.0000 C   0  0  0  0  0  0  0  0  0  0  0  0
    7.7331   -1.1230    0.0000 C   0  0  0  0  0  0  0  0  0  0  0  0
    8.5991    0.3770    0.0000 C   0  0  0  0  0  0  0  0  0  0  0  0
   17.2594    0.3770    0.0000 C   0  0  0  0  0  0  0  0  0  0  0  0
    9.4651   -0.1230    0.0000 C   0  0  0  0  0  0  0  0  0  0  0  0
   16.3933   -0.1230    0.0000 C   0  0  0  0  0  0  0  0  0  0  0  0
   10.3312    0.3770    0.0000 C   0  0  0  0  0  0  0  0  0  0  0  0
   15.5273    0.3770    0.0000 C   0  0  0  0  0  0  0  0  0  0  0  0
   11.1972   -0.1230    0.0000 C   0  0  0  0  0  0  0  0  0  0  0  0
   15.5273    1.3770    0.0000 C   0  0  0  0  0  0  0  0  0  0  0  0
   14.6613   -0.1230    0.0000 C   0  0  0  0  0  0  0  0  0  0  0  0
   12.0632    0.3770    0.0000 C   0  0  0  0  0  0  0  0  0  0  0  0
   11.1972   -1.1230    0.0000 C   0  0  0  0  0  0  0  0  0  0  0  0
   13.7953    0.3770    0.0000 C   0  0  0  0  0  0  0  0  0  0  0  0
   12.9292   -0.1230    0.0000 C   0  0  0  0  0  0  0  0  0  0  0  0
   23.8585   -0.4330    0.0000 H   0  0  0  0  0  0  0  0  0  0  0  0
   23.8585   -0.8130    0.0000 H   0  0  0  0  0  0  0  0  0  0  0  0
    4.6675    2.3519    0.0000 H   0  0  0  0  0  0  0  0  0  0  0  0
    3.8705    2.3519    0.0000 H   0  0  0  0  0  0  0  0  0  0  0  0
   22.0570   -2.0980    0.0000 H   0  0  0  0  0  0  0  0  0  0  0  0
   22.8540   -2.0980    0.0000 H   0  0  0  0  0  0  0  0  0  0  0  0
    3.4030    1.9970    0.0000 H   0  0  0  0  0  0  0  0  0  0  0  0
   22.4925    1.5530    0.0000 H   0  0  0  0  0  0  0  0  0  0  0  0
   21.6455    1.7800    0.0000 H   0  0  0  0  0  0  0  0  0  0  0  0
   21.4186    0.9330    0.0000 H   0  0  0  0  0  0  0  0  0  0  0  0
   23.4925    0.9330    0.0000 H   0  0  0  0  0  0  0  0  0  0  0  0
   23.2655    1.7800    0.0000 H   0  0  0  0  0  0  0  0  0  0  0  0
   22.4186    1.5530    0.0000 H   0  0  0  0  0  0  0  0  0  0  0  0
    2.7924    0.4846    0.0000 H   0  0  0  0  0  0  0  0  0  0  0  0
    3.1909   -0.2056    0.0000 H   0  0  0  0  0  0  0  0  0  0  0  0
    6.1350    0.7570    0.0000 H   0  0  0  0  0  0  0  0  0  0  0  0
    6.7550    1.3770    0.0000 H   0  0  0  0  0  0  0  0  0  0  0  0
    6.1350    1.9970    0.0000 H   0  0  0  0  0  0  0  0  0  0  0  0
    6.1720    1.9330    0.0000 H   0  0  0  0  0  0  0  0  0  0  0  0
    5.9450    2.7800    0.0000 H   0  0  0  0  0  0  0  0  0  0  0  0
    5.0981    2.5530    0.0000 H   0  0  0  0  0  0  0  0  0  0  0  0
   20.7235    0.9970    0.0000 H   0  0  0  0  0  0  0  0  0  0  0  0
   20.4135   -1.0861    0.0000 H   0  0  0  0  0  0  0  0  0  0  0  0
   20.1865   -1.9330    0.0000 H   0  0  0  0  0  0  0  0  0  0  0  0
   21.0335   -2.1599    0.0000 H   0  0  0  0  0  0  0  0  0  0  0  0
   24.7245    0.0670    0.0000 H   0  0  0  0  0  0  0  0  0  0  0  0
   24.1876   -2.2430    0.0000 H   0  0  0  0  0  0  0  0  0  0  0  0
    6.0010   -0.7430    0.0000 H   0  0  0  0  0  0  0  0  0  0  0  0
    3.6490   -1.1230    0.0000 H   0  0  0  0  0  0  0  0  0  0  0  0
    4.2690   -1.7430    0.0000 H   0  0  0  0  0  0  0  0  0  0  0  0
    4.8890   -1.1230    0.0000 H   0  0  0  0  0  0  0  0  0  0  0  0
    2.0000    1.5670    0.0000 H   0  0  0  0  0  0  0  0  0  0  0  0
   19.8574   -0.7430    0.0000 H   0  0  0  0  0  0  0  0  0  0  0  0
    6.8671    0.9970    0.0000 H   0  0  0  0  0  0  0  0  0  0  0  0
   19.6114    1.3770    0.0000 H   0  0  0  0  0  0  0  0  0  0  0  0
   18.9914    1.9970    0.0000 H   0  0  0  0  0  0  0  0  0  0  0  0
   18.3714    1.3770    0.0000 H   0  0  0  0  0  0  0  0  0  0  0  0
   18.1254   -0.7430    0.0000 H   0  0  0  0  0  0  0  0  0  0  0  0
    7.1131   -1.1230    0.0000 H   0  0  0  0  0  0  0  0  0  0  0  0
    7.7331   -1.7430    0.0000 H   0  0  0  0  0  0  0  0  0  0  0  0
    8.3531   -1.1230    0.0000 H   0  0  0  0  0  0  0  0  0  0  0  0
    8.5991    0.9970    0.0000 H   0  0  0  0  0  0  0  0  0  0  0  0
   17.2594    0.9970    0.0000 H   0  0  0  0  0  0  0  0  0  0  0  0
    9.4651   -0.7430    0.0000 H   0  0  0  0  0  0  0  0  0  0  0  0
   16.3933   -0.7430    0.0000 H   0  0  0  0  0  0  0  0  0  0  0  0
   10.3312    0.9970    0.0000 H   0  0  0  0  0  0  0  0  0  0  0  0
   16.1473    1.3770    0.0000 H   0  0  0  0  0  0  0  0  0  0  0  0
   15.5273    1.9970    0.0000 H   0  0  0  0  0  0  0  0  0  0  0  0
   14.9073    1.3770    0.0000 H   0  0  0  0  0  0  0  0  0  0  0  0
   14.6613   -0.7430    0.0000 H   0  0  0  0  0  0  0  0  0  0  0  0
   12.0632    0.9970    0.0000 H   0  0  0  0  0  0  0  0  0  0  0  0
   10.5772   -1.1230    0.0000 H   0  0  0  0  0  0  0  0  0  0  0  0
   11.1972   -1.7430    0.0000 H   0  0  0  0  0  0  0  0  0  0  0  0
   11.8172   -1.1230    0.0000 H   0  0  0  0  0  0  0  0  0  0  0  0
   13.7953    0.9970    0.0000 H   0  0  0  0  0  0  0  0  0  0  0  0
   12.9292   -0.7430    0.0000 H   0  0  0  0  0  0  0  0  0  0  0  0
  5  1  1  1  0  0  0
  1 69  1  0  0  0  0
  7  2  1  6  0  0  0
  2 70  1  0  0  0  0
 12  3  1  1  0  0  0
  3 75  1  0  0  0  0
  4  5  1  0  0  0  0
  4  8  1  0  0  0  0
  4 14  1  0  0  0  0
  4 15  1  0  0  0  0
  5  7  1  0  0  0  0
  5 44  1  0  0  0  0
  6  9  1  0  0  0  0
  6 13  1  0  0  0  0
  6 18  1  0  0  0  0
  6 19  1  0  0  0  0
  7 10  1  0  0  0  0
  7 45  1  0  0  0  0
  8 11  2  0  0  0  0
  8 20  1  0  0  0  0
  9 12  1  0  0  0  0
  9 46  1  0  0  0  0
  9 47  1  0  0  0  0
 10 11  1  0  0  0  0
 10 48  1  0  0  0  0
 10 49  1  0  0  0  0
 11 21  1  0  0  0  0
 12 16  1  0  0  0  0
 12 50  1  0  0  0  0
 13 17  2  0  0  0  0
 13 22  1  0  0  0  0
 14 54  1  0  0  0  0
 14 55  1  0  0  0  0
 14 56  1  0  0  0  0
 15 51  1  0  0  0  0
 15 52  1  0  0  0  0
 15 53  1  0  0  0  0
 16 17  1  0  0  0  0
 16 57  1  0  0  0  0
 16 58  1  0  0  0  0
 17 23  1  0  0  0  0
 18 62  1  0  0  0  0
 18 63  1  0  0  0  0
 18 64  1  0  0  0  0
 19 59  1  0  0  0  0
 19 60  1  0  0  0  0
 19 61  1  0  0  0  0
 20 24  2  0  0  0  0
 20 65  1  0  0  0  0
 21 66  1  0  0  0  0
 21 67  1  0  0  0  0
 21 68  1  0  0  0  0
 22 25  2  0  0  0  0
 22 71  1  0  0  0  0
 23 72  1  0  0  0  0
 23 73  1  0  0  0  0
 23 74  1  0  0  0  0
 24 26  1  0  0  0  0
 24 76  1  0  0  0  0
 25 27  1  0  0  0  0
 25 77  1  0  0  0  0
 26 28  1  0  0  0  0
 26 29  2  0  0  0  0
 27 30  1  0  0  0  0
 27 31  2  0  0  0  0
 28 78  1  0  0  0  0
 28 79  1  0  0  0  0
 28 80  1  0  0  0  0
 29 32  1  0  0  0  0
 29 81  1  0  0  0  0
 30 82  1  0  0  0  0
 30 83  1  0  0  0  0
 30 84  1  0  0  0  0
 31 33  1  0  0  0  0
 31 85  1  0  0  0  0
 32 34  2  0  0  0  0
 32 86  1  0  0  0  0
 33 35  2  0  0  0  0
 33 87  1  0  0  0  0
 34 36  1  0  0  0  0
 34 88  1  0  0  0  0
 35 37  1  0  0  0  0
 35 89  1  0  0  0  0
 36 38  1  0  0  0  0
 36 39  2  0  0  0  0
 37 40  2  0  0  0  0
 37 41  1  0  0  0  0
 38 90  1  0  0  0  0
 38 91  1  0  0  0  0
 38 92  1  0  0  0  0
 39 42  1  0  0  0  0
 39 93  1  0  0  0  0
 40 43  1  0  0  0  0
 40 94  1  0  0  0  0
 41 95  1  0  0  0  0
 41 96  1  0  0  0  0
 41 97  1  0  0  0  0
 42 43  2  0  0  0  0
 42 98  1  0  0  0  0
 43 99  1  0  0  0  0
M  END
> <PUBCHEM_COMPOUND_CID>
16061255

> <PUBCHEM_COMPOUND_CANONICALIZED>
1

> <PUBCHEM_CACTVS_COMPLEXITY>
1330

> <PUBCHEM_CACTVS_HBOND_ACCEPTOR>
3

> <PUBCHEM_CACTVS_HBOND_DONOR>
3

> <PUBCHEM_CACTVS_ROTATABLE_BOND>
10

> <PUBCHEM_CACTVS_SUBSKEYS>
AAADcfB8MAAAAAAAAAAAAAAAAAAAAAAAAAAgQAAAAAAAAAAAAAAAGgAACAAADhSggAICAAAAAgCAAiBCAAAAAAAgAAAICAAAAAgJEAIAAQAAQAAEwAAJgAOAgMAPAAAAAAAAAAAAAAAAAAAAAAAAAAAAAA==

> <PUBCHEM_IUPAC_OPENEYE_NAME>
(1R,2R)-4-[(1E,3E,5E,7E,9E,11E,13E,15E,17E)-18-[(4R)-4-hydroxy-2,6,6-trimethyl-cyclohexen-1-yl]-3,7,12,16-tetramethyl-octadeca-1,3,5,7,9,11,13,15,17-nonaenyl]-3,3,5-trimethyl-cyclohex-4-ene-1,2-diol

> <PUBCHEM_IUPAC_CAS_NAME>
(1R,2R)-4-[(1E,3E,5E,7E,9E,11E,13E,15E,17E)-18-[(4R)-4-hydroxy-2,6,6-trimethyl-1-cyclohexenyl]-3,7,12,16-tetramethyloctadeca-1,3,5,7,9,11,13,15,17-nonaenyl]-3,3,5-trimethylcyclohex-4-ene-1,2-diol

> <PUBCHEM_IUPAC_NAME>
(1R,2R)-4-[(1E,3E,5E,7E,9E,11E,13E,15E,17E)-18-[(4R)-4-hydroxy-2,6,6-trimethylcyclohexen-1-yl]-3,7,12,16-tetramethyloctadeca-1,3,5,7,9,11,13,15,17-nonaenyl]-3,3,5-trimethylcyclohex-4-ene-1,2-diol

> <PUBCHEM_IUPAC_SYSTEMATIC_NAME>
(1R,2R)-3,3,5-trimethyl-4-[(1E,3E,5E,7E,9E,11E,13E,15E,17E)-3,7,12,16-tetramethyl-18-[(4R)-2,6,6-trimethyl-4-oxidanyl-cyclohexen-1-yl]octadeca-1,3,5,7,9,11,13,15,17-nonaenyl]cyclohex-4-ene-1,2-diol

> <PUBCHEM_IUPAC_TRADITIONAL_NAME>
(1R,2R)-4-[(1E,3E,5E,7E,9E,11E,13E,15E,17E)-18-[(4R)-4-hydroxy-2,6,6-trimethyl-cyclohexen-1-yl]-3,7,12,16-tetramethyl-octadeca-1,3,5,7,9,11,13,15,17-nonaenyl]-3,3,5-trimethyl-cyclohex-4-ene-1,2-diol

> <PUBCHEM_IUPAC_INCHI>
InChI=1S/C40H56O3/c1-28(17-13-19-30(3)21-23-35-32(5)25-34(41)27-39(35,7)8)15-11-12-16-29(2)18-14-20-31(4)22-24-36-33(6)26-37(42)38(43)40(36,9)10/h11-24,34,37-38,41-43H,25-27H2,1-10H3/b12-11+,17-13+,18-14+,23-21+,24-22+,28-15+,29-16+,30-19+,31-20+/t34-,37-,38+/m1/s1

> <PUBCHEM_IUPAC_INCHIKEY>
PKHJWTKRKQNNJE-RJLXQHJHSA-N

> <PUBCHEM_XLOGP3_AA>
9.9

> <PUBCHEM_EXACT_MASS>
584.422946

> <PUBCHEM_MOLECULAR_FORMULA>
C40H56O3

> <PUBCHEM_MOLECULAR_WEIGHT>
584.87084

> <PUBCHEM_OPENEYE_CAN_SMILES>
CC1=C(C(CC(C1)O)(C)C)C=CC(=CC=CC(=CC=CC=C(C)C=CC=C(C)C=CC2=C(CC(C(C2(C)C)O)O)C)C)C

> <PUBCHEM_OPENEYE_ISO_SMILES>
CC1=C(C(C[C@@H](C1)O)(C)C)/C=C/C(=C/C=C/C(=C/C=C/C=C(\C)/C=C/C=C(\C)/C=C/C2=C(C[C@H]([C@@H](C2(C)C)O)O)C)/C)/C

> <PUBCHEM_CACTVS_TPSA>
60.7

> <PUBCHEM_MONOISOTOPIC_WEIGHT>
584.422946

> <PUBCHEM_TOTAL_CHARGE>
0

> <PUBCHEM_HEAVY_ATOM_COUNT>
43

> <PUBCHEM_ATOM_DEF_STEREO_COUNT>
3

> <PUBCHEM_ATOM_UDEF_STEREO_COUNT>
0

> <PUBCHEM_BOND_DEF_STEREO_COUNT>
9

> <PUBCHEM_BOND_UDEF_STEREO_COUNT>
0

> <PUBCHEM_ISOTOPIC_ATOM_COUNT>
0

> <PUBCHEM_COMPONENT_COUNT>
1

> <PUBCHEM_CACTVS_TAUTO_COUNT>
1

> <PUBCHEM_COORDINATE_TYPE>
1
5
255

> <PUBCHEM_BONDANNOTATIONS>
5  1  5
7  2  6
12  3  5

$$$$

