11045
  -OEChem-06261205163D

 22 22  0     0  0  0  0  0  0999 V2000
    2.4350   -0.0934   -0.0357 S   0  0  0  0  0  0  0  0  0  0  0  0
    2.9196    1.1645    0.8820 O   0  0  0  0  0  0  0  0  0  0  0  0
    2.8245   -1.3100    0.6537 O   0  0  0  0  0  0  0  0  0  0  0  0
    2.8414    0.1609   -1.4050 O   0  0  0  0  0  0  0  0  0  0  0  0
    0.8435   -3.0355   -1.1206 O   0  5  0  0  0  0  0  0  0  0  0  0
    1.0482    2.9408    1.0789 O   0  5  0  0  0  0  0  0  0  0  0  0
    0.8615   -3.0372    1.0746 O   0  0  0  0  0  0  0  0  0  0  0  0
    1.0285    2.9439   -1.1162 O   0  0  0  0  0  0  0  0  0  0  0  0
   -4.1730   -0.9862    0.0215 O   0  5  0  0  0  0  0  0  0  0  0  0
   -4.1050    1.2080    0.0251 O   0  0  0  0  0  0  0  0  0  0  0  0
    0.5806   -2.4959   -0.0203 N   0  3  0  0  0  0  0  0  0  0  0  0
    0.7335    2.4197   -0.0167 N   0  3  0  0  0  0  0  0  0  0  0  0
   -3.5312    0.0921    0.0181 N   0  3  0  0  0  0  0  0  0  0  0  0
    0.6763   -0.0386   -0.0194 C   0  0  0  0  0  0  0  0  0  0  0  0
   -0.0583   -1.2244   -0.0141 C   0  0  0  0  0  0  0  0  0  0  0  0
    0.0168    1.1904   -0.0120 C   0  0  0  0  0  0  0  0  0  0  0  0
   -1.4525   -1.1810   -0.0012 C   0  0  0  0  0  0  0  0  0  0  0  0
   -1.3773    1.2337    0.0008 C   0  0  0  0  0  0  0  0  0  0  0  0
   -2.1120    0.0480    0.0063 C   0  0  0  0  0  0  0  0  0  0  0  0
   -2.0070   -2.1175    0.0028 H   0  0  0  0  0  0  0  0  0  0  0  0
   -1.8726    2.2028    0.0063 H   0  0  0  0  0  0  0  0  0  0  0  0
    3.8944    1.3060    0.9228 H   0  0  0  0  0  0  0  0  0  0  0  0
  1  2  1  0  0  0  0
  1  3  2  0  0  0  0
  1  4  2  0  0  0  0
  1 14  1  0  0  0  0
  2 22  1  0  0  0  0
  5 11  1  0  0  0  0
  6 12  1  0  0  0  0
  7 11  2  0  0  0  0
  8 12  2  0  0  0  0
  9 13  1  0  0  0  0
 10 13  2  0  0  0  0
 11 15  1  0  0  0  0
 12 16  1  0  0  0  0
 13 19  1  0  0  0  0
 14 15  2  0  0  0  0
 14 16  1  0  0  0  0
 15 17  1  0  0  0  0
 16 18  2  0  0  0  0
 17 19  2  0  0  0  0
 17 20  1  0  0  0  0
 18 19  1  0  0  0  0
 18 21  1  0  0  0  0
M  CHG  6   5  -1   6  -1   9  -1  11   1  12   1  13   1
M  END
> <PUBCHEM_COMPOUND_CID>
11045

> <PUBCHEM_CONFORMER_RMSD>
0.6

> <PUBCHEM_CONFORMER_DIVERSEORDER>
1

> <PUBCHEM_MMFF94_PARTIAL_CHARGES>
22
1 1.49
10 -0.52
11 0.91
12 0.91
13 0.91
14 -0.01
15 0.13
16 0.13
17 -0.15
18 -0.15
19 0.13
2 -0.68
20 0.15
21 0.15
22 0.5
3 -0.65
4 -0.65
5 -0.52
6 -0.52
7 -0.52
8 -0.52
9 -0.52

> <PUBCHEM_EFFECTIVE_ROTOR_COUNT>
4

> <PUBCHEM_PHARMACOPHORE_FEATURES>
14
1 10 acceptor
1 2 acceptor
1 3 acceptor
1 4 acceptor
1 5 acceptor
1 5 anion
1 6 acceptor
1 6 anion
1 7 acceptor
1 8 acceptor
1 9 acceptor
1 9 anion
4 1 2 3 4 anion
6 14 15 16 17 18 19 rings

> <PUBCHEM_HEAVY_ATOM_COUNT>
19

> <PUBCHEM_ATOM_DEF_STEREO_COUNT>
0

> <PUBCHEM_ATOM_UDEF_STEREO_COUNT>
0

> <PUBCHEM_BOND_DEF_STEREO_COUNT>
0

> <PUBCHEM_BOND_UDEF_STEREO_COUNT>
0

> <PUBCHEM_ISOTOPIC_ATOM_COUNT>
0

> <PUBCHEM_COMPONENT_COUNT>
1

> <PUBCHEM_CACTVS_TAUTO_COUNT>
1

> <PUBCHEM_CONFORMER_ID>
00002B2500000001

> <PUBCHEM_MMFF94_ENERGY>
65.4216

> <PUBCHEM_FEATURE_SELFOVERLAP>
71.367

> <PUBCHEM_SHAPE_FINGERPRINT>
10967382 1 18410857637729386915
10980938 120 18410572928974741623
11680986 33 18195243313223072112
116883 192 17542790154200215103
13140716 1 18266457607854951377
13380536 305 18339635633847638765
14178342 30 18409175432558135169
16945 1 18410852166241686629
18186145 218 18259977150587223121
193761 8 17762338015819762738
20511035 2 18056189168400677239
20645476 183 17844794907055919222
20645477 70 18338521842329323031
20905425 154 18048876591642855822
21501502 16 17905886238068511457
21524375 3 18193276291374320359
2255824 54 18340763741642153565
2334 1 17978227158630766429
23402539 116 18261399944719906406
23419403 2 15464183157138129676
23463225 33 18342178924565065962
23558518 356 17907023876142514687
23559900 14 18192135020608402684
2748010 2 18124029023276537223
3060560 45 18335425651233074863
589210 1 17762620590445127802
7364860 26 18335139817096491507
81228 2 17329709237512393443

> <PUBCHEM_SHAPE_MULTIPOLES>
327.09
5.01
3.36
0.92
4.84
0.24
-0.09
-0.28
0.1
-1.61
0.06
-0.62
-0.02
0

> <PUBCHEM_SHAPE_SELFOVERLAP>
687.766

> <PUBCHEM_SHAPE_VOLUME>
185.5

> <PUBCHEM_COORDINATE_TYPE>
2
5
10

$$$$

