441379
  -OEChem-07051212543D

 26 27  0     0  0  0  0  0  0999 V2000
    0.8404   -1.9947    0.1428 O   0  0  0  0  0  0  0  0  0  0  0  0
    3.5621   -1.5488    0.1694 O   0  0  0  0  0  0  0  0  0  0  0  0
   -1.1378    0.4641    2.2192 N   0  0  0  0  0  0  0  0  0  0  0  0
   -0.9885    0.1462   -0.2031 C   0  0  0  0  0  0  0  0  0  0  0  0
    0.4474    0.3485   -0.1841 C   0  0  0  0  0  0  0  0  0  0  0  0
   -1.7438    0.2048    0.9683 C   0  0  0  0  0  0  0  0  0  0  0  0
    1.3194   -0.7259   -0.0124 C   0  0  0  0  0  0  0  0  0  0  0  0
    0.9512    1.6392   -0.3416 C   0  0  0  0  0  0  0  0  0  0  0  0
   -1.6133   -0.1103   -1.4236 C   0  0  0  0  0  0  0  0  0  0  0  0
    2.6974   -0.5093    0.0023 C   0  0  0  0  0  0  0  0  0  0  0  0
   -3.1238    0.0069    0.9189 C   0  0  0  0  0  0  0  0  0  0  0  0
    2.3289    1.8557   -0.3269 C   0  0  0  0  0  0  0  0  0  0  0  0
   -2.9933   -0.3083   -1.4727 C   0  0  0  0  0  0  0  0  0  0  0  0
    3.2021    0.7815   -0.1550 C   0  0  0  0  0  0  0  0  0  0  0  0
   -3.7485   -0.2497   -0.3015 C   0  0  0  0  0  0  0  0  0  0  0  0
    0.2855    2.4886   -0.4764 H   0  0  0  0  0  0  0  0  0  0  0  0
   -1.0411   -0.1602   -2.3471 H   0  0  0  0  0  0  0  0  0  0  0  0
   -3.7248    0.0499    1.8237 H   0  0  0  0  0  0  0  0  0  0  0  0
    2.7221    2.8608   -0.4493 H   0  0  0  0  0  0  0  0  0  0  0  0
   -3.4798   -0.5082   -2.4228 H   0  0  0  0  0  0  0  0  0  0  0  0
    4.2743    0.9571   -0.1446 H   0  0  0  0  0  0  0  0  0  0  0  0
   -4.8228   -0.4039   -0.3400 H   0  0  0  0  0  0  0  0  0  0  0  0
   -0.1408    0.6101    2.2950 H   0  0  0  0  0  0  0  0  0  0  0  0
   -1.7089    0.4997    3.0534 H   0  0  0  0  0  0  0  0  0  0  0  0
   -0.1291   -2.0109    0.1199 H   0  0  0  0  0  0  0  0  0  0  0  0
    3.0428   -2.3662    0.2627 H   0  0  0  0  0  0  0  0  0  0  0  0
  1  7  1  0  0  0  0
  1 25  1  0  0  0  0
  2 10  1  0  0  0  0
  2 26  1  0  0  0  0
  3  6  1  0  0  0  0
  3 23  1  0  0  0  0
  3 24  1  0  0  0  0
  4  5  1  0  0  0  0
  4  6  1  0  0  0  0
  4  9  2  0  0  0  0
  5  7  2  0  0  0  0
  5  8  1  0  0  0  0
  6 11  2  0  0  0  0
  7 10  1  0  0  0  0
  8 12  2  0  0  0  0
  8 16  1  0  0  0  0
  9 13  1  0  0  0  0
  9 17  1  0  0  0  0
 10 14  2  0  0  0  0
 11 15  1  0  0  0  0
 11 18  1  0  0  0  0
 12 14  1  0  0  0  0
 12 19  1  0  0  0  0
 13 15  2  0  0  0  0
 13 20  1  0  0  0  0
 14 21  1  0  0  0  0
 15 22  1  0  0  0  0
M  END
> <PUBCHEM_COMPOUND_CID>
441379

> <PUBCHEM_CONFORMER_RMSD>
0.4

> <PUBCHEM_CONFORMER_DIVERSEORDER>
1
2

> <PUBCHEM_MMFF94_PARTIAL_CHARGES>
24
1 -0.53
10 0.08
11 -0.15
12 -0.15
13 -0.15
14 -0.15
15 -0.15
16 0.15
17 0.15
18 0.15
19 0.15
2 -0.53
20 0.15
21 0.15
22 0.15
23 0.4
24 0.4
25 0.45
26 0.45
3 -0.9
6 0.1
7 0.08
8 -0.15
9 -0.15

> <PUBCHEM_EFFECTIVE_ROTOR_COUNT>
1

> <PUBCHEM_PHARMACOPHORE_FEATURES>
6
1 1 donor
1 2 donor
1 3 cation
1 3 donor
6 4 6 9 11 13 15 rings
6 5 7 8 10 12 14 rings

> <PUBCHEM_HEAVY_ATOM_COUNT>
15

> <PUBCHEM_ATOM_DEF_STEREO_COUNT>
0

> <PUBCHEM_ATOM_UDEF_STEREO_COUNT>
0

> <PUBCHEM_BOND_DEF_STEREO_COUNT>
0

> <PUBCHEM_BOND_UDEF_STEREO_COUNT>
0

> <PUBCHEM_ISOTOPIC_ATOM_COUNT>
0

> <PUBCHEM_COMPONENT_COUNT>
1

> <PUBCHEM_CACTVS_TAUTO_COUNT>
27

> <PUBCHEM_CONFORMER_ID>
0006BC2300000001

> <PUBCHEM_MMFF94_ENERGY>
58.8455

> <PUBCHEM_FEATURE_SELFOVERLAP>
30.451

> <PUBCHEM_SHAPE_FINGERPRINT>
10219947 1 18413107260205617252
11471102 20 18342462542656526556
11471102 22 18201431467780554488
11578080 2 17534663470418015369
12236239 1 17894909616004440989
124424 183 17346608477780760784
13296908 3 17704353264347476723
13538477 17 17603587400502506469
13581323 91 16660363692403332997
14251717 144 18411986844750627998
15219456 202 17775287140401219253
15375462 189 17749671796898179555
15775835 57 18113611253313705825
16945 1 18413111653772518764
1813 80 18117260666304486310
18175812 5 17561362850907672623
18186145 218 18335700507591231796
19049666 15 17345766307392038901
19422 9 18040434373829373143
200 152 18334866017252634839
20201158 50 17846779632633238067
20279233 1 17489872613427962976
204376 136 18125440800781754420
20645477 70 18341905107515232839
20715346 28 17560797684719536332
21639500 275 18339648815192129460
22112679 90 17531241768572403641
228727 97 17604702262101032593
23236772 104 17894625933530474387
232386 152 16950856825057155471
23402539 116 15213309659392607589
23557571 272 15984240921193798652
23559900 14 16343708755210569106
23728640 28 15459601724187963195
2748010 2 18127117590120260230
474 4 17825962416140464176
69090 78 17846502474668534587
77492 1 17967248680776892293

> <PUBCHEM_SHAPE_MULTIPOLES>
291.97
5.94
1.48
1.31
0.48
0.09
0.35
0.56
-0.49
-1.61
-0.05
1.26
-0.11
-0.34

> <PUBCHEM_SHAPE_SELFOVERLAP>
640.506

> <PUBCHEM_SHAPE_VOLUME>
158

> <PUBCHEM_COORDINATE_TYPE>
2
5
10

$$$$

