440466
  -OEChem-07051212493D

 77 80  0     1  0  0  0  0  0999 V2000
    6.9649   -0.9059   -1.2166 O   0  0  0  0  0  0  0  0  0  0  0  0
    6.5744    1.9386    0.6666 O   0  0  0  0  0  0  0  0  0  0  0  0
    5.5533    2.3875   -1.3213 O   0  0  0  0  0  0  0  0  0  0  0  0
   -1.4762   -0.5425    0.8958 C   0  0  1  0  0  0  0  0  0  0  0  0
   -0.7008    0.7490    0.5622 C   0  0  2  0  0  0  0  0  0  0  0  0
    1.2757   -0.6013   -0.3290 C   0  0  2  0  0  0  0  0  0  0  0  0
    2.8175   -0.9178   -0.1635 C   0  0  2  0  0  0  0  0  0  0  0  0
   -2.9273   -0.0100    0.8025 C   0  0  2  0  0  0  0  0  0  0  0  0
    0.7939    0.5486    0.5658 C   0  0  0  0  0  0  0  0  0  0  0  0
   -1.1264   -1.5891   -0.1747 C   0  0  0  0  0  0  0  0  0  0  0  0
    3.5842    0.4431   -0.1306 C   0  0  1  0  0  0  0  0  0  0  0  0
    0.3838   -1.8724   -0.2097 C   0  0  0  0  0  0  0  0  0  0  0  0
   -1.3812    1.8035    1.4408 C   0  0  0  0  0  0  0  0  0  0  0  0
   -2.8596    1.3784    1.4754 C   0  0  0  0  0  0  0  0  0  0  0  0
    3.3143   -1.7362   -1.3834 C   0  0  0  0  0  0  0  0  0  0  0  0
   -4.0139   -0.9003    1.3889 C   0  0  1  0  0  0  0  0  0  0  0  0
    3.1373    1.2864    1.0819 C   0  0  0  0  0  0  0  0  0  0  0  0
    5.1222    0.2919   -0.1837 C   0  0  1  0  0  0  0  0  0  0  0  0
   -1.1625   -1.0943    2.3087 C   0  0  0  0  0  0  0  0  0  0  0  0
    1.6460    1.3603    1.2148 C   0  0  0  0  0  0  0  0  0  0  0  0
    3.0855   -1.7334    1.1305 C   0  0  0  0  0  0  0  0  0  0  0  0
    4.8264   -1.9265   -1.3977 C   0  0  0  0  0  0  0  0  0  0  0  0
    5.5760   -0.5996   -1.3491 C   0  0  2  0  0  0  0  0  0  0  0  0
   -5.4275   -0.3035    1.2260 C   0  0  0  0  0  0  0  0  0  0  0  0
   -3.9713   -2.2846    0.7296 C   0  0  0  0  0  0  0  0  0  0  0  0
    5.7508    1.6468   -0.3695 C   0  0  0  0  0  0  0  0  0  0  0  0
   -5.8635    0.0114   -0.2112 C   0  0  0  0  0  0  0  0  0  0  0  0
   -7.2440    0.6695   -0.3005 C   0  0  0  0  0  0  0  0  0  0  0  0
   -7.7113    0.9201   -1.7477 C   0  0  0  0  0  0  0  0  0  0  0  0
   -7.7498   -0.3610   -2.5826 C   0  0  0  0  0  0  0  0  0  0  0  0
   -6.7910    1.9432   -2.4189 C   0  0  0  0  0  0  0  0  0  0  0  0
   -0.9385    1.0363   -0.4765 H   0  0  0  0  0  0  0  0  0  0  0  0
    1.1305   -0.2294   -1.3555 H   0  0  0  0  0  0  0  0  0  0  0  0
   -3.1351    0.1547   -0.2635 H   0  0  0  0  0  0  0  0  0  0  0  0
   -1.4422   -1.2409   -1.1665 H   0  0  0  0  0  0  0  0  0  0  0  0
   -1.6088   -2.5521   -0.0130 H   0  0  0  0  0  0  0  0  0  0  0  0
    3.2844    1.0003   -1.0333 H   0  0  0  0  0  0  0  0  0  0  0  0
    0.6361   -2.4414    0.6901 H   0  0  0  0  0  0  0  0  0  0  0  0
    0.5857   -2.5388   -1.0567 H   0  0  0  0  0  0  0  0  0  0  0  0
   -1.2649    2.8122    1.0306 H   0  0  0  0  0  0  0  0  0  0  0  0
   -0.9759    1.8119    2.4590 H   0  0  0  0  0  0  0  0  0  0  0  0
   -3.2094    1.3552    2.5138 H   0  0  0  0  0  0  0  0  0  0  0  0
   -3.4842    2.0983    0.9350 H   0  0  0  0  0  0  0  0  0  0  0  0
    3.0185   -1.2305   -2.3120 H   0  0  0  0  0  0  0  0  0  0  0  0
    2.8403   -2.7244   -1.4049 H   0  0  0  0  0  0  0  0  0  0  0  0
   -3.8571   -1.0358    2.4664 H   0  0  0  0  0  0  0  0  0  0  0  0
    3.5128    2.3105    0.9684 H   0  0  0  0  0  0  0  0  0  0  0  0
    3.5622    0.8980    2.0147 H   0  0  0  0  0  0  0  0  0  0  0  0
    5.4922   -0.1274    0.7605 H   0  0  0  0  0  0  0  0  0  0  0  0
   -0.0874   -1.2093    2.4780 H   0  0  0  0  0  0  0  0  0  0  0  0
   -1.5317   -0.4367    3.1025 H   0  0  0  0  0  0  0  0  0  0  0  0
   -1.6124   -2.0783    2.4693 H   0  0  0  0  0  0  0  0  0  0  0  0
    1.2695    2.1696    1.8332 H   0  0  0  0  0  0  0  0  0  0  0  0
    4.1469   -1.7642    1.3924 H   0  0  0  0  0  0  0  0  0  0  0  0
    2.5537   -1.3228    1.9946 H   0  0  0  0  0  0  0  0  0  0  0  0
    2.7682   -2.7759    1.0178 H   0  0  0  0  0  0  0  0  0  0  0  0
    5.1383   -2.5709   -0.5664 H   0  0  0  0  0  0  0  0  0  0  0  0
    5.1189   -2.4730   -2.3033 H   0  0  0  0  0  0  0  0  0  0  0  0
    5.4504   -0.0809   -2.3071 H   0  0  0  0  0  0  0  0  0  0  0  0
   -6.1585   -0.9897    1.6735 H   0  0  0  0  0  0  0  0  0  0  0  0
   -5.4924    0.6181    1.8184 H   0  0  0  0  0  0  0  0  0  0  0  0
   -3.8430   -2.2300   -0.3559 H   0  0  0  0  0  0  0  0  0  0  0  0
   -4.9115   -2.8204    0.9098 H   0  0  0  0  0  0  0  0  0  0  0  0
   -3.2020   -2.9211    1.1706 H   0  0  0  0  0  0  0  0  0  0  0  0
   -5.1332    0.6820   -0.6700 H   0  0  0  0  0  0  0  0  0  0  0  0
   -5.8557   -0.9213   -0.7828 H   0  0  0  0  0  0  0  0  0  0  0  0
    7.0953   -1.3494   -0.3610 H   0  0  0  0  0  0  0  0  0  0  0  0
   -7.2357    1.6166    0.2531 H   0  0  0  0  0  0  0  0  0  0  0  0
   -7.9783    0.0238    0.1977 H   0  0  0  0  0  0  0  0  0  0  0  0
    6.9945    2.8190    0.5638 H   0  0  0  0  0  0  0  0  0  0  0  0
   -8.7242    1.3393   -1.7047 H   0  0  0  0  0  0  0  0  0  0  0  0
   -6.7499   -0.7497   -2.7996 H   0  0  0  0  0  0  0  0  0  0  0  0
   -8.2367   -0.1686   -3.5451 H   0  0  0  0  0  0  0  0  0  0  0  0
   -8.3222   -1.1421   -2.0716 H   0  0  0  0  0  0  0  0  0  0  0  0
   -5.7889    1.5454   -2.6067 H   0  0  0  0  0  0  0  0  0  0  0  0
   -7.2059    2.2428   -3.3879 H   0  0  0  0  0  0  0  0  0  0  0  0
   -6.6954    2.8473   -1.8086 H   0  0  0  0  0  0  0  0  0  0  0  0
  1 23  1  0  0  0  0
  1 67  1  0  0  0  0
  2 26  1  0  0  0  0
  2 70  1  0  0  0  0
  3 26  2  0  0  0  0
  4  5  1  0  0  0  0
  4  8  1  0  0  0  0
  4 10  1  0  0  0  0
  4 19  1  0  0  0  0
  5  9  1  0  0  0  0
  5 13  1  0  0  0  0
  5 32  1  0  0  0  0
  6  7  1  0  0  0  0
  6  9  1  0  0  0  0
  6 12  1  0  0  0  0
  6 33  1  0  0  0  0
  7 11  1  0  0  0  0
  7 15  1  0  0  0  0
  7 21  1  0  0  0  0
  8 14  1  0  0  0  0
  8 16  1  0  0  0  0
  8 34  1  0  0  0  0
  9 20  2  0  0  0  0
 10 12  1  0  0  0  0
 10 35  1  0  0  0  0
 10 36  1  0  0  0  0
 11 17  1  0  0  0  0
 11 18  1  0  0  0  0
 11 37  1  0  0  0  0
 12 38  1  0  0  0  0
 12 39  1  0  0  0  0
 13 14  1  0  0  0  0
 13 40  1  0  0  0  0
 13 41  1  0  0  0  0
 14 42  1  0  0  0  0
 14 43  1  0  0  0  0
 15 22  1  0  0  0  0
 15 44  1  0  0  0  0
 15 45  1  0  0  0  0
 16 24  1  0  0  0  0
 16 25  1  0  0  0  0
 16 46  1  0  0  0  0
 17 20  1  0  0  0  0
 17 47  1  0  0  0  0
 17 48  1  0  0  0  0
 18 23  1  0  0  0  0
 18 26  1  0  0  0  0
 18 49  1  0  0  0  0
 19 50  1  0  0  0  0
 19 51  1  0  0  0  0
 19 52  1  0  0  0  0
 20 53  1  0  0  0  0
 21 54  1  0  0  0  0
 21 55  1  0  0  0  0
 21 56  1  0  0  0  0
 22 23  1  0  0  0  0
 22 57  1  0  0  0  0
 22 58  1  0  0  0  0
 23 59  1  0  0  0  0
 24 27  1  0  0  0  0
 24 60  1  0  0  0  0
 24 61  1  0  0  0  0
 25 62  1  0  0  0  0
 25 63  1  0  0  0  0
 25 64  1  0  0  0  0
 27 28  1  0  0  0  0
 27 65  1  0  0  0  0
 27 66  1  0  0  0  0
 28 29  1  0  0  0  0
 28 68  1  0  0  0  0
 28 69  1  0  0  0  0
 29 30  1  0  0  0  0
 29 31  1  0  0  0  0
 29 71  1  0  0  0  0
 30 72  1  0  0  0  0
 30 73  1  0  0  0  0
 30 74  1  0  0  0  0
 31 75  1  0  0  0  0
 31 76  1  0  0  0  0
 31 77  1  0  0  0  0
M  END
> <PUBCHEM_COMPOUND_CID>
440466

> <PUBCHEM_CONFORMER_RMSD>
1

> <PUBCHEM_CONFORMER_DIVERSEORDER>
1
7
6
3
5
4
2

> <PUBCHEM_MMFF94_PARTIAL_CHARGES>
14
1 -0.68
17 0.14
18 0.06
2 -0.65
20 -0.29
23 0.28
26 0.66
3 -0.57
5 0.14
53 0.15
6 0.14
67 0.4
70 0.5
9 -0.28

> <PUBCHEM_EFFECTIVE_ROTOR_COUNT>
8

> <PUBCHEM_PHARMACOPHORE_FEATURES>
12
1 1 acceptor
1 1 donor
1 2 acceptor
1 25 hydrophobe
1 3 acceptor
3 2 3 26 anion
3 29 30 31 hydrophobe
5 16 24 27 28 29 hydrophobe
5 4 5 8 13 14 rings
6 4 5 6 9 10 12 rings
6 6 7 9 11 17 20 rings
6 7 11 15 18 22 23 rings

> <PUBCHEM_HEAVY_ATOM_COUNT>
31

> <PUBCHEM_ATOM_DEF_STEREO_COUNT>
9

> <PUBCHEM_ATOM_UDEF_STEREO_COUNT>
0

> <PUBCHEM_BOND_DEF_STEREO_COUNT>
0

> <PUBCHEM_BOND_UDEF_STEREO_COUNT>
0

> <PUBCHEM_ISOTOPIC_ATOM_COUNT>
0

> <PUBCHEM_COMPONENT_COUNT>
1

> <PUBCHEM_CACTVS_TAUTO_COUNT>
1

> <PUBCHEM_CONFORMER_ID>
0006B89200000001

> <PUBCHEM_MMFF94_ENERGY>
90.8777

> <PUBCHEM_FEATURE_SELFOVERLAP>
61.043

> <PUBCHEM_SHAPE_FINGERPRINT>
10554248 39 18408884074476730038
10693767 8 17677054649957345959
10835480 77 18411133598042325904
11135926 11 18261384585970187747
11181472 205 16702302403835973708
11456790 92 12823301195156543852
11475781 23 17775289386948540581
11646440 116 10879991358944933855
12011746 2 18408597067597803746
12236239 1 16515675663069674203
12838862 33 18113905914942614120
13782708 43 5689594979086621365
13811026 1 18261110755438937666
14028597 1 13542474176179395285
14068700 675 16443063924014509177
14294032 229 15984550043006902733
14767858 380 17967254200258228085
15082195 135 18408601431427813072
15131766 46 17414422898040325004
15183329 4 18041286530481112695
15196674 1 18187913007045799050
15238133 3 15697996323218664069
15352257 5 5906052551829085037
15475509 35 6555142601525696012
16728433 281 17702662318655008845
16994733 274 16559035991392263733
20028762 73 16732985362008904727
20511986 3 18060704983126463363
21150785 3 17022903436874380237
21424621 283 16774080691776625369
21521239 73 17749113292209464479
21781055 127 15339119078957804692
21859007 373 17775573039278985693
22122407 14 14835824210906243205
221357 26 18041272249140061608
2215653 11 18260545632453234107
23081809 10 17385714829273344203
23522609 53 16806981343169429800
23559900 14 18188489064812549561
23569914 152 17545049663776155031
23569943 247 13987151931801753052
23576562 1 18267871588815158637
350125 39 18114167619271972208
3633792 109 18335980952050305753
4015057 19 17967534533126988713
4073 2 18339909421023210010
4340502 62 17489581234773912562
474113 269 18199758119143726946
5104073 3 18188755245922272850

> <PUBCHEM_SHAPE_MULTIPOLES>
620.36
20.33
2.26
2.06
16.95
0.08
0.62
5.25
14.89
-1.76
0.12
3.08
0.13
1.88

> <PUBCHEM_SHAPE_SELFOVERLAP>
1292.129

> <PUBCHEM_SHAPE_VOLUME>
351.3

> <PUBCHEM_COORDINATE_TYPE>
2
5
10

$$$$

