5459844
  -OEChem-07051212463D

 18 17  0     0  0  0  0  0  0999 V2000
   -0.2198    1.2146    1.3085 O   0  0  0  0  0  0  0  0  0  0  0  0
   -2.0449   -0.9469    0.8990 O   0  0  0  0  0  0  0  0  0  0  0  0
    3.5076   -0.2514   -0.5633 O   0  0  0  0  0  0  0  0  0  0  0  0
    1.7931   -1.3391    0.4563 O   0  0  0  0  0  0  0  0  0  0  0  0
   -1.0323    0.3970   -0.8054 C   0  0  0  0  0  0  0  0  0  0  0  0
    0.0351    0.8792    0.1521 C   0  0  0  0  0  0  0  0  0  0  0  0
    1.4531    0.9141   -0.3737 C   0  0  0  0  0  0  0  0  0  0  0  0
   -2.1932   -0.3049   -0.1404 C   0  0  0  0  0  0  0  0  0  0  0  0
   -3.5309   -0.2172   -0.8268 C   0  0  0  0  0  0  0  0  0  0  0  0
    2.2324   -0.3455   -0.1063 C   0  0  0  0  0  0  0  0  0  0  0  0
   -1.3975    1.2729   -1.3510 H   0  0  0  0  0  0  0  0  0  0  0  0
   -0.5961   -0.3091   -1.5193 H   0  0  0  0  0  0  0  0  0  0  0  0
    1.4270    1.1024   -1.4519 H   0  0  0  0  0  0  0  0  0  0  0  0
    1.9654    1.7548    0.1068 H   0  0  0  0  0  0  0  0  0  0  0  0
   -3.8442    0.8280   -0.8864 H   0  0  0  0  0  0  0  0  0  0  0  0
   -3.4561   -0.6474   -1.8285 H   0  0  0  0  0  0  0  0  0  0  0  0
   -4.2761   -0.7768   -0.2550 H   0  0  0  0  0  0  0  0  0  0  0  0
    4.0200   -1.0694   -0.3884 H   0  0  0  0  0  0  0  0  0  0  0  0
  1  6  2  0  0  0  0
  2  8  2  0  0  0  0
  3 10  1  0  0  0  0
  3 18  1  0  0  0  0
  4 10  2  0  0  0  0
  5  6  1  0  0  0  0
  5  8  1  0  0  0  0
  5 11  1  0  0  0  0
  5 12  1  0  0  0  0
  6  7  1  0  0  0  0
  7 10  1  0  0  0  0
  7 13  1  0  0  0  0
  7 14  1  0  0  0  0
  8  9  1  0  0  0  0
  9 15  1  0  0  0  0
  9 16  1  0  0  0  0
  9 17  1  0  0  0  0
M  END
> <PUBCHEM_COMPOUND_CID>
5459844

> <PUBCHEM_CONFORMER_RMSD>
0.6

> <PUBCHEM_CONFORMER_DIVERSEORDER>
1
106
90
58
111
7
112
73
87
100
14
51
15
3
49
64
89
99
17
10
13
56
114
19
12
82
22
69
101
23
60
18
70
71
30
36
16
91
68
98
92
27
93
5
83
88
75
32
113
85
50
55
26
38
40
37
52
105
21
102
95
2
11
72
108
109
61
45
24
8
76
74
104
86
107
94
33
65
42
53
31
62
48
25
110
97
47
34
9
81
77
66
67
54
78
20
4
43
63
39
6
44
84
46
59
103
80
79
35
96
41
28
57
29

> <PUBCHEM_MMFF94_PARTIAL_CHARGES>
11
1 -0.57
10 0.66
18 0.5
2 -0.57
3 -0.65
4 -0.57
5 0.12
6 0.45
7 0.12
8 0.45
9 0.06

> <PUBCHEM_EFFECTIVE_ROTOR_COUNT>
4

> <PUBCHEM_PHARMACOPHORE_FEATURES>
7
1 1 acceptor
1 2 acceptor
1 3 acceptor
1 4 acceptor
1 5 anion
1 7 anion
3 3 4 10 anion

> <PUBCHEM_HEAVY_ATOM_COUNT>
10

> <PUBCHEM_ATOM_DEF_STEREO_COUNT>
0

> <PUBCHEM_ATOM_UDEF_STEREO_COUNT>
0

> <PUBCHEM_BOND_DEF_STEREO_COUNT>
0

> <PUBCHEM_BOND_UDEF_STEREO_COUNT>
0

> <PUBCHEM_ISOTOPIC_ATOM_COUNT>
0

> <PUBCHEM_COMPONENT_COUNT>
1

> <PUBCHEM_CACTVS_TAUTO_COUNT>
13

> <PUBCHEM_CONFORMER_ID>
00534F8400000001

> <PUBCHEM_MMFF94_ENERGY>
8.4003

> <PUBCHEM_FEATURE_SELFOVERLAP>
35.86

> <PUBCHEM_SHAPE_FINGERPRINT>
10857977 72 4678816190261316399
11062470 55 18411703192304502669
12897270 3 17847061073329201756
14128692 85 18410570648130712916
14390081 3 11167945761930485807
20201158 50 18343866627584847650
20653091 64 17314515807655861273
20711985 344 18045481265160468652
21028194 46 10952051164716530021
21293036 1 14908177543063938645
23235685 24 12391516386121985821
23402539 116 15051739659758944566
29004967 10 18342176626741796792
449060 23 17968361446974366046

> <PUBCHEM_SHAPE_MULTIPOLES>
182.32
5.04
1.14
0.99
0.38
0.03
0.16
1.4
-1.39
-0.27
0.24
0.28
-0.12
0.06

> <PUBCHEM_SHAPE_SELFOVERLAP>
348.461

> <PUBCHEM_SHAPE_VOLUME>
111.1

> <PUBCHEM_COORDINATE_TYPE>
2
5
10

$$$$

