439289
  -OEChem-07051212443D

 49 52  0     1  0  0  0  0  0999 V2000
   -5.1745   -0.4822    0.0005 O   0  0  0  0  0  0  0  0  0  0  0  0
    5.2814    1.1423   -0.0446 O   0  0  0  0  0  0  0  0  0  0  0  0
    0.0397   -0.6048    0.4451 C   0  0  2  0  0  0  0  0  0  0  0  0
   -0.4148    0.8221    0.0362 C   0  0  2  0  0  0  0  0  0  0  0  0
    1.6098   -0.7883    0.3689 C   0  0  1  0  0  0  0  0  0  0  0  0
   -1.9479    1.0203    0.0751 C   0  0  1  0  0  0  0  0  0  0  0  0
   -2.8097   -0.1336   -0.4923 C   0  0  1  0  0  0  0  0  0  0  0  0
    2.1655   -0.3017   -1.0040 C   0  0  1  0  0  0  0  0  0  0  0  0
   -0.7595   -1.6590   -0.3531 C   0  0  0  0  0  0  0  0  0  0  0  0
    0.1562    1.2183   -1.3343 C   0  0  0  0  0  0  0  0  0  0  0  0
   -2.2638   -1.5192   -0.1308 C   0  0  0  0  0  0  0  0  0  0  0  0
    1.6736    1.1100   -1.3721 C   0  0  0  0  0  0  0  0  0  0  0  0
   -2.4656    1.1907    1.5144 C   0  0  0  0  0  0  0  0  0  0  0  0
    2.2780    0.0331    1.5161 C   0  0  0  0  0  0  0  0  0  0  0  0
   -4.1184    0.0794    0.2678 C   0  0  0  0  0  0  0  0  0  0  0  0
    1.9718   -2.2819    0.5823 C   0  0  0  0  0  0  0  0  0  0  0  0
    3.7003   -0.3405   -1.0640 C   0  0  0  0  0  0  0  0  0  0  0  0
   -3.9761    1.0692    1.3930 C   0  0  0  0  0  0  0  0  0  0  0  0
   -3.0734   -0.0004   -1.9938 C   0  0  0  0  0  0  0  0  0  0  0  0
    3.8042    0.0409    1.4823 C   0  0  0  0  0  0  0  0  0  0  0  0
    4.3230    0.3852    0.1073 C   0  0  0  0  0  0  0  0  0  0  0  0
   -0.2358   -0.7501    1.4994 H   0  0  0  0  0  0  0  0  0  0  0  0
    0.0018    1.5349    0.7595 H   0  0  0  0  0  0  0  0  0  0  0  0
   -2.1938    1.9525   -0.4550 H   0  0  0  0  0  0  0  0  0  0  0  0
    1.7980   -0.9806   -1.7861 H   0  0  0  0  0  0  0  0  0  0  0  0
   -0.4915   -2.6701   -0.0299 H   0  0  0  0  0  0  0  0  0  0  0  0
   -0.5292   -1.6015   -1.4221 H   0  0  0  0  0  0  0  0  0  0  0  0
   -0.1284    2.2511   -1.5697 H   0  0  0  0  0  0  0  0  0  0  0  0
   -0.2546    0.5943   -2.1315 H   0  0  0  0  0  0  0  0  0  0  0  0
   -2.7869   -2.2929   -0.7077 H   0  0  0  0  0  0  0  0  0  0  0  0
   -2.4790   -1.7502    0.9216 H   0  0  0  0  0  0  0  0  0  0  0  0
    2.0181    1.3657   -2.3821 H   0  0  0  0  0  0  0  0  0  0  0  0
    2.1052    1.8639   -0.7032 H   0  0  0  0  0  0  0  0  0  0  0  0
   -2.1750    2.1555    1.9427 H   0  0  0  0  0  0  0  0  0  0  0  0
   -2.0819    0.4062    2.1764 H   0  0  0  0  0  0  0  0  0  0  0  0
    1.9497   -0.3530    2.4897 H   0  0  0  0  0  0  0  0  0  0  0  0
    1.9469    1.0763    1.4819 H   0  0  0  0  0  0  0  0  0  0  0  0
    3.0455   -2.4478    0.7043 H   0  0  0  0  0  0  0  0  0  0  0  0
    1.4837   -2.6763    1.4808 H   0  0  0  0  0  0  0  0  0  0  0  0
    1.6672   -2.8960   -0.2718 H   0  0  0  0  0  0  0  0  0  0  0  0
    4.0569    0.1195   -1.9929 H   0  0  0  0  0  0  0  0  0  0  0  0
    4.0701   -1.3712   -1.0555 H   0  0  0  0  0  0  0  0  0  0  0  0
   -4.4323    2.0167    1.0930 H   0  0  0  0  0  0  0  0  0  0  0  0
   -4.4292    0.6932    2.3127 H   0  0  0  0  0  0  0  0  0  0  0  0
   -2.1787   -0.1871   -2.5912 H   0  0  0  0  0  0  0  0  0  0  0  0
   -3.8349   -0.7167   -2.3243 H   0  0  0  0  0  0  0  0  0  0  0  0
   -3.4486    0.9982   -2.2447 H   0  0  0  0  0  0  0  0  0  0  0  0
    4.2208   -0.9272    1.7759 H   0  0  0  0  0  0  0  0  0  0  0  0
    4.1771    0.7853    2.1948 H   0  0  0  0  0  0  0  0  0  0  0  0
  1 15  2  0  0  0  0
  2 21  2  0  0  0  0
  3  4  1  0  0  0  0
  3  5  1  0  0  0  0
  3  9  1  0  0  0  0
  3 22  1  0  0  0  0
  4  6  1  0  0  0  0
  4 10  1  0  0  0  0
  4 23  1  0  0  0  0
  5  8  1  0  0  0  0
  5 14  1  0  0  0  0
  5 16  1  0  0  0  0
  6  7  1  0  0  0  0
  6 13  1  0  0  0  0
  6 24  1  0  0  0  0
  7 11  1  0  0  0  0
  7 15  1  0  0  0  0
  7 19  1  0  0  0  0
  8 12  1  0  0  0  0
  8 17  1  0  0  0  0
  8 25  1  0  0  0  0
  9 11  1  0  0  0  0
  9 26  1  0  0  0  0
  9 27  1  0  0  0  0
 10 12  1  0  0  0  0
 10 28  1  0  0  0  0
 10 29  1  0  0  0  0
 11 30  1  0  0  0  0
 11 31  1  0  0  0  0
 12 32  1  0  0  0  0
 12 33  1  0  0  0  0
 13 18  1  0  0  0  0
 13 34  1  0  0  0  0
 13 35  1  0  0  0  0
 14 20  1  0  0  0  0
 14 36  1  0  0  0  0
 14 37  1  0  0  0  0
 15 18  1  0  0  0  0
 16 38  1  0  0  0  0
 16 39  1  0  0  0  0
 16 40  1  0  0  0  0
 17 21  1  0  0  0  0
 17 41  1  0  0  0  0
 17 42  1  0  0  0  0
 18 43  1  0  0  0  0
 18 44  1  0  0  0  0
 19 45  1  0  0  0  0
 19 46  1  0  0  0  0
 19 47  1  0  0  0  0
 20 21  1  0  0  0  0
 20 48  1  0  0  0  0
 20 49  1  0  0  0  0
M  END
> <PUBCHEM_COMPOUND_CID>
439289

> <PUBCHEM_CONFORMER_RMSD>
0.6

> <PUBCHEM_CONFORMER_DIVERSEORDER>
1
37
42
15
9
16
34
17
38
39
31
45
10
5
7
46
40
4
8
12
25
11
43
3
20
23
21
27
24
18
29
36
33
30
41
22
6
28
13
26
19
2
44
14
32
35

> <PUBCHEM_MMFF94_PARTIAL_CHARGES>
8
1 -0.57
15 0.45
17 0.06
18 0.06
2 -0.57
20 0.06
21 0.45
7 0.06

> <PUBCHEM_EFFECTIVE_ROTOR_COUNT>
1.8

> <PUBCHEM_PHARMACOPHORE_FEATURES>
6
1 1 acceptor
1 2 acceptor
5 6 7 13 15 18 rings
6 3 4 5 8 10 12 rings
6 3 4 6 7 9 11 rings
6 5 8 14 17 20 21 rings

> <PUBCHEM_HEAVY_ATOM_COUNT>
21

> <PUBCHEM_ATOM_DEF_STEREO_COUNT>
1

> <PUBCHEM_ATOM_UDEF_STEREO_COUNT>
5

> <PUBCHEM_BOND_DEF_STEREO_COUNT>
0

> <PUBCHEM_BOND_UDEF_STEREO_COUNT>
0

> <PUBCHEM_ISOTOPIC_ATOM_COUNT>
0

> <PUBCHEM_COMPONENT_COUNT>
1

> <PUBCHEM_CACTVS_TAUTO_COUNT>
6

> <PUBCHEM_CONFORMER_ID>
0006B3F900000001

> <PUBCHEM_MMFF94_ENERGY>
62.9614

> <PUBCHEM_FEATURE_SELFOVERLAP>
30.69

> <PUBCHEM_SHAPE_FINGERPRINT>
10366900 7 17676497120120191634
10498660 4 18114464569016129513
10646746 165 17676202498243300312
10863032 1 16732984253727545222
11132069 177 18202569466857981974
11578080 2 18265921174930395297
11595378 159 18260829357840093729
11796584 16 14046024095798710384
12236239 1 18343301461491215411
12403814 3 17418096512105797383
12553582 1 18130780178968346396
12592029 89 17846780719497522763
12633257 1 18335436646734396792
128620 24 18344147003075999055
13140716 1 17986663779891080188
13224815 77 18271809050784506002
13296908 3 17488745717152108611
13760787 19 16226048894413471660
14289901 80 17167868555975629150
14787075 74 18114749230689593233
14955137 171 18058993039453583404
15209294 21 18260547852640174249
15309172 13 18272650172921885915
15788980 27 16917352549648327674
16945 1 18343585161192420228
17349148 13 18272095984601482603
18186145 218 17895477037039903440
18785283 64 15625077730341250036
200 152 17060340708472992257
20279233 1 15410889678178756289
23175994 123 16056882446237246796
23402539 116 17894635846114689460
23419403 2 16028246546312819254
23493267 7 15791731931570357031
23557571 272 16732980890958075813
23559900 14 17822283618021726630
26918003 58 15410897353338256512
296302 2 18260267434431003636
474 4 18341608153887947544
5104073 3 18262230144481257067
542803 24 18040150721072095577
633830 44 18041002813093844288
7495541 125 15841258256059385213

> <PUBCHEM_SHAPE_MULTIPOLES>
420.43
8.98
1.57
1.57
0.6
0.23
0.37
-1.75
-0.52
-0.44
-0.43
0.43
-0.03
-0.6

> <PUBCHEM_SHAPE_SELFOVERLAP>
900.424

> <PUBCHEM_SHAPE_VOLUME>
230.6

> <PUBCHEM_COORDINATE_TYPE>
2
5
10

$$$$

