441902
  -OEChem-07051212562D

100106  0     1  0  0  0  0  0999 V2000
    6.0075   -2.1706    0.0000 O   0  0  0  0  0  0  0  0  0  0  0  0
    7.7977   -3.9130    0.0000 O   0  0  0  0  0  0  0  0  0  0  0  0
    6.2878   -3.0644    0.0000 O   0  0  0  0  0  0  0  0  0  0  0  0
   13.9258    3.3067    0.0000 O   0  0  0  0  0  0  0  0  0  0  0  0
    4.2755   -2.1772    0.0000 O   0  0  0  0  0  0  0  0  0  0  0  0
    5.9998   -0.1706    0.0000 O   0  0  0  0  0  0  0  0  0  0  0  0
    4.2639    0.8227    0.0000 O   0  0  0  0  0  0  0  0  0  0  0  0
   15.2238    4.4535    0.0000 O   0  0  0  0  0  0  0  0  0  0  0  0
    2.5357   -0.1839    0.0000 O   0  0  0  0  0  0  0  0  0  0  0  0
    2.5473   -3.1839    0.0000 O   0  0  0  0  0  0  0  0  0  0  0  0
    9.5376   -0.1464    0.0000 C   0  0  1  0  0  0  0  0  0  0  0  0
    8.6716   -0.6464    0.0000 C   0  0  2  0  0  0  0  0  0  0  0  0
    8.6714    0.3540    0.0000 C   0  0  0  0  0  0  0  0  0  0  0  0
   10.4037   -0.6464    0.0000 C   0  0  2  0  0  0  0  0  0  0  0  0
    8.6716   -1.6464    0.0000 C   0  0  1  0  0  0  0  0  0  0  0  0
   11.3137   -0.1396    0.0000 C   0  0  1  0  0  0  0  0  0  0  0  0
    9.5216    0.8951    0.0000 C   0  0  0  0  0  0  0  0  0  0  0  0
   11.3217    0.9020    0.0000 C   0  0  2  0  0  0  0  0  0  0  0  0
    7.7777   -0.1117    0.0000 C   0  0  0  0  0  0  0  0  0  0  0  0
   10.4037   -1.6464    0.0000 C   0  0  0  0  0  0  0  0  0  0  0  0
    9.5376   -2.1464    0.0000 C   0  0  0  0  0  0  0  0  0  0  0  0
   10.4196    1.4229    0.0000 C   0  0  0  0  0  0  0  0  0  0  0  0
    7.7777   -2.1811    0.0000 C   0  0  2  0  0  0  0  0  0  0  0  0
   12.3097    1.2119    0.0000 C   0  0  3  0  0  0  0  0  0  0  0  0
   12.2968   -0.4646    0.0000 C   0  0  0  0  0  0  0  0  0  0  0  0
    6.8716   -0.6256    0.0000 C   0  0  0  0  0  0  0  0  0  0  0  0
    6.8716   -1.6672    0.0000 C   0  0  2  0  0  0  0  0  0  0  0  0
   12.9112    0.3690    0.0000 C   0  0  0  0  0  0  0  0  0  0  0  0
   11.3060   -1.1395    0.0000 C   0  0  0  0  0  0  0  0  0  0  0  0
   11.3294    1.9020    0.0000 C   0  0  0  0  0  0  0  0  0  0  0  0
   12.6277    2.1599    0.0000 C   0  0  1  0  0  0  0  0  0  0  0  0
    8.2877   -3.0412    0.0000 C   0  0  0  0  0  0  0  0  0  0  0  0
    7.2877   -3.0528    0.0000 C   0  0  0  0  0  0  0  0  0  0  0  0
   13.6078    2.3586    0.0000 C   0  0  2  0  0  0  0  0  0  0  0  0
   11.9656    2.9094    0.0000 C   0  0  0  0  0  0  0  0  0  0  0  0
    5.1396   -1.6739    0.0000 C   0  0  2  0  0  0  0  0  0  0  0  0
   14.2699    1.6092    0.0000 C   0  0  0  0  0  0  0  0  0  0  0  0
    5.1357   -0.6739    0.0000 C   0  0  1  0  0  0  0  0  0  0  0  0
   15.2499    1.8079    0.0000 C   0  0  0  0  0  0  0  0  0  0  0  0
   14.9058    3.5054    0.0000 C   0  0  0  0  0  0  0  0  0  0  0  0
    4.2678   -0.1772    0.0000 C   0  0  2  0  0  0  0  0  0  0  0  0
    3.4075   -1.6806    0.0000 C   0  0  1  0  0  0  0  0  0  0  0  0
   15.5679    2.7560    0.0000 C   0  0  0  0  0  0  0  0  0  0  0  0
    3.4037   -0.6806    0.0000 C   0  0  1  0  0  0  0  0  0  0  0  0
    2.5434   -2.1839    0.0000 C   0  0  0  0  0  0  0  0  0  0  0  0
   16.5480    2.9546    0.0000 C   0  0  0  0  0  0  0  0  0  0  0  0
    8.8835    0.9366    0.0000 H   0  0  0  0  0  0  0  0  0  0  0  0
    8.0608    0.4616    0.0000 H   0  0  0  0  0  0  0  0  0  0  0  0
   11.1365   -1.0771    0.0000 H   0  0  0  0  0  0  0  0  0  0  0  0
    8.6782   -2.4964    0.0000 H   0  0  0  0  0  0  0  0  0  0  0  0
    9.3036    1.4755    0.0000 H   0  0  0  0  0  0  0  0  0  0  0  0
    8.9124    0.7796    0.0000 H   0  0  0  0  0  0  0  0  0  0  0  0
    8.1823    0.3580    0.0000 H   0  0  0  0  0  0  0  0  0  0  0  0
    7.3840    0.3673    0.0000 H   0  0  0  0  0  0  0  0  0  0  0  0
   10.6157   -2.2290    0.0000 H   0  0  0  0  0  0  0  0  0  0  0  0
   11.0143   -1.5387    0.0000 H   0  0  0  0  0  0  0  0  0  0  0  0
    9.1391   -2.6214    0.0000 H   0  0  0  0  0  0  0  0  0  0  0  0
    9.9362   -2.6214    0.0000 H   0  0  0  0  0  0  0  0  0  0  0  0
   10.8169    1.8988    0.0000 H   0  0  0  0  0  0  0  0  0  0  0  0
   10.0187    1.8958    0.0000 H   0  0  0  0  0  0  0  0  0  0  0  0
   13.1504    1.3373    0.0000 H   0  0  0  0  0  0  0  0  0  0  0  0
   12.0414   -1.0295    0.0000 H   0  0  0  0  0  0  0  0  0  0  0  0
   12.8318   -0.7779    0.0000 H   0  0  0  0  0  0  0  0  0  0  0  0
    6.6626   -0.0419    0.0000 H   0  0  0  0  0  0  0  0  0  0  0  0
    6.2608   -0.7317    0.0000 H   0  0  0  0  0  0  0  0  0  0  0  0
    6.8752   -2.2872    0.0000 H   0  0  0  0  0  0  0  0  0  0  0  0
   13.3688   -0.0493    0.0000 H   0  0  0  0  0  0  0  0  0  0  0  0
   13.3752    0.7801    0.0000 H   0  0  0  0  0  0  0  0  0  0  0  0
   10.6860   -1.1348    0.0000 H   0  0  0  0  0  0  0  0  0  0  0  0
   11.3012   -1.7595    0.0000 H   0  0  0  0  0  0  0  0  0  0  0  0
   11.9259   -1.1443    0.0000 H   0  0  0  0  0  0  0  0  0  0  0  0
   11.9494    1.8972    0.0000 H   0  0  0  0  0  0  0  0  0  0  0  0
   11.3342    2.5220    0.0000 H   0  0  0  0  0  0  0  0  0  0  0  0
   10.7094    1.9068    0.0000 H   0  0  0  0  0  0  0  0  0  0  0  0
   12.0201    2.0368    0.0000 H   0  0  0  0  0  0  0  0  0  0  0  0
    7.7544   -3.3574    0.0000 H   0  0  0  0  0  0  0  0  0  0  0  0
    8.6038   -3.5746    0.0000 H   0  0  0  0  0  0  0  0  0  0  0  0
    8.8210   -2.7251    0.0000 H   0  0  0  0  0  0  0  0  0  0  0  0
   13.0450    2.9956    0.0000 H   0  0  0  0  0  0  0  0  0  0  0  0
   12.4303    3.3199    0.0000 H   0  0  0  0  0  0  0  0  0  0  0  0
   11.5551    3.3740    0.0000 H   0  0  0  0  0  0  0  0  0  0  0  0
   11.5010    2.4989    0.0000 H   0  0  0  0  0  0  0  0  0  0  0  0
    5.1420   -2.2939    0.0000 H   0  0  0  0  0  0  0  0  0  0  0  0
    7.4939   -4.4535    0.0000 H   0  0  0  0  0  0  0  0  0  0  0  0
   13.7410    1.2856    0.0000 H   0  0  0  0  0  0  0  0  0  0  0  0
   14.4967    1.0322    0.0000 H   0  0  0  0  0  0  0  0  0  0  0  0
    5.6738   -0.9818    0.0000 H   0  0  0  0  0  0  0  0  0  0  0  0
   15.6604    1.3432    0.0000 H   0  0  0  0  0  0  0  0  0  0  0  0
    3.7296    0.1307    0.0000 H   0  0  0  0  0  0  0  0  0  0  0  0
    3.4099   -2.3006    0.0000 H   0  0  0  0  0  0  0  0  0  0  0  0
    2.8680   -0.9926    0.0000 H   0  0  0  0  0  0  0  0  0  0  0  0
    5.9974    0.4494    0.0000 H   0  0  0  0  0  0  0  0  0  0  0  0
    2.3292   -1.6021    0.0000 H   0  0  0  0  0  0  0  0  0  0  0  0
    1.9333   -2.2939    0.0000 H   0  0  0  0  0  0  0  0  0  0  0  0
   16.6712    2.3470    0.0000 H   0  0  0  0  0  0  0  0  0  0  0  0
   17.1556    3.0778    0.0000 H   0  0  0  0  0  0  0  0  0  0  0  0
   16.4248    3.5623    0.0000 H   0  0  0  0  0  0  0  0  0  0  0  0
    3.7258    1.1307    0.0000 H   0  0  0  0  0  0  0  0  0  0  0  0
    2.0000   -0.4960    0.0000 H   0  0  0  0  0  0  0  0  0  0  0  0
    2.0116   -3.4960    0.0000 H   0  0  0  0  0  0  0  0  0  0  0  0
 27  1  1  1  0  0  0
 36  1  1  6  0  0  0
  2 33  1  0  0  0  0
  2 84  1  0  0  0  0
  3 33  2  0  0  0  0
  4 34  1  0  0  0  0
  4 40  1  0  0  0  0
  5 36  1  0  0  0  0
  5 42  1  0  0  0  0
 38  6  1  1  0  0  0
  6 92  1  0  0  0  0
 41  7  1  6  0  0  0
  7 98  1  0  0  0  0
  8 40  2  0  0  0  0
 44  9  1  1  0  0  0
  9 99  1  0  0  0  0
 10 45  1  0  0  0  0
 10100  1  0  0  0  0
 11 12  1  0  0  0  0
 11 13  1  1  0  0  0
 11 14  1  0  0  0  0
 11 17  1  0  0  0  0
 12 13  1  1  0  0  0
 12 15  1  0  0  0  0
 12 19  1  0  0  0  0
 13 47  1  0  0  0  0
 13 48  1  0  0  0  0
 14 16  1  0  0  0  0
 14 20  1  0  0  0  0
 14 49  1  1  0  0  0
 15 21  1  0  0  0  0
 15 23  1  0  0  0  0
 15 50  1  6  0  0  0
 16 18  1  0  0  0  0
 16 25  1  0  0  0  0
 16 29  1  6  0  0  0
 17 22  1  0  0  0  0
 17 51  1  0  0  0  0
 17 52  1  0  0  0  0
 18 22  1  0  0  0  0
 18 24  1  0  0  0  0
 18 30  1  1  0  0  0
 19 26  1  0  0  0  0
 19 53  1  0  0  0  0
 19 54  1  0  0  0  0
 20 21  1  0  0  0  0
 20 55  1  0  0  0  0
 20 56  1  0  0  0  0
 21 57  1  0  0  0  0
 21 58  1  0  0  0  0
 22 59  1  0  0  0  0
 22 60  1  0  0  0  0
 23 27  1  0  0  0  0
 23 32  1  1  0  0  0
 23 33  1  0  0  0  0
 24 28  1  0  0  0  0
 24 31  1  0  0  0  0
 24 61  1  0  0  0  0
 25 28  1  0  0  0  0
 25 62  1  0  0  0  0
 25 63  1  0  0  0  0
 26 27  1  0  0  0  0
 26 64  1  0  0  0  0
 26 65  1  0  0  0  0
 27 66  1  0  0  0  0
 28 67  1  0  0  0  0
 28 68  1  0  0  0  0
 29 69  1  0  0  0  0
 29 70  1  0  0  0  0
 29 71  1  0  0  0  0
 30 72  1  0  0  0  0
 30 73  1  0  0  0  0
 30 74  1  0  0  0  0
 31 34  1  0  0  0  0
 31 35  1  6  0  0  0
 31 75  1  0  0  0  0
 32 76  1  0  0  0  0
 32 77  1  0  0  0  0
 32 78  1  0  0  0  0
 34 37  1  0  0  0  0
 34 79  1  6  0  0  0
 35 80  1  0  0  0  0
 35 81  1  0  0  0  0
 35 82  1  0  0  0  0
 36 38  1  0  0  0  0
 36 83  1  0  0  0  0
 37 39  1  0  0  0  0
 37 85  1  0  0  0  0
 37 86  1  0  0  0  0
 38 41  1  0  0  0  0
 38 87  1  0  0  0  0
 39 43  2  0  0  0  0
 39 88  1  0  0  0  0
 40 43  1  0  0  0  0
 41 44  1  0  0  0  0
 41 89  1  0  0  0  0
 42 44  1  0  0  0  0
 42 45  1  6  0  0  0
 42 90  1  0  0  0  0
 43 46  1  0  0  0  0
 44 91  1  0  0  0  0
 45 93  1  0  0  0  0
 45 94  1  0  0  0  0
 46 95  1  0  0  0  0
 46 96  1  0  0  0  0
 46 97  1  0  0  0  0
M  END
> <PUBCHEM_COMPOUND_CID>
441902

> <PUBCHEM_COMPOUND_CANONICALIZED>
1

> <PUBCHEM_CACTVS_COMPLEXITY>
1300

> <PUBCHEM_CACTVS_HBOND_ACCEPTOR>
10

> <PUBCHEM_CACTVS_HBOND_DONOR>
5

> <PUBCHEM_CACTVS_ROTATABLE_BOND>
6

> <PUBCHEM_CACTVS_SUBSKEYS>
AAADcfB8PAAAAAAAAAAAAAAAGAAAAYAAAAA0YMECBgAAAGDAAAAAGgAACAAADxSwgAMCCAAABgCIAiDSCAAAAAAgAAAACAEAAEgRFBYAIQAiUAAF4AAPIYPI6PyPgAAAAAAAAADAAAYAADAAAQAACAAAAA==

> <PUBCHEM_IUPAC_INCHI>
InChI=1S/C36H54O10/c1-18-6-7-21(44-29(18)41)19(2)20-10-12-33(4)23-8-9-24-34(5,31(42)43)25(46-30-28(40)27(39)26(38)22(16-37)45-30)11-13-35(24)17-36(23,35)15-14-32(20,33)3/h6,19-28,30,37-40H,7-17H2,1-5H3,(H,42,43)/t19-,20?,21-,22+,23-,24-,25-,26+,27-,28+,30-,32+,33-,34-,35+,36-/m0/s1

> <PUBCHEM_IUPAC_INCHIKEY>
CJHYXUPCGHKJOO-OMWWMXIRSA-N

> <PUBCHEM_XLOGP3_AA>
5.3

> <PUBCHEM_EXACT_MASS>
646.371698

> <PUBCHEM_MOLECULAR_FORMULA>
C36H54O10

> <PUBCHEM_MOLECULAR_WEIGHT>
646.80796

> <PUBCHEM_OPENEYE_CAN_SMILES>
CC1=CCC(OC1=O)C(C)C2CCC3(C2(CCC45C3CCC6C4(C5)CCC(C6(C)C(=O)O)OC7C(C(C(C(O7)CO)O)O)O)C)C

> <PUBCHEM_OPENEYE_ISO_SMILES>
CC1=CC[C@H](OC1=O)[C@@H](C)C2CC[C@@]3([C@@]2(CC[C@]45[C@H]3CC[C@@H]6[C@]4(C5)CC[C@@H]([C@@]6(C)C(=O)O)O[C@H]7[C@@H]([C@H]([C@@H]([C@H](O7)CO)O)O)O)C)C

> <PUBCHEM_CACTVS_TPSA>
163

> <PUBCHEM_MONOISOTOPIC_WEIGHT>
646.371698

> <PUBCHEM_TOTAL_CHARGE>
0

> <PUBCHEM_HEAVY_ATOM_COUNT>
46

> <PUBCHEM_ATOM_DEF_STEREO_COUNT>
15

> <PUBCHEM_ATOM_UDEF_STEREO_COUNT>
1

> <PUBCHEM_BOND_DEF_STEREO_COUNT>
0

> <PUBCHEM_BOND_UDEF_STEREO_COUNT>
0

> <PUBCHEM_ISOTOPIC_ATOM_COUNT>
0

> <PUBCHEM_COMPONENT_COUNT>
1

> <PUBCHEM_CACTVS_TAUTO_COUNT>
1

> <PUBCHEM_COORDINATE_TYPE>
1
5
255

> <PUBCHEM_BONDANNOTATIONS>
27  1  5
36  1  6
11  13  5
12  13  5
14  49  5
15  50  6
16  29  6
18  30  5
23  32  5
24  61  3
31  35  6
34  79  6
42  45  6
38  6  5
41  7  6
44  9  5

$$$$

