442649
  -OEChem-07051212592D

 21 22  0     0  0  0  0  0  0999 V2000
    3.6750    1.3184    0.0000 N   0  0  0  0  0  0  0  0  0  0  0  0
    3.7320   -1.7694    0.0000 N   0  0  0  0  0  0  0  0  0  0  0  0
    2.0570    1.3184    0.0000 C   0  0  0  0  0  0  0  0  0  0  0  0
    2.3660    2.2694    0.0000 C   0  0  0  0  0  0  0  0  0  0  0  0
    2.8660    0.7306    0.0000 C   0  0  0  0  0  0  0  0  0  0  0  0
    3.3660    2.2694    0.0000 C   0  0  0  0  0  0  0  0  0  0  0  0
    2.8660   -0.2694    0.0000 C   0  0  0  0  0  0  0  0  0  0  0  0
    2.0000   -0.7694    0.0000 C   0  0  0  0  0  0  0  0  0  0  0  0
    3.7320   -0.7694    0.0000 C   0  0  0  0  0  0  0  0  0  0  0  0
    2.0000   -1.7694    0.0000 C   0  0  0  0  0  0  0  0  0  0  0  0
    2.8660   -2.2694    0.0000 C   0  0  0  0  0  0  0  0  0  0  0  0
    1.4906    1.5705    0.0000 H   0  0  0  0  0  0  0  0  0  0  0  0
    1.7470    0.7814    0.0000 H   0  0  0  0  0  0  0  0  0  0  0  0
    2.4308    2.8860    0.0000 H   0  0  0  0  0  0  0  0  0  0  0  0
    1.7596    2.3983    0.0000 H   0  0  0  0  0  0  0  0  0  0  0  0
    3.9725    2.3983    0.0000 H   0  0  0  0  0  0  0  0  0  0  0  0
    3.3012    2.8860    0.0000 H   0  0  0  0  0  0  0  0  0  0  0  0
    1.4631   -0.4594    0.0000 H   0  0  0  0  0  0  0  0  0  0  0  0
    4.2690   -0.4594    0.0000 H   0  0  0  0  0  0  0  0  0  0  0  0
    1.4631   -2.0794    0.0000 H   0  0  0  0  0  0  0  0  0  0  0  0
    2.8660   -2.8894    0.0000 H   0  0  0  0  0  0  0  0  0  0  0  0
  1  5  2  0  0  0  0
  1  6  1  0  0  0  0
  2  9  1  0  0  0  0
  2 11  2  0  0  0  0
  3  4  1  0  0  0  0
  3  5  1  0  0  0  0
  3 12  1  0  0  0  0
  3 13  1  0  0  0  0
  4  6  1  0  0  0  0
  4 14  1  0  0  0  0
  4 15  1  0  0  0  0
  5  7  1  0  0  0  0
  6 16  1  0  0  0  0
  6 17  1  0  0  0  0
  7  8  1  0  0  0  0
  7  9  2  0  0  0  0
  8 10  2  0  0  0  0
  8 18  1  0  0  0  0
  9 19  1  0  0  0  0
 10 11  1  0  0  0  0
 10 20  1  0  0  0  0
 11 21  1  0  0  0  0
M  END
> <PUBCHEM_COMPOUND_CID>
442649

> <PUBCHEM_COMPOUND_CANONICALIZED>
1

> <PUBCHEM_CACTVS_COMPLEXITY>
163

> <PUBCHEM_CACTVS_HBOND_ACCEPTOR>
2

> <PUBCHEM_CACTVS_HBOND_DONOR>
0

> <PUBCHEM_CACTVS_ROTATABLE_BOND>
1

> <PUBCHEM_CACTVS_SUBSKEYS>
AAADccBzAAAAAAAAAAAAAAAAAAAAAQAAAAAsAAAAAAAAAAABgAAAHAAAAAAADAjBGgQ8gJIIEACgAzBnRACCgCAxAiAI2CA4ZJgIIOLAkZGEIAhggADIyAcQgIAOAAAAAAAAAAAAAAAAAAAAAAAAAAAAAA==

> <PUBCHEM_IUPAC_OPENEYE_NAME>
3-(3,4-dihydro-2H-pyrrol-5-yl)pyridine

> <PUBCHEM_IUPAC_CAS_NAME>
3-(3,4-dihydro-2H-pyrrol-5-yl)pyridine

> <PUBCHEM_IUPAC_NAME>
3-(3,4-dihydro-2H-pyrrol-5-yl)pyridine

> <PUBCHEM_IUPAC_SYSTEMATIC_NAME>
3-(3,4-dihydro-2H-pyrrol-5-yl)pyridine

> <PUBCHEM_IUPAC_TRADITIONAL_NAME>
3-(1-pyrrolin-2-yl)pyridine

> <PUBCHEM_IUPAC_INCHI>
InChI=1S/C9H10N2/c1-3-8(7-10-5-1)9-4-2-6-11-9/h1,3,5,7H,2,4,6H2

> <PUBCHEM_IUPAC_INCHIKEY>
DPNGWXJMIILTBS-UHFFFAOYSA-N

> <PUBCHEM_XLOGP3_AA>
0.6

> <PUBCHEM_EXACT_MASS>
146.084398

> <PUBCHEM_MOLECULAR_FORMULA>
C9H10N2

> <PUBCHEM_MOLECULAR_WEIGHT>
146.1891

> <PUBCHEM_OPENEYE_CAN_SMILES>
C1CC(=NC1)C2=CN=CC=C2

> <PUBCHEM_OPENEYE_ISO_SMILES>
C1CC(=NC1)C2=CN=CC=C2

> <PUBCHEM_CACTVS_TPSA>
25.2

> <PUBCHEM_MONOISOTOPIC_WEIGHT>
146.084398

> <PUBCHEM_TOTAL_CHARGE>
0

> <PUBCHEM_HEAVY_ATOM_COUNT>
11

> <PUBCHEM_ATOM_DEF_STEREO_COUNT>
0

> <PUBCHEM_ATOM_UDEF_STEREO_COUNT>
0

> <PUBCHEM_BOND_DEF_STEREO_COUNT>
0

> <PUBCHEM_BOND_UDEF_STEREO_COUNT>
0

> <PUBCHEM_ISOTOPIC_ATOM_COUNT>
0

> <PUBCHEM_COMPONENT_COUNT>
1

> <PUBCHEM_CACTVS_TAUTO_COUNT>
1

> <PUBCHEM_COORDINATE_TYPE>
1
5
255

> <PUBCHEM_BONDANNOTATIONS>
10  11  8
2  11  8
2  9  8
7  8  8
7  9  8
8  10  8

$$$$

