442061
  -OEChem-07051212562D

 43 47  0     1  0  0  0  0  0999 V2000
    5.1660   -1.0674    0.0000 O   0  0  0  0  0  0  0  0  0  0  0  0
    4.3009    3.3957    0.0000 O   0  0  0  0  0  0  0  0  0  0  0  0
    6.4022   -0.4910    0.0000 O   0  0  0  0  0  0  0  0  0  0  0  0
    3.0782   -3.4153    0.0000 O   0  0  0  0  0  0  0  0  0  0  0  0
    4.6660    0.4714    0.0000 C   0  0  2  0  0  0  0  0  0  0  0  0
    3.8000    0.9714    0.0000 C   0  0  2  0  0  0  0  0  0  0  0  0
    5.5321    0.9714    0.0000 C   0  0  1  0  0  0  0  0  0  0  0  0
    3.8570   -0.1164    0.0000 C   0  0  0  0  0  0  0  0  0  0  0  0
    3.8000    1.9714    0.0000 C   0  0  0  0  0  0  0  0  0  0  0  0
    2.9061    0.4367    0.0000 C   0  0  0  0  0  0  0  0  0  0  0  0
    5.5321    1.9714    0.0000 C   0  0  0  0  0  0  0  0  0  0  0  0
    5.4751   -0.1164    0.0000 C   0  0  0  0  0  0  0  0  0  0  0  0
    4.6660    2.4714    0.0000 C   0  0  0  0  0  0  0  0  0  0  0  0
    4.1660   -1.0674    0.0000 C   0  0  1  0  0  0  0  0  0  0  0  0
    2.9061    2.5061    0.0000 C   0  0  0  0  0  0  0  0  0  0  0  0
    2.0000    0.9506    0.0000 C   0  0  0  0  0  0  0  0  0  0  0  0
    2.0000    1.9922    0.0000 C   0  0  0  0  0  0  0  0  0  0  0  0
    6.5169    1.1450    0.0000 C   0  0  0  0  0  0  0  0  0  0  0  0
    3.3073    3.4153    0.0000 C   0  0  0  0  0  0  0  0  0  0  0  0
    3.5782   -1.8764    0.0000 C   0  0  0  0  0  0  0  0  0  0  0  0
    2.5782   -1.8764    0.0000 C   0  0  0  0  0  0  0  0  0  0  0  0
    3.8873   -2.8275    0.0000 C   0  0  0  0  0  0  0  0  0  0  0  0
    2.2692   -2.8275    0.0000 C   0  0  0  0  0  0  0  0  0  0  0  0
    3.8066    0.1214    0.0000 H   0  0  0  0  0  0  0  0  0  0  0  0
    5.7441    0.3888    0.0000 H   0  0  0  0  0  0  0  0  0  0  0  0
    3.5470    0.4206    0.0000 H   0  0  0  0  0  0  0  0  0  0  0  0
    3.2906   -0.3686    0.0000 H   0  0  0  0  0  0  0  0  0  0  0  0
    2.5124   -0.0423    0.0000 H   0  0  0  0  0  0  0  0  0  0  0  0
    3.3107   -0.0330    0.0000 H   0  0  0  0  0  0  0  0  0  0  0  0
    6.1426    1.8637    0.0000 H   0  0  0  0  0  0  0  0  0  0  0  0
    5.7441    2.5540    0.0000 H   0  0  0  0  0  0  0  0  0  0  0  0
    3.5537   -0.9704    0.0000 H   0  0  0  0  0  0  0  0  0  0  0  0
    1.3891    1.0567    0.0000 H   0  0  0  0  0  0  0  0  0  0  0  0
    1.7909    0.3669    0.0000 H   0  0  0  0  0  0  0  0  0  0  0  0
    1.7909    2.5759    0.0000 H   0  0  0  0  0  0  0  0  0  0  0  0
    1.3891    1.8861    0.0000 H   0  0  0  0  0  0  0  0  0  0  0  0
    6.6245    0.5345    0.0000 H   0  0  0  0  0  0  0  0  0  0  0  0
    7.1274    1.2527    0.0000 H   0  0  0  0  0  0  0  0  0  0  0  0
    6.4092    1.7556    0.0000 H   0  0  0  0  0  0  0  0  0  0  0  0
    2.9739    3.9380    0.0000 H   0  0  0  0  0  0  0  0  0  0  0  0
    2.2138   -1.3749    0.0000 H   0  0  0  0  0  0  0  0  0  0  0  0
    4.4769   -3.0191    0.0000 H   0  0  0  0  0  0  0  0  0  0  0  0
    1.6796   -3.0191    0.0000 H   0  0  0  0  0  0  0  0  0  0  0  0
  1 12  1  0  0  0  0
  1 14  1  0  0  0  0
  2 13  1  0  0  0  0
  2 19  1  0  0  0  0
  3 12  2  0  0  0  0
  4 22  1  0  0  0  0
  4 23  1  0  0  0  0
  5  6  1  0  0  0  0
  5  7  1  0  0  0  0
  5  8  1  6  0  0  0
  5 12  1  0  0  0  0
  6  9  1  0  0  0  0
  6 10  1  0  0  0  0
  6 24  1  6  0  0  0
  7 11  1  0  0  0  0
  7 18  1  1  0  0  0
  7 25  1  0  0  0  0
  8 14  1  0  0  0  0
  8 26  1  0  0  0  0
  8 27  1  0  0  0  0
  9 13  2  0  0  0  0
  9 15  1  0  0  0  0
 10 16  1  0  0  0  0
 10 28  1  0  0  0  0
 10 29  1  0  0  0  0
 11 13  1  0  0  0  0
 11 30  1  0  0  0  0
 11 31  1  0  0  0  0
 14 20  1  6  0  0  0
 14 32  1  0  0  0  0
 15 17  1  0  0  0  0
 15 19  2  0  0  0  0
 16 17  1  0  0  0  0
 16 33  1  0  0  0  0
 16 34  1  0  0  0  0
 17 35  1  0  0  0  0
 17 36  1  0  0  0  0
 18 37  1  0  0  0  0
 18 38  1  0  0  0  0
 18 39  1  0  0  0  0
 19 40  1  0  0  0  0
 20 21  1  0  0  0  0
 20 22  2  0  0  0  0
 21 23  2  0  0  0  0
 21 41  1  0  0  0  0
 22 42  1  0  0  0  0
 23 43  1  0  0  0  0
M  END
> <PUBCHEM_COMPOUND_CID>
442061

> <PUBCHEM_COMPOUND_CANONICALIZED>
1

> <PUBCHEM_CACTVS_COMPLEXITY>
506

> <PUBCHEM_CACTVS_HBOND_ACCEPTOR>
4

> <PUBCHEM_CACTVS_HBOND_DONOR>
0

> <PUBCHEM_CACTVS_ROTATABLE_BOND>
1

> <PUBCHEM_CACTVS_SUBSKEYS>
AAADceB4OAAAAAAAAAAAAAAAAAAAASJEgAAwYAAAAAAAAEjB4AAAGgAAAAAADxSgmAIyDIAABECIAqjSiAACCAAkIAAIiAEGCMgMJzaENRqCGSCl4BEIqYfK7vzvgAAAAAAAAADAAAYAADAAAAAAAAAAAA==

> <PUBCHEM_IUPAC_INCHI>
InChI=1S/C19H20O4/c1-11-7-15-17-13(10-22-15)3-2-4-14(17)19(11)8-16(23-18(19)20)12-5-6-21-9-12/h5-6,9-11,14,16H,2-4,7-8H2,1H3/t11-,14+,16+,19-/m1/s1

> <PUBCHEM_IUPAC_INCHIKEY>
CZGWUKXZLUIKBU-IUYNRSMJSA-N

> <PUBCHEM_XLOGP3_AA>
3.4

> <PUBCHEM_EXACT_MASS>
312.136159

> <PUBCHEM_MOLECULAR_FORMULA>
C19H20O4

> <PUBCHEM_MOLECULAR_WEIGHT>
312.3597

> <PUBCHEM_OPENEYE_CAN_SMILES>
CC1CC2=C3C(C14CC(OC4=O)C5=COC=C5)CCCC3=CO2

> <PUBCHEM_OPENEYE_ISO_SMILES>
C[C@@H]1CC2=C3[C@@H]([C@@]14C[C@H](OC4=O)C5=COC=C5)CCCC3=CO2

> <PUBCHEM_CACTVS_TPSA>
52.6

> <PUBCHEM_MONOISOTOPIC_WEIGHT>
312.136159

> <PUBCHEM_TOTAL_CHARGE>
0

> <PUBCHEM_HEAVY_ATOM_COUNT>
23

> <PUBCHEM_ATOM_DEF_STEREO_COUNT>
4

> <PUBCHEM_ATOM_UDEF_STEREO_COUNT>
0

> <PUBCHEM_BOND_DEF_STEREO_COUNT>
0

> <PUBCHEM_BOND_UDEF_STEREO_COUNT>
0

> <PUBCHEM_ISOTOPIC_ATOM_COUNT>
0

> <PUBCHEM_COMPONENT_COUNT>
1

> <PUBCHEM_CACTVS_TAUTO_COUNT>
1

> <PUBCHEM_COORDINATE_TYPE>
1
5
255

> <PUBCHEM_BONDANNOTATIONS>
14  20  6
15  19  8
2  13  8
2  19  8
20  21  8
20  22  8
21  23  8
4  22  8
4  23  8
5  8  6
6  24  6
7  18  5
9  13  8
9  15  8

$$$$

