107807
  -OEChem-07051212542D

 58 59  0     1  0  0  0  0  0999 V2000
    6.6284   -1.3305    0.0000 O   0  0  0  0  0  0  0  0  0  0  0  0
    7.4228   -4.1580    0.0000 O   0  0  0  0  0  0  0  0  0  0  0  0
    7.4228   -2.4260    0.0000 O   0  0  0  0  0  0  0  0  0  0  0  0
    4.2677    2.5972    0.0000 O   0  0  0  0  0  0  0  0  0  0  0  0
    5.9140    2.0591    0.0000 O   0  0  0  0  0  0  0  0  0  0  0  0
    5.3392   -2.4873    0.0000 N   0  0  0  0  0  0  0  0  0  0  0  0
    5.2927    0.1581    0.0000 N   0  0  0  0  0  0  0  0  0  0  0  0
    4.3930   -3.7920    0.0000 C   0  0  2  0  0  0  0  0  0  0  0  0
    4.3930   -2.7920    0.0000 C   0  0  2  0  0  0  0  0  0  0  0  0
    5.3392   -4.0967    0.0000 C   0  0  0  0  0  0  0  0  0  0  0  0
    5.9228   -3.2920    0.0000 C   0  0  1  0  0  0  0  0  0  0  0  0
    3.5270   -4.2920    0.0000 C   0  0  0  0  0  0  0  0  0  0  0  0
    3.5270   -2.2920    0.0000 C   0  0  0  0  0  0  0  0  0  0  0  0
    2.6610   -3.7920    0.0000 C   0  0  0  0  0  0  0  0  0  0  0  0
    2.6610   -2.7920    0.0000 C   0  0  0  0  0  0  0  0  0  0  0  0
    5.6499   -1.5368    0.0000 C   0  0  0  0  0  0  0  0  0  0  0  0
    6.9228   -3.2920    0.0000 C   0  0  0  0  0  0  0  0  0  0  0  0
    4.9820   -0.7925    0.0000 C   0  0  2  0  0  0  0  0  0  0  0  0
    4.0035   -0.9987    0.0000 C   0  0  0  0  0  0  0  0  0  0  0  0
    4.6249    0.9024    0.0000 C   0  0  1  0  0  0  0  0  0  0  0  0
    3.6464    0.6961    0.0000 C   0  0  0  0  0  0  0  0  0  0  0  0
    4.9355    1.8529    0.0000 C   0  0  0  0  0  0  0  0  0  0  0  0
    2.9785    1.4404    0.0000 C   0  0  0  0  0  0  0  0  0  0  0  0
    2.0000    1.2342    0.0000 C   0  0  0  0  0  0  0  0  0  0  0  0
    4.5783    3.5477    0.0000 C   0  0  0  0  0  0  0  0  0  0  0  0
    3.9105    4.2920    0.0000 C   0  0  0  0  0  0  0  0  0  0  0  0
    4.4829   -4.6372    0.0000 H   0  0  0  0  0  0  0  0  0  0  0  0
    4.4829   -1.9468    0.0000 H   0  0  0  0  0  0  0  0  0  0  0  0
    5.0882   -4.6636    0.0000 H   0  0  0  0  0  0  0  0  0  0  0  0
    5.8766   -4.4060    0.0000 H   0  0  0  0  0  0  0  0  0  0  0  0
    6.2045   -2.7397    0.0000 H   0  0  0  0  0  0  0  0  0  0  0  0
    3.1284   -4.7670    0.0000 H   0  0  0  0  0  0  0  0  0  0  0  0
    3.9255   -4.7670    0.0000 H   0  0  0  0  0  0  0  0  0  0  0  0
    3.9255   -1.8171    0.0000 H   0  0  0  0  0  0  0  0  0  0  0  0
    3.1284   -1.8171    0.0000 H   0  0  0  0  0  0  0  0  0  0  0  0
    2.0504   -3.6844    0.0000 H   0  0  0  0  0  0  0  0  0  0  0  0
    2.4489   -4.3746    0.0000 H   0  0  0  0  0  0  0  0  0  0  0  0
    2.4489   -2.2094    0.0000 H   0  0  0  0  0  0  0  0  0  0  0  0
    2.0504   -2.8997    0.0000 H   0  0  0  0  0  0  0  0  0  0  0  0
    4.5680   -0.3310    0.0000 H   0  0  0  0  0  0  0  0  0  0  0  0
    5.8994    0.2859    0.0000 H   0  0  0  0  0  0  0  0  0  0  0  0
    3.8757   -0.3920    0.0000 H   0  0  0  0  0  0  0  0  0  0  0  0
    3.3969   -1.1265    0.0000 H   0  0  0  0  0  0  0  0  0  0  0  0
    4.1314   -1.6054    0.0000 H   0  0  0  0  0  0  0  0  0  0  0  0
    8.0428   -4.1580    0.0000 H   0  0  0  0  0  0  0  0  0  0  0  0
    5.2315    1.0302    0.0000 H   0  0  0  0  0  0  0  0  0  0  0  0
    3.1200    0.3685    0.0000 H   0  0  0  0  0  0  0  0  0  0  0  0
    3.8776    0.1209    0.0000 H   0  0  0  0  0  0  0  0  0  0  0  0
    3.5049    1.7681    0.0000 H   0  0  0  0  0  0  0  0  0  0  0  0
    2.7472    2.0157    0.0000 H   0  0  0  0  0  0  0  0  0  0  0  0
    1.8721    1.8409    0.0000 H   0  0  0  0  0  0  0  0  0  0  0  0
    1.3933    1.1064    0.0000 H   0  0  0  0  0  0  0  0  0  0  0  0
    2.1279    0.6276    0.0000 H   0  0  0  0  0  0  0  0  0  0  0  0
    5.1253    3.2557    0.0000 H   0  0  0  0  0  0  0  0  0  0  0  0
    4.9609    4.0356    0.0000 H   0  0  0  0  0  0  0  0  0  0  0  0
    4.3720    4.7061    0.0000 H   0  0  0  0  0  0  0  0  0  0  0  0
    3.4964    4.7535    0.0000 H   0  0  0  0  0  0  0  0  0  0  0  0
    3.4490    3.8780    0.0000 H   0  0  0  0  0  0  0  0  0  0  0  0
  1 16  2  0  0  0  0
  2 17  1  0  0  0  0
  2 45  1  0  0  0  0
  3 17  2  0  0  0  0
  4 22  1  0  0  0  0
  4 25  1  0  0  0  0
  5 22  2  0  0  0  0
  6  9  1  0  0  0  0
  6 11  1  0  0  0  0
  6 16  1  0  0  0  0
 18  7  1  6  0  0  0
 20  7  1  1  0  0  0
  7 41  1  0  0  0  0
  8  9  1  0  0  0  0
  8 10  1  0  0  0  0
  8 12  1  0  0  0  0
  8 27  1  1  0  0  0
  9 13  1  0  0  0  0
  9 28  1  1  0  0  0
 10 11  1  0  0  0  0
 10 29  1  0  0  0  0
 10 30  1  0  0  0  0
 11 17  1  6  0  0  0
 11 31  1  0  0  0  0
 12 14  1  0  0  0  0
 12 32  1  0  0  0  0
 12 33  1  0  0  0  0
 13 15  1  0  0  0  0
 13 34  1  0  0  0  0
 13 35  1  0  0  0  0
 14 15  1  0  0  0  0
 14 36  1  0  0  0  0
 14 37  1  0  0  0  0
 15 38  1  0  0  0  0
 15 39  1  0  0  0  0
 16 18  1  0  0  0  0
 18 19  1  0  0  0  0
 18 40  1  0  0  0  0
 19 42  1  0  0  0  0
 19 43  1  0  0  0  0
 19 44  1  0  0  0  0
 20 21  1  0  0  0  0
 20 22  1  0  0  0  0
 20 46  1  0  0  0  0
 21 23  1  0  0  0  0
 21 47  1  0  0  0  0
 21 48  1  0  0  0  0
 23 24  1  0  0  0  0
 23 49  1  0  0  0  0
 23 50  1  0  0  0  0
 24 51  1  0  0  0  0
 24 52  1  0  0  0  0
 24 53  1  0  0  0  0
 25 26  1  0  0  0  0
 25 54  1  0  0  0  0
 25 55  1  0  0  0  0
 26 56  1  0  0  0  0
 26 57  1  0  0  0  0
 26 58  1  0  0  0  0
M  END
> <PUBCHEM_COMPOUND_CID>
107807

> <PUBCHEM_COMPOUND_CANONICALIZED>
1

> <PUBCHEM_CACTVS_COMPLEXITY>
524

> <PUBCHEM_CACTVS_HBOND_ACCEPTOR>
6

> <PUBCHEM_CACTVS_HBOND_DONOR>
2

> <PUBCHEM_CACTVS_ROTATABLE_BOND>
9

> <PUBCHEM_CACTVS_SUBSKEYS>
AAADcfB7OAAAAAAAAAAAAAAAAAAAAWAAAAAwAAAAAAAAAFgAAAAAHgAQCAAADSjhgAYCCAPABgAIAAGQGAAAAAAAAAAAAIGIAAACQBIAgCAXQAAEFgCQAAGY2aOeAAAAAAAAAAAAAAAAAAQAAAAAAAAAAA==

> <PUBCHEM_IUPAC_OPENEYE_NAME>
(2S,3aS,7aS)-1-[(2S)-2-[[(1S)-1-ethoxycarbonylbutyl]amino]propanoyl]-2,3,3a,4,5,6,7,7a-octahydroindole-2-carboxylic acid

> <PUBCHEM_IUPAC_CAS_NAME>
(2S,3aS,7aS)-1-[(2S)-2-[[(2S)-1-ethoxy-1-oxopentan-2-yl]amino]-1-oxopropyl]-2,3,3a,4,5,6,7,7a-octahydroindole-2-carboxylic acid

> <PUBCHEM_IUPAC_NAME>
(2S,3aS,7aS)-1-[(2S)-2-[[(2S)-1-ethoxy-1-oxopentan-2-yl]amino]propanoyl]-2,3,3a,4,5,6,7,7a-octahydroindole-2-carboxylic acid

> <PUBCHEM_IUPAC_SYSTEMATIC_NAME>
(2S,3aS,7aS)-1-[(2S)-2-[[(2S)-1-ethoxy-1-oxidanylidene-pentan-2-yl]amino]propanoyl]-2,3,3a,4,5,6,7,7a-octahydroindole-2-carboxylic acid

> <PUBCHEM_IUPAC_TRADITIONAL_NAME>
(2S,3aS,7aS)-1-[(2S)-2-[[(1S)-1-carbethoxybutyl]amino]propanoyl]-2,3,3a,4,5,6,7,7a-octahydroindole-2-carboxylic acid

> <PUBCHEM_IUPAC_INCHI>
InChI=1S/C19H32N2O5/c1-4-8-14(19(25)26-5-2)20-12(3)17(22)21-15-10-7-6-9-13(15)11-16(21)18(23)24/h12-16,20H,4-11H2,1-3H3,(H,23,24)/t12-,13-,14-,15-,16-/m0/s1

> <PUBCHEM_IUPAC_INCHIKEY>
IPVQLZZIHOAWMC-QXKUPLGCSA-N

> <PUBCHEM_XLOGP3>
0.9

> <PUBCHEM_EXACT_MASS>
368.231122

> <PUBCHEM_MOLECULAR_FORMULA>
C19H32N2O5

> <PUBCHEM_MOLECULAR_WEIGHT>
368.46778

> <PUBCHEM_OPENEYE_CAN_SMILES>
CCCC(C(=O)OCC)NC(C)C(=O)N1C2CCCCC2CC1C(=O)O

> <PUBCHEM_OPENEYE_ISO_SMILES>
CCC[C@@H](C(=O)OCC)N[C@@H](C)C(=O)N1[C@H]2CCCC[C@H]2C[C@H]1C(=O)O

> <PUBCHEM_CACTVS_TPSA>
95.9

> <PUBCHEM_MONOISOTOPIC_WEIGHT>
368.231122

> <PUBCHEM_TOTAL_CHARGE>
0

> <PUBCHEM_HEAVY_ATOM_COUNT>
26

> <PUBCHEM_ATOM_DEF_STEREO_COUNT>
5

> <PUBCHEM_ATOM_UDEF_STEREO_COUNT>
0

> <PUBCHEM_BOND_DEF_STEREO_COUNT>
0

> <PUBCHEM_BOND_UDEF_STEREO_COUNT>
0

> <PUBCHEM_ISOTOPIC_ATOM_COUNT>
0

> <PUBCHEM_COMPONENT_COUNT>
1

> <PUBCHEM_CACTVS_TAUTO_COUNT>
1

> <PUBCHEM_COORDINATE_TYPE>
1
5
255

> <PUBCHEM_BONDANNOTATIONS>
11  17  6
18  7  6
20  7  5
8  27  5
9  28  5

$$$$

