46173906
  -OEChem-07051213103D

 67 69  0     1  0  0  0  0  0999 V2000
   -3.8032   -1.8653    1.5999 O   0  0  0  0  0  0  0  0  0  0  0  0
   -2.6724    0.7824    1.5500 O   0  0  0  0  0  0  0  0  0  0  0  0
   -3.3401   -3.3119   -1.7287 O   0  0  0  0  0  0  0  0  0  0  0  0
   -2.6398    1.6442   -0.6414 O   0  0  0  0  0  0  0  0  0  0  0  0
   -5.9943   -2.9102    0.3061 O   0  0  0  0  0  0  0  0  0  0  0  0
    1.4012   -0.6181   -0.0722 O   0  0  0  0  0  0  0  0  0  0  0  0
    3.4422    0.0162    0.8594 O   0  0  0  0  0  0  0  0  0  0  0  0
    2.8044   -2.1312   -2.0420 O   0  0  0  0  0  0  0  0  0  0  0  0
    5.4619   -1.0616   -2.5532 O   0  0  0  0  0  0  0  0  0  0  0  0
    6.9140   -0.7000   -0.1022 O   0  0  0  0  0  0  0  0  0  0  0  0
   -3.3505    3.3162    0.7794 O   0  0  0  0  0  0  0  0  0  0  0  0
    4.6398    0.7021    3.2276 O   0  0  0  0  0  0  0  0  0  0  0  0
   -2.9976   -0.7194   -0.4034 C   0  0  2  0  0  0  0  0  0  0  0  0
   -3.8460   -1.8733    0.1739 C   0  0  1  0  0  0  0  0  0  0  0  0
   -1.5309   -1.2093   -0.2747 C   0  0  2  0  0  0  0  0  0  0  0  0
   -3.0975   -3.1079   -0.3422 C   0  0  2  0  0  0  0  0  0  0  0  0
   -1.6263   -2.7478   -0.1272 C   0  0  0  0  0  0  0  0  0  0  0  0
   -3.2092    0.6612    0.2293 C   0  0  1  0  0  0  0  0  0  0  0  0
   -0.7870   -0.5694    0.8739 C   0  0  0  0  0  0  0  0  0  0  0  0
   -5.3067   -1.8109   -0.2626 C   0  0  0  0  0  0  0  0  0  0  0  0
   -1.3947    0.3112    1.6825 C   0  0  0  0  0  0  0  0  0  0  0  0
    0.6488   -0.9569    1.0772 C   0  0  0  0  0  0  0  0  0  0  0  0
    2.7736   -0.9673    0.0732 C   0  0  2  0  0  0  0  0  0  0  0  0
    3.3876   -1.0442   -1.3246 C   0  0  1  0  0  0  0  0  0  0  0  0
   -2.7860    2.9415   -0.2392 C   0  0  0  0  0  0  0  0  0  0  0  0
    4.8983   -1.2685   -1.2568 C   0  0  2  0  0  0  0  0  0  0  0  0
    5.5589   -0.2957   -0.2799 C   0  0  1  0  0  0  0  0  0  0  0  0
    4.8228   -0.2900    1.0621 C   0  0  1  0  0  0  0  0  0  0  0  0
   -2.1692    3.8523   -1.2792 C   0  0  0  0  0  0  0  0  0  0  0  0
    5.3801    0.7567    2.0218 C   0  0  0  0  0  0  0  0  0  0  0  0
   -1.0908    4.7833   -0.7034 C   0  0  0  0  0  0  0  0  0  0  0  0
   -0.5522    5.7031   -1.8008 C   0  0  0  0  0  0  0  0  0  0  0  0
    0.0610    3.9887   -0.0826 C   0  0  0  0  0  0  0  0  0  0  0  0
   -3.2173   -0.6381   -1.4789 H   0  0  0  0  0  0  0  0  0  0  0  0
   -1.0053   -0.9612   -1.2062 H   0  0  0  0  0  0  0  0  0  0  0  0
   -3.3610   -4.0224    0.1998 H   0  0  0  0  0  0  0  0  0  0  0  0
   -1.3261   -3.0695    0.8773 H   0  0  0  0  0  0  0  0  0  0  0  0
   -0.9690   -3.2441   -0.8498 H   0  0  0  0  0  0  0  0  0  0  0  0
   -4.2844    0.8641    0.2932 H   0  0  0  0  0  0  0  0  0  0  0  0
   -5.4200   -1.8390   -1.3508 H   0  0  0  0  0  0  0  0  0  0  0  0
   -5.7858   -0.9022    0.1154 H   0  0  0  0  0  0  0  0  0  0  0  0
   -4.3012   -2.6386    1.9159 H   0  0  0  0  0  0  0  0  0  0  0  0
   -0.9307    0.7417    2.5597 H   0  0  0  0  0  0  0  0  0  0  0  0
    0.7179   -2.0342    1.2668 H   0  0  0  0  0  0  0  0  0  0  0  0
    1.0682   -0.4416    1.9502 H   0  0  0  0  0  0  0  0  0  0  0  0
   -2.8072   -4.0753   -2.0092 H   0  0  0  0  0  0  0  0  0  0  0  0
   -6.9224   -2.8460    0.0234 H   0  0  0  0  0  0  0  0  0  0  0  0
    2.8474   -1.9484    0.5630 H   0  0  0  0  0  0  0  0  0  0  0  0
    3.1606   -0.1338   -1.8922 H   0  0  0  0  0  0  0  0  0  0  0  0
    5.1272   -2.3066   -0.9880 H   0  0  0  0  0  0  0  0  0  0  0  0
    5.5717    0.7115   -0.7139 H   0  0  0  0  0  0  0  0  0  0  0  0
    4.8940   -1.2703    1.5530 H   0  0  0  0  0  0  0  0  0  0  0  0
   -2.9861    4.4323   -1.7249 H   0  0  0  0  0  0  0  0  0  0  0  0
   -1.7412    3.2459   -2.0877 H   0  0  0  0  0  0  0  0  0  0  0  0
    6.4349    0.5717    2.2464 H   0  0  0  0  0  0  0  0  0  0  0  0
    5.2693    1.7643    1.6072 H   0  0  0  0  0  0  0  0  0  0  0  0
   -1.5382    5.4047    0.0825 H   0  0  0  0  0  0  0  0  0  0  0  0
    2.9676   -2.9469   -1.5385 H   0  0  0  0  0  0  0  0  0  0  0  0
    5.2681   -0.1482   -2.8246 H   0  0  0  0  0  0  0  0  0  0  0  0
    6.9133   -1.5757    0.3208 H   0  0  0  0  0  0  0  0  0  0  0  0
    0.5197    3.3153   -0.8148 H   0  0  0  0  0  0  0  0  0  0  0  0
    0.8396    4.6626    0.2908 H   0  0  0  0  0  0  0  0  0  0  0  0
   -0.2821    3.3855    0.7639 H   0  0  0  0  0  0  0  0  0  0  0  0
   -0.0814    5.1296   -2.6066 H   0  0  0  0  0  0  0  0  0  0  0  0
   -1.3598    6.3006   -2.2368 H   0  0  0  0  0  0  0  0  0  0  0  0
    0.1941    6.3951   -1.3966 H   0  0  0  0  0  0  0  0  0  0  0  0
    5.0085    1.3779    3.8216 H   0  0  0  0  0  0  0  0  0  0  0  0
  1 14  1  0  0  0  0
  1 42  1  0  0  0  0
  2 18  1  0  0  0  0
  2 21  1  0  0  0  0
  3 16  1  0  0  0  0
  3 46  1  0  0  0  0
  4 18  1  0  0  0  0
  4 25  1  0  0  0  0
  5 20  1  0  0  0  0
  5 47  1  0  0  0  0
  6 22  1  0  0  0  0
  6 23  1  0  0  0  0
  7 23  1  0  0  0  0
  7 28  1  0  0  0  0
  8 24  1  0  0  0  0
  8 58  1  0  0  0  0
  9 26  1  0  0  0  0
  9 59  1  0  0  0  0
 10 27  1  0  0  0  0
 10 60  1  0  0  0  0
 11 25  2  0  0  0  0
 12 30  1  0  0  0  0
 12 67  1  0  0  0  0
 13 14  1  0  0  0  0
 13 15  1  0  0  0  0
 13 18  1  0  0  0  0
 13 34  1  0  0  0  0
 14 16  1  0  0  0  0
 14 20  1  0  0  0  0
 15 17  1  0  0  0  0
 15 19  1  0  0  0  0
 15 35  1  0  0  0  0
 16 17  1  0  0  0  0
 16 36  1  0  0  0  0
 17 37  1  0  0  0  0
 17 38  1  0  0  0  0
 18 39  1  0  0  0  0
 19 21  2  0  0  0  0
 19 22  1  0  0  0  0
 20 40  1  0  0  0  0
 20 41  1  0  0  0  0
 21 43  1  0  0  0  0
 22 44  1  0  0  0  0
 22 45  1  0  0  0  0
 23 24  1  0  0  0  0
 23 48  1  0  0  0  0
 24 26  1  0  0  0  0
 24 49  1  0  0  0  0
 25 29  1  0  0  0  0
 26 27  1  0  0  0  0
 26 50  1  0  0  0  0
 27 28  1  0  0  0  0
 27 51  1  0  0  0  0
 28 30  1  0  0  0  0
 28 52  1  0  0  0  0
 29 31  1  0  0  0  0
 29 53  1  0  0  0  0
 29 54  1  0  0  0  0
 30 55  1  0  0  0  0
 30 56  1  0  0  0  0
 31 32  1  0  0  0  0
 31 33  1  0  0  0  0
 31 57  1  0  0  0  0
 32 64  1  0  0  0  0
 32 65  1  0  0  0  0
 32 66  1  0  0  0  0
 33 61  1  0  0  0  0
 33 62  1  0  0  0  0
 33 63  1  0  0  0  0
M  END
> <PUBCHEM_COMPOUND_CID>
46173906

> <PUBCHEM_CONFORMER_RMSD>
1

> <PUBCHEM_CONFORMER_DIVERSEORDER>
1
57
36
13
25
26
52
30
7
59
17
11
19
23
35
38
55
24
37
44
14
41
10
34
60
6
45
27
40
15
39
56
51
20
5
16
12
29
43
49
31
50
2
9
33
8
21
47
54
22
53
46
28
32
3
58
18
4
48
42

> <PUBCHEM_MMFF94_PARTIAL_CHARGES>
36
1 -0.68
10 -0.68
11 -0.57
12 -0.68
14 0.28
15 0.14
16 0.28
18 0.56
19 -0.28
2 -0.36
20 0.28
21 -0.07
22 0.42
23 0.56
24 0.28
25 0.66
26 0.28
27 0.28
28 0.28
29 0.06
3 -0.68
30 0.28
4 -0.43
42 0.4
43 0.15
46 0.4
47 0.4
5 -0.68
58 0.4
59 0.4
6 -0.56
60 0.4
67 0.4
7 -0.56
8 -0.68
9 -0.68

> <PUBCHEM_EFFECTIVE_ROTOR_COUNT>
11.2

> <PUBCHEM_PHARMACOPHORE_FEATURES>
22
1 1 acceptor
1 1 donor
1 10 acceptor
1 10 donor
1 11 acceptor
1 12 acceptor
1 12 donor
1 2 acceptor
1 3 acceptor
1 3 donor
1 5 acceptor
1 5 donor
1 6 acceptor
1 7 acceptor
1 8 acceptor
1 8 donor
1 9 acceptor
1 9 donor
3 31 32 33 hydrophobe
5 13 14 15 16 17 rings
6 2 13 15 18 19 21 rings
6 7 23 24 26 27 28 rings

> <PUBCHEM_HEAVY_ATOM_COUNT>
33

> <PUBCHEM_ATOM_DEF_STEREO_COUNT>
10

> <PUBCHEM_ATOM_UDEF_STEREO_COUNT>
0

> <PUBCHEM_BOND_DEF_STEREO_COUNT>
0

> <PUBCHEM_BOND_UDEF_STEREO_COUNT>
0

> <PUBCHEM_ISOTOPIC_ATOM_COUNT>
0

> <PUBCHEM_COMPONENT_COUNT>
1

> <PUBCHEM_CACTVS_TAUTO_COUNT>
1

> <PUBCHEM_CONFORMER_ID>
02C08ED200000001

> <PUBCHEM_MMFF94_ENERGY>
88.1612

> <PUBCHEM_FEATURE_SELFOVERLAP>
111.873

> <PUBCHEM_SHAPE_FINGERPRINT>
10670039 82 18343292700443851158
10937287 8 17550114005364233941
11059845 2 17551543323852277432
11488393 25 17262156926845606675
12788726 201 18130513006617937859
13583140 156 17968101971052572318
13617811 41 18412263896323032703
14294032 229 18198619020522613597
14508225 48 18338242566222601407
14910302 57 18259702306892558374
15198563 99 18411984689489669949
15419008 47 18259985955528864104
15463212 79 18270403935275556555
15876981 60 18201707470731612605
15961568 22 18196376923150884756
16067690 210 18060132146601581088
17349148 13 17561087981986731010
17818456 19 17839760488368010226
17844677 252 18408318878872461178
1813 80 18337387120153628227
19958102 18 18260829344934495591
20101258 96 18342446016155199721
21033650 10 18057302072438303686
2132832 1 18060136501339398652
22393880 68 18188204420609234606
23557571 272 18335137600903877442
23559900 14 17458903859885100906
376196 1 16907221894492778497
44249763 50 18335993059874479280
469060 322 18340474613313154067
497634 4 17385713678064126363
508706 21 18336838596990209340
531348 171 18124870407565580586
550186 7 18263640830731471340
6608658 132 18201438137664591245
6700243 42 17972002990830809822
7399639 24 18186810149301363230

> <PUBCHEM_SHAPE_MULTIPOLES>
608.69
13.04
5.94
1.98
17.21
10.98
0.39
-8.78
0.52
-8.43
-3.29
2.8
0.05
1.49

> <PUBCHEM_SHAPE_SELFOVERLAP>
1262.933

> <PUBCHEM_SHAPE_VOLUME>
341.5

> <PUBCHEM_COORDINATE_TYPE>
2
5
10

$$$$

