14925
  -OEChem-07051213152D

 20 19  0     0  0  0  0  0  0999 V2000
    5.4641    0.0950    0.0000 O   0  0  0  0  0  0  0  0  0  0  0  0
    4.5981    1.5950    0.0000 O   0  0  0  0  0  0  0  0  0  0  0  0
    2.0000    2.0950    0.0000 O   0  0  0  0  0  0  0  0  0  0  0  0
    2.8660   -2.4050    0.0000 O   0  0  0  0  0  0  0  0  0  0  0  0
    3.7320    2.0950    0.0000 O   0  0  0  0  0  0  0  0  0  0  0  0
    2.0000   -0.9050    0.0000 O   0  0  0  0  0  0  0  0  0  0  0  0
    3.7320    0.0950    0.0000 C   0  0  0  0  0  0  0  0  0  0  0  0
    2.8660    0.5950    0.0000 C   0  0  0  0  0  0  0  0  0  0  0  0
    3.7320   -0.9050    0.0000 C   0  0  0  0  0  0  0  0  0  0  0  0
    4.5981    0.5950    0.0000 C   0  0  0  0  0  0  0  0  0  0  0  0
    2.8660   -1.4050    0.0000 C   0  0  0  0  0  0  0  0  0  0  0  0
    2.8660    1.5950    0.0000 C   0  0  0  0  0  0  0  0  0  0  0  0
    3.7320    0.7150    0.0000 H   0  0  0  0  0  0  0  0  0  0  0  0
    2.2554    0.7027    0.0000 H   0  0  0  0  0  0  0  0  0  0  0  0
    2.6540    0.0124    0.0000 H   0  0  0  0  0  0  0  0  0  0  0  0
    3.9441   -1.4876    0.0000 H   0  0  0  0  0  0  0  0  0  0  0  0
    4.3426   -0.7973    0.0000 H   0  0  0  0  0  0  0  0  0  0  0  0
    6.0010    0.4050    0.0000 H   0  0  0  0  0  0  0  0  0  0  0  0
    2.0000    2.7150    0.0000 H   0  0  0  0  0  0  0  0  0  0  0  0
    3.4030   -2.7150    0.0000 H   0  0  0  0  0  0  0  0  0  0  0  0
  1 10  1  0  0  0  0
  1 18  1  0  0  0  0
  2 10  2  0  0  0  0
  3 12  1  0  0  0  0
  3 19  1  0  0  0  0
  4 11  1  0  0  0  0
  4 20  1  0  0  0  0
  5 12  2  0  0  0  0
  6 11  2  0  0  0  0
  7  8  1  0  0  0  0
  7  9  1  0  0  0  0
  7 10  1  0  0  0  0
  7 13  1  0  0  0  0
  8 12  1  0  0  0  0
  8 14  1  0  0  0  0
  8 15  1  0  0  0  0
  9 11  1  0  0  0  0
  9 16  1  0  0  0  0
  9 17  1  0  0  0  0
M  END
> <PUBCHEM_COMPOUND_CID>
14925

> <PUBCHEM_COMPOUND_CANONICALIZED>
1

> <PUBCHEM_CACTVS_COMPLEXITY>
192

> <PUBCHEM_CACTVS_HBOND_ACCEPTOR>
6

> <PUBCHEM_CACTVS_HBOND_DONOR>
3

> <PUBCHEM_CACTVS_ROTATABLE_BOND>
5

> <PUBCHEM_CACTVS_SUBSKEYS>
AAADccBgOAAAAAAAAAAAAAAAAAAAAAAAAAAAAAAAAAAAAAAAAAAAGgAACAAADQCAgAAACAAAAgAIAACQCAAAAAAAAAAAAAEAAAAAABIAAAAAQAAEAAAAAADLJgAKAAAAAAAAAAAAAAAAAAAAAAAAAAAAAA==

> <PUBCHEM_IUPAC_OPENEYE_NAME>
propane-1,2,3-tricarboxylic acid

> <PUBCHEM_IUPAC_CAS_NAME>
propane-1,2,3-tricarboxylic acid

> <PUBCHEM_IUPAC_NAME>
propane-1,2,3-tricarboxylic acid

> <PUBCHEM_IUPAC_SYSTEMATIC_NAME>
propane-1,2,3-tricarboxylic acid

> <PUBCHEM_IUPAC_TRADITIONAL_NAME>
propane-1,2,3-tricarboxylic acid

> <PUBCHEM_IUPAC_INCHI>
InChI=1S/C6H8O6/c7-4(8)1-3(6(11)12)2-5(9)10/h3H,1-2H2,(H,7,8)(H,9,10)(H,11,12)

> <PUBCHEM_IUPAC_INCHIKEY>
KQTIIICEAUMSDG-UHFFFAOYSA-N

> <PUBCHEM_XLOGP3_AA>
-1.2

> <PUBCHEM_EXACT_MASS>
176.032088

> <PUBCHEM_MOLECULAR_FORMULA>
C6H8O6

> <PUBCHEM_MOLECULAR_WEIGHT>
176.12412

> <PUBCHEM_OPENEYE_CAN_SMILES>
C(C(CC(=O)O)C(=O)O)C(=O)O

> <PUBCHEM_OPENEYE_ISO_SMILES>
C(C(CC(=O)O)C(=O)O)C(=O)O

> <PUBCHEM_CACTVS_TPSA>
112

> <PUBCHEM_MONOISOTOPIC_WEIGHT>
176.032088

> <PUBCHEM_TOTAL_CHARGE>
0

> <PUBCHEM_HEAVY_ATOM_COUNT>
12

> <PUBCHEM_ATOM_DEF_STEREO_COUNT>
0

> <PUBCHEM_ATOM_UDEF_STEREO_COUNT>
0

> <PUBCHEM_BOND_DEF_STEREO_COUNT>
0

> <PUBCHEM_BOND_UDEF_STEREO_COUNT>
0

> <PUBCHEM_ISOTOPIC_ATOM_COUNT>
0

> <PUBCHEM_COMPONENT_COUNT>
1

> <PUBCHEM_CACTVS_TAUTO_COUNT>
1

> <PUBCHEM_COORDINATE_TYPE>
1
5
255

$$$$

