46173949
  -OEChem-07051213103D

 45 46  0     1  0  0  0  0  0999 V2000
   -0.1244    0.0682   -0.0065 O   0  0  0  0  0  0  0  0  0  0  0  0
    1.7710   -0.9808    0.9271 O   0  0  0  0  0  0  0  0  0  0  0  0
   -3.1893   -0.5276    1.8967 O   0  0  0  0  0  0  0  0  0  0  0  0
   -2.0529    2.1973   -0.2600 O   0  0  0  0  0  0  0  0  0  0  0  0
    3.3513    2.6132   -0.3686 O   0  0  0  0  0  0  0  0  0  0  0  0
    3.8606    0.1397   -1.8671 O   0  0  0  0  0  0  0  0  0  0  0  0
    3.4192   -2.8837    0.9309 O   0  0  0  0  0  0  0  0  0  0  0  0
   -2.7618   -2.4679   -0.3830 N   0  0  0  0  0  0  0  0  0  0  0  0
   -4.7917   -0.2271   -0.6506 N   0  0  0  0  0  0  0  0  0  0  0  0
    0.7764    2.5963    0.9788 N   0  0  0  0  0  0  0  0  0  0  0  0
   -1.2541   -0.6878    0.4360 C   0  0  2  0  0  0  0  0  0  0  0  0
   -1.8546   -1.3957   -0.7923 C   0  0  2  0  0  0  0  0  0  0  0  0
   -2.2428    0.2420    1.1614 C   0  0  1  0  0  0  0  0  0  0  0  0
   -3.5888    0.5189   -1.0207 C   0  0  1  0  0  0  0  0  0  0  0  0
   -2.9710    1.2076    0.2100 C   0  0  2  0  0  0  0  0  0  0  0  0
   -2.5658   -0.3944   -1.7218 C   0  0  0  0  0  0  0  0  0  0  0  0
    0.8750    0.1319    0.9973 C   0  0  1  0  0  0  0  0  0  0  0  0
    1.6701    1.4407    0.8951 C   0  0  1  0  0  0  0  0  0  0  0  0
    2.4814    1.4806   -0.4063 C   0  0  2  0  0  0  0  0  0  0  0  0
    3.3273    0.2103   -0.5452 C   0  0  1  0  0  0  0  0  0  0  0  0
    2.4928   -1.0440   -0.3006 C   0  0  1  0  0  0  0  0  0  0  0  0
    3.3722   -2.2377   -0.1106 C   0  0  0  0  0  0  0  0  0  0  0  0
   -0.9173   -1.4734    1.1286 H   0  0  0  0  0  0  0  0  0  0  0  0
   -1.0400   -1.8540   -1.3680 H   0  0  0  0  0  0  0  0  0  0  0  0
   -1.6927    0.8448    1.8930 H   0  0  0  0  0  0  0  0  0  0  0  0
   -3.8905    1.2855   -1.7459 H   0  0  0  0  0  0  0  0  0  0  0  0
   -3.7529    1.7429    0.7636 H   0  0  0  0  0  0  0  0  0  0  0  0
   -1.8015    0.2419   -2.1889 H   0  0  0  0  0  0  0  0  0  0  0  0
   -3.0450   -0.9279   -2.5539 H   0  0  0  0  0  0  0  0  0  0  0  0
    0.4256    0.1014    1.9983 H   0  0  0  0  0  0  0  0  0  0  0  0
    2.3701    1.4940    1.7398 H   0  0  0  0  0  0  0  0  0  0  0  0
    1.8304    1.6053   -1.2803 H   0  0  0  0  0  0  0  0  0  0  0  0
    4.1805    0.2519    0.1428 H   0  0  0  0  0  0  0  0  0  0  0  0
    1.8129   -1.2675   -1.1311 H   0  0  0  0  0  0  0  0  0  0  0  0
   -2.2519   -3.1599    0.1644 H   0  0  0  0  0  0  0  0  0  0  0  0
   -3.1129   -2.9540   -1.2070 H   0  0  0  0  0  0  0  0  0  0  0  0
   -5.4831    0.4094   -0.2566 H   0  0  0  0  0  0  0  0  0  0  0  0
   -5.2145   -0.6329   -1.4844 H   0  0  0  0  0  0  0  0  0  0  0  0
   -3.7741    0.0924    2.3646 H   0  0  0  0  0  0  0  0  0  0  0  0
   -2.5552    2.8363   -0.7937 H   0  0  0  0  0  0  0  0  0  0  0  0
    0.2872    2.5877    1.8727 H   0  0  0  0  0  0  0  0  0  0  0  0
    1.3251    3.4548    0.9567 H   0  0  0  0  0  0  0  0  0  0  0  0
    3.9353    2.5207    0.4034 H   0  0  0  0  0  0  0  0  0  0  0  0
    3.9859   -2.5285   -0.9803 H   0  0  0  0  0  0  0  0  0  0  0  0
    3.1158    0.1127   -2.4918 H   0  0  0  0  0  0  0  0  0  0  0  0
  1 11  1  0  0  0  0
  1 17  1  0  0  0  0
  2 17  1  0  0  0  0
  2 21  1  0  0  0  0
  3 13  1  0  0  0  0
  3 39  1  0  0  0  0
  4 15  1  0  0  0  0
  4 40  1  0  0  0  0
  5 19  1  0  0  0  0
  5 43  1  0  0  0  0
  6 20  1  0  0  0  0
  6 45  1  0  0  0  0
  7 22  2  0  0  0  0
  8 12  1  0  0  0  0
  8 35  1  0  0  0  0
  8 36  1  0  0  0  0
  9 14  1  0  0  0  0
  9 37  1  0  0  0  0
  9 38  1  0  0  0  0
 10 18  1  0  0  0  0
 10 41  1  0  0  0  0
 10 42  1  0  0  0  0
 11 12  1  0  0  0  0
 11 13  1  0  0  0  0
 11 23  1  0  0  0  0
 12 16  1  0  0  0  0
 12 24  1  0  0  0  0
 13 15  1  0  0  0  0
 13 25  1  0  0  0  0
 14 15  1  0  0  0  0
 14 16  1  0  0  0  0
 14 26  1  0  0  0  0
 15 27  1  0  0  0  0
 16 28  1  0  0  0  0
 16 29  1  0  0  0  0
 17 18  1  0  0  0  0
 17 30  1  0  0  0  0
 18 19  1  0  0  0  0
 18 31  1  0  0  0  0
 19 20  1  0  0  0  0
 19 32  1  0  0  0  0
 20 21  1  0  0  0  0
 20 33  1  0  0  0  0
 21 22  1  0  0  0  0
 21 34  1  0  0  0  0
 22 44  1  0  0  0  0
M  END
> <PUBCHEM_COMPOUND_CID>
46173949

> <PUBCHEM_CONFORMER_RMSD>
0.8

> <PUBCHEM_CONFORMER_DIVERSEORDER>
1
6
3
4
2
5

> <PUBCHEM_MMFF94_PARTIAL_CHARGES>
32
1 -0.56
10 -0.99
11 0.28
12 0.27
13 0.28
14 0.27
15 0.28
17 0.56
18 0.27
19 0.28
2 -0.56
20 0.28
21 0.34
22 0.45
3 -0.68
35 0.36
36 0.36
37 0.36
38 0.36
39 0.4
4 -0.68
40 0.4
41 0.36
42 0.36
43 0.4
44 0.06
45 0.4
5 -0.68
6 -0.68
7 -0.57
8 -0.99
9 -0.99

> <PUBCHEM_EFFECTIVE_ROTOR_COUNT>
5.4

> <PUBCHEM_PHARMACOPHORE_FEATURES>
19
1 1 acceptor
1 10 cation
1 10 donor
1 2 acceptor
1 3 acceptor
1 3 donor
1 4 acceptor
1 4 donor
1 5 acceptor
1 5 donor
1 6 acceptor
1 6 donor
1 7 acceptor
1 8 cation
1 8 donor
1 9 cation
1 9 donor
6 11 12 13 14 15 16 rings
6 2 17 18 19 20 21 rings

> <PUBCHEM_HEAVY_ATOM_COUNT>
22

> <PUBCHEM_ATOM_DEF_STEREO_COUNT>
10

> <PUBCHEM_ATOM_UDEF_STEREO_COUNT>
0

> <PUBCHEM_BOND_DEF_STEREO_COUNT>
0

> <PUBCHEM_BOND_UDEF_STEREO_COUNT>
0

> <PUBCHEM_ISOTOPIC_ATOM_COUNT>
0

> <PUBCHEM_COMPONENT_COUNT>
1

> <PUBCHEM_CACTVS_TAUTO_COUNT>
2

> <PUBCHEM_CONFORMER_ID>
02C08EFD00000001

> <PUBCHEM_MMFF94_ENERGY>
41.7089

> <PUBCHEM_FEATURE_SELFOVERLAP>
96.483

> <PUBCHEM_SHAPE_FINGERPRINT>
10498660 4 18269560442268970781
11265709 11 18125166185052399514
11578080 2 17678199254531217584
12173636 292 15985115136686930639
12553582 1 18188480389189574882
13004483 165 17623587736504204786
13134695 92 18270691982026814726
13224815 77 18271244919662382681
15442244 35 18265055906380654600
16752209 62 17898849325154541944
16945 1 18337955597365780944
17349148 13 17458069295740567999
18186145 218 18337941291241089988
18981168 100 16271935946851634406
192875 21 17968678106222860519
19862831 5 18040999501215019429
20645477 70 18407759239980219974
21634736 98 18336823182405032628
22802520 49 18202279229768549552
23559900 14 18262533544975667890
23598291 2 17822276985901397793
2748010 2 17184474218049439584
3082319 5 18333450919632845892
312423 11 18337103557600863001
3797600 57 10374996689330310860
5161694 15 17845941830505909206
6049 1 17775556550825195665
74978 22 18334862709827350763
81228 2 17759518164111511522
9981440 41 17981898440962457272

> <PUBCHEM_SHAPE_MULTIPOLES>
396.72
7.83
2.63
1.41
0.96
0.02
-0.04
1.35
-1.9
-2.04
0.29
0.34
0.08
-0.6

> <PUBCHEM_SHAPE_SELFOVERLAP>
815.397

> <PUBCHEM_SHAPE_VOLUME>
223.7

> <PUBCHEM_COORDINATE_TYPE>
2
5
10

$$$$

