442129
  -OEChem-07051212572D

 57 59  0     1  0  0  0  0  0999 V2000
    7.2342   -2.8675    0.0000 O   0  0  0  0  0  0  0  0  0  0  0  0
    5.4641   -0.8087    0.0000 O   0  0  0  0  0  0  0  0  0  0  0  0
    7.2458    0.2018    0.0000 O   0  0  0  0  0  0  0  0  0  0  0  0
    8.9781    0.2087    0.0000 O   0  0  0  0  0  0  0  0  0  0  0  0
    4.5923   -2.3053    0.0000 O   0  0  0  0  0  0  0  0  0  0  0  0
    5.5139    0.2218    0.0000 O   0  0  0  0  0  0  0  0  0  0  0  0
    9.8723    1.7364    0.0000 O   0  0  0  0  0  0  0  0  0  0  0  0
    6.3282   -2.3536    0.0000 C   0  0  0  0  0  0  0  0  0  0  0  0
    6.3282   -1.3120    0.0000 C   0  0  1  0  0  0  0  0  0  0  0  0
    7.2342   -0.7982    0.0000 C   0  0  1  0  0  0  0  0  0  0  0  0
    8.1282   -1.3328    0.0000 C   0  0  0  0  0  0  0  0  0  0  0  0
    8.1282   -2.3328    0.0000 C   0  0  0  0  0  0  0  0  0  0  0  0
    5.8315   -3.2216    0.0000 C   0  0  0  0  0  0  0  0  0  0  0  0
    5.3282   -2.3575    0.0000 C   0  0  0  0  0  0  0  0  0  0  0  0
    8.9942   -0.8328    0.0000 C   0  0  0  0  0  0  0  0  0  0  0  0
    8.9942   -2.8328    0.0000 C   0  0  0  0  0  0  0  0  0  0  0  0
    9.8602   -1.3328    0.0000 C   0  0  0  0  0  0  0  0  0  0  0  0
    9.8602   -2.3328    0.0000 C   0  0  0  0  0  0  0  0  0  0  0  0
    4.5961   -1.3053    0.0000 C   0  0  0  0  0  0  0  0  0  0  0  0
   10.7702   -0.8260    0.0000 C   0  0  0  0  0  0  0  0  0  0  0  0
    6.3856    0.7117    0.0000 C   0  0  0  0  0  0  0  0  0  0  0  0
    9.8762    0.7364    0.0000 C   0  0  0  0  0  0  0  0  0  0  0  0
   10.7783    0.2156    0.0000 C   0  0  0  0  0  0  0  0  0  0  0  0
    3.7320   -0.8020    0.0000 C   0  0  0  0  0  0  0  0  0  0  0  0
    6.3972    1.7117    0.0000 C   0  0  0  0  0  0  0  0  0  0  0  0
    2.8641   -1.2987    0.0000 C   0  0  0  0  0  0  0  0  0  0  0  0
    5.5370    2.2217    0.0000 C   0  0  0  0  0  0  0  0  0  0  0  0
    2.0000   -0.7953    0.0000 C   0  0  0  0  0  0  0  0  0  0  0  0
    2.8602   -2.2987    0.0000 C   0  0  0  0  0  0  0  0  0  0  0  0
    5.5486    3.2216    0.0000 C   0  0  0  0  0  0  0  0  0  0  0  0
    4.6652    1.7317    0.0000 C   0  0  0  0  0  0  0  0  0  0  0  0
    5.7906   -1.6210    0.0000 H   0  0  0  0  0  0  0  0  0  0  0  0
    6.7003   -0.4830    0.0000 H   0  0  0  0  0  0  0  0  0  0  0  0
    5.2934   -2.9137    0.0000 H   0  0  0  0  0  0  0  0  0  0  0  0
    5.5236   -3.7597    0.0000 H   0  0  0  0  0  0  0  0  0  0  0  0
    6.3696   -3.5295    0.0000 H   0  0  0  0  0  0  0  0  0  0  0  0
    5.3258   -1.7375    0.0000 H   0  0  0  0  0  0  0  0  0  0  0  0
    4.7082   -2.3599    0.0000 H   0  0  0  0  0  0  0  0  0  0  0  0
    5.3306   -2.9775    0.0000 H   0  0  0  0  0  0  0  0  0  0  0  0
    8.9942   -3.4528    0.0000 H   0  0  0  0  0  0  0  0  0  0  0  0
   10.3972   -2.6428    0.0000 H   0  0  0  0  0  0  0  0  0  0  0  0
   11.3035   -1.1422    0.0000 H   0  0  0  0  0  0  0  0  0  0  0  0
   11.3164    0.5235    0.0000 H   0  0  0  0  0  0  0  0  0  0  0  0
    3.7344   -0.1820    0.0000 H   0  0  0  0  0  0  0  0  0  0  0  0
    6.9377    2.0154    0.0000 H   0  0  0  0  0  0  0  0  0  0  0  0
    2.2402   -2.2963    0.0000 H   0  0  0  0  0  0  0  0  0  0  0  0
    2.8578   -2.9186    0.0000 H   0  0  0  0  0  0  0  0  0  0  0  0
    3.4802   -2.3010    0.0000 H   0  0  0  0  0  0  0  0  0  0  0  0
    2.3121   -0.2596    0.0000 H   0  0  0  0  0  0  0  0  0  0  0  0
    1.4643   -0.4833    0.0000 H   0  0  0  0  0  0  0  0  0  0  0  0
    1.6879   -1.3311    0.0000 H   0  0  0  0  0  0  0  0  0  0  0  0
    4.3615    2.2722    0.0000 H   0  0  0  0  0  0  0  0  0  0  0  0
    4.1248    1.4279    0.0000 H   0  0  0  0  0  0  0  0  0  0  0  0
    4.9690    1.1912    0.0000 H   0  0  0  0  0  0  0  0  0  0  0  0
    6.1685    3.2144    0.0000 H   0  0  0  0  0  0  0  0  0  0  0  0
    5.5557    3.8416    0.0000 H   0  0  0  0  0  0  0  0  0  0  0  0
    4.9286    3.2288    0.0000 H   0  0  0  0  0  0  0  0  0  0  0  0
  1  8  1  0  0  0  0
  1 12  1  0  0  0  0
  9  2  1  6  0  0  0
  2 19  1  0  0  0  0
 10  3  1  6  0  0  0
  3 21  1  0  0  0  0
  4 15  1  0  0  0  0
  4 22  1  0  0  0  0
  5 19  2  0  0  0  0
  6 21  2  0  0  0  0
  7 22  2  0  0  0  0
  8  9  1  0  0  0  0
  8 13  1  0  0  0  0
  8 14  1  0  0  0  0
  9 10  1  0  0  0  0
  9 32  1  0  0  0  0
 10 11  1  0  0  0  0
 10 33  1  0  0  0  0
 11 12  2  0  0  0  0
 11 15  1  0  0  0  0
 12 16  1  0  0  0  0
 13 34  1  0  0  0  0
 13 35  1  0  0  0  0
 13 36  1  0  0  0  0
 14 37  1  0  0  0  0
 14 38  1  0  0  0  0
 14 39  1  0  0  0  0
 15 17  2  0  0  0  0
 16 18  2  0  0  0  0
 16 40  1  0  0  0  0
 17 18  1  0  0  0  0
 17 20  1  0  0  0  0
 18 41  1  0  0  0  0
 19 24  1  0  0  0  0
 20 23  2  0  0  0  0
 20 42  1  0  0  0  0
 21 25  1  0  0  0  0
 22 23  1  0  0  0  0
 23 43  1  0  0  0  0
 24 26  2  0  0  0  0
 24 44  1  0  0  0  0
 25 27  2  0  0  0  0
 25 45  1  0  0  0  0
 26 28  1  0  0  0  0
 26 29  1  0  0  0  0
 27 30  1  0  0  0  0
 27 31  1  0  0  0  0
 28 49  1  0  0  0  0
 28 50  1  0  0  0  0
 28 51  1  0  0  0  0
 29 46  1  0  0  0  0
 29 47  1  0  0  0  0
 29 48  1  0  0  0  0
 30 55  1  0  0  0  0
 30 56  1  0  0  0  0
 30 57  1  0  0  0  0
 31 52  1  0  0  0  0
 31 53  1  0  0  0  0
 31 54  1  0  0  0  0
M  END
> <PUBCHEM_COMPOUND_CID>
442129

> <PUBCHEM_COMPOUND_CANONICALIZED>
1

> <PUBCHEM_CACTVS_COMPLEXITY>
827

> <PUBCHEM_CACTVS_HBOND_ACCEPTOR>
7

> <PUBCHEM_CACTVS_HBOND_DONOR>
0

> <PUBCHEM_CACTVS_ROTATABLE_BOND>
6

> <PUBCHEM_CACTVS_SUBSKEYS>
AAADceB4OAAAAAAAAAAAAAAAAAAAAAAAAAA0QIAAAAAAAACRAAAAGgAAAAAADFSgmAIyDoAABACIAiDSCAACCAAgIAAIiAAGCMgNJyKEMRqCOiClwBUKqYfA4PwOIAACCAAIAABAAAQQABAAAAAAAAAAAA==

> <PUBCHEM_IUPAC_OPENEYE_NAME>
[(9R,10R)-8,8-dimethyl-9-(3-methylbut-2-enoyloxy)-2-oxo-9,10-dihydropyrano[2,3-f]chromen-10-yl] 3-methylbut-2-enoate

> <PUBCHEM_IUPAC_CAS_NAME>
3-methyl-2-butenoic acid [(9R,10R)-8,8-dimethyl-9-(3-methyl-1-oxobut-2-enoxy)-2-oxo-9,10-dihydropyrano[2,3-f][1]benzopyran-10-yl] ester

> <PUBCHEM_IUPAC_NAME>
[(9R,10R)-8,8-dimethyl-9-(3-methylbut-2-enoyloxy)-2-oxo-9,10-dihydropyrano[2,3-f]chromen-10-yl] 3-methylbut-2-enoate

> <PUBCHEM_IUPAC_SYSTEMATIC_NAME>
[(9R,10R)-8,8-dimethyl-9-(3-methylbut-2-enoyloxy)-2-oxidanylidene-9,10-dihydropyrano[2,3-f]chromen-10-yl] 3-methylbut-2-enoate

> <PUBCHEM_IUPAC_TRADITIONAL_NAME>
3-methylbut-2-enoic acid [(9R,10R)-2-keto-8,8-dimethyl-9-(3-methylbut-2-enoyloxy)-9,10-dihydropyrano[2,3-f]chromen-10-yl] ester

> <PUBCHEM_IUPAC_INCHI>
InChI=1S/C24H26O7/c1-13(2)11-18(26)29-22-20-16(9-7-15-8-10-17(25)28-21(15)20)31-24(5,6)23(22)30-19(27)12-14(3)4/h7-12,22-23H,1-6H3/t22-,23-/m1/s1

> <PUBCHEM_IUPAC_INCHIKEY>
UHWIZIJICYWABA-DHIUTWEWSA-N

> <PUBCHEM_XLOGP3_AA>
4.8

> <PUBCHEM_EXACT_MASS>
426.167853

> <PUBCHEM_MOLECULAR_FORMULA>
C24H26O7

> <PUBCHEM_MOLECULAR_WEIGHT>
426.45904

> <PUBCHEM_OPENEYE_CAN_SMILES>
CC(=CC(=O)OC1C(C(OC2=C1C3=C(C=C2)C=CC(=O)O3)(C)C)OC(=O)C=C(C)C)C

> <PUBCHEM_OPENEYE_ISO_SMILES>
CC(=CC(=O)O[C@H]1[C@H](C(OC2=C1C3=C(C=C2)C=CC(=O)O3)(C)C)OC(=O)C=C(C)C)C

> <PUBCHEM_CACTVS_TPSA>
88.1

> <PUBCHEM_MONOISOTOPIC_WEIGHT>
426.167853

> <PUBCHEM_TOTAL_CHARGE>
0

> <PUBCHEM_HEAVY_ATOM_COUNT>
31

> <PUBCHEM_ATOM_DEF_STEREO_COUNT>
2

> <PUBCHEM_ATOM_UDEF_STEREO_COUNT>
0

> <PUBCHEM_BOND_DEF_STEREO_COUNT>
0

> <PUBCHEM_BOND_UDEF_STEREO_COUNT>
0

> <PUBCHEM_ISOTOPIC_ATOM_COUNT>
0

> <PUBCHEM_COMPONENT_COUNT>
1

> <PUBCHEM_CACTVS_TAUTO_COUNT>
1

> <PUBCHEM_COORDINATE_TYPE>
1
5
255

> <PUBCHEM_BONDANNOTATIONS>
11  12  8
11  15  8
12  16  8
15  17  8
16  18  8
17  18  8
17  20  8
9  2  6
20  23  8
22  23  8
10  3  6
4  15  8
4  22  8

$$$$

