241544
  -OEChem-07051213063D

 46 49  0     1  0  0  0  0  0999 V2000
    0.4135    0.4665    1.4277 O   0  0  0  0  0  0  0  0  0  0  0  0
   -4.8915    1.1073    0.8652 O   0  0  0  0  0  0  0  0  0  0  0  0
    5.3973   -0.0643    1.1746 O   0  0  0  0  0  0  0  0  0  0  0  0
   -0.6231   -0.8042   -0.3971 C   0  0  1  0  0  0  0  0  0  0  0  0
   -1.9906   -0.7098    0.2891 C   0  0  1  0  0  0  0  0  0  0  0  0
    0.2350    0.4587   -0.0078 C   0  0  2  0  0  0  0  0  0  0  0  0
   -2.7678    0.5397   -0.1779 C   0  0  2  0  0  0  0  0  0  0  0  0
    1.6687    0.4083   -0.6762 C   0  0  1  0  0  0  0  0  0  0  0  0
   -0.5582    1.7687   -0.3011 C   0  0  0  0  0  0  0  0  0  0  0  0
   -1.9933    1.7745    0.2727 C   0  0  0  0  0  0  0  0  0  0  0  0
   -2.9986   -1.8460    0.1516 C   0  0  0  0  0  0  0  0  0  0  0  0
    0.1007   -2.1172   -0.0610 C   0  0  0  0  0  0  0  0  0  0  0  0
   -4.0787    0.2551    0.5325 C   0  0  0  0  0  0  0  0  0  0  0  0
   -4.2762   -1.2366    0.7495 C   0  0  0  0  0  0  0  0  0  0  0  0
    2.3034   -0.9547   -0.3628 C   0  0  0  0  0  0  0  0  0  0  0  0
    1.4836   -2.1748   -0.7081 C   0  0  0  0  0  0  0  0  0  0  0  0
   -3.0962    0.6095   -1.6819 C   0  0  0  0  0  0  0  0  0  0  0  0
    1.6082    0.5722   -2.2140 C   0  0  0  0  0  0  0  0  0  0  0  0
    2.5402    1.5539   -0.1772 C   0  0  0  0  0  0  0  0  0  0  0  0
    3.4975   -1.0960    0.2344 C   0  0  0  0  0  0  0  0  0  0  0  0
    3.7282    1.4147    0.4191 C   0  0  0  0  0  0  0  0  0  0  0  0
    4.2980    0.0745    0.6488 C   0  0  0  0  0  0  0  0  0  0  0  0
   -0.7811   -0.8063   -1.4813 H   0  0  0  0  0  0  0  0  0  0  0  0
   -1.8161   -0.6403    1.3740 H   0  0  0  0  0  0  0  0  0  0  0  0
   -0.6131    1.9478   -1.3793 H   0  0  0  0  0  0  0  0  0  0  0  0
   -0.0420    2.6303    0.1384 H   0  0  0  0  0  0  0  0  0  0  0  0
   -1.9764    1.8441    1.3668 H   0  0  0  0  0  0  0  0  0  0  0  0
   -2.5063    2.6854   -0.0615 H   0  0  0  0  0  0  0  0  0  0  0  0
   -2.6991   -2.7442    0.7008 H   0  0  0  0  0  0  0  0  0  0  0  0
   -3.1491   -2.1307   -0.8953 H   0  0  0  0  0  0  0  0  0  0  0  0
   -0.4867   -2.9735   -0.4125 H   0  0  0  0  0  0  0  0  0  0  0  0
    0.1984   -2.2253    1.0268 H   0  0  0  0  0  0  0  0  0  0  0  0
   -4.3399   -1.4318    1.8239 H   0  0  0  0  0  0  0  0  0  0  0  0
   -5.1708   -1.5930    0.2346 H   0  0  0  0  0  0  0  0  0  0  0  0
    1.3827   -2.2508   -1.7971 H   0  0  0  0  0  0  0  0  0  0  0  0
    1.9836   -3.0960   -0.3848 H   0  0  0  0  0  0  0  0  0  0  0  0
   -2.2038    0.6393   -2.3123 H   0  0  0  0  0  0  0  0  0  0  0  0
   -3.7061   -0.2361   -2.0174 H   0  0  0  0  0  0  0  0  0  0  0  0
   -3.6786    1.5130   -1.9000 H   0  0  0  0  0  0  0  0  0  0  0  0
    2.5970    0.4208   -2.6668 H   0  0  0  0  0  0  0  0  0  0  0  0
    0.9288   -0.1404   -2.6906 H   0  0  0  0  0  0  0  0  0  0  0  0
    1.2800    1.5762   -2.5067 H   0  0  0  0  0  0  0  0  0  0  0  0
    2.1820    2.5678   -0.3408 H   0  0  0  0  0  0  0  0  0  0  0  0
   -0.4174    0.6754    1.8781 H   0  0  0  0  0  0  0  0  0  0  0  0
    3.9145   -2.0735    0.4532 H   0  0  0  0  0  0  0  0  0  0  0  0
    4.3038    2.2761    0.7371 H   0  0  0  0  0  0  0  0  0  0  0  0
  1  6  1  0  0  0  0
  1 44  1  0  0  0  0
  2 13  2  0  0  0  0
  3 22  2  0  0  0  0
  4  5  1  0  0  0  0
  4  6  1  0  0  0  0
  4 12  1  0  0  0  0
  4 23  1  0  0  0  0
  5  7  1  0  0  0  0
  5 11  1  0  0  0  0
  5 24  1  0  0  0  0
  6  8  1  0  0  0  0
  6  9  1  0  0  0  0
  7 10  1  0  0  0  0
  7 13  1  0  0  0  0
  7 17  1  0  0  0  0
  8 15  1  0  0  0  0
  8 18  1  0  0  0  0
  8 19  1  0  0  0  0
  9 10  1  0  0  0  0
  9 25  1  0  0  0  0
  9 26  1  0  0  0  0
 10 27  1  0  0  0  0
 10 28  1  0  0  0  0
 11 14  1  0  0  0  0
 11 29  1  0  0  0  0
 11 30  1  0  0  0  0
 12 16  1  0  0  0  0
 12 31  1  0  0  0  0
 12 32  1  0  0  0  0
 13 14  1  0  0  0  0
 14 33  1  0  0  0  0
 14 34  1  0  0  0  0
 15 16  1  0  0  0  0
 15 20  2  0  0  0  0
 16 35  1  0  0  0  0
 16 36  1  0  0  0  0
 17 37  1  0  0  0  0
 17 38  1  0  0  0  0
 17 39  1  0  0  0  0
 18 40  1  0  0  0  0
 18 41  1  0  0  0  0
 18 42  1  0  0  0  0
 19 21  2  0  0  0  0
 19 43  1  0  0  0  0
 20 22  1  0  0  0  0
 20 45  1  0  0  0  0
 21 22  1  0  0  0  0
 21 46  1  0  0  0  0
M  END
> <PUBCHEM_COMPOUND_CID>
241544

> <PUBCHEM_CONFORMER_RMSD>
0.6

> <PUBCHEM_CONFORMER_DIVERSEORDER>
1

> <PUBCHEM_MMFF94_PARTIAL_CHARGES>
18
1 -0.68
13 0.45
14 0.06
15 -0.28
16 0.14
19 -0.29
2 -0.57
20 -0.14
21 -0.14
22 0.54
3 -0.57
43 0.15
44 0.4
45 0.15
46 0.15
6 0.28
7 0.06
8 0.28

> <PUBCHEM_EFFECTIVE_ROTOR_COUNT>
1.2

> <PUBCHEM_PHARMACOPHORE_FEATURES>
8
1 1 acceptor
1 1 donor
1 2 acceptor
1 3 acceptor
5 5 7 11 13 14 rings
6 4 5 6 7 9 10 rings
6 4 6 8 12 15 16 rings
6 8 15 19 20 21 22 rings

> <PUBCHEM_HEAVY_ATOM_COUNT>
22

> <PUBCHEM_ATOM_DEF_STEREO_COUNT>
5

> <PUBCHEM_ATOM_UDEF_STEREO_COUNT>
0

> <PUBCHEM_BOND_DEF_STEREO_COUNT>
0

> <PUBCHEM_BOND_UDEF_STEREO_COUNT>
0

> <PUBCHEM_ISOTOPIC_ATOM_COUNT>
0

> <PUBCHEM_COMPONENT_COUNT>
1

> <PUBCHEM_CACTVS_TAUTO_COUNT>
6

> <PUBCHEM_CONFORMER_ID>
0003AF8800000001

> <PUBCHEM_MMFF94_ENERGY>
70.7489

> <PUBCHEM_FEATURE_SELFOVERLAP>
40.696

> <PUBCHEM_SHAPE_FINGERPRINT>
10062212 137 18342459201530854547
10759866 29 17844235230083803388
10863032 1 18410011005149115518
10967382 1 18409726287456278695
11132069 177 18341606023546823199
11370993 70 18339088180157229534
12011746 2 18409449211391216646
12236239 1 17846495920495550244
12251169 10 18412831274571624674
12403259 415 18411422817188040556
12403260 363 18264215707518993927
12403814 3 17918272035425181405
12592029 89 18341611538253462610
12633257 1 18335989705262220448
12839892 36 18409457976882021194
13140716 1 18338797797386646544
13224815 77 18409445873494752295
13581323 91 18343019978156698252
13583140 156 17346336902355462230
13675066 3 17988924461628412409
14178342 30 18339633542393893825
14223421 5 18264204875664253454
14341114 176 18410008866819865810
14787075 74 18188216390213141754
15196674 1 18410008819058377571
15375358 24 18334574663866986941
15536298 74 18260822747848449542
15788980 27 17346884442198398965
15848702 151 13254803481114840328
16945 1 18339076124147087030
17349148 13 18059853952398979438
1813 80 17060338552626367262
18186145 218 18409162225248752774
19050596 39 18411697673181856353
19784866 9 18334574663424077075
200 152 18188219732219814343
20715895 44 18057330689753007077
21069387 34 16487253244589542032
21267235 1 18340759377717997458
21421861 104 18129381681829797042
21637258 2 15554462812023877080
21756936 100 17752495248770655400
22182313 1 18198061580362757071
22854114 111 18411414007782374343
23402539 116 18334867094941383413
23419403 2 16610046926507413075
23557571 272 18187911846861647895
23559900 14 18334291007305710238
26918003 58 18413111666731481577
2748010 2 18411690002470752647
2838139 119 14924807601353837866
296302 2 16515404066486101870
335352 9 18337950215724260455
34934 24 18334580178763328503
350125 39 18410290299031941784
42 15 18202001018987771128
4340502 62 18335129921818869899
5104073 3 18340485573494615665
633830 44 18040148505048494660
7364860 26 18116145743901671646
9709674 26 18335418031887374999

> <PUBCHEM_SHAPE_MULTIPOLES>
435.14
8.73
2.05
1.25
0.42
0.46
0.49
-0.43
-3.04
-0.22
0.09
0.18
-0.22
0.2

> <PUBCHEM_SHAPE_SELFOVERLAP>
950.22

> <PUBCHEM_SHAPE_VOLUME>
234.7

> <PUBCHEM_COORDINATE_TYPE>
2
5
10

$$$$

