439786
  -OEChem-07051212473D

 28 29  0     0  0  0  0  0  0999 V2000
    1.6830    0.0137   -0.6043 N   0  3  0  0  0  0  0  0  0  0  0  0
   -2.5949    0.8991    0.4618 N   0  0  0  0  0  0  0  0  0  0  0  0
   -2.5083   -1.4484   -0.0760 N   0  0  0  0  0  0  0  0  0  0  0  0
   -0.8578    2.3513   -0.2437 N   0  0  0  0  0  0  0  0  0  0  0  0
    0.5513    0.1926   -1.5094 C   0  0  0  0  0  0  0  0  0  0  0  0
   -0.7565    0.0165   -0.7874 C   0  0  0  0  0  0  0  0  0  0  0  0
   -1.4216    1.0528   -0.1866 C   0  0  0  0  0  0  0  0  0  0  0  0
    2.2005   -1.2131   -0.4527 C   0  0  0  0  0  0  0  0  0  0  0  0
    2.1673    1.0815    0.0445 C   0  0  0  0  0  0  0  0  0  0  0  0
   -1.3377   -1.2226   -0.7077 C   0  0  0  0  0  0  0  0  0  0  0  0
    3.2765   -1.4135    0.4002 C   0  0  0  0  0  0  0  0  0  0  0  0
    3.2424    0.9408    0.9102 C   0  0  0  0  0  0  0  0  0  0  0  0
   -3.0742   -0.3594    0.4782 C   0  0  0  0  0  0  0  0  0  0  0  0
    3.7998   -0.3221    1.0869 C   0  0  0  0  0  0  0  0  0  0  0  0
   -4.3698   -0.5692    1.1860 C   0  0  0  0  0  0  0  0  0  0  0  0
    0.6414   -0.5455   -2.3181 H   0  0  0  0  0  0  0  0  0  0  0  0
    0.6461    1.1605   -2.0127 H   0  0  0  0  0  0  0  0  0  0  0  0
    1.7530   -2.0243   -1.0142 H   0  0  0  0  0  0  0  0  0  0  0  0
    1.7188    2.0464   -0.1489 H   0  0  0  0  0  0  0  0  0  0  0  0
   -0.8862   -2.1020   -1.1544 H   0  0  0  0  0  0  0  0  0  0  0  0
    3.7025   -2.4028    0.5287 H   0  0  0  0  0  0  0  0  0  0  0  0
    3.6458    1.8006    1.4343 H   0  0  0  0  0  0  0  0  0  0  0  0
    4.6429   -0.4554    1.7583 H   0  0  0  0  0  0  0  0  0  0  0  0
   -0.3803    2.6369   -1.0884 H   0  0  0  0  0  0  0  0  0  0  0  0
   -1.3742    3.0743    0.2443 H   0  0  0  0  0  0  0  0  0  0  0  0
   -5.1846   -0.6205    0.4579 H   0  0  0  0  0  0  0  0  0  0  0  0
   -4.3480   -1.5028    1.7566 H   0  0  0  0  0  0  0  0  0  0  0  0
   -4.5752    0.2497    1.8826 H   0  0  0  0  0  0  0  0  0  0  0  0
  1  5  1  0  0  0  0
  1  8  2  0  0  0  0
  1  9  1  0  0  0  0
  2  7  2  0  0  0  0
  2 13  1  0  0  0  0
  3 10  1  0  0  0  0
  3 13  2  0  0  0  0
  4  7  1  0  0  0  0
  4 24  1  0  0  0  0
  4 25  1  0  0  0  0
  5  6  1  0  0  0  0
  5 16  1  0  0  0  0
  5 17  1  0  0  0  0
  6  7  1  0  0  0  0
  6 10  2  0  0  0  0
  8 11  1  0  0  0  0
  8 18  1  0  0  0  0
  9 12  2  0  0  0  0
  9 19  1  0  0  0  0
 10 20  1  0  0  0  0
 11 14  2  0  0  0  0
 11 21  1  0  0  0  0
 12 14  1  0  0  0  0
 12 22  1  0  0  0  0
 13 15  1  0  0  0  0
 14 23  1  0  0  0  0
 15 26  1  0  0  0  0
 15 27  1  0  0  0  0
 15 28  1  0  0  0  0
M  CHG  1   1   1
M  END
> <PUBCHEM_COMPOUND_CID>
439786

> <PUBCHEM_CONFORMER_RMSD>
0.6

> <PUBCHEM_CONFORMER_DIVERSEORDER>
1
5
3
4
2

> <PUBCHEM_MMFF94_PARTIAL_CHARGES>
23
1 -0.21
10 0.16
11 -0.15
12 -0.15
13 0.48
14 -0.15
15 0.14
18 0.15
19 0.15
2 -0.62
20 0.15
21 0.15
22 0.15
23 0.15
24 0.4
25 0.4
3 -0.62
4 -0.9
5 0.63
6 -0.14
7 0.41
8 0.21
9 0.21

> <PUBCHEM_EFFECTIVE_ROTOR_COUNT>
2

> <PUBCHEM_PHARMACOPHORE_FEATURES>
5
1 4 donor
3 2 3 13 cation
3 2 4 7 cation
6 1 8 9 11 12 14 rings
6 2 3 6 7 10 13 rings

> <PUBCHEM_HEAVY_ATOM_COUNT>
15

> <PUBCHEM_ATOM_DEF_STEREO_COUNT>
0

> <PUBCHEM_ATOM_UDEF_STEREO_COUNT>
0

> <PUBCHEM_BOND_DEF_STEREO_COUNT>
0

> <PUBCHEM_BOND_UDEF_STEREO_COUNT>
0

> <PUBCHEM_ISOTOPIC_ATOM_COUNT>
0

> <PUBCHEM_COMPONENT_COUNT>
1

> <PUBCHEM_CACTVS_TAUTO_COUNT>
3

> <PUBCHEM_CONFORMER_ID>
0006B5EA00000001

> <PUBCHEM_MMFF94_ENERGY>
50.0754

> <PUBCHEM_FEATURE_SELFOVERLAP>
25.508

> <PUBCHEM_SHAPE_FINGERPRINT>
10618630 7 18060416910842232027
11031198 65 14418127426603743958
11127187 94 11959721694542442457
11132069 177 18040997341115514319
12251169 10 18260548909259975660
12382932 28 18334858277294494239
12507560 40 18335704987426750532
12633257 1 18113623369537670290
12696612 119 18335143068429153652
13296908 3 16630535020110456366
13581323 91 18341611533636449142
13675066 3 18202561770350492475
13693222 15 18411421695752663562
13764800 53 15357695236807574631
15653759 3 18411421756172395112
15775835 57 17458632168442288306
15885798 251 18131625682510210769
15906896 17 14402953212615628013
16945 1 18335420196471420252
17804303 29 18265042720857735262
18186145 218 9295296023350915535
19049666 15 17828763177055948054
19868273 293 7132432423691413612
20361792 2 16415480458517950702
20528008 55 18260838093887612087
20559304 39 18341603802948719076
20671657 53 15913331281819758444
20871999 31 9511159838634656753
21501925 9 18343581815671352927
22445834 79 18342742956908424082
22646028 28 16773798099459623330
23402539 116 18187939395525429717
23419403 2 16448179831728867741
25 1 8141817113503729828
26918003 58 17917717885269022771
2748010 2 18046622583952074196
3082319 5 10519990374132529026
4072396 5 18410846695060071651
5262128 65 12391231672977713530
5374978 207 18409163307849536625
90316 7 18341607161655680013

> <PUBCHEM_SHAPE_MULTIPOLES>
288.77
7.08
1.67
1.16
0.97
0.4
0.05
-1.65
-3.72
-0.03
0.05
-0.04
-0.05
0.19

> <PUBCHEM_SHAPE_SELFOVERLAP>
616.794

> <PUBCHEM_SHAPE_VOLUME>
156.7

> <PUBCHEM_COORDINATE_TYPE>
2
5
10

$$$$

