440473
  -OEChem-07051212492D

 24 24  0     1  0  0  0  0  0999 V2000
    2.5369    2.6900    0.0000 O   0  0  0  0  0  0  0  0  0  0  0  0
    6.0010   -2.3100    0.0000 O   0  0  0  0  0  0  0  0  0  0  0  0
    4.2690    2.6900    0.0000 O   0  0  0  0  0  0  0  0  0  0  0  0
    4.2690   -3.3100    0.0000 O   0  0  0  0  0  0  0  0  0  0  0  0
    4.2690   -0.3100    0.0000 N   0  0  0  0  0  0  0  0  0  0  0  0
    2.5369    0.6900    0.0000 N   0  0  0  0  0  0  0  0  0  0  0  0
    4.2690    0.6900    0.0000 C   0  0  0  0  0  0  0  0  0  0  0  0
    3.4030    1.1900    0.0000 C   0  0  1  0  0  0  0  0  0  0  0  0
    5.1350   -0.8100    0.0000 C   0  0  0  0  0  0  0  0  0  0  0  0
    3.4030   -0.8100    0.0000 C   0  0  0  0  0  0  0  0  0  0  0  0
    3.4030    2.1900    0.0000 C   0  0  0  0  0  0  0  0  0  0  0  0
    5.1350   -1.8100    0.0000 C   0  0  0  0  0  0  0  0  0  0  0  0
    3.4030   -1.8100    0.0000 C   0  0  0  0  0  0  0  0  0  0  0  0
    4.2690   -2.3100    0.0000 C   0  0  0  0  0  0  0  0  0  0  0  0
    4.8796    0.5823    0.0000 H   0  0  0  0  0  0  0  0  0  0  0  0
    4.4810    1.2726    0.0000 H   0  0  0  0  0  0  0  0  0  0  0  0
    2.8660    1.5000    0.0000 H   0  0  0  0  0  0  0  0  0  0  0  0
    5.6720   -0.5000    0.0000 H   0  0  0  0  0  0  0  0  0  0  0  0
    2.8660   -0.5000    0.0000 H   0  0  0  0  0  0  0  0  0  0  0  0
    2.0000    1.0000    0.0000 H   0  0  0  0  0  0  0  0  0  0  0  0
    2.5369    0.0700    0.0000 H   0  0  0  0  0  0  0  0  0  0  0  0
    2.8660   -2.1200    0.0000 H   0  0  0  0  0  0  0  0  0  0  0  0
    2.5369    3.3100    0.0000 H   0  0  0  0  0  0  0  0  0  0  0  0
    6.5380   -2.0000    0.0000 H   0  0  0  0  0  0  0  0  0  0  0  0
  1 11  1  0  0  0  0
  1 23  1  0  0  0  0
  2 12  1  0  0  0  0
  2 24  1  0  0  0  0
  3 11  2  0  0  0  0
  4 14  2  0  0  0  0
  5  7  1  0  0  0  0
  5  9  1  0  0  0  0
  5 10  1  0  0  0  0
  8  6  1  6  0  0  0
  6 20  1  0  0  0  0
  6 21  1  0  0  0  0
  7  8  1  0  0  0  0
  7 15  1  0  0  0  0
  7 16  1  0  0  0  0
  8 11  1  0  0  0  0
  8 17  1  0  0  0  0
  9 12  2  0  0  0  0
  9 18  1  0  0  0  0
 10 13  2  0  0  0  0
 10 19  1  0  0  0  0
 12 14  1  0  0  0  0
 13 14  1  0  0  0  0
 13 22  1  0  0  0  0
M  END
> <PUBCHEM_COMPOUND_CID>
440473

> <PUBCHEM_COMPOUND_CANONICALIZED>
1

> <PUBCHEM_CACTVS_COMPLEXITY>
321

> <PUBCHEM_CACTVS_HBOND_ACCEPTOR>
6

> <PUBCHEM_CACTVS_HBOND_DONOR>
3

> <PUBCHEM_CACTVS_ROTATABLE_BOND>
3

> <PUBCHEM_CACTVS_SUBSKEYS>
AAADccBzOAAAAAAAAAAAAAAAAAAAAAAAAAAgAAAAAAAAAAAAAAAAHgAQCAAACCzBgAQACANAAgCIAKDWSAIAAAAgAgAIAIHIAEgCQAgAAAAUQAACUAAAAMAAAAAAAAAAAAAAAAAAAAAAAAAAAAAAAAAAAA==

> <PUBCHEM_IUPAC_OPENEYE_NAME>
(2S)-2-amino-3-(3-hydroxy-4-oxo-1-pyridyl)propanoic acid

> <PUBCHEM_IUPAC_CAS_NAME>
(2S)-2-amino-3-(3-hydroxy-4-oxo-1-pyridinyl)propanoic acid

> <PUBCHEM_IUPAC_NAME>
(2S)-2-amino-3-(3-hydroxy-4-oxopyridin-1-yl)propanoic acid

> <PUBCHEM_IUPAC_SYSTEMATIC_NAME>
(2S)-2-azanyl-3-(3-oxidanyl-4-oxidanylidene-pyridin-1-yl)propanoic acid

> <PUBCHEM_IUPAC_TRADITIONAL_NAME>
(2S)-2-amino-3-(3-hydroxy-4-keto-1-pyridyl)propionic acid

> <PUBCHEM_IUPAC_INCHI>
InChI=1S/C8H10N2O4/c9-5(8(13)14)3-10-2-1-6(11)7(12)4-10/h1-2,4-5,12H,3,9H2,(H,13,14)/t5-/m0/s1

> <PUBCHEM_IUPAC_INCHIKEY>
WZNJWVWKTVETCG-YFKPBYRVSA-N

> <PUBCHEM_XLOGP3_AA>
-3.5

> <PUBCHEM_EXACT_MASS>
198.064057

> <PUBCHEM_MOLECULAR_FORMULA>
C8H10N2O4

> <PUBCHEM_MOLECULAR_WEIGHT>
198.176

> <PUBCHEM_OPENEYE_CAN_SMILES>
C1=CN(C=C(C1=O)O)CC(C(=O)O)N

> <PUBCHEM_OPENEYE_ISO_SMILES>
C1=CN(C=C(C1=O)O)C[C@@H](C(=O)O)N

> <PUBCHEM_CACTVS_TPSA>
104

> <PUBCHEM_MONOISOTOPIC_WEIGHT>
198.064057

> <PUBCHEM_TOTAL_CHARGE>
0

> <PUBCHEM_HEAVY_ATOM_COUNT>
14

> <PUBCHEM_ATOM_DEF_STEREO_COUNT>
1

> <PUBCHEM_ATOM_UDEF_STEREO_COUNT>
0

> <PUBCHEM_BOND_DEF_STEREO_COUNT>
0

> <PUBCHEM_BOND_UDEF_STEREO_COUNT>
0

> <PUBCHEM_ISOTOPIC_ATOM_COUNT>
0

> <PUBCHEM_COMPONENT_COUNT>
1

> <PUBCHEM_CACTVS_TAUTO_COUNT>
2

> <PUBCHEM_COORDINATE_TYPE>
1
5
255

> <PUBCHEM_BONDANNOTATIONS>
10  13  8
12  14  8
13  14  8
5  10  8
5  9  8
8  6  6
9  12  8

$$$$

