4929
  -OEChem-07051213123D

 35 35  0     0  0  0  0  0  0999 V2000
   -3.3273    2.2270    0.2537 S   0  0  0  0  0  0  0  0  0  0  0  0
    1.6583    1.8343   -0.0836 N   0  0  0  0  0  0  0  0  0  0  0  0
   -0.8447   -2.1259    0.1430 N   0  0  0  0  0  0  0  0  0  0  0  0
    0.4339   -0.1629    0.0289 N   0  0  0  0  0  0  0  0  0  0  0  0
   -1.9580   -0.0628    0.1920 N   0  0  0  0  0  0  0  0  0  0  0  0
   -0.6776    1.9632    0.0760 N   0  0  0  0  0  0  0  0  0  0  0  0
    2.9312    1.1189   -0.1599 C   0  0  0  0  0  0  0  0  0  0  0  0
    0.3203   -2.9510    0.0720 C   0  0  0  0  0  0  0  0  0  0  0  0
    3.3564    0.6460    1.2273 C   0  0  0  0  0  0  0  0  0  0  0  0
    3.9888    2.0288   -0.7767 C   0  0  0  0  0  0  0  0  0  0  0  0
    0.8081   -3.0545   -1.3703 C   0  0  0  0  0  0  0  0  0  0  0  0
    0.0020   -4.3291    0.6432 C   0  0  0  0  0  0  0  0  0  0  0  0
    0.4431    1.1965    0.0094 C   0  0  0  0  0  0  0  0  0  0  0  0
   -0.7866   -0.7152    0.1203 C   0  0  0  0  0  0  0  0  0  0  0  0
   -1.8261    1.2731    0.1643 C   0  0  0  0  0  0  0  0  0  0  0  0
   -4.5217    1.1137   -0.5396 C   0  0  0  0  0  0  0  0  0  0  0  0
    2.8312    0.2488   -0.8212 H   0  0  0  0  0  0  0  0  0  0  0  0
    1.1257   -2.5331    0.6897 H   0  0  0  0  0  0  0  0  0  0  0  0
    1.6607    2.8470   -0.0485 H   0  0  0  0  0  0  0  0  0  0  0  0
   -1.7696   -2.5403    0.1581 H   0  0  0  0  0  0  0  0  0  0  0  0
    2.6272   -0.0476    1.6582 H   0  0  0  0  0  0  0  0  0  0  0  0
    3.4559    1.4898    1.9194 H   0  0  0  0  0  0  0  0  0  0  0  0
    4.3206    0.1286    1.1823 H   0  0  0  0  0  0  0  0  0  0  0  0
    4.1482    2.9253   -0.1672 H   0  0  0  0  0  0  0  0  0  0  0  0
    4.9467    1.5068   -0.8718 H   0  0  0  0  0  0  0  0  0  0  0  0
    3.6822    2.3591   -1.7753 H   0  0  0  0  0  0  0  0  0  0  0  0
    1.6855   -3.7066   -1.4366 H   0  0  0  0  0  0  0  0  0  0  0  0
    0.0303   -3.4670   -2.0230 H   0  0  0  0  0  0  0  0  0  0  0  0
    1.0911   -2.0773   -1.7745 H   0  0  0  0  0  0  0  0  0  0  0  0
   -0.3377   -4.2511    1.6820 H   0  0  0  0  0  0  0  0  0  0  0  0
    0.8869   -4.9739    0.6245 H   0  0  0  0  0  0  0  0  0  0  0  0
   -0.7917   -4.8248    0.0727 H   0  0  0  0  0  0  0  0  0  0  0  0
   -4.1809    0.8374   -1.5411 H   0  0  0  0  0  0  0  0  0  0  0  0
   -5.4829    1.6269   -0.6282 H   0  0  0  0  0  0  0  0  0  0  0  0
   -4.6662    0.2116    0.0610 H   0  0  0  0  0  0  0  0  0  0  0  0
  1 15  1  0  0  0  0
  1 16  1  0  0  0  0
  2  7  1  0  0  0  0
  2 13  1  0  0  0  0
  2 19  1  0  0  0  0
  3  8  1  0  0  0  0
  3 14  1  0  0  0  0
  3 20  1  0  0  0  0
  4 13  2  0  0  0  0
  4 14  1  0  0  0  0
  5 14  2  0  0  0  0
  5 15  1  0  0  0  0
  6 13  1  0  0  0  0
  6 15  2  0  0  0  0
  7  9  1  0  0  0  0
  7 10  1  0  0  0  0
  7 17  1  0  0  0  0
  8 11  1  0  0  0  0
  8 12  1  0  0  0  0
  8 18  1  0  0  0  0
  9 21  1  0  0  0  0
  9 22  1  0  0  0  0
  9 23  1  0  0  0  0
 10 24  1  0  0  0  0
 10 25  1  0  0  0  0
 10 26  1  0  0  0  0
 11 27  1  0  0  0  0
 11 28  1  0  0  0  0
 11 29  1  0  0  0  0
 12 30  1  0  0  0  0
 12 31  1  0  0  0  0
 12 32  1  0  0  0  0
 16 33  1  0  0  0  0
 16 34  1  0  0  0  0
 16 35  1  0  0  0  0
M  END
> <PUBCHEM_COMPOUND_CID>
4929

> <PUBCHEM_CONFORMER_RMSD>
0.6

> <PUBCHEM_CONFORMER_DIVERSEORDER>
1
124
134
115
104
126
93
107
53
27
120
17
118
163
52
18
159
83
102
138
22
129
77
135
144
131
76
148
25
7
123
110
84
150
71
34
73
154
21
111
37
109
160
69
117
145
57
165
101
114
125
35
108
15
151
140
45
141
61
42
99
4
122
112
133
116
130
75
88
26
85
136
72
78
155
157
63
142
8
54
31
119
32
82
156
90
147
146
48
166
81
74
80
137
153
11
46
24
70
56
16
12
95
158
66
49
28
162
94
33
152
149
64
164
161
67
87
39
55
29
50
121
97
60
128
13
36
100
62
65
89
51
68
143
30
43
10
20
79
58
38
98
105
41
139
132
23
86
59
40
103
14
127
92
3
113
96
91
5
106
44
47
6
19
2
9

> <PUBCHEM_MMFF94_PARTIAL_CHARGES>
14
1 -0.33
13 0.72
14 0.72
15 0.72
16 0.23
19 0.4
2 -0.87
20 0.4
3 -0.87
4 -0.62
5 -0.62
6 -0.62
7 0.37
8 0.37

> <PUBCHEM_EFFECTIVE_ROTOR_COUNT>
5

> <PUBCHEM_PHARMACOPHORE_FEATURES>
8
1 16 hydrophobe
1 2 donor
1 3 donor
3 7 9 10 hydrophobe
3 8 11 12 hydrophobe
4 2 4 6 13 cation
4 3 4 5 14 cation
6 4 5 6 13 14 15 rings

> <PUBCHEM_HEAVY_ATOM_COUNT>
16

> <PUBCHEM_ATOM_DEF_STEREO_COUNT>
0

> <PUBCHEM_ATOM_UDEF_STEREO_COUNT>
0

> <PUBCHEM_BOND_DEF_STEREO_COUNT>
0

> <PUBCHEM_BOND_UDEF_STEREO_COUNT>
0

> <PUBCHEM_ISOTOPIC_ATOM_COUNT>
0

> <PUBCHEM_COMPONENT_COUNT>
1

> <PUBCHEM_CACTVS_TAUTO_COUNT>
5

> <PUBCHEM_CONFORMER_ID>
0000134100000001

> <PUBCHEM_MMFF94_ENERGY>
36.5301

> <PUBCHEM_FEATURE_SELFOVERLAP>
40.636

> <PUBCHEM_SHAPE_FINGERPRINT>
12500047 106 18336548197187502136
12553582 1 17112410018811057798
12592029 89 18339078297759326081
12788726 201 17910398286224081906
12839892 36 18339943583403533155
13380535 76 18412829109670945169
15042514 8 17979909419642407626
15279307 12 18201441325094502448
15669948 3 18196373611509085768
15906896 17 18191311472411301382
16752209 62 18265624169029318442
20510252 161 18188763942619461297
20645476 183 18129373817876533372
20645477 70 18193002745461392805
20671657 53 17473550630113258077
20871998 184 17901654974117959382
21524375 3 18334018310656570493
21665056 4 18339924822822788510
23366157 5 17983852569245499913
23419403 2 17479120618190196009
23557571 272 17828208697079306112
23598288 3 17771329882231265028
23598294 1 18268994176627053888
23728640 28 18338811000601697378
257057 1 17255688490789691921
2748010 2 18339342128836356479
3071541 12 18049715523315298465
3071541 250 17687735460522479261
3071541 37 18339922748517504613
3091708 16 9409142764310061747
352729 6 18339354163551166673
43471831 8 18338239370308243921
458136 41 18266444576771733513
474229 33 18340484461799627257
6138700 20 18120930874862787982
7364860 26 18046067326459139721
81228 2 17904213524479532513
81539 233 18341618169608938877

> <PUBCHEM_SHAPE_MULTIPOLES>
308.22
5.97
4.73
0.92
3.45
6.44
-0.07
-6.41
-0.48
-2.77
-0.08
-0.52
0.26
-0.1

> <PUBCHEM_SHAPE_SELFOVERLAP>
593.338

> <PUBCHEM_SHAPE_VOLUME>
189.8

> <PUBCHEM_COORDINATE_TYPE>
2
5
10

$$$$

