441990
  -OEChem-07051212563D

 79 85  0     1  0  0  0  0  0999 V2000
   -3.0322    0.4641   -2.2136 N   0  0  2  0  0  0  0  0  0  0  0  0
   -2.9963   -1.4365   -0.4989 N   0  0  0  0  0  0  0  0  0  0  0  0
    1.2870   -1.0561    1.2197 N   0  0  0  0  0  0  0  0  0  0  0  0
    3.2262    3.5853   -1.7716 N   0  0  0  0  0  0  0  0  0  0  0  0
   -0.9666   -0.2830   -1.2393 C   0  0  2  0  0  0  0  0  0  0  0  0
   -2.5348   -0.1088   -0.9409 C   0  0  1  0  0  0  0  0  0  0  0  0
   -1.2715    0.5136    1.0735 C   0  0  2  0  0  0  0  0  0  0  0  0
   -0.2328    0.4732   -0.0686 C   0  0  1  0  0  0  0  0  0  0  0  0
   -2.5561    0.8650    0.2788 C   0  0  2  0  0  0  0  0  0  0  0  0
   -0.7451    0.3716   -2.6119 C   0  0  0  0  0  0  0  0  0  0  0  0
   -1.1100    1.4782    2.2880 C   0  0  0  0  0  0  0  0  0  0  0  0
   -0.8493   -1.7871   -1.2931 C   0  0  0  0  0  0  0  0  0  0  0  0
   -1.9634    1.2568   -2.8110 C   0  0  0  0  0  0  0  0  0  0  0  0
   -3.7681    0.8851    1.1650 C   0  0  0  0  0  0  0  0  0  0  0  0
    1.1385   -0.0850    0.2685 C   0  0  0  0  0  0  0  0  0  0  0  0
   -2.0395   -2.3747   -0.8603 C   0  0  0  0  0  0  0  0  0  0  0  0
   -2.3608    1.2722    3.2059 C   0  0  0  0  0  0  0  0  0  0  0  0
   -3.6840    1.0791    2.4930 C   0  0  0  0  0  0  0  0  0  0  0  0
   -1.0106    2.9642    1.8794 C   0  0  0  0  0  0  0  0  0  0  0  0
    0.1386    1.1576    3.1302 C   0  0  0  0  0  0  0  0  0  0  0  0
   -4.3054    1.1552   -2.1599 C   0  0  0  0  0  0  0  0  0  0  0  0
    0.2149   -2.5668   -1.7255 C   0  0  0  0  0  0  0  0  0  0  0  0
    2.3811    0.2145   -0.2347 C   0  0  0  0  0  0  0  0  0  0  0  0
   -2.1581   -3.7518   -0.7708 C   0  0  0  0  0  0  0  0  0  0  0  0
   -4.9059    1.1011    3.3641 C   0  0  0  0  0  0  0  0  0  0  0  0
    0.0934   -3.9554   -1.6618 C   0  0  0  0  0  0  0  0  0  0  0  0
    3.3277   -0.6083    0.4373 C   0  0  0  0  0  0  0  0  0  0  0  0
    2.6153   -1.3958    1.3444 C   0  0  0  0  0  0  0  0  0  0  0  0
   -1.0830   -4.5444   -1.1787 C   0  0  0  0  0  0  0  0  0  0  0  0
    2.6798    1.2115   -1.2840 C   0  0  0  0  0  0  0  0  0  0  0  0
    4.7265   -0.7592    0.3609 C   0  0  0  0  0  0  0  0  0  0  0  0
    2.9627    2.6138   -0.7156 C   0  0  0  0  0  0  0  0  0  0  0  0
    3.2343   -2.3304    2.1821 C   0  0  0  0  0  0  0  0  0  0  0  0
    5.3593   -1.6902    1.1928 C   0  0  0  0  0  0  0  0  0  0  0  0
    4.6227   -2.4627    2.0887 C   0  0  0  0  0  0  0  0  0  0  0  0
    3.4461    4.9161   -1.2034 C   0  0  0  0  0  0  0  0  0  0  0  0
    2.1195    3.6180   -2.7288 C   0  0  0  0  0  0  0  0  0  0  0  0
   -1.3776   -0.5004    1.4885 H   0  0  0  0  0  0  0  0  0  0  0  0
   -0.0737    1.5120   -0.3904 H   0  0  0  0  0  0  0  0  0  0  0  0
   -2.4545    1.8857   -0.1126 H   0  0  0  0  0  0  0  0  0  0  0  0
   -0.7122   -0.3778   -3.4138 H   0  0  0  0  0  0  0  0  0  0  0  0
    0.1536    0.9684   -2.7037 H   0  0  0  0  0  0  0  0  0  0  0  0
   -1.8292    2.2200   -2.3046 H   0  0  0  0  0  0  0  0  0  0  0  0
   -2.1402    1.4466   -3.8747 H   0  0  0  0  0  0  0  0  0  0  0  0
   -3.9718   -1.6689   -0.3791 H   0  0  0  0  0  0  0  0  0  0  0  0
   -4.7422    0.7736    0.6985 H   0  0  0  0  0  0  0  0  0  0  0  0
   -2.4448    2.1228    3.8952 H   0  0  0  0  0  0  0  0  0  0  0  0
   -2.2068    0.3818    3.8311 H   0  0  0  0  0  0  0  0  0  0  0  0
   -0.1726    3.1368    1.1970 H   0  0  0  0  0  0  0  0  0  0  0  0
   -1.9218    3.3333    1.4002 H   0  0  0  0  0  0  0  0  0  0  0  0
   -0.8446    3.5983    2.7588 H   0  0  0  0  0  0  0  0  0  0  0  0
    1.0631    1.3946    2.5959 H   0  0  0  0  0  0  0  0  0  0  0  0
    0.1482    1.7539    4.0510 H   0  0  0  0  0  0  0  0  0  0  0  0
    0.1602    0.1064    3.4344 H   0  0  0  0  0  0  0  0  0  0  0  0
   -4.2657    2.0830   -1.5804 H   0  0  0  0  0  0  0  0  0  0  0  0
   -5.0799    0.5077   -1.7356 H   0  0  0  0  0  0  0  0  0  0  0  0
   -4.6367    1.4122   -3.1724 H   0  0  0  0  0  0  0  0  0  0  0  0
    1.1290   -2.1153   -2.0961 H   0  0  0  0  0  0  0  0  0  0  0  0
    0.5394   -1.4880    1.7442 H   0  0  0  0  0  0  0  0  0  0  0  0
   -3.0694   -4.2138   -0.4050 H   0  0  0  0  0  0  0  0  0  0  0  0
   -5.8250    0.9367    2.7919 H   0  0  0  0  0  0  0  0  0  0  0  0
   -4.9955    2.0690    3.8677 H   0  0  0  0  0  0  0  0  0  0  0  0
   -4.8428    0.3169    4.1254 H   0  0  0  0  0  0  0  0  0  0  0  0
    0.9180   -4.5853   -1.9839 H   0  0  0  0  0  0  0  0  0  0  0  0
   -1.1604   -5.6269   -1.1268 H   0  0  0  0  0  0  0  0  0  0  0  0
    3.5542    0.8805   -1.8605 H   0  0  0  0  0  0  0  0  0  0  0  0
    1.8635    1.2227   -1.9913 H   0  0  0  0  0  0  0  0  0  0  0  0
    5.3165   -0.1644   -0.3305 H   0  0  0  0  0  0  0  0  0  0  0  0
    3.8336    2.5534   -0.0499 H   0  0  0  0  0  0  0  0  0  0  0  0
    2.1145    2.9331   -0.0944 H   0  0  0  0  0  0  0  0  0  0  0  0
    2.6614   -2.9321    2.8796 H   0  0  0  0  0  0  0  0  0  0  0  0
    6.4380   -1.8106    1.1385 H   0  0  0  0  0  0  0  0  0  0  0  0
    5.1345   -3.1797    2.7255 H   0  0  0  0  0  0  0  0  0  0  0  0
    4.2879    4.9007   -0.5020 H   0  0  0  0  0  0  0  0  0  0  0  0
    3.7084    5.6327   -1.9896 H   0  0  0  0  0  0  0  0  0  0  0  0
    2.5626    5.2915   -0.6741 H   0  0  0  0  0  0  0  0  0  0  0  0
    2.1200    2.7392   -3.3809 H   0  0  0  0  0  0  0  0  0  0  0  0
    1.1424    3.7120   -2.2405 H   0  0  0  0  0  0  0  0  0  0  0  0
    2.2303    4.4697   -3.4116 H   0  0  0  0  0  0  0  0  0  0  0  0
  1  6  1  0  0  0  0
  1 13  1  0  0  0  0
  1 21  1  0  0  0  0
  2  6  1  0  0  0  0
  2 16  1  0  0  0  0
  2 45  1  0  0  0  0
  3 15  1  0  0  0  0
  3 28  1  0  0  0  0
  3 59  1  0  0  0  0
  4 32  1  0  0  0  0
  4 36  1  0  0  0  0
  4 37  1  0  0  0  0
  5  6  1  0  0  0  0
  5  8  1  0  0  0  0
  5 10  1  0  0  0  0
  5 12  1  0  0  0  0
  6  9  1  0  0  0  0
  7  8  1  0  0  0  0
  7  9  1  0  0  0  0
  7 11  1  0  0  0  0
  7 38  1  0  0  0  0
  8 15  1  0  0  0  0
  8 39  1  0  0  0  0
  9 14  1  0  0  0  0
  9 40  1  0  0  0  0
 10 13  1  0  0  0  0
 10 41  1  0  0  0  0
 10 42  1  0  0  0  0
 11 17  1  0  0  0  0
 11 19  1  0  0  0  0
 11 20  1  0  0  0  0
 12 16  1  0  0  0  0
 12 22  2  0  0  0  0
 13 43  1  0  0  0  0
 13 44  1  0  0  0  0
 14 18  2  0  0  0  0
 14 46  1  0  0  0  0
 15 23  2  0  0  0  0
 16 24  2  0  0  0  0
 17 18  1  0  0  0  0
 17 47  1  0  0  0  0
 17 48  1  0  0  0  0
 18 25  1  0  0  0  0
 19 49  1  0  0  0  0
 19 50  1  0  0  0  0
 19 51  1  0  0  0  0
 20 52  1  0  0  0  0
 20 53  1  0  0  0  0
 20 54  1  0  0  0  0
 21 55  1  0  0  0  0
 21 56  1  0  0  0  0
 21 57  1  0  0  0  0
 22 26  1  0  0  0  0
 22 58  1  0  0  0  0
 23 27  1  0  0  0  0
 23 30  1  0  0  0  0
 24 29  1  0  0  0  0
 24 60  1  0  0  0  0
 25 61  1  0  0  0  0
 25 62  1  0  0  0  0
 25 63  1  0  0  0  0
 26 29  2  0  0  0  0
 26 64  1  0  0  0  0
 27 28  1  0  0  0  0
 27 31  2  0  0  0  0
 28 33  2  0  0  0  0
 29 65  1  0  0  0  0
 30 32  1  0  0  0  0
 30 66  1  0  0  0  0
 30 67  1  0  0  0  0
 31 34  1  0  0  0  0
 31 68  1  0  0  0  0
 32 69  1  0  0  0  0
 32 70  1  0  0  0  0
 33 35  1  0  0  0  0
 33 71  1  0  0  0  0
 34 35  2  0  0  0  0
 34 72  1  0  0  0  0
 35 73  1  0  0  0  0
 36 74  1  0  0  0  0
 36 75  1  0  0  0  0
 36 76  1  0  0  0  0
 37 77  1  0  0  0  0
 37 78  1  0  0  0  0
 37 79  1  0  0  0  0
M  END
> <PUBCHEM_COMPOUND_CID>
441990

> <PUBCHEM_CONFORMER_RMSD>
0.8

> <PUBCHEM_CONFORMER_DIVERSEORDER>
1
4
3
2

> <PUBCHEM_MMFF94_PARTIAL_CHARGES>
42
1 -0.81
12 -0.14
13 0.27
14 -0.29
15 -0.33
16 0.1
17 0.14
18 -0.28
2 -0.87
21 0.27
22 -0.15
23 -0.18
24 -0.15
25 0.14
26 -0.15
28 -0.15
29 -0.15
3 0.03
30 0.18
31 -0.15
32 0.27
33 -0.15
34 -0.15
35 -0.15
36 0.27
37 0.27
4 -0.81
45 0.4
46 0.15
5 0.14
58 0.15
59 0.27
6 0.64
60 0.15
64 0.15
65 0.15
68 0.15
71 0.15
72 0.15
73 0.15
8 0.18
9 0.14

> <PUBCHEM_EFFECTIVE_ROTOR_COUNT>
5.4

> <PUBCHEM_PHARMACOPHORE_FEATURES>
14
1 1 cation
1 2 cation
1 2 donor
1 3 cation
1 3 donor
1 4 cation
3 11 19 20 hydrophobe
5 1 5 6 10 13 rings
5 2 5 6 12 16 rings
5 3 15 23 27 28 rings
5 5 6 7 8 9 rings
6 12 16 22 24 26 29 rings
6 27 28 31 33 34 35 rings
6 7 9 11 14 17 18 rings

> <PUBCHEM_HEAVY_ATOM_COUNT>
37

> <PUBCHEM_ATOM_DEF_STEREO_COUNT>
5

> <PUBCHEM_ATOM_UDEF_STEREO_COUNT>
0

> <PUBCHEM_BOND_DEF_STEREO_COUNT>
0

> <PUBCHEM_BOND_UDEF_STEREO_COUNT>
0

> <PUBCHEM_ISOTOPIC_ATOM_COUNT>
0

> <PUBCHEM_COMPONENT_COUNT>
1

> <PUBCHEM_CACTVS_TAUTO_COUNT>
1

> <PUBCHEM_CONFORMER_ID>
0006BE8600000001

> <PUBCHEM_MMFF94_ENERGY>
127.4237

> <PUBCHEM_FEATURE_SELFOVERLAP>
72.54

> <PUBCHEM_SHAPE_FINGERPRINT>
11049842 53 17823111541598070750
11421498 54 17618491095770574770
11445158 3 18341321258535778953
11578080 2 17977701673324140461
12156800 1 17532909663429726731
12160290 23 17023447712225914961
12166972 35 18265077827672096709
12422481 6 17540263472444075578
12788726 201 17825094918540210839
13140716 1 17530694199350394825
13583140 156 17775003517919761515
13726171 33 17389632255790631792
14932701 244 17177415387923171916
17686467 74 13253637948342410714
19319366 153 17981323387538247522
20600515 1 17613491835547300746
20691752 17 17974006447120092070
20739085 24 17975114750392616914
21987440 362 15798177475392159256
229495 10 18059008380887016513
244849 19 17346600759324142544
3380486 77 18337125556180812292
469060 322 18115595988399104569
50150288 127 17611706117047319250
513202 73 17621881320270028074

> <PUBCHEM_SHAPE_MULTIPOLES>
741.52
8.16
5.12
3.72
4.11
0.54
-1.19
-1.11
-3.97
3.26
3.18
-2.27
-2.08
-4.91

> <PUBCHEM_SHAPE_SELFOVERLAP>
1641.487

> <PUBCHEM_SHAPE_VOLUME>
399.2

> <PUBCHEM_COORDINATE_TYPE>
2
5
10

$$$$

