46173877
  -OEChem-07051213102D

 60 60  0     1  0  0  0  0  0999 V2000
    6.3301   -2.5950    0.0000 S   0  0  0  0  0  0  0  0  0  0  0  0
    2.0000    4.9050    0.0000 S   0  0  0  0  0  0  0  0  0  0  0  0
    8.0622    0.4050    0.0000 S   0  0  0  0  0  0  0  0  0  0  0  0
    4.5981   -2.5950    0.0000 O   0  0  0  0  0  0  0  0  0  0  0  0
    4.5981   -5.5950    0.0000 O   0  0  0  0  0  0  0  0  0  0  0  0
    2.8660   -4.5950    0.0000 O   0  0  0  0  0  0  0  0  0  0  0  0
    6.3301   -4.5950    0.0000 O   0  0  0  0  0  0  0  0  0  0  0  0
    2.8660   -1.5950    0.0000 O   0  0  0  0  0  0  0  0  0  0  0  0
    7.1962   -0.0950    0.0000 O   0  0  0  0  0  0  0  0  0  0  0  0
    8.9282    0.9050    0.0000 O   0  0  0  0  0  0  0  0  0  0  0  0
    7.5622    1.2710    0.0000 O   0  0  0  0  0  0  0  0  0  0  0  0
    8.5622   -0.4610    0.0000 O   0  0  0  0  0  0  0  0  0  0  0  0
    7.1962   -1.0950    0.0000 N   0  0  0  0  0  0  0  0  0  0  0  0
    4.5981   -4.5950    0.0000 C   0  0  1  0  0  0  0  0  0  0  0  0
    3.7320   -4.0950    0.0000 C   0  0  1  0  0  0  0  0  0  0  0  0
    5.4641   -4.0950    0.0000 C   0  0  2  0  0  0  0  0  0  0  0  0
    3.7320   -3.0950    0.0000 C   0  0  1  0  0  0  0  0  0  0  0  0
    5.4641   -3.0950    0.0000 C   0  0  2  0  0  0  0  0  0  0  0  0
    2.8660   -2.5950    0.0000 C   0  0  0  0  0  0  0  0  0  0  0  0
    5.4641   -0.0950    0.0000 C   0  0  0  0  0  0  0  0  0  0  0  0
    4.5981    0.4050    0.0000 C   0  0  0  0  0  0  0  0  0  0  0  0
    5.4641   -1.0950    0.0000 C   0  0  0  0  0  0  0  0  0  0  0  0
    6.3301   -1.5950    0.0000 C   0  0  0  0  0  0  0  0  0  0  0  0
    4.5981    1.4050    0.0000 C   0  0  0  0  0  0  0  0  0  0  0  0
    3.7320    1.9050    0.0000 C   0  0  0  0  0  0  0  0  0  0  0  0
    3.7320    2.9050    0.0000 C   0  0  0  0  0  0  0  0  0  0  0  0
    2.8660    3.4050    0.0000 C   0  0  0  0  0  0  0  0  0  0  0  0
    2.8660    4.4050    0.0000 C   0  0  0  0  0  0  0  0  0  0  0  0
    2.0000    5.9050    0.0000 C   0  0  0  0  0  0  0  0  0  0  0  0
    5.1350   -4.9050    0.0000 H   0  0  0  0  0  0  0  0  0  0  0  0
    3.7320   -4.7150    0.0000 H   0  0  0  0  0  0  0  0  0  0  0  0
    5.4641   -4.7150    0.0000 H   0  0  0  0  0  0  0  0  0  0  0  0
    3.7320   -2.4750    0.0000 H   0  0  0  0  0  0  0  0  0  0  0  0
    5.4641   -2.4750    0.0000 H   0  0  0  0  0  0  0  0  0  0  0  0
    2.2554   -2.4873    0.0000 H   0  0  0  0  0  0  0  0  0  0  0  0
    2.6540   -3.1776    0.0000 H   0  0  0  0  0  0  0  0  0  0  0  0
    4.0611   -5.9050    0.0000 H   0  0  0  0  0  0  0  0  0  0  0  0
    2.3291   -4.2850    0.0000 H   0  0  0  0  0  0  0  0  0  0  0  0
    6.8671   -4.2850    0.0000 H   0  0  0  0  0  0  0  0  0  0  0  0
    6.0747   -0.2027    0.0000 H   0  0  0  0  0  0  0  0  0  0  0  0
    5.6762    0.4876    0.0000 H   0  0  0  0  0  0  0  0  0  0  0  0
    3.9875    0.5127    0.0000 H   0  0  0  0  0  0  0  0  0  0  0  0
    4.3860   -0.1776    0.0000 H   0  0  0  0  0  0  0  0  0  0  0  0
    4.8535   -0.9873    0.0000 H   0  0  0  0  0  0  0  0  0  0  0  0
    5.2520   -1.6776    0.0000 H   0  0  0  0  0  0  0  0  0  0  0  0
    5.2087    1.2973    0.0000 H   0  0  0  0  0  0  0  0  0  0  0  0
    4.8101    1.9876    0.0000 H   0  0  0  0  0  0  0  0  0  0  0  0
    3.1215    2.0127    0.0000 H   0  0  0  0  0  0  0  0  0  0  0  0
    3.5200    1.3224    0.0000 H   0  0  0  0  0  0  0  0  0  0  0  0
    4.3426    2.7973    0.0000 H   0  0  0  0  0  0  0  0  0  0  0  0
    3.9441    3.4876    0.0000 H   0  0  0  0  0  0  0  0  0  0  0  0
    2.3291   -1.2850    0.0000 H   0  0  0  0  0  0  0  0  0  0  0  0
    2.2554    3.5127    0.0000 H   0  0  0  0  0  0  0  0  0  0  0  0
    2.6540    2.8224    0.0000 H   0  0  0  0  0  0  0  0  0  0  0  0
    3.4766    4.2973    0.0000 H   0  0  0  0  0  0  0  0  0  0  0  0
    3.0781    4.9876    0.0000 H   0  0  0  0  0  0  0  0  0  0  0  0
    2.6200    5.9050    0.0000 H   0  0  0  0  0  0  0  0  0  0  0  0
    2.0000    6.5250    0.0000 H   0  0  0  0  0  0  0  0  0  0  0  0
    1.3800    5.9050    0.0000 H   0  0  0  0  0  0  0  0  0  0  0  0
    8.9282    1.5250    0.0000 H   0  0  0  0  0  0  0  0  0  0  0  0
 18  1  1  1  0  0  0
  1 23  1  0  0  0  0
  2 28  1  0  0  0  0
  2 29  1  0  0  0  0
  3  9  1  0  0  0  0
  3 10  1  0  0  0  0
  3 11  2  0  0  0  0
  3 12  2  0  0  0  0
  4 17  1  0  0  0  0
  4 18  1  0  0  0  0
 14  5  1  1  0  0  0
  5 37  1  0  0  0  0
 15  6  1  6  0  0  0
  6 38  1  0  0  0  0
 16  7  1  6  0  0  0
  7 39  1  0  0  0  0
  8 19  1  0  0  0  0
  8 52  1  0  0  0  0
  9 13  1  0  0  0  0
 10 60  1  0  0  0  0
 13 23  2  3  0  0  0
 14 15  1  0  0  0  0
 14 16  1  0  0  0  0
 14 30  1  0  0  0  0
 15 17  1  0  0  0  0
 15 31  1  0  0  0  0
 16 18  1  0  0  0  0
 16 32  1  0  0  0  0
 17 19  1  1  0  0  0
 17 33  1  0  0  0  0
 18 34  1  0  0  0  0
 19 35  1  0  0  0  0
 19 36  1  0  0  0  0
 20 21  1  0  0  0  0
 20 22  1  0  0  0  0
 20 40  1  0  0  0  0
 20 41  1  0  0  0  0
 21 24  1  0  0  0  0
 21 42  1  0  0  0  0
 21 43  1  0  0  0  0
 22 23  1  0  0  0  0
 22 44  1  0  0  0  0
 22 45  1  0  0  0  0
 24 25  1  0  0  0  0
 24 46  1  0  0  0  0
 24 47  1  0  0  0  0
 25 26  1  0  0  0  0
 25 48  1  0  0  0  0
 25 49  1  0  0  0  0
 26 27  1  0  0  0  0
 26 50  1  0  0  0  0
 26 51  1  0  0  0  0
 27 28  1  0  0  0  0
 27 53  1  0  0  0  0
 27 54  1  0  0  0  0
 28 55  1  0  0  0  0
 28 56  1  0  0  0  0
 29 57  1  0  0  0  0
 29 58  1  0  0  0  0
 29 59  1  0  0  0  0
M  END
> <PUBCHEM_COMPOUND_CID>
46173877

> <PUBCHEM_COMPOUND_CANONICALIZED>
1

> <PUBCHEM_CACTVS_COMPLEXITY>
585

> <PUBCHEM_CACTVS_HBOND_ACCEPTOR>
12

> <PUBCHEM_CACTVS_HBOND_DONOR>
5

> <PUBCHEM_CACTVS_ROTATABLE_BOND>
14

> <PUBCHEM_CACTVS_SUBSKEYS>
AAADceB6PABgAAAAAAAAAAAAAAAAAAAAAAAkAAAAAAAAAAAAAAAAHgQECAAACBSlwAKCAAAQBoggAAAgADAAAAAAABAAAAAwAAABEAIgAAACQAAFAAAjAAHA4IQAAAAAAAAAAAAAAAAAAAAAAAAAAAAAAA==

> <PUBCHEM_IUPAC_OPENEYE_NAME>
[(2S,3R,4S,5S,6R)-3,4,5-trihydroxy-6-(hydroxymethyl)tetrahydropyran-2-yl] 9-methylsulfanyl-N-sulfooxy-nonanimidothioate

> <PUBCHEM_IUPAC_CAS_NAME>
9-(methylthio)-N-sulfooxynonanimidothioic acid [(2S,3R,4S,5S,6R)-3,4,5-trihydroxy-6-(hydroxymethyl)-2-oxanyl] ester

> <PUBCHEM_IUPAC_NAME>
[(2S,3R,4S,5S,6R)-3,4,5-trihydroxy-6-(hydroxymethyl)oxan-2-yl] 9-methylsulfanyl-N-sulfooxynonanimidothioate

> <PUBCHEM_IUPAC_SYSTEMATIC_NAME>
[(2S,3R,4S,5S,6R)-6-(hydroxymethyl)-3,4,5-tris(oxidanyl)oxan-2-yl] 9-methylsulfanyl-N-sulfooxy-nonanimidothioate

> <PUBCHEM_IUPAC_TRADITIONAL_NAME>
9-(methylthio)-N-sulfoxy-thiopelargonimidic acid [(2S,3R,4S,5S,6R)-3,4,5-trihydroxy-6-methylol-tetrahydropyran-2-yl] ester

> <PUBCHEM_IUPAC_INCHI>
InChI=1S/C16H31NO9S3/c1-27-9-7-5-3-2-4-6-8-12(17-26-29(22,23)24)28-16-15(21)14(20)13(19)11(10-18)25-16/h11,13-16,18-21H,2-10H2,1H3,(H,22,23,24)/t11-,13-,14+,15-,16+/m1/s1

> <PUBCHEM_IUPAC_INCHIKEY>
CWOJBEDMJKZKAB-JZYAIQKZSA-N

> <PUBCHEM_XLOGP3_AA>
1.5

> <PUBCHEM_EXACT_MASS>
477.116095

> <PUBCHEM_MOLECULAR_FORMULA>
C16H31NO9S3

> <PUBCHEM_MOLECULAR_WEIGHT>
477.61364

> <PUBCHEM_OPENEYE_CAN_SMILES>
CSCCCCCCCCC(=NOS(=O)(=O)O)SC1C(C(C(C(O1)CO)O)O)O

> <PUBCHEM_OPENEYE_ISO_SMILES>
CSCCCCCCCCC(=NOS(=O)(=O)O)S[C@H]1[C@@H]([C@H]([C@@H]([C@H](O1)CO)O)O)O

> <PUBCHEM_CACTVS_TPSA>
225

> <PUBCHEM_MONOISOTOPIC_WEIGHT>
477.116095

> <PUBCHEM_TOTAL_CHARGE>
0

> <PUBCHEM_HEAVY_ATOM_COUNT>
29

> <PUBCHEM_ATOM_DEF_STEREO_COUNT>
5

> <PUBCHEM_ATOM_UDEF_STEREO_COUNT>
0

> <PUBCHEM_BOND_DEF_STEREO_COUNT>
0

> <PUBCHEM_BOND_UDEF_STEREO_COUNT>
1

> <PUBCHEM_ISOTOPIC_ATOM_COUNT>
0

> <PUBCHEM_COMPONENT_COUNT>
1

> <PUBCHEM_CACTVS_TAUTO_COUNT>
2

> <PUBCHEM_COORDINATE_TYPE>
1
5
255

> <PUBCHEM_BONDANNOTATIONS>
18  1  5
13  23  1
17  19  5
14  5  5
15  6  6
16  7  6

$$$$

