854219
  -OEChem-06241222472D

 41 43  0     1  0  0  0  0  0999 V2000
    6.3301    2.1900    0.0000 O   0  0  0  0  0  0  0  0  0  0  0  0
    8.9962    0.6692    0.0000 O   0  0  0  0  0  0  0  0  0  0  0  0
    3.7320    0.6900    0.0000 O   0  0  0  0  0  0  0  0  0  0  0  0
    8.0785   -0.8446    0.0000 O   0  0  0  0  0  0  0  0  0  0  0  0
    4.5981   -0.8100    0.0000 O   0  0  0  0  0  0  0  0  0  0  0  0
    4.5981    2.1900    0.0000 N   0  0  0  0  0  0  0  0  0  0  0  0
    6.3301    0.1900    0.0000 C   0  0  1  0  0  0  0  0  0  0  0  0
    7.1962    0.6900    0.0000 C   0  0  0  0  0  0  0  0  0  0  0  0
    5.4641    0.6900    0.0000 C   0  0  0  0  0  0  0  0  0  0  0  0
    6.3301   -0.8100    0.0000 C   0  0  0  0  0  0  0  0  0  0  0  0
    7.1962    1.6900    0.0000 C   0  0  0  0  0  0  0  0  0  0  0  0
    5.4641    1.6900    0.0000 C   0  0  0  0  0  0  0  0  0  0  0  0
    8.0901    0.1553    0.0000 C   0  0  0  0  0  0  0  0  0  0  0  0
    8.0901    2.2247    0.0000 C   0  0  0  0  0  0  0  0  0  0  0  0
    5.4641   -1.3100    0.0000 C   0  0  0  0  0  0  0  0  0  0  0  0
    7.1962   -1.3100    0.0000 C   0  0  0  0  0  0  0  0  0  0  0  0
    4.5981    0.1900    0.0000 C   0  0  0  0  0  0  0  0  0  0  0  0
    8.9962    1.7108    0.0000 C   0  0  0  0  0  0  0  0  0  0  0  0
    5.4641   -2.3100    0.0000 C   0  0  0  0  0  0  0  0  0  0  0  0
    7.1962   -2.3100    0.0000 C   0  0  0  0  0  0  0  0  0  0  0  0
    6.3301   -2.8100    0.0000 C   0  0  0  0  0  0  0  0  0  0  0  0
    9.8602    2.2142    0.0000 C   0  0  0  0  0  0  0  0  0  0  0  0
    2.8660    0.1900    0.0000 C   0  0  0  0  0  0  0  0  0  0  0  0
    2.0000    0.6900    0.0000 C   0  0  0  0  0  0  0  0  0  0  0  0
    5.7932   -0.1200    0.0000 H   0  0  0  0  0  0  0  0  0  0  0  0
    8.0829    2.8446    0.0000 H   0  0  0  0  0  0  0  0  0  0  0  0
    4.9272   -1.0000    0.0000 H   0  0  0  0  0  0  0  0  0  0  0  0
    7.7331   -1.0000    0.0000 H   0  0  0  0  0  0  0  0  0  0  0  0
    4.9272   -2.6200    0.0000 H   0  0  0  0  0  0  0  0  0  0  0  0
    7.7331   -2.6200    0.0000 H   0  0  0  0  0  0  0  0  0  0  0  0
    4.5981    2.8100    0.0000 H   0  0  0  0  0  0  0  0  0  0  0  0
    4.0611    1.8800    0.0000 H   0  0  0  0  0  0  0  0  0  0  0  0
    6.3301   -3.4300    0.0000 H   0  0  0  0  0  0  0  0  0  0  0  0
   10.1723    1.6784    0.0000 H   0  0  0  0  0  0  0  0  0  0  0  0
   10.3960    2.5262    0.0000 H   0  0  0  0  0  0  0  0  0  0  0  0
    9.5482    2.7499    0.0000 H   0  0  0  0  0  0  0  0  0  0  0  0
    2.4675   -0.2849    0.0000 H   0  0  0  0  0  0  0  0  0  0  0  0
    3.2646   -0.2849    0.0000 H   0  0  0  0  0  0  0  0  0  0  0  0
    2.3100    1.2269    0.0000 H   0  0  0  0  0  0  0  0  0  0  0  0
    1.4631    1.0000    0.0000 H   0  0  0  0  0  0  0  0  0  0  0  0
    1.6900    0.1531    0.0000 H   0  0  0  0  0  0  0  0  0  0  0  0
  1 11  1  0  0  0  0
  1 12  1  0  0  0  0
  2 13  1  0  0  0  0
  2 18  1  0  0  0  0
  3 17  1  0  0  0  0
  3 23  1  0  0  0  0
  4 13  2  0  0  0  0
  5 17  2  0  0  0  0
  6 12  1  0  0  0  0
  6 31  1  0  0  0  0
  6 32  1  0  0  0  0
  7  8  1  0  0  0  0
  7  9  1  0  0  0  0
  7 10  1  6  0  0  0
  7 25  1  0  0  0  0
  8 11  2  0  0  0  0
  8 13  1  0  0  0  0
  9 12  2  0  0  0  0
  9 17  1  0  0  0  0
 10 15  2  0  0  0  0
 10 16  1  0  0  0  0
 11 14  1  0  0  0  0
 14 18  2  0  0  0  0
 14 26  1  0  0  0  0
 15 19  1  0  0  0  0
 15 27  1  0  0  0  0
 16 20  2  0  0  0  0
 16 28  1  0  0  0  0
 18 22  1  0  0  0  0
 19 21  2  0  0  0  0
 19 29  1  0  0  0  0
 20 21  1  0  0  0  0
 20 30  1  0  0  0  0
 21 33  1  0  0  0  0
 22 34  1  0  0  0  0
 22 35  1  0  0  0  0
 22 36  1  0  0  0  0
 23 24  1  0  0  0  0
 23 37  1  0  0  0  0
 23 38  1  0  0  0  0
 24 39  1  0  0  0  0
 24 40  1  0  0  0  0
 24 41  1  0  0  0  0
M  END
> <PUBCHEM_COMPOUND_CID>
854219

> <PUBCHEM_COMPOUND_CANONICALIZED>
1

> <PUBCHEM_CACTVS_COMPLEXITY>
652

> <PUBCHEM_CACTVS_HBOND_ACCEPTOR>
6

> <PUBCHEM_CACTVS_HBOND_DONOR>
1

> <PUBCHEM_CACTVS_ROTATABLE_BOND>
4

> <PUBCHEM_CACTVS_SUBSKEYS>
AAADceB6OAAAAAAAAAAAAAAAAAAAAAAAAAAwQIAAAAAAAACBAAAAHgAQAAAADQShmAIyCIBABACIAiDSSAACCAAgIAAIiAEAAMkIJDKAMRCKMAAkgAAIqUeI7uiOgAAAAAAAAAAAAAAAAAAAAAAAAAAAAA==

> <PUBCHEM_IUPAC_OPENEYE_NAME>
ethyl (4S)-2-amino-7-methyl-5-oxo-4-phenyl-4H-pyrano[3,2-c]pyran-3-carboxylate

> <PUBCHEM_IUPAC_CAS_NAME>
(4S)-2-amino-7-methyl-5-oxo-4-phenyl-4H-pyrano[3,2-c]pyran-3-carboxylic acid ethyl ester

> <PUBCHEM_IUPAC_NAME>
ethyl (4S)-2-amino-7-methyl-5-oxo-4-phenyl-4H-pyrano[3,2-c]pyran-3-carboxylate

> <PUBCHEM_IUPAC_SYSTEMATIC_NAME>
ethyl (4S)-2-azanyl-7-methyl-5-oxidanylidene-4-phenyl-4H-pyrano[3,2-c]pyran-3-carboxylate

> <PUBCHEM_IUPAC_TRADITIONAL_NAME>
(4S)-2-amino-5-keto-7-methyl-4-phenyl-4H-pyrano[3,2-c]pyran-3-carboxylic acid ethyl ester

> <PUBCHEM_IUPAC_INCHI>
InChI=1S/C18H17NO5/c1-3-22-17(20)15-13(11-7-5-4-6-8-11)14-12(24-16(15)19)9-10(2)23-18(14)21/h4-9,13H,3,19H2,1-2H3/t13-/m0/s1

> <PUBCHEM_IUPAC_INCHIKEY>
LBKSKVGXQKPGOE-ZDUSSCGKSA-N

> <PUBCHEM_XLOGP3_AA>
2.8

> <PUBCHEM_EXACT_MASS>
327.110673

> <PUBCHEM_MOLECULAR_FORMULA>
C18H17NO5

> <PUBCHEM_MOLECULAR_WEIGHT>
327.33128

> <PUBCHEM_OPENEYE_CAN_SMILES>
CCOC(=O)C1=C(OC2=C(C1C3=CC=CC=C3)C(=O)OC(=C2)C)N

> <PUBCHEM_OPENEYE_ISO_SMILES>
CCOC(=O)C1=C(OC2=C([C@@H]1C3=CC=CC=C3)C(=O)OC(=C2)C)N

> <PUBCHEM_CACTVS_TPSA>
87.8

> <PUBCHEM_MONOISOTOPIC_WEIGHT>
327.110673

> <PUBCHEM_TOTAL_CHARGE>
0

> <PUBCHEM_HEAVY_ATOM_COUNT>
24

> <PUBCHEM_ATOM_DEF_STEREO_COUNT>
1

> <PUBCHEM_ATOM_UDEF_STEREO_COUNT>
0

> <PUBCHEM_BOND_DEF_STEREO_COUNT>
0

> <PUBCHEM_BOND_UDEF_STEREO_COUNT>
0

> <PUBCHEM_ISOTOPIC_ATOM_COUNT>
0

> <PUBCHEM_COMPONENT_COUNT>
1

> <PUBCHEM_CACTVS_TAUTO_COUNT>
9

> <PUBCHEM_COORDINATE_TYPE>
1
5
255

> <PUBCHEM_BONDANNOTATIONS>
10  15  8
10  16  8
11  14  8
14  18  8
15  19  8
16  20  8
19  21  8
2  13  8
2  18  8
20  21  8
7  10  6
8  11  8
8  13  8

$$$$

