586251
  -OEChem-06241222463D

 34 34  0     1  0  0  0  0  0999 V2000
   -0.8528    0.7288    0.2486 C   0  0  1  0  0  0  0  0  0  0  0  0
   -0.8536   -0.7284   -0.2492 C   0  0  1  0  0  0  0  0  0  0  0  0
    0.4042    1.4480   -0.2734 C   0  0  0  0  0  0  0  0  0  0  0  0
    0.4034   -1.4487    0.2715 C   0  0  0  0  0  0  0  0  0  0  0  0
   -2.1004    1.5123   -0.1656 C   0  0  0  0  0  0  0  0  0  0  0  0
   -2.1012   -1.5110    0.1663 C   0  0  0  0  0  0  0  0  0  0  0  0
    1.6905    0.6606   -0.1383 C   0  0  0  0  0  0  0  0  0  0  0  0
    1.6901   -0.6616    0.1382 C   0  0  0  0  0  0  0  0  0  0  0  0
   -2.0644    2.9281    0.3733 C   0  0  0  0  0  0  0  0  0  0  0  0
   -2.0669   -2.9268   -0.3724 C   0  0  0  0  0  0  0  0  0  0  0  0
    2.9260    1.4932   -0.3581 C   0  0  0  0  0  0  0  0  0  0  0  0
    2.9250   -1.4947    0.3593 C   0  0  0  0  0  0  0  0  0  0  0  0
   -0.8094    0.7126    1.3477 H   0  0  0  0  0  0  0  0  0  0  0  0
   -0.8111   -0.7122   -1.3483 H   0  0  0  0  0  0  0  0  0  0  0  0
    0.5337    2.3841    0.2836 H   0  0  0  0  0  0  0  0  0  0  0  0
    0.2764    1.7123   -1.3314 H   0  0  0  0  0  0  0  0  0  0  0  0
    0.5324   -2.3840   -0.2869 H   0  0  0  0  0  0  0  0  0  0  0  0
    0.2755   -1.7147    1.3291 H   0  0  0  0  0  0  0  0  0  0  0  0
   -2.9985    1.0368    0.2415 H   0  0  0  0  0  0  0  0  0  0  0  0
   -2.2093    1.5303   -1.2562 H   0  0  0  0  0  0  0  0  0  0  0  0
   -2.9994   -1.0348   -0.2400 H   0  0  0  0  0  0  0  0  0  0  0  0
   -2.2090   -1.5288    1.2570 H   0  0  0  0  0  0  0  0  0  0  0  0
   -1.8536    2.9463    1.4474 H   0  0  0  0  0  0  0  0  0  0  0  0
   -1.3232    3.5460   -0.1421 H   0  0  0  0  0  0  0  0  0  0  0  0
   -3.0372    3.4075    0.2183 H   0  0  0  0  0  0  0  0  0  0  0  0
   -1.8577   -2.9452   -1.4468 H   0  0  0  0  0  0  0  0  0  0  0  0
   -1.3254   -3.5451    0.1420 H   0  0  0  0  0  0  0  0  0  0  0  0
   -3.0397   -3.4056   -0.2160 H   0  0  0  0  0  0  0  0  0  0  0  0
    3.8283    0.9013   -0.5254 H   0  0  0  0  0  0  0  0  0  0  0  0
    3.0969    2.1481    0.5022 H   0  0  0  0  0  0  0  0  0  0  0  0
    2.8025    2.1209   -1.2479 H   0  0  0  0  0  0  0  0  0  0  0  0
    2.8003   -2.1223    1.2489 H   0  0  0  0  0  0  0  0  0  0  0  0
    3.8275   -0.9031    0.5275 H   0  0  0  0  0  0  0  0  0  0  0  0
    3.0966   -2.1496   -0.5008 H   0  0  0  0  0  0  0  0  0  0  0  0
  1  2  1  0  0  0  0
  1  3  1  0  0  0  0
  1  5  1  0  0  0  0
  1 13  1  0  0  0  0
  2  4  1  0  0  0  0
  2  6  1  0  0  0  0
  2 14  1  0  0  0  0
  3  7  1  0  0  0  0
  3 15  1  0  0  0  0
  3 16  1  0  0  0  0
  4  8  1  0  0  0  0
  4 17  1  0  0  0  0
  4 18  1  0  0  0  0
  5  9  1  0  0  0  0
  5 19  1  0  0  0  0
  5 20  1  0  0  0  0
  6 10  1  0  0  0  0
  6 21  1  0  0  0  0
  6 22  1  0  0  0  0
  7  8  2  0  0  0  0
  7 11  1  0  0  0  0
  8 12  1  0  0  0  0
  9 23  1  0  0  0  0
  9 24  1  0  0  0  0
  9 25  1  0  0  0  0
 10 26  1  0  0  0  0
 10 27  1  0  0  0  0
 10 28  1  0  0  0  0
 11 29  1  0  0  0  0
 11 30  1  0  0  0  0
 11 31  1  0  0  0  0
 12 32  1  0  0  0  0
 12 33  1  0  0  0  0
 12 34  1  0  0  0  0
M  END
> <PUBCHEM_COMPOUND_CID>
586251

> <PUBCHEM_CONFORMER_RMSD>
0.6

> <PUBCHEM_CONFORMER_DIVERSEORDER>
1
5
7
6
8
2
3
4

> <PUBCHEM_MMFF94_PARTIAL_CHARGES>
6
11 0.14
12 0.14
3 0.14
4 0.14
7 -0.28
8 -0.28

> <PUBCHEM_EFFECTIVE_ROTOR_COUNT>
2.8

> <PUBCHEM_PHARMACOPHORE_FEATURES>
3
1 10 hydrophobe
1 9 hydrophobe
6 1 2 3 4 7 8 rings

> <PUBCHEM_HEAVY_ATOM_COUNT>
12

> <PUBCHEM_ATOM_DEF_STEREO_COUNT>
0

> <PUBCHEM_ATOM_UDEF_STEREO_COUNT>
2

> <PUBCHEM_BOND_DEF_STEREO_COUNT>
0

> <PUBCHEM_BOND_UDEF_STEREO_COUNT>
0

> <PUBCHEM_ISOTOPIC_ATOM_COUNT>
0

> <PUBCHEM_COMPONENT_COUNT>
1

> <PUBCHEM_CACTVS_TAUTO_COUNT>
1

> <PUBCHEM_CONFORMER_ID>
0008F20B00000001

> <PUBCHEM_MMFF94_ENERGY>
15.0801

> <PUBCHEM_FEATURE_SELFOVERLAP>
15.223

> <PUBCHEM_SHAPE_FINGERPRINT>
1 1 17762056940512517525
11206711 2 18197211456074443620
13380535 21 18339067268272857500
14993402 34 18051977222975444340
15490181 8 18191302895519645805
15502708 68 17617661402672739297
15906896 17 18187654647361568463
16945 1 18409448085244608519
193761 8 18411419509804200966
19973954 147 18411702080050384590
20510252 161 18119526540473175904
20511035 2 18115886229187300958
20645476 183 17841403111184342582
20711985 365 18411141350505689879
21040471 1 18265895941627512592
21501502 16 18413670210380545548
2334 1 18412825755179933670
23402539 116 17901951838041431148
23419403 2 16757543890185543028
23552423 10 18272652329243368782
23559900 14 18118118307292560718
2748010 2 18411698794368709292
3060560 45 17762627582720678829
53812653 11 17978788240088791452
81228 2 18341052926153407657

> <PUBCHEM_SHAPE_MULTIPOLES>
246.95
4.11
3.31
0.69
1.87
0
0
0
0
-2.47
0
0.01
0
-0.63

> <PUBCHEM_SHAPE_SELFOVERLAP>
478.922

> <PUBCHEM_SHAPE_VOLUME>
150.5

> <PUBCHEM_COORDINATE_TYPE>
2
5
10

$$$$

