2880
  -OEChem-07051213013D

 37 39  0     0  0  0  0  0  0999 V2000
    4.1558    1.6301   -0.6789 Cl  0  0  0  0  0  0  0  0  0  0  0  0
   -0.4880   -1.5949    0.4302 O   0  0  0  0  0  0  0  0  0  0  0  0
   -0.7531    1.9388    0.3067 N   0  0  0  0  0  0  0  0  0  0  0  0
    0.1190    2.9535   -1.3967 N   0  0  0  0  0  0  0  0  0  0  0  0
   -2.3269   -0.0483    0.3930 C   0  0  0  0  0  0  0  0  0  0  0  0
   -1.7794   -1.2990    0.1074 C   0  0  0  0  0  0  0  0  0  0  0  0
   -1.5369    0.9861    1.0471 C   0  0  0  0  0  0  0  0  0  0  0  0
    0.3821   -1.9476   -0.6426 C   0  0  0  0  0  0  0  0  0  0  0  0
    1.7861   -1.5598   -0.2821 C   0  0  0  0  0  0  0  0  0  0  0  0
   -3.6506    0.2283    0.0509 C   0  0  0  0  0  0  0  0  0  0  0  0
   -2.5557   -2.2732   -0.5204 C   0  0  0  0  0  0  0  0  0  0  0  0
   -4.4268   -0.7459   -0.5768 C   0  0  0  0  0  0  0  0  0  0  0  0
   -3.8794   -1.9966   -0.8625 C   0  0  0  0  0  0  0  0  0  0  0  0
    2.2580   -0.2941   -0.6117 C   0  0  0  0  0  0  0  0  0  0  0  0
    2.6020   -2.4699    0.3807 C   0  0  0  0  0  0  0  0  0  0  0  0
   -0.0174    2.8994    0.8651 C   0  0  0  0  0  0  0  0  0  0  0  0
   -0.6717    1.9717   -1.0238 C   0  0  0  0  0  0  0  0  0  0  0  0
   -1.6039    0.9713    2.4040 C   0  0  0  0  0  0  0  0  0  0  0  0
    3.5626    0.0661   -0.2742 C   0  0  0  0  0  0  0  0  0  0  0  0
    3.9066   -2.1096    0.7180 C   0  0  0  0  0  0  0  0  0  0  0  0
    4.3869   -0.8417    0.3906 C   0  0  0  0  0  0  0  0  0  0  0  0
    0.5307    3.5354   -0.2239 C   0  0  0  0  0  0  0  0  0  0  0  0
    0.0885   -1.4478   -1.5758 H   0  0  0  0  0  0  0  0  0  0  0  0
    0.3200   -3.0287   -0.8178 H   0  0  0  0  0  0  0  0  0  0  0  0
   -4.0936    1.1983    0.2644 H   0  0  0  0  0  0  0  0  0  0  0  0
   -2.1472   -3.2555   -0.7416 H   0  0  0  0  0  0  0  0  0  0  0  0
   -5.4575   -0.5307   -0.8432 H   0  0  0  0  0  0  0  0  0  0  0  0
   -4.4845   -2.7557   -1.3496 H   0  0  0  0  0  0  0  0  0  0  0  0
    1.6232    0.4037   -1.1464 H   0  0  0  0  0  0  0  0  0  0  0  0
    2.2374   -3.4592    0.6429 H   0  0  0  0  0  0  0  0  0  0  0  0
    0.0959    3.0964    1.9215 H   0  0  0  0  0  0  0  0  0  0  0  0
   -1.1730    1.2986   -1.7070 H   0  0  0  0  0  0  0  0  0  0  0  0
   -1.0728    1.6751    3.0337 H   0  0  0  0  0  0  0  0  0  0  0  0
   -2.2051    0.2368    2.9348 H   0  0  0  0  0  0  0  0  0  0  0  0
    4.5483   -2.8163    1.2363 H   0  0  0  0  0  0  0  0  0  0  0  0
    5.4056   -0.5748    0.6599 H   0  0  0  0  0  0  0  0  0  0  0  0
    1.2018    4.3819   -0.2232 H   0  0  0  0  0  0  0  0  0  0  0  0
  1 19  1  0  0  0  0
  2  6  1  0  0  0  0
  2  8  1  0  0  0  0
  3  7  1  0  0  0  0
  3 16  1  0  0  0  0
  3 17  1  0  0  0  0
  4 17  2  0  0  0  0
  4 22  1  0  0  0  0
  5  6  1  0  0  0  0
  5  7  1  0  0  0  0
  5 10  2  0  0  0  0
  6 11  2  0  0  0  0
  7 18  2  0  0  0  0
  8  9  1  0  0  0  0
  8 23  1  0  0  0  0
  8 24  1  0  0  0  0
  9 14  2  0  0  0  0
  9 15  1  0  0  0  0
 10 12  1  0  0  0  0
 10 25  1  0  0  0  0
 11 13  1  0  0  0  0
 11 26  1  0  0  0  0
 12 13  2  0  0  0  0
 12 27  1  0  0  0  0
 13 28  1  0  0  0  0
 14 19  1  0  0  0  0
 14 29  1  0  0  0  0
 15 20  2  0  0  0  0
 15 30  1  0  0  0  0
 16 22  2  0  0  0  0
 16 31  1  0  0  0  0
 17 32  1  0  0  0  0
 18 33  1  0  0  0  0
 18 34  1  0  0  0  0
 19 21  2  0  0  0  0
 20 21  1  0  0  0  0
 20 35  1  0  0  0  0
 21 36  1  0  0  0  0
 22 37  1  0  0  0  0
M  END
> <PUBCHEM_COMPOUND_CID>
2880

> <PUBCHEM_CONFORMER_RMSD>
0.8

> <PUBCHEM_CONFORMER_DIVERSEORDER>
1
245
223
184
146
91
96
241
48
233
220
151
33
51
18
150
166
207
12
105
81
98
44
180
28
206
214
129
178
127
208
240
148
29
121
80
143
217
109
179
230
224
163
186
176
194
126
136
55
59
130
147
177
246
144
64
199
87
45
57
195
228
165
123
16
132
209
145
231
236
27
62
182
149
73
212
192
99
161
185
26
226
7
215
133
92
49
3
43
197
242
219
125
216
203
69
155
50
139
170
152
90
4
134
41
239
189
160
66
234
106
8
40
169
167
39
210
183
175
172
35
193
225
156
174
88
65
188
159
128
218
198
235
238
9
158
74
56
153
131
97
31
187
173
221
119
34
211
142
135
222
100
23
13
5
42
75
82
67
227
37
68
114
83
2
60
141
171
46
30
162
154
232
213
229
36
200
25
58
76
191
11
140
72
53
168
190
108
54
14
104
84
202
101
85
116
164
22
201
79
137
63
17
117
122
70
77
120
196
10
71
93
204
61
115
103
21
124
181
157
19
89
32
94
237
243
52
20
110
95
138
112
6
47
107
118
244
78
86
15
102
111
38
113
205
24

> <PUBCHEM_MMFF94_PARTIAL_CHARGES>
35
1 -0.18
10 -0.15
11 -0.15
12 -0.15
13 -0.15
14 -0.15
15 -0.15
16 -0.3
17 0.04
18 -0.3
19 0.18
2 -0.36
20 -0.15
21 -0.15
22 0.08
25 0.15
26 0.15
27 0.15
28 0.15
29 0.15
3 0.33
30 0.15
31 0.15
32 0.15
33 0.15
34 0.15
35 0.15
36 0.15
37 0.15
4 -0.57
5 0.03
6 0.08
7 -0.06
8 0.42
9 -0.14

> <PUBCHEM_EFFECTIVE_ROTOR_COUNT>
5

> <PUBCHEM_PHARMACOPHORE_FEATURES>
5
1 2 acceptor
3 3 4 17 cation
5 3 4 16 17 22 rings
6 5 6 10 11 12 13 rings
6 9 14 15 19 20 21 rings

> <PUBCHEM_HEAVY_ATOM_COUNT>
22

> <PUBCHEM_ATOM_DEF_STEREO_COUNT>
0

> <PUBCHEM_ATOM_UDEF_STEREO_COUNT>
0

> <PUBCHEM_BOND_DEF_STEREO_COUNT>
0

> <PUBCHEM_BOND_UDEF_STEREO_COUNT>
0

> <PUBCHEM_ISOTOPIC_ATOM_COUNT>
0

> <PUBCHEM_COMPONENT_COUNT>
1

> <PUBCHEM_CACTVS_TAUTO_COUNT>
1

> <PUBCHEM_CONFORMER_ID>
00000B4000000001

> <PUBCHEM_MMFF94_ENERGY>
69.3678

> <PUBCHEM_FEATURE_SELFOVERLAP>
25.371

> <PUBCHEM_SHAPE_FINGERPRINT>
10165383 225 16745330892975892176
10498660 4 18410005542367466198
10670039 82 18340193173281575102
10708813 3 18263072241317580752
10871710 139 18339628036087473940
1100329 8 17832984945451136438
11045515 52 18343871030311116903
11112241 14 16302623089040338224
11582403 64 15906017609898433133
12156800 1 16768500729941893996
12166972 35 18060135405901308894
12403259 226 18262527025711269194
12403814 3 18266453398744816409
12422481 6 17692783275926236993
12553582 1 18339906178332904672
12596599 1 17896017984097478420
12633257 1 18044083790556048608
13004483 165 18339652246992006251
13140716 1 18340194297408179947
138480 1 14663018786852593588
14117953 113 18119528983934547061
14142880 1 18044654432901366137
14251757 17 17559137525377882719
14790565 3 17903917004861125209
14955137 171 18118090698640953587
167882 2 18126005953604895461
17492 54 18198899215287340316
18785283 64 17912908506009437889
19591789 44 16465577163069790194
20715895 44 17838909474895151861
20905425 154 17180519287467066367
21524375 3 16903265872971796497
23352939 185 18409171000399688129
23402539 116 18262247702049333447
23419403 2 17752239195003373305
23557571 272 17968377952301965270
350125 39 17543339909835248491
5265222 85 16968019935158636192
81228 2 18191572250130704843

> <PUBCHEM_SHAPE_MULTIPOLES>
438.79
7.67
3.89
1.27
2.33
2.38
0.5
-4.24
-0.7
0.83
-0.45
-0.45
0.56
-1.41

> <PUBCHEM_SHAPE_SELFOVERLAP>
948.944

> <PUBCHEM_SHAPE_VOLUME>
242.7

> <PUBCHEM_COORDINATE_TYPE>
2
5
10

$$$$

