6194
  -OEChem-06261201102D

 26 26  0     0  0  0  0  0  0999 V2000
    3.7320    2.5600    0.0000 Cl  0  0  0  0  0  0  0  0  0  0  0  0
    2.0000   -0.4400    0.0000 Cl  0  0  0  0  0  0  0  0  0  0  0  0
    4.5981   -1.9400    0.0000 O   0  0  0  0  0  0  0  0  0  0  0  0
    8.0622   -1.9400    0.0000 O   0  0  0  0  0  0  0  0  0  0  0  0
    4.5981    0.0600    0.0000 N   0  0  0  0  0  0  0  0  0  0  0  0
    6.3301   -1.9400    0.0000 N   0  0  0  0  0  0  0  0  0  0  0  0
    7.1962   -0.4400    0.0000 N   0  0  0  0  0  0  0  0  0  0  0  0
    4.5981    1.0600    0.0000 C   0  0  0  0  0  0  0  0  0  0  0  0
    3.7320   -0.4400    0.0000 C   0  0  0  0  0  0  0  0  0  0  0  0
    5.4641   -0.4400    0.0000 C   0  0  0  0  0  0  0  0  0  0  0  0
    3.7320    1.5600    0.0000 C   0  0  0  0  0  0  0  0  0  0  0  0
    2.8660    0.0600    0.0000 C   0  0  0  0  0  0  0  0  0  0  0  0
    5.4641   -1.4400    0.0000 C   0  0  0  0  0  0  0  0  0  0  0  0
    6.3301    0.0600    0.0000 C   0  0  0  0  0  0  0  0  0  0  0  0
    7.1962   -1.4400    0.0000 C   0  0  0  0  0  0  0  0  0  0  0  0
    5.2087    0.9523    0.0000 H   0  0  0  0  0  0  0  0  0  0  0  0
    4.8101    1.6426    0.0000 H   0  0  0  0  0  0  0  0  0  0  0  0
    3.3335   -0.9149    0.0000 H   0  0  0  0  0  0  0  0  0  0  0  0
    4.1306   -0.9149    0.0000 H   0  0  0  0  0  0  0  0  0  0  0  0
    3.1215    1.6677    0.0000 H   0  0  0  0  0  0  0  0  0  0  0  0
    3.5200    0.9774    0.0000 H   0  0  0  0  0  0  0  0  0  0  0  0
    3.2646    0.5349    0.0000 H   0  0  0  0  0  0  0  0  0  0  0  0
    2.4675    0.5349    0.0000 H   0  0  0  0  0  0  0  0  0  0  0  0
    6.3301    0.6800    0.0000 H   0  0  0  0  0  0  0  0  0  0  0  0
    6.3301   -2.5600    0.0000 H   0  0  0  0  0  0  0  0  0  0  0  0
    7.7331   -0.1300    0.0000 H   0  0  0  0  0  0  0  0  0  0  0  0
  1 11  1  0  0  0  0
  2 12  1  0  0  0  0
  3 13  2  0  0  0  0
  4 15  2  0  0  0  0
  5  8  1  0  0  0  0
  5  9  1  0  0  0  0
  5 10  1  0  0  0  0
  6 13  1  0  0  0  0
  6 15  1  0  0  0  0
  6 25  1  0  0  0  0
  7 14  1  0  0  0  0
  7 15  1  0  0  0  0
  7 26  1  0  0  0  0
  8 11  1  0  0  0  0
  8 16  1  0  0  0  0
  8 17  1  0  0  0  0
  9 12  1  0  0  0  0
  9 18  1  0  0  0  0
  9 19  1  0  0  0  0
 10 13  1  0  0  0  0
 10 14  2  0  0  0  0
 11 20  1  0  0  0  0
 11 21  1  0  0  0  0
 12 22  1  0  0  0  0
 12 23  1  0  0  0  0
 14 24  1  0  0  0  0
M  END
> <PUBCHEM_COMPOUND_CID>
6194

> <PUBCHEM_COMPOUND_CANONICALIZED>
1

> <PUBCHEM_CACTVS_COMPLEXITY>
288

> <PUBCHEM_CACTVS_HBOND_ACCEPTOR>
3

> <PUBCHEM_CACTVS_HBOND_DONOR>
2

> <PUBCHEM_CACTVS_ROTATABLE_BOND>
5

> <PUBCHEM_CACTVS_SUBSKEYS>
AAADccBzMAAGAAAAAAAAAAAAAAAAAAAAAAAgAAAAAAAAAAAAAAAAHgIQAAAACAvBgEQBAAPAAACIAAVWUACAAAAAAgAAAICIAECAQAAAACBQAAAIByKAAMAAAAAAAAAAAAAAAAAAAAAAAAAAAAAAAAAAAA==

> <PUBCHEM_IUPAC_OPENEYE_NAME>
5-[bis(2-chloroethyl)amino]-1H-pyrimidine-2,4-dione

> <PUBCHEM_IUPAC_CAS_NAME>
5-[bis(2-chloroethyl)amino]-1H-pyrimidine-2,4-dione

> <PUBCHEM_IUPAC_NAME>
5-[bis(2-chloroethyl)amino]-1H-pyrimidine-2,4-dione

> <PUBCHEM_IUPAC_SYSTEMATIC_NAME>
5-[bis(2-chloroethyl)amino]-1H-pyrimidine-2,4-dione

> <PUBCHEM_IUPAC_TRADITIONAL_NAME>
5-[bis(2-chloroethyl)amino]uracil

> <PUBCHEM_IUPAC_INCHI>
InChI=1S/C8H11Cl2N3O2/c9-1-3-13(4-2-10)6-5-11-8(15)12-7(6)14/h5H,1-4H2,(H2,11,12,14,15)

> <PUBCHEM_IUPAC_INCHIKEY>
IDPUKCWIGUEADI-UHFFFAOYSA-N

> <PUBCHEM_XLOGP3_AA>
0.5

> <PUBCHEM_EXACT_MASS>
251.022832

> <PUBCHEM_MOLECULAR_FORMULA>
C8H11Cl2N3O2

> <PUBCHEM_MOLECULAR_WEIGHT>
252.09784

> <PUBCHEM_OPENEYE_CAN_SMILES>
C1=C(C(=O)NC(=O)N1)N(CCCl)CCCl

> <PUBCHEM_OPENEYE_ISO_SMILES>
C1=C(C(=O)NC(=O)N1)N(CCCl)CCCl

> <PUBCHEM_CACTVS_TPSA>
61.4

> <PUBCHEM_MONOISOTOPIC_WEIGHT>
251.022832

> <PUBCHEM_TOTAL_CHARGE>
0

> <PUBCHEM_HEAVY_ATOM_COUNT>
15

> <PUBCHEM_ATOM_DEF_STEREO_COUNT>
0

> <PUBCHEM_ATOM_UDEF_STEREO_COUNT>
0

> <PUBCHEM_BOND_DEF_STEREO_COUNT>
0

> <PUBCHEM_BOND_UDEF_STEREO_COUNT>
0

> <PUBCHEM_ISOTOPIC_ATOM_COUNT>
0

> <PUBCHEM_COMPONENT_COUNT>
1

> <PUBCHEM_CACTVS_TAUTO_COUNT>
9

> <PUBCHEM_COORDINATE_TYPE>
1
5
255

> <PUBCHEM_BONDANNOTATIONS>
10  13  8
10  14  8
6  13  8
6  15  8
7  14  8
7  15  8

$$$$

