115127
  -OEChem-07051212563D

 77 80  0     1  0  0  0  0  0999 V2000
   -0.1231    0.8177    1.3157 O   0  0  0  0  0  0  0  0  0  0  0  0
   -3.0200   -2.3382   -1.3073 O   0  0  0  0  0  0  0  0  0  0  0  0
    5.3574    3.1513   -1.4398 O   0  0  0  0  0  0  0  0  0  0  0  0
   -5.6422   -1.4049   -1.2891 O   0  0  0  0  0  0  0  0  0  0  0  0
    6.6961    1.4575    0.2923 O   0  0  0  0  0  0  0  0  0  0  0  0
    4.3671   -2.3057    2.1223 O   0  0  0  0  0  0  0  0  0  0  0  0
   -0.7106   -0.7093   -0.5028 C   0  0  1  0  0  0  0  0  0  0  0  0
    0.0503   -0.5359    0.8379 C   0  0  1  0  0  0  0  0  0  0  0  0
   -2.1741   -0.5053   -0.0322 C   0  0  2  0  0  0  0  0  0  0  0  0
    2.1664    0.1607   -0.4357 C   0  0  2  0  0  0  0  0  0  0  0  0
    3.6715   -0.2062   -0.7461 C   0  0  2  0  0  0  0  0  0  0  0  0
   -0.2179    0.3630   -1.4891 C   0  0  0  0  0  0  0  0  0  0  0  0
    1.5425   -0.7176    0.6602 C   0  0  0  0  0  0  0  0  0  0  0  0
   -0.7682   -1.4179    1.7929 C   0  0  0  0  0  0  0  0  0  0  0  0
   -2.2294   -1.2400    1.3270 C   0  0  0  0  0  0  0  0  0  0  0  0
    1.2953    0.2389   -1.7280 C   0  0  0  0  0  0  0  0  0  0  0  0
    4.4407   -0.4651    0.5787 C   0  0  1  0  0  0  0  0  0  0  0  0
   -3.2671   -0.9566   -0.9923 C   0  0  2  0  0  0  0  0  0  0  0  0
   -0.5234   -2.1195   -1.1267 C   0  0  0  0  0  0  0  0  0  0  0  0
    4.3910    0.9366   -1.5189 C   0  0  0  0  0  0  0  0  0  0  0  0
    2.2593   -1.5110    1.4701 C   0  0  0  0  0  0  0  0  0  0  0  0
    4.6664    0.8059    1.4176 C   0  0  0  0  0  0  0  0  0  0  0  0
    3.7792   -1.4836   -1.6229 C   0  0  0  0  0  0  0  0  0  0  0  0
    3.7385   -1.5107    1.4249 C   0  0  0  0  0  0  0  0  0  0  0  0
    4.6165    2.1987   -0.6801 C   0  0  1  0  0  0  0  0  0  0  0  0
   -4.6853   -0.8752   -0.3656 C   0  0  1  0  0  0  0  0  0  0  0  0
    5.3741    1.8953    0.6125 C   0  0  2  0  0  0  0  0  0  0  0  0
   -3.1583   -0.1927   -2.3183 C   0  0  0  0  0  0  0  0  0  0  0  0
   -5.1348    0.5417    0.0249 C   0  0  0  0  0  0  0  0  0  0  0  0
   -6.5693    0.5581    0.5762 C   0  0  0  0  0  0  0  0  0  0  0  0
   -7.0363    1.9565    1.0235 C   0  0  0  0  0  0  0  0  0  0  0  0
   -6.9497    2.9893   -0.1011 C   0  0  0  0  0  0  0  0  0  0  0  0
   -6.2026    2.4240    2.2191 C   0  0  0  0  0  0  0  0  0  0  0  0
   -2.3247    0.5653    0.1634 H   0  0  0  0  0  0  0  0  0  0  0  0
    2.1458    1.1734   -0.0121 H   0  0  0  0  0  0  0  0  0  0  0  0
   -0.4397    1.3706   -1.1164 H   0  0  0  0  0  0  0  0  0  0  0  0
   -0.6880    0.2912   -2.4692 H   0  0  0  0  0  0  0  0  0  0  0  0
   -0.6623   -1.1207    2.8422 H   0  0  0  0  0  0  0  0  0  0  0  0
   -0.4887   -2.4747    1.7139 H   0  0  0  0  0  0  0  0  0  0  0  0
    1.4555   -0.6406   -2.3582 H   0  0  0  0  0  0  0  0  0  0  0  0
    1.6135    1.0999   -2.3275 H   0  0  0  0  0  0  0  0  0  0  0  0
   -2.7035   -2.2250    1.2845 H   0  0  0  0  0  0  0  0  0  0  0  0
   -2.7926   -0.6446    2.0550 H   0  0  0  0  0  0  0  0  0  0  0  0
    5.4254   -0.8861    0.3288 H   0  0  0  0  0  0  0  0  0  0  0  0
   -0.9431   -2.9270   -0.5192 H   0  0  0  0  0  0  0  0  0  0  0  0
   -0.8978   -2.1794   -2.1532 H   0  0  0  0  0  0  0  0  0  0  0  0
    0.5404   -2.3710   -1.2082 H   0  0  0  0  0  0  0  0  0  0  0  0
    3.8451    1.1993   -2.4328 H   0  0  0  0  0  0  0  0  0  0  0  0
    5.3667    0.5802   -1.8795 H   0  0  0  0  0  0  0  0  0  0  0  0
    1.8043   -2.1161    2.2456 H   0  0  0  0  0  0  0  0  0  0  0  0
    3.7149    1.1919    1.8025 H   0  0  0  0  0  0  0  0  0  0  0  0
    5.2722    0.5451    2.2950 H   0  0  0  0  0  0  0  0  0  0  0  0
    4.8154   -1.8385   -1.6752 H   0  0  0  0  0  0  0  0  0  0  0  0
    3.1712   -2.3061   -1.2336 H   0  0  0  0  0  0  0  0  0  0  0  0
    3.4685   -1.2945   -2.6558 H   0  0  0  0  0  0  0  0  0  0  0  0
    3.6580    2.6681   -0.4358 H   0  0  0  0  0  0  0  0  0  0  0  0
   -0.9412    0.8935    1.8328 H   0  0  0  0  0  0  0  0  0  0  0  0
   -4.7392   -1.5261    0.5149 H   0  0  0  0  0  0  0  0  0  0  0  0
    5.4786    2.8097    1.2070 H   0  0  0  0  0  0  0  0  0  0  0  0
   -2.4047   -0.6178   -2.9856 H   0  0  0  0  0  0  0  0  0  0  0  0
   -4.0895   -0.2815   -2.8908 H   0  0  0  0  0  0  0  0  0  0  0  0
   -2.9841    0.8777   -2.1706 H   0  0  0  0  0  0  0  0  0  0  0  0
   -3.3723   -2.8934   -0.5922 H   0  0  0  0  0  0  0  0  0  0  0  0
   -5.0915    1.1811   -0.8628 H   0  0  0  0  0  0  0  0  0  0  0  0
   -4.4427    0.9478    0.7664 H   0  0  0  0  0  0  0  0  0  0  0  0
    4.8513    3.3380   -2.2488 H   0  0  0  0  0  0  0  0  0  0  0  0
   -6.4136   -1.7057   -0.7797 H   0  0  0  0  0  0  0  0  0  0  0  0
    7.1575    1.2825    1.1302 H   0  0  0  0  0  0  0  0  0  0  0  0
   -6.6486   -0.1407    1.4181 H   0  0  0  0  0  0  0  0  0  0  0  0
   -7.2670    0.2062   -0.1932 H   0  0  0  0  0  0  0  0  0  0  0  0
   -8.0828    1.8745    1.3421 H   0  0  0  0  0  0  0  0  0  0  0  0
   -7.4231    3.9272    0.2099 H   0  0  0  0  0  0  0  0  0  0  0  0
   -5.9156    3.2233   -0.3734 H   0  0  0  0  0  0  0  0  0  0  0  0
   -7.4713    2.6351   -0.9962 H   0  0  0  0  0  0  0  0  0  0  0  0
   -6.6340    3.3380    2.6426 H   0  0  0  0  0  0  0  0  0  0  0  0
   -5.1683    2.6538    1.9458 H   0  0  0  0  0  0  0  0  0  0  0  0
   -6.1913    1.6684    3.0117 H   0  0  0  0  0  0  0  0  0  0  0  0
  1  8  1  0  0  0  0
  1 57  1  0  0  0  0
  2 18  1  0  0  0  0
  2 63  1  0  0  0  0
  3 25  1  0  0  0  0
  3 66  1  0  0  0  0
  4 26  1  0  0  0  0
  4 67  1  0  0  0  0
  5 27  1  0  0  0  0
  5 68  1  0  0  0  0
  6 24  2  0  0  0  0
  7  8  1  0  0  0  0
  7  9  1  0  0  0  0
  7 12  1  0  0  0  0
  7 19  1  0  0  0  0
  8 13  1  0  0  0  0
  8 14  1  0  0  0  0
  9 15  1  0  0  0  0
  9 18  1  0  0  0  0
  9 34  1  0  0  0  0
 10 11  1  0  0  0  0
 10 13  1  0  0  0  0
 10 16  1  0  0  0  0
 10 35  1  0  0  0  0
 11 17  1  0  0  0  0
 11 20  1  0  0  0  0
 11 23  1  0  0  0  0
 12 16  1  0  0  0  0
 12 36  1  0  0  0  0
 12 37  1  0  0  0  0
 13 21  2  0  0  0  0
 14 15  1  0  0  0  0
 14 38  1  0  0  0  0
 14 39  1  0  0  0  0
 15 42  1  0  0  0  0
 15 43  1  0  0  0  0
 16 40  1  0  0  0  0
 16 41  1  0  0  0  0
 17 22  1  0  0  0  0
 17 24  1  0  0  0  0
 17 44  1  0  0  0  0
 18 26  1  0  0  0  0
 18 28  1  0  0  0  0
 19 45  1  0  0  0  0
 19 46  1  0  0  0  0
 19 47  1  0  0  0  0
 20 25  1  0  0  0  0
 20 48  1  0  0  0  0
 20 49  1  0  0  0  0
 21 24  1  0  0  0  0
 21 50  1  0  0  0  0
 22 27  1  0  0  0  0
 22 51  1  0  0  0  0
 22 52  1  0  0  0  0
 23 53  1  0  0  0  0
 23 54  1  0  0  0  0
 23 55  1  0  0  0  0
 25 27  1  0  0  0  0
 25 56  1  0  0  0  0
 26 29  1  0  0  0  0
 26 58  1  0  0  0  0
 27 59  1  0  0  0  0
 28 60  1  0  0  0  0
 28 61  1  0  0  0  0
 28 62  1  0  0  0  0
 29 30  1  0  0  0  0
 29 64  1  0  0  0  0
 29 65  1  0  0  0  0
 30 31  1  0  0  0  0
 30 69  1  0  0  0  0
 30 70  1  0  0  0  0
 31 32  1  0  0  0  0
 31 33  1  0  0  0  0
 31 71  1  0  0  0  0
 32 72  1  0  0  0  0
 32 73  1  0  0  0  0
 32 74  1  0  0  0  0
 33 75  1  0  0  0  0
 33 76  1  0  0  0  0
 33 77  1  0  0  0  0
M  END
> <PUBCHEM_COMPOUND_CID>
115127

> <PUBCHEM_CONFORMER_RMSD>
1

> <PUBCHEM_CONFORMER_DIVERSEORDER>
1
2

> <PUBCHEM_MMFF94_PARTIAL_CHARGES>
22
1 -0.68
10 0.14
13 -0.28
17 0.06
18 0.28
2 -0.68
21 -0.14
24 0.49
25 0.28
26 0.28
27 0.28
3 -0.68
4 -0.68
5 -0.68
50 0.15
57 0.4
6 -0.57
63 0.4
66 0.4
67 0.4
68 0.4
8 0.42

> <PUBCHEM_EFFECTIVE_ROTOR_COUNT>
6.8

> <PUBCHEM_PHARMACOPHORE_FEATURES>
16
1 1 acceptor
1 1 donor
1 2 acceptor
1 2 donor
1 3 acceptor
1 3 donor
1 4 acceptor
1 4 donor
1 5 acceptor
1 5 donor
1 6 acceptor
3 31 32 33 hydrophobe
5 7 8 9 14 15 rings
6 10 11 13 17 21 24 rings
6 11 17 20 22 25 27 rings
6 7 8 10 12 13 16 rings

> <PUBCHEM_HEAVY_ATOM_COUNT>
33

> <PUBCHEM_ATOM_DEF_STEREO_COUNT>
10

> <PUBCHEM_ATOM_UDEF_STEREO_COUNT>
0

> <PUBCHEM_BOND_DEF_STEREO_COUNT>
0

> <PUBCHEM_BOND_UDEF_STEREO_COUNT>
0

> <PUBCHEM_ISOTOPIC_ATOM_COUNT>
0

> <PUBCHEM_COMPONENT_COUNT>
1

> <PUBCHEM_CACTVS_TAUTO_COUNT>
5

> <PUBCHEM_CONFORMER_ID>
0001C1B700000001

> <PUBCHEM_MMFF94_ENERGY>
125.7516

> <PUBCHEM_FEATURE_SELFOVERLAP>
81.34

> <PUBCHEM_SHAPE_FINGERPRINT>
10 15 18334571344506113979
10554248 39 18042698367440184695
10693767 8 6555420781930317460
10906281 52 18059283259004775652
11456790 92 18060145362205382504
11475781 23 16081658888755386561
11578080 2 17987224552359373408
11646440 116 16988846072667612964
12011746 2 14996278081351040174
12035758 1 16128656331952438721
12236239 1 18410299098681381626
12422481 6 18129381678093725773
12788726 201 18040433308466494168
13533116 47 17988930006795507034
13690498 29 16588879945579428007
13782708 43 13398625040079276577
15081414 286 17346880048357061670
15082195 135 16877937244068530264
15183329 4 17312822697694513561
15188451 53 11312056526627935113
15238133 3 18113907082202813459
15840311 113 18272087257971826821
16994733 274 18187651237390293808
17349148 13 16558481803034749142
17913733 40 17060340743017380161
18222031 100 6699809773864765950
1979834 28 17060617806836193942
20511986 3 17530689800871307878
21130935 74 17917710219269897491
21424621 283 18410290320311125577
21781055 127 18271802394904723132
21792934 111 16630537262700505141
22122407 14 18337663110204206617
22149856 69 16917056811829116665
22182313 1 16056062215095874382
22393880 68 14996289076108557614
23081809 10 18408893931959553663
23522609 53 18410282606508202761
23559900 14 14418133963839640162
23569914 152 5036048407237554841
23569943 247 17700712897445040739
34797466 226 16443908228585394344
3680242 22 17060625464746993724
3918712 181 17968377961472740569
392239 28 16487248847281561237
394071 54 17704354347043544244
397830 11 16415186842059194897
4093350 32 18408880767842697422
4098825 35 18186515535913796750
4340502 62 17489871522696369034
465052 167 13183018518805617966
5104073 3 17418094278184766299
5283173 99 16805601516849196987
6328613 192 18261111885579748289

> <PUBCHEM_SHAPE_MULTIPOLES>
643.91
17.27
2.7
2.1
16.23
1.41
-0.08
13.77
-2.53
0.46
-0.07
-0.33
-0.32
-3.04

> <PUBCHEM_SHAPE_SELFOVERLAP>
1360.555

> <PUBCHEM_SHAPE_VOLUME>
358.6

> <PUBCHEM_COORDINATE_TYPE>
2
5
10

$$$$

