17396164
  -OEChem-06241222542D

 45 48  0     1  0  0  0  0  0999 V2000
    4.2506    0.5452    0.0000 S   0  0  0  0  0  0  0  0  0  0  0  0
    3.0779   -1.0749    0.0000 O   0  0  0  0  0  0  0  0  0  0  0  0
    4.4809   -2.0905    0.0000 N   0  0  0  0  0  0  0  0  0  0  0  0
    4.5274    2.2998    0.0000 N   0  0  0  0  0  0  0  0  0  0  0  0
    6.1391    2.3012    0.0000 N   0  0  0  0  0  0  0  0  0  0  0  0
    5.0274    3.8387    0.0000 N   0  0  0  0  0  0  0  0  0  0  0  0
    5.8311    1.3561    0.0000 N   0  0  0  0  0  0  0  0  0  0  0  0
    3.8945   -2.9006    0.0000 C   0  0  0  0  0  0  0  0  0  0  0  0
    2.8998   -2.7978    0.0000 C   0  0  0  0  0  0  0  0  0  0  0  0
    4.3028   -3.8134    0.0000 C   0  0  0  0  0  0  0  0  0  0  0  0
    2.3134   -3.6078    0.0000 C   0  0  0  0  0  0  0  0  0  0  0  0
    3.7164   -4.6234    0.0000 C   0  0  0  0  0  0  0  0  0  0  0  0
    2.7217   -4.5206    0.0000 C   0  0  0  0  0  0  0  0  0  0  0  0
    4.0726   -1.1777    0.0000 C   0  0  0  0  0  0  0  0  0  0  0  0
    4.6589   -0.3676    0.0000 C   0  0  3  0  0  0  0  0  0  0  0  0
    5.6536   -0.4705    0.0000 C   0  0  0  0  0  0  0  0  0  0  0  0
    4.8370    1.3552    0.0000 C   0  0  0  0  0  0  0  0  0  0  0  0
    3.7183    2.8876    0.0000 C   0  0  0  0  0  0  0  0  0  0  0  0
    5.3364    2.8876    0.0000 C   0  0  0  0  0  0  0  0  0  0  0  0
    4.0274    3.8387    0.0000 C   0  0  0  0  0  0  0  0  0  0  0  0
    2.7029    2.6554    0.0000 C   0  0  0  0  0  0  0  0  0  0  0  0
    3.3424    4.6234    0.0000 C   0  0  0  0  0  0  0  0  0  0  0  0
    2.0000    3.4241    0.0000 C   0  0  0  0  0  0  0  0  0  0  0  0
    2.3219    4.4147    0.0000 C   0  0  0  0  0  0  0  0  0  0  0  0
    3.6413   -2.3346    0.0000 H   0  0  0  0  0  0  0  0  0  0  0  0
    4.7343   -4.2586    0.0000 H   0  0  0  0  0  0  0  0  0  0  0  0
    4.8162   -3.4658    0.0000 H   0  0  0  0  0  0  0  0  0  0  0  0
    3.0696   -2.2015    0.0000 H   0  0  0  0  0  0  0  0  0  0  0  0
    2.3421   -2.5269    0.0000 H   0  0  0  0  0  0  0  0  0  0  0  0
    3.5466   -5.2197    0.0000 H   0  0  0  0  0  0  0  0  0  0  0  0
    4.2741   -4.8943    0.0000 H   0  0  0  0  0  0  0  0  0  0  0  0
    1.8819   -3.1625    0.0000 H   0  0  0  0  0  0  0  0  0  0  0  0
    1.8000   -3.9554    0.0000 H   0  0  0  0  0  0  0  0  0  0  0  0
    2.1204   -4.6716    0.0000 H   0  0  0  0  0  0  0  0  0  0  0  0
    2.7660   -5.1390    0.0000 H   0  0  0  0  0  0  0  0  0  0  0  0
    5.0976   -2.1543    0.0000 H   0  0  0  0  0  0  0  0  0  0  0  0
    5.0225    0.1346    0.0000 H   0  0  0  0  0  0  0  0  0  0  0  0
    5.5899   -1.0872    0.0000 H   0  0  0  0  0  0  0  0  0  0  0  0
    6.2704   -0.5342    0.0000 H   0  0  0  0  0  0  0  0  0  0  0  0
    5.7174    0.1463    0.0000 H   0  0  0  0  0  0  0  0  0  0  0  0
    6.7291    2.4918    0.0000 H   0  0  0  0  0  0  0  0  0  0  0  0
    2.5182    2.0636    0.0000 H   0  0  0  0  0  0  0  0  0  0  0  0
    3.5408    5.2108    0.0000 H   0  0  0  0  0  0  0  0  0  0  0  0
    1.3940    3.2928    0.0000 H   0  0  0  0  0  0  0  0  0  0  0  0
    1.9088    4.8771    0.0000 H   0  0  0  0  0  0  0  0  0  0  0  0
  1 15  1  0  0  0  0
  1 17  1  0  0  0  0
  2 14  2  0  0  0  0
  3  8  1  0  0  0  0
  3 14  1  0  0  0  0
  3 36  1  0  0  0  0
  4 17  1  0  0  0  0
  4 18  1  0  0  0  0
  4 19  1  0  0  0  0
  5  7  1  0  0  0  0
  5 19  1  0  0  0  0
  5 41  1  0  0  0  0
  6 19  2  0  0  0  0
  6 20  1  0  0  0  0
  7 17  2  0  0  0  0
  8  9  1  0  0  0  0
  8 10  1  0  0  0  0
  8 25  1  0  0  0  0
  9 11  1  0  0  0  0
  9 28  1  0  0  0  0
  9 29  1  0  0  0  0
 10 12  1  0  0  0  0
 10 26  1  0  0  0  0
 10 27  1  0  0  0  0
 11 13  1  0  0  0  0
 11 32  1  0  0  0  0
 11 33  1  0  0  0  0
 12 13  1  0  0  0  0
 12 30  1  0  0  0  0
 12 31  1  0  0  0  0
 13 34  1  0  0  0  0
 13 35  1  0  0  0  0
 14 15  1  0  0  0  0
 15 16  1  0  0  0  0
 15 37  1  0  0  0  0
 16 38  1  0  0  0  0
 16 39  1  0  0  0  0
 16 40  1  0  0  0  0
 18 20  1  0  0  0  0
 18 21  2  0  0  0  0
 20 22  2  0  0  0  0
 21 23  1  0  0  0  0
 21 42  1  0  0  0  0
 22 24  1  0  0  0  0
 22 43  1  0  0  0  0
 23 24  2  0  0  0  0
 23 44  1  0  0  0  0
 24 45  1  0  0  0  0
M  END
> <PUBCHEM_COMPOUND_CID>
17396164

> <PUBCHEM_COMPOUND_CANONICALIZED>
1

> <PUBCHEM_CACTVS_COMPLEXITY>
458

> <PUBCHEM_CACTVS_HBOND_ACCEPTOR>
4

> <PUBCHEM_CACTVS_HBOND_DONOR>
2

> <PUBCHEM_CACTVS_ROTATABLE_BOND>
4

> <PUBCHEM_CACTVS_SUBSKEYS>
AAADceB7oABAAAAAAAAAAAAAAAAAAWLAAAAwYAAAAAAWAFgB/AAAHgQYAAAACCjF1gSz0LfvGAiqASVydACS0C/hErANuKE4dJiIaKLAmZGUIAholgLIyCcQAAAAAAAAAAAAACAAAAAAAAAAQAAAAAAAAA==

> <PUBCHEM_IUPAC_OPENEYE_NAME>
N-cyclohexyl-2-(3H-[1,2,4]triazolo[4,3-a]benzimidazol-1-ylsulfanyl)propanamide

> <PUBCHEM_IUPAC_CAS_NAME>
N-cyclohexyl-2-(3H-[1,2,4]triazolo[4,3-a]benzimidazol-1-ylthio)propanamide

> <PUBCHEM_IUPAC_NAME>
N-cyclohexyl-2-(3H-[1,2,4]triazolo[4,3-a]benzimidazol-1-ylsulfanyl)propanamide

> <PUBCHEM_IUPAC_SYSTEMATIC_NAME>
N-cyclohexyl-2-(3H-[1,2,4]triazolo[4,3-a]benzimidazol-1-ylsulfanyl)propanamide

> <PUBCHEM_IUPAC_TRADITIONAL_NAME>
N-cyclohexyl-2-(3H-[1,2,4]triazolo[4,3-a]benzimidazol-1-ylthio)propionamide

> <PUBCHEM_IUPAC_INCHI>
InChI=1S/C17H21N5OS/c1-11(15(23)18-12-7-3-2-4-8-12)24-17-21-20-16-19-13-9-5-6-10-14(13)22(16)17/h5-6,9-12H,2-4,7-8H2,1H3,(H,18,23)(H,19,20)

> <PUBCHEM_IUPAC_INCHIKEY>
DUQPJEWKJITMCA-UHFFFAOYSA-N

> <PUBCHEM_XLOGP3_AA>
3.9

> <PUBCHEM_EXACT_MASS>
343.146681

> <PUBCHEM_MOLECULAR_FORMULA>
C17H21N5OS

> <PUBCHEM_MOLECULAR_WEIGHT>
343.44654

> <PUBCHEM_OPENEYE_CAN_SMILES>
CC(C(=O)NC1CCCCC1)SC2=NNC3=NC4=CC=CC=C4N32

> <PUBCHEM_OPENEYE_ISO_SMILES>
CC(C(=O)NC1CCCCC1)SC2=NNC3=NC4=CC=CC=C4N32

> <PUBCHEM_CACTVS_TPSA>
100

> <PUBCHEM_MONOISOTOPIC_WEIGHT>
343.146681

> <PUBCHEM_TOTAL_CHARGE>
0

> <PUBCHEM_HEAVY_ATOM_COUNT>
24

> <PUBCHEM_ATOM_DEF_STEREO_COUNT>
0

> <PUBCHEM_ATOM_UDEF_STEREO_COUNT>
1

> <PUBCHEM_BOND_DEF_STEREO_COUNT>
0

> <PUBCHEM_BOND_UDEF_STEREO_COUNT>
0

> <PUBCHEM_ISOTOPIC_ATOM_COUNT>
0

> <PUBCHEM_COMPONENT_COUNT>
1

> <PUBCHEM_CACTVS_TAUTO_COUNT>
4

> <PUBCHEM_COORDINATE_TYPE>
1
5
255

> <PUBCHEM_BONDANNOTATIONS>
15  16  3
18  20  8
18  21  8
20  22  8
21  23  8
22  24  8
23  24  8
4  17  8
4  18  8
4  19  8
5  19  8
5  7  8
6  19  8
6  20  8
7  17  8

$$$$

