5281761
  -OEChem-07051212593D

 42 43  0     1  0  0  0  0  0999 V2000
    2.8222   -0.7528    0.2246 O   0  0  0  0  0  0  0  0  0  0  0  0
    6.4676   -0.3996    0.2387 O   0  0  0  0  0  0  0  0  0  0  0  0
    5.5324    2.2938    0.7143 O   0  0  0  0  0  0  0  0  0  0  0  0
    3.0004    2.7739   -0.7136 O   0  0  0  0  0  0  0  0  0  0  0  0
    1.0893    0.7553   -0.1832 O   0  0  0  0  0  0  0  0  0  0  0  0
    3.5007   -3.4123    0.0725 O   0  0  0  0  0  0  0  0  0  0  0  0
    0.4499   -1.2569   -1.1210 O   0  0  0  0  0  0  0  0  0  0  0  0
   -6.8568   -1.7236    0.2033 O   0  0  0  0  0  0  0  0  0  0  0  0
   -7.5284    0.9375    0.6427 O   0  0  0  0  0  0  0  0  0  0  0  0
    5.1208   -0.0586    0.5565 C   0  0  1  0  0  0  0  0  0  0  0  0
    4.7971    1.3176   -0.0251 C   0  0  1  0  0  0  0  0  0  0  0  0
    4.1812   -1.1238   -0.0135 C   0  0  1  0  0  0  0  0  0  0  0  0
    3.3025    1.6230    0.0747 C   0  0  2  0  0  0  0  0  0  0  0  0
    2.4608    0.4555   -0.4403 C   0  0  1  0  0  0  0  0  0  0  0  0
    4.4076   -2.4840    0.6388 C   0  0  0  0  0  0  0  0  0  0  0  0
    0.1950   -0.1936   -0.5781 C   0  0  0  0  0  0  0  0  0  0  0  0
   -1.1604    0.2917   -0.2329 C   0  0  0  0  0  0  0  0  0  0  0  0
   -2.2263   -0.4726   -0.5107 C   0  0  0  0  0  0  0  0  0  0  0  0
   -3.6209   -0.1057   -0.2075 C   0  0  0  0  0  0  0  0  0  0  0  0
   -4.5856   -1.0981   -0.1454 C   0  0  0  0  0  0  0  0  0  0  0  0
   -3.9401    1.2251    0.0088 C   0  0  0  0  0  0  0  0  0  0  0  0
   -5.9058   -0.7502    0.1407 C   0  0  0  0  0  0  0  0  0  0  0  0
   -5.2602    1.5729    0.2948 C   0  0  0  0  0  0  0  0  0  0  0  0
   -6.2430    0.5853    0.3609 C   0  0  0  0  0  0  0  0  0  0  0  0
    5.0417   -0.0199    1.6499 H   0  0  0  0  0  0  0  0  0  0  0  0
    5.1382    1.3952   -1.0649 H   0  0  0  0  0  0  0  0  0  0  0  0
    4.3258   -1.2387   -1.0965 H   0  0  0  0  0  0  0  0  0  0  0  0
    3.0330    1.8676    1.1090 H   0  0  0  0  0  0  0  0  0  0  0  0
    2.5845    0.3399   -1.5260 H   0  0  0  0  0  0  0  0  0  0  0  0
    4.2189   -2.4479    1.7169 H   0  0  0  0  0  0  0  0  0  0  0  0
    5.4246   -2.8496    0.4708 H   0  0  0  0  0  0  0  0  0  0  0  0
    6.5458   -0.4435   -0.7297 H   0  0  0  0  0  0  0  0  0  0  0  0
    6.4748    2.0644    0.6423 H   0  0  0  0  0  0  0  0  0  0  0  0
    3.2348    2.5773   -1.6367 H   0  0  0  0  0  0  0  0  0  0  0  0
    2.6013   -3.0749    0.2241 H   0  0  0  0  0  0  0  0  0  0  0  0
   -1.2267    1.2543    0.2606 H   0  0  0  0  0  0  0  0  0  0  0  0
   -2.0932   -1.4430   -0.9836 H   0  0  0  0  0  0  0  0  0  0  0  0
   -4.3241   -2.1398   -0.3153 H   0  0  0  0  0  0  0  0  0  0  0  0
   -3.2134    2.0287   -0.0540 H   0  0  0  0  0  0  0  0  0  0  0  0
   -5.5179    2.6155    0.4609 H   0  0  0  0  0  0  0  0  0  0  0  0
   -6.4418   -2.5847    0.0245 H   0  0  0  0  0  0  0  0  0  0  0  0
   -8.0722    0.1306    0.6488 H   0  0  0  0  0  0  0  0  0  0  0  0
  1 12  1  0  0  0  0
  1 14  1  0  0  0  0
  2 10  1  0  0  0  0
  2 32  1  0  0  0  0
  3 11  1  0  0  0  0
  3 33  1  0  0  0  0
  4 13  1  0  0  0  0
  4 34  1  0  0  0  0
  5 14  1  0  0  0  0
  5 16  1  0  0  0  0
  6 15  1  0  0  0  0
  6 35  1  0  0  0  0
  7 16  2  0  0  0  0
  8 22  1  0  0  0  0
  8 41  1  0  0  0  0
  9 24  1  0  0  0  0
  9 42  1  0  0  0  0
 10 11  1  0  0  0  0
 10 12  1  0  0  0  0
 10 25  1  0  0  0  0
 11 13  1  0  0  0  0
 11 26  1  0  0  0  0
 12 15  1  0  0  0  0
 12 27  1  0  0  0  0
 13 14  1  0  0  0  0
 13 28  1  0  0  0  0
 14 29  1  0  0  0  0
 15 30  1  0  0  0  0
 15 31  1  0  0  0  0
 16 17  1  0  0  0  0
 17 18  2  0  0  0  0
 17 36  1  0  0  0  0
 18 19  1  0  0  0  0
 18 37  1  0  0  0  0
 19 20  2  0  0  0  0
 19 21  1  0  0  0  0
 20 22  1  0  0  0  0
 20 38  1  0  0  0  0
 21 23  2  0  0  0  0
 21 39  1  0  0  0  0
 22 24  2  0  0  0  0
 23 24  1  0  0  0  0
 23 40  1  0  0  0  0
M  END
> <PUBCHEM_COMPOUND_CID>
5281761

> <PUBCHEM_CONFORMER_RMSD>
0.8

> <PUBCHEM_CONFORMER_DIVERSEORDER>
1
196
131
117
161
224
106
229
184
14
144
223
208
49
90
134
125
104
83
133
147
15
179
40
122
31
102
154
6
21
204
205
182
160
186
9
62
46
139
197
55
168
189
156
206
2
118
171
217
170
68
32
38
175
25
85
201
95
84
207
42
199
151
174
53
148
195
47
108
71
143
79
228
138
111
75
26
16
188
180
22
78
19
140
200
10
191
176
213
129
105
146
211
73
225
5
192
61
99
23
130
198
74
124
183
120
230
20
107
202
65
17
141
101
86
89
215
164
39
115
88
33
37
81
103
77
72
127
220
136
157
96
48
212
94
149
92
69
193
109
13
54
233
126
159
232
98
3
214
219
27
91
166
209
80
128
137
203
113
145
11
216
123
70
177
52
116
4
82
231
190
63
152
56
76
167
132
60
28
210
142
12
222
43
93
187
227
172
155
173
226
221
162
112
58
7
181
87
169
44
135
110
59
18
34
185
165
8
178
100
29
119
163
24
150
114
51
35
97
218
64
158
30
153
41
50
121
194
36
66
67
57
45

> <PUBCHEM_MMFF94_PARTIAL_CHARGES>
35
1 -0.56
10 0.28
11 0.28
12 0.28
13 0.28
14 0.56
15 0.28
16 0.71
17 -0.14
18 -0.18
19 0.03
2 -0.68
20 -0.15
21 -0.15
22 0.08
23 -0.15
24 0.08
3 -0.68
32 0.4
33 0.4
34 0.4
35 0.4
36 0.15
37 0.15
38 0.15
39 0.15
4 -0.68
40 0.15
41 0.45
42 0.45
5 -0.43
6 -0.68
7 -0.57
8 -0.53
9 -0.53

> <PUBCHEM_EFFECTIVE_ROTOR_COUNT>
6.2

> <PUBCHEM_PHARMACOPHORE_FEATURES>
14
1 1 acceptor
1 2 acceptor
1 2 donor
1 3 acceptor
1 3 donor
1 4 acceptor
1 4 donor
1 6 acceptor
1 6 donor
1 7 acceptor
1 8 donor
1 9 donor
6 1 10 11 12 13 14 rings
6 19 20 21 22 23 24 rings

> <PUBCHEM_HEAVY_ATOM_COUNT>
24

> <PUBCHEM_ATOM_DEF_STEREO_COUNT>
5

> <PUBCHEM_ATOM_UDEF_STEREO_COUNT>
0

> <PUBCHEM_BOND_DEF_STEREO_COUNT>
1

> <PUBCHEM_BOND_UDEF_STEREO_COUNT>
0

> <PUBCHEM_ISOTOPIC_ATOM_COUNT>
0

> <PUBCHEM_COMPONENT_COUNT>
1

> <PUBCHEM_CACTVS_TAUTO_COUNT>
10

> <PUBCHEM_CONFORMER_ID>
005097E100000001

> <PUBCHEM_MMFF94_ENERGY>
64.3962

> <PUBCHEM_FEATURE_SELFOVERLAP>
71.064

> <PUBCHEM_SHAPE_FINGERPRINT>
10354089 29 18410012130963446508
10411042 1 18050850220228163162
10595046 47 18409166584994135185
11315181 36 18342457011814659485
11719270 70 17894350012274051695
11724838 91 18334581191811121294
12107183 9 17832422373127848569
12166972 35 18342453716747426037
12236239 1 18187647981208425237
12596602 18 18410293618803869603
12616971 3 17967822647553458951
13073987 5 18409448090056703065
13167372 99 18334292093473727561
13167823 11 18411984671982661107
13533116 47 18341330080298326306
13785724 45 17829321737722442542
14211702 104 17917137309461578179
14251732 16 18409448051438829627
14251764 18 18411982433845562764
14341114 176 18411697716326805597
14461889 52 18270402681087051834
14849402 71 18269553854222304812
14933364 13 18409165510925335025
15183329 4 18411138060766222873
15250474 111 18261969439866643535
15348495 7 18059568041217099977
15475509 35 16988014911319009314
17844677 252 18411132575982352245
1813 80 16917347060485023342
18222031 100 15698000725707868223
19427546 62 18198060279794767824
20281389 69 18409167714618455081
21130935 74 18409727374811635211
21197605 99 18339921506935047586
21267235 1 18410011074876154478
21859007 373 17701547431782115557
220451 1 18411133632581198111
22956985 138 14187639097923624320
23081809 10 18040157318917101533
23536379 177 18410292523550292041
23559900 14 18341896268382489864
239999 70 18260261976171584318
3004659 81 18334008415215184556
312425 54 18131346436732193035
314173 85 16415761933884869749
3421961 26 18340492278687890442
3663271 9 18407757036994144227
4073 2 18130220454546102387
4340502 62 18202286892348888994
5104073 3 18337380617905140179
8272917 22 18410011048779524038
9995097 60 18341619273246755133
9996256 80 18334859390413749511

> <PUBCHEM_SHAPE_MULTIPOLES>
441.08
19.62
2.48
0.76
17.55
0.68
-0.03
-0.35
4.53
-3.44
0.15
-0.11
0
-0.52

> <PUBCHEM_SHAPE_SELFOVERLAP>
927.971

> <PUBCHEM_SHAPE_VOLUME>
245.1

> <PUBCHEM_COORDINATE_TYPE>
2
5
10

$$$$

