13353
  -OEChem-06261209142D

 16 14  0     1  0  0  0  0  0999 V2000
    2.2690    0.3100    0.0000 O   0  0  0  0  0  0  0  0  0  0  0  0
    3.1350    2.8100    0.0000 O   0  0  0  0  0  0  0  0  0  0  0  0
    0.5369    1.3100    0.0000 O   0  0  0  0  0  0  0  0  0  0  0  0
    1.4030    2.8100    0.0000 O   0  0  0  0  0  0  0  0  0  0  0  0
    4.8671    1.8100    0.0000 O   0  5  0  0  0  0  0  0  0  0  0  0
    4.0010    0.3100    0.0000 O   0  0  0  0  0  0  0  0  0  0  0  0
    2.2690    1.3100    0.0000 C   0  0  2  0  0  0  0  0  0  0  0  0
    3.1350    1.8100    0.0000 C   0  0  2  0  0  0  0  0  0  0  0  0
    1.4030    1.8100    0.0000 C   0  0  0  0  0  0  0  0  0  0  0  0
    4.0010    1.3100    0.0000 C   0  0  0  0  0  0  0  0  0  0  0  0
    5.7331    1.3100    0.0000 Li  0  3  0  0  0  0  0  0  0  0  0  0
    2.8059    1.0000    0.0000 H   0  0  0  0  0  0  0  0  0  0  0  0
    3.6719    2.1200    0.0000 H   0  0  0  0  0  0  0  0  0  0  0  0
    1.7321    0.0000    0.0000 H   0  0  0  0  0  0  0  0  0  0  0  0
    3.6719    3.1200    0.0000 H   0  0  0  0  0  0  0  0  0  0  0  0
    0.0000    1.6200    0.0000 H   0  0  0  0  0  0  0  0  0  0  0  0
  7  1  1  1  0  0  0
  1 14  1  0  0  0  0
  8  2  1  1  0  0  0
  2 15  1  0  0  0  0
  3  9  1  0  0  0  0
  3 16  1  0  0  0  0
  4  9  2  0  0  0  0
  5 10  1  0  0  0  0
  6 10  2  0  0  0  0
  7  8  1  0  0  0  0
  7  9  1  0  0  0  0
  7 12  1  0  0  0  0
  8 10  1  0  0  0  0
  8 13  1  0  0  0  0
M  CHG  2   5  -1  11   1
M  END
> <PUBCHEM_COMPOUND_CID>
13353

> <PUBCHEM_COMPOUND_CANONICALIZED>
1

> <PUBCHEM_CACTVS_COMPLEXITY>
146

> <PUBCHEM_CACTVS_HBOND_ACCEPTOR>
6

> <PUBCHEM_CACTVS_HBOND_DONOR>
3

> <PUBCHEM_CACTVS_ROTATABLE_BOND>
2

> <PUBCHEM_CACTVS_SUBSKEYS>
AAADcYhgOAAAAAAAAAAAAAAAAAAAAAAAAAAAAAAAAAAAAAAAAAAAGgAACAAACBSggAIACAAAAgAIAACQCAIAAAAAAAAAAAFAAAABEBQAAAAAQAAFIAABAABDAAAAAAAAAAAAAAAAAAAAAAAAAAAAAAAAAA==

> <PUBCHEM_IUPAC_OPENEYE_NAME>
lithium (2R,3R)-2,3,4-trihydroxy-4-oxo-butanoate

> <PUBCHEM_IUPAC_CAS_NAME>
lithium (2R,3R)-2,3,4-trihydroxy-4-oxobutanoate

> <PUBCHEM_IUPAC_NAME>
lithium (2R,3R)-2,3,4-trihydroxy-4-oxobutanoate

> <PUBCHEM_IUPAC_SYSTEMATIC_NAME>
lithium (2R,3R)-2,3,4-tris(oxidanyl)-4-oxidanylidene-butanoate

> <PUBCHEM_IUPAC_TRADITIONAL_NAME>
lithium (2R,3R)-2,3,4-trihydroxy-4-keto-butyrate

> <PUBCHEM_IUPAC_INCHI>
InChI=1S/C4H6O6.Li/c5-1(3(7)8)2(6)4(9)10;/h1-2,5-6H,(H,7,8)(H,9,10);/q;+1/p-1/t1-,2-;/m1./s1

> <PUBCHEM_IUPAC_INCHIKEY>
ZPPPLBXXTCVBNC-ZVGUSBNCSA-M

> <PUBCHEM_EXACT_MASS>
156.024617

> <PUBCHEM_MOLECULAR_FORMULA>
C4H5LiO6

> <PUBCHEM_MOLECULAR_WEIGHT>
156.0199

> <PUBCHEM_OPENEYE_CAN_SMILES>
[Li+].C(C(C(=O)[O-])O)(C(=O)O)O

> <PUBCHEM_OPENEYE_ISO_SMILES>
[Li+].[C@@H]([C@H](C(=O)[O-])O)(C(=O)O)O

> <PUBCHEM_CACTVS_TPSA>
118

> <PUBCHEM_MONOISOTOPIC_WEIGHT>
156.024617

> <PUBCHEM_TOTAL_CHARGE>
0

> <PUBCHEM_HEAVY_ATOM_COUNT>
11

> <PUBCHEM_ATOM_DEF_STEREO_COUNT>
2

> <PUBCHEM_ATOM_UDEF_STEREO_COUNT>
0

> <PUBCHEM_BOND_DEF_STEREO_COUNT>
0

> <PUBCHEM_BOND_UDEF_STEREO_COUNT>
0

> <PUBCHEM_ISOTOPIC_ATOM_COUNT>
0

> <PUBCHEM_COMPONENT_COUNT>
2

> <PUBCHEM_CACTVS_TAUTO_COUNT>
1

> <PUBCHEM_COORDINATE_TYPE>
1
5
255

> <PUBCHEM_BONDANNOTATIONS>
7  1  5
8  2  5

$$$$

