12685
  -OEChem-06261207143D

 22 21  0     0  0  0  0  0  0999 V2000
   -0.0080   -0.8693    0.1139 P   0  0  0  0  0  0  0  0  0  0  0  0
    1.4719   -0.2747    0.3904 O   0  0  0  0  0  0  0  0  0  0  0  0
   -0.9752    0.4208    0.2570 O   0  0  0  0  0  0  0  0  0  0  0  0
   -0.3684   -2.0188    1.0108 O   0  0  0  0  0  0  0  0  0  0  0  0
   -0.0345   -1.2762   -1.6215 C   0  0  0  0  0  0  0  0  0  0  0  0
    1.9320    0.8782   -0.2918 C   0  0  0  0  0  0  0  0  0  0  0  0
   -2.3342    0.3080   -0.1269 C   0  0  0  0  0  0  0  0  0  0  0  0
    3.3390    1.1950    0.1684 C   0  0  0  0  0  0  0  0  0  0  0  0
   -3.0226    1.6370    0.0998 C   0  0  0  0  0  0  0  0  0  0  0  0
    0.1011   -0.3912   -2.2483 H   0  0  0  0  0  0  0  0  0  0  0  0
    0.7618   -1.9891   -1.8537 H   0  0  0  0  0  0  0  0  0  0  0  0
   -0.9871   -1.7394   -1.8938 H   0  0  0  0  0  0  0  0  0  0  0  0
    1.9321    0.6947   -1.3695 H   0  0  0  0  0  0  0  0  0  0  0  0
    1.2689    1.7210   -0.0752 H   0  0  0  0  0  0  0  0  0  0  0  0
   -2.3997    0.0389   -1.1847 H   0  0  0  0  0  0  0  0  0  0  0  0
   -2.8130   -0.4754    0.4686 H   0  0  0  0  0  0  0  0  0  0  0  0
    3.7261    2.0824   -0.3401 H   0  0  0  0  0  0  0  0  0  0  0  0
    3.3610    1.3693    1.2492 H   0  0  0  0  0  0  0  0  0  0  0  0
    4.0092    0.3524   -0.0316 H   0  0  0  0  0  0  0  0  0  0  0  0
   -4.0768    1.5850   -0.1863 H   0  0  0  0  0  0  0  0  0  0  0  0
   -2.9562    1.9309    1.1526 H   0  0  0  0  0  0  0  0  0  0  0  0
   -2.5367    2.4270   -0.4823 H   0  0  0  0  0  0  0  0  0  0  0  0
  1  2  1  0  0  0  0
  1  3  1  0  0  0  0
  1  4  2  0  0  0  0
  1  5  1  0  0  0  0
  2  6  1  0  0  0  0
  3  7  1  0  0  0  0
  5 10  1  0  0  0  0
  5 11  1  0  0  0  0
  5 12  1  0  0  0  0
  6  8  1  0  0  0  0
  6 13  1  0  0  0  0
  6 14  1  0  0  0  0
  7  9  1  0  0  0  0
  7 15  1  0  0  0  0
  7 16  1  0  0  0  0
  8 17  1  0  0  0  0
  8 18  1  0  0  0  0
  8 19  1  0  0  0  0
  9 20  1  0  0  0  0
  9 21  1  0  0  0  0
  9 22  1  0  0  0  0
M  END
> <PUBCHEM_COMPOUND_CID>
12685

> <PUBCHEM_CONFORMER_RMSD>
0.6

> <PUBCHEM_CONFORMER_DIVERSEORDER>
1
7
10
8
12
2
14
5
4
3
13
11
6
9

> <PUBCHEM_MMFF94_PARTIAL_CHARGES>
6
1 1.24
2 -0.55
3 -0.55
4 -0.7
6 0.28
7 0.28

> <PUBCHEM_EFFECTIVE_ROTOR_COUNT>
4

> <PUBCHEM_PHARMACOPHORE_FEATURES>
1
1 4 acceptor

> <PUBCHEM_HEAVY_ATOM_COUNT>
9

> <PUBCHEM_ATOM_DEF_STEREO_COUNT>
0

> <PUBCHEM_ATOM_UDEF_STEREO_COUNT>
0

> <PUBCHEM_BOND_DEF_STEREO_COUNT>
0

> <PUBCHEM_BOND_UDEF_STEREO_COUNT>
0

> <PUBCHEM_ISOTOPIC_ATOM_COUNT>
0

> <PUBCHEM_COMPONENT_COUNT>
1

> <PUBCHEM_CACTVS_TAUTO_COUNT>
1

> <PUBCHEM_CONFORMER_ID>
0000318D00000001

> <PUBCHEM_MMFF94_ENERGY>
1.9636

> <PUBCHEM_FEATURE_SELFOVERLAP>
5.074

> <PUBCHEM_SHAPE_FINGERPRINT>
100427 49 16968011143285681905
10149128 76 18409164441320307176
14325111 11 18411419518183372913
14390081 3 18409729603519580529
15775835 57 18408044021860455453
170605 34 18335699511480682597
20653085 51 18187077326257774164
21028194 46 18335133185308446280
21040471 1 18343295951116752898
21524375 3 18408609166468117101
23211744 41 18410567427031782821

> <PUBCHEM_SHAPE_MULTIPOLES>
171.46
4.41
1.87
1.03
0.74
0.34
0.25
-3.81
-0.1
-0.39
-0.06
-0.01
0.61
0.04

> <PUBCHEM_SHAPE_SELFOVERLAP>
290.983

> <PUBCHEM_SHAPE_VOLUME>
116.4

> <PUBCHEM_COORDINATE_TYPE>
2
5
10

$$$$

