253787
  -OEChem-07051213062D

 57 60  0     1  0  0  0  0  0999 V2000
    3.3109   -3.2922    0.0000 F   0  0  0  0  0  0  0  0  0  0  0  0
    4.3109   -3.2883    0.0000 F   0  0  0  0  0  0  0  0  0  0  0  0
    8.6500    1.9292    0.0000 O   0  0  0  0  0  0  0  0  0  0  0  0
    2.0000   -2.3784    0.0000 O   0  0  0  0  0  0  0  0  0  0  0  0
   10.2963    1.3911    0.0000 O   0  0  0  0  0  0  0  0  0  0  0  0
    7.3931   -0.3260    0.0000 C   0  0  2  0  0  0  0  0  0  0  0  0
    7.3931    0.6740    0.0000 C   0  0  2  0  0  0  0  0  0  0  0  0
    6.5271   -0.8260    0.0000 C   0  0  1  0  0  0  0  0  0  0  0  0
    5.6610   -0.3260    0.0000 C   0  0  1  0  0  0  0  0  0  0  0  0
    4.7510   -0.8329    0.0000 C   0  0  2  0  0  0  0  0  0  0  0  0
    6.5271    1.1740    0.0000 C   0  0  0  0  0  0  0  0  0  0  0  0
    5.6610    0.6740    0.0000 C   0  0  0  0  0  0  0  0  0  0  0  0
    8.3393    0.9787    0.0000 C   0  0  2  0  0  0  0  0  0  0  0  0
    8.3393   -0.6308    0.0000 C   0  0  0  0  0  0  0  0  0  0  0  0
    8.9229    0.1740    0.0000 C   0  0  0  0  0  0  0  0  0  0  0  0
    6.5431   -1.8676    0.0000 C   0  0  0  0  0  0  0  0  0  0  0  0
    4.7430   -1.8745    0.0000 C   0  0  0  0  0  0  0  0  0  0  0  0
    7.3931    1.6740    0.0000 C   0  0  0  0  0  0  0  0  0  0  0  0
    3.8242   -0.2688    0.0000 C   0  0  0  0  0  0  0  0  0  0  0  0
    5.6451   -2.3953    0.0000 C   0  0  0  0  0  0  0  0  0  0  0  0
    4.7587    0.1671    0.0000 C   0  0  0  0  0  0  0  0  0  0  0  0
    3.8076   -2.4242    0.0000 C   0  0  0  0  0  0  0  0  0  0  0  0
    2.8763   -0.7968    0.0000 C   0  0  0  0  0  0  0  0  0  0  0  0
    2.8680   -1.8817    0.0000 C   0  0  0  0  0  0  0  0  0  0  0  0
    9.6285    2.1354    0.0000 C   0  0  0  0  0  0  0  0  0  0  0  0
    9.9391    3.0859    0.0000 C   0  0  0  0  0  0  0  0  0  0  0  0
   10.9176    3.2922    0.0000 C   0  0  0  0  0  0  0  0  0  0  0  0
    7.4830   -1.1713    0.0000 H   0  0  0  0  0  0  0  0  0  0  0  0
    7.2664   -1.2454    0.0000 H   0  0  0  0  0  0  0  0  0  0  0  0
    6.3972    0.0990    0.0000 H   0  0  0  0  0  0  0  0  0  0  0  0
    6.9256    1.6489    0.0000 H   0  0  0  0  0  0  0  0  0  0  0  0
    6.1285    1.6489    0.0000 H   0  0  0  0  0  0  0  0  0  0  0  0
    5.4490    1.2566    0.0000 H   0  0  0  0  0  0  0  0  0  0  0  0
    5.0504    0.5663    0.0000 H   0  0  0  0  0  0  0  0  0  0  0  0
    7.9018    1.4180    0.0000 H   0  0  0  0  0  0  0  0  0  0  0  0
    8.0883   -1.1977    0.0000 H   0  0  0  0  0  0  0  0  0  0  0  0
    8.8767   -0.9400    0.0000 H   0  0  0  0  0  0  0  0  0  0  0  0
    9.3838   -0.2408    0.0000 H   0  0  0  0  0  0  0  0  0  0  0  0
    9.3838    0.5887    0.0000 H   0  0  0  0  0  0  0  0  0  0  0  0
    6.7612   -2.4480    0.0000 H   0  0  0  0  0  0  0  0  0  0  0  0
    7.1523   -1.7521    0.0000 H   0  0  0  0  0  0  0  0  0  0  0  0
    8.0131    1.6740    0.0000 H   0  0  0  0  0  0  0  0  0  0  0  0
    7.3931    2.2940    0.0000 H   0  0  0  0  0  0  0  0  0  0  0  0
    6.7731    1.6740    0.0000 H   0  0  0  0  0  0  0  0  0  0  0  0
    4.2324    0.1978    0.0000 H   0  0  0  0  0  0  0  0  0  0  0  0
    3.4343    0.2132    0.0000 H   0  0  0  0  0  0  0  0  0  0  0  0
    5.6475   -3.0153    0.0000 H   0  0  0  0  0  0  0  0  0  0  0  0
    5.3787    0.1623    0.0000 H   0  0  0  0  0  0  0  0  0  0  0  0
    4.7635    0.7871    0.0000 H   0  0  0  0  0  0  0  0  0  0  0  0
    4.1388    0.1719    0.0000 H   0  0  0  0  0  0  0  0  0  0  0  0
    2.6718   -0.2115    0.0000 H   0  0  0  0  0  0  0  0  0  0  0  0
    2.2647   -0.8981    0.0000 H   0  0  0  0  0  0  0  0  0  0  0  0
    9.9186    3.7056    0.0000 H   0  0  0  0  0  0  0  0  0  0  0  0
    9.3253    3.1733    0.0000 H   0  0  0  0  0  0  0  0  0  0  0  0
   11.0455    2.6855    0.0000 H   0  0  0  0  0  0  0  0  0  0  0  0
   11.5243    3.4200    0.0000 H   0  0  0  0  0  0  0  0  0  0  0  0
   10.7898    3.8988    0.0000 H   0  0  0  0  0  0  0  0  0  0  0  0
  1 22  1  0  0  0  0
  2 22  1  0  0  0  0
 13  3  1  1  0  0  0
  3 25  1  0  0  0  0
  4 24  2  0  0  0  0
  5 25  2  0  0  0  0
  6  7  1  0  0  0  0
  6  8  1  0  0  0  0
  6 14  1  0  0  0  0
  6 28  1  6  0  0  0
  7 11  1  0  0  0  0
  7 13  1  0  0  0  0
  7 18  1  1  0  0  0
  8  9  1  0  0  0  0
  8 16  1  0  0  0  0
  8 29  1  1  0  0  0
  9 10  1  0  0  0  0
  9 12  1  0  0  0  0
  9 30  1  6  0  0  0
 10 17  1  0  0  0  0
 10 19  1  0  0  0  0
 10 21  1  1  0  0  0
 11 12  1  0  0  0  0
 11 31  1  0  0  0  0
 11 32  1  0  0  0  0
 12 33  1  0  0  0  0
 12 34  1  0  0  0  0
 13 15  1  0  0  0  0
 13 35  1  0  0  0  0
 14 15  1  0  0  0  0
 14 36  1  0  0  0  0
 14 37  1  0  0  0  0
 15 38  1  0  0  0  0
 15 39  1  0  0  0  0
 16 20  1  0  0  0  0
 16 40  1  0  0  0  0
 16 41  1  0  0  0  0
 17 20  2  0  0  0  0
 17 22  1  0  0  0  0
 18 42  1  0  0  0  0
 18 43  1  0  0  0  0
 18 44  1  0  0  0  0
 19 23  1  0  0  0  0
 19 45  1  0  0  0  0
 19 46  1  0  0  0  0
 20 47  1  0  0  0  0
 21 48  1  0  0  0  0
 21 49  1  0  0  0  0
 21 50  1  0  0  0  0
 22 24  1  0  0  0  0
 23 24  1  0  0  0  0
 23 51  1  0  0  0  0
 23 52  1  0  0  0  0
 25 26  1  0  0  0  0
 26 27  1  0  0  0  0
 26 53  1  0  0  0  0
 26 54  1  0  0  0  0
 27 55  1  0  0  0  0
 27 56  1  0  0  0  0
 27 57  1  0  0  0  0
M  END
> <PUBCHEM_COMPOUND_CID>
253787

> <PUBCHEM_COMPOUND_CANONICALIZED>
1

> <PUBCHEM_CACTVS_COMPLEXITY>
700

> <PUBCHEM_CACTVS_HBOND_ACCEPTOR>
5

> <PUBCHEM_CACTVS_HBOND_DONOR>
0

> <PUBCHEM_CACTVS_ROTATABLE_BOND>
3

> <PUBCHEM_CACTVS_SUBSKEYS>
AAADceB4MYAAAAAAAAAAAAAAAAAAAYAAAAAwYIAAAAAAAGCAAAAAGwAAAAAADxSggBICCAAABACIAqDSCAAAAAAgAAAACAEAAAgAABIAAAACAAAEgAAIAAOIyPCPgAAAAAAAAACAAAQAACAAAIAADAAAAA==

> <PUBCHEM_IUPAC_OPENEYE_NAME>
[(8R,9S,10R,13S,14S,17S)-4,4-difluoro-10,13-dimethyl-3-oxo-2,7,8,9,11,12,14,15,16,17-decahydro-1H-cyclopenta[a]phenanthren-17-yl] propanoate

> <PUBCHEM_IUPAC_CAS_NAME>
propanoic acid [(8R,9S,10R,13S,14S,17S)-4,4-difluoro-10,13-dimethyl-3-oxo-2,7,8,9,11,12,14,15,16,17-decahydro-1H-cyclopenta[a]phenanthren-17-yl] ester

> <PUBCHEM_IUPAC_NAME>
[(8R,9S,10R,13S,14S,17S)-4,4-difluoro-10,13-dimethyl-3-oxo-2,7,8,9,11,12,14,15,16,17-decahydro-1H-cyclopenta[a]phenanthren-17-yl] propanoate

> <PUBCHEM_IUPAC_SYSTEMATIC_NAME>
[(8R,9S,10R,13S,14S,17S)-4,4-bis(fluoranyl)-10,13-dimethyl-3-oxidanylidene-2,7,8,9,11,12,14,15,16,17-decahydro-1H-cyclopenta[a]phenanthren-17-yl] propanoate

> <PUBCHEM_IUPAC_TRADITIONAL_NAME>
propionic acid [(8R,9S,10R,13S,14S,17S)-4,4-difluoro-3-keto-10,13-dimethyl-2,7,8,9,11,12,14,15,16,17-decahydro-1H-cyclopenta[a]phenanthren-17-yl] ester

> <PUBCHEM_IUPAC_INCHI>
InChI=1S/C22H30F2O3/c1-4-19(26)27-18-8-6-14-13-5-7-16-20(2,12-10-17(25)22(16,23)24)15(13)9-11-21(14,18)3/h7,13-15,18H,4-6,8-12H2,1-3H3/t13-,14-,15-,18-,20+,21-/m0/s1

> <PUBCHEM_IUPAC_INCHIKEY>
DKDJANJTCFHPPK-KUJXMBTLSA-N

> <PUBCHEM_XLOGP3_AA>
4.8

> <PUBCHEM_EXACT_MASS>
380.216301

> <PUBCHEM_MOLECULAR_FORMULA>
C22H30F2O3

> <PUBCHEM_MOLECULAR_WEIGHT>
380.468606

> <PUBCHEM_OPENEYE_CAN_SMILES>
CCC(=O)OC1CCC2C1(CCC3C2CC=C4C3(CCC(=O)C4(F)F)C)C

> <PUBCHEM_OPENEYE_ISO_SMILES>
CCC(=O)O[C@H]1CC[C@@H]2[C@@]1(CC[C@H]3[C@H]2CC=C4[C@@]3(CCC(=O)C4(F)F)C)C

> <PUBCHEM_CACTVS_TPSA>
43.4

> <PUBCHEM_MONOISOTOPIC_WEIGHT>
380.216301

> <PUBCHEM_TOTAL_CHARGE>
0

> <PUBCHEM_HEAVY_ATOM_COUNT>
27

> <PUBCHEM_ATOM_DEF_STEREO_COUNT>
6

> <PUBCHEM_ATOM_UDEF_STEREO_COUNT>
0

> <PUBCHEM_BOND_DEF_STEREO_COUNT>
0

> <PUBCHEM_BOND_UDEF_STEREO_COUNT>
0

> <PUBCHEM_ISOTOPIC_ATOM_COUNT>
0

> <PUBCHEM_COMPONENT_COUNT>
1

> <PUBCHEM_CACTVS_TAUTO_COUNT>
2

> <PUBCHEM_COORDINATE_TYPE>
1
5
255

> <PUBCHEM_BONDANNOTATIONS>
10  21  5
13  3  5
6  28  6
7  18  5
8  29  5
9  30  6

$$$$

