251430
  -OEChem-07051213053D

 48 50  0     0  0  0  0  0  0999 V2000
    2.4626   -3.4755    1.7142 O   0  0  0  0  0  0  0  0  0  0  0  0
   -4.5156   -0.9292    1.6286 O   0  0  0  0  0  0  0  0  0  0  0  0
    3.5126    2.9976    0.3328 O   0  0  0  0  0  0  0  0  0  0  0  0
    3.5562   -4.1270   -0.7567 O   0  0  0  0  0  0  0  0  0  0  0  0
   -5.7184   -0.7395   -0.8699 O   0  0  0  0  0  0  0  0  0  0  0  0
    1.6167    5.0407    0.5837 O   0  0  0  0  0  0  0  0  0  0  0  0
   -0.1893    0.0241   -0.3440 C   0  0  0  0  0  0  0  0  0  0  0  0
    0.8035   -1.0774   -0.4497 C   0  0  0  0  0  0  0  0  0  0  0  0
   -1.6557   -0.1787   -0.4796 C   0  0  0  0  0  0  0  0  0  0  0  0
    0.2618    1.2681   -0.1132 C   0  0  0  0  0  0  0  0  0  0  0  0
    1.1647   -1.7597    0.6931 C   0  0  0  0  0  0  0  0  0  0  0  0
   -2.3960   -0.4601    0.6494 C   0  0  0  0  0  0  0  0  0  0  0  0
    1.3313   -1.3804   -1.6872 C   0  0  0  0  0  0  0  0  0  0  0  0
   -2.2279   -0.0796   -1.7306 C   0  0  0  0  0  0  0  0  0  0  0  0
    1.6902    1.5203   -0.0026 C   0  0  0  0  0  0  0  0  0  0  0  0
   -0.6743    2.3714    0.0273 C   0  0  0  0  0  0  0  0  0  0  0  0
    2.0970   -2.7926    0.5935 C   0  0  0  0  0  0  0  0  0  0  0  0
   -3.7719   -0.6513    0.5216 C   0  0  0  0  0  0  0  0  0  0  0  0
    2.1604    2.7547    0.2270 C   0  0  0  0  0  0  0  0  0  0  0  0
    2.2634   -2.4131   -1.7868 C   0  0  0  0  0  0  0  0  0  0  0  0
   -3.6035   -0.2708   -1.8584 C   0  0  0  0  0  0  0  0  0  0  0  0
    2.6461   -3.1193   -0.6464 C   0  0  0  0  0  0  0  0  0  0  0  0
   -4.3755   -0.5564   -0.7324 C   0  0  0  0  0  0  0  0  0  0  0  0
   -0.2417    3.6176    0.2570 C   0  0  0  0  0  0  0  0  0  0  0  0
    1.2143    3.9009    0.3742 C   0  0  0  0  0  0  0  0  0  0  0  0
    3.5780   -2.9709    2.4457 C   0  0  0  0  0  0  0  0  0  0  0  0
   -5.0584    0.1812    2.3402 C   0  0  0  0  0  0  0  0  0  0  0  0
    4.0696    3.3049   -0.9311 C   0  0  0  0  0  0  0  0  0  0  0  0
    0.7388   -1.5087    1.6611 H   0  0  0  0  0  0  0  0  0  0  0  0
   -1.9295   -0.5355    1.6283 H   0  0  0  0  0  0  0  0  0  0  0  0
    1.0409   -0.8370   -2.5820 H   0  0  0  0  0  0  0  0  0  0  0  0
   -1.6365    0.1427   -2.6143 H   0  0  0  0  0  0  0  0  0  0  0  0
    2.4241    0.7283   -0.0979 H   0  0  0  0  0  0  0  0  0  0  0  0
   -1.7475    2.2411   -0.0450 H   0  0  0  0  0  0  0  0  0  0  0  0
    2.6876   -2.6627   -2.7555 H   0  0  0  0  0  0  0  0  0  0  0  0
   -4.0609   -0.1937   -2.8411 H   0  0  0  0  0  0  0  0  0  0  0  0
   -0.9308    4.4474    0.3636 H   0  0  0  0  0  0  0  0  0  0  0  0
    3.6753   -4.5333    0.1190 H   0  0  0  0  0  0  0  0  0  0  0  0
   -5.9580   -0.6352   -1.8067 H   0  0  0  0  0  0  0  0  0  0  0  0
    3.7664   -3.6412    3.2887 H   0  0  0  0  0  0  0  0  0  0  0  0
    3.3581   -1.9718    2.8352 H   0  0  0  0  0  0  0  0  0  0  0  0
    4.4734   -2.9392    1.8168 H   0  0  0  0  0  0  0  0  0  0  0  0
   -5.7326    0.7578    1.6991 H   0  0  0  0  0  0  0  0  0  0  0  0
   -4.2564    0.8242    2.7167 H   0  0  0  0  0  0  0  0  0  0  0  0
   -5.6278   -0.2024    3.1912 H   0  0  0  0  0  0  0  0  0  0  0  0
    3.9768    2.4601   -1.6226 H   0  0  0  0  0  0  0  0  0  0  0  0
    5.1353    3.5106   -0.7928 H   0  0  0  0  0  0  0  0  0  0  0  0
    3.6073    4.1983   -1.3652 H   0  0  0  0  0  0  0  0  0  0  0  0
  1 17  1  0  0  0  0
  1 26  1  0  0  0  0
  2 18  1  0  0  0  0
  2 27  1  0  0  0  0
  3 19  1  0  0  0  0
  3 28  1  0  0  0  0
  4 22  1  0  0  0  0
  4 38  1  0  0  0  0
  5 23  1  0  0  0  0
  5 39  1  0  0  0  0
  6 25  2  0  0  0  0
  7  8  1  0  0  0  0
  7  9  1  0  0  0  0
  7 10  2  0  0  0  0
  8 11  2  0  0  0  0
  8 13  1  0  0  0  0
  9 12  2  0  0  0  0
  9 14  1  0  0  0  0
 10 15  1  0  0  0  0
 10 16  1  0  0  0  0
 11 17  1  0  0  0  0
 11 29  1  0  0  0  0
 12 18  1  0  0  0  0
 12 30  1  0  0  0  0
 13 20  2  0  0  0  0
 13 31  1  0  0  0  0
 14 21  2  0  0  0  0
 14 32  1  0  0  0  0
 15 19  2  0  0  0  0
 15 33  1  0  0  0  0
 16 24  2  0  0  0  0
 16 34  1  0  0  0  0
 17 22  2  0  0  0  0
 18 23  2  0  0  0  0
 19 25  1  0  0  0  0
 20 22  1  0  0  0  0
 20 35  1  0  0  0  0
 21 23  1  0  0  0  0
 21 36  1  0  0  0  0
 24 25  1  0  0  0  0
 24 37  1  0  0  0  0
 26 40  1  0  0  0  0
 26 41  1  0  0  0  0
 26 42  1  0  0  0  0
 27 43  1  0  0  0  0
 27 44  1  0  0  0  0
 27 45  1  0  0  0  0
 28 46  1  0  0  0  0
 28 47  1  0  0  0  0
 28 48  1  0  0  0  0
M  END
> <PUBCHEM_COMPOUND_CID>
251430

> <PUBCHEM_CONFORMER_RMSD>
0.8

> <PUBCHEM_CONFORMER_DIVERSEORDER>
2
5
1
6
4
3

> <PUBCHEM_MMFF94_PARTIAL_CHARGES>
38
1 -0.36
11 -0.15
12 -0.15
13 -0.15
14 -0.15
15 -0.15
16 -0.15
17 0.08
18 0.08
19 0.09
2 -0.36
20 -0.15
21 -0.15
22 0.08
23 0.08
24 -0.14
25 0.54
26 0.28
27 0.28
28 0.28
29 0.15
3 -0.36
30 0.15
31 0.15
32 0.15
33 0.15
34 0.15
35 0.15
36 0.15
37 0.15
38 0.45
39 0.45
4 -0.53
5 -0.53
6 -0.57
7 -0.06
8 0.03
9 0.03

> <PUBCHEM_EFFECTIVE_ROTOR_COUNT>
5

> <PUBCHEM_PHARMACOPHORE_FEATURES>
9
1 1 acceptor
1 2 acceptor
1 3 acceptor
1 4 donor
1 5 donor
1 6 acceptor
6 10 15 16 19 24 25 rings
6 8 11 13 17 20 22 rings
6 9 12 14 18 21 23 rings

> <PUBCHEM_HEAVY_ATOM_COUNT>
28

> <PUBCHEM_ATOM_DEF_STEREO_COUNT>
0

> <PUBCHEM_ATOM_UDEF_STEREO_COUNT>
0

> <PUBCHEM_BOND_DEF_STEREO_COUNT>
0

> <PUBCHEM_BOND_UDEF_STEREO_COUNT>
0

> <PUBCHEM_ISOTOPIC_ATOM_COUNT>
0

> <PUBCHEM_COMPONENT_COUNT>
1

> <PUBCHEM_CACTVS_TAUTO_COUNT>
5

> <PUBCHEM_CONFORMER_ID>
0003D62600000002

> <PUBCHEM_MMFF94_ENERGY>
124.4386

> <PUBCHEM_FEATURE_SELFOVERLAP>
45.673

> <PUBCHEM_SHAPE_FINGERPRINT>
10074138 170 17331976421677277032
10305334 12 16743167711819064840
10382601 240 18262786394158997785
10411042 1 18191870234793039535
107951 10 17912923873634414902
1100329 8 18267598909773233458
11578080 2 17631456828863646724
12160290 23 17331963227411194885
12363563 72 18266468791834434063
12549972 3 17846221090160437289
12553582 1 18265606774765801711
12788726 201 17692810810681262107
13140716 1 18050856524105406464
133893 2 18336000678845411967
13681431 1 18335712675133237351
14790565 3 18048301267662840417
14840074 17 18117024159598382882
15042514 8 17472683102105745519
15842332 3 17749109951083663063
15876981 60 17835504300685550422
1813 80 18042682982414169015
20028762 73 17468468218950009735
20101258 96 18047744081802352406
21033648 29 17834691391819838225
21133665 82 18265607690490739060
21304303 282 6803240901551335337
21344244 78 18113340834384286003
21421861 104 18337944683737921816
21796203 349 18196911448304055139
23419403 2 17771941404033154054
23559900 14 17131836503640980607
23598288 3 17618480517160064670
3187 122 17764065679927105346
3298306 158 18269280058440618204
3886686 26 16962707164061698912
394222 165 18115018585505880419
4058900 60 18198611138635243781
474 4 18044652001865804965
633830 44 17825371991233653941
6669772 16 18267019454450157604
79837 15 17688303495622188273
81228 2 17614855435860486989
9841814 1 18339920519123620355

> <PUBCHEM_SHAPE_MULTIPOLES>
541.01
8.46
6
1.87
10.73
4.52
-0.48
-3.71
-1.55
-10.44
-1.19
0.61
-1.53
-0.78

> <PUBCHEM_SHAPE_SELFOVERLAP>
1182.401

> <PUBCHEM_SHAPE_VOLUME>
296.1

> <PUBCHEM_COORDINATE_TYPE>
2
5
10

$$$$

