9570291
  -OEChem-07051213133D

 34 34  0     0  0  0  0  0  0999 V2000
   -1.7139   -2.3716   -0.4591 Cl  0  0  0  0  0  0  0  0  0  0  0  0
    2.4559   -0.5524    2.8331 S   0  0  0  0  0  0  0  0  0  0  0  0
    2.3939   -0.1135    0.9382 P   0  0  0  0  0  0  0  0  0  0  0  0
    2.4370   -1.3534   -0.1130 O   0  0  0  0  0  0  0  0  0  0  0  0
    3.6008    0.8473    0.4228 O   0  0  0  0  0  0  0  0  0  0  0  0
    1.0766    0.7032    0.4455 O   0  0  0  0  0  0  0  0  0  0  0  0
   -0.0850   -0.0725    0.5069 N   0  0  0  0  0  0  0  0  0  0  0  0
   -0.4587    3.0122   -0.5780 N   0  0  0  0  0  0  0  0  0  0  0  0
    3.6106   -2.1410   -0.2236 C   0  0  0  0  0  0  0  0  0  0  0  0
    3.5779    1.3890   -0.8873 C   0  0  0  0  0  0  0  0  0  0  0  0
   -2.5278    0.1888    0.0174 C   0  0  0  0  0  0  0  0  0  0  0  0
    3.3858   -3.2177   -1.2637 C   0  0  0  0  0  0  0  0  0  0  0  0
    4.8154    2.2367   -1.0919 C   0  0  0  0  0  0  0  0  0  0  0  0
   -2.8917   -1.1283   -0.2364 C   0  0  0  0  0  0  0  0  0  0  0  0
   -3.4957    1.1715    0.1924 C   0  0  0  0  0  0  0  0  0  0  0  0
   -1.1200    0.5933    0.1118 C   0  0  0  0  0  0  0  0  0  0  0  0
   -4.2423   -1.4679   -0.3160 C   0  0  0  0  0  0  0  0  0  0  0  0
   -4.8462    0.8316    0.1127 C   0  0  0  0  0  0  0  0  0  0  0  0
   -5.2195   -0.4879   -0.1417 C   0  0  0  0  0  0  0  0  0  0  0  0
   -0.7531    1.9326   -0.2703 C   0  0  0  0  0  0  0  0  0  0  0  0
    4.4543   -1.5086   -0.5146 H   0  0  0  0  0  0  0  0  0  0  0  0
    3.8340   -2.6003    0.7439 H   0  0  0  0  0  0  0  0  0  0  0  0
    3.5488    0.5792   -1.6219 H   0  0  0  0  0  0  0  0  0  0  0  0
    2.6857    2.0095   -1.0118 H   0  0  0  0  0  0  0  0  0  0  0  0
    3.1481   -2.7710   -2.2348 H   0  0  0  0  0  0  0  0  0  0  0  0
    2.5350   -3.8492   -0.9873 H   0  0  0  0  0  0  0  0  0  0  0  0
    4.2730   -3.8478   -1.3724 H   0  0  0  0  0  0  0  0  0  0  0  0
    5.7205    1.6353   -0.9574 H   0  0  0  0  0  0  0  0  0  0  0  0
    4.8567    3.0438   -0.3530 H   0  0  0  0  0  0  0  0  0  0  0  0
    4.8281    2.6743   -2.0940 H   0  0  0  0  0  0  0  0  0  0  0  0
   -3.2444    2.2055    0.4101 H   0  0  0  0  0  0  0  0  0  0  0  0
   -4.5502   -2.4917   -0.5133 H   0  0  0  0  0  0  0  0  0  0  0  0
   -5.6075    1.5935    0.2527 H   0  0  0  0  0  0  0  0  0  0  0  0
   -6.2711   -0.7525   -0.2026 H   0  0  0  0  0  0  0  0  0  0  0  0
  1 14  1  0  0  0  0
  2  3  2  0  0  0  0
  3  4  1  0  0  0  0
  3  5  1  0  0  0  0
  3  6  1  0  0  0  0
  4  9  1  0  0  0  0
  5 10  1  0  0  0  0
  6  7  1  0  0  0  0
  7 16  2  0  0  0  0
  8 20  3  0  0  0  0
  9 12  1  0  0  0  0
  9 21  1  0  0  0  0
  9 22  1  0  0  0  0
 10 13  1  0  0  0  0
 10 23  1  0  0  0  0
 10 24  1  0  0  0  0
 11 14  1  0  0  0  0
 11 15  2  0  0  0  0
 11 16  1  0  0  0  0
 12 25  1  0  0  0  0
 12 26  1  0  0  0  0
 12 27  1  0  0  0  0
 13 28  1  0  0  0  0
 13 29  1  0  0  0  0
 13 30  1  0  0  0  0
 14 17  2  0  0  0  0
 15 18  1  0  0  0  0
 15 31  1  0  0  0  0
 16 20  1  0  0  0  0
 17 19  1  0  0  0  0
 17 32  1  0  0  0  0
 18 19  2  0  0  0  0
 18 33  1  0  0  0  0
 19 34  1  0  0  0  0
M  END
> <PUBCHEM_COMPOUND_CID>
9570291

> <PUBCHEM_CONFORMER_RMSD>
0.8

> <PUBCHEM_CONFORMER_DIVERSEORDER>
1
77
68
78
42
86
12
16
35
101
56
47
58
64
59
90
15
81
61
63
9
100
38
70
82
31
18
37
23
5
55
92
8
20
87
62
41
43
29
33
73
34
69
22
46
24
2
97
21
19
45
67
74
52
80
99
26
51
54
71
88
79
49
65
48
85
93
76
3
98
44
83
84
28
30
89
50
60
96
72
53
17
39
13
14
25
6
36
57
40
4
95
7
11
32
27
75
91
10
66
94
102

> <PUBCHEM_MMFF94_PARTIAL_CHARGES>
22
1 -0.18
10 0.28
11 0.09
14 0.18
15 -0.15
16 0.47
17 -0.15
18 -0.15
19 -0.15
2 -0.68
20 0.45
3 1.49
31 0.15
32 0.15
33 0.15
34 0.15
4 -0.55
5 -0.55
6 -0.21
7 -0.51
8 -0.56
9 0.28

> <PUBCHEM_EFFECTIVE_ROTOR_COUNT>
7

> <PUBCHEM_PHARMACOPHORE_FEATURES>
3
1 7 acceptor
1 8 acceptor
6 11 14 15 17 18 19 rings

> <PUBCHEM_HEAVY_ATOM_COUNT>
20

> <PUBCHEM_ATOM_DEF_STEREO_COUNT>
0

> <PUBCHEM_ATOM_UDEF_STEREO_COUNT>
0

> <PUBCHEM_BOND_DEF_STEREO_COUNT>
1

> <PUBCHEM_BOND_UDEF_STEREO_COUNT>
0

> <PUBCHEM_ISOTOPIC_ATOM_COUNT>
0

> <PUBCHEM_COMPONENT_COUNT>
1

> <PUBCHEM_CACTVS_TAUTO_COUNT>
1

> <PUBCHEM_CONFORMER_ID>
009207F300000001

> <PUBCHEM_MMFF94_ENERGY>
40.4943

> <PUBCHEM_FEATURE_SELFOVERLAP>
15.223

> <PUBCHEM_SHAPE_FINGERPRINT>
10090160 65 17274547525110458600
10366900 7 16950277395335279371
10616163 171 18264487278312104831
12553582 1 18337966575439313405
12616999 72 18408323263838806994
13533116 47 17676491678892850595
14178342 30 17753920236423623954
14866123 147 16886375136728502811
15196674 1 18408323302599338911
15342816 4 18060430113751139195
15415430 112 18265612091702491021
15664445 248 18336815391297974220
1813 80 17775283893643301149
18186145 218 17346599690045597043
20281475 54 18334295391950237753
20645477 70 18411981390300573390
23557571 272 18338531831895876072
23559900 14 18261960768211017058
239999 70 18273214209908234762
3004659 81 18410012178065915234
3286 77 17313673757658222707
34934 24 18271526398923679921
474 4 17274257228249771140
5104073 3 18334858342225536675
633830 44 18201721790574621795
90127 26 17988917925047150561
9709674 26 18410011018298372195

> <PUBCHEM_SHAPE_MULTIPOLES>
393.59
10.52
3.08
1.41
3.58
0.67
1.18
0.31
-1.82
-2.73
-1.55
-2.12
0.31
-0.5

> <PUBCHEM_SHAPE_SELFOVERLAP>
762.314

> <PUBCHEM_SHAPE_VOLUME>
240.4

> <PUBCHEM_COORDINATE_TYPE>
2
5
10

$$$$

