5487
  -OEChem-07051212533D

 24 26  0     0  0  0  0  0  0999 V2000
   -1.0403   -3.4421    0.0714 Cl  0  0  0  0  0  0  0  0  0  0  0  0
   -1.0712    2.9591   -0.2754 S   0  0  0  0  0  0  0  0  0  0  0  0
    3.1169   -0.6319   -0.7893 N   0  0  0  0  0  0  0  0  0  0  0  0
    0.9068   -1.1567   -0.3536 N   0  0  0  0  0  0  0  0  0  0  0  0
    2.1241    0.3975    0.9727 N   0  0  0  0  0  0  0  0  0  0  0  0
   -0.0781    1.6305   -0.3552 N   0  0  0  0  0  0  0  0  0  0  0  0
   -2.5413    2.2337   -0.0096 N   0  0  0  0  0  0  0  0  0  0  0  0
    4.1957    0.1781   -0.3118 C   0  0  0  0  0  0  0  0  0  0  0  0
    3.5344    0.8829    0.8795 C   0  0  0  0  0  0  0  0  0  0  0  0
    2.0063   -0.4510   -0.0206 C   0  0  0  0  0  0  0  0  0  0  0  0
   -0.4385   -0.7955   -0.1666 C   0  0  0  0  0  0  0  0  0  0  0  0
   -0.8619    0.5552   -0.1756 C   0  0  0  0  0  0  0  0  0  0  0  0
   -2.3142    0.9109    0.0282 C   0  0  0  0  0  0  0  0  0  0  0  0
   -1.4458   -1.7530    0.0410 C   0  0  0  0  0  0  0  0  0  0  0  0
   -3.2856   -0.0982    0.2330 C   0  0  0  0  0  0  0  0  0  0  0  0
   -2.8074   -1.4196    0.2321 C   0  0  0  0  0  0  0  0  0  0  0  0
    4.5255    0.8943   -1.0698 H   0  0  0  0  0  0  0  0  0  0  0  0
    5.0459   -0.4330    0.0045 H   0  0  0  0  0  0  0  0  0  0  0  0
    4.0610    0.6544    1.8121 H   0  0  0  0  0  0  0  0  0  0  0  0
    3.5364    1.9694    0.7424 H   0  0  0  0  0  0  0  0  0  0  0  0
    3.1878   -1.2472   -1.5903 H   0  0  0  0  0  0  0  0  0  0  0  0
    1.0266   -1.9775   -0.9406 H   0  0  0  0  0  0  0  0  0  0  0  0
   -4.3355    0.1257    0.3821 H   0  0  0  0  0  0  0  0  0  0  0  0
   -3.5355   -2.2159    0.3878 H   0  0  0  0  0  0  0  0  0  0  0  0
  1 14  1  0  0  0  0
  2  6  1  0  0  0  0
  2  7  1  0  0  0  0
  3  8  1  0  0  0  0
  3 10  1  0  0  0  0
  3 21  1  0  0  0  0
  4 10  1  0  0  0  0
  4 11  1  0  0  0  0
  4 22  1  0  0  0  0
  5  9  1  0  0  0  0
  5 10  2  0  0  0  0
  6 12  2  0  0  0  0
  7 13  2  0  0  0  0
  8  9  1  0  0  0  0
  8 17  1  0  0  0  0
  8 18  1  0  0  0  0
  9 19  1  0  0  0  0
  9 20  1  0  0  0  0
 11 12  1  0  0  0  0
 11 14  2  0  0  0  0
 12 13  1  0  0  0  0
 13 15  1  0  0  0  0
 14 16  1  0  0  0  0
 15 16  2  0  0  0  0
 15 23  1  0  0  0  0
 16 24  1  0  0  0  0
M  END
> <PUBCHEM_COMPOUND_CID>
5487

> <PUBCHEM_CONFORMER_RMSD>
0.6

> <PUBCHEM_CONFORMER_DIVERSEORDER>
1
6
8
7
3
5
2
4

> <PUBCHEM_MMFF94_PARTIAL_CHARGES>
20
1 -0.18
10 0.55
11 0.1
12 0.29
13 0.29
14 0.18
15 -0.15
16 -0.15
2 0.44
21 0.4
22 0.4
23 0.15
24 0.15
3 -0.82
4 -0.55
5 -0.7
6 -0.51
7 -0.51
8 0.37
9 0.25

> <PUBCHEM_EFFECTIVE_ROTOR_COUNT>
2.6

> <PUBCHEM_PHARMACOPHORE_FEATURES>
8
1 3 donor
1 4 donor
1 6 acceptor
1 7 acceptor
4 3 4 5 10 cation
5 2 6 7 12 13 rings
5 3 5 8 9 10 rings
6 11 12 13 14 15 16 rings

> <PUBCHEM_HEAVY_ATOM_COUNT>
16

> <PUBCHEM_ATOM_DEF_STEREO_COUNT>
0

> <PUBCHEM_ATOM_UDEF_STEREO_COUNT>
0

> <PUBCHEM_BOND_DEF_STEREO_COUNT>
0

> <PUBCHEM_BOND_UDEF_STEREO_COUNT>
0

> <PUBCHEM_ISOTOPIC_ATOM_COUNT>
0

> <PUBCHEM_COMPONENT_COUNT>
1

> <PUBCHEM_CACTVS_TAUTO_COUNT>
3

> <PUBCHEM_CONFORMER_ID>
0000156F00000001

> <PUBCHEM_MMFF94_ENERGY>
56.4599

> <PUBCHEM_FEATURE_SELFOVERLAP>
40.754

> <PUBCHEM_SHAPE_FINGERPRINT>
10498660 4 18341332274979362756
10608611 8 18334017207145283616
10967382 1 18411136905251266887
10989021 7 17906453225655584003
11132069 177 18408888412377770352
11578080 2 5398246224618411626
12173636 292 18339365291421138252
13140716 1 18051407371120608235
13764800 53 18340203089200726120
14614273 12 18057611060664133501
15042514 8 18341046316067636787
15219456 202 18114178670417957670
15309172 13 18338790229870626833
15490181 7 18049441736430099191
15669948 3 18341618087962537498
16945 1 18411702049922413951
19049666 15 18116146852087382974
193761 8 17763181741129252343
19868273 325 18339645516546183911
20510252 161 18334856151454572513
20871998 184 18334572426004572071
21029758 11 18335709278441905733
21029758 27 18129089040322867549
21501502 16 18194687192083340243
21524375 3 18046634670074414759
21650355 55 18268441134994307674
22802520 49 18115860966105399990
2334 1 17691123734405172879
23388829 49 17108483675145417103
23402539 116 18334865978682825559
23557571 272 18261943064888508332
23559900 14 18335138752456422174
23598294 1 18342747329116254770
2748010 2 18267575991527055167
3071541 12 17401485343572534229
350125 39 18124028202552941115
43471831 8 18270963578141310443
474 4 16843869860346307980
6333449 129 18409731780846070269
7097593 13 17770803491308662338
7364860 26 17472978402724522249
77492 1 17418091018636812758
81228 2 18338239249927963747

> <PUBCHEM_SHAPE_MULTIPOLES>
310.09
5.91
3.15
0.77
5.7
0.22
-0.06
-0.27
-0.45
-2.65
0.18
0.37
-0.04
0.41

> <PUBCHEM_SHAPE_SELFOVERLAP>
652.622

> <PUBCHEM_SHAPE_VOLUME>
177.7

> <PUBCHEM_COORDINATE_TYPE>
2
5
10

$$$$

