10539
  -OEChem-06261204393D

 39 42  0     1  0  0  0  0  0999 V2000
   -1.9550    0.1972    0.3274 P   0  0  0  0  0  0  0  0  0  0  0  0
   -2.3819    0.2657    1.7757 O   0  0  0  0  0  0  0  0  0  0  0  0
   -1.1039   -1.1813   -0.0596 N   0  0  0  0  0  0  0  0  0  0  0  0
   -0.9368    1.4330   -0.1320 N   0  0  0  0  0  0  0  0  0  0  0  0
   -3.2172    0.2478   -0.7508 N   0  0  0  0  0  0  0  0  0  0  0  0
    1.0717   -0.0107   -0.2076 C   0  0  0  0  0  0  0  0  0  0  0  0
    2.5665   -0.0955    0.1752 C   0  0  0  0  0  0  0  0  0  0  0  0
    0.3043   -1.2358    0.3487 C   0  0  2  0  0  0  0  0  0  0  0  0
    0.4681    1.3305    0.2779 C   0  0  1  0  0  0  0  0  0  0  0  0
    3.1837   -1.4132   -0.3124 C   0  0  0  0  0  0  0  0  0  0  0  0
    3.3443    1.1042   -0.3824 C   0  0  0  0  0  0  0  0  0  0  0  0
    0.9319   -2.5452   -0.1443 C   0  0  0  0  0  0  0  0  0  0  0  0
    1.2551    2.5208   -0.2835 C   0  0  0  0  0  0  0  0  0  0  0  0
    2.4141   -2.6223    0.2110 C   0  0  0  0  0  0  0  0  0  0  0  0
    2.7367    2.4282    0.0712 C   0  0  0  0  0  0  0  0  0  0  0  0
   -4.1365   -0.8822   -0.7251 C   0  0  0  0  0  0  0  0  0  0  0  0
   -4.5451    0.4589   -0.1895 C   0  0  0  0  0  0  0  0  0  0  0  0
    1.0047   -0.0364   -1.3072 H   0  0  0  0  0  0  0  0  0  0  0  0
    2.6467   -0.0702    1.2716 H   0  0  0  0  0  0  0  0  0  0  0  0
    0.3427   -1.2196    1.4456 H   0  0  0  0  0  0  0  0  0  0  0  0
    0.5093    1.3704    1.3744 H   0  0  0  0  0  0  0  0  0  0  0  0
    4.2279   -1.4809    0.0157 H   0  0  0  0  0  0  0  0  0  0  0  0
    3.1934   -1.4383   -1.4096 H   0  0  0  0  0  0  0  0  0  0  0  0
    3.3528    1.0674   -1.4792 H   0  0  0  0  0  0  0  0  0  0  0  0
    4.3898    1.0566   -0.0553 H   0  0  0  0  0  0  0  0  0  0  0  0
    0.8224   -2.6341   -1.2333 H   0  0  0  0  0  0  0  0  0  0  0  0
    0.4100   -3.4030    0.2978 H   0  0  0  0  0  0  0  0  0  0  0  0
    0.8510    3.4618    0.1099 H   0  0  0  0  0  0  0  0  0  0  0  0
    1.1494    2.5621   -1.3757 H   0  0  0  0  0  0  0  0  0  0  0  0
   -1.1633   -1.4491   -1.0424 H   0  0  0  0  0  0  0  0  0  0  0  0
   -1.2752    2.3792    0.0396 H   0  0  0  0  0  0  0  0  0  0  0  0
    2.8447   -3.5403   -0.2046 H   0  0  0  0  0  0  0  0  0  0  0  0
    2.5257   -2.6827    1.3006 H   0  0  0  0  0  0  0  0  0  0  0  0
    2.8595    2.5339    1.1562 H   0  0  0  0  0  0  0  0  0  0  0  0
    3.2787    3.2597   -0.3933 H   0  0  0  0  0  0  0  0  0  0  0  0
   -3.9477   -1.6758   -0.0152 H   0  0  0  0  0  0  0  0  0  0  0  0
   -4.5294   -1.1882   -1.6846 H   0  0  0  0  0  0  0  0  0  0  0  0
   -5.2144    1.0607   -0.7899 H   0  0  0  0  0  0  0  0  0  0  0  0
   -4.6560    0.5712    0.8789 H   0  0  0  0  0  0  0  0  0  0  0  0
  1  2  2  0  0  0  0
  1  3  1  0  0  0  0
  1  4  1  0  0  0  0
  1  5  1  0  0  0  0
  3  8  1  0  0  0  0
  3 30  1  0  0  0  0
  4  9  1  0  0  0  0
  4 31  1  0  0  0  0
  5 16  1  0  0  0  0
  5 17  1  0  0  0  0
  6  7  1  0  0  0  0
  6  8  1  0  0  0  0
  6  9  1  0  0  0  0
  6 18  1  0  0  0  0
  7 10  1  0  0  0  0
  7 11  1  0  0  0  0
  7 19  1  0  0  0  0
  8 12  1  0  0  0  0
  8 20  1  0  0  0  0
  9 13  1  0  0  0  0
  9 21  1  0  0  0  0
 10 14  1  0  0  0  0
 10 22  1  0  0  0  0
 10 23  1  0  0  0  0
 11 15  1  0  0  0  0
 11 24  1  0  0  0  0
 11 25  1  0  0  0  0
 12 14  1  0  0  0  0
 12 26  1  0  0  0  0
 12 27  1  0  0  0  0
 13 15  1  0  0  0  0
 13 28  1  0  0  0  0
 13 29  1  0  0  0  0
 14 32  1  0  0  0  0
 14 33  1  0  0  0  0
 15 34  1  0  0  0  0
 15 35  1  0  0  0  0
 16 17  1  0  0  0  0
 16 36  1  0  0  0  0
 16 37  1  0  0  0  0
 17 38  1  0  0  0  0
 17 39  1  0  0  0  0
M  END
> <PUBCHEM_COMPOUND_CID>
10539

> <PUBCHEM_CONFORMER_RMSD>
0.6

> <PUBCHEM_CONFORMER_DIVERSEORDER>
1
4
3
2

> <PUBCHEM_MMFF94_PARTIAL_CHARGES>
15
1 1.5
16 -0.04
17 -0.04
2 -0.7
3 -0.9
30 0.36
31 0.36
36 0.1
37 0.1
38 0.1
39 0.1
4 -0.9
5 -0.58
8 0.27
9 0.27

> <PUBCHEM_EFFECTIVE_ROTOR_COUNT>
3.2

> <PUBCHEM_PHARMACOPHORE_FEATURES>
4
1 2 acceptor
6 1 3 4 6 8 9 rings
6 6 7 8 10 12 14 rings
6 6 7 9 11 13 15 rings

> <PUBCHEM_HEAVY_ATOM_COUNT>
17

> <PUBCHEM_ATOM_DEF_STEREO_COUNT>
0

> <PUBCHEM_ATOM_UDEF_STEREO_COUNT>
2

> <PUBCHEM_BOND_DEF_STEREO_COUNT>
0

> <PUBCHEM_BOND_UDEF_STEREO_COUNT>
0

> <PUBCHEM_ISOTOPIC_ATOM_COUNT>
0

> <PUBCHEM_COMPONENT_COUNT>
1

> <PUBCHEM_CACTVS_TAUTO_COUNT>
2

> <PUBCHEM_CONFORMER_ID>
0000292B00000001

> <PUBCHEM_MMFF94_ENERGY>
12.6651

> <PUBCHEM_FEATURE_SELFOVERLAP>
20.346

> <PUBCHEM_SHAPE_FINGERPRINT>
10411042 1 18050852422607441126
10967382 1 18411138017779522452
10980938 120 18411703175029622790
10989021 7 18337393871441063475
11471102 20 18411984662891274452
11680986 33 18340481167227479818
116883 192 18050009092661309124
12553582 1 18122613118409157786
12592029 89 18340488859429348651
12596599 1 17895461618255212007
12654215 9 18343866627916877788
12730499 353 18341889637564972923
13009979 54 17678167398479025818
13140716 1 18267305335541087456
13380535 76 18268996392840493882
13862211 1 18339363076088509590
13897977 150 18340486664421446253
14181834 199 18412257354775922558
14250199 8 18409443713073539159
14251717 144 18410015433286836503
14576447 43 18116446855706132743
15196674 1 18410577271207744559
15219456 202 18201432541743755859
15442244 35 18264488579882133825
15536298 74 18333734619349855252
16945 1 18411692197388619896
18186145 218 18263068959804057604
18219364 16 18269822130141171913
200 152 18187088368813779983
20606313 2 18412266155222037974
20645477 70 18341338842252909295
20671657 53 18265897045492188543
21267235 1 18336820995829134503
21501502 16 18266174122385562184
21639500 275 18410864234846581021
22096605 113 18411703149439186587
22112679 90 17458335381933762409
221490 88 18413103940249210067
22289505 5 18270130144158842997
2255824 54 18409164407218707006
2334 1 17978504235502943744
23388829 49 18262235645948961280
23402539 116 18120382200905833198
23402655 69 18407763633884828981
23419403 2 17414192232257160646
23526113 38 17988362684190643795
23559900 14 18410581703429442666
23598291 2 17969769955301926105
25 1 18341898445941510356
257057 1 17836938058951574954
2748010 2 18124299520301086498
3060560 45 18410293580043603828
3071541 37 18342173349845118012
33824 294 18411704248903374064
42630746 31 18336551533996737351
474 4 18338798914094136521
543358 83 18337389469405709057
581208 293 18409452479165048392
7364860 26 18409169913424802620
77492 1 17821442474156458233
81228 2 17403170894829434298
81539 233 18201440233871953308
8272917 22 18409726279240949069
84936 182 18114748118393654369
9709674 26 18342457032635693075

> <PUBCHEM_SHAPE_MULTIPOLES>
332.89
6.83
2.82
0.85
7
0.28
0.21
-0.14
-1.07
-2.98
-0.09
0.48
-0.02
-0.24

> <PUBCHEM_SHAPE_SELFOVERLAP>
679.677

> <PUBCHEM_SHAPE_VOLUME>
193.4

> <PUBCHEM_COORDINATE_TYPE>
2
5
10

$$$$

