11141699
  -OEChem-07051213102D

 53 56  0     1  0  0  0  0  0999 V2000
    6.0321   -0.2002    0.0000 O   0  0  0  0  0  0  0  0  0  0  0  0
    6.0321    3.4726    0.0000 O   0  0  0  0  0  0  0  0  0  0  0  0
    7.2921    2.2125    0.0000 O   0  0  0  0  0  0  0  0  0  0  0  0
    3.8000   -1.0662    0.0000 C   0  0  1  0  0  0  0  0  0  0  0  0
    3.8000   -2.0662    0.0000 C   0  0  2  0  0  0  0  0  0  0  0  0
    5.5321   -1.0662    0.0000 C   0  0  2  0  0  0  0  0  0  0  0  0
    4.6660   -0.5662    0.0000 C   0  0  2  0  0  0  0  0  0  0  0  0
    2.9061   -2.6009    0.0000 C   0  0  0  0  0  0  0  0  0  0  0  0
    4.6660   -2.5662    0.0000 C   0  0  0  0  0  0  0  0  0  0  0  0
    5.5321   -2.0662    0.0000 C   0  0  0  0  0  0  0  0  0  0  0  0
    2.9061   -0.5316    0.0000 C   0  0  0  0  0  0  0  0  0  0  0  0
    6.5321   -1.0662    0.0000 C   0  0  0  0  0  0  0  0  0  0  0  0
    2.0000   -2.0870    0.0000 C   0  0  0  0  0  0  0  0  0  0  0  0
    2.0000   -1.0454    0.0000 C   0  0  0  0  0  0  0  0  0  0  0  0
    3.8000   -0.0662    0.0000 C   0  0  0  0  0  0  0  0  0  0  0  0
    4.6660    0.4338    0.0000 C   0  0  0  0  0  0  0  0  0  0  0  0
    2.4161   -3.4726    0.0000 C   0  0  0  0  0  0  0  0  0  0  0  0
    3.4160   -3.4611    0.0000 C   0  0  0  0  0  0  0  0  0  0  0  0
    5.5321    0.9338    0.0000 C   0  0  0  0  0  0  0  0  0  0  0  0
    5.5321    1.9338    0.0000 C   0  0  0  0  0  0  0  0  0  0  0  0
    4.7230    2.5216    0.0000 C   0  0  0  0  0  0  0  0  0  0  0  0
    6.3411    2.5216    0.0000 C   0  0  0  0  0  0  0  0  0  0  0  0
    5.0321    3.4726    0.0000 C   0  0  0  0  0  0  0  0  0  0  0  0
    3.8066   -2.9162    0.0000 H   0  0  0  0  0  0  0  0  0  0  0  0
    5.2030   -0.2562    0.0000 H   0  0  0  0  0  0  0  0  0  0  0  0
    4.2675   -3.0412    0.0000 H   0  0  0  0  0  0  0  0  0  0  0  0
    5.0646   -3.0412    0.0000 H   0  0  0  0  0  0  0  0  0  0  0  0
    5.7441   -2.6488    0.0000 H   0  0  0  0  0  0  0  0  0  0  0  0
    6.1426   -1.9586    0.0000 H   0  0  0  0  0  0  0  0  0  0  0  0
    3.3107   -0.0618    0.0000 H   0  0  0  0  0  0  0  0  0  0  0  0
    2.5124   -0.0525    0.0000 H   0  0  0  0  0  0  0  0  0  0  0  0
    6.6397   -1.6768    0.0000 H   0  0  0  0  0  0  0  0  0  0  0  0
    7.1147   -0.8542    0.0000 H   0  0  0  0  0  0  0  0  0  0  0  0
    1.3891   -1.9809    0.0000 H   0  0  0  0  0  0  0  0  0  0  0  0
    1.7909   -2.6707    0.0000 H   0  0  0  0  0  0  0  0  0  0  0  0
    1.7909   -0.4617    0.0000 H   0  0  0  0  0  0  0  0  0  0  0  0
    1.3891   -1.1515    0.0000 H   0  0  0  0  0  0  0  0  0  0  0  0
    4.4200   -0.0662    0.0000 H   0  0  0  0  0  0  0  0  0  0  0  0
    3.8000    0.5538    0.0000 H   0  0  0  0  0  0  0  0  0  0  0  0
    3.1800   -0.0662    0.0000 H   0  0  0  0  0  0  0  0  0  0  0  0
    4.4540    1.0164    0.0000 H   0  0  0  0  0  0  0  0  0  0  0  0
    4.0555    0.3261    0.0000 H   0  0  0  0  0  0  0  0  0  0  0  0
    1.8756   -3.1689    0.0000 H   0  0  0  0  0  0  0  0  0  0  0  0
    2.1123   -4.0131    0.0000 H   0  0  0  0  0  0  0  0  0  0  0  0
    2.9566   -3.7764    0.0000 H   0  0  0  0  0  0  0  0  0  0  0  0
    2.8827   -3.7772    0.0000 H   0  0  0  0  0  0  0  0  0  0  0  0
    3.7322   -3.9944    0.0000 H   0  0  0  0  0  0  0  0  0  0  0  0
    3.9494   -3.1449    0.0000 H   0  0  0  0  0  0  0  0  0  0  0  0
    6.0690    0.6238    0.0000 H   0  0  0  0  0  0  0  0  0  0  0  0
    4.1566    2.7738    0.0000 H   0  0  0  0  0  0  0  0  0  0  0  0
    4.4130    1.9846    0.0000 H   0  0  0  0  0  0  0  0  0  0  0  0
    5.0969    4.0892    0.0000 H   0  0  0  0  0  0  0  0  0  0  0  0
    4.4256    3.6015    0.0000 H   0  0  0  0  0  0  0  0  0  0  0  0
  6  1  1  1  0  0  0
  1 12  1  0  0  0  0
  2 22  1  0  0  0  0
  2 23  1  0  0  0  0
  3 22  2  0  0  0  0
  4  5  1  0  0  0  0
  4  7  1  0  0  0  0
  4 11  1  0  0  0  0
  4 15  1  1  0  0  0
  5  8  1  0  0  0  0
  5  9  1  0  0  0  0
  5 24  1  6  0  0  0
  6  7  1  0  0  0  0
  6 10  1  0  0  0  0
  6 12  1  0  0  0  0
  7 16  1  1  0  0  0
  7 25  1  0  0  0  0
  8 13  1  0  0  0  0
  8 17  1  0  0  0  0
  8 18  1  0  0  0  0
  9 10  1  0  0  0  0
  9 26  1  0  0  0  0
  9 27  1  0  0  0  0
 10 28  1  0  0  0  0
 10 29  1  0  0  0  0
 11 14  1  0  0  0  0
 11 30  1  0  0  0  0
 11 31  1  0  0  0  0
 12 32  1  0  0  0  0
 12 33  1  0  0  0  0
 13 14  1  0  0  0  0
 13 34  1  0  0  0  0
 13 35  1  0  0  0  0
 14 36  1  0  0  0  0
 14 37  1  0  0  0  0
 15 38  1  0  0  0  0
 15 39  1  0  0  0  0
 15 40  1  0  0  0  0
 16 19  1  0  0  0  0
 16 41  1  0  0  0  0
 16 42  1  0  0  0  0
 17 43  1  0  0  0  0
 17 44  1  0  0  0  0
 17 45  1  0  0  0  0
 18 46  1  0  0  0  0
 18 47  1  0  0  0  0
 18 48  1  0  0  0  0
 19 20  2  0  0  0  0
 19 49  1  0  0  0  0
 20 21  1  0  0  0  0
 20 22  1  0  0  0  0
 21 23  1  0  0  0  0
 21 50  1  0  0  0  0
 21 51  1  0  0  0  0
 23 52  1  0  0  0  0
 23 53  1  0  0  0  0
M  END
> <PUBCHEM_COMPOUND_CID>
11141699

> <PUBCHEM_COMPOUND_CANONICALIZED>
1

> <PUBCHEM_CACTVS_COMPLEXITY>
549

> <PUBCHEM_CACTVS_HBOND_ACCEPTOR>
3

> <PUBCHEM_CACTVS_HBOND_DONOR>
0

> <PUBCHEM_CACTVS_ROTATABLE_BOND>
2

> <PUBCHEM_CACTVS_SUBSKEYS>
AAADceB4MAAAAAAAAAAAAAAAEgAAASAAAAAwYAAAAAAAAADAAAAAGgAAAAAAD0SggAICCAAABACIAiDSCAAAAAAgAAAACAEAAEgABBIAIQACEAAEwAAIIYOCwPAPgAAAAAAAAADAAAYAADAAAAAAAAAAAA==

> <PUBCHEM_IUPAC_OPENEYE_NAME>
(3E)-3-[2-[(1R,2S,4aS,8aS)-5,5,8a-trimethylspiro[decalin-2,2'-oxirane]-1-yl]ethylidene]tetrahydrofuran-2-one

> <PUBCHEM_IUPAC_CAS_NAME>
(3E)-3-[2-[(1R,2S,4aS,8aS)-5,5,8a-trimethyl-1-spiro[3,4,4a,6,7,8-hexahydro-1H-naphthalene-2,2'-oxirane]yl]ethylidene]-2-oxolanone

> <PUBCHEM_IUPAC_NAME>
(3E)-3-[2-[(1R,2S,4aS,8aS)-5,5,8a-trimethylspiro[3,4,4a,6,7,8-hexahydro-1H-naphthalene-2,2'-oxirane]-1-yl]ethylidene]oxolan-2-one

> <PUBCHEM_IUPAC_SYSTEMATIC_NAME>
(3E)-3-[2-[(1R,2S,4aS,8aS)-5,5,8a-trimethylspiro[3,4,4a,6,7,8-hexahydro-1H-naphthalene-2,2'-oxirane]-1-yl]ethylidene]oxolan-2-one

> <PUBCHEM_IUPAC_TRADITIONAL_NAME>
(3E)-3-[2-[(1R,2S,4aS,8aS)-5,5,8a-trimethylspiro[decalin-2,2'-oxirane]-1-yl]ethylidene]tetrahydrofuran-2-one

> <PUBCHEM_IUPAC_INCHI>
InChI=1S/C20H30O3/c1-18(2)9-4-10-19(3)15(18)7-11-20(13-23-20)16(19)6-5-14-8-12-22-17(14)21/h5,15-16H,4,6-13H2,1-3H3/b14-5+/t15-,16+,19-,20+/m0/s1

> <PUBCHEM_IUPAC_INCHIKEY>
MBPTXJNHCBXMBP-SDIIOJARSA-N

> <PUBCHEM_XLOGP3_AA>
4.6

> <PUBCHEM_EXACT_MASS>
318.219495

> <PUBCHEM_MOLECULAR_FORMULA>
C20H30O3

> <PUBCHEM_MOLECULAR_WEIGHT>
318.4504

> <PUBCHEM_OPENEYE_CAN_SMILES>
CC1(CCCC2(C1CCC3(C2CC=C4CCOC4=O)CO3)C)C

> <PUBCHEM_OPENEYE_ISO_SMILES>
C[C@]12CCCC([C@@H]1CC[C@]3([C@@H]2C/C=C/4\CCOC4=O)CO3)(C)C

> <PUBCHEM_CACTVS_TPSA>
38.8

> <PUBCHEM_MONOISOTOPIC_WEIGHT>
318.219495

> <PUBCHEM_TOTAL_CHARGE>
0

> <PUBCHEM_HEAVY_ATOM_COUNT>
23

> <PUBCHEM_ATOM_DEF_STEREO_COUNT>
4

> <PUBCHEM_ATOM_UDEF_STEREO_COUNT>
0

> <PUBCHEM_BOND_DEF_STEREO_COUNT>
1

> <PUBCHEM_BOND_UDEF_STEREO_COUNT>
0

> <PUBCHEM_ISOTOPIC_ATOM_COUNT>
0

> <PUBCHEM_COMPONENT_COUNT>
1

> <PUBCHEM_CACTVS_TAUTO_COUNT>
1

> <PUBCHEM_COORDINATE_TYPE>
1
5
255

> <PUBCHEM_BONDANNOTATIONS>
6  1  5
4  15  5
5  24  6
7  16  5

$$$$

