5282362
  -OEChem-07051213043D

 29 30  0     0  0  0  0  0  0999 V2000
    5.7179    1.4351   -0.2853 O   0  0  0  0  0  0  0  0  0  0  0  0
    0.7587   -2.3868    0.4456 O   0  0  0  0  0  0  0  0  0  0  0  0
    2.0917   -0.4863    0.1047 C   0  0  0  0  0  0  0  0  0  0  0  0
   -2.9372   -0.2460    0.0452 C   0  0  0  0  0  0  0  0  0  0  0  0
    0.7874   -1.1777    0.2444 C   0  0  0  0  0  0  0  0  0  0  0  0
    2.1876    0.8422    0.4689 C   0  0  0  0  0  0  0  0  0  0  0  0
    3.1729   -1.1913   -0.3859 C   0  0  0  0  0  0  0  0  0  0  0  0
   -1.6662   -0.9391    0.1866 C   0  0  0  0  0  0  0  0  0  0  0  0
   -0.4483   -0.3586    0.0998 C   0  0  0  0  0  0  0  0  0  0  0  0
    3.4146    1.4923    0.3369 C   0  0  0  0  0  0  0  0  0  0  0  0
    4.4000   -0.5413   -0.5176 C   0  0  0  0  0  0  0  0  0  0  0  0
   -3.0005    1.1367    0.2173 C   0  0  0  0  0  0  0  0  0  0  0  0
   -4.0929   -0.9643   -0.2621 C   0  0  0  0  0  0  0  0  0  0  0  0
    4.5208    0.8006   -0.1564 C   0  0  0  0  0  0  0  0  0  0  0  0
   -4.2195    1.8012    0.0817 C   0  0  0  0  0  0  0  0  0  0  0  0
   -5.3117   -0.2997   -0.3978 C   0  0  0  0  0  0  0  0  0  0  0  0
   -5.3751    1.0831   -0.2259 C   0  0  0  0  0  0  0  0  0  0  0  0
    1.3637    1.4051    0.8947 H   0  0  0  0  0  0  0  0  0  0  0  0
    3.0936   -2.2348   -0.6762 H   0  0  0  0  0  0  0  0  0  0  0  0
   -1.7375   -2.0067    0.3833 H   0  0  0  0  0  0  0  0  0  0  0  0
   -0.3485    0.6892   -0.1513 H   0  0  0  0  0  0  0  0  0  0  0  0
    3.4983    2.5354    0.6302 H   0  0  0  0  0  0  0  0  0  0  0  0
    5.2579   -1.0849   -0.9037 H   0  0  0  0  0  0  0  0  0  0  0  0
   -2.1324    1.7349    0.4785 H   0  0  0  0  0  0  0  0  0  0  0  0
   -4.0630   -2.0424   -0.4010 H   0  0  0  0  0  0  0  0  0  0  0  0
   -4.2705    2.8773    0.2205 H   0  0  0  0  0  0  0  0  0  0  0  0
   -6.2115   -0.8588   -0.6373 H   0  0  0  0  0  0  0  0  0  0  0  0
   -6.3243    1.6004   -0.3303 H   0  0  0  0  0  0  0  0  0  0  0  0
    5.6195    2.3567    0.0099 H   0  0  0  0  0  0  0  0  0  0  0  0
  1 14  1  0  0  0  0
  1 29  1  0  0  0  0
  2  5  2  0  0  0  0
  3  5  1  0  0  0  0
  3  6  2  0  0  0  0
  3  7  1  0  0  0  0
  4  8  1  0  0  0  0
  4 12  2  0  0  0  0
  4 13  1  0  0  0  0
  5  9  1  0  0  0  0
  6 10  1  0  0  0  0
  6 18  1  0  0  0  0
  7 11  2  0  0  0  0
  7 19  1  0  0  0  0
  8  9  2  0  0  0  0
  8 20  1  0  0  0  0
  9 21  1  0  0  0  0
 10 14  2  0  0  0  0
 10 22  1  0  0  0  0
 11 14  1  0  0  0  0
 11 23  1  0  0  0  0
 12 15  1  0  0  0  0
 12 24  1  0  0  0  0
 13 16  2  0  0  0  0
 13 25  1  0  0  0  0
 15 17  2  0  0  0  0
 15 26  1  0  0  0  0
 16 17  1  0  0  0  0
 16 27  1  0  0  0  0
 17 28  1  0  0  0  0
M  END
> <PUBCHEM_COMPOUND_CID>
5282362

> <PUBCHEM_CONFORMER_RMSD>
0.6

> <PUBCHEM_CONFORMER_DIVERSEORDER>
1
8
7
4
5
3
2
9
6

> <PUBCHEM_MMFF94_PARTIAL_CHARGES>
29
1 -0.53
10 -0.15
11 -0.15
12 -0.15
13 -0.15
14 0.08
15 -0.15
16 -0.15
17 -0.15
18 0.15
19 0.15
2 -0.57
20 0.15
21 0.15
22 0.15
23 0.15
24 0.15
25 0.15
26 0.15
27 0.15
28 0.15
29 0.45
3 0.09
4 0.03
5 0.47
6 -0.15
7 -0.15
8 -0.18
9 -0.14

> <PUBCHEM_EFFECTIVE_ROTOR_COUNT>
3

> <PUBCHEM_PHARMACOPHORE_FEATURES>
4
1 1 donor
1 2 acceptor
6 3 6 7 10 11 14 rings
6 4 12 13 15 16 17 rings

> <PUBCHEM_HEAVY_ATOM_COUNT>
17

> <PUBCHEM_ATOM_DEF_STEREO_COUNT>
0

> <PUBCHEM_ATOM_UDEF_STEREO_COUNT>
0

> <PUBCHEM_BOND_DEF_STEREO_COUNT>
1

> <PUBCHEM_BOND_UDEF_STEREO_COUNT>
0

> <PUBCHEM_ISOTOPIC_ATOM_COUNT>
0

> <PUBCHEM_COMPONENT_COUNT>
1

> <PUBCHEM_CACTVS_TAUTO_COUNT>
4

> <PUBCHEM_CONFORMER_ID>
00509A3A00000001

> <PUBCHEM_MMFF94_ENERGY>
52.5017

> <PUBCHEM_FEATURE_SELFOVERLAP>
20.297

> <PUBCHEM_SHAPE_FINGERPRINT>
10014705 185 18272092738476625565
100836 57 18343861104515179508
10498660 4 18340773731741495157
10595046 47 18335423473922038799
11128504 68 14923946713007028880
11471102 20 18334855022363294610
12107183 9 17616533299558301227
12507557 5 17274819117435661813
12596602 18 15051724270580302300
12670543 26 18261382374156229174
12730499 353 18410846668409858506
12916748 109 18412258428412283731
13081056 2 18409449193573128149
14251764 18 18273220794557063274
14528608 73 18409171008641476303
15196674 1 18410011061078811297
15788980 27 5906051443515973291
17834072 33 18259707791697397903
17959699 21 18409166631874843673
200 152 17676207979027654379
20300324 65 18187366532703047305
20645477 70 18040710415989277446
212847 35 18413109468188066048
21652331 79 18412828014459708765
221357 26 18113338621833017321
22289505 5 18260830431930031380
22854114 59 18060138747533116039
23402539 116 18335145262809048542
23402655 69 18259703397945801974
23559900 14 18043819903312717811
245318 6 17128438819221724316
2916195 48 18334863758158203848
29717793 49 17095234861042300636
3004659 81 18410570730468541782
34797466 226 17603860074922715125
351380 180 18408887330056600124
351380 3 7420949763777802820
3545911 37 18411135836089090865
4028521 119 18411984684798809313
4072396 5 18334305267013689106
4214541 1 18407760352534848925
441001 317 18410855460624086041
465052 167 10159703504050791712
474 4 18060135418838606973
495365 180 17458353988122218930
4990 188 18040992964343529166
5104073 3 18272367620240681219
5281201 14 18114456850801181662
542803 24 17917991685281502669
633830 44 18412267241827989870
77779 3 18335983142493987679

> <PUBCHEM_SHAPE_MULTIPOLES>
338.11
13.21
1.84
0.69
2.26
0.03
-0.01
-5.13
-2.18
-0.27
0.14
-0.07
0.02
0.01

> <PUBCHEM_SHAPE_SELFOVERLAP>
729.033

> <PUBCHEM_SHAPE_VOLUME>
186.2

> <PUBCHEM_COORDINATE_TYPE>
2
5
10

$$$$

