443447
  -OEChem-07051213023D

 46 49  0     1  0  0  0  0  0999 V2000
    0.6985    3.7111   -0.1028 O   0  0  0  0  0  0  0  0  0  0  0  0
    0.9372    2.4688   -2.0070 O   0  0  0  0  0  0  0  0  0  0  0  0
   -2.7798   -0.8884    1.9548 O   0  0  0  0  0  0  0  0  0  0  0  0
   -3.6095   -2.4548   -1.0274 O   0  0  0  0  0  0  0  0  0  0  0  0
   -1.2062    0.7017    2.4255 O   0  0  0  0  0  0  0  0  0  0  0  0
    1.3418    0.2705    0.0083 C   0  0  1  0  0  0  0  0  0  0  0  0
    0.9401   -0.6428   -1.1822 C   0  0  2  0  0  0  0  0  0  0  0  0
    0.2683    1.3773    0.0163 C   0  0  2  0  0  0  0  0  0  0  0  0
   -1.0027    0.7301   -0.5975 C   0  0  1  0  0  0  0  0  0  0  0  0
    1.3487   -0.5335    1.3273 C   0  0  0  0  0  0  0  0  0  0  0  0
    2.5477   -1.4501    1.1095 C   0  0  1  0  0  0  0  0  0  0  0  0
    2.8173    0.7118   -0.0628 C   0  0  0  0  0  0  0  0  0  0  0  0
   -0.5595   -0.6580   -1.0100 C   0  0  0  0  0  0  0  0  0  0  0  0
    1.7157   -1.9701   -1.2538 C   0  0  0  0  0  0  0  0  0  0  0  0
    2.1413   -2.5398    0.1056 C   0  0  0  0  0  0  0  0  0  0  0  0
   -2.2753    0.7250    0.2747 C   0  0  2  0  0  0  0  0  0  0  0  0
    3.5458   -0.4751    0.5257 C   0  0  0  0  0  0  0  0  0  0  0  0
    0.6712    2.5610   -0.8182 C   0  0  0  0  0  0  0  0  0  0  0  0
   -1.3898   -1.7013   -1.1068 C   0  0  0  0  0  0  0  0  0  0  0  0
   -3.3502   -0.1553   -0.3913 C   0  0  0  0  0  0  0  0  0  0  0  0
   -2.8203    2.1535    0.4379 C   0  0  0  0  0  0  0  0  0  0  0  0
   -2.8378   -1.5136   -0.8429 C   0  0  0  0  0  0  0  0  0  0  0  0
   -2.0168    0.1931    1.6661 C   0  0  0  0  0  0  0  0  0  0  0  0
    4.8744   -0.6212    0.5508 C   0  0  0  0  0  0  0  0  0  0  0  0
    1.1332   -0.1217   -2.1307 H   0  0  0  0  0  0  0  0  0  0  0  0
    0.1272    1.7647    1.0260 H   0  0  0  0  0  0  0  0  0  0  0  0
   -1.2595    1.2527   -1.5318 H   0  0  0  0  0  0  0  0  0  0  0  0
    0.4367   -1.1085    1.5103 H   0  0  0  0  0  0  0  0  0  0  0  0
    1.5111    0.1240    2.1919 H   0  0  0  0  0  0  0  0  0  0  0  0
    2.8874   -1.8906    2.0522 H   0  0  0  0  0  0  0  0  0  0  0  0
    2.9922    1.5945    0.5632 H   0  0  0  0  0  0  0  0  0  0  0  0
    3.1415    0.9212   -1.0871 H   0  0  0  0  0  0  0  0  0  0  0  0
    2.6327   -1.7831   -1.8301 H   0  0  0  0  0  0  0  0  0  0  0  0
    1.1735   -2.7293   -1.8276 H   0  0  0  0  0  0  0  0  0  0  0  0
    1.3111   -3.1226    0.5242 H   0  0  0  0  0  0  0  0  0  0  0  0
    2.9704   -3.2423   -0.0439 H   0  0  0  0  0  0  0  0  0  0  0  0
   -1.0571   -2.6955   -1.3764 H   0  0  0  0  0  0  0  0  0  0  0  0
   -3.7115    0.3404   -1.3032 H   0  0  0  0  0  0  0  0  0  0  0  0
   -4.2316   -0.2971    0.2463 H   0  0  0  0  0  0  0  0  0  0  0  0
   -3.0590    2.6011   -0.5333 H   0  0  0  0  0  0  0  0  0  0  0  0
   -3.7352    2.1592    1.0422 H   0  0  0  0  0  0  0  0  0  0  0  0
   -2.1012    2.8101    0.9397 H   0  0  0  0  0  0  0  0  0  0  0  0
    5.3322   -1.4954    1.0010 H   0  0  0  0  0  0  0  0  0  0  0  0
    5.5272    0.1304    0.1206 H   0  0  0  0  0  0  0  0  0  0  0  0
    0.9613    4.4790   -0.6537 H   0  0  0  0  0  0  0  0  0  0  0  0
   -2.6055   -1.2290    2.8579 H   0  0  0  0  0  0  0  0  0  0  0  0
  1 18  1  0  0  0  0
  1 45  1  0  0  0  0
  2 18  2  0  0  0  0
  3 23  1  0  0  0  0
  3 46  1  0  0  0  0
  4 22  2  0  0  0  0
  5 23  2  0  0  0  0
  6  7  1  0  0  0  0
  6  8  1  0  0  0  0
  6 10  1  0  0  0  0
  6 12  1  0  0  0  0
  7 13  1  0  0  0  0
  7 14  1  0  0  0  0
  7 25  1  0  0  0  0
  8  9  1  0  0  0  0
  8 18  1  0  0  0  0
  8 26  1  0  0  0  0
  9 13  1  0  0  0  0
  9 16  1  0  0  0  0
  9 27  1  0  0  0  0
 10 11  1  0  0  0  0
 10 28  1  0  0  0  0
 10 29  1  0  0  0  0
 11 15  1  0  0  0  0
 11 17  1  0  0  0  0
 11 30  1  0  0  0  0
 12 17  1  0  0  0  0
 12 31  1  0  0  0  0
 12 32  1  0  0  0  0
 13 19  2  0  0  0  0
 14 15  1  0  0  0  0
 14 33  1  0  0  0  0
 14 34  1  0  0  0  0
 15 35  1  0  0  0  0
 15 36  1  0  0  0  0
 16 20  1  0  0  0  0
 16 21  1  0  0  0  0
 16 23  1  0  0  0  0
 17 24  2  0  0  0  0
 19 22  1  0  0  0  0
 19 37  1  0  0  0  0
 20 22  1  0  0  0  0
 20 38  1  0  0  0  0
 20 39  1  0  0  0  0
 21 40  1  0  0  0  0
 21 41  1  0  0  0  0
 21 42  1  0  0  0  0
 24 43  1  0  0  0  0
 24 44  1  0  0  0  0
M  END
> <PUBCHEM_COMPOUND_CID>
443447

> <PUBCHEM_CONFORMER_RMSD>
0.6

> <PUBCHEM_CONFORMER_DIVERSEORDER>
1
2

> <PUBCHEM_MMFF94_PARTIAL_CHARGES>
24
1 -0.65
11 0.14
12 0.14
13 -0.28
16 0.06
17 -0.28
18 0.66
19 -0.14
2 -0.57
20 0.06
22 0.49
23 0.66
24 -0.3
3 -0.65
37 0.15
4 -0.57
43 0.15
44 0.15
45 0.5
46 0.5
5 -0.57
7 0.14
8 0.06
9 0.14

> <PUBCHEM_EFFECTIVE_ROTOR_COUNT>
3.4

> <PUBCHEM_PHARMACOPHORE_FEATURES>
10
1 1 acceptor
1 2 acceptor
1 3 acceptor
1 4 acceptor
1 5 acceptor
3 1 2 18 anion
3 3 5 23 anion
5 6 7 8 9 13 rings
6 9 13 16 19 20 22 rings
8 6 7 10 11 12 14 15 17 rings

> <PUBCHEM_HEAVY_ATOM_COUNT>
24

> <PUBCHEM_ATOM_DEF_STEREO_COUNT>
6

> <PUBCHEM_ATOM_UDEF_STEREO_COUNT>
0

> <PUBCHEM_BOND_DEF_STEREO_COUNT>
0

> <PUBCHEM_BOND_UDEF_STEREO_COUNT>
0

> <PUBCHEM_ISOTOPIC_ATOM_COUNT>
0

> <PUBCHEM_COMPONENT_COUNT>
1

> <PUBCHEM_CACTVS_TAUTO_COUNT>
8

> <PUBCHEM_CONFORMER_ID>
0006C43700000001

> <PUBCHEM_MMFF94_ENERGY>
79.2939

> <PUBCHEM_FEATURE_SELFOVERLAP>
51.008

> <PUBCHEM_SHAPE_FINGERPRINT>
10863032 1 18116162231959146619
10948715 1 17903922497796417817
1100329 8 17617110109450268460
11578080 2 17971504856176916009
11582403 64 15756890345454120301
12403814 3 18266751357853487856
12633257 1 17389662213282336386
12788726 201 17842011158305031600
13009979 54 18113892711326740690
13140716 1 17976263434879516247
133893 2 17915734284572436268
13583140 156 17989202668899921545
13681431 1 18130776850548176644
13965767 371 17754998024006051457
14178342 30 18114172060347400359
14223421 5 17894918429182620619
14787075 74 17028554754710452074
14955137 171 18120060993265418216
15238133 3 17702085066586454781
16945 1 18338223860985951407
1813 80 18411691093693009398
18186145 218 9150878465234955338
18981168 100 7493011704586495275
19010151 120 18340497685713859102
20691752 17 18267010833686455502
21421861 104 18193259807627909779
22112679 90 18261103028760877060
23184049 59 18193550301666404049
23388829 49 18336552607606783709
23402539 116 18059860610183948322
23419403 2 13532422401927908873
23559900 14 18189355497228770225
238 59 17771907134219826599
2748010 2 16821362169334315582
3286 77 17488726892542429483
34934 24 18199754811179566992
392239 28 17242471425080222546
394222 165 17693392044094191081
427121 178 16010962490276513387
568465 68 17489573567977558066
6992083 37 18334852865688390321
7364860 26 18195256502914943212
81228 2 17769647934367907396
90316 7 18196951056771435248

> <PUBCHEM_SHAPE_MULTIPOLES>
464.56
5.92
2.96
1.67
2.24
1.47
0.53
-2.29
1.26
-0.5
-1.14
-0.55
0.02
-0.83

> <PUBCHEM_SHAPE_SELFOVERLAP>
1030.212

> <PUBCHEM_SHAPE_VOLUME>
247.5

> <PUBCHEM_COORDINATE_TYPE>
2
5
10

$$$$

