102178
  -OEChem-07051213053D

 53 56  0     1  0  0  0  0  0999 V2000
   -3.4685    0.0580   -1.9332 O   0  0  0  0  0  0  0  0  0  0  0  0
    0.3227   -2.5481    0.6036 O   0  0  0  0  0  0  0  0  0  0  0  0
   -5.3780   -0.1637    0.8990 O   0  0  0  0  0  0  0  0  0  0  0  0
    6.2077   -0.0583   -1.1106 O   0  0  0  0  0  0  0  0  0  0  0  0
   -1.3056    1.0710   -0.2464 C   0  0  2  0  0  0  0  0  0  0  0  0
   -2.1730   -0.1523    0.1378 C   0  0  1  0  0  0  0  0  0  0  0  0
    0.1016    1.0258    0.3663 C   0  0  1  0  0  0  0  0  0  0  0  0
    0.8341   -0.2606   -0.1206 C   0  0  1  0  0  0  0  0  0  0  0  0
   -3.5109    0.2634   -0.5239 C   0  0  1  0  0  0  0  0  0  0  0  0
    2.3049   -0.3788    0.4277 C   0  0  2  0  0  0  0  0  0  0  0  0
   -2.2010    2.2624    0.0865 C   0  0  0  0  0  0  0  0  0  0  0  0
   -1.4944   -1.4018   -0.4317 C   0  0  0  0  0  0  0  0  0  0  0  0
   -3.6288    1.7732   -0.2270 C   0  0  0  0  0  0  0  0  0  0  0  0
    0.9131    2.2693   -0.0181 C   0  0  0  0  0  0  0  0  0  0  0  0
   -0.0687   -1.4974    0.0987 C   0  0  0  0  0  0  0  0  0  0  0  0
   -2.3514   -0.3237    1.6720 C   0  0  0  0  0  0  0  0  0  0  0  0
    3.0431    0.9477    0.1816 C   0  0  0  0  0  0  0  0  0  0  0  0
    2.3157    2.2130    0.5707 C   0  0  0  0  0  0  0  0  0  0  0  0
    3.0285   -1.5265   -0.3376 C   0  0  0  0  0  0  0  0  0  0  0  0
    2.3437   -0.6610    1.9469 C   0  0  0  0  0  0  0  0  0  0  0  0
   -4.7062   -0.5177   -0.0686 C   0  0  0  0  0  0  0  0  0  0  0  0
    4.5414   -1.5053   -0.1839 C   0  0  0  0  0  0  0  0  0  0  0  0
    4.2841    1.0372   -0.3261 C   0  0  0  0  0  0  0  0  0  0  0  0
    5.0914   -0.1707   -0.6083 C   0  0  0  0  0  0  0  0  0  0  0  0
   -5.0456   -1.7550   -0.8548 C   0  0  0  0  0  0  0  0  0  0  0  0
   -1.1732    1.0800   -1.3408 H   0  0  0  0  0  0  0  0  0  0  0  0
    0.0120    1.0115    1.4581 H   0  0  0  0  0  0  0  0  0  0  0  0
    0.9139   -0.1842   -1.2173 H   0  0  0  0  0  0  0  0  0  0  0  0
   -1.9457    3.1435   -0.5112 H   0  0  0  0  0  0  0  0  0  0  0  0
   -2.1176    2.5449    1.1420 H   0  0  0  0  0  0  0  0  0  0  0  0
   -1.4344   -1.3875   -1.5254 H   0  0  0  0  0  0  0  0  0  0  0  0
   -2.0353   -2.3085   -0.1405 H   0  0  0  0  0  0  0  0  0  0  0  0
   -4.2732    1.9992    0.6293 H   0  0  0  0  0  0  0  0  0  0  0  0
   -4.0274    2.3236   -1.0870 H   0  0  0  0  0  0  0  0  0  0  0  0
    0.4157    3.1750    0.3478 H   0  0  0  0  0  0  0  0  0  0  0  0
    0.9734    2.3587   -1.1106 H   0  0  0  0  0  0  0  0  0  0  0  0
   -1.4007   -0.4847    2.1892 H   0  0  0  0  0  0  0  0  0  0  0  0
   -2.8293    0.5419    2.1407 H   0  0  0  0  0  0  0  0  0  0  0  0
   -2.9719   -1.1998    1.8937 H   0  0  0  0  0  0  0  0  0  0  0  0
    2.2574    2.2683    1.6648 H   0  0  0  0  0  0  0  0  0  0  0  0
    2.8667    3.1052    0.2484 H   0  0  0  0  0  0  0  0  0  0  0  0
    2.7956   -1.4542   -1.4094 H   0  0  0  0  0  0  0  0  0  0  0  0
    2.6687   -2.5077   -0.0104 H   0  0  0  0  0  0  0  0  0  0  0  0
    3.3645   -0.5923    2.3415 H   0  0  0  0  0  0  0  0  0  0  0  0
    1.7372    0.0498    2.5167 H   0  0  0  0  0  0  0  0  0  0  0  0
    1.9805   -1.6642    2.1879 H   0  0  0  0  0  0  0  0  0  0  0  0
   -4.2265    0.5171   -2.3340 H   0  0  0  0  0  0  0  0  0  0  0  0
    4.9778   -2.2802   -0.8239 H   0  0  0  0  0  0  0  0  0  0  0  0
    4.8492   -1.7024    0.8477 H   0  0  0  0  0  0  0  0  0  0  0  0
    4.7663    1.9942   -0.4956 H   0  0  0  0  0  0  0  0  0  0  0  0
   -5.5233   -1.4814   -1.7989 H   0  0  0  0  0  0  0  0  0  0  0  0
   -4.1576   -2.3615   -1.0396 H   0  0  0  0  0  0  0  0  0  0  0  0
   -5.7478   -2.3628   -0.2757 H   0  0  0  0  0  0  0  0  0  0  0  0
  1  9  1  0  0  0  0
  1 47  1  0  0  0  0
  2 15  2  0  0  0  0
  3 21  2  0  0  0  0
  4 24  2  0  0  0  0
  5  6  1  0  0  0  0
  5  7  1  0  0  0  0
  5 11  1  0  0  0  0
  5 26  1  0  0  0  0
  6  9  1  0  0  0  0
  6 12  1  0  0  0  0
  6 16  1  0  0  0  0
  7  8  1  0  0  0  0
  7 14  1  0  0  0  0
  7 27  1  0  0  0  0
  8 10  1  0  0  0  0
  8 15  1  0  0  0  0
  8 28  1  0  0  0  0
  9 13  1  0  0  0  0
  9 21  1  0  0  0  0
 10 17  1  0  0  0  0
 10 19  1  0  0  0  0
 10 20  1  0  0  0  0
 11 13  1  0  0  0  0
 11 29  1  0  0  0  0
 11 30  1  0  0  0  0
 12 15  1  0  0  0  0
 12 31  1  0  0  0  0
 12 32  1  0  0  0  0
 13 33  1  0  0  0  0
 13 34  1  0  0  0  0
 14 18  1  0  0  0  0
 14 35  1  0  0  0  0
 14 36  1  0  0  0  0
 16 37  1  0  0  0  0
 16 38  1  0  0  0  0
 16 39  1  0  0  0  0
 17 18  1  0  0  0  0
 17 23  2  0  0  0  0
 18 40  1  0  0  0  0
 18 41  1  0  0  0  0
 19 22  1  0  0  0  0
 19 42  1  0  0  0  0
 19 43  1  0  0  0  0
 20 44  1  0  0  0  0
 20 45  1  0  0  0  0
 20 46  1  0  0  0  0
 21 25  1  0  0  0  0
 22 24  1  0  0  0  0
 22 48  1  0  0  0  0
 22 49  1  0  0  0  0
 23 24  1  0  0  0  0
 23 50  1  0  0  0  0
 25 51  1  0  0  0  0
 25 52  1  0  0  0  0
 25 53  1  0  0  0  0
M  END
> <PUBCHEM_COMPOUND_CID>
102178

> <PUBCHEM_CONFORMER_RMSD>
0.6

> <PUBCHEM_CONFORMER_DIVERSEORDER>
1
2

> <PUBCHEM_MMFF94_PARTIAL_CHARGES>
18
1 -0.68
10 0.14
12 0.06
15 0.45
17 -0.28
18 0.14
2 -0.57
21 0.45
22 0.06
23 -0.14
24 0.49
25 0.06
3 -0.57
4 -0.57
47 0.4
50 0.15
8 0.06
9 0.34

> <PUBCHEM_EFFECTIVE_ROTOR_COUNT>
2.6

> <PUBCHEM_PHARMACOPHORE_FEATURES>
9
1 1 acceptor
1 1 donor
1 2 acceptor
1 3 acceptor
1 4 acceptor
5 5 6 9 11 13 rings
6 10 17 19 22 23 24 rings
6 5 6 7 8 12 15 rings
6 7 8 10 14 17 18 rings

> <PUBCHEM_HEAVY_ATOM_COUNT>
25

> <PUBCHEM_ATOM_DEF_STEREO_COUNT>
6

> <PUBCHEM_ATOM_UDEF_STEREO_COUNT>
0

> <PUBCHEM_BOND_DEF_STEREO_COUNT>
0

> <PUBCHEM_BOND_UDEF_STEREO_COUNT>
0

> <PUBCHEM_ISOTOPIC_ATOM_COUNT>
0

> <PUBCHEM_COMPONENT_COUNT>
1

> <PUBCHEM_CACTVS_TAUTO_COUNT>
30

> <PUBCHEM_CONFORMER_ID>
00018F2200000001

> <PUBCHEM_MMFF94_ENERGY>
78.5404

> <PUBCHEM_FEATURE_SELFOVERLAP>
45.765

> <PUBCHEM_SHAPE_FINGERPRINT>
10366900 7 17917993862624375641
10498660 4 18272094941061722892
10967382 1 18410859819525495433
11796584 16 15213016050916742340
12011746 2 18343582932141329805
12236239 1 17603581907281656305
12403259 226 18408893935880279937
12403259 415 18343027683354914365
12553582 1 18336839640192222713
12788726 201 18339081608820883048
13140716 1 18267030457597499539
13224815 77 18131072657735535185
13288520 33 18187361038791243789
13583140 156 16630803288025925472
13862211 1 18410298012360480858
14787075 74 18412823573062455131
14790565 3 18338790221080829592
15196674 1 18410575119149671196
15209289 33 18408603677694864313
15848702 151 17822565109571781414
16752209 62 18338243755496317872
16945 1 18339094769132823283
17349148 13 18410016532766731203
18186145 218 18339654368658403749
18608769 82 18198898119801875378
19591789 44 18410858788733129934
19862831 5 18410294722431258944
200 152 17967533475694744440
20028762 73 18114751438604139663
20645477 70 18339647741714088332
20775438 99 17104289111432356543
21033648 29 18201450159330877997
21267235 1 18408877430119890758
21279426 13 18267302226011158430
21857420 4 15366761659376936982
221357 26 18408324388677341253
22393880 68 18340779216235150453
23402539 116 18334859458980102604
23522609 53 18118651431875084313
23559900 14 18262526896356023480
296302 2 14908180862999818272
3004659 81 18271802489135170614
335352 9 18408604769302516013
34797466 226 15697986440541269766
350125 39 18410007771587842089
4280585 95 17397822862041785006
4340502 62 16343982511756522546
5104073 3 18409451422471466001
9709674 26 18340488863676875505

> <PUBCHEM_SHAPE_MULTIPOLES>
491.01
11.08
2.28
1.17
1.86
0.42
0.24
-2.09
-2.82
-0.07
0.03
-0.21
-0.2
-0.11

> <PUBCHEM_SHAPE_SELFOVERLAP>
1063.873

> <PUBCHEM_SHAPE_VOLUME>
267.1

> <PUBCHEM_COORDINATE_TYPE>
2
5
10

$$$$

