10421549
  -OEChem-07051213093D

 39 39  0     1  0  0  0  0  0999 V2000
    0.6440    1.8315    0.9795 O   0  0  0  0  0  0  0  0  0  0  0  0
   -2.4040   -1.5919   -1.2449 O   0  0  0  0  0  0  0  0  0  0  0  0
    2.2710    0.9825   -0.5907 C   0  0  1  0  0  0  0  0  0  0  0  0
    3.1257    0.3306    0.5192 C   0  0  0  0  0  0  0  0  0  0  0  0
    2.8369   -1.1672    0.7406 C   0  0  0  0  0  0  0  0  0  0  0  0
    0.8480    1.2904   -0.1093 C   0  0  0  0  0  0  0  0  0  0  0  0
   -0.2966    0.9679   -1.0630 C   0  0  0  0  0  0  0  0  0  0  0  0
   -1.4701    0.3760   -0.3414 C   0  0  0  0  0  0  0  0  0  0  0  0
    2.8959    2.2950   -1.0596 C   0  0  0  0  0  0  0  0  0  0  0  0
    1.3930   -1.4136    1.0611 C   0  0  0  0  0  0  0  0  0  0  0  0
   -0.9733   -1.9584    0.6564 C   0  0  0  0  0  0  0  0  0  0  0  0
    0.4881   -2.0660    0.3067 C   0  0  0  0  0  0  0  0  0  0  0  0
   -1.6832   -1.0991   -0.3777 C   0  0  0  0  0  0  0  0  0  0  0  0
   -2.4426    1.0819    0.2498 C   0  0  0  0  0  0  0  0  0  0  0  0
    0.8069   -2.8612   -0.9287 C   0  0  0  0  0  0  0  0  0  0  0  0
   -2.3802    2.5769    0.3686 C   0  0  0  0  0  0  0  0  0  0  0  0
   -3.6595    0.4248    0.8333 C   0  0  0  0  0  0  0  0  0  0  0  0
    2.2233    0.2980   -1.4454 H   0  0  0  0  0  0  0  0  0  0  0  0
    2.9940    0.8686    1.4670 H   0  0  0  0  0  0  0  0  0  0  0  0
    4.1882    0.4218    0.2589 H   0  0  0  0  0  0  0  0  0  0  0  0
    3.4482   -1.5299    1.5753 H   0  0  0  0  0  0  0  0  0  0  0  0
    3.1661   -1.7171   -0.1451 H   0  0  0  0  0  0  0  0  0  0  0  0
    0.0535    0.2507   -1.8140 H   0  0  0  0  0  0  0  0  0  0  0  0
   -0.5535    1.8737   -1.6213 H   0  0  0  0  0  0  0  0  0  0  0  0
    2.2805    2.7655   -1.8342 H   0  0  0  0  0  0  0  0  0  0  0  0
    2.9899    3.0092   -0.2339 H   0  0  0  0  0  0  0  0  0  0  0  0
    3.8932    2.1248   -1.4783 H   0  0  0  0  0  0  0  0  0  0  0  0
    1.0404   -0.8960    1.9527 H   0  0  0  0  0  0  0  0  0  0  0  0
   -1.4393   -2.9502    0.6788 H   0  0  0  0  0  0  0  0  0  0  0  0
   -1.1410   -1.5195    1.6471 H   0  0  0  0  0  0  0  0  0  0  0  0
    0.5116   -2.3128   -1.8284 H   0  0  0  0  0  0  0  0  0  0  0  0
    0.2645   -3.8129   -0.9126 H   0  0  0  0  0  0  0  0  0  0  0  0
    1.8663   -3.1129   -1.0160 H   0  0  0  0  0  0  0  0  0  0  0  0
   -3.2566    3.0220   -0.1153 H   0  0  0  0  0  0  0  0  0  0  0  0
   -2.3952    2.8650    1.4254 H   0  0  0  0  0  0  0  0  0  0  0  0
   -1.4996    3.0424   -0.0770 H   0  0  0  0  0  0  0  0  0  0  0  0
   -3.8240    0.8001    1.8501 H   0  0  0  0  0  0  0  0  0  0  0  0
   -4.5405    0.6849    0.2364 H   0  0  0  0  0  0  0  0  0  0  0  0
   -3.6278   -0.6632    0.9184 H   0  0  0  0  0  0  0  0  0  0  0  0
  1  6  2  0  0  0  0
  2 13  2  0  0  0  0
  3  4  1  0  0  0  0
  3  6  1  0  0  0  0
  3  9  1  0  0  0  0
  3 18  1  0  0  0  0
  4  5  1  0  0  0  0
  4 19  1  0  0  0  0
  4 20  1  0  0  0  0
  5 10  1  0  0  0  0
  5 21  1  0  0  0  0
  5 22  1  0  0  0  0
  6  7  1  0  0  0  0
  7  8  1  0  0  0  0
  7 23  1  0  0  0  0
  7 24  1  0  0  0  0
  8 13  1  0  0  0  0
  8 14  2  0  0  0  0
  9 25  1  0  0  0  0
  9 26  1  0  0  0  0
  9 27  1  0  0  0  0
 10 12  2  0  0  0  0
 10 28  1  0  0  0  0
 11 12  1  0  0  0  0
 11 13  1  0  0  0  0
 11 29  1  0  0  0  0
 11 30  1  0  0  0  0
 12 15  1  0  0  0  0
 14 16  1  0  0  0  0
 14 17  1  0  0  0  0
 15 31  1  0  0  0  0
 15 32  1  0  0  0  0
 15 33  1  0  0  0  0
 16 34  1  0  0  0  0
 16 35  1  0  0  0  0
 16 36  1  0  0  0  0
 17 37  1  0  0  0  0
 17 38  1  0  0  0  0
 17 39  1  0  0  0  0
M  END
> <PUBCHEM_COMPOUND_CID>
10421549

> <PUBCHEM_CONFORMER_RMSD>
0.6

> <PUBCHEM_CONFORMER_DIVERSEORDER>
1

> <PUBCHEM_MMFF94_PARTIAL_CHARGES>
16
1 -0.57
10 -0.29
11 0.2
12 -0.28
13 0.49
14 -0.28
15 0.14
16 0.14
17 0.14
2 -0.57
28 0.15
3 0.06
5 0.14
6 0.45
7 0.2
8 -0.12

> <PUBCHEM_EFFECTIVE_ROTOR_COUNT>
1

> <PUBCHEM_PHARMACOPHORE_FEATURES>
3
1 1 acceptor
1 2 acceptor
3 14 16 17 hydrophobe

> <PUBCHEM_HEAVY_ATOM_COUNT>
17

> <PUBCHEM_ATOM_DEF_STEREO_COUNT>
1

> <PUBCHEM_ATOM_UDEF_STEREO_COUNT>
0

> <PUBCHEM_BOND_DEF_STEREO_COUNT>
1

> <PUBCHEM_BOND_UDEF_STEREO_COUNT>
0

> <PUBCHEM_ISOTOPIC_ATOM_COUNT>
0

> <PUBCHEM_COMPONENT_COUNT>
1

> <PUBCHEM_CACTVS_TAUTO_COUNT>
49

> <PUBCHEM_CONFORMER_ID>
009F052D00000001

> <PUBCHEM_MMFF94_ENERGY>
34.7155

> <PUBCHEM_FEATURE_SELFOVERLAP>
15.223

> <PUBCHEM_SHAPE_FINGERPRINT>
104564 63 18123738764728008282
10980938 120 18337105786673052369
11132069 177 18265633115646747266
12382932 28 18192723464263105720
12524768 44 17904776822330949631
12696612 119 18198907096272779338
13140716 1 18411704270293808400
14251711 518 17980776152674879419
15279307 12 18199742557875163964
15775835 57 18338792325614239536
16945 1 17988655111523849890
21501502 16 18411703140696375102
2334 1 18339928095471920908
23419403 2 15598989999826545209
23463225 33 18343303694900693520
2748010 2 18341052917331383814
2897 32 18341336664419621000
44154327 71 18342730797908620125
528862 383 18272086157937719193
7364860 26 18190737737668145702
7832392 63 18263648531307340110
90525 40 18410572885661019964

> <PUBCHEM_SHAPE_MULTIPOLES>
338.11
4.89
3.17
1.14
0.81
0.44
-0.1
-1.82
0.68
-0.58
-0.44
-0.1
0.14
-0.9

> <PUBCHEM_SHAPE_SELFOVERLAP>
678.499

> <PUBCHEM_SHAPE_VOLUME>
198

> <PUBCHEM_COORDINATE_TYPE>
2
5
10

$$$$

