12778780
  -OEChem-07051213152D

 40 43  0     1  0  0  0  0  0999 V2000
    2.5405    0.3169    0.0000 O   0  0  0  0  0  0  0  0  0  0  0  0
    2.5247   -1.7314    0.0000 O   0  0  0  0  0  0  0  0  0  0  0  0
    4.3107    0.3137    0.0000 C   0  0  0  0  0  0  0  0  0  0  0  0
    3.4007   -0.1931    0.0000 C   0  0  1  0  0  0  0  0  0  0  0  0
    5.1767   -0.1863    0.0000 C   0  0  0  0  0  0  0  0  0  0  0  0
    3.3926   -1.2347    0.0000 C   0  0  2  0  0  0  0  0  0  0  0  0
    5.1928   -1.2278    0.0000 C   0  0  0  0  0  0  0  0  0  0  0  0
    4.2947   -1.7555    0.0000 C   0  0  0  0  0  0  0  0  0  0  0  0
    4.3107    1.3137    0.0000 C   0  0  0  0  0  0  0  0  0  0  0  0
    6.0427    0.3137    0.0000 C   0  0  0  0  0  0  0  0  0  0  0  0
    5.1767    1.8137    0.0000 C   0  0  0  0  0  0  0  0  0  0  0  0
    6.0427    1.3137    0.0000 C   0  0  0  0  0  0  0  0  0  0  0  0
    6.1447   -1.7484    0.0000 C   0  0  0  0  0  0  0  0  0  0  0  0
    4.2864   -2.8405    0.0000 C   0  0  0  0  0  0  0  0  0  0  0  0
    3.4446    1.8137    0.0000 C   0  0  0  0  0  0  0  0  0  0  0  0
    6.9088   -0.1863    0.0000 C   0  0  0  0  0  0  0  0  0  0  0  0
    5.1606    2.8552    0.0000 C   0  0  0  0  0  0  0  0  0  0  0  0
    6.9527    1.8206    0.0000 C   0  0  0  0  0  0  0  0  0  0  0  0
    6.1614   -2.8333    0.0000 C   0  0  0  0  0  0  0  0  0  0  0  0
    5.2260   -3.3830    0.0000 C   0  0  0  0  0  0  0  0  0  0  0  0
    6.0587    3.3830    0.0000 C   0  0  0  0  0  0  0  0  0  0  0  0
    6.9608    2.8622    0.0000 C   0  0  0  0  0  0  0  0  0  0  0  0
    2.8608   -0.4979    0.0000 H   0  0  0  0  0  0  0  0  0  0  0  0
    3.3914   -1.8547    0.0000 H   0  0  0  0  0  0  0  0  0  0  0  0
    6.6756   -1.4281    0.0000 H   0  0  0  0  0  0  0  0  0  0  0  0
    3.7482   -3.1484    0.0000 H   0  0  0  0  0  0  0  0  0  0  0  0
    3.7546    2.3507    0.0000 H   0  0  0  0  0  0  0  0  0  0  0  0
    2.9077    2.1237    0.0000 H   0  0  0  0  0  0  0  0  0  0  0  0
    3.1346    1.2768    0.0000 H   0  0  0  0  0  0  0  0  0  0  0  0
    6.5988   -0.7232    0.0000 H   0  0  0  0  0  0  0  0  0  0  0  0
    7.4457   -0.4963    0.0000 H   0  0  0  0  0  0  0  0  0  0  0  0
    7.2188    0.3507    0.0000 H   0  0  0  0  0  0  0  0  0  0  0  0
    4.6202    3.1590    0.0000 H   0  0  0  0  0  0  0  0  0  0  0  0
    7.4860    1.5044    0.0000 H   0  0  0  0  0  0  0  0  0  0  0  0
    2.0000    0.0131    0.0000 H   0  0  0  0  0  0  0  0  0  0  0  0
    2.5223   -2.3514    0.0000 H   0  0  0  0  0  0  0  0  0  0  0  0
    6.7019   -3.1370    0.0000 H   0  0  0  0  0  0  0  0  0  0  0  0
    5.2284   -4.0030    0.0000 H   0  0  0  0  0  0  0  0  0  0  0  0
    6.0563    4.0030    0.0000 H   0  0  0  0  0  0  0  0  0  0  0  0
    7.4989    3.1701    0.0000 H   0  0  0  0  0  0  0  0  0  0  0  0
  4  1  1  1  0  0  0
  1 35  1  0  0  0  0
  6  2  1  6  0  0  0
  2 36  1  0  0  0  0
  3  4  1  0  0  0  0
  3  5  1  0  0  0  0
  3  9  2  0  0  0  0
  4  6  1  0  0  0  0
  4 23  1  0  0  0  0
  5  7  1  0  0  0  0
  5 10  2  0  0  0  0
  6  8  1  0  0  0  0
  6 24  1  0  0  0  0
  7  8  1  0  0  0  0
  7 13  2  0  0  0  0
  8 14  2  0  0  0  0
  9 11  1  0  0  0  0
  9 15  1  0  0  0  0
 10 12  1  0  0  0  0
 10 16  1  0  0  0  0
 11 12  1  0  0  0  0
 11 17  2  0  0  0  0
 12 18  2  0  0  0  0
 13 19  1  0  0  0  0
 13 25  1  0  0  0  0
 14 20  1  0  0  0  0
 14 26  1  0  0  0  0
 15 27  1  0  0  0  0
 15 28  1  0  0  0  0
 15 29  1  0  0  0  0
 16 30  1  0  0  0  0
 16 31  1  0  0  0  0
 16 32  1  0  0  0  0
 17 21  1  0  0  0  0
 17 33  1  0  0  0  0
 18 22  1  0  0  0  0
 18 34  1  0  0  0  0
 19 20  2  0  0  0  0
 19 37  1  0  0  0  0
 20 38  1  0  0  0  0
 21 22  2  0  0  0  0
 21 39  1  0  0  0  0
 22 40  1  0  0  0  0
M  END
> <PUBCHEM_COMPOUND_CID>
12778780

> <PUBCHEM_COMPOUND_CANONICALIZED>
1

> <PUBCHEM_CACTVS_COMPLEXITY>
409

> <PUBCHEM_CACTVS_HBOND_ACCEPTOR>
2

> <PUBCHEM_CACTVS_HBOND_DONOR>
2

> <PUBCHEM_CACTVS_ROTATABLE_BOND>
0

> <PUBCHEM_CACTVS_SUBSKEYS>
AAADceB4MAAAAAAAAAAAAAAAAAAAAAAAAAAwYMGAAAAAAADBVAAAGgAACAAADBSgmAIyAMAAAgCAAiBCAAACAAAgAAAIiAAACIgJNiKAERCAcAAkwAEJmAeAwPAOwAACAAAQAADAAAYAADCAAAAAAAAAAA==

> <PUBCHEM_IUPAC_OPENEYE_NAME>
(5S,6S)-7,12-dimethyl-5,6-dihydrobenzo[a]anthracene-5,6-diol

> <PUBCHEM_IUPAC_CAS_NAME>
(5S,6S)-7,12-dimethyl-5,6-dihydrobenzo[a]anthracene-5,6-diol

> <PUBCHEM_IUPAC_NAME>
(5S,6S)-7,12-dimethyl-5,6-dihydrobenzo[a]anthracene-5,6-diol

> <PUBCHEM_IUPAC_SYSTEMATIC_NAME>
(5S,6S)-7,12-dimethyl-5,6-dihydrobenzo[a]anthracene-5,6-diol

> <PUBCHEM_IUPAC_TRADITIONAL_NAME>
(5S,6S)-7,12-dimethyl-5,6-dihydrobenz[a]anthracene-5,6-diol

> <PUBCHEM_IUPAC_INCHI>
InChI=1S/C20H18O2/c1-11-13-7-3-4-8-14(13)12(2)18-17(11)15-9-5-6-10-16(15)19(21)20(18)22/h3-10,19-22H,1-2H3/t19-,20-/m0/s1

> <PUBCHEM_IUPAC_INCHIKEY>
SGVWCDYKBWRHKJ-PMACEKPBSA-N

> <PUBCHEM_XLOGP3_AA>
3.6

> <PUBCHEM_EXACT_MASS>
290.13068

> <PUBCHEM_MOLECULAR_FORMULA>
C20H18O2

> <PUBCHEM_MOLECULAR_WEIGHT>
290.35572

> <PUBCHEM_OPENEYE_CAN_SMILES>
CC1=C2C(C(C3=CC=CC=C3C2=C(C4=CC=CC=C14)C)O)O

> <PUBCHEM_OPENEYE_ISO_SMILES>
CC1=C2[C@@H]([C@H](C3=CC=CC=C3C2=C(C4=CC=CC=C14)C)O)O

> <PUBCHEM_CACTVS_TPSA>
40.5

> <PUBCHEM_MONOISOTOPIC_WEIGHT>
290.13068

> <PUBCHEM_TOTAL_CHARGE>
0

> <PUBCHEM_HEAVY_ATOM_COUNT>
22

> <PUBCHEM_ATOM_DEF_STEREO_COUNT>
2

> <PUBCHEM_ATOM_UDEF_STEREO_COUNT>
0

> <PUBCHEM_BOND_DEF_STEREO_COUNT>
0

> <PUBCHEM_BOND_UDEF_STEREO_COUNT>
0

> <PUBCHEM_ISOTOPIC_ATOM_COUNT>
0

> <PUBCHEM_COMPONENT_COUNT>
1

> <PUBCHEM_CACTVS_TAUTO_COUNT>
1

> <PUBCHEM_COORDINATE_TYPE>
1
5
255

> <PUBCHEM_BONDANNOTATIONS>
4  1  5
10  12  8
11  12  8
11  17  8
12  18  8
13  19  8
14  20  8
17  21  8
18  22  8
19  20  8
6  2  6
21  22  8
3  5  8
3  9  8
5  10  8
7  13  8
7  8  8
8  14  8
9  11  8

$$$$

