13357
  -OEChem-06261209183D

 20 19  0     1  0  0  0  0  0999 V2000
    1.1297    0.0056   -0.7596 O   0  0  0  0  0  0  0  0  0  0  0  0
    1.0695   -0.2437    1.5330 O   0  0  0  0  0  0  0  0  0  0  0  0
   -0.8652    0.6203    0.3379 C   0  0  2  0  0  0  0  0  0  0  0  0
   -1.7241   -0.2848   -0.5572 C   0  0  0  0  0  0  0  0  0  0  0  0
   -0.7912    2.0358   -0.2277 C   0  0  0  0  0  0  0  0  0  0  0  0
   -1.8324   -1.7058   -0.0190 C   0  0  0  0  0  0  0  0  0  0  0  0
    0.5501    0.0849    0.4742 C   0  0  0  0  0  0  0  0  0  0  0  0
    2.4636   -0.5122   -0.7816 C   0  0  0  0  0  0  0  0  0  0  0  0
   -1.3016    0.6625    1.3434 H   0  0  0  0  0  0  0  0  0  0  0  0
   -2.7330    0.1387   -0.6332 H   0  0  0  0  0  0  0  0  0  0  0  0
   -1.3211   -0.3232   -1.5765 H   0  0  0  0  0  0  0  0  0  0  0  0
   -0.4105    2.0489   -1.2550 H   0  0  0  0  0  0  0  0  0  0  0  0
   -1.7834    2.4990   -0.2339 H   0  0  0  0  0  0  0  0  0  0  0  0
   -0.1296    2.6649    0.3781 H   0  0  0  0  0  0  0  0  0  0  0  0
   -0.8620   -2.2112   -0.0168 H   0  0  0  0  0  0  0  0  0  0  0  0
   -2.5113   -2.2931   -0.6458 H   0  0  0  0  0  0  0  0  0  0  0  0
   -2.2271   -1.7094    1.0020 H   0  0  0  0  0  0  0  0  0  0  0  0
    2.4781   -1.5365   -0.3973 H   0  0  0  0  0  0  0  0  0  0  0  0
    3.1289    0.1302   -0.1971 H   0  0  0  0  0  0  0  0  0  0  0  0
    2.8074   -0.5217   -1.8193 H   0  0  0  0  0  0  0  0  0  0  0  0
  1  7  1  0  0  0  0
  1  8  1  0  0  0  0
  2  7  2  0  0  0  0
  3  4  1  0  0  0  0
  3  5  1  0  0  0  0
  3  7  1  0  0  0  0
  3  9  1  0  0  0  0
  4  6  1  0  0  0  0
  4 10  1  0  0  0  0
  4 11  1  0  0  0  0
  5 12  1  0  0  0  0
  5 13  1  0  0  0  0
  5 14  1  0  0  0  0
  6 15  1  0  0  0  0
  6 16  1  0  0  0  0
  6 17  1  0  0  0  0
  8 18  1  0  0  0  0
  8 19  1  0  0  0  0
  8 20  1  0  0  0  0
M  END
> <PUBCHEM_COMPOUND_CID>
13357

> <PUBCHEM_CONFORMER_RMSD>
0.6

> <PUBCHEM_CONFORMER_DIVERSEORDER>
1
9
11
3
13
2
14
4
5
6
10
7
12
8

> <PUBCHEM_MMFF94_PARTIAL_CHARGES>
5
1 -0.43
2 -0.57
3 0.06
7 0.66
8 0.28

> <PUBCHEM_EFFECTIVE_ROTOR_COUNT>
3

> <PUBCHEM_PHARMACOPHORE_FEATURES>
3
1 2 acceptor
1 5 hydrophobe
1 6 hydrophobe

> <PUBCHEM_HEAVY_ATOM_COUNT>
8

> <PUBCHEM_ATOM_DEF_STEREO_COUNT>
0

> <PUBCHEM_ATOM_UDEF_STEREO_COUNT>
1

> <PUBCHEM_BOND_DEF_STEREO_COUNT>
0

> <PUBCHEM_BOND_UDEF_STEREO_COUNT>
0

> <PUBCHEM_ISOTOPIC_ATOM_COUNT>
0

> <PUBCHEM_COMPONENT_COUNT>
1

> <PUBCHEM_CACTVS_TAUTO_COUNT>
1

> <PUBCHEM_CONFORMER_ID>
0000342D00000001

> <PUBCHEM_MMFF94_ENERGY>
7.9736

> <PUBCHEM_FEATURE_SELFOVERLAP>
15.223

> <PUBCHEM_SHAPE_FINGERPRINT>
12716758 59 18119248612996415978
16714656 1 18337942506426710373
18185500 45 17845672420218751675
20711985 344 18336836380633590597
21040471 1 17905621243066250121
23211744 25 17414712068832855823
24536 1 17532109313216525032
29004967 10 18043528317755573875
5943 1 8109563811617771097

> <PUBCHEM_SHAPE_MULTIPOLES>
152.9
2.71
1.65
1.05
1.08
0.48
0.28
-1.16
-0.68
-1.04
-0.16
0.4
-0.07
0.1

> <PUBCHEM_SHAPE_SELFOVERLAP>
278.717

> <PUBCHEM_SHAPE_VOLUME>
98.8

> <PUBCHEM_COORDINATE_TYPE>
2
5
10

$$$$

