3677
  -OEChem-06251223353D

 29 29  0     0  0  0  0  0  0999 V2000
    3.1107   -0.2518   -0.2944 N   0  0  0  0  0  0  0  0  0  0  0  0
    1.7536   -0.3279    0.2743 C   0  0  0  0  0  0  0  0  0  0  0  0
    0.7476    0.0328   -0.8504 C   0  0  0  0  0  0  0  0  0  0  0  0
    1.6971    0.6616    1.4462 C   0  0  0  0  0  0  0  0  0  0  0  0
    1.5597   -1.7594    0.7927 C   0  0  0  0  0  0  0  0  0  0  0  0
   -0.7122    0.0637   -0.4595 C   0  0  0  0  0  0  0  0  0  0  0  0
    3.3905    1.0961   -0.7519 C   0  0  0  0  0  0  0  0  0  0  0  0
   -1.4673   -1.0924   -0.5687 C   0  0  0  0  0  0  0  0  0  0  0  0
   -1.2656    1.2470    0.0006 C   0  0  0  0  0  0  0  0  0  0  0  0
   -2.8143   -1.0642   -0.2078 C   0  0  0  0  0  0  0  0  0  0  0  0
   -2.6127    1.2751    0.3616 C   0  0  0  0  0  0  0  0  0  0  0  0
   -3.3870    0.1194    0.2574 C   0  0  0  0  0  0  0  0  0  0  0  0
    0.9411    1.0227   -1.2775 H   0  0  0  0  0  0  0  0  0  0  0  0
    0.8672   -0.6644   -1.6927 H   0  0  0  0  0  0  0  0  0  0  0  0
    0.8280    0.4516    2.0821 H   0  0  0  0  0  0  0  0  0  0  0  0
    2.5772    0.5755    2.0957 H   0  0  0  0  0  0  0  0  0  0  0  0
    1.5974    1.7062    1.1342 H   0  0  0  0  0  0  0  0  0  0  0  0
    0.6049   -1.8735    1.3168 H   0  0  0  0  0  0  0  0  0  0  0  0
    2.3478   -2.0340    1.5045 H   0  0  0  0  0  0  0  0  0  0  0  0
    1.5838   -2.4889   -0.0252 H   0  0  0  0  0  0  0  0  0  0  0  0
    3.2000   -0.9027   -1.0743 H   0  0  0  0  0  0  0  0  0  0  0  0
    2.8422    1.3945   -1.6486 H   0  0  0  0  0  0  0  0  0  0  0  0
    4.4437    1.1112   -1.0606 H   0  0  0  0  0  0  0  0  0  0  0  0
    3.3248    1.8746    0.0114 H   0  0  0  0  0  0  0  0  0  0  0  0
   -1.0319   -2.0188   -0.9318 H   0  0  0  0  0  0  0  0  0  0  0  0
   -0.6747    2.1544    0.0830 H   0  0  0  0  0  0  0  0  0  0  0  0
   -3.4173   -1.9638   -0.2894 H   0  0  0  0  0  0  0  0  0  0  0  0
   -3.0590    2.1969    0.7232 H   0  0  0  0  0  0  0  0  0  0  0  0
   -4.4359    0.1414    0.5383 H   0  0  0  0  0  0  0  0  0  0  0  0
  1  2  1  0  0  0  0
  1  7  1  0  0  0  0
  1 21  1  0  0  0  0
  2  3  1  0  0  0  0
  2  4  1  0  0  0  0
  2  5  1  0  0  0  0
  3  6  1  0  0  0  0
  3 13  1  0  0  0  0
  3 14  1  0  0  0  0
  4 15  1  0  0  0  0
  4 16  1  0  0  0  0
  4 17  1  0  0  0  0
  5 18  1  0  0  0  0
  5 19  1  0  0  0  0
  5 20  1  0  0  0  0
  6  8  2  0  0  0  0
  6  9  1  0  0  0  0
  7 22  1  0  0  0  0
  7 23  1  0  0  0  0
  7 24  1  0  0  0  0
  8 10  1  0  0  0  0
  8 25  1  0  0  0  0
  9 11  2  0  0  0  0
  9 26  1  0  0  0  0
 10 12  2  0  0  0  0
 10 27  1  0  0  0  0
 11 12  1  0  0  0  0
 11 28  1  0  0  0  0
 12 29  1  0  0  0  0
M  END
> <PUBCHEM_COMPOUND_CID>
3677

> <PUBCHEM_CONFORMER_RMSD>
0.6

> <PUBCHEM_CONFORMER_DIVERSEORDER>
1
4
5
2
3

> <PUBCHEM_MMFF94_PARTIAL_CHARGES>
16
1 -0.9
10 -0.15
11 -0.15
12 -0.15
2 0.27
21 0.36
25 0.15
26 0.15
27 0.15
28 0.15
29 0.15
3 0.14
6 -0.14
7 0.27
8 -0.15
9 -0.15

> <PUBCHEM_EFFECTIVE_ROTOR_COUNT>
3

> <PUBCHEM_PHARMACOPHORE_FEATURES>
4
1 1 cation
1 1 donor
3 2 4 5 hydrophobe
6 6 8 9 10 11 12 rings

> <PUBCHEM_HEAVY_ATOM_COUNT>
12

> <PUBCHEM_ATOM_DEF_STEREO_COUNT>
0

> <PUBCHEM_ATOM_UDEF_STEREO_COUNT>
0

> <PUBCHEM_BOND_DEF_STEREO_COUNT>
0

> <PUBCHEM_BOND_UDEF_STEREO_COUNT>
0

> <PUBCHEM_ISOTOPIC_ATOM_COUNT>
0

> <PUBCHEM_COMPONENT_COUNT>
1

> <PUBCHEM_CACTVS_TAUTO_COUNT>
1

> <PUBCHEM_CONFORMER_ID>
00000E5D00000001

> <PUBCHEM_MMFF94_ENERGY>
31.5238

> <PUBCHEM_FEATURE_SELFOVERLAP>
20.297

> <PUBCHEM_SHAPE_FINGERPRINT>
10219947 1 17060338505049300526
10857977 72 18261398819264277793
11062470 55 16343705426215197941
12346645 44 18341331119796150964
12932764 1 18041007236535547847
13296908 3 15554170358235265339
13380535 21 18334285509072318503
14144814 61 18410294735152416163
14325111 11 18410008866265984205
15279307 12 18341895198973121435
15669948 3 18261116253234258807
15775835 57 18336260232140121849
16945 1 18337686230028263619
19422 9 18411133653950545806
201361 129 18341044220191356090
20233049 118 17822573918871738216
20645464 45 17240781565554042018
20871998 184 18041274362385602487
21061003 4 15123781898903674213
21730867 7 14405187283126035576
22445834 79 18271810189114590691
23235685 24 17988926647682415530
23236772 104 18272650121529718147
23552423 10 18272093858724669835
3248919 1 18201451288864656515
369184 2 18335149717085727603
7364860 26 18337109089735407758
74978 22 6915971595290491244
8030462 33 18336278893720424815
81228 2 15433171156735400735

> <PUBCHEM_SHAPE_MULTIPOLES>
241.97
5.56
1.5
1.03
0.19
0.21
-0.18
-0.71
0.2
-0.07
-0.16
0.52
-0.06
-0.53

> <PUBCHEM_SHAPE_SELFOVERLAP>
487.858

> <PUBCHEM_SHAPE_VOLUME>
143.2

> <PUBCHEM_COORDINATE_TYPE>
2
5
10

$$$$

