2315
  -OEChem-07051212542D

 41 43  0     1  0  0  0  0  0999 V2000
    4.5981   -1.6802    0.0000 S   0  0  0  0  0  0  0  0  0  0  0  0
    7.9039   -1.9695    0.0000 S   0  0  0  0  0  0  0  0  0  0  0  0
    8.5438    1.3777    0.0000 F   0  0  0  0  0  0  0  0  0  0  0  0
    7.1354    1.2490    0.0000 F   0  0  0  0  0  0  0  0  0  0  0  0
    8.6725   -0.0307    0.0000 F   0  0  0  0  0  0  0  0  0  0  0  0
    4.0981   -2.5462    0.0000 O   0  0  0  0  0  0  0  0  0  0  0  0
    5.0981   -2.5462    0.0000 O   0  0  0  0  0  0  0  0  0  0  0  0
    7.1354   -2.6093    0.0000 O   0  0  0  0  0  0  0  0  0  0  0  0
    8.6725   -1.3297    0.0000 O   0  0  0  0  0  0  0  0  0  0  0  0
    3.7320   -1.1802    0.0000 N   0  0  0  0  0  0  0  0  0  0  0  0
    4.5981    0.3198    0.0000 N   0  0  0  0  0  0  0  0  0  0  0  0
    8.5438   -2.7380    0.0000 N   0  0  0  0  0  0  0  0  0  0  0  0
    3.7320   -0.1802    0.0000 C   0  0  3  0  0  0  0  0  0  0  0  0
    5.4641   -1.1802    0.0000 C   0  0  0  0  0  0  0  0  0  0  0  0
    5.4641   -0.1802    0.0000 C   0  0  0  0  0  0  0  0  0  0  0  0
    2.8660    0.3198    0.0000 C   0  0  0  0  0  0  0  0  0  0  0  0
    6.3580   -1.7148    0.0000 C   0  0  0  0  0  0  0  0  0  0  0  0
    6.3580    0.3545    0.0000 C   0  0  0  0  0  0  0  0  0  0  0  0
    7.2641   -1.2010    0.0000 C   0  0  0  0  0  0  0  0  0  0  0  0
    7.2641   -0.1594    0.0000 C   0  0  0  0  0  0  0  0  0  0  0  0
    2.8660    1.3198    0.0000 C   0  0  0  0  0  0  0  0  0  0  0  0
    7.9039    0.6092    0.0000 C   0  0  0  0  0  0  0  0  0  0  0  0
    3.7320    1.8198    0.0000 C   0  0  0  0  0  0  0  0  0  0  0  0
    2.0000    1.8198    0.0000 C   0  0  0  0  0  0  0  0  0  0  0  0
    3.7320    2.8198    0.0000 C   0  0  0  0  0  0  0  0  0  0  0  0
    2.0000    2.8198    0.0000 C   0  0  0  0  0  0  0  0  0  0  0  0
    2.8660    3.3198    0.0000 C   0  0  0  0  0  0  0  0  0  0  0  0
    3.7320    0.4398    0.0000 H   0  0  0  0  0  0  0  0  0  0  0  0
    3.1951   -1.4902    0.0000 H   0  0  0  0  0  0  0  0  0  0  0  0
    4.5981    0.9398    0.0000 H   0  0  0  0  0  0  0  0  0  0  0  0
    2.2554    0.4275    0.0000 H   0  0  0  0  0  0  0  0  0  0  0  0
    2.6540   -0.2628    0.0000 H   0  0  0  0  0  0  0  0  0  0  0  0
    6.3509   -2.3348    0.0000 H   0  0  0  0  0  0  0  0  0  0  0  0
    6.3509    0.9744    0.0000 H   0  0  0  0  0  0  0  0  0  0  0  0
    4.2690    1.5098    0.0000 H   0  0  0  0  0  0  0  0  0  0  0  0
    1.4631    1.5098    0.0000 H   0  0  0  0  0  0  0  0  0  0  0  0
    8.3295   -3.3198    0.0000 H   0  0  0  0  0  0  0  0  0  0  0  0
    9.1548   -2.6327    0.0000 H   0  0  0  0  0  0  0  0  0  0  0  0
    4.2690    3.1298    0.0000 H   0  0  0  0  0  0  0  0  0  0  0  0
    1.4631    3.1298    0.0000 H   0  0  0  0  0  0  0  0  0  0  0  0
    2.8660    3.9398    0.0000 H   0  0  0  0  0  0  0  0  0  0  0  0
  1  6  2  0  0  0  0
  1  7  2  0  0  0  0
  1 10  1  0  0  0  0
  1 14  1  0  0  0  0
  2  8  2  0  0  0  0
  2  9  2  0  0  0  0
  2 12  1  0  0  0  0
  2 19  1  0  0  0  0
  3 22  1  0  0  0  0
  4 22  1  0  0  0  0
  5 22  1  0  0  0  0
 10 13  1  0  0  0  0
 10 29  1  0  0  0  0
 11 13  1  0  0  0  0
 11 15  1  0  0  0  0
 11 30  1  0  0  0  0
 12 37  1  0  0  0  0
 12 38  1  0  0  0  0
 13 16  1  0  0  0  0
 13 28  1  0  0  0  0
 14 15  2  0  0  0  0
 14 17  1  0  0  0  0
 15 18  1  0  0  0  0
 16 21  1  0  0  0  0
 16 31  1  0  0  0  0
 16 32  1  0  0  0  0
 17 19  2  0  0  0  0
 17 33  1  0  0  0  0
 18 20  2  0  0  0  0
 18 34  1  0  0  0  0
 19 20  1  0  0  0  0
 20 22  1  0  0  0  0
 21 23  2  0  0  0  0
 21 24  1  0  0  0  0
 23 25  1  0  0  0  0
 23 35  1  0  0  0  0
 24 26  2  0  0  0  0
 24 36  1  0  0  0  0
 25 27  2  0  0  0  0
 25 39  1  0  0  0  0
 26 27  1  0  0  0  0
 26 40  1  0  0  0  0
 27 41  1  0  0  0  0
M  END
> <PUBCHEM_COMPOUND_CID>
2315

> <PUBCHEM_COMPOUND_CANONICALIZED>
1

> <PUBCHEM_CACTVS_COMPLEXITY>
740

> <PUBCHEM_CACTVS_HBOND_ACCEPTOR>
10

> <PUBCHEM_CACTVS_HBOND_DONOR>
3

> <PUBCHEM_CACTVS_ROTATABLE_BOND>
3

> <PUBCHEM_CACTVS_SUBSKEYS>
AAADccBzOYBgAAAAAAAAAAAAAAAAAAAAAAA8YIAAAAAAAACxQAAAHQQQQAAADAjBWBQxwYLAAAKAAiRCQHDCABAhAgAIiJwIZIiIICLAkZGEIAhgkALIyCcQgIAOEAQAQEAEAQAgCACAgAgCAAAAAAAAAA==

> <PUBCHEM_IUPAC_OPENEYE_NAME>
3-benzyl-1,1-dioxo-6-(trifluoromethyl)-3,4-dihydro-2H-1$l^{6},2,4-benzothiadiazine-7-sulfonamide

> <PUBCHEM_IUPAC_CAS_NAME>
1,1-dioxo-3-(phenylmethyl)-6-(trifluoromethyl)-3,4-dihydro-2H-1$l^{6},2,4-benzothiadiazine-7-sulfonamide

> <PUBCHEM_IUPAC_NAME>
3-benzyl-1,1-dioxo-6-(trifluoromethyl)-3,4-dihydro-2H-1$l^{6},2,4-benzothiadiazine-7-sulfonamide

> <PUBCHEM_IUPAC_SYSTEMATIC_NAME>
1,1-bis(oxidanylidene)-3-(phenylmethyl)-6-(trifluoromethyl)-3,4-dihydro-2H-1$l^{6},2,4-benzothiadiazine-7-sulfonamide

> <PUBCHEM_IUPAC_TRADITIONAL_NAME>
3-benzyl-1,1-diketo-6-(trifluoromethyl)-3,4-dihydro-2H-1$l^{6},2,4-benzothiadiazine-7-sulfonamide

> <PUBCHEM_IUPAC_INCHI>
InChI=1S/C15H14F3N3O4S2/c16-15(17,18)10-7-11-13(8-12(10)26(19,22)23)27(24,25)21-14(20-11)6-9-4-2-1-3-5-9/h1-5,7-8,14,20-21H,6H2,(H2,19,22,23)

> <PUBCHEM_IUPAC_INCHIKEY>
HDWIHXWEUNVBIY-UHFFFAOYSA-N

> <PUBCHEM_XLOGP3>
1.2

> <PUBCHEM_EXACT_MASS>
421.037783

> <PUBCHEM_MOLECULAR_FORMULA>
C15H14F3N3O4S2

> <PUBCHEM_MOLECULAR_WEIGHT>
421.41457

> <PUBCHEM_OPENEYE_CAN_SMILES>
C1=CC=C(C=C1)CC2NC3=C(C=C(C(=C3)C(F)(F)F)S(=O)(=O)N)S(=O)(=O)N2

> <PUBCHEM_OPENEYE_ISO_SMILES>
C1=CC=C(C=C1)CC2NC3=C(C=C(C(=C3)C(F)(F)F)S(=O)(=O)N)S(=O)(=O)N2

> <PUBCHEM_CACTVS_TPSA>
135

> <PUBCHEM_MONOISOTOPIC_WEIGHT>
421.037783

> <PUBCHEM_TOTAL_CHARGE>
0

> <PUBCHEM_HEAVY_ATOM_COUNT>
27

> <PUBCHEM_ATOM_DEF_STEREO_COUNT>
0

> <PUBCHEM_ATOM_UDEF_STEREO_COUNT>
1

> <PUBCHEM_BOND_DEF_STEREO_COUNT>
0

> <PUBCHEM_BOND_UDEF_STEREO_COUNT>
0

> <PUBCHEM_ISOTOPIC_ATOM_COUNT>
0

> <PUBCHEM_COMPONENT_COUNT>
1

> <PUBCHEM_CACTVS_TAUTO_COUNT>
1

> <PUBCHEM_COORDINATE_TYPE>
1
5
255

> <PUBCHEM_BONDANNOTATIONS>
13  16  3
14  15  8
14  17  8
15  18  8
17  19  8
18  20  8
19  20  8
21  23  8
21  24  8
23  25  8
24  26  8
25  27  8
26  27  8

$$$$

