47205107
  -OEChem-06241222582D

 39 40  0     0  0  0  0  0  0999 V2000
    3.7320   -1.8512    0.0000 O   0  0  0  0  0  0  0  0  0  0  0  0
    5.4641    1.1488    0.0000 O   0  0  0  0  0  0  0  0  0  0  0  0
    7.1962    1.1488    0.0000 N   0  0  0  0  0  0  0  0  0  0  0  0
    8.9757    2.2420    0.0000 N   0  0  0  0  0  0  0  0  0  0  0  0
    9.6448    2.9852    0.0000 N   0  0  0  0  0  0  0  0  0  0  0  0
    5.4641   -0.8512    0.0000 C   0  0  0  0  0  0  0  0  0  0  0  0
    6.3301   -0.3512    0.0000 C   0  0  0  0  0  0  0  0  0  0  0  0
    5.4641   -1.8512    0.0000 C   0  0  0  0  0  0  0  0  0  0  0  0
    4.5981   -2.3512    0.0000 C   0  0  0  0  0  0  0  0  0  0  0  0
    6.3301    0.6488    0.0000 C   0  0  0  0  0  0  0  0  0  0  0  0
    6.3301   -2.3512    0.0000 C   0  0  0  0  0  0  0  0  0  0  0  0
    7.1962    2.1488    0.0000 C   0  0  0  0  0  0  0  0  0  0  0  0
    4.5981   -3.3512    0.0000 C   0  0  0  0  0  0  0  0  0  0  0  0
    8.0622    2.6488    0.0000 C   0  0  0  0  0  0  0  0  0  0  0  0
    6.3301   -3.3512    0.0000 C   0  0  0  0  0  0  0  0  0  0  0  0
    5.4641   -3.8512    0.0000 C   0  0  0  0  0  0  0  0  0  0  0  0
    2.8660   -2.3512    0.0000 C   0  0  0  0  0  0  0  0  0  0  0  0
    8.1667    3.6433    0.0000 C   0  0  0  0  0  0  0  0  0  0  0  0
    9.1448    3.8512    0.0000 C   0  0  0  0  0  0  0  0  0  0  0  0
    2.0000   -1.8512    0.0000 C   0  0  0  0  0  0  0  0  0  0  0  0
    5.2520   -0.2686    0.0000 H   0  0  0  0  0  0  0  0  0  0  0  0
    4.8535   -0.9589    0.0000 H   0  0  0  0  0  0  0  0  0  0  0  0
    6.5422   -0.9338    0.0000 H   0  0  0  0  0  0  0  0  0  0  0  0
    6.9407   -0.2436    0.0000 H   0  0  0  0  0  0  0  0  0  0  0  0
    6.8671   -2.0412    0.0000 H   0  0  0  0  0  0  0  0  0  0  0  0
    6.9841    2.7314    0.0000 H   0  0  0  0  0  0  0  0  0  0  0  0
    6.5856    2.0411    0.0000 H   0  0  0  0  0  0  0  0  0  0  0  0
    7.7331    0.8388    0.0000 H   0  0  0  0  0  0  0  0  0  0  0  0
    4.0611   -3.6612    0.0000 H   0  0  0  0  0  0  0  0  0  0  0  0
    6.8671   -3.6612    0.0000 H   0  0  0  0  0  0  0  0  0  0  0  0
    5.4641   -4.4712    0.0000 H   0  0  0  0  0  0  0  0  0  0  0  0
    2.4675   -2.8262    0.0000 H   0  0  0  0  0  0  0  0  0  0  0  0
    3.2646   -2.8262    0.0000 H   0  0  0  0  0  0  0  0  0  0  0  0
    7.7060    4.0582    0.0000 H   0  0  0  0  0  0  0  0  0  0  0  0
    9.1046    1.6356    0.0000 H   0  0  0  0  0  0  0  0  0  0  0  0
    9.3970    4.4176    0.0000 H   0  0  0  0  0  0  0  0  0  0  0  0
    2.3100   -1.3143    0.0000 H   0  0  0  0  0  0  0  0  0  0  0  0
    1.4631   -1.5412    0.0000 H   0  0  0  0  0  0  0  0  0  0  0  0
    1.6900   -2.3882    0.0000 H   0  0  0  0  0  0  0  0  0  0  0  0
  1  9  1  0  0  0  0
  1 17  1  0  0  0  0
  2 10  2  0  0  0  0
  3 10  1  0  0  0  0
  3 12  1  0  0  0  0
  3 28  1  0  0  0  0
  4  5  1  0  0  0  0
  4 14  1  0  0  0  0
  4 35  1  0  0  0  0
  5 19  2  0  0  0  0
  6  7  1  0  0  0  0
  6  8  1  0  0  0  0
  6 21  1  0  0  0  0
  6 22  1  0  0  0  0
  7 10  1  0  0  0  0
  7 23  1  0  0  0  0
  7 24  1  0  0  0  0
  8  9  1  0  0  0  0
  8 11  2  0  0  0  0
  9 13  2  0  0  0  0
 11 15  1  0  0  0  0
 11 25  1  0  0  0  0
 12 14  1  0  0  0  0
 12 26  1  0  0  0  0
 12 27  1  0  0  0  0
 13 16  1  0  0  0  0
 13 29  1  0  0  0  0
 14 18  2  0  0  0  0
 15 16  2  0  0  0  0
 15 30  1  0  0  0  0
 16 31  1  0  0  0  0
 17 20  1  0  0  0  0
 17 32  1  0  0  0  0
 17 33  1  0  0  0  0
 18 19  1  0  0  0  0
 18 34  1  0  0  0  0
 19 36  1  0  0  0  0
 20 37  1  0  0  0  0
 20 38  1  0  0  0  0
 20 39  1  0  0  0  0
M  END
> <PUBCHEM_COMPOUND_CID>
47205107

> <PUBCHEM_COMPOUND_CANONICALIZED>
1

> <PUBCHEM_CACTVS_COMPLEXITY>
299

> <PUBCHEM_CACTVS_HBOND_ACCEPTOR>
3

> <PUBCHEM_CACTVS_HBOND_DONOR>
2

> <PUBCHEM_CACTVS_ROTATABLE_BOND>
7

> <PUBCHEM_CACTVS_SUBSKEYS>
AAADceBzMAAAAAAAAAAAAAAAAAAAAWAAAAAwAAAAAAAAAAABwAAAHgAYAAAADAzhngY+hpLjBACqAzV3UACSDAAgogAYuaE+bJgMZrKE8duWvCjk3hGI6AeY3KLOAAAAAAAIAAAAAAAAABAAAAAAAAAAAA==

> <PUBCHEM_IUPAC_OPENEYE_NAME>
3-(2-ethoxyphenyl)-N-(1H-pyrazol-5-ylmethyl)propanamide

> <PUBCHEM_IUPAC_CAS_NAME>
3-(2-ethoxyphenyl)-N-(1H-pyrazol-5-ylmethyl)propanamide

> <PUBCHEM_IUPAC_NAME>
3-(2-ethoxyphenyl)-N-(1H-pyrazol-5-ylmethyl)propanamide

> <PUBCHEM_IUPAC_SYSTEMATIC_NAME>
3-(2-ethoxyphenyl)-N-(1H-pyrazol-5-ylmethyl)propanamide

> <PUBCHEM_IUPAC_TRADITIONAL_NAME>
3-o-phenetyl-N-(1H-pyrazol-5-ylmethyl)propionamide

> <PUBCHEM_IUPAC_INCHI>
InChI=1S/C15H19N3O2/c1-2-20-14-6-4-3-5-12(14)7-8-15(19)16-11-13-9-10-17-18-13/h3-6,9-10H,2,7-8,11H2,1H3,(H,16,19)(H,17,18)

> <PUBCHEM_IUPAC_INCHIKEY>
QXSBFLUVDASXJI-UHFFFAOYSA-N

> <PUBCHEM_XLOGP3_AA>
1.6

> <PUBCHEM_EXACT_MASS>
273.147727

> <PUBCHEM_MOLECULAR_FORMULA>
C15H19N3O2

> <PUBCHEM_MOLECULAR_WEIGHT>
273.33026

> <PUBCHEM_OPENEYE_CAN_SMILES>
CCOC1=CC=CC=C1CCC(=O)NCC2=CC=NN2

> <PUBCHEM_OPENEYE_ISO_SMILES>
CCOC1=CC=CC=C1CCC(=O)NCC2=CC=NN2

> <PUBCHEM_CACTVS_TPSA>
67

> <PUBCHEM_MONOISOTOPIC_WEIGHT>
273.147727

> <PUBCHEM_TOTAL_CHARGE>
0

> <PUBCHEM_HEAVY_ATOM_COUNT>
20

> <PUBCHEM_ATOM_DEF_STEREO_COUNT>
0

> <PUBCHEM_ATOM_UDEF_STEREO_COUNT>
0

> <PUBCHEM_BOND_DEF_STEREO_COUNT>
0

> <PUBCHEM_BOND_UDEF_STEREO_COUNT>
0

> <PUBCHEM_ISOTOPIC_ATOM_COUNT>
0

> <PUBCHEM_COMPONENT_COUNT>
1

> <PUBCHEM_CACTVS_TAUTO_COUNT>
4

> <PUBCHEM_COORDINATE_TYPE>
1
5
255

> <PUBCHEM_BONDANNOTATIONS>
11  15  8
13  16  8
14  18  8
15  16  8
18  19  8
4  14  8
4  5  8
5  19  8
8  11  8
8  9  8
9  13  8

$$$$

