23682187
  -OEChem-07051213122D

 32 32  0     0  0  0  0  0  0999 V2000
    9.7942    0.5000    0.0000 Cl  0  0  0  0  0  0  0  0  0  0  0  0
    6.3301    0.5000    0.0000 S   0  0  0  0  0  0  0  0  0  0  0  0
    8.9282    3.0000    0.0000 Na  0  3  0  0  0  0  0  0  0  0  0  0
    4.5981   -2.5000    0.0000 O   0  0  0  0  0  0  0  0  0  0  0  0
    2.8660    0.5000    0.0000 O   0  0  0  0  0  0  0  0  0  0  0  0
    8.9282    2.0000    0.0000 O   0  5  0  0  0  0  0  0  0  0  0  0
    7.1962    2.0000    0.0000 O   0  0  0  0  0  0  0  0  0  0  0  0
    5.4641   -1.0000    0.0000 N   0  0  0  0  0  0  0  0  0  0  0  0
    4.5981    0.5000    0.0000 N   0  0  0  0  0  0  0  0  0  0  0  0
    7.1962    0.0000    0.0000 C   0  0  0  0  0  0  0  0  0  0  0  0
    8.0622    0.5000    0.0000 C   0  0  0  0  0  0  0  0  0  0  0  0
    7.1962   -1.0000    0.0000 C   0  0  0  0  0  0  0  0  0  0  0  0
    8.9282    0.0000    0.0000 C   0  0  0  0  0  0  0  0  0  0  0  0
    8.0622   -1.5000    0.0000 C   0  0  0  0  0  0  0  0  0  0  0  0
    8.9282   -1.0000    0.0000 C   0  0  0  0  0  0  0  0  0  0  0  0
    5.4641    0.0000    0.0000 C   0  0  0  0  0  0  0  0  0  0  0  0
    4.5981   -1.5000    0.0000 C   0  0  0  0  0  0  0  0  0  0  0  0
    3.7320    0.0000    0.0000 C   0  0  0  0  0  0  0  0  0  0  0  0
    3.7320   -1.0000    0.0000 C   0  0  0  0  0  0  0  0  0  0  0  0
    8.0622    1.5000    0.0000 C   0  0  0  0  0  0  0  0  0  0  0  0
    3.7320   -3.0000    0.0000 C   0  0  0  0  0  0  0  0  0  0  0  0
    2.0000    0.0000    0.0000 C   0  0  0  0  0  0  0  0  0  0  0  0
    6.6592   -1.3100    0.0000 H   0  0  0  0  0  0  0  0  0  0  0  0
    8.0622   -2.1200    0.0000 H   0  0  0  0  0  0  0  0  0  0  0  0
    9.4651   -1.3100    0.0000 H   0  0  0  0  0  0  0  0  0  0  0  0
    3.1951   -1.3100    0.0000 H   0  0  0  0  0  0  0  0  0  0  0  0
    3.4220   -2.4631    0.0000 H   0  0  0  0  0  0  0  0  0  0  0  0
    3.1951   -3.3100    0.0000 H   0  0  0  0  0  0  0  0  0  0  0  0
    4.0420   -3.5369    0.0000 H   0  0  0  0  0  0  0  0  0  0  0  0
    1.6900    0.5369    0.0000 H   0  0  0  0  0  0  0  0  0  0  0  0
    1.4631   -0.3100    0.0000 H   0  0  0  0  0  0  0  0  0  0  0  0
    2.3100   -0.5369    0.0000 H   0  0  0  0  0  0  0  0  0  0  0  0
  1 13  1  0  0  0  0
  2 10  1  0  0  0  0
  2 16  1  0  0  0  0
  4 17  1  0  0  0  0
  4 21  1  0  0  0  0
  5 18  1  0  0  0  0
  5 22  1  0  0  0  0
  6 20  1  0  0  0  0
  7 20  2  0  0  0  0
  8 16  1  0  0  0  0
  8 17  2  0  0  0  0
  9 16  2  0  0  0  0
  9 18  1  0  0  0  0
 10 11  2  0  0  0  0
 10 12  1  0  0  0  0
 11 13  1  0  0  0  0
 11 20  1  0  0  0  0
 12 14  2  0  0  0  0
 12 23  1  0  0  0  0
 13 15  2  0  0  0  0
 14 15  1  0  0  0  0
 14 24  1  0  0  0  0
 15 25  1  0  0  0  0
 17 19  1  0  0  0  0
 18 19  2  0  0  0  0
 19 26  1  0  0  0  0
 21 27  1  0  0  0  0
 21 28  1  0  0  0  0
 21 29  1  0  0  0  0
 22 30  1  0  0  0  0
 22 31  1  0  0  0  0
 22 32  1  0  0  0  0
M  CHG  2   3   1   6  -1
M  END
> <PUBCHEM_COMPOUND_CID>
23682187

> <PUBCHEM_COMPOUND_CANONICALIZED>
1

> <PUBCHEM_CACTVS_COMPLEXITY>
357

> <PUBCHEM_CACTVS_HBOND_ACCEPTOR>
7

> <PUBCHEM_CACTVS_HBOND_DONOR>
0

> <PUBCHEM_CACTVS_ROTATABLE_BOND>
5

> <PUBCHEM_CACTVS_SUBSKEYS>
AAADccBzOCBEAAAAAAAAAAAAAAAAAAAAAAA8QAAAAAAAAAABwAAAHgYAAAAADAKB2iIznZYIFAioAiDybACC2CllL7AJmDk2btiMLzLlf1iENSgvwA9IrSeIyCCOAAAAABAFAAAAAAAAIAoAAAAAAAAAAA==

> <PUBCHEM_IUPAC_OPENEYE_NAME>
sodium 2-chloro-6-(4,6-dimethoxypyrimidin-2-yl)sulfanyl-benzoate

> <PUBCHEM_IUPAC_CAS_NAME>
sodium 2-chloro-6-[(4,6-dimethoxy-2-pyrimidinyl)thio]benzoate

> <PUBCHEM_IUPAC_NAME>
sodium 2-chloro-6-(4,6-dimethoxypyrimidin-2-yl)sulfanylbenzoate

> <PUBCHEM_IUPAC_SYSTEMATIC_NAME>
sodium 2-chloranyl-6-(4,6-dimethoxypyrimidin-2-yl)sulfanyl-benzoate

> <PUBCHEM_IUPAC_TRADITIONAL_NAME>
sodium 2-chloro-6-[(4,6-dimethoxypyrimidin-2-yl)thio]benzoate

> <PUBCHEM_IUPAC_INCHI>
InChI=1S/C13H11ClN2O4S.Na/c1-19-9-6-10(20-2)16-13(15-9)21-8-5-3-4-7(14)11(8)12(17)18;/h3-6H,1-2H3,(H,17,18);/q;+1/p-1

> <PUBCHEM_IUPAC_INCHIKEY>
CNILNQMBAHKMFS-UHFFFAOYSA-M

> <PUBCHEM_EXACT_MASS>
347.99475

> <PUBCHEM_MOLECULAR_FORMULA>
C13H10ClN2NaO4S

> <PUBCHEM_MOLECULAR_WEIGHT>
348.737269

> <PUBCHEM_OPENEYE_CAN_SMILES>
COC1=CC(=NC(=N1)SC2=C(C(=CC=C2)Cl)C(=O)[O-])OC.[Na+]

> <PUBCHEM_OPENEYE_ISO_SMILES>
COC1=CC(=NC(=N1)SC2=C(C(=CC=C2)Cl)C(=O)[O-])OC.[Na+]

> <PUBCHEM_CACTVS_TPSA>
110

> <PUBCHEM_MONOISOTOPIC_WEIGHT>
347.99475

> <PUBCHEM_TOTAL_CHARGE>
0

> <PUBCHEM_HEAVY_ATOM_COUNT>
22

> <PUBCHEM_ATOM_DEF_STEREO_COUNT>
0

> <PUBCHEM_ATOM_UDEF_STEREO_COUNT>
0

> <PUBCHEM_BOND_DEF_STEREO_COUNT>
0

> <PUBCHEM_BOND_UDEF_STEREO_COUNT>
0

> <PUBCHEM_ISOTOPIC_ATOM_COUNT>
0

> <PUBCHEM_COMPONENT_COUNT>
2

> <PUBCHEM_CACTVS_TAUTO_COUNT>
1

> <PUBCHEM_NONSTANDARDBOND>
3  6  7

> <PUBCHEM_COORDINATE_TYPE>
1
5
255

> <PUBCHEM_BONDANNOTATIONS>
10  11  8
10  12  8
11  13  8
12  14  8
13  15  8
14  15  8
17  19  8
18  19  8
8  16  8
8  17  8
9  16  8
9  18  8

$$$$

