47205666
  -OEChem-06241222593D

 38 38  0     0  0  0  0  0  0999 V2000
   -3.4023   -0.9114    1.2179 O   0  0  0  0  0  0  0  0  0  0  0  0
   -0.8520    1.0569   -0.5129 O   0  0  0  0  0  0  0  0  0  0  0  0
    0.7396   -0.6697   -0.5814 N   0  0  0  0  0  0  0  0  0  0  0  0
   -2.8853   -0.6346   -1.0282 N   0  0  0  0  0  0  0  0  0  0  0  0
    4.3515   -0.0412   -0.0124 C   0  0  0  0  0  0  0  0  0  0  0  0
   -5.0418    0.0938   -0.2529 C   0  0  0  0  0  0  0  0  0  0  0  0
   -5.9581    0.2086    0.9618 C   0  0  0  0  0  0  0  0  0  0  0  0
    1.9550    0.0048   -0.3158 C   0  0  0  0  0  0  0  0  0  0  0  0
    5.6332   -0.8021    0.0320 C   0  0  0  0  0  0  0  0  0  0  0  0
    3.1540   -0.7069   -0.2744 C   0  0  0  0  0  0  0  0  0  0  0  0
   -1.5586   -1.2001   -0.9642 C   0  0  0  0  0  0  0  0  0  0  0  0
   -3.7042   -0.5384    0.0874 C   0  0  0  0  0  0  0  0  0  0  0  0
    4.3501    1.3362    0.2079 C   0  0  0  0  0  0  0  0  0  0  0  0
    1.9536    1.3823   -0.0954 C   0  0  0  0  0  0  0  0  0  0  0  0
   -0.5371   -0.1196   -0.6588 C   0  0  0  0  0  0  0  0  0  0  0  0
    3.1513    2.0479    0.1662 C   0  0  0  0  0  0  0  0  0  0  0  0
   -7.3023    0.8134    0.5912 C   0  0  0  0  0  0  0  0  0  0  0  0
    5.9533   -1.3200    1.4320 C   0  0  0  0  0  0  0  0  0  0  0  0
   -5.5209   -0.5175   -1.0271 H   0  0  0  0  0  0  0  0  0  0  0  0
   -4.8544    1.0879   -0.6760 H   0  0  0  0  0  0  0  0  0  0  0  0
   -5.4816    0.8270    1.7319 H   0  0  0  0  0  0  0  0  0  0  0  0
   -6.1184   -0.7815    1.4050 H   0  0  0  0  0  0  0  0  0  0  0  0
    6.4573   -0.1680   -0.3183 H   0  0  0  0  0  0  0  0  0  0  0  0
    5.5923   -1.6463   -0.6677 H   0  0  0  0  0  0  0  0  0  0  0  0
    3.1555   -1.7812   -0.4444 H   0  0  0  0  0  0  0  0  0  0  0  0
   -1.3376   -1.6457   -1.9389 H   0  0  0  0  0  0  0  0  0  0  0  0
   -1.5196   -1.9728   -0.1896 H   0  0  0  0  0  0  0  0  0  0  0  0
    5.2761    1.8662    0.4147 H   0  0  0  0  0  0  0  0  0  0  0  0
    0.8275   -1.6727   -0.7309 H   0  0  0  0  0  0  0  0  0  0  0  0
   -3.2133   -0.2817   -1.9227 H   0  0  0  0  0  0  0  0  0  0  0  0
    1.0678    2.0013   -0.1108 H   0  0  0  0  0  0  0  0  0  0  0  0
    3.1515    3.1204    0.3383 H   0  0  0  0  0  0  0  0  0  0  0  0
   -7.8192    0.1962   -0.1505 H   0  0  0  0  0  0  0  0  0  0  0  0
   -7.9417    0.8875    1.4764 H   0  0  0  0  0  0  0  0  0  0  0  0
   -7.1789    1.8189    0.1762 H   0  0  0  0  0  0  0  0  0  0  0  0
    6.0460   -0.4960    2.1475 H   0  0  0  0  0  0  0  0  0  0  0  0
    6.8988   -1.8714    1.4236 H   0  0  0  0  0  0  0  0  0  0  0  0
    5.1693   -1.9938    1.7937 H   0  0  0  0  0  0  0  0  0  0  0  0
  1 12  2  0  0  0  0
  2 15  2  0  0  0  0
  3  8  1  0  0  0  0
  3 15  1  0  0  0  0
  3 29  1  0  0  0  0
  4 11  1  0  0  0  0
  4 12  1  0  0  0  0
  4 30  1  0  0  0  0
  5  9  1  0  0  0  0
  5 10  2  0  0  0  0
  5 13  1  0  0  0  0
  6  7  1  0  0  0  0
  6 12  1  0  0  0  0
  6 19  1  0  0  0  0
  6 20  1  0  0  0  0
  7 17  1  0  0  0  0
  7 21  1  0  0  0  0
  7 22  1  0  0  0  0
  8 10  1  0  0  0  0
  8 14  2  0  0  0  0
  9 18  1  0  0  0  0
  9 23  1  0  0  0  0
  9 24  1  0  0  0  0
 10 25  1  0  0  0  0
 11 15  1  0  0  0  0
 11 26  1  0  0  0  0
 11 27  1  0  0  0  0
 13 16  2  0  0  0  0
 13 28  1  0  0  0  0
 14 16  1  0  0  0  0
 14 31  1  0  0  0  0
 16 32  1  0  0  0  0
 17 33  1  0  0  0  0
 17 34  1  0  0  0  0
 17 35  1  0  0  0  0
 18 36  1  0  0  0  0
 18 37  1  0  0  0  0
 18 38  1  0  0  0  0
M  END
> <PUBCHEM_COMPOUND_CID>
47205666

> <PUBCHEM_CONFORMER_RMSD>
0.8

> <PUBCHEM_CONFORMER_DIVERSEORDER>
1
72
183
187
177
84
98
198
131
126
182
146
150
65
35
108
186
63
191
30
127
115
123
107
195
71
142
118
160
117
156
122
167
90
61
163
181
110
76
68
174
59
92
178
50
73
173
180
106
119
153
166
42
133
58
162
193
55
88
194
109
32
171
51
179
40
184
157
152
124
89
33
196
29
149
74
52
140
86
144
70
45
93
13
176
120
102
79
197
9
170
116
138
128
148
154
159
12
60
53
129
103
83
132
151
87
185
6
22
165
136
5
91
36
147
75
199
141
66
44
41
20
135
161
31
2
114
175
62
190
143
28
188
192
18
85
56
169
19
64
3
97
25
49
78
16
94
105
134
23
139
112
113
48
4
54
158
125
8
100
38
137
172
155
47
69
130
95
104
101
80
17
67
11
99
27
96
168
7
57
10
26
189
82
145
111
81
164
24
39
14
43
34
15
21
121
46
77
37

> <PUBCHEM_MMFF94_PARTIAL_CHARGES>
21
1 -0.57
10 -0.15
11 0.36
12 0.57
13 -0.15
14 -0.15
15 0.57
16 -0.15
2 -0.57
25 0.15
28 0.15
29 0.37
3 -0.55
30 0.37
31 0.15
32 0.15
4 -0.73
5 -0.14
6 0.06
8 0.12
9 0.14

> <PUBCHEM_EFFECTIVE_ROTOR_COUNT>
8

> <PUBCHEM_PHARMACOPHORE_FEATURES>
7
1 1 acceptor
1 17 hydrophobe
1 18 hydrophobe
1 2 acceptor
1 3 donor
1 4 donor
6 5 8 10 13 14 16 rings

> <PUBCHEM_HEAVY_ATOM_COUNT>
18

> <PUBCHEM_ATOM_DEF_STEREO_COUNT>
0

> <PUBCHEM_ATOM_UDEF_STEREO_COUNT>
0

> <PUBCHEM_BOND_DEF_STEREO_COUNT>
0

> <PUBCHEM_BOND_UDEF_STEREO_COUNT>
0

> <PUBCHEM_ISOTOPIC_ATOM_COUNT>
0

> <PUBCHEM_COMPONENT_COUNT>
1

> <PUBCHEM_CACTVS_TAUTO_COUNT>
4

> <PUBCHEM_CONFORMER_ID>
02D04D2200000001

> <PUBCHEM_MMFF94_ENERGY>
35.0803

> <PUBCHEM_FEATURE_SELFOVERLAP>
35.52

> <PUBCHEM_SHAPE_FINGERPRINT>
10693767 8 11599185274261132536
11089746 13 17530970176705681545
11405975 8 18339083687753501586
11458722 120 18260550021798949670
11638347 137 18060695092681606291
117890 112 16732980938149968619
12236239 1 17822294561007715399
12596602 18 18271519811166353273
12616971 3 18261115144974233117
12714333 28 14129058127802319567
13167372 99 18187361056303675817
13533116 47 18059860609614567858
1420 363 14908179750603256083
14251718 22 8430314636716100693
14251764 18 18334297535027960317
14341114 176 17989205932167991052
14350574 20 11167936949048036423
14617045 38 16056880251466930003
15348495 7 18129656401191884577
15475509 35 17203065062111905952
15501527 24 10303813181134681607
15527383 91 18412544305989026588
15537594 2 13758077359735379097
19489759 90 15285354016188251047
20281389 69 18335139787211503873
20621476 21 16128366095105502843
21150785 3 7637393030368408763
21267235 1 18340487872410043414
212847 35 17894348852347726416
21344244 181 15123505965120695312
2297311 6 15626225740697501543
23035841 295 15769776861795863267
23081809 10 18334861567376470103
23402539 116 16805609157590806517
23503953 91 17894636916031096478
26918003 58 18341611503561193611
2767999 5 16950561099779857377
2838139 119 18187368753460232325
300161 21 16081091488989207255
312425 54 17988925535423147075
33382 64 16845298284553050018
351380 3 13614242564230335867
4072396 5 17603868914244744614
5104073 3 18263371295695563642
5207 217 8646762300994996045

> <PUBCHEM_SHAPE_MULTIPOLES>
348.73
17.04
1.5
1.03
16.61
0.53
-0.2
0
-6.57
-1.58
-0.08
0.17
-0.28
-0.81

> <PUBCHEM_SHAPE_SELFOVERLAP>
700.239

> <PUBCHEM_SHAPE_VOLUME>
204.2

> <PUBCHEM_COORDINATE_TYPE>
2
5
10

$$$$

