17396360
  -OEChem-06241222563D

 37 38  0     0  0  0  0  0  0999 V2000
    5.0843    2.4305    0.5288 Br  0  0  0  0  0  0  0  0  0  0  0  0
    3.0543    0.3844   -0.6805 O   0  0  0  0  0  0  0  0  0  0  0  0
    0.8514    1.7405   -0.3577 O   0  0  0  0  0  0  0  0  0  0  0  0
   -5.2872   -2.0096   -0.5604 O   0  0  0  0  0  0  0  0  0  0  0  0
   -0.5210   -0.1750   -0.3839 N   0  0  0  0  0  0  0  0  0  0  0  0
   -6.4597   -0.4741    0.7218 N   0  0  0  0  0  0  0  0  0  0  0  0
   -1.8076    0.3389   -0.2189 C   0  0  0  0  0  0  0  0  0  0  0  0
   -4.1906   -0.0076   -0.0238 C   0  0  0  0  0  0  0  0  0  0  0  0
   -2.9046   -0.5221   -0.1882 C   0  0  0  0  0  0  0  0  0  0  0  0
   -1.9968    1.7144   -0.0848 C   0  0  0  0  0  0  0  0  0  0  0  0
   -4.3796    1.3679    0.1102 C   0  0  0  0  0  0  0  0  0  0  0  0
   -3.2827    2.2289    0.0797 C   0  0  0  0  0  0  0  0  0  0  0  0
    1.8766   -0.3940   -0.6289 C   0  0  0  0  0  0  0  0  0  0  0  0
    0.6907    0.5265   -0.4390 C   0  0  0  0  0  0  0  0  0  0  0  0
   -5.3346   -0.9047    0.0089 C   0  0  0  0  0  0  0  0  0  0  0  0
    4.2141   -0.2031   -0.2342 C   0  0  0  0  0  0  0  0  0  0  0  0
    5.2388    0.5512    0.3373 C   0  0  0  0  0  0  0  0  0  0  0  0
    4.3538   -1.5850   -0.3631 C   0  0  0  0  0  0  0  0  0  0  0  0
    6.4032   -0.0765    0.7799 C   0  0  0  0  0  0  0  0  0  0  0  0
    5.5181   -2.2126    0.0797 C   0  0  0  0  0  0  0  0  0  0  0  0
    6.5428   -1.4583    0.6512 C   0  0  0  0  0  0  0  0  0  0  0  0
   -7.6636   -1.2607    0.8659 C   0  0  0  0  0  0  0  0  0  0  0  0
   -2.7500   -1.5943   -0.2886 H   0  0  0  0  0  0  0  0  0  0  0  0
   -1.1986    2.4433   -0.0998 H   0  0  0  0  0  0  0  0  0  0  0  0
   -0.4655   -1.1874   -0.4740 H   0  0  0  0  0  0  0  0  0  0  0  0
   -5.3652    1.8130    0.2093 H   0  0  0  0  0  0  0  0  0  0  0  0
    1.7496   -0.9406   -1.5700 H   0  0  0  0  0  0  0  0  0  0  0  0
    1.8705   -1.0869    0.2227 H   0  0  0  0  0  0  0  0  0  0  0  0
   -3.4313    3.3006    0.1771 H   0  0  0  0  0  0  0  0  0  0  0  0
    3.5962   -2.2082   -0.8287 H   0  0  0  0  0  0  0  0  0  0  0  0
   -6.4272    0.3935    1.2462 H   0  0  0  0  0  0  0  0  0  0  0  0
    7.2123    0.4951    1.2274 H   0  0  0  0  0  0  0  0  0  0  0  0
    5.6305   -3.2877   -0.0266 H   0  0  0  0  0  0  0  0  0  0  0  0
    7.4500   -1.9469    0.9943 H   0  0  0  0  0  0  0  0  0  0  0  0
   -7.8027   -1.9107   -0.0015 H   0  0  0  0  0  0  0  0  0  0  0  0
   -7.5700   -1.8691    1.7688 H   0  0  0  0  0  0  0  0  0  0  0  0
   -8.5126   -0.5806    0.9656 H   0  0  0  0  0  0  0  0  0  0  0  0
  1 17  1  0  0  0  0
  2 13  1  0  0  0  0
  2 16  1  0  0  0  0
  3 14  2  0  0  0  0
  4 15  2  0  0  0  0
  5  7  1  0  0  0  0
  5 14  1  0  0  0  0
  5 25  1  0  0  0  0
  6 15  1  0  0  0  0
  6 22  1  0  0  0  0
  6 31  1  0  0  0  0
  7  9  1  0  0  0  0
  7 10  2  0  0  0  0
  8  9  2  0  0  0  0
  8 11  1  0  0  0  0
  8 15  1  0  0  0  0
  9 23  1  0  0  0  0
 10 12  1  0  0  0  0
 10 24  1  0  0  0  0
 11 12  2  0  0  0  0
 11 26  1  0  0  0  0
 12 29  1  0  0  0  0
 13 14  1  0  0  0  0
 13 27  1  0  0  0  0
 13 28  1  0  0  0  0
 16 17  1  0  0  0  0
 16 18  2  0  0  0  0
 17 19  2  0  0  0  0
 18 20  1  0  0  0  0
 18 30  1  0  0  0  0
 19 21  1  0  0  0  0
 19 32  1  0  0  0  0
 20 21  2  0  0  0  0
 20 33  1  0  0  0  0
 21 34  1  0  0  0  0
 22 35  1  0  0  0  0
 22 36  1  0  0  0  0
 22 37  1  0  0  0  0
M  END
> <PUBCHEM_COMPOUND_CID>
17396360

> <PUBCHEM_CONFORMER_RMSD>
1

> <PUBCHEM_CONFORMER_DIVERSEORDER>
3
119
65
74
56
88
9
103
36
77
83
86
76
142
138
2
67
42
63
104
64
129
120
60
116
24
124
115
30
121
62
31
70
135
27
111
131
49
133
51
57
108
123
26
73
128
33
66
90
48
122
69
58
18
97
47
126
40
34
96
139
130
13
7
80
17
117
82
98
105
28
118
32
114
45
112
127
106
94
25
132
1
68
99
72
79
102
6
37
52
19
16
55
50
75
136
110
5
109
39
91
125
53
107
71
44
43
93
11
20
141
92
23
12
113
35
38
46
101
95
14
84
15
61
8
100
22
21
87
29
78
140
85
89
59
134
137
41
54
81
10
4

> <PUBCHEM_MMFF94_PARTIAL_CHARGES>
32
1 -0.11
10 -0.15
11 -0.15
12 -0.15
13 0.34
14 0.57
15 0.54
16 0.08
17 0.11
18 -0.15
19 -0.15
2 -0.36
20 -0.15
21 -0.15
22 0.3
23 0.15
24 0.15
25 0.37
26 0.15
29 0.15
3 -0.57
30 0.15
31 0.37
32 0.15
33 0.15
34 0.15
4 -0.57
5 -0.55
6 -0.73
7 0.12
8 0.09
9 -0.15

> <PUBCHEM_EFFECTIVE_ROTOR_COUNT>
7

> <PUBCHEM_PHARMACOPHORE_FEATURES>
8
1 1 hydrophobe
1 2 acceptor
1 3 acceptor
1 4 acceptor
1 5 donor
1 6 donor
6 16 17 18 19 20 21 rings
6 7 8 9 10 11 12 rings

> <PUBCHEM_HEAVY_ATOM_COUNT>
22

> <PUBCHEM_ATOM_DEF_STEREO_COUNT>
0

> <PUBCHEM_ATOM_UDEF_STEREO_COUNT>
0

> <PUBCHEM_BOND_DEF_STEREO_COUNT>
0

> <PUBCHEM_BOND_UDEF_STEREO_COUNT>
0

> <PUBCHEM_ISOTOPIC_ATOM_COUNT>
0

> <PUBCHEM_COMPONENT_COUNT>
1

> <PUBCHEM_CACTVS_TAUTO_COUNT>
4

> <PUBCHEM_CONFORMER_ID>
0109728800000003

> <PUBCHEM_MMFF94_ENERGY>
66.4289

> <PUBCHEM_FEATURE_SELFOVERLAP>
40.606

> <PUBCHEM_SHAPE_FINGERPRINT>
10 15 17894633638849509318
11315181 36 18343300383766017813
11524674 6 16660645146580921991
11724838 91 18187092715790156188
11991303 11 13829839185208512121
12107183 9 17543911664829881600
12166972 35 18343579638334677628
12236239 1 18130785680779241316
12516196 113 18409449193784209240
12596602 18 18335140920913623704
12616971 3 17603597322177991684
13073987 5 18408323319568166112
13533116 47 18411699864211315256
13668630 136 16917066659471877163
13685833 64 18343018891292725475
13885169 127 18273216435223565909
13914758 101 17060344058832553981
14211702 104 18343292669746700667
14251732 16 18336266760553896976
14251764 18 18334293162693250044
14341114 176 18259985985677907280
14848160 23 18273218603269173972
15048467 5 7637399622985140827
15188451 53 18202284710083229886
15419008 91 17702684176101942613
15716309 27 18408322177191098851
17844677 252 18408599292765746960
17857418 61 18343303682005462942
1813 80 17346880065991007868
18222031 100 16559029398548503244
190975 80 18261110721479918123
21130935 74 18335979852317320411
21150785 3 15410888548629075438
21197605 99 18409165485572964326
21267235 1 18410006663580835622
21315763 129 18410014377284375588
21315764 268 18412269423945832124
21792934 111 18409449185780194561
22061861 79 13901905631100221890
2215653 11 12679461984530433124
22224240 67 16443064993857173423
23081809 10 17846207895556621964
23198884 109 10735881668907011191
23402539 116 18342178890474353269
23522609 53 18123997270700453965
23559900 14 18339651027743949489
23569943 247 17414724468847260522
239999 70 18114457955589329126
3383291 50 17988920042508674707
34797466 226 17604139351377538012
3663271 9 18333731347001533584
4073 2 18201716220286973258
4214541 1 18337954596675518964
465052 167 18334294306051499366
5104073 3 18260829332086159728
5283156 175 18201999937252091891
559249 180 18272370914796860701
7495541 125 17822017488678477352

> <PUBCHEM_SHAPE_MULTIPOLES>
431.12
20.87
2.31
0.81
6.83
0.57
-0.07
-8.81
-5.97
-1.21
-0.15
-0.08
-0.06
0.44

> <PUBCHEM_SHAPE_SELFOVERLAP>
898.658

> <PUBCHEM_SHAPE_VOLUME>
249.2

> <PUBCHEM_COORDINATE_TYPE>
2
5
10

$$$$

