71988
  -OEChem-07051213023D

 53 55  0     0  0  0  0  0  0999 V2000
    1.2558   -2.0502    1.6321 O   0  0  0  0  0  0  0  0  0  0  0  0
   -3.2403   -0.1396    0.1406 N   0  0  0  0  0  0  0  0  0  0  0  0
    2.7595    1.1225    1.4501 N   0  0  0  0  0  0  0  0  0  0  0  0
    2.1054    2.2520   -0.5082 N   0  0  0  0  0  0  0  0  0  0  0  0
    2.8660    0.2225   -0.7874 N   0  0  0  0  0  0  0  0  0  0  0  0
    2.0285    2.0750   -1.8359 N   0  0  0  0  0  0  0  0  0  0  0  0
    2.6390    0.1432   -3.1155 N   0  0  0  0  0  0  0  0  0  0  0  0
   -2.4788    0.8885   -0.5827 C   0  0  0  0  0  0  0  0  0  0  0  0
   -4.6601    0.2255    0.2443 C   0  0  0  0  0  0  0  0  0  0  0  0
   -2.5828    2.2453    0.1156 C   0  0  0  0  0  0  0  0  0  0  0  0
   -4.8353    1.5606    0.9696 C   0  0  0  0  0  0  0  0  0  0  0  0
   -4.0366    2.6684    0.2922 C   0  0  0  0  0  0  0  0  0  0  0  0
   -3.0926   -1.4399   -0.5126 C   0  0  0  0  0  0  0  0  0  0  0  0
   -1.6546   -1.8834   -0.5606 C   0  0  0  0  0  0  0  0  0  0  0  0
   -0.8627   -1.7575    0.5720 C   0  0  0  0  0  0  0  0  0  0  0  0
   -1.1420   -2.4120   -1.7368 C   0  0  0  0  0  0  0  0  0  0  0  0
    0.4694   -2.1689    0.5276 C   0  0  0  0  0  0  0  0  0  0  0  0
    0.1901   -2.8233   -1.7812 C   0  0  0  0  0  0  0  0  0  0  0  0
    0.9959   -2.7017   -0.6490 C   0  0  0  0  0  0  0  0  0  0  0  0
    2.2523   -0.5202    3.1891 C   0  0  0  0  0  0  0  0  0  0  0  0
    0.9581   -0.9816    2.5294 C   0  0  0  0  0  0  0  0  0  0  0  0
    3.2786   -0.0051    2.1868 C   0  0  0  0  0  0  0  0  0  0  0  0
    2.6024    1.1466    0.0948 C   0  0  0  0  0  0  0  0  0  0  0  0
    1.6848    3.5012    0.0789 C   0  0  0  0  0  0  0  0  0  0  0  0
    2.5000    0.8319   -1.9533 C   0  0  0  0  0  0  0  0  0  0  0  0
   -1.4107    0.6540   -0.6396 H   0  0  0  0  0  0  0  0  0  0  0  0
   -2.8406    0.9834   -1.6156 H   0  0  0  0  0  0  0  0  0  0  0  0
   -5.1227    0.2843   -0.7498 H   0  0  0  0  0  0  0  0  0  0  0  0
   -5.2007   -0.5429    0.8101 H   0  0  0  0  0  0  0  0  0  0  0  0
   -2.0944    2.1917    1.0971 H   0  0  0  0  0  0  0  0  0  0  0  0
   -2.0463    3.0034   -0.4665 H   0  0  0  0  0  0  0  0  0  0  0  0
   -5.8966    1.8322    0.9943 H   0  0  0  0  0  0  0  0  0  0  0  0
   -4.5068    1.4583    2.0118 H   0  0  0  0  0  0  0  0  0  0  0  0
   -4.4756    2.8890   -0.6885 H   0  0  0  0  0  0  0  0  0  0  0  0
   -4.0916    3.5883    0.8846 H   0  0  0  0  0  0  0  0  0  0  0  0
   -3.5176   -1.4099   -1.5251 H   0  0  0  0  0  0  0  0  0  0  0  0
   -3.6491   -2.2056    0.0438 H   0  0  0  0  0  0  0  0  0  0  0  0
   -1.3047   -1.3846    1.4913 H   0  0  0  0  0  0  0  0  0  0  0  0
   -1.7590   -2.5124   -2.6251 H   0  0  0  0  0  0  0  0  0  0  0  0
    0.6007   -3.2369   -2.6977 H   0  0  0  0  0  0  0  0  0  0  0  0
    2.0334   -3.0217   -0.6902 H   0  0  0  0  0  0  0  0  0  0  0  0
    2.0203    0.2627    3.9211 H   0  0  0  0  0  0  0  0  0  0  0  0
    2.6994   -1.3591    3.7359 H   0  0  0  0  0  0  0  0  0  0  0  0
    0.4918   -0.1252    2.0267 H   0  0  0  0  0  0  0  0  0  0  0  0
    0.2720   -1.3524    3.2996 H   0  0  0  0  0  0  0  0  0  0  0  0
    3.5979   -0.8144    1.5192 H   0  0  0  0  0  0  0  0  0  0  0  0
    4.1744    0.3176    2.7297 H   0  0  0  0  0  0  0  0  0  0  0  0
    2.5100    1.9330    2.0116 H   0  0  0  0  0  0  0  0  0  0  0  0
    1.3394    4.1769   -0.7080 H   0  0  0  0  0  0  0  0  0  0  0  0
    2.5376    3.9444    0.5988 H   0  0  0  0  0  0  0  0  0  0  0  0
    0.8675    3.2976    0.7752 H   0  0  0  0  0  0  0  0  0  0  0  0
    3.0008   -0.8048   -3.1419 H   0  0  0  0  0  0  0  0  0  0  0  0
    2.3837    0.5407   -4.0138 H   0  0  0  0  0  0  0  0  0  0  0  0
  1 17  1  0  0  0  0
  1 21  1  0  0  0  0
  2  8  1  0  0  0  0
  2  9  1  0  0  0  0
  2 13  1  0  0  0  0
  3 22  1  0  0  0  0
  3 23  1  0  0  0  0
  3 48  1  0  0  0  0
  4  6  1  0  0  0  0
  4 23  1  0  0  0  0
  4 24  1  0  0  0  0
  5 23  2  0  0  0  0
  5 25  1  0  0  0  0
  6 25  2  0  0  0  0
  7 25  1  0  0  0  0
  7 52  1  0  0  0  0
  7 53  1  0  0  0  0
  8 10  1  0  0  0  0
  8 26  1  0  0  0  0
  8 27  1  0  0  0  0
  9 11  1  0  0  0  0
  9 28  1  0  0  0  0
  9 29  1  0  0  0  0
 10 12  1  0  0  0  0
 10 30  1  0  0  0  0
 10 31  1  0  0  0  0
 11 12  1  0  0  0  0
 11 32  1  0  0  0  0
 11 33  1  0  0  0  0
 12 34  1  0  0  0  0
 12 35  1  0  0  0  0
 13 14  1  0  0  0  0
 13 36  1  0  0  0  0
 13 37  1  0  0  0  0
 14 15  2  0  0  0  0
 14 16  1  0  0  0  0
 15 17  1  0  0  0  0
 15 38  1  0  0  0  0
 16 18  2  0  0  0  0
 16 39  1  0  0  0  0
 17 19  2  0  0  0  0
 18 19  1  0  0  0  0
 18 40  1  0  0  0  0
 19 41  1  0  0  0  0
 20 21  1  0  0  0  0
 20 22  1  0  0  0  0
 20 42  1  0  0  0  0
 20 43  1  0  0  0  0
 21 44  1  0  0  0  0
 21 45  1  0  0  0  0
 22 46  1  0  0  0  0
 22 47  1  0  0  0  0
 24 49  1  0  0  0  0
 24 50  1  0  0  0  0
 24 51  1  0  0  0  0
M  END
> <PUBCHEM_COMPOUND_CID>
71988

> <PUBCHEM_CONFORMER_RMSD>
1.2

> <PUBCHEM_CONFORMER_DIVERSEORDER>
1
17
61
73
138
163
144
50
148
110
89
128
133
135
136
25
112
26
162
49
140
20
35
74
137
47
2
126
28
106
16
77
114
121
108
63
11
32
156
109
96
124
97
87
53
85
46
12
125
8
69
116
3
92
102
51
36
155
161
132
147
150
52
19
57
130
107
78
82
67
58
99
39
103
143
48
80
120
5
86
31
81
70
34
159
95
27
113
60
13
90
29
23
94
54
91
24
115
75
151
146
56
123
98
118
154
131
158
38
64
139
117
37
41
152
22
111
10
122
141
66
44
9
4
88
7
101
104
18
40
6
134
55
68
100
142
157
76
33
160
83
45
14
21
65
93
149
84
30
59
145
71
15
127
119
72
43
42
129
153
79
105
62

> <PUBCHEM_MMFF94_PARTIAL_CHARGES>
28
1 -0.36
13 0.41
14 -0.14
15 -0.15
16 -0.15
17 0.08
18 -0.15
19 -0.15
2 -0.81
21 0.28
22 0.37
23 0.27
24 0.26
25 0.6
3 -0.85
38 0.15
39 0.15
4 0.31
40 0.15
41 0.15
48 0.4
5 -0.57
52 0.4
53 0.4
6 -0.71
7 -0.88
8 0.27
9 0.27

> <PUBCHEM_EFFECTIVE_ROTOR_COUNT>
9.2

> <PUBCHEM_PHARMACOPHORE_FEATURES>
9
1 1 acceptor
1 2 cation
1 3 donor
1 7 donor
4 3 4 5 23 cation
4 5 6 7 25 cation
5 4 5 6 23 25 rings
6 14 15 16 17 18 19 rings
6 2 8 9 10 11 12 rings

> <PUBCHEM_HEAVY_ATOM_COUNT>
25

> <PUBCHEM_ATOM_DEF_STEREO_COUNT>
0

> <PUBCHEM_ATOM_UDEF_STEREO_COUNT>
0

> <PUBCHEM_BOND_DEF_STEREO_COUNT>
0

> <PUBCHEM_BOND_UDEF_STEREO_COUNT>
0

> <PUBCHEM_ISOTOPIC_ATOM_COUNT>
0

> <PUBCHEM_COMPONENT_COUNT>
1

> <PUBCHEM_CACTVS_TAUTO_COUNT>
5

> <PUBCHEM_CONFORMER_ID>
0001193400000001

> <PUBCHEM_MMFF94_ENERGY>
44.5691

> <PUBCHEM_FEATURE_SELFOVERLAP>
45.84

> <PUBCHEM_SHAPE_FINGERPRINT>
10764073 3 17605293959114701922
11640471 11 17984156863335987994
12156800 1 6970582572684374100
12422481 6 17907049466153848738
12633257 1 16845581928050337049
12788726 201 17831864543028605879
13965767 371 18268167494080376944
14251757 17 17458890600608355941
15664445 248 16389028064343815702
17859628 37 17982470478633971115
21864079 5 18267866082007500001
22149856 69 18041560352337967369
23419403 2 16541782548822280390
23559900 14 17976254961737027951
2637199 183 18269817805114359949
35225 105 16411794723611052370
3797600 57 17987507113910055907
445580 8 18341341075293336721
469060 322 11883728677869126756
513532 50 17024325217215699701
539174 4 17559136305649588598
5895379 119 18188496752888398384
6287921 2 17970071256507097119

> <PUBCHEM_SHAPE_MULTIPOLES>
478.73
7.26
3.89
2.67
7.99
0.34
-0.55
5.04
-1.37
0.35
1.23
-3.68
-0.47
-1.21

> <PUBCHEM_SHAPE_SELFOVERLAP>
998.194

> <PUBCHEM_SHAPE_VOLUME>
273

> <PUBCHEM_COORDINATE_TYPE>
2
5
10

$$$$

