5462475
  -OEChem-07051213012D

 36 36  0     1  0  0  0  0  0999 V2000
    6.7181    1.7035    0.0000 P   0  0  0  0  0  0  0  0  0  0  0  0
    5.8520    1.2035    0.0000 O   0  0  0  0  0  0  0  0  0  0  0  0
    4.1200   -1.7965    0.0000 O   0  0  0  0  0  0  0  0  0  0  0  0
    7.5841   -1.7965    0.0000 O   0  0  0  0  0  0  0  0  0  0  0  0
    7.5841    0.2035    0.0000 O   0  0  0  0  0  0  0  0  0  0  0  0
    7.5841    2.2035    0.0000 O   0  0  0  0  0  0  0  0  0  0  0  0
    6.2181    2.5695    0.0000 O   0  0  0  0  0  0  0  0  0  0  0  0
    7.2181    0.8375    0.0000 O   0  0  0  0  0  0  0  0  0  0  0  0
    5.8520   -2.7965    0.0000 N   0  0  0  0  0  0  0  0  0  0  0  0
    4.1200    0.2035    0.0000 N   0  0  0  0  0  0  0  0  0  0  0  0
    2.6200    1.0696    0.0000 N   0  0  0  0  0  0  0  0  0  0  0  0
    2.6200   -0.6625    0.0000 N   0  0  0  0  0  0  0  0  0  0  0  0
    5.8520   -1.7965    0.0000 C   0  0  1  0  0  0  0  0  0  0  0  0
    5.8520    0.2035    0.0000 C   0  0  1  0  0  0  0  0  0  0  0  0
    4.9860   -0.2965    0.0000 C   0  0  1  0  0  0  0  0  0  0  0  0
    4.9860   -1.2965    0.0000 C   0  0  1  0  0  0  0  0  0  0  0  0
    6.7181   -1.2965    0.0000 C   0  0  2  0  0  0  0  0  0  0  0  0
    6.7181   -0.2965    0.0000 C   0  0  2  0  0  0  0  0  0  0  0  0
    3.1200    0.2036    0.0000 C   0  0  0  0  0  0  0  0  0  0  0  0
    6.3890   -2.1065    0.0000 H   0  0  0  0  0  0  0  0  0  0  0  0
    6.3890    0.5135    0.0000 H   0  0  0  0  0  0  0  0  0  0  0  0
    4.9860    0.3235    0.0000 H   0  0  0  0  0  0  0  0  0  0  0  0
    4.9860   -1.9165    0.0000 H   0  0  0  0  0  0  0  0  0  0  0  0
    6.7181   -1.9165    0.0000 H   0  0  0  0  0  0  0  0  0  0  0  0
    6.7181    0.3235    0.0000 H   0  0  0  0  0  0  0  0  0  0  0  0
    6.3890   -3.1065    0.0000 H   0  0  0  0  0  0  0  0  0  0  0  0
    5.3151   -3.1065    0.0000 H   0  0  0  0  0  0  0  0  0  0  0  0
    4.1200   -2.4165    0.0000 H   0  0  0  0  0  0  0  0  0  0  0  0
    8.1210   -0.1065    0.0000 H   0  0  0  0  0  0  0  0  0  0  0  0
    8.1210   -1.4865    0.0000 H   0  0  0  0  0  0  0  0  0  0  0  0
    6.5281    3.1065    0.0000 H   0  0  0  0  0  0  0  0  0  0  0  0
    7.5841    2.8235    0.0000 H   0  0  0  0  0  0  0  0  0  0  0  0
    2.0000    1.0696    0.0000 H   0  0  0  0  0  0  0  0  0  0  0  0
    2.9300    1.6065    0.0000 H   0  0  0  0  0  0  0  0  0  0  0  0
    2.0000   -0.6625    0.0000 H   0  0  0  0  0  0  0  0  0  0  0  0
    2.9300   -1.1995    0.0000 H   0  0  0  0  0  0  0  0  0  0  0  0
  1  2  1  0  0  0  0
  1  6  1  0  0  0  0
  1  7  1  0  0  0  0
  1  8  2  0  0  0  0
 14  2  1  6  0  0  0
 16  3  1  6  0  0  0
  3 28  1  0  0  0  0
 17  4  1  6  0  0  0
  4 30  1  0  0  0  0
 18  5  1  1  0  0  0
  5 29  1  0  0  0  0
  6 32  1  0  0  0  0
  7 31  1  0  0  0  0
 13  9  1  1  0  0  0
  9 26  1  0  0  0  0
  9 27  1  0  0  0  0
 15 10  1  1  0  0  0
 10 19  2  0  0  0  0
 11 19  1  0  0  0  0
 11 33  1  0  0  0  0
 11 34  1  0  0  0  0
 12 19  1  0  0  0  0
 12 35  1  0  0  0  0
 12 36  1  0  0  0  0
 13 16  1  0  0  0  0
 13 17  1  0  0  0  0
 13 20  1  0  0  0  0
 14 15  1  0  0  0  0
 14 18  1  0  0  0  0
 14 21  1  0  0  0  0
 15 16  1  0  0  0  0
 15 22  1  0  0  0  0
 16 23  1  0  0  0  0
 17 18  1  0  0  0  0
 17 24  1  0  0  0  0
 18 25  1  0  0  0  0
M  END
> <PUBCHEM_COMPOUND_CID>
5462475

> <PUBCHEM_COMPOUND_CANONICALIZED>
1

> <PUBCHEM_CACTVS_COMPLEXITY>
397

> <PUBCHEM_CACTVS_HBOND_ACCEPTOR>
9

> <PUBCHEM_CACTVS_HBOND_DONOR>
8

> <PUBCHEM_CACTVS_ROTATABLE_BOND>
3

> <PUBCHEM_CACTVS_SUBSKEYS>
AAADceBjuAIAAAAAAAAAAAAAAAAAAAAAAAAwAAAAAAAAAAAAAAAAHgAQCCAACDzhgAYBAAJAAxAgQAAAJIAAAAEAAAAAAIAAAAADEAIAwAAAQAAHEAABAAHwcAUAAAAAAAAAAAACgAAUCACgAAAAAAAAAA==

> <PUBCHEM_IUPAC_OPENEYE_NAME>
[(1S,2R,3S,4S,5R,6S)-4-amino-2-guanidino-3,5,6-trihydroxy-cyclohexyl] dihydrogen phosphate

> <PUBCHEM_IUPAC_CAS_NAME>
[(1S,2R,3S,4S,5R,6S)-4-amino-2-(diaminomethylideneamino)-3,5,6-trihydroxycyclohexyl] dihydrogen phosphate

> <PUBCHEM_IUPAC_NAME>
[(1S,2R,3S,4S,5R,6S)-4-amino-2-(diaminomethylideneamino)-3,5,6-trihydroxycyclohexyl] dihydrogen phosphate

> <PUBCHEM_IUPAC_SYSTEMATIC_NAME>
[(1S,2R,3S,4S,5R,6S)-4-azanyl-2-[bis(azanyl)methylideneamino]-3,5,6-tris(oxidanyl)cyclohexyl] dihydrogen phosphate

> <PUBCHEM_IUPAC_TRADITIONAL_NAME>
[(1S,2R,3S,4S,5R,6S)-4-amino-2-guanidino-3,5,6-trihydroxy-cyclohexyl] dihydrogen phosphate

> <PUBCHEM_IUPAC_INCHI>
InChI=1S/C7H17N4O7P/c8-1-3(12)2(11-7(9)10)6(5(14)4(1)13)18-19(15,16)17/h1-6,12-14H,8H2,(H4,9,10,11)(H2,15,16,17)/t1-,2+,3-,4+,5-,6-/m0/s1

> <PUBCHEM_IUPAC_INCHIKEY>
YFFQDNQRUIYSNO-FUHDGFEASA-N

> <PUBCHEM_XLOGP3_AA>
-8.2

> <PUBCHEM_EXACT_MASS>
300.083486

> <PUBCHEM_MOLECULAR_FORMULA>
C7H17N4O7P

> <PUBCHEM_MOLECULAR_WEIGHT>
300.206242

> <PUBCHEM_OPENEYE_CAN_SMILES>
C1(C(C(C(C(C1O)O)OP(=O)(O)O)N=C(N)N)O)N

> <PUBCHEM_OPENEYE_ISO_SMILES>
[C@@H]1([C@@H]([C@H]([C@@H]([C@H]([C@@H]1O)O)OP(=O)(O)O)N=C(N)N)O)N

> <PUBCHEM_CACTVS_TPSA>
218

> <PUBCHEM_MONOISOTOPIC_WEIGHT>
300.083486

> <PUBCHEM_TOTAL_CHARGE>
0

> <PUBCHEM_HEAVY_ATOM_COUNT>
19

> <PUBCHEM_ATOM_DEF_STEREO_COUNT>
6

> <PUBCHEM_ATOM_UDEF_STEREO_COUNT>
0

> <PUBCHEM_BOND_DEF_STEREO_COUNT>
0

> <PUBCHEM_BOND_UDEF_STEREO_COUNT>
0

> <PUBCHEM_ISOTOPIC_ATOM_COUNT>
0

> <PUBCHEM_COMPONENT_COUNT>
1

> <PUBCHEM_CACTVS_TAUTO_COUNT>
2

> <PUBCHEM_COORDINATE_TYPE>
1
5
255

> <PUBCHEM_BONDANNOTATIONS>
15  10  5
14  2  6
16  3  6
17  4  6
18  5  5
13  9  5

$$$$

