65115
  -OEChem-07051212493D

 36 37  0     1  0  0  0  0  0999 V2000
    1.2871   -0.6395    0.1577 O   0  0  0  0  0  0  0  0  0  0  0  0
    0.3080    1.4522    0.4969 O   0  0  0  0  0  0  0  0  0  0  0  0
    5.0484    1.0728   -0.0620 O   0  0  0  0  0  0  0  0  0  0  0  0
    3.8910   -1.0932    1.2409 O   0  0  0  0  0  0  0  0  0  0  0  0
    2.6829    2.6920   -0.4472 O   0  0  0  0  0  0  0  0  0  0  0  0
    0.7417   -3.2579   -0.4634 O   0  0  0  0  0  0  0  0  0  0  0  0
   -5.4564   -0.2722   -1.2886 O   0  5  0  0  0  0  0  0  0  0  0  0
   -5.5855   -0.6706    0.8663 O   0  0  0  0  0  0  0  0  0  0  0  0
   -4.9473   -0.2822   -0.1418 N   0  3  0  0  0  0  0  0  0  0  0  0
    3.8019    0.5585   -0.5226 C   0  0  1  0  0  0  0  0  0  0  0  0
    3.6777   -0.9222   -0.1617 C   0  0  2  0  0  0  0  0  0  0  0  0
    2.6640    1.3713    0.0942 C   0  0  2  0  0  0  0  0  0  0  0  0
    2.2752   -1.4268   -0.5186 C   0  0  1  0  0  0  0  0  0  0  0  0
    1.3091    0.7352   -0.2246 C   0  0  1  0  0  0  0  0  0  0  0  0
    2.0594   -2.8787   -0.1083 C   0  0  0  0  0  0  0  0  0  0  0  0
   -0.9823    1.0264    0.3403 C   0  0  0  0  0  0  0  0  0  0  0  0
   -1.5616    1.0299   -0.9250 C   0  0  0  0  0  0  0  0  0  0  0  0
   -1.7062    0.5922    1.4467 C   0  0  0  0  0  0  0  0  0  0  0  0
   -2.8775    0.5955   -1.0854 C   0  0  0  0  0  0  0  0  0  0  0  0
   -3.0220    0.1578    1.2862 C   0  0  0  0  0  0  0  0  0  0  0  0
   -3.6075    0.1594    0.0201 C   0  0  0  0  0  0  0  0  0  0  0  0
    3.7929    0.6733   -1.6137 H   0  0  0  0  0  0  0  0  0  0  0  0
    4.4524   -1.5026   -0.6739 H   0  0  0  0  0  0  0  0  0  0  0  0
    2.8077    1.4729    1.1767 H   0  0  0  0  0  0  0  0  0  0  0  0
    2.0959   -1.3354   -1.5980 H   0  0  0  0  0  0  0  0  0  0  0  0
    1.1133    0.8238   -1.3014 H   0  0  0  0  0  0  0  0  0  0  0  0
    2.1582   -3.0190    0.9727 H   0  0  0  0  0  0  0  0  0  0  0  0
    2.7638   -3.5438   -0.6163 H   0  0  0  0  0  0  0  0  0  0  0  0
    5.0779    2.0168   -0.2942 H   0  0  0  0  0  0  0  0  0  0  0  0
    3.1314   -0.7137    1.7140 H   0  0  0  0  0  0  0  0  0  0  0  0
    1.9347    3.1765   -0.0581 H   0  0  0  0  0  0  0  0  0  0  0  0
    0.1293   -2.6510   -0.0134 H   0  0  0  0  0  0  0  0  0  0  0  0
   -1.0149    1.3830   -1.7945 H   0  0  0  0  0  0  0  0  0  0  0  0
   -1.2533    0.5887    2.4342 H   0  0  0  0  0  0  0  0  0  0  0  0
   -3.3026    0.6143   -2.0857 H   0  0  0  0  0  0  0  0  0  0  0  0
   -3.5601   -0.1750    2.1701 H   0  0  0  0  0  0  0  0  0  0  0  0
  1 13  1  0  0  0  0
  1 14  1  0  0  0  0
  2 14  1  0  0  0  0
  2 16  1  0  0  0  0
  3 10  1  0  0  0  0
  3 29  1  0  0  0  0
  4 11  1  0  0  0  0
  4 30  1  0  0  0  0
  5 12  1  0  0  0  0
  5 31  1  0  0  0  0
  6 15  1  0  0  0  0
  6 32  1  0  0  0  0
  7  9  1  0  0  0  0
  8  9  2  0  0  0  0
  9 21  1  0  0  0  0
 10 11  1  0  0  0  0
 10 12  1  0  0  0  0
 10 22  1  0  0  0  0
 11 13  1  0  0  0  0
 11 23  1  0  0  0  0
 12 14  1  0  0  0  0
 12 24  1  0  0  0  0
 13 15  1  0  0  0  0
 13 25  1  0  0  0  0
 14 26  1  0  0  0  0
 15 27  1  0  0  0  0
 15 28  1  0  0  0  0
 16 17  2  0  0  0  0
 16 18  1  0  0  0  0
 17 19  1  0  0  0  0
 17 33  1  0  0  0  0
 18 20  2  0  0  0  0
 18 34  1  0  0  0  0
 19 21  2  0  0  0  0
 19 35  1  0  0  0  0
 20 21  1  0  0  0  0
 20 36  1  0  0  0  0
M  CHG  2   7  -1   9   1
M  END
> <PUBCHEM_COMPOUND_CID>
65115

> <PUBCHEM_CONFORMER_RMSD>
0.8

> <PUBCHEM_CONFORMER_DIVERSEORDER>
1
10
11
18
17
7
24
4
23
3
13
22
2
20
15
16
5
21
14
12
6
19
9
8

> <PUBCHEM_MMFF94_PARTIAL_CHARGES>
29
1 -0.56
10 0.28
11 0.28
12 0.28
13 0.28
14 0.56
15 0.28
16 0.08
17 -0.15
18 -0.15
19 -0.15
2 -0.36
20 -0.15
21 0.13
29 0.4
3 -0.68
30 0.4
31 0.4
32 0.4
33 0.15
34 0.15
35 0.15
36 0.15
4 -0.68
5 -0.68
6 -0.68
7 -0.52
8 -0.52
9 0.91

> <PUBCHEM_EFFECTIVE_ROTOR_COUNT>
5.2

> <PUBCHEM_PHARMACOPHORE_FEATURES>
15
1 1 acceptor
1 2 acceptor
1 3 acceptor
1 3 donor
1 4 acceptor
1 4 donor
1 5 acceptor
1 5 donor
1 6 acceptor
1 6 donor
1 7 acceptor
1 7 anion
1 8 acceptor
6 1 10 11 12 13 14 rings
6 16 17 18 19 20 21 rings

> <PUBCHEM_HEAVY_ATOM_COUNT>
21

> <PUBCHEM_ATOM_DEF_STEREO_COUNT>
5

> <PUBCHEM_ATOM_UDEF_STEREO_COUNT>
0

> <PUBCHEM_BOND_DEF_STEREO_COUNT>
0

> <PUBCHEM_BOND_UDEF_STEREO_COUNT>
0

> <PUBCHEM_ISOTOPIC_ATOM_COUNT>
0

> <PUBCHEM_COMPONENT_COUNT>
1

> <PUBCHEM_CACTVS_TAUTO_COUNT>
1

> <PUBCHEM_CONFORMER_ID>
0000FE5B00000001

> <PUBCHEM_MMFF94_ENERGY>
70.3247

> <PUBCHEM_FEATURE_SELFOVERLAP>
76.266

> <PUBCHEM_SHAPE_FINGERPRINT>
10366900 7 18130494318988060822
10447042 23 18411707598904142006
11089746 13 12751236978399915924
12107183 9 17540520753858737569
12236239 1 17603580824628410529
12553582 1 17821738242520871701
12596602 18 16732987496749899627
12788726 201 17241033401736689249
13836976 161 18341326709017881580
13862211 1 18266456689297049798
14178342 30 17974574898915342464
14251717 144 18409165528089269482
14341114 328 17894907430182715279
14386348 63 17775280556321894929
14787075 74 17676213438005155472
14844126 61 16037457718060784554
14848160 33 18269839872651409114
14863182 85 18261386784887714966
15183329 4 18335711589662202245
15375358 24 17989484125931813401
15375462 189 17894918450894470145
15537594 2 18040434378483225119
15635459 17 18272365412237184634
17138139 8 17607549958952982487
19433438 38 18201162143166065141
200 152 18334857221138864313
20028762 73 18114186371448151734
20279233 1 17775559840664863681
20645477 70 18343018904151091194
21054139 6 18188779340003163047
21197605 99 18123458389806998163
212847 35 8286199452856194866
21285901 2 17917717937172686157
21623969 137 18340474591954628139
2255824 54 18409161100363304116
23402539 116 16559039255250572829
23557571 272 17346884459457753869
23559900 14 16988841683442884832
23598288 3 17315073492132852137
2871803 45 18410291445044067198
3060560 45 18411695474828527180
33382 64 18337946797800841283
33824 294 18411417323824375722
4340502 62 18261395477769477464
4409770 3 15089781327630060625
474229 33 18410855443412769610
5104073 3 18339082704090154824
5283173 99 17631744879910268269
602551 16 15140973828556275661
6913067 236 18271539627496681461
8272917 22 18336256942253318749
9709674 26 18270674385071146707

> <PUBCHEM_SHAPE_MULTIPOLES>
380.23
10.37
2.38
1.11
8.32
1.54
0.14
0.77
-0.43
-2.84
-0.31
0.89
-0.05
-0.13

> <PUBCHEM_SHAPE_SELFOVERLAP>
800.325

> <PUBCHEM_SHAPE_VOLUME>
211.5

> <PUBCHEM_COORDINATE_TYPE>
2
5
10

$$$$

