5281689
  -OEChem-07051212582D

 27 27  0     1  0  0  0  0  0999 V2000
    5.4641   -0.6900    0.0000 N   0  0  0  0  0  0  0  0  0  0  0  0
    6.3301   -0.1900    0.0000 C   0  0  1  0  0  0  0  0  0  0  0  0
    4.5981   -0.1900    0.0000 C   0  0  2  0  0  0  0  0  0  0  0  0
    6.3301    0.8100    0.0000 C   0  0  0  0  0  0  0  0  0  0  0  0
    4.5981    0.8100    0.0000 C   0  0  0  0  0  0  0  0  0  0  0  0
    5.4641    1.3100    0.0000 C   0  0  0  0  0  0  0  0  0  0  0  0
    7.1962   -0.6900    0.0000 C   0  0  0  0  0  0  0  0  0  0  0  0
    3.7320   -0.6900    0.0000 C   0  0  0  0  0  0  0  0  0  0  0  0
    2.8660   -0.1900    0.0000 C   0  0  0  0  0  0  0  0  0  0  0  0
    2.0000   -0.6900    0.0000 C   0  0  0  0  0  0  0  0  0  0  0  0
    6.3301   -0.8100    0.0000 H   0  0  0  0  0  0  0  0  0  0  0  0
    4.5981   -0.8100    0.0000 H   0  0  0  0  0  0  0  0  0  0  0  0
    6.9407    0.7023    0.0000 H   0  0  0  0  0  0  0  0  0  0  0  0
    6.5422    1.3926    0.0000 H   0  0  0  0  0  0  0  0  0  0  0  0
    4.3860    1.3926    0.0000 H   0  0  0  0  0  0  0  0  0  0  0  0
    3.9875    0.7023    0.0000 H   0  0  0  0  0  0  0  0  0  0  0  0
    5.8626    1.7850    0.0000 H   0  0  0  0  0  0  0  0  0  0  0  0
    5.0656    1.7850    0.0000 H   0  0  0  0  0  0  0  0  0  0  0  0
    5.4641   -1.3100    0.0000 H   0  0  0  0  0  0  0  0  0  0  0  0
    6.8862   -1.2269    0.0000 H   0  0  0  0  0  0  0  0  0  0  0  0
    7.7331   -1.0000    0.0000 H   0  0  0  0  0  0  0  0  0  0  0  0
    7.5062   -0.1531    0.0000 H   0  0  0  0  0  0  0  0  0  0  0  0
    3.7320   -1.3100    0.0000 H   0  0  0  0  0  0  0  0  0  0  0  0
    2.8660    0.4300    0.0000 H   0  0  0  0  0  0  0  0  0  0  0  0
    1.6900   -0.1531    0.0000 H   0  0  0  0  0  0  0  0  0  0  0  0
    1.4631   -1.0000    0.0000 H   0  0  0  0  0  0  0  0  0  0  0  0
    2.3100   -1.2269    0.0000 H   0  0  0  0  0  0  0  0  0  0  0  0
  1  2  1  0  0  0  0
  1  3  1  0  0  0  0
  1 19  1  0  0  0  0
  2  4  1  0  0  0  0
  2  7  1  1  0  0  0
  2 11  1  0  0  0  0
  3  5  1  0  0  0  0
  3  8  1  1  0  0  0
  3 12  1  0  0  0  0
  4  6  1  0  0  0  0
  4 13  1  0  0  0  0
  4 14  1  0  0  0  0
  5  6  1  0  0  0  0
  5 15  1  0  0  0  0
  5 16  1  0  0  0  0
  6 17  1  0  0  0  0
  6 18  1  0  0  0  0
  7 20  1  0  0  0  0
  7 21  1  0  0  0  0
  7 22  1  0  0  0  0
  8  9  2  0  0  0  0
  8 23  1  0  0  0  0
  9 10  1  0  0  0  0
  9 24  1  0  0  0  0
 10 25  1  0  0  0  0
 10 26  1  0  0  0  0
 10 27  1  0  0  0  0
M  END
> <PUBCHEM_COMPOUND_CID>
5281689

> <PUBCHEM_COMPOUND_CANONICALIZED>
1

> <PUBCHEM_CACTVS_COMPLEXITY>
118

> <PUBCHEM_CACTVS_HBOND_ACCEPTOR>
1

> <PUBCHEM_CACTVS_HBOND_DONOR>
1

> <PUBCHEM_CACTVS_ROTATABLE_BOND>
1

> <PUBCHEM_CACTVS_SUBSKEYS>
AAADceByAAAAAAAAAAAAAAAAAAAAAAAAAAAsAAAAAAAAAAAAAAAAHAAQAAAACCjBAAQCAALAAACAACBCAACAAAAgAAAICIAIAAgAAAIAgQAEAAAAkACIAAMQgAAAAAAAAAAAAAAAAAAAAAAAAAAAAAAAAA==

> <PUBCHEM_IUPAC_OPENEYE_NAME>
(2R,6R)-2-methyl-6-[(E)-prop-1-enyl]piperidine

> <PUBCHEM_IUPAC_CAS_NAME>
(2R,6R)-2-methyl-6-[(E)-prop-1-enyl]piperidine

> <PUBCHEM_IUPAC_NAME>
(2R,6R)-2-methyl-6-[(E)-prop-1-enyl]piperidine

> <PUBCHEM_IUPAC_SYSTEMATIC_NAME>
(2R,6R)-2-methyl-6-[(E)-prop-1-enyl]piperidine

> <PUBCHEM_IUPAC_TRADITIONAL_NAME>
(2R,6R)-2-methyl-6-[(E)-prop-1-enyl]piperidine

> <PUBCHEM_IUPAC_INCHI>
InChI=1S/C9H17N/c1-3-5-9-7-4-6-8(2)10-9/h3,5,8-10H,4,6-7H2,1-2H3/b5-3+/t8-,9+/m1/s1

> <PUBCHEM_IUPAC_INCHIKEY>
CXQRNYIKPJXYLU-ZHBVTVBMSA-N

> <PUBCHEM_XLOGP3_AA>
2

> <PUBCHEM_EXACT_MASS>
139.1361

> <PUBCHEM_MOLECULAR_FORMULA>
C9H17N

> <PUBCHEM_MOLECULAR_WEIGHT>
139.23798

> <PUBCHEM_OPENEYE_CAN_SMILES>
CC=CC1CCCC(N1)C

> <PUBCHEM_OPENEYE_ISO_SMILES>
C/C=C/[C@H]1CCC[C@H](N1)C

> <PUBCHEM_CACTVS_TPSA>
12

> <PUBCHEM_MONOISOTOPIC_WEIGHT>
139.1361

> <PUBCHEM_TOTAL_CHARGE>
0

> <PUBCHEM_HEAVY_ATOM_COUNT>
10

> <PUBCHEM_ATOM_DEF_STEREO_COUNT>
2

> <PUBCHEM_ATOM_UDEF_STEREO_COUNT>
0

> <PUBCHEM_BOND_DEF_STEREO_COUNT>
1

> <PUBCHEM_BOND_UDEF_STEREO_COUNT>
0

> <PUBCHEM_ISOTOPIC_ATOM_COUNT>
0

> <PUBCHEM_COMPONENT_COUNT>
1

> <PUBCHEM_CACTVS_TAUTO_COUNT>
1

> <PUBCHEM_COORDINATE_TYPE>
1
5
255

> <PUBCHEM_BONDANNOTATIONS>
2  7  5
3  8  5

$$$$

