448701
  -OEChem-07051213132D

 43 45  0     1  0  0  0  0  0999 V2000
    3.7981   -0.0427    0.0000 O   0  0  0  0  0  0  0  0  0  0  0  0
    5.5301    1.9573    0.0000 O   0  0  0  0  0  0  0  0  0  0  0  0
    2.9320    1.4573    0.0000 O   0  0  0  0  0  0  0  0  0  0  0  0
    2.9320    3.4573    0.0000 O   0  0  0  0  0  0  0  0  0  0  0  0
    7.2785   -4.0773    0.0000 O   0  0  0  0  0  0  0  0  0  0  0  0
    9.0602   -1.0186    0.0000 O   0  0  0  0  0  0  0  0  0  0  0  0
    2.0000   -1.0186    0.0000 O   0  0  0  0  0  0  0  0  0  0  0  0
    5.5301   -1.0427    0.0000 N   0  0  0  0  0  0  0  0  0  0  0  0
    7.2901   -1.0080    0.0000 N   0  0  0  0  0  0  0  0  0  0  0  0
    8.1962   -2.5635    0.0000 N   0  0  0  0  0  0  0  0  0  0  0  0
    4.6641    0.4573    0.0000 C   0  0  1  0  0  0  0  0  0  0  0  0
    5.5301   -0.0427    0.0000 C   0  0  0  0  0  0  0  0  0  0  0  0
    4.6641    1.4573    0.0000 C   0  0  1  0  0  0  0  0  0  0  0  0
    3.7981    1.9573    0.0000 C   0  0  1  0  0  0  0  0  0  0  0  0
    6.3961   -1.5427    0.0000 C   0  0  0  0  0  0  0  0  0  0  0  0
    4.6641   -1.5427    0.0000 C   0  0  0  0  0  0  0  0  0  0  0  0
    6.3961   -2.5427    0.0000 C   0  0  0  0  0  0  0  0  0  0  0  0
    4.6641   -2.5427    0.0000 C   0  0  0  0  0  0  0  0  0  0  0  0
    5.5301   -3.0427    0.0000 C   0  0  0  0  0  0  0  0  0  0  0  0
    3.7981    2.9573    0.0000 C   0  0  0  0  0  0  0  0  0  0  0  0
    3.7702   -1.0080    0.0000 C   0  0  0  0  0  0  0  0  0  0  0  0
    7.2901   -3.0774    0.0000 C   0  0  0  0  0  0  0  0  0  0  0  0
    3.7702   -3.0774    0.0000 C   0  0  0  0  0  0  0  0  0  0  0  0
    8.1962   -1.5219    0.0000 C   0  0  0  0  0  0  0  0  0  0  0  0
    2.8641   -1.5219    0.0000 C   0  0  0  0  0  0  0  0  0  0  0  0
    2.8641   -2.5635    0.0000 C   0  0  0  0  0  0  0  0  0  0  0  0
    4.6641   -0.1627    0.0000 H   0  0  0  0  0  0  0  0  0  0  0  0
    6.1407   -0.1504    0.0000 H   0  0  0  0  0  0  0  0  0  0  0  0
    5.7422    0.5399    0.0000 H   0  0  0  0  0  0  0  0  0  0  0  0
    4.6641    2.0773    0.0000 H   0  0  0  0  0  0  0  0  0  0  0  0
    3.7981    1.3373    0.0000 H   0  0  0  0  0  0  0  0  0  0  0  0
    5.5301   -3.6627    0.0000 H   0  0  0  0  0  0  0  0  0  0  0  0
    4.4087    2.8496    0.0000 H   0  0  0  0  0  0  0  0  0  0  0  0
    4.0101    3.5399    0.0000 H   0  0  0  0  0  0  0  0  0  0  0  0
    7.2829   -0.3881    0.0000 H   0  0  0  0  0  0  0  0  0  0  0  0
    3.7773   -0.3881    0.0000 H   0  0  0  0  0  0  0  0  0  0  0  0
    3.2611    0.2673    0.0000 H   0  0  0  0  0  0  0  0  0  0  0  0
    3.7773   -3.6973    0.0000 H   0  0  0  0  0  0  0  0  0  0  0  0
    5.5301    2.5773    0.0000 H   0  0  0  0  0  0  0  0  0  0  0  0
    8.7319   -2.8756    0.0000 H   0  0  0  0  0  0  0  0  0  0  0  0
    2.3951    1.7673    0.0000 H   0  0  0  0  0  0  0  0  0  0  0  0
    2.3284   -2.8756    0.0000 H   0  0  0  0  0  0  0  0  0  0  0  0
    2.9320    4.0773    0.0000 H   0  0  0  0  0  0  0  0  0  0  0  0
 11  1  1  6  0  0  0
  1 37  1  0  0  0  0
 13  2  1  1  0  0  0
  2 39  1  0  0  0  0
 14  3  1  6  0  0  0
  3 41  1  0  0  0  0
  4 20  1  0  0  0  0
  4 43  1  0  0  0  0
  5 22  2  0  0  0  0
  6 24  2  0  0  0  0
  7 25  2  0  0  0  0
  8 12  1  0  0  0  0
  8 15  1  0  0  0  0
  8 16  1  0  0  0  0
  9 15  1  0  0  0  0
  9 24  1  0  0  0  0
  9 35  1  0  0  0  0
 10 22  1  0  0  0  0
 10 24  1  0  0  0  0
 10 40  1  0  0  0  0
 11 12  1  0  0  0  0
 11 13  1  0  0  0  0
 11 27  1  0  0  0  0
 12 28  1  0  0  0  0
 12 29  1  0  0  0  0
 13 14  1  0  0  0  0
 13 30  1  0  0  0  0
 14 20  1  0  0  0  0
 14 31  1  0  0  0  0
 15 17  2  0  0  0  0
 16 18  1  0  0  0  0
 16 21  2  0  0  0  0
 17 19  1  0  0  0  0
 17 22  1  0  0  0  0
 18 19  2  0  0  0  0
 18 23  1  0  0  0  0
 19 32  1  0  0  0  0
 20 33  1  0  0  0  0
 20 34  1  0  0  0  0
 21 25  1  0  0  0  0
 21 36  1  0  0  0  0
 23 26  2  0  0  0  0
 23 38  1  0  0  0  0
 25 26  1  0  0  0  0
 26 42  1  0  0  0  0
M  END
> <PUBCHEM_COMPOUND_CID>
448701

> <PUBCHEM_COMPOUND_CANONICALIZED>
1

> <PUBCHEM_CACTVS_COMPLEXITY>
796

> <PUBCHEM_CACTVS_HBOND_ACCEPTOR>
8

> <PUBCHEM_CACTVS_HBOND_DONOR>
6

> <PUBCHEM_CACTVS_ROTATABLE_BOND>
5

> <PUBCHEM_CACTVS_SUBSKEYS>
AAADceB7OAAAAAAAAAAAAAAAAAAAAAAAAAAgQIAAAAAAAACAAAAAHgAQCAAADBzhgAYBAAPAAgCIAqVSUACAAAAgAgAICAEIAEiLEAIAgQAEQAAPBSKZgcLwEAIAAAAAAAAAAAAAAAAAAAAAAAAAAAAAAA==

> <PUBCHEM_IUPAC_OPENEYE_NAME>
10-[(2S,3S,4R)-2,3,4,5-tetrahydroxypentyl]-1H-pyrimido[4,5-b]quinoline-2,4,8-trione

> <PUBCHEM_IUPAC_CAS_NAME>
10-[(2S,3S,4R)-2,3,4,5-tetrahydroxypentyl]-1H-pyrimido[4,5-b]quinoline-2,4,8-trione

> <PUBCHEM_IUPAC_NAME>
10-[(2S,3S,4R)-2,3,4,5-tetrahydroxypentyl]-1H-pyrimido[4,5-b]quinoline-2,4,8-trione

> <PUBCHEM_IUPAC_SYSTEMATIC_NAME>
10-[(2S,3S,4R)-2,3,4,5-tetrakis(oxidanyl)pentyl]-1H-pyrimido[4,5-b]quinoline-2,4,8-trione

> <PUBCHEM_IUPAC_TRADITIONAL_NAME>
10-[(2S,3S,4R)-2,3,4,5-tetrahydroxypentyl]-1H-pyrimido[4,5-b]quinoline-2,4,8-trione

> <PUBCHEM_IUPAC_INCHI>
InChI=1S/C16H17N3O7/c20-6-12(23)13(24)11(22)5-19-10-4-8(21)2-1-7(10)3-9-14(19)17-16(26)18-15(9)25/h1-4,11-13,20,22-24H,5-6H2,(H2,17,18,25,26)/t11-,12+,13-/m0/s1

> <PUBCHEM_IUPAC_INCHIKEY>
HJMIIBXYFPJZBP-XQQFMLRXSA-N

> <PUBCHEM_XLOGP3_AA>
-3

> <PUBCHEM_EXACT_MASS>
363.10665

> <PUBCHEM_MOLECULAR_FORMULA>
C16H17N3O7

> <PUBCHEM_MOLECULAR_WEIGHT>
363.32208

> <PUBCHEM_OPENEYE_CAN_SMILES>
C1=CC(=O)C=C2C1=CC3=C(N2CC(C(C(CO)O)O)O)NC(=O)NC3=O

> <PUBCHEM_OPENEYE_ISO_SMILES>
C1=CC(=O)C=C2C1=CC3=C(N2C[C@@H]([C@@H]([C@@H](CO)O)O)O)NC(=O)NC3=O

> <PUBCHEM_CACTVS_TPSA>
159

> <PUBCHEM_MONOISOTOPIC_WEIGHT>
363.10665

> <PUBCHEM_TOTAL_CHARGE>
0

> <PUBCHEM_HEAVY_ATOM_COUNT>
26

> <PUBCHEM_ATOM_DEF_STEREO_COUNT>
3

> <PUBCHEM_ATOM_UDEF_STEREO_COUNT>
0

> <PUBCHEM_BOND_DEF_STEREO_COUNT>
0

> <PUBCHEM_BOND_UDEF_STEREO_COUNT>
0

> <PUBCHEM_ISOTOPIC_ATOM_COUNT>
0

> <PUBCHEM_COMPONENT_COUNT>
1

> <PUBCHEM_CACTVS_TAUTO_COUNT>
21

> <PUBCHEM_COORDINATE_TYPE>
1
5
255

> <PUBCHEM_BONDANNOTATIONS>
11  1  6
10  22  8
10  24  8
15  17  8
16  21  8
17  19  8
17  22  8
18  19  8
18  23  8
13  2  5
21  25  8
23  26  8
25  26  8
14  3  6
8  15  8
8  16  8
9  15  8
9  24  8

$$$$

