5787
  -OEChem-07051212523D

 15 15  0     0  0  0  0  0  0999 V2000
    0.8939   -2.4568    0.2294 Cl  0  0  0  0  0  0  0  0  0  0  0  0
   -3.8663    0.0414    0.0043 Cl  0  0  0  0  0  0  0  0  0  0  0  0
    2.5648    1.1378    0.9383 O   0  0  0  0  0  0  0  0  0  0  0  0
    2.8374   -0.1725   -0.8990 O   0  0  0  0  0  0  0  0  0  0  0  0
    0.6397    0.2443   -0.0504 C   0  0  0  0  0  0  0  0  0  0  0  0
   -0.0016   -0.9874    0.0817 C   0  0  0  0  0  0  0  0  0  0  0  0
   -0.1125    1.4134   -0.1655 C   0  0  0  0  0  0  0  0  0  0  0  0
   -1.3949   -1.0500    0.0987 C   0  0  0  0  0  0  0  0  0  0  0  0
   -1.5059    1.3508   -0.1486 C   0  0  0  0  0  0  0  0  0  0  0  0
   -2.1471    0.1191   -0.0165 C   0  0  0  0  0  0  0  0  0  0  0  0
    2.0927    0.3600   -0.0725 C   0  0  0  0  0  0  0  0  0  0  0  0
    0.3714    2.3810   -0.2733 H   0  0  0  0  0  0  0  0  0  0  0  0
   -1.8969   -2.0098    0.2020 H   0  0  0  0  0  0  0  0  0  0  0  0
   -2.0792    2.2697   -0.2402 H   0  0  0  0  0  0  0  0  0  0  0  0
    3.5427    1.2116    0.9162 H   0  0  0  0  0  0  0  0  0  0  0  0
  1  6  1  0  0  0  0
  2 10  1  0  0  0  0
  3 11  1  0  0  0  0
  3 15  1  0  0  0  0
  4 11  2  0  0  0  0
  5  6  2  0  0  0  0
  5  7  1  0  0  0  0
  5 11  1  0  0  0  0
  6  8  1  0  0  0  0
  7  9  2  0  0  0  0
  7 12  1  0  0  0  0
  8 10  2  0  0  0  0
  8 13  1  0  0  0  0
  9 10  1  0  0  0  0
  9 14  1  0  0  0  0
M  END
> <PUBCHEM_COMPOUND_CID>
5787

> <PUBCHEM_CONFORMER_RMSD>
0.4

> <PUBCHEM_CONFORMER_DIVERSEORDER>
1
2

> <PUBCHEM_MMFF94_PARTIAL_CHARGES>
15
1 -0.18
10 0.18
11 0.63
12 0.15
13 0.15
14 0.15
15 0.5
2 -0.18
3 -0.65
4 -0.57
5 0.09
6 0.18
7 -0.15
8 -0.15
9 -0.15

> <PUBCHEM_EFFECTIVE_ROTOR_COUNT>
1

> <PUBCHEM_PHARMACOPHORE_FEATURES>
4
1 3 acceptor
1 4 acceptor
3 3 4 11 anion
6 5 6 7 8 9 10 rings

> <PUBCHEM_HEAVY_ATOM_COUNT>
11

> <PUBCHEM_ATOM_DEF_STEREO_COUNT>
0

> <PUBCHEM_ATOM_UDEF_STEREO_COUNT>
0

> <PUBCHEM_BOND_DEF_STEREO_COUNT>
0

> <PUBCHEM_BOND_UDEF_STEREO_COUNT>
0

> <PUBCHEM_ISOTOPIC_ATOM_COUNT>
0

> <PUBCHEM_COMPONENT_COUNT>
1

> <PUBCHEM_CACTVS_TAUTO_COUNT>
1

> <PUBCHEM_CONFORMER_ID>
0000169B00000001

> <PUBCHEM_MMFF94_ENERGY>
29.2368

> <PUBCHEM_FEATURE_SELFOVERLAP>
20.355

> <PUBCHEM_SHAPE_FINGERPRINT>
10219947 1 18342455924465383465
12032990 46 18411408489139866895
12897270 3 18411418431746369277
13380535 21 18124022692526735701
13380535 76 18342741810352752611
14325111 11 18409730651396401837
161256 15 18266739258514026663
16945 1 18341896285873673173
19021347 11 18341611559390727407
193761 8 17907862056411445541
20588541 1 18343295964307733307
20645476 183 17560225917499164206
20645477 70 18267311009715566543
21040471 1 18413107247283798478
21501502 16 18123748922615547209
23235685 24 18272652337579940005
23402655 69 18267323091711869165
23552423 10 17984699180182253107
23559900 14 18335975386537431956
2748010 2 18052818044565151933
369184 2 16950279581204776417
5084963 1 18334003995525200684
528886 8 18411702058485942411
53812653 166 18335707113377514081
7364860 26 18190747624852133754

> <PUBCHEM_SHAPE_MULTIPOLES>
218.38
4.47
1.89
0.73
2.08
0.95
0.01
-0.6
-0.09
-0.61
0.16
-0.28
-0.06
0.19

> <PUBCHEM_SHAPE_SELFOVERLAP>
442.049

> <PUBCHEM_SHAPE_VOLUME>
129.5

> <PUBCHEM_COORDINATE_TYPE>
2
5
10

$$$$

