23724529
  -OEChem-07051213043D

 65 67  0     1  0  0  0  0  0999 V2000
    3.1396    2.0762    0.8626 P   0  0  1  0  0  0  0  0  0  0  0  0
    0.7707    3.3301    2.0764 P   0  0  2  0  0  0  0  0  0  0  0  0
   -1.8882    0.9627   -0.3815 O   0  0  0  0  0  0  0  0  0  0  0  0
    3.6504   -1.0141   -0.2877 O   0  0  0  0  0  0  0  0  0  0  0  0
   -3.8790    2.9650   -1.3902 O   0  0  0  0  0  0  0  0  0  0  0  0
   -5.4736    1.0155   -0.3437 O   0  0  0  0  0  0  0  0  0  0  0  0
    2.2999    0.8614    0.2135 O   0  0  0  0  0  0  0  0  0  0  0  0
    0.0420   -2.1198   -2.0152 O   0  0  0  0  0  0  0  0  0  0  0  0
    2.4352   -3.3600   -1.4748 O   0  0  0  0  0  0  0  0  0  0  0  0
   -0.2135    2.1697    1.5269 O   0  0  0  0  0  0  0  0  0  0  0  0
    2.2174    2.6090    2.0788 O   0  0  0  0  0  0  0  0  0  0  0  0
    3.1743   -3.8723    1.7509 O   0  0  0  0  0  0  0  0  0  0  0  0
    5.0212   -2.9795    0.7569 O   0  0  0  0  0  0  0  0  0  0  0  0
    4.3755    1.3590    1.6213 O   0  0  0  0  0  0  0  0  0  0  0  0
   -4.5526   -2.0169   -1.3345 O   0  0  0  0  0  0  0  0  0  0  0  0
    0.4120    3.4310    3.6506 O   0  0  0  0  0  0  0  0  0  0  0  0
    3.5467    3.1418   -0.1135 O   0  0  0  0  0  0  0  0  0  0  0  0
    0.7228    4.6316    1.3308 O   0  0  0  0  0  0  0  0  0  0  0  0
    2.2851    1.1560   -4.1427 O   0  0  0  0  0  0  0  0  0  0  0  0
   -2.6492   -4.6137    1.9638 O   0  0  0  0  0  0  0  0  0  0  0  0
   -3.0394   -1.0063    0.1310 N   0  0  0  0  0  0  0  0  0  0  0  0
    0.9871    0.6359   -2.2814 N   0  0  0  0  0  0  0  0  0  0  0  0
   -3.6042   -3.3082    0.3092 N   0  0  0  0  0  0  0  0  0  0  0  0
   -3.6126    2.5527   -0.0498 C   0  0  1  0  0  0  0  0  0  0  0  0
   -4.1770    1.1696    0.1961 C   0  0  2  0  0  0  0  0  0  0  0  0
   -2.1144    2.3133    0.0783 C   0  0  1  0  0  0  0  0  0  0  0  0
   -3.1501    0.2838   -0.4881 C   0  0  1  0  0  0  0  0  0  0  0  0
    1.7945   -0.4483   -1.7732 C   0  0  2  0  0  0  0  0  0  0  0  0
    0.9265   -1.5080   -1.0806 C   0  0  2  0  0  0  0  0  0  0  0  0
    1.8023   -2.5937   -0.4445 C   0  0  2  0  0  0  0  0  0  0  0  0
    2.8841    0.0720   -0.8223 C   0  0  2  0  0  0  0  0  0  0  0  0
    2.8611   -1.9475    0.4465 C   0  0  1  0  0  0  0  0  0  0  0  0
   -1.6084    2.4177    1.5108 C   0  0  0  0  0  0  0  0  0  0  0  0
    3.8199   -2.9628    0.9807 C   0  0  0  0  0  0  0  0  0  0  0  0
   -3.7879   -2.0968   -0.3708 C   0  0  0  0  0  0  0  0  0  0  0  0
   -2.1967   -1.1821    1.2224 C   0  0  0  0  0  0  0  0  0  0  0  0
    1.3051    1.3462   -3.4271 C   0  0  0  0  0  0  0  0  0  0  0  0
   -2.0320   -2.3429    1.8600 C   0  0  0  0  0  0  0  0  0  0  0  0
   -2.7778   -3.5315    1.3994 C   0  0  0  0  0  0  0  0  0  0  0  0
    0.2829    2.4043   -3.7451 C   0  0  0  0  0  0  0  0  0  0  0  0
   -4.0155    3.3143    0.6238 H   0  0  0  0  0  0  0  0  0  0  0  0
   -4.2255    0.9764    1.2746 H   0  0  0  0  0  0  0  0  0  0  0  0
   -1.5259    2.9695   -0.5730 H   0  0  0  0  0  0  0  0  0  0  0  0
   -3.3785    0.1606   -1.5537 H   0  0  0  0  0  0  0  0  0  0  0  0
    2.2851   -0.9170   -2.6363 H   0  0  0  0  0  0  0  0  0  0  0  0
    0.3112   -1.0367   -0.3069 H   0  0  0  0  0  0  0  0  0  0  0  0
    1.1741   -3.2943    0.1165 H   0  0  0  0  0  0  0  0  0  0  0  0
    3.5773    0.7047   -1.3882 H   0  0  0  0  0  0  0  0  0  0  0  0
    2.4086   -1.4334    1.3034 H   0  0  0  0  0  0  0  0  0  0  0  0
   -2.0840    1.6964    2.1793 H   0  0  0  0  0  0  0  0  0  0  0  0
   -1.8203    3.4177    1.9061 H   0  0  0  0  0  0  0  0  0  0  0  0
    0.1768    0.9208   -1.7381 H   0  0  0  0  0  0  0  0  0  0  0  0
   -3.4639    3.8356   -1.5144 H   0  0  0  0  0  0  0  0  0  0  0  0
   -5.7321    0.0862   -0.2215 H   0  0  0  0  0  0  0  0  0  0  0  0
    0.5838   -2.5580   -2.6937 H   0  0  0  0  0  0  0  0  0  0  0  0
    3.1325   -2.8142   -1.8756 H   0  0  0  0  0  0  0  0  0  0  0  0
   -1.6377   -0.3276    1.5726 H   0  0  0  0  0  0  0  0  0  0  0  0
   -4.1324   -4.1056   -0.0343 H   0  0  0  0  0  0  0  0  0  0  0  0
   -1.3634   -2.4431    2.7060 H   0  0  0  0  0  0  0  0  0  0  0  0
    0.1846    3.0919   -2.9002 H   0  0  0  0  0  0  0  0  0  0  0  0
   -0.6839    1.9346   -3.9468 H   0  0  0  0  0  0  0  0  0  0  0  0
    0.5971    2.9696   -4.6267 H   0  0  0  0  0  0  0  0  0  0  0  0
    3.7868   -4.5492    2.1101 H   0  0  0  0  0  0  0  0  0  0  0  0
    5.1534    1.0741    1.0961 H   0  0  0  0  0  0  0  0  0  0  0  0
   -0.3939    3.9184    3.9247 H   0  0  0  0  0  0  0  0  0  0  0  0
  1  7  1  0  0  0  0
  1 11  1  0  0  0  0
  1 14  1  0  0  0  0
  1 17  2  0  0  0  0
  2 10  1  0  0  0  0
  2 11  1  0  0  0  0
  2 16  1  0  0  0  0
  2 18  2  0  0  0  0
  3 26  1  0  0  0  0
  3 27  1  0  0  0  0
  4 31  1  0  0  0  0
  4 32  1  0  0  0  0
  5 24  1  0  0  0  0
  5 53  1  0  0  0  0
  6 25  1  0  0  0  0
  6 54  1  0  0  0  0
  7 31  1  0  0  0  0
  8 29  1  0  0  0  0
  8 55  1  0  0  0  0
  9 30  1  0  0  0  0
  9 56  1  0  0  0  0
 10 33  1  0  0  0  0
 12 34  1  0  0  0  0
 12 63  1  0  0  0  0
 13 34  2  0  0  0  0
 14 64  1  0  0  0  0
 15 35  2  0  0  0  0
 16 65  1  0  0  0  0
 19 37  2  0  0  0  0
 20 39  2  0  0  0  0
 21 27  1  0  0  0  0
 21 35  1  0  0  0  0
 21 36  1  0  0  0  0
 22 28  1  0  0  0  0
 22 37  1  0  0  0  0
 22 52  1  0  0  0  0
 23 35  1  0  0  0  0
 23 39  1  0  0  0  0
 23 58  1  0  0  0  0
 24 25  1  0  0  0  0
 24 26  1  0  0  0  0
 24 41  1  0  0  0  0
 25 27  1  0  0  0  0
 25 42  1  0  0  0  0
 26 33  1  0  0  0  0
 26 43  1  0  0  0  0
 27 44  1  0  0  0  0
 28 29  1  0  0  0  0
 28 31  1  0  0  0  0
 28 45  1  0  0  0  0
 29 30  1  0  0  0  0
 29 46  1  0  0  0  0
 30 32  1  0  0  0  0
 30 47  1  0  0  0  0
 31 48  1  0  0  0  0
 32 34  1  0  0  0  0
 32 49  1  0  0  0  0
 33 50  1  0  0  0  0
 33 51  1  0  0  0  0
 36 38  2  0  0  0  0
 36 57  1  0  0  0  0
 37 40  1  0  0  0  0
 38 39  1  0  0  0  0
 38 59  1  0  0  0  0
 40 60  1  0  0  0  0
 40 61  1  0  0  0  0
 40 62  1  0  0  0  0
M  END
> <PUBCHEM_COMPOUND_CID>
23724529

> <PUBCHEM_CONFORMER_RMSD>
1.4

> <PUBCHEM_CONFORMER_DIVERSEORDER>
1
329
105
407
216
88
45
247
527
598
416
434
148
499
164
473
229
340
109
261
466
286
120
245
379
284
18
254
464
237
560
56
175
4
360
146
201
436
554
468
34
472
218
279
49
66
217
102
378
119
123
503
281
307
52
168
555
208
46
82
293
266
246
12
381
397
67
537
474
83
152
430
444
117
224
228
321
331
170
9
253
80
63
7
484
393
534
158
368
451
505
220
60
288
314
151
465
92
298
76
55
483
402
230
13
149
547
262
566
427
179
244
496
355
240
278
577
47
118
196
90
372
567
29
339
174
424
19
141
390
256
22
101
51
591
200
260
87
405
206
124
127
418
395
139
15
110
161
62
30
195
249
3
375
178
519
481
23
10
85
370
145
32
100
376
142
42
96
586
475
569
21
182
295
311
543
150
292
81
189
194
115
103
68
226
494
296
171
126
134
44
154
529
143
35
487
282
250
31
583
138
353
453
263
471
542
422
72
544
310
74
114
457
539
417
513
20
563
98
156
6
536
524
478
594
177
306
538
11
495
27
521
344
345
2
91
342
14
40
39
95
423
213
16
578
5
159
78
439
243
8
396
559
17

> <PUBCHEM_MMFF94_PARTIAL_CHARGES>
51
1 1.51
10 -0.55
11 -0.54
12 -0.65
13 -0.57
14 -0.77
15 -0.57
16 -0.77
17 -0.7
18 -0.7
19 -0.57
2 1.51
20 -0.57
21 -0.47
22 -0.73
23 -0.49
24 0.28
25 0.28
26 0.28
27 0.58
28 0.3
29 0.28
3 -0.56
30 0.28
31 0.56
32 0.34
33 0.28
34 0.66
35 0.69
36 -0.04
37 0.57
38 -0.14
39 0.62
4 -0.56
40 0.06
5 -0.68
52 0.37
53 0.4
54 0.4
55 0.4
56 0.4
57 0.15
58 0.37
59 0.15
6 -0.68
63 0.5
64 0.5
65 0.5
7 -0.55
8 -0.68
9 -0.68

> <PUBCHEM_EFFECTIVE_ROTOR_COUNT>
13.2

> <PUBCHEM_PHARMACOPHORE_FEATURES>
25
1 12 acceptor
1 13 acceptor
1 14 acceptor
1 15 acceptor
1 16 acceptor
1 17 acceptor
1 18 acceptor
1 19 acceptor
1 20 acceptor
1 22 donor
1 23 donor
1 3 acceptor
1 4 acceptor
1 5 acceptor
1 5 donor
1 6 acceptor
1 6 donor
1 8 acceptor
1 8 donor
1 9 acceptor
1 9 donor
3 12 13 34 anion
5 3 24 25 26 27 rings
6 21 23 35 36 38 39 rings
6 4 28 29 30 31 32 rings

> <PUBCHEM_HEAVY_ATOM_COUNT>
40

> <PUBCHEM_ATOM_DEF_STEREO_COUNT>
9

> <PUBCHEM_ATOM_UDEF_STEREO_COUNT>
0

> <PUBCHEM_BOND_DEF_STEREO_COUNT>
0

> <PUBCHEM_BOND_UDEF_STEREO_COUNT>
0

> <PUBCHEM_ISOTOPIC_ATOM_COUNT>
0

> <PUBCHEM_COMPONENT_COUNT>
1

> <PUBCHEM_CACTVS_TAUTO_COUNT>
6

> <PUBCHEM_CONFORMER_ID>
016A01F100000001

> <PUBCHEM_MMFF94_ENERGY>
50.2118

> <PUBCHEM_FEATURE_SELFOVERLAP>
126.98

> <PUBCHEM_SHAPE_FINGERPRINT>
12156800 1 15676587367411348468
12633257 1 18190460660801243305
12788726 201 18046338901562620410
140371 6 18044371871213507338
17974551 9 18410865377244773143
20764821 26 18261102002432277777
3493558 16 18343581816030179160
5309563 4 17762335813029483299
56638632 33 18337969989701073752

> <PUBCHEM_SHAPE_MULTIPOLES>
710.29
8.58
6.27
3.3
2.91
1.65
-2.28
3.58
0.68
-0.2
3.76
-2.02
-2.71
0.86

> <PUBCHEM_SHAPE_SELFOVERLAP>
1455.97

> <PUBCHEM_SHAPE_VOLUME>
409.2

> <PUBCHEM_COORDINATE_TYPE>
2
5
10

$$$$

