25195328
  -OEChem-07051213123D

 40 43  0     1  0  0  0  0  0999 V2000
    1.9613   -0.8517   -2.2254 O   0  0  0  0  0  0  0  0  0  0  0  0
    1.5227    1.9215    1.6678 O   0  0  0  0  0  0  0  0  0  0  0  0
    0.2533   -3.0482    0.6657 O   0  0  0  0  0  0  0  0  0  0  0  0
   -2.1126   -2.3513    0.5440 O   0  0  0  0  0  0  0  0  0  0  0  0
   -4.5248   -1.5188    0.5154 O   0  0  0  0  0  0  0  0  0  0  0  0
    2.3902   -0.5074   -0.8991 C   0  0  1  0  0  0  0  0  0  0  0  0
    1.6123    0.7387   -0.4510 C   0  0  1  0  0  0  0  0  0  0  0  0
    2.1194   -1.7001    0.0279 C   0  0  0  0  0  0  0  0  0  0  0  0
    3.8974   -0.1989   -0.9911 C   0  0  0  0  0  0  0  0  0  0  0  0
    0.1375    0.4307   -0.2903 C   0  0  0  0  0  0  0  0  0  0  0  0
   -0.3164   -0.8455    0.0591 C   0  0  0  0  0  0  0  0  0  0  0  0
    2.2025    1.3333    0.8273 C   0  0  0  0  0  0  0  0  0  0  0  0
    0.6463   -1.9545    0.2668 C   0  0  0  0  0  0  0  0  0  0  0  0
    4.4472    0.5687    0.1804 C   0  0  0  0  0  0  0  0  0  0  0  0
    3.6710    1.2573    1.0287 C   0  0  0  0  0  0  0  0  0  0  0  0
   -0.8049    1.4563   -0.4775 C   0  0  0  0  0  0  0  0  0  0  0  0
   -1.6872   -1.0932    0.2146 C   0  0  0  0  0  0  0  0  0  0  0  0
   -2.1817    1.2242   -0.3255 C   0  0  0  0  0  0  0  0  0  0  0  0
   -2.6286   -0.0687    0.0250 C   0  0  0  0  0  0  0  0  0  0  0  0
    5.9387    0.5289    0.3471 C   0  0  0  0  0  0  0  0  0  0  0  0
   -3.1228    2.2497   -0.5137 C   0  0  0  0  0  0  0  0  0  0  0  0
   -4.0058   -0.3011    0.1769 C   0  0  0  0  0  0  0  0  0  0  0  0
   -4.9278    0.7282   -0.0141 C   0  0  0  0  0  0  0  0  0  0  0  0
   -4.4869    2.0020   -0.3589 C   0  0  0  0  0  0  0  0  0  0  0  0
    1.7087    1.5058   -1.2334 H   0  0  0  0  0  0  0  0  0  0  0  0
    2.5282   -2.6129   -0.4234 H   0  0  0  0  0  0  0  0  0  0  0  0
    2.5853   -1.5647    1.0102 H   0  0  0  0  0  0  0  0  0  0  0  0
    4.1050    0.3735   -1.9055 H   0  0  0  0  0  0  0  0  0  0  0  0
    4.4451   -1.1437   -1.1076 H   0  0  0  0  0  0  0  0  0  0  0  0
    4.0823    1.7952    1.8759 H   0  0  0  0  0  0  0  0  0  0  0  0
   -0.4552    2.4531   -0.7442 H   0  0  0  0  0  0  0  0  0  0  0  0
    2.4688   -1.6304   -2.5116 H   0  0  0  0  0  0  0  0  0  0  0  0
    6.2758   -0.5005    0.5060 H   0  0  0  0  0  0  0  0  0  0  0  0
    6.2756    1.1256    1.2013 H   0  0  0  0  0  0  0  0  0  0  0  0
    6.4304    0.9221   -0.5486 H   0  0  0  0  0  0  0  0  0  0  0  0
   -2.8003    3.2532   -0.7835 H   0  0  0  0  0  0  0  0  0  0  0  0
   -1.4641   -3.0131    0.2580 H   0  0  0  0  0  0  0  0  0  0  0  0
   -5.9946    0.5551    0.1022 H   0  0  0  0  0  0  0  0  0  0  0  0
   -5.2040    2.8040   -0.5075 H   0  0  0  0  0  0  0  0  0  0  0  0
   -5.4940   -1.4613    0.5676 H   0  0  0  0  0  0  0  0  0  0  0  0
  1  6  1  0  0  0  0
  1 32  1  0  0  0  0
  2 12  2  0  0  0  0
  3 13  2  0  0  0  0
  4 17  1  0  0  0  0
  4 37  1  0  0  0  0
  5 22  1  0  0  0  0
  5 40  1  0  0  0  0
  6  7  1  0  0  0  0
  6  8  1  0  0  0  0
  6  9  1  0  0  0  0
  7 10  1  0  0  0  0
  7 12  1  0  0  0  0
  7 25  1  0  0  0  0
  8 13  1  0  0  0  0
  8 26  1  0  0  0  0
  8 27  1  0  0  0  0
  9 14  1  0  0  0  0
  9 28  1  0  0  0  0
  9 29  1  0  0  0  0
 10 11  2  0  0  0  0
 10 16  1  0  0  0  0
 11 13  1  0  0  0  0
 11 17  1  0  0  0  0
 12 15  1  0  0  0  0
 14 15  2  0  0  0  0
 14 20  1  0  0  0  0
 15 30  1  0  0  0  0
 16 18  2  0  0  0  0
 16 31  1  0  0  0  0
 17 19  2  0  0  0  0
 18 19  1  0  0  0  0
 18 21  1  0  0  0  0
 19 22  1  0  0  0  0
 20 33  1  0  0  0  0
 20 34  1  0  0  0  0
 20 35  1  0  0  0  0
 21 24  2  0  0  0  0
 21 36  1  0  0  0  0
 22 23  2  0  0  0  0
 23 24  1  0  0  0  0
 23 38  1  0  0  0  0
 24 39  1  0  0  0  0
M  END
> <PUBCHEM_COMPOUND_CID>
25195328

> <PUBCHEM_CONFORMER_RMSD>
0.6

> <PUBCHEM_CONFORMER_DIVERSEORDER>
1
3
2

> <PUBCHEM_MMFF94_PARTIAL_CHARGES>
30
1 -0.68
10 -0.14
11 0.09
12 0.49
13 0.42
14 -0.28
15 -0.14
16 -0.15
17 0.08
2 -0.57
20 0.14
21 -0.15
22 0.08
23 -0.15
24 -0.15
3 -0.57
30 0.15
31 0.15
32 0.4
36 0.15
37 0.45
38 0.15
39 0.15
4 -0.53
40 0.45
5 -0.53
6 0.28
7 0.2
8 0.06
9 0.14

> <PUBCHEM_EFFECTIVE_ROTOR_COUNT>
0.4

> <PUBCHEM_PHARMACOPHORE_FEATURES>
10
1 1 acceptor
1 1 donor
1 2 acceptor
1 3 acceptor
1 4 donor
1 5 donor
6 10 11 16 17 18 19 rings
6 18 19 21 22 23 24 rings
6 6 7 8 10 11 13 rings
6 6 7 9 12 14 15 rings

> <PUBCHEM_HEAVY_ATOM_COUNT>
24

> <PUBCHEM_ATOM_DEF_STEREO_COUNT>
1

> <PUBCHEM_ATOM_UDEF_STEREO_COUNT>
1

> <PUBCHEM_BOND_DEF_STEREO_COUNT>
0

> <PUBCHEM_BOND_UDEF_STEREO_COUNT>
0

> <PUBCHEM_ISOTOPIC_ATOM_COUNT>
0

> <PUBCHEM_COMPONENT_COUNT>
1

> <PUBCHEM_CACTVS_TAUTO_COUNT>
629

> <PUBCHEM_CONFORMER_ID>
0180734000000001

> <PUBCHEM_MMFF94_ENERGY>
70.0407

> <PUBCHEM_FEATURE_SELFOVERLAP>
50.863

> <PUBCHEM_SHAPE_FINGERPRINT>
10319926 262 18339657672105310210
10366900 7 18335433369632430673
10411042 1 17693089669891995227
10498660 4 18342739662916583941
10646746 165 18411981377241396861
10967382 1 18198340852564576295
11370993 70 18413392050696646261
11578080 2 16771282554262713655
12011746 2 18410579478457080716
12035758 1 18334859360085098480
12236239 1 16988563485679234316
12403259 226 17973730172910394091
12403259 415 18260833648628564240
12596602 18 16630240303697129712
12788726 201 16912817996192337778
13140716 1 18054780681716622099
13224815 77 18341896316065038325
13402501 40 18335422348276792352
14178342 30 18201999945572981637
14787075 74 18188776032946877437
14790565 3 18271238327257485284
15042514 8 18127125265195709235
15196674 1 18341331183883297111
15375358 24 18335138704293819164
15536298 74 18338797935052557199
15788980 27 16128659664773298365
15927050 60 18412266125801904122
16945 1 18271794714236471431
17349148 13 17703790289009438535
17980427 23 17561357362066121452
1813 80 16056604313515550286
18186145 218 18261384598606591657
200 152 16588024619157290297
20691752 17 16845005844066013227
21033648 29 18261403212715557632
21267235 1 18342449297536762531
21279426 13 18336825415962074166
21421861 104 17700137882906313640
22393880 68 18339077223927909279
23402539 116 18410863131003075844
23557571 272 18335977588742493439
23559900 14 18337383933677999302
2748010 2 18267573607809851031
34934 24 18334862752908756373
350125 39 18340483374598180633
3524813 1 18335144171782230497
4340502 62 18411980303478525837
495365 180 17386018234532325368
5104073 3 18271239555770333731
5265222 85 18268982104338849198
7226269 152 18260554429010779152
7364860 26 18193842767158729822
7808743 9 18198621034777645692
9709674 26 18408037394899776951
9981440 41 18202842171353797531

> <PUBCHEM_SHAPE_MULTIPOLES>
464.56
9.88
2.46
1.09
0.61
0.97
0.21
-3.42
-0.45
-1.21
-0.49
0.85
-0.09
1.23

> <PUBCHEM_SHAPE_SELFOVERLAP>
1049.242

> <PUBCHEM_SHAPE_VOLUME>
240

> <PUBCHEM_COORDINATE_TYPE>
2
5
10

$$$$

