807
  -OEChem-07051212452D

  2  1  0     0  0  0  0  0  0999 V2000
    2.0000    0.0000    0.0000 I   0  0  0  0  0  0  0  0  0  0  0  0
    3.0000    0.0000    0.0000 I   0  0  0  0  0  0  0  0  0  0  0  0
  1  2  1  0  0  0  0
M  END
> <PUBCHEM_COMPOUND_CID>
807

> <PUBCHEM_COMPOUND_CANONICALIZED>
1

> <PUBCHEM_CACTVS_COMPLEXITY>
0

> <PUBCHEM_CACTVS_HBOND_ACCEPTOR>
0

> <PUBCHEM_CACTVS_HBOND_DONOR>
0

> <PUBCHEM_CACTVS_ROTATABLE_BOND>
0

> <PUBCHEM_CACTVS_SUBSKEYS>
AAADcQAAAAAAAwAAAAAAAAAAAAAAAAAAAAAAAAAAAAAAAAAAAAAAAAAAAAAAAAAAAAAAAAAAAAAAAAAAAAAAAAAAAAAAAAAAAAAAAAAAAAAAAAAAAAAAAAAAAAAAAAAAAAAAAAAAAAAAAAAAAAAAAAAAAA==

> <PUBCHEM_IUPAC_OPENEYE_NAME>
molecular iodine

> <PUBCHEM_IUPAC_CAS_NAME>
molecular iodine

> <PUBCHEM_IUPAC_NAME>
molecular iodine

> <PUBCHEM_IUPAC_SYSTEMATIC_NAME>
molecular iodine

> <PUBCHEM_IUPAC_TRADITIONAL_NAME>
molecular iodine

> <PUBCHEM_IUPAC_INCHI>
InChI=1S/I2/c1-2

> <PUBCHEM_IUPAC_INCHIKEY>
PNDPGZBMCMUPRI-UHFFFAOYSA-N

> <PUBCHEM_XLOGP3_AA>
1.7

> <PUBCHEM_EXACT_MASS>
253.808946

> <PUBCHEM_MOLECULAR_FORMULA>
I2

> <PUBCHEM_MOLECULAR_WEIGHT>
253.80894

> <PUBCHEM_OPENEYE_CAN_SMILES>
II

> <PUBCHEM_OPENEYE_ISO_SMILES>
II

> <PUBCHEM_CACTVS_TPSA>
0

> <PUBCHEM_MONOISOTOPIC_WEIGHT>
253.808946

> <PUBCHEM_TOTAL_CHARGE>
0

> <PUBCHEM_HEAVY_ATOM_COUNT>
2

> <PUBCHEM_ATOM_DEF_STEREO_COUNT>
0

> <PUBCHEM_ATOM_UDEF_STEREO_COUNT>
0

> <PUBCHEM_BOND_DEF_STEREO_COUNT>
0

> <PUBCHEM_BOND_UDEF_STEREO_COUNT>
0

> <PUBCHEM_ISOTOPIC_ATOM_COUNT>
0

> <PUBCHEM_COMPONENT_COUNT>
1

> <PUBCHEM_CACTVS_TAUTO_COUNT>
1

> <PUBCHEM_COORDINATE_TYPE>
1
5
255

$$$$

