255438
  -OEChem-07051213063D

 55 58  0     1  0  0  0  0  0999 V2000
   -4.7119    1.1592    0.0884 O   0  0  0  0  0  0  0  0  0  0  0  0
   -4.7738   -1.3978   -0.7742 O   0  0  0  0  0  0  0  0  0  0  0  0
    6.4077   -0.0686    0.2419 O   0  0  0  0  0  0  0  0  0  0  0  0
   -1.5579   -0.6714    0.3860 C   0  0  2  0  0  0  0  0  0  0  0  0
   -2.2979    0.5936   -0.0859 C   0  0  2  0  0  0  0  0  0  0  0  0
   -0.1289   -0.7654   -0.1568 C   0  0  1  0  0  0  0  0  0  0  0  0
    0.6788    0.4889    0.2895 C   0  0  1  0  0  0  0  0  0  0  0  0
    2.1546    0.4583   -0.2779 C   0  0  2  0  0  0  0  0  0  0  0  0
   -1.5466    1.8088    0.4761 C   0  0  0  0  0  0  0  0  0  0  0  0
   -0.0763    1.8208    0.0216 C   0  0  0  0  0  0  0  0  0  0  0  0
   -3.6713    0.3326    0.5686 C   0  0  2  0  0  0  0  0  0  0  0  0
   -2.5401   -1.8031    0.0854 C   0  0  0  0  0  0  0  0  0  0  0  0
   -3.9271   -1.1757    0.3446 C   0  0  2  0  0  0  0  0  0  0  0  0
    0.5599   -2.0438    0.3434 C   0  0  0  0  0  0  0  0  0  0  0  0
    2.7735   -0.9369   -0.1132 C   0  0  0  0  0  0  0  0  0  0  0  0
   -2.4281    0.7305   -1.6223 C   0  0  0  0  0  0  0  0  0  0  0  0
    3.0053    1.4919    0.5193 C   0  0  0  0  0  0  0  0  0  0  0  0
    2.0455   -2.0295    0.1761 C   0  0  0  0  0  0  0  0  0  0  0  0
    2.1873    0.8200   -1.7824 C   0  0  0  0  0  0  0  0  0  0  0  0
    4.2708   -1.0527   -0.2837 C   0  0  0  0  0  0  0  0  0  0  0  0
    4.5104    1.3893    0.2768 C   0  0  0  0  0  0  0  0  0  0  0  0
    5.0194   -0.0206    0.5549 C   0  0  2  0  0  0  0  0  0  0  0  0
   -5.9534    0.8714    0.7238 C   0  0  0  0  0  0  0  0  0  0  0  0
   -1.4726   -0.6302    1.4854 H   0  0  0  0  0  0  0  0  0  0  0  0
   -0.1609   -0.8100   -1.2515 H   0  0  0  0  0  0  0  0  0  0  0  0
    0.7577    0.4180    1.3868 H   0  0  0  0  0  0  0  0  0  0  0  0
   -1.5709    1.7956    1.5735 H   0  0  0  0  0  0  0  0  0  0  0  0
   -2.0356    2.7409    0.1683 H   0  0  0  0  0  0  0  0  0  0  0  0
   -0.0482    2.0723   -1.0422 H   0  0  0  0  0  0  0  0  0  0  0  0
    0.4300    2.6422    0.5413 H   0  0  0  0  0  0  0  0  0  0  0  0
   -3.5661    0.5057    1.6501 H   0  0  0  0  0  0  0  0  0  0  0  0
   -2.4415   -2.1616   -0.9455 H   0  0  0  0  0  0  0  0  0  0  0  0
   -2.3695   -2.6570    0.7497 H   0  0  0  0  0  0  0  0  0  0  0  0
   -4.4064   -1.6180    1.2248 H   0  0  0  0  0  0  0  0  0  0  0  0
    0.1530   -2.9052   -0.2000 H   0  0  0  0  0  0  0  0  0  0  0  0
    0.3433   -2.2091    1.4062 H   0  0  0  0  0  0  0  0  0  0  0  0
   -1.4599    0.7866   -2.1267 H   0  0  0  0  0  0  0  0  0  0  0  0
   -2.9645   -0.1076   -2.0756 H   0  0  0  0  0  0  0  0  0  0  0  0
   -2.9776    1.6430   -1.8809 H   0  0  0  0  0  0  0  0  0  0  0  0
    2.8289    1.3601    1.5957 H   0  0  0  0  0  0  0  0  0  0  0  0
    2.6890    2.5136    0.2781 H   0  0  0  0  0  0  0  0  0  0  0  0
    2.5436   -2.9880    0.3010 H   0  0  0  0  0  0  0  0  0  0  0  0
    1.9012    1.8626   -1.9545 H   0  0  0  0  0  0  0  0  0  0  0  0
    3.1860    0.7048   -2.2168 H   0  0  0  0  0  0  0  0  0  0  0  0
    1.5142    0.1855   -2.3680 H   0  0  0  0  0  0  0  0  0  0  0  0
    4.6311   -2.0544   -0.0158 H   0  0  0  0  0  0  0  0  0  0  0  0
    4.5320   -0.9340   -1.3429 H   0  0  0  0  0  0  0  0  0  0  0  0
    4.7580    1.6864   -0.7498 H   0  0  0  0  0  0  0  0  0  0  0  0
    5.0391    2.1034    0.9204 H   0  0  0  0  0  0  0  0  0  0  0  0
    4.9091   -0.2472    1.6225 H   0  0  0  0  0  0  0  0  0  0  0  0
   -4.8625   -2.3598   -0.8856 H   0  0  0  0  0  0  0  0  0  0  0  0
   -5.8491    0.8885    1.8135 H   0  0  0  0  0  0  0  0  0  0  0  0
   -6.3791   -0.0803    0.4001 H   0  0  0  0  0  0  0  0  0  0  0  0
   -6.6596    1.6578    0.4411 H   0  0  0  0  0  0  0  0  0  0  0  0
    6.7188   -0.9709    0.4281 H   0  0  0  0  0  0  0  0  0  0  0  0
  1 11  1  0  0  0  0
  1 23  1  0  0  0  0
  2 13  1  0  0  0  0
  2 51  1  0  0  0  0
  3 22  1  0  0  0  0
  3 55  1  0  0  0  0
  4  5  1  0  0  0  0
  4  6  1  0  0  0  0
  4 12  1  0  0  0  0
  4 24  1  0  0  0  0
  5  9  1  0  0  0  0
  5 11  1  0  0  0  0
  5 16  1  0  0  0  0
  6  7  1  0  0  0  0
  6 14  1  0  0  0  0
  6 25  1  0  0  0  0
  7  8  1  0  0  0  0
  7 10  1  0  0  0  0
  7 26  1  0  0  0  0
  8 15  1  0  0  0  0
  8 17  1  0  0  0  0
  8 19  1  0  0  0  0
  9 10  1  0  0  0  0
  9 27  1  0  0  0  0
  9 28  1  0  0  0  0
 10 29  1  0  0  0  0
 10 30  1  0  0  0  0
 11 13  1  0  0  0  0
 11 31  1  0  0  0  0
 12 13  1  0  0  0  0
 12 32  1  0  0  0  0
 12 33  1  0  0  0  0
 13 34  1  0  0  0  0
 14 18  1  0  0  0  0
 14 35  1  0  0  0  0
 14 36  1  0  0  0  0
 15 18  2  0  0  0  0
 15 20  1  0  0  0  0
 16 37  1  0  0  0  0
 16 38  1  0  0  0  0
 16 39  1  0  0  0  0
 17 21  1  0  0  0  0
 17 40  1  0  0  0  0
 17 41  1  0  0  0  0
 18 42  1  0  0  0  0
 19 43  1  0  0  0  0
 19 44  1  0  0  0  0
 19 45  1  0  0  0  0
 20 22  1  0  0  0  0
 20 46  1  0  0  0  0
 20 47  1  0  0  0  0
 21 22  1  0  0  0  0
 21 48  1  0  0  0  0
 21 49  1  0  0  0  0
 22 50  1  0  0  0  0
 23 52  1  0  0  0  0
 23 53  1  0  0  0  0
 23 54  1  0  0  0  0
M  END
> <PUBCHEM_COMPOUND_CID>
255438

> <PUBCHEM_CONFORMER_RMSD>
0.6

> <PUBCHEM_CONFORMER_DIVERSEORDER>
1

> <PUBCHEM_MMFF94_PARTIAL_CHARGES>
15
1 -0.56
11 0.28
13 0.28
14 0.14
15 -0.28
18 -0.29
2 -0.68
20 0.14
22 0.28
23 0.28
3 -0.68
42 0.15
51 0.4
55 0.4
8 0.14

> <PUBCHEM_EFFECTIVE_ROTOR_COUNT>
3

> <PUBCHEM_PHARMACOPHORE_FEATURES>
9
1 1 acceptor
1 2 acceptor
1 2 donor
1 3 acceptor
1 3 donor
5 4 5 11 12 13 rings
6 4 5 6 7 9 10 rings
6 6 7 8 14 15 18 rings
6 8 15 17 20 21 22 rings

> <PUBCHEM_HEAVY_ATOM_COUNT>
23

> <PUBCHEM_ATOM_DEF_STEREO_COUNT>
8

> <PUBCHEM_ATOM_UDEF_STEREO_COUNT>
0

> <PUBCHEM_BOND_DEF_STEREO_COUNT>
0

> <PUBCHEM_BOND_UDEF_STEREO_COUNT>
0

> <PUBCHEM_ISOTOPIC_ATOM_COUNT>
0

> <PUBCHEM_COMPONENT_COUNT>
1

> <PUBCHEM_CACTVS_TAUTO_COUNT>
1

> <PUBCHEM_CONFORMER_ID>
0003E5CE00000001

> <PUBCHEM_MMFF94_ENERGY>
83.4802

> <PUBCHEM_FEATURE_SELFOVERLAP>
45.771

> <PUBCHEM_SHAPE_FINGERPRINT>
10906281 52 18268972280762296810
11089746 13 17676212376900482097
11132069 177 18343299254115408547
12107183 9 17614274893763245963
12166972 35 18131631171352146156
12236239 1 17676489471073483779
12403259 226 18411707620991226292
12403259 415 18343311361845059156
12403814 3 17775567537889706485
12633257 1 17132110221463051617
12788726 201 17168702076210852233
12838862 33 18339378429815682777
128620 24 18413951680592881582
13140716 1 18268425746094928576
13224815 77 18411423907655669694
13583140 156 13840270295097495391
13862211 1 18411423886566169538
14341114 176 18340200890530852922
14787075 74 18337394838082888394
14790565 3 18409443665839708401
15196674 1 18409729543073209051
15536298 74 18335417980553307090
15788980 27 18272368663516754769
16945 1 18195253436508630226
17349148 13 18202848751306478032
1813 80 17132109160564003492
19141452 34 18410009923360740871
200 152 18261115158006892591
21033648 29 18270981097418600520
21267235 1 18410567358085946483
21421861 104 18058736951780698794
21709351 56 18343308049913149116
22182313 1 17916590989098488461
23402539 116 18260834782267425332
23557571 272 18186798045904090582
23559900 14 18407760322639058464
26918003 58 18408041814320865184
296302 2 18040714757678519023
335352 9 18410291419284761068
34797466 226 16371000737713110632
34934 24 18408606980793837787
350125 39 18412260636600785500
351380 180 18334858307807469936
3545911 37 18412261761285715384
3680242 22 18341614866794926082
4214541 1 18409167701395397457
4340502 62 18341043086536378275
474 4 17989478615314731683
5104073 3 18411136917977868683
542803 24 18060699477020184660
9709674 26 18409722976190006886

> <PUBCHEM_SHAPE_MULTIPOLES>
455.72
11.59
2.05
1
0.43
0.38
0.41
-0.9
-1.61
-0.15
-0.14
-0.13
-0.23
-0.15

> <PUBCHEM_SHAPE_SELFOVERLAP>
968.461

> <PUBCHEM_SHAPE_VOLUME>
252.8

> <PUBCHEM_COORDINATE_TYPE>
2
5
10

$$$$

