24892735
  -OEChem-07051212472D

 69 74  0     1  0  0  0  0  0999 V2000
    5.6092    2.7612    0.0000 O   0  0  0  0  0  0  0  0  0  0  0  0
    2.8641   -2.0557    0.0000 O   0  0  0  0  0  0  0  0  0  0  0  0
    6.3127    0.0620    0.0000 O   0  0  0  0  0  0  0  0  0  0  0  0
    3.7817    0.4997    0.0000 O   0  0  0  0  0  0  0  0  0  0  0  0
    8.6146    3.2741    0.0000 O   0  0  0  0  0  0  0  0  0  0  0  0
    5.5301    0.4651    0.0000 O   0  0  0  0  0  0  0  0  0  0  0  0
    5.5301   -3.5349    0.0000 O   0  0  0  0  0  0  0  0  0  0  0  0
    9.1803   -0.8366    0.0000 O   0  0  0  0  0  0  0  0  0  0  0  0
    7.2785   -3.5695    0.0000 O   0  0  0  0  0  0  0  0  0  0  0  0
   10.2758    2.7278    0.0000 O   0  0  0  0  0  0  0  0  0  0  0  0
   10.9442   -0.7484    0.0000 O   0  0  0  0  0  0  0  0  0  0  0  0
    6.9696    1.2019    0.0000 C   0  0  0  0  0  0  0  0  0  0  0  0
    5.9491    0.9934    0.0000 C   0  0  1  0  0  0  0  0  0  0  0  0
    7.3008    2.1455    0.0000 C   0  0  0  0  0  0  0  0  0  0  0  0
    7.6212    0.4433    0.0000 C   0  0  0  0  0  0  0  0  0  0  0  0
    5.2643    1.7783    0.0000 C   0  0  1  0  0  0  0  0  0  0  0  0
    6.6343    2.9460    0.0000 C   0  0  1  0  0  0  0  0  0  0  0  0
    7.2901   -0.5002    0.0000 C   0  0  0  0  0  0  0  0  0  0  0  0
    4.6641   -1.0349    0.0000 C   0  0  0  0  0  0  0  0  0  0  0  0
    3.7702   -0.5002    0.0000 C   0  0  1  0  0  0  0  0  0  0  0  0
    6.3961   -1.0349    0.0000 C   0  0  0  0  0  0  0  0  0  0  0  0
    4.6641   -2.0349    0.0000 C   0  0  0  0  0  0  0  0  0  0  0  0
    8.6040    0.6284    0.0000 C   0  0  0  0  0  0  0  0  0  0  0  0
    2.8641   -1.0141    0.0000 C   0  0  1  0  0  0  0  0  0  0  0  0
    3.7702   -2.5696    0.0000 C   0  0  1  0  0  0  0  0  0  0  0  0
    8.2835    2.3305    0.0000 C   0  0  0  0  0  0  0  0  0  0  0  0
    8.9351    1.5720    0.0000 C   0  0  0  0  0  0  0  0  0  0  0  0
    6.3961   -2.0349    0.0000 C   0  0  0  0  0  0  0  0  0  0  0  0
    5.5301   -0.5349    0.0000 C   0  0  0  0  0  0  0  0  0  0  0  0
    5.5301   -2.5349    0.0000 C   0  0  0  0  0  0  0  0  0  0  0  0
    4.2823    1.5895    0.0000 C   0  0  0  0  0  0  0  0  0  0  0  0
    6.9763    3.8857    0.0000 C   0  0  0  0  0  0  0  0  0  0  0  0
    8.1962   -1.0141    0.0000 C   0  0  0  0  0  0  0  0  0  0  0  0
    7.2901   -2.5696    0.0000 C   0  0  0  0  0  0  0  0  0  0  0  0
    9.2704   -0.1721    0.0000 C   0  0  0  0  0  0  0  0  0  0  0  0
    2.0000   -0.5108    0.0000 C   0  0  0  0  0  0  0  0  0  0  0  0
    3.7817   -3.5695    0.0000 C   0  0  0  0  0  0  0  0  0  0  0  0
    9.9556    1.7804    0.0000 C   0  0  0  0  0  0  0  0  0  0  0  0
    8.1962   -2.0557    0.0000 C   0  0  0  0  0  0  0  0  0  0  0  0
   10.2955    0.0127    0.0000 C   0  0  0  0  0  0  0  0  0  0  0  0
   10.6404    0.9956    0.0000 C   0  0  0  0  0  0  0  0  0  0  0  0
    5.4188    0.6721    0.0000 H   0  0  0  0  0  0  0  0  0  0  0  0
    4.8594    2.2478    0.0000 H   0  0  0  0  0  0  0  0  0  0  0  0
    6.2348    3.4202    0.0000 H   0  0  0  0  0  0  0  0  0  0  0  0
    3.2362   -0.1851    0.0000 H   0  0  0  0  0  0  0  0  0  0  0  0
    2.3266   -1.3231    0.0000 H   0  0  0  0  0  0  0  0  0  0  0  0
    3.2362   -2.8847    0.0000 H   0  0  0  0  0  0  0  0  0  0  0  0
    4.1652    2.1983    0.0000 H   0  0  0  0  0  0  0  0  0  0  0  0
    3.6734    1.4724    0.0000 H   0  0  0  0  0  0  0  0  0  0  0  0
    4.3993    0.9806    0.0000 H   0  0  0  0  0  0  0  0  0  0  0  0
    7.5589    3.6736    0.0000 H   0  0  0  0  0  0  0  0  0  0  0  0
    7.1884    4.4683    0.0000 H   0  0  0  0  0  0  0  0  0  0  0  0
    6.3937    4.0977    0.0000 H   0  0  0  0  0  0  0  0  0  0  0  0
    9.0584   -0.7548    0.0000 H   0  0  0  0  0  0  0  0  0  0  0  0
    2.3121    0.0250    0.0000 H   0  0  0  0  0  0  0  0  0  0  0  0
    1.4643   -0.1987    0.0000 H   0  0  0  0  0  0  0  0  0  0  0  0
    1.6879   -1.0465    0.0000 H   0  0  0  0  0  0  0  0  0  0  0  0
    3.1618   -3.5767    0.0000 H   0  0  0  0  0  0  0  0  0  0  0  0
    3.7889   -4.1895    0.0000 H   0  0  0  0  0  0  0  0  0  0  0  0
    4.4017   -3.5623    0.0000 H   0  0  0  0  0  0  0  0  0  0  0  0
    8.7319   -2.3678    0.0000 H   0  0  0  0  0  0  0  0  0  0  0  0
    6.8903    0.2875    0.0000 H   0  0  0  0  0  0  0  0  0  0  0  0
    3.2484    0.8159    0.0000 H   0  0  0  0  0  0  0  0  0  0  0  0
   11.2493    1.1126    0.0000 H   0  0  0  0  0  0  0  0  0  0  0  0
    8.2106    3.7444    0.0000 H   0  0  0  0  0  0  0  0  0  0  0  0
    9.5806   -1.3101    0.0000 H   0  0  0  0  0  0  0  0  0  0  0  0
    7.8118   -3.8857    0.0000 H   0  0  0  0  0  0  0  0  0  0  0  0
   10.8838    2.8495    0.0000 H   0  0  0  0  0  0  0  0  0  0  0  0
   11.5539   -0.6360    0.0000 H   0  0  0  0  0  0  0  0  0  0  0  0
  1 16  1  0  0  0  0
  1 17  1  0  0  0  0
  2 24  1  0  0  0  0
  2 25  1  0  0  0  0
 13  3  1  6  0  0  0
  3 62  1  0  0  0  0
 20  4  1  1  0  0  0
  4 63  1  0  0  0  0
  5 26  1  0  0  0  0
  5 65  1  0  0  0  0
  6 29  2  0  0  0  0
  7 30  2  0  0  0  0
  8 33  1  0  0  0  0
  8 66  1  0  0  0  0
  9 34  1  0  0  0  0
  9 67  1  0  0  0  0
 10 38  1  0  0  0  0
 10 68  1  0  0  0  0
 11 40  1  0  0  0  0
 11 69  1  0  0  0  0
 12 13  1  0  0  0  0
 12 14  1  0  0  0  0
 12 15  2  0  0  0  0
 13 16  1  0  0  0  0
 13 42  1  0  0  0  0
 14 17  1  0  0  0  0
 14 26  2  0  0  0  0
 15 18  1  0  0  0  0
 15 23  1  0  0  0  0
 16 31  1  1  0  0  0
 16 43  1  0  0  0  0
 17 32  1  6  0  0  0
 17 44  1  0  0  0  0
 18 21  2  0  0  0  0
 18 33  1  0  0  0  0
 19 20  1  0  0  0  0
 19 22  2  0  0  0  0
 19 29  1  0  0  0  0
 20 24  1  0  0  0  0
 20 45  1  0  0  0  0
 21 28  1  0  0  0  0
 21 29  1  0  0  0  0
 22 25  1  0  0  0  0
 22 30  1  0  0  0  0
 23 27  2  0  0  0  0
 23 35  1  0  0  0  0
 24 36  1  6  0  0  0
 24 46  1  0  0  0  0
 25 37  1  1  0  0  0
 25 47  1  0  0  0  0
 26 27  1  0  0  0  0
 27 38  1  0  0  0  0
 28 30  1  0  0  0  0
 28 34  2  0  0  0  0
 31 48  1  0  0  0  0
 31 49  1  0  0  0  0
 31 50  1  0  0  0  0
 32 51  1  0  0  0  0
 32 52  1  0  0  0  0
 32 53  1  0  0  0  0
 33 39  2  0  0  0  0
 34 39  1  0  0  0  0
 35 40  2  0  0  0  0
 35 54  1  0  0  0  0
 36 55  1  0  0  0  0
 36 56  1  0  0  0  0
 36 57  1  0  0  0  0
 37 58  1  0  0  0  0
 37 59  1  0  0  0  0
 37 60  1  0  0  0  0
 38 41  2  0  0  0  0
 39 61  1  0  0  0  0
 40 41  1  0  0  0  0
 41 64  1  0  0  0  0
M  END
> <PUBCHEM_COMPOUND_CID>
24892735

> <PUBCHEM_COMPOUND_CANONICALIZED>
1

> <PUBCHEM_CACTVS_COMPLEXITY>
1110

> <PUBCHEM_CACTVS_HBOND_ACCEPTOR>
11

> <PUBCHEM_CACTVS_HBOND_DONOR>
7

> <PUBCHEM_CACTVS_ROTATABLE_BOND>
1

> <PUBCHEM_CACTVS_SUBSKEYS>
AAADceB4PAAAAAAAAAAAAAAAAAAAAAAAAAA0YMECAAAAAADRVAAAGgAACAAADBSgmAIyBsAABgCIAqBSAAACAAAkIAAAiAEGCMgJNzaCNRqCcUAl4BULuQfL7PzO4AADCAAYAADAAAYQADAAAAAAAAAAAA==

> <PUBCHEM_IUPAC_OPENEYE_NAME>
(1R,3R,4S)-4,7,9-trihydroxy-1,3-dimethyl-6-[(1R,3R,4S)-4,7,9,10-tetrahydroxy-1,3-dimethyl-3,4-dihydro-1H-benzo[g]isochromen-5-yl]-3,4-dihydro-1H-benzo[g]isochromene-5,10-dione

> <PUBCHEM_IUPAC_CAS_NAME>
(1R,3R,4S)-4,7,9-trihydroxy-1,3-dimethyl-6-[(1R,3R,4S)-4,7,9,10-tetrahydroxy-1,3-dimethyl-3,4-dihydro-1H-benzo[g][2]benzopyran-5-yl]-3,4-dihydro-1H-benzo[g][2]benzopyran-5,10-dione

> <PUBCHEM_IUPAC_NAME>
(1R,3R,4S)-4,7,9-trihydroxy-1,3-dimethyl-6-[(1R,3R,4S)-4,7,9,10-tetrahydroxy-1,3-dimethyl-3,4-dihydro-1H-benzo[g]isochromen-5-yl]-3,4-dihydro-1H-benzo[g]isochromene-5,10-dione

> <PUBCHEM_IUPAC_SYSTEMATIC_NAME>
(1R,3R,4S)-6-[(1R,3R,4S)-1,3-dimethyl-4,7,9,10-tetrakis(oxidanyl)-3,4-dihydro-1H-benzo[g]isochromen-5-yl]-1,3-dimethyl-4,7,9-tris(oxidanyl)-3,4-dihydro-1H-benzo[g]isochromene-5,10-dione

> <PUBCHEM_IUPAC_TRADITIONAL_NAME>
(1R,3R,4S)-4,7,9-trihydroxy-1,3-dimethyl-6-[(1R,3R,4S)-4,7,9,10-tetrahydroxy-1,3-dimethyl-3,4-dihydro-1H-benz[g]isochromen-5-yl]-3,4-dihydro-1H-benz[g]isochromene-5,10-quinone

> <PUBCHEM_IUPAC_INCHI>
InChI=1S/C30H28O11/c1-8-17-23(26(35)10(3)40-8)20(13-5-12(31)6-14(32)19(13)28(17)37)21-15(33)7-16(34)22-24(21)30(39)25-18(29(22)38)9(2)41-11(4)27(25)36/h5-11,26-27,31-37H,1-4H3/t8-,9-,10-,11-,26-,27-/m1/s1

> <PUBCHEM_IUPAC_INCHIKEY>
KLZOEWZFKUESNU-UYFDZFGUSA-N

> <PUBCHEM_XLOGP3_AA>
2.5

> <PUBCHEM_EXACT_MASS>
564.163162

> <PUBCHEM_MOLECULAR_FORMULA>
C30H28O11

> <PUBCHEM_MOLECULAR_WEIGHT>
564.53672

> <PUBCHEM_OPENEYE_CAN_SMILES>
CC1C(C2=C(C(O1)C)C(=O)C3=C(C=C(C(=C3C2=O)C4=C5C(C(OC(C5=C(C6=C(C=C(C=C64)O)O)O)C)C)O)O)O)O

> <PUBCHEM_OPENEYE_ISO_SMILES>
C[C@@H]1[C@H](C2=C([C@H](O1)C)C(=O)C3=C(C=C(C(=C3C2=O)C4=C5[C@@H]([C@H](O[C@@H](C5=C(C6=C(C=C(C=C64)O)O)O)C)C)O)O)O)O

> <PUBCHEM_CACTVS_TPSA>
194

> <PUBCHEM_MONOISOTOPIC_WEIGHT>
564.163162

> <PUBCHEM_TOTAL_CHARGE>
0

> <PUBCHEM_HEAVY_ATOM_COUNT>
41

> <PUBCHEM_ATOM_DEF_STEREO_COUNT>
6

> <PUBCHEM_ATOM_UDEF_STEREO_COUNT>
0

> <PUBCHEM_BOND_DEF_STEREO_COUNT>
0

> <PUBCHEM_BOND_UDEF_STEREO_COUNT>
0

> <PUBCHEM_ISOTOPIC_ATOM_COUNT>
0

> <PUBCHEM_COMPONENT_COUNT>
1

> <PUBCHEM_CACTVS_TAUTO_COUNT>
894

> <PUBCHEM_COORDINATE_TYPE>
1
5
255

> <PUBCHEM_BONDANNOTATIONS>
12  14  8
12  15  8
14  26  8
15  23  8
16  31  5
17  32  6
18  21  8
18  33  8
21  28  8
23  27  8
23  35  8
24  36  6
25  37  5
26  27  8
27  38  8
28  34  8
13  3  6
33  39  8
34  39  8
35  40  8
38  41  8
20  4  5
40  41  8

$$$$

