443964
  -OEChem-07051213033D

 16 16  0     1  0  0  0  0  0999 V2000
    2.7986    0.7287   -0.3603 Cl  0  0  0  0  0  0  0  0  0  0  0  0
   -0.1108    1.5966    1.0167 O   0  0  0  0  0  0  0  0  0  0  0  0
   -2.3728    0.9356   -0.1968 O   0  0  0  0  0  0  0  0  0  0  0  0
    0.0563    0.9325   -0.2394 C   0  0  2  0  0  0  0  0  0  0  0  0
   -1.2413    0.1680   -0.5964 C   0  0  1  0  0  0  0  0  0  0  0  0
    1.2466    0.0163   -0.1247 C   0  0  0  0  0  0  0  0  0  0  0  0
   -1.3044   -1.2124    0.0073 C   0  0  0  0  0  0  0  0  0  0  0  0
    1.1168   -1.2919    0.1420 C   0  0  0  0  0  0  0  0  0  0  0  0
   -0.1891   -1.8735    0.3516 C   0  0  0  0  0  0  0  0  0  0  0  0
    0.2224    1.7122   -0.9914 H   0  0  0  0  0  0  0  0  0  0  0  0
   -1.3022    0.0424   -1.6851 H   0  0  0  0  0  0  0  0  0  0  0  0
   -2.2728   -1.6877    0.1302 H   0  0  0  0  0  0  0  0  0  0  0  0
    1.9758   -1.9487    0.2296 H   0  0  0  0  0  0  0  0  0  0  0  0
   -0.2406   -2.8753    0.7632 H   0  0  0  0  0  0  0  0  0  0  0  0
   -0.3677    0.9326    1.6791 H   0  0  0  0  0  0  0  0  0  0  0  0
   -2.2958    1.8093   -0.6166 H   0  0  0  0  0  0  0  0  0  0  0  0
  1  6  1  0  0  0  0
  2  4  1  0  0  0  0
  2 15  1  0  0  0  0
  3  5  1  0  0  0  0
  3 16  1  0  0  0  0
  4  5  1  0  0  0  0
  4  6  1  0  0  0  0
  4 10  1  0  0  0  0
  5  7  1  0  0  0  0
  5 11  1  0  0  0  0
  6  8  2  0  0  0  0
  7  9  2  0  0  0  0
  7 12  1  0  0  0  0
  8  9  1  0  0  0  0
  8 13  1  0  0  0  0
  9 14  1  0  0  0  0
M  END
> <PUBCHEM_COMPOUND_CID>
443964

> <PUBCHEM_CONFORMER_RMSD>
0.4

> <PUBCHEM_CONFORMER_DIVERSEORDER>
1
2

> <PUBCHEM_MMFF94_PARTIAL_CHARGES>
13
1 -0.14
12 0.15
13 0.15
14 0.15
15 0.4
16 0.4
2 -0.68
3 -0.68
4 0.42
5 0.42
7 -0.29
8 -0.15
9 -0.15

> <PUBCHEM_EFFECTIVE_ROTOR_COUNT>
0.4

> <PUBCHEM_PHARMACOPHORE_FEATURES>
5
1 2 acceptor
1 2 donor
1 3 acceptor
1 3 donor
6 4 5 6 7 8 9 rings

> <PUBCHEM_HEAVY_ATOM_COUNT>
9

> <PUBCHEM_ATOM_DEF_STEREO_COUNT>
2

> <PUBCHEM_ATOM_UDEF_STEREO_COUNT>
0

> <PUBCHEM_BOND_DEF_STEREO_COUNT>
0

> <PUBCHEM_BOND_UDEF_STEREO_COUNT>
0

> <PUBCHEM_ISOTOPIC_ATOM_COUNT>
0

> <PUBCHEM_COMPONENT_COUNT>
1

> <PUBCHEM_CACTVS_TAUTO_COUNT>
1

> <PUBCHEM_CONFORMER_ID>
0006C63C00000001

> <PUBCHEM_MMFF94_ENERGY>
14.418

> <PUBCHEM_FEATURE_SELFOVERLAP>
25.389

> <PUBCHEM_SHAPE_FINGERPRINT>
12423570 1 12421287192452508246
12716758 59 18338515240552872310
13024252 1 12894804579673070198
137420 1 12859141657827604087
16945 1 18126844902372324206
18185500 45 17258222293919249899
20653085 51 17774425106495570564
21040471 1 18413112761874165526
23235685 24 18412548716709436492
23552423 10 18123754419947066767
241688 4 16754663607775935250
2748010 2 18412823598890463214
29004967 10 17631159960781980017
5084963 1 17487632826748659022

> <PUBCHEM_SHAPE_MULTIPOLES>
175.35
2.79
1.83
0.77
1.27
0.41
-0.06
-0.71
0.45
-0.41
-0.31
0
-0.15
0.03

> <PUBCHEM_SHAPE_SELFOVERLAP>
347.01

> <PUBCHEM_SHAPE_VOLUME>
105.1

> <PUBCHEM_COORDINATE_TYPE>
2
5
10

$$$$

