13441
  -OEChem-06261214162D

 29 30  0     1  0  0  0  0  0999 V2000
    4.2320    2.5194    0.0000 S   0  0  0  0  0  0  0  0  0  0  0  0
    4.2320    3.5194    0.0000 O   0  0  0  0  0  0  0  0  0  0  0  0
    5.1831    2.8284    0.0000 O   0  0  0  0  0  0  0  0  0  0  0  0
    3.7320   -0.0194    0.0000 N   0  0  0  0  0  0  0  0  0  0  0  0
    2.8660   -0.5194    0.0000 N   0  0  0  0  0  0  0  0  0  0  0  0
    3.7320    0.9806    0.0000 C   0  0  3  0  0  0  0  0  0  0  0  0
    4.5411    1.5684    0.0000 C   0  0  0  0  0  0  0  0  0  0  0  0
    2.9230    1.5684    0.0000 C   0  0  0  0  0  0  0  0  0  0  0  0
    3.2320    2.5194    0.0000 C   0  0  0  0  0  0  0  0  0  0  0  0
    2.8660   -1.5194    0.0000 C   0  0  0  0  0  0  0  0  0  0  0  0
    2.0000   -2.0194    0.0000 C   0  0  0  0  0  0  0  0  0  0  0  0
    3.7320   -2.0194    0.0000 C   0  0  0  0  0  0  0  0  0  0  0  0
    2.0000   -3.0194    0.0000 C   0  0  0  0  0  0  0  0  0  0  0  0
    3.7320   -3.0194    0.0000 C   0  0  0  0  0  0  0  0  0  0  0  0
    2.8660   -3.5194    0.0000 C   0  0  0  0  0  0  0  0  0  0  0  0
    4.4894    0.5947    0.0000 H   0  0  0  0  0  0  0  0  0  0  0  0
    4.8511    1.0314    0.0000 H   0  0  0  0  0  0  0  0  0  0  0  0
    5.1075    1.8205    0.0000 H   0  0  0  0  0  0  0  0  0  0  0  0
    2.3566    1.8205    0.0000 H   0  0  0  0  0  0  0  0  0  0  0  0
    2.6130    1.0314    0.0000 H   0  0  0  0  0  0  0  0  0  0  0  0
    3.2969    3.1360    0.0000 H   0  0  0  0  0  0  0  0  0  0  0  0
    2.6256    2.6483    0.0000 H   0  0  0  0  0  0  0  0  0  0  0  0
    4.2690   -0.3294    0.0000 H   0  0  0  0  0  0  0  0  0  0  0  0
    2.3291   -0.2094    0.0000 H   0  0  0  0  0  0  0  0  0  0  0  0
    1.4631   -1.7094    0.0000 H   0  0  0  0  0  0  0  0  0  0  0  0
    4.2690   -1.7094    0.0000 H   0  0  0  0  0  0  0  0  0  0  0  0
    1.4631   -3.3294    0.0000 H   0  0  0  0  0  0  0  0  0  0  0  0
    4.2690   -3.3294    0.0000 H   0  0  0  0  0  0  0  0  0  0  0  0
    2.8660   -4.1394    0.0000 H   0  0  0  0  0  0  0  0  0  0  0  0
  1  2  2  0  0  0  0
  1  3  2  0  0  0  0
  1  7  1  0  0  0  0
  1  9  1  0  0  0  0
  4  5  1  0  0  0  0
  4  6  1  0  0  0  0
  4 23  1  0  0  0  0
  5 10  1  0  0  0  0
  5 24  1  0  0  0  0
  6  7  1  0  0  0  0
  6  8  1  0  0  0  0
  6 16  1  0  0  0  0
  7 17  1  0  0  0  0
  7 18  1  0  0  0  0
  8  9  1  0  0  0  0
  8 19  1  0  0  0  0
  8 20  1  0  0  0  0
  9 21  1  0  0  0  0
  9 22  1  0  0  0  0
 10 11  2  0  0  0  0
 10 12  1  0  0  0  0
 11 13  1  0  0  0  0
 11 25  1  0  0  0  0
 12 14  2  0  0  0  0
 12 26  1  0  0  0  0
 13 15  2  0  0  0  0
 13 27  1  0  0  0  0
 14 15  1  0  0  0  0
 14 28  1  0  0  0  0
 15 29  1  0  0  0  0
M  END
> <PUBCHEM_COMPOUND_CID>
13441

> <PUBCHEM_COMPOUND_CANONICALIZED>
1

> <PUBCHEM_CACTVS_COMPLEXITY>
291

> <PUBCHEM_CACTVS_HBOND_ACCEPTOR>
4

> <PUBCHEM_CACTVS_HBOND_DONOR>
2

> <PUBCHEM_CACTVS_ROTATABLE_BOND>
3

> <PUBCHEM_CACTVS_SUBSKEYS>
AAADccBzMABAAAAAAAAAAAAAAAAAASAAAAAwAAAAAAAAAAABAAAAHAQYAAAACCjFUASwwIBiAAqAACRCQHDCBAAgAhIYqIAAZIgIICKgkZGAIABgkAAoyAcQAAAAAAAAAAAAAAAAAAAAAAAAAAAAAAAAAA==

> <PUBCHEM_IUPAC_OPENEYE_NAME>
1-(1,1-dioxothiolan-3-yl)-2-phenyl-hydrazine

> <PUBCHEM_IUPAC_CAS_NAME>
1-(1,1-dioxo-3-thiolanyl)-2-phenylhydrazine

> <PUBCHEM_IUPAC_NAME>
1-(1,1-dioxothiolan-3-yl)-2-phenylhydrazine

> <PUBCHEM_IUPAC_SYSTEMATIC_NAME>
1-[1,1-bis(oxidanylidene)thiolan-3-yl]-2-phenyl-diazane

> <PUBCHEM_IUPAC_TRADITIONAL_NAME>
1-(1,1-diketothiolan-3-yl)-2-phenyl-hydrazine

> <PUBCHEM_IUPAC_INCHI>
InChI=1S/C10H14N2O2S/c13-15(14)7-6-10(8-15)12-11-9-4-2-1-3-5-9/h1-5,10-12H,6-8H2

> <PUBCHEM_IUPAC_INCHIKEY>
RFTNJABYPCOMMW-UHFFFAOYSA-N

> <PUBCHEM_XLOGP3_AA>
1.2

> <PUBCHEM_EXACT_MASS>
226.077599

> <PUBCHEM_MOLECULAR_FORMULA>
C10H14N2O2S

> <PUBCHEM_MOLECULAR_WEIGHT>
226.29536

> <PUBCHEM_OPENEYE_CAN_SMILES>
C1CS(=O)(=O)CC1NNC2=CC=CC=C2

> <PUBCHEM_OPENEYE_ISO_SMILES>
C1CS(=O)(=O)CC1NNC2=CC=CC=C2

> <PUBCHEM_CACTVS_TPSA>
66.6

> <PUBCHEM_MONOISOTOPIC_WEIGHT>
226.077599

> <PUBCHEM_TOTAL_CHARGE>
0

> <PUBCHEM_HEAVY_ATOM_COUNT>
15

> <PUBCHEM_ATOM_DEF_STEREO_COUNT>
0

> <PUBCHEM_ATOM_UDEF_STEREO_COUNT>
1

> <PUBCHEM_BOND_DEF_STEREO_COUNT>
0

> <PUBCHEM_BOND_UDEF_STEREO_COUNT>
0

> <PUBCHEM_ISOTOPIC_ATOM_COUNT>
0

> <PUBCHEM_COMPONENT_COUNT>
1

> <PUBCHEM_CACTVS_TAUTO_COUNT>
1

> <PUBCHEM_COORDINATE_TYPE>
1
5
255

> <PUBCHEM_BONDANNOTATIONS>
10  11  8
10  12  8
11  13  8
12  14  8
13  15  8
14  15  8
6  16  3

$$$$

