17395288
  -OEChem-06241222492D

 32 34  0     0  0  0  0  0  0999 V2000
    5.4641   -0.7694    0.0000 O   0  0  0  0  0  0  0  0  0  0  0  0
    6.2731    3.8184    0.0000 O   0  0  0  0  0  0  0  0  0  0  0  0
    4.6551    3.8184    0.0000 N   0  0  0  0  0  0  0  0  0  0  0  0
    4.9641    4.7694    0.0000 N   0  0  0  0  0  0  0  0  0  0  0  0
    2.0000   -4.7694    0.0000 N   0  0  0  0  0  0  0  0  0  0  0  0
    4.5981   -1.2694    0.0000 C   0  0  0  0  0  0  0  0  0  0  0  0
    4.5981   -2.2694    0.0000 C   0  0  0  0  0  0  0  0  0  0  0  0
    5.4641    0.2306    0.0000 C   0  0  0  0  0  0  0  0  0  0  0  0
    5.4641    2.2306    0.0000 C   0  0  0  0  0  0  0  0  0  0  0  0
    6.3301    0.7306    0.0000 C   0  0  0  0  0  0  0  0  0  0  0  0
    4.5981    0.7306    0.0000 C   0  0  0  0  0  0  0  0  0  0  0  0
    6.3301    1.7306    0.0000 C   0  0  0  0  0  0  0  0  0  0  0  0
    4.5981    1.7306    0.0000 C   0  0  0  0  0  0  0  0  0  0  0  0
    3.7320   -2.7694    0.0000 C   0  0  0  0  0  0  0  0  0  0  0  0
    5.4641   -2.7694    0.0000 C   0  0  0  0  0  0  0  0  0  0  0  0
    3.7320   -3.7694    0.0000 C   0  0  0  0  0  0  0  0  0  0  0  0
    5.4641   -3.7694    0.0000 C   0  0  0  0  0  0  0  0  0  0  0  0
    5.4641    3.2306    0.0000 C   0  0  0  0  0  0  0  0  0  0  0  0
    4.5981   -4.2694    0.0000 C   0  0  0  0  0  0  0  0  0  0  0  0
    2.8660   -4.2694    0.0000 C   0  0  0  0  0  0  0  0  0  0  0  0
    5.9641    4.7694    0.0000 C   0  0  0  0  0  0  0  0  0  0  0  0
    4.3860   -0.6868    0.0000 H   0  0  0  0  0  0  0  0  0  0  0  0
    3.9875   -1.3771    0.0000 H   0  0  0  0  0  0  0  0  0  0  0  0
    6.8671    0.4206    0.0000 H   0  0  0  0  0  0  0  0  0  0  0  0
    4.0611    0.4206    0.0000 H   0  0  0  0  0  0  0  0  0  0  0  0
    6.8671    2.0406    0.0000 H   0  0  0  0  0  0  0  0  0  0  0  0
    4.0611    2.0406    0.0000 H   0  0  0  0  0  0  0  0  0  0  0  0
    3.1951   -2.4594    0.0000 H   0  0  0  0  0  0  0  0  0  0  0  0
    6.0010   -2.4594    0.0000 H   0  0  0  0  0  0  0  0  0  0  0  0
    6.0010   -4.0794    0.0000 H   0  0  0  0  0  0  0  0  0  0  0  0
    4.5981   -4.8894    0.0000 H   0  0  0  0  0  0  0  0  0  0  0  0
    6.3285    5.2710    0.0000 H   0  0  0  0  0  0  0  0  0  0  0  0
  1  6  1  0  0  0  0
  1  8  1  0  0  0  0
  2 18  1  0  0  0  0
  2 21  1  0  0  0  0
  3  4  1  0  0  0  0
  3 18  2  0  0  0  0
  4 21  2  0  0  0  0
  5 20  3  0  0  0  0
  6  7  1  0  0  0  0
  6 22  1  0  0  0  0
  6 23  1  0  0  0  0
  7 14  2  0  0  0  0
  7 15  1  0  0  0  0
  8 10  2  0  0  0  0
  8 11  1  0  0  0  0
  9 12  2  0  0  0  0
  9 13  1  0  0  0  0
  9 18  1  0  0  0  0
 10 12  1  0  0  0  0
 10 24  1  0  0  0  0
 11 13  2  0  0  0  0
 11 25  1  0  0  0  0
 12 26  1  0  0  0  0
 13 27  1  0  0  0  0
 14 16  1  0  0  0  0
 14 28  1  0  0  0  0
 15 17  2  0  0  0  0
 15 29  1  0  0  0  0
 16 19  2  0  0  0  0
 16 20  1  0  0  0  0
 17 19  1  0  0  0  0
 17 30  1  0  0  0  0
 19 31  1  0  0  0  0
 21 32  1  0  0  0  0
M  END
> <PUBCHEM_COMPOUND_CID>
17395288

> <PUBCHEM_COMPOUND_CANONICALIZED>
1

> <PUBCHEM_CACTVS_COMPLEXITY>
373

> <PUBCHEM_CACTVS_HBOND_ACCEPTOR>
5

> <PUBCHEM_CACTVS_HBOND_DONOR>
0

> <PUBCHEM_CACTVS_ROTATABLE_BOND>
4

> <PUBCHEM_CACTVS_SUBSKEYS>
AAADccB7MAAAAAAAAAAAAAAAAAAAAWAAAAAwYAAAAAAAAAAB0AAAHgAIAAAADAShmgY0BoAABEC6BiFzkACyCAAsoAAaiCEmDNgMprKEtRuKOSDkyBEIqY+Y/GzOIAACAAAAAABAAAQAAAAAAAAAAAAAAA==

> <PUBCHEM_IUPAC_OPENEYE_NAME>
3-[[4-(1,3,4-oxadiazol-2-yl)phenoxy]methyl]benzonitrile

> <PUBCHEM_IUPAC_CAS_NAME>
3-[[4-(1,3,4-oxadiazol-2-yl)phenoxy]methyl]benzonitrile

> <PUBCHEM_IUPAC_NAME>
3-[[4-(1,3,4-oxadiazol-2-yl)phenoxy]methyl]benzonitrile

> <PUBCHEM_IUPAC_SYSTEMATIC_NAME>
3-[[4-(1,3,4-oxadiazol-2-yl)phenoxy]methyl]benzenecarbonitrile

> <PUBCHEM_IUPAC_TRADITIONAL_NAME>
3-[[4-(1,3,4-oxadiazol-2-yl)phenoxy]methyl]benzonitrile

> <PUBCHEM_IUPAC_INCHI>
InChI=1S/C16H11N3O2/c17-9-12-2-1-3-13(8-12)10-20-15-6-4-14(5-7-15)16-19-18-11-21-16/h1-8,11H,10H2

> <PUBCHEM_IUPAC_INCHIKEY>
FUQNLUMJTOHQDL-UHFFFAOYSA-N

> <PUBCHEM_XLOGP3_AA>
2.6

> <PUBCHEM_EXACT_MASS>
277.085127

> <PUBCHEM_MOLECULAR_FORMULA>
C16H11N3O2

> <PUBCHEM_MOLECULAR_WEIGHT>
277.27744

> <PUBCHEM_OPENEYE_CAN_SMILES>
C1=CC(=CC(=C1)COC2=CC=C(C=C2)C3=NN=CO3)C#N

> <PUBCHEM_OPENEYE_ISO_SMILES>
C1=CC(=CC(=C1)COC2=CC=C(C=C2)C3=NN=CO3)C#N

> <PUBCHEM_CACTVS_TPSA>
71.9

> <PUBCHEM_MONOISOTOPIC_WEIGHT>
277.085127

> <PUBCHEM_TOTAL_CHARGE>
0

> <PUBCHEM_HEAVY_ATOM_COUNT>
21

> <PUBCHEM_ATOM_DEF_STEREO_COUNT>
0

> <PUBCHEM_ATOM_UDEF_STEREO_COUNT>
0

> <PUBCHEM_BOND_DEF_STEREO_COUNT>
0

> <PUBCHEM_BOND_UDEF_STEREO_COUNT>
0

> <PUBCHEM_ISOTOPIC_ATOM_COUNT>
0

> <PUBCHEM_COMPONENT_COUNT>
1

> <PUBCHEM_CACTVS_TAUTO_COUNT>
1

> <PUBCHEM_COORDINATE_TYPE>
1
5
255

> <PUBCHEM_BONDANNOTATIONS>
10  12  8
11  13  8
14  16  8
15  17  8
16  19  8
17  19  8
2  18  8
2  21  8
3  18  8
3  4  8
4  21  8
7  14  8
7  15  8
8  10  8
8  11  8
9  12  8
9  13  8

$$$$

