12499
  -OEChem-06261207012D

 28 27  0     1  0  0  0  0  0999 V2000
    2.4888    0.0000    0.0000 Br  0  5  0  0  0  0  0  0  0  0  0  0
    4.0010    3.0369    0.0000 N   0  3  0  0  0  0  0  0  0  0  0  0
    3.1350    3.5369    0.0000 C   0  0  3  0  0  0  0  0  0  0  0  0
    3.1350    4.5369    0.0000 C   0  0  0  0  0  0  0  0  0  0  0  0
    4.8671    3.5369    0.0000 C   0  0  0  0  0  0  0  0  0  0  0  0
    4.0010    5.0369    0.0000 C   0  0  0  0  0  0  0  0  0  0  0  0
    4.8671    4.5369    0.0000 C   0  0  0  0  0  0  0  0  0  0  0  0
    2.2690    3.0369    0.0000 C   0  0  0  0  0  0  0  0  0  0  0  0
    1.4030    3.5369    0.0000 C   0  0  0  0  0  0  0  0  0  0  0  0
    0.5369    3.0369    0.0000 C   0  0  0  0  0  0  0  0  0  0  0  0
    3.1350    2.9169    0.0000 H   0  0  0  0  0  0  0  0  0  0  0  0
    3.6910    2.5000    0.0000 H   0  0  0  0  0  0  0  0  0  0  0  0
    4.3110    2.5000    0.0000 H   0  0  0  0  0  0  0  0  0  0  0  0
    2.9230    5.1195    0.0000 H   0  0  0  0  0  0  0  0  0  0  0  0
    2.5244    4.4293    0.0000 H   0  0  0  0  0  0  0  0  0  0  0  0
    5.0791    2.9543    0.0000 H   0  0  0  0  0  0  0  0  0  0  0  0
    5.4776    3.6446    0.0000 H   0  0  0  0  0  0  0  0  0  0  0  0
    4.3996    5.5119    0.0000 H   0  0  0  0  0  0  0  0  0  0  0  0
    3.6025    5.5119    0.0000 H   0  0  0  0  0  0  0  0  0  0  0  0
    5.4776    4.4293    0.0000 H   0  0  0  0  0  0  0  0  0  0  0  0
    5.0791    5.1195    0.0000 H   0  0  0  0  0  0  0  0  0  0  0  0
    1.8705    2.5620    0.0000 H   0  0  0  0  0  0  0  0  0  0  0  0
    2.6675    2.5620    0.0000 H   0  0  0  0  0  0  0  0  0  0  0  0
    1.8015    4.0119    0.0000 H   0  0  0  0  0  0  0  0  0  0  0  0
    1.0044    4.0119    0.0000 H   0  0  0  0  0  0  0  0  0  0  0  0
    0.2269    3.5739    0.0000 H   0  0  0  0  0  0  0  0  0  0  0  0
    0.0000    2.7269    0.0000 H   0  0  0  0  0  0  0  0  0  0  0  0
    0.8469    2.5000    0.0000 H   0  0  0  0  0  0  0  0  0  0  0  0
  2  3  1  0  0  0  0
  2  5  1  0  0  0  0
  2 12  1  0  0  0  0
  2 13  1  0  0  0  0
  3  4  1  0  0  0  0
  3  8  1  0  0  0  0
  3 11  1  0  0  0  0
  4  6  1  0  0  0  0
  4 14  1  0  0  0  0
  4 15  1  0  0  0  0
  5  7  1  0  0  0  0
  5 16  1  0  0  0  0
  5 17  1  0  0  0  0
  6  7  1  0  0  0  0
  6 18  1  0  0  0  0
  6 19  1  0  0  0  0
  7 20  1  0  0  0  0
  7 21  1  0  0  0  0
  8  9  1  0  0  0  0
  8 22  1  0  0  0  0
  8 23  1  0  0  0  0
  9 10  1  0  0  0  0
  9 24  1  0  0  0  0
  9 25  1  0  0  0  0
 10 26  1  0  0  0  0
 10 27  1  0  0  0  0
 10 28  1  0  0  0  0
M  CHG  2   1  -1   2   1
M  END
> <PUBCHEM_COMPOUND_CID>
12499

> <PUBCHEM_COMPOUND_CANONICALIZED>
1

> <PUBCHEM_CACTVS_COMPLEXITY>
71

> <PUBCHEM_CACTVS_HBOND_ACCEPTOR>
1

> <PUBCHEM_CACTVS_HBOND_DONOR>
1

> <PUBCHEM_CACTVS_ROTATABLE_BOND>
2

> <PUBCHEM_CACTVS_SUBSKEYS>
AAADceByAAAAEAAAAAAAAAAAAAAAAAAAAAAsAAAAAAAAAAAAAAAAHAAQAAAACCjBAAQCAALAAAAAAAAAAAAAAAAAAAAAAIAIAAAAAAIAgAAEAAAAEACAAAEQgIAAAAAAAAAAAAAAAAAAAAAAAAAAAAAAAA==

> <PUBCHEM_IUPAC_OPENEYE_NAME>
2-propylpiperidin-1-ium bromide

> <PUBCHEM_IUPAC_CAS_NAME>
2-propylpiperidin-1-ium bromide

> <PUBCHEM_IUPAC_NAME>
2-propylpiperidin-1-ium bromide

> <PUBCHEM_IUPAC_SYSTEMATIC_NAME>
2-propylpiperidin-1-ium bromide

> <PUBCHEM_IUPAC_TRADITIONAL_NAME>
2-propylpiperidin-1-ium bromide

> <PUBCHEM_IUPAC_INCHI>
InChI=1S/C8H17N.BrH/c1-2-5-8-6-3-4-7-9-8;/h8-9H,2-7H2,1H3;1H

> <PUBCHEM_IUPAC_INCHIKEY>
BWMPAYPMHXMUAF-UHFFFAOYSA-N

> <PUBCHEM_EXACT_MASS>
207.062262

> <PUBCHEM_MOLECULAR_FORMULA>
C8H18BrN

> <PUBCHEM_MOLECULAR_WEIGHT>
208.13922

> <PUBCHEM_OPENEYE_CAN_SMILES>
CCCC1CCCC[NH2+]1.[Br-]

> <PUBCHEM_OPENEYE_ISO_SMILES>
CCCC1CCCC[NH2+]1.[Br-]

> <PUBCHEM_CACTVS_TPSA>
16.6

> <PUBCHEM_MONOISOTOPIC_WEIGHT>
207.062262

> <PUBCHEM_TOTAL_CHARGE>
0

> <PUBCHEM_HEAVY_ATOM_COUNT>
10

> <PUBCHEM_ATOM_DEF_STEREO_COUNT>
0

> <PUBCHEM_ATOM_UDEF_STEREO_COUNT>
1

> <PUBCHEM_BOND_DEF_STEREO_COUNT>
0

> <PUBCHEM_BOND_UDEF_STEREO_COUNT>
0

> <PUBCHEM_ISOTOPIC_ATOM_COUNT>
0

> <PUBCHEM_COMPONENT_COUNT>
2

> <PUBCHEM_CACTVS_TAUTO_COUNT>
1

> <PUBCHEM_COORDINATE_TYPE>
1
5
255

> <PUBCHEM_BONDANNOTATIONS>
3  8  3

$$$$

