11954219
  -OEChem-07051213072D

 82 85  0     1  0  0  0  0  0999 V2000
    7.4888    9.2215    0.0000 F   0  0  0  0  0  0  0  0  0  0  0  0
    8.4888    8.2215    0.0000 F   0  0  0  0  0  0  0  0  0  0  0  0
    6.4887    8.2215    0.0000 F   0  0  0  0  0  0  0  0  0  0  0  0
    6.6227   -3.2785    0.0000 O   0  0  0  0  0  0  0  0  0  0  0  0
   10.9528    1.2215    0.0000 O   0  0  0  0  0  0  0  0  0  0  0  0
    3.3080   -5.6149    0.0000 O   0  0  0  0  0  0  0  0  0  0  0  0
   10.0868   -0.2785    0.0000 O   0  0  0  0  0  0  0  0  0  0  0  0
    8.3548    3.7215    0.0000 O   0  0  0  0  0  0  0  0  0  0  0  0
    7.4888    2.2215    0.0000 N   0  0  0  0  0  0  0  0  0  0  0  0
    9.2208    1.2215    0.0000 N   0  0  0  0  0  0  0  0  0  0  0  0
    4.7861   -6.2730    0.0000 N   0  0  0  0  0  0  0  0  0  0  0  0
    7.4888    1.2215    0.0000 C   0  0  1  0  0  0  0  0  0  0  0  0
    6.6227    0.7215    0.0000 C   0  0  0  0  0  0  0  0  0  0  0  0
    8.3548    0.7215    0.0000 C   0  0  0  0  0  0  0  0  0  0  0  0
    6.6227   -0.2785    0.0000 C   0  0  0  0  0  0  0  0  0  0  0  0
    6.6227    2.7215    0.0000 C   0  0  0  0  0  0  0  0  0  0  0  0
    7.4888   -0.7785    0.0000 C   0  0  0  0  0  0  0  0  0  0  0  0
    5.7567   -0.7785    0.0000 C   0  0  0  0  0  0  0  0  0  0  0  0
    6.6227   -2.2785    0.0000 C   0  0  0  0  0  0  0  0  0  0  0  0
    7.4888   -1.7785    0.0000 C   0  0  0  0  0  0  0  0  0  0  0  0
    5.7567   -1.7785    0.0000 C   0  0  0  0  0  0  0  0  0  0  0  0
    5.7567    2.2215    0.0000 C   0  0  0  0  0  0  0  0  0  0  0  0
    6.6227    3.7215    0.0000 C   0  0  0  0  0  0  0  0  0  0  0  0
    5.7567   -3.7785    0.0000 C   0  0  0  0  0  0  0  0  0  0  0  0
   10.0868    0.7215    0.0000 C   0  0  0  0  0  0  0  0  0  0  0  0
    5.7567   -4.7785    0.0000 C   0  0  0  0  0  0  0  0  0  0  0  0
    4.8907   -5.2785    0.0000 C   0  0  0  0  0  0  0  0  0  0  0  0
    7.4888    4.2215    0.0000 C   0  0  0  0  0  0  0  0  0  0  0  0
    3.9771   -4.8717    0.0000 C   0  0  0  0  0  0  0  0  0  0  0  0
    7.4888    5.2215    0.0000 C   0  0  0  0  0  0  0  0  0  0  0  0
    3.8080   -6.4809    0.0000 C   0  0  0  0  0  0  0  0  0  0  0  0
    3.7692   -3.8936    0.0000 C   0  0  0  0  0  0  0  0  0  0  0  0
    3.4013   -7.3944    0.0000 C   0  0  0  0  0  0  0  0  0  0  0  0
    8.3548    5.7215    0.0000 C   0  0  0  0  0  0  0  0  0  0  0  0
    6.6227    5.7215    0.0000 C   0  0  0  0  0  0  0  0  0  0  0  0
   11.8189    0.7215    0.0000 C   0  0  0  0  0  0  0  0  0  0  0  0
    7.4888    7.2215    0.0000 C   0  0  0  0  0  0  0  0  0  0  0  0
    8.3548    6.7215    0.0000 C   0  0  0  0  0  0  0  0  0  0  0  0
    6.6227    6.7215    0.0000 C   0  0  0  0  0  0  0  0  0  0  0  0
    3.9890   -8.2035    0.0000 C   0  0  0  0  0  0  0  0  0  0  0  0
    2.4067   -7.4990    0.0000 C   0  0  0  0  0  0  0  0  0  0  0  0
   12.6849    1.2215    0.0000 C   0  0  0  0  0  0  0  0  0  0  0  0
    7.4888    8.2215    0.0000 C   0  0  0  0  0  0  0  0  0  0  0  0
    3.5823   -9.1170    0.0000 C   0  0  0  0  0  0  0  0  0  0  0  0
    2.0000   -8.4125    0.0000 C   0  0  0  0  0  0  0  0  0  0  0  0
    2.5878   -9.2215    0.0000 C   0  0  0  0  0  0  0  0  0  0  0  0
    8.0257    1.5315    0.0000 H   0  0  0  0  0  0  0  0  0  0  0  0
    6.4107    1.3041    0.0000 H   0  0  0  0  0  0  0  0  0  0  0  0
    6.0121    0.6139    0.0000 H   0  0  0  0  0  0  0  0  0  0  0  0
    7.9562    0.2466    0.0000 H   0  0  0  0  0  0  0  0  0  0  0  0
    8.7533    0.2466    0.0000 H   0  0  0  0  0  0  0  0  0  0  0  0
    8.0257    2.5315    0.0000 H   0  0  0  0  0  0  0  0  0  0  0  0
    8.0257   -0.4685    0.0000 H   0  0  0  0  0  0  0  0  0  0  0  0
    5.2198   -0.4685    0.0000 H   0  0  0  0  0  0  0  0  0  0  0  0
    9.2208    1.8415    0.0000 H   0  0  0  0  0  0  0  0  0  0  0  0
    8.0257   -2.0885    0.0000 H   0  0  0  0  0  0  0  0  0  0  0  0
    5.2198   -2.0885    0.0000 H   0  0  0  0  0  0  0  0  0  0  0  0
    5.4467    2.7585    0.0000 H   0  0  0  0  0  0  0  0  0  0  0  0
    5.2198    1.9115    0.0000 H   0  0  0  0  0  0  0  0  0  0  0  0
    6.0667    1.6846    0.0000 H   0  0  0  0  0  0  0  0  0  0  0  0
    6.0858    4.0315    0.0000 H   0  0  0  0  0  0  0  0  0  0  0  0
    5.5446   -3.1959    0.0000 H   0  0  0  0  0  0  0  0  0  0  0  0
    5.1461   -3.8861    0.0000 H   0  0  0  0  0  0  0  0  0  0  0  0
    5.9688   -5.3611    0.0000 H   0  0  0  0  0  0  0  0  0  0  0  0
    6.3673   -4.6708    0.0000 H   0  0  0  0  0  0  0  0  0  0  0  0
    4.3757   -3.7647    0.0000 H   0  0  0  0  0  0  0  0  0  0  0  0
    3.6403   -3.2871    0.0000 H   0  0  0  0  0  0  0  0  0  0  0  0
    3.1628   -4.0225    0.0000 H   0  0  0  0  0  0  0  0  0  0  0  0
    8.8917    5.4115    0.0000 H   0  0  0  0  0  0  0  0  0  0  0  0
    6.0858    5.4115    0.0000 H   0  0  0  0  0  0  0  0  0  0  0  0
   11.4203    0.2466    0.0000 H   0  0  0  0  0  0  0  0  0  0  0  0
   12.2174    0.2466    0.0000 H   0  0  0  0  0  0  0  0  0  0  0  0
    8.8917    7.0315    0.0000 H   0  0  0  0  0  0  0  0  0  0  0  0
    6.0858    7.0315    0.0000 H   0  0  0  0  0  0  0  0  0  0  0  0
    4.6056   -8.1386    0.0000 H   0  0  0  0  0  0  0  0  0  0  0  0
    2.0423   -6.9974    0.0000 H   0  0  0  0  0  0  0  0  0  0  0  0
   12.9949    0.6846    0.0000 H   0  0  0  0  0  0  0  0  0  0  0  0
   13.2218    1.5315    0.0000 H   0  0  0  0  0  0  0  0  0  0  0  0
   12.3749    1.7585    0.0000 H   0  0  0  0  0  0  0  0  0  0  0  0
    3.9467   -9.6186    0.0000 H   0  0  0  0  0  0  0  0  0  0  0  0
    1.3834   -8.4773    0.0000 H   0  0  0  0  0  0  0  0  0  0  0  0
    2.3356   -9.7879    0.0000 H   0  0  0  0  0  0  0  0  0  0  0  0
  1 43  1  0  0  0  0
  2 43  1  0  0  0  0
  3 43  1  0  0  0  0
  4 19  1  0  0  0  0
  4 24  1  0  0  0  0
  5 25  1  0  0  0  0
  5 36  1  0  0  0  0
  6 29  1  0  0  0  0
  6 31  1  0  0  0  0
  7 25  2  0  0  0  0
  8 28  2  0  0  0  0
 12  9  1  6  0  0  0
  9 16  1  0  0  0  0
  9 52  1  0  0  0  0
 10 14  1  0  0  0  0
 10 25  1  0  0  0  0
 10 55  1  0  0  0  0
 11 27  1  0  0  0  0
 11 31  2  0  0  0  0
 12 13  1  0  0  0  0
 12 14  1  0  0  0  0
 12 47  1  0  0  0  0
 13 15  1  0  0  0  0
 13 48  1  0  0  0  0
 13 49  1  0  0  0  0
 14 50  1  0  0  0  0
 14 51  1  0  0  0  0
 15 17  2  0  0  0  0
 15 18  1  0  0  0  0
 16 22  1  0  0  0  0
 16 23  2  0  0  0  0
 17 20  1  0  0  0  0
 17 53  1  0  0  0  0
 18 21  2  0  0  0  0
 18 54  1  0  0  0  0
 19 20  2  0  0  0  0
 19 21  1  0  0  0  0
 20 56  1  0  0  0  0
 21 57  1  0  0  0  0
 22 58  1  0  0  0  0
 22 59  1  0  0  0  0
 22 60  1  0  0  0  0
 23 28  1  0  0  0  0
 23 61  1  0  0  0  0
 24 26  1  0  0  0  0
 24 62  1  0  0  0  0
 24 63  1  0  0  0  0
 26 27  1  0  0  0  0
 26 64  1  0  0  0  0
 26 65  1  0  0  0  0
 27 29  2  0  0  0  0
 28 30  1  0  0  0  0
 29 32  1  0  0  0  0
 30 34  2  0  0  0  0
 30 35  1  0  0  0  0
 31 33  1  0  0  0  0
 32 66  1  0  0  0  0
 32 67  1  0  0  0  0
 32 68  1  0  0  0  0
 33 40  2  0  0  0  0
 33 41  1  0  0  0  0
 34 38  1  0  0  0  0
 34 69  1  0  0  0  0
 35 39  2  0  0  0  0
 35 70  1  0  0  0  0
 36 42  1  0  0  0  0
 36 71  1  0  0  0  0
 36 72  1  0  0  0  0
 37 38  2  0  0  0  0
 37 39  1  0  0  0  0
 37 43  1  0  0  0  0
 38 73  1  0  0  0  0
 39 74  1  0  0  0  0
 40 44  1  0  0  0  0
 40 75  1  0  0  0  0
 41 45  2  0  0  0  0
 41 76  1  0  0  0  0
 42 77  1  0  0  0  0
 42 78  1  0  0  0  0
 42 79  1  0  0  0  0
 44 46  2  0  0  0  0
 44 80  1  0  0  0  0
 45 46  1  0  0  0  0
 45 81  1  0  0  0  0
 46 82  1  0  0  0  0
M  END
> <PUBCHEM_COMPOUND_CID>
11954219

> <PUBCHEM_COMPOUND_CANONICALIZED>
1

> <PUBCHEM_CACTVS_COMPLEXITY>
973

> <PUBCHEM_CACTVS_HBOND_ACCEPTOR>
10

> <PUBCHEM_CACTVS_HBOND_DONOR>
2

> <PUBCHEM_CACTVS_ROTATABLE_BOND>
15

> <PUBCHEM_CACTVS_SUBSKEYS>
AAADcfB/OYAAAAAAAAAAAAAAAAAAAWAAAAAwYMAAAAAAAAAB1AAAHwAQAAAADCzhnhYyjpLIFECoA6VyXASCiCAvYiAImKG/TNkOZrLEtTufOSjm1hHYqcfayOCOYAAAAAAAAADAAAAAAAAAAAAAAAAAAA==

> <PUBCHEM_IUPAC_OPENEYE_NAME>
ethyl N-[(2S)-2-[[(Z)-1-methyl-3-oxo-3-[4-(trifluoromethyl)phenyl]prop-1-enyl]amino]-3-[4-[2-(5-methyl-2-phenyl-oxazol-4-yl)ethoxy]phenyl]propyl]carbamate

> <PUBCHEM_IUPAC_CAS_NAME>
N-[(2S)-3-[4-[2-(5-methyl-2-phenyl-4-oxazolyl)ethoxy]phenyl]-2-[[(Z)-4-oxo-4-[4-(trifluoromethyl)phenyl]but-2-en-2-yl]amino]propyl]carbamic acid ethyl ester

> <PUBCHEM_IUPAC_NAME>
ethyl N-[(2S)-3-[4-[2-(5-methyl-2-phenyl-1,3-oxazol-4-yl)ethoxy]phenyl]-2-[[(Z)-4-oxo-4-[4-(trifluoromethyl)phenyl]but-2-en-2-yl]amino]propyl]carbamate

> <PUBCHEM_IUPAC_SYSTEMATIC_NAME>
ethyl N-[(2S)-3-[4-[2-(5-methyl-2-phenyl-1,3-oxazol-4-yl)ethoxy]phenyl]-2-[[(Z)-4-oxidanylidene-4-[4-(trifluoromethyl)phenyl]but-2-en-2-yl]amino]propyl]carbamate

> <PUBCHEM_IUPAC_TRADITIONAL_NAME>
N-[(2S)-2-[[(Z)-3-keto-1-methyl-3-[4-(trifluoromethyl)phenyl]prop-1-enyl]amino]-3-[4-[2-(5-methyl-2-phenyl-oxazol-4-yl)ethoxy]phenyl]propyl]carbamic acid ethyl ester

> <PUBCHEM_IUPAC_INCHI>
InChI=1S/C35H36F3N3O5/c1-4-44-34(43)39-22-29(40-23(2)20-32(42)26-12-14-28(15-13-26)35(36,37)38)21-25-10-16-30(17-11-25)45-19-18-31-24(3)46-33(41-31)27-8-6-5-7-9-27/h5-17,20,29,40H,4,18-19,21-22H2,1-3H3,(H,39,43)/b23-20-/t29-/m0/s1

> <PUBCHEM_IUPAC_INCHIKEY>
UEPVEQWUZJXOKB-DYQICHDWSA-N

> <PUBCHEM_XLOGP3_AA>
8.2

> <PUBCHEM_EXACT_MASS>
635.260706

> <PUBCHEM_MOLECULAR_FORMULA>
C35H36F3N3O5

> <PUBCHEM_MOLECULAR_WEIGHT>
635.67265

> <PUBCHEM_OPENEYE_CAN_SMILES>
CCOC(=O)NCC(CC1=CC=C(C=C1)OCCC2=C(OC(=N2)C3=CC=CC=C3)C)NC(=CC(=O)C4=CC=C(C=C4)C(F)(F)F)C

> <PUBCHEM_OPENEYE_ISO_SMILES>
CCOC(=O)NC[C@H](CC1=CC=C(C=C1)OCCC2=C(OC(=N2)C3=CC=CC=C3)C)N/C(=C\C(=O)C4=CC=C(C=C4)C(F)(F)F)/C

> <PUBCHEM_CACTVS_TPSA>
103

> <PUBCHEM_MONOISOTOPIC_WEIGHT>
635.260706

> <PUBCHEM_TOTAL_CHARGE>
0

> <PUBCHEM_HEAVY_ATOM_COUNT>
46

> <PUBCHEM_ATOM_DEF_STEREO_COUNT>
1

> <PUBCHEM_ATOM_UDEF_STEREO_COUNT>
0

> <PUBCHEM_BOND_DEF_STEREO_COUNT>
1

> <PUBCHEM_BOND_UDEF_STEREO_COUNT>
0

> <PUBCHEM_ISOTOPIC_ATOM_COUNT>
0

> <PUBCHEM_COMPONENT_COUNT>
1

> <PUBCHEM_CACTVS_TAUTO_COUNT>
10

> <PUBCHEM_COORDINATE_TYPE>
1
5
255

> <PUBCHEM_BONDANNOTATIONS>
11  27  8
11  31  8
15  17  8
15  18  8
17  20  8
18  21  8
19  20  8
19  21  8
27  29  8
30  34  8
30  35  8
33  40  8
33  41  8
34  38  8
35  39  8
37  38  8
37  39  8
40  44  8
41  45  8
44  46  8
45  46  8
6  29  8
6  31  8
12  9  6

$$$$

