656555
  -OEChem-07051212552D

 48 49  0     1  0  0  0  0  0999 V2000
    6.0010   -0.5950    0.0000 S   0  0  0  0  0  0  0  0  0  0  0  0
    7.7331    2.4050    0.0000 S   0  0  0  0  0  0  0  0  0  0  0  0
    4.2690   -0.5950    0.0000 O   0  0  0  0  0  0  0  0  0  0  0  0
    4.2690   -3.5950    0.0000 O   0  0  0  0  0  0  0  0  0  0  0  0
    2.5369   -2.5950    0.0000 O   0  0  0  0  0  0  0  0  0  0  0  0
    6.0010   -2.5950    0.0000 O   0  0  0  0  0  0  0  0  0  0  0  0
    2.5369    0.4050    0.0000 O   0  0  0  0  0  0  0  0  0  0  0  0
    6.8671    1.9050    0.0000 O   0  0  0  0  0  0  0  0  0  0  0  0
    8.5991    2.9050    0.0000 O   0  0  0  0  0  0  0  0  0  0  0  0
    7.2331    3.2710    0.0000 O   0  0  0  0  0  0  0  0  0  0  0  0
    8.2331    1.5390    0.0000 O   0  0  0  0  0  0  0  0  0  0  0  0
    6.8671    0.9050    0.0000 N   0  0  0  0  0  0  0  0  0  0  0  0
    4.2690   -2.5950    0.0000 C   0  0  1  0  0  0  0  0  0  0  0  0
    3.4030   -2.0950    0.0000 C   0  0  1  0  0  0  0  0  0  0  0  0
    5.1350   -2.0950    0.0000 C   0  0  2  0  0  0  0  0  0  0  0  0
    3.4030   -1.0950    0.0000 C   0  0  1  0  0  0  0  0  0  0  0  0
    5.1350   -1.0950    0.0000 C   0  0  2  0  0  0  0  0  0  0  0  0
    2.5369   -0.5950    0.0000 C   0  0  0  0  0  0  0  0  0  0  0  0
    6.0010    0.4050    0.0000 C   0  0  0  0  0  0  0  0  0  0  0  0
    5.1350    0.9050    0.0000 C   0  0  0  0  0  0  0  0  0  0  0  0
    5.1350    1.9050    0.0000 C   0  0  0  0  0  0  0  0  0  0  0  0
    4.2690    2.4050    0.0000 C   0  0  0  0  0  0  0  0  0  0  0  0
    4.2690    3.4050    0.0000 C   0  0  0  0  0  0  0  0  0  0  0  0
    3.4030    1.9050    0.0000 C   0  0  0  0  0  0  0  0  0  0  0  0
    3.4030    3.9050    0.0000 C   0  0  0  0  0  0  0  0  0  0  0  0
    2.5369    2.4050    0.0000 C   0  0  0  0  0  0  0  0  0  0  0  0
    2.5369    3.4050    0.0000 C   0  0  0  0  0  0  0  0  0  0  0  0
    4.8059   -2.9050    0.0000 H   0  0  0  0  0  0  0  0  0  0  0  0
    3.4030   -2.7150    0.0000 H   0  0  0  0  0  0  0  0  0  0  0  0
    5.1350   -2.7150    0.0000 H   0  0  0  0  0  0  0  0  0  0  0  0
    3.4030   -0.4750    0.0000 H   0  0  0  0  0  0  0  0  0  0  0  0
    5.1350   -0.4750    0.0000 H   0  0  0  0  0  0  0  0  0  0  0  0
    1.9264   -0.4873    0.0000 H   0  0  0  0  0  0  0  0  0  0  0  0
    2.3249   -1.1776    0.0000 H   0  0  0  0  0  0  0  0  0  0  0  0
    3.7320   -3.9050    0.0000 H   0  0  0  0  0  0  0  0  0  0  0  0
    2.0000   -2.2850    0.0000 H   0  0  0  0  0  0  0  0  0  0  0  0
    6.5380   -2.2850    0.0000 H   0  0  0  0  0  0  0  0  0  0  0  0
    4.5244    1.0127    0.0000 H   0  0  0  0  0  0  0  0  0  0  0  0
    4.9230    0.3224    0.0000 H   0  0  0  0  0  0  0  0  0  0  0  0
    2.0000    0.7150    0.0000 H   0  0  0  0  0  0  0  0  0  0  0  0
    5.7456    1.7973    0.0000 H   0  0  0  0  0  0  0  0  0  0  0  0
    5.3471    2.4876    0.0000 H   0  0  0  0  0  0  0  0  0  0  0  0
    4.8059    3.7150    0.0000 H   0  0  0  0  0  0  0  0  0  0  0  0
    3.4030    1.2850    0.0000 H   0  0  0  0  0  0  0  0  0  0  0  0
    3.4030    4.5250    0.0000 H   0  0  0  0  0  0  0  0  0  0  0  0
    2.0000    2.0950    0.0000 H   0  0  0  0  0  0  0  0  0  0  0  0
    2.0000    3.7150    0.0000 H   0  0  0  0  0  0  0  0  0  0  0  0
    8.5991    3.5250    0.0000 H   0  0  0  0  0  0  0  0  0  0  0  0
 17  1  1  1  0  0  0
  1 19  1  0  0  0  0
  2  8  1  0  0  0  0
  2  9  1  0  0  0  0
  2 10  2  0  0  0  0
  2 11  2  0  0  0  0
  3 16  1  0  0  0  0
  3 17  1  0  0  0  0
 13  4  1  1  0  0  0
  4 35  1  0  0  0  0
 14  5  1  6  0  0  0
  5 36  1  0  0  0  0
 15  6  1  6  0  0  0
  6 37  1  0  0  0  0
  7 18  1  0  0  0  0
  7 40  1  0  0  0  0
  8 12  1  0  0  0  0
  9 48  1  0  0  0  0
 12 19  2  3  0  0  0
 13 14  1  0  0  0  0
 13 15  1  0  0  0  0
 13 28  1  0  0  0  0
 14 16  1  0  0  0  0
 14 29  1  0  0  0  0
 15 17  1  0  0  0  0
 15 30  1  0  0  0  0
 16 18  1  1  0  0  0
 16 31  1  0  0  0  0
 17 32  1  0  0  0  0
 18 33  1  0  0  0  0
 18 34  1  0  0  0  0
 19 20  1  0  0  0  0
 20 21  1  0  0  0  0
 20 38  1  0  0  0  0
 20 39  1  0  0  0  0
 21 22  1  0  0  0  0
 21 41  1  0  0  0  0
 21 42  1  0  0  0  0
 22 23  2  0  0  0  0
 22 24  1  0  0  0  0
 23 25  1  0  0  0  0
 23 43  1  0  0  0  0
 24 26  2  0  0  0  0
 24 44  1  0  0  0  0
 25 27  2  0  0  0  0
 25 45  1  0  0  0  0
 26 27  1  0  0  0  0
 26 46  1  0  0  0  0
 27 47  1  0  0  0  0
M  END
> <PUBCHEM_COMPOUND_CID>
656555

> <PUBCHEM_COMPOUND_CANONICALIZED>
1

> <PUBCHEM_CACTVS_COMPLEXITY>
589

> <PUBCHEM_CACTVS_HBOND_ACCEPTOR>
11

> <PUBCHEM_CACTVS_HBOND_DONOR>
5

> <PUBCHEM_CACTVS_ROTATABLE_BOND>
8

> <PUBCHEM_CACTVS_SUBSKEYS>
AAADceByPABgAAAAAAAAAAAAAAAAAAAAAAA0QAAAAAAAAAABAAAAHgQECAAADBSl2AKwAIAQBoigAiBiADACAAAgABAIiAAwAIgJMCKgERCCYAAlgAAriAfA4IQOAAAAAAAAAAAAAAAAAAAAAAAAAAAAAA==

> <PUBCHEM_IUPAC_OPENEYE_NAME>
[(2S,3R,4S,5S,6R)-3,4,5-trihydroxy-6-(hydroxymethyl)tetrahydropyran-2-yl] 3-phenyl-N-sulfooxy-propanimidothioate

> <PUBCHEM_IUPAC_CAS_NAME>
3-phenyl-N-sulfooxypropanimidothioic acid [(2S,3R,4S,5S,6R)-3,4,5-trihydroxy-6-(hydroxymethyl)-2-oxanyl] ester

> <PUBCHEM_IUPAC_NAME>
[(2S,3R,4S,5S,6R)-3,4,5-trihydroxy-6-(hydroxymethyl)oxan-2-yl] 3-phenyl-N-sulfooxypropanimidothioate

> <PUBCHEM_IUPAC_SYSTEMATIC_NAME>
[(2S,3R,4S,5S,6R)-6-(hydroxymethyl)-3,4,5-tris(oxidanyl)oxan-2-yl] 3-phenyl-N-sulfooxy-propanimidothioate

> <PUBCHEM_IUPAC_TRADITIONAL_NAME>
3-phenyl-N-sulfoxy-thiopropionimidic acid [(2S,3R,4S,5S,6R)-3,4,5-trihydroxy-6-methylol-tetrahydropyran-2-yl] ester

> <PUBCHEM_IUPAC_INCHI>
InChI=1S/C15H21NO9S2/c17-8-10-12(18)13(19)14(20)15(24-10)26-11(16-25-27(21,22)23)7-6-9-4-2-1-3-5-9/h1-5,10,12-15,17-20H,6-8H2,(H,21,22,23)/t10-,12-,13+,14-,15+/m1/s1

> <PUBCHEM_IUPAC_INCHIKEY>
CKIJIGYDFNXSET-LFHLZQBKSA-N

> <PUBCHEM_XLOGP3_AA>
0.1

> <PUBCHEM_EXACT_MASS>
423.065773

> <PUBCHEM_MOLECULAR_FORMULA>
C15H21NO9S2

> <PUBCHEM_MOLECULAR_WEIGHT>
423.45854

> <PUBCHEM_OPENEYE_CAN_SMILES>
C1=CC=C(C=C1)CCC(=NOS(=O)(=O)O)SC2C(C(C(C(O2)CO)O)O)O

> <PUBCHEM_OPENEYE_ISO_SMILES>
C1=CC=C(C=C1)CCC(=NOS(=O)(=O)O)S[C@H]2[C@@H]([C@H]([C@@H]([C@H](O2)CO)O)O)O

> <PUBCHEM_CACTVS_TPSA>
200

> <PUBCHEM_MONOISOTOPIC_WEIGHT>
423.065773

> <PUBCHEM_TOTAL_CHARGE>
0

> <PUBCHEM_HEAVY_ATOM_COUNT>
27

> <PUBCHEM_ATOM_DEF_STEREO_COUNT>
5

> <PUBCHEM_ATOM_UDEF_STEREO_COUNT>
0

> <PUBCHEM_BOND_DEF_STEREO_COUNT>
0

> <PUBCHEM_BOND_UDEF_STEREO_COUNT>
1

> <PUBCHEM_ISOTOPIC_ATOM_COUNT>
0

> <PUBCHEM_COMPONENT_COUNT>
1

> <PUBCHEM_CACTVS_TAUTO_COUNT>
2

> <PUBCHEM_COORDINATE_TYPE>
1
5
255

> <PUBCHEM_BONDANNOTATIONS>
17  1  5
12  19  1
16  18  5
22  23  8
22  24  8
23  25  8
24  26  8
25  27  8
26  27  8
13  4  5
14  5  6
15  6  6

$$$$

