5281704
  -OEChem-07051212592D

 36 38  0     0  0  0  0  0  0999 V2000
    7.1962    1.4279    0.0000 O   0  0  0  0  0  0  0  0  0  0  0  0
   10.7263   -0.5962    0.0000 O   0  0  0  0  0  0  0  0  0  0  0  0
    7.1962   -1.5721    0.0000 O   0  0  0  0  0  0  0  0  0  0  0  0
   10.7263    1.4521    0.0000 O   0  0  0  0  0  0  0  0  0  0  0  0
    2.8660   -2.0721    0.0000 O   0  0  0  0  0  0  0  0  0  0  0  0
    8.0622   -0.0721    0.0000 C   0  0  0  0  0  0  0  0  0  0  0  0
    6.3301   -0.0721    0.0000 C   0  0  0  0  0  0  0  0  0  0  0  0
    8.0622    0.9279    0.0000 C   0  0  0  0  0  0  0  0  0  0  0  0
    7.1962   -0.5721    0.0000 C   0  0  0  0  0  0  0  0  0  0  0  0
    5.4641   -0.5721    0.0000 C   0  0  0  0  0  0  0  0  0  0  0  0
    8.9561   -0.6067    0.0000 C   0  0  0  0  0  0  0  0  0  0  0  0
    6.3301    0.9279    0.0000 C   0  0  0  0  0  0  0  0  0  0  0  0
    8.9561    1.4626    0.0000 C   0  0  0  0  0  0  0  0  0  0  0  0
    9.8622   -0.0929    0.0000 C   0  0  0  0  0  0  0  0  0  0  0  0
    9.8622    0.9487    0.0000 C   0  0  0  0  0  0  0  0  0  0  0  0
    4.5981   -0.0721    0.0000 C   0  0  0  0  0  0  0  0  0  0  0  0
    5.4641   -1.5721    0.0000 C   0  0  0  0  0  0  0  0  0  0  0  0
    3.7320   -0.5721    0.0000 C   0  0  0  0  0  0  0  0  0  0  0  0
    4.5981   -2.0721    0.0000 C   0  0  0  0  0  0  0  0  0  0  0  0
    3.7320   -1.5721    0.0000 C   0  0  0  0  0  0  0  0  0  0  0  0
   10.7224   -1.5962    0.0000 C   0  0  0  0  0  0  0  0  0  0  0  0
    2.0000   -1.5721    0.0000 C   0  0  0  0  0  0  0  0  0  0  0  0
    8.9490   -1.2267    0.0000 H   0  0  0  0  0  0  0  0  0  0  0  0
    5.7932    1.2379    0.0000 H   0  0  0  0  0  0  0  0  0  0  0  0
    8.9490    2.0826    0.0000 H   0  0  0  0  0  0  0  0  0  0  0  0
    4.5981    0.5479    0.0000 H   0  0  0  0  0  0  0  0  0  0  0  0
    6.0010   -1.8821    0.0000 H   0  0  0  0  0  0  0  0  0  0  0  0
    3.1951   -0.2621    0.0000 H   0  0  0  0  0  0  0  0  0  0  0  0
    4.5981   -2.6921    0.0000 H   0  0  0  0  0  0  0  0  0  0  0  0
   10.7239    2.0721    0.0000 H   0  0  0  0  0  0  0  0  0  0  0  0
   10.1024   -1.5938    0.0000 H   0  0  0  0  0  0  0  0  0  0  0  0
   10.7200   -2.2162    0.0000 H   0  0  0  0  0  0  0  0  0  0  0  0
   11.3424   -1.5986    0.0000 H   0  0  0  0  0  0  0  0  0  0  0  0
    2.3100   -1.0351    0.0000 H   0  0  0  0  0  0  0  0  0  0  0  0
    1.4631   -1.2621    0.0000 H   0  0  0  0  0  0  0  0  0  0  0  0
    1.6900   -2.1090    0.0000 H   0  0  0  0  0  0  0  0  0  0  0  0
  1  8  1  0  0  0  0
  1 12  1  0  0  0  0
  2 14  1  0  0  0  0
  2 21  1  0  0  0  0
  3  9  2  0  0  0  0
  4 15  1  0  0  0  0
  4 30  1  0  0  0  0
  5 20  1  0  0  0  0
  5 22  1  0  0  0  0
  6  8  1  0  0  0  0
  6  9  1  0  0  0  0
  6 11  2  0  0  0  0
  7  9  1  0  0  0  0
  7 10  1  0  0  0  0
  7 12  2  0  0  0  0
  8 13  2  0  0  0  0
 10 16  2  0  0  0  0
 10 17  1  0  0  0  0
 11 14  1  0  0  0  0
 11 23  1  0  0  0  0
 12 24  1  0  0  0  0
 13 15  1  0  0  0  0
 13 25  1  0  0  0  0
 14 15  2  0  0  0  0
 16 18  1  0  0  0  0
 16 26  1  0  0  0  0
 17 19  2  0  0  0  0
 17 27  1  0  0  0  0
 18 20  2  0  0  0  0
 18 28  1  0  0  0  0
 19 20  1  0  0  0  0
 19 29  1  0  0  0  0
 21 31  1  0  0  0  0
 21 32  1  0  0  0  0
 21 33  1  0  0  0  0
 22 34  1  0  0  0  0
 22 35  1  0  0  0  0
 22 36  1  0  0  0  0
M  END
> <PUBCHEM_COMPOUND_CID>
5281704

> <PUBCHEM_COMPOUND_CANONICALIZED>
1

> <PUBCHEM_CACTVS_COMPLEXITY>
438

> <PUBCHEM_CACTVS_HBOND_ACCEPTOR>
5

> <PUBCHEM_CACTVS_HBOND_DONOR>
1

> <PUBCHEM_CACTVS_ROTATABLE_BOND>
3

> <PUBCHEM_CACTVS_SUBSKEYS>
AAADccB4OAAAAAAAAAAAAAAAAAAAAAAAAAAwYIAAAAAAAACBQAAAGgAACAAADASgmAIyBoAABgCIAqBSAAACCAAkIAAIiAEGiMgNJzaGNRqAcWMl4BULuYfK7PzOIQABCAAIQABCAAIQABCAAAAAAAAAAA==

> <PUBCHEM_IUPAC_OPENEYE_NAME>
7-hydroxy-6-methoxy-3-(4-methoxyphenyl)chromen-4-one

> <PUBCHEM_IUPAC_CAS_NAME>
7-hydroxy-6-methoxy-3-(4-methoxyphenyl)-1-benzopyran-4-one

> <PUBCHEM_IUPAC_NAME>
7-hydroxy-6-methoxy-3-(4-methoxyphenyl)chromen-4-one

> <PUBCHEM_IUPAC_SYSTEMATIC_NAME>
6-methoxy-3-(4-methoxyphenyl)-7-oxidanyl-chromen-4-one

> <PUBCHEM_IUPAC_TRADITIONAL_NAME>
7-hydroxy-6-methoxy-3-(4-methoxyphenyl)chromone

> <PUBCHEM_IUPAC_INCHI>
InChI=1S/C17H14O5/c1-20-11-5-3-10(4-6-11)13-9-22-15-8-14(18)16(21-2)7-12(15)17(13)19/h3-9,18H,1-2H3

> <PUBCHEM_IUPAC_INCHIKEY>
KJGPBYUQZLUKLL-UHFFFAOYSA-N

> <PUBCHEM_XLOGP3_AA>
2.8

> <PUBCHEM_EXACT_MASS>
298.084124

> <PUBCHEM_MOLECULAR_FORMULA>
C17H14O5

> <PUBCHEM_MOLECULAR_WEIGHT>
298.29006

> <PUBCHEM_OPENEYE_CAN_SMILES>
COC1=CC=C(C=C1)C2=COC3=CC(=C(C=C3C2=O)OC)O

> <PUBCHEM_OPENEYE_ISO_SMILES>
COC1=CC=C(C=C1)C2=COC3=CC(=C(C=C3C2=O)OC)O

> <PUBCHEM_CACTVS_TPSA>
65

> <PUBCHEM_MONOISOTOPIC_WEIGHT>
298.084124

> <PUBCHEM_TOTAL_CHARGE>
0

> <PUBCHEM_HEAVY_ATOM_COUNT>
22

> <PUBCHEM_ATOM_DEF_STEREO_COUNT>
0

> <PUBCHEM_ATOM_UDEF_STEREO_COUNT>
0

> <PUBCHEM_BOND_DEF_STEREO_COUNT>
0

> <PUBCHEM_BOND_UDEF_STEREO_COUNT>
0

> <PUBCHEM_ISOTOPIC_ATOM_COUNT>
0

> <PUBCHEM_COMPONENT_COUNT>
1

> <PUBCHEM_CACTVS_TAUTO_COUNT>
5

> <PUBCHEM_COORDINATE_TYPE>
1
5
255

> <PUBCHEM_BONDANNOTATIONS>
1  12  8
1  8  8
10  16  8
10  17  8
11  14  8
13  15  8
14  15  8
16  18  8
17  19  8
18  20  8
19  20  8
6  11  8
6  8  8
6  9  8
7  12  8
7  9  8
8  13  8

$$$$

