441084
  -OEChem-07051212513D

 52 53  0     1  0  0  0  0  0999 V2000
    1.4196   -0.7748   -2.0608 S   0  0  0  0  0  0  0  0  0  0  0  0
   -0.2517   -3.2961    0.5687 O   0  0  0  0  0  0  0  0  0  0  0  0
    0.0738   -0.7207    2.3893 O   0  0  0  0  0  0  0  0  0  0  0  0
    5.7280    0.6396   -0.8381 O   0  0  0  0  0  0  0  0  0  0  0  0
   -2.5644   -1.1736    1.1352 O   0  0  0  0  0  0  0  0  0  0  0  0
    3.1165    0.0318    2.8783 O   0  0  0  0  0  0  0  0  0  0  0  0
    2.7079    2.1177    2.0343 O   0  0  0  0  0  0  0  0  0  0  0  0
   -6.3494    3.1678   -0.3678 O   0  0  0  0  0  0  0  0  0  0  0  0
   -7.3137    1.8788    1.2286 O   0  0  0  0  0  0  0  0  0  0  0  0
    7.0292    2.5266   -0.6235 O   0  0  0  0  0  0  0  0  0  0  0  0
    1.5941   -0.6967    0.5872 N   0  0  0  0  0  0  0  0  0  0  0  0
   -1.0657   -1.3332   -0.6278 N   0  0  0  0  0  0  0  0  0  0  0  0
   -7.6633   -0.2145   -0.4629 N   0  0  0  0  0  0  0  0  0  0  0  0
    7.9468    0.5227   -1.2787 N   0  0  0  0  0  0  0  0  0  0  0  0
    0.0327   -1.9508    0.1360 C   0  0  2  0  0  0  0  0  0  0  0  0
    1.4164   -1.6592   -0.4848 C   0  0  1  0  0  0  0  0  0  0  0  0
    0.5097   -1.0502    1.3110 C   0  0  0  0  0  0  0  0  0  0  0  0
    2.6161    0.1958    0.6387 C   0  0  0  0  0  0  0  0  0  0  0  0
    3.3831    0.4559   -0.4468 C   0  0  0  0  0  0  0  0  0  0  0  0
    3.1140   -0.1384   -1.8275 C   0  0  0  0  0  0  0  0  0  0  0  0
   -2.2821   -0.9966   -0.0470 C   0  0  0  0  0  0  0  0  0  0  0  0
    4.5844    1.3705   -0.4489 C   0  0  0  0  0  0  0  0  0  0  0  0
    2.8111    0.9143    1.9067 C   0  0  0  0  0  0  0  0  0  0  0  0
   -3.2465   -0.4021   -1.0597 C   0  0  0  0  0  0  0  0  0  0  0  0
   -0.2592   -4.2781   -0.4564 C   0  0  0  0  0  0  0  0  0  0  0  0
   -4.6011   -0.0161   -0.4636 C   0  0  0  0  0  0  0  0  0  0  0  0
   -5.5444    0.5888   -1.5153 C   0  0  0  0  0  0  0  0  0  0  0  0
   -6.9469    0.9436   -0.9967 C   0  0  2  0  0  0  0  0  0  0  0  0
   -6.9059    2.0118    0.0819 C   0  0  0  0  0  0  0  0  0  0  0  0
    6.9108    1.3352   -0.8896 C   0  0  0  0  0  0  0  0  0  0  0  0
    2.1300   -2.4894   -0.4232 H   0  0  0  0  0  0  0  0  0  0  0  0
   -0.9485   -1.1574   -1.6229 H   0  0  0  0  0  0  0  0  0  0  0  0
    3.8233   -0.9500   -2.0229 H   0  0  0  0  0  0  0  0  0  0  0  0
    3.2604    0.6271   -2.5968 H   0  0  0  0  0  0  0  0  0  0  0  0
    4.4098    2.1932   -1.1535 H   0  0  0  0  0  0  0  0  0  0  0  0
    4.7708    1.8090    0.5361 H   0  0  0  0  0  0  0  0  0  0  0  0
   -3.3912   -1.1368   -1.8611 H   0  0  0  0  0  0  0  0  0  0  0  0
   -2.7713    0.4830   -1.4998 H   0  0  0  0  0  0  0  0  0  0  0  0
   -0.9866   -4.0221   -1.2320 H   0  0  0  0  0  0  0  0  0  0  0  0
    0.7363   -4.3834   -0.8959 H   0  0  0  0  0  0  0  0  0  0  0  0
   -0.5459   -5.2354   -0.0131 H   0  0  0  0  0  0  0  0  0  0  0  0
   -4.4461    0.7002    0.3523 H   0  0  0  0  0  0  0  0  0  0  0  0
   -5.0587   -0.9066   -0.0165 H   0  0  0  0  0  0  0  0  0  0  0  0
   -5.0728    1.4862   -1.9354 H   0  0  0  0  0  0  0  0  0  0  0  0
   -5.6476   -0.1210   -2.3466 H   0  0  0  0  0  0  0  0  0  0  0  0
   -7.5406    1.3478   -1.8257 H   0  0  0  0  0  0  0  0  0  0  0  0
    3.2555    0.4701    3.7448 H   0  0  0  0  0  0  0  0  0  0  0  0
   -8.6260    0.0454   -0.2511 H   0  0  0  0  0  0  0  0  0  0  0  0
   -7.7147   -0.9414   -1.1755 H   0  0  0  0  0  0  0  0  0  0  0  0
    7.7983   -0.4587   -1.4886 H   0  0  0  0  0  0  0  0  0  0  0  0
    8.8926    0.8785   -1.3684 H   0  0  0  0  0  0  0  0  0  0  0  0
   -6.3212    3.8555    0.3312 H   0  0  0  0  0  0  0  0  0  0  0  0
  1 16  1  0  0  0  0
  1 20  1  0  0  0  0
  2 15  1  0  0  0  0
  2 25  1  0  0  0  0
  3 17  2  0  0  0  0
  4 22  1  0  0  0  0
  4 30  1  0  0  0  0
  5 21  2  0  0  0  0
  6 23  1  0  0  0  0
  6 47  1  0  0  0  0
  7 23  2  0  0  0  0
  8 29  1  0  0  0  0
  8 52  1  0  0  0  0
  9 29  2  0  0  0  0
 10 30  2  0  0  0  0
 11 16  1  0  0  0  0
 11 17  1  0  0  0  0
 11 18  1  0  0  0  0
 12 15  1  0  0  0  0
 12 21  1  0  0  0  0
 12 32  1  0  0  0  0
 13 28  1  0  0  0  0
 13 48  1  0  0  0  0
 13 49  1  0  0  0  0
 14 30  1  0  0  0  0
 14 50  1  0  0  0  0
 14 51  1  0  0  0  0
 15 16  1  0  0  0  0
 15 17  1  0  0  0  0
 16 31  1  0  0  0  0
 18 19  2  0  0  0  0
 18 23  1  0  0  0  0
 19 20  1  0  0  0  0
 19 22  1  0  0  0  0
 20 33  1  0  0  0  0
 20 34  1  0  0  0  0
 21 24  1  0  0  0  0
 22 35  1  0  0  0  0
 22 36  1  0  0  0  0
 24 26  1  0  0  0  0
 24 37  1  0  0  0  0
 24 38  1  0  0  0  0
 25 39  1  0  0  0  0
 25 40  1  0  0  0  0
 25 41  1  0  0  0  0
 26 27  1  0  0  0  0
 26 42  1  0  0  0  0
 26 43  1  0  0  0  0
 27 28  1  0  0  0  0
 27 44  1  0  0  0  0
 27 45  1  0  0  0  0
 28 29  1  0  0  0  0
 28 46  1  0  0  0  0
M  END
> <PUBCHEM_COMPOUND_CID>
441084

> <PUBCHEM_CONFORMER_RMSD>
1.2

> <PUBCHEM_CONFORMER_DIVERSEORDER>
1
19
15
23
27
28
25
16
29
8
11
22
5
21
18
12
24
10
13
20
6
17
7
9
14
3
2
26
4

> <PUBCHEM_MMFF94_PARTIAL_CHARGES>
35
1 -0.45
10 -0.57
11 -0.39
12 -0.65
13 -0.99
14 -0.8
15 0.54
16 0.44
17 0.58
18 0.12
19 -0.28
2 -0.54
20 0.37
21 0.57
22 0.42
23 0.71
24 0.06
25 0.28
28 0.33
29 0.66
3 -0.57
30 0.78
32 0.37
4 -0.43
47 0.5
48 0.36
49 0.36
5 -0.57
50 0.37
51 0.37
52 0.5
6 -0.65
7 -0.57
8 -0.65
9 -0.57

> <PUBCHEM_EFFECTIVE_ROTOR_COUNT>
12.6

> <PUBCHEM_PHARMACOPHORE_FEATURES>
16
1 10 acceptor
1 12 donor
1 13 cation
1 13 donor
1 14 donor
1 2 acceptor
1 3 acceptor
1 5 acceptor
1 6 acceptor
1 7 acceptor
1 8 acceptor
1 9 acceptor
3 6 7 23 anion
3 8 9 29 anion
4 11 15 16 17 rings
6 1 11 16 18 19 20 rings

> <PUBCHEM_HEAVY_ATOM_COUNT>
30

> <PUBCHEM_ATOM_DEF_STEREO_COUNT>
3

> <PUBCHEM_ATOM_UDEF_STEREO_COUNT>
0

> <PUBCHEM_BOND_DEF_STEREO_COUNT>
0

> <PUBCHEM_BOND_UDEF_STEREO_COUNT>
0

> <PUBCHEM_ISOTOPIC_ATOM_COUNT>
0

> <PUBCHEM_COMPONENT_COUNT>
1

> <PUBCHEM_CACTVS_TAUTO_COUNT>
4

> <PUBCHEM_CONFORMER_ID>
0006BAFC00000001

> <PUBCHEM_MMFF94_ENERGY>
61.7307

> <PUBCHEM_FEATURE_SELFOVERLAP>
81.567

> <PUBCHEM_SHAPE_FINGERPRINT>
10670039 82 18114178661902383073
10674148 151 17346599648319887732
10721379 63 18045495572034642039
11115154 58 15647041686292024091
11135609 201 18343865520216287653
11724838 91 16845573089588058759
1200032 147 18201716275483010578
13540713 4 17462573806201828810
14294032 229 18272095959618000799
14931854 50 16443334386711052844
15183329 4 15936410066043041237
15324884 4 17026293085236598418
190975 80 10735877266402067644
19377110 9 17132112442989934819
20505436 4 17775010051045521938
21033648 29 18338805506974216744
21424621 283 18411416215411408389
21637258 2 7493288841324106703
21756936 100 17346041044050488938
23559900 14 17532370856162475898
25223398 141 17751644243064364782
2838139 119 18338797814645936268
3004659 81 14273455877096607463
3009799 131 17240762853299216574
312425 54 12966853489936485565
3178227 256 14189575213767831740
3633792 109 18261103119873367622
474113 269 17313940948829208982
5718773 13 8574710191662259109
960060 61 14201411469272805655

> <PUBCHEM_SHAPE_MULTIPOLES>
548.49
19.75
3.08
2.01
15.98
2
0.96
-20.74
-7.13
1.36
0.18
-1.68
-0.23
-0.24

> <PUBCHEM_SHAPE_SELFOVERLAP>
1121.377

> <PUBCHEM_SHAPE_VOLUME>
316.9

> <PUBCHEM_COORDINATE_TYPE>
2
5
10

$$$$

