153845
  -OEChem-07051213102D

 39 40  0     1  0  0  0  0  0999 V2000
    2.8660    1.2500    0.0000 O   0  0  0  0  0  0  0  0  0  0  0  0
    9.3306    0.2500    0.0000 O   0  0  0  0  0  0  0  0  0  0  0  0
    5.4641    0.7500    0.0000 C   0  0  2  0  0  0  0  0  0  0  0  0
    5.4641   -0.2500    0.0000 C   0  0  1  0  0  0  0  0  0  0  0  0
    6.3306    0.2500    0.0000 C   0  0  1  0  0  0  0  0  0  0  0  0
    4.5981    1.2500    0.0000 C   0  0  0  0  0  0  0  0  0  0  0  0
    4.5981   -0.7500    0.0000 C   0  0  0  0  0  0  0  0  0  0  0  0
    7.3306    0.2500    0.0000 C   0  0  0  0  0  0  0  0  0  0  0  0
    5.4641    1.7500    0.0000 C   0  0  0  0  0  0  0  0  0  0  0  0
    3.7320   -0.2500    0.0000 C   0  0  0  0  0  0  0  0  0  0  0  0
    3.7320    0.7500    0.0000 C   0  0  0  0  0  0  0  0  0  0  0  0
    7.8306   -0.6160    0.0000 C   0  0  0  0  0  0  0  0  0  0  0  0
    2.8660   -0.7500    0.0000 C   0  0  0  0  0  0  0  0  0  0  0  0
    8.8306   -0.6160    0.0000 C   0  0  0  0  0  0  0  0  0  0  0  0
    2.8660   -1.7500    0.0000 C   0  0  0  0  0  0  0  0  0  0  0  0
    2.0000   -0.2500    0.0000 C   0  0  0  0  0  0  0  0  0  0  0  0
    9.3306   -1.4820    0.0000 C   0  0  0  0  0  0  0  0  0  0  0  0
    5.8890   -0.9862    0.0000 H   0  0  0  0  0  0  0  0  0  0  0  0
    6.4910   -0.3489    0.0000 H   0  0  0  0  0  0  0  0  0  0  0  0
    4.9966    1.7250    0.0000 H   0  0  0  0  0  0  0  0  0  0  0  0
    4.1996    1.7250    0.0000 H   0  0  0  0  0  0  0  0  0  0  0  0
    4.1996   -1.2250    0.0000 H   0  0  0  0  0  0  0  0  0  0  0  0
    4.9966   -1.2250    0.0000 H   0  0  0  0  0  0  0  0  0  0  0  0
    7.9132    0.4621    0.0000 H   0  0  0  0  0  0  0  0  0  0  0  0
    7.2230    0.8606    0.0000 H   0  0  0  0  0  0  0  0  0  0  0  0
    6.0841    1.7500    0.0000 H   0  0  0  0  0  0  0  0  0  0  0  0
    5.4641    2.3700    0.0000 H   0  0  0  0  0  0  0  0  0  0  0  0
    4.8441    1.7500    0.0000 H   0  0  0  0  0  0  0  0  0  0  0  0
    7.2480   -0.8281    0.0000 H   0  0  0  0  0  0  0  0  0  0  0  0
    7.9383   -1.2266    0.0000 H   0  0  0  0  0  0  0  0  0  0  0  0
    2.2460   -1.7500    0.0000 H   0  0  0  0  0  0  0  0  0  0  0  0
    2.8660   -2.3700    0.0000 H   0  0  0  0  0  0  0  0  0  0  0  0
    3.4860   -1.7500    0.0000 H   0  0  0  0  0  0  0  0  0  0  0  0
    2.3100    0.2869    0.0000 H   0  0  0  0  0  0  0  0  0  0  0  0
    1.4631    0.0600    0.0000 H   0  0  0  0  0  0  0  0  0  0  0  0
    1.6900   -0.7869    0.0000 H   0  0  0  0  0  0  0  0  0  0  0  0
    8.7937   -1.7920    0.0000 H   0  0  0  0  0  0  0  0  0  0  0  0
    9.6406   -2.0190    0.0000 H   0  0  0  0  0  0  0  0  0  0  0  0
    9.8676   -1.1720    0.0000 H   0  0  0  0  0  0  0  0  0  0  0  0
  1 11  2  0  0  0  0
  2 14  2  0  0  0  0
  3  4  1  0  0  0  0
  3  5  1  0  0  0  0
  3  6  1  0  0  0  0
  3  9  1  6  0  0  0
  4  5  1  0  0  0  0
  4  7  1  0  0  0  0
  4 18  1  6  0  0  0
  5  8  1  6  0  0  0
  5 19  1  0  0  0  0
  6 11  1  0  0  0  0
  6 20  1  0  0  0  0
  6 21  1  0  0  0  0
  7 10  1  0  0  0  0
  7 22  1  0  0  0  0
  7 23  1  0  0  0  0
  8 12  1  0  0  0  0
  8 24  1  0  0  0  0
  8 25  1  0  0  0  0
  9 26  1  0  0  0  0
  9 27  1  0  0  0  0
  9 28  1  0  0  0  0
 10 11  1  0  0  0  0
 10 13  2  0  0  0  0
 12 14  1  0  0  0  0
 12 29  1  0  0  0  0
 12 30  1  0  0  0  0
 13 15  1  0  0  0  0
 13 16  1  0  0  0  0
 14 17  1  0  0  0  0
 15 31  1  0  0  0  0
 15 32  1  0  0  0  0
 15 33  1  0  0  0  0
 16 34  1  0  0  0  0
 16 35  1  0  0  0  0
 16 36  1  0  0  0  0
 17 37  1  0  0  0  0
 17 38  1  0  0  0  0
 17 39  1  0  0  0  0
M  END
> <PUBCHEM_COMPOUND_CID>
153845

> <PUBCHEM_COMPOUND_CANONICALIZED>
1

> <PUBCHEM_CACTVS_COMPLEXITY>
401

> <PUBCHEM_CACTVS_HBOND_ACCEPTOR>
2

> <PUBCHEM_CACTVS_HBOND_DONOR>
0

> <PUBCHEM_CACTVS_ROTATABLE_BOND>
3

> <PUBCHEM_CACTVS_SUBSKEYS>
AAADceBwMAAAAAAAAAAAAAAAGAAAAAAAAAAwAAAABgAAAAAAAAAAGgAAAAAADwSAgAACAAAAAACIAoBQAAAAAAAgAAAACAEAAEgAABIAAAAAAAAAgAAIAQMIiMCPgAAAAAAAAAAAAAAAACAAAAAAAAAAAA==

> <PUBCHEM_IUPAC_OPENEYE_NAME>
(1S,6R,7R)-4-isopropylidene-1-methyl-7-(3-oxobutyl)norcaran-3-one

> <PUBCHEM_IUPAC_CAS_NAME>
(1R,6S,7R)-6-methyl-7-(3-oxobutyl)-3-propan-2-ylidene-4-bicyclo[4.1.0]heptanone

> <PUBCHEM_IUPAC_NAME>
(1R,6S,7R)-6-methyl-7-(3-oxobutyl)-3-propan-2-ylidenebicyclo[4.1.0]heptan-4-one

> <PUBCHEM_IUPAC_SYSTEMATIC_NAME>
(1R,6S,7R)-6-methyl-7-(3-oxidanylidenebutyl)-3-propan-2-ylidene-bicyclo[4.1.0]heptan-4-one

> <PUBCHEM_IUPAC_TRADITIONAL_NAME>
(1S,6R,7R)-4-isopropylidene-7-(3-ketobutyl)-1-methyl-norcaran-3-one

> <PUBCHEM_IUPAC_INCHI>
InChI=1S/C15H22O2/c1-9(2)11-7-13-12(6-5-10(3)16)15(13,4)8-14(11)17/h12-13H,5-8H2,1-4H3/t12-,13-,15+/m1/s1

> <PUBCHEM_IUPAC_INCHIKEY>
HUZJLWLCLJEXEL-NFAWXSAZSA-N

> <PUBCHEM_XLOGP3_AA>
2.4

> <PUBCHEM_EXACT_MASS>
234.16198

> <PUBCHEM_MOLECULAR_FORMULA>
C15H22O2

> <PUBCHEM_MOLECULAR_WEIGHT>
234.33398

> <PUBCHEM_OPENEYE_CAN_SMILES>
CC(=C1CC2C(C2(CC1=O)C)CCC(=O)C)C

> <PUBCHEM_OPENEYE_ISO_SMILES>
CC(=C1C[C@@H]2[C@H]([C@@]2(CC1=O)C)CCC(=O)C)C

> <PUBCHEM_CACTVS_TPSA>
34.1

> <PUBCHEM_MONOISOTOPIC_WEIGHT>
234.16198

> <PUBCHEM_TOTAL_CHARGE>
0

> <PUBCHEM_HEAVY_ATOM_COUNT>
17

> <PUBCHEM_ATOM_DEF_STEREO_COUNT>
3

> <PUBCHEM_ATOM_UDEF_STEREO_COUNT>
0

> <PUBCHEM_BOND_DEF_STEREO_COUNT>
0

> <PUBCHEM_BOND_UDEF_STEREO_COUNT>
0

> <PUBCHEM_ISOTOPIC_ATOM_COUNT>
0

> <PUBCHEM_COMPONENT_COUNT>
1

> <PUBCHEM_CACTVS_TAUTO_COUNT>
15

> <PUBCHEM_COORDINATE_TYPE>
1
5
255

> <PUBCHEM_BONDANNOTATIONS>
3  9  6
4  18  6
5  8  6

$$$$

