242344
  -OEChem-07051213072D

 54 57  0     1  0  0  0  0  0999 V2000
    8.4964    1.4808    0.0000 O   0  0  0  0  0  0  0  0  0  0  0  0
    2.0000   -1.7821    0.0000 O   0  0  0  0  0  0  0  0  0  0  0  0
   10.1427    0.9427    0.0000 O   0  0  0  0  0  0  0  0  0  0  0  0
    7.2395   -0.7745    0.0000 C   0  0  2  0  0  0  0  0  0  0  0  0
    7.2395    0.2255    0.0000 C   0  0  2  0  0  0  0  0  0  0  0  0
    6.3735   -1.2745    0.0000 C   0  0  1  0  0  0  0  0  0  0  0  0
    5.5075   -0.7745    0.0000 C   0  0  1  0  0  0  0  0  0  0  0  0
    4.5975   -1.2813    0.0000 C   0  0  2  0  0  0  0  0  0  0  0  0
    6.3735    0.7255    0.0000 C   0  0  0  0  0  0  0  0  0  0  0  0
    5.5075    0.2255    0.0000 C   0  0  0  0  0  0  0  0  0  0  0  0
    8.1857    0.5303    0.0000 C   0  0  2  0  0  0  0  0  0  0  0  0
    8.1857   -1.0792    0.0000 C   0  0  0  0  0  0  0  0  0  0  0  0
    6.3895   -2.3160    0.0000 C   0  0  0  0  0  0  0  0  0  0  0  0
    8.7693   -0.2745    0.0000 C   0  0  0  0  0  0  0  0  0  0  0  0
    4.5894   -2.3229    0.0000 C   0  0  0  0  0  0  0  0  0  0  0  0
    5.4915   -2.8437    0.0000 C   0  0  0  0  0  0  0  0  0  0  0  0
    7.2395    1.2255    0.0000 C   0  0  0  0  0  0  0  0  0  0  0  0
    3.6143   -0.9563    0.0000 C   0  0  0  0  0  0  0  0  0  0  0  0
    4.6052   -0.2814    0.0000 C   0  0  0  0  0  0  0  0  0  0  0  0
    3.6014   -2.6327    0.0000 C   0  0  0  0  0  0  0  0  0  0  0  0
    3.0000   -1.7898    0.0000 C   0  0  0  0  0  0  0  0  0  0  0  0
    9.4749    1.6870    0.0000 C   0  0  0  0  0  0  0  0  0  0  0  0
    9.7856    2.6375    0.0000 C   0  0  0  0  0  0  0  0  0  0  0  0
   10.7641    2.8437    0.0000 C   0  0  0  0  0  0  0  0  0  0  0  0
    7.3294   -1.6197    0.0000 H   0  0  0  0  0  0  0  0  0  0  0  0
    7.1129   -1.6938    0.0000 H   0  0  0  0  0  0  0  0  0  0  0  0
    6.2436   -0.3495    0.0000 H   0  0  0  0  0  0  0  0  0  0  0  0
    6.7720    1.2005    0.0000 H   0  0  0  0  0  0  0  0  0  0  0  0
    5.9750    1.2005    0.0000 H   0  0  0  0  0  0  0  0  0  0  0  0
    5.2954    0.8081    0.0000 H   0  0  0  0  0  0  0  0  0  0  0  0
    4.8969    0.1179    0.0000 H   0  0  0  0  0  0  0  0  0  0  0  0
    7.7483    0.9696    0.0000 H   0  0  0  0  0  0  0  0  0  0  0  0
    7.9347   -1.6461    0.0000 H   0  0  0  0  0  0  0  0  0  0  0  0
    8.7231   -1.3884    0.0000 H   0  0  0  0  0  0  0  0  0  0  0  0
    6.6076   -2.8964    0.0000 H   0  0  0  0  0  0  0  0  0  0  0  0
    6.9987   -2.2005    0.0000 H   0  0  0  0  0  0  0  0  0  0  0  0
    9.2302   -0.6892    0.0000 H   0  0  0  0  0  0  0  0  0  0  0  0
    9.2302    0.1403    0.0000 H   0  0  0  0  0  0  0  0  0  0  0  0
    5.0942   -3.3197    0.0000 H   0  0  0  0  0  0  0  0  0  0  0  0
    5.8925   -3.3166    0.0000 H   0  0  0  0  0  0  0  0  0  0  0  0
    7.8595    1.2255    0.0000 H   0  0  0  0  0  0  0  0  0  0  0  0
    7.2395    1.8455    0.0000 H   0  0  0  0  0  0  0  0  0  0  0  0
    6.6195    1.2255    0.0000 H   0  0  0  0  0  0  0  0  0  0  0  0
    3.8697   -0.3914    0.0000 H   0  0  0  0  0  0  0  0  0  0  0  0
    3.0793   -0.6430    0.0000 H   0  0  0  0  0  0  0  0  0  0  0  0
    5.2252   -0.2861    0.0000 H   0  0  0  0  0  0  0  0  0  0  0  0
    4.6099    0.3386    0.0000 H   0  0  0  0  0  0  0  0  0  0  0  0
    3.9852   -0.2766    0.0000 H   0  0  0  0  0  0  0  0  0  0  0  0
    3.4042   -3.2205    0.0000 H   0  0  0  0  0  0  0  0  0  0  0  0
    9.7650    3.2572    0.0000 H   0  0  0  0  0  0  0  0  0  0  0  0
    9.1717    2.7249    0.0000 H   0  0  0  0  0  0  0  0  0  0  0  0
   10.8919    2.2371    0.0000 H   0  0  0  0  0  0  0  0  0  0  0  0
   11.3707    2.9716    0.0000 H   0  0  0  0  0  0  0  0  0  0  0  0
   10.6362    3.4504    0.0000 H   0  0  0  0  0  0  0  0  0  0  0  0
 11  1  1  1  0  0  0
  1 22  1  0  0  0  0
  2 21  2  0  0  0  0
  3 22  2  0  0  0  0
  4  5  1  0  0  0  0
  4  6  1  0  0  0  0
  4 12  1  0  0  0  0
  4 25  1  6  0  0  0
  5  9  1  0  0  0  0
  5 11  1  0  0  0  0
  5 17  1  1  0  0  0
  6  7  1  0  0  0  0
  6 13  1  0  0  0  0
  6 26  1  1  0  0  0
  7  8  1  0  0  0  0
  7 10  1  0  0  0  0
  7 27  1  6  0  0  0
  8 15  1  0  0  0  0
  8 18  1  0  0  0  0
  8 19  1  1  0  0  0
  9 10  1  0  0  0  0
  9 28  1  0  0  0  0
  9 29  1  0  0  0  0
 10 30  1  0  0  0  0
 10 31  1  0  0  0  0
 11 14  1  0  0  0  0
 11 32  1  0  0  0  0
 12 14  1  0  0  0  0
 12 33  1  0  0  0  0
 12 34  1  0  0  0  0
 13 16  1  0  0  0  0
 13 35  1  0  0  0  0
 13 36  1  0  0  0  0
 14 37  1  0  0  0  0
 14 38  1  0  0  0  0
 15 16  1  0  0  0  0
 15 20  2  0  0  0  0
 16 39  1  0  0  0  0
 16 40  1  0  0  0  0
 17 41  1  0  0  0  0
 17 42  1  0  0  0  0
 17 43  1  0  0  0  0
 18 21  1  0  0  0  0
 18 44  1  0  0  0  0
 18 45  1  0  0  0  0
 19 46  1  0  0  0  0
 19 47  1  0  0  0  0
 19 48  1  0  0  0  0
 20 21  1  0  0  0  0
 20 49  1  0  0  0  0
 22 23  1  0  0  0  0
 23 24  1  0  0  0  0
 23 50  1  0  0  0  0
 23 51  1  0  0  0  0
 24 52  1  0  0  0  0
 24 53  1  0  0  0  0
 24 54  1  0  0  0  0
M  END
> <PUBCHEM_COMPOUND_CID>
242344

> <PUBCHEM_COMPOUND_CANONICALIZED>
1

> <PUBCHEM_CACTVS_COMPLEXITY>
606

> <PUBCHEM_CACTVS_HBOND_ACCEPTOR>
3

> <PUBCHEM_CACTVS_HBOND_DONOR>
0

> <PUBCHEM_CACTVS_ROTATABLE_BOND>
3

> <PUBCHEM_CACTVS_SUBSKEYS>
AAADceB4MAAAAAAAAAAAAAAAAAAAAYIAAAAwYAAAAAAAAGDAAAAAGgAAAAAADxSggAICCAAABACIAqDSCAAAAAAgAAAACAEAAEgAABIAAQACAAAEgAAIAQOIyPCPgAAAAAAAAACAAAQAACAAAIAADAAAAA==

> <PUBCHEM_IUPAC_OPENEYE_NAME>
[(3aR,3bS,5aS,6S,8aS,8bR)-3a,5a-dimethyl-2-oxo-3b,4,5,6,7,8,8a,8b,9,10-decahydro-3H-indeno[5,4-e]inden-6-yl] propanoate

> <PUBCHEM_IUPAC_CAS_NAME>
propanoic acid [(3aR,3bS,5aS,6S,8aS,8bR)-3a,5a-dimethyl-2-oxo-3b,4,5,6,7,8,8a,8b,9,10-decahydro-3H-indeno[5,4-e]inden-6-yl] ester

> <PUBCHEM_IUPAC_NAME>
[(3aR,3bS,5aS,6S,8aS,8bR)-3a,5a-dimethyl-2-oxo-3b,4,5,6,7,8,8a,8b,9,10-decahydro-3H-indeno[5,4-e]inden-6-yl] propanoate

> <PUBCHEM_IUPAC_SYSTEMATIC_NAME>
[(3aR,3bS,5aS,6S,8aS,8bR)-3a,5a-dimethyl-2-oxidanylidene-3b,4,5,6,7,8,8a,8b,9,10-decahydro-3H-indeno[5,4-e]inden-6-yl] propanoate

> <PUBCHEM_IUPAC_TRADITIONAL_NAME>
propionic acid [(3aR,3bS,5aS,6S,8aS,8bR)-2-keto-3a,5a-dimethyl-3b,4,5,6,7,8,8a,8b,9,10-decahydro-3H-inden[5,4-e]inden-6-yl] ester

> <PUBCHEM_IUPAC_INCHI>
InChI=1S/C21H30O3/c1-4-19(23)24-18-8-7-16-15-6-5-13-11-14(22)12-21(13,3)17(15)9-10-20(16,18)2/h11,15-18H,4-10,12H2,1-3H3/t15-,16-,17-,18-,20-,21-/m0/s1

> <PUBCHEM_IUPAC_INCHIKEY>
MXTKBLVVTKERGO-ZKHIMWLXSA-N

> <PUBCHEM_XLOGP3>
4

> <PUBCHEM_EXACT_MASS>
330.219495

> <PUBCHEM_MOLECULAR_FORMULA>
C21H30O3

> <PUBCHEM_MOLECULAR_WEIGHT>
330.4611

> <PUBCHEM_OPENEYE_CAN_SMILES>
CCC(=O)OC1CCC2C1(CCC3C2CCC4=CC(=O)CC34C)C

> <PUBCHEM_OPENEYE_ISO_SMILES>
CCC(=O)O[C@H]1CC[C@@H]2[C@@]1(CC[C@H]3[C@H]2CCC4=CC(=O)C[C@]34C)C

> <PUBCHEM_CACTVS_TPSA>
43.4

> <PUBCHEM_MONOISOTOPIC_WEIGHT>
330.219495

> <PUBCHEM_TOTAL_CHARGE>
0

> <PUBCHEM_HEAVY_ATOM_COUNT>
24

> <PUBCHEM_ATOM_DEF_STEREO_COUNT>
6

> <PUBCHEM_ATOM_UDEF_STEREO_COUNT>
0

> <PUBCHEM_BOND_DEF_STEREO_COUNT>
0

> <PUBCHEM_BOND_UDEF_STEREO_COUNT>
0

> <PUBCHEM_ISOTOPIC_ATOM_COUNT>
0

> <PUBCHEM_COMPONENT_COUNT>
1

> <PUBCHEM_CACTVS_TAUTO_COUNT>
5

> <PUBCHEM_COORDINATE_TYPE>
1
5
255

> <PUBCHEM_BONDANNOTATIONS>
11  1  5
4  25  6
5  17  5
6  26  5
7  27  6
8  19  5

$$$$

