6183584
  -OEChem-07051213063D

 34 35  0     0  0  0  0  0  0999 V2000
    1.3258   -2.7065   -0.1653 O   0  0  0  0  0  0  0  0  0  0  0  0
    3.6556    2.2903   -0.0557 O   0  0  0  0  0  0  0  0  0  0  0  0
    1.1101   -0.3142   -0.2277 C   0  0  0  0  0  0  0  0  0  0  0  0
    1.8822   -1.4618   -0.1400 C   0  0  0  0  0  0  0  0  0  0  0  0
    1.6886    0.9456   -0.2007 C   0  0  0  0  0  0  0  0  0  0  0  0
   -0.3557   -0.4084   -0.3525 C   0  0  0  0  0  0  0  0  0  0  0  0
    3.0738    1.0602   -0.0834 C   0  0  0  0  0  0  0  0  0  0  0  0
    3.2674   -1.3473   -0.0226 C   0  0  0  0  0  0  0  0  0  0  0  0
   -2.6625    0.4530    0.0639 C   0  0  0  0  0  0  0  0  0  0  0  0
    3.8632   -0.0864    0.0057 C   0  0  0  0  0  0  0  0  0  0  0  0
   -1.2109    0.4947    0.1422 C   0  0  0  0  0  0  0  0  0  0  0  0
   -3.2876   -0.3390   -0.8993 C   0  0  0  0  0  0  0  0  0  0  0  0
   -3.4297    1.2043    0.9540 C   0  0  0  0  0  0  0  0  0  0  0  0
   -4.6800   -0.3797   -0.9721 C   0  0  0  0  0  0  0  0  0  0  0  0
   -4.8221    1.1635    0.8811 C   0  0  0  0  0  0  0  0  0  0  0  0
   -5.4473    0.3714   -0.0819 C   0  0  0  0  0  0  0  0  0  0  0  0
    0.9527   -3.2737    1.0882 C   0  0  0  0  0  0  0  0  0  0  0  0
    5.0765    2.3340    0.0660 C   0  0  0  0  0  0  0  0  0  0  0  0
    1.1048    1.8577   -0.2914 H   0  0  0  0  0  0  0  0  0  0  0  0
   -0.7146   -1.2937   -0.8691 H   0  0  0  0  0  0  0  0  0  0  0  0
    3.8883   -2.2366    0.0464 H   0  0  0  0  0  0  0  0  0  0  0  0
    4.9436   -0.0703    0.0986 H   0  0  0  0  0  0  0  0  0  0  0  0
   -0.8271    1.3472    0.6996 H   0  0  0  0  0  0  0  0  0  0  0  0
   -2.7297   -0.9255   -1.6235 H   0  0  0  0  0  0  0  0  0  0  0  0
   -2.9615    1.8265    1.7130 H   0  0  0  0  0  0  0  0  0  0  0  0
   -5.1673   -0.9931   -1.7244 H   0  0  0  0  0  0  0  0  0  0  0  0
   -5.4197    1.7483    1.5744 H   0  0  0  0  0  0  0  0  0  0  0  0
   -6.5314    0.3404   -0.1392 H   0  0  0  0  0  0  0  0  0  0  0  0
    0.4936   -4.2481    0.8998 H   0  0  0  0  0  0  0  0  0  0  0  0
    0.2253   -2.6393    1.6042 H   0  0  0  0  0  0  0  0  0  0  0  0
    1.8355   -3.4200    1.7188 H   0  0  0  0  0  0  0  0  0  0  0  0
    5.5687    1.8712   -0.7962 H   0  0  0  0  0  0  0  0  0  0  0  0
    5.4124    1.9044    1.0158 H   0  0  0  0  0  0  0  0  0  0  0  0
    5.3681    3.3894    0.0717 H   0  0  0  0  0  0  0  0  0  0  0  0
  1  4  1  0  0  0  0
  1 17  1  0  0  0  0
  2  7  1  0  0  0  0
  2 18  1  0  0  0  0
  3  4  2  0  0  0  0
  3  5  1  0  0  0  0
  3  6  1  0  0  0  0
  4  8  1  0  0  0  0
  5  7  2  0  0  0  0
  5 19  1  0  0  0  0
  6 11  2  0  0  0  0
  6 20  1  0  0  0  0
  7 10  1  0  0  0  0
  8 10  2  0  0  0  0
  8 21  1  0  0  0  0
  9 11  1  0  0  0  0
  9 12  2  0  0  0  0
  9 13  1  0  0  0  0
 10 22  1  0  0  0  0
 11 23  1  0  0  0  0
 12 14  1  0  0  0  0
 12 24  1  0  0  0  0
 13 15  2  0  0  0  0
 13 25  1  0  0  0  0
 14 16  2  0  0  0  0
 14 26  1  0  0  0  0
 15 16  1  0  0  0  0
 15 27  1  0  0  0  0
 16 28  1  0  0  0  0
 17 29  1  0  0  0  0
 17 30  1  0  0  0  0
 17 31  1  0  0  0  0
 18 32  1  0  0  0  0
 18 33  1  0  0  0  0
 18 34  1  0  0  0  0
M  END
> <PUBCHEM_COMPOUND_CID>
6183584

> <PUBCHEM_CONFORMER_RMSD>
0.6

> <PUBCHEM_CONFORMER_DIVERSEORDER>
2
11
1
7
9
10
3
6
8
5
4

> <PUBCHEM_MMFF94_PARTIAL_CHARGES>
28
1 -0.36
10 -0.15
11 -0.18
12 -0.15
13 -0.15
14 -0.15
15 -0.15
16 -0.15
17 0.28
18 0.28
19 0.15
2 -0.36
20 0.15
21 0.15
22 0.15
23 0.15
24 0.15
25 0.15
26 0.15
27 0.15
28 0.15
3 0.03
4 0.08
5 -0.15
6 -0.18
7 0.08
8 -0.15
9 0.03

> <PUBCHEM_EFFECTIVE_ROTOR_COUNT>
4

> <PUBCHEM_PHARMACOPHORE_FEATURES>
4
1 1 acceptor
1 2 acceptor
6 3 4 5 7 8 10 rings
6 9 12 13 14 15 16 rings

> <PUBCHEM_HEAVY_ATOM_COUNT>
18

> <PUBCHEM_ATOM_DEF_STEREO_COUNT>
0

> <PUBCHEM_ATOM_UDEF_STEREO_COUNT>
0

> <PUBCHEM_BOND_DEF_STEREO_COUNT>
1

> <PUBCHEM_BOND_UDEF_STEREO_COUNT>
0

> <PUBCHEM_ISOTOPIC_ATOM_COUNT>
0

> <PUBCHEM_COMPONENT_COUNT>
1

> <PUBCHEM_CACTVS_TAUTO_COUNT>
1

> <PUBCHEM_CONFORMER_ID>
005E5AA000000002

> <PUBCHEM_MMFF94_ENERGY>
74.7852

> <PUBCHEM_FEATURE_SELFOVERLAP>
20.297

> <PUBCHEM_SHAPE_FINGERPRINT>
10090160 65 18341615897249628621
10366900 7 18058998605235216458
10411042 1 17834676381019830410
10595046 47 18334016099465655941
10616163 171 18186523194363407135
10912923 1 18113619002030397625
12107183 9 17469314199010905921
12236239 1 17967534583738245644
12390115 104 18194666082804364116
12596602 18 18114164355877601275
13140716 1 18342737408085146858
13167823 11 18260830440614762159
13583140 156 15840731581431414172
13631057 29 18117566120120890799
13760787 19 18113338609306285431
13955234 65 18341894151212104866
14528608 73 18334012765795860277
15342168 16 18200027322818241220
15375358 24 17846497045655493715
17834072 33 18261112972021428949
19050596 39 18334013925763700811
200 152 18333454261692330533
20279233 1 17131827699047200675
204376 136 18343019943585956766
20645477 70 18336829800786268215
21033648 29 17346888865977869181
21054139 6 18264217919670121615
21065198 48 18259983808124187401
21524375 3 18335705996944362878
21618674 25 18272368659353572027
21709351 56 18336551636991634772
2255824 54 18337952406226471118
23402655 69 18186520977574206444
23532345 1 18413105091278807337
23558518 356 17480866316765376048
239999 70 18261105326653094926
268830 7 18336827623617618121
29717793 49 17749391515832654909
335352 9 18410853245133053196
33824 294 18343302595410392170
34797466 226 15574996109314503449
42630746 31 18409169917914961822
4340502 62 18272366465015920651
474 4 18340768152367805620
5104073 3 18413106152072627963
603831 33 18113912541565013791
621550 34 18131356340425695669
633830 44 18334573542622086310
77779 3 18261391178575513013
8272917 22 18336823190520109814
9709674 26 18337383959084279991
9999458 23 18342454868193780790

> <PUBCHEM_SHAPE_MULTIPOLES>
358.69
11.29
2.62
0.89
7.4
1.56
0.07
-6.17
-0.08
-3.68
0.7
0.73
0.15
-0.81

> <PUBCHEM_SHAPE_SELFOVERLAP>
763.839

> <PUBCHEM_SHAPE_VOLUME>
200.8

> <PUBCHEM_COORDINATE_TYPE>
2
5
10

$$$$

