24892780
  -OEChem-07051213082D

 93 93  0     1  0  0  0  0  0999 V2000
    4.2690   -7.3450    0.0000 O   0  0  0  0  0  0  0  0  0  0  0  0
    2.5369   -9.3450    0.0000 O   0  0  0  0  0  0  0  0  0  0  0  0
    4.2690  -10.3450    0.0000 O   0  0  0  0  0  0  0  0  0  0  0  0
    6.0010   -9.3450    0.0000 O   0  0  0  0  0  0  0  0  0  0  0  0
    6.0010   -7.3450    0.0000 O   0  0  0  0  0  0  0  0  0  0  0  0
    2.5369   -6.3450    0.0000 O   0  0  0  0  0  0  0  0  0  0  0  0
    5.1350   -5.8450    0.0000 O   0  0  0  0  0  0  0  0  0  0  0  0
    3.4030   -8.8450    0.0000 C   0  0  1  0  0  0  0  0  0  0  0  0
    4.2690   -9.3450    0.0000 C   0  0  1  0  0  0  0  0  0  0  0  0
    3.4030   -7.8450    0.0000 C   0  0  1  0  0  0  0  0  0  0  0  0
    5.1350   -8.8450    0.0000 C   0  0  2  0  0  0  0  0  0  0  0  0
    5.1350   -7.8450    0.0000 C   0  0  1  0  0  0  0  0  0  0  0  0
    2.5369   -7.3450    0.0000 C   0  0  0  0  0  0  0  0  0  0  0  0
    6.0010   -6.3450    0.0000 C   0  0  0  0  0  0  0  0  0  0  0  0
    6.8671   -5.8450    0.0000 C   0  0  0  0  0  0  0  0  0  0  0  0
    7.7331   -6.3450    0.0000 C   0  0  0  0  0  0  0  0  0  0  0  0
    6.8671   -4.8450    0.0000 C   0  0  0  0  0  0  0  0  0  0  0  0
    7.7331   -4.3450    0.0000 C   0  0  0  0  0  0  0  0  0  0  0  0
    7.7331   -3.3450    0.0000 C   0  0  0  0  0  0  0  0  0  0  0  0
    8.5991   -2.8450    0.0000 C   0  0  0  0  0  0  0  0  0  0  0  0
   14.6613    7.6550    0.0000 C   0  0  0  0  0  0  0  0  0  0  0  0
   14.6613    8.6550    0.0000 C   0  0  0  0  0  0  0  0  0  0  0  0
   13.7953    7.1550    0.0000 C   0  0  0  0  0  0  0  0  0  0  0  0
   15.5273    9.1550    0.0000 C   0  0  0  0  0  0  0  0  0  0  0  0
    9.4651   -3.3450    0.0000 C   0  0  0  0  0  0  0  0  0  0  0  0
   15.5273   10.1550    0.0000 C   0  0  0  0  0  0  0  0  0  0  0  0
    8.5991   -1.8450    0.0000 C   0  0  0  0  0  0  0  0  0  0  0  0
   12.9292    7.6550    0.0000 C   0  0  0  0  0  0  0  0  0  0  0  0
   13.7953    6.1550    0.0000 C   0  0  0  0  0  0  0  0  0  0  0  0
   16.3933   10.6550    0.0000 C   0  0  0  0  0  0  0  0  0  0  0  0
   14.6613   10.6550    0.0000 C   0  0  0  0  0  0  0  0  0  0  0  0
   12.9292    5.6550    0.0000 C   0  0  0  0  0  0  0  0  0  0  0  0
    9.4651   -1.3450    0.0000 C   0  0  0  0  0  0  0  0  0  0  0  0
   12.9292    4.6550    0.0000 C   0  0  0  0  0  0  0  0  0  0  0  0
   12.0632    4.1550    0.0000 C   0  0  0  0  0  0  0  0  0  0  0  0
    9.4651   -0.3450    0.0000 C   0  0  0  0  0  0  0  0  0  0  0  0
   10.3312    0.1550    0.0000 C   0  0  0  0  0  0  0  0  0  0  0  0
   12.0632    3.1550    0.0000 C   0  0  0  0  0  0  0  0  0  0  0  0
   11.1972    4.6550    0.0000 C   0  0  0  0  0  0  0  0  0  0  0  0
   10.3312    1.1550    0.0000 C   0  0  0  0  0  0  0  0  0  0  0  0
   11.1972    2.6550    0.0000 C   0  0  0  0  0  0  0  0  0  0  0  0
   11.1972   -0.3450    0.0000 C   0  0  0  0  0  0  0  0  0  0  0  0
   11.1972    1.6550    0.0000 C   0  0  0  0  0  0  0  0  0  0  0  0
    3.4030   -9.4650    0.0000 H   0  0  0  0  0  0  0  0  0  0  0  0
    4.8059   -9.6550    0.0000 H   0  0  0  0  0  0  0  0  0  0  0  0
    3.4030   -7.2250    0.0000 H   0  0  0  0  0  0  0  0  0  0  0  0
    5.1350   -9.4650    0.0000 H   0  0  0  0  0  0  0  0  0  0  0  0
    5.1350   -7.2250    0.0000 H   0  0  0  0  0  0  0  0  0  0  0  0
    1.9264   -7.2373    0.0000 H   0  0  0  0  0  0  0  0  0  0  0  0
    2.3249   -7.9276    0.0000 H   0  0  0  0  0  0  0  0  0  0  0  0
    2.0000   -9.0350    0.0000 H   0  0  0  0  0  0  0  0  0  0  0  0
    3.7320  -10.6550    0.0000 H   0  0  0  0  0  0  0  0  0  0  0  0
    6.5380   -9.0350    0.0000 H   0  0  0  0  0  0  0  0  0  0  0  0
    2.0000   -6.0350    0.0000 H   0  0  0  0  0  0  0  0  0  0  0  0
    7.4231   -6.8819    0.0000 H   0  0  0  0  0  0  0  0  0  0  0  0
    8.2700   -6.6550    0.0000 H   0  0  0  0  0  0  0  0  0  0  0  0
    8.0431   -5.8081    0.0000 H   0  0  0  0  0  0  0  0  0  0  0  0
    6.3301   -4.5350    0.0000 H   0  0  0  0  0  0  0  0  0  0  0  0
    8.2700   -4.6550    0.0000 H   0  0  0  0  0  0  0  0  0  0  0  0
    7.1962   -3.0350    0.0000 H   0  0  0  0  0  0  0  0  0  0  0  0
   14.8733    7.0724    0.0000 H   0  0  0  0  0  0  0  0  0  0  0  0
   15.2719    7.7627    0.0000 H   0  0  0  0  0  0  0  0  0  0  0  0
   14.4492    9.2376    0.0000 H   0  0  0  0  0  0  0  0  0  0  0  0
   14.0507    8.5473    0.0000 H   0  0  0  0  0  0  0  0  0  0  0  0
   16.0643    8.8450    0.0000 H   0  0  0  0  0  0  0  0  0  0  0  0
    9.1551   -3.8819    0.0000 H   0  0  0  0  0  0  0  0  0  0  0  0
   10.0021   -3.6550    0.0000 H   0  0  0  0  0  0  0  0  0  0  0  0
    9.7751   -2.8081    0.0000 H   0  0  0  0  0  0  0  0  0  0  0  0
   13.2392    8.1919    0.0000 H   0  0  0  0  0  0  0  0  0  0  0  0
   12.3923    7.9650    0.0000 H   0  0  0  0  0  0  0  0  0  0  0  0
   12.6192    7.1181    0.0000 H   0  0  0  0  0  0  0  0  0  0  0  0
    8.0622   -1.5350    0.0000 H   0  0  0  0  0  0  0  0  0  0  0  0
   14.3322    5.8450    0.0000 H   0  0  0  0  0  0  0  0  0  0  0  0
   14.9713   11.1919    0.0000 H   0  0  0  0  0  0  0  0  0  0  0  0
   14.1244   10.9650    0.0000 H   0  0  0  0  0  0  0  0  0  0  0  0
   14.3513   10.1181    0.0000 H   0  0  0  0  0  0  0  0  0  0  0  0
   16.7033   10.1181    0.0000 H   0  0  0  0  0  0  0  0  0  0  0  0
   16.9303   10.9650    0.0000 H   0  0  0  0  0  0  0  0  0  0  0  0
   16.0833   11.1919    0.0000 H   0  0  0  0  0  0  0  0  0  0  0  0
   12.3923    5.9650    0.0000 H   0  0  0  0  0  0  0  0  0  0  0  0
   10.0021   -1.6550    0.0000 H   0  0  0  0  0  0  0  0  0  0  0  0
   13.4662    4.3450    0.0000 H   0  0  0  0  0  0  0  0  0  0  0  0
    8.9282   -0.0350    0.0000 H   0  0  0  0  0  0  0  0  0  0  0  0
   12.6002    2.8450    0.0000 H   0  0  0  0  0  0  0  0  0  0  0  0
   11.5072    5.1919    0.0000 H   0  0  0  0  0  0  0  0  0  0  0  0
   10.6603    4.9650    0.0000 H   0  0  0  0  0  0  0  0  0  0  0  0
   10.8872    4.1181    0.0000 H   0  0  0  0  0  0  0  0  0  0  0  0
    9.7942    1.4650    0.0000 H   0  0  0  0  0  0  0  0  0  0  0  0
   10.6603    2.9650    0.0000 H   0  0  0  0  0  0  0  0  0  0  0  0
   11.7341    1.3450    0.0000 H   0  0  0  0  0  0  0  0  0  0  0  0
   10.8872   -0.8819    0.0000 H   0  0  0  0  0  0  0  0  0  0  0  0
   11.7341   -0.6550    0.0000 H   0  0  0  0  0  0  0  0  0  0  0  0
   11.5072    0.1919    0.0000 H   0  0  0  0  0  0  0  0  0  0  0  0
  1 10  1  0  0  0  0
  1 12  1  0  0  0  0
  8  2  1  6  0  0  0
  2 51  1  0  0  0  0
  9  3  1  1  0  0  0
  3 52  1  0  0  0  0
 11  4  1  6  0  0  0
  4 53  1  0  0  0  0
 12  5  1  1  0  0  0
  5 14  1  0  0  0  0
  6 13  1  0  0  0  0
  6 54  1  0  0  0  0
  7 14  2  0  0  0  0
  8  9  1  0  0  0  0
  8 10  1  0  0  0  0
  8 44  1  0  0  0  0
  9 11  1  0  0  0  0
  9 45  1  0  0  0  0
 10 13  1  1  0  0  0
 10 46  1  0  0  0  0
 11 12  1  0  0  0  0
 11 47  1  0  0  0  0
 12 48  1  0  0  0  0
 13 49  1  0  0  0  0
 13 50  1  0  0  0  0
 14 15  1  0  0  0  0
 15 16  1  0  0  0  0
 15 17  2  0  0  0  0
 16 55  1  0  0  0  0
 16 56  1  0  0  0  0
 16 57  1  0  0  0  0
 17 18  1  0  0  0  0
 17 58  1  0  0  0  0
 18 19  2  0  0  0  0
 18 59  1  0  0  0  0
 19 20  1  0  0  0  0
 19 60  1  0  0  0  0
 20 25  1  0  0  0  0
 20 27  2  0  0  0  0
 21 22  1  0  0  0  0
 21 23  1  0  0  0  0
 21 61  1  0  0  0  0
 21 62  1  0  0  0  0
 22 24  1  0  0  0  0
 22 63  1  0  0  0  0
 22 64  1  0  0  0  0
 23 28  1  0  0  0  0
 23 29  2  0  0  0  0
 24 26  2  0  0  0  0
 24 65  1  0  0  0  0
 25 66  1  0  0  0  0
 25 67  1  0  0  0  0
 25 68  1  0  0  0  0
 26 30  1  0  0  0  0
 26 31  1  0  0  0  0
 27 33  1  0  0  0  0
 27 72  1  0  0  0  0
 28 69  1  0  0  0  0
 28 70  1  0  0  0  0
 28 71  1  0  0  0  0
 29 32  1  0  0  0  0
 29 73  1  0  0  0  0
 30 77  1  0  0  0  0
 30 78  1  0  0  0  0
 30 79  1  0  0  0  0
 31 74  1  0  0  0  0
 31 75  1  0  0  0  0
 31 76  1  0  0  0  0
 32 34  2  0  0  0  0
 32 80  1  0  0  0  0
 33 36  2  0  0  0  0
 33 81  1  0  0  0  0
 34 35  1  0  0  0  0
 34 82  1  0  0  0  0
 35 38  2  0  0  0  0
 35 39  1  0  0  0  0
 36 37  1  0  0  0  0
 36 83  1  0  0  0  0
 37 40  2  0  0  0  0
 37 42  1  0  0  0  0
 38 41  1  0  0  0  0
 38 84  1  0  0  0  0
 39 85  1  0  0  0  0
 39 86  1  0  0  0  0
 39 87  1  0  0  0  0
 40 43  1  0  0  0  0
 40 88  1  0  0  0  0
 41 43  2  0  0  0  0
 41 89  1  0  0  0  0
 42 91  1  0  0  0  0
 42 92  1  0  0  0  0
 42 93  1  0  0  0  0
 43 90  1  0  0  0  0
M  END
> <PUBCHEM_COMPOUND_CID>
24892780

> <PUBCHEM_COMPOUND_CANONICALIZED>
1

> <PUBCHEM_CACTVS_COMPLEXITY>
1200

> <PUBCHEM_CACTVS_HBOND_ACCEPTOR>
7

> <PUBCHEM_CACTVS_HBOND_DONOR>
4

> <PUBCHEM_CACTVS_ROTATABLE_BOND>
15

> <PUBCHEM_CACTVS_SUBSKEYS>
AAADcfB8OAAAAAAAAAAAAAAAAAAAAAAAAAAkAAAAAAAAAAAAAAAAGgAACAAADBSwgAMCCAAABgCIAiDSCAAAAAAgAAAICAEAAEgZFAIAIQAiUAAFgAAPoYPAYAwAAAAAAAAAAAAAAAAAAAAAAAAAAAAAAA==

> <PUBCHEM_IUPAC_OPENEYE_NAME>
[(2S,3R,4S,5S,6R)-3,4,5-trihydroxy-6-(hydroxymethyl)tetrahydropyran-2-yl] (2E,4E,6E,8E,10E,12E,14E,16E,18E)-2,6,10,15,19,23-hexamethyltetracosa-2,4,6,8,10,12,14,16,18,22-decaenoate

> <PUBCHEM_IUPAC_CAS_NAME>
(2E,4E,6E,8E,10E,12E,14E,16E,18E)-2,6,10,15,19,23-hexamethyltetracosa-2,4,6,8,10,12,14,16,18,22-decaenoic acid [(2S,3R,4S,5S,6R)-3,4,5-trihydroxy-6-(hydroxymethyl)-2-oxanyl] ester

> <PUBCHEM_IUPAC_NAME>
[(2S,3R,4S,5S,6R)-3,4,5-trihydroxy-6-(hydroxymethyl)oxan-2-yl] (2E,4E,6E,8E,10E,12E,14E,16E,18E)-2,6,10,15,19,23-hexamethyltetracosa-2,4,6,8,10,12,14,16,18,22-decaenoate

> <PUBCHEM_IUPAC_SYSTEMATIC_NAME>
[(2S,3R,4S,5S,6R)-6-(hydroxymethyl)-3,4,5-tris(oxidanyl)oxan-2-yl] (2E,4E,6E,8E,10E,12E,14E,16E,18E)-2,6,10,15,19,23-hexamethyltetracosa-2,4,6,8,10,12,14,16,18,22-decaenoate

> <PUBCHEM_IUPAC_TRADITIONAL_NAME>
(2E,4E,6E,8E,10E,12E,14E,16E,18E)-2,6,10,15,19,23-hexamethyltetracosa-2,4,6,8,10,12,14,16,18,22-decaenoic acid [(2S,3R,4S,5S,6R)-3,4,5-trihydroxy-6-methylol-tetrahydropyran-2-yl] ester

> <PUBCHEM_IUPAC_INCHI>
InChI=1S/C36H50O7/c1-25(2)14-10-17-28(5)20-11-18-26(3)15-8-9-16-27(4)19-12-21-29(6)22-13-23-30(7)35(41)43-36-34(40)33(39)32(38)31(24-37)42-36/h8-9,11-16,18-23,31-34,36-40H,10,17,24H2,1-7H3/b9-8+,18-11+,19-12+,22-13+,26-15+,27-16+,28-20+,29-21+,30-23+/t31-,32-,33+,34-,36+/m1/s1

> <PUBCHEM_IUPAC_INCHIKEY>
ZBQZCMIYCTXPBB-GQBMLQGDSA-N

> <PUBCHEM_XLOGP3_AA>
8.7

> <PUBCHEM_EXACT_MASS>
594.355654

> <PUBCHEM_MOLECULAR_FORMULA>
C36H50O7

> <PUBCHEM_MOLECULAR_WEIGHT>
594.778

> <PUBCHEM_OPENEYE_CAN_SMILES>
CC(=CCCC(=CC=CC(=CC=CC=C(C)C=CC=C(C)C=CC=C(C)C(=O)OC1C(C(C(C(O1)CO)O)O)O)C)C)C

> <PUBCHEM_OPENEYE_ISO_SMILES>
CC(=CCC/C(=C/C=C/C(=C/C=C/C=C(\C)/C=C/C=C(\C)/C=C/C=C(\C)/C(=O)O[C@H]1[C@@H]([C@H]([C@@H]([C@H](O1)CO)O)O)O)/C)/C)C

> <PUBCHEM_CACTVS_TPSA>
116

> <PUBCHEM_MONOISOTOPIC_WEIGHT>
594.355654

> <PUBCHEM_TOTAL_CHARGE>
0

> <PUBCHEM_HEAVY_ATOM_COUNT>
43

> <PUBCHEM_ATOM_DEF_STEREO_COUNT>
5

> <PUBCHEM_ATOM_UDEF_STEREO_COUNT>
0

> <PUBCHEM_BOND_DEF_STEREO_COUNT>
9

> <PUBCHEM_BOND_UDEF_STEREO_COUNT>
0

> <PUBCHEM_ISOTOPIC_ATOM_COUNT>
0

> <PUBCHEM_COMPONENT_COUNT>
1

> <PUBCHEM_CACTVS_TAUTO_COUNT>
1

> <PUBCHEM_COORDINATE_TYPE>
1
5
255

> <PUBCHEM_BONDANNOTATIONS>
10  13  5
8  2  6
9  3  5
11  4  6
12  5  5

$$$$

