442278
  -OEChem-07051212573D

 39 42  0     1  0  0  0  0  0999 V2000
   -0.2740   -2.5891   -0.3583 O   0  0  0  0  0  0  0  0  0  0  0  0
   -3.1862    1.8845   -0.2134 O   0  0  0  0  0  0  0  0  0  0  0  0
    2.1931   -1.3324   -0.0181 O   0  0  0  0  0  0  0  0  0  0  0  0
    4.4579   -0.9574    0.0091 O   0  0  0  0  0  0  0  0  0  0  0  0
   -1.3031   -1.7274    0.1260 C   0  0  1  0  0  0  0  0  0  0  0  0
   -0.1061   -1.1809   -0.6160 C   0  0  1  0  0  0  0  0  0  0  0  0
   -1.8594    1.4346    0.1264 C   0  0  1  0  0  0  0  0  0  0  0  0
   -2.7561    0.6636   -0.8155 C   0  0  1  0  0  0  0  0  0  0  0  0
    1.0086   -0.5225    0.1340 C   0  0  2  0  0  0  0  0  0  0  0  0
   -2.6199   -1.8228   -0.5744 C   0  0  0  0  0  0  0  0  0  0  0  0
   -3.4618   -0.5661   -0.3372 C   0  0  0  0  0  0  0  0  0  0  0  0
    1.3816    0.8622   -0.4079 C   0  0  1  0  0  0  0  0  0  0  0  0
   -0.7726    2.3186   -0.3914 C   0  0  0  0  0  0  0  0  0  0  0  0
    0.6068    2.0376    0.2196 C   0  0  0  0  0  0  0  0  0  0  0  0
   -1.3579   -1.8015    1.6171 C   0  0  0  0  0  0  0  0  0  0  0  0
   -1.8336    1.1620    1.5979 C   0  0  0  0  0  0  0  0  0  0  0  0
    2.8538    0.8451   -0.1227 C   0  0  0  0  0  0  0  0  0  0  0  0
    3.3092   -0.5556   -0.0280 C   0  0  0  0  0  0  0  0  0  0  0  0
    3.7198    1.8474    0.0528 C   0  0  0  0  0  0  0  0  0  0  0  0
   -0.1938   -0.8753   -1.6495 H   0  0  0  0  0  0  0  0  0  0  0  0
   -2.5501    0.6662   -1.8770 H   0  0  0  0  0  0  0  0  0  0  0  0
    0.8407   -0.4542    1.2080 H   0  0  0  0  0  0  0  0  0  0  0  0
   -3.1701   -2.7035   -0.2224 H   0  0  0  0  0  0  0  0  0  0  0  0
   -2.4678   -1.9596   -1.6527 H   0  0  0  0  0  0  0  0  0  0  0  0
   -4.3850   -0.6661   -0.9223 H   0  0  0  0  0  0  0  0  0  0  0  0
   -3.7940   -0.5014    0.7013 H   0  0  0  0  0  0  0  0  0  0  0  0
    1.2694    0.8925   -1.5001 H   0  0  0  0  0  0  0  0  0  0  0  0
   -1.0397    3.3560   -0.1494 H   0  0  0  0  0  0  0  0  0  0  0  0
   -0.7130    2.2664   -1.4851 H   0  0  0  0  0  0  0  0  0  0  0  0
    1.1811    2.9525    0.0216 H   0  0  0  0  0  0  0  0  0  0  0  0
    0.5868    1.9590    1.3112 H   0  0  0  0  0  0  0  0  0  0  0  0
   -0.4666   -1.4886    2.1585 H   0  0  0  0  0  0  0  0  0  0  0  0
   -2.2320   -1.3191    2.0527 H   0  0  0  0  0  0  0  0  0  0  0  0
   -1.4823   -2.8597    1.8886 H   0  0  0  0  0  0  0  0  0  0  0  0
   -0.9660    0.6002    1.9262 H   0  0  0  0  0  0  0  0  0  0  0  0
   -1.7679    2.1253    2.1230 H   0  0  0  0  0  0  0  0  0  0  0  0
   -2.7473    0.7111    1.9893 H   0  0  0  0  0  0  0  0  0  0  0  0
    3.4106    2.8838   -0.0161 H   0  0  0  0  0  0  0  0  0  0  0  0
    4.7687    1.6653    0.2632 H   0  0  0  0  0  0  0  0  0  0  0  0
  1  5  1  0  0  0  0
  1  6  1  0  0  0  0
  2  7  1  0  0  0  0
  2  8  1  0  0  0  0
  3  9  1  0  0  0  0
  3 18  1  0  0  0  0
  4 18  2  0  0  0  0
  5  6  1  0  0  0  0
  5 10  1  0  0  0  0
  5 15  1  0  0  0  0
  6  9  1  0  0  0  0
  6 20  1  0  0  0  0
  7  8  1  0  0  0  0
  7 13  1  0  0  0  0
  7 16  1  0  0  0  0
  8 11  1  0  0  0  0
  8 21  1  0  0  0  0
  9 12  1  0  0  0  0
  9 22  1  0  0  0  0
 10 11  1  0  0  0  0
 10 23  1  0  0  0  0
 10 24  1  0  0  0  0
 11 25  1  0  0  0  0
 11 26  1  0  0  0  0
 12 14  1  0  0  0  0
 12 17  1  0  0  0  0
 12 27  1  0  0  0  0
 13 14  1  0  0  0  0
 13 28  1  0  0  0  0
 13 29  1  0  0  0  0
 14 30  1  0  0  0  0
 14 31  1  0  0  0  0
 15 32  1  0  0  0  0
 15 33  1  0  0  0  0
 15 34  1  0  0  0  0
 16 35  1  0  0  0  0
 16 36  1  0  0  0  0
 16 37  1  0  0  0  0
 17 18  1  0  0  0  0
 17 19  2  0  0  0  0
 19 38  1  0  0  0  0
 19 39  1  0  0  0  0
M  END
> <PUBCHEM_COMPOUND_CID>
442278

> <PUBCHEM_CONFORMER_RMSD>
0.6

> <PUBCHEM_CONFORMER_DIVERSEORDER>
1
2

> <PUBCHEM_MMFF94_PARTIAL_CHARGES>
22
1 -0.3
10 0.09
11 0.09
12 0.14
13 0.09
15 0.09
16 0.09
17 -0.12
18 0.71
19 -0.3
2 -0.3
20 0.1
21 0.1
3 -0.43
38 0.15
39 0.15
4 -0.57
5 -0.04
6 -0.05
7 -0.04
8 -0.05
9 0.38

> <PUBCHEM_EFFECTIVE_ROTOR_COUNT>
1.4

> <PUBCHEM_PHARMACOPHORE_FEATURES>
4
1 1 acceptor
1 2 acceptor
1 4 acceptor
5 3 9 12 17 18 rings

> <PUBCHEM_HEAVY_ATOM_COUNT>
19

> <PUBCHEM_ATOM_DEF_STEREO_COUNT>
6

> <PUBCHEM_ATOM_UDEF_STEREO_COUNT>
0

> <PUBCHEM_BOND_DEF_STEREO_COUNT>
0

> <PUBCHEM_BOND_UDEF_STEREO_COUNT>
0

> <PUBCHEM_ISOTOPIC_ATOM_COUNT>
0

> <PUBCHEM_COMPONENT_COUNT>
1

> <PUBCHEM_CACTVS_TAUTO_COUNT>
1

> <PUBCHEM_CONFORMER_ID>
0006BFA600000001

> <PUBCHEM_MMFF94_ENERGY>
55.0986

> <PUBCHEM_FEATURE_SELFOVERLAP>
20.297

> <PUBCHEM_SHAPE_FINGERPRINT>
10759866 29 18201996582819447396
10863032 1 18409452483507553445
10948715 1 18269838777930484333
10967382 1 18194122047406639164
11132069 177 18335990860355065768
11578080 2 17170126836921273651
11680986 33 18267024946811619033
12491281 212 18336256929183729080
13027679 85 18116995477601278849
13140716 1 18410567409846730120
14081887 123 17970642796078963568
1420 336 18411140212339077079
14223421 5 18194399996568770552
14251745 187 18338243643690024808
14817 1 17037327887190962963
15196674 1 18410295791783072837
15309172 13 18338227288290985601
15442244 35 18411422843057674758
15775835 57 18269836570074473741
16945 1 18120089751991697517
17357779 13 18119822308868412999
20510252 161 18334857160692629227
21267235 1 18410849958428426342
21501502 16 18410011014192828236
21524375 3 18269273628700443983
2334 1 18338230475367501356
23402539 116 18260841388201771271
23419403 2 17024616415945186355
23557571 272 17971181543743907302
23559900 14 18261681467199596458
238 59 17336788911205873605
2748010 2 18409719647663692470
335352 9 18266179611511840620
5104073 3 18410577275476345312
8809292 202 18341893008760787816
9709674 26 18409164407408942486

> <PUBCHEM_SHAPE_MULTIPOLES>
367.53
6.13
2.79
1
4.46
0.1
0.39
0.16
-0.49
-0.75
0.05
-0.64
-0.08
0.02

> <PUBCHEM_SHAPE_SELFOVERLAP>
785.844

> <PUBCHEM_SHAPE_VOLUME>
205.5

> <PUBCHEM_COORDINATE_TYPE>
2
5
10

$$$$

