11953977
  -OEChem-07051213022D

 87 91  0     1  0  0  0  0  0999 V2000
    4.7095    4.4439    0.0000 O   0  0  0  0  0  0  0  0  0  0  0  0
    8.6663   -1.0000    0.0000 O   0  0  0  0  0  0  0  0  0  0  0  0
    8.6663   -2.0000    0.0000 O   0  0  0  0  0  0  0  0  0  0  0  0
    6.0682    0.5000    0.0000 O   0  0  0  0  0  0  0  0  0  0  0  0
    4.8602    3.9397    0.0000 O   0  0  0  0  0  0  0  0  0  0  0  0
    2.5381    3.5242    0.0000 O   0  0  0  0  0  0  0  0  0  0  0  0
    7.0682    1.5000    0.0000 O   0  0  0  0  0  0  0  0  0  0  0  0
   11.2644    3.5000    0.0000 O   0  0  0  0  0  0  0  0  0  0  0  0
    5.2022    3.0000    0.0000 C   0  0  1  0  0  0  0  0  0  0  0  0
    4.3083    3.5347    0.0000 C   0  0  1  0  0  0  0  0  0  0  0  0
    5.2022    2.0000    0.0000 C   0  0  1  0  0  0  0  0  0  0  0  0
    7.8003   -1.5000    0.0000 C   0  0  2  0  0  0  0  0  0  0  0  0
    6.9343    0.0000    0.0000 C   0  0  2  0  0  0  0  0  0  0  0  0
    3.4022    3.0208    0.0000 C   0  0  1  0  0  0  0  0  0  0  0  0
    6.9343   -1.0000    0.0000 C   0  0  0  0  0  0  0  0  0  0  0  0
    6.0682    3.5000    0.0000 C   0  0  0  0  0  0  0  0  0  0  0  0
    7.8003    0.5000    0.0000 C   0  0  0  0  0  0  0  0  0  0  0  0
    8.6663    0.0000    0.0000 C   0  0  1  0  0  0  0  0  0  0  0  0
    8.6663   -3.0000    0.0000 C   0  0  1  0  0  0  0  0  0  0  0  0
    4.3083    1.4653    0.0000 C   0  0  0  0  0  0  0  0  0  0  0  0
    5.7031    4.4243    0.0000 C   0  0  0  0  0  0  0  0  0  0  0  0
    3.4022    1.9792    0.0000 C   0  0  0  0  0  0  0  0  0  0  0  0
    6.0682    1.5000    0.0000 C   0  0  0  0  0  0  0  0  0  0  0  0
    7.8003   -3.5000    0.0000 C   0  0  2  0  0  0  0  0  0  0  0  0
    6.9343   -2.0000    0.0000 C   0  0  0  0  0  0  0  0  0  0  0  0
    9.5323   -3.5000    0.0000 C   0  0  0  0  0  0  0  0  0  0  0  0
    9.5323    0.5000    0.0000 C   0  0  0  0  0  0  0  0  0  0  0  0
    6.9343   -3.0000    0.0000 C   0  0  0  0  0  0  0  0  0  0  0  0
    6.9343    3.0000    0.0000 C   0  0  0  0  0  0  0  0  0  0  0  0
    2.5381    1.4759    0.0000 C   0  0  0  0  0  0  0  0  0  0  0  0
    7.8003   -4.5000    0.0000 C   0  0  0  0  0  0  0  0  0  0  0  0
    9.5323   -4.5000    0.0000 C   0  0  0  0  0  0  0  0  0  0  0  0
   10.3984   -3.0000    0.0000 C   0  0  0  0  0  0  0  0  0  0  0  0
    9.5323    1.5000    0.0000 C   0  0  0  0  0  0  0  0  0  0  0  0
    7.8003    3.5000    0.0000 C   0  0  0  0  0  0  0  0  0  0  0  0
   10.3984    2.0000    0.0000 C   0  0  0  0  0  0  0  0  0  0  0  0
   10.3984    3.0000    0.0000 C   0  0  2  0  0  0  0  0  0  0  0  0
    9.5323    3.5000    0.0000 C   0  0  2  0  0  0  0  0  0  0  0  0
    8.6663    3.0000    0.0000 C   0  0  0  0  0  0  0  0  0  0  0  0
   11.2644    1.5000    0.0000 C   0  0  0  0  0  0  0  0  0  0  0  0
    9.5323    4.5000    0.0000 C   0  0  0  0  0  0  0  0  0  0  0  0
    3.6779    4.1048    0.0000 H   0  0  0  0  0  0  0  0  0  0  0  0
    5.2022    1.1500    0.0000 H   0  0  0  0  0  0  0  0  0  0  0  0
    6.1982   -0.4250    0.0000 H   0  0  0  0  0  0  0  0  0  0  0  0
    2.8647    2.7118    0.0000 H   0  0  0  0  0  0  0  0  0  0  0  0
    6.3237   -0.8923    0.0000 H   0  0  0  0  0  0  0  0  0  0  0  0
    6.7222   -1.5826    0.0000 H   0  0  0  0  0  0  0  0  0  0  0  0
    8.1988    0.9749    0.0000 H   0  0  0  0  0  0  0  0  0  0  0  0
    7.4018    0.9749    0.0000 H   0  0  0  0  0  0  0  0  0  0  0  0
    9.4024   -0.4250    0.0000 H   0  0  0  0  0  0  0  0  0  0  0  0
    9.2033   -2.6900    0.0000 H   0  0  0  0  0  0  0  0  0  0  0  0
    4.3154    0.8454    0.0000 H   0  0  0  0  0  0  0  0  0  0  0  0
    6.3047    4.5742    0.0000 H   0  0  0  0  0  0  0  0  0  0  0  0
    5.6337    5.0404    0.0000 H   0  0  0  0  0  0  0  0  0  0  0  0
    8.3372   -3.8100    0.0000 H   0  0  0  0  0  0  0  0  0  0  0  0
    6.3973   -1.6900    0.0000 H   0  0  0  0  0  0  0  0  0  0  0  0
   10.0693   -3.8100    0.0000 H   0  0  0  0  0  0  0  0  0  0  0  0
    4.2776    4.1518    0.0000 H   0  0  0  0  0  0  0  0  0  0  0  0
    9.7444   -0.0826    0.0000 H   0  0  0  0  0  0  0  0  0  0  0  0
   10.1429    0.6077    0.0000 H   0  0  0  0  0  0  0  0  0  0  0  0
    6.3973   -3.3100    0.0000 H   0  0  0  0  0  0  0  0  0  0  0  0
    7.2444    2.4631    0.0000 H   0  0  0  0  0  0  0  0  0  0  0  0
    2.2261    2.0116    0.0000 H   0  0  0  0  0  0  0  0  0  0  0  0
    2.0024    1.1638    0.0000 H   0  0  0  0  0  0  0  0  0  0  0  0
    2.8502    0.9401    0.0000 H   0  0  0  0  0  0  0  0  0  0  0  0
    7.1803   -4.5000    0.0000 H   0  0  0  0  0  0  0  0  0  0  0  0
    7.8003   -5.1200    0.0000 H   0  0  0  0  0  0  0  0  0  0  0  0
    8.4203   -4.5000    0.0000 H   0  0  0  0  0  0  0  0  0  0  0  0
    2.0000    3.2162    0.0000 H   0  0  0  0  0  0  0  0  0  0  0  0
    8.9124   -4.5000    0.0000 H   0  0  0  0  0  0  0  0  0  0  0  0
    9.5323   -5.1200    0.0000 H   0  0  0  0  0  0  0  0  0  0  0  0
   10.1524   -4.5000    0.0000 H   0  0  0  0  0  0  0  0  0  0  0  0
   10.7084   -3.5369    0.0000 H   0  0  0  0  0  0  0  0  0  0  0  0
   10.9353   -2.6900    0.0000 H   0  0  0  0  0  0  0  0  0  0  0  0
   10.0884   -2.4631    0.0000 H   0  0  0  0  0  0  0  0  0  0  0  0
    8.9954    1.8100    0.0000 H   0  0  0  0  0  0  0  0  0  0  0  0
    7.8003    4.1200    0.0000 H   0  0  0  0  0  0  0  0  0  0  0  0
   10.3984    3.6200    0.0000 H   0  0  0  0  0  0  0  0  0  0  0  0
   10.0693    3.8100    0.0000 H   0  0  0  0  0  0  0  0  0  0  0  0
    8.6663    2.3800    0.0000 H   0  0  0  0  0  0  0  0  0  0  0  0
   10.9544    0.9631    0.0000 H   0  0  0  0  0  0  0  0  0  0  0  0
   11.8013    1.1900    0.0000 H   0  0  0  0  0  0  0  0  0  0  0  0
   11.5744    2.0369    0.0000 H   0  0  0  0  0  0  0  0  0  0  0  0
   10.1524    4.5000    0.0000 H   0  0  0  0  0  0  0  0  0  0  0  0
    9.5323    5.1200    0.0000 H   0  0  0  0  0  0  0  0  0  0  0  0
    8.9124    4.5000    0.0000 H   0  0  0  0  0  0  0  0  0  0  0  0
   11.8013    3.1900    0.0000 H   0  0  0  0  0  0  0  0  0  0  0  0
  1 10  1  0  0  0  0
  1 21  1  0  0  0  0
  2 12  1  0  0  0  0
  2 18  1  0  0  0  0
 12  3  1  6  0  0  0
  3 19  1  0  0  0  0
  4 13  1  0  0  0  0
  4 23  1  0  0  0  0
  9  5  1  6  0  0  0
  5 58  1  0  0  0  0
 14  6  1  1  0  0  0
  6 69  1  0  0  0  0
  7 23  2  0  0  0  0
 37  8  1  6  0  0  0
  8 87  1  0  0  0  0
  9 10  1  0  0  0  0
  9 11  1  0  0  0  0
  9 16  1  0  0  0  0
 10 14  1  0  0  0  0
 10 42  1  6  0  0  0
 11 20  1  0  0  0  0
 11 23  1  0  0  0  0
 11 43  1  1  0  0  0
 12 15  1  0  0  0  0
 12 25  1  0  0  0  0
 13 15  1  0  0  0  0
 13 17  1  0  0  0  0
 13 44  1  6  0  0  0
 14 22  1  0  0  0  0
 14 45  1  0  0  0  0
 15 46  1  0  0  0  0
 15 47  1  0  0  0  0
 16 21  1  0  0  0  0
 16 29  2  0  0  0  0
 17 18  1  0  0  0  0
 17 48  1  0  0  0  0
 17 49  1  0  0  0  0
 18 27  1  0  0  0  0
 18 50  1  6  0  0  0
 19 24  1  0  0  0  0
 19 26  1  6  0  0  0
 19 51  1  0  0  0  0
 20 22  2  0  0  0  0
 20 52  1  0  0  0  0
 21 53  1  0  0  0  0
 21 54  1  0  0  0  0
 22 30  1  0  0  0  0
 24 28  1  0  0  0  0
 24 31  1  1  0  0  0
 24 55  1  0  0  0  0
 25 28  2  0  0  0  0
 25 56  1  0  0  0  0
 26 32  1  0  0  0  0
 26 33  1  0  0  0  0
 26 57  1  0  0  0  0
 27 34  1  0  0  0  0
 27 59  1  0  0  0  0
 27 60  1  0  0  0  0
 28 61  1  0  0  0  0
 29 35  1  0  0  0  0
 29 62  1  0  0  0  0
 30 63  1  0  0  0  0
 30 64  1  0  0  0  0
 30 65  1  0  0  0  0
 31 66  1  0  0  0  0
 31 67  1  0  0  0  0
 31 68  1  0  0  0  0
 32 70  1  0  0  0  0
 32 71  1  0  0  0  0
 32 72  1  0  0  0  0
 33 73  1  0  0  0  0
 33 74  1  0  0  0  0
 33 75  1  0  0  0  0
 34 36  2  0  0  0  0
 34 76  1  0  0  0  0
 35 39  2  0  0  0  0
 35 77  1  0  0  0  0
 36 37  1  0  0  0  0
 36 40  1  0  0  0  0
 37 38  1  0  0  0  0
 37 78  1  0  0  0  0
 38 39  1  0  0  0  0
 38 41  1  6  0  0  0
 38 79  1  0  0  0  0
 39 80  1  0  0  0  0
 40 81  1  0  0  0  0
 40 82  1  0  0  0  0
 40 83  1  0  0  0  0
 41 84  1  0  0  0  0
 41 85  1  0  0  0  0
 41 86  1  0  0  0  0
M  END
> <PUBCHEM_COMPOUND_CID>
11953977

> <PUBCHEM_COMPOUND_CANONICALIZED>
1

> <PUBCHEM_CACTVS_COMPLEXITY>
1170

> <PUBCHEM_CACTVS_HBOND_ACCEPTOR>
8

> <PUBCHEM_CACTVS_HBOND_DONOR>
3

> <PUBCHEM_CACTVS_ROTATABLE_BOND>
1

> <PUBCHEM_CACTVS_SUBSKEYS>
AAADcfB8PAAAAAAAAAAAAAAAAAAAASAAAAAkQIAAAAAAAEAAAAAAGgAACAAADVSggAICCAAABgCIAiDSCAAAAAAgAAAICAEAAAgZFBYAIQAiUAAF4AAPsAPK7OzOgAAAAAAAAAAAAAAAAAAAAAAAAAAAAA==

> <PUBCHEM_IUPAC_INCHI>
InChI=1S/C33H46O8/c1-18(2)29-21(5)12-13-32(41-29)16-25-15-24(40-32)11-10-20(4)27(34)19(3)8-7-9-23-17-38-30-28(35)22(6)14-26(31(36)39-25)33(23,30)37/h7-10,12-14,18-19,21,24-30,34-35,37H,11,15-17H2,1-6H3/b8-7+,20-10+,23-9+/t19-,21-,24+,25-,26-,27-,28+,29+,30+,32+,33+/m0/s1

> <PUBCHEM_IUPAC_INCHIKEY>
IVLVHFFFOVKPKM-XMGCMGKSSA-N

> <PUBCHEM_XLOGP3_AA>
2.7

> <PUBCHEM_EXACT_MASS>
570.319268

> <PUBCHEM_MOLECULAR_FORMULA>
C33H46O8

> <PUBCHEM_MOLECULAR_WEIGHT>
570.71354

> <PUBCHEM_OPENEYE_CAN_SMILES>
CC1C=CC=C2COC3C2(C(C=C(C3O)C)C(=O)OC4CC(CC=C(C1O)C)OC5(C4)C=CC(C(O5)C(C)C)C)O

> <PUBCHEM_OPENEYE_ISO_SMILES>
C[C@H]1/C=C/C=C/2\CO[C@H]3[C@@]2([C@@H](C=C([C@H]3O)C)C(=O)O[C@H]4C[C@@H](C/C=C(/[C@H]1O)\C)O[C@]5(C4)C=C[C@@H]([C@H](O5)C(C)C)C)O

> <PUBCHEM_CACTVS_TPSA>
115

> <PUBCHEM_MONOISOTOPIC_WEIGHT>
570.319268

> <PUBCHEM_TOTAL_CHARGE>
0

> <PUBCHEM_HEAVY_ATOM_COUNT>
41

> <PUBCHEM_ATOM_DEF_STEREO_COUNT>
11

> <PUBCHEM_ATOM_UDEF_STEREO_COUNT>
0

> <PUBCHEM_BOND_DEF_STEREO_COUNT>
3

> <PUBCHEM_BOND_UDEF_STEREO_COUNT>
0

> <PUBCHEM_ISOTOPIC_ATOM_COUNT>
0

> <PUBCHEM_COMPONENT_COUNT>
1

> <PUBCHEM_CACTVS_TAUTO_COUNT>
1

> <PUBCHEM_COORDINATE_TYPE>
1
5
255

> <PUBCHEM_BONDANNOTATIONS>
10  42  6
11  43  5
13  44  6
18  50  6
19  26  6
24  31  5
12  3  6
38  41  6
9  5  6
14  6  5
37  8  6

$$$$

