442052
  -OEChem-07051212563D

 54 55  0     1  0  0  0  0  0999 V2000
    2.7244   -3.2300   -0.7899 O   0  0  0  0  0  0  0  0  0  0  0  0
   -5.1693    0.2982   -1.2056 O   0  0  0  0  0  0  0  0  0  0  0  0
    0.9774   -0.1330    0.2681 C   0  0  1  0  0  0  0  0  0  0  0  0
    2.2303    0.6147   -0.3253 C   0  0  2  0  0  0  0  0  0  0  0  0
    3.6331    0.0535    0.1328 C   0  0  0  0  0  0  0  0  0  0  0  0
   -0.3322    0.4713   -0.3931 C   0  0  2  0  0  0  0  0  0  0  0  0
    2.1152    2.1513   -0.1920 C   0  0  0  0  0  0  0  0  0  0  0  0
    1.0763   -1.6365   -0.1115 C   0  0  0  0  0  0  0  0  0  0  0  0
    3.5691   -1.4355    0.5360 C   0  0  0  0  0  0  0  0  0  0  0  0
    0.8263    2.6905   -0.8069 C   0  0  0  0  0  0  0  0  0  0  0  0
   -0.3739    1.9870   -0.2297 C   0  0  0  0  0  0  0  0  0  0  0  0
    0.8877    0.0051    1.8075 C   0  0  0  0  0  0  0  0  0  0  0  0
   -1.6288   -0.2447    0.0279 C   0  0  0  0  0  0  0  0  0  0  0  0
    2.4866   -2.1757   -0.1990 C   0  0  0  0  0  0  0  0  0  0  0  0
    4.2572    0.8339    1.3105 C   0  0  0  0  0  0  0  0  0  0  0  0
    4.6162    0.1852   -1.0591 C   0  0  0  0  0  0  0  0  0  0  0  0
   -2.8011    0.2170   -0.8325 C   0  0  0  0  0  0  0  0  0  0  0  0
   -1.3535    2.6882    0.3633 C   0  0  0  0  0  0  0  0  0  0  0  0
   -4.1679   -0.3926   -0.4393 C   0  0  2  0  0  0  0  0  0  0  0  0
   -4.2551   -1.8730   -0.8350 C   0  0  0  0  0  0  0  0  0  0  0  0
   -4.4875   -0.0995    1.0101 C   0  0  0  0  0  0  0  0  0  0  0  0
   -4.8305   -0.9755    1.9626 C   0  0  0  0  0  0  0  0  0  0  0  0
    2.1740    0.4201   -1.4094 H   0  0  0  0  0  0  0  0  0  0  0  0
   -0.2381    0.2996   -1.4775 H   0  0  0  0  0  0  0  0  0  0  0  0
    2.9606    2.6361   -0.6937 H   0  0  0  0  0  0  0  0  0  0  0  0
    2.1580    2.4517    0.8614 H   0  0  0  0  0  0  0  0  0  0  0  0
    0.6403   -1.7985   -1.1056 H   0  0  0  0  0  0  0  0  0  0  0  0
    0.5268   -2.2606    0.6023 H   0  0  0  0  0  0  0  0  0  0  0  0
    3.3790   -1.5675    1.6064 H   0  0  0  0  0  0  0  0  0  0  0  0
    4.5268   -1.9350    0.3426 H   0  0  0  0  0  0  0  0  0  0  0  0
    0.8411    2.5401   -1.8936 H   0  0  0  0  0  0  0  0  0  0  0  0
    0.7782    3.7738   -0.6430 H   0  0  0  0  0  0  0  0  0  0  0  0
    1.7517   -0.4176    2.3210 H   0  0  0  0  0  0  0  0  0  0  0  0
    0.8019    1.0487    2.1246 H   0  0  0  0  0  0  0  0  0  0  0  0
    0.0184   -0.5280    2.2065 H   0  0  0  0  0  0  0  0  0  0  0  0
   -1.8337   -0.0622    1.0875 H   0  0  0  0  0  0  0  0  0  0  0  0
   -1.5194   -1.3273   -0.0876 H   0  0  0  0  0  0  0  0  0  0  0  0
    5.1910    0.3617    1.6392 H   0  0  0  0  0  0  0  0  0  0  0  0
    3.5905    0.8720    2.1763 H   0  0  0  0  0  0  0  0  0  0  0  0
    4.5060    1.8638    1.0327 H   0  0  0  0  0  0  0  0  0  0  0  0
    4.2827   -0.4103   -1.9166 H   0  0  0  0  0  0  0  0  0  0  0  0
    5.6197   -0.1630   -0.7877 H   0  0  0  0  0  0  0  0  0  0  0  0
    4.7101    1.2250   -1.3899 H   0  0  0  0  0  0  0  0  0  0  0  0
   -2.5947   -0.0577   -1.8777 H   0  0  0  0  0  0  0  0  0  0  0  0
   -2.9191    1.3005   -0.8833 H   0  0  0  0  0  0  0  0  0  0  0  0
   -2.2027    2.2394    0.8610 H   0  0  0  0  0  0  0  0  0  0  0  0
   -1.2955    3.7710    0.4256 H   0  0  0  0  0  0  0  0  0  0  0  0
   -4.0489   -1.9987   -1.9045 H   0  0  0  0  0  0  0  0  0  0  0  0
   -5.2674   -2.2639   -0.6776 H   0  0  0  0  0  0  0  0  0  0  0  0
   -3.5507   -2.4967   -0.2760 H   0  0  0  0  0  0  0  0  0  0  0  0
   -4.4459    0.9490    1.3028 H   0  0  0  0  0  0  0  0  0  0  0  0
   -5.1280    1.2455   -0.9889 H   0  0  0  0  0  0  0  0  0  0  0  0
   -5.0423   -0.6287    2.9688 H   0  0  0  0  0  0  0  0  0  0  0  0
   -4.9076   -2.0396    1.7758 H   0  0  0  0  0  0  0  0  0  0  0  0
  1 14  2  0  0  0  0
  2 19  1  0  0  0  0
  2 52  1  0  0  0  0
  3  4  1  0  0  0  0
  3  6  1  0  0  0  0
  3  8  1  0  0  0  0
  3 12  1  0  0  0  0
  4  5  1  0  0  0  0
  4  7  1  0  0  0  0
  4 23  1  0  0  0  0
  5  9  1  0  0  0  0
  5 15  1  0  0  0  0
  5 16  1  0  0  0  0
  6 11  1  0  0  0  0
  6 13  1  0  0  0  0
  6 24  1  0  0  0  0
  7 10  1  0  0  0  0
  7 25  1  0  0  0  0
  7 26  1  0  0  0  0
  8 14  1  0  0  0  0
  8 27  1  0  0  0  0
  8 28  1  0  0  0  0
  9 14  1  0  0  0  0
  9 29  1  0  0  0  0
  9 30  1  0  0  0  0
 10 11  1  0  0  0  0
 10 31  1  0  0  0  0
 10 32  1  0  0  0  0
 11 18  2  0  0  0  0
 12 33  1  0  0  0  0
 12 34  1  0  0  0  0
 12 35  1  0  0  0  0
 13 17  1  0  0  0  0
 13 36  1  0  0  0  0
 13 37  1  0  0  0  0
 15 38  1  0  0  0  0
 15 39  1  0  0  0  0
 15 40  1  0  0  0  0
 16 41  1  0  0  0  0
 16 42  1  0  0  0  0
 16 43  1  0  0  0  0
 17 19  1  0  0  0  0
 17 44  1  0  0  0  0
 17 45  1  0  0  0  0
 18 46  1  0  0  0  0
 18 47  1  0  0  0  0
 19 20  1  0  0  0  0
 19 21  1  0  0  0  0
 20 48  1  0  0  0  0
 20 49  1  0  0  0  0
 20 50  1  0  0  0  0
 21 22  2  0  0  0  0
 21 51  1  0  0  0  0
 22 53  1  0  0  0  0
 22 54  1  0  0  0  0
M  END
> <PUBCHEM_COMPOUND_CID>
442052

> <PUBCHEM_CONFORMER_RMSD>
0.8

> <PUBCHEM_CONFORMER_DIVERSEORDER>
1
10
8
6
4
9
3
5
7
2

> <PUBCHEM_MMFF94_PARTIAL_CHARGES>
18
1 -0.57
10 0.14
11 -0.28
14 0.45
18 -0.3
19 0.42
2 -0.68
21 -0.29
22 -0.3
46 0.15
47 0.15
51 0.15
52 0.4
53 0.15
54 0.15
6 0.14
8 0.06
9 0.06

> <PUBCHEM_EFFECTIVE_ROTOR_COUNT>
5.2

> <PUBCHEM_PHARMACOPHORE_FEATURES>
7
1 1 acceptor
1 2 acceptor
1 2 donor
1 22 hydrophobe
3 5 15 16 hydrophobe
6 3 4 5 8 9 14 rings
6 3 4 6 7 10 11 rings

> <PUBCHEM_HEAVY_ATOM_COUNT>
22

> <PUBCHEM_ATOM_DEF_STEREO_COUNT>
4

> <PUBCHEM_ATOM_UDEF_STEREO_COUNT>
0

> <PUBCHEM_BOND_DEF_STEREO_COUNT>
0

> <PUBCHEM_BOND_UDEF_STEREO_COUNT>
0

> <PUBCHEM_ISOTOPIC_ATOM_COUNT>
0

> <PUBCHEM_COMPONENT_COUNT>
1

> <PUBCHEM_CACTVS_TAUTO_COUNT>
3

> <PUBCHEM_CONFORMER_ID>
0006BEC400000001

> <PUBCHEM_MMFF94_ENERGY>
75.742

> <PUBCHEM_FEATURE_SELFOVERLAP>
35.536

> <PUBCHEM_SHAPE_FINGERPRINT>
10906281 52 18200861912420892872
11578080 2 17605300482827543001
11595378 159 16950831588103709291
116883 192 18339081621705160877
11796584 16 16558763333365870179
12236239 1 17603866685457372199
12553582 1 18410571773332984143
12596602 18 17095803218391514515
12670546 56 17458348545913533425
13140716 1 18195249906240588072
13544653 18 18413389856274267749
13583140 156 14780405603224057203
14178342 30 18265346190768300032
14251757 17 17703784800051719595
14252887 29 18411418423040481154
14787075 74 18059851714721148162
14790565 3 18050566249147420980
14863182 85 18411692184820625838
15537594 2 18335692836932953279
15664445 248 18262222370849076372
15788980 27 18272937107176426783
1601671 61 18410291385273273094
16945 1 18410854352643985792
17349148 13 18273494559223634152
17357779 13 18272091621231273125
17492 54 17845917556263538292
1813 80 17988914600589385469
18785283 64 17914888734424377381
19078846 21 16877657989642210763
20645477 70 18271538485552183133
20739085 24 18263905787100560243
21501502 16 18194963174329453828
221490 88 18266455606374220086
22182313 1 18266754647772167172
23402539 116 18342187660612870530
23557571 272 18129673039658098140
23559900 14 18410582764175653284
2748010 2 18195254544863374420
2871803 45 18411703226917481110
3060560 45 18335421240808051062
312423 11 18127403665112537562
3737641 26 18261099829052731806
46194498 28 17988653939361580989
5104073 3 18266463281311817904
54040823 5 18202846552478531586
7495541 125 17274821294493574161
9709674 26 18340768246857053671

> <PUBCHEM_SHAPE_MULTIPOLES>
441.01
9.97
2.76
1.33
8.44
0.13
-0.52
-3.44
-0.47
-1.46
0.58
0.73
-0.16
0.34

> <PUBCHEM_SHAPE_SELFOVERLAP>
897.785

> <PUBCHEM_SHAPE_VOLUME>
254.9

> <PUBCHEM_COORDINATE_TYPE>
2
5
10

$$$$

