3906
  -OEChem-06251223453D

 58 57  0     1  0  0  0  0  0999 V2000
    5.7087   -3.1638    0.4021 O   0  0  0  0  0  0  0  0  0  0  0  0
   -4.3212   -2.1421    1.4602 O   0  0  0  0  0  0  0  0  0  0  0  0
   -8.5882    2.1449   -0.8128 O   0  0  0  0  0  0  0  0  0  0  0  0
   -8.6246   -0.1302   -0.8310 O   0  0  0  0  0  0  0  0  0  0  0  0
    5.4290    1.1985   -0.5665 C   0  0  0  0  0  0  0  0  0  0  0  0
    4.8366    2.4705   -1.1774 C   0  0  0  0  0  0  0  0  0  0  0  0
    5.4989    0.0729   -1.6010 C   0  0  0  0  0  0  0  0  0  0  0  0
    4.7178    3.6286   -0.1818 C   0  0  0  0  0  0  0  0  0  0  0  0
    6.0118   -1.2551   -1.0332 C   0  0  0  0  0  0  0  0  0  0  0  0
    3.9051    3.3402    1.0859 C   0  0  0  0  0  0  0  0  0  0  0  0
    5.1381   -1.9014    0.0528 C   0  0  1  0  0  0  0  0  0  0  0  0
    2.4356    3.0163    0.8131 C   0  0  0  0  0  0  0  0  0  0  0  0
    1.6759    2.7514    2.1041 C   0  0  0  0  0  0  0  0  0  0  0  0
    3.7275   -2.1538   -0.3997 C   0  0  0  0  0  0  0  0  0  0  0  0
   -4.3464   -0.1134    0.1325 C   0  0  0  0  0  0  0  0  0  0  0  0
   -5.8424   -0.2786   -0.1712 C   0  0  0  0  0  0  0  0  0  0  0  0
   -3.6490   -1.4531    0.4105 C   0  0  1  0  0  0  0  0  0  0  0  0
   -6.5421    1.0628   -0.3956 C   0  0  0  0  0  0  0  0  0  0  0  0
    2.6526   -1.6758    0.2459 C   0  0  0  0  0  0  0  0  0  0  0  0
   -2.1969   -1.2292    0.7552 C   0  0  0  0  0  0  0  0  0  0  0  0
    1.2926   -1.9385   -0.1667 C   0  0  0  0  0  0  0  0  0  0  0  0
   -1.1364   -1.7186    0.0933 C   0  0  0  0  0  0  0  0  0  0  0  0
    0.2288   -1.4524    0.4906 C   0  0  0  0  0  0  0  0  0  0  0  0
   -8.0118    0.9198   -0.7093 C   0  0  0  0  0  0  0  0  0  0  0  0
    6.4305    1.4041   -0.1710 H   0  0  0  0  0  0  0  0  0  0  0  0
    4.8063    0.8732    0.2713 H   0  0  0  0  0  0  0  0  0  0  0  0
    5.4671    2.7965   -2.0140 H   0  0  0  0  0  0  0  0  0  0  0  0
    3.8502    2.2518   -1.6030 H   0  0  0  0  0  0  0  0  0  0  0  0
    6.1706    0.3809   -2.4122 H   0  0  0  0  0  0  0  0  0  0  0  0
    4.5141   -0.0753   -2.0593 H   0  0  0  0  0  0  0  0  0  0  0  0
    4.2803    4.4913   -0.6995 H   0  0  0  0  0  0  0  0  0  0  0  0
    5.7277    3.9318    0.1219 H   0  0  0  0  0  0  0  0  0  0  0  0
    6.1323   -1.9647   -1.8635 H   0  0  0  0  0  0  0  0  0  0  0  0
    7.0246   -1.1147   -0.6329 H   0  0  0  0  0  0  0  0  0  0  0  0
    3.9540    4.2307    1.7260 H   0  0  0  0  0  0  0  0  0  0  0  0
    4.3701    2.5323    1.6616 H   0  0  0  0  0  0  0  0  0  0  0  0
    5.1632   -1.2825    0.9565 H   0  0  0  0  0  0  0  0  0  0  0  0
    2.3535    2.1296    0.1753 H   0  0  0  0  0  0  0  0  0  0  0  0
    1.9641    3.8484    0.2780 H   0  0  0  0  0  0  0  0  0  0  0  0
    0.6280    2.5221    1.8865 H   0  0  0  0  0  0  0  0  0  0  0  0
    2.1043    1.9002    2.6431 H   0  0  0  0  0  0  0  0  0  0  0  0
    1.7034    3.6256    2.7624 H   0  0  0  0  0  0  0  0  0  0  0  0
    3.5976   -2.7747   -1.2836 H   0  0  0  0  0  0  0  0  0  0  0  0
   -4.2509    0.5356    1.0133 H   0  0  0  0  0  0  0  0  0  0  0  0
   -3.8546    0.3994   -0.7035 H   0  0  0  0  0  0  0  0  0  0  0  0
   -5.9649   -0.9103   -1.0599 H   0  0  0  0  0  0  0  0  0  0  0  0
   -6.3395   -0.8021    0.6545 H   0  0  0  0  0  0  0  0  0  0  0  0
   -3.7290   -2.0813   -0.4850 H   0  0  0  0  0  0  0  0  0  0  0  0
    5.1839   -3.5341    1.1327 H   0  0  0  0  0  0  0  0  0  0  0  0
   -6.4460    1.6769    0.5071 H   0  0  0  0  0  0  0  0  0  0  0  0
   -6.0685    1.5883   -1.2324 H   0  0  0  0  0  0  0  0  0  0  0  0
    2.7930   -1.0612    1.1319 H   0  0  0  0  0  0  0  0  0  0  0  0
   -2.0227   -0.6137    1.6374 H   0  0  0  0  0  0  0  0  0  0  0  0
    1.1520   -2.5622   -1.0465 H   0  0  0  0  0  0  0  0  0  0  0  0
   -1.2949   -2.3392   -0.7846 H   0  0  0  0  0  0  0  0  0  0  0  0
    0.3739   -0.8286    1.3702 H   0  0  0  0  0  0  0  0  0  0  0  0
   -3.8467   -2.9766    1.6164 H   0  0  0  0  0  0  0  0  0  0  0  0
   -9.5484    2.0823   -1.0037 H   0  0  0  0  0  0  0  0  0  0  0  0
  1 11  1  0  0  0  0
  1 49  1  0  0  0  0
  2 17  1  0  0  0  0
  2 57  1  0  0  0  0
  3 24  1  0  0  0  0
  3 58  1  0  0  0  0
  4 24  2  0  0  0  0
  5  6  1  0  0  0  0
  5  7  1  0  0  0  0
  5 25  1  0  0  0  0
  5 26  1  0  0  0  0
  6  8  1  0  0  0  0
  6 27  1  0  0  0  0
  6 28  1  0  0  0  0
  7  9  1  0  0  0  0
  7 29  1  0  0  0  0
  7 30  1  0  0  0  0
  8 10  1  0  0  0  0
  8 31  1  0  0  0  0
  8 32  1  0  0  0  0
  9 11  1  0  0  0  0
  9 33  1  0  0  0  0
  9 34  1  0  0  0  0
 10 12  1  0  0  0  0
 10 35  1  0  0  0  0
 10 36  1  0  0  0  0
 11 14  1  0  0  0  0
 11 37  1  0  0  0  0
 12 13  1  0  0  0  0
 12 38  1  0  0  0  0
 12 39  1  0  0  0  0
 13 40  1  0  0  0  0
 13 41  1  0  0  0  0
 13 42  1  0  0  0  0
 14 19  2  0  0  0  0
 14 43  1  0  0  0  0
 15 16  1  0  0  0  0
 15 17  1  0  0  0  0
 15 44  1  0  0  0  0
 15 45  1  0  0  0  0
 16 18  1  0  0  0  0
 16 46  1  0  0  0  0
 16 47  1  0  0  0  0
 17 20  1  0  0  0  0
 17 48  1  0  0  0  0
 18 24  1  0  0  0  0
 18 50  1  0  0  0  0
 18 51  1  0  0  0  0
 19 21  1  0  0  0  0
 19 52  1  0  0  0  0
 20 22  2  0  0  0  0
 20 53  1  0  0  0  0
 21 23  2  0  0  0  0
 21 54  1  0  0  0  0
 22 23  1  0  0  0  0
 22 55  1  0  0  0  0
 23 56  1  0  0  0  0
M  END
> <PUBCHEM_COMPOUND_CID>
3906

> <PUBCHEM_CONFORMER_RMSD>
1.4

> <PUBCHEM_CONFORMER_DIVERSEORDER>
3
9
75
29
63
24
4
70
50
10
53
66
60
30
76
45
19
68
59
20
67
72
31
34
48
2
44
35
77
55
42
37
64
54
79
47
6
26
62
39
33
46
51
58
49
61
71
65
57
41
17
25
78
14
23
16
74
52
73
38
11
56
15
5
69
22
32
13
43
12
27
40
21
36
1
18
28
8
7

> <PUBCHEM_MMFF94_PARTIAL_CHARGES>
23
1 -0.68
11 0.42
14 -0.29
17 0.42
18 0.06
19 -0.15
2 -0.68
20 -0.29
21 -0.15
22 -0.15
23 -0.15
24 0.66
3 -0.65
4 -0.57
43 0.15
49 0.4
52 0.15
53 0.15
54 0.15
55 0.15
56 0.15
57 0.4
58 0.5

> <PUBCHEM_EFFECTIVE_ROTOR_COUNT>
15

> <PUBCHEM_PHARMACOPHORE_FEATURES>
8
1 1 acceptor
1 1 donor
1 13 hydrophobe
1 2 acceptor
1 2 donor
1 3 acceptor
1 4 acceptor
3 3 4 24 anion

> <PUBCHEM_HEAVY_ATOM_COUNT>
24

> <PUBCHEM_ATOM_DEF_STEREO_COUNT>
0

> <PUBCHEM_ATOM_UDEF_STEREO_COUNT>
2

> <PUBCHEM_BOND_DEF_STEREO_COUNT>
0

> <PUBCHEM_BOND_UDEF_STEREO_COUNT>
3

> <PUBCHEM_ISOTOPIC_ATOM_COUNT>
0

> <PUBCHEM_COMPONENT_COUNT>
1

> <PUBCHEM_CACTVS_TAUTO_COUNT>
1

> <PUBCHEM_CONFORMER_ID>
00000F4200000003

> <PUBCHEM_MMFF94_ENERGY>
14.5117

> <PUBCHEM_FEATURE_SELFOVERLAP>
40.652

> <PUBCHEM_SHAPE_FINGERPRINT>
10816530 90 18412833490215886000
12717326 69 9222934998648654777
13878862 14 18339938051438137718
14117953 113 18186793713194862150
14556957 393 17313092077990753601
14598715 104 16988573441967055519
14931854 50 18190999267930246148
18335252 114 18334851749688256686
20554085 129 17060344019924576099
21033648 29 17846217700597836146
21344244 78 18197231437376063746
44555599 121 18262511602473094993
5312510 48 18410289181928676388
552612 73 18272938228120927357

> <PUBCHEM_SHAPE_MULTIPOLES>
470.43
24.04
4.51
1.31
53.58
2.99
-0.22
7.73
10.12
-8.15
-1.22
-0.7
0.68
1.98

> <PUBCHEM_SHAPE_SELFOVERLAP>
887.869

> <PUBCHEM_SHAPE_VOLUME>
289.5

> <PUBCHEM_COORDINATE_TYPE>
2
5
10

$$$$

