443732
  -OEChem-07051213033D

 14 13  0     0  0  0  0  0  0999 V2000
   -2.4315   -0.1535   -0.1995 N   0  0  0  0  0  0  0  0  0  0  0  0
   -0.0396   -0.5159    0.1952 C   0  0  0  0  0  0  0  0  0  0  0  0
   -1.1536    0.5152    0.0191 C   0  0  0  0  0  0  0  0  0  0  0  0
    1.2883    0.1522    0.4013 C   0  0  0  0  0  0  0  0  0  0  0  0
    2.3364    0.0020   -0.4161 C   0  0  0  0  0  0  0  0  0  0  0  0
   -0.2471   -1.1484    1.0674 H   0  0  0  0  0  0  0  0  0  0  0  0
   -0.0051   -1.1803   -0.6777 H   0  0  0  0  0  0  0  0  0  0  0  0
   -1.2274    1.1555    0.9058 H   0  0  0  0  0  0  0  0  0  0  0  0
   -0.9406    1.1621   -0.8395 H   0  0  0  0  0  0  0  0  0  0  0  0
    1.3979    0.7861    1.2774 H   0  0  0  0  0  0  0  0  0  0  0  0
   -3.1714    0.5445   -0.2629 H   0  0  0  0  0  0  0  0  0  0  0  0
   -2.6563   -0.7357    0.6062 H   0  0  0  0  0  0  0  0  0  0  0  0
    3.2722    0.5090   -0.2079 H   0  0  0  0  0  0  0  0  0  0  0  0
    2.2816   -0.6229   -1.3007 H   0  0  0  0  0  0  0  0  0  0  0  0
  1  3  1  0  0  0  0
  1 11  1  0  0  0  0
  1 12  1  0  0  0  0
  2  3  1  0  0  0  0
  2  4  1  0  0  0  0
  2  6  1  0  0  0  0
  2  7  1  0  0  0  0
  3  8  1  0  0  0  0
  3  9  1  0  0  0  0
  4  5  2  0  0  0  0
  4 10  1  0  0  0  0
  5 13  1  0  0  0  0
  5 14  1  0  0  0  0
M  END
> <PUBCHEM_COMPOUND_CID>
443732

> <PUBCHEM_CONFORMER_RMSD>
0.4

> <PUBCHEM_CONFORMER_DIVERSEORDER>
1
9
8
2
7
4
6
3
5

> <PUBCHEM_MMFF94_PARTIAL_CHARGES>
10
1 -0.99
10 0.15
11 0.36
12 0.36
13 0.15
14 0.15
2 0.14
3 0.27
4 -0.29
5 -0.3

> <PUBCHEM_EFFECTIVE_ROTOR_COUNT>
2

> <PUBCHEM_PHARMACOPHORE_FEATURES>
3
1 1 cation
1 1 donor
1 5 hydrophobe

> <PUBCHEM_HEAVY_ATOM_COUNT>
5

> <PUBCHEM_ATOM_DEF_STEREO_COUNT>
0

> <PUBCHEM_ATOM_UDEF_STEREO_COUNT>
0

> <PUBCHEM_BOND_DEF_STEREO_COUNT>
0

> <PUBCHEM_BOND_UDEF_STEREO_COUNT>
0

> <PUBCHEM_ISOTOPIC_ATOM_COUNT>
0

> <PUBCHEM_COMPONENT_COUNT>
1

> <PUBCHEM_CACTVS_TAUTO_COUNT>
1

> <PUBCHEM_CONFORMER_ID>
0006C55400000001

> <PUBCHEM_MMFF94_ENERGY>
-3.3277

> <PUBCHEM_FEATURE_SELFOVERLAP>
15.223

> <PUBCHEM_SHAPE_FINGERPRINT>
139733 1 17846497041059884978
14390081 3 16415479337373185396
16714656 1 18409446977264404551
20096714 4 17346311575207656820
29004967 10 15285358418455778850
5460574 1 9223232948665523672

> <PUBCHEM_SHAPE_MULTIPOLES>
97.92
3.3
0.72
0.68
0.35
0
-0.01
0.07
0.54
0.04
-0.01
-0.13
0
-0.01

> <PUBCHEM_SHAPE_SELFOVERLAP>
165.567

> <PUBCHEM_SHAPE_VOLUME>
65.2

> <PUBCHEM_COORDINATE_TYPE>
2
5
10

$$$$

