442091
  -OEChem-07051212573D

 51 53  0     1  0  0  0  0  0999 V2000
   -5.4356    2.2646   -0.0264 O   0  0  0  0  0  0  0  0  0  0  0  0
   -0.8588   -0.4191   -0.0284 N   0  0  0  0  0  0  0  0  0  0  0  0
    4.7934   -1.7737   -0.3631 N   0  0  0  0  0  0  0  0  0  0  0  0
   -3.1405   -0.2618    0.8451 C   0  0  2  0  0  0  0  0  0  0  0  0
   -1.6666   -0.4506    1.1977 C   0  0  0  0  0  0  0  0  0  0  0  0
   -3.6376   -1.4120   -0.0414 C   0  0  0  0  0  0  0  0  0  0  0  0
   -3.3606    1.0887    0.1613 C   0  0  0  0  0  0  0  0  0  0  0  0
   -5.1136   -1.2338   -0.3979 C   0  0  0  0  0  0  0  0  0  0  0  0
   -5.3708    0.0972   -1.1092 C   0  0  2  0  0  0  0  0  0  0  0  0
   -4.8041    1.2377   -0.2709 C   0  0  0  0  0  0  0  0  0  0  0  0
   -1.4525   -1.8067    1.8832 C   0  0  0  0  0  0  0  0  0  0  0  0
   -1.1903    0.6799    2.1194 C   0  0  0  0  0  0  0  0  0  0  0  0
    0.5471   -0.6072    0.2837 C   0  0  0  0  0  0  0  0  0  0  0  0
   -6.8594    0.2834   -1.3849 C   0  0  0  0  0  0  0  0  0  0  0  0
    1.4028   -0.5695   -0.9848 C   0  0  0  0  0  0  0  0  0  0  0  0
    2.8585   -0.7852   -0.6919 C   0  0  0  0  0  0  0  0  0  0  0  0
    3.7993    0.2231   -0.4017 C   0  0  0  0  0  0  0  0  0  0  0  0
    3.4772   -1.9987   -0.6653 C   0  0  0  0  0  0  0  0  0  0  0  0
    5.0188   -0.4258   -0.1969 C   0  0  0  0  0  0  0  0  0  0  0  0
    3.7507    1.6268   -0.2893 C   0  0  0  0  0  0  0  0  0  0  0  0
    6.1969    0.2616    0.1162 C   0  0  0  0  0  0  0  0  0  0  0  0
    4.9213    2.3276    0.0231 C   0  0  0  0  0  0  0  0  0  0  0  0
    6.1244    1.6535    0.2224 C   0  0  0  0  0  0  0  0  0  0  0  0
   -3.7389   -0.2743    1.7680 H   0  0  0  0  0  0  0  0  0  0  0  0
   -3.5440   -2.3764    0.4686 H   0  0  0  0  0  0  0  0  0  0  0  0
   -3.0591   -1.4798   -0.9706 H   0  0  0  0  0  0  0  0  0  0  0  0
   -2.7676    1.2250   -0.7479 H   0  0  0  0  0  0  0  0  0  0  0  0
   -3.1394    1.9186    0.8405 H   0  0  0  0  0  0  0  0  0  0  0  0
   -5.4333   -2.0652   -1.0377 H   0  0  0  0  0  0  0  0  0  0  0  0
   -5.7116   -1.2902    0.5212 H   0  0  0  0  0  0  0  0  0  0  0  0
   -4.8359    0.1113   -2.0673 H   0  0  0  0  0  0  0  0  0  0  0  0
   -0.9599    0.4740   -0.5061 H   0  0  0  0  0  0  0  0  0  0  0  0
   -0.5095   -1.8601    2.4398 H   0  0  0  0  0  0  0  0  0  0  0  0
   -2.2404   -1.9915    2.6242 H   0  0  0  0  0  0  0  0  0  0  0  0
   -1.4640   -2.6471    1.1792 H   0  0  0  0  0  0  0  0  0  0  0  0
   -1.0292    1.6252    1.5879 H   0  0  0  0  0  0  0  0  0  0  0  0
   -0.2620    0.4395    2.6502 H   0  0  0  0  0  0  0  0  0  0  0  0
   -1.9334    0.8730    2.9034 H   0  0  0  0  0  0  0  0  0  0  0  0
    0.9364    0.1710    0.9481 H   0  0  0  0  0  0  0  0  0  0  0  0
    0.7369   -1.5763    0.7564 H   0  0  0  0  0  0  0  0  0  0  0  0
   -7.2490   -0.5380   -1.9950 H   0  0  0  0  0  0  0  0  0  0  0  0
   -7.4360    0.3217   -0.4540 H   0  0  0  0  0  0  0  0  0  0  0  0
   -7.0419    1.2189   -1.9248 H   0  0  0  0  0  0  0  0  0  0  0  0
    1.2712    0.3910   -1.4996 H   0  0  0  0  0  0  0  0  0  0  0  0
    1.0599   -1.3422   -1.6861 H   0  0  0  0  0  0  0  0  0  0  0  0
    3.1144   -3.0037   -0.8302 H   0  0  0  0  0  0  0  0  0  0  0  0
    5.4983   -2.4926   -0.2744 H   0  0  0  0  0  0  0  0  0  0  0  0
    2.8209    2.1679   -0.4398 H   0  0  0  0  0  0  0  0  0  0  0  0
    7.1340   -0.2623    0.2715 H   0  0  0  0  0  0  0  0  0  0  0  0
    4.8897    3.4104    0.1115 H   0  0  0  0  0  0  0  0  0  0  0  0
    7.0215    2.2177    0.4644 H   0  0  0  0  0  0  0  0  0  0  0  0
  1 10  2  0  0  0  0
  2  5  1  0  0  0  0
  2 13  1  0  0  0  0
  2 32  1  0  0  0  0
  3 18  1  0  0  0  0
  3 19  1  0  0  0  0
  3 47  1  0  0  0  0
  4  5  1  0  0  0  0
  4  6  1  0  0  0  0
  4  7  1  0  0  0  0
  4 24  1  0  0  0  0
  5 11  1  0  0  0  0
  5 12  1  0  0  0  0
  6  8  1  0  0  0  0
  6 25  1  0  0  0  0
  6 26  1  0  0  0  0
  7 10  1  0  0  0  0
  7 27  1  0  0  0  0
  7 28  1  0  0  0  0
  8  9  1  0  0  0  0
  8 29  1  0  0  0  0
  8 30  1  0  0  0  0
  9 10  1  0  0  0  0
  9 14  1  0  0  0  0
  9 31  1  0  0  0  0
 11 33  1  0  0  0  0
 11 34  1  0  0  0  0
 11 35  1  0  0  0  0
 12 36  1  0  0  0  0
 12 37  1  0  0  0  0
 12 38  1  0  0  0  0
 13 15  1  0  0  0  0
 13 39  1  0  0  0  0
 13 40  1  0  0  0  0
 14 41  1  0  0  0  0
 14 42  1  0  0  0  0
 14 43  1  0  0  0  0
 15 16  1  0  0  0  0
 15 44  1  0  0  0  0
 15 45  1  0  0  0  0
 16 17  1  0  0  0  0
 16 18  2  0  0  0  0
 17 19  1  0  0  0  0
 17 20  2  0  0  0  0
 18 46  1  0  0  0  0
 19 21  2  0  0  0  0
 20 22  1  0  0  0  0
 20 48  1  0  0  0  0
 21 23  1  0  0  0  0
 21 49  1  0  0  0  0
 22 23  2  0  0  0  0
 22 50  1  0  0  0  0
 23 51  1  0  0  0  0
M  END
> <PUBCHEM_COMPOUND_CID>
442091

> <PUBCHEM_CONFORMER_RMSD>
0.8

> <PUBCHEM_CONFORMER_DIVERSEORDER>
5
34
66
14
26
44
82
79
46
27
11
73
39
74
17
25
64
20
12
62
38
68
24
63
50
1
7
48
41
77
71
60
69
3
8
10
21
58
61
81
4
80
15
29
23
31
51
49
37
42
43
16
55
76
70
67
54
75
47
65
6
57
19
22
53
35
2
52
56
9
13
45
36
18
30
32
59
40
72
78
28
33

> <PUBCHEM_MMFF94_PARTIAL_CHARGES>
23
1 -0.57
10 0.45
13 0.27
15 0.18
16 -0.18
18 -0.3
19 -0.15
2 -0.9
20 -0.15
21 -0.15
22 -0.15
23 -0.15
3 0.03
32 0.36
46 0.15
47 0.27
48 0.15
49 0.15
5 0.27
50 0.15
51 0.15
7 0.06
9 0.06

> <PUBCHEM_EFFECTIVE_ROTOR_COUNT>
6

> <PUBCHEM_PHARMACOPHORE_FEATURES>
9
1 1 acceptor
1 2 cation
1 2 donor
1 3 cation
1 3 donor
3 5 11 12 hydrophobe
5 3 16 17 18 19 rings
6 17 19 20 21 22 23 rings
6 4 6 7 8 9 10 rings

> <PUBCHEM_HEAVY_ATOM_COUNT>
23

> <PUBCHEM_ATOM_DEF_STEREO_COUNT>
2

> <PUBCHEM_ATOM_UDEF_STEREO_COUNT>
0

> <PUBCHEM_BOND_DEF_STEREO_COUNT>
0

> <PUBCHEM_BOND_UDEF_STEREO_COUNT>
0

> <PUBCHEM_ISOTOPIC_ATOM_COUNT>
0

> <PUBCHEM_COMPONENT_COUNT>
1

> <PUBCHEM_CACTVS_TAUTO_COUNT>
3

> <PUBCHEM_CONFORMER_ID>
0006BEEB00000005

> <PUBCHEM_MMFF94_ENERGY>
42.6655

> <PUBCHEM_FEATURE_SELFOVERLAP>
45.761

> <PUBCHEM_SHAPE_FINGERPRINT>
10299344 5 9151172077794571140
10319688 77 17118027431712111314
10595046 47 18260550043426721615
10835480 77 18410858741573041725
11089746 13 18202284710468312842
11646440 116 17561355206414992765
12236239 1 17458341961733826358
12516196 113 5256398405881440795
12633257 1 15195279803000538590
13402501 40 18343023276686976060
13533116 47 17531245101931586926
13673619 4 8070035471351966178
13690498 29 17969235443372081439
13911987 19 17458339706812621093
14251757 5 16806459002305858903
14251758 9 15267347335756027714
14251764 18 13039183697837051419
14251764 30 8646771096824300127
14251764 38 18342168973205625284
14350574 20 8070033263991814582
14420673 8 9799424333621653729
14528608 73 18259701186153650244
14556957 393 16878214303803361409
14617045 38 7060380340144636260
14767858 380 17385447600629132415
15142383 8 12319468679389203174
15183329 4 18411703196647215505
15238133 3 15482670178259576894
15537594 2 14562535093842785749
1813 80 14201398279032607883
18222031 100 15068624885359153523
19489759 90 18131069316319505203
200 152 17822008726797493667
20157964 124 18408322198597428774
20511986 3 18260278446843415974
20554085 129 16845303743477718497
21033648 29 17846487128307131472
21150785 3 17749114365919458149
21403212 168 14189305863277873985
21424621 283 17988361576627248681
22950370 63 8935001473129115994
2297311 6 5906055854452843131
23081809 10 16732977660858170451
23198884 109 18410858789629818567
23559900 14 18411138013284160360
2767999 5 17632861936199372845
2838139 119 18341897419819301821
329604 57 17676488345744716057
34797466 226 17821720624464602197
351380 180 18413386544812401340
4073 2 18131346367786304602
4098825 35 18334857212954897441
4325135 7 17967254186845766885
465052 167 11095890376170509752
5104073 3 18202277030718791123
5283173 99 18411419544248803209
5385378 56 15984553320420032377
7226269 152 16487257668347997413

> <PUBCHEM_SHAPE_MULTIPOLES>
457.5
17.76
2.08
1.33
0.71
0.38
-0.57
5.93
5.3
-1.12
-0.07
1.33
-0.22
0.86

> <PUBCHEM_SHAPE_SELFOVERLAP>
969.98

> <PUBCHEM_SHAPE_VOLUME>
256.6

> <PUBCHEM_COORDINATE_TYPE>
2
5
10

$$$$

