131525
  -OEChem-07051213003D

 34 35  0     0  0  0  0  0  0999 V2000
    1.8928   -2.0049    0.1044 O   0  0  0  0  0  0  0  0  0  0  0  0
   -0.7478   -2.7023    0.4682 O   0  0  0  0  0  0  0  0  0  0  0  0
    0.1085    1.2076   -0.3114 N   0  0  0  0  0  0  0  0  0  0  0  0
    1.1279    0.2418   -0.2297 C   0  0  0  0  0  0  0  0  0  0  0  0
    2.5555    0.6987   -0.4401 C   0  0  0  0  0  0  0  0  0  0  0  0
   -1.2516    0.8286   -0.1284 C   0  0  0  0  0  0  0  0  0  0  0  0
   -1.5773   -0.5154    0.1415 C   0  0  0  0  0  0  0  0  0  0  0  0
    0.8902   -1.0617    0.0249 C   0  0  0  0  0  0  0  0  0  0  0  0
    3.1969    1.1126    0.8738 C   0  0  0  0  0  0  0  0  0  0  0  0
   -0.5032   -1.5252    0.2323 C   0  0  0  0  0  0  0  0  0  0  0  0
    0.3508    2.6283   -0.5834 C   0  0  0  0  0  0  0  0  0  0  0  0
   -2.3269    1.7366   -0.2022 C   0  0  0  0  0  0  0  0  0  0  0  0
   -2.9043   -0.9312    0.3282 C   0  0  0  0  0  0  0  0  0  0  0  0
    4.6369    1.5497    0.6536 C   0  0  0  0  0  0  0  0  0  0  0  0
   -3.6514    1.3253   -0.0167 C   0  0  0  0  0  0  0  0  0  0  0  0
   -3.9398   -0.0071    0.2482 C   0  0  0  0  0  0  0  0  0  0  0  0
    2.1427   -2.5812   -1.1632 C   0  0  0  0  0  0  0  0  0  0  0  0
    3.1633   -0.1068   -0.8676 H   0  0  0  0  0  0  0  0  0  0  0  0
    2.6289    1.4818   -1.2015 H   0  0  0  0  0  0  0  0  0  0  0  0
    2.6405    1.9375    1.3338 H   0  0  0  0  0  0  0  0  0  0  0  0
    3.1846    0.2803    1.5879 H   0  0  0  0  0  0  0  0  0  0  0  0
   -0.1084    3.2572    0.1890 H   0  0  0  0  0  0  0  0  0  0  0  0
   -0.0506    2.9048   -1.5651 H   0  0  0  0  0  0  0  0  0  0  0  0
    1.4026    2.9196   -0.5760 H   0  0  0  0  0  0  0  0  0  0  0  0
   -2.1711    2.7908   -0.4152 H   0  0  0  0  0  0  0  0  0  0  0  0
   -3.1471   -1.9700    0.5358 H   0  0  0  0  0  0  0  0  0  0  0  0
    4.6883    2.4041   -0.0290 H   0  0  0  0  0  0  0  0  0  0  0  0
    5.2361    0.7357    0.2330 H   0  0  0  0  0  0  0  0  0  0  0  0
    5.0909    1.8477    1.6039 H   0  0  0  0  0  0  0  0  0  0  0  0
   -4.4565    2.0519   -0.0826 H   0  0  0  0  0  0  0  0  0  0  0  0
   -4.9679   -0.3253    0.3914 H   0  0  0  0  0  0  0  0  0  0  0  0
    3.0490   -3.1893   -1.0875 H   0  0  0  0  0  0  0  0  0  0  0  0
    2.3011   -1.8361   -1.9502 H   0  0  0  0  0  0  0  0  0  0  0  0
    1.3188   -3.2432   -1.4516 H   0  0  0  0  0  0  0  0  0  0  0  0
  1  8  1  0  0  0  0
  1 17  1  0  0  0  0
  2 10  2  0  0  0  0
  3  4  1  0  0  0  0
  3  6  1  0  0  0  0
  3 11  1  0  0  0  0
  4  5  1  0  0  0  0
  4  8  2  0  0  0  0
  5  9  1  0  0  0  0
  5 18  1  0  0  0  0
  5 19  1  0  0  0  0
  6  7  1  0  0  0  0
  6 12  2  0  0  0  0
  7 10  1  0  0  0  0
  7 13  2  0  0  0  0
  8 10  1  0  0  0  0
  9 14  1  0  0  0  0
  9 20  1  0  0  0  0
  9 21  1  0  0  0  0
 11 22  1  0  0  0  0
 11 23  1  0  0  0  0
 11 24  1  0  0  0  0
 12 15  1  0  0  0  0
 12 25  1  0  0  0  0
 13 16  1  0  0  0  0
 13 26  1  0  0  0  0
 14 27  1  0  0  0  0
 14 28  1  0  0  0  0
 14 29  1  0  0  0  0
 15 16  2  0  0  0  0
 15 30  1  0  0  0  0
 16 31  1  0  0  0  0
 17 32  1  0  0  0  0
 17 33  1  0  0  0  0
 17 34  1  0  0  0  0
M  END
> <PUBCHEM_COMPOUND_CID>
131525

> <PUBCHEM_CONFORMER_RMSD>
0.6

> <PUBCHEM_CONFORMER_DIVERSEORDER>
1
3
5
2
4

> <PUBCHEM_MMFF94_PARTIAL_CHARGES>
19
1 -0.36
10 0.47
11 0.37
12 -0.15
13 -0.15
15 -0.15
16 -0.15
17 0.28
2 -0.57
25 0.15
26 0.15
3 -0.57
30 0.15
31 0.15
4 -0.04
5 0.14
6 0.1
7 0.09
8 0.09

> <PUBCHEM_EFFECTIVE_ROTOR_COUNT>
3

> <PUBCHEM_PHARMACOPHORE_FEATURES>
6
1 1 acceptor
1 14 hydrophobe
1 2 acceptor
1 3 cation
6 3 4 6 7 8 10 rings
6 6 7 12 13 15 16 rings

> <PUBCHEM_HEAVY_ATOM_COUNT>
17

> <PUBCHEM_ATOM_DEF_STEREO_COUNT>
0

> <PUBCHEM_ATOM_UDEF_STEREO_COUNT>
0

> <PUBCHEM_BOND_DEF_STEREO_COUNT>
0

> <PUBCHEM_BOND_UDEF_STEREO_COUNT>
0

> <PUBCHEM_ISOTOPIC_ATOM_COUNT>
0

> <PUBCHEM_COMPONENT_COUNT>
1

> <PUBCHEM_CACTVS_TAUTO_COUNT>
3

> <PUBCHEM_CONFORMER_ID>
000201C500000001

> <PUBCHEM_MMFF94_ENERGY>
56.0435

> <PUBCHEM_FEATURE_SELFOVERLAP>
30.473

> <PUBCHEM_SHAPE_FINGERPRINT>
10608611 8 18339081613315933037
10967382 1 18412822486778458205
11132069 177 18341051830715467156
11680986 33 18411688902895840555
12119455 92 17530685377482371212
12251169 10 18200318710552953856
12382932 28 18413110562814162272
13140716 1 17907854007679507073
13380535 76 18411421670004173186
13544592 271 18339642239496621786
14787075 74 17823988822653723665
14790565 3 13508398579768046126
15196674 1 18411981403549153825
15209294 21 18114453518186550857
15219456 202 18408885169809233118
15536298 74 18335418018917810527
16945 1 18268419149272873727
1813 80 16558479681769109138
18186145 218 18198336450027847781
193761 8 17692244136891078661
19784866 170 18412544301810266168
20510252 161 18335138691546554745
20588541 1 18410853235467107728
20645477 70 18190469444594900413
21452121 103 18337397161306943200
22182313 1 18342735269148715677
2334 1 18341045302465092263
23402539 116 18338810996063733839
23463225 33 18273219681501403760
23559900 14 18336531747916290388
2748010 2 18341888653653445823
34934 24 18409738365463607725
352729 6 18052247410804416349
5104073 3 18340480188391597065
53812653 166 18335704918427939520
7364860 26 18189053247621875238
84936 31 17169280423722379310
90316 7 17774461420259974356
9709674 26 18410851057966499223

> <PUBCHEM_SHAPE_MULTIPOLES>
333.13
6.47
2.88
0.83
1.22
1.03
0.05
-2.74
-1.26
1.09
0.42
0.41
0.07
0.93

> <PUBCHEM_SHAPE_SELFOVERLAP>
703.39

> <PUBCHEM_SHAPE_VOLUME>
188.1

> <PUBCHEM_COORDINATE_TYPE>
2
5
10

$$$$

