11954007
  -OEChem-07051213032D

 14 14  0     0  0  0  0  0  0999 V2000
    6.1357   -1.9814    0.0000 Cl  0  0  0  0  0  0  0  0  0  0  0  0
    2.5447   -0.5814    0.0000 Cl  0  0  0  0  0  0  0  0  0  0  0  0
    5.0480    0.3665    0.0000 O   0  0  0  0  0  0  0  0  0  0  0  0
    6.8080    0.0877    0.0000 O   0  0  0  0  0  0  0  0  0  0  0  0
    2.1289    1.3749    0.0000 O   0  0  0  0  0  0  0  0  0  0  0  0
    3.8231    1.7350    0.0000 O   0  0  0  0  0  0  0  0  0  0  0  0
    4.2389   -0.2213    0.0000 C   0  0  0  0  0  0  0  0  0  0  0  0
    4.5480   -1.1723    0.0000 C   0  0  0  0  0  0  0  0  0  0  0  0
    5.5480   -1.1723    0.0000 C   0  0  0  0  0  0  0  0  0  0  0  0
    3.2879    0.0877    0.0000 C   0  0  0  0  0  0  0  0  0  0  0  0
    5.8570   -0.2213    0.0000 C   0  0  0  0  0  0  0  0  0  0  0  0
    3.0800    1.0659    0.0000 C   0  0  0  0  0  0  0  0  0  0  0  0
    4.1835   -1.6739    0.0000 H   0  0  0  0  0  0  0  0  0  0  0  0
    2.0000    1.9814    0.0000 H   0  0  0  0  0  0  0  0  0  0  0  0
  1  9  1  0  0  0  0
  2 10  1  0  0  0  0
  3  7  1  0  0  0  0
  3 11  1  0  0  0  0
  4 11  2  0  0  0  0
  5 12  1  0  0  0  0
  5 14  1  0  0  0  0
  6 12  2  0  0  0  0
  7  8  1  0  0  0  0
  7 10  2  0  0  0  0
  8  9  2  0  0  0  0
  8 13  1  0  0  0  0
  9 11  1  0  0  0  0
 10 12  1  0  0  0  0
M  END
> <PUBCHEM_COMPOUND_CID>
11954007

> <PUBCHEM_COMPOUND_CANONICALIZED>
1

> <PUBCHEM_CACTVS_COMPLEXITY>
316

> <PUBCHEM_CACTVS_HBOND_ACCEPTOR>
4

> <PUBCHEM_CACTVS_HBOND_DONOR>
1

> <PUBCHEM_CACTVS_ROTATABLE_BOND>
1

> <PUBCHEM_CACTVS_SUBSKEYS>
AAADcQBgOAAGAAAAAAAAAAAAAAAAAQAAAAAAAAAAAAAAAAAAAAAAGgIACAAACAaAgAAACAAABgCIACDSCAAACAAAIAAACAAAAUBIBAAAIAACEAAAAAAAsYAAAAAAAAAAAAAAAAAAAAAAAAAAAAAAAAAAAA==

> <PUBCHEM_IUPAC_OPENEYE_NAME>
(2E)-2-chloro-2-(4-chloro-5-oxo-2-furylidene)acetic acid

> <PUBCHEM_IUPAC_CAS_NAME>
(2E)-2-chloro-2-(4-chloro-5-oxo-2-furanylidene)acetic acid

> <PUBCHEM_IUPAC_NAME>
(2E)-2-chloro-2-(4-chloro-5-oxofuran-2-ylidene)acetic acid

> <PUBCHEM_IUPAC_SYSTEMATIC_NAME>
(2E)-2-chloranyl-2-(4-chloranyl-5-oxidanylidene-furan-2-ylidene)ethanoic acid

> <PUBCHEM_IUPAC_TRADITIONAL_NAME>
(2E)-2-chloro-2-(4-chloro-5-keto-2-furylidene)acetic acid

> <PUBCHEM_IUPAC_INCHI>
InChI=1S/C6H2Cl2O4/c7-2-1-3(12-6(2)11)4(8)5(9)10/h1H,(H,9,10)/b4-3+

> <PUBCHEM_IUPAC_INCHIKEY>
XJQKWSUIZRECMR-ONEGZZNKSA-N

> <PUBCHEM_XLOGP3_AA>
1.7

> <PUBCHEM_EXACT_MASS>
207.933014

> <PUBCHEM_MOLECULAR_FORMULA>
C6H2Cl2O4

> <PUBCHEM_MOLECULAR_WEIGHT>
208.98368

> <PUBCHEM_OPENEYE_CAN_SMILES>
C1=C(C(=O)OC1=C(C(=O)O)Cl)Cl

> <PUBCHEM_OPENEYE_ISO_SMILES>
C\1=C(C(=O)O/C1=C(\C(=O)O)/Cl)Cl

> <PUBCHEM_CACTVS_TPSA>
63.6

> <PUBCHEM_MONOISOTOPIC_WEIGHT>
207.933014

> <PUBCHEM_TOTAL_CHARGE>
0

> <PUBCHEM_HEAVY_ATOM_COUNT>
12

> <PUBCHEM_ATOM_DEF_STEREO_COUNT>
0

> <PUBCHEM_ATOM_UDEF_STEREO_COUNT>
0

> <PUBCHEM_BOND_DEF_STEREO_COUNT>
1

> <PUBCHEM_BOND_UDEF_STEREO_COUNT>
0

> <PUBCHEM_ISOTOPIC_ATOM_COUNT>
0

> <PUBCHEM_COMPONENT_COUNT>
1

> <PUBCHEM_CACTVS_TAUTO_COUNT>
1

> <PUBCHEM_COORDINATE_TYPE>
1
5
255

$$$$

