10800958
  -OEChem-07051213102D

 44 44  0     1  0  0  0  0  0999 V2000
    4.5981    1.6527    0.0000 O   0  0  0  0  0  0  0  0  0  0  0  0
    4.8214   -0.6134    0.0000 O   0  0  0  0  0  0  0  0  0  0  0  0
    5.8061    1.4924    0.0000 O   0  0  0  0  0  0  0  0  0  0  0  0
    3.7320    0.1527    0.0000 C   0  0  2  0  0  0  0  0  0  0  0  0
    4.5981    0.6527    0.0000 C   0  0  2  0  0  0  0  0  0  0  0  0
    2.8660    0.6527    0.0000 C   0  0  0  0  0  0  0  0  0  0  0  0
    3.7320   -0.8473    0.0000 C   0  0  0  0  0  0  0  0  0  0  0  0
    5.4641    0.1527    0.0000 C   0  0  1  0  0  0  0  0  0  0  0  0
    4.5981   -1.3473    0.0000 C   0  0  0  0  0  0  0  0  0  0  0  0
    2.0000    0.1527    0.0000 C   0  0  0  0  0  0  0  0  0  0  0  0
    2.8660    1.6527    0.0000 C   0  0  0  0  0  0  0  0  0  0  0  0
    6.3301    0.6527    0.0000 C   0  0  0  0  0  0  0  0  0  0  0  0
    5.4641   -0.8473    0.0000 C   0  0  0  0  0  0  0  0  0  0  0  0
    7.1962    0.1527    0.0000 C   0  0  0  0  0  0  0  0  0  0  0  0
    7.1962   -0.8473    0.0000 C   0  0  0  0  0  0  0  0  0  0  0  0
    6.3301   -1.3473    0.0000 C   0  0  0  0  0  0  0  0  0  0  0  0
    5.4641    0.5527    0.0000 C   0  0  0  0  0  0  0  0  0  0  0  0
    6.8301    1.5187    0.0000 C   0  0  0  0  0  0  0  0  0  0  0  0
    3.1951   -0.1573    0.0000 H   0  0  0  0  0  0  0  0  0  0  0  0
    5.1350    0.9627    0.0000 H   0  0  0  0  0  0  0  0  0  0  0  0
    2.8660    0.0327    0.0000 H   0  0  0  0  0  0  0  0  0  0  0  0
    3.1215   -0.7397    0.0000 H   0  0  0  0  0  0  0  0  0  0  0  0
    3.5200   -1.4299    0.0000 H   0  0  0  0  0  0  0  0  0  0  0  0
    5.8626   -0.3222    0.0000 H   0  0  0  0  0  0  0  0  0  0  0  0
    4.1996   -1.8223    0.0000 H   0  0  0  0  0  0  0  0  0  0  0  0
    4.9966   -1.8223    0.0000 H   0  0  0  0  0  0  0  0  0  0  0  0
    3.4860    1.6527    0.0000 H   0  0  0  0  0  0  0  0  0  0  0  0
    1.6900    0.6896    0.0000 H   0  0  0  0  0  0  0  0  0  0  0  0
    2.8660    2.2727    0.0000 H   0  0  0  0  0  0  0  0  0  0  0  0
    2.2460    1.6527    0.0000 H   0  0  0  0  0  0  0  0  0  0  0  0
    1.4631   -0.1573    0.0000 H   0  0  0  0  0  0  0  0  0  0  0  0
    2.3100   -0.3843    0.0000 H   0  0  0  0  0  0  0  0  0  0  0  0
    7.8067    0.0450    0.0000 H   0  0  0  0  0  0  0  0  0  0  0  0
    7.4082    0.7353    0.0000 H   0  0  0  0  0  0  0  0  0  0  0  0
    7.4082   -1.4299    0.0000 H   0  0  0  0  0  0  0  0  0  0  0  0
    7.8067   -0.7397    0.0000 H   0  0  0  0  0  0  0  0  0  0  0  0
    4.0611    1.9627    0.0000 H   0  0  0  0  0  0  0  0  0  0  0  0
    6.3301   -1.9673    0.0000 H   0  0  0  0  0  0  0  0  0  0  0  0
    4.2844   -0.3034    0.0000 H   0  0  0  0  0  0  0  0  0  0  0  0
    5.0131    0.9782    0.0000 H   0  0  0  0  0  0  0  0  0  0  0  0
    6.0747    0.4450    0.0000 H   0  0  0  0  0  0  0  0  0  0  0  0
    7.4501    1.5187    0.0000 H   0  0  0  0  0  0  0  0  0  0  0  0
    6.5201    2.0556    0.0000 H   0  0  0  0  0  0  0  0  0  0  0  0
    5.4076    1.9673    0.0000 H   0  0  0  0  0  0  0  0  0  0  0  0
  5  1  1  1  0  0  0
  1 37  1  0  0  0  0
  8  2  1  1  0  0  0
  2 39  1  0  0  0  0
  3 17  1  0  0  0  0
  3 44  1  0  0  0  0
  4  5  1  0  0  0  0
  4  6  1  1  0  0  0
  4  7  1  0  0  0  0
  4 19  1  0  0  0  0
  5  8  1  0  0  0  0
  5 20  1  0  0  0  0
  6 10  1  0  0  0  0
  6 11  1  0  0  0  0
  6 21  1  0  0  0  0
  7  9  1  0  0  0  0
  7 22  1  0  0  0  0
  7 23  1  0  0  0  0
  8 12  1  0  0  0  0
  8 24  1  0  0  0  0
  9 13  1  0  0  0  0
  9 25  1  0  0  0  0
  9 26  1  0  0  0  0
 10 28  1  0  0  0  0
 10 31  1  0  0  0  0
 10 32  1  0  0  0  0
 11 27  1  0  0  0  0
 11 29  1  0  0  0  0
 11 30  1  0  0  0  0
 12 14  1  0  0  0  0
 12 18  2  0  0  0  0
 13 16  2  0  0  0  0
 13 17  1  0  0  0  0
 14 15  1  0  0  0  0
 14 33  1  0  0  0  0
 14 34  1  0  0  0  0
 15 16  1  0  0  0  0
 15 35  1  0  0  0  0
 15 36  1  0  0  0  0
 16 38  1  0  0  0  0
 17 40  1  0  0  0  0
 17 41  1  0  0  0  0
 18 42  1  0  0  0  0
 18 43  1  0  0  0  0
M  END
> <PUBCHEM_COMPOUND_CID>
10800958

> <PUBCHEM_COMPOUND_CANONICALIZED>
1

> <PUBCHEM_CACTVS_COMPLEXITY>
307

> <PUBCHEM_CACTVS_HBOND_ACCEPTOR>
3

> <PUBCHEM_CACTVS_HBOND_DONOR>
3

> <PUBCHEM_CACTVS_ROTATABLE_BOND>
2

> <PUBCHEM_CACTVS_SUBSKEYS>
AAADceBwMAAAAAAAAAAAAAAAAAAAAAAAAAAAAAAAAAAAAACAAAAAGgAACAAADRSggAICAAAAAgCAAiBCAAAAAAAgAAAACAAAAAgBFAIAAQAAUAAEwAAJEAOAwPAOgAAAAAAAAAAAAAAAAAAAAAAAAAAAAA==

> <PUBCHEM_IUPAC_OPENEYE_NAME>
(1R,2R,3S,6Z)-6-(hydroxymethyl)-3-isopropyl-10-methylene-cyclodec-6-ene-1,2-diol

> <PUBCHEM_IUPAC_CAS_NAME>
(1R,2R,3S,6Z)-6-(hydroxymethyl)-10-methylene-3-propan-2-ylcyclodec-6-ene-1,2-diol

> <PUBCHEM_IUPAC_NAME>
(1R,2R,3S,6Z)-6-(hydroxymethyl)-10-methylidene-3-propan-2-ylcyclodec-6-ene-1,2-diol

> <PUBCHEM_IUPAC_SYSTEMATIC_NAME>
(1R,2R,3S,6Z)-6-(hydroxymethyl)-10-methylidene-3-propan-2-yl-cyclodec-6-ene-1,2-diol

> <PUBCHEM_IUPAC_TRADITIONAL_NAME>
(1R,2R,3S,6Z)-3-isopropyl-10-methylene-6-methylol-cyclodec-6-ene-1,2-diol

> <PUBCHEM_IUPAC_INCHI>
InChI=1S/C15H26O3/c1-10(2)13-8-7-12(9-16)6-4-5-11(3)14(17)15(13)18/h6,10,13-18H,3-5,7-9H2,1-2H3/b12-6-/t13-,14+,15+/m0/s1

> <PUBCHEM_IUPAC_INCHIKEY>
DXLKOOQBJKRNLJ-INYXVGHSSA-N

> <PUBCHEM_XLOGP3_AA>
1.2

> <PUBCHEM_EXACT_MASS>
254.188195

> <PUBCHEM_MOLECULAR_FORMULA>
C15H26O3

> <PUBCHEM_MOLECULAR_WEIGHT>
254.36514

> <PUBCHEM_OPENEYE_CAN_SMILES>
CC(C)C1CCC(=CCCC(=C)C(C1O)O)CO

> <PUBCHEM_OPENEYE_ISO_SMILES>
CC(C)[C@@H]1CC/C(=C/CCC(=C)[C@H]([C@@H]1O)O)/CO

> <PUBCHEM_CACTVS_TPSA>
60.7

> <PUBCHEM_MONOISOTOPIC_WEIGHT>
254.188195

> <PUBCHEM_TOTAL_CHARGE>
0

> <PUBCHEM_HEAVY_ATOM_COUNT>
18

> <PUBCHEM_ATOM_DEF_STEREO_COUNT>
3

> <PUBCHEM_ATOM_UDEF_STEREO_COUNT>
0

> <PUBCHEM_BOND_DEF_STEREO_COUNT>
1

> <PUBCHEM_BOND_UDEF_STEREO_COUNT>
0

> <PUBCHEM_ISOTOPIC_ATOM_COUNT>
0

> <PUBCHEM_COMPONENT_COUNT>
1

> <PUBCHEM_CACTVS_TAUTO_COUNT>
1

> <PUBCHEM_COORDINATE_TYPE>
1
5
255

> <PUBCHEM_BONDANNOTATIONS>
5  1  5
8  2  5
4  6  5

$$$$

