14318
  -OEChem-06241222433D

 19 20  0     0  0  0  0  0  0999 V2000
   -2.3311    1.7275   -0.0001 O   0  0  0  0  0  0  0  0  0  0  0  0
   -3.3568   -0.9564    0.0001 O   0  0  0  0  0  0  0  0  0  0  0  0
   -1.0502   -1.4959   -0.0001 N   0  0  0  0  0  0  0  0  0  0  0  0
    0.1154   -0.7262    0.0001 C   0  0  0  0  0  0  0  0  0  0  0  0
   -0.1822    0.6331    0.0001 C   0  0  0  0  0  0  0  0  0  0  0  0
    1.4202   -1.1731    0.0001 C   0  0  0  0  0  0  0  0  0  0  0  0
    2.4298   -0.2044   -0.0001 C   0  0  0  0  0  0  0  0  0  0  0  0
    0.7911    1.6080    0.0001 C   0  0  0  0  0  0  0  0  0  0  0  0
   -1.6396    0.7385    0.0000 C   0  0  0  0  0  0  0  0  0  0  0  0
    2.1182    1.1715   -0.0001 C   0  0  0  0  0  0  0  0  0  0  0  0
   -2.1749   -0.6909   -0.0001 C   0  0  0  0  0  0  0  0  0  0  0  0
    3.8601   -0.6316    0.0000 C   0  0  0  0  0  0  0  0  0  0  0  0
    1.6507   -2.2330   -0.0017 H   0  0  0  0  0  0  0  0  0  0  0  0
   -1.0527   -2.5090   -0.0001 H   0  0  0  0  0  0  0  0  0  0  0  0
    0.5480    2.6636   -0.0004 H   0  0  0  0  0  0  0  0  0  0  0  0
    2.9162    1.9106   -0.0020 H   0  0  0  0  0  0  0  0  0  0  0  0
    3.9789   -1.6259    0.4440 H   0  0  0  0  0  0  0  0  0  0  0  0
    4.2435   -0.6592   -1.0248 H   0  0  0  0  0  0  0  0  0  0  0  0
    4.4749    0.0576    0.5888 H   0  0  0  0  0  0  0  0  0  0  0  0
  1  9  2  0  0  0  0
  2 11  2  0  0  0  0
  3  4  1  0  0  0  0
  3 11  1  0  0  0  0
  3 14  1  0  0  0  0
  4  5  2  0  0  0  0
  4  6  1  0  0  0  0
  5  8  1  0  0  0  0
  5  9  1  0  0  0  0
  6  7  2  0  0  0  0
  6 13  1  0  0  0  0
  7 10  1  0  0  0  0
  7 12  1  0  0  0  0
  8 10  2  0  0  0  0
  8 15  1  0  0  0  0
  9 11  1  0  0  0  0
 10 16  1  0  0  0  0
 12 17  1  0  0  0  0
 12 18  1  0  0  0  0
 12 19  1  0  0  0  0
M  END
> <PUBCHEM_COMPOUND_CID>
14318

> <PUBCHEM_CONFORMER_RMSD>
0.4

> <PUBCHEM_CONFORMER_DIVERSEORDER>
1

> <PUBCHEM_MMFF94_PARTIAL_CHARGES>
16
1 -0.57
10 -0.15
11 0.63
12 0.14
13 0.15
14 0.37
15 0.15
16 0.15
2 -0.57
3 -0.55
4 0.12
5 0.09
6 -0.15
7 -0.14
8 -0.15
9 0.48

> <PUBCHEM_EFFECTIVE_ROTOR_COUNT>
0.2

> <PUBCHEM_PHARMACOPHORE_FEATURES>
5
1 1 acceptor
1 2 acceptor
1 3 donor
5 3 4 5 9 11 rings
6 4 5 6 7 8 10 rings

> <PUBCHEM_HEAVY_ATOM_COUNT>
12

> <PUBCHEM_ATOM_DEF_STEREO_COUNT>
0

> <PUBCHEM_ATOM_UDEF_STEREO_COUNT>
0

> <PUBCHEM_BOND_DEF_STEREO_COUNT>
0

> <PUBCHEM_BOND_UDEF_STEREO_COUNT>
0

> <PUBCHEM_ISOTOPIC_ATOM_COUNT>
0

> <PUBCHEM_COMPONENT_COUNT>
1

> <PUBCHEM_CACTVS_TAUTO_COUNT>
5

> <PUBCHEM_CONFORMER_ID>
000037EE00000001

> <PUBCHEM_MMFF94_ENERGY>
33.3372

> <PUBCHEM_FEATURE_SELFOVERLAP>
25.467

> <PUBCHEM_SHAPE_FINGERPRINT>
11206711 2 18413109467755556213
12032990 46 18409442600956753278
13380535 76 18265617757022797823
14144814 61 18411983576507297610
14325111 11 18410575093564451232
16945 1 18338798914104562534
17844478 74 18201710718095853883
193761 8 17473544651160098830
19973954 147 18411135801260152908
20201158 50 18410293609771134614
21040471 1 18410855490319728288
21501502 16 18411132515604961716
21501925 9 18339654364658718802
23402539 116 18334587832094558383
23402655 69 18120389885040189149
23463225 33 18341332283853795810
23552423 10 18272369728826782676
23559900 14 18263081175867544662
2748010 2 18337954596532710948
369184 2 14996282530652224782
5084963 1 18260828172270500330
528886 8 18338241590600542624
53812653 166 18335706104012791648
7364860 26 18190740830635916656
8809292 202 18201715094319992715

> <PUBCHEM_SHAPE_MULTIPOLES>
230.23
4.87
1.68
0.59
0.98
0.36
0
-0.95
0
-0.35
0
0.06
0.01
0

> <PUBCHEM_SHAPE_SELFOVERLAP>
507.213

> <PUBCHEM_SHAPE_VOLUME>
124.7

> <PUBCHEM_COORDINATE_TYPE>
2
5
10

$$$$

