119498
  -OEChem-07051213013D

 28 29  0     0  0  0  0  0  0999 V2000
    0.9962    0.8798    2.5132 Cl  0  0  0  0  0  0  0  0  0  0  0  0
    5.1532   -1.1650   -0.2231 Cl  0  0  0  0  0  0  0  0  0  0  0  0
   -0.4731   -1.7710    0.0601 O   0  0  0  0  0  0  0  0  0  0  0  0
   -0.4090    2.4958   -0.3392 O   0  0  0  0  0  0  0  0  0  0  0  0
   -2.8021   -1.4530    0.0609 N   0  0  0  0  0  0  0  0  0  0  0  0
   -3.5718   -0.3402   -0.0887 N   0  0  0  0  0  0  0  0  0  0  0  0
   -1.4674    0.4108   -0.1693 C   0  0  0  0  0  0  0  0  0  0  0  0
   -2.7645    0.7637   -0.1932 C   0  0  0  0  0  0  0  0  0  0  0  0
   -1.4737   -1.0769   -0.0035 C   0  0  0  0  0  0  0  0  0  0  0  0
   -0.2967    1.2672   -0.2514 C   0  0  0  0  0  0  0  0  0  0  0  0
    1.0660    0.6604   -0.2055 C   0  0  0  0  0  0  0  0  0  0  0  0
   -3.3702    2.1193   -0.2868 C   0  0  0  0  0  0  0  0  0  0  0  0
   -3.4014   -2.7517    0.1912 C   0  0  0  0  0  0  0  0  0  0  0  0
    1.7068    0.4582    0.9964 C   0  0  0  0  0  0  0  0  0  0  0  0
    1.6360    0.3221   -1.4147 C   0  0  0  0  0  0  0  0  0  0  0  0
    2.9804   -0.1105    0.9911 C   0  0  0  0  0  0  0  0  0  0  0  0
    2.9096   -0.2464   -1.4201 C   0  0  0  0  0  0  0  0  0  0  0  0
    3.5818   -0.4628   -0.2172 C   0  0  0  0  0  0  0  0  0  0  0  0
   -4.5352   -0.2966    0.2129 H   0  0  0  0  0  0  0  0  0  0  0  0
   -3.6502    2.4793    0.7082 H   0  0  0  0  0  0  0  0  0  0  0  0
   -4.2772    2.0870   -0.9010 H   0  0  0  0  0  0  0  0  0  0  0  0
   -2.7113    2.8553   -0.7516 H   0  0  0  0  0  0  0  0  0  0  0  0
   -2.6209   -3.5097    0.2968 H   0  0  0  0  0  0  0  0  0  0  0  0
   -3.9949   -2.9634   -0.7025 H   0  0  0  0  0  0  0  0  0  0  0  0
   -4.0449   -2.7631    1.0750 H   0  0  0  0  0  0  0  0  0  0  0  0
    1.1184    0.4880   -2.3548 H   0  0  0  0  0  0  0  0  0  0  0  0
    3.5062   -0.2803    1.9284 H   0  0  0  0  0  0  0  0  0  0  0  0
    3.3660   -0.5161   -2.3691 H   0  0  0  0  0  0  0  0  0  0  0  0
  1 14  1  0  0  0  0
  2 18  1  0  0  0  0
  3  9  2  0  0  0  0
  4 10  2  0  0  0  0
  5  6  1  0  0  0  0
  5  9  1  0  0  0  0
  5 13  1  0  0  0  0
  6  8  1  0  0  0  0
  6 19  1  0  0  0  0
  7  8  2  0  0  0  0
  7  9  1  0  0  0  0
  7 10  1  0  0  0  0
  8 12  1  0  0  0  0
 10 11  1  0  0  0  0
 11 14  2  0  0  0  0
 11 15  1  0  0  0  0
 12 20  1  0  0  0  0
 12 21  1  0  0  0  0
 12 22  1  0  0  0  0
 13 23  1  0  0  0  0
 13 24  1  0  0  0  0
 13 25  1  0  0  0  0
 14 16  1  0  0  0  0
 15 17  2  0  0  0  0
 15 26  1  0  0  0  0
 16 18  2  0  0  0  0
 16 27  1  0  0  0  0
 17 18  1  0  0  0  0
 17 28  1  0  0  0  0
M  END
> <PUBCHEM_COMPOUND_CID>
119498

> <PUBCHEM_CONFORMER_RMSD>
0.6

> <PUBCHEM_CONFORMER_DIVERSEORDER>
1
7
4
8
6
12
11
9
10
5
3
2

> <PUBCHEM_MMFF94_PARTIAL_CHARGES>
22
1 -0.18
10 0.47
11 0.09
12 0.14
13 0.3
14 0.18
15 -0.15
16 -0.15
17 -0.15
18 0.18
19 0.4
2 -0.18
26 0.15
27 0.15
28 0.15
3 -0.57
4 -0.57
5 -0.34
6 -0.52
7 0.03
8 -0.04
9 0.62

> <PUBCHEM_EFFECTIVE_ROTOR_COUNT>
2

> <PUBCHEM_PHARMACOPHORE_FEATURES>
6
1 3 acceptor
1 4 acceptor
1 6 donor
1 7 anion
5 5 6 7 8 9 rings
6 11 14 15 16 17 18 rings

> <PUBCHEM_HEAVY_ATOM_COUNT>
18

> <PUBCHEM_ATOM_DEF_STEREO_COUNT>
0

> <PUBCHEM_ATOM_UDEF_STEREO_COUNT>
0

> <PUBCHEM_BOND_DEF_STEREO_COUNT>
0

> <PUBCHEM_BOND_UDEF_STEREO_COUNT>
0

> <PUBCHEM_ISOTOPIC_ATOM_COUNT>
0

> <PUBCHEM_COMPONENT_COUNT>
1

> <PUBCHEM_CACTVS_TAUTO_COUNT>
7

> <PUBCHEM_CONFORMER_ID>
0001D2CA00000001

> <PUBCHEM_MMFF94_ENERGY>
57.3286

> <PUBCHEM_FEATURE_SELFOVERLAP>
30.446

> <PUBCHEM_SHAPE_FINGERPRINT>
10062212 137 18060422442797214547
10465860 250 17967818292699213506
11471102 22 16515402984618592876
11796584 16 18337109098552423078
12236239 1 17489303126755960796
12346177 29 18336274491695360359
124424 183 17677057935548830272
12500047 106 18338804536348751909
12633257 1 16733540507642887774
13134695 92 16660372480281207912
13140716 1 18409442566581418145
13288520 33 18411696612931706294
13296908 3 18337112271841612540
13538477 17 18059863890858610189
14115302 16 18341044211453994908
15219456 202 18040444256754907888
16752209 62 18201455648884313263
16945 1 18263633120927810885
17804303 29 18334856099978053867
19049666 15 17822852095012605617
19422 9 17846774096415047270
19862831 5 17275108305719968246
20279233 1 17821728368359156580
20600515 1 18261666077884168148
20645476 183 17489587887414301403
20681677 155 18201437029525865112
20871999 31 18343298150140002214
22112679 90 17631751450835469896
23175994 123 17312817199840936464
23184049 29 18268151942351658653
23402539 116 18338241573631832804
23493267 7 17702942668608054633
23526113 38 17604715619686466020
23557571 272 18334294283674387582
23559900 14 18335422426450931678
23598291 2 17704062976150759404
2748010 2 18264500507111803389
31174 14 17097493090295525035
3286 77 17385730140641707123
465052 167 17986088753107061411
474 4 16843870963926160220
5104073 3 18408324384951865976
53748568 43 17418379120521292337
568465 68 17530960272300107110
7364860 26 17904761085523447173
74978 22 18343024367666405685
77492 1 17489871548413282076
81228 2 16953070288140891768
8272917 22 15983988214483069121

> <PUBCHEM_SHAPE_MULTIPOLES>
352.47
7.46
2.2
1.38
3.42
0.54
-0.72
3.07
0.86
-2.69
-0.05
1.09
-0.44
0.68

> <PUBCHEM_SHAPE_SELFOVERLAP>
742.391

> <PUBCHEM_SHAPE_VOLUME>
201.7

> <PUBCHEM_COORDINATE_TYPE>
2
5
10

$$$$

