170
  -OEChem-07051212452D

 37 39  0     0  0  0  0  0  0999 V2000
    4.2690    1.0569    0.0000 O   0  0  0  0  0  0  0  0  0  0  0  0
   12.9914    1.1011    0.0000 O   0  0  0  0  0  0  0  0  0  0  0  0
   12.1196    2.5977    0.0000 O   0  0  0  0  0  0  0  0  0  0  0  0
    6.0290   -1.9778    0.0000 N   0  0  0  0  0  0  0  0  0  0  0  0
    6.0290    0.0916    0.0000 N   0  0  0  0  0  0  0  0  0  0  0  0
    8.6671   -0.4156    0.0000 N   0  0  0  0  0  0  0  0  0  0  0  0
    4.2690   -1.9431    0.0000 N   0  0  0  0  0  0  0  0  0  0  0  0
    3.4030   -0.4431    0.0000 N   0  0  0  0  0  0  0  0  0  0  0  0
    2.5369   -1.9431    0.0000 N   0  0  0  0  0  0  0  0  0  0  0  0
    6.9350   -0.4223    0.0000 C   0  0  0  0  0  0  0  0  0  0  0  0
    6.9350   -1.4639    0.0000 C   0  0  0  0  0  0  0  0  0  0  0  0
    7.7991    0.0810    0.0000 C   0  0  0  0  0  0  0  0  0  0  0  0
    5.1350   -1.4431    0.0000 C   0  0  0  0  0  0  0  0  0  0  0  0
    5.1350   -0.4431    0.0000 C   0  0  0  0  0  0  0  0  0  0  0  0
    9.5312    0.0877    0.0000 C   0  0  0  0  0  0  0  0  0  0  0  0
    4.2690    0.0569    0.0000 C   0  0  0  0  0  0  0  0  0  0  0  0
    3.4030   -1.4431    0.0000 C   0  0  0  0  0  0  0  0  0  0  0  0
   10.3991   -0.4089    0.0000 C   0  0  0  0  0  0  0  0  0  0  0  0
    9.5273    1.0877    0.0000 C   0  0  0  0  0  0  0  0  0  0  0  0
   11.2632    0.0944    0.0000 C   0  0  0  0  0  0  0  0  0  0  0  0
   10.3914    1.5910    0.0000 C   0  0  0  0  0  0  0  0  0  0  0  0
   11.2593    1.0944    0.0000 C   0  0  0  0  0  0  0  0  0  0  0  0
   12.1234    1.5977    0.0000 C   0  0  0  0  0  0  0  0  0  0  0  0
    7.1441   -2.0476    0.0000 H   0  0  0  0  0  0  0  0  0  0  0  0
    7.5459   -1.3578    0.0000 H   0  0  0  0  0  0  0  0  0  0  0  0
    8.1958    0.5575    0.0000 H   0  0  0  0  0  0  0  0  0  0  0  0
    7.3988    0.5545    0.0000 H   0  0  0  0  0  0  0  0  0  0  0  0
    6.0218   -2.5977    0.0000 H   0  0  0  0  0  0  0  0  0  0  0  0
    8.6694   -1.0356    0.0000 H   0  0  0  0  0  0  0  0  0  0  0  0
    4.2690   -2.5631    0.0000 H   0  0  0  0  0  0  0  0  0  0  0  0
   10.4015   -1.0289    0.0000 H   0  0  0  0  0  0  0  0  0  0  0  0
    8.9892    1.3956    0.0000 H   0  0  0  0  0  0  0  0  0  0  0  0
   11.8013   -0.2135    0.0000 H   0  0  0  0  0  0  0  0  0  0  0  0
   10.3890    2.2110    0.0000 H   0  0  0  0  0  0  0  0  0  0  0  0
    2.0000   -1.6331    0.0000 H   0  0  0  0  0  0  0  0  0  0  0  0
    2.5369   -2.5631    0.0000 H   0  0  0  0  0  0  0  0  0  0  0  0
   13.5271    1.4131    0.0000 H   0  0  0  0  0  0  0  0  0  0  0  0
  1 16  2  0  0  0  0
  2 23  1  0  0  0  0
  2 37  1  0  0  0  0
  3 23  2  0  0  0  0
  4 11  1  0  0  0  0
  4 13  1  0  0  0  0
  4 28  1  0  0  0  0
  5 10  2  0  0  0  0
  5 14  1  0  0  0  0
  6 12  1  0  0  0  0
  6 15  1  0  0  0  0
  6 29  1  0  0  0  0
  7 13  1  0  0  0  0
  7 17  1  0  0  0  0
  7 30  1  0  0  0  0
  8 16  1  0  0  0  0
  8 17  2  0  0  0  0
  9 17  1  0  0  0  0
  9 35  1  0  0  0  0
  9 36  1  0  0  0  0
 10 11  1  0  0  0  0
 10 12  1  0  0  0  0
 11 24  1  0  0  0  0
 11 25  1  0  0  0  0
 12 26  1  0  0  0  0
 12 27  1  0  0  0  0
 13 14  2  0  0  0  0
 14 16  1  0  0  0  0
 15 18  2  0  0  0  0
 15 19  1  0  0  0  0
 18 20  1  0  0  0  0
 18 31  1  0  0  0  0
 19 21  2  0  0  0  0
 19 32  1  0  0  0  0
 20 22  2  0  0  0  0
 20 33  1  0  0  0  0
 21 22  1  0  0  0  0
 21 34  1  0  0  0  0
 22 23  1  0  0  0  0
M  END
> <PUBCHEM_COMPOUND_CID>
170

> <PUBCHEM_COMPOUND_CANONICALIZED>
1

> <PUBCHEM_CACTVS_COMPLEXITY>
616

> <PUBCHEM_CACTVS_HBOND_ACCEPTOR>
6

> <PUBCHEM_CACTVS_HBOND_DONOR>
5

> <PUBCHEM_CACTVS_ROTATABLE_BOND>
4

> <PUBCHEM_CACTVS_SUBSKEYS>
AAADccBzsAAAAAAAAAAAAAAAAAAAAAAAAAAwQIAAAAAAAACBAAAAHgAQCAAADAjBmAQxyILAAgCoAyXyfACCAAElAgAJiIGYbMiIZjLA1ZGEcQhs0API2ceY2SOeCAAAAAAAAAAQAAAAAAAAAAAAAAAAAA==

> <PUBCHEM_IUPAC_OPENEYE_NAME>
4-[(2-amino-4-oxo-7,8-dihydro-1H-pteridin-6-yl)methylamino]benzoic acid

> <PUBCHEM_IUPAC_CAS_NAME>
4-[(2-amino-4-oxo-7,8-dihydro-1H-pteridin-6-yl)methylamino]benzoic acid

> <PUBCHEM_IUPAC_NAME>
4-[(2-amino-4-oxo-7,8-dihydro-1H-pteridin-6-yl)methylamino]benzoic acid

> <PUBCHEM_IUPAC_SYSTEMATIC_NAME>
4-[(2-azanyl-4-oxidanylidene-7,8-dihydro-1H-pteridin-6-yl)methylamino]benzoic acid

> <PUBCHEM_IUPAC_TRADITIONAL_NAME>
4-[(2-amino-4-keto-7,8-dihydro-1H-pteridin-6-yl)methylamino]benzoic acid

> <PUBCHEM_IUPAC_INCHI>
InChI=1S/C14H14N6O3/c15-14-19-11-10(12(21)20-14)18-9(6-17-11)5-16-8-3-1-7(2-4-8)13(22)23/h1-4,16H,5-6H2,(H,22,23)(H4,15,17,19,20,21)

> <PUBCHEM_IUPAC_INCHIKEY>
WBFYVDCHGVNRBH-UHFFFAOYSA-N

> <PUBCHEM_XLOGP3_AA>
-0.1

> <PUBCHEM_EXACT_MASS>
314.112738

> <PUBCHEM_MOLECULAR_FORMULA>
C14H14N6O3

> <PUBCHEM_MOLECULAR_WEIGHT>
314.29936

> <PUBCHEM_OPENEYE_CAN_SMILES>
C1C(=NC2=C(N1)NC(=NC2=O)N)CNC3=CC=C(C=C3)C(=O)O

> <PUBCHEM_OPENEYE_ISO_SMILES>
C1C(=NC2=C(N1)NC(=NC2=O)N)CNC3=CC=C(C=C3)C(=O)O

> <PUBCHEM_CACTVS_TPSA>
141

> <PUBCHEM_MONOISOTOPIC_WEIGHT>
314.112738

> <PUBCHEM_TOTAL_CHARGE>
0

> <PUBCHEM_HEAVY_ATOM_COUNT>
23

> <PUBCHEM_ATOM_DEF_STEREO_COUNT>
0

> <PUBCHEM_ATOM_UDEF_STEREO_COUNT>
0

> <PUBCHEM_BOND_DEF_STEREO_COUNT>
0

> <PUBCHEM_BOND_UDEF_STEREO_COUNT>
0

> <PUBCHEM_ISOTOPIC_ATOM_COUNT>
0

> <PUBCHEM_COMPONENT_COUNT>
1

> <PUBCHEM_CACTVS_TAUTO_COUNT>
501

> <PUBCHEM_COORDINATE_TYPE>
1
5
255

> <PUBCHEM_BONDANNOTATIONS>
13  14  8
14  16  8
15  18  8
15  19  8
18  20  8
19  21  8
20  22  8
21  22  8
7  13  8
7  17  8
8  16  8
8  17  8

$$$$

