44187
  -OEChem-07051212522D

 71 75  0     1  0  0  0  0  0999 V2000
    7.0468    1.3942    0.0000 S   0  0  0  0  0  0  0  0  0  0  0  0
    4.4487    2.8942    0.0000 S   0  0  0  0  0  0  0  0  0  0  0  0
    9.6267    3.6070    0.0000 O   0  0  0  0  0  0  0  0  0  0  0  0
   10.8540    2.4038    0.0000 O   0  0  0  0  0  0  0  0  0  0  0  0
    6.1808    4.8943    0.0000 O   0  0  0  0  0  0  0  0  0  0  0  0
    7.9128    4.8943    0.0000 O   0  0  0  0  0  0  0  0  0  0  0  0
   12.7101   -0.6873    0.0000 O   0  0  0  0  0  0  0  0  0  0  0  0
    9.8108   -1.4578    0.0000 O   0  0  0  0  0  0  0  0  0  0  0  0
    9.2892   -3.3886    0.0000 O   0  0  0  0  0  0  0  0  0  0  0  0
   15.1647    1.7572    0.0000 O   0  0  0  0  0  0  0  0  0  0  0  0
    7.9128    2.8942    0.0000 N   0  0  0  0  0  0  0  0  0  0  0  0
    9.6267    1.1816    0.0000 N   0  0  0  0  0  0  0  0  0  0  0  0
   11.0380   -0.2356    0.0000 N   0  0  0  0  0  0  0  0  0  0  0  0
   11.4829   -1.9095    0.0000 N   0  0  0  0  0  0  0  0  0  0  0  0
   10.9613   -3.8403    0.0000 N   0  0  0  0  0  0  0  0  0  0  0  0
    2.6691    2.9875    0.0000 N   0  0  0  0  0  0  0  0  0  0  0  0
    3.4782    4.3888    0.0000 N   0  0  0  0  0  0  0  0  0  0  0  0
    2.0000    3.7307    0.0000 N   0  0  0  0  0  0  0  0  0  0  0  0
    2.5000    4.5967    0.0000 N   0  0  0  0  0  0  0  0  0  0  0  0
    7.9128    1.8942    0.0000 C   0  0  1  0  0  0  0  0  0  0  0  0
    8.9211    1.8901    0.0000 C   0  0  1  0  0  0  0  0  0  0  0  0
    8.9211    2.8984    0.0000 C   0  0  0  0  0  0  0  0  0  0  0  0
    7.0468    3.3942    0.0000 C   0  0  0  0  0  0  0  0  0  0  0  0
    6.1808    2.8942    0.0000 C   0  0  0  0  0  0  0  0  0  0  0  0
    6.1808    1.8942    0.0000 C   0  0  0  0  0  0  0  0  0  0  0  0
   10.5932    1.4384    0.0000 C   0  0  0  0  0  0  0  0  0  0  0  0
    5.3147    3.3942    0.0000 C   0  0  0  0  0  0  0  0  0  0  0  0
   11.2988    0.7298    0.0000 C   0  0  1  0  0  0  0  0  0  0  0  0
    7.0468    4.3943    0.0000 C   0  0  0  0  0  0  0  0  0  0  0  0
   12.2653    0.9867    0.0000 C   0  0  0  0  0  0  0  0  0  0  0  0
   11.7437   -0.9441    0.0000 C   0  0  0  0  0  0  0  0  0  0  0  0
   12.1885   -2.6181    0.0000 C   0  0  0  0  0  0  0  0  0  0  0  0
   11.9277   -3.5835    0.0000 C   0  0  0  0  0  0  0  0  0  0  0  0
   12.9710    0.2781    0.0000 C   0  0  0  0  0  0  0  0  0  0  0  0
   12.5261    1.9520    0.0000 C   0  0  0  0  0  0  0  0  0  0  0  0
   10.5164   -2.1664    0.0000 C   0  0  0  0  0  0  0  0  0  0  0  0
   10.2556   -3.1317    0.0000 C   0  0  0  0  0  0  0  0  0  0  0  0
    3.5827    3.3942    0.0000 C   0  0  0  0  0  0  0  0  0  0  0  0
   10.7005   -4.8057    0.0000 C   0  0  0  0  0  0  0  0  0  0  0  0
   13.9374    0.5349    0.0000 C   0  0  0  0  0  0  0  0  0  0  0  0
   13.4926    2.2089    0.0000 C   0  0  0  0  0  0  0  0  0  0  0  0
   14.1982    1.5003    0.0000 C   0  0  0  0  0  0  0  0  0  0  0  0
   11.4061   -5.5142    0.0000 C   0  0  0  0  0  0  0  0  0  0  0  0
    2.4612    2.0094    0.0000 C   0  0  0  0  0  0  0  0  0  0  0  0
    8.1311    1.0728    0.0000 H   0  0  0  0  0  0  0  0  0  0  0  0
    8.6821    1.3180    0.0000 H   0  0  0  0  0  0  0  0  0  0  0  0
    9.4650    0.5830    0.0000 H   0  0  0  0  0  0  0  0  0  0  0  0
    5.5702    2.0019    0.0000 H   0  0  0  0  0  0  0  0  0  0  0  0
    5.9687    1.3116    0.0000 H   0  0  0  0  0  0  0  0  0  0  0  0
    5.7133    3.8692    0.0000 H   0  0  0  0  0  0  0  0  0  0  0  0
    4.9162    3.8692    0.0000 H   0  0  0  0  0  0  0  0  0  0  0  0
   11.7363    0.2905    0.0000 H   0  0  0  0  0  0  0  0  0  0  0  0
   10.4388   -0.3948    0.0000 H   0  0  0  0  0  0  0  0  0  0  0  0
   12.7499   -2.8812    0.0000 H   0  0  0  0  0  0  0  0  0  0  0  0
   12.5452   -2.1109    0.0000 H   0  0  0  0  0  0  0  0  0  0  0  0
   11.9805   -4.2012    0.0000 H   0  0  0  0  0  0  0  0  0  0  0  0
   12.5453   -3.6388    0.0000 H   0  0  0  0  0  0  0  0  0  0  0  0
    6.1808    5.5142    0.0000 H   0  0  0  0  0  0  0  0  0  0  0  0
   12.8093   -0.3204    0.0000 H   0  0  0  0  0  0  0  0  0  0  0  0
   12.0886    2.3914    0.0000 H   0  0  0  0  0  0  0  0  0  0  0  0
   10.1391   -4.5425    0.0000 H   0  0  0  0  0  0  0  0  0  0  0  0
   10.3438   -5.3128    0.0000 H   0  0  0  0  0  0  0  0  0  0  0  0
   14.3749    0.0956    0.0000 H   0  0  0  0  0  0  0  0  0  0  0  0
   13.6543    2.8074    0.0000 H   0  0  0  0  0  0  0  0  0  0  0  0
   10.9668   -5.9518    0.0000 H   0  0  0  0  0  0  0  0  0  0  0  0
   11.8436   -5.9536    0.0000 H   0  0  0  0  0  0  0  0  0  0  0  0
   11.8454   -5.0768    0.0000 H   0  0  0  0  0  0  0  0  0  0  0  0
    1.8548    2.1383    0.0000 H   0  0  0  0  0  0  0  0  0  0  0  0
    2.3323    1.4029    0.0000 H   0  0  0  0  0  0  0  0  0  0  0  0
    3.0677    1.8805    0.0000 H   0  0  0  0  0  0  0  0  0  0  0  0
   15.3264    2.3557    0.0000 H   0  0  0  0  0  0  0  0  0  0  0  0
  1 20  1  0  0  0  0
  1 25  1  0  0  0  0
  2 27  1  0  0  0  0
  2 38  1  0  0  0  0
  3 22  2  0  0  0  0
  4 26  2  0  0  0  0
  5 29  1  0  0  0  0
  5 58  1  0  0  0  0
  6 29  2  0  0  0  0
  7 31  2  0  0  0  0
  8 36  2  0  0  0  0
  9 37  2  0  0  0  0
 10 42  1  0  0  0  0
 10 71  1  0  0  0  0
 11 20  1  0  0  0  0
 11 22  1  0  0  0  0
 11 23  1  0  0  0  0
 21 12  1  1  0  0  0
 12 26  1  0  0  0  0
 12 47  1  0  0  0  0
 28 13  1  1  0  0  0
 13 31  1  0  0  0  0
 13 53  1  0  0  0  0
 14 31  1  0  0  0  0
 14 32  1  0  0  0  0
 14 36  1  0  0  0  0
 15 33  1  0  0  0  0
 15 37  1  0  0  0  0
 15 39  1  0  0  0  0
 16 18  1  0  0  0  0
 16 38  1  0  0  0  0
 16 44  1  0  0  0  0
 17 19  1  0  0  0  0
 17 38  2  0  0  0  0
 18 19  2  0  0  0  0
 20 21  1  0  0  0  0
 20 45  1  6  0  0  0
 21 22  1  0  0  0  0
 21 46  1  0  0  0  0
 23 24  2  0  0  0  0
 23 29  1  0  0  0  0
 24 25  1  0  0  0  0
 24 27  1  0  0  0  0
 25 48  1  0  0  0  0
 25 49  1  0  0  0  0
 26 28  1  0  0  0  0
 27 50  1  0  0  0  0
 27 51  1  0  0  0  0
 28 30  1  0  0  0  0
 28 52  1  0  0  0  0
 30 34  2  0  0  0  0
 30 35  1  0  0  0  0
 32 33  1  0  0  0  0
 32 54  1  0  0  0  0
 32 55  1  0  0  0  0
 33 56  1  0  0  0  0
 33 57  1  0  0  0  0
 34 40  1  0  0  0  0
 34 59  1  0  0  0  0
 35 41  2  0  0  0  0
 35 60  1  0  0  0  0
 36 37  1  0  0  0  0
 39 43  1  0  0  0  0
 39 61  1  0  0  0  0
 39 62  1  0  0  0  0
 40 42  2  0  0  0  0
 40 63  1  0  0  0  0
 41 42  1  0  0  0  0
 41 64  1  0  0  0  0
 43 65  1  0  0  0  0
 43 66  1  0  0  0  0
 43 67  1  0  0  0  0
 44 68  1  0  0  0  0
 44 69  1  0  0  0  0
 44 70  1  0  0  0  0
M  END
> <PUBCHEM_COMPOUND_CID>
44187

> <PUBCHEM_COMPOUND_CANONICALIZED>
1

> <PUBCHEM_CACTVS_COMPLEXITY>
1250

> <PUBCHEM_CACTVS_HBOND_ACCEPTOR>
13

> <PUBCHEM_CACTVS_HBOND_DONOR>
4

> <PUBCHEM_CACTVS_ROTATABLE_BOND>
9

> <PUBCHEM_CACTVS_SUBSKEYS>
AAADceB7/ABgAAAAAAAAAAAAAABYAWAAAAA8QIAAAAAQAAABwAAAHgQYCAAADCzF2ASzHofIAgiqAiXSfACCEANgoJANyIGODMiKZjqilTOUcAhs1zO4mQeY2IOOIAAAAAAAAABAAAAAAAAAAAAAAAAAAA==

> <PUBCHEM_IUPAC_OPENEYE_NAME>
(6R,7R)-7-[[(2R)-2-[(4-ethyl-2,3-dioxo-piperazine-1-carbonyl)amino]-2-(4-hydroxyphenyl)acetyl]amino]-3-[(1-methyltetrazol-5-yl)sulfanylmethyl]-8-oxo-5-thia-1-azabicyclo[4.2.0]oct-2-ene-2-carboxylic acid

> <PUBCHEM_IUPAC_CAS_NAME>
(6R,7R)-7-[[(2R)-2-[[(4-ethyl-2,3-dioxo-1-piperazinyl)-oxomethyl]amino]-2-(4-hydroxyphenyl)-1-oxoethyl]amino]-3-[[(1-methyl-5-tetrazolyl)thio]methyl]-8-oxo-5-thia-1-azabicyclo[4.2.0]oct-2-ene-2-carboxylic acid

> <PUBCHEM_IUPAC_NAME>
(6R,7R)-7-[[(2R)-2-[(4-ethyl-2,3-dioxopiperazine-1-carbonyl)amino]-2-(4-hydroxyphenyl)acetyl]amino]-3-[(1-methyltetrazol-5-yl)sulfanylmethyl]-8-oxo-5-thia-1-azabicyclo[4.2.0]oct-2-ene-2-carboxylic acid

> <PUBCHEM_IUPAC_SYSTEMATIC_NAME>
(6R,7R)-7-[[(2R)-2-[[4-ethyl-2,3-bis(oxidanylidene)piperazin-1-yl]carbonylamino]-2-(4-hydroxyphenyl)ethanoyl]amino]-3-[(1-methyl-1,2,3,4-tetrazol-5-yl)sulfanylmethyl]-8-oxidanylidene-5-thia-1-azabicyclo[4.2.0]oct-2-ene-2-carboxylic acid

> <PUBCHEM_IUPAC_TRADITIONAL_NAME>
(6R,7R)-7-[[(2R)-2-[(4-ethyl-2,3-diketo-piperazine-1-carbonyl)amino]-2-(4-hydroxyphenyl)acetyl]amino]-8-keto-3-[[(1-methyltetrazol-5-yl)thio]methyl]-5-thia-1-azabicyclo[4.2.0]oct-2-ene-2-carboxylic acid

> <PUBCHEM_IUPAC_INCHI>
InChI=1S/C25H27N9O8S2/c1-3-32-8-9-33(21(39)20(32)38)24(42)27-15(12-4-6-14(35)7-5-12)18(36)26-16-19(37)34-17(23(40)41)13(10-43-22(16)34)11-44-25-28-29-30-31(25)2/h4-7,15-16,22,35H,3,8-11H2,1-2H3,(H,26,36)(H,27,42)(H,40,41)/t15-,16-,22-/m1/s1

> <PUBCHEM_IUPAC_INCHIKEY>
GCFBRXLSHGKWDP-XCGNWRKASA-N

> <PUBCHEM_XLOGP3>
-0.7

> <PUBCHEM_EXACT_MASS>
645.142401

> <PUBCHEM_MOLECULAR_FORMULA>
C25H27N9O8S2

> <PUBCHEM_MOLECULAR_WEIGHT>
645.66738

> <PUBCHEM_OPENEYE_CAN_SMILES>
CCN1CCN(C(=O)C1=O)C(=O)NC(C2=CC=C(C=C2)O)C(=O)NC3C4N(C3=O)C(=C(CS4)CSC5=NN=NN5C)C(=O)O

> <PUBCHEM_OPENEYE_ISO_SMILES>
CCN1CCN(C(=O)C1=O)C(=O)N[C@H](C2=CC=C(C=C2)O)C(=O)N[C@H]3[C@@H]4N(C3=O)C(=C(CS4)CSC5=NN=NN5C)C(=O)O

> <PUBCHEM_CACTVS_TPSA>
271

> <PUBCHEM_MONOISOTOPIC_WEIGHT>
645.142401

> <PUBCHEM_TOTAL_CHARGE>
0

> <PUBCHEM_HEAVY_ATOM_COUNT>
44

> <PUBCHEM_ATOM_DEF_STEREO_COUNT>
3

> <PUBCHEM_ATOM_UDEF_STEREO_COUNT>
0

> <PUBCHEM_BOND_DEF_STEREO_COUNT>
0

> <PUBCHEM_BOND_UDEF_STEREO_COUNT>
0

> <PUBCHEM_ISOTOPIC_ATOM_COUNT>
0

> <PUBCHEM_COMPONENT_COUNT>
1

> <PUBCHEM_CACTVS_TAUTO_COUNT>
16

> <PUBCHEM_COORDINATE_TYPE>
1
5
255

> <PUBCHEM_BONDANNOTATIONS>
21  12  5
28  13  5
16  18  8
16  38  8
17  19  8
17  38  8
18  19  8
20  45  6
30  34  8
30  35  8
34  40  8
35  41  8
40  42  8
41  42  8

$$$$

