441539
  -OEChem-07051212552D

101114  0     1  0  0  0  0  0999 V2000
    7.1060   -2.0836    0.0000 O   0  0  0  0  0  0  0  0  0  0  0  0
    9.0020    0.6680    0.0000 O   0  0  0  0  0  0  0  0  0  0  0  0
    4.1514   -2.1601    0.0000 O   0  0  0  0  0  0  0  0  0  0  0  0
   11.0001   -1.7096    0.0000 O   0  0  0  0  0  0  0  0  0  0  0  0
    7.0432    4.1169    0.0000 O   0  0  0  0  0  0  0  0  0  0  0  0
    5.3111    4.1236    0.0000 O   0  0  0  0  0  0  0  0  0  0  0  0
    8.8381   -2.0836    0.0000 N   0  0  3  0  0  0  0  0  0  0  0  0
    6.1960   -0.5768    0.0000 N   0  0  3  0  0  0  0  0  0  0  0  0
    6.8466   -4.5926    0.0000 N   0  0  3  0  0  0  0  0  0  0  0  0
    4.2026    2.4005    0.0000 N   0  0  0  0  0  0  0  0  0  0  0  0
    7.9721   -2.5836    0.0000 C   0  0  1  0  0  0  0  0  0  0  0  0
    8.1813   -3.5554    0.0000 C   0  0  2  0  0  0  0  0  0  0  0  0
    7.9721   -0.5836    0.0000 C   0  0  1  0  0  0  0  0  0  0  0  0
    7.5721   -1.9836    0.0000 C   0  0  2  0  0  0  0  0  0  0  0  0
    7.2026   -3.4152    0.0000 C   0  0  2  0  0  0  0  0  0  0  0  0
    6.4080   -2.5418    0.0000 C   0  0  2  0  0  0  0  0  0  0  0  0
    7.1060   -1.0836    0.0000 C   0  0  1  0  0  0  0  0  0  0  0  0
    7.5721   -1.1836    0.0000 C   0  0  0  0  0  0  0  0  0  0  0  0
    7.9881    0.4579    0.0000 C   0  0  1  0  0  0  0  0  0  0  0  0
    7.0901    0.9856    0.0000 C   0  0  1  0  0  0  0  0  0  0  0  0
    6.5969   -1.8208    0.0000 C   0  0  0  0  0  0  0  0  0  0  0  0
    8.8381   -1.0836    0.0000 C   0  0  0  0  0  0  0  0  0  0  0  0
    6.1880    0.4648    0.0000 C   0  0  1  0  0  0  0  0  0  0  0  0
    8.4801   -4.5057    0.0000 C   0  0  0  0  0  0  0  0  0  0  0  0
    9.1700   -3.6585    0.0000 C   0  0  0  0  0  0  0  0  0  0  0  0
    5.2023   -2.7851    0.0000 C   0  0  2  0  0  0  0  0  0  0  0  0
    5.2401    0.9928    0.0000 C   0  0  2  0  0  0  0  0  0  0  0  0
    9.5751   -2.7507    0.0000 C   0  0  0  0  0  0  0  0  0  0  0  0
    7.6936   -5.1169    0.0000 C   0  0  0  0  0  0  0  0  0  0  0  0
    5.9193   -1.4210    0.0000 C   0  0  0  0  0  0  0  0  0  0  0  0
    7.7908    1.7480    0.0000 C   0  0  0  0  0  0  0  0  0  0  0  0
    7.1068    2.0705    0.0000 C   0  0  0  0  0  0  0  0  0  0  0  0
    5.1703   -0.7330    0.0000 C   0  0  0  0  0  0  0  0  0  0  0  0
    4.6306    0.1531    0.0000 C   0  0  0  0  0  0  0  0  0  0  0  0
    5.6469   -4.8637    0.0000 C   0  0  0  0  0  0  0  0  0  0  0  0
    4.8192   -3.9539    0.0000 C   0  0  0  0  0  0  0  0  0  0  0  0
    5.2318    2.0777    0.0000 C   0  0  0  0  0  0  0  0  0  0  0  0
    8.9252    1.5079    0.0000 C   0  0  0  0  0  0  0  0  0  0  0  0
    4.5605   -1.2522    0.0000 C   0  0  0  0  0  0  0  0  0  0  0  0
    6.1714    2.6202    0.0000 C   0  0  0  0  0  0  0  0  0  0  0  0
    4.2160    0.6542    0.0000 C   0  0  0  0  0  0  0  0  0  0  0  0
    9.7649   -4.5060    0.0000 C   0  0  0  0  0  0  0  0  0  0  0  0
   10.6032   -2.6275    0.0000 C   0  0  0  0  0  0  0  0  0  0  0  0
    3.5761    1.5225    0.0000 C   0  0  0  0  0  0  0  0  0  0  0  0
   10.7956   -4.4066    0.0000 C   0  0  0  0  0  0  0  0  0  0  0  0
   11.2176   -3.4610    0.0000 C   0  0  0  0  0  0  0  0  0  0  0  0
    3.7821   -0.3820    0.0000 C   0  0  0  0  0  0  0  0  0  0  0  0
    6.1752    3.6202    0.0000 C   0  0  0  0  0  0  0  0  0  0  0  0
    2.4578    1.4146    0.0000 C   0  0  0  0  0  0  0  0  0  0  0  0
    2.6666   -0.5157    0.0000 C   0  0  0  0  0  0  0  0  0  0  0  0
    2.0000    0.3887    0.0000 C   0  0  0  0  0  0  0  0  0  0  0  0
   11.9935   -1.5945    0.0000 C   0  0  0  0  0  0  0  0  0  0  0  0
    7.0470    5.1169    0.0000 C   0  0  0  0  0  0  0  0  0  0  0  0
    7.3521   -2.8046    0.0000 H   0  0  0  0  0  0  0  0  0  0  0  0
    6.3612   -3.2947    0.0000 H   0  0  0  0  0  0  0  0  0  0  0  0
    6.2560   -1.0836    0.0000 H   0  0  0  0  0  0  0  0  0  0  0  0
    7.1943   -0.6920    0.0000 H   0  0  0  0  0  0  0  0  0  0  0  0
    8.1655   -1.3633    0.0000 H   0  0  0  0  0  0  0  0  0  0  0  0
    8.6432   -0.0838    0.0000 H   0  0  0  0  0  0  0  0  0  0  0  0
    6.7174   -1.2127    0.0000 H   0  0  0  0  0  0  0  0  0  0  0  0
    5.9926   -1.6819    0.0000 H   0  0  0  0  0  0  0  0  0  0  0  0
    9.4487   -1.1913    0.0000 H   0  0  0  0  0  0  0  0  0  0  0  0
    9.0501   -0.5010    0.0000 H   0  0  0  0  0  0  0  0  0  0  0  0
    6.1814    1.3148    0.0000 H   0  0  0  0  0  0  0  0  0  0  0  0
    8.7999   -5.0368    0.0000 H   0  0  0  0  0  0  0  0  0  0  0  0
    9.0454   -4.2510    0.0000 H   0  0  0  0  0  0  0  0  0  0  0  0
    4.4064   -3.0836    0.0000 H   0  0  0  0  0  0  0  0  0  0  0  0
    7.3071   -5.6017    0.0000 H   0  0  0  0  0  0  0  0  0  0  0  0
    8.1293   -5.5580    0.0000 H   0  0  0  0  0  0  0  0  0  0  0  0
    6.5225   -1.2779    0.0000 H   0  0  0  0  0  0  0  0  0  0  0  0
    5.8854   -0.8019    0.0000 H   0  0  0  0  0  0  0  0  0  0  0  0
    8.0247    2.3222    0.0000 H   0  0  0  0  0  0  0  0  0  0  0  0
    7.2672    2.0800    0.0000 H   0  0  0  0  0  0  0  0  0  0  0  0
    7.7160    1.9550    0.0000 H   0  0  0  0  0  0  0  0  0  0  0  0
    7.3248    2.6509    0.0000 H   0  0  0  0  0  0  0  0  0  0  0  0
    4.6030   -0.9830    0.0000 H   0  0  0  0  0  0  0  0  0  0  0  0
    5.3435   -1.3283    0.0000 H   0  0  0  0  0  0  0  0  0  0  0  0
    4.1812    0.5802    0.0000 H   0  0  0  0  0  0  0  0  0  0  0  0
    4.1482   -0.2362    0.0000 H   0  0  0  0  0  0  0  0  0  0  0  0
    5.1236   -5.1963    0.0000 H   0  0  0  0  0  0  0  0  0  0  0  0
    5.8850   -5.4362    0.0000 H   0  0  0  0  0  0  0  0  0  0  0  0
    4.2718   -3.6628    0.0000 H   0  0  0  0  0  0  0  0  0  0  0  0
    4.4387   -4.4434    0.0000 H   0  0  0  0  0  0  0  0  0  0  0  0
    9.5452    1.5025    0.0000 H   0  0  0  0  0  0  0  0  0  0  0  0
    8.9925    2.1242    0.0000 H   0  0  0  0  0  0  0  0  0  0  0  0
    4.6980   -0.6476    0.0000 H   0  0  0  0  0  0  0  0  0  0  0  0
    3.9727   -1.0552    0.0000 H   0  0  0  0  0  0  0  0  0  0  0  0
    9.5057   -5.0692    0.0000 H   0  0  0  0  0  0  0  0  0  0  0  0
    4.0054    2.9883    0.0000 H   0  0  0  0  0  0  0  0  0  0  0  0
   11.1576   -4.9099    0.0000 H   0  0  0  0  0  0  0  0  0  0  0  0
   11.8340   -3.3944    0.0000 H   0  0  0  0  0  0  0  0  0  0  0  0
    4.1556   -0.8768    0.0000 H   0  0  0  0  0  0  0  0  0  0  0  0
    2.0958    1.9179    0.0000 H   0  0  0  0  0  0  0  0  0  0  0  0
    2.4205   -1.0848    0.0000 H   0  0  0  0  0  0  0  0  0  0  0  0
    1.3836    0.3220    0.0000 H   0  0  0  0  0  0  0  0  0  0  0  0
   12.0649   -2.2104    0.0000 H   0  0  0  0  0  0  0  0  0  0  0  0
   12.6094   -1.5231    0.0000 H   0  0  0  0  0  0  0  0  0  0  0  0
   11.9221   -0.9786    0.0000 H   0  0  0  0  0  0  0  0  0  0  0  0
    7.6670    5.1145    0.0000 H   0  0  0  0  0  0  0  0  0  0  0  0
    7.0494    5.7369    0.0000 H   0  0  0  0  0  0  0  0  0  0  0  0
    6.4271    5.1193    0.0000 H   0  0  0  0  0  0  0  0  0  0  0  0
 11  1  1  1  0  0  0
  1 17  1  0  0  0  0
  2 19  1  0  0  0  0
  2 38  1  0  0  0  0
  3 26  1  0  0  0  0
  3 39  1  0  0  0  0
  4 43  1  0  0  0  0
  4 52  1  0  0  0  0
  5 48  1  0  0  0  0
  5 53  1  0  0  0  0
  6 48  2  0  0  0  0
  7 11  1  0  0  0  0
  7 22  1  0  0  0  0
  7 28  1  0  0  0  0
  8 17  1  0  0  0  0
  8 23  1  0  0  0  0
  8 33  1  0  0  0  0
  9 15  1  0  0  0  0
  9 29  1  0  0  0  0
  9 35  1  0  0  0  0
 10 37  1  0  0  0  0
 10 44  1  0  0  0  0
 10 89  1  0  0  0  0
 11 12  1  0  0  0  0
 11 14  1  0  0  0  0
 12 15  1  0  0  0  0
 12 24  1  1  0  0  0
 12 25  1  0  0  0  0
 13 17  1  0  0  0  0
 13 18  1  6  0  0  0
 13 19  1  0  0  0  0
 13 22  1  0  0  0  0
 14 18  1  0  0  0  0
 14 21  1  0  0  0  0
 14 54  1  6  0  0  0
 15 16  1  0  0  0  0
 15 55  1  6  0  0  0
 16 21  1  1  0  0  0
 16 26  1  0  0  0  0
 16 30  1  0  0  0  0
 17 56  1  6  0  0  0
 18 57  1  0  0  0  0
 18 58  1  0  0  0  0
 19 20  1  0  0  0  0
 19 59  1  6  0  0  0
 20 23  1  0  0  0  0
 20 31  1  1  0  0  0
 20 32  1  0  0  0  0
 21 60  1  0  0  0  0
 21 61  1  0  0  0  0
 22 62  1  0  0  0  0
 22 63  1  0  0  0  0
 23 27  1  0  0  0  0
 23 64  1  1  0  0  0
 24 29  1  0  0  0  0
 24 65  1  0  0  0  0
 24 66  1  0  0  0  0
 25 28  2  0  0  0  0
 25 42  1  0  0  0  0
 26 36  1  0  0  0  0
 26 67  1  1  0  0  0
 27 34  1  6  0  0  0
 27 37  1  0  0  0  0
 27 41  1  0  0  0  0
 28 43  1  0  0  0  0
 29 68  1  0  0  0  0
 29 69  1  0  0  0  0
 30 39  1  0  0  0  0
 30 70  1  0  0  0  0
 30 71  1  0  0  0  0
 31 38  1  0  0  0  0
 31 72  1  0  0  0  0
 31 73  1  0  0  0  0
 32 40  1  0  0  0  0
 32 74  1  0  0  0  0
 32 75  1  0  0  0  0
 33 34  1  0  0  0  0
 33 76  1  0  0  0  0
 33 77  1  0  0  0  0
 34 78  1  0  0  0  0
 34 79  1  0  0  0  0
 35 36  1  0  0  0  0
 35 80  1  0  0  0  0
 35 81  1  0  0  0  0
 36 82  1  0  0  0  0
 36 83  1  0  0  0  0
 37 40  2  0  0  0  0
 38 84  1  0  0  0  0
 38 85  1  0  0  0  0
 39 86  1  0  0  0  0
 39 87  1  0  0  0  0
 40 48  1  0  0  0  0
 41 44  1  0  0  0  0
 41 47  2  0  0  0  0
 42 45  2  0  0  0  0
 42 88  1  0  0  0  0
 43 46  2  0  0  0  0
 44 49  2  0  0  0  0
 45 46  1  0  0  0  0
 45 90  1  0  0  0  0
 46 91  1  0  0  0  0
 47 50  1  0  0  0  0
 47 92  1  0  0  0  0
 49 51  1  0  0  0  0
 49 93  1  0  0  0  0
 50 51  2  0  0  0  0
 50 94  1  0  0  0  0
 51 95  1  0  0  0  0
 52 96  1  0  0  0  0
 52 97  1  0  0  0  0
 52 98  1  0  0  0  0
 53 99  1  0  0  0  0
 53100  1  0  0  0  0
 53101  1  0  0  0  0
M  END
> <PUBCHEM_COMPOUND_CID>
441539

> <PUBCHEM_COMPOUND_CANONICALIZED>
1

> <PUBCHEM_CACTVS_COMPLEXITY>
1730

> <PUBCHEM_CACTVS_HBOND_ACCEPTOR>
10

> <PUBCHEM_CACTVS_HBOND_DONOR>
1

> <PUBCHEM_CACTVS_ROTATABLE_BOND>
3

> <PUBCHEM_CACTVS_SUBSKEYS>
AAADcfB/uAAAAAAAAAAAAAAAAAAAAWLFixI8ePFiQAAAAFixQAAAHgAQAAAADzzhmAYyzoPABACIAiTSSACCCAAhIgAIiAEPbMgOJjLE8ZuPMChn0BHY6Ue4/f/fgAABAAACEABQAAYECBQgAAAAAAAAAA==

> <PUBCHEM_IUPAC_INCHI>
InChI=1S/C43H48N4O6/c1-49-29-9-5-7-27-31(29)47-23-40-21-24-20-38-13-18-51-30(38)10-15-45-16-12-42(27,35(38)45)43(24,47)53-37(40)46-17-11-41-26-6-3-4-8-28(26)44-32(41)25(33(48)50-2)22-39(34(41)46)14-19-52-36(39)40/h3-9,24,30,34-37,44H,10-23H2,1-2H3/t24-,30-,34-,35-,36+,37+,38+,39-,40+,41-,42+,43+/m0/s1

> <PUBCHEM_IUPAC_INCHIKEY>
RZBFPDQKWUWUCK-SFUBKHQQSA-N

> <PUBCHEM_XLOGP3_AA>
4.5

> <PUBCHEM_EXACT_MASS>
716.357385

> <PUBCHEM_MOLECULAR_FORMULA>
C43H48N4O6

> <PUBCHEM_MOLECULAR_WEIGHT>
716.86442

> <PUBCHEM_OPENEYE_CAN_SMILES>
COC1=CC=CC2=C1N3CC45CC6C3(C27CCN8C7C9(C6)CCOC9CC8)OC4N1CCC23C1C1(C5OCC1)CC(=C2NC1=CC=CC=C31)C(=O)OC

> <PUBCHEM_OPENEYE_ISO_SMILES>
COC1=CC=CC2=C1N3C[C@@]45C[C@H]6[C@]3([C@]27CCN8[C@H]7[C@@]9(C6)CCO[C@H]9CC8)O[C@H]4N1CC[C@@]23[C@@H]1[C@@]1([C@H]5OCC1)CC(=C2NC1=CC=CC=C31)C(=O)OC

> <PUBCHEM_CACTVS_TPSA>
85

> <PUBCHEM_MONOISOTOPIC_WEIGHT>
716.357385

> <PUBCHEM_TOTAL_CHARGE>
0

> <PUBCHEM_HEAVY_ATOM_COUNT>
53

> <PUBCHEM_ATOM_DEF_STEREO_COUNT>
12

> <PUBCHEM_ATOM_UDEF_STEREO_COUNT>
0

> <PUBCHEM_BOND_DEF_STEREO_COUNT>
0

> <PUBCHEM_BOND_UDEF_STEREO_COUNT>
0

> <PUBCHEM_ISOTOPIC_ATOM_COUNT>
0

> <PUBCHEM_COMPONENT_COUNT>
1

> <PUBCHEM_CACTVS_TAUTO_COUNT>
3

> <PUBCHEM_COORDINATE_TYPE>
1
5
255

> <PUBCHEM_BONDANNOTATIONS>
11  1  5
12  24  5
13  18  6
14  54  6
15  55  6
16  21  5
17  56  6
19  59  6
20  31  5
23  64  5
25  28  8
25  42  8
26  67  5
27  34  6
28  43  8
41  44  8
41  47  8
42  45  8
43  46  8
44  49  8
45  46  8
47  50  8
49  51  8
50  51  8

$$$$

