10130220
  -OEChem-07051213083D

 24 24  0     1  0  0  0  0  0999 V2000
    0.7030    0.8905    0.6887 O   0  0  0  0  0  0  0  0  0  0  0  0
    0.6612   -2.0653    0.9237 O   0  0  0  0  0  0  0  0  0  0  0  0
   -1.5155   -0.6491   -1.6309 O   0  0  0  0  0  0  0  0  0  0  0  0
   -2.9212    0.3344    0.5764 O   0  0  0  0  0  0  0  0  0  0  0  0
   -0.9639    1.9435   -0.6281 O   0  0  0  0  0  0  0  0  0  0  0  0
    3.2820    1.0107   -0.1882 O   0  0  0  0  0  0  0  0  0  0  0  0
    0.3516   -1.3431   -0.2669 C   0  0  1  0  0  0  0  0  0  0  0  0
   -1.1576   -1.0850   -0.3206 C   0  0  1  0  0  0  0  0  0  0  0  0
    1.1463   -0.0254   -0.3230 C   0  0  2  0  0  0  0  0  0  0  0  0
   -1.5478   -0.0117    0.7019 C   0  0  1  0  0  0  0  0  0  0  0  0
   -0.6793    1.2428    0.5797 C   0  0  1  0  0  0  0  0  0  0  0  0
    2.6411   -0.2422   -0.1126 C   0  0  0  0  0  0  0  0  0  0  0  0
    0.6445   -1.9721   -1.1166 H   0  0  0  0  0  0  0  0  0  0  0  0
   -1.7235   -2.0011   -0.1152 H   0  0  0  0  0  0  0  0  0  0  0  0
    1.0026    0.4607   -1.2966 H   0  0  0  0  0  0  0  0  0  0  0  0
   -1.4012   -0.4285    1.7066 H   0  0  0  0  0  0  0  0  0  0  0  0
   -0.9201    1.9209    1.4064 H   0  0  0  0  0  0  0  0  0  0  0  0
    3.0555   -0.9077   -0.8761 H   0  0  0  0  0  0  0  0  0  0  0  0
    2.8508   -0.6512    0.8806 H   0  0  0  0  0  0  0  0  0  0  0  0
    1.5468   -2.4510    0.8149 H   0  0  0  0  0  0  0  0  0  0  0  0
   -1.2749   -1.3581   -2.2513 H   0  0  0  0  0  0  0  0  0  0  0  0
   -3.4387   -0.4845    0.6615 H   0  0  0  0  0  0  0  0  0  0  0  0
   -0.7394    2.8773   -0.4775 H   0  0  0  0  0  0  0  0  0  0  0  0
    4.2332    0.8574   -0.0572 H   0  0  0  0  0  0  0  0  0  0  0  0
  1  9  1  0  0  0  0
  1 11  1  0  0  0  0
  2  7  1  0  0  0  0
  2 20  1  0  0  0  0
  3  8  1  0  0  0  0
  3 21  1  0  0  0  0
  4 10  1  0  0  0  0
  4 22  1  0  0  0  0
  5 11  1  0  0  0  0
  5 23  1  0  0  0  0
  6 12  1  0  0  0  0
  6 24  1  0  0  0  0
  7  8  1  0  0  0  0
  7  9  1  0  0  0  0
  7 13  1  0  0  0  0
  8 10  1  0  0  0  0
  8 14  1  0  0  0  0
  9 12  1  0  0  0  0
  9 15  1  0  0  0  0
 10 11  1  0  0  0  0
 10 16  1  0  0  0  0
 11 17  1  0  0  0  0
 12 18  1  0  0  0  0
 12 19  1  0  0  0  0
M  END
> <PUBCHEM_COMPOUND_CID>
10130220

> <PUBCHEM_CONFORMER_RMSD>
0.6

> <PUBCHEM_CONFORMER_DIVERSEORDER>
2
3
5
1
4

> <PUBCHEM_MMFF94_PARTIAL_CHARGES>
17
1 -0.56
10 0.28
11 0.56
12 0.28
2 -0.68
20 0.4
21 0.4
22 0.4
23 0.4
24 0.4
3 -0.68
4 -0.68
5 -0.68
6 -0.68
7 0.28
8 0.28
9 0.28

> <PUBCHEM_EFFECTIVE_ROTOR_COUNT>
2.2

> <PUBCHEM_PHARMACOPHORE_FEATURES>
12
1 1 acceptor
1 2 acceptor
1 2 donor
1 3 acceptor
1 3 donor
1 4 acceptor
1 4 donor
1 5 acceptor
1 5 donor
1 6 acceptor
1 6 donor
6 1 7 8 9 10 11 rings

> <PUBCHEM_HEAVY_ATOM_COUNT>
12

> <PUBCHEM_ATOM_DEF_STEREO_COUNT>
4

> <PUBCHEM_ATOM_UDEF_STEREO_COUNT>
1

> <PUBCHEM_BOND_DEF_STEREO_COUNT>
0

> <PUBCHEM_BOND_UDEF_STEREO_COUNT>
0

> <PUBCHEM_ISOTOPIC_ATOM_COUNT>
0

> <PUBCHEM_COMPONENT_COUNT>
1

> <PUBCHEM_CACTVS_TAUTO_COUNT>
1

> <PUBCHEM_CONFORMER_ID>
009A932C00000002

> <PUBCHEM_MMFF94_ENERGY>
29.6489

> <PUBCHEM_FEATURE_SELFOVERLAP>
60.959

> <PUBCHEM_SHAPE_FINGERPRINT>
12423570 1 9002058381020350455
13024252 1 18201152165967416918
14993402 34 17821449062762975333
15775835 57 18334570252756349360
16945 1 17969202525792554209
18185500 45 18334582342936410635
20511035 2 17614862028677354553
21040471 1 18043531818180170528
23235685 24 18342173345412896600
23552423 10 18338515352148565318
241688 4 18189908508490517163
2748010 2 18048038467176305312
369184 2 18272369763276159370
5084963 1 18265597948501753280
528862 383 18270679899577150291
528886 8 18411419475254571771

> <PUBCHEM_SHAPE_MULTIPOLES>
211.74
3.42
1.73
1
1.68
0.06
0.19
-0.8
0.02
-0.04
-0.07
-0.36
0.16
-0.24

> <PUBCHEM_SHAPE_SELFOVERLAP>
423.299

> <PUBCHEM_SHAPE_VOLUME>
122.5

> <PUBCHEM_COORDINATE_TYPE>
2
5
10

$$$$

