12314280
  -OEChem-07051213113D

 52 54  0     1  0  0  0  0  0999 V2000
    0.9231    0.6306    0.0736 C   0  0  2  0  0  0  0  0  0  0  0  0
    1.8600   -0.5758   -0.3225 C   0  0  1  0  0  0  0  0  0  0  0  0
   -0.4243    0.4666   -0.7488 C   0  0  1  0  0  0  0  0  0  0  0  0
    3.3787   -0.4649    0.0728 C   0  0  0  0  0  0  0  0  0  0  0  0
    1.6138    1.9590   -0.3252 C   0  0  0  0  0  0  0  0  0  0  0  0
    1.1976   -1.9153    0.0627 C   0  0  0  0  0  0  0  0  0  0  0  0
    3.9139    0.9405   -0.2958 C   0  0  0  0  0  0  0  0  0  0  0  0
   -1.0618   -0.8957   -0.5101 C   0  0  0  0  0  0  0  0  0  0  0  0
    3.0394    2.0838    0.2013 C   0  0  0  0  0  0  0  0  0  0  0  0
   -0.1502   -2.0906   -0.6385 C   0  0  0  0  0  0  0  0  0  0  0  0
   -1.4103    1.6435   -0.5557 C   0  0  0  0  0  0  0  0  0  0  0  0
    0.6000    0.6716    1.5908 C   0  0  0  0  0  0  0  0  0  0  0  0
   -2.8278    1.2936   -1.0057 C   0  0  0  0  0  0  0  0  0  0  0  0
    4.2011   -1.4869   -0.7591 C   0  0  0  0  0  0  0  0  0  0  0  0
    3.6887   -0.7722    1.5508 C   0  0  0  0  0  0  0  0  0  0  0  0
   -3.3922    0.0579   -0.2662 C   0  0  2  0  0  0  0  0  0  0  0  0
   -2.3731   -1.0593   -0.2575 C   0  0  0  0  0  0  0  0  0  0  0  0
   -4.6521   -0.4118   -1.0188 C   0  0  0  0  0  0  0  0  0  0  0  0
   -3.7837    0.3969    1.1506 C   0  0  0  0  0  0  0  0  0  0  0  0
   -4.3409   -0.4715    2.0013 C   0  0  0  0  0  0  0  0  0  0  0  0
    1.8768   -0.5641   -1.4255 H   0  0  0  0  0  0  0  0  0  0  0  0
   -0.1579    0.4764   -1.8175 H   0  0  0  0  0  0  0  0  0  0  0  0
    1.0352    2.8182    0.0352 H   0  0  0  0  0  0  0  0  0  0  0  0
    1.6398    2.0436   -1.4199 H   0  0  0  0  0  0  0  0  0  0  0  0
    1.0614   -1.9884    1.1470 H   0  0  0  0  0  0  0  0  0  0  0  0
    1.8309   -2.7608   -0.2238 H   0  0  0  0  0  0  0  0  0  0  0  0
    3.9931    1.0251   -1.3884 H   0  0  0  0  0  0  0  0  0  0  0  0
    4.9319    1.0731    0.0925 H   0  0  0  0  0  0  0  0  0  0  0  0
    3.4645    3.0334   -0.1454 H   0  0  0  0  0  0  0  0  0  0  0  0
    3.0458    2.1280    1.2951 H   0  0  0  0  0  0  0  0  0  0  0  0
   -0.6288   -3.0008   -0.2573 H   0  0  0  0  0  0  0  0  0  0  0  0
    0.0311   -2.2607   -1.7079 H   0  0  0  0  0  0  0  0  0  0  0  0
   -1.0612    2.5094   -1.1312 H   0  0  0  0  0  0  0  0  0  0  0  0
   -1.4534    1.9688    0.4869 H   0  0  0  0  0  0  0  0  0  0  0  0
   -0.0210   -0.1696    1.9119 H   0  0  0  0  0  0  0  0  0  0  0  0
    1.4903    0.6688    2.2144 H   0  0  0  0  0  0  0  0  0  0  0  0
    0.0633    1.5858    1.8637 H   0  0  0  0  0  0  0  0  0  0  0  0
   -3.4812    2.1639   -0.8601 H   0  0  0  0  0  0  0  0  0  0  0  0
   -2.8056    1.1077   -2.0888 H   0  0  0  0  0  0  0  0  0  0  0  0
    3.9970   -1.3869   -1.8310 H   0  0  0  0  0  0  0  0  0  0  0  0
    5.2778   -1.3337   -0.6172 H   0  0  0  0  0  0  0  0  0  0  0  0
    3.9842   -2.5199   -0.4696 H   0  0  0  0  0  0  0  0  0  0  0  0
    3.2439   -1.7179    1.8743 H   0  0  0  0  0  0  0  0  0  0  0  0
    4.7713   -0.8631    1.7060 H   0  0  0  0  0  0  0  0  0  0  0  0
    3.3612    0.0128    2.2315 H   0  0  0  0  0  0  0  0  0  0  0  0
   -2.7487   -2.0674   -0.0874 H   0  0  0  0  0  0  0  0  0  0  0  0
   -4.4225   -0.6412   -2.0670 H   0  0  0  0  0  0  0  0  0  0  0  0
   -5.0901   -1.3203   -0.5885 H   0  0  0  0  0  0  0  0  0  0  0  0
   -5.4285    0.3631   -1.0170 H   0  0  0  0  0  0  0  0  0  0  0  0
   -3.6234    1.4133    1.5029 H   0  0  0  0  0  0  0  0  0  0  0  0
   -4.6064   -0.1555    3.0046 H   0  0  0  0  0  0  0  0  0  0  0  0
   -4.5419   -1.5023    1.7329 H   0  0  0  0  0  0  0  0  0  0  0  0
  1  2  1  0  0  0  0
  1  3  1  0  0  0  0
  1  5  1  0  0  0  0
  1 12  1  0  0  0  0
  2  4  1  0  0  0  0
  2  6  1  0  0  0  0
  2 21  1  0  0  0  0
  3  8  1  0  0  0  0
  3 11  1  0  0  0  0
  3 22  1  0  0  0  0
  4  7  1  0  0  0  0
  4 14  1  0  0  0  0
  4 15  1  0  0  0  0
  5  9  1  0  0  0  0
  5 23  1  0  0  0  0
  5 24  1  0  0  0  0
  6 10  1  0  0  0  0
  6 25  1  0  0  0  0
  6 26  1  0  0  0  0
  7  9  1  0  0  0  0
  7 27  1  0  0  0  0
  7 28  1  0  0  0  0
  8 10  1  0  0  0  0
  8 17  2  0  0  0  0
  9 29  1  0  0  0  0
  9 30  1  0  0  0  0
 10 31  1  0  0  0  0
 10 32  1  0  0  0  0
 11 13  1  0  0  0  0
 11 33  1  0  0  0  0
 11 34  1  0  0  0  0
 12 35  1  0  0  0  0
 12 36  1  0  0  0  0
 12 37  1  0  0  0  0
 13 16  1  0  0  0  0
 13 38  1  0  0  0  0
 13 39  1  0  0  0  0
 14 40  1  0  0  0  0
 14 41  1  0  0  0  0
 14 42  1  0  0  0  0
 15 43  1  0  0  0  0
 15 44  1  0  0  0  0
 15 45  1  0  0  0  0
 16 17  1  0  0  0  0
 16 18  1  0  0  0  0
 16 19  1  0  0  0  0
 17 46  1  0  0  0  0
 18 47  1  0  0  0  0
 18 48  1  0  0  0  0
 18 49  1  0  0  0  0
 19 20  2  0  0  0  0
 19 50  1  0  0  0  0
 20 51  1  0  0  0  0
 20 52  1  0  0  0  0
M  END
> <PUBCHEM_COMPOUND_CID>
12314280

> <PUBCHEM_CONFORMER_RMSD>
0.6

> <PUBCHEM_CONFORMER_DIVERSEORDER>
1

> <PUBCHEM_MMFF94_PARTIAL_CHARGES>
11
10 0.14
16 0.28
17 -0.29
19 -0.29
20 -0.3
3 0.14
46 0.15
50 0.15
51 0.15
52 0.15
8 -0.28

> <PUBCHEM_EFFECTIVE_ROTOR_COUNT>
2.8

> <PUBCHEM_PHARMACOPHORE_FEATURES>
5
1 20 hydrophobe
3 4 14 15 hydrophobe
6 1 2 3 6 8 10 rings
6 1 2 4 5 7 9 rings
6 3 8 11 13 16 17 rings

> <PUBCHEM_HEAVY_ATOM_COUNT>
20

> <PUBCHEM_ATOM_DEF_STEREO_COUNT>
4

> <PUBCHEM_ATOM_UDEF_STEREO_COUNT>
0

> <PUBCHEM_BOND_DEF_STEREO_COUNT>
0

> <PUBCHEM_BOND_UDEF_STEREO_COUNT>
0

> <PUBCHEM_ISOTOPIC_ATOM_COUNT>
0

> <PUBCHEM_COMPONENT_COUNT>
1

> <PUBCHEM_CACTVS_TAUTO_COUNT>
1

> <PUBCHEM_CONFORMER_ID>
00BBE6A800000001

> <PUBCHEM_MMFF94_ENERGY>
66.3419

> <PUBCHEM_FEATURE_SELFOVERLAP>
25.404

> <PUBCHEM_SHAPE_FINGERPRINT>
10366900 7 17989203772063061699
10863032 1 18189332372918983622
10967382 1 18410862027449792204
10980938 120 18260552255002991910
11132069 177 18334022699997044062
11471102 20 18409735053764065910
11552529 35 18193261997881987275
11615757 297 18333452053657290097
12011746 2 18341617052959692239
12236239 1 17748827419597562943
12390115 104 17614837423449026080
12403814 3 18343589538133476981
12592029 89 18341896328586255474
12633257 1 18411980278020095227
12644460 14 18342737391031507944
12670546 56 16877948260506240827
13140716 1 18338801100280093034
13221675 6 18412830183112062822
13224815 77 18342460335296413853
13296908 3 17632297852517126901
13583140 156 17418108610490489245
13675066 3 18060138713083843301
15196674 1 18410296921195980509
15209294 21 17676479592843836707
15309172 13 18408884031890917031
15536298 74 18334861593346746644
15653759 3 17775564239027677849
15848702 151 17531522191166193142
16945 1 18410579525749115838
17349148 13 17894348890749191903
18186145 218 18260264148897079820
19422 9 17894348865216570271
19591789 44 18410294700671884942
200 152 18113911446554049173
20261772 1 18410569561593936939
20281475 54 18113339695421490287
20645477 70 18340779190364938127
20739085 24 18268408244108855128
21267235 1 18410570703928643886
21501502 16 18191315874963646374
21682296 61 18190741040868060670
22182313 1 18270978915675214108
22854114 111 18412829079337083756
23184049 59 18410288099248621749
2334 1 18122351172542870318
23419403 2 14967201466410942125
23493267 7 17489032668660579645
23557571 272 17059782233912417455
23559900 14 16845576443477391058
2748010 2 17976264860818870534
296302 2 7709452831597585536
3286 77 17203618116001701546
465052 167 18273205387855660587
5104073 3 18410858745883704041
602551 16 16343410705327374843
633830 44 17749097881465931837
69090 78 18335990778592425367
9709674 26 18411139091294987094

> <PUBCHEM_SHAPE_MULTIPOLES>
411.59
8.58
2.04
1.36
2.57
0.12
-0.68
-0.6
-1.12
-1.28
0.34
0.89
-0.08
0.23

> <PUBCHEM_SHAPE_SELFOVERLAP>
855.886

> <PUBCHEM_SHAPE_VOLUME>
233.9

> <PUBCHEM_COORDINATE_TYPE>
2
5
10

$$$$

