442153
  -OEChem-07051212573D

 58 60  0     1  0  0  0  0  0999 V2000
    2.0487   -0.3471   -0.6425 O   0  0  0  0  0  0  0  0  0  0  0  0
   -4.1957   -0.0029   -0.1775 O   0  0  0  0  0  0  0  0  0  0  0  0
    3.9850    1.7665    2.2927 O   0  0  0  0  0  0  0  0  0  0  0  0
    6.2753    0.9105    1.3958 O   0  0  0  0  0  0  0  0  0  0  0  0
    6.1614   -1.8305   -2.4784 O   0  0  0  0  0  0  0  0  0  0  0  0
    1.4141   -0.0959    0.6212 C   0  0  2  0  0  0  0  0  0  0  0  0
   -0.0847   -0.0707    0.4075 C   0  0  0  0  0  0  0  0  0  0  0  0
    1.9058    1.2159    1.2300 C   0  0  0  0  0  0  0  0  0  0  0  0
   -0.6564    0.9057   -0.4076 C   0  0  0  0  0  0  0  0  0  0  0  0
   -0.8923   -1.0247    1.0259 C   0  0  0  0  0  0  0  0  0  0  0  0
   -2.0372    0.9281   -0.6044 C   0  0  0  0  0  0  0  0  0  0  0  0
   -2.2730   -1.0023    0.8290 C   0  0  0  0  0  0  0  0  0  0  0  0
    3.3991    1.1427    1.4158 C   0  0  0  0  0  0  0  0  0  0  0  0
    4.1341    0.3258    0.4281 C   0  0  0  0  0  0  0  0  0  0  0  0
    3.4173   -0.3557   -0.5600 C   0  0  0  0  0  0  0  0  0  0  0  0
   -2.8456   -0.0259    0.0138 C   0  0  0  0  0  0  0  0  0  0  0  0
   -2.6314    1.9818   -1.4799 C   0  0  0  0  0  0  0  0  0  0  0  0
   -3.1220   -2.0316    1.4998 C   0  0  0  0  0  0  0  0  0  0  0  0
    5.5298    0.2690    0.4533 C   0  0  0  0  0  0  0  0  0  0  0  0
    4.1010   -1.0686   -1.5457 C   0  0  0  0  0  0  0  0  0  0  0  0
   -3.0083    3.2305   -0.7221 C   0  0  0  0  0  0  0  0  0  0  0  0
   -3.3120   -3.2719    0.6625 C   0  0  0  0  0  0  0  0  0  0  0  0
    5.4948   -1.1255   -1.5232 C   0  0  0  0  0  0  0  0  0  0  0  0
    6.2070   -0.4623   -0.5233 C   0  0  0  0  0  0  0  0  0  0  0  0
   -4.2309    3.7766   -0.5771 C   0  0  0  0  0  0  0  0  0  0  0  0
   -4.4622   -3.7795    0.1795 C   0  0  0  0  0  0  0  0  0  0  0  0
   -4.5359    5.0285    0.1955 C   0  0  0  0  0  0  0  0  0  0  0  0
   -5.4318    3.1381   -1.2231 C   0  0  0  0  0  0  0  0  0  0  0  0
   -4.5792   -5.0254   -0.6520 C   0  0  0  0  0  0  0  0  0  0  0  0
   -5.7746   -3.0994    0.4664 C   0  0  0  0  0  0  0  0  0  0  0  0
    1.6650   -0.9313    1.2917 H   0  0  0  0  0  0  0  0  0  0  0  0
    1.4349    1.3836    2.2052 H   0  0  0  0  0  0  0  0  0  0  0  0
    1.7090    2.0814    0.5876 H   0  0  0  0  0  0  0  0  0  0  0  0
   -0.0294    1.6452   -0.8996 H   0  0  0  0  0  0  0  0  0  0  0  0
   -0.4456   -1.7871    1.6597 H   0  0  0  0  0  0  0  0  0  0  0  0
   -1.8893    2.2775   -2.2352 H   0  0  0  0  0  0  0  0  0  0  0  0
   -3.4412    1.5586   -2.0788 H   0  0  0  0  0  0  0  0  0  0  0  0
   -2.6193   -2.3525    2.4239 H   0  0  0  0  0  0  0  0  0  0  0  0
   -4.0444   -1.5820    1.8735 H   0  0  0  0  0  0  0  0  0  0  0  0
    3.5498   -1.5886   -2.3253 H   0  0  0  0  0  0  0  0  0  0  0  0
   -2.1742    3.7442   -0.2445 H   0  0  0  0  0  0  0  0  0  0  0  0
   -2.3946   -3.8145    0.4348 H   0  0  0  0  0  0  0  0  0  0  0  0
    7.2935   -0.5119   -0.5126 H   0  0  0  0  0  0  0  0  0  0  0  0
   -4.5974   -0.8449    0.0767 H   0  0  0  0  0  0  0  0  0  0  0  0
    7.2192    0.7438    1.2321 H   0  0  0  0  0  0  0  0  0  0  0  0
   -4.9893    5.7798   -0.4588 H   0  0  0  0  0  0  0  0  0  0  0  0
   -5.2283    4.8130    1.0155 H   0  0  0  0  0  0  0  0  0  0  0  0
   -3.6299    5.4647    0.6287 H   0  0  0  0  0  0  0  0  0  0  0  0
   -5.7817    3.7620   -2.0525 H   0  0  0  0  0  0  0  0  0  0  0  0
   -5.2818    2.1286   -1.6041 H   0  0  0  0  0  0  0  0  0  0  0  0
   -6.2459    3.0641   -0.4925 H   0  0  0  0  0  0  0  0  0  0  0  0
   -5.0417   -4.7969   -1.6175 H   0  0  0  0  0  0  0  0  0  0  0  0
   -5.1905   -5.7739   -0.1377 H   0  0  0  0  0  0  0  0  0  0  0  0
   -3.5987   -5.4716   -0.8482 H   0  0  0  0  0  0  0  0  0  0  0  0
   -6.5298   -3.8516    0.7240 H   0  0  0  0  0  0  0  0  0  0  0  0
   -6.1247   -2.5708   -0.4265 H   0  0  0  0  0  0  0  0  0  0  0  0
   -5.7651   -2.3999    1.3021 H   0  0  0  0  0  0  0  0  0  0  0  0
    7.1172   -1.7634   -2.3112 H   0  0  0  0  0  0  0  0  0  0  0  0
  1  6  1  0  0  0  0
  1 15  1  0  0  0  0
  2 16  1  0  0  0  0
  2 44  1  0  0  0  0
  3 13  2  0  0  0  0
  4 19  1  0  0  0  0
  4 45  1  0  0  0  0
  5 23  1  0  0  0  0
  5 58  1  0  0  0  0
  6  7  1  0  0  0  0
  6  8  1  0  0  0  0
  6 31  1  0  0  0  0
  7  9  2  0  0  0  0
  7 10  1  0  0  0  0
  8 13  1  0  0  0  0
  8 32  1  0  0  0  0
  8 33  1  0  0  0  0
  9 11  1  0  0  0  0
  9 34  1  0  0  0  0
 10 12  2  0  0  0  0
 10 35  1  0  0  0  0
 11 16  2  0  0  0  0
 11 17  1  0  0  0  0
 12 16  1  0  0  0  0
 12 18  1  0  0  0  0
 13 14  1  0  0  0  0
 14 15  1  0  0  0  0
 14 19  2  0  0  0  0
 15 20  2  0  0  0  0
 17 21  1  0  0  0  0
 17 36  1  0  0  0  0
 17 37  1  0  0  0  0
 18 22  1  0  0  0  0
 18 38  1  0  0  0  0
 18 39  1  0  0  0  0
 19 24  1  0  0  0  0
 20 23  1  0  0  0  0
 20 40  1  0  0  0  0
 21 25  2  0  0  0  0
 21 41  1  0  0  0  0
 22 26  2  0  0  0  0
 22 42  1  0  0  0  0
 23 24  2  0  0  0  0
 24 43  1  0  0  0  0
 25 27  1  0  0  0  0
 25 28  1  0  0  0  0
 26 29  1  0  0  0  0
 26 30  1  0  0  0  0
 27 46  1  0  0  0  0
 27 47  1  0  0  0  0
 27 48  1  0  0  0  0
 28 49  1  0  0  0  0
 28 50  1  0  0  0  0
 28 51  1  0  0  0  0
 29 52  1  0  0  0  0
 29 53  1  0  0  0  0
 29 54  1  0  0  0  0
 30 55  1  0  0  0  0
 30 56  1  0  0  0  0
 30 57  1  0  0  0  0
M  END
> <PUBCHEM_COMPOUND_CID>
442153

> <PUBCHEM_CONFORMER_RMSD>
0.8

> <PUBCHEM_CONFORMER_DIVERSEORDER>
1
86
142
358
100
234
414
297
68
259
177
331
313
114
418
298
242
207
377
368
269
38
111
193
342
197
127
163
181
299
250
174
360
24
159
81
415
367
371
135
336
158
303
413
184
144
294
275
148
352
304
164
10
185
402
222
83
85
225
218
104
229
191
78
317
405
409
219
205
34
258
411
31
128
305
293
350
208
140
265
206
130
281
359
278
132
326
94
301
39
217
246
351
277
271
398
145
211
95
150
5
61
25
280
366
417
330
272
320
248
329
213
407
315
347
209
161
245
249
334
157
394
199
223
129
160
113
146
408
105
343
355
121
333
310
307
106
337
64
151
251
204
252
311
257
416
349
172
370
3
339
188
260
381
346
66
363
255
386
273
186
79
240
295
373
203
389
32
332
89
152
267
101
139
388
149
354
202
286
322
221
243
57
67
284
91
216
404
356
396
247
353
87
171
385
372
236
116
289
20
228
154
7
175
119
362
276
378
41
109
302
361
233
40
93
306
46
384
16
410
291
210
325
357
194
8
103
162
118
90
96
375
308
283
215
15
156
6
62
58
195
30
288
300
120
263
200
122
155
214
345
99
201
44
12
261
321
51
253
226
400
314
131
137
45
169
290
84
365
138
338
403
380
312
212
190
37
126
316
376
70
256
110
270
18
11
364
71
296
176
42
392
13
48
60
112
80
147
14
29
196
319
382
328
406
335
237
35
69
266
167
309
341
180
390
82
395
102
88
98
241
187
75
399
49
124
412
22
72
374
26
170
50
244
54
19
17
133
125
21
52
369
383
136
76
153
279
340
59
65
224
220
107
2
74
166
232
56
92
123
235
47
379
73
77
182
108
348
27
324
262
189
55
274
287
134
268
401
318
63
143
4
97
33
115
227
9
327
36
179
28
178
387
323
393
282
397
53
391
264
238
23
230
43
117
165
198
192
141
292
254
183
285
173
344
231
168
239

> <PUBCHEM_MMFF94_PARTIAL_CHARGES>
39
1 -0.36
10 -0.15
11 -0.14
12 -0.14
13 0.42
14 0.09
15 0.08
16 0.08
17 0.28
18 0.28
19 0.08
2 -0.53
20 -0.15
21 -0.29
22 -0.29
23 0.08
24 -0.15
25 -0.28
26 -0.28
27 0.14
28 0.14
29 0.14
3 -0.57
30 0.14
34 0.15
35 0.15
4 -0.53
40 0.15
41 0.15
42 0.15
43 0.15
44 0.45
45 0.45
5 -0.53
58 0.45
6 0.42
7 -0.14
8 0.06
9 -0.15

> <PUBCHEM_EFFECTIVE_ROTOR_COUNT>
5.6

> <PUBCHEM_PHARMACOPHORE_FEATURES>
10
1 1 acceptor
1 2 donor
1 3 acceptor
1 4 donor
1 5 donor
3 25 27 28 hydrophobe
3 26 29 30 hydrophobe
6 1 6 8 13 14 15 rings
6 14 15 19 20 23 24 rings
6 7 9 10 11 12 16 rings

> <PUBCHEM_HEAVY_ATOM_COUNT>
30

> <PUBCHEM_ATOM_DEF_STEREO_COUNT>
1

> <PUBCHEM_ATOM_UDEF_STEREO_COUNT>
0

> <PUBCHEM_BOND_DEF_STEREO_COUNT>
0

> <PUBCHEM_BOND_UDEF_STEREO_COUNT>
0

> <PUBCHEM_ISOTOPIC_ATOM_COUNT>
0

> <PUBCHEM_COMPONENT_COUNT>
1

> <PUBCHEM_CACTVS_TAUTO_COUNT>
42

> <PUBCHEM_CONFORMER_ID>
0006BF2900000001

> <PUBCHEM_MMFF94_ENERGY>
75.904

> <PUBCHEM_FEATURE_SELFOVERLAP>
50.773

> <PUBCHEM_SHAPE_FINGERPRINT>
10411042 1 18054228731438768003
11056379 131 18413387636008381631
11062273 23 18272934921660390323
11331351 85 18192425274344791371
11445158 3 16807010923036366833
11796584 16 18267865159339156722
12236239 1 16200434671828278616
12342043 65 18115016408031639122
12390115 104 18268988877096800881
12616971 3 15841549713125712588
12623949 98 17680693844440401558
12788726 201 17987232231913690875
13383665 225 18198891535817841172
13540713 4 18259990357891467360
13540713 5 17631469997170176586
13690498 29 18338785737198088039
13757389 114 18128806611890382965
13782708 43 18260824852557010918
14068700 675 17987522502915176951
14294032 229 17631741585923313197
14790565 3 17908708680808256545
14910302 57 18335699399400472643
15183329 4 16952262151036476604
15361156 5 18270666563756261514
15484559 13 13677916626746003206
15629462 23 17313663884198517425
15927050 60 18268713994937029235
21033648 29 18260844704248956448
21033650 10 18202556285260557130
22393880 68 18410009970595357782
23559900 14 18340204224010796814
23929065 36 18268729250465322329
244849 19 18041011630355897808
25147074 1 17489040347545140875
25223398 141 18410566293234790278
255183 313 18339907321622634433
3103668 31 18272380737978040863
3610482 184 17345450726554785078
4046055 4 18269278967977990957
4073 2 18410578413911794156
46194498 28 18263082128917852056
508706 21 18410016541414681967
5969126 39 18267874895533904455
613672 6 17983298119106964483
6698420 124 17970900288137934105
6703917 75 18121480600427496157
9658208 31 18339646762424654265

> <PUBCHEM_SHAPE_MULTIPOLES>
588.04
16.04
5.59
1.64
16.35
0.07
-0.11
-2.72
-3.19
-17.39
-0.84
2.28
-0.01
3.79

> <PUBCHEM_SHAPE_SELFOVERLAP>
1258.118

> <PUBCHEM_SHAPE_VOLUME>
326.2

> <PUBCHEM_COORDINATE_TYPE>
2
5
10

$$$$

