439508
  -OEChem-07051212463D

 20 20  0     1  0  0  0  0  0999 V2000
   -0.9830    1.3607    0.3644 O   0  0  0  0  0  0  0  0  0  0  0  0
    1.6196   -1.8210   -0.1566 O   0  0  0  0  0  0  0  0  0  0  0  0
   -0.8544   -1.4338    1.0404 O   0  0  0  0  0  0  0  0  0  0  0  0
    2.6235    0.9048   -0.0815 O   0  0  0  0  0  0  0  0  0  0  0  0
   -2.8397    0.0734   -0.2765 O   0  0  0  0  0  0  0  0  0  0  0  0
    0.8460   -0.6792   -0.5126 C   0  0  1  0  0  0  0  0  0  0  0  0
   -0.6421   -0.9582   -0.2925 C   0  0  2  0  0  0  0  0  0  0  0  0
    1.3100    0.5221    0.3130 C   0  0  2  0  0  0  0  0  0  0  0  0
   -1.4547    0.3223   -0.4999 C   0  0  2  0  0  0  0  0  0  0  0  0
    0.3748    1.7088    0.1018 C   0  0  0  0  0  0  0  0  0  0  0  0
    1.0289   -0.4883   -1.5775 H   0  0  0  0  0  0  0  0  0  0  0  0
   -0.9941   -1.7528   -0.9595 H   0  0  0  0  0  0  0  0  0  0  0  0
    1.3466    0.2456    1.3736 H   0  0  0  0  0  0  0  0  0  0  0  0
   -1.3634    0.6675   -1.5365 H   0  0  0  0  0  0  0  0  0  0  0  0
    0.6513    2.5261    0.7772 H   0  0  0  0  0  0  0  0  0  0  0  0
    0.4625    2.1113   -0.9154 H   0  0  0  0  0  0  0  0  0  0  0  0
    2.5552   -1.5937   -0.2938 H   0  0  0  0  0  0  0  0  0  0  0  0
   -0.2954   -2.2207    1.1591 H   0  0  0  0  0  0  0  0  0  0  0  0
    2.8861    1.6625    0.4686 H   0  0  0  0  0  0  0  0  0  0  0  0
   -2.9136   -0.5738    0.4451 H   0  0  0  0  0  0  0  0  0  0  0  0
  1  9  1  0  0  0  0
  1 10  1  0  0  0  0
  2  6  1  0  0  0  0
  2 17  1  0  0  0  0
  3  7  1  0  0  0  0
  3 18  1  0  0  0  0
  4  8  1  0  0  0  0
  4 19  1  0  0  0  0
  5  9  1  0  0  0  0
  5 20  1  0  0  0  0
  6  7  1  0  0  0  0
  6  8  1  0  0  0  0
  6 11  1  0  0  0  0
  7  9  1  0  0  0  0
  7 12  1  0  0  0  0
  8 10  1  0  0  0  0
  8 13  1  0  0  0  0
  9 14  1  0  0  0  0
 10 15  1  0  0  0  0
 10 16  1  0  0  0  0
M  END
> <PUBCHEM_COMPOUND_CID>
439508

> <PUBCHEM_CONFORMER_RMSD>
0.4

> <PUBCHEM_CONFORMER_DIVERSEORDER>
2
3
4
1

> <PUBCHEM_MMFF94_PARTIAL_CHARGES>
14
1 -0.56
10 0.28
17 0.4
18 0.4
19 0.4
2 -0.68
20 0.4
3 -0.68
4 -0.68
5 -0.68
6 0.28
7 0.28
8 0.28
9 0.56

> <PUBCHEM_EFFECTIVE_ROTOR_COUNT>
1.2

> <PUBCHEM_PHARMACOPHORE_FEATURES>
10
1 1 acceptor
1 2 acceptor
1 2 donor
1 3 acceptor
1 3 donor
1 4 acceptor
1 4 donor
1 5 acceptor
1 5 donor
6 1 6 7 8 9 10 rings

> <PUBCHEM_HEAVY_ATOM_COUNT>
10

> <PUBCHEM_ATOM_DEF_STEREO_COUNT>
3

> <PUBCHEM_ATOM_UDEF_STEREO_COUNT>
1

> <PUBCHEM_BOND_DEF_STEREO_COUNT>
0

> <PUBCHEM_BOND_UDEF_STEREO_COUNT>
0

> <PUBCHEM_ISOTOPIC_ATOM_COUNT>
0

> <PUBCHEM_COMPONENT_COUNT>
1

> <PUBCHEM_CACTVS_TAUTO_COUNT>
1

> <PUBCHEM_CONFORMER_ID>
0006B4D400000002

> <PUBCHEM_MMFF94_ENERGY>
22.3153

> <PUBCHEM_FEATURE_SELFOVERLAP>
50.807

> <PUBCHEM_SHAPE_FINGERPRINT>
12423570 1 6553201009386538514
137420 1 9199894117896133279
16945 1 18335150760367369093
18185500 45 18261402130219910965
21040471 1 18409736122952602452
23235685 24 18339368473975950044
23552423 10 18268145542433571814
241688 4 18049161369243662656
2748010 2 18265336298830609901
29004967 10 18409727339849905753
5084963 1 18265901447770174889

> <PUBCHEM_SHAPE_MULTIPOLES>
176.45
2.77
1.78
0.76
0.3
0.12
0.07
-0.28
-0.23
-0.43
0.17
0.11
0.13
0.16

> <PUBCHEM_SHAPE_SELFOVERLAP>
350.456

> <PUBCHEM_SHAPE_VOLUME>
102.5

> <PUBCHEM_COORDINATE_TYPE>
2
5
10

$$$$

