93200
  -OEChem-07051213133D

 44 43  0     0  0  0  0  0  0999 V2000
    2.2919   -1.8623    3.9801 Cl  0  0  0  0  0  0  0  0  0  0  0  0
    0.2478   -0.0322    0.4464 Si  0  0  0  0  0  0  0  0  0  0  0  0
   -0.7538    1.3132    0.4930 O   0  0  0  0  0  0  0  0  0  0  0  0
   -0.6016   -1.3343   -0.1826 O   0  0  0  0  0  0  0  0  0  0  0  0
    1.5509    0.3029   -0.5557 O   0  0  0  0  0  0  0  0  0  0  0  0
   -3.2239    2.6273    0.4973 O   0  0  0  0  0  0  0  0  0  0  0  0
   -2.6887   -2.5464   -1.5974 O   0  0  0  0  0  0  0  0  0  0  0  0
    4.2506    0.2704   -1.2887 O   0  0  0  0  0  0  0  0  0  0  0  0
    0.8542   -0.4157    2.1827 C   0  0  0  0  0  0  0  0  0  0  0  0
    1.7807   -1.6232    2.2915 C   0  0  0  0  0  0  0  0  0  0  0  0
   -1.3343    1.7920   -0.7121 C   0  0  0  0  0  0  0  0  0  0  0  0
   -1.7685   -1.7970    0.4817 C   0  0  0  0  0  0  0  0  0  0  0  0
    2.4099    1.3907   -0.2458 C   0  0  0  0  0  0  0  0  0  0  0  0
   -2.1886    3.0059   -0.4017 C   0  0  0  0  0  0  0  0  0  0  0  0
   -2.3413   -2.9731   -0.2856 C   0  0  0  0  0  0  0  0  0  0  0  0
    3.4980    1.4774   -1.2987 C   0  0  0  0  0  0  0  0  0  0  0  0
   -4.0453    3.7343    0.8412 C   0  0  0  0  0  0  0  0  0  0  0  0
   -3.2121   -3.6168   -2.3714 C   0  0  0  0  0  0  0  0  0  0  0  0
    5.2741    0.2870   -2.2740 C   0  0  0  0  0  0  0  0  0  0  0  0
   -0.0226   -0.5698    2.8232 H   0  0  0  0  0  0  0  0  0  0  0  0
    1.3653    0.4741    2.5695 H   0  0  0  0  0  0  0  0  0  0  0  0
    1.2838   -2.5426    1.9650 H   0  0  0  0  0  0  0  0  0  0  0  0
    2.6863   -1.4913    1.6905 H   0  0  0  0  0  0  0  0  0  0  0  0
   -0.5541    2.0722   -1.4302 H   0  0  0  0  0  0  0  0  0  0  0  0
   -1.9661    1.0100   -1.1521 H   0  0  0  0  0  0  0  0  0  0  0  0
   -1.5292   -2.1169    1.5028 H   0  0  0  0  0  0  0  0  0  0  0  0
   -2.5140   -0.9927    0.5196 H   0  0  0  0  0  0  0  0  0  0  0  0
    1.8479    2.3322   -0.2260 H   0  0  0  0  0  0  0  0  0  0  0  0
    2.8749    1.2258    0.7341 H   0  0  0  0  0  0  0  0  0  0  0  0
   -2.6251    3.4024   -1.3250 H   0  0  0  0  0  0  0  0  0  0  0  0
   -1.5733    3.7803    0.0710 H   0  0  0  0  0  0  0  0  0  0  0  0
   -3.2297   -3.3578    0.2272 H   0  0  0  0  0  0  0  0  0  0  0  0
   -1.5906   -3.7688   -0.3580 H   0  0  0  0  0  0  0  0  0  0  0  0
    4.1562    2.3273   -1.0876 H   0  0  0  0  0  0  0  0  0  0  0  0
    3.0453    1.6057   -2.2889 H   0  0  0  0  0  0  0  0  0  0  0  0
   -4.8224    3.3864    1.5270 H   0  0  0  0  0  0  0  0  0  0  0  0
   -4.5264    4.1472   -0.0508 H   0  0  0  0  0  0  0  0  0  0  0  0
   -3.4566    4.5074    1.3445 H   0  0  0  0  0  0  0  0  0  0  0  0
   -3.4647   -3.2327   -3.3634 H   0  0  0  0  0  0  0  0  0  0  0  0
   -4.1205   -4.0158   -1.9098 H   0  0  0  0  0  0  0  0  0  0  0  0
   -2.4664   -4.4097   -2.4839 H   0  0  0  0  0  0  0  0  0  0  0  0
    5.8206   -0.6584   -2.2186 H   0  0  0  0  0  0  0  0  0  0  0  0
    5.9745    1.1065   -2.0862 H   0  0  0  0  0  0  0  0  0  0  0  0
    4.8420    0.3818   -3.2749 H   0  0  0  0  0  0  0  0  0  0  0  0
  1 10  1  0  0  0  0
  2  3  1  0  0  0  0
  2  4  1  0  0  0  0
  2  5  1  0  0  0  0
  2  9  1  0  0  0  0
  3 11  1  0  0  0  0
  4 12  1  0  0  0  0
  5 13  1  0  0  0  0
  6 14  1  0  0  0  0
  6 17  1  0  0  0  0
  7 15  1  0  0  0  0
  7 18  1  0  0  0  0
  8 16  1  0  0  0  0
  8 19  1  0  0  0  0
  9 10  1  0  0  0  0
  9 20  1  0  0  0  0
  9 21  1  0  0  0  0
 10 22  1  0  0  0  0
 10 23  1  0  0  0  0
 11 14  1  0  0  0  0
 11 24  1  0  0  0  0
 11 25  1  0  0  0  0
 12 15  1  0  0  0  0
 12 26  1  0  0  0  0
 12 27  1  0  0  0  0
 13 16  1  0  0  0  0
 13 28  1  0  0  0  0
 13 29  1  0  0  0  0
 14 30  1  0  0  0  0
 14 31  1  0  0  0  0
 15 32  1  0  0  0  0
 15 33  1  0  0  0  0
 16 34  1  0  0  0  0
 16 35  1  0  0  0  0
 17 36  1  0  0  0  0
 17 37  1  0  0  0  0
 17 38  1  0  0  0  0
 18 39  1  0  0  0  0
 18 40  1  0  0  0  0
 18 41  1  0  0  0  0
 19 42  1  0  0  0  0
 19 43  1  0  0  0  0
 19 44  1  0  0  0  0
M  END
> <PUBCHEM_COMPOUND_CID>
93200

> <PUBCHEM_CONFORMER_RMSD>
1

> <PUBCHEM_CONFORMER_DIVERSEORDER>
1
41
21
60
52
12
27
42
35
44
46
14
33
8
37
62
20
22
30
50
26
54
13
25
15
51
58
32
17
10
11
59
24
61
49
3
47
9
18
53
2
4
57
43
29
36
40
34
31
56
45
28
16
38
23
39
5
19
48
6
7
55

> <PUBCHEM_MMFF94_PARTIAL_CHARGES>
19
1 -0.29
10 0.29
11 0.28
12 0.28
13 0.28
14 0.28
15 0.28
16 0.28
17 0.28
18 0.28
19 0.28
2 0.97
3 -0.58
4 -0.58
5 -0.58
6 -0.56
7 -0.56
8 -0.56
9 -0.08

> <PUBCHEM_EFFECTIVE_ROTOR_COUNT>
14

> <PUBCHEM_PHARMACOPHORE_FEATURES>
3
1 6 acceptor
1 7 acceptor
1 8 acceptor

> <PUBCHEM_HEAVY_ATOM_COUNT>
19

> <PUBCHEM_ATOM_DEF_STEREO_COUNT>
0

> <PUBCHEM_ATOM_UDEF_STEREO_COUNT>
0

> <PUBCHEM_BOND_DEF_STEREO_COUNT>
0

> <PUBCHEM_BOND_UDEF_STEREO_COUNT>
0

> <PUBCHEM_ISOTOPIC_ATOM_COUNT>
0

> <PUBCHEM_COMPONENT_COUNT>
1

> <PUBCHEM_CACTVS_TAUTO_COUNT>
1

> <PUBCHEM_CONFORMER_ID>
00016C1000000001

> <PUBCHEM_MMFF94_ENERGY>
30.6833

> <PUBCHEM_FEATURE_SELFOVERLAP>
15.223

> <PUBCHEM_SHAPE_FINGERPRINT>
10610426 29 17097756981554916670
10756046 70 17843137053795126458
107951 10 17343463905001743918
11578080 2 17096087974311607632
12293681 160 17625832569316134440
12788726 201 18338245881890069215
133893 2 16773256070845652658
14943834 7 18059030461186999274
15842332 3 18130241439866852906
17539 30 18261387798251758677
18186145 218 17200516200183734414
20600515 1 17553495677660199064
20711985 344 18336834087126472187
21524375 3 17986087799076000452
22620623 9 18187633674640733725
23419403 2 16371292121258345114
23558518 356 17985810554858191828
25147074 1 18129957765877397202
266924 1 18130802147879007090
266924 78 16917078796817483547
3380486 77 17127356895669406752
394222 165 17842260747555469424
81228 2 17984410841948478488
9925002 15 17983611694520759616

> <PUBCHEM_SHAPE_MULTIPOLES>
375.88
7.49
4.7
3.1
4.78
0.25
1.79
3.08
-4.84
-7.67
-0.38
2.88
-3.18
-5.75

> <PUBCHEM_SHAPE_SELFOVERLAP>
674.576

> <PUBCHEM_SHAPE_VOLUME>
243.9

> <PUBCHEM_COORDINATE_TYPE>
2
5
10

$$$$

