10893
  -OEChem-06261205053D

 14 14  0     0  0  0  0  0  0999 V2000
   -3.3891   -0.0001   -0.0001 I   0  0  0  0  0  0  0  0  0  0  0  0
    2.8886    0.0000   -0.0003 N   0  0  0  0  0  0  0  0  0  0  0  0
    1.4782    0.0000    0.0001 C   0  0  0  0  0  0  0  0  0  0  0  0
    0.7809   -1.2080    0.0001 C   0  0  0  0  0  0  0  0  0  0  0  0
    0.7808    1.2080    0.0001 C   0  0  0  0  0  0  0  0  0  0  0  0
   -0.6139   -1.2080    0.0000 C   0  0  0  0  0  0  0  0  0  0  0  0
   -0.6141    1.2081    0.0001 C   0  0  0  0  0  0  0  0  0  0  0  0
   -1.3115    0.0000    0.0000 C   0  0  0  0  0  0  0  0  0  0  0  0
    1.3131   -2.1559    0.0000 H   0  0  0  0  0  0  0  0  0  0  0  0
    1.3131    2.1559    0.0000 H   0  0  0  0  0  0  0  0  0  0  0  0
   -1.1377   -2.1606   -0.0001 H   0  0  0  0  0  0  0  0  0  0  0  0
   -1.1380    2.1607    0.0000 H   0  0  0  0  0  0  0  0  0  0  0  0
    3.3949   -0.8755    0.0004 H   0  0  0  0  0  0  0  0  0  0  0  0
    3.3948    0.8755    0.0003 H   0  0  0  0  0  0  0  0  0  0  0  0
  1  8  1  0  0  0  0
  2  3  1  0  0  0  0
  2 13  1  0  0  0  0
  2 14  1  0  0  0  0
  3  4  2  0  0  0  0
  3  5  1  0  0  0  0
  4  6  1  0  0  0  0
  4  9  1  0  0  0  0
  5  7  2  0  0  0  0
  5 10  1  0  0  0  0
  6  8  2  0  0  0  0
  6 11  1  0  0  0  0
  7  8  1  0  0  0  0
  7 12  1  0  0  0  0
M  END
> <PUBCHEM_COMPOUND_CID>
10893

> <PUBCHEM_CONFORMER_RMSD>
0.4

> <PUBCHEM_CONFORMER_DIVERSEORDER>
1

> <PUBCHEM_MMFF94_PARTIAL_CHARGES>
14
1 -0.08
10 0.15
11 0.15
12 0.15
13 0.4
14 0.4
2 -0.9
3 0.1
4 -0.15
5 -0.15
6 -0.15
7 -0.15
8 0.08
9 0.15

> <PUBCHEM_EFFECTIVE_ROTOR_COUNT>
0

> <PUBCHEM_PHARMACOPHORE_FEATURES>
4
1 1 hydrophobe
1 2 cation
1 2 donor
6 3 4 5 6 7 8 rings

> <PUBCHEM_HEAVY_ATOM_COUNT>
8

> <PUBCHEM_ATOM_DEF_STEREO_COUNT>
0

> <PUBCHEM_ATOM_UDEF_STEREO_COUNT>
0

> <PUBCHEM_BOND_DEF_STEREO_COUNT>
0

> <PUBCHEM_BOND_UDEF_STEREO_COUNT>
0

> <PUBCHEM_ISOTOPIC_ATOM_COUNT>
0

> <PUBCHEM_COMPONENT_COUNT>
1

> <PUBCHEM_CACTVS_TAUTO_COUNT>
1

> <PUBCHEM_CONFORMER_ID>
00002A8D00000001

> <PUBCHEM_MMFF94_ENERGY>
27.6103

> <PUBCHEM_FEATURE_SELFOVERLAP>
20.297

> <PUBCHEM_SHAPE_FINGERPRINT>
10219947 1 18411134740698344097
14325111 11 18410856530002416321
16945 1 18410856559787482631
193761 8 17617940674172821991
21040471 1 18194683661688586757
21293036 1 18412539894814858244
23235685 24 18410859849605869805
23402655 69 18193011507300353845
23552423 10 18055627571393888494
2748010 2 18122622747588087639
29004967 10 18343015610196037841
5084963 1 18261110768465868193

> <PUBCHEM_SHAPE_MULTIPOLES>
171.59
4.19
1.35
0.65
2.06
0
0
0
0
-0.12
0
0.16
0
0

> <PUBCHEM_SHAPE_SELFOVERLAP>
332.383

> <PUBCHEM_SHAPE_VOLUME>
107.4

> <PUBCHEM_COORDINATE_TYPE>
2
5
10

$$$$

