50986257
  -OEChem-07051213153D

 83 87  0     1  0  0  0  0  0999 V2000
   -4.2941   -3.3029   -2.2405 O   0  0  0  0  0  0  0  0  0  0  0  0
   -3.4673   -1.3116   -2.9798 O   0  0  0  0  0  0  0  0  0  0  0  0
   -1.4090    4.3403    1.9907 O   0  0  0  0  0  0  0  0  0  0  0  0
   -8.6107    0.6594    0.9790 O   0  0  0  0  0  0  0  0  0  0  0  0
   -7.4551    1.1600   -0.9112 O   0  0  0  0  0  0  0  0  0  0  0  0
    3.9314   -1.2578    3.4741 O   0  0  0  0  0  0  0  0  0  0  0  0
   -2.0392   -0.9523   -0.7308 N   0  0  0  0  0  0  0  0  0  0  0  0
    0.1440    1.2035   -0.9558 N   0  0  0  0  0  0  0  0  0  0  0  0
    3.2170   -0.2920   -1.4770 N   0  0  0  0  0  0  0  0  0  0  0  0
    4.5046   -2.4749    1.5588 N   0  0  0  0  0  0  0  0  0  0  0  0
   -3.8372   -0.5245    0.7083 C   0  0  1  0  0  0  0  0  0  0  0  0
   -3.7715   -2.0479    0.3906 C   0  0  1  0  0  0  0  0  0  0  0  0
   -2.8154   -2.1654   -0.8183 C   0  0  1  0  0  0  0  0  0  0  0  0
   -2.5329   -0.0100    0.1312 C   0  0  0  0  0  0  0  0  0  0  0  0
   -5.0444    0.1412    0.0477 C   0  0  0  0  0  0  0  0  0  0  0  0
   -1.9750    1.1607    0.4596 C   0  0  0  0  0  0  0  0  0  0  0  0
   -3.2161   -2.8306    1.5861 C   0  0  0  0  0  0  0  0  0  0  0  0
   -0.7699    1.6456   -0.0679 C   0  0  0  0  0  0  0  0  0  0  0  0
   -2.5292    2.1911    1.4574 C   0  0  0  0  0  0  0  0  0  0  0  0
   -0.4113    2.8644    0.4226 C   0  0  0  0  0  0  0  0  0  0  0  0
   -6.3103    0.0227    0.8850 C   0  0  0  0  0  0  0  0  0  0  0  0
   -3.5390   -2.1831   -2.1263 C   0  0  0  0  0  0  0  0  0  0  0  0
   -1.4197    3.2913    1.3655 C   0  0  0  0  0  0  0  0  0  0  0  0
    0.7957    3.2275   -0.1794 C   0  0  0  0  0  0  0  0  0  0  0  0
    1.1252    2.1802   -1.0345 C   0  0  0  0  0  0  0  0  0  0  0  0
    2.2870    2.0046   -1.9296 C   0  0  0  0  0  0  0  0  0  0  0  0
    3.3591    1.0684   -1.3924 C   0  0  0  0  0  0  0  0  0  0  0  0
    1.5650    4.4653    0.0424 C   0  0  0  0  0  0  0  0  0  0  0  0
   -7.4913    0.6794    0.2144 C   0  0  0  0  0  0  0  0  0  0  0  0
    4.5645    1.3294   -0.7792 C   0  0  0  0  0  0  0  0  0  0  0  0
    4.3139   -0.9033   -0.9277 C   0  0  0  0  0  0  0  0  0  0  0  0
    5.1686    0.0821   -0.4851 C   0  0  0  0  0  0  0  0  0  0  0  0
    4.4251   -2.3738   -0.8856 C   0  0  0  0  0  0  0  0  0  0  0  0
    3.8319   -2.9809    0.3907 C   0  0  2  0  0  0  0  0  0  0  0  0
    5.1218    2.6659   -0.4848 C   0  0  0  0  0  0  0  0  0  0  0  0
    2.4183   -2.5531    0.6760 C   0  0  0  0  0  0  0  0  0  0  0  0
    6.4743   -0.1274    0.1732 C   0  0  0  0  0  0  0  0  0  0  0  0
    2.2993   -1.8654    1.8231 C   0  0  0  0  0  0  0  0  0  0  0  0
    5.7100    3.3507   -1.7225 C   0  0  0  0  0  0  0  0  0  0  0  0
    3.6553   -1.8008    2.4175 C   0  0  0  0  0  0  0  0  0  0  0  0
    1.3568   -2.9121   -0.2195 C   0  0  0  0  0  0  0  0  0  0  0  0
    1.1270   -1.2634    2.5037 C   0  0  0  0  0  0  0  0  0  0  0  0
    1.5430   -3.6003   -1.3501 C   0  0  0  0  0  0  0  0  0  0  0  0
   -3.8640   -0.3563    1.7922 H   0  0  0  0  0  0  0  0  0  0  0  0
   -4.7664   -2.4519    0.1700 H   0  0  0  0  0  0  0  0  0  0  0  0
   -2.1606   -3.0420   -0.7700 H   0  0  0  0  0  0  0  0  0  0  0  0
   -1.1908   -0.8366   -1.2592 H   0  0  0  0  0  0  0  0  0  0  0  0
   -4.8499    1.2082   -0.1186 H   0  0  0  0  0  0  0  0  0  0  0  0
   -5.2233   -0.2777   -0.9502 H   0  0  0  0  0  0  0  0  0  0  0  0
   -2.2181   -2.4830    1.8735 H   0  0  0  0  0  0  0  0  0  0  0  0
   -3.1468   -3.8972    1.3477 H   0  0  0  0  0  0  0  0  0  0  0  0
   -3.8748   -2.7235    2.4544 H   0  0  0  0  0  0  0  0  0  0  0  0
   -2.5644    1.7966    2.4758 H   0  0  0  0  0  0  0  0  0  0  0  0
   -3.4804    2.6179    1.1330 H   0  0  0  0  0  0  0  0  0  0  0  0
   -6.5600   -1.0305    1.0503 H   0  0  0  0  0  0  0  0  0  0  0  0
   -6.1591    0.5090    1.8552 H   0  0  0  0  0  0  0  0  0  0  0  0
    0.1539    0.3410   -1.4802 H   0  0  0  0  0  0  0  0  0  0  0  0
    1.9455    1.6148   -2.8984 H   0  0  0  0  0  0  0  0  0  0  0  0
    2.7373    2.9762   -2.1570 H   0  0  0  0  0  0  0  0  0  0  0  0
    2.3224    4.3091    0.8166 H   0  0  0  0  0  0  0  0  0  0  0  0
    2.0660    4.8017   -0.8702 H   0  0  0  0  0  0  0  0  0  0  0  0
    0.9116    5.2798    0.3726 H   0  0  0  0  0  0  0  0  0  0  0  0
    2.4275   -0.7681   -1.8912 H   0  0  0  0  0  0  0  0  0  0  0  0
   -4.7797   -3.3321   -3.0923 H   0  0  0  0  0  0  0  0  0  0  0  0
    5.4865   -2.6520   -0.9323 H   0  0  0  0  0  0  0  0  0  0  0  0
    4.0066   -2.7928   -1.8029 H   0  0  0  0  0  0  0  0  0  0  0  0
    3.9400   -4.0713    0.3951 H   0  0  0  0  0  0  0  0  0  0  0  0
    5.9004    2.6000    0.2840 H   0  0  0  0  0  0  0  0  0  0  0  0
    4.3414    3.3081   -0.0627 H   0  0  0  0  0  0  0  0  0  0  0  0
    7.2318    0.5437   -0.2455 H   0  0  0  0  0  0  0  0  0  0  0  0
    6.8493   -1.1471    0.0506 H   0  0  0  0  0  0  0  0  0  0  0  0
    6.3951    0.0759    1.2462 H   0  0  0  0  0  0  0  0  0  0  0  0
    5.4929   -2.6131    1.7457 H   0  0  0  0  0  0  0  0  0  0  0  0
   -9.3722    1.0789    0.5247 H   0  0  0  0  0  0  0  0  0  0  0  0
    6.5246    2.7540   -2.1471 H   0  0  0  0  0  0  0  0  0  0  0  0
    6.1120    4.3324   -1.4526 H   0  0  0  0  0  0  0  0  0  0  0  0
    4.9589    3.4959   -2.5044 H   0  0  0  0  0  0  0  0  0  0  0  0
    0.3569   -2.5557    0.0039 H   0  0  0  0  0  0  0  0  0  0  0  0
    0.9961   -1.7025    3.4979 H   0  0  0  0  0  0  0  0  0  0  0  0
    0.1970   -1.4139    1.9496 H   0  0  0  0  0  0  0  0  0  0  0  0
    1.2702   -0.1842    2.6203 H   0  0  0  0  0  0  0  0  0  0  0  0
    0.6865   -3.7946   -1.9903 H   0  0  0  0  0  0  0  0  0  0  0  0
    2.4698   -4.0590   -1.6604 H   0  0  0  0  0  0  0  0  0  0  0  0
  1 22  1  0  0  0  0
  1 64  1  0  0  0  0
  2 22  2  0  0  0  0
  3 23  2  0  0  0  0
  4 29  1  0  0  0  0
  4 74  1  0  0  0  0
  5 29  2  0  0  0  0
  6 40  2  0  0  0  0
  7 13  1  0  0  0  0
  7 14  1  0  0  0  0
  7 47  1  0  0  0  0
  8 18  1  0  0  0  0
  8 25  1  0  0  0  0
  8 57  1  0  0  0  0
  9 27  1  0  0  0  0
  9 31  1  0  0  0  0
  9 63  1  0  0  0  0
 10 34  1  0  0  0  0
 10 40  1  0  0  0  0
 10 73  1  0  0  0  0
 11 12  1  0  0  0  0
 11 14  1  0  0  0  0
 11 15  1  0  0  0  0
 11 44  1  0  0  0  0
 12 13  1  0  0  0  0
 12 17  1  0  0  0  0
 12 45  1  0  0  0  0
 13 22  1  0  0  0  0
 13 46  1  0  0  0  0
 14 16  2  0  0  0  0
 15 21  1  0  0  0  0
 15 48  1  0  0  0  0
 15 49  1  0  0  0  0
 16 18  1  0  0  0  0
 16 19  1  0  0  0  0
 17 50  1  0  0  0  0
 17 51  1  0  0  0  0
 17 52  1  0  0  0  0
 18 20  2  0  0  0  0
 19 23  1  0  0  0  0
 19 53  1  0  0  0  0
 19 54  1  0  0  0  0
 20 23  1  0  0  0  0
 20 24  1  0  0  0  0
 21 29  1  0  0  0  0
 21 55  1  0  0  0  0
 21 56  1  0  0  0  0
 24 25  2  0  0  0  0
 24 28  1  0  0  0  0
 25 26  1  0  0  0  0
 26 27  1  0  0  0  0
 26 58  1  0  0  0  0
 26 59  1  0  0  0  0
 27 30  2  0  0  0  0
 28 60  1  0  0  0  0
 28 61  1  0  0  0  0
 28 62  1  0  0  0  0
 30 32  1  0  0  0  0
 30 35  1  0  0  0  0
 31 32  2  0  0  0  0
 31 33  1  0  0  0  0
 32 37  1  0  0  0  0
 33 34  1  0  0  0  0
 33 65  1  0  0  0  0
 33 66  1  0  0  0  0
 34 36  1  0  0  0  0
 34 67  1  0  0  0  0
 35 39  1  0  0  0  0
 35 68  1  0  0  0  0
 35 69  1  0  0  0  0
 36 38  2  0  0  0  0
 36 41  1  0  0  0  0
 37 70  1  0  0  0  0
 37 71  1  0  0  0  0
 37 72  1  0  0  0  0
 38 40  1  0  0  0  0
 38 42  1  0  0  0  0
 39 75  1  0  0  0  0
 39 76  1  0  0  0  0
 39 77  1  0  0  0  0
 41 43  2  0  0  0  0
 41 78  1  0  0  0  0
 42 79  1  0  0  0  0
 42 80  1  0  0  0  0
 42 81  1  0  0  0  0
 43 82  1  0  0  0  0
 43 83  1  0  0  0  0
M  END
> <PUBCHEM_COMPOUND_CID>
50986257

> <PUBCHEM_CONFORMER_RMSD>
1.2

> <PUBCHEM_CONFORMER_DIVERSEORDER>
4
41
32
123
108
152
160
9
127
39
44
75
112
84
38
138
85
1
129
72
67
30
142
16
10
151
139
122
58
131
76
27
87
111
135
144
59
140
130
119
8
117
102
103
157
121
57
148
109
133
21
125
35
98
22
147
150
34
163
49
128
25
113
42
79
146
61
47
136
37
31
159
107
143
65
114
83
11
105
161
91
149
132
55
118
86
106
115
96
156
53
77
50
56
43
81
52
24
62
99
45
60
155
162
110
82
69
51
126
88
33
66
46
73
80
116
145
28
141
20
97
78
12
17
137
5
153
101
54
95
158
29
64
71
93
3
14
15
94
26
70
6
18
36
48
90
100
7
74
134
2
124
104
89
63
154
13
40
120
92
23
68
19

> <PUBCHEM_MMFF94_PARTIAL_CHARGES>
48
1 -0.65
10 -0.73
11 0.14
13 0.43
14 -0.04
16 -0.09
18 -0.2
19 0.2
2 -0.57
20 -0.09
21 0.06
22 0.66
23 0.6
24 -0.18
25 -0.33
26 0.36
27 -0.33
28 0.18
29 0.66
3 -0.57
30 -0.18
31 -0.33
32 -0.18
33 0.18
34 0.44
35 0.18
36 -0.14
37 0.18
38 -0.12
4 -0.65
40 0.62
41 -0.15
42 0.14
43 -0.3
47 0.4
5 -0.57
57 0.27
6 -0.57
63 0.27
64 0.5
7 -0.87
73 0.37
74 0.5
78 0.15
8 0.03
82 0.15
83 0.15
9 0.03

> <PUBCHEM_EFFECTIVE_ROTOR_COUNT>
11.4

> <PUBCHEM_PHARMACOPHORE_FEATURES>
22
1 1 acceptor
1 10 donor
1 2 acceptor
1 3 acceptor
1 39 hydrophobe
1 4 acceptor
1 43 hydrophobe
1 5 acceptor
1 6 acceptor
1 7 cation
1 7 donor
1 8 cation
1 8 donor
1 9 cation
1 9 donor
3 1 2 22 anion
3 4 5 29 anion
5 10 34 36 38 40 rings
5 16 18 19 20 23 rings
5 7 11 12 13 14 rings
5 8 18 20 24 25 rings
5 9 27 30 31 32 rings

> <PUBCHEM_HEAVY_ATOM_COUNT>
43

> <PUBCHEM_ATOM_DEF_STEREO_COUNT>
3

> <PUBCHEM_ATOM_UDEF_STEREO_COUNT>
1

> <PUBCHEM_BOND_DEF_STEREO_COUNT>
1

> <PUBCHEM_BOND_UDEF_STEREO_COUNT>
0

> <PUBCHEM_ISOTOPIC_ATOM_COUNT>
0

> <PUBCHEM_COMPONENT_COUNT>
1

> <PUBCHEM_CACTVS_TAUTO_COUNT>
42

> <PUBCHEM_CONFORMER_ID>
0309FD1100000004

> <PUBCHEM_MMFF94_ENERGY>
90.7881

> <PUBCHEM_FEATURE_SELFOVERLAP>
111.992

> <PUBCHEM_SHAPE_MULTIPOLES>
829.78
15.62
5.4
2.36
19.34
2.25
-0.52
0.32
1.16
-3.28
-0.29
-0.54
-1.2
-3.87

> <PUBCHEM_SHAPE_SELFOVERLAP>
1801.04

> <PUBCHEM_SHAPE_VOLUME>
457.2

> <PUBCHEM_COORDINATE_TYPE>
2
5
10

$$$$

