17396362
  -OEChem-06241222563D

 32 34  0     0  0  0  0  0  0999 V2000
   -4.8021   -3.2364    0.1252 Cl  0  0  0  0  0  0  0  0  0  0  0  0
   -2.5380    2.1810   -0.1429 O   0  0  0  0  0  0  0  0  0  0  0  0
    4.8684   -0.0368    0.4937 O   0  0  0  0  0  0  0  0  0  0  0  0
    1.7187    1.9950    1.1350 O   0  0  0  0  0  0  0  0  0  0  0  0
    1.8483    0.8668   -0.9010 N   0  0  0  0  0  0  0  0  0  0  0  0
   -0.2599    1.2109    0.1402 C   0  0  0  0  0  0  0  0  0  0  0  0
   -2.1664   -0.2187    0.0582 C   0  0  0  0  0  0  0  0  0  0  0  0
   -1.1486    2.4136    0.1387 C   0  0  0  0  0  0  0  0  0  0  0  0
   -3.0021    0.8968   -0.0587 C   0  0  0  0  0  0  0  0  0  0  0  0
   -0.7214   -0.0410    0.0999 C   0  0  0  0  0  0  0  0  0  0  0  0
    1.1904    1.4046    0.1923 C   0  0  0  0  0  0  0  0  0  0  0  0
    3.2816    0.9355   -1.0739 C   0  0  0  0  0  0  0  0  0  0  0  0
   -2.7305   -1.4988    0.1143 C   0  0  0  0  0  0  0  0  0  0  0  0
   -4.3880    0.7323   -0.1273 C   0  0  0  0  0  0  0  0  0  0  0  0
    3.9564   -0.2733   -0.4852 C   0  0  0  0  0  0  0  0  0  0  0  0
   -4.1157   -1.6596    0.0545 C   0  0  0  0  0  0  0  0  0  0  0  0
   -4.9435   -0.5451   -0.0670 C   0  0  0  0  0  0  0  0  0  0  0  0
    3.8494   -1.6226   -0.7299 C   0  0  0  0  0  0  0  0  0  0  0  0
    4.7540   -2.2558    0.1555 C   0  0  0  0  0  0  0  0  0  0  0  0
    5.3491   -1.2482    0.8783 C   0  0  0  0  0  0  0  0  0  0  0  0
   -1.0936    2.9140    1.1124 H   0  0  0  0  0  0  0  0  0  0  0  0
   -0.7957    3.1270   -0.6147 H   0  0  0  0  0  0  0  0  0  0  0  0
   -0.0791   -0.9144    0.1144 H   0  0  0  0  0  0  0  0  0  0  0  0
    3.6604    1.8521   -0.6093 H   0  0  0  0  0  0  0  0  0  0  0  0
    3.4839    0.9830   -2.1486 H   0  0  0  0  0  0  0  0  0  0  0  0
    1.3150    0.3993   -1.6288 H   0  0  0  0  0  0  0  0  0  0  0  0
   -2.0878   -2.3727    0.2032 H   0  0  0  0  0  0  0  0  0  0  0  0
   -5.0406    1.5957   -0.2263 H   0  0  0  0  0  0  0  0  0  0  0  0
   -6.0235   -0.6564   -0.1184 H   0  0  0  0  0  0  0  0  0  0  0  0
    3.2012   -2.0934   -1.4551 H   0  0  0  0  0  0  0  0  0  0  0  0
    4.9477   -3.3141    0.2546 H   0  0  0  0  0  0  0  0  0  0  0  0
    6.0936   -1.2286    1.6606 H   0  0  0  0  0  0  0  0  0  0  0  0
  1 16  1  0  0  0  0
  2  8  1  0  0  0  0
  2  9  1  0  0  0  0
  3 15  1  0  0  0  0
  3 20  1  0  0  0  0
  4 11  2  0  0  0  0
  5 11  1  0  0  0  0
  5 12  1  0  0  0  0
  5 26  1  0  0  0  0
  6  8  1  0  0  0  0
  6 10  2  0  0  0  0
  6 11  1  0  0  0  0
  7  9  2  0  0  0  0
  7 10  1  0  0  0  0
  7 13  1  0  0  0  0
  8 21  1  0  0  0  0
  8 22  1  0  0  0  0
  9 14  1  0  0  0  0
 10 23  1  0  0  0  0
 12 15  1  0  0  0  0
 12 24  1  0  0  0  0
 12 25  1  0  0  0  0
 13 16  2  0  0  0  0
 13 27  1  0  0  0  0
 14 17  2  0  0  0  0
 14 28  1  0  0  0  0
 15 18  2  0  0  0  0
 16 17  1  0  0  0  0
 17 29  1  0  0  0  0
 18 19  1  0  0  0  0
 18 30  1  0  0  0  0
 19 20  2  0  0  0  0
 19 31  1  0  0  0  0
 20 32  1  0  0  0  0
M  END
> <PUBCHEM_COMPOUND_CID>
17396362

> <PUBCHEM_CONFORMER_RMSD>
0.6

> <PUBCHEM_CONFORMER_DIVERSEORDER>
1
21
37
63
66
72
58
38
60
29
25
11
61
26
67
68
44
45
36
30
56
9
59
14
52
27
71
34
57
74
54
4
35
13
5
17
50
53
12
42
3
75
6
49
18
20
73
47
65
32
24
51
33
23
69
28
10
7
40
70
2
19
41
48
31
43
55
8
64
39
16
22
15
46
62

> <PUBCHEM_MMFF94_PARTIAL_CHARGES>
28
1 -0.18
10 -0.18
11 0.62
12 0.48
13 -0.15
14 -0.15
15 -0.04
16 0.18
17 -0.15
18 -0.15
19 -0.15
2 -0.36
20 -0.01
23 0.15
26 0.37
27 0.15
28 0.15
29 0.15
3 -0.28
30 0.15
31 0.15
32 0.15
4 -0.57
5 -0.73
6 -0.12
7 0.03
8 0.42
9 0.08

> <PUBCHEM_EFFECTIVE_ROTOR_COUNT>
4.4

> <PUBCHEM_PHARMACOPHORE_FEATURES>
7
1 2 acceptor
1 3 acceptor
1 4 acceptor
1 5 donor
5 3 15 18 19 20 rings
6 2 6 7 8 9 10 rings
6 7 9 13 14 16 17 rings

> <PUBCHEM_HEAVY_ATOM_COUNT>
20

> <PUBCHEM_ATOM_DEF_STEREO_COUNT>
0

> <PUBCHEM_ATOM_UDEF_STEREO_COUNT>
0

> <PUBCHEM_BOND_DEF_STEREO_COUNT>
0

> <PUBCHEM_BOND_UDEF_STEREO_COUNT>
0

> <PUBCHEM_ISOTOPIC_ATOM_COUNT>
0

> <PUBCHEM_COMPONENT_COUNT>
1

> <PUBCHEM_CACTVS_TAUTO_COUNT>
2

> <PUBCHEM_CONFORMER_ID>
0109728A00000001

> <PUBCHEM_MMFF94_ENERGY>
41.0042

> <PUBCHEM_FEATURE_SELFOVERLAP>
35.551

> <PUBCHEM_SHAPE_FINGERPRINT>
11405975 8 18259980445101673457
11796584 16 18340491161378896670
12555020 224 18412272752856281431
13167823 11 18343581849952112902
13955234 65 17902226715600975833
1420 369 18410007745612095614
14216079 64 18266739092055534419
14251751 18 18409452466317342826
14251764 30 17843668981886052275
14347332 77 18339925918556835959
14790565 3 17399512819792400065
14848178 5 18412269445262140126
14848178 96 10159160323415245343
14866123 147 18335977679886548209
15196674 1 18411417306438752278
15239154 128 8718823180714463022
15352361 1 18410292514607078734
17492 89 18410852187912429734
17857418 61 18410295795988557639
1813 80 17775289335050633420
20281475 54 18409722963336623576
20374829 77 18411983550842871775
20403669 9 18335134306295014719
20626108 58 18272938232705693656
21250096 35 18334013921510983498
23402539 116 18336270128061757357
23403322 49 18411135818861774975
23559900 14 18410017606514479657
239999 70 18113609059592863236
25122255 55 18261945375412537366
3004659 81 18272646862045276990
316301 35 18265336105662739043
335352 9 18410575111340575685
3421961 26 18262801744245519896
4214541 1 18340205296914194956
44062 13 18341048601047695407
4921388 177 16343408515199976459
5104073 3 18187077309383886833
559249 180 18128822021731289131
573450 72 18341332292148402832
633830 44 15984811662513528228
7062679 13 18339360752046933339
76465 3 18409450250129788855
7808743 9 9151166545755251334
7970288 3 18122908625477067171
960060 61 17417800760768668678
9709674 26 18271802359177999114

> <PUBCHEM_SHAPE_MULTIPOLES>
390.87
12.65
2.93
0.84
5.66
0.95
0.01
9.38
-0.43
-1.75
-0.24
0.74
-0.07
-0.09

> <PUBCHEM_SHAPE_SELFOVERLAP>
843.324

> <PUBCHEM_SHAPE_VOLUME>
215.1

> <PUBCHEM_COORDINATE_TYPE>
2
5
10

$$$$

