17396252
  -OEChem-06241222552D

 42 44  0     0  0  0  0  0  0999 V2000
    2.0000    1.2500    0.0000 F   0  0  0  0  0  0  0  0  0  0  0  0
   10.6882   -0.7847    0.0000 O   0  0  0  0  0  0  0  0  0  0  0  0
   10.6882    1.2847    0.0000 O   0  0  0  0  0  0  0  0  0  0  0  0
    8.9282   -1.7500    0.0000 O   0  0  0  0  0  0  0  0  0  0  0  0
    7.1962    2.2500    0.0000 O   0  0  0  0  0  0  0  0  0  0  0  0
    6.3301    0.7500    0.0000 N   0  0  0  0  0  0  0  0  0  0  0  0
    9.7942   -0.2500    0.0000 C   0  0  0  0  0  0  0  0  0  0  0  0
    9.7942    0.7500    0.0000 C   0  0  0  0  0  0  0  0  0  0  0  0
    8.0622    0.7500    0.0000 C   0  0  0  0  0  0  0  0  0  0  0  0
    8.9282   -0.7500    0.0000 C   0  0  0  0  0  0  0  0  0  0  0  0
    8.9282    1.2500    0.0000 C   0  0  0  0  0  0  0  0  0  0  0  0
   11.5942   -0.2708    0.0000 C   0  0  0  0  0  0  0  0  0  0  0  0
   11.5942    0.7708    0.0000 C   0  0  0  0  0  0  0  0  0  0  0  0
    8.0622   -0.2500    0.0000 C   0  0  0  0  0  0  0  0  0  0  0  0
    5.4641    1.2500    0.0000 C   0  0  0  0  0  0  0  0  0  0  0  0
    4.5981    0.7500    0.0000 C   0  0  0  0  0  0  0  0  0  0  0  0
    7.1962    1.2500    0.0000 C   0  0  0  0  0  0  0  0  0  0  0  0
    3.7320    1.2500    0.0000 C   0  0  0  0  0  0  0  0  0  0  0  0
    4.5981   -0.2500    0.0000 C   0  0  0  0  0  0  0  0  0  0  0  0
    2.8660   -0.2500    0.0000 C   0  0  0  0  0  0  0  0  0  0  0  0
    2.8660    0.7500    0.0000 C   0  0  0  0  0  0  0  0  0  0  0  0
    3.7320   -0.7500    0.0000 C   0  0  0  0  0  0  0  0  0  0  0  0
    2.0000   -0.7500    0.0000 C   0  0  0  0  0  0  0  0  0  0  0  0
    8.0622   -2.2500    0.0000 C   0  0  0  0  0  0  0  0  0  0  0  0
    8.9282    1.8700    0.0000 H   0  0  0  0  0  0  0  0  0  0  0  0
   11.8033   -0.8545    0.0000 H   0  0  0  0  0  0  0  0  0  0  0  0
   12.2051   -0.1647    0.0000 H   0  0  0  0  0  0  0  0  0  0  0  0
   12.2051    0.6647    0.0000 H   0  0  0  0  0  0  0  0  0  0  0  0
   11.8033    1.3545    0.0000 H   0  0  0  0  0  0  0  0  0  0  0  0
    7.5252   -0.5600    0.0000 H   0  0  0  0  0  0  0  0  0  0  0  0
    5.8626    1.7250    0.0000 H   0  0  0  0  0  0  0  0  0  0  0  0
    5.0656    1.7250    0.0000 H   0  0  0  0  0  0  0  0  0  0  0  0
    6.3301    0.1300    0.0000 H   0  0  0  0  0  0  0  0  0  0  0  0
    3.7320    1.8700    0.0000 H   0  0  0  0  0  0  0  0  0  0  0  0
    5.1350   -0.5600    0.0000 H   0  0  0  0  0  0  0  0  0  0  0  0
    3.7320   -1.3700    0.0000 H   0  0  0  0  0  0  0  0  0  0  0  0
    1.6900   -0.2131    0.0000 H   0  0  0  0  0  0  0  0  0  0  0  0
    1.4631   -1.0600    0.0000 H   0  0  0  0  0  0  0  0  0  0  0  0
    2.3100   -1.2869    0.0000 H   0  0  0  0  0  0  0  0  0  0  0  0
    7.7522   -1.7131    0.0000 H   0  0  0  0  0  0  0  0  0  0  0  0
    7.5252   -2.5600    0.0000 H   0  0  0  0  0  0  0  0  0  0  0  0
    8.3722   -2.7869    0.0000 H   0  0  0  0  0  0  0  0  0  0  0  0
  1 21  1  0  0  0  0
  2  7  1  0  0  0  0
  2 12  1  0  0  0  0
  3  8  1  0  0  0  0
  3 13  1  0  0  0  0
  4 10  1  0  0  0  0
  4 24  1  0  0  0  0
  5 17  2  0  0  0  0
  6 15  1  0  0  0  0
  6 17  1  0  0  0  0
  6 33  1  0  0  0  0
  7  8  2  0  0  0  0
  7 10  1  0  0  0  0
  8 11  1  0  0  0  0
  9 11  2  0  0  0  0
  9 14  1  0  0  0  0
  9 17  1  0  0  0  0
 10 14  2  0  0  0  0
 11 25  1  0  0  0  0
 12 13  1  0  0  0  0
 12 26  1  0  0  0  0
 12 27  1  0  0  0  0
 13 28  1  0  0  0  0
 13 29  1  0  0  0  0
 14 30  1  0  0  0  0
 15 16  1  0  0  0  0
 15 31  1  0  0  0  0
 15 32  1  0  0  0  0
 16 18  2  0  0  0  0
 16 19  1  0  0  0  0
 18 21  1  0  0  0  0
 18 34  1  0  0  0  0
 19 22  2  0  0  0  0
 19 35  1  0  0  0  0
 20 21  2  0  0  0  0
 20 22  1  0  0  0  0
 20 23  1  0  0  0  0
 22 36  1  0  0  0  0
 23 37  1  0  0  0  0
 23 38  1  0  0  0  0
 23 39  1  0  0  0  0
 24 40  1  0  0  0  0
 24 41  1  0  0  0  0
 24 42  1  0  0  0  0
M  END
> <PUBCHEM_COMPOUND_CID>
17396252

> <PUBCHEM_COMPOUND_CANONICALIZED>
1

> <PUBCHEM_CACTVS_COMPLEXITY>
435

> <PUBCHEM_CACTVS_HBOND_ACCEPTOR>
5

> <PUBCHEM_CACTVS_HBOND_DONOR>
1

> <PUBCHEM_CACTVS_ROTATABLE_BOND>
4

> <PUBCHEM_CACTVS_SUBSKEYS>
AAADceB6OQAAAAAAAAAAAAAAAAAAAAAAAAA0YIAAAAAAAACRQAAAHwAQAAAADAThmA4yBoLABACIAiFSEACCCAAkIAAIiIEOjMgNJzKEtRuGOSrlxhWKqYe6/B7OYAABCAAAQADAAAIQAACAAAAAAAAAAA==

> <PUBCHEM_IUPAC_OPENEYE_NAME>
N-[(3-fluoro-4-methyl-phenyl)methyl]-5-methoxy-2,3-dihydro-1,4-benzodioxine-7-carboxamide

> <PUBCHEM_IUPAC_CAS_NAME>
N-[(3-fluoro-4-methylphenyl)methyl]-5-methoxy-2,3-dihydro-1,4-benzodioxin-7-carboxamide

> <PUBCHEM_IUPAC_NAME>
N-[(3-fluoro-4-methylphenyl)methyl]-5-methoxy-2,3-dihydro-1,4-benzodioxine-7-carboxamide

> <PUBCHEM_IUPAC_SYSTEMATIC_NAME>
N-[(3-fluoranyl-4-methyl-phenyl)methyl]-5-methoxy-2,3-dihydro-1,4-benzodioxine-7-carboxamide

> <PUBCHEM_IUPAC_TRADITIONAL_NAME>
N-(3-fluoro-4-methyl-benzyl)-5-methoxy-2,3-dihydro-1,4-benzodioxin-7-carboxamide

> <PUBCHEM_IUPAC_INCHI>
InChI=1S/C18H18FNO4/c1-11-3-4-12(7-14(11)19)10-20-18(21)13-8-15(22-2)17-16(9-13)23-5-6-24-17/h3-4,7-9H,5-6,10H2,1-2H3,(H,20,21)

> <PUBCHEM_IUPAC_INCHIKEY>
NNVMIDJTCXIPLQ-UHFFFAOYSA-N

> <PUBCHEM_XLOGP3_AA>
2.8

> <PUBCHEM_EXACT_MASS>
331.121986

> <PUBCHEM_MOLECULAR_FORMULA>
C18H18FNO4

> <PUBCHEM_MOLECULAR_WEIGHT>
331.338223

> <PUBCHEM_OPENEYE_CAN_SMILES>
CC1=C(C=C(C=C1)CNC(=O)C2=CC3=C(C(=C2)OC)OCCO3)F

> <PUBCHEM_OPENEYE_ISO_SMILES>
CC1=C(C=C(C=C1)CNC(=O)C2=CC3=C(C(=C2)OC)OCCO3)F

> <PUBCHEM_CACTVS_TPSA>
56.8

> <PUBCHEM_MONOISOTOPIC_WEIGHT>
331.121986

> <PUBCHEM_TOTAL_CHARGE>
0

> <PUBCHEM_HEAVY_ATOM_COUNT>
24

> <PUBCHEM_ATOM_DEF_STEREO_COUNT>
0

> <PUBCHEM_ATOM_UDEF_STEREO_COUNT>
0

> <PUBCHEM_BOND_DEF_STEREO_COUNT>
0

> <PUBCHEM_BOND_UDEF_STEREO_COUNT>
0

> <PUBCHEM_ISOTOPIC_ATOM_COUNT>
0

> <PUBCHEM_COMPONENT_COUNT>
1

> <PUBCHEM_CACTVS_TAUTO_COUNT>
2

> <PUBCHEM_COORDINATE_TYPE>
1
5
255

> <PUBCHEM_BONDANNOTATIONS>
10  14  8
16  18  8
16  19  8
18  21  8
19  22  8
20  21  8
20  22  8
7  10  8
7  8  8
8  11  8
9  11  8
9  14  8

$$$$

