46173815
  -OEChem-07051213092D

 67 72  0     1  0  0  0  0  0999 V2000
    5.4275   -2.2690    0.0000 O   0  0  0  0  0  0  0  0  0  0  0  0
    3.3389    1.4017    0.0000 O   0  0  0  0  0  0  0  0  0  0  0  0
    8.1221   -2.8106    0.0000 O   0  0  0  0  0  0  0  0  0  0  0  0
    4.5896   -2.7967    0.0000 O   0  0  0  0  0  0  0  0  0  0  0  0
    5.9546    1.6280    0.0000 O   0  0  0  0  0  0  0  0  0  0  0  0
    7.2161   -4.3314    0.0000 O   0  0  0  0  0  0  0  0  0  0  0  0
   10.0429   -0.0441    0.0000 O   0  0  0  0  0  0  0  0  0  0  0  0
    4.0563    3.9138    0.0000 O   0  0  0  0  0  0  0  0  0  0  0  0
    2.8897    2.6336    0.0000 O   0  0  0  0  0  0  0  0  0  0  0  0
    6.3380   -1.7621    0.0000 C   0  0  1  0  0  0  0  0  0  0  0  0
    5.4720   -1.2621    0.0000 C   0  0  1  0  0  0  0  0  0  0  0  0
    5.4720   -0.2621    0.0000 C   0  0  1  0  0  0  0  0  0  0  0  0
    7.2040   -1.2621    0.0000 C   0  0  1  0  0  0  0  0  0  0  0  0
    4.5780    0.2725    0.0000 C   0  0  2  0  0  0  0  0  0  0  0  0
    6.3220   -2.8036    0.0000 C   0  0  1  0  0  0  0  0  0  0  0  0
    3.6720   -0.2413    0.0000 C   0  0  1  0  0  0  0  0  0  0  0  0
    6.3380    0.2379    0.0000 C   0  0  0  0  0  0  0  0  0  0  0  0
    7.2040   -0.2621    0.0000 C   0  0  0  0  0  0  0  0  0  0  0  0
    4.5780   -1.7968    0.0000 C   0  0  0  0  0  0  0  0  0  0  0  0
    4.3680    1.2865    0.0000 C   0  0  2  0  0  0  0  0  0  0  0  0
    3.6720   -1.2830    0.0000 C   0  0  0  0  0  0  0  0  0  0  0  0
    8.1140   -1.7690    0.0000 C   0  0  2  0  0  0  0  0  0  0  0  0
    2.9097    0.4594    0.0000 C   0  0  0  0  0  0  0  0  0  0  0  0
    6.1221   -2.3879    0.0000 C   0  0  0  0  0  0  0  0  0  0  0  0
    5.4479    0.7658    0.0000 C   0  0  0  0  0  0  0  0  0  0  0  0
    8.0701   -0.7621    0.0000 C   0  0  0  0  0  0  0  0  0  0  0  0
    7.2200   -3.3314    0.0000 C   0  0  0  0  0  0  0  0  0  0  0  0
    4.5817    2.2633    0.0000 C   0  0  0  0  0  0  0  0  0  0  0  0
    2.0000    0.8748    0.0000 C   0  0  0  0  0  0  0  0  0  0  0  0
    2.2336   -0.2774    0.0000 C   0  0  0  0  0  0  0  0  0  0  0  0
    8.9742   -1.2590    0.0000 C   0  0  0  0  0  0  0  0  0  0  0  0
    3.8426    2.9369    0.0000 C   0  0  0  0  0  0  0  0  0  0  0  0
    9.8924   -1.6552    0.0000 C   0  0  0  0  0  0  0  0  0  0  0  0
    9.0672   -0.2633    0.0000 C   0  0  0  0  0  0  0  0  0  0  0  0
   10.5529   -0.9043    0.0000 C   0  0  0  0  0  0  0  0  0  0  0  0
    6.2081   -0.6871    0.0000 H   0  0  0  0  0  0  0  0  0  0  0  0
    5.8886   -3.5349    0.0000 H   0  0  0  0  0  0  0  0  0  0  0  0
    2.8937   -0.5830    0.0000 H   0  0  0  0  0  0  0  0  0  0  0  0
    6.7366    0.7128    0.0000 H   0  0  0  0  0  0  0  0  0  0  0  0
    5.9395    0.7128    0.0000 H   0  0  0  0  0  0  0  0  0  0  0  0
    7.8146   -0.3698    0.0000 H   0  0  0  0  0  0  0  0  0  0  0  0
    7.4161    0.3205    0.0000 H   0  0  0  0  0  0  0  0  0  0  0  0
    4.0067    1.7904    0.0000 H   0  0  0  0  0  0  0  0  0  0  0  0
    3.0611   -1.1769    0.0000 H   0  0  0  0  0  0  0  0  0  0  0  0
    3.4629   -1.8666    0.0000 H   0  0  0  0  0  0  0  0  0  0  0  0
    8.6539   -2.0738    0.0000 H   0  0  0  0  0  0  0  0  0  0  0  0
    5.5852   -2.6980    0.0000 H   0  0  0  0  0  0  0  0  0  0  0  0
    6.4322   -2.9248    0.0000 H   0  0  0  0  0  0  0  0  0  0  0  0
    6.6590   -2.0779    0.0000 H   0  0  0  0  0  0  0  0  0  0  0  0
    5.5509    0.1544    0.0000 H   0  0  0  0  0  0  0  0  0  0  0  0
    5.0129    1.2076    0.0000 H   0  0  0  0  0  0  0  0  0  0  0  0
    8.3801   -1.2991    0.0000 H   0  0  0  0  0  0  0  0  0  0  0  0
    8.6070   -0.4521    0.0000 H   0  0  0  0  0  0  0  0  0  0  0  0
    7.7601   -0.2252    0.0000 H   0  0  0  0  0  0  0  0  0  0  0  0
    5.1552    2.0276    0.0000 H   0  0  0  0  0  0  0  0  0  0  0  0
    4.9134    2.7872    0.0000 H   0  0  0  0  0  0  0  0  0  0  0  0
    2.2575    1.4388    0.0000 H   0  0  0  0  0  0  0  0  0  0  0  0
    1.4360    1.1323    0.0000 H   0  0  0  0  0  0  0  0  0  0  0  0
    1.7425    0.3108    0.0000 H   0  0  0  0  0  0  0  0  0  0  0  0
    1.7767    0.1418    0.0000 H   0  0  0  0  0  0  0  0  0  0  0  0
    1.8144   -0.7342    0.0000 H   0  0  0  0  0  0  0  0  0  0  0  0
    2.6904   -0.6966    0.0000 H   0  0  0  0  0  0  0  0  0  0  0  0
    6.5746    1.6232    0.0000 H   0  0  0  0  0  0  0  0  0  0  0  0
   10.0283   -2.2601    0.0000 H   0  0  0  0  0  0  0  0  0  0  0  0
    8.6017    0.1462    0.0000 H   0  0  0  0  0  0  0  0  0  0  0  0
   11.1702   -0.9620    0.0000 H   0  0  0  0  0  0  0  0  0  0  0  0
    3.5981    4.3314    0.0000 H   0  0  0  0  0  0  0  0  0  0  0  0
 10  1  1  1  0  0  0
  1 15  1  0  0  0  0
  2 20  1  0  0  0  0
  2 23  1  0  0  0  0
  3 22  1  0  0  0  0
  3 27  1  0  0  0  0
  4 19  2  0  0  0  0
  5 25  1  0  0  0  0
  5 63  1  0  0  0  0
  6 27  2  0  0  0  0
  7 34  1  0  0  0  0
  7 35  1  0  0  0  0
  8 32  1  0  0  0  0
  8 67  1  0  0  0  0
  9 32  2  0  0  0  0
 10 11  1  0  0  0  0
 10 13  1  0  0  0  0
 10 15  1  0  0  0  0
 11 12  1  0  0  0  0
 11 19  1  0  0  0  0
 11 24  1  1  0  0  0
 12 14  1  0  0  0  0
 12 17  1  0  0  0  0
 12 36  1  6  0  0  0
 13 18  1  0  0  0  0
 13 22  1  0  0  0  0
 13 26  1  6  0  0  0
 14 16  1  0  0  0  0
 14 20  1  0  0  0  0
 14 25  1  1  0  0  0
 15 27  1  0  0  0  0
 15 37  1  6  0  0  0
 16 21  1  0  0  0  0
 16 23  1  0  0  0  0
 16 38  1  6  0  0  0
 17 18  1  0  0  0  0
 17 39  1  0  0  0  0
 17 40  1  0  0  0  0
 18 41  1  0  0  0  0
 18 42  1  0  0  0  0
 19 21  1  0  0  0  0
 20 28  1  1  0  0  0
 20 43  1  0  0  0  0
 21 44  1  0  0  0  0
 21 45  1  0  0  0  0
 22 31  1  6  0  0  0
 22 46  1  0  0  0  0
 23 29  1  0  0  0  0
 23 30  1  0  0  0  0
 24 47  1  0  0  0  0
 24 48  1  0  0  0  0
 24 49  1  0  0  0  0
 25 50  1  0  0  0  0
 25 51  1  0  0  0  0
 26 52  1  0  0  0  0
 26 53  1  0  0  0  0
 26 54  1  0  0  0  0
 28 32  1  0  0  0  0
 28 55  1  0  0  0  0
 28 56  1  0  0  0  0
 29 57  1  0  0  0  0
 29 58  1  0  0  0  0
 29 59  1  0  0  0  0
 30 60  1  0  0  0  0
 30 61  1  0  0  0  0
 30 62  1  0  0  0  0
 31 33  1  0  0  0  0
 31 34  2  0  0  0  0
 33 35  2  0  0  0  0
 33 64  1  0  0  0  0
 34 65  1  0  0  0  0
 35 66  1  0  0  0  0
M  END
> <PUBCHEM_COMPOUND_CID>
46173815

> <PUBCHEM_COMPOUND_CANONICALIZED>
1

> <PUBCHEM_CACTVS_COMPLEXITY>
993

> <PUBCHEM_CACTVS_HBOND_ACCEPTOR>
9

> <PUBCHEM_CACTVS_HBOND_DONOR>
2

> <PUBCHEM_CACTVS_ROTATABLE_BOND>
4

> <PUBCHEM_CACTVS_SUBSKEYS>
AAADcfB4PAAAAAAAAAAAAAAAEgAAASJAAAA0YIAABIAAAEjRgAAAGgAACAAAD1SgmAIyDIAABkCIAqjSiAICCAAkIAAIiAFGCMgNNxYENQ6CWSCl4BEKKYPK7vzvgAAAAAAAAACAAAYAADAAAAAAAAAAAA==

> <PUBCHEM_IUPAC_INCHI>
InChI=1S/C26H32O9/c1-22(2)15-9-16(28)24(4)14(25(15,12-27)17(34-22)10-18(29)30)5-7-23(3)19(13-6-8-32-11-13)33-21(31)20-26(23,24)35-20/h6,8,11,14-15,17,19-20,27H,5,7,9-10,12H2,1-4H3,(H,29,30)/t14-,15-,17-,19-,20+,23-,24-,25+,26+/m0/s1

> <PUBCHEM_IUPAC_INCHIKEY>
HFNBWQLGRFZSQW-MSGMIQHVSA-N

> <PUBCHEM_XLOGP3_AA>
1

> <PUBCHEM_EXACT_MASS>
488.204633

> <PUBCHEM_MOLECULAR_FORMULA>
C26H32O9

> <PUBCHEM_MOLECULAR_WEIGHT>
488.52688

> <PUBCHEM_OPENEYE_CAN_SMILES>
CC1(C2CC(=O)C3(C(C2(C(O1)CC(=O)O)CO)CCC4(C35C(O5)C(=O)OC4C6=COC=C6)C)C)C

> <PUBCHEM_OPENEYE_ISO_SMILES>
C[C@@]12CC[C@H]3[C@]([C@@]14[C@H](O4)C(=O)O[C@H]2C5=COC=C5)(C(=O)C[C@@H]6[C@@]3([C@@H](OC6(C)C)CC(=O)O)CO)C

> <PUBCHEM_CACTVS_TPSA>
136

> <PUBCHEM_MONOISOTOPIC_WEIGHT>
488.204633

> <PUBCHEM_TOTAL_CHARGE>
0

> <PUBCHEM_HEAVY_ATOM_COUNT>
35

> <PUBCHEM_ATOM_DEF_STEREO_COUNT>
9

> <PUBCHEM_ATOM_UDEF_STEREO_COUNT>
0

> <PUBCHEM_BOND_DEF_STEREO_COUNT>
0

> <PUBCHEM_BOND_UDEF_STEREO_COUNT>
0

> <PUBCHEM_ISOTOPIC_ATOM_COUNT>
0

> <PUBCHEM_COMPONENT_COUNT>
1

> <PUBCHEM_CACTVS_TAUTO_COUNT>
4

> <PUBCHEM_COORDINATE_TYPE>
1
5
255

> <PUBCHEM_BONDANNOTATIONS>
10  1  5
11  24  5
12  36  6
13  26  6
14  25  5
15  37  6
16  38  6
20  28  5
22  31  6
31  33  8
31  34  8
33  35  8
7  34  8
7  35  8

$$$$

