9975065
  -OEChem-07051213073D

 57 57  0     1  0  0  0  0  0999 V2000
   -3.5194    2.9377   -0.1740 O   0  0  0  0  0  0  0  0  0  0  0  0
    2.5817    0.6237   -0.0123 O   0  0  0  0  0  0  0  0  0  0  0  0
   -2.9174   -3.0985    1.1326 O   0  0  0  0  0  0  0  0  0  0  0  0
    2.9383    2.0666    1.7513 O   0  0  0  0  0  0  0  0  0  0  0  0
   -2.7484    0.7628    0.6194 C   0  0  2  0  0  0  0  0  0  0  0  0
   -2.3603    2.2347    0.2850 C   0  0  1  0  0  0  0  0  0  0  0  0
   -3.3784    0.0268   -0.5930 C   0  0  0  0  0  0  0  0  0  0  0  0
   -1.2352    2.4110   -0.7719 C   0  0  1  0  0  0  0  0  0  0  0  0
   -3.8310   -1.4285   -0.3394 C   0  0  1  0  0  0  0  0  0  0  0  0
   -3.6926    0.7358    1.8319 C   0  0  0  0  0  0  0  0  0  0  0  0
   -1.0502    3.8949   -1.1395 C   0  0  0  0  0  0  0  0  0  0  0  0
   -4.4353   -2.0395   -1.6039 C   0  0  0  0  0  0  0  0  0  0  0  0
    0.0635    1.7562   -0.3374 C   0  0  0  0  0  0  0  0  0  0  0  0
   -2.7233   -2.3404    0.1835 C   0  0  0  0  0  0  0  0  0  0  0  0
    3.7225   -0.2045    0.3434 C   0  0  1  0  0  0  0  0  0  0  0  0
    3.4451   -1.6321   -0.1900 C   0  0  2  0  0  0  0  0  0  0  0  0
    4.9713    0.4213   -0.2731 C   0  0  0  0  0  0  0  0  0  0  0  0
    1.0345    2.3478    0.3759 C   0  0  0  0  0  0  0  0  0  0  0  0
   -1.4047   -2.2868   -0.5014 C   0  0  0  0  0  0  0  0  0  0  0  0
    2.1337   -2.1252    0.3834 C   0  0  0  0  0  0  0  0  0  0  0  0
    4.5588   -2.6224    0.1504 C   0  0  0  0  0  0  0  0  0  0  0  0
    2.2826    1.6719    0.7966 C   0  0  0  0  0  0  0  0  0  0  0  0
   -0.2864   -2.4668    0.2124 C   0  0  0  0  0  0  0  0  0  0  0  0
    4.8345    0.5629   -1.7769 C   0  0  0  0  0  0  0  0  0  0  0  0
    1.0161   -2.2095   -0.3530 C   0  0  0  0  0  0  0  0  0  0  0  0
   -1.8369    0.2358    0.9224 H   0  0  0  0  0  0  0  0  0  0  0  0
   -2.0411    2.7214    1.2170 H   0  0  0  0  0  0  0  0  0  0  0  0
   -2.6680    0.0398   -1.4270 H   0  0  0  0  0  0  0  0  0  0  0  0
   -4.2538    0.5936   -0.9368 H   0  0  0  0  0  0  0  0  0  0  0  0
   -1.5428    1.9269   -1.7075 H   0  0  0  0  0  0  0  0  0  0  0  0
   -4.6195   -1.4188    0.4231 H   0  0  0  0  0  0  0  0  0  0  0  0
   -3.8267   -0.2817    2.2112 H   0  0  0  0  0  0  0  0  0  0  0  0
   -3.2830    1.3295    2.6564 H   0  0  0  0  0  0  0  0  0  0  0  0
   -4.6781    1.1410    1.5800 H   0  0  0  0  0  0  0  0  0  0  0  0
   -1.9203    4.2749   -1.6861 H   0  0  0  0  0  0  0  0  0  0  0  0
   -0.9142    4.5206   -0.2507 H   0  0  0  0  0  0  0  0  0  0  0  0
   -0.1808    4.0338   -1.7922 H   0  0  0  0  0  0  0  0  0  0  0  0
   -4.7475   -3.0744   -1.4260 H   0  0  0  0  0  0  0  0  0  0  0  0
   -5.3144   -1.4720   -1.9267 H   0  0  0  0  0  0  0  0  0  0  0  0
   -3.7174   -2.0496   -2.4310 H   0  0  0  0  0  0  0  0  0  0  0  0
    0.1752    0.7201   -0.6449 H   0  0  0  0  0  0  0  0  0  0  0  0
   -3.3779    3.8849   -0.0072 H   0  0  0  0  0  0  0  0  0  0  0  0
    3.8261   -0.2379    1.4364 H   0  0  0  0  0  0  0  0  0  0  0  0
    3.3360   -1.6047   -1.2809 H   0  0  0  0  0  0  0  0  0  0  0  0
    5.8701   -0.1520   -0.0255 H   0  0  0  0  0  0  0  0  0  0  0  0
    5.1149    1.4252    0.1446 H   0  0  0  0  0  0  0  0  0  0  0  0
    0.9175    3.3645    0.7372 H   0  0  0  0  0  0  0  0  0  0  0  0
   -1.3817   -1.9700   -1.5381 H   0  0  0  0  0  0  0  0  0  0  0  0
    2.0988   -2.3150    1.4541 H   0  0  0  0  0  0  0  0  0  0  0  0
    4.2831   -3.6406   -0.1472 H   0  0  0  0  0  0  0  0  0  0  0  0
    5.4860   -2.3738   -0.3749 H   0  0  0  0  0  0  0  0  0  0  0  0
    4.7699   -2.6334    1.2255 H   0  0  0  0  0  0  0  0  0  0  0  0
   -0.3341   -2.7169    1.2688 H   0  0  0  0  0  0  0  0  0  0  0  0
    4.8458   -0.4057   -2.2844 H   0  0  0  0  0  0  0  0  0  0  0  0
    3.9276    1.1014   -2.0676 H   0  0  0  0  0  0  0  0  0  0  0  0
    5.6862    1.1309   -2.1675 H   0  0  0  0  0  0  0  0  0  0  0  0
    1.0572   -1.9723   -1.4136 H   0  0  0  0  0  0  0  0  0  0  0  0
  1  6  1  0  0  0  0
  1 42  1  0  0  0  0
  2 15  1  0  0  0  0
  2 22  1  0  0  0  0
  3 14  2  0  0  0  0
  4 22  2  0  0  0  0
  5  6  1  0  0  0  0
  5  7  1  0  0  0  0
  5 10  1  0  0  0  0
  5 26  1  0  0  0  0
  6  8  1  0  0  0  0
  6 27  1  0  0  0  0
  7  9  1  0  0  0  0
  7 28  1  0  0  0  0
  7 29  1  0  0  0  0
  8 11  1  0  0  0  0
  8 13  1  0  0  0  0
  8 30  1  0  0  0  0
  9 12  1  0  0  0  0
  9 14  1  0  0  0  0
  9 31  1  0  0  0  0
 10 32  1  0  0  0  0
 10 33  1  0  0  0  0
 10 34  1  0  0  0  0
 11 35  1  0  0  0  0
 11 36  1  0  0  0  0
 11 37  1  0  0  0  0
 12 38  1  0  0  0  0
 12 39  1  0  0  0  0
 12 40  1  0  0  0  0
 13 18  2  0  0  0  0
 13 41  1  0  0  0  0
 14 19  1  0  0  0  0
 15 16  1  0  0  0  0
 15 17  1  0  0  0  0
 15 43  1  0  0  0  0
 16 20  1  0  0  0  0
 16 21  1  0  0  0  0
 16 44  1  0  0  0  0
 17 24  1  0  0  0  0
 17 45  1  0  0  0  0
 17 46  1  0  0  0  0
 18 22  1  0  0  0  0
 18 47  1  0  0  0  0
 19 23  2  0  0  0  0
 19 48  1  0  0  0  0
 20 25  2  0  0  0  0
 20 49  1  0  0  0  0
 21 50  1  0  0  0  0
 21 51  1  0  0  0  0
 21 52  1  0  0  0  0
 23 25  1  0  0  0  0
 23 53  1  0  0  0  0
 24 54  1  0  0  0  0
 24 55  1  0  0  0  0
 24 56  1  0  0  0  0
 25 57  1  0  0  0  0
M  END
> <PUBCHEM_COMPOUND_CID>
9975065

> <PUBCHEM_CONFORMER_RMSD>
0.6

> <PUBCHEM_CONFORMER_DIVERSEORDER>
1

> <PUBCHEM_MMFF94_PARTIAL_CHARGES>
24
1 -0.68
13 -0.29
14 0.49
15 0.28
16 0.14
18 -0.14
19 -0.14
2 -0.43
20 -0.29
22 0.71
23 -0.15
25 -0.15
3 -0.57
4 -0.57
41 0.15
42 0.4
47 0.15
48 0.15
49 0.15
53 0.15
57 0.15
6 0.28
8 0.14
9 0.06

> <PUBCHEM_EFFECTIVE_ROTOR_COUNT>
2.6

> <PUBCHEM_PHARMACOPHORE_FEATURES>
5
1 1 acceptor
1 1 donor
1 24 hydrophobe
1 3 acceptor
1 4 acceptor

> <PUBCHEM_HEAVY_ATOM_COUNT>
25

> <PUBCHEM_ATOM_DEF_STEREO_COUNT>
6

> <PUBCHEM_ATOM_UDEF_STEREO_COUNT>
0

> <PUBCHEM_BOND_DEF_STEREO_COUNT>
3

> <PUBCHEM_BOND_UDEF_STEREO_COUNT>
0

> <PUBCHEM_ISOTOPIC_ATOM_COUNT>
0

> <PUBCHEM_COMPONENT_COUNT>
1

> <PUBCHEM_CACTVS_TAUTO_COUNT>
2

> <PUBCHEM_CONFORMER_ID>
0098351900000001

> <PUBCHEM_MMFF94_ENERGY>
55.0537

> <PUBCHEM_FEATURE_SELFOVERLAP>
25.371

> <PUBCHEM_SHAPE_FINGERPRINT>
10616163 171 18411133628191103180
10670039 82 18341037567793696702
10708813 3 18334570218259357281
10759866 29 18129931399727379022
107951 10 17057515126999416833
10871710 139 18411417332598933431
1100329 8 17977952607115353050
11014199 57 17905601104054581706
11513181 2 18187079589732648046
11552529 35 17967535636253399881
12422481 6 18263906814288893339
12553582 1 18270959046892654305
12596599 1 17677324042968921615
12633257 1 18115301305801437433
12645989 146 18260834825429251726
13122387 1 17977950407822916099
13140716 1 18409162221049055859
13402501 40 18266739275783592577
13615921 28 17023190460827674969
138480 1 15889408494628056039
14251757 5 18193819656472668382
14363568 33 17550365359465629025
14617045 38 18338505421946702737
14765038 42 18115566228322738992
14790565 3 17832419074709899241
14840074 17 18340188783192138193
14931854 50 18411704274594388614
15196674 1 18337955692071313030
15210252 30 17843965836929393484
15537594 2 18338499920114565568
17093844 170 18266473000806977336
19591789 44 18409732902133318774
19930381 70 17402616247185524083
21673915 165 18408326557915270608
21857420 4 15150023702443209295
22113638 7 16828702504766639599
221357 26 18334013869713393982
23227448 37 18262803007461686015
23559900 14 18263654969632635305
3014063 31 18337963298199912119
3052486 1 18270686364220115000
3298306 158 17691416625521429933
338550 245 18342452681448785132
508706 21 18340212997848468398
5309563 4 18123182399292248299

> <PUBCHEM_SHAPE_MULTIPOLES>
491.01
9.7
4.68
1.3
5.56
0.98
0.02
-2.84
-1.14
-2.28
-0.37
-0.32
0.33
-0.22

> <PUBCHEM_SHAPE_SELFOVERLAP>
971.779

> <PUBCHEM_SHAPE_VOLUME>
290.2

> <PUBCHEM_COORDINATE_TYPE>
2
5
10

$$$$

