17396452
  -OEChem-06241222562D

 47 49  0     0  0  0  0  0  0999 V2000
    2.8660   -1.0000    0.0000 S   0  0  0  0  0  0  0  0  0  0  0  0
    5.4641   -2.5000    0.0000 O   0  0  0  0  0  0  0  0  0  0  0  0
    4.5981    1.0000    0.0000 N   0  0  0  0  0  0  0  0  0  0  0  0
    4.5981   -1.0000    0.0000 N   0  0  0  0  0  0  0  0  0  0  0  0
    2.0000   -2.5000    0.0000 N   0  0  0  0  0  0  0  0  0  0  0  0
    5.4641    0.5000    0.0000 C   0  0  0  0  0  0  0  0  0  0  0  0
    3.7320    0.5000    0.0000 C   0  0  0  0  0  0  0  0  0  0  0  0
    5.4641   -0.5000    0.0000 C   0  0  0  0  0  0  0  0  0  0  0  0
    3.7320   -0.5000    0.0000 C   0  0  0  0  0  0  0  0  0  0  0  0
    4.5981    2.0000    0.0000 C   0  0  0  0  0  0  0  0  0  0  0  0
    5.4641    2.5000    0.0000 C   0  0  0  0  0  0  0  0  0  0  0  0
    4.5981   -2.0000    0.0000 C   0  0  0  0  0  0  0  0  0  0  0  0
    3.7320   -2.5000    0.0000 C   0  0  0  0  0  0  0  0  0  0  0  0
    6.3301    2.0000    0.0000 C   0  0  0  0  0  0  0  0  0  0  0  0
    5.4641    3.5000    0.0000 C   0  0  0  0  0  0  0  0  0  0  0  0
    7.1962    2.5000    0.0000 C   0  0  0  0  0  0  0  0  0  0  0  0
    6.3301    4.0000    0.0000 C   0  0  0  0  0  0  0  0  0  0  0  0
    7.1962    3.5000    0.0000 C   0  0  0  0  0  0  0  0  0  0  0  0
    2.8660   -2.0000    0.0000 C   0  0  0  0  0  0  0  0  0  0  0  0
    3.7320   -3.5000    0.0000 C   0  0  0  0  0  0  0  0  0  0  0  0
    8.0622    2.0000    0.0000 C   0  0  0  0  0  0  0  0  0  0  0  0
    2.8660   -4.0000    0.0000 C   0  0  0  0  0  0  0  0  0  0  0  0
    2.0000   -3.5000    0.0000 C   0  0  0  0  0  0  0  0  0  0  0  0
    2.0000   -0.5000    0.0000 C   0  0  0  0  0  0  0  0  0  0  0  0
    6.0747    0.3923    0.0000 H   0  0  0  0  0  0  0  0  0  0  0  0
    5.6762    1.0826    0.0000 H   0  0  0  0  0  0  0  0  0  0  0  0
    3.5200    1.0826    0.0000 H   0  0  0  0  0  0  0  0  0  0  0  0
    3.1215    0.3923    0.0000 H   0  0  0  0  0  0  0  0  0  0  0  0
    5.6762   -1.0826    0.0000 H   0  0  0  0  0  0  0  0  0  0  0  0
    6.0747   -0.3923    0.0000 H   0  0  0  0  0  0  0  0  0  0  0  0
    3.1215   -0.3923    0.0000 H   0  0  0  0  0  0  0  0  0  0  0  0
    3.5200   -1.0826    0.0000 H   0  0  0  0  0  0  0  0  0  0  0  0
    4.3860    2.5826    0.0000 H   0  0  0  0  0  0  0  0  0  0  0  0
    3.9875    1.8923    0.0000 H   0  0  0  0  0  0  0  0  0  0  0  0
    6.3301    1.3800    0.0000 H   0  0  0  0  0  0  0  0  0  0  0  0
    4.9272    3.8100    0.0000 H   0  0  0  0  0  0  0  0  0  0  0  0
    6.3301    4.6200    0.0000 H   0  0  0  0  0  0  0  0  0  0  0  0
    7.7331    3.8100    0.0000 H   0  0  0  0  0  0  0  0  0  0  0  0
    4.2690   -3.8100    0.0000 H   0  0  0  0  0  0  0  0  0  0  0  0
    7.7522    1.4631    0.0000 H   0  0  0  0  0  0  0  0  0  0  0  0
    8.5991    1.6900    0.0000 H   0  0  0  0  0  0  0  0  0  0  0  0
    8.3722    2.5369    0.0000 H   0  0  0  0  0  0  0  0  0  0  0  0
    2.8660   -4.6200    0.0000 H   0  0  0  0  0  0  0  0  0  0  0  0
    1.4631   -3.8100    0.0000 H   0  0  0  0  0  0  0  0  0  0  0  0
    2.3100    0.0369    0.0000 H   0  0  0  0  0  0  0  0  0  0  0  0
    1.4631   -0.1900    0.0000 H   0  0  0  0  0  0  0  0  0  0  0  0
    1.6900   -1.0369    0.0000 H   0  0  0  0  0  0  0  0  0  0  0  0
  1 19  1  0  0  0  0
  1 24  1  0  0  0  0
  2 12  2  0  0  0  0
  3  6  1  0  0  0  0
  3  7  1  0  0  0  0
  3 10  1  0  0  0  0
  4  8  1  0  0  0  0
  4  9  1  0  0  0  0
  4 12  1  0  0  0  0
  5 19  1  0  0  0  0
  5 23  2  0  0  0  0
  6  8  1  0  0  0  0
  6 25  1  0  0  0  0
  6 26  1  0  0  0  0
  7  9  1  0  0  0  0
  7 27  1  0  0  0  0
  7 28  1  0  0  0  0
  8 29  1  0  0  0  0
  8 30  1  0  0  0  0
  9 31  1  0  0  0  0
  9 32  1  0  0  0  0
 10 11  1  0  0  0  0
 10 33  1  0  0  0  0
 10 34  1  0  0  0  0
 11 14  1  0  0  0  0
 11 15  2  0  0  0  0
 12 13  1  0  0  0  0
 13 19  2  0  0  0  0
 13 20  1  0  0  0  0
 14 16  2  0  0  0  0
 14 35  1  0  0  0  0
 15 17  1  0  0  0  0
 15 36  1  0  0  0  0
 16 18  1  0  0  0  0
 16 21  1  0  0  0  0
 17 18  2  0  0  0  0
 17 37  1  0  0  0  0
 18 38  1  0  0  0  0
 20 22  2  0  0  0  0
 20 39  1  0  0  0  0
 21 40  1  0  0  0  0
 21 41  1  0  0  0  0
 21 42  1  0  0  0  0
 22 23  1  0  0  0  0
 22 43  1  0  0  0  0
 23 44  1  0  0  0  0
 24 45  1  0  0  0  0
 24 46  1  0  0  0  0
 24 47  1  0  0  0  0
M  END
> <PUBCHEM_COMPOUND_CID>
17396452

> <PUBCHEM_COMPOUND_CANONICALIZED>
1

> <PUBCHEM_CACTVS_COMPLEXITY>
411

> <PUBCHEM_CACTVS_HBOND_ACCEPTOR>
4

> <PUBCHEM_CACTVS_HBOND_DONOR>
0

> <PUBCHEM_CACTVS_ROTATABLE_BOND>
4

> <PUBCHEM_CACTVS_SUBSKEYS>
AAADceB7IABAAAAAAAAAAAAAAAAAAAAAAAA8WIAAAAAAAAABwAAAHgQAAAAADADB2gS+gZMIEAioAjF3VACC0CB1CjAI2DE4ZNgIYPrg1ZGUIYhghgDIyccYgUAOAAACAAAAAAAAAAQAAAAAAAAAAAAAAA==

> <PUBCHEM_IUPAC_OPENEYE_NAME>
(2-methylsulfanyl-3-pyridyl)-[4-(m-tolylmethyl)piperazin-1-yl]methanone

> <PUBCHEM_IUPAC_CAS_NAME>
[4-[(3-methylphenyl)methyl]-1-piperazinyl]-[2-(methylthio)-3-pyridinyl]methanone

> <PUBCHEM_IUPAC_NAME>
[4-[(3-methylphenyl)methyl]piperazin-1-yl]-(2-methylsulfanylpyridin-3-yl)methanone

> <PUBCHEM_IUPAC_SYSTEMATIC_NAME>
[4-[(3-methylphenyl)methyl]piperazin-1-yl]-(2-methylsulfanylpyridin-3-yl)methanone

> <PUBCHEM_IUPAC_TRADITIONAL_NAME>
[4-(3-methylbenzyl)piperazino]-[2-(methylthio)-3-pyridyl]methanone

> <PUBCHEM_IUPAC_INCHI>
InChI=1S/C19H23N3OS/c1-15-5-3-6-16(13-15)14-21-9-11-22(12-10-21)19(23)17-7-4-8-20-18(17)24-2/h3-8,13H,9-12,14H2,1-2H3

> <PUBCHEM_IUPAC_INCHIKEY>
CAHZNQULTHMDFU-UHFFFAOYSA-N

> <PUBCHEM_XLOGP3_AA>
2.8

> <PUBCHEM_EXACT_MASS>
341.156183

> <PUBCHEM_MOLECULAR_FORMULA>
C19H23N3OS

> <PUBCHEM_MOLECULAR_WEIGHT>
341.47042

> <PUBCHEM_OPENEYE_CAN_SMILES>
CC1=CC(=CC=C1)CN2CCN(CC2)C(=O)C3=C(N=CC=C3)SC

> <PUBCHEM_OPENEYE_ISO_SMILES>
CC1=CC(=CC=C1)CN2CCN(CC2)C(=O)C3=C(N=CC=C3)SC

> <PUBCHEM_CACTVS_TPSA>
61.7

> <PUBCHEM_MONOISOTOPIC_WEIGHT>
341.156183

> <PUBCHEM_TOTAL_CHARGE>
0

> <PUBCHEM_HEAVY_ATOM_COUNT>
24

> <PUBCHEM_ATOM_DEF_STEREO_COUNT>
0

> <PUBCHEM_ATOM_UDEF_STEREO_COUNT>
0

> <PUBCHEM_BOND_DEF_STEREO_COUNT>
0

> <PUBCHEM_BOND_UDEF_STEREO_COUNT>
0

> <PUBCHEM_ISOTOPIC_ATOM_COUNT>
0

> <PUBCHEM_COMPONENT_COUNT>
1

> <PUBCHEM_CACTVS_TAUTO_COUNT>
1

> <PUBCHEM_COORDINATE_TYPE>
1
5
255

> <PUBCHEM_BONDANNOTATIONS>
11  14  8
11  15  8
13  19  8
13  20  8
14  16  8
15  17  8
16  18  8
17  18  8
20  22  8
22  23  8
5  19  8
5  23  8

$$$$

