13014
  -OEChem-06261207393D

 21 21  0     0  0  0  0  0  0999 V2000
    1.9683    0.5097    0.0006 Si  0  0  0  0  0  0  0  0  0  0  0  0
    0.1293    0.2084   -0.0002 C   0  0  0  0  0  0  0  0  0  0  0  0
    2.7588   -0.2028   -1.5340 C   0  0  0  0  0  0  0  0  0  0  0  0
    2.7571   -0.2064    1.5343 C   0  0  0  0  0  0  0  0  0  0  0  0
   -0.7542    1.2879    0.0009 C   0  0  0  0  0  0  0  0  0  0  0  0
   -0.3640   -1.0964   -0.0013 C   0  0  0  0  0  0  0  0  0  0  0  0
   -2.1307    1.0628    0.0010 C   0  0  0  0  0  0  0  0  0  0  0  0
   -1.7406   -1.3215   -0.0013 C   0  0  0  0  0  0  0  0  0  0  0  0
   -2.6239   -0.2419   -0.0001 C   0  0  0  0  0  0  0  0  0  0  0  0
    2.2127    1.9752    0.0024 H   0  0  0  0  0  0  0  0  0  0  0  0
    3.8320    0.0092   -1.5498 H   0  0  0  0  0  0  0  0  0  0  0  0
    2.6275   -1.2882   -1.5755 H   0  0  0  0  0  0  0  0  0  0  0  0
    2.3153    0.2285   -2.4364 H   0  0  0  0  0  0  0  0  0  0  0  0
    3.8303    0.0056    1.5519 H   0  0  0  0  0  0  0  0  0  0  0  0
    2.3126    0.2229    2.4374 H   0  0  0  0  0  0  0  0  0  0  0  0
    2.6258   -1.2919    1.5733 H   0  0  0  0  0  0  0  0  0  0  0  0
   -0.3969    2.3151    0.0018 H   0  0  0  0  0  0  0  0  0  0  0  0
    0.3024   -1.9561   -0.0020 H   0  0  0  0  0  0  0  0  0  0  0  0
   -2.8188    1.9032    0.0019 H   0  0  0  0  0  0  0  0  0  0  0  0
   -2.1252   -2.3373   -0.0021 H   0  0  0  0  0  0  0  0  0  0  0  0
   -3.6957   -0.4173   -0.0001 H   0  0  0  0  0  0  0  0  0  0  0  0
  1  2  1  0  0  0  0
  1  3  1  0  0  0  0
  1  4  1  0  0  0  0
  1 10  1  0  0  0  0
  2  5  2  0  0  0  0
  2  6  1  0  0  0  0
  3 11  1  0  0  0  0
  3 12  1  0  0  0  0
  3 13  1  0  0  0  0
  4 14  1  0  0  0  0
  4 15  1  0  0  0  0
  4 16  1  0  0  0  0
  5  7  1  0  0  0  0
  5 17  1  0  0  0  0
  6  8  2  0  0  0  0
  6 18  1  0  0  0  0
  7  9  2  0  0  0  0
  7 19  1  0  0  0  0
  8  9  1  0  0  0  0
  8 20  1  0  0  0  0
  9 21  1  0  0  0  0
M  END
> <PUBCHEM_COMPOUND_CID>
13014

> <PUBCHEM_CONFORMER_RMSD>
0.4

> <PUBCHEM_CONFORMER_DIVERSEORDER>
1
2
3

> <PUBCHEM_MMFF94_PARTIAL_CHARGES>
15
1 0.58
10 -0.2
17 0.15
18 0.15
19 0.15
2 -0.22
20 0.15
21 0.15
3 -0.08
4 -0.08
5 -0.15
6 -0.15
7 -0.15
8 -0.15
9 -0.15

> <PUBCHEM_EFFECTIVE_ROTOR_COUNT>
1

> <PUBCHEM_PHARMACOPHORE_FEATURES>
1
6 2 5 6 7 8 9 rings

> <PUBCHEM_HEAVY_ATOM_COUNT>
9

> <PUBCHEM_ATOM_DEF_STEREO_COUNT>
0

> <PUBCHEM_ATOM_UDEF_STEREO_COUNT>
0

> <PUBCHEM_BOND_DEF_STEREO_COUNT>
0

> <PUBCHEM_BOND_UDEF_STEREO_COUNT>
0

> <PUBCHEM_ISOTOPIC_ATOM_COUNT>
0

> <PUBCHEM_COMPONENT_COUNT>
1

> <PUBCHEM_CACTVS_TAUTO_COUNT>
1

> <PUBCHEM_CONFORMER_ID>
000032D600000001

> <PUBCHEM_MMFF94_ENERGY>
15.5829

> <PUBCHEM_FEATURE_SELFOVERLAP>
5.074

> <PUBCHEM_SHAPE_FINGERPRINT>
10857977 72 18260553272909864225
12524768 44 18190178983940145932
12716758 59 18261106421732072231
12932741 1 17676485055731136956
12932764 1 17989485208174135084
15310529 11 16774077362554459173
15775835 57 17917708011308202660
16945 1 18410573998268507077
20201158 50 17677039239819896318
20645464 45 17894922823165954930
20645476 183 17632287939353027111
20653085 51 15792004653572498009
20715346 28 17676488319774328614
21040471 1 18266458883080618117
23552423 10 17842836629285646613
2748010 2 18122347874319067269
29004967 10 16805602547171888016
3248919 1 18040437672243001824
369184 2 18341345413078164033
5084963 1 18041267833597137364
8030462 33 17846778477455742908

> <PUBCHEM_SHAPE_MULTIPOLES>
203.43
4.46
1.32
1.15
0.63
0.04
0
-0.19
0
-0.62
0
1.34
-0.13
0

> <PUBCHEM_SHAPE_SELFOVERLAP>
390.891

> <PUBCHEM_SHAPE_VOLUME>
125.5

> <PUBCHEM_COORDINATE_TYPE>
2
5
10

$$$$

