11968
  -OEChem-06261206213D

 20 20  0     0  0  0  0  0  0999 V2000
   -1.2346   -2.3028   -0.1898 O   0  0  0  0  0  0  0  0  0  0  0  0
    3.9539    1.0258   -0.5024 O   0  0  0  0  0  0  0  0  0  0  0  0
    3.5309   -0.9997    0.4578 O   0  0  0  0  0  0  0  0  0  0  0  0
   -0.6369    0.0025    0.1321 C   0  0  0  0  0  0  0  0  0  0  0  0
   -1.5922   -0.9914   -0.0804 C   0  0  0  0  0  0  0  0  0  0  0  0
   -1.0303    1.3364    0.2401 C   0  0  0  0  0  0  0  0  0  0  0  0
   -2.9409   -0.6514   -0.1849 C   0  0  0  0  0  0  0  0  0  0  0  0
    0.7775   -0.3269    0.2452 C   0  0  0  0  0  0  0  0  0  0  0  0
   -2.3791    1.6763    0.1355 C   0  0  0  0  0  0  0  0  0  0  0  0
   -3.3344    0.6825   -0.0771 C   0  0  0  0  0  0  0  0  0  0  0  0
    1.7411    0.4932   -0.1598 C   0  0  0  0  0  0  0  0  0  0  0  0
    3.1451    0.0554   -0.0164 C   0  0  0  0  0  0  0  0  0  0  0  0
   -0.3221    2.1389    0.4291 H   0  0  0  0  0  0  0  0  0  0  0  0
   -3.6966   -1.4147   -0.3502 H   0  0  0  0  0  0  0  0  0  0  0  0
    1.0123   -1.2982    0.6722 H   0  0  0  0  0  0  0  0  0  0  0  0
   -2.6866    2.7142    0.2250 H   0  0  0  0  0  0  0  0  0  0  0  0
   -4.3847    0.9472   -0.1572 H   0  0  0  0  0  0  0  0  0  0  0  0
    1.5610    1.4591   -0.6180 H   0  0  0  0  0  0  0  0  0  0  0  0
   -2.0326   -2.8398   -0.3343 H   0  0  0  0  0  0  0  0  0  0  0  0
    4.9020    0.7840   -0.4307 H   0  0  0  0  0  0  0  0  0  0  0  0
  1  5  1  0  0  0  0
  1 19  1  0  0  0  0
  2 12  1  0  0  0  0
  2 20  1  0  0  0  0
  3 12  2  0  0  0  0
  4  5  1  0  0  0  0
  4  6  2  0  0  0  0
  4  8  1  0  0  0  0
  5  7  2  0  0  0  0
  6  9  1  0  0  0  0
  6 13  1  0  0  0  0
  7 10  1  0  0  0  0
  7 14  1  0  0  0  0
  8 11  2  0  0  0  0
  8 15  1  0  0  0  0
  9 10  2  0  0  0  0
  9 16  1  0  0  0  0
 10 17  1  0  0  0  0
 11 12  1  0  0  0  0
 11 18  1  0  0  0  0
M  END
> <PUBCHEM_COMPOUND_CID>
11968

> <PUBCHEM_CONFORMER_RMSD>
0.6

> <PUBCHEM_CONFORMER_DIVERSEORDER>
1
2
3

> <PUBCHEM_MMFF94_PARTIAL_CHARGES>
20
1 -0.53
10 -0.15
11 -0.14
12 0.71
13 0.15
14 0.15
15 0.15
16 0.15
17 0.15
18 0.15
19 0.45
2 -0.65
20 0.5
3 -0.57
4 0.03
5 0.08
6 -0.15
7 -0.15
8 -0.18
9 -0.15

> <PUBCHEM_EFFECTIVE_ROTOR_COUNT>
2

> <PUBCHEM_PHARMACOPHORE_FEATURES>
5
1 1 donor
1 2 acceptor
1 3 acceptor
3 2 3 12 anion
6 4 5 6 7 9 10 rings

> <PUBCHEM_HEAVY_ATOM_COUNT>
12

> <PUBCHEM_ATOM_DEF_STEREO_COUNT>
0

> <PUBCHEM_ATOM_UDEF_STEREO_COUNT>
0

> <PUBCHEM_BOND_DEF_STEREO_COUNT>
0

> <PUBCHEM_BOND_UDEF_STEREO_COUNT>
1

> <PUBCHEM_ISOTOPIC_ATOM_COUNT>
0

> <PUBCHEM_COMPONENT_COUNT>
1

> <PUBCHEM_CACTVS_TAUTO_COUNT>
4

> <PUBCHEM_CONFORMER_ID>
00002EC000000001

> <PUBCHEM_MMFF94_ENERGY>
31.2288

> <PUBCHEM_FEATURE_SELFOVERLAP>
25.427

> <PUBCHEM_SHAPE_FINGERPRINT>
12716758 59 18335428945483371371
12932764 1 17749113253459670202
13024252 1 14620795998848069493
13380535 76 18335140942072351407
14144814 61 18412544327437391856
14325111 11 18411418444599719968
15669948 3 18335987471657628270
15775835 57 18271803557510966672
16945 1 18336553741762927785
20201158 50 17894347791306019070
20279233 1 17022624178380291334
20510252 161 18259700125123005833
20645477 56 18409729556148307296
20871998 184 18187641345790252575
23402539 116 18261404351213849421
23463225 33 18269278022510140050
23552423 10 18054509110328074645
23559900 14 18259707809473372440
3248919 1 17458336468502335608
6333449 129 18335140886416806117
75552 356 18410009905706098613
93112 12 18410008832365175268

> <PUBCHEM_SHAPE_MULTIPOLES>
229.35
6.32
1.67
0.64
5.23
0.39
0
-0.87
0.38
-0.89
0.03
0.06
-0.02
-0.38

> <PUBCHEM_SHAPE_SELFOVERLAP>
480.648

> <PUBCHEM_SHAPE_VOLUME>
129.5

> <PUBCHEM_COORDINATE_TYPE>
2
5
10

$$$$

