17395439
  -OEChem-06241222503D

 42 44  0     0  0  0  0  0  0999 V2000
   -0.4607   -4.2071   -0.0432 S   0  0  0  0  0  0  0  0  0  0  0  0
   -2.8824   -0.3717    1.2332 O   0  0  0  0  0  0  0  0  0  0  0  0
   -3.0877    2.1926   -1.2130 O   0  0  0  0  0  0  0  0  0  0  0  0
   -4.8704    3.3105   -0.2823 O   0  0  0  0  0  0  0  0  0  0  0  0
    1.7261   -0.4259    1.2897 N   0  0  0  0  0  0  0  0  0  0  0  0
    1.2250   -1.5206    0.6926 N   0  0  0  0  0  0  0  0  0  0  0  0
   -1.9257    1.7200    1.0598 N   0  0  0  0  0  0  0  0  0  0  0  0
    3.1166   -0.2429    1.5863 C   0  0  0  0  0  0  0  0  0  0  0  0
   -0.5370   -0.2723    1.0215 C   0  0  0  0  0  0  0  0  0  0  0  0
   -0.1259   -1.4785    0.5089 C   0  0  0  0  0  0  0  0  0  0  0  0
    0.6451    0.3331    1.4881 C   0  0  0  0  0  0  0  0  0  0  0  0
    3.8381    0.4242    0.4466 C   0  0  0  0  0  0  0  0  0  0  0  0
   -0.9011   -2.5540   -0.1189 C   0  0  0  0  0  0  0  0  0  0  0  0
   -1.8768    0.3259    1.1047 C   0  0  0  0  0  0  0  0  0  0  0  0
    4.4176   -0.3485   -0.5599 C   0  0  0  0  0  0  0  0  0  0  0  0
    3.9281    1.8153    0.3968 C   0  0  0  0  0  0  0  0  0  0  0  0
   -2.0616   -2.3605   -0.8356 C   0  0  0  0  0  0  0  0  0  0  0  0
    5.0867    0.2700   -1.6160 C   0  0  0  0  0  0  0  0  0  0  0  0
    4.5971    2.4338   -0.6594 C   0  0  0  0  0  0  0  0  0  0  0  0
   -3.1557    2.4516    1.1604 C   0  0  0  0  0  0  0  0  0  0  0  0
   -2.5963   -3.5856   -1.3290 C   0  0  0  0  0  0  0  0  0  0  0  0
    5.1764    1.6611   -1.6657 C   0  0  0  0  0  0  0  0  0  0  0  0
   -1.8241   -4.6687   -0.9706 C   0  0  0  0  0  0  0  0  0  0  0  0
   -3.8082    2.7057   -0.1782 C   0  0  0  0  0  0  0  0  0  0  0  0
   -3.6433    2.3926   -2.5170 C   0  0  0  0  0  0  0  0  0  0  0  0
    3.5542   -1.2223    1.8122 H   0  0  0  0  0  0  0  0  0  0  0  0
    3.1932    0.3567    2.5010 H   0  0  0  0  0  0  0  0  0  0  0  0
    0.7519    1.2962    1.9712 H   0  0  0  0  0  0  0  0  0  0  0  0
    4.3537   -1.4331   -0.5331 H   0  0  0  0  0  0  0  0  0  0  0  0
    3.4800    2.4286    1.1742 H   0  0  0  0  0  0  0  0  0  0  0  0
   -2.5094   -1.3976   -1.0439 H   0  0  0  0  0  0  0  0  0  0  0  0
   -1.0716    2.2519    0.9228 H   0  0  0  0  0  0  0  0  0  0  0  0
    5.5375   -0.3315   -2.3999 H   0  0  0  0  0  0  0  0  0  0  0  0
    4.6666    3.5169   -0.6984 H   0  0  0  0  0  0  0  0  0  0  0  0
   -2.9220    3.4168    1.6188 H   0  0  0  0  0  0  0  0  0  0  0  0
   -3.8599    1.8999    1.7904 H   0  0  0  0  0  0  0  0  0  0  0  0
   -3.4966   -3.6675   -1.9238 H   0  0  0  0  0  0  0  0  0  0  0  0
    5.6972    2.1426   -2.4882 H   0  0  0  0  0  0  0  0  0  0  0  0
   -1.9942   -5.7087   -1.2110 H   0  0  0  0  0  0  0  0  0  0  0  0
   -2.9705    1.9338   -3.2465 H   0  0  0  0  0  0  0  0  0  0  0  0
   -3.7219    3.4618   -2.7352 H   0  0  0  0  0  0  0  0  0  0  0  0
   -4.6221    1.9091   -2.5896 H   0  0  0  0  0  0  0  0  0  0  0  0
  1 13  1  0  0  0  0
  1 23  1  0  0  0  0
  2 14  2  0  0  0  0
  3 24  1  0  0  0  0
  3 25  1  0  0  0  0
  4 24  2  0  0  0  0
  5  6  1  0  0  0  0
  5  8  1  0  0  0  0
  5 11  1  0  0  0  0
  6 10  2  0  0  0  0
  7 14  1  0  0  0  0
  7 20  1  0  0  0  0
  7 32  1  0  0  0  0
  8 12  1  0  0  0  0
  8 26  1  0  0  0  0
  8 27  1  0  0  0  0
  9 10  1  0  0  0  0
  9 11  2  0  0  0  0
  9 14  1  0  0  0  0
 10 13  1  0  0  0  0
 11 28  1  0  0  0  0
 12 15  2  0  0  0  0
 12 16  1  0  0  0  0
 13 17  2  0  0  0  0
 15 18  1  0  0  0  0
 15 29  1  0  0  0  0
 16 19  2  0  0  0  0
 16 30  1  0  0  0  0
 17 21  1  0  0  0  0
 17 31  1  0  0  0  0
 18 22  2  0  0  0  0
 18 33  1  0  0  0  0
 19 22  1  0  0  0  0
 19 34  1  0  0  0  0
 20 24  1  0  0  0  0
 20 35  1  0  0  0  0
 20 36  1  0  0  0  0
 21 23  2  0  0  0  0
 21 37  1  0  0  0  0
 22 38  1  0  0  0  0
 23 39  1  0  0  0  0
 25 40  1  0  0  0  0
 25 41  1  0  0  0  0
 25 42  1  0  0  0  0
M  END
> <PUBCHEM_COMPOUND_CID>
17395439

> <PUBCHEM_CONFORMER_RMSD>
1

> <PUBCHEM_CONFORMER_DIVERSEORDER>
2
130
33
48
63
90
27
109
97
83
3
59
18
73
47
28
120
60
74
101
50
36
13
34
61
99
77
24
114
121
116
88
89
21
57
103
128
52
123
122
93
70
126
22
92
10
43
96
76
67
84
69
117
54
127
19
16
35
58
53
64
23
66
113
29
105
125
9
51
32
124
85
62
131
39
118
91
49
20
26
86
17
112
110
41
115
71
25
15
81
12
42
46
11
79
95
82
45
108
111
38
75
37
4
78
132
98
72
119
80
100
55
87
31
94
1
106
6
102
14
68
104
44
65
107
40
8
129
7
56
30
5

> <PUBCHEM_MMFF94_PARTIAL_CHARGES>
35
1 -0.08
10 0.29
11 -0.3
12 -0.14
13 0.04
14 0.72
15 -0.15
16 -0.15
17 -0.15
18 -0.15
19 -0.15
2 -0.57
20 0.36
21 -0.15
22 -0.15
23 -0.11
24 0.66
25 0.28
28 0.15
29 0.15
3 -0.43
30 0.15
31 0.15
32 0.37
33 0.15
34 0.15
37 0.15
38 0.15
39 0.15
4 -0.57
5 0.31
6 -0.71
7 -0.73
8 0.4
9 -0.09

> <PUBCHEM_EFFECTIVE_ROTOR_COUNT>
8

> <PUBCHEM_PHARMACOPHORE_FEATURES>
7
1 2 acceptor
1 4 acceptor
1 6 acceptor
1 7 donor
5 1 13 17 21 23 rings
5 5 6 9 10 11 rings
6 12 15 16 18 19 22 rings

> <PUBCHEM_HEAVY_ATOM_COUNT>
25

> <PUBCHEM_ATOM_DEF_STEREO_COUNT>
0

> <PUBCHEM_ATOM_UDEF_STEREO_COUNT>
0

> <PUBCHEM_BOND_DEF_STEREO_COUNT>
0

> <PUBCHEM_BOND_UDEF_STEREO_COUNT>
0

> <PUBCHEM_ISOTOPIC_ATOM_COUNT>
0

> <PUBCHEM_COMPONENT_COUNT>
1

> <PUBCHEM_CACTVS_TAUTO_COUNT>
2

> <PUBCHEM_CONFORMER_ID>
01096EEF00000002

> <PUBCHEM_MMFF94_ENERGY>
55.184

> <PUBCHEM_FEATURE_SELFOVERLAP>
35.52

> <PUBCHEM_SHAPE_FINGERPRINT>
105312 117 18335417993411777028
10871710 139 18129376008109368100
11045515 52 17834398921319992231
12160290 23 18338243665201765627
12788726 201 18195820573844636618
13257819 37 18408599284333749831
13911987 19 18336824294802114777
14251757 5 18264774259663631927
15163728 17 18267575987063328301
15475509 35 7057230312920684285
15575132 122 18343299254447854501
15842332 3 18200890499892059858
16988056 13 16971400417906662933
1813 80 17612028179244144690
18785283 64 17833543871067895395
20693207 138 17532086103682587186
20775438 99 17608126137046978933
21033650 10 18198904721857367922
21285901 2 17678450862120793470
21641784 216 18127139580215588359
22393880 68 18115850942400551196
22907989 373 18262245395572222215
24893989 43 15946895971008907885
26353 1 17688321087687114702
3057174 1 18189619530327766719
312425 83 18266720434500569876
3388396 114 17190638097732035924
340366 18 18267870678103165410
3552219 110 15118964754295771642
437795 70 17679887928856887703
4394409 98 17976516615292573070
44062 13 17969762156475202038

> <PUBCHEM_SHAPE_MULTIPOLES>
485.79
10.21
5.53
1.85
12.01
3.77
0.58
-8.93
4.95
-9.26
2.28
-0.15
-0.78
-0.75

> <PUBCHEM_SHAPE_SELFOVERLAP>
1029.154

> <PUBCHEM_SHAPE_VOLUME>
273.5

> <PUBCHEM_COORDINATE_TYPE>
2
5
10

$$$$

