443189
  -OEChem-07051213013D

 29 28  0     1  0  0  0  0  0999 V2000
    3.1165    0.9915    1.3755 O   0  0  0  0  0  0  0  0  0  0  0  0
   -3.5776    1.2035   -0.8401 O   0  0  0  0  0  0  0  0  0  0  0  0
    3.8656    0.3914   -0.6848 O   0  0  0  0  0  0  0  0  0  0  0  0
    0.5043    0.1878    0.2132 C   0  0  2  0  0  0  0  0  0  0  0  0
   -0.9058    0.6512   -0.2172 C   0  0  0  0  0  0  0  0  0  0  0  0
    1.5659    1.0958   -0.4355 C   0  0  0  0  0  0  0  0  0  0  0  0
   -2.0347   -0.1160    0.4754 C   0  0  0  0  0  0  0  0  0  0  0  0
    0.7598   -1.2895   -0.0707 C   0  0  0  0  0  0  0  0  0  0  0  0
    0.7296   -1.7656   -1.4973 C   0  0  0  0  0  0  0  0  0  0  0  0
   -3.4104    0.3421    0.0219 C   0  0  0  0  0  0  0  0  0  0  0  0
    2.9649    0.7878    0.0433 C   0  0  0  0  0  0  0  0  0  0  0  0
    1.0067   -2.1507    0.9306 C   0  0  0  0  0  0  0  0  0  0  0  0
   -4.5846   -0.3294    0.6859 C   0  0  0  0  0  0  0  0  0  0  0  0
    0.5634    0.3461    1.2999 H   0  0  0  0  0  0  0  0  0  0  0  0
   -1.0164    1.7193    0.0135 H   0  0  0  0  0  0  0  0  0  0  0  0
   -1.0148    0.5681   -1.3062 H   0  0  0  0  0  0  0  0  0  0  0  0
    1.3678    2.1502   -0.2064 H   0  0  0  0  0  0  0  0  0  0  0  0
    1.5482    1.0115   -1.5285 H   0  0  0  0  0  0  0  0  0  0  0  0
   -1.9660   -1.1867    0.2572 H   0  0  0  0  0  0  0  0  0  0  0  0
   -1.9691    0.0267    1.5596 H   0  0  0  0  0  0  0  0  0  0  0  0
   -0.2465   -1.5715   -1.9515 H   0  0  0  0  0  0  0  0  0  0  0  0
    0.9126   -2.8433   -1.5725 H   0  0  0  0  0  0  0  0  0  0  0  0
    1.4990   -1.2651   -2.0921 H   0  0  0  0  0  0  0  0  0  0  0  0
    1.0320   -1.8242    1.9648 H   0  0  0  0  0  0  0  0  0  0  0  0
    1.1896   -3.2030    0.7401 H   0  0  0  0  0  0  0  0  0  0  0  0
   -4.5500   -0.1469    1.7627 H   0  0  0  0  0  0  0  0  0  0  0  0
   -5.5174    0.0801    0.2882 H   0  0  0  0  0  0  0  0  0  0  0  0
   -4.5551   -1.4028    0.4835 H   0  0  0  0  0  0  0  0  0  0  0  0
    4.0268    0.7836    1.6764 H   0  0  0  0  0  0  0  0  0  0  0  0
  1 11  1  0  0  0  0
  1 29  1  0  0  0  0
  2 10  2  0  0  0  0
  3 11  2  0  0  0  0
  4  5  1  0  0  0  0
  4  6  1  0  0  0  0
  4  8  1  0  0  0  0
  4 14  1  0  0  0  0
  5  7  1  0  0  0  0
  5 15  1  0  0  0  0
  5 16  1  0  0  0  0
  6 11  1  0  0  0  0
  6 17  1  0  0  0  0
  6 18  1  0  0  0  0
  7 10  1  0  0  0  0
  7 19  1  0  0  0  0
  7 20  1  0  0  0  0
  8  9  1  0  0  0  0
  8 12  2  0  0  0  0
  9 21  1  0  0  0  0
  9 22  1  0  0  0  0
  9 23  1  0  0  0  0
 10 13  1  0  0  0  0
 12 24  1  0  0  0  0
 12 25  1  0  0  0  0
 13 26  1  0  0  0  0
 13 27  1  0  0  0  0
 13 28  1  0  0  0  0
M  END
> <PUBCHEM_COMPOUND_CID>
443189

> <PUBCHEM_CONFORMER_RMSD>
0.6

> <PUBCHEM_CONFORMER_DIVERSEORDER>
1
109
78
73
34
95
60
82
18
35
98
96
6
93
94
66
86
4
76
45
101
32
10
30
9
59
52
33
105
7
87
97
19
90
27
91
61
74
108
38
102
92
65
106
8
22
20
3
79
77
80
39
48
72
103
51
24
100
42
2
49
47
85
64
99
53
75
50
12
104
107
54
21
88
23
46
41
37
17
26
5
14
25
13
67
28
40
83
89
44
43
56
31
29
16
84
58
62
11
81
55
15
57
68
69
70
36
63
71

> <PUBCHEM_MMFF94_PARTIAL_CHARGES>
15
1 -0.65
10 0.45
11 0.66
12 -0.3
13 0.06
2 -0.57
24 0.15
25 0.15
29 0.5
3 -0.57
4 0.14
6 0.06
7 0.06
8 -0.28
9 0.14

> <PUBCHEM_EFFECTIVE_ROTOR_COUNT>
6

> <PUBCHEM_PHARMACOPHORE_FEATURES>
5
1 1 acceptor
1 2 acceptor
1 3 acceptor
3 1 3 11 anion
5 4 5 6 7 8 hydrophobe

> <PUBCHEM_HEAVY_ATOM_COUNT>
13

> <PUBCHEM_ATOM_DEF_STEREO_COUNT>
1

> <PUBCHEM_ATOM_UDEF_STEREO_COUNT>
0

> <PUBCHEM_BOND_DEF_STEREO_COUNT>
0

> <PUBCHEM_BOND_UDEF_STEREO_COUNT>
0

> <PUBCHEM_ISOTOPIC_ATOM_COUNT>
0

> <PUBCHEM_COMPONENT_COUNT>
1

> <PUBCHEM_CACTVS_TAUTO_COUNT>
3

> <PUBCHEM_CONFORMER_ID>
0006C33500000001

> <PUBCHEM_MMFF94_ENERGY>
15.2507

> <PUBCHEM_FEATURE_SELFOVERLAP>
25.429

> <PUBCHEM_SHAPE_FINGERPRINT>
10219947 1 18131067125817807316
107287 299 18334289890160272607
10922049 32 18411131416378086158
12932764 1 15430325792963380457
13380535 76 18273213075868160995
14252887 29 18335965533434087835
15219456 202 18201441432241642909
15502708 68 18342462568500397626
15775835 57 18334579010083805064
16945 1 18272380745407392916
170605 34 18407757040766982079
18186145 218 17749107760033247680
20279233 1 17918268762781440531
20645477 70 18264213681022573671
21501502 16 18123470745936713361
21524375 3 18336827481150097398
21730867 7 18411976992343421311
22713019 99 17894896452504575182
23402539 116 17561090155503478247
23557571 272 16917353658293274501
276578 36 18409733950031434274
3060560 45 17967254212678926220
3248919 1 15841253940123479539
3250762 1 17554625254354141276
366044 4 18259982644013905574
449060 62 18411133658065989688
7364860 26 18116430525755267214
81228 2 17615707136512905418
81539 233 18343020008158367358
9999458 23 17917987257481586990

> <PUBCHEM_SHAPE_MULTIPOLES>
249.93
7.01
1.72
1.11
5.44
0.96
-0.07
-2.39
0.72
-0.86
-0.07
-0.37
0.27
0.5

> <PUBCHEM_SHAPE_SELFOVERLAP>
474.926

> <PUBCHEM_SHAPE_VOLUME>
153.9

> <PUBCHEM_COORDINATE_TYPE>
2
5
10

$$$$

