179090
  -OEChem-07051213003D

 53 54  0     0  0  0  0  0  0999 V2000
    1.2084   -2.5140   -1.4109 O   0  0  0  0  0  0  0  0  0  0  0  0
   -1.2107    2.5581   -1.3324 O   0  0  0  0  0  0  0  0  0  0  0  0
    1.2781    2.1293   -0.2892 O   0  0  0  0  0  0  0  0  0  0  0  0
   -1.2926   -2.1232   -0.3823 O   0  0  0  0  0  0  0  0  0  0  0  0
    4.6550   -0.7970    1.4170 O   0  0  0  0  0  0  0  0  0  0  0  0
   -4.6901    0.7395    1.3896 O   0  0  0  0  0  0  0  0  0  0  0  0
    3.2659    2.1018    2.4322 O   0  0  0  0  0  0  0  0  0  0  0  0
   -4.4983   -2.5262    0.5790 O   0  0  0  0  0  0  0  0  0  0  0  0
    0.0007    0.0276   -1.6777 C   0  0  0  0  0  0  0  0  0  0  0  0
    1.2321   -0.1896   -0.8575 C   0  0  0  0  0  0  0  0  0  0  0  0
   -1.2557    0.2173   -0.8549 C   0  0  0  0  0  0  0  0  0  0  0  0
    1.7886   -1.4649   -0.7598 C   0  0  0  0  0  0  0  0  0  0  0  0
   -1.7983    1.4859   -0.7271 C   0  0  0  0  0  0  0  0  0  0  0  0
    1.8250    0.8830   -0.1913 C   0  0  0  0  0  0  0  0  0  0  0  0
   -1.8409   -0.8811   -0.2455 C   0  0  0  0  0  0  0  0  0  0  0  0
    2.9379   -1.6677    0.0043 C   0  0  0  0  0  0  0  0  0  0  0  0
   -2.9566    1.6608    0.0302 C   0  0  0  0  0  0  0  0  0  0  0  0
    2.9743    0.6803    0.5726 C   0  0  0  0  0  0  0  0  0  0  0  0
   -2.9992   -0.7063    0.5118 C   0  0  0  0  0  0  0  0  0  0  0  0
    3.5307   -0.5951    0.6705 C   0  0  0  0  0  0  0  0  0  0  0  0
   -3.5570    0.5647    0.6496 C   0  0  0  0  0  0  0  0  0  0  0  0
    3.5339   -3.0352    0.1091 C   0  0  0  0  0  0  0  0  0  0  0  0
   -3.5541    3.0237    0.1779 C   0  0  0  0  0  0  0  0  0  0  0  0
    3.5943    1.8022    1.2696 C   0  0  0  0  0  0  0  0  0  0  0  0
   -3.6273   -1.8528    1.1598 C   0  0  0  0  0  0  0  0  0  0  0  0
    4.6651    2.6340    0.5771 C   0  0  0  0  0  0  0  0  0  0  0  0
   -3.2227   -2.2477    2.5734 C   0  0  0  0  0  0  0  0  0  0  0  0
    1.6535   -2.7759   -2.7395 C   0  0  0  0  0  0  0  0  0  0  0  0
   -1.6400    2.8684   -2.6557 C   0  0  0  0  0  0  0  0  0  0  0  0
    0.1761    0.8430   -2.3877 H   0  0  0  0  0  0  0  0  0  0  0  0
   -0.1913   -0.8088   -2.3610 H   0  0  0  0  0  0  0  0  0  0  0  0
    2.7751   -3.8199    0.0220 H   0  0  0  0  0  0  0  0  0  0  0  0
    4.2814   -3.1794   -0.6774 H   0  0  0  0  0  0  0  0  0  0  0  0
    4.0146   -3.1922    1.0806 H   0  0  0  0  0  0  0  0  0  0  0  0
   -3.7537    3.2484    1.2317 H   0  0  0  0  0  0  0  0  0  0  0  0
   -2.8923    3.8228   -0.1694 H   0  0  0  0  0  0  0  0  0  0  0  0
   -4.4861    3.0930   -0.3926 H   0  0  0  0  0  0  0  0  0  0  0  0
    0.8171    2.2327   -1.1350 H   0  0  0  0  0  0  0  0  0  0  0  0
   -1.8242   -2.7905    0.0799 H   0  0  0  0  0  0  0  0  0  0  0  0
    4.3229    3.6692    0.5020 H   0  0  0  0  0  0  0  0  0  0  0  0
    4.8546    2.2520   -0.4300 H   0  0  0  0  0  0  0  0  0  0  0  0
    5.5920    2.5786    1.1537 H   0  0  0  0  0  0  0  0  0  0  0  0
   -4.0947   -2.1803    3.2287 H   0  0  0  0  0  0  0  0  0  0  0  0
   -2.4460   -1.5764    2.9506 H   0  0  0  0  0  0  0  0  0  0  0  0
   -2.8301   -3.2677    2.5630 H   0  0  0  0  0  0  0  0  0  0  0  0
    4.9407    0.0263    1.8435 H   0  0  0  0  0  0  0  0  0  0  0  0
   -5.0773    1.6155    1.2391 H   0  0  0  0  0  0  0  0  0  0  0  0
    2.6235   -3.2812   -2.7174 H   0  0  0  0  0  0  0  0  0  0  0  0
    1.7309   -1.8571   -3.3300 H   0  0  0  0  0  0  0  0  0  0  0  0
    0.9273   -3.4384   -3.2185 H   0  0  0  0  0  0  0  0  0  0  0  0
   -2.6224    3.3494   -2.6309 H   0  0  0  0  0  0  0  0  0  0  0  0
   -1.6857    1.9750   -3.2869 H   0  0  0  0  0  0  0  0  0  0  0  0
   -0.9216    3.5676   -3.0925 H   0  0  0  0  0  0  0  0  0  0  0  0
  1 12  1  0  0  0  0
  1 28  1  0  0  0  0
  2 13  1  0  0  0  0
  2 29  1  0  0  0  0
  3 14  1  0  0  0  0
  3 38  1  0  0  0  0
  4 15  1  0  0  0  0
  4 39  1  0  0  0  0
  5 20  1  0  0  0  0
  5 46  1  0  0  0  0
  6 21  1  0  0  0  0
  6 47  1  0  0  0  0
  7 24  2  0  0  0  0
  8 25  2  0  0  0  0
  9 10  1  0  0  0  0
  9 11  1  0  0  0  0
  9 30  1  0  0  0  0
  9 31  1  0  0  0  0
 10 12  2  0  0  0  0
 10 14  1  0  0  0  0
 11 13  2  0  0  0  0
 11 15  1  0  0  0  0
 12 16  1  0  0  0  0
 13 17  1  0  0  0  0
 14 18  2  0  0  0  0
 15 19  2  0  0  0  0
 16 20  2  0  0  0  0
 16 22  1  0  0  0  0
 17 21  2  0  0  0  0
 17 23  1  0  0  0  0
 18 20  1  0  0  0  0
 18 24  1  0  0  0  0
 19 21  1  0  0  0  0
 19 25  1  0  0  0  0
 22 32  1  0  0  0  0
 22 33  1  0  0  0  0
 22 34  1  0  0  0  0
 23 35  1  0  0  0  0
 23 36  1  0  0  0  0
 23 37  1  0  0  0  0
 24 26  1  0  0  0  0
 25 27  1  0  0  0  0
 26 40  1  0  0  0  0
 26 41  1  0  0  0  0
 26 42  1  0  0  0  0
 27 43  1  0  0  0  0
 27 44  1  0  0  0  0
 27 45  1  0  0  0  0
 28 48  1  0  0  0  0
 28 49  1  0  0  0  0
 28 50  1  0  0  0  0
 29 51  1  0  0  0  0
 29 52  1  0  0  0  0
 29 53  1  0  0  0  0
M  END
> <PUBCHEM_COMPOUND_CID>
179090

> <PUBCHEM_CONFORMER_RMSD>
0.8

> <PUBCHEM_CONFORMER_DIVERSEORDER>
3
20
23
28
32
13
6
11
14
10
27
25
18
15
2
33
22
30
35
26
19
12
21
7
1
29
31
8
17
9
4
34
24
16
5

> <PUBCHEM_MMFF94_PARTIAL_CHARGES>
33
1 -0.36
10 -0.14
11 -0.14
12 0.08
13 0.08
14 0.08
15 0.08
16 -0.14
17 -0.14
18 0.09
19 0.09
2 -0.36
20 0.08
21 0.08
22 0.14
23 0.14
24 0.42
25 0.42
26 0.06
27 0.06
28 0.28
29 0.28
3 -0.53
38 0.45
39 0.45
4 -0.53
46 0.45
47 0.45
5 -0.53
6 -0.53
7 -0.57
8 -0.57
9 0.29

> <PUBCHEM_EFFECTIVE_ROTOR_COUNT>
6

> <PUBCHEM_PHARMACOPHORE_FEATURES>
10
1 1 acceptor
1 2 acceptor
1 3 donor
1 4 donor
1 5 donor
1 6 donor
1 7 acceptor
1 8 acceptor
6 10 12 14 16 18 20 rings
6 11 13 15 17 19 21 rings

> <PUBCHEM_HEAVY_ATOM_COUNT>
29

> <PUBCHEM_ATOM_DEF_STEREO_COUNT>
0

> <PUBCHEM_ATOM_UDEF_STEREO_COUNT>
0

> <PUBCHEM_BOND_DEF_STEREO_COUNT>
0

> <PUBCHEM_BOND_UDEF_STEREO_COUNT>
0

> <PUBCHEM_ISOTOPIC_ATOM_COUNT>
0

> <PUBCHEM_COMPONENT_COUNT>
1

> <PUBCHEM_CACTVS_TAUTO_COUNT>
253

> <PUBCHEM_CONFORMER_ID>
0002BB9200000003

> <PUBCHEM_MMFF94_ENERGY>
125.0532

> <PUBCHEM_FEATURE_SELFOVERLAP>
50.743

> <PUBCHEM_SHAPE_FINGERPRINT>
10165383 225 17751348483368675032
10366900 7 18410011043787990486
11370993 144 18337110193056589385
11640471 11 15503236611623162887
12363563 72 17702938137417485963
12553582 1 17982144766027303367
12633257 1 18338799021452267760
12892183 10 18411136887870801450
13140716 1 18338517555049660461
13402501 40 18266177429473067031
13583140 156 18261117382551915337
14223421 5 18410008849064957422
14790565 3 18123464978387160700
14866123 147 15594958180940475367
1813 80 16845569794968269869
20600515 1 17203051768724140895
21065199 12 18410575084668354027
21421861 104 17483082996720899835
21756936 100 15719949112592111002
22122407 14 17240757415549406873
23559900 14 18269821150904413943
3380486 145 18194693570779597303
3459 110 18409453569928518867
469060 322 17834704615648537476
484985 159 15979815516147149904
49207404 50 18335139791084023256
5104073 3 18410855460143999944
5252454 2 17897457082010621360
613672 6 17915175724640262875
81228 2 18201706380516566477
9709674 26 18262797505302624839
9981440 41 17825706371242743153

> <PUBCHEM_SHAPE_MULTIPOLES>
549.85
8.94
3.97
2.14
0.32
0.16
-0.44
0.23
5.49
-0.01
-0.56
0.05
-0.21
3.17

> <PUBCHEM_SHAPE_SELFOVERLAP>
1185.547

> <PUBCHEM_SHAPE_VOLUME>
304.3

> <PUBCHEM_COORDINATE_TYPE>
2
5
10

$$$$

