189008
  -OEChem-07051212502D

 39 39  0     1  0  0  0  0  0999 V2000
    6.4712   -1.0292    0.0000 O   0  0  0  0  0  0  0  0  0  0  0  0
    9.6517    0.6691    0.0000 O   0  0  0  0  0  0  0  0  0  0  0  0
    8.4927    1.9563    0.0000 O   0  0  0  0  0  0  0  0  0  0  0  0
    7.0064    0.6180    0.0000 N   0  0  0  0  0  0  0  0  0  0  0  0
    5.1043    1.2361    0.0000 N   0  0  0  0  0  0  0  0  0  0  0  0
    2.8090   -0.6900    0.0000 N   0  0  0  0  0  0  0  0  0  0  0  0
    2.3090    0.8489    0.0000 N   0  0  0  0  0  0  0  0  0  0  0  0
    8.1654   -0.6691    0.0000 C   0  0  0  0  0  0  0  0  0  0  0  0
    9.1165   -0.9781    0.0000 C   0  0  0  0  0  0  0  0  0  0  0  0
    7.9575    0.3090    0.0000 C   0  0  1  0  0  0  0  0  0  0  0  0
    5.3122    0.2579    0.0000 C   0  0  2  0  0  0  0  0  0  0  0  0
    9.3244   -1.9563    0.0000 C   0  0  0  0  0  0  0  0  0  0  0  0
    9.8596   -0.3090    0.0000 C   0  0  0  0  0  0  0  0  0  0  0  0
    6.2633   -0.0511    0.0000 C   0  0  0  0  0  0  0  0  0  0  0  0
    4.5691   -0.4112    0.0000 C   0  0  0  0  0  0  0  0  0  0  0  0
    8.7006    0.9781    0.0000 C   0  0  0  0  0  0  0  0  0  0  0  0
    3.6180   -0.1022    0.0000 C   0  0  0  0  0  0  0  0  0  0  0  0
    3.3090    0.8489    0.0000 C   0  0  0  0  0  0  0  0  0  0  0  0
    2.0000   -0.1022    0.0000 C   0  0  0  0  0  0  0  0  0  0  0  0
    7.5458   -0.6908    0.0000 H   0  0  0  0  0  0  0  0  0  0  0  0
    8.0791   -1.2831    0.0000 H   0  0  0  0  0  0  0  0  0  0  0  0
    9.7061   -1.1697    0.0000 H   0  0  0  0  0  0  0  0  0  0  0  0
    7.4967   -0.1058    0.0000 H   0  0  0  0  0  0  0  0  0  0  0  0
    4.7226    0.4495    0.0000 H   0  0  0  0  0  0  0  0  0  0  0  0
    6.8775    1.2245    0.0000 H   0  0  0  0  0  0  0  0  0  0  0  0
    8.7179   -2.0852    0.0000 H   0  0  0  0  0  0  0  0  0  0  0  0
   10.2745   -0.7698    0.0000 H   0  0  0  0  0  0  0  0  0  0  0  0
   10.3204    0.1058    0.0000 H   0  0  0  0  0  0  0  0  0  0  0  0
    9.4447    0.1517    0.0000 H   0  0  0  0  0  0  0  0  0  0  0  0
    9.4533   -2.5628    0.0000 H   0  0  0  0  0  0  0  0  0  0  0  0
    9.9308   -1.8274    0.0000 H   0  0  0  0  0  0  0  0  0  0  0  0
    4.2780   -0.9586    0.0000 H   0  0  0  0  0  0  0  0  0  0  0  0
    5.0577   -0.7929    0.0000 H   0  0  0  0  0  0  0  0  0  0  0  0
    5.5651    1.6509    0.0000 H   0  0  0  0  0  0  0  0  0  0  0  0
    4.5147    1.4277    0.0000 H   0  0  0  0  0  0  0  0  0  0  0  0
    2.8090   -1.3100    0.0000 H   0  0  0  0  0  0  0  0  0  0  0  0
    3.6734    1.3504    0.0000 H   0  0  0  0  0  0  0  0  0  0  0  0
   10.1124    1.0840    0.0000 H   0  0  0  0  0  0  0  0  0  0  0  0
    1.4103   -0.2938    0.0000 H   0  0  0  0  0  0  0  0  0  0  0  0
  1 14  2  0  0  0  0
  2 16  1  0  0  0  0
  2 38  1  0  0  0  0
  3 16  2  0  0  0  0
 10  4  1  6  0  0  0
  4 14  1  0  0  0  0
  4 25  1  0  0  0  0
 11  5  1  6  0  0  0
  5 34  1  0  0  0  0
  5 35  1  0  0  0  0
  6 17  1  0  0  0  0
  6 19  1  0  0  0  0
  6 36  1  0  0  0  0
  7 18  1  0  0  0  0
  7 19  2  0  0  0  0
  8  9  1  0  0  0  0
  8 10  1  0  0  0  0
  8 20  1  0  0  0  0
  8 21  1  0  0  0  0
  9 12  1  0  0  0  0
  9 13  1  0  0  0  0
  9 22  1  0  0  0  0
 10 16  1  0  0  0  0
 10 23  1  0  0  0  0
 11 14  1  0  0  0  0
 11 15  1  0  0  0  0
 11 24  1  0  0  0  0
 12 26  1  0  0  0  0
 12 30  1  0  0  0  0
 12 31  1  0  0  0  0
 13 27  1  0  0  0  0
 13 28  1  0  0  0  0
 13 29  1  0  0  0  0
 15 17  1  0  0  0  0
 15 32  1  0  0  0  0
 15 33  1  0  0  0  0
 17 18  2  0  0  0  0
 18 37  1  0  0  0  0
 19 39  1  0  0  0  0
M  END
> <PUBCHEM_COMPOUND_CID>
189008

> <PUBCHEM_COMPOUND_CANONICALIZED>
1

> <PUBCHEM_CACTVS_COMPLEXITY>
322

> <PUBCHEM_CACTVS_HBOND_ACCEPTOR>
5

> <PUBCHEM_CACTVS_HBOND_DONOR>
4

> <PUBCHEM_CACTVS_ROTATABLE_BOND>
7

> <PUBCHEM_CACTVS_SUBSKEYS>
AAADceBzsAAAAAAAAAAAAAAAAAAAAWAAAAAAAAAAAAAAAAABgAAAHgAQCAAADSjBlgQvmBbJkgCoARX3fAAAgC2xEqABUYG4cAiCaBJA2SGUQAAMlgLQQCCcAQAMAAAAAAAAAAAAAAAAAAAAAAAAAAAAAA==

> <PUBCHEM_IUPAC_OPENEYE_NAME>
(2S)-2-[[(2S)-2-amino-3-(1H-imidazol-5-yl)propanoyl]amino]-4-methyl-pentanoic acid

> <PUBCHEM_IUPAC_CAS_NAME>
(2S)-2-[[(2S)-2-amino-3-(1H-imidazol-5-yl)-1-oxopropyl]amino]-4-methylpentanoic acid

> <PUBCHEM_IUPAC_NAME>
(2S)-2-[[(2S)-2-amino-3-(1H-imidazol-5-yl)propanoyl]amino]-4-methylpentanoic acid

> <PUBCHEM_IUPAC_SYSTEMATIC_NAME>
(2S)-2-[[(2S)-2-azanyl-3-(1H-imidazol-5-yl)propanoyl]amino]-4-methyl-pentanoic acid

> <PUBCHEM_IUPAC_TRADITIONAL_NAME>
(2S)-2-[[(2S)-2-amino-3-(1H-imidazol-5-yl)propanoyl]amino]-4-methyl-valeric acid

> <PUBCHEM_IUPAC_INCHI>
InChI=1S/C12H20N4O3/c1-7(2)3-10(12(18)19)16-11(17)9(13)4-8-5-14-6-15-8/h5-7,9-10H,3-4,13H2,1-2H3,(H,14,15)(H,16,17)(H,18,19)/t9-,10-/m0/s1

> <PUBCHEM_IUPAC_INCHIKEY>
MMFKFJORZBJVNF-UWVGGRQHSA-N

> <PUBCHEM_XLOGP3_AA>
-2.2

> <PUBCHEM_EXACT_MASS>
268.153541

> <PUBCHEM_MOLECULAR_FORMULA>
C12H20N4O3

> <PUBCHEM_MOLECULAR_WEIGHT>
268.3122

> <PUBCHEM_OPENEYE_CAN_SMILES>
CC(C)CC(C(=O)O)NC(=O)C(CC1=CN=CN1)N

> <PUBCHEM_OPENEYE_ISO_SMILES>
CC(C)C[C@@H](C(=O)O)NC(=O)[C@H](CC1=CN=CN1)N

> <PUBCHEM_CACTVS_TPSA>
121

> <PUBCHEM_MONOISOTOPIC_WEIGHT>
268.153541

> <PUBCHEM_TOTAL_CHARGE>
0

> <PUBCHEM_HEAVY_ATOM_COUNT>
19

> <PUBCHEM_ATOM_DEF_STEREO_COUNT>
2

> <PUBCHEM_ATOM_UDEF_STEREO_COUNT>
0

> <PUBCHEM_BOND_DEF_STEREO_COUNT>
0

> <PUBCHEM_BOND_UDEF_STEREO_COUNT>
0

> <PUBCHEM_ISOTOPIC_ATOM_COUNT>
0

> <PUBCHEM_COMPONENT_COUNT>
1

> <PUBCHEM_CACTVS_TAUTO_COUNT>
4

> <PUBCHEM_COORDINATE_TYPE>
1
5
255

> <PUBCHEM_BONDANNOTATIONS>
17  18  8
10  4  6
11  5  6
6  17  8
6  19  8
7  18  8
7  19  8

$$$$

