6427
  -OEChem-06261201183D

  8  7  0     0  0  0  0  0  0999 V2000
    1.6543    1.4304    0.1270 Cl  0  0  0  0  0  0  0  0  0  0  0  0
    1.3247   -1.0483   -1.3602 Cl  0  0  0  0  0  0  0  0  0  0  0  0
   -1.3241    1.0495   -1.3597 Cl  0  0  0  0  0  0  0  0  0  0  0  0
   -1.6545   -1.4305    0.1257 Cl  0  0  0  0  0  0  0  0  0  0  0  0
    1.0804   -0.8227    1.1778 F   0  0  0  0  0  0  0  0  0  0  0  0
   -1.0809    0.8218    1.1782 F   0  0  0  0  0  0  0  0  0  0  0  0
    0.7584   -0.1170    0.0557 C   0  0  0  0  0  0  0  0  0  0  0  0
   -0.7584    0.1168    0.0556 C   0  0  0  0  0  0  0  0  0  0  0  0
  1  7  1  0  0  0  0
  2  7  1  0  0  0  0
  3  8  1  0  0  0  0
  4  8  1  0  0  0  0
  5  7  1  0  0  0  0
  6  8  1  0  0  0  0
  7  8  1  0  0  0  0
M  END
> <PUBCHEM_COMPOUND_CID>
6427

> <PUBCHEM_CONFORMER_RMSD>
0.4

> <PUBCHEM_CONFORMER_DIVERSEORDER>
1
2
3

> <PUBCHEM_MMFF94_PARTIAL_CHARGES>
8
1 -0.29
2 -0.29
3 -0.29
4 -0.29
5 -0.34
6 -0.34
7 0.92
8 0.92

> <PUBCHEM_EFFECTIVE_ROTOR_COUNT>
1

> <PUBCHEM_PHARMACOPHORE_FEATURES>
0

> <PUBCHEM_HEAVY_ATOM_COUNT>
8

> <PUBCHEM_ATOM_DEF_STEREO_COUNT>
0

> <PUBCHEM_ATOM_UDEF_STEREO_COUNT>
0

> <PUBCHEM_BOND_DEF_STEREO_COUNT>
0

> <PUBCHEM_BOND_UDEF_STEREO_COUNT>
0

> <PUBCHEM_ISOTOPIC_ATOM_COUNT>
0

> <PUBCHEM_COMPONENT_COUNT>
1

> <PUBCHEM_CACTVS_TAUTO_COUNT>
1

> <PUBCHEM_CONFORMER_ID>
0000191B00000001

> <PUBCHEM_MMFF94_ENERGY>
4.9408

> <PUBCHEM_FEATURE_SELFOVERLAP>
0

> <PUBCHEM_SHAPE_FINGERPRINT>
12423570 1 7659608044137342060
137420 1 10622936994985133142
16714656 1 17537153640831433084
20711978 78 17603855693955774847
21040471 1 17559125482273831237
24536 1 18113623420934560096
29004967 10 17679849427978371243
5084963 1 18198062469774680964
5943 1 15189160016048809441

> <PUBCHEM_SHAPE_MULTIPOLES>
157.57
2.26
1.61
1.36
0
0
0.26
0
0.01
0
0.27
0
0
0.44

> <PUBCHEM_SHAPE_SELFOVERLAP>
264.854

> <PUBCHEM_SHAPE_VOLUME>
109.6

> <PUBCHEM_COORDINATE_TYPE>
2
5
10

$$$$

