8327
  -OEChem-06261202443D

 26 28  0     0  0  0  0  0  0999 V2000
    3.3788    2.2964    0.0014 Cl  0  0  0  0  0  0  0  0  0  0  0  0
   -0.6733   -2.6033    0.0011 O   0  0  0  0  0  0  0  0  0  0  0  0
    0.6348    2.5761   -0.0011 O   0  0  0  0  0  0  0  0  0  0  0  0
   -3.2235   -2.0491    0.0002 N   0  0  0  0  0  0  0  0  0  0  0  0
   -1.4203   -0.3542   -0.0005 C   0  0  0  0  0  0  0  0  0  0  0  0
   -1.0527    0.9930   -0.0004 C   0  0  0  0  0  0  0  0  0  0  0  0
    1.0360   -1.0244   -0.0007 C   0  0  0  0  0  0  0  0  0  0  0  0
    1.4036    0.3228   -0.0004 C   0  0  0  0  0  0  0  0  0  0  0  0
   -0.3895   -1.4121   -0.0005 C   0  0  0  0  0  0  0  0  0  0  0  0
    0.3727    1.3807   -0.0005 C   0  0  0  0  0  0  0  0  0  0  0  0
   -2.7748   -0.7082   -0.0001 C   0  0  0  0  0  0  0  0  0  0  0  0
   -2.0395    1.9861    0.0000 C   0  0  0  0  0  0  0  0  0  0  0  0
    2.0228   -2.0175   -0.0007 C   0  0  0  0  0  0  0  0  0  0  0  0
    2.7581    0.6768    0.0004 C   0  0  0  0  0  0  0  0  0  0  0  0
   -3.7550    0.2845    0.0006 C   0  0  0  0  0  0  0  0  0  0  0  0
   -3.3882    1.6289    0.0006 C   0  0  0  0  0  0  0  0  0  0  0  0
    3.3714   -1.6603    0.0000 C   0  0  0  0  0  0  0  0  0  0  0  0
    3.7383   -0.3161    0.0006 C   0  0  0  0  0  0  0  0  0  0  0  0
   -1.7838    3.0422    0.0001 H   0  0  0  0  0  0  0  0  0  0  0  0
    1.7654   -3.0733   -0.0010 H   0  0  0  0  0  0  0  0  0  0  0  0
   -4.8113    0.0265    0.0011 H   0  0  0  0  0  0  0  0  0  0  0  0
   -4.1531    2.4000    0.0011 H   0  0  0  0  0  0  0  0  0  0  0  0
    4.1363   -2.4316    0.0001 H   0  0  0  0  0  0  0  0  0  0  0  0
    4.7966   -0.0651    0.0012 H   0  0  0  0  0  0  0  0  0  0  0  0
   -2.5655   -2.8152   -0.0014 H   0  0  0  0  0  0  0  0  0  0  0  0
   -4.2154   -2.2485   -0.0002 H   0  0  0  0  0  0  0  0  0  0  0  0
  1 14  1  0  0  0  0
  2  9  2  0  0  0  0
  3 10  2  0  0  0  0
  4 11  1  0  0  0  0
  4 25  1  0  0  0  0
  4 26  1  0  0  0  0
  5  6  2  0  0  0  0
  5  9  1  0  0  0  0
  5 11  1  0  0  0  0
  6 10  1  0  0  0  0
  6 12  1  0  0  0  0
  7  8  2  0  0  0  0
  7  9  1  0  0  0  0
  7 13  1  0  0  0  0
  8 10  1  0  0  0  0
  8 14  1  0  0  0  0
 11 15  2  0  0  0  0
 12 16  2  0  0  0  0
 12 19  1  0  0  0  0
 13 17  2  0  0  0  0
 13 20  1  0  0  0  0
 14 18  2  0  0  0  0
 15 16  1  0  0  0  0
 15 21  1  0  0  0  0
 16 22  1  0  0  0  0
 17 18  1  0  0  0  0
 17 23  1  0  0  0  0
 18 24  1  0  0  0  0
M  END
> <PUBCHEM_COMPOUND_CID>
8327

> <PUBCHEM_CONFORMER_RMSD>
0.4

> <PUBCHEM_CONFORMER_DIVERSEORDER>
1

> <PUBCHEM_MMFF94_PARTIAL_CHARGES>
26
1 -0.18
10 0.4
11 0.1
12 -0.15
13 -0.15
14 0.18
15 -0.15
16 -0.15
17 -0.15
18 -0.15
19 0.15
2 -0.57
20 0.15
21 0.15
22 0.15
23 0.15
24 0.15
25 0.4
26 0.4
3 -0.57
4 -0.9
5 0.09
6 0.09
7 0.09
8 0.09
9 0.4

> <PUBCHEM_EFFECTIVE_ROTOR_COUNT>
0

> <PUBCHEM_PHARMACOPHORE_FEATURES>
7
1 2 acceptor
1 3 acceptor
1 4 cation
1 4 donor
6 5 6 11 12 15 16 rings
6 5 6 7 8 9 10 rings
6 7 8 13 14 17 18 rings

> <PUBCHEM_HEAVY_ATOM_COUNT>
18

> <PUBCHEM_ATOM_DEF_STEREO_COUNT>
0

> <PUBCHEM_ATOM_UDEF_STEREO_COUNT>
0

> <PUBCHEM_BOND_DEF_STEREO_COUNT>
0

> <PUBCHEM_BOND_UDEF_STEREO_COUNT>
0

> <PUBCHEM_ISOTOPIC_ATOM_COUNT>
0

> <PUBCHEM_COMPONENT_COUNT>
1

> <PUBCHEM_CACTVS_TAUTO_COUNT>
4

> <PUBCHEM_CONFORMER_ID>
0000208700000001

> <PUBCHEM_MMFF94_ENERGY>
70.6377

> <PUBCHEM_FEATURE_SELFOVERLAP>
35.562

> <PUBCHEM_SHAPE_FINGERPRINT>
10411042 1 16321184886207104078
10608611 8 18410858767363957384
10616163 171 18337669724347924742
10863032 1 18409448089539614797
10967382 1 18338797939120528128
1100329 8 16249129094984243713
11132069 177 18338523039749290832
11471102 20 18339084903186834004
11578080 2 17345216521824695044
13132413 78 18409165480797345132
13140716 1 18338797930520037945
13221675 6 18339080492149977762
13897977 150 18410858805918462317
14223421 5 18411136905045376152
14790565 3 16253610013759963269
15196674 1 18410573972271830501
15442244 35 18338799021716134850
15536298 74 18334858329208518176
16945 1 18266740177563025414
17492 89 18410856551077268123
17804303 29 18266173010189154878
18186145 218 18262232330371391180
193761 8 18266458698296622212
19591789 44 18410854360785728838
200 152 18041292040628988293
20510252 161 18262234422073277209
21267235 1 18410565214891964975
21501502 16 18410293596806747628
221490 88 18412255130209950122
2334 1 18410575088958052708
23366157 5 18131632283996062568
23402539 116 18262811764562522438
23463225 33 18340205296987736052
23559900 14 18262804085630183490
238 59 17193800726901490733
2748010 2 18410856602589462663
335352 9 18122625225715652508
34934 24 18339932622230287875
350125 39 18411412946888866625
474 4 17560511799339063644
5104073 3 18410855455849039225
69090 78 18336270136498301543
7364860 26 18408041819064192684
7832392 63 18337674229636450491
8809292 202 18343015622933539027
9709674 26 18409726266166604214

> <PUBCHEM_SHAPE_MULTIPOLES>
355.58
6.5
2.87
0.6
0.25
0.11
0
0.41
0
-0.45
0
-0.02
0.02
0

> <PUBCHEM_SHAPE_SELFOVERLAP>
797.579

> <PUBCHEM_SHAPE_VOLUME>
187.9

> <PUBCHEM_COORDINATE_TYPE>
2
5
10

$$$$

