2365
  -OEChem-07051213132D

  9  9  0     0  0  0  0  0  0999 V2000
    3.0000    0.8536    0.0000 O   0  0  0  0  0  0  0  0  0  0  0  0
    3.7071   -0.8536    0.0000 O   0  0  0  0  0  0  0  0  0  0  0  0
    2.0000   -0.1464    0.0000 C   0  0  0  0  0  0  0  0  0  0  0  0
    2.0000    0.8536    0.0000 C   0  0  0  0  0  0  0  0  0  0  0  0
    3.0000   -0.1464    0.0000 C   0  0  0  0  0  0  0  0  0  0  0  0
    1.3800   -0.1464    0.0000 H   0  0  0  0  0  0  0  0  0  0  0  0
    2.0000   -0.7664    0.0000 H   0  0  0  0  0  0  0  0  0  0  0  0
    2.0000    1.4736    0.0000 H   0  0  0  0  0  0  0  0  0  0  0  0
    1.3800    0.8536    0.0000 H   0  0  0  0  0  0  0  0  0  0  0  0
  1  4  1  0  0  0  0
  1  5  1  0  0  0  0
  2  5  2  0  0  0  0
  3  4  1  0  0  0  0
  3  5  1  0  0  0  0
  3  6  1  0  0  0  0
  3  7  1  0  0  0  0
  4  8  1  0  0  0  0
  4  9  1  0  0  0  0
M  END
> <PUBCHEM_COMPOUND_CID>
2365

> <PUBCHEM_COMPOUND_CANONICALIZED>
1

> <PUBCHEM_CACTVS_COMPLEXITY>
57.9

> <PUBCHEM_CACTVS_HBOND_ACCEPTOR>
2

> <PUBCHEM_CACTVS_HBOND_DONOR>
0

> <PUBCHEM_CACTVS_ROTATABLE_BOND>
0

> <PUBCHEM_CACTVS_SUBSKEYS>
AAADcYBAMAAAAAAAAAAAAAAAAABIAAAAAAAAAAAAAAAAAAAAAAAAGgAAAAAACACggAIACAAABAAIAACQCAAAAAAAAAAAAAEAAAAAAAQAAAAAAAAAIAAAAAAAAAAAAAAAAAAAAAAAAAAAAAAAAAAAAAAAAA==

> <PUBCHEM_IUPAC_OPENEYE_NAME>
oxetan-2-one

> <PUBCHEM_IUPAC_CAS_NAME>
2-oxetanone

> <PUBCHEM_IUPAC_NAME>
oxetan-2-one

> <PUBCHEM_IUPAC_SYSTEMATIC_NAME>
oxetan-2-one

> <PUBCHEM_IUPAC_TRADITIONAL_NAME>
oxetan-2-one

> <PUBCHEM_IUPAC_INCHI>
InChI=1S/C3H4O2/c4-3-1-2-5-3/h1-2H2

> <PUBCHEM_IUPAC_INCHIKEY>
VEZXCJBBBCKRPI-UHFFFAOYSA-N

> <PUBCHEM_XLOGP3_AA>
-0.2

> <PUBCHEM_EXACT_MASS>
72.021129

> <PUBCHEM_MOLECULAR_FORMULA>
C3H4O2

> <PUBCHEM_MOLECULAR_WEIGHT>
72.06266

> <PUBCHEM_OPENEYE_CAN_SMILES>
C1COC1=O

> <PUBCHEM_OPENEYE_ISO_SMILES>
C1COC1=O

> <PUBCHEM_CACTVS_TPSA>
26.3

> <PUBCHEM_MONOISOTOPIC_WEIGHT>
72.021129

> <PUBCHEM_TOTAL_CHARGE>
0

> <PUBCHEM_HEAVY_ATOM_COUNT>
5

> <PUBCHEM_ATOM_DEF_STEREO_COUNT>
0

> <PUBCHEM_ATOM_UDEF_STEREO_COUNT>
0

> <PUBCHEM_BOND_DEF_STEREO_COUNT>
0

> <PUBCHEM_BOND_UDEF_STEREO_COUNT>
0

> <PUBCHEM_ISOTOPIC_ATOM_COUNT>
0

> <PUBCHEM_COMPONENT_COUNT>
1

> <PUBCHEM_CACTVS_TAUTO_COUNT>
2

> <PUBCHEM_COORDINATE_TYPE>
1
5
255

$$$$

