5281651
  -OEChem-07051212583D

 29 31  0     0  0  0  0  0  0999 V2000
   -0.5973    1.3722    0.0000 O   0  0  0  0  0  0  0  0  0  0  0  0
    4.1394    1.5818    0.0007 O   0  0  0  0  0  0  0  0  0  0  0  0
    2.0703   -2.6911   -0.0011 O   0  0  0  0  0  0  0  0  0  0  0  0
   -0.5645   -2.7195   -0.0004 O   0  0  0  0  0  0  0  0  0  0  0  0
   -2.9283    2.7512   -0.0005 O   0  0  0  0  0  0  0  0  0  0  0  0
    0.6831   -0.7074    0.0004 C   0  0  0  0  0  0  0  0  0  0  0  0
   -1.8197   -0.7420    0.0004 C   0  0  0  0  0  0  0  0  0  0  0  0
    0.5911    0.6842    0.0000 C   0  0  0  0  0  0  0  0  0  0  0  0
   -1.7663    0.6515    0.0002 C   0  0  0  0  0  0  0  0  0  0  0  0
   -0.5576   -1.4974    0.0007 C   0  0  0  0  0  0  0  0  0  0  0  0
    1.9309   -1.3364    0.0003 C   0  0  0  0  0  0  0  0  0  0  0  0
    1.7563    1.4537   -0.0005 C   0  0  0  0  0  0  0  0  0  0  0  0
   -3.0496   -1.4053    0.0004 C   0  0  0  0  0  0  0  0  0  0  0  0
    3.0046    0.8301   -0.0006 C   0  0  0  0  0  0  0  0  0  0  0  0
   -2.9523    1.3886   -0.0001 C   0  0  0  0  0  0  0  0  0  0  0  0
    3.0914   -0.5623   -0.0002 C   0  0  0  0  0  0  0  0  0  0  0  0
   -4.2311   -0.6635    0.0001 C   0  0  0  0  0  0  0  0  0  0  0  0
   -4.1829    0.7307   -0.0001 C   0  0  0  0  0  0  0  0  0  0  0  0
    5.3823    0.8812    0.0004 C   0  0  0  0  0  0  0  0  0  0  0  0
    1.6937    2.5391   -0.0005 H   0  0  0  0  0  0  0  0  0  0  0  0
   -3.1080   -2.4900    0.0005 H   0  0  0  0  0  0  0  0  0  0  0  0
    4.0386   -1.0916   -0.0002 H   0  0  0  0  0  0  0  0  0  0  0  0
   -5.1906   -1.1726    0.0001 H   0  0  0  0  0  0  0  0  0  0  0  0
   -5.1132    1.2925   -0.0003 H   0  0  0  0  0  0  0  0  0  0  0  0
    3.0143   -2.9239   -0.0014 H   0  0  0  0  0  0  0  0  0  0  0  0
   -3.8418    3.0850   -0.0008 H   0  0  0  0  0  0  0  0  0  0  0  0
    5.5089    0.2852   -0.9099 H   0  0  0  0  0  0  0  0  0  0  0  0
    5.5088    0.2845    0.9102 H   0  0  0  0  0  0  0  0  0  0  0  0
    6.1771    1.6344    0.0007 H   0  0  0  0  0  0  0  0  0  0  0  0
  1  8  1  0  0  0  0
  1  9  1  0  0  0  0
  2 14  1  0  0  0  0
  2 19  1  0  0  0  0
  3 11  1  0  0  0  0
  3 25  1  0  0  0  0
  4 10  2  0  0  0  0
  5 15  1  0  0  0  0
  5 26  1  0  0  0  0
  6  8  1  0  0  0  0
  6 10  1  0  0  0  0
  6 11  2  0  0  0  0
  7  9  2  0  0  0  0
  7 10  1  0  0  0  0
  7 13  1  0  0  0  0
  8 12  2  0  0  0  0
  9 15  1  0  0  0  0
 11 16  1  0  0  0  0
 12 14  1  0  0  0  0
 12 20  1  0  0  0  0
 13 17  2  0  0  0  0
 13 21  1  0  0  0  0
 14 16  2  0  0  0  0
 15 18  2  0  0  0  0
 16 22  1  0  0  0  0
 17 18  1  0  0  0  0
 17 23  1  0  0  0  0
 18 24  1  0  0  0  0
 19 27  1  0  0  0  0
 19 28  1  0  0  0  0
 19 29  1  0  0  0  0
M  END
> <PUBCHEM_COMPOUND_CID>
5281651

> <PUBCHEM_CONFORMER_RMSD>
0.6

> <PUBCHEM_CONFORMER_DIVERSEORDER>
1

> <PUBCHEM_MMFF94_PARTIAL_CHARGES>
26
1 -0.17
10 0.4
11 0.08
12 -0.15
13 -0.15
14 0.08
15 0.08
16 -0.15
17 -0.15
18 -0.15
19 0.28
2 -0.36
20 0.15
21 0.15
22 0.15
23 0.15
24 0.15
25 0.45
26 0.45
3 -0.53
4 -0.57
5 -0.53
6 0.09
7 0.09
8 0.08
9 0.08

> <PUBCHEM_EFFECTIVE_ROTOR_COUNT>
1

> <PUBCHEM_PHARMACOPHORE_FEATURES>
8
1 1 acceptor
1 2 acceptor
1 3 donor
1 4 acceptor
1 5 donor
6 1 6 7 8 9 10 rings
6 6 8 11 12 14 16 rings
6 7 9 13 15 17 18 rings

> <PUBCHEM_HEAVY_ATOM_COUNT>
19

> <PUBCHEM_ATOM_DEF_STEREO_COUNT>
0

> <PUBCHEM_ATOM_UDEF_STEREO_COUNT>
0

> <PUBCHEM_BOND_DEF_STEREO_COUNT>
0

> <PUBCHEM_BOND_UDEF_STEREO_COUNT>
0

> <PUBCHEM_ISOTOPIC_ATOM_COUNT>
0

> <PUBCHEM_COMPONENT_COUNT>
1

> <PUBCHEM_CACTVS_TAUTO_COUNT>
14

> <PUBCHEM_CONFORMER_ID>
0050977300000001

> <PUBCHEM_MMFF94_ENERGY>
66.7714

> <PUBCHEM_FEATURE_SELFOVERLAP>
40.652

> <PUBCHEM_SHAPE_FINGERPRINT>
10411042 1 16753249640872274599
10608611 8 18339081591904322117
10616163 171 18338796710834117823
10967382 1 18410575101895715111
11471102 20 18410296912553200766
11578080 2 17058384801540836582
12236239 1 17775007835111090564
12390115 104 18261374676831711665
13140716 1 17907008487469521483
13380535 76 18411981325965728258
138480 1 17834113422159690566
14790565 3 18339916018272557996
15042514 8 18124029035988080451
15196674 1 18410856585409716774
15442244 35 18194402427161576963
15536298 74 18335137626520882246
16945 1 18338797793170904263
17492 89 18410575132399317027
18186145 218 18188481496926854533
19591789 44 17977945687822571979
200 152 18040156188929297813
20510252 161 18333728022581048617
20645477 70 18261674873628693183
21267235 1 18339353085150261478
21279426 13 18263921210945104238
21501502 16 18338520845211003947
221490 88 18339352075822722306
2334 1 18410575106370069451
23366157 5 18059289989271619850
23402539 116 18335709282362268477
23402655 69 18334299790197183069
23463225 33 18340487871528964903
23559900 14 18117844524058801926
238 59 16905568190460356869
2748010 2 18339357564985670255
335352 9 17906172107097479071
34934 24 18410862057535740007
350125 39 18410571773671081393
3545911 37 18411980260776811645
4214541 1 18410856576967852000
474 4 17775280522146818452
4990 188 18040705979414303884
5104073 3 18411699923728876618
69090 78 18335986384872542783
7364860 26 18335700602492293526
9709674 26 18410005533350711719

> <PUBCHEM_SHAPE_MULTIPOLES>
361.66
8.4
2.51
0.59
3.77
0.56
0
-3.03
0
-0.36
0
-0.01
0
0

> <PUBCHEM_SHAPE_SELFOVERLAP>
814.017

> <PUBCHEM_SHAPE_VOLUME>
190.2

> <PUBCHEM_COORDINATE_TYPE>
2
5
10

$$$$

