440046
  -OEChem-07051212483D

 15 15  0     0  0  0  0  0  0999 V2000
    1.9481    1.1280   -0.4161 O   0  0  0  0  0  0  0  0  0  0  0  0
    2.1261   -0.9983    0.4411 O   0  0  0  0  0  0  0  0  0  0  0  0
   -0.6457   -1.1481   -0.2560 N   0  0  0  0  0  0  0  0  0  0  0  0
   -2.1118    0.6244    0.4104 C   0  0  0  0  0  0  0  0  0  0  0  0
   -0.7517    1.2161    0.1188 C   0  0  0  0  0  0  0  0  0  0  0  0
   -2.0613   -0.7215   -0.2976 C   0  0  0  0  0  0  0  0  0  0  0  0
    0.0095   -0.0534   -0.0343 C   0  0  0  0  0  0  0  0  0  0  0  0
    1.4867   -0.0472    0.0337 C   0  0  0  0  0  0  0  0  0  0  0  0
   -2.2289    0.4716    1.4905 H   0  0  0  0  0  0  0  0  0  0  0  0
   -2.9373    1.2543    0.0675 H   0  0  0  0  0  0  0  0  0  0  0  0
   -0.3781    1.8328    0.9388 H   0  0  0  0  0  0  0  0  0  0  0  0
   -0.7364    1.7726   -0.8226 H   0  0  0  0  0  0  0  0  0  0  0  0
   -2.6971   -1.4558    0.2063 H   0  0  0  0  0  0  0  0  0  0  0  0
   -2.3841   -0.6382   -1.3415 H   0  0  0  0  0  0  0  0  0  0  0  0
    2.9275    1.1768   -0.3911 H   0  0  0  0  0  0  0  0  0  0  0  0
  1  8  1  0  0  0  0
  1 15  1  0  0  0  0
  2  8  2  0  0  0  0
  3  6  1  0  0  0  0
  3  7  2  0  0  0  0
  4  5  1  0  0  0  0
  4  6  1  0  0  0  0
  4  9  1  0  0  0  0
  4 10  1  0  0  0  0
  5  7  1  0  0  0  0
  5 11  1  0  0  0  0
  5 12  1  0  0  0  0
  6 13  1  0  0  0  0
  6 14  1  0  0  0  0
  7  8  1  0  0  0  0
M  END
> <PUBCHEM_COMPOUND_CID>
440046

> <PUBCHEM_CONFORMER_RMSD>
0.4

> <PUBCHEM_CONFORMER_DIVERSEORDER>
1
2
3

> <PUBCHEM_MMFF94_PARTIAL_CHARGES>
8
1 -0.65
15 0.5
2 -0.57
3 -0.7
5 0.06
6 0.25
7 0.39
8 0.72

> <PUBCHEM_EFFECTIVE_ROTOR_COUNT>
1.6

> <PUBCHEM_PHARMACOPHORE_FEATURES>
5
1 1 acceptor
1 2 acceptor
1 3 acceptor
3 1 2 8 anion
5 3 4 5 6 7 rings

> <PUBCHEM_HEAVY_ATOM_COUNT>
8

> <PUBCHEM_ATOM_DEF_STEREO_COUNT>
0

> <PUBCHEM_ATOM_UDEF_STEREO_COUNT>
0

> <PUBCHEM_BOND_DEF_STEREO_COUNT>
0

> <PUBCHEM_BOND_UDEF_STEREO_COUNT>
0

> <PUBCHEM_ISOTOPIC_ATOM_COUNT>
0

> <PUBCHEM_COMPONENT_COUNT>
1

> <PUBCHEM_CACTVS_TAUTO_COUNT>
1

> <PUBCHEM_CONFORMER_ID>
0006B6EE00000001

> <PUBCHEM_MMFF94_ENERGY>
11.4163

> <PUBCHEM_FEATURE_SELFOVERLAP>
25.425

> <PUBCHEM_SHAPE_FINGERPRINT>
16714656 1 18261387832505839061
18185500 45 18339362942078866532
20096714 4 18411132558601873544
21040471 1 18115865376894329473
23552423 10 18341894099503405846
24536 1 18410023134236992718
29004967 10 16702018664630847213
369184 2 18409455794853349249
5084963 1 18262522605667396259

> <PUBCHEM_SHAPE_MULTIPOLES>
147.92
3.03
1.28
0.66
0.42
0.08
0.01
-0.09
0.13
-0.03
-0.04
-0.01
0.01
-0.35

> <PUBCHEM_SHAPE_SELFOVERLAP>
299.684

> <PUBCHEM_SHAPE_VOLUME>
88.2

> <PUBCHEM_COORDINATE_TYPE>
2
5
10

$$$$

