17396069
  -OEChem-06241222543D

 53 56  0     1  0  0  0  0  0999 V2000
   -1.5251   -0.8110    0.4716 S   0  0  0  0  0  0  0  0  0  0  0  0
    5.5399   -0.6262    0.8152 O   0  0  0  0  0  0  0  0  0  0  0  0
    1.3937   -1.5798    1.9128 O   0  0  0  0  0  0  0  0  0  0  0  0
    1.8951    3.3354   -0.3752 O   0  0  0  0  0  0  0  0  0  0  0  0
    1.6368   -1.7210   -0.3845 N   0  0  0  0  0  0  0  0  0  0  0  0
   -4.2826   -0.8556    0.1610 N   0  0  0  0  0  0  0  0  0  0  0  0
   -3.4101   -2.8310    0.3584 N   0  0  0  0  0  0  0  0  0  0  0  0
   -5.3157   -1.7062    0.0862 N   0  0  0  0  0  0  0  0  0  0  0  0
   -4.7759   -2.9129    0.2071 N   0  0  0  0  0  0  0  0  0  0  0  0
    3.0730   -1.4217   -0.4172 C   0  0  1  0  0  0  0  0  0  0  0  0
    3.4984   -1.8096   -1.8392 C   0  0  0  0  0  0  0  0  0  0  0  0
    2.2378   -1.5879   -2.6683 C   0  0  0  0  0  0  0  0  0  0  0  0
    1.1236   -2.0080   -1.7221 C   0  0  0  0  0  0  0  0  0  0  0  0
    3.4133    0.0192   -0.0832 C   0  0  0  0  0  0  0  0  0  0  0  0
    0.9261   -1.8311    0.8009 C   0  0  0  0  0  0  0  0  0  0  0  0
    4.6307    0.3434    0.5154 C   0  0  0  0  0  0  0  0  0  0  0  0
    2.4938    1.0245   -0.3826 C   0  0  0  0  0  0  0  0  0  0  0  0
   -0.5062   -2.2810    0.6607 C   0  0  0  0  0  0  0  0  0  0  0  0
    2.7919    2.3540   -0.0837 C   0  0  0  0  0  0  0  0  0  0  0  0
    4.9289    1.6728    0.8145 C   0  0  0  0  0  0  0  0  0  0  0  0
    4.0094    2.6780    0.5150 C   0  0  0  0  0  0  0  0  0  0  0  0
    6.7581   -0.2056    1.4258 C   0  0  0  0  0  0  0  0  0  0  0  0
   -3.1265   -1.5493    0.3266 C   0  0  0  0  0  0  0  0  0  0  0  0
    0.6699    2.9348   -0.9867 C   0  0  0  0  0  0  0  0  0  0  0  0
   -4.4808    0.5184    0.0704 C   0  0  0  0  0  0  0  0  0  0  0  0
   -3.4834    1.3330   -0.4654 C   0  0  0  0  0  0  0  0  0  0  0  0
   -5.6772    1.0814    0.5145 C   0  0  0  0  0  0  0  0  0  0  0  0
   -3.6822    2.7106   -0.5572 C   0  0  0  0  0  0  0  0  0  0  0  0
   -5.8762    2.4589    0.4227 C   0  0  0  0  0  0  0  0  0  0  0  0
   -4.8786    3.2735   -0.1131 C   0  0  0  0  0  0  0  0  0  0  0  0
    3.5510   -2.0795    0.3193 H   0  0  0  0  0  0  0  0  0  0  0  0
    3.7546   -2.8765   -1.8650 H   0  0  0  0  0  0  0  0  0  0  0  0
    4.3574   -1.2487   -2.2205 H   0  0  0  0  0  0  0  0  0  0  0  0
    2.2352   -2.1642   -3.5978 H   0  0  0  0  0  0  0  0  0  0  0  0
    2.1388   -0.5282   -2.9293 H   0  0  0  0  0  0  0  0  0  0  0  0
    0.9428   -3.0862   -1.7905 H   0  0  0  0  0  0  0  0  0  0  0  0
    0.1917   -1.4730   -1.9188 H   0  0  0  0  0  0  0  0  0  0  0  0
    1.5616    0.7430   -0.8556 H   0  0  0  0  0  0  0  0  0  0  0  0
   -0.6423   -2.9771   -0.1696 H   0  0  0  0  0  0  0  0  0  0  0  0
   -0.7854   -2.8119    1.5777 H   0  0  0  0  0  0  0  0  0  0  0  0
    5.8527    1.9998    1.2787 H   0  0  0  0  0  0  0  0  0  0  0  0
    4.2459    3.7123    0.7500 H   0  0  0  0  0  0  0  0  0  0  0  0
    7.3379    0.4463    0.7635 H   0  0  0  0  0  0  0  0  0  0  0  0
    6.5828    0.2460    2.4082 H   0  0  0  0  0  0  0  0  0  0  0  0
    7.3611   -1.1043    1.5932 H   0  0  0  0  0  0  0  0  0  0  0  0
    0.8377    2.4861   -1.9717 H   0  0  0  0  0  0  0  0  0  0  0  0
    0.0837    2.2860   -0.3272 H   0  0  0  0  0  0  0  0  0  0  0  0
    0.0778    3.8417   -1.1474 H   0  0  0  0  0  0  0  0  0  0  0  0
   -2.5931    0.9608   -0.9550 H   0  0  0  0  0  0  0  0  0  0  0  0
   -6.4693    0.4742    0.9454 H   0  0  0  0  0  0  0  0  0  0  0  0
   -2.9187    3.3420   -1.0024 H   0  0  0  0  0  0  0  0  0  0  0  0
   -6.8074    2.8978    0.7689 H   0  0  0  0  0  0  0  0  0  0  0  0
   -5.0362    4.3452   -0.1908 H   0  0  0  0  0  0  0  0  0  0  0  0
  1 18  1  0  0  0  0
  1 23  1  0  0  0  0
  2 16  1  0  0  0  0
  2 22  1  0  0  0  0
  3 15  2  0  0  0  0
  4 19  1  0  0  0  0
  4 24  1  0  0  0  0
  5 10  1  0  0  0  0
  5 13  1  0  0  0  0
  5 15  1  0  0  0  0
  6  8  1  0  0  0  0
  6 23  1  0  0  0  0
  6 25  1  0  0  0  0
  7  9  1  0  0  0  0
  7 23  2  0  0  0  0
  8  9  2  0  0  0  0
 10 11  1  0  0  0  0
 10 14  1  0  0  0  0
 10 31  1  0  0  0  0
 11 12  1  0  0  0  0
 11 32  1  0  0  0  0
 11 33  1  0  0  0  0
 12 13  1  0  0  0  0
 12 34  1  0  0  0  0
 12 35  1  0  0  0  0
 13 36  1  0  0  0  0
 13 37  1  0  0  0  0
 14 16  2  0  0  0  0
 14 17  1  0  0  0  0
 15 18  1  0  0  0  0
 16 20  1  0  0  0  0
 17 19  2  0  0  0  0
 17 38  1  0  0  0  0
 18 39  1  0  0  0  0
 18 40  1  0  0  0  0
 19 21  1  0  0  0  0
 20 21  2  0  0  0  0
 20 41  1  0  0  0  0
 21 42  1  0  0  0  0
 22 43  1  0  0  0  0
 22 44  1  0  0  0  0
 22 45  1  0  0  0  0
 24 46  1  0  0  0  0
 24 47  1  0  0  0  0
 24 48  1  0  0  0  0
 25 26  2  0  0  0  0
 25 27  1  0  0  0  0
 26 28  1  0  0  0  0
 26 49  1  0  0  0  0
 27 29  2  0  0  0  0
 27 50  1  0  0  0  0
 28 30  2  0  0  0  0
 28 51  1  0  0  0  0
 29 30  1  0  0  0  0
 29 52  1  0  0  0  0
 30 53  1  0  0  0  0
M  END
> <PUBCHEM_COMPOUND_CID>
17396069

> <PUBCHEM_CONFORMER_RMSD>
1.2

> <PUBCHEM_CONFORMER_DIVERSEORDER>
1
184
66
133
211
18
105
284
55
50
77
196
289
213
118
86
47
3
26
21
130
229
274
187
169
136
58
148
102
270
45
93
216
19
96
17
212
230
282
177
214
62
104
277
222
202
113
200
116
265
82
120
25
215
147
207
288
40
59
262
155
12
197
83
232
162
224
233
44
217
175
276
51
278
75
128
54
134
174
144
109
35
49
263
238
110
52
31
48
203
266
142
221
225
287
239
168
32
172
88
74
131
273
114
219
140
285
281
250
65
253
34
145
189
103
194
241
195
150
106
101
122
108
280
260
192
107
95
180
161
73
271
14
37
158
269
76
264
226
240
123
70
210
279
209
141
166
43
246
173
9
154
20
146
237
99
92
236
178
57
72
268
261
94
191
85
205
124
5
235
206
149
201
139
11
10
272
182
112
84
33
119
186
171
46
56
185
254
228
198
89
188
13
78
243
179
181
252
15
257
244
167
27
28
67
267
208
87
69
39
29
231
223
129
117
275
135
63
227
42
255
138
64
2
98
61
193
283
143
121
199
97
183
36
115
8
79
127
204
132
247
111
24
258
170
151
286
163
68
125
176
7
90
4
153
152
249
100
220
30
157
251
126
16
38
41
71
6
164
22
81
256
190
60
53
248
218
91
245
165
159
259
23
156
242
80
137
234
160

> <PUBCHEM_MMFF94_PARTIAL_CHARGES>
35
1 -0.29
10 0.44
13 0.3
14 -0.14
15 0.57
16 0.08
17 -0.15
18 0.29
19 0.08
2 -0.36
20 -0.15
21 -0.15
22 0.28
23 0.24
24 0.28
25 -0.02
26 -0.15
27 -0.15
28 -0.15
29 -0.15
3 -0.57
30 -0.15
38 0.15
4 -0.36
41 0.15
42 0.15
49 0.15
5 -0.66
50 0.15
51 0.15
52 0.15
53 0.15
6 0.59
7 -0.34
8 -0.42

> <PUBCHEM_EFFECTIVE_ROTOR_COUNT>
9

> <PUBCHEM_PHARMACOPHORE_FEATURES>
8
1 2 acceptor
1 3 acceptor
1 4 acceptor
3 6 7 23 cation
5 5 10 11 12 13 rings
5 6 7 8 9 23 rings
6 14 16 17 19 20 21 rings
6 25 26 27 28 29 30 rings

> <PUBCHEM_HEAVY_ATOM_COUNT>
30

> <PUBCHEM_ATOM_DEF_STEREO_COUNT>
0

> <PUBCHEM_ATOM_UDEF_STEREO_COUNT>
1

> <PUBCHEM_BOND_DEF_STEREO_COUNT>
0

> <PUBCHEM_BOND_UDEF_STEREO_COUNT>
0

> <PUBCHEM_ISOTOPIC_ATOM_COUNT>
0

> <PUBCHEM_COMPONENT_COUNT>
1

> <PUBCHEM_CACTVS_TAUTO_COUNT>
1

> <PUBCHEM_CONFORMER_ID>
0109716500000001

> <PUBCHEM_MMFF94_ENERGY>
105.5362

> <PUBCHEM_FEATURE_SELFOVERLAP>
40.595

> <PUBCHEM_SHAPE_FINGERPRINT>
10439779 11 18339088214644023632
10764073 3 18270129023567991590
10864689 126 17908702074884889653
11069576 57 15503493948994771910
11720765 8 17322386464012419647
12107698 1 18340211777930154322
12403260 363 18198908019775059551
12422481 6 18261405442383423050
12633257 1 18273501177710377444
12925494 130 18410295848309400425
13402501 40 18340488966645853468
14251764 38 18341326678642042637
144659 39 17748824107840259037
14466204 15 18343025501621836730
14739800 52 18342469161486291483
15238133 3 18272928320084841454
15961568 22 18196931080783635461
17844677 252 18409439289658560347
20715895 44 18334857263745321363
21197605 99 18336546001852097796
21315763 129 18411137996109819067
22149856 69 17025405844105306491
23227448 37 18410572907895342863
23559900 14 18116427240369348383
2838139 119 18261682471815839722
328310 1195 18186519908169398266
338550 245 18272646827227219773
3388396 114 17034746040252088869
3680242 22 18200592638971276632
4093350 32 17314227942169046205
4144715 1 18341888563670896042
46194498 28 18041263418577012279
5081480 168 17462528953288209421
508706 21 18343014480798973943
6823239 73 18263070153926253172

> <PUBCHEM_SHAPE_MULTIPOLES>
578.72
14.86
4.27
1.44
6.31
1.63
0.66
5.13
-4.03
2.82
0.49
-1.86
-0.84
1.52

> <PUBCHEM_SHAPE_SELFOVERLAP>
1231.704

> <PUBCHEM_SHAPE_VOLUME>
324.9

> <PUBCHEM_COORDINATE_TYPE>
2
5
10

$$$$

