11321
  -OEChem-07051212463D

 21 22  0     0  0  0  0  0  0999 V2000
    0.5386    2.9418    0.0589 O   0  0  0  0  0  0  0  0  0  0  0  0
   -2.0972    1.9453    0.1060 O   0  0  0  0  0  0  0  0  0  0  0  0
   -1.9484   -2.2953    0.5143 O   0  0  0  0  0  0  0  0  0  0  0  0
   -1.0012   -0.1980    0.0338 N   0  0  0  0  0  0  0  0  0  0  0  0
    0.3873   -0.5255   -0.0075 C   0  0  0  0  0  0  0  0  0  0  0  0
    1.1746    0.6259   -0.0035 C   0  0  0  0  0  0  0  0  0  0  0  0
    0.2730    1.7640    0.0426 C   0  0  0  0  0  0  0  0  0  0  0  0
   -1.1356    1.2063    0.0661 C   0  0  0  0  0  0  0  0  0  0  0  0
    1.0105   -1.7630   -0.0491 C   0  0  0  0  0  0  0  0  0  0  0  0
    2.5553    0.6164   -0.0385 C   0  0  0  0  0  0  0  0  0  0  0  0
   -2.0257   -1.1612    0.0408 C   0  0  0  0  0  0  0  0  0  0  0  0
    2.4118   -1.8074   -0.0853 C   0  0  0  0  0  0  0  0  0  0  0  0
    3.1771   -0.6287   -0.0800 C   0  0  0  0  0  0  0  0  0  0  0  0
   -3.3202   -0.7206   -0.5986 C   0  0  0  0  0  0  0  0  0  0  0  0
    0.4520   -2.6918   -0.0625 H   0  0  0  0  0  0  0  0  0  0  0  0
    3.1356    1.5315   -0.0343 H   0  0  0  0  0  0  0  0  0  0  0  0
    2.9156   -2.7702   -0.1200 H   0  0  0  0  0  0  0  0  0  0  0  0
    4.2613   -0.6922   -0.1092 H   0  0  0  0  0  0  0  0  0  0  0  0
   -3.1273   -0.1040   -1.4808 H   0  0  0  0  0  0  0  0  0  0  0  0
   -3.9118   -0.1565    0.1270 H   0  0  0  0  0  0  0  0  0  0  0  0
   -3.8876   -1.6002   -0.9164 H   0  0  0  0  0  0  0  0  0  0  0  0
  1  7  2  0  0  0  0
  2  8  2  0  0  0  0
  3 11  2  0  0  0  0
  4  5  1  0  0  0  0
  4  8  1  0  0  0  0
  4 11  1  0  0  0  0
  5  6  1  0  0  0  0
  5  9  2  0  0  0  0
  6  7  1  0  0  0  0
  6 10  2  0  0  0  0
  7  8  1  0  0  0  0
  9 12  1  0  0  0  0
  9 15  1  0  0  0  0
 10 13  1  0  0  0  0
 10 16  1  0  0  0  0
 11 14  1  0  0  0  0
 12 13  2  0  0  0  0
 12 17  1  0  0  0  0
 13 18  1  0  0  0  0
 14 19  1  0  0  0  0
 14 20  1  0  0  0  0
 14 21  1  0  0  0  0
M  END
> <PUBCHEM_COMPOUND_CID>
11321

> <PUBCHEM_CONFORMER_RMSD>
0.4

> <PUBCHEM_CONFORMER_DIVERSEORDER>
1
3
2

> <PUBCHEM_MMFF94_PARTIAL_CHARGES>
18
1 -0.57
10 -0.15
11 0.57
12 -0.15
13 -0.15
14 0.06
15 0.15
16 0.15
17 0.15
18 0.15
2 -0.57
3 -0.57
4 -0.24
5 0.12
6 0.09
7 0.48
8 0.63
9 -0.15

> <PUBCHEM_EFFECTIVE_ROTOR_COUNT>
1.2

> <PUBCHEM_PHARMACOPHORE_FEATURES>
5
1 1 acceptor
1 2 acceptor
1 3 acceptor
5 4 5 6 7 8 rings
6 5 6 9 10 12 13 rings

> <PUBCHEM_HEAVY_ATOM_COUNT>
14

> <PUBCHEM_ATOM_DEF_STEREO_COUNT>
0

> <PUBCHEM_ATOM_UDEF_STEREO_COUNT>
0

> <PUBCHEM_BOND_DEF_STEREO_COUNT>
0

> <PUBCHEM_BOND_UDEF_STEREO_COUNT>
0

> <PUBCHEM_ISOTOPIC_ATOM_COUNT>
0

> <PUBCHEM_COMPONENT_COUNT>
1

> <PUBCHEM_CACTVS_TAUTO_COUNT>
1

> <PUBCHEM_CONFORMER_ID>
00002C3900000001

> <PUBCHEM_MMFF94_ENERGY>
43.5233

> <PUBCHEM_FEATURE_SELFOVERLAP>
25.463

> <PUBCHEM_SHAPE_FINGERPRINT>
10967382 1 18266459797813531255
11206711 2 18411978065810945588
11471102 20 18339085887119512167
12382932 28 18336830908808287024
12423570 1 11589500848071537256
13140716 1 17906171754598930962
13380535 76 18120097444310045998
14648413 74 18125725586871678089
15490181 7 17402046094286506535
16945 1 18338794503130867122
17990270 104 18196375818615893347
193761 8 18410571747568883729
20201158 50 18340773645715457719
20645477 70 18051141285376144631
20871998 184 18114747164773264183
21501502 16 18338234985141255822
22721475 48 18411134706170002071
2334 1 18410574019569341698
23402539 116 18263378030140856647
23526114 1 17833553396946570551
23552423 10 18271519888111682566
23559900 14 18191023611862921174
241688 4 18338797922125379592
2748010 2 18408606976345740310
5493415 88 18267586810180506066
7364860 26 18191588544941070792
81228 2 18266173018647220800
8809292 202 18194959871267845382

> <PUBCHEM_SHAPE_MULTIPOLES>
265.52
4.33
2.67
0.63
0.35
0.95
0.02
-1.71
0.42
0.37
-0.19
0.08
-0.07
0.04

> <PUBCHEM_SHAPE_SELFOVERLAP>
580.857

> <PUBCHEM_SHAPE_VOLUME>
144

> <PUBCHEM_COORDINATE_TYPE>
2
5
10

$$$$

