44237334
  -OEChem-07051213102D

 34 33  0     1  0  0  0  0  0999 V2000
    4.5981    2.8665    0.0000 S   0  0  0  0  0  0  0  0  0  0  0  0
    5.0981   -3.1956    0.0000 O   0  0  0  0  0  0  0  0  0  0  0  0
    6.3301   -2.3296    0.0000 O   0  0  0  0  0  0  0  0  0  0  0  0
    5.4641   -0.8296    0.0000 O   0  0  0  0  0  0  0  0  0  0  0  0
    2.0000   -2.8296    0.0000 O   0  0  0  0  0  0  0  0  0  0  0  0
    2.8660   -1.3296    0.0000 O   0  0  0  0  0  0  0  0  0  0  0  0
    4.0981   -1.4636    0.0000 C   0  0  0  0  0  0  0  0  0  0  0  0
    4.5981   -2.3296    0.0000 C   0  0  3  0  0  0  0  0  0  0  0  0
    4.5981   -0.5976    0.0000 C   0  0  0  0  0  0  0  0  0  0  0  0
    4.0981    0.2685    0.0000 C   0  0  0  0  0  0  0  0  0  0  0  0
    3.7320   -2.8296    0.0000 C   0  0  0  0  0  0  0  0  0  0  0  0
    4.5981    1.1345    0.0000 C   0  0  0  0  0  0  0  0  0  0  0  0
    5.4641   -1.8296    0.0000 C   0  0  0  0  0  0  0  0  0  0  0  0
    4.0981    2.0005    0.0000 C   0  0  0  0  0  0  0  0  0  0  0  0
    2.8660   -2.3296    0.0000 C   0  0  0  0  0  0  0  0  0  0  0  0
    4.0981    3.7326    0.0000 C   0  0  0  0  0  0  0  0  0  0  0  0
    3.6231   -1.0650    0.0000 H   0  0  0  0  0  0  0  0  0  0  0  0
    3.6231   -1.8621    0.0000 H   0  0  0  0  0  0  0  0  0  0  0  0
    5.0730   -0.9961    0.0000 H   0  0  0  0  0  0  0  0  0  0  0  0
    5.0730   -0.1990    0.0000 H   0  0  0  0  0  0  0  0  0  0  0  0
    3.6231    0.6670    0.0000 H   0  0  0  0  0  0  0  0  0  0  0  0
    3.6231   -0.1301    0.0000 H   0  0  0  0  0  0  0  0  0  0  0  0
    3.3335   -3.3046    0.0000 H   0  0  0  0  0  0  0  0  0  0  0  0
    4.1306   -3.3046    0.0000 H   0  0  0  0  0  0  0  0  0  0  0  0
    5.0730    0.7360    0.0000 H   0  0  0  0  0  0  0  0  0  0  0  0
    5.0730    1.5330    0.0000 H   0  0  0  0  0  0  0  0  0  0  0  0
    3.6231    2.3990    0.0000 H   0  0  0  0  0  0  0  0  0  0  0  0
    3.6231    1.6020    0.0000 H   0  0  0  0  0  0  0  0  0  0  0  0
    4.7881   -3.7326    0.0000 H   0  0  0  0  0  0  0  0  0  0  0  0
    6.8671   -2.0196    0.0000 H   0  0  0  0  0  0  0  0  0  0  0  0
    2.0000   -3.4496    0.0000 H   0  0  0  0  0  0  0  0  0  0  0  0
    4.6350    4.0426    0.0000 H   0  0  0  0  0  0  0  0  0  0  0  0
    3.7881    4.2695    0.0000 H   0  0  0  0  0  0  0  0  0  0  0  0
    3.5611    3.4226    0.0000 H   0  0  0  0  0  0  0  0  0  0  0  0
  1 14  1  0  0  0  0
  1 16  1  0  0  0  0
  2  8  1  0  0  0  0
  2 29  1  0  0  0  0
  3 13  1  0  0  0  0
  3 30  1  0  0  0  0
  4 13  2  0  0  0  0
  5 15  1  0  0  0  0
  5 31  1  0  0  0  0
  6 15  2  0  0  0  0
  7  8  1  0  0  0  0
  7  9  1  0  0  0  0
  7 17  1  0  0  0  0
  7 18  1  0  0  0  0
  8 11  1  0  0  0  0
  8 13  1  0  0  0  0
  9 10  1  0  0  0  0
  9 19  1  0  0  0  0
  9 20  1  0  0  0  0
 10 12  1  0  0  0  0
 10 21  1  0  0  0  0
 10 22  1  0  0  0  0
 11 15  1  0  0  0  0
 11 23  1  0  0  0  0
 11 24  1  0  0  0  0
 12 14  1  0  0  0  0
 12 25  1  0  0  0  0
 12 26  1  0  0  0  0
 14 27  1  0  0  0  0
 14 28  1  0  0  0  0
 16 32  1  0  0  0  0
 16 33  1  0  0  0  0
 16 34  1  0  0  0  0
M  END
> <PUBCHEM_COMPOUND_CID>
44237334

> <PUBCHEM_COMPOUND_CANONICALIZED>
1

> <PUBCHEM_CACTVS_COMPLEXITY>
243

> <PUBCHEM_CACTVS_HBOND_ACCEPTOR>
6

> <PUBCHEM_CACTVS_HBOND_DONOR>
3

> <PUBCHEM_CACTVS_ROTATABLE_BOND>
9

> <PUBCHEM_CACTVS_SUBSKEYS>
AAADceBwOABAAAAAAAAAAAAAAAAAAAAAAAAAAAAAAAAAAAAAAAAAGgQACAAADESEwACCCAAAAggIAACQCAIAAAAAABAAAAFAAAABABYgAAAAQAAFIAABAAHLyOCOAAAAAAAAAAAAAAAAAAAAAAAAAAAAAA==

> <PUBCHEM_IUPAC_OPENEYE_NAME>
2-hydroxy-2-(5-methylsulfanylpentyl)butanedioic acid

> <PUBCHEM_IUPAC_CAS_NAME>
2-hydroxy-2-[5-(methylthio)pentyl]butanedioic acid

> <PUBCHEM_IUPAC_NAME>
2-hydroxy-2-(5-methylsulfanylpentyl)butanedioic acid

> <PUBCHEM_IUPAC_SYSTEMATIC_NAME>
2-(5-methylsulfanylpentyl)-2-oxidanyl-butanedioic acid

> <PUBCHEM_IUPAC_TRADITIONAL_NAME>
2-hydroxy-2-[5-(methylthio)pentyl]succinic acid

> <PUBCHEM_IUPAC_INCHI>
InChI=1S/C10H18O5S/c1-16-6-4-2-3-5-10(15,9(13)14)7-8(11)12/h15H,2-7H2,1H3,(H,11,12)(H,13,14)

> <PUBCHEM_IUPAC_INCHIKEY>
OKIIWFXZWJTTLY-UHFFFAOYSA-N

> <PUBCHEM_XLOGP3_AA>
0.6

> <PUBCHEM_EXACT_MASS>
250.087495

> <PUBCHEM_MOLECULAR_FORMULA>
C10H18O5S

> <PUBCHEM_MOLECULAR_WEIGHT>
250.31192

> <PUBCHEM_OPENEYE_CAN_SMILES>
CSCCCCCC(CC(=O)O)(C(=O)O)O

> <PUBCHEM_OPENEYE_ISO_SMILES>
CSCCCCCC(CC(=O)O)(C(=O)O)O

> <PUBCHEM_CACTVS_TPSA>
120

> <PUBCHEM_MONOISOTOPIC_WEIGHT>
250.087495

> <PUBCHEM_TOTAL_CHARGE>
0

> <PUBCHEM_HEAVY_ATOM_COUNT>
16

> <PUBCHEM_ATOM_DEF_STEREO_COUNT>
0

> <PUBCHEM_ATOM_UDEF_STEREO_COUNT>
1

> <PUBCHEM_BOND_DEF_STEREO_COUNT>
0

> <PUBCHEM_BOND_UDEF_STEREO_COUNT>
0

> <PUBCHEM_ISOTOPIC_ATOM_COUNT>
0

> <PUBCHEM_COMPONENT_COUNT>
1

> <PUBCHEM_CACTVS_TAUTO_COUNT>
1

> <PUBCHEM_COORDINATE_TYPE>
1
5
255

> <PUBCHEM_BONDANNOTATIONS>
8  2  3

$$$$

