17395984
  -OEChem-06241222533D

 44 46  0     1  0  0  0  0  0999 V2000
    5.0304   -1.5998   -1.0044 O   0  0  0  0  0  0  0  0  0  0  0  0
    5.3512   -0.8237    1.1477 O   0  0  0  0  0  0  0  0  0  0  0  0
   -3.6605    0.5999   -2.5346 O   0  0  0  0  0  0  0  0  0  0  0  0
    1.0360    1.2251    0.3308 N   0  0  0  0  0  0  0  0  0  0  0  0
   -1.6557    0.3766    0.9295 N   0  0  0  0  0  0  0  0  0  0  0  0
   -1.9247    1.3406   -1.2338 N   0  0  0  0  0  0  0  0  0  0  0  0
    3.6967    0.1796   -0.2830 C   0  0  0  0  0  0  0  0  0  0  0  0
    2.4201   -0.5717   -0.6559 C   0  0  0  0  0  0  0  0  0  0  0  0
    3.4400    1.1078    0.9031 C   0  0  0  0  0  0  0  0  0  0  0  0
    1.2494    0.3914   -0.8602 C   0  0  0  0  0  0  0  0  0  0  0  0
    2.2346    2.0141    0.6477 C   0  0  0  0  0  0  0  0  0  0  0  0
   -0.1187    2.1028    0.1407 C   0  0  1  0  0  0  0  0  0  0  0  0
    4.7850   -0.7884    0.0636 C   0  0  0  0  0  0  0  0  0  0  0  0
   -1.3084    1.2278   -0.0931 C   0  0  0  0  0  0  0  0  0  0  0  0
   -0.3362    2.9783    1.3640 C   0  0  0  0  0  0  0  0  0  0  0  0
   -2.7611   -0.4611    0.7697 C   0  0  0  0  0  0  0  0  0  0  0  0
   -3.4828   -0.4074   -0.4305 C   0  0  0  0  0  0  0  0  0  0  0  0
   -3.0321    0.5481   -1.4819 C   0  0  0  0  0  0  0  0  0  0  0  0
   -3.1631   -1.3490    1.7711 C   0  0  0  0  0  0  0  0  0  0  0  0
    6.0557   -2.5792   -0.8097 C   0  0  0  0  0  0  0  0  0  0  0  0
   -4.5950   -1.2294   -0.6308 C   0  0  0  0  0  0  0  0  0  0  0  0
   -4.2736   -2.1713    1.5737 C   0  0  0  0  0  0  0  0  0  0  0  0
   -4.9872   -2.1112    0.3763 C   0  0  0  0  0  0  0  0  0  0  0  0
    4.0407    0.7842   -1.1322 H   0  0  0  0  0  0  0  0  0  0  0  0
    2.1666   -1.2989    0.1275 H   0  0  0  0  0  0  0  0  0  0  0  0
    2.5693   -1.1494   -1.5763 H   0  0  0  0  0  0  0  0  0  0  0  0
    4.3258    1.7252    1.0985 H   0  0  0  0  0  0  0  0  0  0  0  0
    3.2589    0.5241    1.8163 H   0  0  0  0  0  0  0  0  0  0  0  0
    1.4386    1.0145   -1.7447 H   0  0  0  0  0  0  0  0  0  0  0  0
    0.3797   -0.2351   -1.0855 H   0  0  0  0  0  0  0  0  0  0  0  0
    2.1068    2.5958    1.5660 H   0  0  0  0  0  0  0  0  0  0  0  0
    2.4670    2.7190   -0.1614 H   0  0  0  0  0  0  0  0  0  0  0  0
    0.0207    2.7540   -0.7334 H   0  0  0  0  0  0  0  0  0  0  0  0
   -0.2358    2.4239    2.3046 H   0  0  0  0  0  0  0  0  0  0  0  0
    0.3550    3.8276    1.3885 H   0  0  0  0  0  0  0  0  0  0  0  0
   -1.3477    3.4029    1.3566 H   0  0  0  0  0  0  0  0  0  0  0  0
   -1.1282    0.3223    1.7925 H   0  0  0  0  0  0  0  0  0  0  0  0
   -2.6168   -1.4069    2.7091 H   0  0  0  0  0  0  0  0  0  0  0  0
    6.1523   -3.1581   -1.7321 H   0  0  0  0  0  0  0  0  0  0  0  0
    5.7814   -3.2577    0.0038 H   0  0  0  0  0  0  0  0  0  0  0  0
    7.0117   -2.0902   -0.6000 H   0  0  0  0  0  0  0  0  0  0  0  0
   -5.1637   -1.1981   -1.5556 H   0  0  0  0  0  0  0  0  0  0  0  0
   -4.5830   -2.8600    2.3547 H   0  0  0  0  0  0  0  0  0  0  0  0
   -5.8507   -2.7534    0.2280 H   0  0  0  0  0  0  0  0  0  0  0  0
  1 13  1  0  0  0  0
  1 20  1  0  0  0  0
  2 13  2  0  0  0  0
  3 18  2  0  0  0  0
  4 10  1  0  0  0  0
  4 11  1  0  0  0  0
  4 12  1  0  0  0  0
  5 14  1  0  0  0  0
  5 16  1  0  0  0  0
  5 37  1  0  0  0  0
  6 14  2  0  0  0  0
  6 18  1  0  0  0  0
  7  8  1  0  0  0  0
  7  9  1  0  0  0  0
  7 13  1  0  0  0  0
  7 24  1  0  0  0  0
  8 10  1  0  0  0  0
  8 25  1  0  0  0  0
  8 26  1  0  0  0  0
  9 11  1  0  0  0  0
  9 27  1  0  0  0  0
  9 28  1  0  0  0  0
 10 29  1  0  0  0  0
 10 30  1  0  0  0  0
 11 31  1  0  0  0  0
 11 32  1  0  0  0  0
 12 14  1  0  0  0  0
 12 15  1  0  0  0  0
 12 33  1  0  0  0  0
 15 34  1  0  0  0  0
 15 35  1  0  0  0  0
 15 36  1  0  0  0  0
 16 17  1  0  0  0  0
 16 19  2  0  0  0  0
 17 18  1  0  0  0  0
 17 21  2  0  0  0  0
 19 22  1  0  0  0  0
 19 38  1  0  0  0  0
 20 39  1  0  0  0  0
 20 40  1  0  0  0  0
 20 41  1  0  0  0  0
 21 23  1  0  0  0  0
 21 42  1  0  0  0  0
 22 23  2  0  0  0  0
 22 43  1  0  0  0  0
 23 44  1  0  0  0  0
M  END
> <PUBCHEM_COMPOUND_CID>
17395984

> <PUBCHEM_CONFORMER_RMSD>
0.8

> <PUBCHEM_CONFORMER_DIVERSEORDER>
2
105
39
103
87
60
106
44
94
51
85
25
86
99
74
62
83
56
41
47
59
93
31
79
42
57
81
91
48
90
65
34
84
77
82
71
95
89
30
101
107
50
96
69
80
73
33
10
54
24
52
12
5
92
76
49
45
15
9
67
100
38
18
102
27
70
35
17
72
21
53
22
26
78
23
40
98
6
88
19
4
64
20
66
63
97
36
43
14
75
11
46
104
13
68
32
16
7
61
28
58
55
37
8
3
29
1

> <PUBCHEM_MMFF94_PARTIAL_CHARGES>
25
1 -0.43
10 0.27
11 0.27
12 0.33
13 0.66
14 0.44
16 0.1
17 0.09
18 0.69
19 -0.15
2 -0.57
20 0.28
21 -0.15
22 -0.15
23 -0.15
3 -0.57
37 0.4
38 0.15
4 -0.81
42 0.15
43 0.15
44 0.15
5 -0.55
6 -0.66
7 0.06

> <PUBCHEM_EFFECTIVE_ROTOR_COUNT>
5.2

> <PUBCHEM_PHARMACOPHORE_FEATURES>
8
1 2 acceptor
1 3 acceptor
1 4 cation
1 5 donor
1 6 donor
6 16 17 19 21 22 23 rings
6 4 7 8 9 10 11 rings
6 5 6 14 16 17 18 rings

> <PUBCHEM_HEAVY_ATOM_COUNT>
23

> <PUBCHEM_ATOM_DEF_STEREO_COUNT>
0

> <PUBCHEM_ATOM_UDEF_STEREO_COUNT>
1

> <PUBCHEM_BOND_DEF_STEREO_COUNT>
0

> <PUBCHEM_BOND_UDEF_STEREO_COUNT>
0

> <PUBCHEM_ISOTOPIC_ATOM_COUNT>
0

> <PUBCHEM_COMPONENT_COUNT>
1

> <PUBCHEM_CACTVS_TAUTO_COUNT>
3

> <PUBCHEM_CONFORMER_ID>
0109711000000002

> <PUBCHEM_MMFF94_ENERGY>
56.0313

> <PUBCHEM_FEATURE_SELFOVERLAP>
40.655

> <PUBCHEM_SHAPE_FINGERPRINT>
10319926 262 5256414911208657684
10730089 88 17775288231829275563
10928967 22 17894907456121578430
11578080 2 14113349263374169141
11796584 16 18130517417469910954
12363563 72 18410003321484414544
12403259 118 6483060860706485954
12422481 6 16660913495730900006
12553582 1 17894622630748512516
12596602 18 16009036059588773034
12633257 1 15140678059780619603
12760667 363 18410287029918115139
12892183 10 14852150841575684101
13103583 49 17749650940347028115
13402501 40 18342452612903784331
13544653 18 18335981991089590808
14341114 328 14923944518384287490
14848178 5 18341617066182346778
14950920 106 16298391266459031458
15475509 8 17704080560775380695
15510800 12 18337393859232050918
16752209 62 16557369067529709641
17834072 32 9583512101704289538
17870717 6 17775567541979146647
1813 80 17749374941221965612
18927931 339 18115019831194057062
19377110 9 16226336906562502178
193927 3 18411978061874667584
19862831 5 14548466778014216009
20403669 9 18413386518742268178
20645477 70 18337960000018476032
20693207 138 18059861627437303613
21033650 10 16917072199832314132
21065201 7 17631749200209329137
21401589 2 7709463805724596599
22393880 68 17703796937602994886
23175994 123 18410013217421633629
23379529 103 17630312048549829603
23403322 49 18272370867019561427
23557571 272 17630901421084228277
23559900 14 17774166695298216469
25122255 55 18411978100609137694
27216 239 7493282240381307405
2838139 119 9439134104284224922
312423 11 18335127709826894352
312425 83 15912491354084823918
314194 84 18041003934180340726
3737641 26 17242154955089688222
44062 13 17989210356269057935
463206 1 18341611452138410491
484985 159 18339633564084859163
4921388 177 17703790336259451029
5104073 3 17968097581716997192
5486654 36 18189044451470974056
6431902 208 18262234551476703630
7064713 232 15502367911659251733
7970288 3 18334290946591203246
9862886 166 17989205906957194178

> <PUBCHEM_SHAPE_MULTIPOLES>
440.78
12.56
2.75
1.63
9.93
0.31
-0.3
-12.14
-0.48
0.94
0.71
-1.66
0.01
2.22

> <PUBCHEM_SHAPE_SELFOVERLAP>
941.931

> <PUBCHEM_SHAPE_VOLUME>
243.6

> <PUBCHEM_COORDINATE_TYPE>
2
5
10

$$$$

