441772
  -OEChem-07051212562D

 73 77  0     1  0  0  0  0  0999 V2000
    5.4641   -1.3747    0.0000 O   0  0  0  0  0  0  0  0  0  0  0  0
    9.8105   -0.9293    0.0000 O   0  0  0  0  0  0  0  0  0  0  0  0
    4.5981    0.1253    0.0000 O   0  0  0  0  0  0  0  0  0  0  0  0
    8.0785   -0.9093    0.0000 O   0  0  0  0  0  0  0  0  0  0  0  0
    2.8660   -2.8747    0.0000 O   0  0  0  0  0  0  0  0  0  0  0  0
    4.5981   -3.8747    0.0000 O   0  0  0  0  0  0  0  0  0  0  0  0
    9.7758   -3.9291    0.0000 O   0  0  0  0  0  0  0  0  0  0  0  0
   11.5193   -2.9492    0.0000 O   0  0  0  0  0  0  0  0  0  0  0  0
    2.8660   -0.8747    0.0000 O   0  0  0  0  0  0  0  0  0  0  0  0
    8.0554   -2.9092    0.0000 O   0  0  0  0  0  0  0  0  0  0  0  0
    6.3301   -3.8747    0.0000 O   0  0  0  0  0  0  0  0  0  0  0  0
   12.4026   -1.4593    0.0000 O   0  0  0  0  0  0  0  0  0  0  0  0
    6.3301    2.1253    0.0000 O   0  3  0  0  0  0  0  0  0  0  0  0
    9.8602    2.1494    0.0000 O   0  0  0  0  0  0  0  0  0  0  0  0
    2.0000    3.6253    0.0000 O   0  0  0  0  0  0  0  0  0  0  0  0
    3.7320   -2.3747    0.0000 C   0  0  1  0  0  0  0  0  0  0  0  0
    4.5981   -2.8747    0.0000 C   0  0  1  0  0  0  0  0  0  0  0  0
    9.7873   -2.9292    0.0000 C   0  0  1  0  0  0  0  0  0  0  0  0
   10.6591   -2.4392    0.0000 C   0  0  1  0  0  0  0  0  0  0  0  0
    3.7320   -1.3747    0.0000 C   0  0  2  0  0  0  0  0  0  0  0  0
    8.9271   -2.4192    0.0000 C   0  0  2  0  0  0  0  0  0  0  0  0
    5.4641   -2.3747    0.0000 C   0  0  1  0  0  0  0  0  0  0  0  0
   10.6707   -1.4393    0.0000 C   0  0  1  0  0  0  0  0  0  0  0  0
    4.5981   -0.8747    0.0000 C   0  0  1  0  0  0  0  0  0  0  0  0
    8.9387   -1.4193    0.0000 C   0  0  1  0  0  0  0  0  0  0  0  0
    6.3301   -2.8747    0.0000 C   0  0  0  0  0  0  0  0  0  0  0  0
   11.5424   -0.9493    0.0000 C   0  0  0  0  0  0  0  0  0  0  0  0
    8.0901    0.0906    0.0000 C   0  0  0  0  0  0  0  0  0  0  0  0
    5.4641    0.6253    0.0000 C   0  0  0  0  0  0  0  0  0  0  0  0
    7.1962    0.6253    0.0000 C   0  0  0  0  0  0  0  0  0  0  0  0
    6.3301    0.1253    0.0000 C   0  0  0  0  0  0  0  0  0  0  0  0
    5.4641    1.6253    0.0000 C   0  0  0  0  0  0  0  0  0  0  0  0
    7.1962    1.6253    0.0000 C   0  0  0  0  0  0  0  0  0  0  0  0
    8.9962    0.6045    0.0000 C   0  0  0  0  0  0  0  0  0  0  0  0
    8.0901    2.1600    0.0000 C   0  0  0  0  0  0  0  0  0  0  0  0
    8.9962    1.6461    0.0000 C   0  0  0  0  0  0  0  0  0  0  0  0
    4.5981    2.1253    0.0000 C   0  0  0  0  0  0  0  0  0  0  0  0
    4.5981    3.1253    0.0000 C   0  0  0  0  0  0  0  0  0  0  0  0
    3.7320    1.6253    0.0000 C   0  0  0  0  0  0  0  0  0  0  0  0
    3.7320    3.6253    0.0000 C   0  0  0  0  0  0  0  0  0  0  0  0
    2.8660    2.1253    0.0000 C   0  0  0  0  0  0  0  0  0  0  0  0
    2.8660    3.1253    0.0000 C   0  0  0  0  0  0  0  0  0  0  0  0
    3.7320   -2.9947    0.0000 H   0  0  0  0  0  0  0  0  0  0  0  0
    5.1350   -3.1847    0.0000 H   0  0  0  0  0  0  0  0  0  0  0  0
   10.3207   -3.2454    0.0000 H   0  0  0  0  0  0  0  0  0  0  0  0
   10.6519   -3.0592    0.0000 H   0  0  0  0  0  0  0  0  0  0  0  0
    3.7320   -0.7547    0.0000 H   0  0  0  0  0  0  0  0  0  0  0  0
    8.3938   -2.1030    0.0000 H   0  0  0  0  0  0  0  0  0  0  0  0
    6.0010   -2.0647    0.0000 H   0  0  0  0  0  0  0  0  0  0  0  0
   10.6778   -0.8193    0.0000 H   0  0  0  0  0  0  0  0  0  0  0  0
    4.0611   -0.5647    0.0000 H   0  0  0  0  0  0  0  0  0  0  0  0
    8.3982   -1.7230    0.0000 H   0  0  0  0  0  0  0  0  0  0  0  0
    6.9407   -2.9824    0.0000 H   0  0  0  0  0  0  0  0  0  0  0  0
    6.5422   -2.2921    0.0000 H   0  0  0  0  0  0  0  0  0  0  0  0
   11.9464   -0.4790    0.0000 H   0  0  0  0  0  0  0  0  0  0  0  0
   11.1494   -0.4698    0.0000 H   0  0  0  0  0  0  0  0  0  0  0  0
    2.8660   -3.4947    0.0000 H   0  0  0  0  0  0  0  0  0  0  0  0
    4.0611   -4.1847    0.0000 H   0  0  0  0  0  0  0  0  0  0  0  0
   10.3091   -4.2453    0.0000 H   0  0  0  0  0  0  0  0  0  0  0  0
   11.5121   -3.5692    0.0000 H   0  0  0  0  0  0  0  0  0  0  0  0
    2.3291   -1.1847    0.0000 H   0  0  0  0  0  0  0  0  0  0  0  0
    8.0482   -3.5291    0.0000 H   0  0  0  0  0  0  0  0  0  0  0  0
    6.3301   -0.4947    0.0000 H   0  0  0  0  0  0  0  0  0  0  0  0
    6.8671   -4.1847    0.0000 H   0  0  0  0  0  0  0  0  0  0  0  0
   12.9431   -1.1556    0.0000 H   0  0  0  0  0  0  0  0  0  0  0  0
    9.5319    0.2924    0.0000 H   0  0  0  0  0  0  0  0  0  0  0  0
    8.0829    2.7799    0.0000 H   0  0  0  0  0  0  0  0  0  0  0  0
    5.1350    3.4353    0.0000 H   0  0  0  0  0  0  0  0  0  0  0  0
    3.7320    1.0053    0.0000 H   0  0  0  0  0  0  0  0  0  0  0  0
    9.8579    2.7694    0.0000 H   0  0  0  0  0  0  0  0  0  0  0  0
    3.7320    4.2453    0.0000 H   0  0  0  0  0  0  0  0  0  0  0  0
    2.3291    1.8153    0.0000 H   0  0  0  0  0  0  0  0  0  0  0  0
    2.0000    4.2453    0.0000 H   0  0  0  0  0  0  0  0  0  0  0  0
  1 22  1  0  0  0  0
  1 24  1  0  0  0  0
  2 23  1  0  0  0  0
  2 25  1  0  0  0  0
 24  3  1  6  0  0  0
  3 29  1  0  0  0  0
 25  4  1  6  0  0  0
  4 28  1  0  0  0  0
 16  5  1  6  0  0  0
  5 57  1  0  0  0  0
 17  6  1  1  0  0  0
  6 58  1  0  0  0  0
 18  7  1  6  0  0  0
  7 59  1  0  0  0  0
 19  8  1  1  0  0  0
  8 60  1  0  0  0  0
 20  9  1  1  0  0  0
  9 61  1  0  0  0  0
 21 10  1  1  0  0  0
 10 62  1  0  0  0  0
 11 26  1  0  0  0  0
 11 64  1  0  0  0  0
 12 27  1  0  0  0  0
 12 65  1  0  0  0  0
 13 32  1  0  0  0  0
 13 33  2  0  0  0  0
 14 36  1  0  0  0  0
 14 70  1  0  0  0  0
 15 42  1  0  0  0  0
 15 73  1  0  0  0  0
 16 17  1  0  0  0  0
 16 20  1  0  0  0  0
 16 43  1  0  0  0  0
 17 22  1  0  0  0  0
 17 44  1  0  0  0  0
 18 19  1  0  0  0  0
 18 21  1  0  0  0  0
 18 45  1  0  0  0  0
 19 23  1  0  0  0  0
 19 46  1  0  0  0  0
 20 24  1  0  0  0  0
 20 47  1  0  0  0  0
 21 25  1  0  0  0  0
 21 48  1  0  0  0  0
 22 26  1  6  0  0  0
 22 49  1  0  0  0  0
 23 27  1  6  0  0  0
 23 50  1  0  0  0  0
 24 51  1  0  0  0  0
 25 52  1  0  0  0  0
 26 53  1  0  0  0  0
 26 54  1  0  0  0  0
 27 55  1  0  0  0  0
 27 56  1  0  0  0  0
 28 30  1  0  0  0  0
 28 34  2  0  0  0  0
 29 31  1  0  0  0  0
 29 32  2  0  0  0  0
 30 31  2  0  0  0  0
 30 33  1  0  0  0  0
 31 63  1  0  0  0  0
 32 37  1  0  0  0  0
 33 35  1  0  0  0  0
 34 36  1  0  0  0  0
 34 66  1  0  0  0  0
 35 36  2  0  0  0  0
 35 67  1  0  0  0  0
 37 38  2  0  0  0  0
 37 39  1  0  0  0  0
 38 40  1  0  0  0  0
 38 68  1  0  0  0  0
 39 41  2  0  0  0  0
 39 69  1  0  0  0  0
 40 42  2  0  0  0  0
 40 71  1  0  0  0  0
 41 42  1  0  0  0  0
 41 72  1  0  0  0  0
M  CHG  1  13   1
M  END
> <PUBCHEM_COMPOUND_CID>
441772

> <PUBCHEM_COMPOUND_CANONICALIZED>
1

> <PUBCHEM_CACTVS_COMPLEXITY>
859

> <PUBCHEM_CACTVS_HBOND_ACCEPTOR>
14

> <PUBCHEM_CACTVS_HBOND_DONOR>
10

> <PUBCHEM_CACTVS_ROTATABLE_BOND>
7

> <PUBCHEM_CACTVS_SUBSKEYS>
AAADceB4PAAAAAAAAAAAAAAAAAAAAAAAAAA0aJECAAAAAACR9AAAGgAACAAADBSwmAMwDsAABkCIAqBSAAICCAAkIAAIiAFGiMgdNzaGNR6ieWKl4BUPuYfK7OzOIAAACAAIAABAAAAQABAAAAAAAAAAAA==

> <PUBCHEM_IUPAC_OPENEYE_NAME>
(2S,3R,4S,5S,6R)-2-[7-hydroxy-2-(4-hydroxyphenyl)-3-[(2S,3R,4S,5S,6R)-3,4,5-trihydroxy-6-(hydroxymethyl)tetrahydropyran-2-yl]oxy-chromenylium-5-yl]oxy-6-(hydroxymethyl)tetrahydropyran-3,4,5-triol

> <PUBCHEM_IUPAC_CAS_NAME>
(2S,3R,4S,5S,6R)-2-[[7-hydroxy-2-(4-hydroxyphenyl)-3-[[(2S,3R,4S,5S,6R)-3,4,5-trihydroxy-6-(hydroxymethyl)-2-oxanyl]oxy]-1-benzopyrylium-5-yl]oxy]-6-(hydroxymethyl)oxane-3,4,5-triol

> <PUBCHEM_IUPAC_NAME>
(2S,3R,4S,5S,6R)-2-[7-hydroxy-2-(4-hydroxyphenyl)-3-[(2S,3R,4S,5S,6R)-3,4,5-trihydroxy-6-(hydroxymethyl)oxan-2-yl]oxychromenylium-5-yl]oxy-6-(hydroxymethyl)oxane-3,4,5-triol

> <PUBCHEM_IUPAC_SYSTEMATIC_NAME>
(2R,3S,4S,5R,6S)-2-(hydroxymethyl)-6-[3-[(2S,3R,4S,5S,6R)-6-(hydroxymethyl)-3,4,5-tris(oxidanyl)oxan-2-yl]oxy-2-(4-hydroxyphenyl)-7-oxidanyl-chromenylium-5-yl]oxy-oxane-3,4,5-triol

> <PUBCHEM_IUPAC_TRADITIONAL_NAME>
(2S,3R,4S,5S,6R)-2-[[7-hydroxy-2-(4-hydroxyphenyl)-3-[(2S,3R,4S,5S,6R)-3,4,5-trihydroxy-6-methylol-tetrahydropyran-2-yl]oxy-1-benzopyrylium-5-yl]oxy]-6-methylol-tetrahydropyran-3,4,5-triol

> <PUBCHEM_IUPAC_INCHI>
InChI=1S/C27H30O15/c28-8-17-19(32)21(34)23(36)26(41-17)39-15-6-12(31)5-14-13(15)7-16(25(38-14)10-1-3-11(30)4-2-10)40-27-24(37)22(35)20(33)18(9-29)42-27/h1-7,17-24,26-29,32-37H,8-9H2,(H-,30,31)/p+1/t17-,18-,19-,20-,21+,22+,23-,24-,26-,27-/m1/s1

> <PUBCHEM_IUPAC_INCHIKEY>
SLCKJKWFULXZBD-ZOTFFYTFSA-O

> <PUBCHEM_EXACT_MASS>
595.166295

> <PUBCHEM_MOLECULAR_FORMULA>
C27H31O15+

> <PUBCHEM_MOLECULAR_WEIGHT>
595.52604

> <PUBCHEM_OPENEYE_CAN_SMILES>
C1=CC(=CC=C1C2=C(C=C3C(=CC(=CC3=[O+]2)O)OC4C(C(C(C(O4)CO)O)O)O)OC5C(C(C(C(O5)CO)O)O)O)O

> <PUBCHEM_OPENEYE_ISO_SMILES>
C1=CC(=CC=C1C2=C(C=C3C(=CC(=CC3=[O+]2)O)O[C@H]4[C@@H]([C@H]([C@@H]([C@H](O4)CO)O)O)O)O[C@H]5[C@@H]([C@H]([C@@H]([C@H](O5)CO)O)O)O)O

> <PUBCHEM_CACTVS_TPSA>
240

> <PUBCHEM_MONOISOTOPIC_WEIGHT>
595.166295

> <PUBCHEM_TOTAL_CHARGE>
1

> <PUBCHEM_HEAVY_ATOM_COUNT>
42

> <PUBCHEM_ATOM_DEF_STEREO_COUNT>
10

> <PUBCHEM_ATOM_UDEF_STEREO_COUNT>
0

> <PUBCHEM_BOND_DEF_STEREO_COUNT>
0

> <PUBCHEM_BOND_UDEF_STEREO_COUNT>
0

> <PUBCHEM_ISOTOPIC_ATOM_COUNT>
0

> <PUBCHEM_COMPONENT_COUNT>
1

> <PUBCHEM_CACTVS_TAUTO_COUNT>
21

> <PUBCHEM_COORDINATE_TYPE>
1
5
255

> <PUBCHEM_BONDANNOTATIONS>
21  10  5
13  32  8
13  33  8
22  26  6
23  27  6
28  30  8
28  34  8
29  31  8
29  32  8
24  3  6
30  31  8
30  33  8
33  35  8
34  36  8
35  36  8
37  38  8
37  39  8
38  40  8
39  41  8
25  4  6
40  42  8
41  42  8
16  5  6
17  6  5
18  7  6
19  8  5
20  9  5

$$$$

