30479
  -OEChem-07051213053D

 28 28  0     0  0  0  0  0  0999 V2000
   -3.5144   -0.1985    0.4588 S   0  0  0  0  0  0  0  0  0  0  0  0
    0.9579    2.0247   -0.2103 O   0  0  0  0  0  0  0  0  0  0  0  0
   -1.1150    0.9922    0.0989 N   0  0  0  0  0  0  0  0  0  0  0  0
    0.2220   -1.3979    0.2522 N   0  0  0  0  0  0  0  0  0  0  0  0
   -1.1664   -1.3513    0.3755 N   0  0  0  0  0  0  0  0  0  0  0  0
   -1.8562    2.1694    0.0308 N   0  0  0  0  0  0  0  0  0  0  0  0
    2.3881   -0.3652   -0.0687 C   0  0  0  0  0  0  0  0  0  0  0  0
    0.8923   -0.3078    0.0639 C   0  0  0  0  0  0  0  0  0  0  0  0
    2.9969    0.4835    1.0505 C   0  0  0  0  0  0  0  0  0  0  0  0
    2.7887    0.1935   -1.4370 C   0  0  0  0  0  0  0  0  0  0  0  0
    2.8444   -1.8213    0.0609 C   0  0  0  0  0  0  0  0  0  0  0  0
    0.2501    1.0452   -0.0333 C   0  0  0  0  0  0  0  0  0  0  0  0
   -1.7642   -0.2076    0.2981 C   0  0  0  0  0  0  0  0  0  0  0  0
   -3.9241   -1.2592   -0.9405 C   0  0  0  0  0  0  0  0  0  0  0  0
    2.9287    1.5616    0.8830 H   0  0  0  0  0  0  0  0  0  0  0  0
    4.0669    0.2655    1.1547 H   0  0  0  0  0  0  0  0  0  0  0  0
    2.5261    0.2677    2.0170 H   0  0  0  0  0  0  0  0  0  0  0  0
    2.7082    1.2807   -1.5171 H   0  0  0  0  0  0  0  0  0  0  0  0
    2.1784   -0.2421   -2.2370 H   0  0  0  0  0  0  0  0  0  0  0  0
    3.8358   -0.0476   -1.6568 H   0  0  0  0  0  0  0  0  0  0  0  0
    3.9346   -1.8977   -0.0271 H   0  0  0  0  0  0  0  0  0  0  0  0
    2.5696   -2.2507    1.0318 H   0  0  0  0  0  0  0  0  0  0  0  0
    2.4133   -2.4552   -0.7231 H   0  0  0  0  0  0  0  0  0  0  0  0
   -1.4912    2.7985    0.7451 H   0  0  0  0  0  0  0  0  0  0  0  0
   -1.6507    2.6042   -0.8680 H   0  0  0  0  0  0  0  0  0  0  0  0
   -3.4963   -0.8578   -1.8634 H   0  0  0  0  0  0  0  0  0  0  0  0
   -5.0105   -1.3057   -1.0529 H   0  0  0  0  0  0  0  0  0  0  0  0
   -3.5501   -2.2740   -0.7803 H   0  0  0  0  0  0  0  0  0  0  0  0
  1 13  1  0  0  0  0
  1 14  1  0  0  0  0
  2 12  2  0  0  0  0
  3  6  1  0  0  0  0
  3 12  1  0  0  0  0
  3 13  1  0  0  0  0
  4  5  1  0  0  0  0
  4  8  2  0  0  0  0
  5 13  2  0  0  0  0
  6 24  1  0  0  0  0
  6 25  1  0  0  0  0
  7  8  1  0  0  0  0
  7  9  1  0  0  0  0
  7 10  1  0  0  0  0
  7 11  1  0  0  0  0
  8 12  1  0  0  0  0
  9 15  1  0  0  0  0
  9 16  1  0  0  0  0
  9 17  1  0  0  0  0
 10 18  1  0  0  0  0
 10 19  1  0  0  0  0
 10 20  1  0  0  0  0
 11 21  1  0  0  0  0
 11 22  1  0  0  0  0
 11 23  1  0  0  0  0
 14 26  1  0  0  0  0
 14 27  1  0  0  0  0
 14 28  1  0  0  0  0
M  END
> <PUBCHEM_COMPOUND_CID>
30479

> <PUBCHEM_CONFORMER_RMSD>
0.6

> <PUBCHEM_CONFORMER_DIVERSEORDER>
2
1
3

> <PUBCHEM_MMFF94_PARTIAL_CHARGES>
13
1 -0.37
12 0.63
13 0.65
14 0.23
2 -0.57
24 0.36
25 0.36
3 -0.11
4 -0.45
5 -0.45
6 -0.73
7 0.06
8 0.39

> <PUBCHEM_EFFECTIVE_ROTOR_COUNT>
2

> <PUBCHEM_PHARMACOPHORE_FEATURES>
6
1 14 hydrophobe
1 2 acceptor
1 4 acceptor
1 6 donor
4 7 9 10 11 hydrophobe
6 3 4 5 8 12 13 rings

> <PUBCHEM_HEAVY_ATOM_COUNT>
14

> <PUBCHEM_ATOM_DEF_STEREO_COUNT>
0

> <PUBCHEM_ATOM_UDEF_STEREO_COUNT>
0

> <PUBCHEM_BOND_DEF_STEREO_COUNT>
0

> <PUBCHEM_BOND_UDEF_STEREO_COUNT>
0

> <PUBCHEM_ISOTOPIC_ATOM_COUNT>
0

> <PUBCHEM_COMPONENT_COUNT>
1

> <PUBCHEM_CACTVS_TAUTO_COUNT>
1

> <PUBCHEM_CONFORMER_ID>
0000770F00000002

> <PUBCHEM_MMFF94_ENERGY>
48.271

> <PUBCHEM_FEATURE_SELFOVERLAP>
30.446

> <PUBCHEM_SHAPE_FINGERPRINT>
11132069 177 18409451418492729729
11206711 2 18342454867924586509
11769659 78 18260553341819452787
12032990 46 18339917211945924995
12932764 1 18186795911220721074
14144814 61 18411976962173220355
14251717 144 18337116653056583071
14289901 80 15502374500334541475
14325111 11 18339921627198445120
14576447 43 18117286852467213567
14993402 34 18336260163331312151
16945 1 18341043030195303650
18186145 218 18040148535165714179
19026448 4 16226042306033930899
193761 8 17547005230630369387
20201158 50 18341333305586598443
20281475 54 18412819175422171443
20559304 39 18343861113242056272
20645477 70 18339648820083247703
21501502 16 18267297806289421794
21501925 9 18336273331864266603
2334 1 17691682294817569771
23402539 116 18337121132427930494
23402655 69 18411139156178068693
23463225 33 18198900490686944170
23552423 10 18055624027955925740
2748010 2 18267584800077490334
3248919 1 17847055597224910746
581208 293 18335424521566771016
7364860 26 18190737536090078032
8030462 33 18343011207775626438
81228 2 18341891926429471281

> <PUBCHEM_SHAPE_MULTIPOLES>
266.17
5.99
1.88
0.95
3.03
0.43
0.18
-1.84
0.57
0.09
0.05
-0.35
-0.04
-0.28

> <PUBCHEM_SHAPE_SELFOVERLAP>
529.093

> <PUBCHEM_SHAPE_VOLUME>
161.6

> <PUBCHEM_COORDINATE_TYPE>
2
5
10

$$$$

