12081
  -OEChem-06261206293D

 18 18  0     0  0  0  0  0  0999 V2000
    4.2968   -0.3318   -0.0018 Br  0  0  0  0  0  0  0  0  0  0  0  0
   -2.4407   -0.8545    0.0001 O   0  0  0  0  0  0  0  0  0  0  0  0
   -2.3807    1.4466   -0.0005 O   0  0  0  0  0  0  0  0  0  0  0  0
   -0.3535    0.1914    0.0011 C   0  0  0  0  0  0  0  0  0  0  0  0
    0.4746    1.3139    0.0006 C   0  0  0  0  0  0  0  0  0  0  0  0
    0.2045   -1.0870    0.0012 C   0  0  0  0  0  0  0  0  0  0  0  0
    1.8607    1.1578   -0.0002 C   0  0  0  0  0  0  0  0  0  0  0  0
    1.5906   -1.2429    0.0007 C   0  0  0  0  0  0  0  0  0  0  0  0
    2.4187   -0.1205    0.0000 C   0  0  0  0  0  0  0  0  0  0  0  0
   -1.7988    0.3537    0.0006 C   0  0  0  0  0  0  0  0  0  0  0  0
   -3.8721   -0.8267   -0.0018 C   0  0  0  0  0  0  0  0  0  0  0  0
    0.0603    2.3187    0.0003 H   0  0  0  0  0  0  0  0  0  0  0  0
   -0.4006   -1.9892    0.0016 H   0  0  0  0  0  0  0  0  0  0  0  0
    2.4920    2.0427   -0.0008 H   0  0  0  0  0  0  0  0  0  0  0  0
    2.0100   -2.2458    0.0006 H   0  0  0  0  0  0  0  0  0  0  0  0
   -4.2327   -1.8587   -0.0019 H   0  0  0  0  0  0  0  0  0  0  0  0
   -4.2382   -0.3250   -0.9024 H   0  0  0  0  0  0  0  0  0  0  0  0
   -4.2405   -0.3243    0.8975 H   0  0  0  0  0  0  0  0  0  0  0  0
  1  9  1  0  0  0  0
  2 10  1  0  0  0  0
  2 11  1  0  0  0  0
  3 10  2  0  0  0  0
  4  5  2  0  0  0  0
  4  6  1  0  0  0  0
  4 10  1  0  0  0  0
  5  7  1  0  0  0  0
  5 12  1  0  0  0  0
  6  8  2  0  0  0  0
  6 13  1  0  0  0  0
  7  9  2  0  0  0  0
  7 14  1  0  0  0  0
  8  9  1  0  0  0  0
  8 15  1  0  0  0  0
 11 16  1  0  0  0  0
 11 17  1  0  0  0  0
 11 18  1  0  0  0  0
M  END
> <PUBCHEM_COMPOUND_CID>
12081

> <PUBCHEM_CONFORMER_RMSD>
0.4

> <PUBCHEM_CONFORMER_DIVERSEORDER>
1
2

> <PUBCHEM_MMFF94_PARTIAL_CHARGES>
15
1 -0.11
10 0.63
11 0.28
12 0.15
13 0.15
14 0.15
15 0.15
2 -0.43
3 -0.57
4 0.09
5 -0.15
6 -0.15
7 -0.15
8 -0.15
9 0.11

> <PUBCHEM_EFFECTIVE_ROTOR_COUNT>
2

> <PUBCHEM_PHARMACOPHORE_FEATURES>
3
1 1 hydrophobe
1 3 acceptor
6 4 5 6 7 8 9 rings

> <PUBCHEM_HEAVY_ATOM_COUNT>
11

> <PUBCHEM_ATOM_DEF_STEREO_COUNT>
0

> <PUBCHEM_ATOM_UDEF_STEREO_COUNT>
0

> <PUBCHEM_BOND_DEF_STEREO_COUNT>
0

> <PUBCHEM_BOND_UDEF_STEREO_COUNT>
0

> <PUBCHEM_ISOTOPIC_ATOM_COUNT>
0

> <PUBCHEM_COMPONENT_COUNT>
1

> <PUBCHEM_CACTVS_TAUTO_COUNT>
1

> <PUBCHEM_CONFORMER_ID>
00002F3100000001

> <PUBCHEM_MMFF94_ENERGY>
28.7293

> <PUBCHEM_FEATURE_SELFOVERLAP>
15.223

> <PUBCHEM_SHAPE_FINGERPRINT>
11062470 55 11600009842533457094
11806522 49 18410858720082445942
12032990 46 18408317809262151894
12897270 3 18412547583096390239
12932764 1 17095536101041736806
13690532 89 18413109468109139522
14325111 11 18410856568588582688
14993402 34 17988918955870618926
16945 1 18410855425800123906
18522853 276 18335421261607615080
193761 8 17473825503698763490
200 152 18114190722317567527
20201158 50 18413669106189270515
20871998 22 18189044451465640622
21293036 1 18412821374592879790
21501925 9 18411991251692872922
23402539 116 18335993003475213935
23402655 69 18193010416056913725
23463225 33 18342177804069062610
23552423 10 18271803553189359269
2748010 2 18265051525355854766
3312278 4 18336264651471812160
5084963 1 18334856091134989728
528886 8 18337960089959464760
8809292 202 18129938966816540427

> <PUBCHEM_SHAPE_MULTIPOLES>
220.58
6.39
1.44
0.61
0.06
0.2
0
-1.41
-0.01
-0.2
0
0.1
-0.01
0

> <PUBCHEM_SHAPE_SELFOVERLAP>
443.13

> <PUBCHEM_SHAPE_VOLUME>
134.5

> <PUBCHEM_COORDINATE_TYPE>
2
5
10

$$$$

