5280799
  -OEChem-07051212503D

 17 17  0     0  0  0  0  0  0999 V2000
    3.8726    1.5622   -0.0003 S   0  0  0  0  0  0  0  0  0  0  0  0
   -3.6819    1.3955    0.0010 O   0  0  0  0  0  0  0  0  0  0  0  0
   -3.6563   -0.8860   -0.0005 O   0  0  0  0  0  0  0  0  0  0  0  0
    1.2760    0.6597    0.0000 N   0  0  0  0  0  0  0  0  0  0  0  0
    2.8080   -0.9722    0.0001 N   0  0  0  0  0  0  0  0  0  0  0  0
    0.6336   -0.5587    0.0003 C   0  0  0  0  0  0  0  0  0  0  0  0
    1.5548   -1.5353    0.0004 C   0  0  0  0  0  0  0  0  0  0  0  0
    2.6680    0.4309   -0.0002 C   0  0  0  0  0  0  0  0  0  0  0  0
   -0.7863   -0.6712    0.0002 C   0  0  0  0  0  0  0  0  0  0  0  0
   -1.6135    0.3893   -0.0005 C   0  0  0  0  0  0  0  0  0  0  0  0
   -3.0750    0.1858   -0.0005 C   0  0  0  0  0  0  0  0  0  0  0  0
    0.8315    1.5687    0.0000 H   0  0  0  0  0  0  0  0  0  0  0  0
    1.4275   -2.6055    0.0006 H   0  0  0  0  0  0  0  0  0  0  0  0
    3.6751   -1.4949    0.0002 H   0  0  0  0  0  0  0  0  0  0  0  0
   -1.1906   -1.6805    0.0006 H   0  0  0  0  0  0  0  0  0  0  0  0
   -1.2607    1.4145   -0.0010 H   0  0  0  0  0  0  0  0  0  0  0  0
   -4.6597    1.3160    0.0016 H   0  0  0  0  0  0  0  0  0  0  0  0
  1  8  2  0  0  0  0
  2 11  1  0  0  0  0
  2 17  1  0  0  0  0
  3 11  2  0  0  0  0
  4  6  1  0  0  0  0
  4  8  1  0  0  0  0
  4 12  1  0  0  0  0
  5  7  1  0  0  0  0
  5  8  1  0  0  0  0
  5 14  1  0  0  0  0
  6  7  2  0  0  0  0
  6  9  1  0  0  0  0
  7 13  1  0  0  0  0
  9 10  2  0  0  0  0
  9 15  1  0  0  0  0
 10 11  1  0  0  0  0
 10 16  1  0  0  0  0
M  END
> <PUBCHEM_COMPOUND_CID>
5280799

> <PUBCHEM_CONFORMER_RMSD>
0.4

> <PUBCHEM_CONFORMER_DIVERSEORDER>
1
6
3
4
2
5

> <PUBCHEM_MMFF94_PARTIAL_CHARGES>
17
1 -0.38
10 -0.14
11 0.71
12 0.37
13 0.15
14 0.37
15 0.15
16 0.15
17 0.5
2 -0.65
3 -0.57
4 -0.54
5 -0.54
6 0.11
7 -0.04
8 0.5
9 -0.15

> <PUBCHEM_EFFECTIVE_ROTOR_COUNT>
2

> <PUBCHEM_PHARMACOPHORE_FEATURES>
7
1 1 acceptor
1 2 acceptor
1 3 acceptor
1 4 donor
1 5 donor
3 2 3 11 anion
5 4 5 6 7 8 rings

> <PUBCHEM_HEAVY_ATOM_COUNT>
11

> <PUBCHEM_ATOM_DEF_STEREO_COUNT>
0

> <PUBCHEM_ATOM_UDEF_STEREO_COUNT>
0

> <PUBCHEM_BOND_DEF_STEREO_COUNT>
1

> <PUBCHEM_BOND_UDEF_STEREO_COUNT>
0

> <PUBCHEM_ISOTOPIC_ATOM_COUNT>
0

> <PUBCHEM_COMPONENT_COUNT>
1

> <PUBCHEM_CACTVS_TAUTO_COUNT>
6

> <PUBCHEM_CONFORMER_ID>
0050941F00000001

> <PUBCHEM_MMFF94_ENERGY>
31.7946

> <PUBCHEM_FEATURE_SELFOVERLAP>
35.643

> <PUBCHEM_SHAPE_FINGERPRINT>
10608611 8 18412829113733901245
12932764 1 17560804398059407503
13380535 76 18341332189238129274
14325111 11 18410573998257983555
14415576 193 18409726283409348308
14897335 6 18337393747192934534
15775835 57 18333731295076946644
170605 34 18413108342632431810
18186145 218 18272088348233909535
20281407 28 8502382139153890260
20645477 70 18335705004612310591
20871998 22 17903639932109633942
23402655 69 18333735736321135125
3248919 1 17386004035238627511
449060 62 18408319995041867864
4990 188 18040985238161366724

> <PUBCHEM_SHAPE_MULTIPOLES>
208.52
7.17
1.51
0.59
2.46
0.04
0
2.84
0
-0.69
0
-0.07
0.01
0

> <PUBCHEM_SHAPE_SELFOVERLAP>
420.162

> <PUBCHEM_SHAPE_VOLUME>
123.7

> <PUBCHEM_COORDINATE_TYPE>
2
5
10

$$$$

