13293
  -OEChem-06261208363D

 33 34  0     0  0  0  0  0  0999 V2000
    4.9756    1.8050   -0.3841 O   0  0  0  0  0  0  0  0  0  0  0  0
    4.5040   -0.4451    0.1386 N   0  0  0  0  0  0  0  0  0  0  0  0
    0.3437   -0.6342    0.0268 C   0  0  0  0  0  0  0  0  0  0  0  0
    3.1105   -0.5087    0.1001 C   0  0  0  0  0  0  0  0  0  0  0  0
    0.9753    0.5691   -0.2413 C   0  0  0  0  0  0  0  0  0  0  0  0
    1.0666   -1.7763    0.3308 C   0  0  0  0  0  0  0  0  0  0  0  0
    2.3682    0.6324   -0.2046 C   0  0  0  0  0  0  0  0  0  0  0  0
    2.4596   -1.7132    0.3677 C   0  0  0  0  0  0  0  0  0  0  0  0
   -1.1278   -0.7011   -0.0125 C   0  0  0  0  0  0  0  0  0  0  0  0
   -3.4123    0.2987    0.0301 C   0  0  0  0  0  0  0  0  0  0  0  0
   -1.9602    0.3620    0.0880 C   0  0  0  0  0  0  0  0  0  0  0  0
   -4.0398   -0.8077   -0.5425 C   0  0  0  0  0  0  0  0  0  0  0  0
   -4.1773    1.3443    0.5471 C   0  0  0  0  0  0  0  0  0  0  0  0
   -5.4322   -0.8685   -0.5984 C   0  0  0  0  0  0  0  0  0  0  0  0
   -5.5698    1.2834    0.4913 C   0  0  0  0  0  0  0  0  0  0  0  0
    5.3260    0.6646   -0.0980 C   0  0  0  0  0  0  0  0  0  0  0  0
   -6.1971    0.1770   -0.0814 C   0  0  0  0  0  0  0  0  0  0  0  0
    6.7870    0.3181    0.0423 C   0  0  0  0  0  0  0  0  0  0  0  0
    0.4389    1.4751   -0.5053 H   0  0  0  0  0  0  0  0  0  0  0  0
    0.5744   -2.7217    0.5432 H   0  0  0  0  0  0  0  0  0  0  0  0
    2.8011    1.5974   -0.4284 H   0  0  0  0  0  0  0  0  0  0  0  0
    3.0254   -2.6101    0.6071 H   0  0  0  0  0  0  0  0  0  0  0  0
   -1.5235   -1.7080   -0.1152 H   0  0  0  0  0  0  0  0  0  0  0  0
   -1.5618    1.3609    0.2433 H   0  0  0  0  0  0  0  0  0  0  0  0
    4.9724   -1.3193    0.3682 H   0  0  0  0  0  0  0  0  0  0  0  0
   -3.4875   -1.6351   -0.9780 H   0  0  0  0  0  0  0  0  0  0  0  0
   -3.7068    2.2144    0.9986 H   0  0  0  0  0  0  0  0  0  0  0  0
   -5.9214   -1.7272   -1.0488 H   0  0  0  0  0  0  0  0  0  0  0  0
   -6.1657    2.0974    0.8937 H   0  0  0  0  0  0  0  0  0  0  0  0
   -7.2813    0.1303   -0.1260 H   0  0  0  0  0  0  0  0  0  0  0  0
    6.9916   -0.0122    1.0646 H   0  0  0  0  0  0  0  0  0  0  0  0
    7.3993    1.1972   -0.1768 H   0  0  0  0  0  0  0  0  0  0  0  0
    7.0486   -0.4793   -0.6591 H   0  0  0  0  0  0  0  0  0  0  0  0
  1 16  2  0  0  0  0
  2  4  1  0  0  0  0
  2 16  1  0  0  0  0
  2 25  1  0  0  0  0
  3  5  2  0  0  0  0
  3  6  1  0  0  0  0
  3  9  1  0  0  0  0
  4  7  2  0  0  0  0
  4  8  1  0  0  0  0
  5  7  1  0  0  0  0
  5 19  1  0  0  0  0
  6  8  2  0  0  0  0
  6 20  1  0  0  0  0
  7 21  1  0  0  0  0
  8 22  1  0  0  0  0
  9 11  2  0  0  0  0
  9 23  1  0  0  0  0
 10 11  1  0  0  0  0
 10 12  2  0  0  0  0
 10 13  1  0  0  0  0
 11 24  1  0  0  0  0
 12 14  1  0  0  0  0
 12 26  1  0  0  0  0
 13 15  2  0  0  0  0
 13 27  1  0  0  0  0
 14 17  2  0  0  0  0
 14 28  1  0  0  0  0
 15 17  1  0  0  0  0
 15 29  1  0  0  0  0
 16 18  1  0  0  0  0
 17 30  1  0  0  0  0
 18 31  1  0  0  0  0
 18 32  1  0  0  0  0
 18 33  1  0  0  0  0
M  END
> <PUBCHEM_COMPOUND_CID>
13293

> <PUBCHEM_CONFORMER_RMSD>
0.6

> <PUBCHEM_CONFORMER_DIVERSEORDER>
3
5
2
4
1

> <PUBCHEM_MMFF94_PARTIAL_CHARGES>
30
1 -0.57
10 0.03
11 -0.18
12 -0.15
13 -0.15
14 -0.15
15 -0.15
16 0.57
17 -0.15
18 0.06
19 0.15
2 -0.55
20 0.15
21 0.15
22 0.15
23 0.15
24 0.15
25 0.37
26 0.15
27 0.15
28 0.15
29 0.15
3 0.03
30 0.15
4 0.12
5 -0.15
6 -0.15
7 -0.15
8 -0.15
9 -0.18

> <PUBCHEM_EFFECTIVE_ROTOR_COUNT>
4

> <PUBCHEM_PHARMACOPHORE_FEATURES>
4
1 1 acceptor
1 2 donor
6 10 12 13 14 15 17 rings
6 3 4 5 6 7 8 rings

> <PUBCHEM_HEAVY_ATOM_COUNT>
18

> <PUBCHEM_ATOM_DEF_STEREO_COUNT>
0

> <PUBCHEM_ATOM_UDEF_STEREO_COUNT>
0

> <PUBCHEM_BOND_DEF_STEREO_COUNT>
0

> <PUBCHEM_BOND_UDEF_STEREO_COUNT>
1

> <PUBCHEM_ISOTOPIC_ATOM_COUNT>
0

> <PUBCHEM_COMPONENT_COUNT>
1

> <PUBCHEM_CACTVS_TAUTO_COUNT>
2

> <PUBCHEM_CONFORMER_ID>
000033ED00000003

> <PUBCHEM_MMFF94_ENERGY>
57.4347

> <PUBCHEM_FEATURE_SELFOVERLAP>
20.297

> <PUBCHEM_SHAPE_FINGERPRINT>
10595046 47 18408324406374090571
10912923 1 18336269032823796459
10968037 39 18407762534911017879
11089746 13 18408604743158113568
11315181 36 18410573964525966697
12091667 2 18187082845612528847
12107183 9 17543910560954695339
12236239 1 18333733537266172399
13167372 99 18338797917988927512
13167823 11 18336267929207273967
13533116 47 17131844209096536186
13631057 29 18336831867182885203
14251718 22 18186238424681906623
14251732 16 18342455903090832451
14251764 18 18342461435483236008
14251764 46 18407761439325033650
14350574 20 6771864073789255114
14528608 73 18335702723789023076
15048467 5 18409730672649659817
17834072 33 18333733511285229151
17834076 25 18334858316260260848
18681886 176 17967541133552835642
200 152 18334860524253350155
20281389 69 18202005426051874460
20645477 70 18263644129071850710
21054139 6 18338524040783340639
21065198 48 18335985376098469371
21267235 1 18261108540047864903
220451 1 17095524006978632847
22224240 67 17846782884429838018
2297311 6 16226046687433244993
23272321 79 18411136922520735369
23402539 116 18113340803676033477
23402655 69 18334579053070648255
23536379 177 17967249819138378526
23559900 14 18261965055126325633
300161 21 18342179994518181895
335352 9 18413386519881212038
34797466 226 16805599223068005220
3545911 37 18410855460513322691
397830 11 15194422132723770108
4073 2 18131063801434304786
4214541 1 18335422404912837001
42630746 31 18412262861457128942
42788 4 18410293613981342061
4325135 7 18407761426387378079
4340502 62 16272210795253061530
474 4 18202280269066070213
5104073 3 18200589319404512899
542803 24 18113901571970567531
5758199 1 18413106152330836888
7062679 117 18334016060726879199

> <PUBCHEM_SHAPE_MULTIPOLES>
359.58
16.64
1.53
0.7
2.23
0.12
0
-4.94
0.55
0.32
-0.1
-0.26
0.01
-0.99

> <PUBCHEM_SHAPE_SELFOVERLAP>
765.601

> <PUBCHEM_SHAPE_VOLUME>
199.5

> <PUBCHEM_COORDINATE_TYPE>
2
5
10

$$$$

