440913
  -OEChem-07051212513D

 51 54  0     1  0  0  0  0  0999 V2000
   -0.2021    3.4894   -0.1992 O   0  0  0  0  0  0  0  0  0  0  0  0
   -3.1316   -0.9321    2.0079 O   0  0  0  0  0  0  0  0  0  0  0  0
   -4.1683   -1.2156   -0.0023 O   0  0  0  0  0  0  0  0  0  0  0  0
    1.4026    0.4528    0.2512 C   0  0  1  0  0  0  0  0  0  0  0  0
    0.9871   -0.6113   -0.8030 C   0  0  2  0  0  0  0  0  0  0  0  0
   -0.4554   -1.0747   -0.3991 C   0  0  1  0  0  0  0  0  0  0  0  0
   -0.9888    0.0900    0.5206 C   0  0  1  0  0  0  0  0  0  0  0  0
    0.0961    1.2089    0.5098 C   0  0  2  0  0  0  0  0  0  0  0  0
    1.9888   -0.1854    1.5212 C   0  0  0  0  0  0  0  0  0  0  0  0
    2.6178    1.2828   -0.2232 C   0  0  0  0  0  0  0  0  0  0  0  0
   -2.4613    0.4999    0.2507 C   0  0  2  0  0  0  0  0  0  0  0  0
    3.2940   -0.7632    0.9840 C   0  0  1  0  0  0  0  0  0  0  0  0
    2.0555   -1.6900   -1.0635 C   0  0  0  0  0  0  0  0  0  0  0  0
   -1.3383   -1.2887   -1.6589 C   0  0  0  0  0  0  0  0  0  0  0  0
    2.9722   -1.9987    0.1292 C   0  0  0  0  0  0  0  0  0  0  0  0
    3.7843    0.3953    0.1448 C   0  0  0  0  0  0  0  0  0  0  0  0
   -0.4735   -2.4211    0.3629 C   0  0  0  0  0  0  0  0  0  0  0  0
   -2.7524    0.7995   -1.2344 C   0  0  0  0  0  0  0  0  0  0  0  0
   -1.9213   -0.0070   -2.2355 C   0  0  0  0  0  0  0  0  0  0  0  0
   -0.0984    2.3046   -0.4993 C   0  0  0  0  0  0  0  0  0  0  0  0
   -2.9092    1.6822    1.1288 C   0  0  0  0  0  0  0  0  0  0  0  0
   -3.3547   -0.6383    0.7037 C   0  0  0  0  0  0  0  0  0  0  0  0
    5.0570    0.6208   -0.1967 C   0  0  0  0  0  0  0  0  0  0  0  0
    0.8841   -0.0859   -1.7633 H   0  0  0  0  0  0  0  0  0  0  0  0
   -0.9356   -0.2888    1.5522 H   0  0  0  0  0  0  0  0  0  0  0  0
    0.1180    1.6968    1.4933 H   0  0  0  0  0  0  0  0  0  0  0  0
    1.3580   -0.9389    1.9924 H   0  0  0  0  0  0  0  0  0  0  0  0
    2.1866    0.5791    2.2858 H   0  0  0  0  0  0  0  0  0  0  0  0
    2.6853    2.2261    0.3316 H   0  0  0  0  0  0  0  0  0  0  0  0
    2.5893    1.4951   -1.2967 H   0  0  0  0  0  0  0  0  0  0  0  0
    3.9813   -1.0152    1.7978 H   0  0  0  0  0  0  0  0  0  0  0  0
    2.7008   -1.3187   -1.8726 H   0  0  0  0  0  0  0  0  0  0  0  0
    1.6184   -2.6103   -1.4641 H   0  0  0  0  0  0  0  0  0  0  0  0
   -2.1681   -1.9710   -1.4386 H   0  0  0  0  0  0  0  0  0  0  0  0
   -0.7528   -1.7972   -2.4361 H   0  0  0  0  0  0  0  0  0  0  0  0
    2.4966   -2.7573    0.7625 H   0  0  0  0  0  0  0  0  0  0  0  0
    3.9009   -2.4487   -0.2432 H   0  0  0  0  0  0  0  0  0  0  0  0
   -0.1284   -3.2461   -0.2689 H   0  0  0  0  0  0  0  0  0  0  0  0
    0.1433   -2.4125    1.2616 H   0  0  0  0  0  0  0  0  0  0  0  0
   -1.4873   -2.6825    0.6837 H   0  0  0  0  0  0  0  0  0  0  0  0
   -2.5862    1.8628   -1.4491 H   0  0  0  0  0  0  0  0  0  0  0  0
   -3.8166    0.6513   -1.4608 H   0  0  0  0  0  0  0  0  0  0  0  0
   -2.5580   -0.2612   -3.0927 H   0  0  0  0  0  0  0  0  0  0  0  0
   -1.1231    0.6081   -2.6580 H   0  0  0  0  0  0  0  0  0  0  0  0
   -0.0869    2.0182   -1.5587 H   0  0  0  0  0  0  0  0  0  0  0  0
   -3.9994    1.8035    1.1071 H   0  0  0  0  0  0  0  0  0  0  0  0
   -2.6167    1.5493    2.1770 H   0  0  0  0  0  0  0  0  0  0  0  0
   -2.4796    2.6296    0.7929 H   0  0  0  0  0  0  0  0  0  0  0  0
    5.8469   -0.0547    0.1131 H   0  0  0  0  0  0  0  0  0  0  0  0
    5.3306    1.4843   -0.7930 H   0  0  0  0  0  0  0  0  0  0  0  0
   -3.6999   -1.6681    2.3199 H   0  0  0  0  0  0  0  0  0  0  0  0
  1 20  2  0  0  0  0
  2 22  1  0  0  0  0
  2 51  1  0  0  0  0
  3 22  2  0  0  0  0
  4  5  1  0  0  0  0
  4  8  1  0  0  0  0
  4  9  1  0  0  0  0
  4 10  1  0  0  0  0
  5  6  1  0  0  0  0
  5 13  1  0  0  0  0
  5 24  1  0  0  0  0
  6  7  1  0  0  0  0
  6 14  1  0  0  0  0
  6 17  1  0  0  0  0
  7  8  1  0  0  0  0
  7 11  1  0  0  0  0
  7 25  1  0  0  0  0
  8 20  1  0  0  0  0
  8 26  1  0  0  0  0
  9 12  1  0  0  0  0
  9 27  1  0  0  0  0
  9 28  1  0  0  0  0
 10 16  1  0  0  0  0
 10 29  1  0  0  0  0
 10 30  1  0  0  0  0
 11 18  1  0  0  0  0
 11 21  1  0  0  0  0
 11 22  1  0  0  0  0
 12 15  1  0  0  0  0
 12 16  1  0  0  0  0
 12 31  1  0  0  0  0
 13 15  1  0  0  0  0
 13 32  1  0  0  0  0
 13 33  1  0  0  0  0
 14 19  1  0  0  0  0
 14 34  1  0  0  0  0
 14 35  1  0  0  0  0
 15 36  1  0  0  0  0
 15 37  1  0  0  0  0
 16 23  2  0  0  0  0
 17 38  1  0  0  0  0
 17 39  1  0  0  0  0
 17 40  1  0  0  0  0
 18 19  1  0  0  0  0
 18 41  1  0  0  0  0
 18 42  1  0  0  0  0
 19 43  1  0  0  0  0
 19 44  1  0  0  0  0
 20 45  1  0  0  0  0
 21 46  1  0  0  0  0
 21 47  1  0  0  0  0
 21 48  1  0  0  0  0
 23 49  1  0  0  0  0
 23 50  1  0  0  0  0
M  END
> <PUBCHEM_COMPOUND_CID>
440913

> <PUBCHEM_CONFORMER_RMSD>
0.6

> <PUBCHEM_CONFORMER_DIVERSEORDER>
2
4
1
5
3

> <PUBCHEM_MMFF94_PARTIAL_CHARGES>
15
1 -0.57
10 0.14
11 0.06
12 0.14
16 -0.28
2 -0.65
20 0.45
22 0.66
23 -0.3
3 -0.57
45 0.06
49 0.15
50 0.15
51 0.5
8 0.06

> <PUBCHEM_EFFECTIVE_ROTOR_COUNT>
3.8

> <PUBCHEM_PHARMACOPHORE_FEATURES>
7
1 1 acceptor
1 2 acceptor
1 3 acceptor
3 2 3 22 anion
5 4 5 6 7 8 rings
6 6 7 11 14 18 19 rings
8 4 5 9 10 12 13 15 16 rings

> <PUBCHEM_HEAVY_ATOM_COUNT>
23

> <PUBCHEM_ATOM_DEF_STEREO_COUNT>
6

> <PUBCHEM_ATOM_UDEF_STEREO_COUNT>
1

> <PUBCHEM_BOND_DEF_STEREO_COUNT>
0

> <PUBCHEM_BOND_UDEF_STEREO_COUNT>
0

> <PUBCHEM_ISOTOPIC_ATOM_COUNT>
0

> <PUBCHEM_COMPONENT_COUNT>
1

> <PUBCHEM_CACTVS_TAUTO_COUNT>
2

> <PUBCHEM_CONFORMER_ID>
0006BA5100000002

> <PUBCHEM_MMFF94_ENERGY>
99.4194

> <PUBCHEM_FEATURE_SELFOVERLAP>
35.81

> <PUBCHEM_SHAPE_FINGERPRINT>
10863032 1 18261670484108429523
10948715 1 18260543407797285658
10967382 1 18410856517048812784
1100329 8 14880587081039444091
11132069 177 17968393294225346322
11578080 2 17131560423063780653
12011746 2 18342739577048613519
12236239 1 17603584106347103263
12403814 3 18334582385822773624
12491281 212 16660362593002812699
12553582 1 18336557044772347272
12633257 1 18268974424404749675
12788726 201 18195544802510908089
13140716 1 18118960540728542312
13172582 1 18334300867938516553
13214271 11 18409729577586071069
13221675 6 18410857668348084896
13224815 77 18334016120291606926
13296908 3 18341896332949605874
13581323 91 18187368713871356522
13583140 156 17274555264572505902
14223421 5 18194117649492289062
14787075 74 17702374070777680032
14790565 3 18337942390859037696
14955137 171 18191005838470468776
15309172 13 18335424568795833830
16945 1 17603879878963889717
18186145 218 18340766065166615790
200 152 12679466356696526682
20691752 17 18267848639929163063
21267235 1 18337381665397332778
2334 1 18408882949300637025
23402539 116 18335708229889558820
23419403 2 16183464658566724277
23493267 7 17988372579700380416
23557571 272 17131838672108393572
23558518 356 18056474191495336128
23559900 14 18197222666514339186
2748010 2 18263074573526624301
296302 2 18413388760762286056
34934 24 18339924912785473896
465052 167 18268983186270272243
5104073 3 18336828692811047194
6992083 37 18040725757353443583
81228 2 18123764302598782216

> <PUBCHEM_SHAPE_MULTIPOLES>
455.72
6.8
2.42
1.52
2.94
0.92
-0.2
-0.3
1.03
-0.13
-0.17
-1.04
-0.28
-0.03

> <PUBCHEM_SHAPE_SELFOVERLAP>
992.484

> <PUBCHEM_SHAPE_VOLUME>
247.6

> <PUBCHEM_COORDINATE_TYPE>
2
5
10

$$$$

