3083909
  -OEChem-07051212563D

 52 57  0     1  0  0  0  0  0999 V2000
    0.3027    2.7869   -0.4041 N   0  0  1  0  0  0  0  0  0  0  0  0
   -0.3028   -2.7869   -0.4041 N   0  0  1  0  0  0  0  0  0  0  0  0
   -1.4131    1.3086   -1.6197 N   0  0  0  0  0  0  0  0  0  0  0  0
    1.4132   -1.3086   -1.6196 N   0  0  0  0  0  0  0  0  0  0  0  0
   -0.3793    0.6655    0.4835 C   0  0  2  0  0  0  0  0  0  0  0  0
    0.3793   -0.6654    0.4835 C   0  0  2  0  0  0  0  0  0  0  0  0
   -0.1666    1.4603   -0.8617 C   0  0  2  0  0  0  0  0  0  0  0  0
    0.1665   -1.4603   -0.8616 C   0  0  2  0  0  0  0  0  0  0  0  0
    0.1175    1.6106    1.5826 C   0  0  0  0  0  0  0  0  0  0  0  0
   -0.1175   -1.6107    1.5827 C   0  0  0  0  0  0  0  0  0  0  0  0
   -1.8669    0.4477    0.4835 C   0  0  0  0  0  0  0  0  0  0  0  0
    1.8669   -0.4477    0.4835 C   0  0  0  0  0  0  0  0  0  0  0  0
    1.0328    2.5708    0.8421 C   0  0  0  0  0  0  0  0  0  0  0  0
   -1.0329   -2.5707    0.8421 C   0  0  0  0  0  0  0  0  0  0  0  0
   -2.3936    0.8496   -0.7470 C   0  0  0  0  0  0  0  0  0  0  0  0
    2.3936   -0.8497   -0.7470 C   0  0  0  0  0  0  0  0  0  0  0  0
   -2.6759   -0.0791    1.4781 C   0  0  0  0  0  0  0  0  0  0  0  0
    2.6759    0.0791    1.4781 C   0  0  0  0  0  0  0  0  0  0  0  0
    1.0959    3.4785   -1.4087 C   0  0  0  0  0  0  0  0  0  0  0  0
   -1.0958   -3.4784   -1.4088 C   0  0  0  0  0  0  0  0  0  0  0  0
   -3.7418    0.6941   -1.0205 C   0  0  0  0  0  0  0  0  0  0  0  0
    3.7418   -0.6941   -1.0206 C   0  0  0  0  0  0  0  0  0  0  0  0
   -4.0399   -0.2136    1.2171 C   0  0  0  0  0  0  0  0  0  0  0  0
    4.0399    0.2137    1.2172 C   0  0  0  0  0  0  0  0  0  0  0  0
   -4.5690    0.1671   -0.0253 C   0  0  0  0  0  0  0  0  0  0  0  0
    4.5690   -0.1671   -0.0252 C   0  0  0  0  0  0  0  0  0  0  0  0
    0.6292    1.0427   -1.4791 H   0  0  0  0  0  0  0  0  0  0  0  0
   -0.6292   -1.0427   -1.4791 H   0  0  0  0  0  0  0  0  0  0  0  0
    0.5271    1.1447    2.4771 H   0  0  0  0  0  0  0  0  0  0  0  0
   -0.7308    2.1988    1.9668 H   0  0  0  0  0  0  0  0  0  0  0  0
   -0.5272   -1.1448    2.4772 H   0  0  0  0  0  0  0  0  0  0  0  0
    0.7308   -2.1989    1.9668 H   0  0  0  0  0  0  0  0  0  0  0  0
    1.1250    3.5083    1.4020 H   0  0  0  0  0  0  0  0  0  0  0  0
    2.0417    2.2178    0.6465 H   0  0  0  0  0  0  0  0  0  0  0  0
   -1.1251   -3.5083    1.4020 H   0  0  0  0  0  0  0  0  0  0  0  0
   -2.0417   -2.2177    0.6465 H   0  0  0  0  0  0  0  0  0  0  0  0
   -1.6296    1.8573   -2.4394 H   0  0  0  0  0  0  0  0  0  0  0  0
    1.6297   -1.8574   -2.4394 H   0  0  0  0  0  0  0  0  0  0  0  0
   -2.3188   -0.3212    2.4698 H   0  0  0  0  0  0  0  0  0  0  0  0
    2.3187    0.3213    2.4698 H   0  0  0  0  0  0  0  0  0  0  0  0
    0.5079    3.6367   -2.3192 H   0  0  0  0  0  0  0  0  0  0  0  0
    2.0048    2.9279   -1.6774 H   0  0  0  0  0  0  0  0  0  0  0  0
    1.3916    4.4684   -1.0450 H   0  0  0  0  0  0  0  0  0  0  0  0
   -0.5078   -3.6367   -2.3192 H   0  0  0  0  0  0  0  0  0  0  0  0
   -2.0047   -2.9279   -1.6775 H   0  0  0  0  0  0  0  0  0  0  0  0
   -1.3916   -4.4685   -1.0451 H   0  0  0  0  0  0  0  0  0  0  0  0
   -4.1561    0.9773   -1.9826 H   0  0  0  0  0  0  0  0  0  0  0  0
    4.1562   -0.9773   -1.9827 H   0  0  0  0  0  0  0  0  0  0  0  0
   -4.7010   -0.6073    1.9844 H   0  0  0  0  0  0  0  0  0  0  0  0
    4.7010    0.6073    1.9844 H   0  0  0  0  0  0  0  0  0  0  0  0
   -5.6326    0.0494   -0.2146 H   0  0  0  0  0  0  0  0  0  0  0  0
    5.6325   -0.0494   -0.2146 H   0  0  0  0  0  0  0  0  0  0  0  0
  1  7  1  0  0  0  0
  1 13  1  0  0  0  0
  1 19  1  0  0  0  0
  2  8  1  0  0  0  0
  2 14  1  0  0  0  0
  2 20  1  0  0  0  0
  3  7  1  0  0  0  0
  3 15  1  0  0  0  0
  3 37  1  0  0  0  0
  4  8  1  0  0  0  0
  4 16  1  0  0  0  0
  4 38  1  0  0  0  0
  5  6  1  0  0  0  0
  5  7  1  0  0  0  0
  5  9  1  0  0  0  0
  5 11  1  0  0  0  0
  6  8  1  0  0  0  0
  6 10  1  0  0  0  0
  6 12  1  0  0  0  0
  7 27  1  0  0  0  0
  8 28  1  0  0  0  0
  9 13  1  0  0  0  0
  9 29  1  0  0  0  0
  9 30  1  0  0  0  0
 10 14  1  0  0  0  0
 10 31  1  0  0  0  0
 10 32  1  0  0  0  0
 11 15  1  0  0  0  0
 11 17  2  0  0  0  0
 12 16  1  0  0  0  0
 12 18  2  0  0  0  0
 13 33  1  0  0  0  0
 13 34  1  0  0  0  0
 14 35  1  0  0  0  0
 14 36  1  0  0  0  0
 15 21  2  0  0  0  0
 16 22  2  0  0  0  0
 17 23  1  0  0  0  0
 17 39  1  0  0  0  0
 18 24  1  0  0  0  0
 18 40  1  0  0  0  0
 19 41  1  0  0  0  0
 19 42  1  0  0  0  0
 19 43  1  0  0  0  0
 20 44  1  0  0  0  0
 20 45  1  0  0  0  0
 20 46  1  0  0  0  0
 21 25  1  0  0  0  0
 21 47  1  0  0  0  0
 22 26  1  0  0  0  0
 22 48  1  0  0  0  0
 23 25  2  0  0  0  0
 23 49  1  0  0  0  0
 24 26  2  0  0  0  0
 24 50  1  0  0  0  0
 25 51  1  0  0  0  0
 26 52  1  0  0  0  0
M  END
> <PUBCHEM_COMPOUND_CID>
3083909

> <PUBCHEM_CONFORMER_RMSD>
0.6

> <PUBCHEM_CONFORMER_DIVERSEORDER>
1
2

> <PUBCHEM_MMFF94_PARTIAL_CHARGES>
34
1 -0.81
11 -0.14
12 -0.14
13 0.27
14 0.27
15 0.1
16 0.1
17 -0.15
18 -0.15
19 0.27
2 -0.81
20 0.27
21 -0.15
22 -0.15
23 -0.15
24 -0.15
25 -0.15
26 -0.15
3 -0.87
37 0.4
38 0.4
39 0.15
4 -0.87
40 0.15
47 0.15
48 0.15
49 0.15
5 0.14
50 0.15
51 0.15
52 0.15
6 0.14
7 0.64
8 0.64

> <PUBCHEM_EFFECTIVE_ROTOR_COUNT>
2.6

> <PUBCHEM_PHARMACOPHORE_FEATURES>
12
1 1 cation
1 2 cation
1 3 cation
1 3 donor
1 4 cation
1 4 donor
5 1 5 7 9 13 rings
5 2 6 8 10 14 rings
5 3 5 7 11 15 rings
5 4 6 8 12 16 rings
6 11 15 17 21 23 25 rings
6 12 16 18 22 24 26 rings

> <PUBCHEM_HEAVY_ATOM_COUNT>
26

> <PUBCHEM_ATOM_DEF_STEREO_COUNT>
4

> <PUBCHEM_ATOM_UDEF_STEREO_COUNT>
0

> <PUBCHEM_BOND_DEF_STEREO_COUNT>
0

> <PUBCHEM_BOND_UDEF_STEREO_COUNT>
0

> <PUBCHEM_ISOTOPIC_ATOM_COUNT>
0

> <PUBCHEM_COMPONENT_COUNT>
1

> <PUBCHEM_CACTVS_TAUTO_COUNT>
1

> <PUBCHEM_CONFORMER_ID>
002F0E8500000001

> <PUBCHEM_MMFF94_ENERGY>
138.3558

> <PUBCHEM_FEATURE_SELFOVERLAP>
61.772

> <PUBCHEM_SHAPE_FINGERPRINT>
10675989 125 16977888602343062445
10863032 1 17914037703760197188
10930396 42 18052293706953681560
10948715 1 15791731910026799587
11578080 2 16954511451136296811
12011746 2 18410856572524691490
12035758 1 18410573950791713528
12035759 4 17617941331202546614
12403259 226 18047749583993354614
12969540 114 18337121136654137791
13140716 1 18266458693996380649
13149001 5 18338515235777889620
133893 2 17412200758785137588
13464513 79 18412265021788489135
13583140 156 17703511008386379266
13911987 19 18411417319313137772
14223421 5 17905889532303211099
14790565 3 18336820978565311096
14955137 171 18335685136130054859
15209289 33 17967248723721303619
1601671 61 18269835470774147937
16945 1 18410573989446418648
17357779 13 18335708289961637293
17492 54 18129639946924578796
20028762 73 18188489048187295439
20600515 1 18338215138197880748
20691752 17 18195792188515936458
20905425 154 17911528906094039811
21033648 29 18187097164638232497
229495 10 17130171864342494030
23227448 37 18057881347293242292
23402539 116 18335420231189971334
23419403 2 17036188689748801672
23558518 356 17979648831228658027
23559900 14 18272081747623854794
238 59 18197524929190330533
2748010 2 18266741474643148833
3060560 45 18336562593838406367
3383291 50 18117279375304476758
350125 39 18120930612526508107
7495541 125 17560505228086547649
81228 2 18193573172267463730

> <PUBCHEM_SHAPE_MULTIPOLES>
515.14
6.33
3.2
1.7
0
0
0.04
0
0.58
0
-1.24
0
0
0.34

> <PUBCHEM_SHAPE_SELFOVERLAP>
1173.111

> <PUBCHEM_SHAPE_VOLUME>
267.2

> <PUBCHEM_COORDINATE_TYPE>
2
5
10

$$$$

