9543131
  -OEChem-07051213083D

 23 23  0     0  0  0  0  0  0999 V2000
   -0.2247    2.3837    0.0037 O   0  0  0  0  0  0  0  0  0  0  0  0
   -3.9628    0.5511   -0.0172 O   0  0  0  0  0  0  0  0  0  0  0  0
    3.1889    0.2164   -0.0042 O   0  5  0  0  0  0  0  0  0  0  0  0
    2.1819    2.1670   -0.0018 O   0  0  0  0  0  0  0  0  0  0  0  0
    2.1496    0.9150   -0.0018 N   0  3  0  0  0  0  0  0  0  0  0  0
   -0.5235   -3.1762    0.0016 N   0  0  0  0  0  0  0  0  0  0  0  0
   -2.7239    1.1378    0.0072 N   0  0  0  0  0  0  0  0  0  0  0  0
    0.8123   -1.1318    0.0000 C   0  0  0  0  0  0  0  0  0  0  0  0
    0.8834    0.2613    0.0005 C   0  0  0  0  0  0  0  0  0  0  0  0
   -0.4296   -1.7668    0.0022 C   0  0  0  0  0  0  0  0  0  0  0  0
   -0.2875    1.0194    0.0031 C   0  0  0  0  0  0  0  0  0  0  0  0
   -1.5294    0.3844    0.0055 C   0  0  0  0  0  0  0  0  0  0  0  0
   -1.6004   -1.0087    0.0050 C   0  0  0  0  0  0  0  0  0  0  0  0
    2.0657   -1.9525   -0.0038 C   0  0  0  0  0  0  0  0  0  0  0  0
   -2.5621   -1.5168    0.0071 H   0  0  0  0  0  0  0  0  0  0  0  0
    2.6629   -1.7719    0.8974 H   0  0  0  0  0  0  0  0  0  0  0  0
    1.9057   -3.0308    0.0324 H   0  0  0  0  0  0  0  0  0  0  0  0
    2.6369   -1.8051   -0.9273 H   0  0  0  0  0  0  0  0  0  0  0  0
   -1.4458   -3.5944    0.0189 H   0  0  0  0  0  0  0  0  0  0  0  0
    0.2554   -3.7817   -0.2001 H   0  0  0  0  0  0  0  0  0  0  0  0
   -2.7084    2.1294   -0.1881 H   0  0  0  0  0  0  0  0  0  0  0  0
   -1.0853    2.7540    0.2536 H   0  0  0  0  0  0  0  0  0  0  0  0
   -4.4720    1.1326    0.5724 H   0  0  0  0  0  0  0  0  0  0  0  0
  1 11  1  0  0  0  0
  1 22  1  0  0  0  0
  2  7  1  0  0  0  0
  2 23  1  0  0  0  0
  3  5  1  0  0  0  0
  4  5  2  0  0  0  0
  5  9  1  0  0  0  0
  6 10  1  0  0  0  0
  6 19  1  0  0  0  0
  6 20  1  0  0  0  0
  7 12  1  0  0  0  0
  7 21  1  0  0  0  0
  8  9  2  0  0  0  0
  8 10  1  0  0  0  0
  8 14  1  0  0  0  0
  9 11  1  0  0  0  0
 10 13  2  0  0  0  0
 11 12  2  0  0  0  0
 12 13  1  0  0  0  0
 13 15  1  0  0  0  0
 14 16  1  0  0  0  0
 14 17  1  0  0  0  0
 14 18  1  0  0  0  0
M  CHG  2   3  -1   5   1
M  END
> <PUBCHEM_COMPOUND_CID>
9543131

> <PUBCHEM_CONFORMER_RMSD>
0.6

> <PUBCHEM_CONFORMER_DIVERSEORDER>
1

> <PUBCHEM_MMFF94_PARTIAL_CHARGES>
20
1 -0.53
10 0.1
11 0.08
12 0.1
13 -0.15
14 0.14
15 0.15
19 0.4
2 -0.38
20 0.4
21 0.4
22 0.45
23 0.4
3 -0.52
4 -0.52
5 0.91
6 -0.9
7 -0.52
8 -0.14
9 0.13

> <PUBCHEM_EFFECTIVE_ROTOR_COUNT>
2

> <PUBCHEM_PHARMACOPHORE_FEATURES>
8
1 1 donor
1 2 anion
1 3 acceptor
1 3 anion
1 4 acceptor
1 6 cation
1 6 donor
6 8 9 10 11 12 13 rings

> <PUBCHEM_HEAVY_ATOM_COUNT>
14

> <PUBCHEM_ATOM_DEF_STEREO_COUNT>
0

> <PUBCHEM_ATOM_UDEF_STEREO_COUNT>
0

> <PUBCHEM_BOND_DEF_STEREO_COUNT>
0

> <PUBCHEM_BOND_UDEF_STEREO_COUNT>
0

> <PUBCHEM_ISOTOPIC_ATOM_COUNT>
0

> <PUBCHEM_COMPONENT_COUNT>
1

> <PUBCHEM_CACTVS_TAUTO_COUNT>
43

> <PUBCHEM_CONFORMER_ID>
00919DDB00000001

> <PUBCHEM_MMFF94_ENERGY>
73.7988

> <PUBCHEM_FEATURE_SELFOVERLAP>
40.676

> <PUBCHEM_SHAPE_FINGERPRINT>
10967382 1 18410856598299789474
11471102 20 18267308818886431157
12423570 1 9509808649980305486
13380535 76 18409452470459283598
13380536 305 18337948008068949879
13897977 150 18411139138665818397
14251717 144 18337961181271411679
16945 1 18339081493035457384
193761 8 18050286964286831363
20588541 1 18410008836322629748
20645476 183 17916286278343613422
20645477 70 18265339589608761775
21040471 1 18410573942243995682
21501502 16 18338804398888764254
2334 1 18410573955287503915
23463225 33 18341334469517214026
23552423 10 18055636110178886318
23559900 14 17468753444288050150
241688 4 16969421301345057579
2748010 2 18411411813202032399
5084963 1 17897733294918969666
528862 383 18270969049654916643
528886 8 18410016541361947225
53812653 166 18334579014210142993
7364860 26 18191306185195828910

> <PUBCHEM_SHAPE_MULTIPOLES>
249.69
4.05
2.81
0.57
1.8
0.94
0
-1.25
-0.02
-0.7
0
0
0.04
0

> <PUBCHEM_SHAPE_SELFOVERLAP>
529.965

> <PUBCHEM_SHAPE_VOLUME>
139.7

> <PUBCHEM_COORDINATE_TYPE>
2
5
10

$$$$

