18605013
  -OEChem-07051213153D

 24 24  0     1  0  0  0  0  0999 V2000
   -1.1909   -1.6418   -1.0903 O   0  0  0  0  0  0  0  0  0  0  0  0
   -3.5067    1.2042   -0.8246 O   0  0  0  0  0  0  0  0  0  0  0  0
   -2.7533   -1.4960    0.5478 O   0  0  0  0  0  0  0  0  0  0  0  0
   -2.6519    1.2389    0.3457 N   0  0  0  0  0  0  0  0  0  0  0  0
   -0.3586    0.6975    1.0258 C   0  0  0  0  0  0  0  0  0  0  0  0
   -1.4575    0.4846   -0.0271 C   0  0  1  0  0  0  0  0  0  0  0  0
    1.0236    0.3768    0.5053 C   0  0  0  0  0  0  0  0  0  0  0  0
    1.5334   -0.9155    0.6305 C   0  0  0  0  0  0  0  0  0  0  0  0
    1.7897    1.3730   -0.0999 C   0  0  0  0  0  0  0  0  0  0  0  0
   -1.8773   -0.9717   -0.1283 C   0  0  0  0  0  0  0  0  0  0  0  0
    2.8090   -1.2116    0.1503 C   0  0  0  0  0  0  0  0  0  0  0  0
    3.0654    1.0769   -0.5801 C   0  0  0  0  0  0  0  0  0  0  0  0
    3.5750   -0.2155   -0.4551 C   0  0  0  0  0  0  0  0  0  0  0  0
   -0.5580    0.0975    1.9241 H   0  0  0  0  0  0  0  0  0  0  0  0
   -0.3525    1.7424    1.3663 H   0  0  0  0  0  0  0  0  0  0  0  0
   -1.1152    0.8277   -1.0126 H   0  0  0  0  0  0  0  0  0  0  0  0
    0.9482   -1.7003    1.1023 H   0  0  0  0  0  0  0  0  0  0  0  0
    1.4029    2.3831   -0.2056 H   0  0  0  0  0  0  0  0  0  0  0  0
   -2.4347    2.2338    0.3931 H   0  0  0  0  0  0  0  0  0  0  0  0
    3.2061   -2.2178    0.2481 H   0  0  0  0  0  0  0  0  0  0  0  0
    3.6617    1.8523   -1.0520 H   0  0  0  0  0  0  0  0  0  0  0  0
    4.5683   -0.4461   -0.8290 H   0  0  0  0  0  0  0  0  0  0  0  0
   -1.4764   -2.5778   -1.1582 H   0  0  0  0  0  0  0  0  0  0  0  0
   -4.3388    0.9238   -0.4073 H   0  0  0  0  0  0  0  0  0  0  0  0
  1 10  1  0  0  0  0
  1 23  1  0  0  0  0
  2  4  1  0  0  0  0
  2 24  1  0  0  0  0
  3 10  2  0  0  0  0
  4  6  1  0  0  0  0
  4 19  1  0  0  0  0
  5  6  1  0  0  0  0
  5  7  1  0  0  0  0
  5 14  1  0  0  0  0
  5 15  1  0  0  0  0
  6 10  1  0  0  0  0
  6 16  1  0  0  0  0
  7  8  2  0  0  0  0
  7  9  1  0  0  0  0
  8 11  1  0  0  0  0
  8 17  1  0  0  0  0
  9 12  2  0  0  0  0
  9 18  1  0  0  0  0
 11 13  2  0  0  0  0
 11 20  1  0  0  0  0
 12 13  1  0  0  0  0
 12 21  1  0  0  0  0
 13 22  1  0  0  0  0
M  END
> <PUBCHEM_COMPOUND_CID>
18605013

> <PUBCHEM_CONFORMER_RMSD>
0.6

> <PUBCHEM_CONFORMER_DIVERSEORDER>
1
11
9
17
25
23
7
10
19
21
5
20
16
12
15
26
2
22
3
8
14
18
6
24
4
13

> <PUBCHEM_MMFF94_PARTIAL_CHARGES>
21
1 -0.65
10 0.66
11 -0.15
12 -0.15
13 -0.15
17 0.15
18 0.15
19 0.36
2 -0.3
20 0.15
21 0.15
22 0.15
23 0.5
24 0.4
3 -0.57
4 -0.73
5 0.14
6 0.33
7 -0.14
8 -0.15
9 -0.15

> <PUBCHEM_EFFECTIVE_ROTOR_COUNT>
4

> <PUBCHEM_PHARMACOPHORE_FEATURES>
5
1 1 acceptor
1 2 anion
1 3 acceptor
3 1 3 10 anion
6 7 8 9 11 12 13 rings

> <PUBCHEM_HEAVY_ATOM_COUNT>
13

> <PUBCHEM_ATOM_DEF_STEREO_COUNT>
1

> <PUBCHEM_ATOM_UDEF_STEREO_COUNT>
0

> <PUBCHEM_BOND_DEF_STEREO_COUNT>
0

> <PUBCHEM_BOND_UDEF_STEREO_COUNT>
0

> <PUBCHEM_ISOTOPIC_ATOM_COUNT>
0

> <PUBCHEM_COMPONENT_COUNT>
1

> <PUBCHEM_CACTVS_TAUTO_COUNT>
1

> <PUBCHEM_CONFORMER_ID>
011BE3D500000001

> <PUBCHEM_MMFF94_ENERGY>
22.3357

> <PUBCHEM_FEATURE_SELFOVERLAP>
25.431

> <PUBCHEM_SHAPE_FINGERPRINT>
11031198 65 17631720673241959056
11401426 45 18341895212717346672
12897270 3 18270683056504394816
12932764 1 18041840597598231472
13296908 3 18187643583404494304
14128692 85 18261390018907891410
14144814 61 18334573576887008760
14325111 11 18341327816934833744
14993402 34 18335421334738201052
15310529 11 18341328898944728563
15775835 57 18271801341523951044
16945 1 18269272546215646336
17844478 74 18127680548457972635
18186145 218 17632860836814351890
18619055 16 18335703866340040032
19422 9 18412537704429152762
20279233 1 17240209837088355170
20523700 14 18410856572709372918
20645476 183 18412828005558635359
21119208 17 18411979204357125820
23402539 116 17775007878023821028
23402655 69 18272929461966114292
23552423 10 18341896264235293538
23559900 14 18040152925529509024
25 1 17845934142719898408
2748010 2 18261683557962647817
3248919 1 18130519538935815746
528886 8 18272654562610421744
74978 22 18186525384084129416
93112 12 18413107272937785180
9939556 21 18412544327389951428

> <PUBCHEM_SHAPE_MULTIPOLES>
244.94
5.83
1.67
0.92
0.34
0.21
0
-0.37
-1.14
0.43
-0.14
0.13
0.03
-0.14

> <PUBCHEM_SHAPE_SELFOVERLAP>
499.911

> <PUBCHEM_SHAPE_VOLUME>
141.5

> <PUBCHEM_COORDINATE_TYPE>
2
5
10

$$$$

