9013425
  -OEChem-07051213123D

 37 38  0     0  0  0  0  0  0999 V2000
   -0.2654   -1.4183   -0.1451 N   0  0  0  0  0  0  0  0  0  0  0  0
    0.2315   -0.1685   -0.1168 N   0  0  0  0  0  0  0  0  0  0  0  0
    2.0358    1.3253    0.0225 N   0  0  0  0  0  0  0  0  0  0  0  0
    2.4049   -1.0526   -0.1072 N   0  0  0  0  0  0  0  0  0  0  0  0
   -2.4356   -0.4160   -0.2151 C   0  0  0  0  0  0  0  0  0  0  0  0
   -2.9096    0.1522    0.9673 C   0  0  0  0  0  0  0  0  0  0  0  0
   -1.5695   -1.5870   -0.1936 C   0  0  0  0  0  0  0  0  0  0  0  0
   -2.7904    0.1368   -1.4456 C   0  0  0  0  0  0  0  0  0  0  0  0
   -3.7384    1.2730    0.9192 C   0  0  0  0  0  0  0  0  0  0  0  0
   -2.5465   -0.4205    2.2987 C   0  0  0  0  0  0  0  0  0  0  0  0
   -3.6191    1.2576   -1.4937 C   0  0  0  0  0  0  0  0  0  0  0  0
   -4.0932    1.8257   -0.3113 C   0  0  0  0  0  0  0  0  0  0  0  0
   -2.2081   -2.9788   -0.2304 C   0  0  0  0  0  0  0  0  0  0  0  0
    3.3738    1.4929    0.0704 C   0  0  0  0  0  0  0  0  0  0  0  0
    3.7313   -0.8120   -0.0554 C   0  0  0  0  0  0  0  0  0  0  0  0
    1.6189    0.0443   -0.0649 C   0  0  0  0  0  0  0  0  0  0  0  0
    4.2786    0.4516    0.0344 C   0  0  0  0  0  0  0  0  0  0  0  0
    3.8706    2.8961    0.1660 C   0  0  0  0  0  0  0  0  0  0  0  0
    4.6303   -2.0017   -0.0995 C   0  0  0  0  0  0  0  0  0  0  0  0
   -2.4277   -0.2968   -2.3741 H   0  0  0  0  0  0  0  0  0  0  0  0
   -4.1167    1.7286    1.8305 H   0  0  0  0  0  0  0  0  0  0  0  0
   -1.4643   -0.3739    2.4570 H   0  0  0  0  0  0  0  0  0  0  0  0
   -3.0179    0.1303    3.1201 H   0  0  0  0  0  0  0  0  0  0  0  0
   -2.8802   -1.4605    2.3748 H   0  0  0  0  0  0  0  0  0  0  0  0
   -3.8953    1.6881   -2.4518 H   0  0  0  0  0  0  0  0  0  0  0  0
   -4.7384    2.6985   -0.3490 H   0  0  0  0  0  0  0  0  0  0  0  0
   -3.2985   -2.9087   -0.2528 H   0  0  0  0  0  0  0  0  0  0  0  0
   -1.8602   -3.5045   -1.1237 H   0  0  0  0  0  0  0  0  0  0  0  0
   -1.8990   -3.5344    0.6591 H   0  0  0  0  0  0  0  0  0  0  0  0
    5.3486    0.6154    0.0742 H   0  0  0  0  0  0  0  0  0  0  0  0
   -0.3499    0.6592   -0.0898 H   0  0  0  0  0  0  0  0  0  0  0  0
    4.4530    3.0323    1.0828 H   0  0  0  0  0  0  0  0  0  0  0  0
    4.4998    3.1370   -0.6968 H   0  0  0  0  0  0  0  0  0  0  0  0
    3.0386    3.6077    0.1860 H   0  0  0  0  0  0  0  0  0  0  0  0
    5.2906   -1.9480   -0.9709 H   0  0  0  0  0  0  0  0  0  0  0  0
    5.2394   -2.0527    0.8086 H   0  0  0  0  0  0  0  0  0  0  0  0
    4.0524   -2.9291   -0.1707 H   0  0  0  0  0  0  0  0  0  0  0  0
  1  2  1  0  0  0  0
  1  7  2  0  0  0  0
  2 16  1  0  0  0  0
  2 31  1  0  0  0  0
  3 14  2  0  0  0  0
  3 16  1  0  0  0  0
  4 15  1  0  0  0  0
  4 16  2  0  0  0  0
  5  6  1  0  0  0  0
  5  7  1  0  0  0  0
  5  8  2  0  0  0  0
  6  9  2  0  0  0  0
  6 10  1  0  0  0  0
  7 13  1  0  0  0  0
  8 11  1  0  0  0  0
  8 20  1  0  0  0  0
  9 12  1  0  0  0  0
  9 21  1  0  0  0  0
 10 22  1  0  0  0  0
 10 23  1  0  0  0  0
 10 24  1  0  0  0  0
 11 12  2  0  0  0  0
 11 25  1  0  0  0  0
 12 26  1  0  0  0  0
 13 27  1  0  0  0  0
 13 28  1  0  0  0  0
 13 29  1  0  0  0  0
 14 17  1  0  0  0  0
 14 18  1  0  0  0  0
 15 17  2  0  0  0  0
 15 19  1  0  0  0  0
 17 30  1  0  0  0  0
 18 32  1  0  0  0  0
 18 33  1  0  0  0  0
 18 34  1  0  0  0  0
 19 35  1  0  0  0  0
 19 36  1  0  0  0  0
 19 37  1  0  0  0  0
M  END
> <PUBCHEM_COMPOUND_CID>
9013425

> <PUBCHEM_CONFORMER_RMSD>
0.6

> <PUBCHEM_CONFORMER_DIVERSEORDER>
1
7
5
3
4
6
2
8

> <PUBCHEM_MMFF94_PARTIAL_CHARGES>
25
1 -0.49
10 0.14
11 -0.15
12 -0.15
13 0.06
14 0.17
15 0.17
16 0.72
17 -0.15
18 0.14
19 0.14
2 -0.46
20 0.15
21 0.15
25 0.15
26 0.15
3 -0.62
30 0.15
31 0.4
4 -0.62
5 0.09
6 -0.14
7 0.3
8 -0.15
9 -0.15

> <PUBCHEM_EFFECTIVE_ROTOR_COUNT>
3

> <PUBCHEM_PHARMACOPHORE_FEATURES>
6
1 1 acceptor
1 2 donor
1 3 acceptor
4 2 3 4 16 cation
6 3 4 14 15 16 17 rings
6 5 6 8 9 11 12 rings

> <PUBCHEM_HEAVY_ATOM_COUNT>
19

> <PUBCHEM_ATOM_DEF_STEREO_COUNT>
0

> <PUBCHEM_ATOM_UDEF_STEREO_COUNT>
0

> <PUBCHEM_BOND_DEF_STEREO_COUNT>
1

> <PUBCHEM_BOND_UDEF_STEREO_COUNT>
0

> <PUBCHEM_ISOTOPIC_ATOM_COUNT>
0

> <PUBCHEM_COMPONENT_COUNT>
1

> <PUBCHEM_CACTVS_TAUTO_COUNT>
2

> <PUBCHEM_CONFORMER_ID>
008988B100000001

> <PUBCHEM_MMFF94_ENERGY>
64.562

> <PUBCHEM_FEATURE_SELFOVERLAP>
30.446

> <PUBCHEM_SHAPE_FINGERPRINT>
11370993 144 18343018930058376404
11405975 8 18341899584614382514
12633257 1 18339087081083575062
12916754 54 18410011001118314583
13583140 156 18131626798563521738
13675066 3 18059850662601730282
15239191 94 11383838168621553368
15420108 30 15949055840936179186
15442244 35 18408039632878190914
17349148 13 17676208013123927822
18186145 218 18335132077655185918
18219364 16 18410567405636171659
192875 21 17604154816921540920
19433438 15 17531250581829457781
19489759 90 15357986719316612562
20286276 3 18338792313246815534
20645477 56 18343302552571196805
20645477 70 18408886274027609902
20832881 197 18057325188052673786
21033648 29 18130518516776453661
21065198 57 18411700972080872990
21065199 12 18271800173224300922
21709351 56 18335985247481695740
23559900 14 18260834813165821546
27216 239 18272931596870698489
2838139 119 18194409012159507429
4214541 1 18410013217210435742
474 4 18115024242104448607
5104073 3 18412549778009406002
602551 16 16271915000681195688
633830 44 17346598560838456714
74978 22 18409169896039477926
90127 26 18131627889849068320
9971528 1 17968663834574218782

> <PUBCHEM_SHAPE_MULTIPOLES>
371.09
10.03
2.68
1.25
6.43
0.23
-0.41
-3.04
0.18
1.01
0.19
-1.85
-0.1
0.49

> <PUBCHEM_SHAPE_SELFOVERLAP>
782.346

> <PUBCHEM_SHAPE_VOLUME>
206.4

> <PUBCHEM_COORDINATE_TYPE>
2
5
10

$$$$

