46174046
  -OEChem-07051213112D

 98100  0     0  0  0  0  0  0999 V2000
    4.5981   -1.2500    0.0000 O   0  0  0  0  0  0  0  0  0  0  0  0
   11.5263   -0.2500    0.0000 O   0  0  0  0  0  0  0  0  0  0  0  0
    7.1962    3.2500    0.0000 O   0  0  0  0  0  0  0  0  0  0  0  0
    2.8660   -6.2500    0.0000 O   0  0  0  0  0  0  0  0  0  0  0  0
    6.3301   -6.2500    0.0000 O   0  0  0  0  0  0  0  0  0  0  0  0
    4.5981   -7.2500    0.0000 O   0  0  0  0  0  0  0  0  0  0  0  0
   16.7224   -1.2500    0.0000 O   0  0  0  0  0  0  0  0  0  0  0  0
   14.9904   -4.2500    0.0000 O   0  0  0  0  0  0  0  0  0  0  0  0
   12.3923    4.2500    0.0000 O   0  0  0  0  0  0  0  0  0  0  0  0
   16.7224   -3.2500    0.0000 O   0  0  0  0  0  0  0  0  0  0  0  0
   10.6603    7.2500    0.0000 O   0  0  0  0  0  0  0  0  0  0  0  0
   12.3923    6.2500    0.0000 O   0  0  0  0  0  0  0  0  0  0  0  0
    6.3301   -1.2500    0.0000 N   0  0  0  0  0  0  0  0  0  0  0  0
   10.6603   -1.7500    0.0000 N   0  0  0  0  0  0  0  0  0  0  0  0
    8.0622    1.7500    0.0000 N   0  0  0  0  0  0  0  0  0  0  0  0
    7.1962   -1.7500    0.0000 C   0  0  0  0  0  0  0  0  0  0  0  0
    8.0622   -1.2500    0.0000 C   0  0  0  0  0  0  0  0  0  0  0  0
    6.3301   -0.2500    0.0000 C   0  0  0  0  0  0  0  0  0  0  0  0
    8.9282   -1.7500    0.0000 C   0  0  0  0  0  0  0  0  0  0  0  0
    7.1962    0.2500    0.0000 C   0  0  0  0  0  0  0  0  0  0  0  0
    9.7942   -1.2500    0.0000 C   0  0  0  0  0  0  0  0  0  0  0  0
    7.1962    1.2500    0.0000 C   0  0  0  0  0  0  0  0  0  0  0  0
    5.4641   -1.7500    0.0000 C   0  0  0  0  0  0  0  0  0  0  0  0
    5.4641   -2.7500    0.0000 C   0  0  0  0  0  0  0  0  0  0  0  0
   11.5263   -1.2500    0.0000 C   0  0  0  0  0  0  0  0  0  0  0  0
    4.5981   -3.2500    0.0000 C   0  0  0  0  0  0  0  0  0  0  0  0
    8.0622    2.7500    0.0000 C   0  0  0  0  0  0  0  0  0  0  0  0
    4.5981   -4.2500    0.0000 C   0  0  0  0  0  0  0  0  0  0  0  0
   12.3923   -1.7500    0.0000 C   0  0  0  0  0  0  0  0  0  0  0  0
    8.9282    3.2500    0.0000 C   0  0  0  0  0  0  0  0  0  0  0  0
    3.7320   -4.7500    0.0000 C   0  0  0  0  0  0  0  0  0  0  0  0
    5.4641   -4.7500    0.0000 C   0  0  0  0  0  0  0  0  0  0  0  0
   13.2583   -1.2500    0.0000 C   0  0  0  0  0  0  0  0  0  0  0  0
    3.7320   -5.7500    0.0000 C   0  0  0  0  0  0  0  0  0  0  0  0
    8.9282    4.2500    0.0000 C   0  0  0  0  0  0  0  0  0  0  0  0
    5.4641   -5.7500    0.0000 C   0  0  0  0  0  0  0  0  0  0  0  0
   14.1244   -1.7500    0.0000 C   0  0  0  0  0  0  0  0  0  0  0  0
    4.5981   -6.2500    0.0000 C   0  0  0  0  0  0  0  0  0  0  0  0
    9.7942    4.7500    0.0000 C   0  0  0  0  0  0  0  0  0  0  0  0
   14.1244   -2.7500    0.0000 C   0  0  0  0  0  0  0  0  0  0  0  0
   14.9904   -1.2500    0.0000 C   0  0  0  0  0  0  0  0  0  0  0  0
   10.6603    4.2500    0.0000 C   0  0  0  0  0  0  0  0  0  0  0  0
    9.7942    5.7500    0.0000 C   0  0  0  0  0  0  0  0  0  0  0  0
   15.8564   -1.7500    0.0000 C   0  0  0  0  0  0  0  0  0  0  0  0
   14.9904   -3.2500    0.0000 C   0  0  0  0  0  0  0  0  0  0  0  0
   15.8564   -2.7500    0.0000 C   0  0  0  0  0  0  0  0  0  0  0  0
   11.5263    4.7500    0.0000 C   0  0  0  0  0  0  0  0  0  0  0  0
   10.6603    6.2500    0.0000 C   0  0  0  0  0  0  0  0  0  0  0  0
   11.5263    5.7500    0.0000 C   0  0  0  0  0  0  0  0  0  0  0  0
    2.0000   -5.7500    0.0000 C   0  0  0  0  0  0  0  0  0  0  0  0
   16.7224   -0.2500    0.0000 C   0  0  0  0  0  0  0  0  0  0  0  0
   14.1244   -4.7500    0.0000 C   0  0  0  0  0  0  0  0  0  0  0  0
   13.2583    4.7500    0.0000 C   0  0  0  0  0  0  0  0  0  0  0  0
    6.7976   -2.2250    0.0000 H   0  0  0  0  0  0  0  0  0  0  0  0
    7.5947   -2.2250    0.0000 H   0  0  0  0  0  0  0  0  0  0  0  0
    8.4607   -0.7751    0.0000 H   0  0  0  0  0  0  0  0  0  0  0  0
    7.6636   -0.7751    0.0000 H   0  0  0  0  0  0  0  0  0  0  0  0
    6.1181    0.3326    0.0000 H   0  0  0  0  0  0  0  0  0  0  0  0
    5.7196   -0.3577    0.0000 H   0  0  0  0  0  0  0  0  0  0  0  0
    8.5297   -2.2250    0.0000 H   0  0  0  0  0  0  0  0  0  0  0  0
    9.3267   -2.2250    0.0000 H   0  0  0  0  0  0  0  0  0  0  0  0
    7.4082   -0.3326    0.0000 H   0  0  0  0  0  0  0  0  0  0  0  0
    7.8067    0.3577    0.0000 H   0  0  0  0  0  0  0  0  0  0  0  0
   10.1928   -0.7751    0.0000 H   0  0  0  0  0  0  0  0  0  0  0  0
    9.3957   -0.7751    0.0000 H   0  0  0  0  0  0  0  0  0  0  0  0
    6.9841    1.8326    0.0000 H   0  0  0  0  0  0  0  0  0  0  0  0
    6.5856    1.1423    0.0000 H   0  0  0  0  0  0  0  0  0  0  0  0
   10.6603   -2.3700    0.0000 H   0  0  0  0  0  0  0  0  0  0  0  0
    8.5991    1.4400    0.0000 H   0  0  0  0  0  0  0  0  0  0  0  0
    6.0010   -3.0600    0.0000 H   0  0  0  0  0  0  0  0  0  0  0  0
    4.0611   -2.9400    0.0000 H   0  0  0  0  0  0  0  0  0  0  0  0
   12.3923   -2.3700    0.0000 H   0  0  0  0  0  0  0  0  0  0  0  0
    9.4651    2.9400    0.0000 H   0  0  0  0  0  0  0  0  0  0  0  0
    3.1951   -4.4400    0.0000 H   0  0  0  0  0  0  0  0  0  0  0  0
    6.0010   -4.4400    0.0000 H   0  0  0  0  0  0  0  0  0  0  0  0
   13.2583   -0.6300    0.0000 H   0  0  0  0  0  0  0  0  0  0  0  0
    8.3913    4.5600    0.0000 H   0  0  0  0  0  0  0  0  0  0  0  0
   13.5874   -3.0600    0.0000 H   0  0  0  0  0  0  0  0  0  0  0  0
   14.9904   -0.6300    0.0000 H   0  0  0  0  0  0  0  0  0  0  0  0
   10.6603    3.6300    0.0000 H   0  0  0  0  0  0  0  0  0  0  0  0
    9.2573    6.0600    0.0000 H   0  0  0  0  0  0  0  0  0  0  0  0
    6.8671   -5.9400    0.0000 H   0  0  0  0  0  0  0  0  0  0  0  0
    4.0611   -7.5600    0.0000 H   0  0  0  0  0  0  0  0  0  0  0  0
    2.3100   -5.2131    0.0000 H   0  0  0  0  0  0  0  0  0  0  0  0
    1.4631   -5.4400    0.0000 H   0  0  0  0  0  0  0  0  0  0  0  0
    1.6900   -6.2869    0.0000 H   0  0  0  0  0  0  0  0  0  0  0  0
   17.2594   -2.9400    0.0000 H   0  0  0  0  0  0  0  0  0  0  0  0
   10.1233    7.5600    0.0000 H   0  0  0  0  0  0  0  0  0  0  0  0
   17.3424   -0.2500    0.0000 H   0  0  0  0  0  0  0  0  0  0  0  0
   16.7224    0.3700    0.0000 H   0  0  0  0  0  0  0  0  0  0  0  0
   16.1024   -0.2500    0.0000 H   0  0  0  0  0  0  0  0  0  0  0  0
   13.8144   -4.2131    0.0000 H   0  0  0  0  0  0  0  0  0  0  0  0
   13.5874   -5.0600    0.0000 H   0  0  0  0  0  0  0  0  0  0  0  0
   14.4344   -5.2869    0.0000 H   0  0  0  0  0  0  0  0  0  0  0  0
   12.3923    6.8700    0.0000 H   0  0  0  0  0  0  0  0  0  0  0  0
   13.5683    4.2131    0.0000 H   0  0  0  0  0  0  0  0  0  0  0  0
   13.7953    5.0600    0.0000 H   0  0  0  0  0  0  0  0  0  0  0  0
   12.9483    5.2869    0.0000 H   0  0  0  0  0  0  0  0  0  0  0  0
  1 23  2  0  0  0  0
  2 25  2  0  0  0  0
  3 27  2  0  0  0  0
  4 34  1  0  0  0  0
  4 50  1  0  0  0  0
  5 36  1  0  0  0  0
  5 82  1  0  0  0  0
  6 38  1  0  0  0  0
  6 83  1  0  0  0  0
  7 44  1  0  0  0  0
  7 51  1  0  0  0  0
  8 45  1  0  0  0  0
  8 52  1  0  0  0  0
  9 47  1  0  0  0  0
  9 53  1  0  0  0  0
 10 46  1  0  0  0  0
 10 87  1  0  0  0  0
 11 48  1  0  0  0  0
 11 88  1  0  0  0  0
 12 49  1  0  0  0  0
 12 95  1  0  0  0  0
 13 16  1  0  0  0  0
 13 18  1  0  0  0  0
 13 23  1  0  0  0  0
 14 21  1  0  0  0  0
 14 25  1  0  0  0  0
 14 68  1  0  0  0  0
 15 22  1  0  0  0  0
 15 27  1  0  0  0  0
 15 69  1  0  0  0  0
 16 17  1  0  0  0  0
 16 54  1  0  0  0  0
 16 55  1  0  0  0  0
 17 19  1  0  0  0  0
 17 56  1  0  0  0  0
 17 57  1  0  0  0  0
 18 20  1  0  0  0  0
 18 58  1  0  0  0  0
 18 59  1  0  0  0  0
 19 21  1  0  0  0  0
 19 60  1  0  0  0  0
 19 61  1  0  0  0  0
 20 22  1  0  0  0  0
 20 62  1  0  0  0  0
 20 63  1  0  0  0  0
 21 64  1  0  0  0  0
 21 65  1  0  0  0  0
 22 66  1  0  0  0  0
 22 67  1  0  0  0  0
 23 24  1  0  0  0  0
 24 26  2  0  0  0  0
 24 70  1  0  0  0  0
 25 29  1  0  0  0  0
 26 28  1  0  0  0  0
 26 71  1  0  0  0  0
 27 30  1  0  0  0  0
 28 31  1  0  0  0  0
 28 32  2  0  0  0  0
 29 33  2  0  0  0  0
 29 72  1  0  0  0  0
 30 35  2  0  0  0  0
 30 73  1  0  0  0  0
 31 34  2  0  0  0  0
 31 74  1  0  0  0  0
 32 36  1  0  0  0  0
 32 75  1  0  0  0  0
 33 37  1  0  0  0  0
 33 76  1  0  0  0  0
 34 38  1  0  0  0  0
 35 39  1  0  0  0  0
 35 77  1  0  0  0  0
 36 38  2  0  0  0  0
 37 40  2  0  0  0  0
 37 41  1  0  0  0  0
 39 42  1  0  0  0  0
 39 43  2  0  0  0  0
 40 45  1  0  0  0  0
 40 78  1  0  0  0  0
 41 44  2  0  0  0  0
 41 79  1  0  0  0  0
 42 47  2  0  0  0  0
 42 80  1  0  0  0  0
 43 48  1  0  0  0  0
 43 81  1  0  0  0  0
 44 46  1  0  0  0  0
 45 46  2  0  0  0  0
 47 49  1  0  0  0  0
 48 49  2  0  0  0  0
 50 84  1  0  0  0  0
 50 85  1  0  0  0  0
 50 86  1  0  0  0  0
 51 89  1  0  0  0  0
 51 90  1  0  0  0  0
 51 91  1  0  0  0  0
 52 92  1  0  0  0  0
 52 93  1  0  0  0  0
 52 94  1  0  0  0  0
 53 96  1  0  0  0  0
 53 97  1  0  0  0  0
 53 98  1  0  0  0  0
M  END
> <PUBCHEM_COMPOUND_CID>
46174046

> <PUBCHEM_COMPOUND_CANONICALIZED>
1

> <PUBCHEM_CACTVS_COMPLEXITY>
1200

> <PUBCHEM_CACTVS_HBOND_ACCEPTOR>
12

> <PUBCHEM_CACTVS_HBOND_DONOR>
7

> <PUBCHEM_CACTVS_ROTATABLE_BOND>
19

> <PUBCHEM_CACTVS_SUBSKEYS>
AAADcfB/PAAAAAAAAAAAAAAAAAAAAAAAAAAwYMAAAAAAAAABUAAAHgAQCAAADATBmAYyBoPABgCIAiFSEACCCAAgIAAIiIAOiMgNJyKG8RqEcCMl1hWLuYeA4BwOIAABCAAAQABAAAIQAACAAAAAAAAAAA==

> <PUBCHEM_IUPAC_OPENEYE_NAME>
(E)-3-(3,4-dihydroxy-5-methoxy-phenyl)-N-[3-[[(E)-3-(3,4-dihydroxy-5-methoxy-phenyl)prop-2-enoyl]-[4-[[(E)-3-(4-hydroxy-3,5-dimethoxy-phenyl)prop-2-enoyl]amino]butyl]amino]propyl]prop-2-enamide

> <PUBCHEM_IUPAC_CAS_NAME>
(E)-3-(3,4-dihydroxy-5-methoxyphenyl)-N-[3-[[(E)-3-(3,4-dihydroxy-5-methoxyphenyl)-1-oxoprop-2-enyl]-[4-[[(E)-3-(4-hydroxy-3,5-dimethoxyphenyl)-1-oxoprop-2-enyl]amino]butyl]amino]propyl]-2-propenamide

> <PUBCHEM_IUPAC_NAME>
(E)-3-(3,4-dihydroxy-5-methoxyphenyl)-N-[3-[[(E)-3-(3,4-dihydroxy-5-methoxyphenyl)prop-2-enoyl]-[4-[[(E)-3-(4-hydroxy-3,5-dimethoxyphenyl)prop-2-enoyl]amino]butyl]amino]propyl]prop-2-enamide

> <PUBCHEM_IUPAC_SYSTEMATIC_NAME>
(E)-N-[3-[4-[[(E)-3-(3,5-dimethoxy-4-oxidanyl-phenyl)prop-2-enoyl]amino]butyl-[(E)-3-[3-methoxy-4,5-bis(oxidanyl)phenyl]prop-2-enoyl]amino]propyl]-3-[3-methoxy-4,5-bis(oxidanyl)phenyl]prop-2-enamide

> <PUBCHEM_IUPAC_TRADITIONAL_NAME>
(E)-3-(3,4-dihydroxy-5-methoxy-phenyl)-N-[3-[[(E)-3-(3,4-dihydroxy-5-methoxy-phenyl)acryloyl]-[4-[[(E)-3-(4-hydroxy-3,5-dimethoxy-phenyl)acryloyl]amino]butyl]amino]propyl]acrylamide

> <PUBCHEM_IUPAC_INCHI>
InChI=1S/C38H45N3O12/c1-50-29-20-24(18-27(42)36(29)47)8-11-34(45)40-15-7-17-41(35(46)13-10-25-19-28(43)37(48)30(21-25)51-2)16-6-5-14-39-33(44)12-9-26-22-31(52-3)38(49)32(23-26)53-4/h8-13,18-23,42-43,47-49H,5-7,14-17H2,1-4H3,(H,39,44)(H,40,45)/b11-8+,12-9+,13-10+

> <PUBCHEM_IUPAC_INCHIKEY>
BIYOYDFZENIVGB-FOXWYSRTSA-N

> <PUBCHEM_XLOGP3_AA>
3.8

> <PUBCHEM_EXACT_MASS>
735.300324

> <PUBCHEM_MOLECULAR_FORMULA>
C38H45N3O12

> <PUBCHEM_MOLECULAR_WEIGHT>
735.7768

> <PUBCHEM_OPENEYE_CAN_SMILES>
COC1=CC(=CC(=C1O)O)C=CC(=O)NCCCN(CCCCNC(=O)C=CC2=CC(=C(C(=C2)OC)O)OC)C(=O)C=CC3=CC(=C(C(=C3)OC)O)O

> <PUBCHEM_OPENEYE_ISO_SMILES>
COC1=CC(=CC(=C1O)O)/C=C/C(=O)NCCCN(CCCCNC(=O)/C=C/C2=CC(=C(C(=C2)OC)O)OC)C(=O)/C=C/C3=CC(=C(C(=C3)OC)O)O

> <PUBCHEM_CACTVS_TPSA>
217

> <PUBCHEM_MONOISOTOPIC_WEIGHT>
735.300324

> <PUBCHEM_TOTAL_CHARGE>
0

> <PUBCHEM_HEAVY_ATOM_COUNT>
53

> <PUBCHEM_ATOM_DEF_STEREO_COUNT>
0

> <PUBCHEM_ATOM_UDEF_STEREO_COUNT>
0

> <PUBCHEM_BOND_DEF_STEREO_COUNT>
3

> <PUBCHEM_BOND_UDEF_STEREO_COUNT>
0

> <PUBCHEM_ISOTOPIC_ATOM_COUNT>
0

> <PUBCHEM_COMPONENT_COUNT>
1

> <PUBCHEM_CACTVS_TAUTO_COUNT>
998

> <PUBCHEM_COORDINATE_TYPE>
1
5
255

> <PUBCHEM_BONDANNOTATIONS>
28  31  8
28  32  8
31  34  8
32  36  8
34  38  8
36  38  8
37  40  8
37  41  8
39  42  8
39  43  8
40  45  8
41  44  8
42  47  8
43  48  8
44  46  8
45  46  8
47  49  8
48  49  8

$$$$

