17396243
  -OEChem-06241222553D

 43 45  0     1  0  0  0  0  0999 V2000
   -0.0665    0.8835   -1.5361 F   0  0  0  0  0  0  0  0  0  0  0  0
    0.3234   -1.9574   -0.9373 O   0  0  0  0  0  0  0  0  0  0  0  0
   -3.3721    0.5105   -1.5981 O   0  0  0  0  0  0  0  0  0  0  0  0
   -2.5508   -0.7832    0.1697 N   0  0  0  0  0  0  0  0  0  0  0  0
    1.4286   -1.1128    0.9607 N   0  0  0  0  0  0  0  0  0  0  0  0
   -0.7231   -2.1152    1.1902 C   0  0  2  0  0  0  0  0  0  0  0  0
   -1.4183   -3.3895    0.6999 C   0  0  0  0  0  0  0  0  0  0  0  0
   -1.6947   -0.9431    1.3541 C   0  0  0  0  0  0  0  0  0  0  0  0
   -2.3524   -3.1386   -0.4864 C   0  0  0  0  0  0  0  0  0  0  0  0
   -3.3012   -1.9788   -0.2092 C   0  0  0  0  0  0  0  0  0  0  0  0
    0.3937   -1.7252    0.2653 C   0  0  0  0  0  0  0  0  0  0  0  0
   -2.6719    0.3787   -0.5958 C   0  0  0  0  0  0  0  0  0  0  0  0
   -1.9010    1.5573   -0.1853 C   0  0  0  0  0  0  0  0  0  0  0  0
    2.6424   -0.6119    0.4331 C   0  0  0  0  0  0  0  0  0  0  0  0
   -0.6132    1.7602   -0.6815 C   0  0  0  0  0  0  0  0  0  0  0  0
   -2.4588    2.4764    0.7034 C   0  0  0  0  0  0  0  0  0  0  0  0
    3.5806   -0.0228    1.2807 C   0  0  0  0  0  0  0  0  0  0  0  0
    2.9004   -0.7063   -0.9344 C   0  0  0  0  0  0  0  0  0  0  0  0
    0.1167    2.8821   -0.2888 C   0  0  0  0  0  0  0  0  0  0  0  0
   -1.7289    3.5983    1.0960 C   0  0  0  0  0  0  0  0  0  0  0  0
   -0.4412    3.8011    0.5999 C   0  0  0  0  0  0  0  0  0  0  0  0
    4.7768    0.4716    0.7608 C   0  0  0  0  0  0  0  0  0  0  0  0
    4.0966   -0.2119   -1.4542 C   0  0  0  0  0  0  0  0  0  0  0  0
    5.0349    0.3770   -0.6067 C   0  0  0  0  0  0  0  0  0  0  0  0
   -0.2895   -2.3441    2.1730 H   0  0  0  0  0  0  0  0  0  0  0  0
   -0.6822   -4.1563    0.4295 H   0  0  0  0  0  0  0  0  0  0  0  0
   -2.0125   -3.8021    1.5257 H   0  0  0  0  0  0  0  0  0  0  0  0
   -2.3676   -1.1383    2.1984 H   0  0  0  0  0  0  0  0  0  0  0  0
   -1.1540   -0.0234    1.5884 H   0  0  0  0  0  0  0  0  0  0  0  0
   -1.7833   -2.9395   -1.3996 H   0  0  0  0  0  0  0  0  0  0  0  0
   -2.9359   -4.0457   -0.6828 H   0  0  0  0  0  0  0  0  0  0  0  0
   -3.9766   -2.2218    0.6195 H   0  0  0  0  0  0  0  0  0  0  0  0
   -3.9206   -1.7875   -1.0912 H   0  0  0  0  0  0  0  0  0  0  0  0
    1.3204   -0.9929    1.9654 H   0  0  0  0  0  0  0  0  0  0  0  0
   -3.4612    2.3278    1.0966 H   0  0  0  0  0  0  0  0  0  0  0  0
    3.3918    0.0578    2.3481 H   0  0  0  0  0  0  0  0  0  0  0  0
    2.2225   -1.1466   -1.6520 H   0  0  0  0  0  0  0  0  0  0  0  0
    1.1199    3.0386   -0.6742 H   0  0  0  0  0  0  0  0  0  0  0  0
   -2.1630    4.3137    1.7884 H   0  0  0  0  0  0  0  0  0  0  0  0
    0.1275    4.6742    0.9062 H   0  0  0  0  0  0  0  0  0  0  0  0
    5.5072    0.9305    1.4207 H   0  0  0  0  0  0  0  0  0  0  0  0
    4.2984   -0.2843   -2.5191 H   0  0  0  0  0  0  0  0  0  0  0  0
    5.9662    0.7622   -1.0115 H   0  0  0  0  0  0  0  0  0  0  0  0
  1 15  1  0  0  0  0
  2 11  2  0  0  0  0
  3 12  2  0  0  0  0
  4  8  1  0  0  0  0
  4 10  1  0  0  0  0
  4 12  1  0  0  0  0
  5 11  1  0  0  0  0
  5 14  1  0  0  0  0
  5 34  1  0  0  0  0
  6  7  1  0  0  0  0
  6  8  1  0  0  0  0
  6 11  1  0  0  0  0
  6 25  1  0  0  0  0
  7  9  1  0  0  0  0
  7 26  1  0  0  0  0
  7 27  1  0  0  0  0
  8 28  1  0  0  0  0
  8 29  1  0  0  0  0
  9 10  1  0  0  0  0
  9 30  1  0  0  0  0
  9 31  1  0  0  0  0
 10 32  1  0  0  0  0
 10 33  1  0  0  0  0
 12 13  1  0  0  0  0
 13 15  1  0  0  0  0
 13 16  2  0  0  0  0
 14 17  2  0  0  0  0
 14 18  1  0  0  0  0
 15 19  2  0  0  0  0
 16 20  1  0  0  0  0
 16 35  1  0  0  0  0
 17 22  1  0  0  0  0
 17 36  1  0  0  0  0
 18 23  2  0  0  0  0
 18 37  1  0  0  0  0
 19 21  1  0  0  0  0
 19 38  1  0  0  0  0
 20 21  2  0  0  0  0
 20 39  1  0  0  0  0
 21 40  1  0  0  0  0
 22 24  2  0  0  0  0
 22 41  1  0  0  0  0
 23 24  1  0  0  0  0
 23 42  1  0  0  0  0
 24 43  1  0  0  0  0
M  END
> <PUBCHEM_COMPOUND_CID>
17396243

> <PUBCHEM_CONFORMER_RMSD>
0.8

> <PUBCHEM_CONFORMER_DIVERSEORDER>
1
123
10
55
70
66
127
136
71
83
102
44
69
25
94
51
27
92
89
91
114
119
133
139
45
134
22
109
107
39
64
126
75
13
82
28
80
122
57
113
132
90
99
34
61
110
73
104
74
98
87
111
40
100
31
30
86
85
88
37
103
138
108
96
11
60
2
72
95
105
68
140
125
76
97
49
117
20
29
65
63
48
7
6
32
116
112
93
38
79
42
131
78
81
21
4
8
120
141
124
47
121
43
128
5
19
101
17
50
118
115
62
129
59
24
9
137
84
58
16
130
41
106
23
3
54
36
135
33
12
52
15
77
35
14
18
26
46
67
56
53

> <PUBCHEM_MMFF94_PARTIAL_CHARGES>
32
1 -0.19
10 0.3
11 0.57
12 0.54
13 0.09
14 0.12
15 0.19
16 -0.15
17 -0.15
18 -0.15
19 -0.15
2 -0.57
20 -0.15
21 -0.15
22 -0.15
23 -0.15
24 -0.15
3 -0.57
34 0.37
35 0.15
36 0.15
37 0.15
38 0.15
39 0.15
4 -0.66
40 0.15
41 0.15
42 0.15
43 0.15
5 -0.55
6 0.06
8 0.3

> <PUBCHEM_EFFECTIVE_ROTOR_COUNT>
6.2

> <PUBCHEM_PHARMACOPHORE_FEATURES>
6
1 2 acceptor
1 3 acceptor
1 5 donor
6 13 15 16 19 20 21 rings
6 14 17 18 22 23 24 rings
6 4 6 7 8 9 10 rings

> <PUBCHEM_HEAVY_ATOM_COUNT>
24

> <PUBCHEM_ATOM_DEF_STEREO_COUNT>
0

> <PUBCHEM_ATOM_UDEF_STEREO_COUNT>
1

> <PUBCHEM_BOND_DEF_STEREO_COUNT>
0

> <PUBCHEM_BOND_UDEF_STEREO_COUNT>
0

> <PUBCHEM_ISOTOPIC_ATOM_COUNT>
0

> <PUBCHEM_COMPONENT_COUNT>
1

> <PUBCHEM_CACTVS_TAUTO_COUNT>
2

> <PUBCHEM_CONFORMER_ID>
0109721300000001

> <PUBCHEM_MMFF94_ENERGY>
64.8234

> <PUBCHEM_FEATURE_SELFOVERLAP>
30.446

> <PUBCHEM_SHAPE_FINGERPRINT>
10006869 2 18196087966414640859
10366900 7 18187374237663633164
10498660 4 18411705378674971214
10673678 19 17409954826314030725
10937287 8 17905044003604044201
1100329 8 18339921520183186281
11640471 11 17703793673243370266
12173636 292 18121220036992045197
12553582 1 18339068285963763787
12788726 201 18341890766803917730
128993 33 17545876487365765776
13027679 85 18340205181282361285
13140716 1 18053372211310862603
13149001 5 18052847787356199415
14081887 123 18410300202941287240
14363568 33 17259321290457100744
14790565 3 18266176330516288761
14955137 171 18195222470048121427
151778 21 17327727908700811600
15961568 22 18048883988178452456
16728300 4 15964041552835837352
17357779 13 18189061910343986414
17492 54 18129118826063490607
17818456 19 18197518405109238410
20465049 17 17035829574569419933
20510252 161 18413107277137761530
20715895 44 17198573676749409637
20775438 99 16822800850267164527
20905425 154 17765142874224355006
23419403 2 17622762754130762655
23557571 272 18409445848136671390
23558518 356 17760658361764015695
238 59 16832930105548120725
3178227 256 18342165675714662217
392239 28 18339365137498751936
394222 165 17056140746001409505
469060 322 17416946418426682521
5048184 11 18051970617511577928
5312544 6 17473549526286408453
6034566 193 17986938838066007685
6287921 2 17617651498609854585
81228 2 18343576339672667562

> <PUBCHEM_SHAPE_MULTIPOLES>
464.93
7.24
4.46
1.37
10.25
2.11
-0.09
-0.76
-0.94
-4.64
1.05
0.26
-0.02
-0.12

> <PUBCHEM_SHAPE_SELFOVERLAP>
1000.792

> <PUBCHEM_SHAPE_VOLUME>
254.1

> <PUBCHEM_COORDINATE_TYPE>
2
5
10

$$$$

