9202
  -OEChem-06261203303D

 28 31  0     0  0  0  0  0  0999 V2000
   -1.3885   -1.7166    0.0013 N   0  0  0  0  0  0  0  0  0  0  0  0
   -0.4358    0.2975    0.0010 C   0  0  0  0  0  0  0  0  0  0  0  0
   -0.1749   -1.0699    0.0009 C   0  0  0  0  0  0  0  0  0  0  0  0
   -1.8574    0.4624    0.0004 C   0  0  0  0  0  0  0  0  0  0  0  0
   -2.4238   -0.8122    0.0008 C   0  0  0  0  0  0  0  0  0  0  0  0
    0.6557    1.1912    0.0010 C   0  0  0  0  0  0  0  0  0  0  0  0
    1.9744    0.6978    0.0006 C   0  0  0  0  0  0  0  0  0  0  0  0
    2.2056   -0.6972   -0.0005 C   0  0  0  0  0  0  0  0  0  0  0  0
    1.1232   -1.5938    0.0000 C   0  0  0  0  0  0  0  0  0  0  0  0
   -2.7157    1.5820   -0.0010 C   0  0  0  0  0  0  0  0  0  0  0  0
   -3.8068   -1.0263    0.0001 C   0  0  0  0  0  0  0  0  0  0  0  0
    3.0713    1.5746    0.0014 C   0  0  0  0  0  0  0  0  0  0  0  0
    3.5271   -1.1715   -0.0018 C   0  0  0  0  0  0  0  0  0  0  0  0
   -4.1010    1.3841   -0.0015 C   0  0  0  0  0  0  0  0  0  0  0  0
   -4.6363    0.0982   -0.0011 C   0  0  0  0  0  0  0  0  0  0  0  0
    4.3776    1.0857    0.0003 C   0  0  0  0  0  0  0  0  0  0  0  0
    4.6052   -0.2861   -0.0018 C   0  0  0  0  0  0  0  0  0  0  0  0
   -1.5035   -2.7207    0.0014 H   0  0  0  0  0  0  0  0  0  0  0  0
    0.4690    2.2630    0.0012 H   0  0  0  0  0  0  0  0  0  0  0  0
    1.2802   -2.6692   -0.0004 H   0  0  0  0  0  0  0  0  0  0  0  0
   -2.3133    2.5911   -0.0014 H   0  0  0  0  0  0  0  0  0  0  0  0
   -4.2245   -2.0276    0.0002 H   0  0  0  0  0  0  0  0  0  0  0  0
    2.9173    2.6519    0.0026 H   0  0  0  0  0  0  0  0  0  0  0  0
    3.7305   -2.2406   -0.0029 H   0  0  0  0  0  0  0  0  0  0  0  0
   -4.7651    2.2443   -0.0024 H   0  0  0  0  0  0  0  0  0  0  0  0
   -5.7153   -0.0339   -0.0017 H   0  0  0  0  0  0  0  0  0  0  0  0
    5.2157    1.7764    0.0007 H   0  0  0  0  0  0  0  0  0  0  0  0
    5.6217   -0.6688   -0.0028 H   0  0  0  0  0  0  0  0  0  0  0  0
  1  3  1  0  0  0  0
  1  5  1  0  0  0  0
  1 18  1  0  0  0  0
  2  3  1  0  0  0  0
  2  4  1  0  0  0  0
  2  6  2  0  0  0  0
  3  9  2  0  0  0  0
  4  5  1  0  0  0  0
  4 10  2  0  0  0  0
  5 11  2  0  0  0  0
  6  7  1  0  0  0  0
  6 19  1  0  0  0  0
  7  8  1  0  0  0  0
  7 12  2  0  0  0  0
  8  9  1  0  0  0  0
  8 13  2  0  0  0  0
  9 20  1  0  0  0  0
 10 14  1  0  0  0  0
 10 21  1  0  0  0  0
 11 15  1  0  0  0  0
 11 22  1  0  0  0  0
 12 16  1  0  0  0  0
 12 23  1  0  0  0  0
 13 17  1  0  0  0  0
 13 24  1  0  0  0  0
 14 15  2  0  0  0  0
 14 25  1  0  0  0  0
 15 26  1  0  0  0  0
 16 17  2  0  0  0  0
 16 27  1  0  0  0  0
 17 28  1  0  0  0  0
M  END
> <PUBCHEM_COMPOUND_CID>
9202

> <PUBCHEM_CONFORMER_RMSD>
0.4

> <PUBCHEM_CONFORMER_DIVERSEORDER>
1

> <PUBCHEM_MMFF94_PARTIAL_CHARGES>
24
1 0.03
10 -0.15
11 -0.15
12 -0.15
13 -0.15
14 -0.15
15 -0.15
16 -0.15
17 -0.15
18 0.27
19 0.15
20 0.15
21 0.15
22 0.15
23 0.15
24 0.15
25 0.15
26 0.15
27 0.15
28 0.15
3 -0.15
5 -0.15
6 -0.15
9 -0.15

> <PUBCHEM_EFFECTIVE_ROTOR_COUNT>
0

> <PUBCHEM_PHARMACOPHORE_FEATURES>
6
1 1 cation
1 1 donor
5 1 2 3 4 5 rings
6 2 3 6 7 8 9 rings
6 4 5 10 11 14 15 rings
6 7 8 12 13 16 17 rings

> <PUBCHEM_HEAVY_ATOM_COUNT>
17

> <PUBCHEM_ATOM_DEF_STEREO_COUNT>
0

> <PUBCHEM_ATOM_UDEF_STEREO_COUNT>
0

> <PUBCHEM_BOND_DEF_STEREO_COUNT>
0

> <PUBCHEM_BOND_UDEF_STEREO_COUNT>
0

> <PUBCHEM_ISOTOPIC_ATOM_COUNT>
0

> <PUBCHEM_COMPONENT_COUNT>
1

> <PUBCHEM_CACTVS_TAUTO_COUNT>
1

> <PUBCHEM_CONFORMER_ID>
000023F200000001

> <PUBCHEM_MMFF94_ENERGY>
43.6919

> <PUBCHEM_FEATURE_SELFOVERLAP>
30.651

> <PUBCHEM_SHAPE_FINGERPRINT>
10062212 137 18335993020586673439
10411042 1 16609415287976028546
10608611 8 18410577279396927760
10616163 171 18336826390260734999
10646746 165 18410292527528864964
10967382 1 18410855503172786784
11132069 177 18411141337483417136
11471102 20 18410013247485975998
12107183 9 17762902473216950440
12403259 415 18410299111571792049
13380535 76 18410572889987908463
13675066 3 18412823560235387242
15196674 1 18410575088963327460
15375358 24 18408321086021583334
15442244 35 18194120948026971154
15536298 74 18335420179586975758
16945 1 18194682570661411527
17802600 8 18410578383266774369
18186145 218 18202286926434112758
18522853 276 18407760339254412193
200 152 17967819340581510863
20510252 161 18333729139325280121
20645477 70 18261391195407671126
21267235 1 18410846668335706434
21452121 103 18260841354395855984
22854114 59 18412544314288719824
23402539 116 18260555523857985837
23402655 69 18334015007699996045
23463225 33 18413389843368279740
23559900 14 18261956353491103958
3004659 81 18271236227883270606
335352 9 18266741457848479870
3545911 37 18410290315446491221
4214541 1 18410855477466533377
474 4 17417244308953326428
495365 180 17458356204193494280
4990 188 18040989657429519572
5104073 3 18411418414392388627
69090 78 18334860502193126647
7364860 26 18264488562823921726
77779 3 18411135835593257664
9709674 26 18409442579165711134
9981440 41 17262717677533510344

> <PUBCHEM_SHAPE_MULTIPOLES>
344.87
9.2
1.8
0.61
0.04
0.01
0
1.55
0.01
0.01
0
-0.01
0.01
0

> <PUBCHEM_SHAPE_SELFOVERLAP>
797.769

> <PUBCHEM_SHAPE_VOLUME>
178.5

> <PUBCHEM_COORDINATE_TYPE>
2
5
10

$$$$

