17734
  -OEChem-07051213132D

 35 35  0     0  0  0  0  0  0999 V2000
    7.1962   -2.8450    0.0000 O   0  0  0  0  0  0  0  0  0  0  0  0
    8.9282    0.1550    0.0000 O   0  0  0  0  0  0  0  0  0  0  0  0
    5.4641    3.1550    0.0000 O   0  5  0  0  0  0  0  0  0  0  0  0
    3.7320    3.1550    0.0000 O   0  0  0  0  0  0  0  0  0  0  0  0
    6.3301   -0.3450    0.0000 N   0  0  0  0  0  0  0  0  0  0  0  0
    2.8660    1.6550    0.0000 N   0  0  0  0  0  0  0  0  0  0  0  0
    4.5981    2.6550    0.0000 N   0  3  0  0  0  0  0  0  0  0  0  0
    5.4641    0.1550    0.0000 C   0  0  0  0  0  0  0  0  0  0  0  0
    6.3301   -1.3450    0.0000 C   0  0  0  0  0  0  0  0  0  0  0  0
    7.1962    0.1550    0.0000 C   0  0  0  0  0  0  0  0  0  0  0  0
    5.4641    1.1550    0.0000 C   0  0  0  0  0  0  0  0  0  0  0  0
    4.5981   -0.3450    0.0000 C   0  0  0  0  0  0  0  0  0  0  0  0
    8.0622   -0.3450    0.0000 C   0  0  0  0  0  0  0  0  0  0  0  0
    7.1962   -1.8450    0.0000 C   0  0  0  0  0  0  0  0  0  0  0  0
    4.5981    1.6550    0.0000 C   0  0  0  0  0  0  0  0  0  0  0  0
    3.7320    1.1550    0.0000 C   0  0  0  0  0  0  0  0  0  0  0  0
    3.7320    0.1550    0.0000 C   0  0  0  0  0  0  0  0  0  0  0  0
    2.0000    1.1550    0.0000 C   0  0  0  0  0  0  0  0  0  0  0  0
    7.5947    0.6299    0.0000 H   0  0  0  0  0  0  0  0  0  0  0  0
    6.7976    0.6299    0.0000 H   0  0  0  0  0  0  0  0  0  0  0  0
    5.7196   -1.2373    0.0000 H   0  0  0  0  0  0  0  0  0  0  0  0
    6.1181   -1.9276    0.0000 H   0  0  0  0  0  0  0  0  0  0  0  0
    6.0010    1.4650    0.0000 H   0  0  0  0  0  0  0  0  0  0  0  0
    4.5981   -0.9650    0.0000 H   0  0  0  0  0  0  0  0  0  0  0  0
    7.8067   -1.9527    0.0000 H   0  0  0  0  0  0  0  0  0  0  0  0
    7.4082   -1.2624    0.0000 H   0  0  0  0  0  0  0  0  0  0  0  0
    7.6636   -0.8199    0.0000 H   0  0  0  0  0  0  0  0  0  0  0  0
    8.4607   -0.8199    0.0000 H   0  0  0  0  0  0  0  0  0  0  0  0
    3.1951   -0.1550    0.0000 H   0  0  0  0  0  0  0  0  0  0  0  0
    2.8660    2.2750    0.0000 H   0  0  0  0  0  0  0  0  0  0  0  0
    7.7331   -3.1550    0.0000 H   0  0  0  0  0  0  0  0  0  0  0  0
    9.4651   -0.1550    0.0000 H   0  0  0  0  0  0  0  0  0  0  0  0
    1.6900    1.6919    0.0000 H   0  0  0  0  0  0  0  0  0  0  0  0
    1.4631    0.8450    0.0000 H   0  0  0  0  0  0  0  0  0  0  0  0
    2.3100    0.6181    0.0000 H   0  0  0  0  0  0  0  0  0  0  0  0
  1 14  1  0  0  0  0
  1 31  1  0  0  0  0
  2 13  1  0  0  0  0
  2 32  1  0  0  0  0
  3  7  1  0  0  0  0
  4  7  2  0  0  0  0
  5  8  1  0  0  0  0
  5  9  1  0  0  0  0
  5 10  1  0  0  0  0
  6 16  1  0  0  0  0
  6 18  1  0  0  0  0
  6 30  1  0  0  0  0
  7 15  1  0  0  0  0
  8 11  2  0  0  0  0
  8 12  1  0  0  0  0
  9 14  1  0  0  0  0
  9 21  1  0  0  0  0
  9 22  1  0  0  0  0
 10 13  1  0  0  0  0
 10 19  1  0  0  0  0
 10 20  1  0  0  0  0
 11 15  1  0  0  0  0
 11 23  1  0  0  0  0
 12 17  2  0  0  0  0
 12 24  1  0  0  0  0
 13 27  1  0  0  0  0
 13 28  1  0  0  0  0
 14 25  1  0  0  0  0
 14 26  1  0  0  0  0
 15 16  2  0  0  0  0
 16 17  1  0  0  0  0
 17 29  1  0  0  0  0
 18 33  1  0  0  0  0
 18 34  1  0  0  0  0
 18 35  1  0  0  0  0
M  CHG  2   3  -1   7   1
M  END
> <PUBCHEM_COMPOUND_CID>
17734

> <PUBCHEM_COMPOUND_CANONICALIZED>
1

> <PUBCHEM_CACTVS_COMPLEXITY>
253

> <PUBCHEM_CACTVS_HBOND_ACCEPTOR>
6

> <PUBCHEM_CACTVS_HBOND_DONOR>
3

> <PUBCHEM_CACTVS_ROTATABLE_BOND>
6

> <PUBCHEM_CACTVS_SUBSKEYS>
AAADceBzOAAAAAAAAAAAAAAAAAAAAAAAAAAwAAAAAAAAAAABAAAAHgAUCAAACAjhkAYywIPQQgCBACRCQwCCAAAhAgAoiIAIdIoKcCLA0dGUIAhgkIDYyAcQAAAAAACAAAQAACAAAQAACAAAQAAAAAAAAA==

> <PUBCHEM_IUPAC_OPENEYE_NAME>
2-[N-(2-hydroxyethyl)-4-(methylamino)-3-nitro-anilino]ethanol

> <PUBCHEM_IUPAC_CAS_NAME>
2-[N-(2-hydroxyethyl)-4-(methylamino)-3-nitroanilino]ethanol

> <PUBCHEM_IUPAC_NAME>
2-[N-(2-hydroxyethyl)-4-(methylamino)-3-nitroanilino]ethanol

> <PUBCHEM_IUPAC_SYSTEMATIC_NAME>
2-[2-hydroxyethyl-[4-(methylamino)-3-nitro-phenyl]amino]ethanol

> <PUBCHEM_IUPAC_TRADITIONAL_NAME>
2-[N-(2-hydroxyethyl)-4-(methylamino)-3-nitro-anilino]ethanol

> <PUBCHEM_IUPAC_INCHI>
InChI=1S/C11H17N3O4/c1-12-10-3-2-9(8-11(10)14(17)18)13(4-6-15)5-7-16/h2-3,8,12,15-16H,4-7H2,1H3

> <PUBCHEM_IUPAC_INCHIKEY>
MWJSMPQOVHQYTE-UHFFFAOYSA-N

> <PUBCHEM_XLOGP3_AA>
1

> <PUBCHEM_EXACT_MASS>
255.121906

> <PUBCHEM_MOLECULAR_FORMULA>
C11H17N3O4

> <PUBCHEM_MOLECULAR_WEIGHT>
255.27038

> <PUBCHEM_OPENEYE_CAN_SMILES>
CNC1=C(C=C(C=C1)N(CCO)CCO)[N+](=O)[O-]

> <PUBCHEM_OPENEYE_ISO_SMILES>
CNC1=C(C=C(C=C1)N(CCO)CCO)[N+](=O)[O-]

> <PUBCHEM_CACTVS_TPSA>
102

> <PUBCHEM_MONOISOTOPIC_WEIGHT>
255.121906

> <PUBCHEM_TOTAL_CHARGE>
0

> <PUBCHEM_HEAVY_ATOM_COUNT>
18

> <PUBCHEM_ATOM_DEF_STEREO_COUNT>
0

> <PUBCHEM_ATOM_UDEF_STEREO_COUNT>
0

> <PUBCHEM_BOND_DEF_STEREO_COUNT>
0

> <PUBCHEM_BOND_UDEF_STEREO_COUNT>
0

> <PUBCHEM_ISOTOPIC_ATOM_COUNT>
0

> <PUBCHEM_COMPONENT_COUNT>
1

> <PUBCHEM_CACTVS_TAUTO_COUNT>
1

> <PUBCHEM_COORDINATE_TYPE>
1
5
255

> <PUBCHEM_BONDANNOTATIONS>
11  15  8
12  17  8
15  16  8
16  17  8
8  11  8
8  12  8

$$$$

