4582
  -OEChem-06261200132D

 71 71  0     1  0  0  0  0  0999 V2000
    8.0622    4.0600    0.0000 S   0  0  0  0  0  0  0  0  0  0  0  0
    9.7942    1.0600    0.0000 S   0  0  0  0  0  0  0  0  0  0  0  0
    9.7942    0.0600    0.0000 S   0  0  0  0  0  0  0  0  0  0  0  0
    2.8660    3.0600    0.0000 O   0  0  0  0  0  0  0  0  0  0  0  0
    3.7320    1.5600    0.0000 O   0  0  0  0  0  0  0  0  0  0  0  0
    6.3301    4.0600    0.0000 O   0  0  0  0  0  0  0  0  0  0  0  0
   12.3923    1.5600    0.0000 O   0  0  0  0  0  0  0  0  0  0  0  0
   12.3923   -0.4400    0.0000 O   0  0  0  0  0  0  0  0  0  0  0  0
   11.5263   -1.9400    0.0000 N   0  0  0  0  0  0  0  0  0  0  0  0
   13.2583   -4.9400    0.0000 N   0  0  0  0  0  0  0  0  0  0  0  0
   14.1244   -3.4400    0.0000 N   0  0  0  0  0  0  0  0  0  0  0  0
   11.5263   -4.9400    0.0000 N   0  0  0  0  0  0  0  0  0  0  0  0
    8.0622    3.0600    0.0000 C   0  0  3  0  0  0  0  0  0  0  0  0
    7.1962    2.5600    0.0000 C   0  0  0  0  0  0  0  0  0  0  0  0
    6.3301    3.0600    0.0000 C   0  0  0  0  0  0  0  0  0  0  0  0
    8.9282    2.5600    0.0000 C   0  0  0  0  0  0  0  0  0  0  0  0
    5.4641    2.5600    0.0000 C   0  0  0  0  0  0  0  0  0  0  0  0
    8.9282    1.5600    0.0000 C   0  0  0  0  0  0  0  0  0  0  0  0
    4.5981    3.0600    0.0000 C   0  0  0  0  0  0  0  0  0  0  0  0
    3.7320    2.5600    0.0000 C   0  0  0  0  0  0  0  0  0  0  0  0
    7.1962    4.5600    0.0000 C   0  0  0  0  0  0  0  0  0  0  0  0
   10.6603   -0.4400    0.0000 C   0  0  0  0  0  0  0  0  0  0  0  0
   10.6603   -1.4400    0.0000 C   0  0  0  0  0  0  0  0  0  0  0  0
   11.5263    0.0600    0.0000 C   0  0  0  0  0  0  0  0  0  0  0  0
   11.5263   -2.9400    0.0000 C   0  0  0  0  0  0  0  0  0  0  0  0
    7.1962    5.5600    0.0000 C   0  0  0  0  0  0  0  0  0  0  0  0
    9.7942   -1.9400    0.0000 C   0  0  0  0  0  0  0  0  0  0  0  0
   12.3923   -3.4400    0.0000 C   0  0  0  0  0  0  0  0  0  0  0  0
   11.5263    1.0600    0.0000 C   0  0  0  0  0  0  0  0  0  0  0  0
   12.3923   -1.4400    0.0000 C   0  0  0  0  0  0  0  0  0  0  0  0
   12.3923   -4.4400    0.0000 C   0  0  0  0  0  0  0  0  0  0  0  0
   13.2583   -2.9400    0.0000 C   0  0  0  0  0  0  0  0  0  0  0  0
    2.0000    2.5600    0.0000 C   0  0  0  0  0  0  0  0  0  0  0  0
   14.1244   -4.4400    0.0000 C   0  0  0  0  0  0  0  0  0  0  0  0
   14.9904   -4.9400    0.0000 C   0  0  0  0  0  0  0  0  0  0  0  0
    7.3261    3.4850    0.0000 H   0  0  0  0  0  0  0  0  0  0  0  0
    6.7976    2.0850    0.0000 H   0  0  0  0  0  0  0  0  0  0  0  0
    7.5947    2.0850    0.0000 H   0  0  0  0  0  0  0  0  0  0  0  0
    6.7287    3.5350    0.0000 H   0  0  0  0  0  0  0  0  0  0  0  0
    5.9316    3.5350    0.0000 H   0  0  0  0  0  0  0  0  0  0  0  0
    9.5388    2.4523    0.0000 H   0  0  0  0  0  0  0  0  0  0  0  0
    9.1403    3.1426    0.0000 H   0  0  0  0  0  0  0  0  0  0  0  0
    5.0656    2.0850    0.0000 H   0  0  0  0  0  0  0  0  0  0  0  0
    5.8626    2.0850    0.0000 H   0  0  0  0  0  0  0  0  0  0  0  0
    8.3176    1.6677    0.0000 H   0  0  0  0  0  0  0  0  0  0  0  0
    8.7162    0.9774    0.0000 H   0  0  0  0  0  0  0  0  0  0  0  0
    4.9966    3.5350    0.0000 H   0  0  0  0  0  0  0  0  0  0  0  0
    4.1996    3.5350    0.0000 H   0  0  0  0  0  0  0  0  0  0  0  0
   11.7383   -0.5226    0.0000 H   0  0  0  0  0  0  0  0  0  0  0  0
   12.1369    0.1677    0.0000 H   0  0  0  0  0  0  0  0  0  0  0  0
   10.9157   -2.8323    0.0000 H   0  0  0  0  0  0  0  0  0  0  0  0
   11.3142   -3.5226    0.0000 H   0  0  0  0  0  0  0  0  0  0  0  0
    7.8162    5.5600    0.0000 H   0  0  0  0  0  0  0  0  0  0  0  0
    7.1962    6.1800    0.0000 H   0  0  0  0  0  0  0  0  0  0  0  0
    6.5762    5.5600    0.0000 H   0  0  0  0  0  0  0  0  0  0  0  0
    9.4842   -1.4031    0.0000 H   0  0  0  0  0  0  0  0  0  0  0  0
    9.2573   -2.2500    0.0000 H   0  0  0  0  0  0  0  0  0  0  0  0
   10.1042   -2.4769    0.0000 H   0  0  0  0  0  0  0  0  0  0  0  0
   11.3142    1.6426    0.0000 H   0  0  0  0  0  0  0  0  0  0  0  0
   10.9157    0.9523    0.0000 H   0  0  0  0  0  0  0  0  0  0  0  0
   12.9292   -1.7500    0.0000 H   0  0  0  0  0  0  0  0  0  0  0  0
   13.2583   -2.3200    0.0000 H   0  0  0  0  0  0  0  0  0  0  0  0
    1.6900    3.0969    0.0000 H   0  0  0  0  0  0  0  0  0  0  0  0
    1.4631    2.2500    0.0000 H   0  0  0  0  0  0  0  0  0  0  0  0
    2.3100    2.0231    0.0000 H   0  0  0  0  0  0  0  0  0  0  0  0
   12.3923    2.1800    0.0000 H   0  0  0  0  0  0  0  0  0  0  0  0
   11.5263   -5.5600    0.0000 H   0  0  0  0  0  0  0  0  0  0  0  0
   10.9893   -4.6300    0.0000 H   0  0  0  0  0  0  0  0  0  0  0  0
   14.6804   -5.4769    0.0000 H   0  0  0  0  0  0  0  0  0  0  0  0
   15.5273   -5.2500    0.0000 H   0  0  0  0  0  0  0  0  0  0  0  0
   15.3004   -4.4031    0.0000 H   0  0  0  0  0  0  0  0  0  0  0  0
  1 13  1  0  0  0  0
  1 21  1  0  0  0  0
  2  3  1  0  0  0  0
  2 18  1  0  0  0  0
  3 22  1  0  0  0  0
  4 20  1  0  0  0  0
  4 33  1  0  0  0  0
  5 20  2  0  0  0  0
  6 21  2  0  0  0  0
  7 29  1  0  0  0  0
  7 66  1  0  0  0  0
  8 30  2  0  0  0  0
  9 23  1  0  0  0  0
  9 25  1  0  0  0  0
  9 30  1  0  0  0  0
 10 31  2  0  0  0  0
 10 34  1  0  0  0  0
 11 32  1  0  0  0  0
 11 34  2  0  0  0  0
 12 31  1  0  0  0  0
 12 67  1  0  0  0  0
 12 68  1  0  0  0  0
 13 14  1  0  0  0  0
 13 16  1  0  0  0  0
 13 36  1  0  0  0  0
 14 15  1  0  0  0  0
 14 37  1  0  0  0  0
 14 38  1  0  0  0  0
 15 17  1  0  0  0  0
 15 39  1  0  0  0  0
 15 40  1  0  0  0  0
 16 18  1  0  0  0  0
 16 41  1  0  0  0  0
 16 42  1  0  0  0  0
 17 19  1  0  0  0  0
 17 43  1  0  0  0  0
 17 44  1  0  0  0  0
 18 45  1  0  0  0  0
 18 46  1  0  0  0  0
 19 20  1  0  0  0  0
 19 47  1  0  0  0  0
 19 48  1  0  0  0  0
 21 26  1  0  0  0  0
 22 23  2  3  0  0  0
 22 24  1  0  0  0  0
 23 27  1  0  0  0  0
 24 29  1  0  0  0  0
 24 49  1  0  0  0  0
 24 50  1  0  0  0  0
 25 28  1  0  0  0  0
 25 51  1  0  0  0  0
 25 52  1  0  0  0  0
 26 53  1  0  0  0  0
 26 54  1  0  0  0  0
 26 55  1  0  0  0  0
 27 56  1  0  0  0  0
 27 57  1  0  0  0  0
 27 58  1  0  0  0  0
 28 31  1  0  0  0  0
 28 32  2  0  0  0  0
 29 59  1  0  0  0  0
 29 60  1  0  0  0  0
 30 61  1  0  0  0  0
 32 62  1  0  0  0  0
 33 63  1  0  0  0  0
 33 64  1  0  0  0  0
 33 65  1  0  0  0  0
 34 35  1  0  0  0  0
 35 69  1  0  0  0  0
 35 70  1  0  0  0  0
 35 71  1  0  0  0  0
M  END
> <PUBCHEM_COMPOUND_CID>
4582

> <PUBCHEM_COMPOUND_CANONICALIZED>
1

> <PUBCHEM_CACTVS_COMPLEXITY>
698

> <PUBCHEM_CACTVS_HBOND_ACCEPTOR>
11

> <PUBCHEM_CACTVS_HBOND_DONOR>
2

> <PUBCHEM_CACTVS_ROTATABLE_BOND>
18

> <PUBCHEM_CACTVS_SUBSKEYS>
AAADcfB7uABgAAAAAAAAAAAAAAAAAAAAAAAsAAAAAAAAAAABgAAAHgQQCAAADAjl2wavuJdIFgioAhb3/ACAgCkxALABWCE4RBiAGJJgSUAERAgMRgLoACOIyKCAAAAAAAAAAAAAAAAAAAAAAAAAAAAAAA==

> <PUBCHEM_IUPAC_OPENEYE_NAME>
methyl 6-acetylsulfanyl-8-[[2-[(4-amino-2-methyl-pyrimidin-5-yl)methyl-formyl-amino]-1-(2-hydroxyethyl)prop-1-enyl]disulfanyl]octanoate

> <PUBCHEM_IUPAC_CAS_NAME>
6-(acetylthio)-8-[[2-[(4-amino-2-methyl-5-pyrimidinyl)methyl-formylamino]-5-hydroxypent-2-en-3-yl]disulfanyl]octanoic acid methyl ester

> <PUBCHEM_IUPAC_NAME>
methyl 6-acetylsulfanyl-8-[[2-[(4-amino-2-methylpyrimidin-5-yl)methyl-formylamino]-5-hydroxypent-2-en-3-yl]disulfanyl]octanoate

> <PUBCHEM_IUPAC_SYSTEMATIC_NAME>
methyl 8-[[2-[(4-azanyl-2-methyl-pyrimidin-5-yl)methyl-methanoyl-amino]-5-oxidanyl-pent-2-en-3-yl]disulfanyl]-6-ethanoylsulfanyl-octanoate

> <PUBCHEM_IUPAC_TRADITIONAL_NAME>
6-(acetylthio)-8-[[2-[(4-amino-2-methyl-pyrimidin-5-yl)methyl-formyl-amino]-1-(2-hydroxyethyl)prop-1-enyl]disulfanyl]caprylic acid methyl ester

> <PUBCHEM_IUPAC_INCHI>
InChI=1S/C23H36N4O5S3/c1-16(27(15-29)14-19-13-25-17(2)26-23(19)24)21(9-11-28)35-33-12-10-20(34-18(3)30)7-5-6-8-22(31)32-4/h13,15,20,28H,5-12,14H2,1-4H3,(H2,24,25,26)

> <PUBCHEM_IUPAC_INCHIKEY>
VJTXQHYNRDGLON-UHFFFAOYSA-N

> <PUBCHEM_XLOGP3_AA>
2

> <PUBCHEM_EXACT_MASS>
544.184783

> <PUBCHEM_MOLECULAR_FORMULA>
C23H36N4O5S3

> <PUBCHEM_MOLECULAR_WEIGHT>
544.75074

> <PUBCHEM_OPENEYE_CAN_SMILES>
CC1=NC=C(C(=N1)N)CN(C=O)C(=C(CCO)SSCCC(CCCCC(=O)OC)SC(=O)C)C

> <PUBCHEM_OPENEYE_ISO_SMILES>
CC1=NC=C(C(=N1)N)CN(C=O)C(=C(CCO)SSCCC(CCCCC(=O)OC)SC(=O)C)C

> <PUBCHEM_CACTVS_TPSA>
212

> <PUBCHEM_MONOISOTOPIC_WEIGHT>
544.184783

> <PUBCHEM_TOTAL_CHARGE>
0

> <PUBCHEM_HEAVY_ATOM_COUNT>
35

> <PUBCHEM_ATOM_DEF_STEREO_COUNT>
0

> <PUBCHEM_ATOM_UDEF_STEREO_COUNT>
1

> <PUBCHEM_BOND_DEF_STEREO_COUNT>
0

> <PUBCHEM_BOND_UDEF_STEREO_COUNT>
1

> <PUBCHEM_ISOTOPIC_ATOM_COUNT>
0

> <PUBCHEM_COMPONENT_COUNT>
1

> <PUBCHEM_CACTVS_TAUTO_COUNT>
3

> <PUBCHEM_COORDINATE_TYPE>
1
5
255

> <PUBCHEM_BONDANNOTATIONS>
10  31  8
10  34  8
11  32  8
11  34  8
13  36  3
22  23  1
28  31  8
28  32  8

$$$$

