10544
  -OEChem-06261204403D

 21 20  0     0  0  0  0  0  0999 V2000
    0.0041   -0.0040   -0.0017 P   0  3  0  0  0  0  0  0  0  0  0  0
    1.7900   -1.7114   -0.6196 O   0  0  0  0  0  0  0  0  0  0  0  0
    1.7858    1.7275    0.6278 O   0  0  0  0  0  0  0  0  0  0  0  0
   -1.7922    0.6349   -1.6929 O   0  0  0  0  0  0  0  0  0  0  0  0
   -1.7865   -0.6248    1.7008 O   0  0  0  0  0  0  0  0  0  0  0  0
    0.9922   -1.3733    0.5014 C   0  0  0  0  0  0  0  0  0  0  0  0
    1.0230    1.3420   -0.5032 C   0  0  0  0  0  0  0  0  0  0  0  0
   -1.0073   -0.4966   -1.3594 C   0  0  0  0  0  0  0  0  0  0  0  0
   -1.0091    0.5058    1.3470 C   0  0  0  0  0  0  0  0  0  0  0  0
    1.6439   -1.1248    1.3428 H   0  0  0  0  0  0  0  0  0  0  0  0
    0.3787   -2.2375    0.7701 H   0  0  0  0  0  0  0  0  0  0  0  0
    0.4257    2.2016   -0.8181 H   0  0  0  0  0  0  0  0  0  0  0  0
    1.7016    1.0787   -1.3191 H   0  0  0  0  0  0  0  0  0  0  0  0
   -1.6699   -1.3248   -1.0946 H   0  0  0  0  0  0  0  0  0  0  0  0
   -0.4086   -0.7805   -2.2290 H   0  0  0  0  0  0  0  0  0  0  0  0
   -0.4110    0.8060    2.2115 H   0  0  0  0  0  0  0  0  0  0  0  0
   -1.6762    1.3266    1.0710 H   0  0  0  0  0  0  0  0  0  0  0  0
    2.3413   -2.4691   -0.3602 H   0  0  0  0  0  0  0  0  0  0  0  0
    2.4007    1.0019    0.8272 H   0  0  0  0  0  0  0  0  0  0  0  0
   -2.3567    0.3804   -2.4425 H   0  0  0  0  0  0  0  0  0  0  0  0
   -2.3515   -0.3612    2.4469 H   0  0  0  0  0  0  0  0  0  0  0  0
  1  6  1  0  0  0  0
  1  7  1  0  0  0  0
  1  8  1  0  0  0  0
  1  9  1  0  0  0  0
  2  6  1  0  0  0  0
  2 18  1  0  0  0  0
  3  7  1  0  0  0  0
  3 19  1  0  0  0  0
  4  8  1  0  0  0  0
  4 20  1  0  0  0  0
  5  9  1  0  0  0  0
  5 21  1  0  0  0  0
  6 10  1  0  0  0  0
  6 11  1  0  0  0  0
  7 12  1  0  0  0  0
  7 13  1  0  0  0  0
  8 14  1  0  0  0  0
  8 15  1  0  0  0  0
  9 16  1  0  0  0  0
  9 17  1  0  0  0  0
M  CHG  1   1   1
M  END
> <PUBCHEM_COMPOUND_CID>
10544

> <PUBCHEM_CONFORMER_RMSD>
0.6

> <PUBCHEM_CONFORMER_DIVERSEORDER>
1
2
9
8
4
7
3
5
6

> <PUBCHEM_MMFF94_PARTIAL_CHARGES>
12
18 0.4
19 0.4
2 -0.68
20 0.4
21 0.4
3 -0.68
4 -0.68
5 -0.68
6 0.28
7 0.28
8 0.28
9 0.28

> <PUBCHEM_EFFECTIVE_ROTOR_COUNT>
4

> <PUBCHEM_PHARMACOPHORE_FEATURES>
8
1 2 acceptor
1 2 donor
1 3 acceptor
1 3 donor
1 4 acceptor
1 4 donor
1 5 acceptor
1 5 donor

> <PUBCHEM_HEAVY_ATOM_COUNT>
9

> <PUBCHEM_ATOM_DEF_STEREO_COUNT>
0

> <PUBCHEM_ATOM_UDEF_STEREO_COUNT>
0

> <PUBCHEM_BOND_DEF_STEREO_COUNT>
0

> <PUBCHEM_BOND_UDEF_STEREO_COUNT>
0

> <PUBCHEM_ISOTOPIC_ATOM_COUNT>
0

> <PUBCHEM_COMPONENT_COUNT>
1

> <PUBCHEM_CACTVS_TAUTO_COUNT>
1

> <PUBCHEM_CONFORMER_ID>
0000293000000001

> <PUBCHEM_MMFF94_ENERGY>
16.3129

> <PUBCHEM_FEATURE_SELFOVERLAP>
40.595

> <PUBCHEM_SHAPE_FINGERPRINT>
12423570 1 15254320107104479738
137420 1 12769338466008672897
20711978 78 18337093631662481579
21930827 45 16988285377582246437
23552333 60 17822872899902674885
5943 1 11255230887459028995

> <PUBCHEM_SHAPE_MULTIPOLES>
165.59
2.23
1.7
1.68
0
0.01
0
-0.02
0
-1.2
0.01
1.18
0
0.38

> <PUBCHEM_SHAPE_SELFOVERLAP>
283.858

> <PUBCHEM_SHAPE_VOLUME>
110.3

> <PUBCHEM_COORDINATE_TYPE>
2
5
10

$$$$

