25245128
  -OEChem-07051213102D

 46 47  0     1  0  0  0  0  0999 V2000
    2.8660   -4.6550    0.0000 O   0  0  0  0  0  0  0  0  0  0  0  0
    9.7942    2.3450    0.0000 O   0  0  0  0  0  0  0  0  0  0  0  0
    2.0000   -3.1550    0.0000 O   0  0  0  0  0  0  0  0  0  0  0  0
    9.7942    4.3450    0.0000 O   0  0  0  0  0  0  0  0  0  0  0  0
    6.3301   -4.6550    0.0000 O   0  0  0  0  0  0  0  0  0  0  0  0
    7.1962   -3.1550    0.0000 O   0  0  0  0  0  0  0  0  0  0  0  0
    4.5981   -3.6550    0.0000 N   0  0  0  0  0  0  0  0  0  0  0  0
    5.4641    0.8450    0.0000 N   0  0  0  0  0  0  0  0  0  0  0  0
    3.7320   -2.1550    0.0000 C   0  0  0  0  0  0  0  0  0  0  0  0
    3.7320   -3.1550    0.0000 C   0  0  1  0  0  0  0  0  0  0  0  0
    4.5981   -1.6550    0.0000 C   0  0  0  0  0  0  0  0  0  0  0  0
    6.3301    2.3450    0.0000 C   0  0  0  0  0  0  0  0  0  0  0  0
    6.3301    1.3450    0.0000 C   0  0  0  0  0  0  0  0  0  0  0  0
    5.4641   -2.1550    0.0000 C   0  0  0  0  0  0  0  0  0  0  0  0
    7.1962    2.8450    0.0000 C   0  0  0  0  0  0  0  0  0  0  0  0
    4.5981   -0.6550    0.0000 C   0  0  0  0  0  0  0  0  0  0  0  0
    5.4641   -3.1550    0.0000 C   0  0  0  0  0  0  0  0  0  0  0  0
    5.4641   -0.1550    0.0000 C   0  0  0  0  0  0  0  0  0  0  0  0
    2.8660   -3.6550    0.0000 C   0  0  0  0  0  0  0  0  0  0  0  0
    8.0622    2.3450    0.0000 C   0  0  0  0  0  0  0  0  0  0  0  0
    7.1962    3.8450    0.0000 C   0  0  0  0  0  0  0  0  0  0  0  0
    8.9282    2.8450    0.0000 C   0  0  0  0  0  0  0  0  0  0  0  0
    8.0622    4.3450    0.0000 C   0  0  0  0  0  0  0  0  0  0  0  0
    8.9282    3.8450    0.0000 C   0  0  0  0  0  0  0  0  0  0  0  0
    6.3301   -3.6550    0.0000 C   0  0  0  0  0  0  0  0  0  0  0  0
   10.6603    2.8450    0.0000 C   0  0  0  0  0  0  0  0  0  0  0  0
    3.5200   -1.5724    0.0000 H   0  0  0  0  0  0  0  0  0  0  0  0
    3.1215   -2.2627    0.0000 H   0  0  0  0  0  0  0  0  0  0  0  0
    3.7320   -3.7750    0.0000 H   0  0  0  0  0  0  0  0  0  0  0  0
    6.1181    2.9276    0.0000 H   0  0  0  0  0  0  0  0  0  0  0  0
    5.7196    2.2373    0.0000 H   0  0  0  0  0  0  0  0  0  0  0  0
    6.5422    0.7624    0.0000 H   0  0  0  0  0  0  0  0  0  0  0  0
    6.9407    1.4527    0.0000 H   0  0  0  0  0  0  0  0  0  0  0  0
    6.0010   -1.8450    0.0000 H   0  0  0  0  0  0  0  0  0  0  0  0
    4.0611   -0.3450    0.0000 H   0  0  0  0  0  0  0  0  0  0  0  0
    4.9272    1.1550    0.0000 H   0  0  0  0  0  0  0  0  0  0  0  0
    6.0010   -0.4650    0.0000 H   0  0  0  0  0  0  0  0  0  0  0  0
    8.0622    1.7250    0.0000 H   0  0  0  0  0  0  0  0  0  0  0  0
    6.6592    4.1550    0.0000 H   0  0  0  0  0  0  0  0  0  0  0  0
    8.0622    4.9650    0.0000 H   0  0  0  0  0  0  0  0  0  0  0  0
    2.3291   -4.9650    0.0000 H   0  0  0  0  0  0  0  0  0  0  0  0
    9.7942    4.9650    0.0000 H   0  0  0  0  0  0  0  0  0  0  0  0
    6.8671   -4.9650    0.0000 H   0  0  0  0  0  0  0  0  0  0  0  0
   10.9703    2.3081    0.0000 H   0  0  0  0  0  0  0  0  0  0  0  0
   11.1972    3.1550    0.0000 H   0  0  0  0  0  0  0  0  0  0  0  0
   10.3503    3.3819    0.0000 H   0  0  0  0  0  0  0  0  0  0  0  0
  1 19  1  0  0  0  0
  1 41  1  0  0  0  0
  2 22  1  0  0  0  0
  2 26  1  0  0  0  0
  3 19  2  0  0  0  0
  4 24  1  0  0  0  0
  4 42  1  0  0  0  0
  5 25  1  0  0  0  0
  5 43  1  0  0  0  0
  6 25  2  0  0  0  0
  7 10  1  0  0  0  0
  7 17  2  0  0  0  0
  8 13  1  0  0  0  0
  8 18  1  0  0  0  0
  8 36  1  0  0  0  0
  9 10  1  0  0  0  0
  9 11  1  0  0  0  0
  9 27  1  0  0  0  0
  9 28  1  0  0  0  0
 10 19  1  6  0  0  0
 10 29  1  0  0  0  0
 11 14  2  0  0  0  0
 11 16  1  0  0  0  0
 12 13  1  0  0  0  0
 12 15  1  0  0  0  0
 12 30  1  0  0  0  0
 12 31  1  0  0  0  0
 13 32  1  0  0  0  0
 13 33  1  0  0  0  0
 14 17  1  0  0  0  0
 14 34  1  0  0  0  0
 15 20  2  0  0  0  0
 15 21  1  0  0  0  0
 16 18  2  0  0  0  0
 16 35  1  0  0  0  0
 17 25  1  0  0  0  0
 18 37  1  0  0  0  0
 20 22  1  0  0  0  0
 20 38  1  0  0  0  0
 21 23  2  0  0  0  0
 21 39  1  0  0  0  0
 22 24  2  0  0  0  0
 23 24  1  0  0  0  0
 23 40  1  0  0  0  0
 26 44  1  0  0  0  0
 26 45  1  0  0  0  0
 26 46  1  0  0  0  0
M  END
> <PUBCHEM_COMPOUND_CID>
25245128

> <PUBCHEM_COMPOUND_CANONICALIZED>
1

> <PUBCHEM_CACTVS_COMPLEXITY>
613

> <PUBCHEM_CACTVS_HBOND_ACCEPTOR>
8

> <PUBCHEM_CACTVS_HBOND_DONOR>
4

> <PUBCHEM_CACTVS_ROTATABLE_BOND>
8

> <PUBCHEM_CACTVS_SUBSKEYS>
AAADceB7OAAAAAAAAAAAAAAAAAAAAAAAAAAwQAAAAAAAAAABAAAAHgAQCAAADCzBmAYyDoLABgCoAyD2TAQCCAAgIgAIiIGeiJgPJjKGsRuEcCMk0BELuAeY0LIOIAABAAAAQABAAAIAAACAAAAAAAAAAA==

> <PUBCHEM_IUPAC_OPENEYE_NAME>
(2S)-4-[(E)-2-[2-(4-hydroxy-3-methoxy-phenyl)ethylamino]vinyl]-2,3-dihydropyridine-2,6-dicarboxylic acid

> <PUBCHEM_IUPAC_CAS_NAME>
(2S)-4-[(E)-2-[2-(4-hydroxy-3-methoxyphenyl)ethylamino]ethenyl]-2,3-dihydropyridine-2,6-dicarboxylic acid

> <PUBCHEM_IUPAC_NAME>
(2S)-4-[(E)-2-[2-(4-hydroxy-3-methoxyphenyl)ethylamino]ethenyl]-2,3-dihydropyridine-2,6-dicarboxylic acid

> <PUBCHEM_IUPAC_SYSTEMATIC_NAME>
(2S)-4-[(E)-2-[2-(3-methoxy-4-oxidanyl-phenyl)ethylamino]ethenyl]-2,3-dihydropyridine-2,6-dicarboxylic acid

> <PUBCHEM_IUPAC_TRADITIONAL_NAME>
(2S)-4-[(E)-2-(homovanillylamino)vinyl]-2,3-dihydropyridine-2,6-dicarboxylic acid

> <PUBCHEM_IUPAC_INCHI>
InChI=1S/C18H20N2O6/c1-26-16-10-11(2-3-15(16)21)4-6-19-7-5-12-8-13(17(22)23)20-14(9-12)18(24)25/h2-3,5,7-8,10,14,19,21H,4,6,9H2,1H3,(H,22,23)(H,24,25)/b7-5+/t14-/m0/s1

> <PUBCHEM_IUPAC_INCHIKEY>
MLDNOXBFWYMRHZ-DYLGSBMWSA-N

> <PUBCHEM_XLOGP3_AA>
1.5

> <PUBCHEM_EXACT_MASS>
360.132136

> <PUBCHEM_MOLECULAR_FORMULA>
C18H20N2O6

> <PUBCHEM_MOLECULAR_WEIGHT>
360.3612

> <PUBCHEM_OPENEYE_CAN_SMILES>
COC1=C(C=CC(=C1)CCNC=CC2=CC(=NC(C2)C(=O)O)C(=O)O)O

> <PUBCHEM_OPENEYE_ISO_SMILES>
COC1=C(C=CC(=C1)CCN/C=C/C2=CC(=N[C@@H](C2)C(=O)O)C(=O)O)O

> <PUBCHEM_CACTVS_TPSA>
128

> <PUBCHEM_MONOISOTOPIC_WEIGHT>
360.132136

> <PUBCHEM_TOTAL_CHARGE>
0

> <PUBCHEM_HEAVY_ATOM_COUNT>
26

> <PUBCHEM_ATOM_DEF_STEREO_COUNT>
1

> <PUBCHEM_ATOM_UDEF_STEREO_COUNT>
0

> <PUBCHEM_BOND_DEF_STEREO_COUNT>
1

> <PUBCHEM_BOND_UDEF_STEREO_COUNT>
0

> <PUBCHEM_ISOTOPIC_ATOM_COUNT>
0

> <PUBCHEM_COMPONENT_COUNT>
1

> <PUBCHEM_CACTVS_TAUTO_COUNT>
9

> <PUBCHEM_COORDINATE_TYPE>
1
5
255

> <PUBCHEM_BONDANNOTATIONS>
10  19  6
15  20  8
15  21  8
20  22  8
21  23  8
22  24  8
23  24  8

$$$$

