442904
  -OEChem-07051213002D

 26 26  0     0  0  0  0  0  0999 V2000
    2.8660    0.9050    0.0000 O   0  0  0  0  0  0  0  0  0  0  0  0
    6.3301    0.9050    0.0000 O   0  0  0  0  0  0  0  0  0  0  0  0
    4.5981   -2.0950    0.0000 O   0  0  0  0  0  0  0  0  0  0  0  0
    3.7320    2.4050    0.0000 O   0  0  0  0  0  0  0  0  0  0  0  0
    4.5981    0.9050    0.0000 C   0  0  0  0  0  0  0  0  0  0  0  0
    3.7320    0.4050    0.0000 C   0  0  0  0  0  0  0  0  0  0  0  0
    5.4641    0.4050    0.0000 C   0  0  0  0  0  0  0  0  0  0  0  0
    3.7320   -0.5950    0.0000 C   0  0  0  0  0  0  0  0  0  0  0  0
    5.4641   -0.5950    0.0000 C   0  0  0  0  0  0  0  0  0  0  0  0
    4.5981   -1.0950    0.0000 C   0  0  0  0  0  0  0  0  0  0  0  0
    4.5981    1.9050    0.0000 C   0  0  0  0  0  0  0  0  0  0  0  0
    5.4641    2.4050    0.0000 C   0  0  0  0  0  0  0  0  0  0  0  0
    2.0000    0.4050    0.0000 C   0  0  0  0  0  0  0  0  0  0  0  0
    7.1962    0.4050    0.0000 C   0  0  0  0  0  0  0  0  0  0  0  0
    3.1951   -0.9050    0.0000 H   0  0  0  0  0  0  0  0  0  0  0  0
    6.0010   -0.9050    0.0000 H   0  0  0  0  0  0  0  0  0  0  0  0
    5.7741    1.8681    0.0000 H   0  0  0  0  0  0  0  0  0  0  0  0
    6.0010    2.7150    0.0000 H   0  0  0  0  0  0  0  0  0  0  0  0
    5.1541    2.9419    0.0000 H   0  0  0  0  0  0  0  0  0  0  0  0
    1.6900    0.9419    0.0000 H   0  0  0  0  0  0  0  0  0  0  0  0
    1.4631    0.0950    0.0000 H   0  0  0  0  0  0  0  0  0  0  0  0
    2.3100   -0.1319    0.0000 H   0  0  0  0  0  0  0  0  0  0  0  0
    6.8862   -0.1319    0.0000 H   0  0  0  0  0  0  0  0  0  0  0  0
    7.7331    0.0950    0.0000 H   0  0  0  0  0  0  0  0  0  0  0  0
    7.5062    0.9419    0.0000 H   0  0  0  0  0  0  0  0  0  0  0  0
    4.0611   -2.4050    0.0000 H   0  0  0  0  0  0  0  0  0  0  0  0
  1  6  1  0  0  0  0
  1 13  1  0  0  0  0
  2  7  1  0  0  0  0
  2 14  1  0  0  0  0
  3 10  1  0  0  0  0
  3 26  1  0  0  0  0
  4 11  2  0  0  0  0
  5  6  2  0  0  0  0
  5  7  1  0  0  0  0
  5 11  1  0  0  0  0
  6  8  1  0  0  0  0
  7  9  2  0  0  0  0
  8 10  2  0  0  0  0
  8 15  1  0  0  0  0
  9 10  1  0  0  0  0
  9 16  1  0  0  0  0
 11 12  1  0  0  0  0
 12 17  1  0  0  0  0
 12 18  1  0  0  0  0
 12 19  1  0  0  0  0
 13 20  1  0  0  0  0
 13 21  1  0  0  0  0
 13 22  1  0  0  0  0
 14 23  1  0  0  0  0
 14 24  1  0  0  0  0
 14 25  1  0  0  0  0
M  END
> <PUBCHEM_COMPOUND_CID>
442904

> <PUBCHEM_COMPOUND_CANONICALIZED>
1

> <PUBCHEM_CACTVS_COMPLEXITY>
190

> <PUBCHEM_CACTVS_HBOND_ACCEPTOR>
4

> <PUBCHEM_CACTVS_HBOND_DONOR>
1

> <PUBCHEM_CACTVS_ROTATABLE_BOND>
3

> <PUBCHEM_CACTVS_SUBSKEYS>
AAADccBwOAAAAAAAAAAAAAAAAAAAAAAAAAAwAAAAAAAAAAABAAAAGgAACAAADASAmAIyBoAABgCIAqBSAAACCAAkIAAAiAEGCMgMJzaGNRqAcWAl4BUIuQeI7KzOIAAACAAIAABAAAAQABAAAAAAAAAAAA==

> <PUBCHEM_IUPAC_OPENEYE_NAME>
1-(4-hydroxy-2,6-dimethoxy-phenyl)ethanone

> <PUBCHEM_IUPAC_CAS_NAME>
1-(4-hydroxy-2,6-dimethoxyphenyl)ethanone

> <PUBCHEM_IUPAC_NAME>
1-(4-hydroxy-2,6-dimethoxyphenyl)ethanone

> <PUBCHEM_IUPAC_SYSTEMATIC_NAME>
1-(2,6-dimethoxy-4-oxidanyl-phenyl)ethanone

> <PUBCHEM_IUPAC_TRADITIONAL_NAME>
1-(4-hydroxy-2,6-dimethoxy-phenyl)ethanone

> <PUBCHEM_IUPAC_INCHI>
InChI=1S/C10H12O4/c1-6(11)10-8(13-2)4-7(12)5-9(10)14-3/h4-5,12H,1-3H3

> <PUBCHEM_IUPAC_INCHIKEY>
AZRTXUQINTVMDW-UHFFFAOYSA-N

> <PUBCHEM_XLOGP3>
0.2

> <PUBCHEM_EXACT_MASS>
196.073559

> <PUBCHEM_MOLECULAR_FORMULA>
C10H12O4

> <PUBCHEM_MOLECULAR_WEIGHT>
196.19988

> <PUBCHEM_OPENEYE_CAN_SMILES>
CC(=O)C1=C(C=C(C=C1OC)O)OC

> <PUBCHEM_OPENEYE_ISO_SMILES>
CC(=O)C1=C(C=C(C=C1OC)O)OC

> <PUBCHEM_CACTVS_TPSA>
55.8

> <PUBCHEM_MONOISOTOPIC_WEIGHT>
196.073559

> <PUBCHEM_TOTAL_CHARGE>
0

> <PUBCHEM_HEAVY_ATOM_COUNT>
14

> <PUBCHEM_ATOM_DEF_STEREO_COUNT>
0

> <PUBCHEM_ATOM_UDEF_STEREO_COUNT>
0

> <PUBCHEM_BOND_DEF_STEREO_COUNT>
0

> <PUBCHEM_BOND_UDEF_STEREO_COUNT>
0

> <PUBCHEM_ISOTOPIC_ATOM_COUNT>
0

> <PUBCHEM_COMPONENT_COUNT>
1

> <PUBCHEM_CACTVS_TAUTO_COUNT>
7

> <PUBCHEM_COORDINATE_TYPE>
1
5
255

> <PUBCHEM_BONDANNOTATIONS>
5  6  8
5  7  8
6  8  8
7  9  8
8  10  8
9  10  8

$$$$

