73266
  -OEChem-07051213053D

 12 12  0     0  0  0  0  0  0999 V2000
   -0.8727   -2.0773   -0.0004 O   0  0  0  0  0  0  0  0  0  0  0  0
    3.1735    0.0074   -0.0004 O   0  5  0  0  0  0  0  0  0  0  0  0
    1.1744   -0.9935    0.0004 N   0  0  0  0  0  0  0  0  0  0  0  0
    1.3305    1.3380   -0.0002 N   0  0  0  0  0  0  0  0  0  0  0  0
   -2.2857    0.4221    0.0001 N   0  3  0  0  0  0  0  0  0  0  0  0
   -3.3690    0.5228   -0.0004 N   0  0  0  0  0  0  0  0  0  0  0  0
   -0.8402    0.2870    0.0003 C   0  0  0  0  0  0  0  0  0  0  0  0
   -0.2095   -1.0462    0.0003 C   0  0  0  0  0  0  0  0  0  0  0  0
   -0.0405    1.3574    0.0002 C   0  0  0  0  0  0  0  0  0  0  0  0
    1.9393    0.1822    0.0000 C   0  0  0  0  0  0  0  0  0  0  0  0
    1.6764   -1.8769    0.0004 H   0  0  0  0  0  0  0  0  0  0  0  0
   -0.4769    2.3517    0.0001 H   0  0  0  0  0  0  0  0  0  0  0  0
  1  8  2  0  0  0  0
  2 10  1  0  0  0  0
  3  8  1  0  0  0  0
  3 10  1  0  0  0  0
  3 11  1  0  0  0  0
  4  9  1  0  0  0  0
  4 10  2  0  0  0  0
  5  6  3  0  0  0  0
  5  7  1  0  0  0  0
  7  8  1  0  0  0  0
  7  9  2  0  0  0  0
  9 12  1  0  0  0  0
M  CHG  2   2  -1   5   1
M  END
> <PUBCHEM_COMPOUND_CID>
73266

> <PUBCHEM_CONFORMER_RMSD>
0.4

> <PUBCHEM_CONFORMER_DIVERSEORDER>
1

> <PUBCHEM_MMFF94_PARTIAL_CHARGES>
12
1 -0.57
10 0.37
11 0.37
12 0.15
2 -0.86
3 -0.49
4 -0.62
5 1.36
6 -0.49
7 0.14
8 0.62
9 0.02

> <PUBCHEM_EFFECTIVE_ROTOR_COUNT>
0

> <PUBCHEM_PHARMACOPHORE_FEATURES>
3
1 1 acceptor
1 3 donor
6 3 4 7 8 9 10 rings

> <PUBCHEM_HEAVY_ATOM_COUNT>
10

> <PUBCHEM_ATOM_DEF_STEREO_COUNT>
0

> <PUBCHEM_ATOM_UDEF_STEREO_COUNT>
0

> <PUBCHEM_BOND_DEF_STEREO_COUNT>
0

> <PUBCHEM_BOND_UDEF_STEREO_COUNT>
0

> <PUBCHEM_ISOTOPIC_ATOM_COUNT>
0

> <PUBCHEM_COMPONENT_COUNT>
1

> <PUBCHEM_CACTVS_TAUTO_COUNT>
3

> <PUBCHEM_CONFORMER_ID>
00011E3200000001

> <PUBCHEM_MMFF94_ENERGY>
18.8961

> <PUBCHEM_FEATURE_SELFOVERLAP>
15.223

> <PUBCHEM_SHAPE_FINGERPRINT>
14325111 11 18410855451828578913
15310529 11 16702029702965823300
16945 1 18410856564072075812
193761 8 17906452121479548420
21040471 1 18410575054608954785
23235685 24 18408890650161213484
23402655 69 18121799459094775573
23552423 10 18056762018575384788
2748010 2 18121780534682294076
29004967 10 18272364312783553161
5084963 1 18114463452192497065

> <PUBCHEM_SHAPE_MULTIPOLES>
174.13
3.77
1.57
0.56
0.81
0.51
0
-0.7
0
0.16
0
-0.01
-0.01
0

> <PUBCHEM_SHAPE_SELFOVERLAP>
364.355

> <PUBCHEM_SHAPE_VOLUME>
96.6

> <PUBCHEM_COORDINATE_TYPE>
2
5
10

$$$$

