11953992
  -OEChem-07051213022D

115120  0     1  0  0  0  0  0999 V2000
    5.0393    4.6939    0.0000 O   0  0  0  0  0  0  0  0  0  0  0  0
    8.9962   -0.7500    0.0000 O   0  0  0  0  0  0  0  0  0  0  0  0
    8.9962   -1.7500    0.0000 O   0  0  0  0  0  0  0  0  0  0  0  0
    6.3981    0.7500    0.0000 O   0  0  0  0  0  0  0  0  0  0  0  0
    5.1900    4.1897    0.0000 O   0  0  0  0  0  0  0  0  0  0  0  0
    2.8680    3.7742    0.0000 O   0  0  0  0  0  0  0  0  0  0  0  0
    7.3981    1.7500    0.0000 O   0  0  0  0  0  0  0  0  0  0  0  0
   11.5942    3.7500    0.0000 O   0  0  0  0  0  0  0  0  0  0  0  0
   13.3263    3.7500    0.0000 O   0  0  0  0  0  0  0  0  0  0  0  0
   13.3263    0.7500    0.0000 O   0  0  0  0  0  0  0  0  0  0  0  0
   15.0583    1.7500    0.0000 O   0  0  0  0  0  0  0  0  0  0  0  0
    5.5320    3.2500    0.0000 C   0  0  1  0  0  0  0  0  0  0  0  0
    4.6381    3.7847    0.0000 C   0  0  1  0  0  0  0  0  0  0  0  0
    5.5320    2.2500    0.0000 C   0  0  1  0  0  0  0  0  0  0  0  0
    3.7320    3.2708    0.0000 C   0  0  1  0  0  0  0  0  0  0  0  0
    8.1301   -1.2500    0.0000 C   0  0  2  0  0  0  0  0  0  0  0  0
    7.2641    0.2500    0.0000 C   0  0  2  0  0  0  0  0  0  0  0  0
    6.3981    3.7500    0.0000 C   0  0  0  0  0  0  0  0  0  0  0  0
    7.2641   -0.7500    0.0000 C   0  0  0  0  0  0  0  0  0  0  0  0
    8.1301    0.7500    0.0000 C   0  0  0  0  0  0  0  0  0  0  0  0
    8.9962    0.2500    0.0000 C   0  0  1  0  0  0  0  0  0  0  0  0
    8.9962   -2.7500    0.0000 C   0  0  1  0  0  0  0  0  0  0  0  0
    3.7320    2.2292    0.0000 C   0  0  0  0  0  0  0  0  0  0  0  0
    4.6381    1.7153    0.0000 C   0  0  0  0  0  0  0  0  0  0  0  0
    6.0330    4.6743    0.0000 C   0  0  0  0  0  0  0  0  0  0  0  0
    6.3981    1.7500    0.0000 C   0  0  0  0  0  0  0  0  0  0  0  0
    8.1301   -3.2500    0.0000 C   0  0  2  0  0  0  0  0  0  0  0  0
    9.8622   -3.2500    0.0000 C   0  0  3  0  0  0  0  0  0  0  0  0
    7.2641   -1.7500    0.0000 C   0  0  0  0  0  0  0  0  0  0  0  0
    9.8622    0.7500    0.0000 C   0  0  0  0  0  0  0  0  0  0  0  0
    7.2641   -2.7500    0.0000 C   0  0  0  0  0  0  0  0  0  0  0  0
    7.2641    3.2500    0.0000 C   0  0  0  0  0  0  0  0  0  0  0  0
    2.8680    1.7258    0.0000 C   0  0  0  0  0  0  0  0  0  0  0  0
    9.8622   -4.2500    0.0000 C   0  0  0  0  0  0  0  0  0  0  0  0
    8.1301   -4.2500    0.0000 C   0  0  0  0  0  0  0  0  0  0  0  0
   10.7282   -2.7500    0.0000 C   0  0  0  0  0  0  0  0  0  0  0  0
    9.8622    1.7500    0.0000 C   0  0  0  0  0  0  0  0  0  0  0  0
   10.7282    3.2500    0.0000 C   0  0  1  0  0  0  0  0  0  0  0  0
    8.1301    3.7500    0.0000 C   0  0  0  0  0  0  0  0  0  0  0  0
    9.8622    3.7500    0.0000 C   0  0  2  0  0  0  0  0  0  0  0  0
   10.7282    2.2500    0.0000 C   0  0  0  0  0  0  0  0  0  0  0  0
    2.0000    3.2775    0.0000 C   0  0  0  0  0  0  0  0  0  0  0  0
    8.9962    3.2500    0.0000 C   0  0  0  0  0  0  0  0  0  0  0  0
   10.7282   -4.7500    0.0000 C   0  0  0  0  0  0  0  0  0  0  0  0
   12.4602    3.2500    0.0000 C   0  0  2  0  0  0  0  0  0  0  0  0
   12.4602    2.2500    0.0000 C   0  0  0  0  0  0  0  0  0  0  0  0
   13.3263    1.7500    0.0000 C   0  0  1  0  0  0  0  0  0  0  0  0
   14.1923    2.2500    0.0000 C   0  0  2  0  0  0  0  0  0  0  0  0
    9.8622    4.7500    0.0000 C   0  0  0  0  0  0  0  0  0  0  0  0
   14.1923    3.2500    0.0000 C   0  0  2  0  0  0  0  0  0  0  0  0
   11.5942    1.7500    0.0000 C   0  0  0  0  0  0  0  0  0  0  0  0
   15.0583    3.7500    0.0000 C   0  0  0  0  0  0  0  0  0  0  0  0
   14.1923    0.2500    0.0000 C   0  0  0  0  0  0  0  0  0  0  0  0
    4.0077    4.3548    0.0000 H   0  0  0  0  0  0  0  0  0  0  0  0
    5.5320    1.4000    0.0000 H   0  0  0  0  0  0  0  0  0  0  0  0
    3.1945    2.9618    0.0000 H   0  0  0  0  0  0  0  0  0  0  0  0
    6.5280   -0.1750    0.0000 H   0  0  0  0  0  0  0  0  0  0  0  0
    6.6535   -0.6423    0.0000 H   0  0  0  0  0  0  0  0  0  0  0  0
    7.0520   -1.3326    0.0000 H   0  0  0  0  0  0  0  0  0  0  0  0
    8.5287    1.2250    0.0000 H   0  0  0  0  0  0  0  0  0  0  0  0
    7.7316    1.2250    0.0000 H   0  0  0  0  0  0  0  0  0  0  0  0
    9.7323   -0.1750    0.0000 H   0  0  0  0  0  0  0  0  0  0  0  0
    9.5331   -2.4400    0.0000 H   0  0  0  0  0  0  0  0  0  0  0  0
    4.6453    1.0954    0.0000 H   0  0  0  0  0  0  0  0  0  0  0  0
    6.6346    4.8242    0.0000 H   0  0  0  0  0  0  0  0  0  0  0  0
    5.9635    5.2904    0.0000 H   0  0  0  0  0  0  0  0  0  0  0  0
    8.6671   -3.5600    0.0000 H   0  0  0  0  0  0  0  0  0  0  0  0
   10.5983   -3.6750    0.0000 H   0  0  0  0  0  0  0  0  0  0  0  0
    6.7272   -1.4400    0.0000 H   0  0  0  0  0  0  0  0  0  0  0  0
    4.6074    4.4018    0.0000 H   0  0  0  0  0  0  0  0  0  0  0  0
   10.0742    0.1674    0.0000 H   0  0  0  0  0  0  0  0  0  0  0  0
   10.4728    0.8577    0.0000 H   0  0  0  0  0  0  0  0  0  0  0  0
    6.7272   -3.0600    0.0000 H   0  0  0  0  0  0  0  0  0  0  0  0
    7.5742    2.7131    0.0000 H   0  0  0  0  0  0  0  0  0  0  0  0
    2.5559    2.2616    0.0000 H   0  0  0  0  0  0  0  0  0  0  0  0
    2.3322    1.4138    0.0000 H   0  0  0  0  0  0  0  0  0  0  0  0
    3.1800    1.1901    0.0000 H   0  0  0  0  0  0  0  0  0  0  0  0
    9.2516   -4.1423    0.0000 H   0  0  0  0  0  0  0  0  0  0  0  0
    9.6501   -4.8326    0.0000 H   0  0  0  0  0  0  0  0  0  0  0  0
    7.5101   -4.2500    0.0000 H   0  0  0  0  0  0  0  0  0  0  0  0
    8.1301   -4.8700    0.0000 H   0  0  0  0  0  0  0  0  0  0  0  0
    8.7501   -4.2500    0.0000 H   0  0  0  0  0  0  0  0  0  0  0  0
   11.0382   -3.2869    0.0000 H   0  0  0  0  0  0  0  0  0  0  0  0
   11.2651   -2.4400    0.0000 H   0  0  0  0  0  0  0  0  0  0  0  0
   10.4182   -2.2131    0.0000 H   0  0  0  0  0  0  0  0  0  0  0  0
    9.3252    2.0600    0.0000 H   0  0  0  0  0  0  0  0  0  0  0  0
   10.7282    3.8700    0.0000 H   0  0  0  0  0  0  0  0  0  0  0  0
    8.1301    4.3700    0.0000 H   0  0  0  0  0  0  0  0  0  0  0  0
   10.3991    4.0600    0.0000 H   0  0  0  0  0  0  0  0  0  0  0  0
    1.6921    3.8156    0.0000 H   0  0  0  0  0  0  0  0  0  0  0  0
    1.4619    2.9696    0.0000 H   0  0  0  0  0  0  0  0  0  0  0  0
    2.3079    2.7394    0.0000 H   0  0  0  0  0  0  0  0  0  0  0  0
    8.9962    2.6300    0.0000 H   0  0  0  0  0  0  0  0  0  0  0  0
   10.4182   -5.2869    0.0000 H   0  0  0  0  0  0  0  0  0  0  0  0
   11.2651   -5.0600    0.0000 H   0  0  0  0  0  0  0  0  0  0  0  0
   11.0382   -4.2131    0.0000 H   0  0  0  0  0  0  0  0  0  0  0  0
   11.9233    2.9400    0.0000 H   0  0  0  0  0  0  0  0  0  0  0  0
   11.8497    2.3577    0.0000 H   0  0  0  0  0  0  0  0  0  0  0  0
   12.2482    1.6674    0.0000 H   0  0  0  0  0  0  0  0  0  0  0  0
   13.8632    1.4400    0.0000 H   0  0  0  0  0  0  0  0  0  0  0  0
   14.7292    2.5600    0.0000 H   0  0  0  0  0  0  0  0  0  0  0  0
   14.1923    3.8700    0.0000 H   0  0  0  0  0  0  0  0  0  0  0  0
   10.4822    4.7500    0.0000 H   0  0  0  0  0  0  0  0  0  0  0  0
    9.8622    5.3700    0.0000 H   0  0  0  0  0  0  0  0  0  0  0  0
    9.2422    4.7500    0.0000 H   0  0  0  0  0  0  0  0  0  0  0  0
   11.2842    1.2131    0.0000 H   0  0  0  0  0  0  0  0  0  0  0  0
   12.1312    1.4400    0.0000 H   0  0  0  0  0  0  0  0  0  0  0  0
   11.9042    2.2869    0.0000 H   0  0  0  0  0  0  0  0  0  0  0  0
   15.3683    3.2131    0.0000 H   0  0  0  0  0  0  0  0  0  0  0  0
   15.5953    4.0600    0.0000 H   0  0  0  0  0  0  0  0  0  0  0  0
   14.7483    4.2869    0.0000 H   0  0  0  0  0  0  0  0  0  0  0  0
   15.5953    2.0600    0.0000 H   0  0  0  0  0  0  0  0  0  0  0  0
   13.8823   -0.2869    0.0000 H   0  0  0  0  0  0  0  0  0  0  0  0
   14.7292   -0.0600    0.0000 H   0  0  0  0  0  0  0  0  0  0  0  0
   14.5023    0.7869    0.0000 H   0  0  0  0  0  0  0  0  0  0  0  0
  1 13  1  0  0  0  0
  1 25  1  0  0  0  0
  2 16  1  0  0  0  0
  2 21  1  0  0  0  0
 16  3  1  6  0  0  0
  3 22  1  0  0  0  0
  4 17  1  0  0  0  0
  4 26  1  0  0  0  0
 12  5  1  6  0  0  0
  5 70  1  0  0  0  0
 15  6  1  1  0  0  0
  6 42  1  0  0  0  0
  7 26  2  0  0  0  0
 38  8  1  6  0  0  0
 45  8  1  6  0  0  0
  9 45  1  0  0  0  0
  9 50  1  0  0  0  0
 47 10  1  1  0  0  0
 10 53  1  0  0  0  0
 48 11  1  6  0  0  0
 11112  1  0  0  0  0
 12 13  1  0  0  0  0
 12 14  1  0  0  0  0
 12 18  1  0  0  0  0
 13 15  1  0  0  0  0
 13 54  1  6  0  0  0
 14 24  1  0  0  0  0
 14 26  1  0  0  0  0
 14 55  1  1  0  0  0
 15 23  1  0  0  0  0
 15 56  1  0  0  0  0
 16 19  1  0  0  0  0
 16 29  1  0  0  0  0
 17 19  1  0  0  0  0
 17 20  1  0  0  0  0
 17 57  1  6  0  0  0
 18 25  1  0  0  0  0
 18 32  2  0  0  0  0
 19 58  1  0  0  0  0
 19 59  1  0  0  0  0
 20 21  1  0  0  0  0
 20 60  1  0  0  0  0
 20 61  1  0  0  0  0
 21 30  1  0  0  0  0
 21 62  1  6  0  0  0
 22 27  1  0  0  0  0
 22 28  1  6  0  0  0
 22 63  1  0  0  0  0
 23 24  2  0  0  0  0
 23 33  1  0  0  0  0
 24 64  1  0  0  0  0
 25 65  1  0  0  0  0
 25 66  1  0  0  0  0
 27 31  1  0  0  0  0
 27 35  1  1  0  0  0
 27 67  1  0  0  0  0
 28 34  1  0  0  0  0
 28 36  1  0  0  0  0
 28 68  1  0  0  0  0
 29 31  2  0  0  0  0
 29 69  1  0  0  0  0
 30 37  1  0  0  0  0
 30 71  1  0  0  0  0
 30 72  1  0  0  0  0
 31 73  1  0  0  0  0
 32 39  1  0  0  0  0
 32 74  1  0  0  0  0
 33 75  1  0  0  0  0
 33 76  1  0  0  0  0
 33 77  1  0  0  0  0
 34 44  1  0  0  0  0
 34 78  1  0  0  0  0
 34 79  1  0  0  0  0
 35 80  1  0  0  0  0
 35 81  1  0  0  0  0
 35 82  1  0  0  0  0
 36 83  1  0  0  0  0
 36 84  1  0  0  0  0
 36 85  1  0  0  0  0
 37 41  2  0  0  0  0
 37 86  1  0  0  0  0
 38 40  1  0  0  0  0
 38 41  1  0  0  0  0
 38 87  1  0  0  0  0
 39 43  2  0  0  0  0
 39 88  1  0  0  0  0
 40 43  1  0  0  0  0
 40 49  1  6  0  0  0
 40 89  1  0  0  0  0
 41 51  1  0  0  0  0
 42 90  1  0  0  0  0
 42 91  1  0  0  0  0
 42 92  1  0  0  0  0
 43 93  1  0  0  0  0
 44 94  1  0  0  0  0
 44 95  1  0  0  0  0
 44 96  1  0  0  0  0
 45 46  1  0  0  0  0
 45 97  1  0  0  0  0
 46 47  1  0  0  0  0
 46 98  1  0  0  0  0
 46 99  1  0  0  0  0
 47 48  1  0  0  0  0
 47100  1  0  0  0  0
 48 50  1  0  0  0  0
 48101  1  0  0  0  0
 49103  1  0  0  0  0
 49104  1  0  0  0  0
 49105  1  0  0  0  0
 50 52  1  1  0  0  0
 50102  1  0  0  0  0
 51106  1  0  0  0  0
 51107  1  0  0  0  0
 51108  1  0  0  0  0
 52109  1  0  0  0  0
 52110  1  0  0  0  0
 52111  1  0  0  0  0
 53113  1  0  0  0  0
 53114  1  0  0  0  0
 53115  1  0  0  0  0
M  END
> <PUBCHEM_COMPOUND_CID>
11953992

> <PUBCHEM_COMPOUND_CANONICALIZED>
1

> <PUBCHEM_CACTVS_COMPLEXITY>
1470

> <PUBCHEM_CACTVS_HBOND_ACCEPTOR>
11

> <PUBCHEM_CACTVS_HBOND_DONOR>
2

> <PUBCHEM_CACTVS_ROTATABLE_BOND>
6

> <PUBCHEM_CACTVS_SUBSKEYS>
AAADcfB8PAAAAAAAAAAAAAAAAAAAASAAAAAkSIEAAAAAAEAAAAAAGgAACAAADVSwgAMCCAAABgCIAiDSCAAAAAAgAAAICAEAAAgZFBYAIQAiUAAF4AAPsAPK7OzOgAAAAAAAAAAAAAAAAAAAAAAAAAAAAA==

> <PUBCHEM_IUPAC_INCHI>
InChI=1S/C42H62O11/c1-10-23(2)37-26(5)16-17-41(53-37)21-31-19-30(52-41)15-14-25(4)36(51-34-20-33(46-8)35(43)28(7)49-34)24(3)12-11-13-29-22-48-39-38(47-9)27(6)18-32(40(44)50-31)42(29,39)45/h11-14,16-18,23-24,26,28,30-39,43,45H,10,15,19-22H2,1-9H3/b12-11+,25-14+,29-13+/t23?,24-,26-,28-,30+,31-,32-,33-,34-,35-,36-,37+,38+,39+,41+,42+/m0/s1

> <PUBCHEM_IUPAC_INCHIKEY>
UFXJUDTUTIFNOY-DXLDPMLMSA-N

> <PUBCHEM_XLOGP3_AA>
4

> <PUBCHEM_EXACT_MASS>
742.429213

> <PUBCHEM_MOLECULAR_FORMULA>
C42H62O11

> <PUBCHEM_MOLECULAR_WEIGHT>
742.93508

> <PUBCHEM_OPENEYE_CAN_SMILES>
CCC(C)C1C(C=CC2(O1)CC3CC(O2)CC=C(C(C(C=CC=C4COC5C4(C(C=C(C5OC)C)C(=O)O3)O)C)OC6CC(C(C(O6)C)O)OC)C)C

> <PUBCHEM_OPENEYE_ISO_SMILES>
CCC(C)[C@@H]1[C@H](C=C[C@@]2(O1)C[C@@H]3C[C@H](O2)C/C=C(/[C@H]([C@H](/C=C/C=C/4\CO[C@H]5[C@@]4([C@@H](C=C([C@H]5OC)C)C(=O)O3)O)C)O[C@H]6C[C@@H]([C@H]([C@@H](O6)C)O)OC)\C)C

> <PUBCHEM_CACTVS_TPSA>
131

> <PUBCHEM_MONOISOTOPIC_WEIGHT>
742.429213

> <PUBCHEM_TOTAL_CHARGE>
0

> <PUBCHEM_HEAVY_ATOM_COUNT>
53

> <PUBCHEM_ATOM_DEF_STEREO_COUNT>
15

> <PUBCHEM_ATOM_UDEF_STEREO_COUNT>
1

> <PUBCHEM_BOND_DEF_STEREO_COUNT>
3

> <PUBCHEM_BOND_UDEF_STEREO_COUNT>
0

> <PUBCHEM_ISOTOPIC_ATOM_COUNT>
0

> <PUBCHEM_COMPONENT_COUNT>
1

> <PUBCHEM_CACTVS_TAUTO_COUNT>
1

> <PUBCHEM_COORDINATE_TYPE>
1
5
255

> <PUBCHEM_BONDANNOTATIONS>
47  10  5
48  11  6
13  54  6
14  55  5
17  57  6
21  62  6
22  28  6
27  35  5
28  68  3
16  3  6
40  49  6
12  5  6
50  52  5
15  6  5
38  8  6
45  8  6

$$$$

