12316
  -OEChem-06261206483D

 12 11  0     0  0  0  0  0  0999 V2000
   -2.0398   -0.8606    0.1411 Cl  0  0  0  0  0  0  0  0  0  0  0  0
    0.9137   -0.2710   -0.3565 O   0  0  0  0  0  0  0  0  0  0  0  0
    0.1549    0.7396    0.2936 C   0  0  0  0  0  0  0  0  0  0  0  0
   -1.2758    0.7105   -0.2111 C   0  0  0  0  0  0  0  0  0  0  0  0
    2.2470   -0.3186    0.1329 C   0  0  0  0  0  0  0  0  0  0  0  0
    0.5964    1.7191    0.0765 H   0  0  0  0  0  0  0  0  0  0  0  0
    0.1760    0.5821    1.3788 H   0  0  0  0  0  0  0  0  0  0  0  0
   -1.8760    1.4927    0.2615 H   0  0  0  0  0  0  0  0  0  0  0  0
   -1.3078    0.8399   -1.2969 H   0  0  0  0  0  0  0  0  0  0  0  0
    2.7539    0.6357   -0.0404 H   0  0  0  0  0  0  0  0  0  0  0  0
    2.7843   -1.1025   -0.4076 H   0  0  0  0  0  0  0  0  0  0  0  0
    2.2555   -0.5621    1.1997 H   0  0  0  0  0  0  0  0  0  0  0  0
  1  4  1  0  0  0  0
  2  3  1  0  0  0  0
  2  5  1  0  0  0  0
  3  4  1  0  0  0  0
  3  6  1  0  0  0  0
  3  7  1  0  0  0  0
  4  8  1  0  0  0  0
  4  9  1  0  0  0  0
  5 10  1  0  0  0  0
  5 11  1  0  0  0  0
  5 12  1  0  0  0  0
M  END
> <PUBCHEM_COMPOUND_CID>
12316

> <PUBCHEM_CONFORMER_RMSD>
0.4

> <PUBCHEM_CONFORMER_DIVERSEORDER>
1
7
2
5
6
4
3

> <PUBCHEM_MMFF94_PARTIAL_CHARGES>
5
1 -0.29
2 -0.56
3 0.28
4 0.29
5 0.28

> <PUBCHEM_EFFECTIVE_ROTOR_COUNT>
2

> <PUBCHEM_PHARMACOPHORE_FEATURES>
1
1 2 acceptor

> <PUBCHEM_HEAVY_ATOM_COUNT>
5

> <PUBCHEM_ATOM_DEF_STEREO_COUNT>
0

> <PUBCHEM_ATOM_UDEF_STEREO_COUNT>
0

> <PUBCHEM_BOND_DEF_STEREO_COUNT>
0

> <PUBCHEM_BOND_UDEF_STEREO_COUNT>
0

> <PUBCHEM_ISOTOPIC_ATOM_COUNT>
0

> <PUBCHEM_COMPONENT_COUNT>
1

> <PUBCHEM_CACTVS_TAUTO_COUNT>
1

> <PUBCHEM_CONFORMER_ID>
0000301C00000001

> <PUBCHEM_MMFF94_ENERGY>
5.6262

> <PUBCHEM_FEATURE_SELFOVERLAP>
5.074

> <PUBCHEM_SHAPE_FINGERPRINT>
139733 1 9439410120399427273
16714656 1 18272931656715137613
29004967 10 17967249797410256546
5460574 1 9223230749779418156

> <PUBCHEM_SHAPE_MULTIPOLES>
98.9
3.06
1.02
0.66
0.63
0.02
0.02
-0.96
0.09
-0.36
0.03
-0.02
0.01
0.09

> <PUBCHEM_SHAPE_SELFOVERLAP>
157.704

> <PUBCHEM_SHAPE_VOLUME>
71.1

> <PUBCHEM_COORDINATE_TYPE>
2
5
10

$$$$

