60838
  -OEChem-07051213092D

 81 87  0     1  0  0  0  0  0999 V2000
    4.4663   -1.4561    0.0000 O   0  0  0  0  0  0  0  0  0  0  0  0
    6.6205    7.7376    0.0000 O   0  0  0  0  0  0  0  0  0  0  0  0
    6.0452   -2.1680    0.0000 O   0  0  0  0  0  0  0  0  0  0  0  0
    8.5145    6.1636    0.0000 O   0  0  0  0  0  0  0  0  0  0  0  0
    4.0065    6.1683    0.0000 O   0  0  0  0  0  0  0  0  0  0  0  0
    8.3905    7.7134    0.0000 O   0  0  0  0  0  0  0  0  0  0  0  0
    3.4060   -5.9143    0.0000 N   0  0  0  0  0  0  0  0  0  0  0  0
    4.6392   -3.1795    0.0000 N   0  0  0  0  0  0  0  0  0  0  0  0
    4.8725    4.6683    0.0000 N   0  0  0  0  0  0  0  0  0  0  0  0
    6.1501    2.3677    0.0000 N   0  0  0  0  0  0  0  0  0  0  0  0
    3.8171   -5.0027    0.0000 C   0  0  0  0  0  0  0  0  0  0  0  0
    4.8121   -4.9029    0.0000 C   0  0  0  0  0  0  0  0  0  0  0  0
    3.2331   -4.1909    0.0000 C   0  0  0  0  0  0  0  0  0  0  0  0
    2.4110   -6.0142    0.0000 C   0  0  0  0  0  0  0  0  0  0  0  0
    3.9900   -6.7261    0.0000 C   0  0  0  0  0  0  0  0  0  0  0  0
    3.6442   -3.2793    0.0000 C   0  0  0  0  0  0  0  0  0  0  0  0
    5.2231   -3.9913    0.0000 C   0  0  0  0  0  0  0  0  0  0  0  0
    2.0000   -6.9258    0.0000 C   0  0  0  0  0  0  0  0  0  0  0  0
    3.5790   -7.6377    0.0000 C   0  0  0  0  0  0  0  0  0  0  0  0
    2.5840   -7.7376    0.0000 C   0  0  0  0  0  0  0  0  0  0  0  0
    5.0502   -2.2679    0.0000 C   0  0  0  0  0  0  0  0  0  0  0  0
    5.7385    4.1683    0.0000 C   0  0  0  0  0  0  0  0  0  0  0  0
    4.5406    3.0934    0.0000 C   0  0  0  0  0  0  0  0  0  0  0  0
    4.1355    4.0012    0.0000 C   0  0  0  0  0  0  0  0  0  0  0  0
    6.6046    5.6683    0.0000 C   0  0  0  0  0  0  0  0  0  0  0  0
    7.5146    6.1751    0.0000 C   0  0  2  0  0  0  0  0  0  0  0  0
    5.5293    3.1965    0.0000 C   0  0  0  0  0  0  0  0  0  0  0  0
    5.7385    6.1683    0.0000 C   0  0  0  0  0  0  0  0  0  0  0  0
    4.1041    2.1545    0.0000 C   0  0  0  0  0  0  0  0  0  0  0  0
    6.6046    4.6683    0.0000 C   0  0  0  0  0  0  0  0  0  0  0  0
    4.8725    5.6683    0.0000 C   0  0  0  0  0  0  0  0  0  0  0  0
    4.7055    1.3116    0.0000 C   0  0  0  0  0  0  0  0  0  0  0  0
    8.0045    5.3034    0.0000 C   0  0  0  0  0  0  0  0  0  0  0  0
    5.7225    7.2098    0.0000 C   0  0  0  0  0  0  0  0  0  0  0  0
    5.7354    1.4189    0.0000 C   0  0  0  0  0  0  0  0  0  0  0  0
    7.5226    7.2167    0.0000 C   0  0  0  0  0  0  0  0  0  0  0  0
    3.1084    2.0623    0.0000 C   0  0  0  0  0  0  0  0  0  0  0  0
    4.8773   -0.5445    0.0000 C   0  0  0  0  0  0  0  0  0  0  0  0
    4.2508    0.3335    0.0000 C   0  0  0  0  0  0  0  0  0  0  0  0
    6.3820    0.5556    0.0000 C   0  0  0  0  0  0  0  0  0  0  0  0
    5.9501   -0.4327    0.0000 C   0  0  0  0  0  0  0  0  0  0  0  0
    7.4945    4.4432    0.0000 C   0  0  0  0  0  0  0  0  0  0  0  0
    2.6903    1.1539    0.0000 C   0  0  0  0  0  0  0  0  0  0  0  0
    3.2002   -5.0646    0.0000 H   0  0  0  0  0  0  0  0  0  0  0  0
    2.7208   -3.8418    0.0000 H   0  0  0  0  0  0  0  0  0  0  0  0
    2.8003   -4.6349    0.0000 H   0  0  0  0  0  0  0  0  0  0  0  0
    4.7659   -5.5212    0.0000 H   0  0  0  0  0  0  0  0  0  0  0  0
    5.4130   -5.0557    0.0000 H   0  0  0  0  0  0  0  0  0  0  0  0
    4.5024   -7.0752    0.0000 H   0  0  0  0  0  0  0  0  0  0  0  0
    4.4228   -6.2822    0.0000 H   0  0  0  0  0  0  0  0  0  0  0  0
    2.4572   -5.3959    0.0000 H   0  0  0  0  0  0  0  0  0  0  0  0
    1.8102   -5.8613    0.0000 H   0  0  0  0  0  0  0  0  0  0  0  0
    3.6903   -2.6610    0.0000 H   0  0  0  0  0  0  0  0  0  0  0  0
    3.0433   -3.1265    0.0000 H   0  0  0  0  0  0  0  0  0  0  0  0
    5.7355   -4.3404    0.0000 H   0  0  0  0  0  0  0  0  0  0  0  0
    5.6559   -3.5473    0.0000 H   0  0  0  0  0  0  0  0  0  0  0  0
    1.4876   -6.5766    0.0000 H   0  0  0  0  0  0  0  0  0  0  0  0
    1.5672   -7.3697    0.0000 H   0  0  0  0  0  0  0  0  0  0  0  0
    3.5328   -8.2560    0.0000 H   0  0  0  0  0  0  0  0  0  0  0  0
    4.1798   -7.7906    0.0000 H   0  0  0  0  0  0  0  0  0  0  0  0
    2.0254   -8.0067    0.0000 H   0  0  0  0  0  0  0  0  0  0  0  0
    2.7520   -8.3343    0.0000 H   0  0  0  0  0  0  0  0  0  0  0  0
    3.7700    4.5021    0.0000 H   0  0  0  0  0  0  0  0  0  0  0  0
    3.5990    3.6904    0.0000 H   0  0  0  0  0  0  0  0  0  0  0  0
    7.1415    4.3583    0.0000 H   0  0  0  0  0  0  0  0  0  0  0  0
    8.4748    4.8994    0.0000 H   0  0  0  0  0  0  0  0  0  0  0  0
    8.4840    5.6964    0.0000 H   0  0  0  0  0  0  0  0  0  0  0  0
    5.5044    7.7902    0.0000 H   0  0  0  0  0  0  0  0  0  0  0  0
    5.1133    7.0943    0.0000 H   0  0  0  0  0  0  0  0  0  0  0  0
    3.1593    2.6802    0.0000 H   0  0  0  0  0  0  0  0  0  0  0  0
    2.5087    2.2198    0.0000 H   0  0  0  0  0  0  0  0  0  0  0  0
    3.6335    0.2764    0.0000 H   0  0  0  0  0  0  0  0  0  0  0  0
    6.9979    0.6271    0.0000 H   0  0  0  0  0  0  0  0  0  0  0  0
    6.3160   -0.9332    0.0000 H   0  0  0  0  0  0  0  0  0  0  0  0
    6.9612    4.7594    0.0000 H   0  0  0  0  0  0  0  0  0  0  0  0
    7.1783    3.9099    0.0000 H   0  0  0  0  0  0  0  0  0  0  0  0
    8.0279    4.1270    0.0000 H   0  0  0  0  0  0  0  0  0  0  0  0
    8.8183    5.6231    0.0000 H   0  0  0  0  0  0  0  0  0  0  0  0
    2.1271    1.4131    0.0000 H   0  0  0  0  0  0  0  0  0  0  0  0
    2.4311    0.5907    0.0000 H   0  0  0  0  0  0  0  0  0  0  0  0
    3.2535    0.8947    0.0000 H   0  0  0  0  0  0  0  0  0  0  0  0
  1 21  1  0  0  0  0
  1 38  1  0  0  0  0
  2 34  1  0  0  0  0
  2 36  1  0  0  0  0
  3 21  2  0  0  0  0
 26  4  1  1  0  0  0
  4 78  1  0  0  0  0
  5 31  2  0  0  0  0
  6 36  2  0  0  0  0
  7 11  1  0  0  0  0
  7 14  1  0  0  0  0
  7 15  1  0  0  0  0
  8 16  1  0  0  0  0
  8 17  1  0  0  0  0
  8 21  1  0  0  0  0
  9 22  1  0  0  0  0
  9 24  1  0  0  0  0
  9 31  1  0  0  0  0
 10 27  1  0  0  0  0
 10 35  2  0  0  0  0
 11 12  1  0  0  0  0
 11 13  1  0  0  0  0
 11 44  1  0  0  0  0
 12 17  1  0  0  0  0
 12 47  1  0  0  0  0
 12 48  1  0  0  0  0
 13 16  1  0  0  0  0
 13 45  1  0  0  0  0
 13 46  1  0  0  0  0
 14 18  1  0  0  0  0
 14 51  1  0  0  0  0
 14 52  1  0  0  0  0
 15 19  1  0  0  0  0
 15 49  1  0  0  0  0
 15 50  1  0  0  0  0
 16 53  1  0  0  0  0
 16 54  1  0  0  0  0
 17 55  1  0  0  0  0
 17 56  1  0  0  0  0
 18 20  1  0  0  0  0
 18 57  1  0  0  0  0
 18 58  1  0  0  0  0
 19 20  1  0  0  0  0
 19 59  1  0  0  0  0
 19 60  1  0  0  0  0
 20 61  1  0  0  0  0
 20 62  1  0  0  0  0
 22 27  1  0  0  0  0
 22 30  2  0  0  0  0
 23 24  1  0  0  0  0
 23 27  2  0  0  0  0
 23 29  1  0  0  0  0
 24 63  1  0  0  0  0
 24 64  1  0  0  0  0
 25 26  1  0  0  0  0
 25 28  2  0  0  0  0
 25 30  1  0  0  0  0
 26 33  1  0  0  0  0
 26 36  1  0  0  0  0
 28 31  1  0  0  0  0
 28 34  1  0  0  0  0
 29 32  2  0  0  0  0
 29 37  1  0  0  0  0
 30 65  1  0  0  0  0
 32 35  1  0  0  0  0
 32 39  1  0  0  0  0
 33 42  1  0  0  0  0
 33 66  1  0  0  0  0
 33 67  1  0  0  0  0
 34 68  1  0  0  0  0
 34 69  1  0  0  0  0
 35 40  1  0  0  0  0
 37 43  1  0  0  0  0
 37 70  1  0  0  0  0
 37 71  1  0  0  0  0
 38 39  2  0  0  0  0
 38 41  1  0  0  0  0
 39 72  1  0  0  0  0
 40 41  2  0  0  0  0
 40 73  1  0  0  0  0
 41 74  1  0  0  0  0
 42 75  1  0  0  0  0
 42 76  1  0  0  0  0
 42 77  1  0  0  0  0
 43 79  1  0  0  0  0
 43 80  1  0  0  0  0
 43 81  1  0  0  0  0
M  END
> <PUBCHEM_COMPOUND_CID>
60838

> <PUBCHEM_COMPOUND_CANONICALIZED>
1

> <PUBCHEM_CACTVS_COMPLEXITY>
1200

> <PUBCHEM_CACTVS_HBOND_ACCEPTOR>
8

> <PUBCHEM_CACTVS_HBOND_DONOR>
1

> <PUBCHEM_CACTVS_ROTATABLE_BOND>
5

> <PUBCHEM_CACTVS_SUBSKEYS>
AAADcfB/uAAAAAAAAAAAAAAAAAAAAWAAAAA8WLECAAAAAFix8AAAHgAACAAADGzhngYyzvMIFgCoAyXyXAKCiCAhIiAImCF+bNgNZvbE8Zuecihm5hHL+QewwPAOgEABAAACAAAAgAIAAAQAAAAAAAAAAA==

> <PUBCHEM_IUPAC_INCHI>
InChI=1S/C33H38N4O6/c1-3-22-23-16-21(43-32(40)36-14-10-20(11-15-36)35-12-6-5-7-13-35)8-9-27(23)34-29-24(22)18-37-28(29)17-26-25(30(37)38)19-42-31(39)33(26,41)4-2/h8-9,16-17,20,41H,3-7,10-15,18-19H2,1-2H3/t33-/m0/s1

> <PUBCHEM_IUPAC_INCHIKEY>
UWKQSNNFCGGAFS-XIFFEERXSA-N

> <PUBCHEM_XLOGP3_AA>
3

> <PUBCHEM_EXACT_MASS>
586.279135

> <PUBCHEM_MOLECULAR_FORMULA>
C33H38N4O6

> <PUBCHEM_MOLECULAR_WEIGHT>
586.67802

> <PUBCHEM_OPENEYE_CAN_SMILES>
CCC1=C2C=C(C=CC2=NC3=C1CN4C3=CC5=C(C4=O)COC(=O)C5(CC)O)OC(=O)N6CCC(CC6)N7CCCCC7

> <PUBCHEM_OPENEYE_ISO_SMILES>
CCC1=C2C=C(C=CC2=NC3=C1CN4C3=CC5=C(C4=O)COC(=O)[C@@]5(CC)O)OC(=O)N6CCC(CC6)N7CCCCC7

> <PUBCHEM_CACTVS_TPSA>
113

> <PUBCHEM_MONOISOTOPIC_WEIGHT>
586.279135

> <PUBCHEM_TOTAL_CHARGE>
0

> <PUBCHEM_HEAVY_ATOM_COUNT>
43

> <PUBCHEM_ATOM_DEF_STEREO_COUNT>
1

> <PUBCHEM_ATOM_UDEF_STEREO_COUNT>
0

> <PUBCHEM_BOND_DEF_STEREO_COUNT>
0

> <PUBCHEM_BOND_UDEF_STEREO_COUNT>
0

> <PUBCHEM_ISOTOPIC_ATOM_COUNT>
0

> <PUBCHEM_COMPONENT_COUNT>
1

> <PUBCHEM_CACTVS_TAUTO_COUNT>
1

> <PUBCHEM_COORDINATE_TYPE>
1
5
255

> <PUBCHEM_BONDANNOTATIONS>
10  27  8
10  35  8
22  30  8
23  27  8
23  29  8
25  28  8
25  30  8
28  31  8
29  32  8
32  35  8
32  39  8
35  40  8
38  39  8
38  41  8
26  4  5
40  41  8
9  22  8
9  31  8

$$$$

