24892801
  -OEChem-07051213092D

 27 26  0     1  0  0  0  0  0999 V2000
    5.0981   -2.5981    0.0000 O   0  0  0  0  0  0  0  0  0  0  0  0
    6.3301   -1.7320    0.0000 O   0  0  0  0  0  0  0  0  0  0  0  0
    5.4641   -0.2321    0.0000 O   0  0  0  0  0  0  0  0  0  0  0  0
    2.0000   -2.2320    0.0000 O   0  0  0  0  0  0  0  0  0  0  0  0
    2.8660   -0.7321    0.0000 O   0  0  0  0  0  0  0  0  0  0  0  0
    4.0981    2.5981    0.0000 O   0  0  0  0  0  0  0  0  0  0  0  0
    5.5981    1.7320    0.0000 O   0  0  0  0  0  0  0  0  0  0  0  0
    4.5981   -1.7320    0.0000 C   0  0  2  0  0  0  0  0  0  0  0  0
    4.0981   -0.8660    0.0000 C   0  0  0  0  0  0  0  0  0  0  0  0
    4.5981    0.0000    0.0000 C   0  0  0  0  0  0  0  0  0  0  0  0
    3.7320   -2.2320    0.0000 C   0  0  0  0  0  0  0  0  0  0  0  0
    4.0981    0.8660    0.0000 C   0  0  0  0  0  0  0  0  0  0  0  0
    5.4641   -1.2320    0.0000 C   0  0  0  0  0  0  0  0  0  0  0  0
    2.8660   -1.7320    0.0000 C   0  0  0  0  0  0  0  0  0  0  0  0
    4.5981    1.7320    0.0000 C   0  0  0  0  0  0  0  0  0  0  0  0
    3.6231   -0.4675    0.0000 H   0  0  0  0  0  0  0  0  0  0  0  0
    3.6231   -1.2646    0.0000 H   0  0  0  0  0  0  0  0  0  0  0  0
    5.0730   -0.3985    0.0000 H   0  0  0  0  0  0  0  0  0  0  0  0
    5.0730    0.3985    0.0000 H   0  0  0  0  0  0  0  0  0  0  0  0
    3.3335   -2.7070    0.0000 H   0  0  0  0  0  0  0  0  0  0  0  0
    4.1306   -2.7070    0.0000 H   0  0  0  0  0  0  0  0  0  0  0  0
    3.6231    1.2646    0.0000 H   0  0  0  0  0  0  0  0  0  0  0  0
    3.6231    0.4675    0.0000 H   0  0  0  0  0  0  0  0  0  0  0  0
    4.7881   -3.1350    0.0000 H   0  0  0  0  0  0  0  0  0  0  0  0
    6.8671   -1.4220    0.0000 H   0  0  0  0  0  0  0  0  0  0  0  0
    2.0000   -2.8521    0.0000 H   0  0  0  0  0  0  0  0  0  0  0  0
    4.4081    3.1350    0.0000 H   0  0  0  0  0  0  0  0  0  0  0  0
  8  1  1  1  0  0  0
  1 24  1  0  0  0  0
  2 13  1  0  0  0  0
  2 25  1  0  0  0  0
  3 13  2  0  0  0  0
  4 14  1  0  0  0  0
  4 26  1  0  0  0  0
  5 14  2  0  0  0  0
  6 15  1  0  0  0  0
  6 27  1  0  0  0  0
  7 15  2  0  0  0  0
  8  9  1  0  0  0  0
  8 11  1  0  0  0  0
  8 13  1  0  0  0  0
  9 10  1  0  0  0  0
  9 16  1  0  0  0  0
  9 17  1  0  0  0  0
 10 12  1  0  0  0  0
 10 18  1  0  0  0  0
 10 19  1  0  0  0  0
 11 14  1  0  0  0  0
 11 20  1  0  0  0  0
 11 21  1  0  0  0  0
 12 15  1  0  0  0  0
 12 22  1  0  0  0  0
 12 23  1  0  0  0  0
M  END
> <PUBCHEM_COMPOUND_CID>
24892801

> <PUBCHEM_COMPOUND_CANONICALIZED>
1

> <PUBCHEM_CACTVS_COMPLEXITY>
272

> <PUBCHEM_CACTVS_HBOND_ACCEPTOR>
7

> <PUBCHEM_CACTVS_HBOND_DONOR>
4

> <PUBCHEM_CACTVS_ROTATABLE_BOND>
7

> <PUBCHEM_CACTVS_SUBSKEYS>
AAADccBwOAAAAAAAAAAAAAAAAAAAAAAAAAAAAAAAAAAAAAAAAAAAGgAACAAADESAgAAACAAAAgAIAACQCAIAAAAAAAAAAAFAAAABABYAAAAAQAAFIAABAAHL7DTOAAAAAAAAAAAAAAAAAAAAAAAAAAAAAA==

> <PUBCHEM_IUPAC_OPENEYE_NAME>
(2R)-2-hydroxypentane-1,2,5-tricarboxylic acid

> <PUBCHEM_IUPAC_CAS_NAME>
(2R)-2-hydroxypentane-1,2,5-tricarboxylic acid

> <PUBCHEM_IUPAC_NAME>
(2R)-2-hydroxypentane-1,2,5-tricarboxylic acid

> <PUBCHEM_IUPAC_SYSTEMATIC_NAME>
(2R)-2-oxidanylpentane-1,2,5-tricarboxylic acid

> <PUBCHEM_IUPAC_TRADITIONAL_NAME>
(2R)-2-hydroxypentane-1,2,5-tricarboxylic acid

> <PUBCHEM_IUPAC_INCHI>
InChI=1S/C8H12O7/c9-5(10)2-1-3-8(15,7(13)14)4-6(11)12/h15H,1-4H2,(H,9,10)(H,11,12)(H,13,14)/t8-/m1/s1

> <PUBCHEM_IUPAC_INCHIKEY>
LOUWLTSPEXZLSA-MRVPVSSYSA-N

> <PUBCHEM_XLOGP3_AA>
-1.3

> <PUBCHEM_EXACT_MASS>
220.058303

> <PUBCHEM_MOLECULAR_FORMULA>
C8H12O7

> <PUBCHEM_MOLECULAR_WEIGHT>
220.17668

> <PUBCHEM_OPENEYE_CAN_SMILES>
C(CC(=O)O)CC(CC(=O)O)(C(=O)O)O

> <PUBCHEM_OPENEYE_ISO_SMILES>
C(CC(=O)O)C[C@@](CC(=O)O)(C(=O)O)O

> <PUBCHEM_CACTVS_TPSA>
132

> <PUBCHEM_MONOISOTOPIC_WEIGHT>
220.058303

> <PUBCHEM_TOTAL_CHARGE>
0

> <PUBCHEM_HEAVY_ATOM_COUNT>
15

> <PUBCHEM_ATOM_DEF_STEREO_COUNT>
1

> <PUBCHEM_ATOM_UDEF_STEREO_COUNT>
0

> <PUBCHEM_BOND_DEF_STEREO_COUNT>
0

> <PUBCHEM_BOND_UDEF_STEREO_COUNT>
0

> <PUBCHEM_ISOTOPIC_ATOM_COUNT>
0

> <PUBCHEM_COMPONENT_COUNT>
1

> <PUBCHEM_CACTVS_TAUTO_COUNT>
1

> <PUBCHEM_COORDINATE_TYPE>
1
5
255

> <PUBCHEM_BONDANNOTATIONS>
8  1  5

$$$$

