13411
  -OEChem-06261209463D

 18 18  0     0  0  0  0  0  0999 V2000
   -2.6995    1.5894    0.0010 Cl  0  0  0  0  0  0  0  0  0  0  0  0
   -2.6990   -1.5904   -0.0005 Cl  0  0  0  0  0  0  0  0  0  0  0  0
    2.6989    1.5906   -0.0003 Cl  0  0  0  0  0  0  0  0  0  0  0  0
    2.6996   -1.5894   -0.0003 Cl  0  0  0  0  0  0  0  0  0  0  0  0
   -0.0003    1.3949    0.0006 C   0  0  0  0  0  0  0  0  0  0  0  0
    0.0002   -1.3950    0.0002 C   0  0  0  0  0  0  0  0  0  0  0  0
   -1.2081    0.6972   -0.0001 C   0  0  0  0  0  0  0  0  0  0  0  0
   -1.2079   -0.6977   -0.0003 C   0  0  0  0  0  0  0  0  0  0  0  0
    1.2078    0.6977    0.0010 C   0  0  0  0  0  0  0  0  0  0  0  0
    1.2082   -0.6973    0.0009 C   0  0  0  0  0  0  0  0  0  0  0  0
   -0.0007    2.8952   -0.0016 C   0  0  0  0  0  0  0  0  0  0  0  0
    0.0006   -2.8953   -0.0005 C   0  0  0  0  0  0  0  0  0  0  0  0
   -0.0029    3.2703    1.0270 H   0  0  0  0  0  0  0  0  0  0  0  0
    0.8570    3.3231   -0.5288 H   0  0  0  0  0  0  0  0  0  0  0  0
   -0.8567    3.3220   -0.5322 H   0  0  0  0  0  0  0  0  0  0  0  0
    0.0021   -3.2684   -1.0300 H   0  0  0  0  0  0  0  0  0  0  0  0
    0.8569   -3.3232    0.5287 H   0  0  0  0  0  0  0  0  0  0  0  0
   -0.8568   -3.3239    0.5263 H   0  0  0  0  0  0  0  0  0  0  0  0
  1  7  1  0  0  0  0
  2  8  1  0  0  0  0
  3  9  1  0  0  0  0
  4 10  1  0  0  0  0
  5  7  2  0  0  0  0
  5  9  1  0  0  0  0
  5 11  1  0  0  0  0
  6  8  2  0  0  0  0
  6 10  1  0  0  0  0
  6 12  1  0  0  0  0
  7  8  1  0  0  0  0
  9 10  2  0  0  0  0
 11 13  1  0  0  0  0
 11 14  1  0  0  0  0
 11 15  1  0  0  0  0
 12 16  1  0  0  0  0
 12 17  1  0  0  0  0
 12 18  1  0  0  0  0
M  END
> <PUBCHEM_COMPOUND_CID>
13411

> <PUBCHEM_CONFORMER_RMSD>
0.4

> <PUBCHEM_CONFORMER_DIVERSEORDER>
1

> <PUBCHEM_MMFF94_PARTIAL_CHARGES>
12
1 -0.18
10 0.18
11 0.14
12 0.14
2 -0.18
3 -0.18
4 -0.18
5 -0.14
6 -0.14
7 0.18
8 0.18
9 0.18

> <PUBCHEM_EFFECTIVE_ROTOR_COUNT>
0

> <PUBCHEM_PHARMACOPHORE_FEATURES>
1
6 5 6 7 8 9 10 rings

> <PUBCHEM_HEAVY_ATOM_COUNT>
12

> <PUBCHEM_ATOM_DEF_STEREO_COUNT>
0

> <PUBCHEM_ATOM_UDEF_STEREO_COUNT>
0

> <PUBCHEM_BOND_DEF_STEREO_COUNT>
0

> <PUBCHEM_BOND_UDEF_STEREO_COUNT>
0

> <PUBCHEM_ISOTOPIC_ATOM_COUNT>
0

> <PUBCHEM_COMPONENT_COUNT>
1

> <PUBCHEM_CACTVS_TAUTO_COUNT>
1

> <PUBCHEM_CONFORMER_ID>
0000346300000001

> <PUBCHEM_MMFF94_ENERGY>
38.5343

> <PUBCHEM_FEATURE_SELFOVERLAP>
5.074

> <PUBCHEM_SHAPE_FINGERPRINT>
10967382 1 18122343746465118597
11206711 2 18267584602751919549
12423570 1 14080320741365994756
13140716 1 18410856606884430280
16945 1 18129097994833788045
193761 8 18410855464423129095
20588541 1 18123185697552253270
21040471 1 18410575037571627328
21501502 16 18410573985151451141
2334 1 18410575054598307847
23526114 1 18410573985162000757
23552423 10 18343300375001769454
23559900 14 18190174780259491982
241688 4 18410856593999567259
2748010 2 18410855464423129191
528886 8 18338240491009663667
53812653 166 18262238811334954113
66348 1 18410575106137915395

> <PUBCHEM_SHAPE_MULTIPOLES>
254.43
3.67
3.35
0.63
0
0
0
0
0
0
0
0
0
0

> <PUBCHEM_SHAPE_SELFOVERLAP>
496.217

> <PUBCHEM_SHAPE_VOLUME>
150.1

> <PUBCHEM_COORDINATE_TYPE>
2
5
10

$$$$

