21145112
  -OEChem-07051212502D

 76 79  0     1  0  0  0  0  0999 V2000
    8.5677    1.8886    0.0000 O   0  0  0  0  0  0  0  0  0  0  0  0
   10.2715    0.7134    0.0000 O   0  0  0  0  0  0  0  0  0  0  0  0
    2.5357   -2.4201    0.0000 O   0  0  0  0  0  0  0  0  0  0  0  0
    7.9288    0.6323    0.0000 C   0  0  1  0  0  0  0  0  0  0  0  0
    7.9288   -0.3677    0.0000 C   0  0  2  0  0  0  0  0  0  0  0  0
    7.0628   -0.8677    0.0000 C   0  0  1  0  0  0  0  0  0  0  0  0
    8.8750    0.9370    0.0000 C   0  0  1  0  0  0  0  0  0  0  0  0
    6.1968   -0.3677    0.0000 C   0  0  1  0  0  0  0  0  0  0  0  0
    7.0628    1.1323    0.0000 C   0  0  0  0  0  0  0  0  0  0  0  0
    8.8750   -0.6725    0.0000 C   0  0  0  0  0  0  0  0  0  0  0  0
    5.2868   -0.8746    0.0000 C   0  0  2  0  0  0  0  0  0  0  0  0
    6.1968    0.6323    0.0000 C   0  0  0  0  0  0  0  0  0  0  0  0
    9.4586    0.1323    0.0000 C   0  0  0  0  0  0  0  0  0  0  0  0
    9.6851    1.5234    0.0000 C   0  0  2  0  0  0  0  0  0  0  0  0
    7.0789   -1.9092    0.0000 C   0  0  0  0  0  0  0  0  0  0  0  0
    7.5868    1.5720    0.0000 C   0  0  0  0  0  0  0  0  0  0  0  0
    5.2787   -1.9162    0.0000 C   0  0  0  0  0  0  0  0  0  0  0  0
    4.3599   -0.3105    0.0000 C   0  0  0  0  0  0  0  0  0  0  0  0
    6.1808   -2.4370    0.0000 C   0  0  0  0  0  0  0  0  0  0  0  0
    5.2945    0.1254    0.0000 C   0  0  0  0  0  0  0  0  0  0  0  0
   10.4951    2.1098    0.0000 C   0  0  0  0  0  0  0  0  0  0  0  0
    4.3433   -2.4659    0.0000 C   0  0  0  0  0  0  0  0  0  0  0  0
    3.4120   -0.8384    0.0000 C   0  0  0  0  0  0  0  0  0  0  0  0
    9.0987    2.3334    0.0000 C   0  0  0  0  0  0  0  0  0  0  0  0
    3.4037   -1.9234    0.0000 C   0  0  2  0  0  0  0  0  0  0  0  0
   11.4079    1.7014    0.0000 C   0  0  0  0  0  0  0  0  0  0  0  0
   12.2180    2.2878    0.0000 C   0  0  0  0  0  0  0  0  0  0  0  0
   13.1308    1.8795    0.0000 C   0  0  0  0  0  0  0  0  0  0  0  0
   13.9409    2.4659    0.0000 C   0  0  0  0  0  0  0  0  0  0  0  0
   13.2336    0.8848    0.0000 C   0  0  0  0  0  0  0  0  0  0  0  0
    8.0188   -1.2130    0.0000 H   0  0  0  0  0  0  0  0  0  0  0  0
    7.8022   -1.2870    0.0000 H   0  0  0  0  0  0  0  0  0  0  0  0
    6.9329    0.0573    0.0000 H   0  0  0  0  0  0  0  0  0  0  0  0
    7.4613    1.6072    0.0000 H   0  0  0  0  0  0  0  0  0  0  0  0
    6.6643    1.6072    0.0000 H   0  0  0  0  0  0  0  0  0  0  0  0
    8.6240   -1.2394    0.0000 H   0  0  0  0  0  0  0  0  0  0  0  0
    9.4124   -0.9817    0.0000 H   0  0  0  0  0  0  0  0  0  0  0  0
    5.9847    1.2149    0.0000 H   0  0  0  0  0  0  0  0  0  0  0  0
    5.5862    0.5246    0.0000 H   0  0  0  0  0  0  0  0  0  0  0  0
    9.9195   -0.2825    0.0000 H   0  0  0  0  0  0  0  0  0  0  0  0
    9.9195    0.5470    0.0000 H   0  0  0  0  0  0  0  0  0  0  0  0
    7.2969   -2.4896    0.0000 H   0  0  0  0  0  0  0  0  0  0  0  0
    7.6880   -1.7937    0.0000 H   0  0  0  0  0  0  0  0  0  0  0  0
    8.1694    1.7840    0.0000 H   0  0  0  0  0  0  0  0  0  0  0  0
    7.3748    2.1546    0.0000 H   0  0  0  0  0  0  0  0  0  0  0  0
    7.0042    1.3599    0.0000 H   0  0  0  0  0  0  0  0  0  0  0  0
    4.7681    0.1562    0.0000 H   0  0  0  0  0  0  0  0  0  0  0  0
    3.9700    0.1715    0.0000 H   0  0  0  0  0  0  0  0  0  0  0  0
    6.1832   -3.0570    0.0000 H   0  0  0  0  0  0  0  0  0  0  0  0
    5.9145    0.1206    0.0000 H   0  0  0  0  0  0  0  0  0  0  0  0
    5.2993    0.7454    0.0000 H   0  0  0  0  0  0  0  0  0  0  0  0
    4.6745    0.1302    0.0000 H   0  0  0  0  0  0  0  0  0  0  0  0
    8.0424    2.2180    0.0000 H   0  0  0  0  0  0  0  0  0  0  0  0
   10.8427    2.6232    0.0000 H   0  0  0  0  0  0  0  0  0  0  0  0
   10.0499    2.5412    0.0000 H   0  0  0  0  0  0  0  0  0  0  0  0
    3.9460   -2.9419    0.0000 H   0  0  0  0  0  0  0  0  0  0  0  0
    4.7443   -2.9388    0.0000 H   0  0  0  0  0  0  0  0  0  0  0  0
    3.2075   -0.2532    0.0000 H   0  0  0  0  0  0  0  0  0  0  0  0
    2.8004   -0.9398    0.0000 H   0  0  0  0  0  0  0  0  0  0  0  0
    9.6009    2.6970    0.0000 H   0  0  0  0  0  0  0  0  0  0  0  0
    8.7351    2.8356    0.0000 H   0  0  0  0  0  0  0  0  0  0  0  0
    8.5965    1.9699    0.0000 H   0  0  0  0  0  0  0  0  0  0  0  0
    3.4025   -2.5434    0.0000 H   0  0  0  0  0  0  0  0  0  0  0  0
   10.8882    0.7771    0.0000 H   0  0  0  0  0  0  0  0  0  0  0  0
   11.0604    1.1880    0.0000 H   0  0  0  0  0  0  0  0  0  0  0  0
   11.8532    1.2700    0.0000 H   0  0  0  0  0  0  0  0  0  0  0  0
   12.5656    2.8012    0.0000 H   0  0  0  0  0  0  0  0  0  0  0  0
   11.7727    2.7193    0.0000 H   0  0  0  0  0  0  0  0  0  0  0  0
    2.0000   -2.1080    0.0000 H   0  0  0  0  0  0  0  0  0  0  0  0
   13.6968    1.6264    0.0000 H   0  0  0  0  0  0  0  0  0  0  0  0
   12.6169    0.8211    0.0000 H   0  0  0  0  0  0  0  0  0  0  0  0
   13.2974    0.2681    0.0000 H   0  0  0  0  0  0  0  0  0  0  0  0
   13.8503    0.9486    0.0000 H   0  0  0  0  0  0  0  0  0  0  0  0
   14.3044    1.9637    0.0000 H   0  0  0  0  0  0  0  0  0  0  0  0
   14.4431    2.8295    0.0000 H   0  0  0  0  0  0  0  0  0  0  0  0
   13.5773    2.9681    0.0000 H   0  0  0  0  0  0  0  0  0  0  0  0
  7  1  1  6  0  0  0
  1 53  1  0  0  0  0
 14  2  1  1  0  0  0
  2 64  1  0  0  0  0
 25  3  1  1  0  0  0
  3 69  1  0  0  0  0
  4  5  1  0  0  0  0
  4  7  1  0  0  0  0
  4  9  1  0  0  0  0
  4 16  1  1  0  0  0
  5  6  1  0  0  0  0
  5 10  1  0  0  0  0
  5 31  1  6  0  0  0
  6  8  1  0  0  0  0
  6 15  1  0  0  0  0
  6 32  1  1  0  0  0
  7 13  1  0  0  0  0
  7 14  1  0  0  0  0
  8 11  1  0  0  0  0
  8 12  1  0  0  0  0
  8 33  1  6  0  0  0
  9 12  1  0  0  0  0
  9 34  1  0  0  0  0
  9 35  1  0  0  0  0
 10 13  1  0  0  0  0
 10 36  1  0  0  0  0
 10 37  1  0  0  0  0
 11 17  1  0  0  0  0
 11 18  1  0  0  0  0
 11 20  1  1  0  0  0
 12 38  1  0  0  0  0
 12 39  1  0  0  0  0
 13 40  1  0  0  0  0
 13 41  1  0  0  0  0
 14 21  1  0  0  0  0
 14 24  1  0  0  0  0
 15 19  1  0  0  0  0
 15 42  1  0  0  0  0
 15 43  1  0  0  0  0
 16 44  1  0  0  0  0
 16 45  1  0  0  0  0
 16 46  1  0  0  0  0
 17 19  2  0  0  0  0
 17 22  1  0  0  0  0
 18 23  1  0  0  0  0
 18 47  1  0  0  0  0
 18 48  1  0  0  0  0
 19 49  1  0  0  0  0
 20 50  1  0  0  0  0
 20 51  1  0  0  0  0
 20 52  1  0  0  0  0
 21 26  1  0  0  0  0
 21 54  1  0  0  0  0
 21 55  1  0  0  0  0
 22 25  1  0  0  0  0
 22 56  1  0  0  0  0
 22 57  1  0  0  0  0
 23 25  1  0  0  0  0
 23 58  1  0  0  0  0
 23 59  1  0  0  0  0
 24 60  1  0  0  0  0
 24 61  1  0  0  0  0
 24 62  1  0  0  0  0
 25 63  1  0  0  0  0
 26 27  1  0  0  0  0
 26 65  1  0  0  0  0
 26 66  1  0  0  0  0
 27 28  1  0  0  0  0
 27 67  1  0  0  0  0
 27 68  1  0  0  0  0
 28 29  1  0  0  0  0
 28 30  1  0  0  0  0
 28 70  1  0  0  0  0
 29 74  1  0  0  0  0
 29 75  1  0  0  0  0
 29 76  1  0  0  0  0
 30 71  1  0  0  0  0
 30 72  1  0  0  0  0
 30 73  1  0  0  0  0
M  END
> <PUBCHEM_COMPOUND_CID>
21145112

> <PUBCHEM_COMPOUND_CANONICALIZED>
1

> <PUBCHEM_CACTVS_COMPLEXITY>
686

> <PUBCHEM_CACTVS_HBOND_ACCEPTOR>
3

> <PUBCHEM_CACTVS_HBOND_DONOR>
3

> <PUBCHEM_CACTVS_ROTATABLE_BOND>
5

> <PUBCHEM_CACTVS_SUBSKEYS>
AAADcfB4MAAAAAAAAAAAAAAAAAAAAYAAAAAwYIAAAAAAAGCAAAAAGgAACAAAD1SggAICAAAAAgCAAiBCAAAAAAAgAAAACAAAAAgBEAIAAQAAQAAEwAAJAAOAwPAPgAAAAAAAAADAAAQAACAAAYAADAAAAA==

> <PUBCHEM_IUPAC_OPENEYE_NAME>
(3S,8R,9S,10R,13S,14S,17R)-17-[(1S)-1-hydroxy-1,5-dimethyl-hexyl]-10,13-dimethyl-1,2,3,4,7,8,9,11,12,14,15,16-dodecahydrocyclopenta[a]phenanthrene-3,17-diol

> <PUBCHEM_IUPAC_CAS_NAME>
(3S,8R,9S,10R,13S,14S,17R)-17-[(2S)-2-hydroxy-6-methylheptan-2-yl]-10,13-dimethyl-1,2,3,4,7,8,9,11,12,14,15,16-dodecahydrocyclopenta[a]phenanthrene-3,17-diol

> <PUBCHEM_IUPAC_NAME>
(3S,8R,9S,10R,13S,14S,17R)-17-[(2S)-2-hydroxy-6-methylheptan-2-yl]-10,13-dimethyl-1,2,3,4,7,8,9,11,12,14,15,16-dodecahydrocyclopenta[a]phenanthrene-3,17-diol

> <PUBCHEM_IUPAC_SYSTEMATIC_NAME>
(3S,8R,9S,10R,13S,14S,17R)-10,13-dimethyl-17-[(2S)-6-methyl-2-oxidanyl-heptan-2-yl]-1,2,3,4,7,8,9,11,12,14,15,16-dodecahydrocyclopenta[a]phenanthrene-3,17-diol

> <PUBCHEM_IUPAC_TRADITIONAL_NAME>
(3S,8R,9S,10R,13S,14S,17R)-17-[(1S)-1-hydroxy-1,5-dimethyl-hexyl]-10,13-dimethyl-1,2,3,4,7,8,9,11,12,14,15,16-dodecahydrocyclopenta[a]phenanthrene-3,17-diol

> <PUBCHEM_IUPAC_INCHI>
InChI=1S/C27H46O3/c1-18(2)7-6-13-26(5,29)27(30)16-12-23-21-9-8-19-17-20(28)10-14-24(19,3)22(21)11-15-25(23,27)4/h8,18,20-23,28-30H,6-7,9-17H2,1-5H3/t20-,21+,22-,23-,24-,25-,26-,27+/m0/s1

> <PUBCHEM_IUPAC_INCHIKEY>
PRZXKPDANWDCNC-LUWBJXLVSA-N

> <PUBCHEM_XLOGP3_AA>
5.3

> <PUBCHEM_EXACT_MASS>
418.344695

> <PUBCHEM_MOLECULAR_FORMULA>
C27H46O3

> <PUBCHEM_MOLECULAR_WEIGHT>
418.65234

> <PUBCHEM_OPENEYE_CAN_SMILES>
CC(C)CCCC(C)(C1(CCC2C1(CCC3C2CC=C4C3(CCC(C4)O)C)C)O)O

> <PUBCHEM_OPENEYE_ISO_SMILES>
CC(C)CCC[C@@](C)([C@]1(CC[C@@H]2[C@@]1(CC[C@H]3[C@H]2CC=C4[C@@]3(CC[C@@H](C4)O)C)C)O)O

> <PUBCHEM_CACTVS_TPSA>
60.7

> <PUBCHEM_MONOISOTOPIC_WEIGHT>
418.344695

> <PUBCHEM_TOTAL_CHARGE>
0

> <PUBCHEM_HEAVY_ATOM_COUNT>
30

> <PUBCHEM_ATOM_DEF_STEREO_COUNT>
8

> <PUBCHEM_ATOM_UDEF_STEREO_COUNT>
0

> <PUBCHEM_BOND_DEF_STEREO_COUNT>
0

> <PUBCHEM_BOND_UDEF_STEREO_COUNT>
0

> <PUBCHEM_ISOTOPIC_ATOM_COUNT>
0

> <PUBCHEM_COMPONENT_COUNT>
1

> <PUBCHEM_CACTVS_TAUTO_COUNT>
1

> <PUBCHEM_COORDINATE_TYPE>
1
5
255

> <PUBCHEM_BONDANNOTATIONS>
7  1  6
11  20  5
14  2  5
25  3  5
4  16  5
5  31  6
6  32  5
8  33  6

$$$$

