6438
  -OEChem-06261201193D

 27 28  0     1  0  0  0  0  0999 V2000
   -3.0624   -0.8474    0.1610 Br  0  0  0  0  0  0  0  0  0  0  0  0
   -1.4734    1.9489    0.1927 O   0  0  0  0  0  0  0  0  0  0  0  0
    1.1062   -0.4214    0.4903 C   0  0  0  0  0  0  0  0  0  0  0  0
    0.5477    0.7001   -0.4341 C   0  0  1  0  0  0  0  0  0  0  0  0
   -0.1567   -1.3171    0.2699 C   0  0  2  0  0  0  0  0  0  0  0  0
    0.2381   -0.0332   -1.7580 C   0  0  0  0  0  0  0  0  0  0  0  0
   -0.1878   -1.4376   -1.2796 C   0  0  0  0  0  0  0  0  0  0  0  0
   -1.3011   -0.4111    0.7809 C   0  0  1  0  0  0  0  0  0  0  0  0
   -0.8423    0.9030    0.1899 C   0  0  0  0  0  0  0  0  0  0  0  0
    2.4256   -1.0622    0.0131 C   0  0  0  0  0  0  0  0  0  0  0  0
    1.3445    0.0143    1.9521 C   0  0  0  0  0  0  0  0  0  0  0  0
    1.3616    1.9635   -0.5782 C   0  0  0  0  0  0  0  0  0  0  0  0
   -0.1241   -2.2895    0.7685 H   0  0  0  0  0  0  0  0  0  0  0  0
    1.1118   -0.0946   -2.4156 H   0  0  0  0  0  0  0  0  0  0  0  0
   -0.5702    0.4493   -2.3199 H   0  0  0  0  0  0  0  0  0  0  0  0
   -1.1573   -1.7300   -1.6892 H   0  0  0  0  0  0  0  0  0  0  0  0
    0.5258   -2.1935   -1.6257 H   0  0  0  0  0  0  0  0  0  0  0  0
   -1.3354   -0.3523    1.8710 H   0  0  0  0  0  0  0  0  0  0  0  0
    3.2654   -0.3720    0.1549 H   0  0  0  0  0  0  0  0  0  0  0  0
    2.4386   -1.3437   -1.0419 H   0  0  0  0  0  0  0  0  0  0  0  0
    2.6381   -1.9684    0.5917 H   0  0  0  0  0  0  0  0  0  0  0  0
    2.2653    0.6032    2.0371 H   0  0  0  0  0  0  0  0  0  0  0  0
    1.4497   -0.8637    2.5992 H   0  0  0  0  0  0  0  0  0  0  0  0
    0.5500    0.6391    2.3686 H   0  0  0  0  0  0  0  0  0  0  0  0
    0.8683    2.6710   -1.2538 H   0  0  0  0  0  0  0  0  0  0  0  0
    1.4851    2.4708    0.3844 H   0  0  0  0  0  0  0  0  0  0  0  0
    2.3566    1.7531   -0.9826 H   0  0  0  0  0  0  0  0  0  0  0  0
  1  8  1  0  0  0  0
  2  9  2  0  0  0  0
  3  4  1  0  0  0  0
  3  5  1  0  0  0  0
  3 10  1  0  0  0  0
  3 11  1  0  0  0  0
  4  6  1  0  0  0  0
  4  9  1  0  0  0  0
  4 12  1  0  0  0  0
  5  7  1  0  0  0  0
  5  8  1  0  0  0  0
  5 13  1  0  0  0  0
  6  7  1  0  0  0  0
  6 14  1  0  0  0  0
  6 15  1  0  0  0  0
  7 16  1  0  0  0  0
  7 17  1  0  0  0  0
  8  9  1  0  0  0  0
  8 18  1  0  0  0  0
 10 19  1  0  0  0  0
 10 20  1  0  0  0  0
 10 21  1  0  0  0  0
 11 22  1  0  0  0  0
 11 23  1  0  0  0  0
 11 24  1  0  0  0  0
 12 25  1  0  0  0  0
 12 26  1  0  0  0  0
 12 27  1  0  0  0  0
M  END
> <PUBCHEM_COMPOUND_CID>
6438

> <PUBCHEM_CONFORMER_RMSD>
0.4

> <PUBCHEM_CONFORMER_DIVERSEORDER>
4
1
2
3

> <PUBCHEM_MMFF94_PARTIAL_CHARGES>
5
1 -0.23
2 -0.57
4 0.06
8 0.29
9 0.45

> <PUBCHEM_EFFECTIVE_ROTOR_COUNT>
0.8

> <PUBCHEM_PHARMACOPHORE_FEATURES>
4
1 1 hydrophobe
1 2 acceptor
3 3 10 11 hydrophobe
7 3 4 5 6 7 8 9 rings

> <PUBCHEM_HEAVY_ATOM_COUNT>
12

> <PUBCHEM_ATOM_DEF_STEREO_COUNT>
0

> <PUBCHEM_ATOM_UDEF_STEREO_COUNT>
3

> <PUBCHEM_BOND_DEF_STEREO_COUNT>
0

> <PUBCHEM_BOND_UDEF_STEREO_COUNT>
0

> <PUBCHEM_ISOTOPIC_ATOM_COUNT>
0

> <PUBCHEM_COMPONENT_COUNT>
1

> <PUBCHEM_CACTVS_TAUTO_COUNT>
2

> <PUBCHEM_CONFORMER_ID>
0000192600000004

> <PUBCHEM_MMFF94_ENERGY>
53.5306

> <PUBCHEM_FEATURE_SELFOVERLAP>
20.297

> <PUBCHEM_SHAPE_FINGERPRINT>
10702982 57 17688866441243757758
12423570 1 6383771013479720910
13024252 1 15833447540378018618
137420 1 6951861742270027854
14817 1 14169483978936433860
15557651 10 17386278775379544664
16945 1 18199449013897731802
2748010 2 17188116333289870637
5084963 1 18186517717635980443
528886 8 17753304510101187597

> <PUBCHEM_SHAPE_MULTIPOLES>
247.03
2.9
1.78
1.46
1.81
0.68
-0.01
-0.5
-0.47
-0.28
0.21
-0.42
-0.21
-0.25

> <PUBCHEM_SHAPE_SELFOVERLAP>
511.55

> <PUBCHEM_SHAPE_VOLUME>
149.4

> <PUBCHEM_COORDINATE_TYPE>
2
5
10

$$$$

