11954173
  -OEChem-07051213072D

 50 53  0     1  0  0  0  0  0999 V2000
   10.1642    1.1623    0.0000 O   0  0  0  0  0  0  0  0  0  0  0  0
    2.5357   -3.3515    0.0000 O   0  0  0  0  0  0  0  0  0  0  0  0
   11.7640    3.2695    0.0000 O   0  0  0  0  0  0  0  0  0  0  0  0
   12.1212    1.5747    0.0000 O   0  0  0  0  0  0  0  0  0  0  0  0
    9.1857    0.9560    0.0000 N   0  0  0  0  0  0  0  0  0  0  0  0
    7.9288   -1.2992    0.0000 C   0  0  2  0  0  0  0  0  0  0  0  0
    7.9288   -0.2992    0.0000 C   0  0  2  0  0  0  0  0  0  0  0  0
    7.0628   -1.7992    0.0000 C   0  0  1  0  0  0  0  0  0  0  0  0
    6.1968   -1.2992    0.0000 C   0  0  2  0  0  0  0  0  0  0  0  0
    7.0628    0.2008    0.0000 C   0  0  0  0  0  0  0  0  0  0  0  0
    8.8750   -1.6039    0.0000 C   0  0  0  0  0  0  0  0  0  0  0  0
    6.1968   -0.2992    0.0000 C   0  0  0  0  0  0  0  0  0  0  0  0
    8.8750    0.0055    0.0000 C   0  0  0  0  0  0  0  0  0  0  0  0
    7.0789   -2.8407    0.0000 C   0  0  0  0  0  0  0  0  0  0  0  0
    9.4586   -0.7992    0.0000 C   0  0  0  0  0  0  0  0  0  0  0  0
    7.9288    0.7008    0.0000 C   0  0  0  0  0  0  0  0  0  0  0  0
    5.2868   -1.8060    0.0000 C   0  0  0  0  0  0  0  0  0  0  0  0
    6.1808   -3.3685    0.0000 C   0  0  0  0  0  0  0  0  0  0  0  0
    5.2787   -2.8476    0.0000 C   0  0  0  0  0  0  0  0  0  0  0  0
    4.3599   -1.2420    0.0000 C   0  0  0  0  0  0  0  0  0  0  0  0
    4.3433   -3.3974    0.0000 C   0  0  0  0  0  0  0  0  0  0  0  0
    3.4120   -1.7699    0.0000 C   0  0  0  0  0  0  0  0  0  0  0  0
    3.4037   -2.8549    0.0000 C   0  0  0  0  0  0  0  0  0  0  0  0
   10.4749    2.1128    0.0000 C   0  0  0  0  0  0  0  0  0  0  0  0
   11.4534    2.3190    0.0000 C   0  0  0  0  0  0  0  0  0  0  0  0
    8.0188   -2.1444    0.0000 H   0  0  0  0  0  0  0  0  0  0  0  0
    7.8022   -2.2185    0.0000 H   0  0  0  0  0  0  0  0  0  0  0  0
    6.9329   -0.8742    0.0000 H   0  0  0  0  0  0  0  0  0  0  0  0
    7.4613    0.6757    0.0000 H   0  0  0  0  0  0  0  0  0  0  0  0
    6.6643    0.6757    0.0000 H   0  0  0  0  0  0  0  0  0  0  0  0
    8.6240   -2.1708    0.0000 H   0  0  0  0  0  0  0  0  0  0  0  0
    9.4124   -1.9132    0.0000 H   0  0  0  0  0  0  0  0  0  0  0  0
    5.9847    0.2834    0.0000 H   0  0  0  0  0  0  0  0  0  0  0  0
    5.5862   -0.4069    0.0000 H   0  0  0  0  0  0  0  0  0  0  0  0
    7.2969   -3.4211    0.0000 H   0  0  0  0  0  0  0  0  0  0  0  0
    7.6880   -2.7252    0.0000 H   0  0  0  0  0  0  0  0  0  0  0  0
    9.9195   -1.2139    0.0000 H   0  0  0  0  0  0  0  0  0  0  0  0
    9.9195   -0.3845    0.0000 H   0  0  0  0  0  0  0  0  0  0  0  0
    8.5488    0.7008    0.0000 H   0  0  0  0  0  0  0  0  0  0  0  0
    7.9288    1.3208    0.0000 H   0  0  0  0  0  0  0  0  0  0  0  0
    7.3088    0.7008    0.0000 H   0  0  0  0  0  0  0  0  0  0  0  0
    5.7835   -3.8444    0.0000 H   0  0  0  0  0  0  0  0  0  0  0  0
    6.5818   -3.8414    0.0000 H   0  0  0  0  0  0  0  0  0  0  0  0
    4.3719   -0.6221    0.0000 H   0  0  0  0  0  0  0  0  0  0  0  0
    4.3457   -4.0174    0.0000 H   0  0  0  0  0  0  0  0  0  0  0  0
    2.8787   -1.4537    0.0000 H   0  0  0  0  0  0  0  0  0  0  0  0
   10.4543    2.7324    0.0000 H   0  0  0  0  0  0  0  0  0  0  0  0
    9.8611    2.2001    0.0000 H   0  0  0  0  0  0  0  0  0  0  0  0
    2.0000   -3.0395    0.0000 H   0  0  0  0  0  0  0  0  0  0  0  0
   12.3707    3.3974    0.0000 H   0  0  0  0  0  0  0  0  0  0  0  0
  1  5  1  0  0  0  0
  1 24  1  0  0  0  0
  2 23  1  0  0  0  0
  2 49  1  0  0  0  0
  3 25  1  0  0  0  0
  3 50  1  0  0  0  0
  4 25  2  0  0  0  0
  5 13  2  0  0  0  0
  6  7  1  0  0  0  0
  6  8  1  0  0  0  0
  6 11  1  0  0  0  0
  6 26  1  6  0  0  0
  7 10  1  0  0  0  0
  7 13  1  0  0  0  0
  7 16  1  1  0  0  0
  8  9  1  0  0  0  0
  8 14  1  0  0  0  0
  8 27  1  1  0  0  0
  9 12  1  0  0  0  0
  9 17  1  0  0  0  0
  9 28  1  6  0  0  0
 10 12  1  0  0  0  0
 10 29  1  0  0  0  0
 10 30  1  0  0  0  0
 11 15  1  0  0  0  0
 11 31  1  0  0  0  0
 11 32  1  0  0  0  0
 12 33  1  0  0  0  0
 12 34  1  0  0  0  0
 13 15  1  0  0  0  0
 14 18  1  0  0  0  0
 14 35  1  0  0  0  0
 14 36  1  0  0  0  0
 15 37  1  0  0  0  0
 15 38  1  0  0  0  0
 16 39  1  0  0  0  0
 16 40  1  0  0  0  0
 16 41  1  0  0  0  0
 17 19  2  0  0  0  0
 17 20  1  0  0  0  0
 18 19  1  0  0  0  0
 18 42  1  0  0  0  0
 18 43  1  0  0  0  0
 19 21  1  0  0  0  0
 20 22  2  0  0  0  0
 20 44  1  0  0  0  0
 21 23  2  0  0  0  0
 21 45  1  0  0  0  0
 22 23  1  0  0  0  0
 22 46  1  0  0  0  0
 24 25  1  0  0  0  0
 24 47  1  0  0  0  0
 24 48  1  0  0  0  0
M  END
> <PUBCHEM_COMPOUND_CID>
11954173

> <PUBCHEM_COMPOUND_CANONICALIZED>
1

> <PUBCHEM_CACTVS_COMPLEXITY>
562

> <PUBCHEM_CACTVS_HBOND_ACCEPTOR>
5

> <PUBCHEM_CACTVS_HBOND_DONOR>
2

> <PUBCHEM_CACTVS_ROTATABLE_BOND>
3

> <PUBCHEM_CACTVS_SUBSKEYS>
AAADceB6OAAAAAAAAAAAAAAAAAAAAYAAAAAwYMAAAAAAAGDBAAAAHgAECAAADwyhmAIyDoAQAgCoAyDyCAICAAAgIAAIiAB2CIgJJiKCERKAcAAkwBEJmAeAwPAPoAABAAAQAADAAAYAACAAAAAACAAAAA==

> <PUBCHEM_IUPAC_OPENEYE_NAME>
2-[(E)-[(8R,9S,13S,14S)-3-hydroxy-13-methyl-7,8,9,11,12,14,15,16-octahydro-6H-cyclopenta[a]phenanthren-17-ylidene]amino]oxyacetic acid

> <PUBCHEM_IUPAC_CAS_NAME>
2-[(E)-[(8R,9S,13S,14S)-3-hydroxy-13-methyl-7,8,9,11,12,14,15,16-octahydro-6H-cyclopenta[a]phenanthren-17-ylidene]amino]oxyacetic acid

> <PUBCHEM_IUPAC_NAME>
2-[(E)-[(8R,9S,13S,14S)-3-hydroxy-13-methyl-7,8,9,11,12,14,15,16-octahydro-6H-cyclopenta[a]phenanthren-17-ylidene]amino]oxyacetic acid

> <PUBCHEM_IUPAC_SYSTEMATIC_NAME>
2-[(E)-[(8R,9S,13S,14S)-13-methyl-3-oxidanyl-7,8,9,11,12,14,15,16-octahydro-6H-cyclopenta[a]phenanthren-17-ylidene]amino]oxyethanoic acid

> <PUBCHEM_IUPAC_TRADITIONAL_NAME>
2-[(E)-[(8R,9S,13S,14S)-3-hydroxy-13-methyl-7,8,9,11,12,14,15,16-octahydro-6H-cyclopenta[a]phenanthren-17-ylidene]amino]oxyacetic acid

> <PUBCHEM_IUPAC_INCHI>
InChI=1S/C20H25NO4/c1-20-9-8-15-14-5-3-13(22)10-12(14)2-4-16(15)17(20)6-7-18(20)21-25-11-19(23)24/h3,5,10,15-17,22H,2,4,6-9,11H2,1H3,(H,23,24)/b21-18+/t15-,16-,17+,20+/m1/s1

> <PUBCHEM_IUPAC_INCHIKEY>
UZKYYNQEKCAXLJ-YBFXVWRFSA-N

> <PUBCHEM_XLOGP3>
3.3

> <PUBCHEM_EXACT_MASS>
343.178358

> <PUBCHEM_MOLECULAR_FORMULA>
C20H25NO4

> <PUBCHEM_MOLECULAR_WEIGHT>
343.4168

> <PUBCHEM_OPENEYE_CAN_SMILES>
CC12CCC3C(C1CCC2=NOCC(=O)O)CCC4=C3C=CC(=C4)O

> <PUBCHEM_OPENEYE_ISO_SMILES>
C[C@]1\2CC[C@H]3[C@H]([C@@H]1CC/C2=N\OCC(=O)O)CCC4=C3C=CC(=C4)O

> <PUBCHEM_CACTVS_TPSA>
79.1

> <PUBCHEM_MONOISOTOPIC_WEIGHT>
343.178358

> <PUBCHEM_TOTAL_CHARGE>
0

> <PUBCHEM_HEAVY_ATOM_COUNT>
25

> <PUBCHEM_ATOM_DEF_STEREO_COUNT>
4

> <PUBCHEM_ATOM_UDEF_STEREO_COUNT>
0

> <PUBCHEM_BOND_DEF_STEREO_COUNT>
1

> <PUBCHEM_BOND_UDEF_STEREO_COUNT>
0

> <PUBCHEM_ISOTOPIC_ATOM_COUNT>
0

> <PUBCHEM_COMPONENT_COUNT>
1

> <PUBCHEM_CACTVS_TAUTO_COUNT>
18

> <PUBCHEM_COORDINATE_TYPE>
1
5
255

> <PUBCHEM_BONDANNOTATIONS>
17  19  8
17  20  8
19  21  8
20  22  8
21  23  8
22  23  8
6  26  6
7  16  5
8  27  5
9  28  6

$$$$

