249877
  -OEChem-07051213072D

 28 28  0     1  0  0  0  0  0999 V2000
    2.8660    1.4400    0.0000 O   0  0  0  0  0  0  0  0  0  0  0  0
    5.4641    0.9400    0.0000 O   0  0  0  0  0  0  0  0  0  0  0  0
    3.7320   -0.0600    0.0000 N   0  0  0  0  0  0  0  0  0  0  0  0
    4.5981    2.4400    0.0000 N   0  0  0  0  0  0  0  0  0  0  0  0
    5.4641    2.9400    0.0000 N   0  0  0  0  0  0  0  0  0  0  0  0
    2.8660   -0.5600    0.0000 C   0  0  3  0  0  0  0  0  0  0  0  0
    2.8660   -1.5600    0.0000 C   0  0  0  0  0  0  0  0  0  0  0  0
    2.0000   -0.0600    0.0000 C   0  0  0  0  0  0  0  0  0  0  0  0
    2.0000   -2.0600    0.0000 C   0  0  0  0  0  0  0  0  0  0  0  0
    3.7320   -2.0600    0.0000 C   0  0  0  0  0  0  0  0  0  0  0  0
    2.0000   -3.0600    0.0000 C   0  0  0  0  0  0  0  0  0  0  0  0
    3.7320   -3.0600    0.0000 C   0  0  0  0  0  0  0  0  0  0  0  0
    3.7320    0.9400    0.0000 C   0  0  0  0  0  0  0  0  0  0  0  0
    2.8660   -3.5600    0.0000 C   0  0  0  0  0  0  0  0  0  0  0  0
    4.5981    1.4400    0.0000 C   0  0  0  0  0  0  0  0  0  0  0  0
    2.8660    0.2900    0.0000 H   0  0  0  0  0  0  0  0  0  0  0  0
    2.3100    0.4769    0.0000 H   0  0  0  0  0  0  0  0  0  0  0  0
    1.4631    0.2500    0.0000 H   0  0  0  0  0  0  0  0  0  0  0  0
    1.6900   -0.5969    0.0000 H   0  0  0  0  0  0  0  0  0  0  0  0
    4.2690   -0.3700    0.0000 H   0  0  0  0  0  0  0  0  0  0  0  0
    1.4631   -1.7500    0.0000 H   0  0  0  0  0  0  0  0  0  0  0  0
    4.2690   -1.7500    0.0000 H   0  0  0  0  0  0  0  0  0  0  0  0
    1.4631   -3.3700    0.0000 H   0  0  0  0  0  0  0  0  0  0  0  0
    4.2690   -3.3700    0.0000 H   0  0  0  0  0  0  0  0  0  0  0  0
    2.8660   -4.1800    0.0000 H   0  0  0  0  0  0  0  0  0  0  0  0
    4.0611    2.7500    0.0000 H   0  0  0  0  0  0  0  0  0  0  0  0
    5.4641    3.5600    0.0000 H   0  0  0  0  0  0  0  0  0  0  0  0
    6.0010    2.6300    0.0000 H   0  0  0  0  0  0  0  0  0  0  0  0
  1 13  2  0  0  0  0
  2 15  2  0  0  0  0
  3  6  1  0  0  0  0
  3 13  1  0  0  0  0
  3 20  1  0  0  0  0
  4  5  1  0  0  0  0
  4 15  1  0  0  0  0
  4 26  1  0  0  0  0
  5 27  1  0  0  0  0
  5 28  1  0  0  0  0
  6  7  1  0  0  0  0
  6  8  1  0  0  0  0
  6 16  1  0  0  0  0
  7  9  2  0  0  0  0
  7 10  1  0  0  0  0
  8 17  1  0  0  0  0
  8 18  1  0  0  0  0
  8 19  1  0  0  0  0
  9 11  1  0  0  0  0
  9 21  1  0  0  0  0
 10 12  2  0  0  0  0
 10 22  1  0  0  0  0
 11 14  2  0  0  0  0
 11 23  1  0  0  0  0
 12 14  1  0  0  0  0
 12 24  1  0  0  0  0
 13 15  1  0  0  0  0
 14 25  1  0  0  0  0
M  END
> <PUBCHEM_COMPOUND_CID>
249877

> <PUBCHEM_COMPOUND_CANONICALIZED>
1

> <PUBCHEM_CACTVS_COMPLEXITY>
237

> <PUBCHEM_CACTVS_HBOND_ACCEPTOR>
3

> <PUBCHEM_CACTVS_HBOND_DONOR>
3

> <PUBCHEM_CACTVS_ROTATABLE_BOND>
2

> <PUBCHEM_CACTVS_SUBSKEYS>
AAADccBzMAAAAAAAAAAAAAAAAAAAAAAAAAAwAAAAAAAAAAABAAAAHgAYAAAADCjBmAQyAILiAACIAiFSEACCAAAgAAIaqICIBIgIYCKAkTGUIAhglgCIiAcQgIAOAAAAAAAAAAAAAAAAAAAAAAAAAAAAAA==

> <PUBCHEM_IUPAC_OPENEYE_NAME>
2-hydrazino-2-oxo-N-(1-phenylethyl)acetamide

> <PUBCHEM_IUPAC_CAS_NAME>
2-hydrazinyl-2-oxo-N-(1-phenylethyl)acetamide

> <PUBCHEM_IUPAC_NAME>
2-hydrazinyl-2-oxo-N-(1-phenylethyl)acetamide

> <PUBCHEM_IUPAC_SYSTEMATIC_NAME>
2-diazanyl-2-oxidanylidene-N-(1-phenylethyl)ethanamide

> <PUBCHEM_IUPAC_TRADITIONAL_NAME>
2-hydrazino-2-keto-N-(1-phenylethyl)acetamide

> <PUBCHEM_IUPAC_INCHI>
InChI=1S/C10H13N3O2/c1-7(8-5-3-2-4-6-8)12-9(14)10(15)13-11/h2-7H,11H2,1H3,(H,12,14)(H,13,15)

> <PUBCHEM_IUPAC_INCHIKEY>
UQXPGBTUPFWHEF-UHFFFAOYSA-N

> <PUBCHEM_XLOGP3_AA>
1

> <PUBCHEM_EXACT_MASS>
207.100777

> <PUBCHEM_MOLECULAR_FORMULA>
C10H13N3O2

> <PUBCHEM_MOLECULAR_WEIGHT>
207.22912

> <PUBCHEM_OPENEYE_CAN_SMILES>
CC(C1=CC=CC=C1)NC(=O)C(=O)NN

> <PUBCHEM_OPENEYE_ISO_SMILES>
CC(C1=CC=CC=C1)NC(=O)C(=O)NN

> <PUBCHEM_CACTVS_TPSA>
84.2

> <PUBCHEM_MONOISOTOPIC_WEIGHT>
207.100777

> <PUBCHEM_TOTAL_CHARGE>
0

> <PUBCHEM_HEAVY_ATOM_COUNT>
15

> <PUBCHEM_ATOM_DEF_STEREO_COUNT>
0

> <PUBCHEM_ATOM_UDEF_STEREO_COUNT>
1

> <PUBCHEM_BOND_DEF_STEREO_COUNT>
0

> <PUBCHEM_BOND_UDEF_STEREO_COUNT>
0

> <PUBCHEM_ISOTOPIC_ATOM_COUNT>
0

> <PUBCHEM_COMPONENT_COUNT>
1

> <PUBCHEM_CACTVS_TAUTO_COUNT>
8

> <PUBCHEM_COORDINATE_TYPE>
1
5
255

> <PUBCHEM_BONDANNOTATIONS>
10  12  8
11  14  8
12  14  8
6  16  3
7  10  8
7  9  8
9  11  8

$$$$

