442303
  -OEChem-07051212572D

 37 40  0     1  0  0  0  0  0999 V2000
    5.0316   -2.4597    0.0000 O   0  0  0  0  0  0  0  0  0  0  0  0
    3.3027   -0.8010    0.0000 O   0  0  0  0  0  0  0  0  0  0  0  0
    3.3407   -2.5770    0.0000 O   0  0  0  0  0  0  0  0  0  0  0  0
    2.0000    0.6964    0.0000 O   0  0  0  0  0  0  0  0  0  0  0  0
    4.8888   -0.5146    0.0000 C   0  0  1  0  0  0  0  0  0  0  0  0
    4.7528   -1.4994    0.0000 C   0  0  2  0  0  0  0  0  0  0  0  0
    3.9878   -0.0807    0.0000 C   0  0  2  0  0  0  0  0  0  0  0  0
    3.7653    0.8942    0.0000 C   0  0  1  0  0  0  0  0  0  0  0  0
    4.3888    1.6760    0.0000 C   0  0  2  0  0  0  0  0  0  0  0  0
    5.7898   -0.0807    0.0000 C   0  0  0  0  0  0  0  0  0  0  0  0
    5.3888    1.6760    0.0000 C   0  0  2  0  0  0  0  0  0  0  0  0
    5.7239   -1.7381    0.0000 C   0  0  0  0  0  0  0  0  0  0  0  0
    6.0123    0.8942    0.0000 C   0  0  0  0  0  0  0  0  0  0  0  0
    3.7745   -1.6760    0.0000 C   0  0  0  0  0  0  0  0  0  0  0  0
    2.8355    1.2459    0.0000 C   0  0  0  0  0  0  0  0  0  0  0  0
    3.1418    0.1124    0.0000 C   0  0  0  0  0  0  0  0  0  0  0  0
    3.8390    2.5042    0.0000 C   0  0  0  0  0  0  0  0  0  0  0  0
    2.8810    2.2389    0.0000 C   0  0  0  0  0  0  0  0  0  0  0  0
    5.8227    2.5770    0.0000 C   0  0  0  0  0  0  0  0  0  0  0  0
    5.5758   -1.0151    0.0000 H   0  0  0  0  0  0  0  0  0  0  0  0
    3.1682    0.1443    0.0000 H   0  0  0  0  0  0  0  0  0  0  0  0
    4.7906    2.4250    0.0000 H   0  0  0  0  0  0  0  0  0  0  0  0
    5.9277   -0.6852    0.0000 H   0  0  0  0  0  0  0  0  0  0  0  0
    6.4098   -0.0807    0.0000 H   0  0  0  0  0  0  0  0  0  0  0  0
    5.0589    2.2010    0.0000 H   0  0  0  0  0  0  0  0  0  0  0  0
    6.2390   -2.0832    0.0000 H   0  0  0  0  0  0  0  0  0  0  0  0
    5.9742   -1.1709    0.0000 H   0  0  0  0  0  0  0  0  0  0  0  0
    6.5709    0.6252    0.0000 H   0  0  0  0  0  0  0  0  0  0  0  0
    6.3989    1.3789    0.0000 H   0  0  0  0  0  0  0  0  0  0  0  0
    2.6571    0.4989    0.0000 H   0  0  0  0  0  0  0  0  0  0  0  0
    2.7553   -0.3724    0.0000 H   0  0  0  0  0  0  0  0  0  0  0  0
    3.6266   -0.2742    0.0000 H   0  0  0  0  0  0  0  0  0  0  0  0
    4.0559    3.0851    0.0000 H   0  0  0  0  0  0  0  0  0  0  0  0
    2.3963    2.6255    0.0000 H   0  0  0  0  0  0  0  0  0  0  0  0
    6.3813    2.3080    0.0000 H   0  0  0  0  0  0  0  0  0  0  0  0
    6.0917    3.1356    0.0000 H   0  0  0  0  0  0  0  0  0  0  0  0
    5.2641    2.8460    0.0000 H   0  0  0  0  0  0  0  0  0  0  0  0
  6  1  1  6  0  0  0
  1 12  1  0  0  0  0
  2  7  1  0  0  0  0
  2 14  1  0  0  0  0
  3 14  2  0  0  0  0
  4 15  2  0  0  0  0
  5  6  1  0  0  0  0
  5  7  1  0  0  0  0
  5 10  1  0  0  0  0
  5 20  1  6  0  0  0
  6 12  1  0  0  0  0
  6 14  1  0  0  0  0
  7  8  1  0  0  0  0
  7 21  1  6  0  0  0
  8  9  1  0  0  0  0
  8 15  1  0  0  0  0
  8 16  1  1  0  0  0
  9 11  1  0  0  0  0
  9 17  1  0  0  0  0
  9 22  1  6  0  0  0
 10 13  1  0  0  0  0
 10 23  1  0  0  0  0
 10 24  1  0  0  0  0
 11 13  1  0  0  0  0
 11 19  1  1  0  0  0
 11 25  1  0  0  0  0
 12 26  1  0  0  0  0
 12 27  1  0  0  0  0
 13 28  1  0  0  0  0
 13 29  1  0  0  0  0
 15 18  1  0  0  0  0
 16 30  1  0  0  0  0
 16 31  1  0  0  0  0
 16 32  1  0  0  0  0
 17 18  2  0  0  0  0
 17 33  1  0  0  0  0
 18 34  1  0  0  0  0
 19 35  1  0  0  0  0
 19 36  1  0  0  0  0
 19 37  1  0  0  0  0
M  END
> <PUBCHEM_COMPOUND_CID>
442303

> <PUBCHEM_COMPOUND_CANONICALIZED>
1

> <PUBCHEM_CACTVS_COMPLEXITY>
510

> <PUBCHEM_CACTVS_HBOND_ACCEPTOR>
4

> <PUBCHEM_CACTVS_HBOND_DONOR>
0

> <PUBCHEM_CACTVS_ROTATABLE_BOND>
0

> <PUBCHEM_CACTVS_SUBSKEYS>
AAADceBwOAAAAAAAAAAAAAAAEgAAASIAAAAAAAAABgAAAACQAAAAGgAAAAAAD1SggAICCAAABACIAKDSCAIAAAAgAAAICAFAAEgBABYAAQQCAAAFoAAKAYPKzPDPgAAAAAAAAAAAAAAAAAAAAAAAAAAAAA==

> <PUBCHEM_IUPAC_OPENEYE_NAME>
(3R,3aR,6S,6aR,9aR,9bR)-6,9a-dimethylspiro[3a,4,5,6,6a,9b-hexahydroazuleno[8,7-b]furan-3,2'-oxirane]-2,9-dione

> <PUBCHEM_IUPAC_CAS_NAME>
(3R,3aR,6S,6aR,9aR,9bR)-6,9a-dimethylspiro[3a,4,5,6,6a,9b-hexahydroazuleno[8,7-b]furan-3,2'-oxirane]-2,9-dione

> <PUBCHEM_IUPAC_NAME>
(3R,3aR,6S,6aR,9aR,9bR)-6,9a-dimethylspiro[3a,4,5,6,6a,9b-hexahydroazuleno[8,7-b]furan-3,2'-oxirane]-2,9-dione

> <PUBCHEM_IUPAC_SYSTEMATIC_NAME>
(3R,3aR,6S,6aR,9aR,9bR)-6,9a-dimethylspiro[3a,4,5,6,6a,9b-hexahydroazuleno[8,7-b]furan-3,2'-oxirane]-2,9-dione

> <PUBCHEM_IUPAC_TRADITIONAL_NAME>
(3R,3aR,6S,6aR,9aR,9bR)-6,9a-dimethylspiro[3a,4,5,6,6a,9b-hexahydroazuleno[8,7-b]furan-3,2'-oxirane]-2,9-quinone

> <PUBCHEM_IUPAC_INCHI>
InChI=1S/C15H18O4/c1-8-3-4-10-12(19-13(17)15(10)7-18-15)14(2)9(8)5-6-11(14)16/h5-6,8-10,12H,3-4,7H2,1-2H3/t8-,9-,10+,12+,14-,15-/m0/s1

> <PUBCHEM_IUPAC_INCHIKEY>
AYSAVJUPCHRCGO-ODHINMQUSA-N

> <PUBCHEM_XLOGP3_AA>
1.7

> <PUBCHEM_EXACT_MASS>
262.120509

> <PUBCHEM_MOLECULAR_FORMULA>
C15H18O4

> <PUBCHEM_MOLECULAR_WEIGHT>
262.30102

> <PUBCHEM_OPENEYE_CAN_SMILES>
CC1CCC2C(C3(C1C=CC3=O)C)OC(=O)C24CO4

> <PUBCHEM_OPENEYE_ISO_SMILES>
C[C@H]1CC[C@@H]2[C@H]([C@]3([C@H]1C=CC3=O)C)OC(=O)[C@]24CO4

> <PUBCHEM_CACTVS_TPSA>
55.9

> <PUBCHEM_MONOISOTOPIC_WEIGHT>
262.120509

> <PUBCHEM_TOTAL_CHARGE>
0

> <PUBCHEM_HEAVY_ATOM_COUNT>
19

> <PUBCHEM_ATOM_DEF_STEREO_COUNT>
6

> <PUBCHEM_ATOM_UDEF_STEREO_COUNT>
0

> <PUBCHEM_BOND_DEF_STEREO_COUNT>
0

> <PUBCHEM_BOND_UDEF_STEREO_COUNT>
0

> <PUBCHEM_ISOTOPIC_ATOM_COUNT>
0

> <PUBCHEM_COMPONENT_COUNT>
1

> <PUBCHEM_CACTVS_TAUTO_COUNT>
3

> <PUBCHEM_COORDINATE_TYPE>
1
5
255

> <PUBCHEM_BONDANNOTATIONS>
6  1  6
11  19  5
5  20  6
7  21  6
8  16  5
9  22  6

$$$$

