442206
  -OEChem-07051212573D

 46 49  0     1  0  0  0  0  0999 V2000
   -3.4991    1.2291    0.7232 O   0  0  0  0  0  0  0  0  0  0  0  0
   -1.3955    2.8732    0.0118 O   0  0  0  0  0  0  0  0  0  0  0  0
   -2.4917   -2.7035   -0.6305 O   0  0  0  0  0  0  0  0  0  0  0  0
    2.4737    0.1671    0.0235 O   0  0  0  0  0  0  0  0  0  0  0  0
   -0.1750    4.7903   -0.2904 O   0  0  0  0  0  0  0  0  0  0  0  0
   -0.6459   -2.3245   -1.9527 O   0  0  0  0  0  0  0  0  0  0  0  0
    3.0106   -1.6135   -1.3330 O   0  0  0  0  0  0  0  0  0  0  0  0
   -3.2296   -0.0462    0.1508 C   0  0  1  0  0  0  0  0  0  0  0  0
   -2.1332    0.7708    0.8069 C   0  0  1  0  0  0  0  0  0  0  0  0
   -1.1348    1.4571   -0.0710 C   0  0  2  0  0  0  0  0  0  0  0  0
   -3.7809   -1.2579    0.8464 C   0  0  0  0  0  0  0  0  0  0  0  0
    0.3421    1.2806    0.3354 C   0  0  1  0  0  0  0  0  0  0  0  0
   -3.4835    0.0164   -1.3274 C   0  0  0  0  0  0  0  0  0  0  0  0
    1.0600   -0.0049   -0.1744 C   0  0  2  0  0  0  0  0  0  0  0  0
   -2.8136   -2.4540    0.7463 C   0  0  2  0  0  0  0  0  0  0  0  0
    0.8525    2.6000   -0.1985 C   0  0  0  0  0  0  0  0  0  0  0  0
    0.7577   -1.3292    0.5654 C   0  0  0  0  0  0  0  0  0  0  0  0
   -1.5019   -2.1388    1.3503 C   0  0  0  0  0  0  0  0  0  0  0  0
   -0.5922   -1.9082    0.4055 C   0  0  0  0  0  0  0  0  0  0  0  0
   -0.2533    3.5806   -0.1780 C   0  0  0  0  0  0  0  0  0  0  0  0
   -1.1995   -2.3187   -0.8672 C   0  0  0  0  0  0  0  0  0  0  0  0
    2.0283    2.9932   -0.6993 C   0  0  0  0  0  0  0  0  0  0  0  0
    3.2591   -0.8600   -0.4024 C   0  0  0  0  0  0  0  0  0  0  0  0
    4.4835   -0.9362    0.4425 C   0  0  0  0  0  0  0  0  0  0  0  0
    4.6922    0.0381    1.5612 C   0  0  0  0  0  0  0  0  0  0  0  0
    5.3699   -1.9009    0.1558 C   0  0  0  0  0  0  0  0  0  0  0  0
   -1.7845    0.5713    1.8096 H   0  0  0  0  0  0  0  0  0  0  0  0
   -1.2550    1.1775   -1.1234 H   0  0  0  0  0  0  0  0  0  0  0  0
   -4.7425   -1.5332    0.3972 H   0  0  0  0  0  0  0  0  0  0  0  0
   -3.9793   -1.0346    1.9025 H   0  0  0  0  0  0  0  0  0  0  0  0
    0.4469    1.3302    1.4284 H   0  0  0  0  0  0  0  0  0  0  0  0
   -3.5760    1.0503   -1.6819 H   0  0  0  0  0  0  0  0  0  0  0  0
   -2.6853   -0.4480   -1.9088 H   0  0  0  0  0  0  0  0  0  0  0  0
   -4.4221   -0.4835   -1.5902 H   0  0  0  0  0  0  0  0  0  0  0  0
    0.8755   -0.1094   -1.2514 H   0  0  0  0  0  0  0  0  0  0  0  0
   -3.2484   -3.3600    1.1791 H   0  0  0  0  0  0  0  0  0  0  0  0
    0.9558   -1.1612    1.6344 H   0  0  0  0  0  0  0  0  0  0  0  0
    1.4385   -2.1437    0.3026 H   0  0  0  0  0  0  0  0  0  0  0  0
   -1.3562   -1.9425    2.4034 H   0  0  0  0  0  0  0  0  0  0  0  0
    2.8846    2.3371   -0.7746 H   0  0  0  0  0  0  0  0  0  0  0  0
    2.1821    4.0061   -1.0596 H   0  0  0  0  0  0  0  0  0  0  0  0
    4.7234    1.0631    1.1776 H   0  0  0  0  0  0  0  0  0  0  0  0
    3.8816   -0.0385    2.2935 H   0  0  0  0  0  0  0  0  0  0  0  0
    5.6331   -0.1434    2.0918 H   0  0  0  0  0  0  0  0  0  0  0  0
    6.2818   -2.0084    0.7350 H   0  0  0  0  0  0  0  0  0  0  0  0
    5.2237   -2.6091   -0.6528 H   0  0  0  0  0  0  0  0  0  0  0  0
  1  8  1  0  0  0  0
  1  9  1  0  0  0  0
  2 10  1  0  0  0  0
  2 20  1  0  0  0  0
  3 15  1  0  0  0  0
  3 21  1  0  0  0  0
  4 14  1  0  0  0  0
  4 23  1  0  0  0  0
  5 20  2  0  0  0  0
  6 21  2  0  0  0  0
  7 23  2  0  0  0  0
  8  9  1  0  0  0  0
  8 11  1  0  0  0  0
  8 13  1  0  0  0  0
  9 10  1  0  0  0  0
  9 27  1  0  0  0  0
 10 12  1  0  0  0  0
 10 28  1  0  0  0  0
 11 15  1  0  0  0  0
 11 29  1  0  0  0  0
 11 30  1  0  0  0  0
 12 14  1  0  0  0  0
 12 16  1  0  0  0  0
 12 31  1  0  0  0  0
 13 32  1  0  0  0  0
 13 33  1  0  0  0  0
 13 34  1  0  0  0  0
 14 17  1  0  0  0  0
 14 35  1  0  0  0  0
 15 18  1  0  0  0  0
 15 36  1  0  0  0  0
 16 20  1  0  0  0  0
 16 22  2  0  0  0  0
 17 19  1  0  0  0  0
 17 37  1  0  0  0  0
 17 38  1  0  0  0  0
 18 19  2  0  0  0  0
 18 39  1  0  0  0  0
 19 21  1  0  0  0  0
 22 40  1  0  0  0  0
 22 41  1  0  0  0  0
 23 24  1  0  0  0  0
 24 25  1  0  0  0  0
 24 26  2  0  0  0  0
 25 42  1  0  0  0  0
 25 43  1  0  0  0  0
 25 44  1  0  0  0  0
 26 45  1  0  0  0  0
 26 46  1  0  0  0  0
M  END
> <PUBCHEM_COMPOUND_CID>
442206

> <PUBCHEM_CONFORMER_RMSD>
0.8

> <PUBCHEM_CONFORMER_DIVERSEORDER>
1
3
4
7
2
5
8
6

> <PUBCHEM_MMFF94_PARTIAL_CHARGES>
32
1 -0.3
10 0.38
11 0.09
12 0.14
13 0.09
14 0.28
15 0.42
16 -0.12
17 0.14
18 -0.29
19 -0.12
2 -0.43
20 0.71
21 0.71
22 -0.3
23 0.71
24 -0.12
25 0.14
26 -0.3
27 0.1
3 -0.43
39 0.15
4 -0.43
40 0.15
41 0.15
45 0.15
46 0.15
5 -0.57
6 -0.57
7 -0.57
8 -0.04
9 -0.05

> <PUBCHEM_EFFECTIVE_ROTOR_COUNT>
4.2

> <PUBCHEM_PHARMACOPHORE_FEATURES>
6
1 1 acceptor
1 5 acceptor
1 6 acceptor
1 7 acceptor
5 2 10 12 16 20 rings
5 3 15 18 19 21 rings

> <PUBCHEM_HEAVY_ATOM_COUNT>
26

> <PUBCHEM_ATOM_DEF_STEREO_COUNT>
6

> <PUBCHEM_ATOM_UDEF_STEREO_COUNT>
0

> <PUBCHEM_BOND_DEF_STEREO_COUNT>
0

> <PUBCHEM_BOND_UDEF_STEREO_COUNT>
0

> <PUBCHEM_ISOTOPIC_ATOM_COUNT>
0

> <PUBCHEM_COMPONENT_COUNT>
1

> <PUBCHEM_CACTVS_TAUTO_COUNT>
1

> <PUBCHEM_CONFORMER_ID>
0006BF5E00000001

> <PUBCHEM_MMFF94_ENERGY>
71.4335

> <PUBCHEM_FEATURE_SELFOVERLAP>
30.446

> <PUBCHEM_SHAPE_FINGERPRINT>
10006869 2 17981336895331297075
10319926 262 18122082038141754178
10411042 1 18340200795804598483
10675989 125 16615623757180325661
10967382 1 18195237819902215881
1100329 8 18413384337215191617
11578080 2 17314524629344640730
11595378 159 18200051637023372722
11833330 49 18341897419887685152
12422481 6 18119217719555457515
12553582 1 18339066159970809164
12633257 1 18269534093040365915
12788726 201 18270385201018315366
13140716 1 18340198609554981448
138480 1 15169674822926387224
14081887 123 18338247075732560008
14142880 1 18116425028661001713
14223421 5 17694498148649721283
14790565 3 18123172769807155329
15042514 8 18340482378260544834
16945 1 18342454889272692339
17492 54 18197238021080035743
19930381 70 17476637577337949795
20600515 1 18335132098935019016
20775438 99 17107953784146890863
21033648 29 17821737130172127434
2334 1 18123746461367256065
23366157 5 17771343076434257804
23402539 116 18335990873123903718
23559900 14 18410011053248382618
238 59 17617696196487492191
2748010 2 18338796689606850449
3178227 256 18270664451608370185
335352 9 18412823616523714253
4409770 3 18127701632278290405
7226269 152 18272094941436119778
81228 2 18338504352795004994

> <PUBCHEM_SHAPE_MULTIPOLES>
493.98
7.62
4.57
1.21
7.88
5.01
-0.18
-4.92
1.37
-0.59
-0.63
-0.1
-0.64
0

> <PUBCHEM_SHAPE_SELFOVERLAP>
1071.653

> <PUBCHEM_SHAPE_VOLUME>
270.4

> <PUBCHEM_COORDINATE_TYPE>
2
5
10

$$$$

