442872
  -OEChem-07051213003D

 31 34  0     1  0  0  0  0  0999 V2000
   -1.4195   -1.1563   -0.7163 O   0  0  0  0  0  0  0  0  0  0  0  0
   -3.4980   -1.9167   -0.0781 O   0  0  0  0  0  0  0  0  0  0  0  0
    1.6103    0.7105    0.1728 N   0  0  2  0  0  0  0  0  0  0  0  0
   -0.6137   -0.0555   -0.3413 C   0  0  1  0  0  0  0  0  0  0  0  0
    0.6810   -0.4367    0.4211 C   0  0  1  0  0  0  0  0  0  0  0  0
    0.8691    1.6867   -0.6650 C   0  0  1  0  0  0  0  0  0  0  0  0
   -0.0709    0.7880   -1.4852 C   0  0  0  0  0  0  0  0  0  0  0  0
    1.2553   -1.7968   -0.0053 C   0  0  0  0  0  0  0  0  0  0  0  0
    2.8888    0.3216   -0.4240 C   0  0  0  0  0  0  0  0  0  0  0  0
   -1.5368    0.8058    0.4598 C   0  0  0  0  0  0  0  0  0  0  0  0
    2.6513   -2.0105    0.5707 C   0  0  0  0  0  0  0  0  0  0  0  0
    3.5490   -0.7845    0.3974 C   0  0  0  0  0  0  0  0  0  0  0  0
    0.0520    2.5819    0.2680 C   0  0  0  0  0  0  0  0  0  0  0  0
   -1.1095    2.1428    0.7906 C   0  0  0  0  0  0  0  0  0  0  0  0
   -2.6942    0.1964    0.6828 C   0  0  0  0  0  0  0  0  0  0  0  0
   -2.6141   -1.0768   -0.0479 C   0  0  0  0  0  0  0  0  0  0  0  0
    0.4878   -0.4841    1.5014 H   0  0  0  0  0  0  0  0  0  0  0  0
    1.5101    2.3050   -1.3026 H   0  0  0  0  0  0  0  0  0  0  0  0
   -0.8472    1.3442   -2.0252 H   0  0  0  0  0  0  0  0  0  0  0  0
    0.4613    0.1775   -2.2244 H   0  0  0  0  0  0  0  0  0  0  0  0
    1.3020   -1.8709   -1.0993 H   0  0  0  0  0  0  0  0  0  0  0  0
    0.5971   -2.6062    0.3318 H   0  0  0  0  0  0  0  0  0  0  0  0
    3.5589    1.1894   -0.4434 H   0  0  0  0  0  0  0  0  0  0  0  0
    2.7692   -0.0111   -1.4629 H   0  0  0  0  0  0  0  0  0  0  0  0
    3.1125   -2.8829    0.0932 H   0  0  0  0  0  0  0  0  0  0  0  0
    2.5759   -2.2501    1.6386 H   0  0  0  0  0  0  0  0  0  0  0  0
    3.8176   -0.3943    1.3876 H   0  0  0  0  0  0  0  0  0  0  0  0
    4.4910   -1.0822   -0.0780 H   0  0  0  0  0  0  0  0  0  0  0  0
    0.4256    3.5724    0.5053 H   0  0  0  0  0  0  0  0  0  0  0  0
   -1.7171    2.7668    1.4343 H   0  0  0  0  0  0  0  0  0  0  0  0
   -3.5628    0.5618    1.2023 H   0  0  0  0  0  0  0  0  0  0  0  0
  1  4  1  0  0  0  0
  1 16  1  0  0  0  0
  2 16  2  0  0  0  0
  3  5  1  0  0  0  0
  3  6  1  0  0  0  0
  3  9  1  0  0  0  0
  4  5  1  0  0  0  0
  4  7  1  0  0  0  0
  4 10  1  0  0  0  0
  5  8  1  0  0  0  0
  5 17  1  0  0  0  0
  6  7  1  0  0  0  0
  6 13  1  0  0  0  0
  6 18  1  0  0  0  0
  7 19  1  0  0  0  0
  7 20  1  0  0  0  0
  8 11  1  0  0  0  0
  8 21  1  0  0  0  0
  8 22  1  0  0  0  0
  9 12  1  0  0  0  0
  9 23  1  0  0  0  0
  9 24  1  0  0  0  0
 10 14  1  0  0  0  0
 10 15  2  0  0  0  0
 11 12  1  0  0  0  0
 11 25  1  0  0  0  0
 11 26  1  0  0  0  0
 12 27  1  0  0  0  0
 12 28  1  0  0  0  0
 13 14  2  0  0  0  0
 13 29  1  0  0  0  0
 14 30  1  0  0  0  0
 15 16  1  0  0  0  0
 15 31  1  0  0  0  0
M  END
> <PUBCHEM_COMPOUND_CID>
442872

> <PUBCHEM_CONFORMER_RMSD>
0.6

> <PUBCHEM_CONFORMER_DIVERSEORDER>
1

> <PUBCHEM_MMFF94_PARTIAL_CHARGES>
15
1 -0.43
10 -0.14
13 -0.29
14 -0.15
15 -0.14
16 0.71
2 -0.57
29 0.15
3 -0.81
30 0.15
31 0.15
4 0.42
5 0.27
6 0.41
9 0.27

> <PUBCHEM_EFFECTIVE_ROTOR_COUNT>
1.2

> <PUBCHEM_PHARMACOPHORE_FEATURES>
5
1 2 acceptor
1 3 cation
5 1 4 10 15 16 rings
6 3 5 8 9 11 12 rings
8 3 4 5 6 7 10 13 14 rings

> <PUBCHEM_HEAVY_ATOM_COUNT>
16

> <PUBCHEM_ATOM_DEF_STEREO_COUNT>
3

> <PUBCHEM_ATOM_UDEF_STEREO_COUNT>
0

> <PUBCHEM_BOND_DEF_STEREO_COUNT>
0

> <PUBCHEM_BOND_UDEF_STEREO_COUNT>
0

> <PUBCHEM_ISOTOPIC_ATOM_COUNT>
0

> <PUBCHEM_COMPONENT_COUNT>
1

> <PUBCHEM_CACTVS_TAUTO_COUNT>
1

> <PUBCHEM_CONFORMER_ID>
0006C1F800000001

> <PUBCHEM_MMFF94_ENERGY>
41.3839

> <PUBCHEM_FEATURE_SELFOVERLAP>
25.465

> <PUBCHEM_SHAPE_FINGERPRINT>
10967382 1 18122062005253183162
11132069 177 18338520849690607282
11769659 78 18413392029169185690
11806522 49 18267869376073725919
12251169 10 18193272125050217760
12382932 28 18262801885973931898
12423570 1 8180410456806772965
13024252 1 14690577736380413948
13132413 78 18335979792198236565
13140716 1 18338237192559352010
14178342 30 18123765407011461058
14787075 74 17609502626957635736
14817 1 15456211130727186252
15001771 113 18412825797865875537
15076042 46 18045218503440454608
15375462 189 18340193112276358915
15375462 478 18334016098690176519
15906896 17 17827089703126187581
16945 1 18191579963664881164
20525323 117 18192725646460004090
20559304 39 18264202509305974315
20645477 70 17981899549270124031
20653085 51 9079111198038018484
20871998 184 18041846228136884823
21296965 67 18409453565733661001
21501502 16 18269269243797213218
22112679 90 18115288013178459833
22445834 79 18411410747907465035
2334 1 18411418423035310126
23388829 49 18411132520000006396
23419403 2 18050608150410263900
23463225 33 18411697716316204062
23559900 14 18262808505146139634
2748010 2 16970259124810007693
34934 24 18411422851199301009
427121 178 15941153487690439513
598444 67 16965753317664672118
7364860 26 18119529829990310777
81228 2 18123750013299883185

> <PUBCHEM_SHAPE_MULTIPOLES>
312.55
4.63
2.47
0.95
1.15
0.45
-0.17
-2.77
0.71
-0.52
0.18
-0.06
0.2
-0.61

> <PUBCHEM_SHAPE_SELFOVERLAP>
700.205

> <PUBCHEM_SHAPE_VOLUME>
168.1

> <PUBCHEM_COORDINATE_TYPE>
2
5
10

$$$$

