17396211
  -OEChem-06241222553D

 40 41  0     0  0  0  0  0  0999 V2000
    6.5320    2.9131    0.8460 F   0  0  0  0  0  0  0  0  0  0  0  0
    2.1461   -1.7496    1.0368 O   0  0  0  0  0  0  0  0  0  0  0  0
   -0.1188    0.5630   -0.6617 O   0  0  0  0  0  0  0  0  0  0  0  0
   -7.2016    0.5921    0.6385 O   0  0  0  0  0  0  0  0  0  0  0  0
    1.3295   -1.7297   -1.1352 N   0  0  0  0  0  0  0  0  0  0  0  0
    0.0181   -1.7484   -0.7270 N   0  0  0  0  0  0  0  0  0  0  0  0
   -5.1593    1.3349   -0.2755 N   0  0  0  0  0  0  0  0  0  0  0  0
    3.7152   -1.6876   -0.7818 C   0  0  0  0  0  0  0  0  0  0  0  0
    4.4676   -0.4582   -0.3465 C   0  0  0  0  0  0  0  0  0  0  0  0
   -2.0489   -0.6439   -0.0923 C   0  0  0  0  0  0  0  0  0  0  0  0
   -4.2705    0.2991    0.0147 C   0  0  0  0  0  0  0  0  0  0  0  0
   -2.9367    0.3921   -0.3822 C   0  0  0  0  0  0  0  0  0  0  0  0
    2.3264   -1.7319   -0.1797 C   0  0  0  0  0  0  0  0  0  0  0  0
    5.2487   -0.4912    0.8087 C   0  0  0  0  0  0  0  0  0  0  0  0
    4.3838    0.7134   -1.0988 C   0  0  0  0  0  0  0  0  0  0  0  0
   -2.4951   -1.7728    0.5948 C   0  0  0  0  0  0  0  0  0  0  0  0
   -0.6277   -0.5453   -0.5141 C   0  0  0  0  0  0  0  0  0  0  0  0
   -4.7167   -0.8298    0.7017 C   0  0  0  0  0  0  0  0  0  0  0  0
   -3.8290   -1.8659    0.9919 C   0  0  0  0  0  0  0  0  0  0  0  0
    5.9462    0.6476    1.2116 C   0  0  0  0  0  0  0  0  0  0  0  0
    5.0812    1.8522   -0.6958 C   0  0  0  0  0  0  0  0  0  0  0  0
    5.8623    1.8193    0.4594 C   0  0  0  0  0  0  0  0  0  0  0  0
   -6.5221    1.4192    0.0391 C   0  0  0  0  0  0  0  0  0  0  0  0
   -7.1307    2.7084   -0.4524 C   0  0  0  0  0  0  0  0  0  0  0  0
    3.6752   -1.7300   -1.8768 H   0  0  0  0  0  0  0  0  0  0  0  0
    4.2469   -2.5942   -0.4673 H   0  0  0  0  0  0  0  0  0  0  0  0
   -2.5950    1.2728   -0.9216 H   0  0  0  0  0  0  0  0  0  0  0  0
    5.3210   -1.3975    1.4040 H   0  0  0  0  0  0  0  0  0  0  0  0
    3.7768    0.7515   -1.9995 H   0  0  0  0  0  0  0  0  0  0  0  0
   -1.8301   -2.5880    0.8645 H   0  0  0  0  0  0  0  0  0  0  0  0
   -5.7325   -0.9734    1.0424 H   0  0  0  0  0  0  0  0  0  0  0  0
    1.4953   -1.7126   -2.1359 H   0  0  0  0  0  0  0  0  0  0  0  0
   -4.1741   -2.7425    1.5326 H   0  0  0  0  0  0  0  0  0  0  0  0
   -0.4133   -2.6638   -0.6651 H   0  0  0  0  0  0  0  0  0  0  0  0
    6.5542    0.6225    2.1111 H   0  0  0  0  0  0  0  0  0  0  0  0
    5.0158    2.7647   -1.2808 H   0  0  0  0  0  0  0  0  0  0  0  0
   -4.7580    2.1233   -0.7791 H   0  0  0  0  0  0  0  0  0  0  0  0
   -7.0079    2.7874   -1.5363 H   0  0  0  0  0  0  0  0  0  0  0  0
   -6.6414    3.5569    0.0341 H   0  0  0  0  0  0  0  0  0  0  0  0
   -8.1979    2.7290   -0.2145 H   0  0  0  0  0  0  0  0  0  0  0  0
  1 22  1  0  0  0  0
  2 13  2  0  0  0  0
  3 17  2  0  0  0  0
  4 23  2  0  0  0  0
  5  6  1  0  0  0  0
  5 13  1  0  0  0  0
  5 32  1  0  0  0  0
  6 17  1  0  0  0  0
  6 34  1  0  0  0  0
  7 11  1  0  0  0  0
  7 23  1  0  0  0  0
  7 37  1  0  0  0  0
  8  9  1  0  0  0  0
  8 13  1  0  0  0  0
  8 25  1  0  0  0  0
  8 26  1  0  0  0  0
  9 14  2  0  0  0  0
  9 15  1  0  0  0  0
 10 12  2  0  0  0  0
 10 16  1  0  0  0  0
 10 17  1  0  0  0  0
 11 12  1  0  0  0  0
 11 18  2  0  0  0  0
 12 27  1  0  0  0  0
 14 20  1  0  0  0  0
 14 28  1  0  0  0  0
 15 21  2  0  0  0  0
 15 29  1  0  0  0  0
 16 19  2  0  0  0  0
 16 30  1  0  0  0  0
 18 19  1  0  0  0  0
 18 31  1  0  0  0  0
 19 33  1  0  0  0  0
 20 22  2  0  0  0  0
 20 35  1  0  0  0  0
 21 22  1  0  0  0  0
 21 36  1  0  0  0  0
 23 24  1  0  0  0  0
 24 38  1  0  0  0  0
 24 39  1  0  0  0  0
 24 40  1  0  0  0  0
M  END
> <PUBCHEM_COMPOUND_CID>
17396211

> <PUBCHEM_CONFORMER_RMSD>
0.8

> <PUBCHEM_CONFORMER_DIVERSEORDER>
2
31
75
39
103
51
127
45
93
6
80
96
24
66
83
52
11
123
97
46
114
60
47
119
115
102
19
125
112
63
55
113
117
13
42
91
28
35
62
74
37
86
104
72
108
50
58
14
99
49
88
109
18
120
85
27
121
89
87
36
41
106
95
100
70
76
73
71
53
78
107
101
32
29
59
94
82
15
48
38
77
40
118
110
44
65
126
8
105
61
1
79
98
57
10
111
3
26
84
56
34
92
116
22
16
12
25
33
54
64
30
124
68
20
7
81
4
90
23
122
21
17
67
5
69
43
9

> <PUBCHEM_MMFF94_PARTIAL_CHARGES>
35
1 -0.19
10 0.09
11 0.12
12 -0.15
13 0.57
14 -0.15
15 -0.15
16 -0.15
17 0.54
18 -0.15
19 -0.15
2 -0.57
20 -0.15
21 -0.15
22 0.19
23 0.57
24 0.06
27 0.15
28 0.15
29 0.15
3 -0.57
30 0.15
31 0.15
32 0.37
33 0.15
34 0.37
35 0.15
36 0.15
37 0.37
4 -0.57
5 -0.43
6 -0.43
7 -0.55
8 0.2
9 -0.14

> <PUBCHEM_EFFECTIVE_ROTOR_COUNT>
8

> <PUBCHEM_PHARMACOPHORE_FEATURES>
8
1 2 acceptor
1 3 acceptor
1 4 acceptor
1 5 donor
1 6 donor
1 7 donor
6 10 11 12 16 18 19 rings
6 9 14 15 20 21 22 rings

> <PUBCHEM_HEAVY_ATOM_COUNT>
24

> <PUBCHEM_ATOM_DEF_STEREO_COUNT>
0

> <PUBCHEM_ATOM_UDEF_STEREO_COUNT>
0

> <PUBCHEM_BOND_DEF_STEREO_COUNT>
0

> <PUBCHEM_BOND_UDEF_STEREO_COUNT>
0

> <PUBCHEM_ISOTOPIC_ATOM_COUNT>
0

> <PUBCHEM_COMPONENT_COUNT>
1

> <PUBCHEM_CACTVS_TAUTO_COUNT>
8

> <PUBCHEM_CONFORMER_ID>
010971F300000002

> <PUBCHEM_MMFF94_ENERGY>
61.5182

> <PUBCHEM_FEATURE_SELFOVERLAP>
42.134

> <PUBCHEM_SHAPE_FINGERPRINT>
10 15 18059568083902944033
10280341 67 17679316170226807280
10835480 77 18409449202316192941
10906281 52 17677037054098098467
117890 112 18412824715866647287
12403259 118 18200028435035091310
125118 31 18341891948083857157
12616971 3 15482665762891291359
13533116 47 17345758615586017714
13668630 136 10879995778682175992
13685833 64 10519987058734242326
14123256 34 11312065361365126472
14216079 64 9655570808439394937
14341114 328 17560800971071183198
14461889 52 18201712934315388035
155225 6 18196087751598405548
17134984 74 6555404319615791660
17349148 13 13758356682938858866
17980427 23 18273213063183797775
18335252 114 17676206892828417236
20281389 69 18271805765683176557
20511986 3 18272376382111302751
20621476 38 10159695798515491537
21033648 29 18334585598795707170
21130935 74 18272367603188087875
21150785 3 16081094774997722085
21792934 111 17417536933817845573
21859007 373 17202775941856245965
221357 26 8070026657731123022
2215653 11 7709458320782022292
23559900 14 18269543013318635662
270888 7 18189338970922797176
2748736 6 18408890650282708193
300161 21 18342176695999415183
312425 54 17418377982645285298
33532 11 10375858681136067289
3472631 163 17894913988803440132
34797466 226 17822002142654710455
3680242 22 17775287175193351170
4073 2 17988635264227034290
4340502 62 17489869362206597418
465052 167 11600009856072376610
5104073 3 18060136548262408947
5364581 5 18129093425395273769
960060 61 6266908987216120378

> <PUBCHEM_SHAPE_MULTIPOLES>
454.08
20.48
2.66
1.06
8.96
0.93
-0.06
16.45
-3.93
-0.27
-0.1
-0.96
-0.1
1.59

> <PUBCHEM_SHAPE_SELFOVERLAP>
962.941

> <PUBCHEM_SHAPE_VOLUME>
252.7

> <PUBCHEM_COORDINATE_TYPE>
2
5
10

$$$$

