5281147
  -OEChem-07051212553D

 25 24  0     1  0  0  0  0  0999 V2000
    6.1439    1.4320    0.4096 O   0  0  0  0  0  0  0  0  0  0  0  0
    5.7290   -2.1402   -0.1369 O   0  0  0  0  0  0  0  0  0  0  0  0
    5.6412    0.2675   -0.2392 C   0  0  1  0  0  0  0  0  0  0  0  0
    6.2067   -0.9523    0.4786 C   0  0  0  0  0  0  0  0  0  0  0  0
    4.1711    0.2769   -0.2030 C   0  0  0  0  0  0  0  0  0  0  0  0
   -8.3780   -0.7731    0.1196 C   0  0  0  0  0  0  0  0  0  0  0  0
   -6.8852   -0.7453    0.0820 C   0  0  0  0  0  0  0  0  0  0  0  0
    2.9707    0.2852   -0.1761 C   0  0  0  0  0  0  0  0  0  0  0  0
   -6.1643    0.3834    0.0501 C   0  0  0  0  0  0  0  0  0  0  0  0
    1.5990    0.2965   -0.1430 C   0  0  0  0  0  0  0  0  0  0  0  0
   -4.7442    0.3608    0.0150 C   0  0  0  0  0  0  0  0  0  0  0  0
    0.3992    0.3073   -0.1134 C   0  0  0  0  0  0  0  0  0  0  0  0
   -3.5441    0.3477   -0.0148 C   0  0  0  0  0  0  0  0  0  0  0  0
   -0.9726    0.3206   -0.0793 C   0  0  0  0  0  0  0  0  0  0  0  0
   -2.1724    0.3328   -0.0493 C   0  0  0  0  0  0  0  0  0  0  0  0
    5.9793    0.2836   -1.2808 H   0  0  0  0  0  0  0  0  0  0  0  0
    5.9101   -0.9700    1.5335 H   0  0  0  0  0  0  0  0  0  0  0  0
    7.3020   -0.9508    0.4544 H   0  0  0  0  0  0  0  0  0  0  0  0
    5.8793    1.3975    1.3450 H   0  0  0  0  0  0  0  0  0  0  0  0
    6.0244   -2.1291   -1.0632 H   0  0  0  0  0  0  0  0  0  0  0  0
   -8.7182   -1.2902    1.0220 H   0  0  0  0  0  0  0  0  0  0  0  0
   -8.7625   -1.3122   -0.7516 H   0  0  0  0  0  0  0  0  0  0  0  0
   -8.8122    0.2318    0.1180 H   0  0  0  0  0  0  0  0  0  0  0  0
   -6.3850   -1.7111    0.0815 H   0  0  0  0  0  0  0  0  0  0  0  0
   -6.6557    1.3511    0.0503 H   0  0  0  0  0  0  0  0  0  0  0  0
  1  3  1  0  0  0  0
  1 19  1  0  0  0  0
  2  4  1  0  0  0  0
  2 20  1  0  0  0  0
  3  4  1  0  0  0  0
  3  5  1  0  0  0  0
  3 16  1  0  0  0  0
  4 17  1  0  0  0  0
  4 18  1  0  0  0  0
  5  8  3  0  0  0  0
  6  7  1  0  0  0  0
  6 21  1  0  0  0  0
  6 22  1  0  0  0  0
  6 23  1  0  0  0  0
  7  9  2  0  0  0  0
  7 24  1  0  0  0  0
  8 10  1  0  0  0  0
  9 11  1  0  0  0  0
  9 25  1  0  0  0  0
 10 12  3  0  0  0  0
 11 13  3  0  0  0  0
 12 14  1  0  0  0  0
 13 15  1  0  0  0  0
 14 15  3  0  0  0  0
M  END
> <PUBCHEM_COMPOUND_CID>
5281147

> <PUBCHEM_CONFORMER_RMSD>
0.4

> <PUBCHEM_CONFORMER_DIVERSEORDER>
1
2
3

> <PUBCHEM_MMFF94_PARTIAL_CHARGES>
13
1 -0.68
11 -0.06
19 0.4
2 -0.68
20 0.4
24 0.15
25 0.15
3 0.48
4 0.28
5 -0.2
6 0.14
7 -0.29
9 -0.09

> <PUBCHEM_EFFECTIVE_ROTOR_COUNT>
1

> <PUBCHEM_PHARMACOPHORE_FEATURES>
5
1 1 acceptor
1 1 donor
1 2 acceptor
1 2 donor
1 6 hydrophobe

> <PUBCHEM_HEAVY_ATOM_COUNT>
15

> <PUBCHEM_ATOM_DEF_STEREO_COUNT>
1

> <PUBCHEM_ATOM_UDEF_STEREO_COUNT>
0

> <PUBCHEM_BOND_DEF_STEREO_COUNT>
1

> <PUBCHEM_BOND_UDEF_STEREO_COUNT>
0

> <PUBCHEM_ISOTOPIC_ATOM_COUNT>
0

> <PUBCHEM_COMPONENT_COUNT>
1

> <PUBCHEM_CACTVS_TAUTO_COUNT>
1

> <PUBCHEM_CONFORMER_ID>
0050957B00000001

> <PUBCHEM_MMFF94_ENERGY>
3.8652

> <PUBCHEM_FEATURE_SELFOVERLAP>
25.371

> <PUBCHEM_SHAPE_FINGERPRINT>
10066227 49 18341896350225128739
12091667 2 17418374701986524669
13073987 5 16226315032483928399
13533116 47 18334015034335041098
13668630 136 17775283859594961187
13885169 127 18342740754492300813
14123256 10 17132116832198396545
1420 363 17560797744864870273
14251764 18 17894631444353349191
14251764 46 16988844968955670665
14729087 3 5617262494911105491
15048467 5 8574711299926903263
15690457 1 18411423916251294835
15716309 27 18260548914193298559
17834076 25 18333168362709556821
18006028 8 16702304542603184085
20165401 70 18262522606048419526
20281389 69 17749109993295026617
20397935 70 17967810600677031134
20621476 38 18341332301092070618
20621476 66 8286196158832699441
20621476 8 17274825796405225677
20735858 18 17458344147956660655
21130983 4 7853572418073458307
21315763 28 18411701001802882553
220451 1 14562531794980990917
22224240 67 18343586213644212467
23035841 295 18260547814776713631
23521765 1 18335420158412917069
33532 11 18341896320012404715
33684 2 10592047951164752021
42788 4 18411136943705668420
8209 1 14117802405989112469

> <PUBCHEM_SHAPE_MULTIPOLES>
296.95
24.53
1.15
0.64
17.36
0.47
0
6.69
1.74
-1.71
0.03
-0.13
0
0.12

> <PUBCHEM_SHAPE_SELFOVERLAP>
577.01

> <PUBCHEM_SHAPE_VOLUME>
175.3

> <PUBCHEM_COORDINATE_TYPE>
2
5
10

$$$$

