440483
  -OEChem-07051212492D

 47 49  0     1  0  0  0  0  0999 V2000
    7.2579    3.9376    0.0000 O   0  0  0  0  0  0  0  0  0  0  0  0
    3.4030    1.1824    0.0000 O   0  0  0  0  0  0  0  0  0  0  0  0
    2.5369   -1.3176    0.0000 O   0  0  0  0  0  0  0  0  0  0  0  0
    2.5369   -3.3176    0.0000 O   0  0  0  0  0  0  0  0  0  0  0  0
    6.0010    1.6824    0.0000 C   0  0  2  0  0  0  0  0  0  0  0  0
    6.0010    2.6824    0.0000 C   0  0  2  0  0  0  0  0  0  0  0  0
    5.1350    1.1824    0.0000 C   0  0  1  0  0  0  0  0  0  0  0  0
    6.9473    1.3776    0.0000 C   0  0  0  0  0  0  0  0  0  0  0  0
    5.1350    3.1824    0.0000 C   0  0  0  0  0  0  0  0  0  0  0  0
    6.9473    2.9871    0.0000 C   0  0  0  0  0  0  0  0  0  0  0  0
    7.5309    2.1824    0.0000 C   0  0  0  0  0  0  0  0  0  0  0  0
    4.2690    2.6824    0.0000 C   0  0  0  0  0  0  0  0  0  0  0  0
    4.2690    1.6824    0.0000 C   0  0  0  0  0  0  0  0  0  0  0  0
    6.0010    3.6824    0.0000 C   0  0  0  0  0  0  0  0  0  0  0  0
    5.1350    0.1824    0.0000 C   0  0  0  0  0  0  0  0  0  0  0  0
    4.2690   -0.3176    0.0000 C   0  0  0  0  0  0  0  0  0  0  0  0
    4.2690   -1.3176    0.0000 C   0  0  0  0  0  0  0  0  0  0  0  0
    5.1350   -1.8176    0.0000 C   0  0  0  0  0  0  0  0  0  0  0  0
    3.4030   -1.8176    0.0000 C   0  0  0  0  0  0  0  0  0  0  0  0
    5.1350   -2.8176    0.0000 C   0  0  0  0  0  0  0  0  0  0  0  0
    3.4030   -2.8176    0.0000 C   0  0  0  0  0  0  0  0  0  0  0  0
    6.0010   -1.3176    0.0000 C   0  0  0  0  0  0  0  0  0  0  0  0
    4.2690   -3.3176    0.0000 C   0  0  0  0  0  0  0  0  0  0  0  0
    6.0910    0.8371    0.0000 H   0  0  0  0  0  0  0  0  0  0  0  0
    5.6720    0.8724    0.0000 H   0  0  0  0  0  0  0  0  0  0  0  0
    6.6962    0.8107    0.0000 H   0  0  0  0  0  0  0  0  0  0  0  0
    7.4846    1.0684    0.0000 H   0  0  0  0  0  0  0  0  0  0  0  0
    5.5335    3.6573    0.0000 H   0  0  0  0  0  0  0  0  0  0  0  0
    4.7365    3.6573    0.0000 H   0  0  0  0  0  0  0  0  0  0  0  0
    7.9917    1.7676    0.0000 H   0  0  0  0  0  0  0  0  0  0  0  0
    7.9917    2.5971    0.0000 H   0  0  0  0  0  0  0  0  0  0  0  0
    4.0569    3.2650    0.0000 H   0  0  0  0  0  0  0  0  0  0  0  0
    3.6584    2.5747    0.0000 H   0  0  0  0  0  0  0  0  0  0  0  0
    6.6210    3.6824    0.0000 H   0  0  0  0  0  0  0  0  0  0  0  0
    6.0010    4.3024    0.0000 H   0  0  0  0  0  0  0  0  0  0  0  0
    5.3810    3.6824    0.0000 H   0  0  0  0  0  0  0  0  0  0  0  0
    5.3471   -0.4002    0.0000 H   0  0  0  0  0  0  0  0  0  0  0  0
    5.7456    0.2900    0.0000 H   0  0  0  0  0  0  0  0  0  0  0  0
    4.0569    0.2650    0.0000 H   0  0  0  0  0  0  0  0  0  0  0  0
    3.6584   -0.4253    0.0000 H   0  0  0  0  0  0  0  0  0  0  0  0
    5.6720   -3.1276    0.0000 H   0  0  0  0  0  0  0  0  0  0  0  0
    6.3110   -1.8546    0.0000 H   0  0  0  0  0  0  0  0  0  0  0  0
    6.5380   -1.0076    0.0000 H   0  0  0  0  0  0  0  0  0  0  0  0
    5.6910   -0.7807    0.0000 H   0  0  0  0  0  0  0  0  0  0  0  0
    4.2690   -3.9376    0.0000 H   0  0  0  0  0  0  0  0  0  0  0  0
    2.0000   -1.6276    0.0000 H   0  0  0  0  0  0  0  0  0  0  0  0
    2.5369   -3.9376    0.0000 H   0  0  0  0  0  0  0  0  0  0  0  0
  1 10  2  0  0  0  0
  2 13  2  0  0  0  0
  3 19  1  0  0  0  0
  3 46  1  0  0  0  0
  4 21  1  0  0  0  0
  4 47  1  0  0  0  0
  5  6  1  0  0  0  0
  5  7  1  0  0  0  0
  5  8  1  0  0  0  0
  5 24  1  6  0  0  0
  6  9  1  0  0  0  0
  6 10  1  0  0  0  0
  6 14  1  1  0  0  0
  7 13  1  0  0  0  0
  7 15  1  6  0  0  0
  7 25  1  0  0  0  0
  8 11  1  0  0  0  0
  8 26  1  0  0  0  0
  8 27  1  0  0  0  0
  9 12  1  0  0  0  0
  9 28  1  0  0  0  0
  9 29  1  0  0  0  0
 10 11  1  0  0  0  0
 11 30  1  0  0  0  0
 11 31  1  0  0  0  0
 12 13  1  0  0  0  0
 12 32  1  0  0  0  0
 12 33  1  0  0  0  0
 14 34  1  0  0  0  0
 14 35  1  0  0  0  0
 14 36  1  0  0  0  0
 15 16  1  0  0  0  0
 15 37  1  0  0  0  0
 15 38  1  0  0  0  0
 16 17  1  0  0  0  0
 16 39  1  0  0  0  0
 16 40  1  0  0  0  0
 17 18  2  0  0  0  0
 17 19  1  0  0  0  0
 18 20  1  0  0  0  0
 18 22  1  0  0  0  0
 19 21  2  0  0  0  0
 20 23  2  0  0  0  0
 20 41  1  0  0  0  0
 21 23  1  0  0  0  0
 22 42  1  0  0  0  0
 22 43  1  0  0  0  0
 22 44  1  0  0  0  0
 23 45  1  0  0  0  0
M  END
> <PUBCHEM_COMPOUND_CID>
440483

> <PUBCHEM_COMPOUND_CANONICALIZED>
1

> <PUBCHEM_CACTVS_COMPLEXITY>
488

> <PUBCHEM_CACTVS_HBOND_ACCEPTOR>
4

> <PUBCHEM_CACTVS_HBOND_DONOR>
2

> <PUBCHEM_CACTVS_ROTATABLE_BOND>
3

> <PUBCHEM_CACTVS_SUBSKEYS>
AAADceB4OAAAAAAAAAAAAAAAAAAAAYAAAAAwYAAAAAAAAGABAAAAGgAACAAADwSAmAAyBoAAAgCIAqBSAAACAAAgIAAIiAEGiIgJJjKCERKAcAEkwBEJmAeIyvCvoAABAAAYQABAAAYAADCAAAAACAAAAA==

> <PUBCHEM_IUPAC_OPENEYE_NAME>
(3aS,4S,7aS)-4-[2-(2,3-dihydroxy-6-methyl-phenyl)ethyl]-7a-methyl-2,3,3a,4,6,7-hexahydroindene-1,5-dione

> <PUBCHEM_IUPAC_CAS_NAME>
(3aS,4S,7aS)-4-[2-(2,3-dihydroxy-6-methylphenyl)ethyl]-7a-methyl-2,3,3a,4,6,7-hexahydroindene-1,5-dione

> <PUBCHEM_IUPAC_NAME>
(3aS,4S,7aS)-4-[2-(2,3-dihydroxy-6-methylphenyl)ethyl]-7a-methyl-2,3,3a,4,6,7-hexahydroindene-1,5-dione

> <PUBCHEM_IUPAC_SYSTEMATIC_NAME>
(3aS,4S,7aS)-7a-methyl-4-[2-[6-methyl-2,3-bis(oxidanyl)phenyl]ethyl]-2,3,3a,4,6,7-hexahydroindene-1,5-dione

> <PUBCHEM_IUPAC_TRADITIONAL_NAME>
(3aS,4S,7aS)-4-[2-(2,3-dihydroxy-6-methyl-phenyl)ethyl]-7a-methyl-2,3,3a,4,6,7-hexahydroindene-1,5-quinone

> <PUBCHEM_IUPAC_INCHI>
InChI=1S/C19H24O4/c1-11-3-7-16(21)18(23)12(11)4-5-13-14-6-8-17(22)19(14,2)10-9-15(13)20/h3,7,13-14,21,23H,4-6,8-10H2,1-2H3/t13-,14-,19-/m0/s1

> <PUBCHEM_IUPAC_INCHIKEY>
YUHVBHDSVLKFNI-NJSLBKSFSA-N

> <PUBCHEM_XLOGP3_AA>
2.5

> <PUBCHEM_EXACT_MASS>
316.167459

> <PUBCHEM_MOLECULAR_FORMULA>
C19H24O4

> <PUBCHEM_MOLECULAR_WEIGHT>
316.39146

> <PUBCHEM_OPENEYE_CAN_SMILES>
CC1=C(C(=C(C=C1)O)O)CCC2C3CCC(=O)C3(CCC2=O)C

> <PUBCHEM_OPENEYE_ISO_SMILES>
CC1=C(C(=C(C=C1)O)O)CC[C@H]2[C@@H]3CCC(=O)[C@]3(CCC2=O)C

> <PUBCHEM_CACTVS_TPSA>
74.6

> <PUBCHEM_MONOISOTOPIC_WEIGHT>
316.167459

> <PUBCHEM_TOTAL_CHARGE>
0

> <PUBCHEM_HEAVY_ATOM_COUNT>
23

> <PUBCHEM_ATOM_DEF_STEREO_COUNT>
3

> <PUBCHEM_ATOM_UDEF_STEREO_COUNT>
0

> <PUBCHEM_BOND_DEF_STEREO_COUNT>
0

> <PUBCHEM_BOND_UDEF_STEREO_COUNT>
0

> <PUBCHEM_ISOTOPIC_ATOM_COUNT>
0

> <PUBCHEM_COMPONENT_COUNT>
1

> <PUBCHEM_CACTVS_TAUTO_COUNT>
865

> <PUBCHEM_COORDINATE_TYPE>
1
5
255

> <PUBCHEM_BONDANNOTATIONS>
17  18  8
17  19  8
18  20  8
19  21  8
20  23  8
21  23  8
5  24  6
6  14  5
7  15  6

$$$$

