10396
  -OEChem-06261204313D

 54 54  0     1  0  0  0  0  0999 V2000
    6.4696   -0.8739   -0.0516 O   0  0  0  0  0  0  0  0  0  0  0  0
    8.2262   -2.2994    0.3336 O   0  0  0  0  0  0  0  0  0  0  0  0
    6.3416    0.5197   -0.3651 C   0  0  1  0  0  0  0  0  0  0  0  0
    5.0540    1.0643    0.2235 C   0  0  0  0  0  0  0  0  0  0  0  0
    3.8303    0.3652   -0.3702 C   0  0  0  0  0  0  0  0  0  0  0  0
    2.5028    0.8904    0.1856 C   0  0  0  0  0  0  0  0  0  0  0  0
    1.2783    0.2067   -0.4275 C   0  0  0  0  0  0  0  0  0  0  0  0
   -0.0470    0.6751    0.1829 C   0  0  0  0  0  0  0  0  0  0  0  0
    7.5826    1.1527    0.2231 C   0  0  0  0  0  0  0  0  0  0  0  0
   -1.3137    0.0714   -0.4315 C   0  0  0  0  0  0  0  0  0  0  0  0
   -2.6039    0.5561    0.2326 C   0  0  0  0  0  0  0  0  0  0  0  0
   -3.8334   -0.1028   -0.3983 C   0  0  0  0  0  0  0  0  0  0  0  0
   -5.1210    0.3576    0.2882 C   0  0  0  0  0  0  0  0  0  0  0  0
    8.6177    0.0714    0.0240 C   0  0  0  0  0  0  0  0  0  0  0  0
   -6.3865   -0.2545   -0.3189 C   0  0  0  0  0  0  0  0  0  0  0  0
   -7.7068    0.1541    0.3426 C   0  0  0  0  0  0  0  0  0  0  0  0
    7.7915   -1.1754    0.1363 C   0  0  0  0  0  0  0  0  0  0  0  0
   -8.9666   -0.5112   -0.2197 C   0  0  0  0  0  0  0  0  0  0  0  0
  -10.2423   -0.1275    0.5305 C   0  0  0  0  0  0  0  0  0  0  0  0
  -11.4733   -0.7400   -0.1201 C   0  0  0  0  0  0  0  0  0  0  0  0
    6.3343    0.6175   -1.4581 H   0  0  0  0  0  0  0  0  0  0  0  0
    4.9888    2.1434    0.0417 H   0  0  0  0  0  0  0  0  0  0  0  0
    5.0444    0.9108    1.3100 H   0  0  0  0  0  0  0  0  0  0  0  0
    3.8880   -0.7130   -0.1779 H   0  0  0  0  0  0  0  0  0  0  0  0
    3.8349    0.4928   -1.4599 H   0  0  0  0  0  0  0  0  0  0  0  0
    2.4377    1.9709    0.0083 H   0  0  0  0  0  0  0  0  0  0  0  0
    2.4896    0.7464    1.2730 H   0  0  0  0  0  0  0  0  0  0  0  0
    1.3642   -0.8790   -0.2976 H   0  0  0  0  0  0  0  0  0  0  0  0
    1.2637    0.3963   -1.5078 H   0  0  0  0  0  0  0  0  0  0  0  0
   -0.0353    0.4505    1.2571 H   0  0  0  0  0  0  0  0  0  0  0  0
   -0.1059    1.7677    0.0969 H   0  0  0  0  0  0  0  0  0  0  0  0
    7.4561    1.3398    1.2969 H   0  0  0  0  0  0  0  0  0  0  0  0
    7.8494    2.0993   -0.2551 H   0  0  0  0  0  0  0  0  0  0  0  0
   -1.2558   -1.0215   -0.3567 H   0  0  0  0  0  0  0  0  0  0  0  0
   -1.3417    0.3140   -1.5009 H   0  0  0  0  0  0  0  0  0  0  0  0
   -2.5715    0.3249    1.3041 H   0  0  0  0  0  0  0  0  0  0  0  0
   -2.6781    1.6461    0.1384 H   0  0  0  0  0  0  0  0  0  0  0  0
   -3.8773    0.1451   -1.4657 H   0  0  0  0  0  0  0  0  0  0  0  0
   -3.7496   -1.1936   -0.3220 H   0  0  0  0  0  0  0  0  0  0  0  0
   -5.1935    1.4508    0.2306 H   0  0  0  0  0  0  0  0  0  0  0  0
   -5.0759    0.0993    1.3534 H   0  0  0  0  0  0  0  0  0  0  0  0
    9.0659    0.1150   -0.9727 H   0  0  0  0  0  0  0  0  0  0  0  0
    9.3880    0.1058    0.7976 H   0  0  0  0  0  0  0  0  0  0  0  0
   -6.3004   -1.3478   -0.2759 H   0  0  0  0  0  0  0  0  0  0  0  0
   -6.4331    0.0093   -1.3830 H   0  0  0  0  0  0  0  0  0  0  0  0
   -7.6407   -0.0743    1.4140 H   0  0  0  0  0  0  0  0  0  0  0  0
   -7.8159    1.2432    0.2657 H   0  0  0  0  0  0  0  0  0  0  0  0
   -9.0665   -0.2377   -1.2774 H   0  0  0  0  0  0  0  0  0  0  0  0
   -8.8429   -1.6006   -0.1856 H   0  0  0  0  0  0  0  0  0  0  0  0
  -10.1755   -0.4619    1.5721 H   0  0  0  0  0  0  0  0  0  0  0  0
  -10.3501    0.9632    0.5455 H   0  0  0  0  0  0  0  0  0  0  0  0
  -11.4095   -1.8327   -0.1284 H   0  0  0  0  0  0  0  0  0  0  0  0
  -12.3744   -0.4562    0.4326 H   0  0  0  0  0  0  0  0  0  0  0  0
  -11.5852   -0.3939   -1.1526 H   0  0  0  0  0  0  0  0  0  0  0  0
  1  3  1  0  0  0  0
  1 17  1  0  0  0  0
  2 17  2  0  0  0  0
  3  4  1  0  0  0  0
  3  9  1  0  0  0  0
  3 21  1  0  0  0  0
  4  5  1  0  0  0  0
  4 22  1  0  0  0  0
  4 23  1  0  0  0  0
  5  6  1  0  0  0  0
  5 24  1  0  0  0  0
  5 25  1  0  0  0  0
  6  7  1  0  0  0  0
  6 26  1  0  0  0  0
  6 27  1  0  0  0  0
  7  8  1  0  0  0  0
  7 28  1  0  0  0  0
  7 29  1  0  0  0  0
  8 10  1  0  0  0  0
  8 30  1  0  0  0  0
  8 31  1  0  0  0  0
  9 14  1  0  0  0  0
  9 32  1  0  0  0  0
  9 33  1  0  0  0  0
 10 11  1  0  0  0  0
 10 34  1  0  0  0  0
 10 35  1  0  0  0  0
 11 12  1  0  0  0  0
 11 36  1  0  0  0  0
 11 37  1  0  0  0  0
 12 13  1  0  0  0  0
 12 38  1  0  0  0  0
 12 39  1  0  0  0  0
 13 15  1  0  0  0  0
 13 40  1  0  0  0  0
 13 41  1  0  0  0  0
 14 17  1  0  0  0  0
 14 42  1  0  0  0  0
 14 43  1  0  0  0  0
 15 16  1  0  0  0  0
 15 44  1  0  0  0  0
 15 45  1  0  0  0  0
 16 18  1  0  0  0  0
 16 46  1  0  0  0  0
 16 47  1  0  0  0  0
 18 19  1  0  0  0  0
 18 48  1  0  0  0  0
 18 49  1  0  0  0  0
 19 20  1  0  0  0  0
 19 50  1  0  0  0  0
 19 51  1  0  0  0  0
 20 52  1  0  0  0  0
 20 53  1  0  0  0  0
 20 54  1  0  0  0  0
M  END
> <PUBCHEM_COMPOUND_CID>
10396

> <PUBCHEM_CONFORMER_RMSD>
1.4

> <PUBCHEM_CONFORMER_DIVERSEORDER>
1
55
56
76
26
54
68
85
43
2
69
64
29
31
9
11
3
75
82
81
17
21
47
12
39
92
7
40
44
94
20
37
13
5
57
41
70
22
84
38
63
30
67
61
79
18
15
60
87
10
46
97
88
89
77
51
24
49
32
86
52
19
8
91
74
58
73
28
14
23
33
42
62
71
36
4
16
66
90
27
25
48
96
35
80
95
50
93
72
53
78
83
34
45
65
6
59
98

> <PUBCHEM_MMFF94_PARTIAL_CHARGES>
5
1 -0.43
14 0.06
17 0.66
2 -0.57
3 0.28

> <PUBCHEM_EFFECTIVE_ROTOR_COUNT>
13.8

> <PUBCHEM_PHARMACOPHORE_FEATURES>
3
1 2 acceptor
1 20 hydrophobe
5 1 3 9 14 17 rings

> <PUBCHEM_HEAVY_ATOM_COUNT>
20

> <PUBCHEM_ATOM_DEF_STEREO_COUNT>
0

> <PUBCHEM_ATOM_UDEF_STEREO_COUNT>
1

> <PUBCHEM_BOND_DEF_STEREO_COUNT>
0

> <PUBCHEM_BOND_UDEF_STEREO_COUNT>
0

> <PUBCHEM_ISOTOPIC_ATOM_COUNT>
0

> <PUBCHEM_COMPONENT_COUNT>
1

> <PUBCHEM_CACTVS_TAUTO_COUNT>
2

> <PUBCHEM_CONFORMER_ID>
0000289C00000001

> <PUBCHEM_MMFF94_ENERGY>
3.5904

> <PUBCHEM_FEATURE_SELFOVERLAP>
15.223

> <PUBCHEM_SHAPE_FINGERPRINT>
11211813 74 11959718357975794446
11638347 137 18410854369243580319
13885169 127 18343303699322709709
14202775 3 18343014477058895371
14216079 64 18342739637494406924
14251764 18 18040433300303859144
14251764 46 18410573985156732389
14428016 248 11024108763883232575
15061470 23 18411702084963218997
15510794 2 18272084986050288779
15690457 1 18408606958918126606
20812841 46 17530688680507641712
21095086 128 18343302570030627699
21102433 48 18040158401661239919
21150785 3 12031789162662606956
21315763 28 18409730659791599329
21362267 313 15937239136027460999
21792934 111 14562533976665940147
22224240 67 5617535194520855916
232437 2 18409166602653961319
23521765 1 18335420158228404717
23581129 1 18411981351455859733
246663 6 17489586766206258445
28498 318 18272371983758524684
33532 11 18342178890959883498
33684 2 18260547819214021245
5283156 175 18409729564806605772
67123 10 18335138683494189685
8209 1 11455892459871802757
9663363 56 16272210774253192796

> <PUBCHEM_SHAPE_MULTIPOLES>
399.85
43.06
1.18
0.7
57.27
0.48
-0.01
12.45
3.25
-3.03
0.12
0.2
-0.01
-0.47

> <PUBCHEM_SHAPE_SELFOVERLAP>
752.532

> <PUBCHEM_SHAPE_VOLUME>
249.9

> <PUBCHEM_COORDINATE_TYPE>
2
5
10

$$$$

