108104
  -OEChem-07051213112D

 24 26  0     0  0  0  0  0  0999 V2000
    2.5836   -1.3394    0.0000 O   0  0  0  0  0  0  0  0  0  0  0  0
    4.3798    1.5069    0.0000 O   0  0  0  0  0  0  0  0  0  0  0  0
    4.3958   -2.5346    0.0000 O   0  0  0  0  0  0  0  0  0  0  0  0
    5.2740    3.0346    0.0000 O   0  0  0  0  0  0  0  0  0  0  0  0
    3.5298   -0.0346    0.0000 C   0  0  0  0  0  0  0  0  0  0  0  0
    4.3958    0.4654    0.0000 C   0  0  0  0  0  0  0  0  0  0  0  0
    3.5298   -1.0346    0.0000 C   0  0  0  0  0  0  0  0  0  0  0  0
    5.2619   -0.0346    0.0000 C   0  0  0  0  0  0  0  0  0  0  0  0
    4.3958   -1.5346    0.0000 C   0  0  0  0  0  0  0  0  0  0  0  0
    5.2619   -1.0346    0.0000 C   0  0  0  0  0  0  0  0  0  0  0  0
    2.5836    0.2701    0.0000 C   0  0  0  0  0  0  0  0  0  0  0  0
    6.1719    0.4722    0.0000 C   0  0  0  0  0  0  0  0  0  0  0  0
    2.0000   -0.5346    0.0000 C   0  0  0  0  0  0  0  0  0  0  0  0
    6.1799    1.5138    0.0000 C   0  0  0  0  0  0  0  0  0  0  0  0
    5.2778    2.0346    0.0000 C   0  0  0  0  0  0  0  0  0  0  0  0
    5.2619   -3.0346    0.0000 C   0  0  0  0  0  0  0  0  0  0  0  0
    5.7988   -1.3446    0.0000 H   0  0  0  0  0  0  0  0  0  0  0  0
    2.3910    0.8594    0.0000 H   0  0  0  0  0  0  0  0  0  0  0  0
    6.7052    0.1560    0.0000 H   0  0  0  0  0  0  0  0  0  0  0  0
    1.3800   -0.5346    0.0000 H   0  0  0  0  0  0  0  0  0  0  0  0
    6.7180    1.8218    0.0000 H   0  0  0  0  0  0  0  0  0  0  0  0
    4.9519   -3.5716    0.0000 H   0  0  0  0  0  0  0  0  0  0  0  0
    5.7988   -3.3446    0.0000 H   0  0  0  0  0  0  0  0  0  0  0  0
    5.5719   -2.4977    0.0000 H   0  0  0  0  0  0  0  0  0  0  0  0
  1  7  1  0  0  0  0
  1 13  1  0  0  0  0
  2  6  1  0  0  0  0
  2 15  1  0  0  0  0
  3  9  1  0  0  0  0
  3 16  1  0  0  0  0
  4 15  2  0  0  0  0
  5  6  2  0  0  0  0
  5  7  1  0  0  0  0
  5 11  1  0  0  0  0
  6  8  1  0  0  0  0
  7  9  2  0  0  0  0
  8 10  2  0  0  0  0
  8 12  1  0  0  0  0
  9 10  1  0  0  0  0
 10 17  1  0  0  0  0
 11 13  2  0  0  0  0
 11 18  1  0  0  0  0
 12 14  2  0  0  0  0
 12 19  1  0  0  0  0
 13 20  1  0  0  0  0
 14 15  1  0  0  0  0
 14 21  1  0  0  0  0
 16 22  1  0  0  0  0
 16 23  1  0  0  0  0
 16 24  1  0  0  0  0
M  END
> <PUBCHEM_COMPOUND_CID>
108104

> <PUBCHEM_COMPOUND_CANONICALIZED>
1

> <PUBCHEM_CACTVS_COMPLEXITY>
325

> <PUBCHEM_CACTVS_HBOND_ACCEPTOR>
4

> <PUBCHEM_CACTVS_HBOND_DONOR>
0

> <PUBCHEM_CACTVS_ROTATABLE_BOND>
1

> <PUBCHEM_CACTVS_SUBSKEYS>
AAADccBwOAAAAAAAAAAAAAAAAAAAASAAAAAwQAAAAAAAAEiB8AAAGgAAAAAADASgmAIyDsAABECIAqjSiAICCAAkIAAIiAFGiMgNJzaENR6CO2Kl4BUKqYfK7PzOIQADCAAIQABCAAYQABCAAAAAAAAAAA==

> <PUBCHEM_IUPAC_OPENEYE_NAME>
6-methoxyfuro[2,3-h]chromen-2-one

> <PUBCHEM_IUPAC_CAS_NAME>
6-methoxy-2-furo[2,3-h][1]benzopyranone

> <PUBCHEM_IUPAC_NAME>
6-methoxyfuro[2,3-h]chromen-2-one

> <PUBCHEM_IUPAC_SYSTEMATIC_NAME>
6-methoxyfuro[2,3-h]chromen-2-one

> <PUBCHEM_IUPAC_TRADITIONAL_NAME>
6-methoxyfuro[2,3-h]chromen-2-one

> <PUBCHEM_IUPAC_INCHI>
InChI=1S/C12H8O4/c1-14-9-6-7-2-3-10(13)16-11(7)8-4-5-15-12(8)9/h2-6H,1H3

> <PUBCHEM_IUPAC_INCHIKEY>
DLCJNIBLOSKIQW-UHFFFAOYSA-N

> <PUBCHEM_XLOGP3>
2.2

> <PUBCHEM_EXACT_MASS>
216.042259

> <PUBCHEM_MOLECULAR_FORMULA>
C12H8O4

> <PUBCHEM_MOLECULAR_WEIGHT>
216.18952

> <PUBCHEM_OPENEYE_CAN_SMILES>
COC1=C2C(=C3C(=C1)C=CC(=O)O3)C=CO2

> <PUBCHEM_OPENEYE_ISO_SMILES>
COC1=C2C(=C3C(=C1)C=CC(=O)O3)C=CO2

> <PUBCHEM_CACTVS_TPSA>
48.7

> <PUBCHEM_MONOISOTOPIC_WEIGHT>
216.042259

> <PUBCHEM_TOTAL_CHARGE>
0

> <PUBCHEM_HEAVY_ATOM_COUNT>
16

> <PUBCHEM_ATOM_DEF_STEREO_COUNT>
0

> <PUBCHEM_ATOM_UDEF_STEREO_COUNT>
0

> <PUBCHEM_BOND_DEF_STEREO_COUNT>
0

> <PUBCHEM_BOND_UDEF_STEREO_COUNT>
0

> <PUBCHEM_ISOTOPIC_ATOM_COUNT>
0

> <PUBCHEM_COMPONENT_COUNT>
1

> <PUBCHEM_CACTVS_TAUTO_COUNT>
1

> <PUBCHEM_COORDINATE_TYPE>
1
5
255

> <PUBCHEM_BONDANNOTATIONS>
1  13  8
1  7  8
11  13  8
12  14  8
14  15  8
2  15  8
2  6  8
5  11  8
5  6  8
5  7  8
6  8  8
7  9  8
8  10  8
8  12  8
9  10  8

$$$$

