159795
  -OEChem-07051212572D

 92 98  0     1  0  0  0  0  0999 V2000
    7.3700   -2.2681    0.0000 O   0  0  0  0  0  0  0  0  0  0  0  0
    8.0241   -2.9666    0.0000 O   0  0  0  0  0  0  0  0  0  0  0  0
    6.8654   -1.0506    0.0000 O   0  0  0  0  0  0  0  0  0  0  0  0
    5.1584   -0.0651    0.0000 O   0  0  0  0  0  0  0  0  0  0  0  0
    9.9145   -2.5804    0.0000 O   0  0  0  0  0  0  0  0  0  0  0  0
    3.0573    1.5435    0.0000 O   0  0  0  0  0  0  0  0  0  0  0  0
    3.3771    3.4948    0.0000 O   0  0  0  0  0  0  0  0  0  0  0  0
    7.6722    1.2962    0.0000 N   0  0  3  0  0  0  0  0  0  0  0  0
    3.4765   -3.9783    0.0000 N   0  0  3  0  0  0  0  0  0  0  0  0
    7.3540    0.3788    0.0000 C   0  0  2  0  0  0  0  0  0  0  0  0
    3.4765   -3.0072    0.0000 C   0  0  2  0  0  0  0  0  0  0  0  0
    7.9894   -0.3556    0.0000 C   0  0  0  0  0  0  0  0  0  0  0  0
    4.3174   -2.5217    0.0000 C   0  0  0  0  0  0  0  0  0  0  0  0
    5.1584   -3.0072    0.0000 C   0  0  0  0  0  0  0  0  0  0  0  0
    8.6259    1.4793    0.0000 C   0  0  0  0  0  0  0  0  0  0  0  0
    8.9430   -0.1724    0.0000 C   0  0  0  0  0  0  0  0  0  0  0  0
    5.1584   -3.9783    0.0000 C   0  0  0  0  0  0  0  0  0  0  0  0
    4.3174   -4.4638    0.0000 C   0  0  0  0  0  0  0  0  0  0  0  0
    9.2613    0.7450    0.0000 C   0  0  0  0  0  0  0  0  0  0  0  0
    6.1184    0.4941    0.0000 C   0  0  0  0  0  0  0  0  0  0  0  0
    2.6355   -2.5217    0.0000 C   0  0  0  0  0  0  0  0  0  0  0  0
    7.6711   -1.2730    0.0000 C   0  0  0  0  0  0  0  0  0  0  0  0
    5.9889   -2.5487    0.0000 C   0  0  0  0  0  0  0  0  0  0  0  0
    4.3174   -1.5506    0.0000 C   0  0  0  0  0  0  0  0  0  0  0  0
    9.5784   -0.9068    0.0000 C   0  0  0  0  0  0  0  0  0  0  0  0
    7.0179    2.0524    0.0000 C   0  0  0  0  0  0  0  0  0  0  0  0
    2.6104   -4.4783    0.0000 C   0  0  0  0  0  0  0  0  0  0  0  0
    8.3066   -2.0074    0.0000 C   0  0  0  0  0  0  0  0  0  0  0  0
    5.6167    1.5869    0.0000 C   0  0  0  0  0  0  0  0  0  0  0  0
    5.9994   -1.5506    0.0000 C   0  0  0  0  0  0  0  0  0  0  0  0
    2.7936   -1.3578    0.0000 C   0  0  0  0  0  0  0  0  0  0  0  0
    5.1584   -1.0651    0.0000 C   0  0  0  0  0  0  0  0  0  0  0  0
    9.2602   -1.8242    0.0000 C   0  0  0  0  0  0  0  0  0  0  0  0
    4.7018    1.2616    0.0000 C   0  0  0  0  0  0  0  0  0  0  0  0
    5.7925    2.5419    0.0000 C   0  0  0  0  0  0  0  0  0  0  0  0
    2.0000   -0.7981    0.0000 C   0  0  0  0  0  0  0  0  0  0  0  0
    3.6750   -0.9504    0.0000 C   0  0  0  0  0  0  0  0  0  0  0  0
    3.9625    1.8913    0.0000 C   0  0  0  0  0  0  0  0  0  0  0  0
    2.9694    0.5764    0.0000 C   0  0  0  0  0  0  0  0  0  0  0  0
    2.0879    0.1690    0.0000 C   0  0  0  0  0  0  0  0  0  0  0  0
    3.7630    0.0167    0.0000 C   0  0  0  0  0  0  0  0  0  0  0  0
    5.0532    3.1716    0.0000 C   0  0  0  0  0  0  0  0  0  0  0  0
    4.1383    2.8463    0.0000 C   0  0  0  0  0  0  0  0  0  0  0  0
    8.7137   -3.6909    0.0000 C   0  0  0  0  0  0  0  0  0  0  0  0
    6.8654   -0.0506    0.0000 C   0  0  0  0  0  0  0  0  0  0  0  0
    4.2924    0.4349    0.0000 C   0  0  0  0  0  0  0  0  0  0  0  0
   10.8966   -2.3919    0.0000 C   0  0  0  0  0  0  0  0  0  0  0  0
    3.5580    4.4783    0.0000 C   0  0  0  0  0  0  0  0  0  0  0  0
    6.8939    1.0935    0.0000 H   0  0  0  0  0  0  0  0  0  0  0  0
    2.7404   -3.4322    0.0000 H   0  0  0  0  0  0  0  0  0  0  0  0
    9.1580    1.7974    0.0000 H   0  0  0  0  0  0  0  0  0  0  0  0
    8.4050    2.0586    0.0000 H   0  0  0  0  0  0  0  0  0  0  0  0
    5.3705   -4.5609    0.0000 H   0  0  0  0  0  0  0  0  0  0  0  0
    5.7690   -3.8706    0.0000 H   0  0  0  0  0  0  0  0  0  0  0  0
    3.9189   -4.9388    0.0000 H   0  0  0  0  0  0  0  0  0  0  0  0
    4.7160   -4.9388    0.0000 H   0  0  0  0  0  0  0  0  0  0  0  0
    9.8029    0.4432    0.0000 H   0  0  0  0  0  0  0  0  0  0  0  0
    9.6526    1.2259    0.0000 H   0  0  0  0  0  0  0  0  0  0  0  0
    5.5186    0.3371    0.0000 H   0  0  0  0  0  0  0  0  0  0  0  0
    6.1688   -0.1239    0.0000 H   0  0  0  0  0  0  0  0  0  0  0  0
    2.0371   -2.3596    0.0000 H   0  0  0  0  0  0  0  0  0  0  0  0
    2.3974   -3.0942    0.0000 H   0  0  0  0  0  0  0  0  0  0  0  0
    3.7805   -1.2406    0.0000 H   0  0  0  0  0  0  0  0  0  0  0  0
   10.1873   -0.7899    0.0000 H   0  0  0  0  0  0  0  0  0  0  0  0
    7.4867    2.4581    0.0000 H   0  0  0  0  0  0  0  0  0  0  0  0
    6.6122    2.5213    0.0000 H   0  0  0  0  0  0  0  0  0  0  0  0
    6.5490    1.6467    0.0000 H   0  0  0  0  0  0  0  0  0  0  0  0
    2.3004   -3.9414    0.0000 H   0  0  0  0  0  0  0  0  0  0  0  0
    2.0735   -4.7883    0.0000 H   0  0  0  0  0  0  0  0  0  0  0  0
    2.9204   -5.0152    0.0000 H   0  0  0  0  0  0  0  0  0  0  0  0
    4.5895    0.6518    0.0000 H   0  0  0  0  0  0  0  0  0  0  0  0
    6.3766    2.7496    0.0000 H   0  0  0  0  0  0  0  0  0  0  0  0
    1.4372   -1.0582    0.0000 H   0  0  0  0  0  0  0  0  0  0  0  0
    4.1817   -1.3077    0.0000 H   0  0  0  0  0  0  0  0  0  0  0  0
    1.5812    0.5263    0.0000 H   0  0  0  0  0  0  0  0  0  0  0  0
    4.3258    0.2768    0.0000 H   0  0  0  0  0  0  0  0  0  0  0  0
    5.1655    3.7814    0.0000 H   0  0  0  0  0  0  0  0  0  0  0  0
    8.2647   -4.1184    0.0000 H   0  0  0  0  0  0  0  0  0  0  0  0
    9.1412   -4.1399    0.0000 H   0  0  0  0  0  0  0  0  0  0  0  0
    9.1627   -3.2633    0.0000 H   0  0  0  0  0  0  0  0  0  0  0  0
    7.4854   -0.0506    0.0000 H   0  0  0  0  0  0  0  0  0  0  0  0
    6.8654    0.5694    0.0000 H   0  0  0  0  0  0  0  0  0  0  0  0
    6.2454   -0.0506    0.0000 H   0  0  0  0  0  0  0  0  0  0  0  0
    4.6024    0.9719    0.0000 H   0  0  0  0  0  0  0  0  0  0  0  0
    3.7554    0.7449    0.0000 H   0  0  0  0  0  0  0  0  0  0  0  0
    3.9824   -0.1020    0.0000 H   0  0  0  0  0  0  0  0  0  0  0  0
   11.0135   -3.0007    0.0000 H   0  0  0  0  0  0  0  0  0  0  0  0
   11.5055   -2.2750    0.0000 H   0  0  0  0  0  0  0  0  0  0  0  0
   10.7797   -1.7830    0.0000 H   0  0  0  0  0  0  0  0  0  0  0  0
    4.1678    4.3661    0.0000 H   0  0  0  0  0  0  0  0  0  0  0  0
    3.6703    5.0880    0.0000 H   0  0  0  0  0  0  0  0  0  0  0  0
    2.9483    4.5905    0.0000 H   0  0  0  0  0  0  0  0  0  0  0  0
  1 22  1  0  0  0  0
  1 23  1  0  0  0  0
  2 28  1  0  0  0  0
  2 44  1  0  0  0  0
  3 30  1  0  0  0  0
  3 45  1  0  0  0  0
  4 32  1  0  0  0  0
  4 46  1  0  0  0  0
  5 33  1  0  0  0  0
  5 47  1  0  0  0  0
  6 38  1  0  0  0  0
  6 39  1  0  0  0  0
  7 43  1  0  0  0  0
  7 48  1  0  0  0  0
  8 10  1  0  0  0  0
  8 15  1  0  0  0  0
  8 26  1  0  0  0  0
  9 11  1  0  0  0  0
  9 18  1  0  0  0  0
  9 27  1  0  0  0  0
 10 12  1  0  0  0  0
 10 20  1  0  0  0  0
 10 49  1  1  0  0  0
 11 13  1  0  0  0  0
 11 21  1  0  0  0  0
 11 50  1  6  0  0  0
 12 16  1  0  0  0  0
 12 22  2  0  0  0  0
 13 14  1  0  0  0  0
 13 24  2  0  0  0  0
 14 17  1  0  0  0  0
 14 23  2  0  0  0  0
 15 19  1  0  0  0  0
 15 51  1  0  0  0  0
 15 52  1  0  0  0  0
 16 19  1  0  0  0  0
 16 25  2  0  0  0  0
 17 18  1  0  0  0  0
 17 53  1  0  0  0  0
 17 54  1  0  0  0  0
 18 55  1  0  0  0  0
 18 56  1  0  0  0  0
 19 57  1  0  0  0  0
 19 58  1  0  0  0  0
 20 29  1  0  0  0  0
 20 59  1  0  0  0  0
 20 60  1  0  0  0  0
 21 31  1  0  0  0  0
 21 61  1  0  0  0  0
 21 62  1  0  0  0  0
 22 28  1  0  0  0  0
 23 30  1  0  0  0  0
 24 32  1  0  0  0  0
 24 63  1  0  0  0  0
 25 33  1  0  0  0  0
 25 64  1  0  0  0  0
 26 65  1  0  0  0  0
 26 66  1  0  0  0  0
 26 67  1  0  0  0  0
 27 68  1  0  0  0  0
 27 69  1  0  0  0  0
 27 70  1  0  0  0  0
 28 33  2  0  0  0  0
 29 34  2  0  0  0  0
 29 35  1  0  0  0  0
 30 32  2  0  0  0  0
 31 36  2  0  0  0  0
 31 37  1  0  0  0  0
 34 38  1  0  0  0  0
 34 71  1  0  0  0  0
 35 42  2  0  0  0  0
 35 72  1  0  0  0  0
 36 40  1  0  0  0  0
 36 73  1  0  0  0  0
 37 41  2  0  0  0  0
 37 74  1  0  0  0  0
 38 43  2  0  0  0  0
 39 40  2  0  0  0  0
 39 41  1  0  0  0  0
 40 75  1  0  0  0  0
 41 76  1  0  0  0  0
 42 43  1  0  0  0  0
 42 77  1  0  0  0  0
 44 78  1  0  0  0  0
 44 79  1  0  0  0  0
 44 80  1  0  0  0  0
 45 81  1  0  0  0  0
 45 82  1  0  0  0  0
 45 83  1  0  0  0  0
 46 84  1  0  0  0  0
 46 85  1  0  0  0  0
 46 86  1  0  0  0  0
 47 87  1  0  0  0  0
 47 88  1  0  0  0  0
 47 89  1  0  0  0  0
 48 90  1  0  0  0  0
 48 91  1  0  0  0  0
 48 92  1  0  0  0  0
M  END
> <PUBCHEM_COMPOUND_CID>
159795

> <PUBCHEM_COMPOUND_CANONICALIZED>
1

> <PUBCHEM_CACTVS_COMPLEXITY>
1030

> <PUBCHEM_CACTVS_HBOND_ACCEPTOR>
9

> <PUBCHEM_CACTVS_HBOND_DONOR>
0

> <PUBCHEM_CACTVS_ROTATABLE_BOND>
5

> <PUBCHEM_CACTVS_SUBSKEYS>
AAADcfB/OAAAAAAAAAAAAAAAAAAAAAAAAAA8eMGCAAAAAACxVAAAHgAAAAAADCzBmAYyBoMABACAAiBCAACCCAAgIAAIiAAOjIgNJyKEsRuGOCrnwBWKqAew8P8OoAABCAAYQABAAAIQADCAAAAAAAAAAA==

> <PUBCHEM_IUPAC_INCHI>
InChI=1S/C39H44N2O7/c1-40-17-15-27-28-22-34(44-5)37(45-6)36(27)48-39-35-25(21-33(43-4)38(39)46-7)14-16-41(2)30(35)19-24-10-13-31(42-3)32(20-24)47-26-11-8-23(9-12-26)18-29(28)40/h8-13,20-22,29-30H,14-19H2,1-7H3/t29-,30-/m0/s1

> <PUBCHEM_IUPAC_INCHIKEY>
SVQMVSCWYACSCP-KYJUHHDHSA-N

> <PUBCHEM_XLOGP3_AA>
6.4

> <PUBCHEM_EXACT_MASS>
652.314852

> <PUBCHEM_MOLECULAR_FORMULA>
C39H44N2O7

> <PUBCHEM_MOLECULAR_WEIGHT>
652.77586

> <PUBCHEM_OPENEYE_CAN_SMILES>
CN1CCC2=CC(=C(C3=C2C1CC4=CC(=C(C=C4)OC)OC5=CC=C(CC6C7=CC(=C(C(=C7CCN6C)O3)OC)OC)C=C5)OC)OC

> <PUBCHEM_OPENEYE_ISO_SMILES>
CN1CCC2=CC(=C(C3=C2[C@@H]1CC4=CC(=C(C=C4)OC)OC5=CC=C(C[C@H]6C7=CC(=C(C(=C7CCN6C)O3)OC)OC)C=C5)OC)OC

> <PUBCHEM_CACTVS_TPSA>
71.1

> <PUBCHEM_MONOISOTOPIC_WEIGHT>
652.314852

> <PUBCHEM_TOTAL_CHARGE>
0

> <PUBCHEM_HEAVY_ATOM_COUNT>
48

> <PUBCHEM_ATOM_DEF_STEREO_COUNT>
2

> <PUBCHEM_ATOM_UDEF_STEREO_COUNT>
0

> <PUBCHEM_BOND_DEF_STEREO_COUNT>
0

> <PUBCHEM_BOND_UDEF_STEREO_COUNT>
0

> <PUBCHEM_ISOTOPIC_ATOM_COUNT>
0

> <PUBCHEM_COMPONENT_COUNT>
1

> <PUBCHEM_CACTVS_TAUTO_COUNT>
1

> <PUBCHEM_COORDINATE_TYPE>
1
5
255

> <PUBCHEM_BONDANNOTATIONS>
10  49  5
11  50  6
12  16  8
12  22  8
13  14  8
13  24  8
14  23  8
16  25  8
22  28  8
23  30  8
24  32  8
25  33  8
28  33  8
29  34  8
29  35  8
30  32  8
31  36  8
31  37  8
34  38  8
35  42  8
36  40  8
37  41  8
38  43  8
39  40  8
39  41  8
42  43  8

$$$$

