5281644
  -OEChem-07051212583D

 38 41  0     0  0  0  0  0  0999 V2000
   -3.4186   -1.4653    0.0151 O   0  0  0  0  0  0  0  0  0  0  0  0
    1.2753   -1.2528    0.0080 O   0  0  0  0  0  0  0  0  0  0  0  0
   -1.2844    2.8590    0.0008 O   0  0  0  0  0  0  0  0  0  0  0  0
    1.3136    2.8379   -0.0020 O   0  0  0  0  0  0  0  0  0  0  0  0
    3.5704   -2.6705    0.0050 O   0  0  0  0  0  0  0  0  0  0  0  0
    6.0233   -1.3970   -0.0067 O   0  0  0  0  0  0  0  0  0  0  0  0
   -4.7352   -0.8730   -0.0066 C   0  0  0  0  0  0  0  0  0  0  0  0
   -2.3905    0.7425    0.0062 C   0  0  0  0  0  0  0  0  0  0  0  0
   -2.3203   -0.6523    0.0100 C   0  0  0  0  0  0  0  0  0  0  0  0
   -4.7815    0.6367   -0.0010 C   0  0  0  0  0  0  0  0  0  0  0  0
    0.0287    0.8461    0.0043 C   0  0  0  0  0  0  0  0  0  0  0  0
   -1.2096    1.4954    0.0039 C   0  0  0  0  0  0  0  0  0  0  0  0
    0.0985   -0.5452    0.0079 C   0  0  0  0  0  0  0  0  0  0  0  0
   -3.6864    1.3994    0.0059 C   0  0  0  0  0  0  0  0  0  0  0  0
   -5.4200   -1.3942   -1.2754 C   0  0  0  0  0  0  0  0  0  0  0  0
   -5.4698   -1.4059    1.2290 C   0  0  0  0  0  0  0  0  0  0  0  0
   -1.0787   -1.2949    0.0114 C   0  0  0  0  0  0  0  0  0  0  0  0
    1.2821    1.6161    0.0012 C   0  0  0  0  0  0  0  0  0  0  0  0
    2.5320    0.8408   -0.0005 C   0  0  0  0  0  0  0  0  0  0  0  0
    2.4559   -0.5517    0.0029 C   0  0  0  0  0  0  0  0  0  0  0  0
    3.6298   -1.3078    0.0006 C   0  0  0  0  0  0  0  0  0  0  0  0
    3.7725    1.4839   -0.0061 C   0  0  0  0  0  0  0  0  0  0  0  0
    4.8709   -0.6701   -0.0053 C   0  0  0  0  0  0  0  0  0  0  0  0
    4.9418    0.7232   -0.0087 C   0  0  0  0  0  0  0  0  0  0  0  0
   -5.7562    1.1186    0.0040 H   0  0  0  0  0  0  0  0  0  0  0  0
   -3.7878    2.4763    0.0300 H   0  0  0  0  0  0  0  0  0  0  0  0
   -5.4119   -2.4903   -1.3017 H   0  0  0  0  0  0  0  0  0  0  0  0
   -6.4594   -1.0561   -1.3501 H   0  0  0  0  0  0  0  0  0  0  0  0
   -4.8847   -1.0612   -2.1728 H   0  0  0  0  0  0  0  0  0  0  0  0
   -5.4622   -2.5022    1.2455 H   0  0  0  0  0  0  0  0  0  0  0  0
   -4.9704   -1.0811    2.1498 H   0  0  0  0  0  0  0  0  0  0  0  0
   -6.5115   -1.0686    1.2657 H   0  0  0  0  0  0  0  0  0  0  0  0
   -1.0301   -2.3814    0.0147 H   0  0  0  0  0  0  0  0  0  0  0  0
    3.8486    2.5675   -0.0088 H   0  0  0  0  0  0  0  0  0  0  0  0
    5.9033    1.2300   -0.0131 H   0  0  0  0  0  0  0  0  0  0  0  0
   -2.0208    3.1436   -0.5644 H   0  0  0  0  0  0  0  0  0  0  0  0
    2.6345   -2.9365    0.0091 H   0  0  0  0  0  0  0  0  0  0  0  0
    6.7821   -0.7886   -0.0108 H   0  0  0  0  0  0  0  0  0  0  0  0
  1  7  1  0  0  0  0
  1  9  1  0  0  0  0
  2 13  1  0  0  0  0
  2 20  1  0  0  0  0
  3 12  1  0  0  0  0
  3 36  1  0  0  0  0
  4 18  2  0  0  0  0
  5 21  1  0  0  0  0
  5 37  1  0  0  0  0
  6 23  1  0  0  0  0
  6 38  1  0  0  0  0
  7 10  1  0  0  0  0
  7 15  1  0  0  0  0
  7 16  1  0  0  0  0
  8  9  2  0  0  0  0
  8 12  1  0  0  0  0
  8 14  1  0  0  0  0
  9 17  1  0  0  0  0
 10 14  2  0  0  0  0
 10 25  1  0  0  0  0
 11 12  2  0  0  0  0
 11 13  1  0  0  0  0
 11 18  1  0  0  0  0
 13 17  2  0  0  0  0
 14 26  1  0  0  0  0
 15 27  1  0  0  0  0
 15 28  1  0  0  0  0
 15 29  1  0  0  0  0
 16 30  1  0  0  0  0
 16 31  1  0  0  0  0
 16 32  1  0  0  0  0
 17 33  1  0  0  0  0
 18 19  1  0  0  0  0
 19 20  2  0  0  0  0
 19 22  1  0  0  0  0
 20 21  1  0  0  0  0
 21 23  2  0  0  0  0
 22 24  2  0  0  0  0
 22 34  1  0  0  0  0
 23 24  1  0  0  0  0
 24 35  1  0  0  0  0
M  END
> <PUBCHEM_COMPOUND_CID>
5281644

> <PUBCHEM_CONFORMER_RMSD>
0.6

> <PUBCHEM_CONFORMER_DIVERSEORDER>
1

> <PUBCHEM_MMFF94_PARTIAL_CHARGES>
30
1 -0.36
10 -0.29
11 0.09
12 0.08
13 0.08
14 -0.18
17 -0.15
18 0.4
19 0.09
2 -0.17
20 0.08
21 0.08
22 -0.15
23 0.08
24 -0.15
25 0.15
26 0.15
3 -0.53
33 0.15
34 0.15
35 0.15
36 0.45
37 0.45
38 0.45
4 -0.57
5 -0.53
6 -0.53
7 0.42
8 0.03
9 0.08

> <PUBCHEM_EFFECTIVE_ROTOR_COUNT>
0.4

> <PUBCHEM_PHARMACOPHORE_FEATURES>
11
1 1 acceptor
1 2 acceptor
1 3 donor
1 4 acceptor
1 5 donor
1 6 donor
3 7 15 16 hydrophobe
6 1 7 8 9 10 14 rings
6 19 20 21 22 23 24 rings
6 2 11 13 18 19 20 rings
6 8 9 11 12 13 17 rings

> <PUBCHEM_HEAVY_ATOM_COUNT>
24

> <PUBCHEM_ATOM_DEF_STEREO_COUNT>
0

> <PUBCHEM_ATOM_UDEF_STEREO_COUNT>
0

> <PUBCHEM_BOND_DEF_STEREO_COUNT>
0

> <PUBCHEM_BOND_UDEF_STEREO_COUNT>
0

> <PUBCHEM_ISOTOPIC_ATOM_COUNT>
0

> <PUBCHEM_COMPONENT_COUNT>
1

> <PUBCHEM_CACTVS_TAUTO_COUNT>
58

> <PUBCHEM_CONFORMER_ID>
0050976C00000001

> <PUBCHEM_MMFF94_ENERGY>
81.2939

> <PUBCHEM_FEATURE_SELFOVERLAP>
55.909

> <PUBCHEM_SHAPE_FINGERPRINT>
10622 236 17462028478573525007
10967382 1 18338797810561770020
11578080 2 16771559631572792823
11963148 33 18411423921180076926
12107183 9 17760082221628470643
12166972 35 17846774109790644572
12236239 1 17822008692216163675
12403259 226 18410300223942071377
12596602 18 16877943802209173994
13140716 1 17977107860120624880
13288520 33 18410009953188096181
13544653 18 18413102849422001165
13685833 64 18342734084070408699
138480 1 14807694721390133232
13862211 1 18409452470432851431
14341114 176 18410849937069329051
15196674 1 18410573993746913825
15352361 1 18411138043206460812
15536298 74 18407760322079824184
15788980 27 18411700976407352367
15927050 60 17686337569438775836
17349148 13 18040149600423066013
17492 89 18266178529481385482
17844677 252 18409161112915773201
17857418 61 18409453587171769151
1813 80 17418093213207112332
18681886 176 18335425656255788842
19591789 44 18338800120990548122
200 152 18187366510874763489
20028762 73 18186526483659736902
20645477 70 18408039632867953446
21236236 1 18408603699618314577
21267235 1 18410284831337893054
21279426 13 18341053033401015605
21682296 61 18262230126900668447
221357 26 18412551998523354237
221490 88 18341889632985084633
23402539 116 18334018298098450151
23522609 53 18120340285961724225
23559900 14 18410863122408321072
2871803 45 18272375269355719530
3004659 81 18202002144817737780
314194 84 18335983090833249195
335352 9 18410856599096719189
350125 39 18410571794956020212
4073 2 18131344194300439115
4214541 1 18410574024064950953
46194498 28 17489027054811354948
465052 167 18335133150922451351
5104073 3 18409449214847622409
5283173 99 18129954489092027421
7495541 125 17894636937342318440
8863177 126 17843668985980650491
9709674 26 18411694391848285475

> <PUBCHEM_SHAPE_MULTIPOLES>
458.69
12.63
2.48
0.73
0.76
0.72
0.01
-5.69
0.04
-0.69
0
0.79
-0.18
-0.01

> <PUBCHEM_SHAPE_SELFOVERLAP>
1042.098

> <PUBCHEM_SHAPE_VOLUME>
239.3

> <PUBCHEM_COORDINATE_TYPE>
2
5
10

$$$$

