73447
  -OEChem-07051212582D

 50 52  0     0  0  0  0  0  0999 V2000
    7.7331    0.2500    0.0000 O   0  0  0  0  0  0  0  0  0  0  0  0
    4.2690    0.2500    0.0000 O   0  0  0  0  0  0  0  0  0  0  0  0
    6.0010   -2.7500    0.0000 O   0  0  0  0  0  0  0  0  0  0  0  0
    5.1350    1.7500    0.0000 O   0  0  0  0  0  0  0  0  0  0  0  0
    2.5369   -2.7500    0.0000 O   0  0  0  0  0  0  0  0  0  0  0  0
    5.1350   -1.2500    0.0000 C   0  0  0  0  0  0  0  0  0  0  0  0
    6.0010    0.2500    0.0000 C   0  0  0  0  0  0  0  0  0  0  0  0
    4.2690   -1.7500    0.0000 C   0  0  0  0  0  0  0  0  0  0  0  0
    5.1350   -0.2500    0.0000 C   0  0  0  0  0  0  0  0  0  0  0  0
    6.8671    1.7500    0.0000 C   0  0  0  0  0  0  0  0  0  0  0  0
    6.8671    2.7500    0.0000 C   0  0  0  0  0  0  0  0  0  0  0  0
    6.0010    1.2500    0.0000 C   0  0  0  0  0  0  0  0  0  0  0  0
    6.8671   -0.2500    0.0000 C   0  0  0  0  0  0  0  0  0  0  0  0
    6.0010   -1.7500    0.0000 C   0  0  0  0  0  0  0  0  0  0  0  0
    4.2690   -2.7500    0.0000 C   0  0  0  0  0  0  0  0  0  0  0  0
    6.8671   -1.2500    0.0000 C   0  0  0  0  0  0  0  0  0  0  0  0
    7.7331    3.2500    0.0000 C   0  0  0  0  0  0  0  0  0  0  0  0
    3.4030   -3.2500    0.0000 C   0  0  0  0  0  0  0  0  0  0  0  0
    5.1350   -3.2500    0.0000 C   0  0  0  0  0  0  0  0  0  0  0  0
    8.5991    2.7500    0.0000 C   0  0  0  0  0  0  0  0  0  0  0  0
    7.7331    4.2500    0.0000 C   0  0  0  0  0  0  0  0  0  0  0  0
    3.4030   -4.2500    0.0000 C   0  0  0  0  0  0  0  0  0  0  0  0
    5.1350   -4.2500    0.0000 C   0  0  0  0  0  0  0  0  0  0  0  0
    4.2690   -4.7500    0.0000 C   0  0  0  0  0  0  0  0  0  0  0  0
    9.4651    3.2500    0.0000 C   0  0  0  0  0  0  0  0  0  0  0  0
    8.5991    4.7500    0.0000 C   0  0  0  0  0  0  0  0  0  0  0  0
    9.4651    4.2500    0.0000 C   0  0  0  0  0  0  0  0  0  0  0  0
    8.5991   -0.2500    0.0000 C   0  0  0  0  0  0  0  0  0  0  0  0
    4.0569   -1.1674    0.0000 H   0  0  0  0  0  0  0  0  0  0  0  0
    3.6584   -1.8577    0.0000 H   0  0  0  0  0  0  0  0  0  0  0  0
    7.0791    1.1674    0.0000 H   0  0  0  0  0  0  0  0  0  0  0  0
    7.4776    1.8577    0.0000 H   0  0  0  0  0  0  0  0  0  0  0  0
    6.6550    3.3326    0.0000 H   0  0  0  0  0  0  0  0  0  0  0  0
    6.2565    2.6423    0.0000 H   0  0  0  0  0  0  0  0  0  0  0  0
    7.4040   -1.5600    0.0000 H   0  0  0  0  0  0  0  0  0  0  0  0
    5.6720   -2.9400    0.0000 H   0  0  0  0  0  0  0  0  0  0  0  0
    8.5991    2.1300    0.0000 H   0  0  0  0  0  0  0  0  0  0  0  0
    7.1962    4.5600    0.0000 H   0  0  0  0  0  0  0  0  0  0  0  0
    3.7320   -0.0600    0.0000 H   0  0  0  0  0  0  0  0  0  0  0  0
    2.8660   -4.5600    0.0000 H   0  0  0  0  0  0  0  0  0  0  0  0
    5.6720   -4.5600    0.0000 H   0  0  0  0  0  0  0  0  0  0  0  0
    6.5380   -3.0600    0.0000 H   0  0  0  0  0  0  0  0  0  0  0  0
    4.2690   -5.3700    0.0000 H   0  0  0  0  0  0  0  0  0  0  0  0
   10.0021    2.9400    0.0000 H   0  0  0  0  0  0  0  0  0  0  0  0
    8.5991    5.3700    0.0000 H   0  0  0  0  0  0  0  0  0  0  0  0
   10.0021    4.5600    0.0000 H   0  0  0  0  0  0  0  0  0  0  0  0
    8.2891   -0.7869    0.0000 H   0  0  0  0  0  0  0  0  0  0  0  0
    9.1360   -0.5600    0.0000 H   0  0  0  0  0  0  0  0  0  0  0  0
    8.9091    0.2869    0.0000 H   0  0  0  0  0  0  0  0  0  0  0  0
    2.0000   -3.0600    0.0000 H   0  0  0  0  0  0  0  0  0  0  0  0
  1 13  1  0  0  0  0
  1 28  1  0  0  0  0
  2  9  1  0  0  0  0
  2 39  1  0  0  0  0
  3 14  1  0  0  0  0
  3 42  1  0  0  0  0
  4 12  2  0  0  0  0
  5 18  1  0  0  0  0
  5 50  1  0  0  0  0
  6  8  1  0  0  0  0
  6  9  2  0  0  0  0
  6 14  1  0  0  0  0
  7  9  1  0  0  0  0
  7 12  1  0  0  0  0
  7 13  2  0  0  0  0
  8 15  1  0  0  0  0
  8 29  1  0  0  0  0
  8 30  1  0  0  0  0
 10 11  1  0  0  0  0
 10 12  1  0  0  0  0
 10 31  1  0  0  0  0
 10 32  1  0  0  0  0
 11 17  1  0  0  0  0
 11 33  1  0  0  0  0
 11 34  1  0  0  0  0
 13 16  1  0  0  0  0
 14 16  2  0  0  0  0
 15 18  1  0  0  0  0
 15 19  2  0  0  0  0
 16 35  1  0  0  0  0
 17 20  2  0  0  0  0
 17 21  1  0  0  0  0
 18 22  2  0  0  0  0
 19 23  1  0  0  0  0
 19 36  1  0  0  0  0
 20 25  1  0  0  0  0
 20 37  1  0  0  0  0
 21 26  2  0  0  0  0
 21 38  1  0  0  0  0
 22 24  1  0  0  0  0
 22 40  1  0  0  0  0
 23 24  2  0  0  0  0
 23 41  1  0  0  0  0
 24 43  1  0  0  0  0
 25 27  2  0  0  0  0
 25 44  1  0  0  0  0
 26 27  1  0  0  0  0
 26 45  1  0  0  0  0
 27 46  1  0  0  0  0
 28 47  1  0  0  0  0
 28 48  1  0  0  0  0
 28 49  1  0  0  0  0
M  END
> <PUBCHEM_COMPOUND_CID>
73447

> <PUBCHEM_COMPOUND_CANONICALIZED>
1

> <PUBCHEM_CACTVS_COMPLEXITY>
489

> <PUBCHEM_CACTVS_HBOND_ACCEPTOR>
5

> <PUBCHEM_CACTVS_HBOND_DONOR>
3

> <PUBCHEM_CACTVS_ROTATABLE_BOND>
7

> <PUBCHEM_CACTVS_SUBSKEYS>
AAADceB4OAAAAAAAAAAAAAAAAAAAAAAAAAAwYMAAAAAAAAABUAAAGgAACAAADASAmAIyBoAABgCIAqBSAAACCAAkIAAIiAEGCMgMJzaGNRqAcWAl4BUIuQeI7OzOIAACCAAIAABAAAQQABAAAAAAAAAAAA==

> <PUBCHEM_IUPAC_OPENEYE_NAME>
1-[2,4-dihydroxy-3-[(2-hydroxyphenyl)methyl]-6-methoxy-phenyl]-3-phenyl-propan-1-one

> <PUBCHEM_IUPAC_CAS_NAME>
1-[2,4-dihydroxy-3-[(2-hydroxyphenyl)methyl]-6-methoxyphenyl]-3-phenyl-1-propanone

> <PUBCHEM_IUPAC_NAME>
1-[2,4-dihydroxy-3-[(2-hydroxyphenyl)methyl]-6-methoxyphenyl]-3-phenylpropan-1-one

> <PUBCHEM_IUPAC_SYSTEMATIC_NAME>
1-[3-[(2-hydroxyphenyl)methyl]-6-methoxy-2,4-bis(oxidanyl)phenyl]-3-phenyl-propan-1-one

> <PUBCHEM_IUPAC_TRADITIONAL_NAME>
1-(2,4-dihydroxy-6-methoxy-3-salicyl-phenyl)-3-phenyl-propan-1-one

> <PUBCHEM_IUPAC_INCHI>
InChI=1S/C23H22O5/c1-28-21-14-20(26)17(13-16-9-5-6-10-18(16)24)23(27)22(21)19(25)12-11-15-7-3-2-4-8-15/h2-10,14,24,26-27H,11-13H2,1H3

> <PUBCHEM_IUPAC_INCHIKEY>
LQHGGFQNRNEFIG-UHFFFAOYSA-N

> <PUBCHEM_XLOGP3_AA>
4.9

> <PUBCHEM_EXACT_MASS>
378.146724

> <PUBCHEM_MOLECULAR_FORMULA>
C23H22O5

> <PUBCHEM_MOLECULAR_WEIGHT>
378.41778

> <PUBCHEM_OPENEYE_CAN_SMILES>
COC1=CC(=C(C(=C1C(=O)CCC2=CC=CC=C2)O)CC3=CC=CC=C3O)O

> <PUBCHEM_OPENEYE_ISO_SMILES>
COC1=CC(=C(C(=C1C(=O)CCC2=CC=CC=C2)O)CC3=CC=CC=C3O)O

> <PUBCHEM_CACTVS_TPSA>
87

> <PUBCHEM_MONOISOTOPIC_WEIGHT>
378.146724

> <PUBCHEM_TOTAL_CHARGE>
0

> <PUBCHEM_HEAVY_ATOM_COUNT>
28

> <PUBCHEM_ATOM_DEF_STEREO_COUNT>
0

> <PUBCHEM_ATOM_UDEF_STEREO_COUNT>
0

> <PUBCHEM_BOND_DEF_STEREO_COUNT>
0

> <PUBCHEM_BOND_UDEF_STEREO_COUNT>
0

> <PUBCHEM_ISOTOPIC_ATOM_COUNT>
0

> <PUBCHEM_COMPONENT_COUNT>
1

> <PUBCHEM_CACTVS_TAUTO_COUNT>
63

> <PUBCHEM_COORDINATE_TYPE>
1
5
255

> <PUBCHEM_BONDANNOTATIONS>
13  16  8
14  16  8
15  18  8
15  19  8
17  20  8
17  21  8
18  22  8
19  23  8
20  25  8
21  26  8
22  24  8
23  24  8
25  27  8
26  27  8
6  14  8
6  9  8
7  13  8
7  9  8

$$$$

