583226
  -OEChem-06241222453D

 36 38  0     1  0  0  0  0  0999 V2000
    7.7052   -0.9879    0.2508 I   0  0  0  0  0  0  0  0  0  0  0  0
   -0.4067    0.1580    1.3723 O   0  0  0  0  0  0  0  0  0  0  0  0
    1.6774    0.4273   -0.4251 O   0  0  0  0  0  0  0  0  0  0  0  0
   -2.5063    1.0196   -0.3897 N   0  0  0  0  0  0  0  0  0  0  0  0
   -4.6371    1.5205   -0.0032 N   0  0  0  0  0  0  0  0  0  0  0  0
   -1.1032    1.2239   -0.6645 C   0  0  0  0  0  0  0  0  0  0  0  0
   -0.2735    1.3615    0.6136 C   0  0  2  0  0  0  0  0  0  0  0  0
   -3.1404   -0.1844   -0.2200 C   0  0  0  0  0  0  0  0  0  0  0  0
    1.2029    1.5647    0.2871 C   0  0  0  0  0  0  0  0  0  0  0  0
   -4.4691    0.1550    0.0200 C   0  0  0  0  0  0  0  0  0  0  0  0
   -3.4416    2.0071   -0.2512 C   0  0  0  0  0  0  0  0  0  0  0  0
   -2.6798   -1.5011   -0.2548 C   0  0  0  0  0  0  0  0  0  0  0  0
   -5.4078   -0.8669    0.2406 C   0  0  0  0  0  0  0  0  0  0  0  0
   -3.6278   -2.5055   -0.0332 C   0  0  0  0  0  0  0  0  0  0  0  0
   -4.9679   -2.1962    0.2103 C   0  0  0  0  0  0  0  0  0  0  0  0
    3.0029    0.1161   -0.2762 C   0  0  0  0  0  0  0  0  0  0  0  0
    3.9246    1.1278   -0.0297 C   0  0  0  0  0  0  0  0  0  0  0  0
    3.4146   -1.2087   -0.3731 C   0  0  0  0  0  0  0  0  0  0  0  0
    5.2746    0.8107    0.1217 C   0  0  0  0  0  0  0  0  0  0  0  0
    4.7645   -1.5257   -0.2216 C   0  0  0  0  0  0  0  0  0  0  0  0
    5.6944   -0.5159    0.0258 C   0  0  0  0  0  0  0  0  0  0  0  0
   -0.7700    0.3758   -1.2735 H   0  0  0  0  0  0  0  0  0  0  0  0
   -1.0147    2.1253   -1.2823 H   0  0  0  0  0  0  0  0  0  0  0  0
   -0.6467    2.1915    1.2242 H   0  0  0  0  0  0  0  0  0  0  0  0
    1.7342    1.6808    1.2410 H   0  0  0  0  0  0  0  0  0  0  0  0
    1.3387    2.4655   -0.3222 H   0  0  0  0  0  0  0  0  0  0  0  0
   -3.1961    3.0567   -0.3392 H   0  0  0  0  0  0  0  0  0  0  0  0
   -1.6413   -1.7469   -0.4447 H   0  0  0  0  0  0  0  0  0  0  0  0
   -6.4513   -0.6371    0.4306 H   0  0  0  0  0  0  0  0  0  0  0  0
    0.1157    0.2653    2.1853 H   0  0  0  0  0  0  0  0  0  0  0  0
   -3.3146   -3.5465   -0.0514 H   0  0  0  0  0  0  0  0  0  0  0  0
   -5.6814   -2.9988    0.3789 H   0  0  0  0  0  0  0  0  0  0  0  0
    3.6438    2.1750    0.0241 H   0  0  0  0  0  0  0  0  0  0  0  0
    2.6932   -1.9979   -0.5653 H   0  0  0  0  0  0  0  0  0  0  0  0
    5.9839    1.6133    0.3077 H   0  0  0  0  0  0  0  0  0  0  0  0
    5.0701   -2.5659   -0.3000 H   0  0  0  0  0  0  0  0  0  0  0  0
  1 21  1  0  0  0  0
  2  7  1  0  0  0  0
  2 30  1  0  0  0  0
  3  9  1  0  0  0  0
  3 16  1  0  0  0  0
  4  6  1  0  0  0  0
  4  8  1  0  0  0  0
  4 11  1  0  0  0  0
  5 10  1  0  0  0  0
  5 11  2  0  0  0  0
  6  7  1  0  0  0  0
  6 22  1  0  0  0  0
  6 23  1  0  0  0  0
  7  9  1  0  0  0  0
  7 24  1  0  0  0  0
  8 10  1  0  0  0  0
  8 12  2  0  0  0  0
  9 25  1  0  0  0  0
  9 26  1  0  0  0  0
 10 13  2  0  0  0  0
 11 27  1  0  0  0  0
 12 14  1  0  0  0  0
 12 28  1  0  0  0  0
 13 15  1  0  0  0  0
 13 29  1  0  0  0  0
 14 15  2  0  0  0  0
 14 31  1  0  0  0  0
 15 32  1  0  0  0  0
 16 17  2  0  0  0  0
 16 18  1  0  0  0  0
 17 19  1  0  0  0  0
 17 33  1  0  0  0  0
 18 20  2  0  0  0  0
 18 34  1  0  0  0  0
 19 21  2  0  0  0  0
 19 35  1  0  0  0  0
 20 21  1  0  0  0  0
 20 36  1  0  0  0  0
M  END
> <PUBCHEM_COMPOUND_CID>
583226

> <PUBCHEM_CONFORMER_RMSD>
0.8

> <PUBCHEM_CONFORMER_DIVERSEORDER>
11
63
57
75
13
104
35
7
86
14
48
77
80
95
67
46
60
81
92
33
27
1
15
68
87
107
94
103
89
106
100
32
51
31
8
2
98
12
18
70
10
24
34
65
99
74
50
61
83
36
3
64
88
96
59
56
20
97
84
45
17
39
73
85
37
26
49
16
54
21
5
82
6
101
28
43
52
19
66
58
42
38
25
93
44
23
105
62
9
91
22
102
30
79
69
4
55
53
40
72
76
78
90
29
41
71
47

> <PUBCHEM_MMFF94_PARTIAL_CHARGES>
31
1 -0.08
10 0.23
11 0.04
12 -0.15
13 -0.15
14 -0.15
15 -0.15
16 0.08
17 -0.15
18 -0.15
19 -0.15
2 -0.68
20 -0.15
21 0.08
27 0.15
28 0.15
29 0.15
3 -0.36
30 0.4
31 0.15
32 0.15
33 0.15
34 0.15
35 0.15
36 0.15
4 0.05
5 -0.57
6 0.26
7 0.28
8 -0.15
9 0.28

> <PUBCHEM_EFFECTIVE_ROTOR_COUNT>
5

> <PUBCHEM_PHARMACOPHORE_FEATURES>
8
1 1 hydrophobe
1 2 acceptor
1 2 donor
1 3 acceptor
3 4 5 11 cation
5 4 5 8 10 11 rings
6 16 17 18 19 20 21 rings
6 8 10 12 13 14 15 rings

> <PUBCHEM_HEAVY_ATOM_COUNT>
21

> <PUBCHEM_ATOM_DEF_STEREO_COUNT>
0

> <PUBCHEM_ATOM_UDEF_STEREO_COUNT>
1

> <PUBCHEM_BOND_DEF_STEREO_COUNT>
0

> <PUBCHEM_BOND_UDEF_STEREO_COUNT>
0

> <PUBCHEM_ISOTOPIC_ATOM_COUNT>
0

> <PUBCHEM_COMPONENT_COUNT>
1

> <PUBCHEM_CACTVS_TAUTO_COUNT>
1

> <PUBCHEM_CONFORMER_ID>
0008E63A0000000B

> <PUBCHEM_MMFF94_ENERGY>
51.8404

> <PUBCHEM_FEATURE_SELFOVERLAP>
40.706

> <PUBCHEM_SHAPE_FINGERPRINT>
10595046 47 18343017762117506724
10835480 77 18335147483429310680
11315181 36 18410572894293496833
11524674 6 17312823770872192999
11796584 16 18337392742196935066
12166972 35 18201716246241607564
12760667 363 18334296436181256583
13167823 11 18413390938521669134
13288520 33 18411418410387694197
13402501 40 18408038502822361390
13740256 8 18409166597573172904
14251751 18 18410011014002859138
14251764 18 18040991826873287441
14420673 8 18410007766912949687
15183329 4 18131356323435938266
15196674 1 18410011035345950382
15352361 1 18410573959471344263
15537594 2 17846216704223173371
15788980 27 18201716258493116632
17492 89 18125438605921233483
17780758 139 17967529090865380129
17844677 252 18409724058643195208
17857418 61 18410013204425689263
1813 80 17489591129993505509
18393751 57 16237899143550463281
19141452 34 18412260653675062429
200 152 18260830414686767768
21054139 6 18060139843209134930
21267235 1 18413101745219799699
21403212 168 18188759661670710329
21623969 137 17676485056121689918
23035841 295 18410855477893561018
23402539 116 17131834291489924732
23522609 53 18122873539393386477
23559900 14 18336837368724625329
239999 70 18187358840632963446
25122255 55 18260818341734451334
26918003 58 18186523228416715584
3004659 81 18272089396828259504
335352 9 18411139143746932029
4073 2 18201433654235374170
4214541 1 18410855473229685893
4325135 7 18343017758001666836
5104073 3 18260832605157051616
5283173 99 18412265077280621032
559249 180 18413109485109504735
7495541 125 18186803539610393568
7970288 3 17906172846312992943
999808 66 17988630879561161091

> <PUBCHEM_SHAPE_MULTIPOLES>
422.4
17.82
2.28
0.77
19.87
0.56
-0.08
7.51
-0.77
-2.47
0.02
0.08
-0.03
0.31

> <PUBCHEM_SHAPE_SELFOVERLAP>
892.418

> <PUBCHEM_SHAPE_VOLUME>
241.4

> <PUBCHEM_COORDINATE_TYPE>
2
5
10

$$$$

