11954112
  -OEChem-07051213062D

 54 57  0     1  0  0  0  0  0999 V2000
    2.9686   -2.8673    0.0000 O   0  0  0  0  0  0  0  0  0  0  0  0
    2.9316    4.3709    0.0000 O   0  0  0  0  0  0  0  0  0  0  0  0
    3.8628   -4.3951    0.0000 O   0  0  0  0  0  0  0  0  0  0  0  0
    5.6406   -4.3709    0.0000 O   0  0  0  0  0  0  0  0  0  0  0  0
    2.9686    1.2157    0.0000 C   0  0  2  0  0  0  0  0  0  0  0  0
    2.9847    0.1742    0.0000 C   0  0  2  0  0  0  0  0  0  0  0  0
    3.8507   -0.3258    0.0000 C   0  0  2  0  0  0  0  0  0  0  0  0
    3.8667    1.7434    0.0000 C   0  0  1  0  0  0  0  0  0  0  0  0
    3.8507   -1.3258    0.0000 C   0  0  1  0  0  0  0  0  0  0  0  0
    4.7607    0.1810    0.0000 C   0  0  0  0  0  0  0  0  0  0  0  0
    2.1187   -0.3258    0.0000 C   0  0  0  0  0  0  0  0  0  0  0  0
    2.9847   -1.8258    0.0000 C   0  0  2  0  0  0  0  0  0  0  0  0
    4.7688    1.2226    0.0000 C   0  0  0  0  0  0  0  0  0  0  0  0
    2.0167    1.7363    0.0000 C   0  0  0  0  0  0  0  0  0  0  0  0
    2.1187   -1.3258    0.0000 C   0  0  0  0  0  0  0  0  0  0  0  0
    3.8751    2.8284    0.0000 C   0  0  0  0  0  0  0  0  0  0  0  0
    2.1065    0.7090    0.0000 C   0  0  0  0  0  0  0  0  0  0  0  0
    2.0000    2.8212    0.0000 C   0  0  0  0  0  0  0  0  0  0  0  0
    2.9354    3.3709    0.0000 C   0  0  2  0  0  0  0  0  0  0  0  0
    4.7607   -1.8326    0.0000 C   0  0  0  0  0  0  0  0  0  0  0  0
    2.1187   -2.3258    0.0000 C   0  0  0  0  0  0  0  0  0  0  0  0
    4.7688   -2.8742    0.0000 C   0  0  0  0  0  0  0  0  0  0  0  0
    3.8667   -3.3951    0.0000 C   0  0  0  0  0  0  0  0  0  0  0  0
    5.6367   -3.3709    0.0000 C   0  0  0  0  0  0  0  0  0  0  0  0
    2.2453    0.5935    0.0000 H   0  0  0  0  0  0  0  0  0  0  0  0
    4.5836   -0.7565    0.0000 H   0  0  0  0  0  0  0  0  0  0  0  0
    4.6044    2.1656    0.0000 H   0  0  0  0  0  0  0  0  0  0  0  0
    4.5836   -0.8951    0.0000 H   0  0  0  0  0  0  0  0  0  0  0  0
    4.9653   -0.4042    0.0000 H   0  0  0  0  0  0  0  0  0  0  0  0
    5.3724    0.2824    0.0000 H   0  0  0  0  0  0  0  0  0  0  0  0
    1.9066    0.2568    0.0000 H   0  0  0  0  0  0  0  0  0  0  0  0
    1.5081   -0.4335    0.0000 H   0  0  0  0  0  0  0  0  0  0  0  0
    5.3788    1.1118    0.0000 H   0  0  0  0  0  0  0  0  0  0  0  0
    4.9823    1.8047    0.0000 H   0  0  0  0  0  0  0  0  0  0  0  0
    1.4043    1.8330    0.0000 H   0  0  0  0  0  0  0  0  0  0  0  0
    1.8167    1.1495    0.0000 H   0  0  0  0  0  0  0  0  0  0  0  0
    1.5081   -1.2182    0.0000 H   0  0  0  0  0  0  0  0  0  0  0  0
    1.9066   -1.9084    0.0000 H   0  0  0  0  0  0  0  0  0  0  0  0
    4.4851    2.7176    0.0000 H   0  0  0  0  0  0  0  0  0  0  0  0
    4.0886    3.4105    0.0000 H   0  0  0  0  0  0  0  0  0  0  0  0
    1.7924    1.2436    0.0000 H   0  0  0  0  0  0  0  0  0  0  0  0
    1.5720    0.3949    0.0000 H   0  0  0  0  0  0  0  0  0  0  0  0
    2.4206    0.1745    0.0000 H   0  0  0  0  0  0  0  0  0  0  0  0
    1.7820    3.4016    0.0000 H   0  0  0  0  0  0  0  0  0  0  0  0
    1.3908    2.7057    0.0000 H   0  0  0  0  0  0  0  0  0  0  0  0
    3.4718    3.6820    0.0000 H   0  0  0  0  0  0  0  0  0  0  0  0
    5.3724   -1.9340    0.0000 H   0  0  0  0  0  0  0  0  0  0  0  0
    4.9653   -1.2474    0.0000 H   0  0  0  0  0  0  0  0  0  0  0  0
    1.8087   -1.7889    0.0000 H   0  0  0  0  0  0  0  0  0  0  0  0
    1.5818   -2.6358    0.0000 H   0  0  0  0  0  0  0  0  0  0  0  0
    2.4287   -2.8627    0.0000 H   0  0  0  0  0  0  0  0  0  0  0  0
    2.3934    4.6788    0.0000 H   0  0  0  0  0  0  0  0  0  0  0  0
    6.1725   -3.0588    0.0000 H   0  0  0  0  0  0  0  0  0  0  0  0
    6.1787   -4.6788    0.0000 H   0  0  0  0  0  0  0  0  0  0  0  0
  1 12  1  0  0  0  0
  1 23  1  0  0  0  0
 19  2  1  6  0  0  0
  2 52  1  0  0  0  0
  3 23  2  0  0  0  0
  4 24  1  0  0  0  0
  4 54  1  0  0  0  0
  5  6  1  0  0  0  0
  5  8  1  0  0  0  0
  5 14  1  0  0  0  0
  5 17  1  6  0  0  0
  6  7  1  0  0  0  0
  6 11  1  0  0  0  0
  6 25  1  1  0  0  0
  7  9  1  0  0  0  0
  7 10  1  0  0  0  0
  7 26  1  6  0  0  0
  8 13  1  0  0  0  0
  8 16  1  0  0  0  0
  8 27  1  1  0  0  0
  9 12  1  0  0  0  0
  9 20  1  0  0  0  0
  9 28  1  1  0  0  0
 10 13  1  0  0  0  0
 10 29  1  0  0  0  0
 10 30  1  0  0  0  0
 11 15  1  0  0  0  0
 11 31  1  0  0  0  0
 11 32  1  0  0  0  0
 12 15  1  0  0  0  0
 12 21  1  6  0  0  0
 13 33  1  0  0  0  0
 13 34  1  0  0  0  0
 14 18  1  0  0  0  0
 14 35  1  0  0  0  0
 14 36  1  0  0  0  0
 15 37  1  0  0  0  0
 15 38  1  0  0  0  0
 16 19  1  0  0  0  0
 16 39  1  0  0  0  0
 16 40  1  0  0  0  0
 17 41  1  0  0  0  0
 17 42  1  0  0  0  0
 17 43  1  0  0  0  0
 18 19  1  0  0  0  0
 18 44  1  0  0  0  0
 18 45  1  0  0  0  0
 19 46  1  0  0  0  0
 20 22  1  0  0  0  0
 20 47  1  0  0  0  0
 20 48  1  0  0  0  0
 21 49  1  0  0  0  0
 21 50  1  0  0  0  0
 21 51  1  0  0  0  0
 22 23  1  0  0  0  0
 22 24  2  0  0  0  0
 24 53  1  0  0  0  0
M  END
> <PUBCHEM_COMPOUND_CID>
11954112

> <PUBCHEM_COMPOUND_CANONICALIZED>
1

> <PUBCHEM_CACTVS_COMPLEXITY>
570

> <PUBCHEM_CACTVS_HBOND_ACCEPTOR>
4

> <PUBCHEM_CACTVS_HBOND_DONOR>
2

> <PUBCHEM_CACTVS_ROTATABLE_BOND>
0

> <PUBCHEM_CACTVS_SUBSKEYS>
AAADceB4OAAAAAAAAAAAAAAAAAAAAAAAAAA0YMEAAAAAAADQAAAAGgAACAAAD1SggAICCAAABgCIAgDSCAAAAAAgIAAAAAEAAEgAFBIAIQACQAAEgAAAIIGIzPDPgAAAAAAAAADAAAYAADAAAAAAAAAAAA==

> <PUBCHEM_IUPAC_OPENEYE_NAME>
(3Z,4aS,4bR,6aS,8S,10aS,10bS,12aS)-8-hydroxy-3-(hydroxymethylene)-10a,12a-dimethyl-4a,4b,5,6,6a,7,8,9,10,10b,11,12-dodecahydro-4H-naphtho[2,1-f]chromen-2-one

> <PUBCHEM_IUPAC_CAS_NAME>
(3Z,4aS,4bR,6aS,8S,10aS,10bS,12aS)-8-hydroxy-3-(hydroxymethylidene)-10a,12a-dimethyl-4a,4b,5,6,6a,7,8,9,10,10b,11,12-dodecahydro-4H-naphtho[2,1-f][1]benzopyran-2-one

> <PUBCHEM_IUPAC_NAME>
(3Z,4aS,4bR,6aS,8S,10aS,10bS,12aS)-8-hydroxy-3-(hydroxymethylidene)-10a,12a-dimethyl-4a,4b,5,6,6a,7,8,9,10,10b,11,12-dodecahydro-4H-naphtho[2,1-f]chromen-2-one

> <PUBCHEM_IUPAC_SYSTEMATIC_NAME>
(3Z,4aS,4bR,6aS,8S,10aS,10bS,12aS)-10a,12a-dimethyl-8-oxidanyl-3-(oxidanylmethylidene)-4a,4b,5,6,6a,7,8,9,10,10b,11,12-dodecahydro-4H-naphtho[2,1-f]chromen-2-one

> <PUBCHEM_IUPAC_TRADITIONAL_NAME>
(3Z,4aS,4bR,6aS,8S,10aS,10bS,12aS)-8-hydroxy-3-(hydroxymethylene)-10a,12a-dimethyl-4a,4b,5,6,6a,7,8,9,10,10b,11,12-dodecahydro-4H-naphtho[2,1-f]chromen-2-one

> <PUBCHEM_IUPAC_INCHI>
InChI=1S/C20H30O4/c1-19-7-5-14(22)10-13(19)3-4-15-16(19)6-8-20(2)17(15)9-12(11-21)18(23)24-20/h11,13-17,21-22H,3-10H2,1-2H3/b12-11-/t13-,14-,15+,16-,17-,19-,20-/m0/s1

> <PUBCHEM_IUPAC_INCHIKEY>
LUCOQXWMBYAVDV-BADRVWPOSA-N

> <PUBCHEM_XLOGP3_AA>
4.1

> <PUBCHEM_EXACT_MASS>
334.214409

> <PUBCHEM_MOLECULAR_FORMULA>
C20H30O4

> <PUBCHEM_MOLECULAR_WEIGHT>
334.4498

> <PUBCHEM_OPENEYE_CAN_SMILES>
CC12CCC(CC1CCC3C2CCC4(C3CC(=CO)C(=O)O4)C)O

> <PUBCHEM_OPENEYE_ISO_SMILES>
C[C@]12CC[C@@H](C[C@@H]1CC[C@@H]3[C@@H]2CC[C@]4([C@H]3C/C(=C/O)/C(=O)O4)C)O

> <PUBCHEM_CACTVS_TPSA>
66.8

> <PUBCHEM_MONOISOTOPIC_WEIGHT>
334.214409

> <PUBCHEM_TOTAL_CHARGE>
0

> <PUBCHEM_HEAVY_ATOM_COUNT>
24

> <PUBCHEM_ATOM_DEF_STEREO_COUNT>
7

> <PUBCHEM_ATOM_UDEF_STEREO_COUNT>
0

> <PUBCHEM_BOND_DEF_STEREO_COUNT>
1

> <PUBCHEM_BOND_UDEF_STEREO_COUNT>
0

> <PUBCHEM_ISOTOPIC_ATOM_COUNT>
0

> <PUBCHEM_COMPONENT_COUNT>
1

> <PUBCHEM_CACTVS_TAUTO_COUNT>
3

> <PUBCHEM_COORDINATE_TYPE>
1
5
255

> <PUBCHEM_BONDANNOTATIONS>
12  21  6
19  2  6
5  17  6
6  25  5
7  26  6
8  27  5
9  28  5

$$$$

