96670
  -OEChem-07051213063D

 40 42  0     0  0  0  0  0  0999 V2000
   -2.3640    1.6146   -0.3924 O   0  0  0  0  0  0  0  0  0  0  0  0
   -0.5123   -2.1843   -0.6870 O   0  0  0  0  0  0  0  0  0  0  0  0
    5.5754   -1.3769    0.4288 O   0  0  0  0  0  0  0  0  0  0  0  0
   -3.1025   -0.6161   -0.8736 C   0  0  0  0  0  0  0  0  0  0  0  0
   -2.0098    0.3116   -0.5439 C   0  0  0  0  0  0  0  0  0  0  0  0
   -0.6579    0.1482   -0.3485 C   0  0  0  0  0  0  0  0  0  0  0  0
   -3.7751   -1.2187    0.3803 C   0  0  0  0  0  0  0  0  0  0  0  0
   -0.1371    1.4364   -0.0564 C   0  0  0  0  0  0  0  0  0  0  0  0
   -1.2254    2.3020   -0.0954 C   0  0  0  0  0  0  0  0  0  0  0  0
   -4.8799   -2.2158    0.0308 C   0  0  0  0  0  0  0  0  0  0  0  0
    0.0440   -1.0997   -0.4341 C   0  0  0  0  0  0  0  0  0  0  0  0
    1.1319    1.9659    0.2367 C   0  0  0  0  0  0  0  0  0  0  0  0
   -1.1419    3.6735    0.1382 C   0  0  0  0  0  0  0  0  0  0  0  0
   -5.4978   -2.8236    1.2800 C   0  0  0  0  0  0  0  0  0  0  0  0
    1.5197   -1.1725   -0.2042 C   0  0  0  0  0  0  0  0  0  0  0  0
    1.2475    3.3421    0.4761 C   0  0  0  0  0  0  0  0  0  0  0  0
    0.1293    4.1785    0.4270 C   0  0  0  0  0  0  0  0  0  0  0  0
    1.9742   -1.3936    1.0743 C   0  0  0  0  0  0  0  0  0  0  0  0
    2.3611   -1.0161   -1.2804 C   0  0  0  0  0  0  0  0  0  0  0  0
    3.3508   -1.4623    1.2894 C   0  0  0  0  0  0  0  0  0  0  0  0
    3.7375   -1.0850   -1.0654 C   0  0  0  0  0  0  0  0  0  0  0  0
    4.2324   -1.3080    0.2195 C   0  0  0  0  0  0  0  0  0  0  0  0
   -3.8645   -0.0850   -1.4587 H   0  0  0  0  0  0  0  0  0  0  0  0
   -2.7416   -1.4213   -1.5229 H   0  0  0  0  0  0  0  0  0  0  0  0
   -4.1898   -0.4094    0.9950 H   0  0  0  0  0  0  0  0  0  0  0  0
   -3.0147   -1.7191    0.9936 H   0  0  0  0  0  0  0  0  0  0  0  0
   -5.6605   -1.7145   -0.5529 H   0  0  0  0  0  0  0  0  0  0  0  0
   -4.4712   -3.0181   -0.5945 H   0  0  0  0  0  0  0  0  0  0  0  0
    2.0311    1.3662    0.2879 H   0  0  0  0  0  0  0  0  0  0  0  0
   -2.0137    4.3157    0.0985 H   0  0  0  0  0  0  0  0  0  0  0  0
   -5.9415   -2.0496    1.9144 H   0  0  0  0  0  0  0  0  0  0  0  0
   -4.7467   -3.3611    1.8676 H   0  0  0  0  0  0  0  0  0  0  0  0
   -6.2860   -3.5321    1.0068 H   0  0  0  0  0  0  0  0  0  0  0  0
    2.2229    3.7646    0.7036 H   0  0  0  0  0  0  0  0  0  0  0  0
    0.2494    5.2422    0.6172 H   0  0  0  0  0  0  0  0  0  0  0  0
    1.2911   -1.5143    1.9094 H   0  0  0  0  0  0  0  0  0  0  0  0
    1.9796   -0.8424   -2.2818 H   0  0  0  0  0  0  0  0  0  0  0  0
    3.7234   -1.6366    2.2952 H   0  0  0  0  0  0  0  0  0  0  0  0
    4.4192   -0.9641   -1.9028 H   0  0  0  0  0  0  0  0  0  0  0  0
    5.7391   -1.5362    1.3744 H   0  0  0  0  0  0  0  0  0  0  0  0
  1  5  1  0  0  0  0
  1  9  1  0  0  0  0
  2 11  2  0  0  0  0
  3 22  1  0  0  0  0
  3 40  1  0  0  0  0
  4  5  1  0  0  0  0
  4  7  1  0  0  0  0
  4 23  1  0  0  0  0
  4 24  1  0  0  0  0
  5  6  2  0  0  0  0
  6  8  1  0  0  0  0
  6 11  1  0  0  0  0
  7 10  1  0  0  0  0
  7 25  1  0  0  0  0
  7 26  1  0  0  0  0
  8  9  1  0  0  0  0
  8 12  2  0  0  0  0
  9 13  2  0  0  0  0
 10 14  1  0  0  0  0
 10 27  1  0  0  0  0
 10 28  1  0  0  0  0
 11 15  1  0  0  0  0
 12 16  1  0  0  0  0
 12 29  1  0  0  0  0
 13 17  1  0  0  0  0
 13 30  1  0  0  0  0
 14 31  1  0  0  0  0
 14 32  1  0  0  0  0
 14 33  1  0  0  0  0
 15 18  2  0  0  0  0
 15 19  1  0  0  0  0
 16 17  2  0  0  0  0
 16 34  1  0  0  0  0
 17 35  1  0  0  0  0
 18 20  1  0  0  0  0
 18 36  1  0  0  0  0
 19 21  2  0  0  0  0
 19 37  1  0  0  0  0
 20 22  2  0  0  0  0
 20 38  1  0  0  0  0
 21 22  1  0  0  0  0
 21 39  1  0  0  0  0
M  END
> <PUBCHEM_COMPOUND_CID>
96670

> <PUBCHEM_CONFORMER_RMSD>
0.8

> <PUBCHEM_CONFORMER_DIVERSEORDER>
1
26
23
4
33
34
29
21
35
20
31
25
14
12
16
19
10
30
27
24
5
2
22
37
28
8
17
9
6
36
11
3
18
7
15
13
32

> <PUBCHEM_MMFF94_PARTIAL_CHARGES>
27
1 -0.28
11 0.57
12 -0.15
13 -0.15
15 0.09
16 -0.15
17 -0.15
18 -0.15
19 -0.15
2 -0.57
20 -0.15
21 -0.15
22 0.08
29 0.15
3 -0.53
30 0.15
34 0.15
35 0.15
36 0.15
37 0.15
38 0.15
39 0.15
4 0.18
40 0.45
5 -0.04
6 -0.09
9 0.14

> <PUBCHEM_EFFECTIVE_ROTOR_COUNT>
5

> <PUBCHEM_PHARMACOPHORE_FEATURES>
7
1 1 acceptor
1 14 hydrophobe
1 2 acceptor
1 3 donor
5 1 5 6 8 9 rings
6 15 18 19 20 21 22 rings
6 8 9 12 13 16 17 rings

> <PUBCHEM_HEAVY_ATOM_COUNT>
22

> <PUBCHEM_ATOM_DEF_STEREO_COUNT>
0

> <PUBCHEM_ATOM_UDEF_STEREO_COUNT>
0

> <PUBCHEM_BOND_DEF_STEREO_COUNT>
0

> <PUBCHEM_BOND_UDEF_STEREO_COUNT>
0

> <PUBCHEM_ISOTOPIC_ATOM_COUNT>
0

> <PUBCHEM_COMPONENT_COUNT>
1

> <PUBCHEM_CACTVS_TAUTO_COUNT>
4

> <PUBCHEM_CONFORMER_ID>
0001799E00000001

> <PUBCHEM_MMFF94_ENERGY>
46.7438

> <PUBCHEM_FEATURE_SELFOVERLAP>
35.622

> <PUBCHEM_SHAPE_FINGERPRINT>
10319926 262 17902537079540549970
10411042 1 18410012121983401143
10498660 4 17830742311256377692
10906281 52 18117558655277858789
1100329 8 18338515360939219873
11578080 2 17559141872016979940
12107183 9 18335969931976549659
12173636 292 17399519412414101796
12293681 160 17615716328123389973
12553582 1 18409728499860522711
12596602 18 17774176703283978242
12788726 201 18343293799576255266
13140716 1 18408324419101139809
138480 1 14950682901483366789
14363568 33 18190467056409104072
14787075 74 18131064909852157074
14790565 3 17614841146647867817
15042514 8 18265893747031054239
15927050 60 17615965513334645206
16945 1 17975699711715885149
17492 89 18267584792174254374
1813 80 18187072949675797255
18222031 100 18261397715558539911
18785283 64 18052258388651452897
20028762 73 18042403526674280087
20510252 161 18116719714872607832
20739085 24 18263629698408399777
20905425 154 18334576815799226492
21029758 27 18409169908818716087
21033648 29 17313396668481632963
21041028 32 18408039594155095349
21197605 99 17043724618388451843
21344244 78 17822847573171848403
22182313 1 18265075590084306165
2297311 6 18335975459072217886
2334 1 18336274474141509653
23402539 116 18188789356357475270
23419403 2 18128280929067073421
23557571 272 18043536233818124428
23558518 356 17983004850007516890
23559900 14 17631174087546920079
2748010 2 18263104204422103493
3091708 16 9425722321678394933
3411729 13 18048590426756990993
3421961 26 18267300929121068779
392239 28 18341896316186254440
458136 41 17763459518197325501
469060 322 18336813295005176746
621550 5 17532075245957906510
6371380 46 18202001015785294955
6442390 28 17324626173593009873
7495541 125 18270396084107279935
7808743 9 17975697509283879144
81228 2 17973448994608413813
8863177 126 17771612466032991923

> <PUBCHEM_SHAPE_MULTIPOLES>
435.14
8.62
4.64
1.07
3.73
5.91
-0.06
-11.44
-1.99
1.12
-1.08
-0.22
-0.54
0.77

> <PUBCHEM_SHAPE_SELFOVERLAP>
950.408

> <PUBCHEM_SHAPE_VOLUME>
238.4

> <PUBCHEM_COORDINATE_TYPE>
2
5
10

$$$$

