47205700
  -OEChem-06241222592D

 31 32  0     0  0  0  0  0  0999 V2000
    2.8660   -4.8080    0.0000 F   0  0  0  0  0  0  0  0  0  0  0  0
    3.7320   -0.3080    0.0000 O   0  0  0  0  0  0  0  0  0  0  0  0
    7.0468    3.0284    0.0000 O   0  0  0  0  0  0  0  0  0  0  0  0
    5.4641    0.6920    0.0000 O   0  0  0  0  0  0  0  0  0  0  0  0
    2.8660    1.1920    0.0000 O   0  0  0  0  0  0  0  0  0  0  0  0
    4.5981    2.1920    0.0000 N   0  0  0  0  0  0  0  0  0  0  0  0
    6.3776    2.2853    0.0000 N   0  0  0  0  0  0  0  0  0  0  0  0
    2.8660   -1.8080    0.0000 C   0  0  0  0  0  0  0  0  0  0  0  0
    2.8660   -0.8080    0.0000 C   0  0  0  0  0  0  0  0  0  0  0  0
    2.0000   -2.3080    0.0000 C   0  0  0  0  0  0  0  0  0  0  0  0
    3.7320   -2.3080    0.0000 C   0  0  0  0  0  0  0  0  0  0  0  0
    5.4641    2.6920    0.0000 C   0  0  0  0  0  0  0  0  0  0  0  0
    6.5468    3.8944    0.0000 C   0  0  0  0  0  0  0  0  0  0  0  0
    5.5686    3.6865    0.0000 C   0  0  0  0  0  0  0  0  0  0  0  0
    2.0000   -3.3080    0.0000 C   0  0  0  0  0  0  0  0  0  0  0  0
    3.7320   -3.3080    0.0000 C   0  0  0  0  0  0  0  0  0  0  0  0
    2.8660   -3.8080    0.0000 C   0  0  0  0  0  0  0  0  0  0  0  0
    4.5981    1.1920    0.0000 C   0  0  0  0  0  0  0  0  0  0  0  0
    3.7320    0.6920    0.0000 C   0  0  0  0  0  0  0  0  0  0  0  0
    6.9535    4.8080    0.0000 C   0  0  0  0  0  0  0  0  0  0  0  0
    2.6540   -0.2254    0.0000 H   0  0  0  0  0  0  0  0  0  0  0  0
    2.2554   -0.9157    0.0000 H   0  0  0  0  0  0  0  0  0  0  0  0
    1.4631   -1.9980    0.0000 H   0  0  0  0  0  0  0  0  0  0  0  0
    4.2690   -1.9980    0.0000 H   0  0  0  0  0  0  0  0  0  0  0  0
    5.1079    4.1014    0.0000 H   0  0  0  0  0  0  0  0  0  0  0  0
    1.4631   -3.6180    0.0000 H   0  0  0  0  0  0  0  0  0  0  0  0
    4.2690   -3.6180    0.0000 H   0  0  0  0  0  0  0  0  0  0  0  0
    4.0611    2.5020    0.0000 H   0  0  0  0  0  0  0  0  0  0  0  0
    7.5199    4.5558    0.0000 H   0  0  0  0  0  0  0  0  0  0  0  0
    7.2057    5.3744    0.0000 H   0  0  0  0  0  0  0  0  0  0  0  0
    6.3871    5.0602    0.0000 H   0  0  0  0  0  0  0  0  0  0  0  0
  1 17  1  0  0  0  0
  2  9  1  0  0  0  0
  2 19  1  0  0  0  0
  3  7  1  0  0  0  0
  3 13  1  0  0  0  0
  4 18  2  0  0  0  0
  5 19  2  0  0  0  0
  6 12  1  0  0  0  0
  6 18  1  0  0  0  0
  6 28  1  0  0  0  0
  7 12  2  0  0  0  0
  8  9  1  0  0  0  0
  8 10  2  0  0  0  0
  8 11  1  0  0  0  0
  9 21  1  0  0  0  0
  9 22  1  0  0  0  0
 10 15  1  0  0  0  0
 10 23  1  0  0  0  0
 11 16  2  0  0  0  0
 11 24  1  0  0  0  0
 12 14  1  0  0  0  0
 13 14  2  0  0  0  0
 13 20  1  0  0  0  0
 14 25  1  0  0  0  0
 15 17  2  0  0  0  0
 15 26  1  0  0  0  0
 16 17  1  0  0  0  0
 16 27  1  0  0  0  0
 18 19  1  0  0  0  0
 20 29  1  0  0  0  0
 20 30  1  0  0  0  0
 20 31  1  0  0  0  0
M  END
> <PUBCHEM_COMPOUND_CID>
47205700

> <PUBCHEM_COMPOUND_CANONICALIZED>
1

> <PUBCHEM_CACTVS_COMPLEXITY>
358

> <PUBCHEM_CACTVS_HBOND_ACCEPTOR>
6

> <PUBCHEM_CACTVS_HBOND_DONOR>
1

> <PUBCHEM_CACTVS_ROTATABLE_BOND>
5

> <PUBCHEM_CACTVS_SUBSKEYS>
AAADccBzOQAAAAAAAAAAAAAAAAAAAWAAAAAwAAAAAAAAAAABwAAAHwAUAAAADAShmgozvJLQBACpAqPyegKCAAAlIgApmCH2bNqKJirAubyHMIhm1QvY6EeAwCAOAAAAAAAAAAAAAAAAAAAAAAAAAAAAAA==

> <PUBCHEM_IUPAC_OPENEYE_NAME>
(4-fluorophenyl)methyl 2-[(5-methylisoxazol-3-yl)amino]-2-oxo-acetate

> <PUBCHEM_IUPAC_CAS_NAME>
2-[(5-methyl-3-isoxazolyl)amino]-2-oxoacetic acid (4-fluorophenyl)methyl ester

> <PUBCHEM_IUPAC_NAME>
(4-fluorophenyl)methyl 2-[(5-methyl-1,2-oxazol-3-yl)amino]-2-oxoacetate

> <PUBCHEM_IUPAC_SYSTEMATIC_NAME>
(4-fluorophenyl)methyl 2-[(5-methyl-1,2-oxazol-3-yl)amino]-2-oxidanylidene-ethanoate

> <PUBCHEM_IUPAC_TRADITIONAL_NAME>
2-keto-2-[(5-methylisoxazol-3-yl)amino]acetic acid (4-fluorobenzyl) ester

> <PUBCHEM_IUPAC_INCHI>
InChI=1S/C13H11FN2O4/c1-8-6-11(16-20-8)15-12(17)13(18)19-7-9-2-4-10(14)5-3-9/h2-6H,7H2,1H3,(H,15,16,17)

> <PUBCHEM_IUPAC_INCHIKEY>
OLEZEVXVBNOHFY-UHFFFAOYSA-N

> <PUBCHEM_XLOGP3_AA>
2.2

> <PUBCHEM_EXACT_MASS>
278.070285

> <PUBCHEM_MOLECULAR_FORMULA>
C13H11FN2O4

> <PUBCHEM_MOLECULAR_WEIGHT>
278.235843

> <PUBCHEM_OPENEYE_CAN_SMILES>
CC1=CC(=NO1)NC(=O)C(=O)OCC2=CC=C(C=C2)F

> <PUBCHEM_OPENEYE_ISO_SMILES>
CC1=CC(=NO1)NC(=O)C(=O)OCC2=CC=C(C=C2)F

> <PUBCHEM_CACTVS_TPSA>
81.4

> <PUBCHEM_MONOISOTOPIC_WEIGHT>
278.070285

> <PUBCHEM_TOTAL_CHARGE>
0

> <PUBCHEM_HEAVY_ATOM_COUNT>
20

> <PUBCHEM_ATOM_DEF_STEREO_COUNT>
0

> <PUBCHEM_ATOM_UDEF_STEREO_COUNT>
0

> <PUBCHEM_BOND_DEF_STEREO_COUNT>
0

> <PUBCHEM_BOND_UDEF_STEREO_COUNT>
0

> <PUBCHEM_ISOTOPIC_ATOM_COUNT>
0

> <PUBCHEM_COMPONENT_COUNT>
1

> <PUBCHEM_CACTVS_TAUTO_COUNT>
8

> <PUBCHEM_COORDINATE_TYPE>
1
5
255

> <PUBCHEM_BONDANNOTATIONS>
10  15  8
11  16  8
12  14  8
13  14  8
15  17  8
16  17  8
3  13  8
3  7  8
7  12  8
8  10  8
8  11  8

$$$$

