3035966
  -OEChem-07051213053D

 41 42  0     0  0  0  0  0  0999 V2000
    4.4872   -0.1245    1.9487 O   0  0  0  0  0  0  0  0  0  0  0  0
    5.7497   -0.2211   -0.5256 O   0  0  0  0  0  0  0  0  0  0  0  0
   -6.2098    0.2434    0.0636 O   0  0  0  0  0  0  0  0  0  0  0  0
    0.2026    0.5332   -0.2251 C   0  0  0  0  0  0  0  0  0  0  0  0
   -0.6634   -0.5115   -0.2248 C   0  0  0  0  0  0  0  0  0  0  0  0
   -0.2184    1.9899   -0.2032 C   0  0  0  0  0  0  0  0  0  0  0  0
   -0.2473   -1.9642   -0.3531 C   0  0  0  0  0  0  0  0  0  0  0  0
    1.6692    0.3334   -0.3006 C   0  0  0  0  0  0  0  0  0  0  0  0
   -2.1301   -0.3115   -0.1491 C   0  0  0  0  0  0  0  0  0  0  0  0
   -0.3594    2.5294    1.2144 C   0  0  0  0  0  0  0  0  0  0  0  0
    0.0228   -2.6097    0.9999 C   0  0  0  0  0  0  0  0  0  0  0  0
    2.3883    0.1980    0.8708 C   0  0  0  0  0  0  0  0  0  0  0  0
    2.2757    0.2890   -1.5409 C   0  0  0  0  0  0  0  0  0  0  0  0
   -2.8494   -0.1752   -1.3201 C   0  0  0  0  0  0  0  0  0  0  0  0
   -2.7360   -0.2676    1.0914 C   0  0  0  0  0  0  0  0  0  0  0  0
    3.7688    0.0108    0.7992 C   0  0  0  0  0  0  0  0  0  0  0  0
    3.6560    0.1019   -1.6125 C   0  0  0  0  0  0  0  0  0  0  0  0
   -4.2297    0.0128   -1.2479 C   0  0  0  0  0  0  0  0  0  0  0  0
   -4.1163   -0.0797    1.1637 C   0  0  0  0  0  0  0  0  0  0  0  0
    4.4026   -0.0373   -0.4426 C   0  0  0  0  0  0  0  0  0  0  0  0
   -4.8632    0.0604   -0.0061 C   0  0  0  0  0  0  0  0  0  0  0  0
    0.5061    2.6060   -0.7512 H   0  0  0  0  0  0  0  0  0  0  0  0
   -1.1662    2.1319   -0.7344 H   0  0  0  0  0  0  0  0  0  0  0  0
    0.6467   -2.0619   -0.9794 H   0  0  0  0  0  0  0  0  0  0  0  0
   -1.0217   -2.5391   -0.8770 H   0  0  0  0  0  0  0  0  0  0  0  0
   -1.0855    1.9620    1.8022 H   0  0  0  0  0  0  0  0  0  0  0  0
   -0.6972    3.5706    1.1839 H   0  0  0  0  0  0  0  0  0  0  0  0
    0.5973    2.5091    1.7460 H   0  0  0  0  0  0  0  0  0  0  0  0
    0.3514   -3.6447    0.8588 H   0  0  0  0  0  0  0  0  0  0  0  0
   -0.8800   -2.6322    1.6184 H   0  0  0  0  0  0  0  0  0  0  0  0
    0.8033   -2.0869    1.5586 H   0  0  0  0  0  0  0  0  0  0  0  0
    1.8934    0.2364    1.8379 H   0  0  0  0  0  0  0  0  0  0  0  0
    1.7039    0.3963   -2.4585 H   0  0  0  0  0  0  0  0  0  0  0  0
   -2.3661   -0.2109   -2.2926 H   0  0  0  0  0  0  0  0  0  0  0  0
   -2.1657   -0.3764    2.0096 H   0  0  0  0  0  0  0  0  0  0  0  0
    4.1436    0.0651   -2.5829 H   0  0  0  0  0  0  0  0  0  0  0  0
   -4.8000    0.1208   -2.1666 H   0  0  0  0  0  0  0  0  0  0  0  0
   -4.6040   -0.0436    2.1340 H   0  0  0  0  0  0  0  0  0  0  0  0
    3.8832   -0.0664    2.7088 H   0  0  0  0  0  0  0  0  0  0  0  0
    6.1041   -0.2984    0.3773 H   0  0  0  0  0  0  0  0  0  0  0  0
   -6.5645    0.3211   -0.8388 H   0  0  0  0  0  0  0  0  0  0  0  0
  1 16  1  0  0  0  0
  1 39  1  0  0  0  0
  2 20  1  0  0  0  0
  2 40  1  0  0  0  0
  3 21  1  0  0  0  0
  3 41  1  0  0  0  0
  4  5  2  0  0  0  0
  4  6  1  0  0  0  0
  4  8  1  0  0  0  0
  5  7  1  0  0  0  0
  5  9  1  0  0  0  0
  6 10  1  0  0  0  0
  6 22  1  0  0  0  0
  6 23  1  0  0  0  0
  7 11  1  0  0  0  0
  7 24  1  0  0  0  0
  7 25  1  0  0  0  0
  8 12  2  0  0  0  0
  8 13  1  0  0  0  0
  9 14  2  0  0  0  0
  9 15  1  0  0  0  0
 10 26  1  0  0  0  0
 10 27  1  0  0  0  0
 10 28  1  0  0  0  0
 11 29  1  0  0  0  0
 11 30  1  0  0  0  0
 11 31  1  0  0  0  0
 12 16  1  0  0  0  0
 12 32  1  0  0  0  0
 13 17  2  0  0  0  0
 13 33  1  0  0  0  0
 14 18  1  0  0  0  0
 14 34  1  0  0  0  0
 15 19  2  0  0  0  0
 15 35  1  0  0  0  0
 16 20  2  0  0  0  0
 17 20  1  0  0  0  0
 17 36  1  0  0  0  0
 18 21  2  0  0  0  0
 18 37  1  0  0  0  0
 19 21  1  0  0  0  0
 19 38  1  0  0  0  0
M  END
> <PUBCHEM_COMPOUND_CID>
3035966

> <PUBCHEM_CONFORMER_RMSD>
0.6

> <PUBCHEM_CONFORMER_DIVERSEORDER>
1
4
2
3

> <PUBCHEM_MMFF94_PARTIAL_CHARGES>
29
1 -0.53
12 -0.15
13 -0.15
14 -0.15
15 -0.15
16 0.08
17 -0.15
18 -0.15
19 -0.15
2 -0.53
20 0.08
21 0.08
3 -0.53
32 0.15
33 0.15
34 0.15
35 0.15
36 0.15
37 0.15
38 0.15
39 0.45
4 -0.17
40 0.45
41 0.45
5 -0.17
6 0.14
7 0.14
8 0.03
9 0.03

> <PUBCHEM_EFFECTIVE_ROTOR_COUNT>
4

> <PUBCHEM_PHARMACOPHORE_FEATURES>
7
1 1 donor
1 10 hydrophobe
1 11 hydrophobe
1 2 donor
1 3 donor
6 8 12 13 16 17 20 rings
6 9 14 15 18 19 21 rings

> <PUBCHEM_HEAVY_ATOM_COUNT>
21

> <PUBCHEM_ATOM_DEF_STEREO_COUNT>
0

> <PUBCHEM_ATOM_UDEF_STEREO_COUNT>
0

> <PUBCHEM_BOND_DEF_STEREO_COUNT>
1

> <PUBCHEM_BOND_UDEF_STEREO_COUNT>
0

> <PUBCHEM_ISOTOPIC_ATOM_COUNT>
0

> <PUBCHEM_COMPONENT_COUNT>
1

> <PUBCHEM_CACTVS_TAUTO_COUNT>
38

> <PUBCHEM_CONFORMER_ID>
002E533E00000001

> <PUBCHEM_MMFF94_ENERGY>
62.3526

> <PUBCHEM_FEATURE_SELFOVERLAP>
35.524

> <PUBCHEM_SHAPE_FINGERPRINT>
10366900 7 17894622648529404422
10906281 52 18114729435686628412
11578080 2 17842546349768930092
11646440 116 18041268903634714993
12107183 9 15550824656163933269
12236239 1 17703788120172208476
12467345 10 15913329091365273173
12592029 89 17203612622364224114
12633257 1 18116173111817923456
12670546 56 15936686042833865659
12788726 201 18336254717682338272
13140716 1 18266461996852630786
13533116 47 18335704996592159258
13583140 156 16701442481920240160
13760787 19 16845289414881204450
13965767 371 16665665645585403345
14022347 108 18410564090116597800
14115302 16 18201714012488744302
14341114 176 15913326913964579863
15342168 16 16009894718694438088
15848700 24 18186240623557813540
15848702 151 16805318911726569677
16752209 62 18340770433206364980
16945 1 18408319977740406710
17349148 13 18413106173378470294
1813 80 18260824899564131588
18186145 218 18410579444271311789
187816 3 18410006637235927884
19141452 34 17022905631771415725
19784866 240 17203333376960693810
19784866 9 18059860596935049467
200 152 17060618901952543212
20028762 73 18044086853137860319
20600515 1 18335696109719228920
20645477 70 16056607594680387978
23175994 123 18343015584584918373
23402539 116 17967533475636637948
23536379 177 16200154308926454629
23557571 272 17749102331168361116
23559900 14 18336260146947807140
23569943 247 17606944355326501326
34934 24 18115862083198005529
3545911 37 15841549665110679581
4072396 5 18271533077893062091
4214541 1 15913333506860659749
465052 167 17131828772303949083
474 4 17676774158343016281
633830 44 18334012766106810813
69090 78 16877661262154141031
7226269 152 18409731759582366784
7495541 125 17703220716422272489
77779 3 15841551864255228263
81228 2 18115288086172123368
8272917 22 16702305688879488498
9971528 1 17603302643991894664

> <PUBCHEM_SHAPE_MULTIPOLES>
414.56
10.8
1.7
1.5
1.63
0.04
0.04
0.02
-0.38
0.17
0.62
-0.64
-0.03
-0.11

> <PUBCHEM_SHAPE_SELFOVERLAP>
885.001

> <PUBCHEM_SHAPE_VOLUME>
231.5

> <PUBCHEM_COORDINATE_TYPE>
2
5
10

$$$$

