9612
  -OEChem-06261203522D

 19 18  0     0  0  0  0  0  0999 V2000
    8.5991    0.1550    0.0000 F   0  0  0  0  0  0  0  0  0  0  0  0
    6.0010    0.6550    0.0000 C   0  0  0  0  0  0  0  0  0  0  0  0
    5.1350    0.1550    0.0000 C   0  0  0  0  0  0  0  0  0  0  0  0
    6.8671    0.1550    0.0000 C   0  0  0  0  0  0  0  0  0  0  0  0
    4.2690    0.6550    0.0000 C   0  0  0  0  0  0  0  0  0  0  0  0
    7.7331    0.6550    0.0000 C   0  0  0  0  0  0  0  0  0  0  0  0
    3.4030    0.1550    0.0000 C   0  0  0  0  0  0  0  0  0  0  0  0
    2.5369   -0.3450    0.0000 C   0  0  0  0  0  0  0  0  0  0  0  0
    6.3996    1.1300    0.0000 H   0  0  0  0  0  0  0  0  0  0  0  0
    5.6025    1.1300    0.0000 H   0  0  0  0  0  0  0  0  0  0  0  0
    4.7365   -0.3199    0.0000 H   0  0  0  0  0  0  0  0  0  0  0  0
    5.5335   -0.3199    0.0000 H   0  0  0  0  0  0  0  0  0  0  0  0
    6.4685   -0.3199    0.0000 H   0  0  0  0  0  0  0  0  0  0  0  0
    7.2656   -0.3199    0.0000 H   0  0  0  0  0  0  0  0  0  0  0  0
    4.6675    1.1300    0.0000 H   0  0  0  0  0  0  0  0  0  0  0  0
    3.8705    1.1300    0.0000 H   0  0  0  0  0  0  0  0  0  0  0  0
    8.1316    1.1300    0.0000 H   0  0  0  0  0  0  0  0  0  0  0  0
    7.3346    1.1300    0.0000 H   0  0  0  0  0  0  0  0  0  0  0  0
    2.0000   -0.6550    0.0000 H   0  0  0  0  0  0  0  0  0  0  0  0
  1  6  1  0  0  0  0
  2  3  1  0  0  0  0
  2  4  1  0  0  0  0
  2  9  1  0  0  0  0
  2 10  1  0  0  0  0
  3  5  1  0  0  0  0
  3 11  1  0  0  0  0
  3 12  1  0  0  0  0
  4  6  1  0  0  0  0
  4 13  1  0  0  0  0
  4 14  1  0  0  0  0
  5  7  1  0  0  0  0
  5 15  1  0  0  0  0
  5 16  1  0  0  0  0
  6 17  1  0  0  0  0
  6 18  1  0  0  0  0
  7  8  3  0  0  0  0
  8 19  1  0  0  0  0
M  END
> <PUBCHEM_COMPOUND_CID>
9612

> <PUBCHEM_COMPOUND_CANONICALIZED>
1

> <PUBCHEM_CACTVS_COMPLEXITY>
77.6

> <PUBCHEM_CACTVS_HBOND_ACCEPTOR>
1

> <PUBCHEM_CACTVS_HBOND_DONOR>
0

> <PUBCHEM_CACTVS_ROTATABLE_BOND>
4

> <PUBCHEM_CACTVS_SUBSKEYS>
AAADccBgAQAAAAAAAAAAAAAAAAAAAAAAAAAAAAAAAAAAAAAAAAAAGQAAAAAACACAAAAAAAAAAABAGAAAAAgAAAAAAAAAAAAAAAAAAAIAAAAAAAAAAAAAAAEAAAAAAAAAAAAAAAAAAAAAAAAAAAAAAAAAAA==

> <PUBCHEM_IUPAC_OPENEYE_NAME>
7-fluorohept-1-yne

> <PUBCHEM_IUPAC_CAS_NAME>
7-fluoro-1-heptyne

> <PUBCHEM_IUPAC_NAME>
7-fluorohept-1-yne

> <PUBCHEM_IUPAC_SYSTEMATIC_NAME>
7-fluoranylhept-1-yne

> <PUBCHEM_IUPAC_TRADITIONAL_NAME>
7-fluorohept-1-yne

> <PUBCHEM_IUPAC_INCHI>
InChI=1S/C7H11F/c1-2-3-4-5-6-7-8/h1H,3-7H2

> <PUBCHEM_IUPAC_INCHIKEY>
RIUFVBVJZNDZOJ-UHFFFAOYSA-N

> <PUBCHEM_XLOGP3_AA>
2.4

> <PUBCHEM_EXACT_MASS>
114.084479

> <PUBCHEM_MOLECULAR_FORMULA>
C7H11F

> <PUBCHEM_MOLECULAR_WEIGHT>
114.160643

> <PUBCHEM_OPENEYE_CAN_SMILES>
C#CCCCCCF

> <PUBCHEM_OPENEYE_ISO_SMILES>
C#CCCCCCF

> <PUBCHEM_CACTVS_TPSA>
0

> <PUBCHEM_MONOISOTOPIC_WEIGHT>
114.084479

> <PUBCHEM_TOTAL_CHARGE>
0

> <PUBCHEM_HEAVY_ATOM_COUNT>
8

> <PUBCHEM_ATOM_DEF_STEREO_COUNT>
0

> <PUBCHEM_ATOM_UDEF_STEREO_COUNT>
0

> <PUBCHEM_BOND_DEF_STEREO_COUNT>
0

> <PUBCHEM_BOND_UDEF_STEREO_COUNT>
0

> <PUBCHEM_ISOTOPIC_ATOM_COUNT>
0

> <PUBCHEM_COMPONENT_COUNT>
1

> <PUBCHEM_CACTVS_TAUTO_COUNT>
1

> <PUBCHEM_COORDINATE_TYPE>
1
5
255

$$$$

