5281153
  -OEChem-07051212553D

 26 27  0     1  0  0  0  0  0999 V2000
   -1.5308    0.4280    0.7746 O   0  0  0  0  0  0  0  0  0  0  0  0
   -3.1122   -1.3472    0.6130 O   0  0  0  0  0  0  0  0  0  0  0  0
   -2.9390    1.8513   -0.9840 O   0  0  0  0  0  0  0  0  0  0  0  0
   -2.3282   -0.3830   -0.1324 C   0  0  1  0  0  0  0  0  0  0  0  0
   -3.3223    0.4910   -0.9225 C   0  0  1  0  0  0  0  0  0  0  0  0
   -1.3460   -1.1016   -0.9977 C   0  0  0  0  0  0  0  0  0  0  0  0
   -4.5531    0.2913   -0.1197 C   0  0  0  0  0  0  0  0  0  0  0  0
   -0.1140   -0.7454   -0.6477 C   0  0  0  0  0  0  0  0  0  0  0  0
   -0.2056    0.1866    0.4318 C   0  0  0  0  0  0  0  0  0  0  0  0
   -4.3562   -0.7520    0.6782 C   0  0  0  0  0  0  0  0  0  0  0  0
    0.8176    0.7732    1.0583 C   0  0  0  0  0  0  0  0  0  0  0  0
    2.1666    0.5163    0.6959 C   0  0  0  0  0  0  0  0  0  0  0  0
    3.3087    0.3031    0.3929 C   0  0  0  0  0  0  0  0  0  0  0  0
    4.6138    0.0590    0.0460 C   0  0  0  0  0  0  0  0  0  0  0  0
    5.7552   -0.1548   -0.2579 C   0  0  0  0  0  0  0  0  0  0  0  0
    7.1455   -0.4158   -0.6285 C   0  0  0  0  0  0  0  0  0  0  0  0
   -3.4991    0.1231   -1.9405 H   0  0  0  0  0  0  0  0  0  0  0  0
   -1.5955   -1.8014   -1.7813 H   0  0  0  0  0  0  0  0  0  0  0  0
   -5.4743    0.8434   -0.2197 H   0  0  0  0  0  0  0  0  0  0  0  0
    0.7899   -1.1117   -1.1069 H   0  0  0  0  0  0  0  0  0  0  0  0
   -5.0530   -1.2259    1.3457 H   0  0  0  0  0  0  0  0  0  0  0  0
   -2.0670    1.8883   -1.4127 H   0  0  0  0  0  0  0  0  0  0  0  0
    0.6308    1.4692    1.8698 H   0  0  0  0  0  0  0  0  0  0  0  0
    7.8316    0.1385    0.0190 H   0  0  0  0  0  0  0  0  0  0  0  0
    7.3359   -0.1134   -1.6627 H   0  0  0  0  0  0  0  0  0  0  0  0
    7.3791   -1.4808   -0.5379 H   0  0  0  0  0  0  0  0  0  0  0  0
  1  4  1  0  0  0  0
  1  9  1  0  0  0  0
  2  4  1  0  0  0  0
  2 10  1  0  0  0  0
  3  5  1  0  0  0  0
  3 22  1  0  0  0  0
  4  5  1  0  0  0  0
  4  6  1  0  0  0  0
  5  7  1  0  0  0  0
  5 17  1  0  0  0  0
  6  8  2  0  0  0  0
  6 18  1  0  0  0  0
  7 10  2  0  0  0  0
  7 19  1  0  0  0  0
  8  9  1  0  0  0  0
  8 20  1  0  0  0  0
  9 11  2  0  0  0  0
 10 21  1  0  0  0  0
 11 12  1  0  0  0  0
 11 23  1  0  0  0  0
 12 13  3  0  0  0  0
 13 14  1  0  0  0  0
 14 15  3  0  0  0  0
 15 16  1  0  0  0  0
 16 24  1  0  0  0  0
 16 25  1  0  0  0  0
 16 26  1  0  0  0  0
M  END
> <PUBCHEM_COMPOUND_CID>
5281153

> <PUBCHEM_CONFORMER_RMSD>
0.4

> <PUBCHEM_CONFORMER_DIVERSEORDER>
2
1
3
4

> <PUBCHEM_MMFF94_PARTIAL_CHARGES>
20
1 -0.36
10 -0.07
11 -0.09
12 -0.06
15 -0.2
16 0.2
18 0.15
19 0.15
2 -0.36
20 0.15
21 0.15
22 0.4
23 0.15
3 -0.68
4 0.7
5 0.42
6 -0.29
7 -0.29
8 -0.15
9 0.08

> <PUBCHEM_EFFECTIVE_ROTOR_COUNT>
0.6

> <PUBCHEM_PHARMACOPHORE_FEATURES>
7
1 1 acceptor
1 16 hydrophobe
1 2 acceptor
1 3 acceptor
1 3 donor
5 1 4 6 8 9 rings
5 2 4 5 7 10 rings

> <PUBCHEM_HEAVY_ATOM_COUNT>
16

> <PUBCHEM_ATOM_DEF_STEREO_COUNT>
0

> <PUBCHEM_ATOM_UDEF_STEREO_COUNT>
2

> <PUBCHEM_BOND_DEF_STEREO_COUNT>
1

> <PUBCHEM_BOND_UDEF_STEREO_COUNT>
0

> <PUBCHEM_ISOTOPIC_ATOM_COUNT>
0

> <PUBCHEM_COMPONENT_COUNT>
1

> <PUBCHEM_CACTVS_TAUTO_COUNT>
1

> <PUBCHEM_CONFORMER_ID>
0050958100000002

> <PUBCHEM_MMFF94_ENERGY>
28.2779

> <PUBCHEM_FEATURE_SELFOVERLAP>
35.59

> <PUBCHEM_SHAPE_FINGERPRINT>
106641 1 13758062018265392357
10680689 15 18341616988207998355
10803635 8 18409172134292328902
10912923 1 16343713144466906728
10968037 39 17821728313289420412
11315181 36 13840269173768237098
11401426 45 14779265306375659840
12186901 62 18343027709098064885
12555020 224 17385453110908727638
12916754 54 17678470670920645775
13288520 33 18410572877049895265
13760787 19 18060709398094172851
13760787 5 17385726855218806528
14123238 8 15267345119827033914
14251731 8 18334014991042268742
14251752 14 18343024441255472694
15048467 5 16200437995895660565
15099037 51 17821449045430040814
17834072 33 17275101704782339860
17834072 8 18259989279574860556
18186145 218 17968672535465693920
200 152 14996286911713987024
20325693 3 18202286892200981259
20767249 213 11383829360281776834
2297311 6 18273210889703186389
23175994 123 17967250879668565200
23198884 109 17275100644162846464
23402539 116 15791450439419019768
23536379 177 17917713526541764434
23559900 14 18201441316156635400
23590187 198 15140678081608935676
26918003 58 8286198357797640484
3004659 81 18333447656581262030
314173 85 16298376960281229288
542803 24 16845575318617816144

> <PUBCHEM_SHAPE_MULTIPOLES>
311.66
13.43
1.14
1.01
22.99
0.04
0.14
2.11
1.48
-0.33
0.08
-0.93
-0.12
0.78

> <PUBCHEM_SHAPE_SELFOVERLAP>
661.303

> <PUBCHEM_SHAPE_VOLUME>
173.3

> <PUBCHEM_COORDINATE_TYPE>
2
5
10

$$$$

