71365
  -OEChem-07051213103D

 39 40  0     1  0  0  0  0  0999 V2000
   -1.1806    1.0714   -1.9376 S   0  0  0  0  0  0  0  0  0  0  0  0
    4.5061   -0.3119   -0.5076 S   0  0  0  0  0  0  0  0  0  0  0  0
    0.2846    0.0886    2.0997 O   0  0  0  0  0  0  0  0  0  0  0  0
   -3.2818   -2.1973    1.0744 O   0  0  0  0  0  0  0  0  0  0  0  0
   -3.8735   -0.0587    1.5962 O   0  0  0  0  0  0  0  0  0  0  0  0
    2.9047    1.6016    1.3529 O   0  0  0  0  0  0  0  0  0  0  0  0
   -1.4381    0.7349    0.6215 N   0  0  0  0  0  0  0  0  0  0  0  0
    1.3975    1.7350   -0.4080 N   0  0  0  0  0  0  0  0  0  0  0  0
   -1.1658    1.8552   -0.2840 C   0  0  1  0  0  0  0  0  0  0  0  0
   -2.4386   -0.1818   -1.3748 C   0  0  0  0  0  0  0  0  0  0  0  0
   -2.0351   -0.4722    0.0868 C   0  0  2  0  0  0  0  0  0  0  0  0
    0.1996    1.9942    0.4030 C   0  0  1  0  0  0  0  0  0  0  0  0
   -0.2397    0.7986    1.2718 C   0  0  0  0  0  0  0  0  0  0  0  0
   -3.8316    0.4408   -1.5393 C   0  0  0  0  0  0  0  0  0  0  0  0
   -2.3177   -1.4335   -2.2459 C   0  0  0  0  0  0  0  0  0  0  0  0
   -3.1595   -0.8495    0.9977 C   0  0  0  0  0  0  0  0  0  0  0  0
    2.6641    1.5587    0.1473 C   0  0  0  0  0  0  0  0  0  0  0  0
    3.7419    1.2856   -0.8743 C   0  0  0  0  0  0  0  0  0  0  0  0
    3.0363   -1.3548   -0.6584 C   0  0  0  0  0  0  0  0  0  0  0  0
    3.3889   -2.7836   -0.3960 C   0  0  0  0  0  0  0  0  0  0  0  0
    2.8383   -3.5214    0.5748 C   0  0  0  0  0  0  0  0  0  0  0  0
   -1.8594    2.6896   -0.1463 H   0  0  0  0  0  0  0  0  0  0  0  0
   -1.2635   -1.2528    0.1398 H   0  0  0  0  0  0  0  0  0  0  0  0
    0.3032    2.9199    0.9813 H   0  0  0  0  0  0  0  0  0  0  0  0
   -4.6152   -0.2732   -1.2608 H   0  0  0  0  0  0  0  0  0  0  0  0
   -3.9656    1.3334   -0.9182 H   0  0  0  0  0  0  0  0  0  0  0  0
   -4.0215    0.7273   -2.5807 H   0  0  0  0  0  0  0  0  0  0  0  0
   -3.0269   -2.2022   -1.9183 H   0  0  0  0  0  0  0  0  0  0  0  0
   -2.5343   -1.2162   -3.2983 H   0  0  0  0  0  0  0  0  0  0  0  0
   -1.3144   -1.8721   -2.1933 H   0  0  0  0  0  0  0  0  0  0  0  0
    1.3075    1.6788   -1.4195 H   0  0  0  0  0  0  0  0  0  0  0  0
   -4.0153   -2.4654    1.6680 H   0  0  0  0  0  0  0  0  0  0  0  0
    3.3539    1.2834   -1.8967 H   0  0  0  0  0  0  0  0  0  0  0  0
    4.4945    2.0765   -0.8011 H   0  0  0  0  0  0  0  0  0  0  0  0
    2.2644   -1.0262    0.0434 H   0  0  0  0  0  0  0  0  0  0  0  0
    2.6352   -1.2680   -1.6734 H   0  0  0  0  0  0  0  0  0  0  0  0
    4.1158   -3.2561   -1.0527 H   0  0  0  0  0  0  0  0  0  0  0  0
    3.1259   -4.5587    0.7062 H   0  0  0  0  0  0  0  0  0  0  0  0
    2.0974   -3.1091    1.2510 H   0  0  0  0  0  0  0  0  0  0  0  0
  1  9  1  0  0  0  0
  1 10  1  0  0  0  0
  2 18  1  0  0  0  0
  2 19  1  0  0  0  0
  3 13  2  0  0  0  0
  4 16  1  0  0  0  0
  4 32  1  0  0  0  0
  5 16  2  0  0  0  0
  6 17  2  0  0  0  0
  7  9  1  0  0  0  0
  7 11  1  0  0  0  0
  7 13  1  0  0  0  0
  8 12  1  0  0  0  0
  8 17  1  0  0  0  0
  8 31  1  0  0  0  0
  9 12  1  0  0  0  0
  9 22  1  0  0  0  0
 10 11  1  0  0  0  0
 10 14  1  0  0  0  0
 10 15  1  0  0  0  0
 11 16  1  0  0  0  0
 11 23  1  0  0  0  0
 12 13  1  0  0  0  0
 12 24  1  0  0  0  0
 14 25  1  0  0  0  0
 14 26  1  0  0  0  0
 14 27  1  0  0  0  0
 15 28  1  0  0  0  0
 15 29  1  0  0  0  0
 15 30  1  0  0  0  0
 17 18  1  0  0  0  0
 18 33  1  0  0  0  0
 18 34  1  0  0  0  0
 19 20  1  0  0  0  0
 19 35  1  0  0  0  0
 19 36  1  0  0  0  0
 20 21  2  0  0  0  0
 20 37  1  0  0  0  0
 21 38  1  0  0  0  0
 21 39  1  0  0  0  0
M  END
> <PUBCHEM_COMPOUND_CID>
71365

> <PUBCHEM_CONFORMER_RMSD>
0.8

> <PUBCHEM_CONFORMER_DIVERSEORDER>
1
17
81
38
88
54
86
26
69
53
31
82
6
90
85
21
36
76
57
59
40
3
64
44
47
11
23
80
52
78
2
42
73
39
27
33
49
72
16
70
20
48
63
87
13
7
22
62
5
50
83
56
66
92
18
25
79
75
68
37
4
71
10
35
74
55
19
60
65
91
51
8
32
14
28
89
30
61
24
34
67
12
43
15
9
46
41
77
84
45
29
58

> <PUBCHEM_MMFF94_PARTIAL_CHARGES>
24
1 -0.45
10 0.23
11 0.36
12 0.28
13 0.58
16 0.66
17 0.57
18 0.29
19 0.37
2 -0.46
20 -0.29
21 -0.3
3 -0.57
31 0.37
32 0.5
37 0.15
38 0.15
39 0.15
4 -0.65
5 -0.57
6 -0.57
7 -0.59
8 -0.65
9 0.44

> <PUBCHEM_EFFECTIVE_ROTOR_COUNT>
7.8

> <PUBCHEM_PHARMACOPHORE_FEATURES>
10
1 21 hydrophobe
1 3 acceptor
1 4 acceptor
1 5 acceptor
1 6 acceptor
1 8 donor
3 10 14 15 hydrophobe
3 4 5 16 anion
4 2 18 19 20 hydrophobe
7 1 7 9 10 11 12 13 rings

> <PUBCHEM_HEAVY_ATOM_COUNT>
21

> <PUBCHEM_ATOM_DEF_STEREO_COUNT>
3

> <PUBCHEM_ATOM_UDEF_STEREO_COUNT>
0

> <PUBCHEM_BOND_DEF_STEREO_COUNT>
0

> <PUBCHEM_BOND_UDEF_STEREO_COUNT>
0

> <PUBCHEM_ISOTOPIC_ATOM_COUNT>
0

> <PUBCHEM_COMPONENT_COUNT>
1

> <PUBCHEM_CACTVS_TAUTO_COUNT>
2

> <PUBCHEM_CONFORMER_ID>
000116C500000001

> <PUBCHEM_MMFF94_ENERGY>
48.7663

> <PUBCHEM_FEATURE_SELFOVERLAP>
50.8

> <PUBCHEM_SHAPE_FINGERPRINT>
10764073 3 17690536990918747705
12553582 1 18114178657648924996
12633257 1 5833141616861982582
12670546 177 17345460493167997444
12824470 246 17532102600419732583
13583140 156 17895465913444125945
14251757 17 17917152800611464110
15375462 189 17894624842772395776
15537594 2 18260255353046865470
16945 1 18265336105689255465
18186145 218 17131845217760449988
18981168 100 11311200131460477168
19930381 70 18269826657137610722
212916 134 15141227897700046027
235170 7 17632576033317089350
23557571 272 17346314882095195405
23559900 14 18273217525733549076
23598288 3 17823687762409677184
2748010 2 16196516940269171989
3323516 105 18272644632382380370
463206 1 18335709316938739150
4921388 177 17346876758412183781
5262128 65 17131819972295781188

> <PUBCHEM_SHAPE_MULTIPOLES>
406.43
7.93
2.96
1.91
3.24
2.04
0.19
3.19
0.99
2.85
-0.28
-1.67
0.13
0.42

> <PUBCHEM_SHAPE_SELFOVERLAP>
806.487

> <PUBCHEM_SHAPE_VOLUME>
244

> <PUBCHEM_COORDINATE_TYPE>
2
5
10

$$$$

