133266
  -OEChem-07051213092D

 25 25  0     1  0  0  0  0  0999 V2000
    6.2071    1.0666    0.0000 S   0  0  0  0  0  0  0  0  0  0  0  0
    4.5000   -1.6405    0.0000 O   0  0  0  0  0  0  0  0  0  0  0  0
    6.2071   -1.3476    0.0000 O   0  0  0  0  0  0  0  0  0  0  0  0
    6.9142    1.7737    0.0000 O   0  0  0  0  0  0  0  0  0  0  0  0
    5.5000    1.7737    0.0000 O   0  0  0  0  0  0  0  0  0  0  0  0
    6.9142    0.3595    0.0000 O   0  0  0  0  0  0  0  0  0  0  0  0
    3.5000   -2.3726    0.0000 O   0  0  0  0  0  0  0  0  0  0  0  0
    5.5000    0.3595    0.0000 N   0  0  0  0  0  0  0  0  0  0  0  0
    3.5000   -0.6405    0.0000 N   0  0  0  0  0  0  0  0  0  0  0  0
    4.5000   -0.6405    0.0000 C   0  0  2  0  0  0  0  0  0  0  0  0
    4.5000    0.3595    0.0000 C   0  0  0  0  0  0  0  0  0  0  0  0
    5.5000   -0.6405    0.0000 C   0  0  0  0  0  0  0  0  0  0  0  0
    3.0000   -1.5065    0.0000 C   0  0  0  0  0  0  0  0  0  0  0  0
    5.3660   -2.1405    0.0000 C   0  0  0  0  0  0  0  0  0  0  0  0
    2.0000   -1.5065    0.0000 C   0  0  0  0  0  0  0  0  0  0  0  0
    4.5000    0.9795    0.0000 H   0  0  0  0  0  0  0  0  0  0  0  0
    3.8800    0.3595    0.0000 H   0  0  0  0  0  0  0  0  0  0  0  0
    3.1900   -0.1036    0.0000 H   0  0  0  0  0  0  0  0  0  0  0  0
    5.0560   -2.6774    0.0000 H   0  0  0  0  0  0  0  0  0  0  0  0
    5.9030   -2.4505    0.0000 H   0  0  0  0  0  0  0  0  0  0  0  0
    5.6760   -1.6036    0.0000 H   0  0  0  0  0  0  0  0  0  0  0  0
    6.7538    2.3726    0.0000 H   0  0  0  0  0  0  0  0  0  0  0  0
    2.0000   -0.8865    0.0000 H   0  0  0  0  0  0  0  0  0  0  0  0
    1.3800   -1.5065    0.0000 H   0  0  0  0  0  0  0  0  0  0  0  0
    2.0000   -2.1265    0.0000 H   0  0  0  0  0  0  0  0  0  0  0  0
  1  4  1  0  0  0  0
  1  5  2  0  0  0  0
  1  6  2  0  0  0  0
  1  8  1  0  0  0  0
 10  2  1  6  0  0  0
  2 14  1  0  0  0  0
  3 12  2  0  0  0  0
  4 22  1  0  0  0  0
  7 13  2  0  0  0  0
  8 11  1  0  0  0  0
  8 12  1  0  0  0  0
  9 10  1  0  0  0  0
  9 13  1  0  0  0  0
  9 18  1  0  0  0  0
 10 11  1  0  0  0  0
 10 12  1  0  0  0  0
 11 16  1  0  0  0  0
 11 17  1  0  0  0  0
 13 15  1  0  0  0  0
 14 19  1  0  0  0  0
 14 20  1  0  0  0  0
 14 21  1  0  0  0  0
 15 23  1  0  0  0  0
 15 24  1  0  0  0  0
 15 25  1  0  0  0  0
M  END
> <PUBCHEM_COMPOUND_CID>
133266

> <PUBCHEM_COMPOUND_CANONICALIZED>
1

> <PUBCHEM_CACTVS_COMPLEXITY>
398

> <PUBCHEM_CACTVS_HBOND_ACCEPTOR>
6

> <PUBCHEM_CACTVS_HBOND_DONOR>
2

> <PUBCHEM_CACTVS_ROTATABLE_BOND>
3

> <PUBCHEM_CACTVS_SUBSKEYS>
AAADccBjOABAAAAAAAAAAAAAAABYAAAAAAAAAAAAAAAAAAAAAAAAHgAQSAAACAzBgAYCAALABIAIAAEQEDIAAAAAAAAAAAHIAAECQAgAACQRAAAAFgCQAAAAAAAAAAAAAAAAAAAAAAAAAAAAAAAAAAAAAA==

> <PUBCHEM_IUPAC_OPENEYE_NAME>
(3R)-3-acetamido-3-methoxy-2-oxo-azetidine-1-sulfonic acid

> <PUBCHEM_IUPAC_CAS_NAME>
(3R)-3-acetamido-3-methoxy-2-oxo-1-azetidinesulfonic acid

> <PUBCHEM_IUPAC_NAME>
(3R)-3-acetamido-3-methoxy-2-oxoazetidine-1-sulfonic acid

> <PUBCHEM_IUPAC_SYSTEMATIC_NAME>
(3R)-3-acetamido-3-methoxy-2-oxidanylidene-azetidine-1-sulfonic acid

> <PUBCHEM_IUPAC_TRADITIONAL_NAME>
(3R)-3-acetamido-2-keto-3-methoxy-azetidine-1-sulfonic acid

> <PUBCHEM_IUPAC_INCHI>
InChI=1S/C6H10N2O6S/c1-4(9)7-6(14-2)3-8(5(6)10)15(11,12)13/h3H2,1-2H3,(H,7,9)(H,11,12,13)/t6-/m1/s1

> <PUBCHEM_IUPAC_INCHIKEY>
RFAUYXHDQGJQSD-ZCFIWIBFSA-N

> <PUBCHEM_XLOGP3_AA>
-1.7

> <PUBCHEM_EXACT_MASS>
238.025957

> <PUBCHEM_MOLECULAR_FORMULA>
C6H10N2O6S

> <PUBCHEM_MOLECULAR_WEIGHT>
238.2184

> <PUBCHEM_OPENEYE_CAN_SMILES>
CC(=O)NC1(CN(C1=O)S(=O)(=O)O)OC

> <PUBCHEM_OPENEYE_ISO_SMILES>
CC(=O)N[C@]1(CN(C1=O)S(=O)(=O)O)OC

> <PUBCHEM_CACTVS_TPSA>
121

> <PUBCHEM_MONOISOTOPIC_WEIGHT>
238.025957

> <PUBCHEM_TOTAL_CHARGE>
0

> <PUBCHEM_HEAVY_ATOM_COUNT>
15

> <PUBCHEM_ATOM_DEF_STEREO_COUNT>
1

> <PUBCHEM_ATOM_UDEF_STEREO_COUNT>
0

> <PUBCHEM_BOND_DEF_STEREO_COUNT>
0

> <PUBCHEM_BOND_UDEF_STEREO_COUNT>
0

> <PUBCHEM_ISOTOPIC_ATOM_COUNT>
0

> <PUBCHEM_COMPONENT_COUNT>
1

> <PUBCHEM_CACTVS_TAUTO_COUNT>
2

> <PUBCHEM_COORDINATE_TYPE>
1
5
255

> <PUBCHEM_BONDANNOTATIONS>
10  2  6

$$$$

