443695
  -OEChem-07051213033D

 42 46  0     1  0  0  0  0  0999 V2000
   -3.1947   -2.0184    0.3899 O   0  0  0  0  0  0  0  0  0  0  0  0
    3.3239   -1.8586    0.0177 O   0  0  0  0  0  0  0  0  0  0  0  0
    4.2030    0.7572   -0.2704 O   0  0  0  0  0  0  0  0  0  0  0  0
   -1.7968    2.0399    0.3073 N   0  0  1  0  0  0  0  0  0  0  0  0
   -1.4008   -0.2795    0.2769 C   0  0  1  0  0  0  0  0  0  0  0  0
   -1.9030   -1.6478   -0.1412 C   0  0  2  0  0  0  0  0  0  0  0  0
   -2.1186    0.8486   -0.5092 C   0  0  1  0  0  0  0  0  0  0  0  0
   -3.1298   -1.7952   -1.0164 C   0  0  2  0  0  0  0  0  0  0  0  0
   -1.7246    0.0863    1.7399 C   0  0  0  0  0  0  0  0  0  0  0  0
   -3.6327    0.6403   -0.6577 C   0  0  0  0  0  0  0  0  0  0  0  0
   -3.8982   -0.6085   -1.4958 C   0  0  0  0  0  0  0  0  0  0  0  0
    0.1190   -0.0722    0.0958 C   0  0  0  0  0  0  0  0  0  0  0  0
   -1.9445    1.6029    1.7138 C   0  0  0  0  0  0  0  0  0  0  0  0
   -0.3936    2.4199    0.0185 C   0  0  0  0  0  0  0  0  0  0  0  0
    0.5872    1.2625   -0.0053 C   0  0  0  0  0  0  0  0  0  0  0  0
    1.0670   -1.1046    0.1262 C   0  0  0  0  0  0  0  0  0  0  0  0
    1.9566    1.5287   -0.1402 C   0  0  0  0  0  0  0  0  0  0  0  0
    2.4314   -0.8280   -0.0035 C   0  0  0  0  0  0  0  0  0  0  0  0
    2.8749    0.4835   -0.1439 C   0  0  0  0  0  0  0  0  0  0  0  0
    3.8381   -2.2430    1.2907 C   0  0  0  0  0  0  0  0  0  0  0  0
    4.7361    0.7861   -1.5932 C   0  0  0  0  0  0  0  0  0  0  0  0
   -1.1792   -2.4455   -0.1592 H   0  0  0  0  0  0  0  0  0  0  0  0
   -1.7176    0.9530   -1.5291 H   0  0  0  0  0  0  0  0  0  0  0  0
   -3.2093   -2.6528   -1.6698 H   0  0  0  0  0  0  0  0  0  0  0  0
   -0.9218   -0.1906    2.4336 H   0  0  0  0  0  0  0  0  0  0  0  0
   -2.6387   -0.3964    2.1025 H   0  0  0  0  0  0  0  0  0  0  0  0
   -4.0886    1.5097   -1.1467 H   0  0  0  0  0  0  0  0  0  0  0  0
   -4.1236    0.5364    0.3173 H   0  0  0  0  0  0  0  0  0  0  0  0
   -4.9701   -0.8354   -1.4909 H   0  0  0  0  0  0  0  0  0  0  0  0
   -3.6192   -0.4115   -2.5379 H   0  0  0  0  0  0  0  0  0  0  0  0
   -2.9618    1.8327    2.0527 H   0  0  0  0  0  0  0  0  0  0  0  0
   -1.2672    2.1271    2.3980 H   0  0  0  0  0  0  0  0  0  0  0  0
   -0.0616    3.1754    0.7418 H   0  0  0  0  0  0  0  0  0  0  0  0
   -0.3706    2.9025   -0.9673 H   0  0  0  0  0  0  0  0  0  0  0  0
    0.7733   -2.1395    0.2674 H   0  0  0  0  0  0  0  0  0  0  0  0
    2.3037    2.5550   -0.2337 H   0  0  0  0  0  0  0  0  0  0  0  0
    3.0291   -2.5847    1.9441 H   0  0  0  0  0  0  0  0  0  0  0  0
    4.3725   -1.4101    1.7585 H   0  0  0  0  0  0  0  0  0  0  0  0
    4.5395   -3.0685    1.1419 H   0  0  0  0  0  0  0  0  0  0  0  0
    4.2482    1.5664   -2.1860 H   0  0  0  0  0  0  0  0  0  0  0  0
    4.6140   -0.1870   -2.0791 H   0  0  0  0  0  0  0  0  0  0  0  0
    5.8037    1.0126   -1.5273 H   0  0  0  0  0  0  0  0  0  0  0  0
  1  6  1  0  0  0  0
  1  8  1  0  0  0  0
  2 18  1  0  0  0  0
  2 20  1  0  0  0  0
  3 19  1  0  0  0  0
  3 21  1  0  0  0  0
  4  7  1  0  0  0  0
  4 13  1  0  0  0  0
  4 14  1  0  0  0  0
  5  6  1  0  0  0  0
  5  7  1  0  0  0  0
  5  9  1  0  0  0  0
  5 12  1  0  0  0  0
  6  8  1  0  0  0  0
  6 22  1  0  0  0  0
  7 10  1  0  0  0  0
  7 23  1  0  0  0  0
  8 11  1  0  0  0  0
  8 24  1  0  0  0  0
  9 13  1  0  0  0  0
  9 25  1  0  0  0  0
  9 26  1  0  0  0  0
 10 11  1  0  0  0  0
 10 27  1  0  0  0  0
 10 28  1  0  0  0  0
 11 29  1  0  0  0  0
 11 30  1  0  0  0  0
 12 15  1  0  0  0  0
 12 16  2  0  0  0  0
 13 31  1  0  0  0  0
 13 32  1  0  0  0  0
 14 15  1  0  0  0  0
 14 33  1  0  0  0  0
 14 34  1  0  0  0  0
 15 17  2  0  0  0  0
 16 18  1  0  0  0  0
 16 35  1  0  0  0  0
 17 19  1  0  0  0  0
 17 36  1  0  0  0  0
 18 19  2  0  0  0  0
 20 37  1  0  0  0  0
 20 38  1  0  0  0  0
 20 39  1  0  0  0  0
 21 40  1  0  0  0  0
 21 41  1  0  0  0  0
 21 42  1  0  0  0  0
M  END
> <PUBCHEM_COMPOUND_CID>
443695

> <PUBCHEM_CONFORMER_RMSD>
0.6

> <PUBCHEM_CONFORMER_DIVERSEORDER>
1
2

> <PUBCHEM_MMFF94_PARTIAL_CHARGES>
23
1 -0.3
11 0.09
12 -0.14
13 0.27
14 0.41
15 -0.14
16 -0.15
17 -0.15
18 0.08
19 0.08
2 -0.36
20 0.28
21 0.28
22 0.1
24 0.1
3 -0.36
35 0.15
36 0.15
4 -0.81
5 0.24
6 -0.05
7 0.27
8 -0.05

> <PUBCHEM_EFFECTIVE_ROTOR_COUNT>
3.2

> <PUBCHEM_PHARMACOPHORE_FEATURES>
7
1 1 acceptor
1 2 acceptor
1 3 acceptor
1 4 cation
6 12 15 16 17 18 19 rings
7 1 5 6 7 8 10 11 rings
8 4 5 7 9 12 13 14 15 rings

> <PUBCHEM_HEAVY_ATOM_COUNT>
21

> <PUBCHEM_ATOM_DEF_STEREO_COUNT>
3

> <PUBCHEM_ATOM_UDEF_STEREO_COUNT>
1

> <PUBCHEM_BOND_DEF_STEREO_COUNT>
0

> <PUBCHEM_BOND_UDEF_STEREO_COUNT>
0

> <PUBCHEM_ISOTOPIC_ATOM_COUNT>
0

> <PUBCHEM_COMPONENT_COUNT>
1

> <PUBCHEM_CACTVS_TAUTO_COUNT>
1

> <PUBCHEM_CONFORMER_ID>
0006C52F00000001

> <PUBCHEM_MMFF94_ENERGY>
92.2587

> <PUBCHEM_FEATURE_SELFOVERLAP>
35.546

> <PUBCHEM_SHAPE_FINGERPRINT>
10062212 137 18337120050396780647
10616163 171 18334853913723883318
10756046 5 18341619247318500782
10863032 1 18340495490879959053
11578080 2 17459489774886099969
12553582 1 18188771643485247167
12788726 201 18041275573582230097
13140716 1 18338234980835817474
13224815 77 18411694396585974730
14576447 43 18264216819884135222
14787075 74 17608661500794534592
14790565 3 18120371223244205305
16752209 62 17967255312222293231
16945 1 18264483069222717817
17349148 13 18263661699930368194
17492 89 18411702110047603874
18186145 218 17203621405662060239
192875 21 18337126651471481162
19862831 5 18131357418304334842
200 152 18187367580089557221
20645477 70 17988645237563101386
21267235 1 18336537210402429919
21501502 16 18338796822840513856
2334 1 18410853248457582650
23419403 2 17316806206615345297
23557571 272 16805596005799825624
23559900 14 18335715948415424728
25147074 1 18339919428697318600
2748010 2 17259899616023825649
2871803 45 18337673010256115780
296302 2 16917350299212058852
312423 11 18340477959029561754
34934 24 18411983563485394936
427121 178 15506545047208118011
5104073 3 18410296929796367723
6049 1 15213018280236968090
7615 1 18339080496888050474
90525 40 18113897165133974087
9709674 26 18262800799468973670

> <PUBCHEM_SHAPE_MULTIPOLES>
409.58
7.74
2.44
1.33
5.4
0.19
-0.2
2.2
2.49
0
-0.36
-0.28
-0.03
-1.51

> <PUBCHEM_SHAPE_SELFOVERLAP>
906.624

> <PUBCHEM_SHAPE_VOLUME>
221.1

> <PUBCHEM_COORDINATE_TYPE>
2
5
10

$$$$

