444034
  -OEChem-07051213032D

 95101  0     1  0  0  0  0  0999 V2000
   10.9953    6.5258    0.0000 S   0  0  0  0  0  0  0  0  0  0  0  0
    1.5769    8.2601    0.0000 O   0  0  0  0  0  0  0  0  0  0  0  0
    0.9805    9.2715    0.0000 O   0  0  0  0  0  0  0  0  0  0  0  0
    4.0926    7.6933    0.0000 O   0  0  0  0  0  0  0  0  0  0  0  0
    3.7294   11.6047    0.0000 O   0  0  0  0  0  0  0  0  0  0  0  0
    1.9619    5.2310    0.0000 O   0  0  0  0  0  0  0  0  0  0  0  0
   11.8613    7.0258    0.0000 O   0  0  0  0  0  0  0  0  0  0  0  0
   10.4953    7.3918    0.0000 O   0  0  0  0  0  0  0  0  0  0  0  0
   11.4953    5.6598    0.0000 O   0  0  0  0  0  0  0  0  0  0  0  0
    2.9703    9.0702    0.0000 N   0  0  0  0  0  0  0  0  0  0  0  0
    2.1498   10.8941    0.0000 N   0  0  0  0  0  0  0  0  0  0  0  0
    5.4941    5.2308    0.0000 N   0  0  3  0  0  0  0  0  0  0  0  0
    2.8222    6.7344    0.0000 N   0  0  0  0  0  0  0  0  0  0  0  0
    6.4821    1.0406    0.0000 N   0  0  0  0  0  0  0  0  0  0  0  0
    1.5652   10.0828    0.0000 C   0  0  2  0  0  0  0  0  0  0  0  0
    1.9754    9.1708    0.0000 C   0  0  2  0  0  0  0  0  0  0  0  0
    2.3188    7.5984    0.0000 C   0  0  1  0  0  0  0  0  0  0  0  0
    0.6193   10.3888    0.0000 C   0  0  0  0  0  0  0  0  0  0  0  0
    3.5550    9.8814    0.0000 C   0  0  2  0  0  0  0  0  0  0  0  0
    4.6120    3.6893    0.0000 C   0  0  2  0  0  0  0  0  0  0  0  0
    5.4780    4.1893    0.0000 C   0  0  1  0  0  0  0  0  0  0  0  0
    1.5603   11.6945    0.0000 C   0  0  0  0  0  0  0  0  0  0  0  0
    3.1782    8.0981    0.0000 C   0  0  0  0  0  0  0  0  0  0  0  0
    0.6164   11.3829    0.0000 C   0  0  0  0  0  0  0  0  0  0  0  0
    3.6940    5.2377    0.0000 C   0  0  2  0  0  0  0  0  0  0  0  0
    3.1447   10.7934    0.0000 C   0  0  0  0  0  0  0  0  0  0  0  0
    3.7020    4.1961    0.0000 C   0  0  0  0  0  0  0  0  0  0  0  0
    1.6526    6.8528    0.0000 C   0  0  0  0  0  0  0  0  0  0  0  0
    4.5960    5.7585    0.0000 C   0  0  0  0  0  0  0  0  0  0  0  0
    6.3440    3.6893    0.0000 C   0  0  0  0  0  0  0  0  0  0  0  0
    4.6120    2.6893    0.0000 C   0  0  0  0  0  0  0  0  0  0  0  0
    4.5499    9.7807    0.0000 C   0  0  0  0  0  0  0  0  0  0  0  0
    2.8260    5.7344    0.0000 C   0  0  0  0  0  0  0  0  0  0  0  0
    5.4780    2.1893    0.0000 C   0  0  0  0  0  0  0  0  0  0  0  0
    6.3440    2.6893    0.0000 C   0  0  0  0  0  0  0  0  0  0  0  0
    0.6736    7.0569    0.0000 C   0  0  0  0  0  0  0  0  0  0  0  0
    1.9653    5.9028    0.0000 C   0  0  0  0  0  0  0  0  0  0  0  0
    6.3658    5.7207    0.0000 C   0  0  0  0  0  0  0  0  0  0  0  0
    5.4941    1.1478    0.0000 C   0  0  0  0  0  0  0  0  0  0  0  0
    3.7020    2.1824    0.0000 C   0  0  0  0  0  0  0  0  0  0  0  0
    5.1346   10.5920    0.0000 C   0  0  0  0  0  0  0  0  0  0  0  0
    6.9620    1.9109    0.0000 C   0  0  0  0  0  0  0  0  0  0  0  0
    4.5960    0.6200    0.0000 C   0  0  0  0  0  0  0  0  0  0  0  0
    3.6940    1.1408    0.0000 C   0  0  0  0  0  0  0  0  0  0  0  0
    4.7243   11.5040    0.0000 C   0  0  0  0  0  0  0  0  0  0  0  0
    6.1295   10.4913    0.0000 C   0  0  0  0  0  0  0  0  0  0  0  0
    5.3090   12.3153    0.0000 C   0  0  0  0  0  0  0  0  0  0  0  0
    6.7142   11.3026    0.0000 C   0  0  0  0  0  0  0  0  0  0  0  0
    6.3039   12.2146    0.0000 C   0  0  0  0  0  0  0  0  0  0  0  0
   10.1293    6.0258    0.0000 C   0  0  0  0  0  0  0  0  0  0  0  0
    0.9980    9.4497    0.0000 H   0  0  0  0  0  0  0  0  0  0  0  0
    0.0026   10.4521    0.0000 H   0  0  0  0  0  0  0  0  0  0  0  0
    0.4915    9.7821    0.0000 H   0  0  0  0  0  0  0  0  0  0  0  0
    3.8093    9.3160    0.0000 H   0  0  0  0  0  0  0  0  0  0  0  0
    3.8792    3.2586    0.0000 H   0  0  0  0  0  0  0  0  0  0  0  0
    6.2174    4.6086    0.0000 H   0  0  0  0  0  0  0  0  0  0  0  0
    2.0954   12.0077    0.0000 H   0  0  0  0  0  0  0  0  0  0  0  0
    1.3052   12.2596    0.0000 H   0  0  0  0  0  0  0  0  0  0  0  0
    0.4850   11.9888    0.0000 H   0  0  0  0  0  0  0  0  0  0  0  0
    0.0000   11.3159    0.0000 H   0  0  0  0  0  0  0  0  0  0  0  0
    3.1588    4.9246    0.0000 H   0  0  0  0  0  0  0  0  0  0  0  0
    3.0903    4.2975    0.0000 H   0  0  0  0  0  0  0  0  0  0  0  0
    3.4974    3.6108    0.0000 H   0  0  0  0  0  0  0  0  0  0  0  0
    1.4587    7.4417    0.0000 H   0  0  0  0  0  0  0  0  0  0  0  0
    4.9970    6.2314    0.0000 H   0  0  0  0  0  0  0  0  0  0  0  0
    4.1987    6.2345    0.0000 H   0  0  0  0  0  0  0  0  0  0  0  0
    3.3579    7.0464    0.0000 H   0  0  0  0  0  0  0  0  0  0  0  0
    6.9546    3.5816    0.0000 H   0  0  0  0  0  0  0  0  0  0  0  0
    6.5561    4.2719    0.0000 H   0  0  0  0  0  0  0  0  0  0  0  0
    4.3813    9.1841    0.0000 H   0  0  0  0  0  0  0  0  0  0  0  0
    5.1082    9.5111    0.0000 H   0  0  0  0  0  0  0  0  0  0  0  0
    0.6180    8.7686    0.0000 H   0  0  0  0  0  0  0  0  0  0  0  0
    0.8002    7.6639    0.0000 H   0  0  0  0  0  0  0  0  0  0  0  0
    0.0667    7.1835    0.0000 H   0  0  0  0  0  0  0  0  0  0  0  0
    0.5471    6.4500    0.0000 H   0  0  0  0  0  0  0  0  0  0  0  0
    1.3764    5.7090    0.0000 H   0  0  0  0  0  0  0  0  0  0  0  0
    2.1592    5.3139    0.0000 H   0  0  0  0  0  0  0  0  0  0  0  0
    2.5542    6.0967    0.0000 H   0  0  0  0  0  0  0  0  0  0  0  0
    6.6696    5.1802    0.0000 H   0  0  0  0  0  0  0  0  0  0  0  0
    6.9063    6.0245    0.0000 H   0  0  0  0  0  0  0  0  0  0  0  0
    6.0620    6.2612    0.0000 H   0  0  0  0  0  0  0  0  0  0  0  0
    3.1687    2.4986    0.0000 H   0  0  0  0  0  0  0  0  0  0  0  0
    7.5798    1.9626    0.0000 H   0  0  0  0  0  0  0  0  0  0  0  0
    6.7681    0.4905    0.0000 H   0  0  0  0  0  0  0  0  0  0  0  0
    4.5984    0.0000    0.0000 H   0  0  0  0  0  0  0  0  0  0  0  0
    3.1558    0.8329    0.0000 H   0  0  0  0  0  0  0  0  0  0  0  0
    4.1075   11.5664    0.0000 H   0  0  0  0  0  0  0  0  0  0  0  0
    6.3838    9.9259    0.0000 H   0  0  0  0  0  0  0  0  0  0  0  0
    5.0546   12.8807    0.0000 H   0  0  0  0  0  0  0  0  0  0  0  0
    7.3310   11.2402    0.0000 H   0  0  0  0  0  0  0  0  0  0  0  0
    6.6664   12.7176    0.0000 H   0  0  0  0  0  0  0  0  0  0  0  0
    9.8192    6.5627    0.0000 H   0  0  0  0  0  0  0  0  0  0  0  0
    9.5923    5.7158    0.0000 H   0  0  0  0  0  0  0  0  0  0  0  0
   10.4393    5.4889    0.0000 H   0  0  0  0  0  0  0  0  0  0  0  0
   12.3982    6.7158    0.0000 H   0  0  0  0  0  0  0  0  0  0  0  0
  1  7  1  0  0  0  0
  1  8  2  0  0  0  0
  1  9  2  0  0  0  0
  1 50  1  0  0  0  0
  2 16  1  0  0  0  0
  2 17  1  0  0  0  0
 16  3  1  6  0  0  0
  3 72  1  0  0  0  0
  4 23  2  0  0  0  0
  5 26  2  0  0  0  0
  6 33  2  0  0  0  0
  7 95  1  0  0  0  0
 10 16  1  0  0  0  0
 10 19  1  0  0  0  0
 10 23  1  0  0  0  0
 11 15  1  0  0  0  0
 11 22  1  0  0  0  0
 11 26  1  0  0  0  0
 12 21  1  0  0  0  0
 12 29  1  0  0  0  0
 12 38  1  0  0  0  0
 17 13  1  6  0  0  0
 13 33  1  0  0  0  0
 13 67  1  0  0  0  0
 14 39  1  0  0  0  0
 14 42  1  0  0  0  0
 14 84  1  0  0  0  0
 15 16  1  0  0  0  0
 15 18  1  0  0  0  0
 15 51  1  1  0  0  0
 17 23  1  0  0  0  0
 17 28  1  0  0  0  0
 18 24  1  0  0  0  0
 18 52  1  0  0  0  0
 18 53  1  0  0  0  0
 19 26  1  0  0  0  0
 19 32  1  6  0  0  0
 19 54  1  0  0  0  0
 20 21  1  0  0  0  0
 20 27  1  0  0  0  0
 20 31  1  0  0  0  0
 20 55  1  6  0  0  0
 21 30  1  0  0  0  0
 21 56  1  1  0  0  0
 22 24  1  0  0  0  0
 22 57  1  0  0  0  0
 22 58  1  0  0  0  0
 24 59  1  0  0  0  0
 24 60  1  0  0  0  0
 25 27  1  0  0  0  0
 25 29  1  0  0  0  0
 25 33  1  1  0  0  0
 25 61  1  0  0  0  0
 27 62  1  0  0  0  0
 27 63  1  0  0  0  0
 28 36  1  0  0  0  0
 28 37  1  0  0  0  0
 28 64  1  0  0  0  0
 29 65  1  0  0  0  0
 29 66  1  0  0  0  0
 30 35  1  0  0  0  0
 30 68  1  0  0  0  0
 30 69  1  0  0  0  0
 31 34  2  0  0  0  0
 31 40  1  0  0  0  0
 32 41  1  0  0  0  0
 32 70  1  0  0  0  0
 32 71  1  0  0  0  0
 34 35  1  0  0  0  0
 34 39  1  0  0  0  0
 35 42  2  0  0  0  0
 36 73  1  0  0  0  0
 36 74  1  0  0  0  0
 36 75  1  0  0  0  0
 37 76  1  0  0  0  0
 37 77  1  0  0  0  0
 37 78  1  0  0  0  0
 38 79  1  0  0  0  0
 38 80  1  0  0  0  0
 38 81  1  0  0  0  0
 39 43  2  0  0  0  0
 40 44  2  0  0  0  0
 40 82  1  0  0  0  0
 41 45  2  0  0  0  0
 41 46  1  0  0  0  0
 42 83  1  0  0  0  0
 43 44  1  0  0  0  0
 43 85  1  0  0  0  0
 44 86  1  0  0  0  0
 45 47  1  0  0  0  0
 45 87  1  0  0  0  0
 46 48  2  0  0  0  0
 46 88  1  0  0  0  0
 47 49  2  0  0  0  0
 47 89  1  0  0  0  0
 48 49  1  0  0  0  0
 48 90  1  0  0  0  0
 49 91  1  0  0  0  0
 50 92  1  0  0  0  0
 50 93  1  0  0  0  0
 50 94  1  0  0  0  0
M  END
> <PUBCHEM_COMPOUND_CID>
444034

> <PUBCHEM_COMPOUND_CANONICALIZED>
1

> <PUBCHEM_CACTVS_COMPLEXITY>
1300

> <PUBCHEM_CACTVS_HBOND_ACCEPTOR>
9

> <PUBCHEM_CACTVS_HBOND_DONOR>
4

> <PUBCHEM_CACTVS_ROTATABLE_BOND>
5

> <PUBCHEM_CACTVS_SUBSKEYS>
AAADcfB/vABAAAAAAAAAAAAAAAAAAWLFgAA8eMECAAAAAFjx9AAAHgQQCAAADSzBngS+yPPJloKoAzV3VHKCgCAxAiAI2aH4ZJkaYPrA0bWfYAhklgDcyAeYmcKegAAAQAASAACQAASAACQAAAAAAAAAAA==

> <PUBCHEM_IUPAC_INCHI>
InChI=1S/C35H41N5O5.CH4O3S/c1-20(2)34(37-31(41)23-16-25-24-11-7-12-26-30(24)22(18-36-26)17-27(25)38(3)19-23)33(43)40-28(15-21-9-5-4-6-10-21)32(42)39-14-8-13-29(39)35(40,44)45-34;1-5(2,3)4/h4-7,9-12,18,20,23,25,27-29,36,44H,8,13-17,19H2,1-3H3,(H,37,41);1H3,(H,2,3,4)/t23-,25-,27-,28+,29+,34-,35+;/m1./s1

> <PUBCHEM_IUPAC_INCHIKEY>
SPXACGZWWVIDGR-SPZWACKZSA-N

> <PUBCHEM_EXACT_MASS>
707.298884

> <PUBCHEM_MOLECULAR_FORMULA>
C36H45N5O8S

> <PUBCHEM_MOLECULAR_WEIGHT>
707.8362

> <PUBCHEM_OPENEYE_CAN_SMILES>
CC(C)C1(C(=O)N2C(C(=O)N3CCCC3C2(O1)O)CC4=CC=CC=C4)NC(=O)C5CC6C(CC7=CNC8=CC=CC6=C78)N(C5)C.CS(=O)(=O)O

> <PUBCHEM_OPENEYE_ISO_SMILES>
CC(C)[C@@]1(C(=O)N2[C@H](C(=O)N3CCC[C@H]3[C@@]2(O1)O)CC4=CC=CC=C4)NC(=O)[C@@H]5C[C@H]6[C@@H](CC7=CNC8=CC=CC6=C78)N(C5)C.CS(=O)(=O)O

> <PUBCHEM_CACTVS_TPSA>
181

> <PUBCHEM_MONOISOTOPIC_WEIGHT>
707.298884

> <PUBCHEM_TOTAL_CHARGE>
0

> <PUBCHEM_HEAVY_ATOM_COUNT>
50

> <PUBCHEM_ATOM_DEF_STEREO_COUNT>
7

> <PUBCHEM_ATOM_UDEF_STEREO_COUNT>
0

> <PUBCHEM_BOND_DEF_STEREO_COUNT>
0

> <PUBCHEM_BOND_UDEF_STEREO_COUNT>
0

> <PUBCHEM_ISOTOPIC_ATOM_COUNT>
0

> <PUBCHEM_COMPONENT_COUNT>
2

> <PUBCHEM_CACTVS_TAUTO_COUNT>
4

> <PUBCHEM_COORDINATE_TYPE>
1
5
255

> <PUBCHEM_BONDANNOTATIONS>
17  13  6
14  39  8
14  42  8
15  51  5
19  32  6
20  55  6
21  56  5
25  33  5
16  3  6
31  34  8
31  40  8
34  35  8
34  39  8
35  42  8
39  43  8
40  44  8
41  45  8
41  46  8
43  44  8
45  47  8
46  48  8
47  49  8
48  49  8

$$$$

