6880
  -OEChem-06261201333D

 23 23  0     0  0  0  0  0  0999 V2000
    1.6103    0.0300   -0.1816 O   0  0  0  0  0  0  0  0  0  0  0  0
   -1.9253    2.1162   -0.2727 O   0  0  0  0  0  0  0  0  0  0  0  0
    3.9506   -1.4522    0.2515 O   0  0  0  0  0  0  0  0  0  0  0  0
    0.6267    1.9293    0.6439 O   0  0  0  0  0  0  0  0  0  0  0  0
   -0.7359    0.0680    0.1074 C   0  0  0  0  0  0  0  0  0  0  0  0
    2.8903    0.6662   -0.0938 C   0  0  0  0  0  0  0  0  0  0  0  0
   -1.9223    0.7600   -0.1364 C   0  0  0  0  0  0  0  0  0  0  0  0
   -0.7537   -1.3199    0.2450 C   0  0  0  0  0  0  0  0  0  0  0  0
    0.5317    0.7754    0.2235 C   0  0  0  0  0  0  0  0  0  0  0  0
    3.9562   -0.2974   -0.5789 C   0  0  0  0  0  0  0  0  0  0  0  0
   -3.1265    0.0641   -0.2424 C   0  0  0  0  0  0  0  0  0  0  0  0
   -1.9579   -2.0159    0.1390 C   0  0  0  0  0  0  0  0  0  0  0  0
   -3.1443   -1.3237   -0.1045 C   0  0  0  0  0  0  0  0  0  0  0  0
    2.8935    1.5684   -0.7149 H   0  0  0  0  0  0  0  0  0  0  0  0
    3.0756    0.9358    0.9523 H   0  0  0  0  0  0  0  0  0  0  0  0
    0.1528   -1.8846    0.4468 H   0  0  0  0  0  0  0  0  0  0  0  0
    4.9507    0.1569   -0.5491 H   0  0  0  0  0  0  0  0  0  0  0  0
    3.7449   -0.6286   -1.6000 H   0  0  0  0  0  0  0  0  0  0  0  0
   -4.0584    0.5902   -0.4317 H   0  0  0  0  0  0  0  0  0  0  0  0
   -1.9727   -3.0963    0.2489 H   0  0  0  0  0  0  0  0  0  0  0  0
   -4.0820   -1.8657   -0.1861 H   0  0  0  0  0  0  0  0  0  0  0  0
   -2.8357    2.4169   -0.4364 H   0  0  0  0  0  0  0  0  0  0  0  0
    4.1567   -1.1632    1.1569 H   0  0  0  0  0  0  0  0  0  0  0  0
  1  6  1  0  0  0  0
  1  9  1  0  0  0  0
  2  7  1  0  0  0  0
  2 22  1  0  0  0  0
  3 10  1  0  0  0  0
  3 23  1  0  0  0  0
  4  9  2  0  0  0  0
  5  7  1  0  0  0  0
  5  8  2  0  0  0  0
  5  9  1  0  0  0  0
  6 10  1  0  0  0  0
  6 14  1  0  0  0  0
  6 15  1  0  0  0  0
  7 11  2  0  0  0  0
  8 12  1  0  0  0  0
  8 16  1  0  0  0  0
 10 17  1  0  0  0  0
 10 18  1  0  0  0  0
 11 13  1  0  0  0  0
 11 19  1  0  0  0  0
 12 13  2  0  0  0  0
 12 20  1  0  0  0  0
 13 21  1  0  0  0  0
M  END
> <PUBCHEM_COMPOUND_CID>
6880

> <PUBCHEM_CONFORMER_RMSD>
0.6

> <PUBCHEM_CONFORMER_DIVERSEORDER>
1
33
15
32
12
38
25
50
39
24
45
53
52
4
30
28
11
27
51
21
48
49
41
14
2
19
16
7
37
46
44
42
47
17
10
34
40
3
5
35
23
26
43
29
36
18
8
13
6
9
20
31
22

> <PUBCHEM_MMFF94_PARTIAL_CHARGES>
19
1 -0.43
10 0.28
11 -0.15
12 -0.15
13 -0.15
16 0.15
19 0.15
2 -0.53
20 0.15
21 0.15
22 0.45
23 0.4
3 -0.68
4 -0.57
5 0.09
6 0.28
7 0.08
8 -0.15
9 0.63

> <PUBCHEM_EFFECTIVE_ROTOR_COUNT>
4

> <PUBCHEM_PHARMACOPHORE_FEATURES>
5
1 2 donor
1 3 acceptor
1 3 donor
1 4 acceptor
6 5 7 8 11 12 13 rings

> <PUBCHEM_HEAVY_ATOM_COUNT>
13

> <PUBCHEM_ATOM_DEF_STEREO_COUNT>
0

> <PUBCHEM_ATOM_UDEF_STEREO_COUNT>
0

> <PUBCHEM_BOND_DEF_STEREO_COUNT>
0

> <PUBCHEM_BOND_UDEF_STEREO_COUNT>
0

> <PUBCHEM_ISOTOPIC_ATOM_COUNT>
0

> <PUBCHEM_COMPONENT_COUNT>
1

> <PUBCHEM_CACTVS_TAUTO_COUNT>
4

> <PUBCHEM_CONFORMER_ID>
00001AE000000001

> <PUBCHEM_MMFF94_ENERGY>
32.3426

> <PUBCHEM_FEATURE_SELFOVERLAP>
25.371

> <PUBCHEM_SHAPE_FINGERPRINT>
11031198 65 13182753523723910714
11769659 78 18335986363371339094
12032990 46 18268989778949943939
12716758 59 18411142449890496464
13024252 1 17346597452794890667
13296908 3 18260548901097296000
14325111 11 18411981360314670268
14911166 2 18411428302013719381
16945 1 18339654368927318721
17804303 29 18409162190915361863
17870717 6 18263345023649613590
18186145 218 14333404541409753804
20201158 50 18260824890994925798
20281407 28 18337387132732237266
20281475 54 18337383825433384906
20871998 22 17836361550045006011
21061003 4 17385715876960345752
21501502 16 18263917752842712005
23402539 116 18333739022398196261
23403322 49 18334288812440414950
23463225 33 18411980278104445390
23552423 10 18056763113644404109
23559900 14 18408047325470729128
2748010 2 18051422768720509507
7364860 26 18047752598707156824
81228 2 17387957919052018208
8809292 202 18340483378766521506
93112 12 18342173354324721132
9709674 26 18409724071828706198

> <PUBCHEM_SHAPE_MULTIPOLES>
244.06
6.36
1.98
0.67
5.73
0.15
-0.01
-2.23
-0.84
-0.73
0.16
0.08
0.02
0.15

> <PUBCHEM_SHAPE_SELFOVERLAP>
504.337

> <PUBCHEM_SHAPE_VOLUME>
139.2

> <PUBCHEM_COORDINATE_TYPE>
2
5
10

$$$$

