12130
  -OEChem-07051213133D

 23 22  0     0  0  0  0  0  0999 V2000
   -0.1191    2.5098    0.4835 O   0  0  0  0  0  0  0  0  0  0  0  0
   -0.0070    0.4707   -0.0611 N   0  0  0  0  0  0  0  0  0  0  0  0
    0.2558    1.7205   -0.3918 N   0  0  0  0  0  0  0  0  0  0  0  0
   -1.3213    0.0406   -0.5232 C   0  0  0  0  0  0  0  0  0  0  0  0
    1.0162   -0.4878   -0.5105 C   0  0  0  0  0  0  0  0  0  0  0  0
   -1.9612   -0.8969    0.4976 C   0  0  0  0  0  0  0  0  0  0  0  0
    2.1903   -0.5057    0.4650 C   0  0  0  0  0  0  0  0  0  0  0  0
   -3.3259   -1.3777    0.0289 C   0  0  0  0  0  0  0  0  0  0  0  0
    3.2723   -1.4735    0.0117 C   0  0  0  0  0  0  0  0  0  0  0  0
   -2.0048    0.8967   -0.6332 H   0  0  0  0  0  0  0  0  0  0  0  0
   -1.2763   -0.4259   -1.5175 H   0  0  0  0  0  0  0  0  0  0  0  0
    0.6109   -1.5081   -0.5404 H   0  0  0  0  0  0  0  0  0  0  0  0
    1.3555   -0.2647   -1.5320 H   0  0  0  0  0  0  0  0  0  0  0  0
   -1.3267   -1.7728    0.6757 H   0  0  0  0  0  0  0  0  0  0  0  0
   -2.0750   -0.3824    1.4596 H   0  0  0  0  0  0  0  0  0  0  0  0
    2.6340    0.4931    0.5546 H   0  0  0  0  0  0  0  0  0  0  0  0
    1.8442   -0.7969    1.4644 H   0  0  0  0  0  0  0  0  0  0  0  0
   -4.0092   -0.5356   -0.1213 H   0  0  0  0  0  0  0  0  0  0  0  0
   -3.2454   -1.9282   -0.9139 H   0  0  0  0  0  0  0  0  0  0  0  0
   -3.7692   -2.0449    0.7748 H   0  0  0  0  0  0  0  0  0  0  0  0
    2.8834   -2.4946   -0.0546 H   0  0  0  0  0  0  0  0  0  0  0  0
    3.6658   -1.1905   -0.9699 H   0  0  0  0  0  0  0  0  0  0  0  0
    4.1037   -1.4729    0.7237 H   0  0  0  0  0  0  0  0  0  0  0  0
  1  3  2  0  0  0  0
  2  3  1  0  0  0  0
  2  4  1  0  0  0  0
  2  5  1  0  0  0  0
  4  6  1  0  0  0  0
  4 10  1  0  0  0  0
  4 11  1  0  0  0  0
  5  7  1  0  0  0  0
  5 12  1  0  0  0  0
  5 13  1  0  0  0  0
  6  8  1  0  0  0  0
  6 14  1  0  0  0  0
  6 15  1  0  0  0  0
  7  9  1  0  0  0  0
  7 16  1  0  0  0  0
  7 17  1  0  0  0  0
  8 18  1  0  0  0  0
  8 19  1  0  0  0  0
  8 20  1  0  0  0  0
  9 21  1  0  0  0  0
  9 22  1  0  0  0  0
  9 23  1  0  0  0  0
M  END
> <PUBCHEM_COMPOUND_CID>
12130

> <PUBCHEM_CONFORMER_RMSD>
0.6

> <PUBCHEM_CONFORMER_DIVERSEORDER>
1
57
29
21
53
61
35
44
27
59
15
38
52
23
50
16
33
8
48
36
7
6
54
58
2
4
39
51
25
10
3
49
26
31
62
12
45
55
11
47
34
18
42
37
13
46
22
60
14
32
43
9
41
56
20
19
28
17
30
24
5
40

> <PUBCHEM_MMFF94_PARTIAL_CHARGES>
5
1 -0.16
2 -0.36
3 -0.01
4 0.27
5 0.27

> <PUBCHEM_EFFECTIVE_ROTOR_COUNT>
5

> <PUBCHEM_PHARMACOPHORE_FEATURES>
2
1 8 hydrophobe
1 9 hydrophobe

> <PUBCHEM_HEAVY_ATOM_COUNT>
9

> <PUBCHEM_ATOM_DEF_STEREO_COUNT>
0

> <PUBCHEM_ATOM_UDEF_STEREO_COUNT>
0

> <PUBCHEM_BOND_DEF_STEREO_COUNT>
0

> <PUBCHEM_BOND_UDEF_STEREO_COUNT>
0

> <PUBCHEM_ISOTOPIC_ATOM_COUNT>
0

> <PUBCHEM_COMPONENT_COUNT>
1

> <PUBCHEM_CACTVS_TAUTO_COUNT>
1

> <PUBCHEM_CONFORMER_ID>
00002F6200000001

> <PUBCHEM_MMFF94_ENERGY>
7.1258

> <PUBCHEM_FEATURE_SELFOVERLAP>
10.149

> <PUBCHEM_SHAPE_FINGERPRINT>
10857977 72 18337122219228664754
14128692 85 17917704695435162190
18342897 69 18197503024572797090
20645477 70 18125447406557786071
20653091 64 18265885861602850857
20711978 78 18122920732656467693
20871998 184 18115874164339551070
20871998 22 18335413582354023238
21524375 3 8070027744278604135
23552449 11 18265329504519284607
29004967 10 18410014312295142906
528862 383 18122348973482574332

> <PUBCHEM_SHAPE_MULTIPOLES>
169.38
4.63
2.06
0.74
0.05
1.53
0
-3.97
0.33
0
0.24
-0.01
0
0.06

> <PUBCHEM_SHAPE_SELFOVERLAP>
302.005

> <PUBCHEM_SHAPE_VOLUME>
111.7

> <PUBCHEM_COORDINATE_TYPE>
2
5
10

$$$$

