443103
  -OEChem-07051213012D

 65 69  0     1  0  0  0  0  0999 V2000
   12.6445    2.7426    0.0000 O   0  0  0  0  0  0  0  0  0  0  0  0
   13.9174    0.9873    0.0000 O   0  0  0  0  0  0  0  0  0  0  0  0
    5.9945   -1.5650    0.0000 O   0  0  0  0  0  0  0  0  0  0  0  0
    5.1343   -0.0617    0.0000 O   0  0  0  0  0  0  0  0  0  0  0  0
    4.2586   -2.5583    0.0000 O   0  0  0  0  0  0  0  0  0  0  0  0
    2.5304   -1.5517    0.0000 O   0  0  0  0  0  0  0  0  0  0  0  0
    2.5381    0.4483    0.0000 O   0  0  0  0  0  0  0  0  0  0  0  0
    3.4099    1.9450    0.0000 O   0  0  0  0  0  0  0  0  0  0  0  0
    5.1420    1.9383    0.0000 O   0  0  0  0  0  0  0  0  0  0  0  0
   11.3876    1.4873    0.0000 C   0  0  1  0  0  0  0  0  0  0  0  0
   11.3876    0.4873    0.0000 C   0  0  2  0  0  0  0  0  0  0  0  0
   10.5216   -0.0127    0.0000 C   0  0  1  0  0  0  0  0  0  0  0  0
    9.6555    0.4873    0.0000 C   0  0  2  0  0  0  0  0  0  0  0  0
   12.3338    1.7920    0.0000 C   0  0  2  0  0  0  0  0  0  0  0  0
   10.5216    1.9873    0.0000 C   0  0  0  0  0  0  0  0  0  0  0  0
   12.3338    0.1826    0.0000 C   0  0  0  0  0  0  0  0  0  0  0  0
   12.9174    0.9873    0.0000 C   0  0  1  0  0  0  0  0  0  0  0  0
    9.6555    1.4873    0.0000 C   0  0  0  0  0  0  0  0  0  0  0  0
   10.5376   -1.0542    0.0000 C   0  0  0  0  0  0  0  0  0  0  0  0
   11.3876    2.4873    0.0000 C   0  0  0  0  0  0  0  0  0  0  0  0
    8.7455   -0.0195    0.0000 C   0  0  0  0  0  0  0  0  0  0  0  0
    9.6396   -1.5820    0.0000 C   0  0  0  0  0  0  0  0  0  0  0  0
    8.7375   -1.0611    0.0000 C   0  0  0  0  0  0  0  0  0  0  0  0
    7.8187    0.5445    0.0000 C   0  0  0  0  0  0  0  0  0  0  0  0
    7.8021   -1.6109    0.0000 C   0  0  0  0  0  0  0  0  0  0  0  0
    6.8708    0.0166    0.0000 C   0  0  0  0  0  0  0  0  0  0  0  0
    6.8624   -1.0684    0.0000 C   0  0  0  0  0  0  0  0  0  0  0  0
    5.1304   -1.0617    0.0000 C   0  0  2  0  0  0  0  0  0  0  0  0
    4.2625   -1.5583    0.0000 C   0  0  1  0  0  0  0  0  0  0  0  0
    3.3984   -1.0550    0.0000 C   0  0  2  0  0  0  0  0  0  0  0  0
    3.4022   -0.0550    0.0000 C   0  0  1  0  0  0  0  0  0  0  0  0
    4.2702    0.4416    0.0000 C   0  0  1  0  0  0  0  0  0  0  0  0
    4.2740    1.4416    0.0000 C   0  0  0  0  0  0  0  0  0  0  0  0
   11.4775   -0.3579    0.0000 H   0  0  0  0  0  0  0  0  0  0  0  0
   11.2609   -0.4320    0.0000 H   0  0  0  0  0  0  0  0  0  0  0  0
   10.3916    0.9123    0.0000 H   0  0  0  0  0  0  0  0  0  0  0  0
   11.8963    2.2314    0.0000 H   0  0  0  0  0  0  0  0  0  0  0  0
   10.9201    2.4622    0.0000 H   0  0  0  0  0  0  0  0  0  0  0  0
   10.1230    2.4622    0.0000 H   0  0  0  0  0  0  0  0  0  0  0  0
   12.0828   -0.3843    0.0000 H   0  0  0  0  0  0  0  0  0  0  0  0
   12.8712   -0.1267    0.0000 H   0  0  0  0  0  0  0  0  0  0  0  0
   13.1991    0.4350    0.0000 H   0  0  0  0  0  0  0  0  0  0  0  0
    9.4435    2.0699    0.0000 H   0  0  0  0  0  0  0  0  0  0  0  0
    9.0450    1.3796    0.0000 H   0  0  0  0  0  0  0  0  0  0  0  0
   10.7556   -1.6346    0.0000 H   0  0  0  0  0  0  0  0  0  0  0  0
   11.1468   -0.9387    0.0000 H   0  0  0  0  0  0  0  0  0  0  0  0
   12.0076    2.4873    0.0000 H   0  0  0  0  0  0  0  0  0  0  0  0
   11.3876    3.1073    0.0000 H   0  0  0  0  0  0  0  0  0  0  0  0
   10.7676    2.4873    0.0000 H   0  0  0  0  0  0  0  0  0  0  0  0
    9.2423   -2.0579    0.0000 H   0  0  0  0  0  0  0  0  0  0  0  0
   10.0405   -2.0548    0.0000 H   0  0  0  0  0  0  0  0  0  0  0  0
   13.2511    2.8704    0.0000 H   0  0  0  0  0  0  0  0  0  0  0  0
   14.2274    0.4504    0.0000 H   0  0  0  0  0  0  0  0  0  0  0  0
    7.8306    1.1644    0.0000 H   0  0  0  0  0  0  0  0  0  0  0  0
    7.8045   -2.2309    0.0000 H   0  0  0  0  0  0  0  0  0  0  0  0
    6.3375    0.3328    0.0000 H   0  0  0  0  0  0  0  0  0  0  0  0
    5.1280   -1.6817    0.0000 H   0  0  0  0  0  0  0  0  0  0  0  0
    3.7243   -1.8663    0.0000 H   0  0  0  0  0  0  0  0  0  0  0  0
    2.8626   -0.7430    0.0000 H   0  0  0  0  0  0  0  0  0  0  0  0
    2.8641   -0.3630    0.0000 H   0  0  0  0  0  0  0  0  0  0  0  0
    4.8083    0.7496    0.0000 H   0  0  0  0  0  0  0  0  0  0  0  0
    4.7943   -2.8704    0.0000 H   0  0  0  0  0  0  0  0  0  0  0  0
    2.5280   -2.1717    0.0000 H   0  0  0  0  0  0  0  0  0  0  0  0
    2.0000    0.1404    0.0000 H   0  0  0  0  0  0  0  0  0  0  0  0
    3.4123    2.5650    0.0000 H   0  0  0  0  0  0  0  0  0  0  0  0
 14  1  1  1  0  0  0
  1 52  1  0  0  0  0
 17  2  1  6  0  0  0
  2 53  1  0  0  0  0
  3 27  1  0  0  0  0
 28  3  1  1  0  0  0
  4 28  1  0  0  0  0
  4 32  1  0  0  0  0
 29  5  1  6  0  0  0
  5 62  1  0  0  0  0
 30  6  1  1  0  0  0
  6 63  1  0  0  0  0
 31  7  1  6  0  0  0
  7 64  1  0  0  0  0
  8 33  1  0  0  0  0
  8 65  1  0  0  0  0
  9 33  2  0  0  0  0
 10 11  1  0  0  0  0
 10 14  1  0  0  0  0
 10 15  1  0  0  0  0
 10 20  1  1  0  0  0
 11 12  1  0  0  0  0
 11 16  1  0  0  0  0
 11 34  1  6  0  0  0
 12 13  1  0  0  0  0
 12 19  1  0  0  0  0
 12 35  1  1  0  0  0
 13 18  1  0  0  0  0
 13 21  1  0  0  0  0
 13 36  1  6  0  0  0
 14 17  1  0  0  0  0
 14 37  1  0  0  0  0
 15 18  1  0  0  0  0
 15 38  1  0  0  0  0
 15 39  1  0  0  0  0
 16 17  1  0  0  0  0
 16 40  1  0  0  0  0
 16 41  1  0  0  0  0
 17 42  1  0  0  0  0
 18 43  1  0  0  0  0
 18 44  1  0  0  0  0
 19 22  1  0  0  0  0
 19 45  1  0  0  0  0
 19 46  1  0  0  0  0
 20 47  1  0  0  0  0
 20 48  1  0  0  0  0
 20 49  1  0  0  0  0
 21 23  2  0  0  0  0
 21 24  1  0  0  0  0
 22 23  1  0  0  0  0
 22 50  1  0  0  0  0
 22 51  1  0  0  0  0
 23 25  1  0  0  0  0
 24 26  2  0  0  0  0
 24 54  1  0  0  0  0
 25 27  2  0  0  0  0
 25 55  1  0  0  0  0
 26 27  1  0  0  0  0
 26 56  1  0  0  0  0
 28 29  1  0  0  0  0
 28 57  1  0  0  0  0
 29 30  1  0  0  0  0
 29 58  1  0  0  0  0
 30 31  1  0  0  0  0
 30 59  1  0  0  0  0
 31 32  1  0  0  0  0
 31 60  1  0  0  0  0
 32 33  1  1  0  0  0
 32 61  1  0  0  0  0
M  END
> <PUBCHEM_COMPOUND_CID>
443103

> <PUBCHEM_COMPOUND_CANONICALIZED>
1

> <PUBCHEM_CACTVS_COMPLEXITY>
747

> <PUBCHEM_CACTVS_HBOND_ACCEPTOR>
9

> <PUBCHEM_CACTVS_HBOND_DONOR>
6

> <PUBCHEM_CACTVS_ROTATABLE_BOND>
3

> <PUBCHEM_CACTVS_SUBSKEYS>
AAADcfB4PAAAAAAAAAAAAAAAAAAAAYAAAAA0YMEAAAAAAGDBAAAAGgAACAAADxSwmAMyDoAABgCIAiDSCAICCAAgIAAIiAFGCIgdNjaEMR6ieCCl4BEPqAfK7PxPoAABAAAQAADAAAYAACAAAIAADCAAAA==

> <PUBCHEM_IUPAC_OPENEYE_NAME>
(2S,3S,4S,5R,6S)-6-[[(8R,9S,13S,14S,16R,17R)-16,17-dihydroxy-13-methyl-6,7,8,9,11,12,14,15,16,17-decahydrocyclopenta[a]phenanthren-3-yl]oxy]-3,4,5-trihydroxy-tetrahydropyran-2-carboxylic acid

> <PUBCHEM_IUPAC_CAS_NAME>
(2S,3S,4S,5R,6S)-6-[[(8R,9S,13S,14S,16R,17R)-16,17-dihydroxy-13-methyl-6,7,8,9,11,12,14,15,16,17-decahydrocyclopenta[a]phenanthren-3-yl]oxy]-3,4,5-trihydroxy-2-oxanecarboxylic acid

> <PUBCHEM_IUPAC_NAME>
(2S,3S,4S,5R,6S)-6-[[(8R,9S,13S,14S,16R,17R)-16,17-dihydroxy-13-methyl-6,7,8,9,11,12,14,15,16,17-decahydrocyclopenta[a]phenanthren-3-yl]oxy]-3,4,5-trihydroxyoxane-2-carboxylic acid

> <PUBCHEM_IUPAC_SYSTEMATIC_NAME>
(2S,3S,4S,5R,6S)-6-[[(8R,9S,13S,14S,16R,17R)-13-methyl-16,17-bis(oxidanyl)-6,7,8,9,11,12,14,15,16,17-decahydrocyclopenta[a]phenanthren-3-yl]oxy]-3,4,5-tris(oxidanyl)oxane-2-carboxylic acid

> <PUBCHEM_IUPAC_TRADITIONAL_NAME>
(2S,3S,4S,5R,6S)-6-[[(8R,9S,13S,14S,16R,17R)-16,17-dihydroxy-13-methyl-6,7,8,9,11,12,14,15,16,17-decahydrocyclopenta[a]phenanthren-3-yl]oxy]-3,4,5-trihydroxy-tetrahydropyran-2-carboxylic acid

> <PUBCHEM_IUPAC_INCHI>
InChI=1S/C24H32O9/c1-24-7-6-13-12-5-3-11(32-23-19(28)17(26)18(27)20(33-23)22(30)31)8-10(12)2-4-14(13)15(24)9-16(25)21(24)29/h3,5,8,13-21,23,25-29H,2,4,6-7,9H2,1H3,(H,30,31)/t13-,14-,15+,16-,17+,18+,19-,20+,21+,23-,24+/m1/s1

> <PUBCHEM_IUPAC_INCHIKEY>
UZKIAJMSMKLBQE-JRSYHJKYSA-N

> <PUBCHEM_XLOGP3>
0.9

> <PUBCHEM_EXACT_MASS>
464.204633

> <PUBCHEM_MOLECULAR_FORMULA>
C24H32O9

> <PUBCHEM_MOLECULAR_WEIGHT>
464.50548

> <PUBCHEM_OPENEYE_CAN_SMILES>
CC12CCC3C(C1CC(C2O)O)CCC4=C3C=CC(=C4)OC5C(C(C(C(O5)C(=O)O)O)O)O

> <PUBCHEM_OPENEYE_ISO_SMILES>
C[C@]12CC[C@H]3[C@H]([C@@H]1C[C@H]([C@@H]2O)O)CCC4=C3C=CC(=C4)O[C@H]5[C@@H]([C@H]([C@@H]([C@H](O5)C(=O)O)O)O)O

> <PUBCHEM_CACTVS_TPSA>
157

> <PUBCHEM_MONOISOTOPIC_WEIGHT>
464.204633

> <PUBCHEM_TOTAL_CHARGE>
0

> <PUBCHEM_HEAVY_ATOM_COUNT>
33

> <PUBCHEM_ATOM_DEF_STEREO_COUNT>
11

> <PUBCHEM_ATOM_UDEF_STEREO_COUNT>
0

> <PUBCHEM_BOND_DEF_STEREO_COUNT>
0

> <PUBCHEM_BOND_UDEF_STEREO_COUNT>
0

> <PUBCHEM_ISOTOPIC_ATOM_COUNT>
0

> <PUBCHEM_COMPONENT_COUNT>
1

> <PUBCHEM_CACTVS_TAUTO_COUNT>
1

> <PUBCHEM_COORDINATE_TYPE>
1
5
255

> <PUBCHEM_BONDANNOTATIONS>
14  1  5
10  20  5
11  34  6
12  35  5
13  36  6
17  2  6
21  23  8
21  24  8
23  25  8
24  26  8
25  27  8
26  27  8
28  3  5
32  33  5
29  5  6
30  6  5
31  7  6

$$$$

