2910
  -OEChem-07051213033D

 40 43  0     1  0  0  0  0  0999 V2000
   -3.6722   -2.9411   -0.1328 Cl  0  0  0  0  0  0  0  0  0  0  0  0
    0.0086    2.1203    0.0671 S   0  0  0  0  0  0  0  0  0  0  0  0
   -4.9514    0.0125    0.1688 S   0  0  0  0  0  0  0  0  0  0  0  0
    0.2299    2.4317    1.4652 O   0  0  0  0  0  0  0  0  0  0  0  0
   -0.5671    3.0861   -0.8474 O   0  0  0  0  0  0  0  0  0  0  0  0
   -5.5218   -1.2185    0.7077 O   0  0  0  0  0  0  0  0  0  0  0  0
   -5.1026    1.2724    0.8888 O   0  0  0  0  0  0  0  0  0  0  0  0
    1.4510    1.5176   -0.6235 N   0  0  0  0  0  0  0  0  0  0  0  0
    0.9464   -0.8232   -0.2046 N   0  0  0  0  0  0  0  0  0  0  0  0
   -5.5765    0.2229   -1.4192 N   0  0  0  0  0  0  0  0  0  0  0  0
    3.2180   -0.1594   -0.7567 C   0  0  2  0  0  0  0  0  0  0  0  0
    3.9116   -1.4292   -0.1959 C   0  0  1  0  0  0  0  0  0  0  0  0
    5.5438    0.0954   -0.1140 C   0  0  2  0  0  0  0  0  0  0  0  0
    4.3448    0.9144   -0.6433 C   0  0  0  0  0  0  0  0  0  0  0  0
    5.3146   -1.2585   -0.7932 C   0  0  0  0  0  0  0  0  0  0  0  0
    1.9260    0.2367   -0.0530 C   0  0  1  0  0  0  0  0  0  0  0  0
    4.2590   -1.2229    1.2604 C   0  0  0  0  0  0  0  0  0  0  0  0
    5.2348   -0.3041    1.3094 C   0  0  0  0  0  0  0  0  0  0  0  0
   -0.4176   -0.5981   -0.0883 C   0  0  0  0  0  0  0  0  0  0  0  0
   -1.0008    0.6726    0.0345 C   0  0  0  0  0  0  0  0  0  0  0  0
   -1.2921   -1.6958   -0.1440 C   0  0  0  0  0  0  0  0  0  0  0  0
   -2.3850    0.8536    0.1115 C   0  0  0  0  0  0  0  0  0  0  0  0
   -3.2232   -0.2556    0.0658 C   0  0  0  0  0  0  0  0  0  0  0  0
   -2.6782   -1.5299   -0.0633 C   0  0  0  0  0  0  0  0  0  0  0  0
    3.0117   -0.3208   -1.8257 H   0  0  0  0  0  0  0  0  0  0  0  0
    3.4401   -2.3846   -0.4288 H   0  0  0  0  0  0  0  0  0  0  0  0
    6.5299    0.5352   -0.2652 H   0  0  0  0  0  0  0  0  0  0  0  0
    4.0925    1.7448    0.0256 H   0  0  0  0  0  0  0  0  0  0  0  0
    4.5667    1.3249   -1.6352 H   0  0  0  0  0  0  0  0  0  0  0  0
    5.3187   -1.2004   -1.8877 H   0  0  0  0  0  0  0  0  0  0  0  0
    6.0232   -2.0337   -0.4742 H   0  0  0  0  0  0  0  0  0  0  0  0
    2.1097    0.3997    1.0159 H   0  0  0  0  0  0  0  0  0  0  0  0
    3.7699   -1.6845    2.1032 H   0  0  0  0  0  0  0  0  0  0  0  0
    5.6796    0.1116    2.1991 H   0  0  0  0  0  0  0  0  0  0  0  0
    1.5452    1.6038   -1.6437 H   0  0  0  0  0  0  0  0  0  0  0  0
    1.2634   -1.7859   -0.1851 H   0  0  0  0  0  0  0  0  0  0  0  0
   -0.8781   -2.6979   -0.2521 H   0  0  0  0  0  0  0  0  0  0  0  0
   -2.7889    1.8583    0.1971 H   0  0  0  0  0  0  0  0  0  0  0  0
   -5.9384    1.1625   -1.6315 H   0  0  0  0  0  0  0  0  0  0  0  0
   -4.9782   -0.1155   -2.1851 H   0  0  0  0  0  0  0  0  0  0  0  0
  1 24  1  0  0  0  0
  2  4  2  0  0  0  0
  2  5  2  0  0  0  0
  2  8  1  0  0  0  0
  2 20  1  0  0  0  0
  3  6  2  0  0  0  0
  3  7  2  0  0  0  0
  3 10  1  0  0  0  0
  3 23  1  0  0  0  0
  8 16  1  0  0  0  0
  8 35  1  0  0  0  0
  9 16  1  0  0  0  0
  9 19  1  0  0  0  0
  9 36  1  0  0  0  0
 10 39  1  0  0  0  0
 10 40  1  0  0  0  0
 11 12  1  0  0  0  0
 11 14  1  0  0  0  0
 11 16  1  0  0  0  0
 11 25  1  0  0  0  0
 12 15  1  0  0  0  0
 12 17  1  0  0  0  0
 12 26  1  0  0  0  0
 13 14  1  0  0  0  0
 13 15  1  0  0  0  0
 13 18  1  0  0  0  0
 13 27  1  0  0  0  0
 14 28  1  0  0  0  0
 14 29  1  0  0  0  0
 15 30  1  0  0  0  0
 15 31  1  0  0  0  0
 16 32  1  0  0  0  0
 17 18  2  0  0  0  0
 17 33  1  0  0  0  0
 18 34  1  0  0  0  0
 19 20  1  0  0  0  0
 19 21  2  0  0  0  0
 20 22  2  0  0  0  0
 21 24  1  0  0  0  0
 21 37  1  0  0  0  0
 22 23  1  0  0  0  0
 22 38  1  0  0  0  0
 23 24  2  0  0  0  0
M  END
> <PUBCHEM_COMPOUND_CID>
2910

> <PUBCHEM_CONFORMER_RMSD>
0.6

> <PUBCHEM_CONFORMER_DIVERSEORDER>
10
7
14
20
24
21
19
6
13
8
34
28
5
23
35
22
33
27
38
2
36
32
37
25
4
18
26
1
9
3
39
30
40
11
31
16
29
17
15
12

> <PUBCHEM_MMFF94_PARTIAL_CHARGES>
29
1 -0.18
10 -0.98
12 0.14
13 0.14
16 0.72
17 -0.29
18 -0.29
19 0.1
2 1.45
20 -0.01
21 -0.15
22 -0.15
23 -0.01
24 0.18
3 1.45
33 0.15
34 0.15
35 0.42
36 0.4
37 0.15
38 0.15
39 0.42
4 -0.65
40 0.42
5 -0.65
6 -0.65
7 -0.65
8 -0.91
9 -0.87

> <PUBCHEM_EFFECTIVE_ROTOR_COUNT>
3.2

> <PUBCHEM_PHARMACOPHORE_FEATURES>
11
1 10 donor
1 4 acceptor
1 5 acceptor
1 6 acceptor
1 7 acceptor
1 8 donor
1 9 cation
1 9 donor
6 19 20 21 22 23 24 rings
6 2 8 9 16 19 20 rings
7 11 12 13 14 15 17 18 rings

> <PUBCHEM_HEAVY_ATOM_COUNT>
24

> <PUBCHEM_ATOM_DEF_STEREO_COUNT>
0

> <PUBCHEM_ATOM_UDEF_STEREO_COUNT>
4

> <PUBCHEM_BOND_DEF_STEREO_COUNT>
0

> <PUBCHEM_BOND_UDEF_STEREO_COUNT>
0

> <PUBCHEM_ISOTOPIC_ATOM_COUNT>
0

> <PUBCHEM_COMPONENT_COUNT>
1

> <PUBCHEM_CACTVS_TAUTO_COUNT>
1

> <PUBCHEM_CONFORMER_ID>
00000B5E0000000A

> <PUBCHEM_MMFF94_ENERGY>
65.375

> <PUBCHEM_FEATURE_SELFOVERLAP>
55.897

> <PUBCHEM_SHAPE_FINGERPRINT>
10062212 137 18410293566990305839
10906281 52 18263624260410012903
11045515 52 17918276450145770620
11646440 116 18186792574416228555
11796584 16 18273497866317108826
12107183 9 17694225873561589442
12236239 1 17989204858758313746
12516196 113 18113338591762484232
12553582 1 18341058462276847486
12788726 201 18272090560347984176
13004483 165 18200886153184481172
13140716 1 18336547118570027048
13533116 47 17168139100714778686
13583140 156 14418140590668203614
13862211 1 18410578392094118391
14251764 18 18408597051224880571
14528608 73 7997967994409855754
14790565 3 18266170828531034425
15099037 51 18411702084609148175
15183329 4 18201440302686388693
15196674 1 18338231561788485982
15788980 27 17489869332268101759
15885798 251 18413388735193059228
15927050 60 17468478115060632892
17349148 13 18040428880808696893
17492 89 17978509737604749223
17980427 23 17095511899471210865
1813 80 17632858616210992772
18222031 100 17967535662049330628
19141452 34 18260828185387835631
19489759 90 17168142360462574131
20600515 1 18335124402417097341
21033648 29 16877954844554371899
21236236 1 18335983185639326621
21267235 1 18411971477748130382
21285901 2 18262512710046935654
21421861 104 18057606671139466162
21703447 108 17611761002508831715
22950370 63 18342173345418405146
2297311 6 18261381287429360878
23366157 5 17912081651163292669
23402539 116 18261114084296749895
23536379 177 16272211911464483967
23557571 272 18114453574157989716
23559900 14 18334856091831315348
23622692 118 17898016737734955519
23845131 108 17252291510972672561
3004659 81 18201716250224851238
3178227 256 18341597206601658771
335352 9 18410854352928588975
3411729 13 17970636173640683776
34797466 226 16660639609982707744
350125 39 18338791201266594963
3680242 22 18342172319032160578
4340502 62 14490189414314250812
5104073 3 18338232652831583611
5283173 99 18059021699427920029
5374978 207 18410295818048644824
7226269 152 17895187853124762025
8863177 126 17772455803972069947

> <PUBCHEM_SHAPE_MULTIPOLES>
465.06
13.38
2.51
1.04
0.5
0.54
0.15
-4.3
0.49
-1.54
-0.02
0.41
0.15
-0.24

> <PUBCHEM_SHAPE_SELFOVERLAP>
989.341

> <PUBCHEM_SHAPE_VOLUME>
262.3

> <PUBCHEM_COORDINATE_TYPE>
2
5
10

$$$$

