4463
  -OEChem-07051212533D

 34 37  0     0  0  0  0  0  0999 V2000
    0.8987   -2.8388   -1.5122 O   0  0  0  0  0  0  0  0  0  0  0  0
    0.2499    1.0086   -0.0601 N   0  0  0  0  0  0  0  0  0  0  0  0
   -0.8543   -1.7140   -0.6317 N   0  0  0  0  0  0  0  0  0  0  0  0
   -1.9407    1.5809    0.6821 N   0  0  0  0  0  0  0  0  0  0  0  0
    2.4581    0.8732    0.8178 N   0  0  0  0  0  0  0  0  0  0  0  0
    0.4841    2.4797   -0.2277 C   0  0  0  0  0  0  0  0  0  0  0  0
    0.0329    3.1698   -1.4598 C   0  0  0  0  0  0  0  0  0  0  0  0
    1.4961    2.9676   -1.1953 C   0  0  0  0  0  0  0  0  0  0  0  0
   -1.0920    0.6195    0.2036 C   0  0  0  0  0  0  0  0  0  0  0  0
    1.4004    0.2312    0.2331 C   0  0  0  0  0  0  0  0  0  0  0  0
   -1.5749   -0.6623   -0.0503 C   0  0  0  0  0  0  0  0  0  0  0  0
    1.4913   -1.1263   -0.0588 C   0  0  0  0  0  0  0  0  0  0  0  0
   -2.9368   -0.9290    0.1845 C   0  0  0  0  0  0  0  0  0  0  0  0
    0.4919   -1.9168   -0.8002 C   0  0  0  0  0  0  0  0  0  0  0  0
    2.6679   -1.8164    0.2925 C   0  0  0  0  0  0  0  0  0  0  0  0
   -3.7829    0.0460    0.6852 C   0  0  0  0  0  0  0  0  0  0  0  0
   -3.2361    1.2833    0.9172 C   0  0  0  0  0  0  0  0  0  0  0  0
    3.5707    0.1814    1.1425 C   0  0  0  0  0  0  0  0  0  0  0  0
   -3.5465   -2.2750   -0.0711 C   0  0  0  0  0  0  0  0  0  0  0  0
    3.7222   -1.1625    0.9086 C   0  0  0  0  0  0  0  0  0  0  0  0
    0.4112    3.0193    0.7120 H   0  0  0  0  0  0  0  0  0  0  0  0
   -0.3640    4.1727   -1.3627 H   0  0  0  0  0  0  0  0  0  0  0  0
   -0.4186    2.5847   -2.2516 H   0  0  0  0  0  0  0  0  0  0  0  0
    2.0178    2.2605   -1.8285 H   0  0  0  0  0  0  0  0  0  0  0  0
    2.0829    3.8359   -0.9212 H   0  0  0  0  0  0  0  0  0  0  0  0
   -1.4090   -2.4727   -1.0168 H   0  0  0  0  0  0  0  0  0  0  0  0
    2.7777   -2.8793    0.0868 H   0  0  0  0  0  0  0  0  0  0  0  0
   -4.8325   -0.1370    0.8842 H   0  0  0  0  0  0  0  0  0  0  0  0
   -3.8362    2.0997    1.3039 H   0  0  0  0  0  0  0  0  0  0  0  0
    4.3573    0.7625    1.6112 H   0  0  0  0  0  0  0  0  0  0  0  0
   -4.5760   -2.3358    0.3003 H   0  0  0  0  0  0  0  0  0  0  0  0
   -3.5788   -2.4840   -1.1455 H   0  0  0  0  0  0  0  0  0  0  0  0
   -2.9842   -3.0615    0.4439 H   0  0  0  0  0  0  0  0  0  0  0  0
    4.6293   -1.6876    1.1822 H   0  0  0  0  0  0  0  0  0  0  0  0
  1 14  2  0  0  0  0
  2  6  1  0  0  0  0
  2  9  1  0  0  0  0
  2 10  1  0  0  0  0
  3 11  1  0  0  0  0
  3 14  1  0  0  0  0
  3 26  1  0  0  0  0
  4  9  2  0  0  0  0
  4 17  1  0  0  0  0
  5 10  1  0  0  0  0
  5 18  2  0  0  0  0
  6  7  1  0  0  0  0
  6  8  1  0  0  0  0
  6 21  1  0  0  0  0
  7  8  1  0  0  0  0
  7 22  1  0  0  0  0
  7 23  1  0  0  0  0
  8 24  1  0  0  0  0
  8 25  1  0  0  0  0
  9 11  1  0  0  0  0
 10 12  2  0  0  0  0
 11 13  2  0  0  0  0
 12 14  1  0  0  0  0
 12 15  1  0  0  0  0
 13 16  1  0  0  0  0
 13 19  1  0  0  0  0
 15 20  2  0  0  0  0
 15 27  1  0  0  0  0
 16 17  2  0  0  0  0
 16 28  1  0  0  0  0
 17 29  1  0  0  0  0
 18 20  1  0  0  0  0
 18 30  1  0  0  0  0
 19 31  1  0  0  0  0
 19 32  1  0  0  0  0
 19 33  1  0  0  0  0
 20 34  1  0  0  0  0
M  END
> <PUBCHEM_COMPOUND_CID>
4463

> <PUBCHEM_CONFORMER_RMSD>
0.6

> <PUBCHEM_CONFORMER_DIVERSEORDER>
2
1

> <PUBCHEM_MMFF94_PARTIAL_CHARGES>
31
1 -0.57
10 0.41
11 0.12
12 0.09
13 -0.14
14 0.54
15 -0.15
16 -0.15
17 0.16
18 0.16
19 0.14
2 -0.37
20 -0.15
21 0.1
22 0.1
23 0.1
24 0.1
25 0.1
26 0.37
27 0.15
28 0.15
29 0.15
3 -0.55
30 0.15
34 0.15
4 -0.62
5 -0.62
6 0.07
7 -0.2
8 -0.2
9 0.41

> <PUBCHEM_EFFECTIVE_ROTOR_COUNT>
2

> <PUBCHEM_PHARMACOPHORE_FEATURES>
7
1 1 acceptor
1 3 donor
1 5 acceptor
3 2 4 9 cation
6 4 9 11 13 16 17 rings
6 5 10 12 15 18 20 rings
7 2 3 9 10 11 12 14 rings

> <PUBCHEM_HEAVY_ATOM_COUNT>
20

> <PUBCHEM_ATOM_DEF_STEREO_COUNT>
0

> <PUBCHEM_ATOM_UDEF_STEREO_COUNT>
0

> <PUBCHEM_BOND_DEF_STEREO_COUNT>
0

> <PUBCHEM_BOND_UDEF_STEREO_COUNT>
0

> <PUBCHEM_ISOTOPIC_ATOM_COUNT>
0

> <PUBCHEM_COMPONENT_COUNT>
1

> <PUBCHEM_CACTVS_TAUTO_COUNT>
2

> <PUBCHEM_CONFORMER_ID>
0000116F00000002

> <PUBCHEM_MMFF94_ENERGY>
89.2483

> <PUBCHEM_FEATURE_SELFOVERLAP>
35.539

> <PUBCHEM_SHAPE_FINGERPRINT>
10165383 225 15962276407287770804
10967382 1 18263078975910534411
1100329 8 16320055691384878523
11132069 177 18263088858582706074
11680986 33 18189040057935688083
12251169 10 18335704982836449450
12382932 28 18262520415239415235
12553582 1 18342446080141709327
12644460 14 18056168355342894409
12696612 119 18411131429136283471
13140716 1 18335989765180655602
14022347 108 17839150224859910835
14178342 30 18335132129141981299
14181834 199 18129376008193725493
14223421 5 18049727613700867426
14790565 3 18126279741086479564
15279307 12 17762895463846309524
16945 1 18199182897671389139
17357779 13 18195825182518423917
19591789 44 16467541994901744315
19930374 2 18124045786217499304
20559304 39 18267019457859128561
21029758 27 18342737399494679254
21421861 104 18124570034911901763
21524375 3 17691671304054613085
22182313 1 17980193416350548333
23184049 59 18408326600648626890
2334 1 18408888429594614686
23388829 49 18261963920854065095
23419403 2 15512585608881425950
23463225 33 18410856555350103691
25147074 1 18190732052054676867
2748010 2 17905879628551848717
4409770 3 17697894904955616332
484985 159 16119990161886511042
6992083 37 18409738330549831889
7064713 232 18187087260485663776
7364860 26 18338506435480051573
81228 2 17838319036755299417
84936 31 16082497880446868142
90316 7 18128544949228107776
9925002 15 17391373813473552207

> <PUBCHEM_SHAPE_MULTIPOLES>
385.8
5.87
3.5
1.16
1.58
1.7
0.19
-2.29
-2.56
-0.59
1.8
-0.35
0.16
-0.68

> <PUBCHEM_SHAPE_SELFOVERLAP>
852.431

> <PUBCHEM_SHAPE_VOLUME>
204.8

> <PUBCHEM_COORDINATE_TYPE>
2
5
10

$$$$

