443716
  -OEChem-07051213033D

 39 44  0     0  0  0  0  0  0999 V2000
   -4.5679    1.5474    0.1511 O   0  0  0  0  0  0  0  0  0  0  0  0
   -5.9277   -0.4156    0.4016 O   0  0  0  0  0  0  0  0  0  0  0  0
    5.1413    1.6929    0.5489 O   0  0  0  0  0  0  0  0  0  0  0  0
    6.0412   -0.5072    0.1683 O   0  0  0  0  0  0  0  0  0  0  0  0
   -2.1934    2.6119   -0.2951 O   0  0  0  0  0  0  0  0  0  0  0  0
   -0.2272    1.3744   -0.3552 N   0  0  0  0  0  0  0  0  0  0  0  0
    0.4498    0.1050   -0.1900 C   0  0  0  0  0  0  0  0  0  0  0  0
   -0.3644   -1.0591   -0.1993 C   0  0  0  0  0  0  0  0  0  0  0  0
   -1.8349   -0.9530   -0.0698 C   0  0  0  0  0  0  0  0  0  0  0  0
    1.8904   -0.0259   -0.0723 C   0  0  0  0  0  0  0  0  0  0  0  0
   -2.4395    0.3117   -0.0495 C   0  0  0  0  0  0  0  0  0  0  0  0
    2.4679   -1.3280   -0.2116 C   0  0  0  0  0  0  0  0  0  0  0  0
   -1.6196    1.5239   -0.2335 C   0  0  0  0  0  0  0  0  0  0  0  0
   -3.8208    0.4064    0.1116 C   0  0  0  0  0  0  0  0  0  0  0  0
    0.2659   -2.3088   -0.3262 C   0  0  0  0  0  0  0  0  0  0  0  0
    1.6481   -2.4370   -0.3701 C   0  0  0  0  0  0  0  0  0  0  0  0
    2.8134    1.0163    0.2327 C   0  0  0  0  0  0  0  0  0  0  0  0
   -2.6828   -2.0848    0.0887 C   0  0  0  0  0  0  0  0  0  0  0  0
   -4.6081   -0.7102    0.2555 C   0  0  0  0  0  0  0  0  0  0  0  0
    3.8587   -1.5430   -0.1672 C   0  0  0  0  0  0  0  0  0  0  0  0
    4.1745    0.7728    0.2820 C   0  0  0  0  0  0  0  0  0  0  0  0
    4.6861   -0.4741    0.0725 C   0  0  0  0  0  0  0  0  0  0  0  0
    0.4864    2.5594   -0.8168 C   0  0  0  0  0  0  0  0  0  0  0  0
   -4.0684   -1.9718    0.2475 C   0  0  0  0  0  0  0  0  0  0  0  0
   -5.8952    1.0209    0.3331 C   0  0  0  0  0  0  0  0  0  0  0  0
    6.3263    0.8754    0.4630 C   0  0  0  0  0  0  0  0  0  0  0  0
   -0.3018   -3.2314   -0.4046 H   0  0  0  0  0  0  0  0  0  0  0  0
    2.0696   -3.4350   -0.4788 H   0  0  0  0  0  0  0  0  0  0  0  0
    2.4899    2.0187    0.4791 H   0  0  0  0  0  0  0  0  0  0  0  0
   -2.2823   -3.0946    0.1068 H   0  0  0  0  0  0  0  0  0  0  0  0
    4.2830   -2.5356   -0.2942 H   0  0  0  0  0  0  0  0  0  0  0  0
    0.8075    3.1464    0.0476 H   0  0  0  0  0  0  0  0  0  0  0  0
   -0.1792    3.2000   -1.4066 H   0  0  0  0  0  0  0  0  0  0  0  0
    1.3138    2.2970   -1.4806 H   0  0  0  0  0  0  0  0  0  0  0  0
   -4.6862   -2.8548    0.3664 H   0  0  0  0  0  0  0  0  0  0  0  0
   -6.5214    1.3483   -0.5048 H   0  0  0  0  0  0  0  0  0  0  0  0
   -6.3105    1.4276    1.2623 H   0  0  0  0  0  0  0  0  0  0  0  0
    6.8593    0.9281    1.4192 H   0  0  0  0  0  0  0  0  0  0  0  0
    6.9744    1.2768   -0.3246 H   0  0  0  0  0  0  0  0  0  0  0  0
  1 14  1  0  0  0  0
  1 25  1  0  0  0  0
  2 19  1  0  0  0  0
  2 25  1  0  0  0  0
  3 21  1  0  0  0  0
  3 26  1  0  0  0  0
  4 22  1  0  0  0  0
  4 26  1  0  0  0  0
  5 13  2  0  0  0  0
  6  7  1  0  0  0  0
  6 13  1  0  0  0  0
  6 23  1  0  0  0  0
  7  8  2  0  0  0  0
  7 10  1  0  0  0  0
  8  9  1  0  0  0  0
  8 15  1  0  0  0  0
  9 11  2  0  0  0  0
  9 18  1  0  0  0  0
 10 12  1  0  0  0  0
 10 17  2  0  0  0  0
 11 13  1  0  0  0  0
 11 14  1  0  0  0  0
 12 16  1  0  0  0  0
 12 20  2  0  0  0  0
 14 19  2  0  0  0  0
 15 16  2  0  0  0  0
 15 27  1  0  0  0  0
 16 28  1  0  0  0  0
 17 21  1  0  0  0  0
 17 29  1  0  0  0  0
 18 24  2  0  0  0  0
 18 30  1  0  0  0  0
 19 24  1  0  0  0  0
 20 22  1  0  0  0  0
 20 31  1  0  0  0  0
 21 22  2  0  0  0  0
 23 32  1  0  0  0  0
 23 33  1  0  0  0  0
 23 34  1  0  0  0  0
 24 35  1  0  0  0  0
 25 36  1  0  0  0  0
 25 37  1  0  0  0  0
 26 38  1  0  0  0  0
 26 39  1  0  0  0  0
M  END
> <PUBCHEM_COMPOUND_CID>
443716

> <PUBCHEM_CONFORMER_RMSD>
0.6

> <PUBCHEM_CONFORMER_DIVERSEORDER>
1
2

> <PUBCHEM_MMFF94_PARTIAL_CHARGES>
28
1 -0.36
11 0.09
13 0.54
14 0.08
15 -0.15
16 -0.15
17 -0.15
18 -0.15
19 0.08
2 -0.36
20 -0.15
21 0.08
22 0.08
23 0.3
24 -0.15
25 0.56
26 0.56
27 0.15
28 0.15
29 0.15
3 -0.36
30 0.15
31 0.15
35 0.15
4 -0.36
5 -0.57
6 -0.48
7 0.12

> <PUBCHEM_EFFECTIVE_ROTOR_COUNT>
1.2

> <PUBCHEM_PHARMACOPHORE_FEATURES>
11
1 1 acceptor
1 2 acceptor
1 3 acceptor
1 4 acceptor
1 5 acceptor
5 1 2 14 19 25 rings
5 3 4 21 22 26 rings
6 10 12 17 20 21 22 rings
6 6 7 8 9 11 13 rings
6 7 8 10 12 15 16 rings
6 9 11 14 18 19 24 rings

> <PUBCHEM_HEAVY_ATOM_COUNT>
26

> <PUBCHEM_ATOM_DEF_STEREO_COUNT>
0

> <PUBCHEM_ATOM_UDEF_STEREO_COUNT>
0

> <PUBCHEM_BOND_DEF_STEREO_COUNT>
0

> <PUBCHEM_BOND_UDEF_STEREO_COUNT>
0

> <PUBCHEM_ISOTOPIC_ATOM_COUNT>
0

> <PUBCHEM_COMPONENT_COUNT>
1

> <PUBCHEM_CACTVS_TAUTO_COUNT>
1

> <PUBCHEM_CONFORMER_ID>
0006C54400000001

> <PUBCHEM_MMFF94_ENERGY>
100.3518

> <PUBCHEM_FEATURE_SELFOVERLAP>
56.195

> <PUBCHEM_SHAPE_FINGERPRINT>
10 15 18272086076196171280
10411042 1 17689155608761317863
10675989 125 16616197689486527013
10906281 52 18199447948534832822
1100329 8 18267866086059835132
11578080 2 16700353033733259167
11595378 159 17560532797091236736
12107183 9 17692819598157957066
12838862 33 18340222851104845173
12925494 130 18190186865337977905
13140716 1 18267862779415195097
13402501 40 18409730659896509888
14341114 176 18410570708402614704
14790565 3 18267017267774246620
15196674 1 18410011035251069694
15927050 60 17615123287802932252
1601671 61 18410011026618651232
17980427 23 18130784508305852783
1813 80 17275382118448558740
19141452 34 18408322164285169591
19784866 170 18410856568372428307
20642791 178 18200301113892685277
21033648 29 17968951790118555194
21236236 1 18335986385226068143
21267235 1 18412255147094394134
21279426 13 18265331892167563271
21421861 104 17987245602105238002
22122407 14 16443336542816219611
22182313 1 18340206413505166847
23402539 116 18410580556462327518
23559900 14 18408328760943739593
23622692 118 18044664101258345567
23845131 108 17474951407585368097
335352 9 18412544306352945837
34797466 226 17168417190628921220
34934 24 18411422834425834447
350125 39 18410292489391331764
3545911 37 18409446998675995858
3633792 109 18337397140998203589
3680242 22 18272367615687153186
4073 2 18201996582756592410
4093350 32 17023176188783153583
4214541 1 18410011043830221001
474229 33 18409731750944972438
5104073 3 18340761654504306763
9709674 26 18263640834752605631

> <PUBCHEM_SHAPE_MULTIPOLES>
500.74
13.34
2.62
0.69
3.19
0.05
-0.02
2.12
2.98
-0.51
-0.35
0.08
0.06
0.48

> <PUBCHEM_SHAPE_SELFOVERLAP>
1167.658

> <PUBCHEM_SHAPE_VOLUME>
253.5

> <PUBCHEM_COORDINATE_TYPE>
2
5
10

$$$$

