11508
  -OEChem-06261205463D

 21 20  0     1  0  0  0  0  0999 V2000
   -2.8045   -0.5676   -0.0484 O   0  0  0  0  0  0  0  0  0  0  0  0
    0.7840    0.6059    0.4145 C   0  0  1  0  0  0  0  0  0  0  0  0
   -0.6297    0.0748    0.7174 C   0  0  0  0  0  0  0  0  0  0  0  0
    1.6305   -0.3151   -0.4838 C   0  0  0  0  0  0  0  0  0  0  0  0
    0.7307    2.0124   -0.1913 C   0  0  0  0  0  0  0  0  0  0  0  0
   -1.5375   -0.0982   -0.4951 C   0  0  0  0  0  0  0  0  0  0  0  0
    1.8265   -1.7123    0.0866 C   0  0  0  0  0  0  0  0  0  0  0  0
    1.3020    0.6928    1.3795 H   0  0  0  0  0  0  0  0  0  0  0  0
   -1.1186    0.7589    1.4247 H   0  0  0  0  0  0  0  0  0  0  0  0
   -0.5675   -0.8770    1.2592 H   0  0  0  0  0  0  0  0  0  0  0  0
    2.6204    0.1381   -0.6221 H   0  0  0  0  0  0  0  0  0  0  0  0
    1.1852   -0.3929   -1.4825 H   0  0  0  0  0  0  0  0  0  0  0  0
    1.7368    2.4412   -0.2532 H   0  0  0  0  0  0  0  0  0  0  0  0
    0.3129    2.0047   -1.2030 H   0  0  0  0  0  0  0  0  0  0  0  0
    0.1232    2.6819    0.4266 H   0  0  0  0  0  0  0  0  0  0  0  0
   -1.6946    0.8410   -1.0322 H   0  0  0  0  0  0  0  0  0  0  0  0
   -1.1357   -0.8374   -1.1929 H   0  0  0  0  0  0  0  0  0  0  0  0
    2.5269   -2.2767   -0.5375 H   0  0  0  0  0  0  0  0  0  0  0  0
    0.8865   -2.2709    0.1134 H   0  0  0  0  0  0  0  0  0  0  0  0
    2.2359   -1.6696    1.1007 H   0  0  0  0  0  0  0  0  0  0  0  0
   -3.1781    0.1104    0.5401 H   0  0  0  0  0  0  0  0  0  0  0  0
  1  6  1  0  0  0  0
  1 21  1  0  0  0  0
  2  3  1  0  0  0  0
  2  4  1  0  0  0  0
  2  5  1  0  0  0  0
  2  8  1  0  0  0  0
  3  6  1  0  0  0  0
  3  9  1  0  0  0  0
  3 10  1  0  0  0  0
  4  7  1  0  0  0  0
  4 11  1  0  0  0  0
  4 12  1  0  0  0  0
  5 13  1  0  0  0  0
  5 14  1  0  0  0  0
  5 15  1  0  0  0  0
  6 16  1  0  0  0  0
  6 17  1  0  0  0  0
  7 18  1  0  0  0  0
  7 19  1  0  0  0  0
  7 20  1  0  0  0  0
M  END
> <PUBCHEM_COMPOUND_CID>
11508

> <PUBCHEM_CONFORMER_RMSD>
0.4

> <PUBCHEM_CONFORMER_DIVERSEORDER>
1
40
27
41
14
10
25
39
22
16
35
23
2
32
11
19
36
7
26
24
21
34
3
30
8
28
6
9
33
12
29
31
18
5
38
37
13
4
15
20
17

> <PUBCHEM_MMFF94_PARTIAL_CHARGES>
3
1 -0.68
21 0.4
6 0.28

> <PUBCHEM_EFFECTIVE_ROTOR_COUNT>
3

> <PUBCHEM_PHARMACOPHORE_FEATURES>
4
1 1 acceptor
1 1 donor
1 5 hydrophobe
1 7 hydrophobe

> <PUBCHEM_HEAVY_ATOM_COUNT>
7

> <PUBCHEM_ATOM_DEF_STEREO_COUNT>
0

> <PUBCHEM_ATOM_UDEF_STEREO_COUNT>
1

> <PUBCHEM_BOND_DEF_STEREO_COUNT>
0

> <PUBCHEM_BOND_UDEF_STEREO_COUNT>
0

> <PUBCHEM_ISOTOPIC_ATOM_COUNT>
0

> <PUBCHEM_COMPONENT_COUNT>
1

> <PUBCHEM_CACTVS_TAUTO_COUNT>
1

> <PUBCHEM_CONFORMER_ID>
00002CF400000001

> <PUBCHEM_MMFF94_ENERGY>
4.6609

> <PUBCHEM_FEATURE_SELFOVERLAP>
20.297

> <PUBCHEM_SHAPE_FINGERPRINT>
18185500 45 18334855060474895790
21040471 1 17616817630509246360
23552333 60 17967525731916065843
23552423 10 18336546010827115183
23552449 1 17904770230035899328
23552449 11 18114191829838946058
29004967 10 18411421717317196970
5943 1 14091287283178783720

> <PUBCHEM_SHAPE_MULTIPOLES>
138.19
2.91
1.74
0.78
1.69
0.6
-0.03
-1.53
0.3
-0.91
0.07
0.01
0.02
-0.06

> <PUBCHEM_SHAPE_SELFOVERLAP>
239.81

> <PUBCHEM_SHAPE_VOLUME>
92.5

> <PUBCHEM_COORDINATE_TYPE>
2
5
10

$$$$

