442916
  -OEChem-07051213003D

 31 31  0     0  0  0  0  0  0999 V2000
   -1.3047   -2.2828   -0.1548 O   0  0  0  0  0  0  0  0  0  0  0  0
    4.4218    0.3439    0.5896 O   0  0  0  0  0  0  0  0  0  0  0  0
   -0.1659   -0.2118   -0.5513 C   0  0  0  0  0  0  0  0  0  0  0  0
   -1.4174    0.3985   -1.1312 C   0  0  0  0  0  0  0  0  0  0  0  0
    0.9853    0.5601   -0.4877 C   0  0  0  0  0  0  0  0  0  0  0  0
   -0.1766   -1.5213   -0.0942 C   0  0  0  0  0  0  0  0  0  0  0  0
    2.1512    0.0099    0.0450 C   0  0  0  0  0  0  0  0  0  0  0  0
   -2.2603    1.0752   -0.0872 C   0  0  0  0  0  0  0  0  0  0  0  0
   -3.5251    0.7833    0.2719 C   0  0  0  0  0  0  0  0  0  0  0  0
    0.9894   -2.0714    0.4383 C   0  0  0  0  0  0  0  0  0  0  0  0
    2.1533   -1.3057    0.5080 C   0  0  0  0  0  0  0  0  0  0  0  0
    3.3646    0.8081    0.1179 C   0  0  0  0  0  0  0  0  0  0  0  0
   -4.3148    1.5023    1.3285 C   0  0  0  0  0  0  0  0  0  0  0  0
   -4.2705   -0.3354   -0.4063 C   0  0  0  0  0  0  0  0  0  0  0  0
    3.3696    2.2472   -0.3864 C   0  0  0  0  0  0  0  0  0  0  0  0
   -1.1308    1.1644   -1.8657 H   0  0  0  0  0  0  0  0  0  0  0  0
   -1.9475   -0.3435   -1.7327 H   0  0  0  0  0  0  0  0  0  0  0  0
    0.9528    1.5816   -0.8538 H   0  0  0  0  0  0  0  0  0  0  0  0
   -1.7763    1.9052    0.4273 H   0  0  0  0  0  0  0  0  0  0  0  0
    1.0051   -3.0952    0.8027 H   0  0  0  0  0  0  0  0  0  0  0  0
    3.0490   -1.7566    0.9271 H   0  0  0  0  0  0  0  0  0  0  0  0
   -3.7386    2.3190    1.7756 H   0  0  0  0  0  0  0  0  0  0  0  0
   -5.2254    1.9315    0.8984 H   0  0  0  0  0  0  0  0  0  0  0  0
   -4.5964    0.8133    2.1313 H   0  0  0  0  0  0  0  0  0  0  0  0
   -3.6570   -1.0268   -0.9831 H   0  0  0  0  0  0  0  0  0  0  0  0
   -4.7795   -0.9480    0.3470 H   0  0  0  0  0  0  0  0  0  0  0  0
   -5.0343    0.0785   -1.0732 H   0  0  0  0  0  0  0  0  0  0  0  0
    2.6625    2.8516    0.1876 H   0  0  0  0  0  0  0  0  0  0  0  0
    3.1391    2.2746   -1.4545 H   0  0  0  0  0  0  0  0  0  0  0  0
    4.3687    2.6720   -0.2457 H   0  0  0  0  0  0  0  0  0  0  0  0
   -1.1137   -3.1632    0.2118 H   0  0  0  0  0  0  0  0  0  0  0  0
  1  6  1  0  0  0  0
  1 31  1  0  0  0  0
  2 12  2  0  0  0  0
  3  4  1  0  0  0  0
  3  5  1  0  0  0  0
  3  6  2  0  0  0  0
  4  8  1  0  0  0  0
  4 16  1  0  0  0  0
  4 17  1  0  0  0  0
  5  7  2  0  0  0  0
  5 18  1  0  0  0  0
  6 10  1  0  0  0  0
  7 11  1  0  0  0  0
  7 12  1  0  0  0  0
  8  9  2  0  0  0  0
  8 19  1  0  0  0  0
  9 13  1  0  0  0  0
  9 14  1  0  0  0  0
 10 11  2  0  0  0  0
 10 20  1  0  0  0  0
 11 21  1  0  0  0  0
 12 15  1  0  0  0  0
 13 22  1  0  0  0  0
 13 23  1  0  0  0  0
 13 24  1  0  0  0  0
 14 25  1  0  0  0  0
 14 26  1  0  0  0  0
 14 27  1  0  0  0  0
 15 28  1  0  0  0  0
 15 29  1  0  0  0  0
 15 30  1  0  0  0  0
M  END
> <PUBCHEM_COMPOUND_CID>
442916

> <PUBCHEM_CONFORMER_RMSD>
0.6

> <PUBCHEM_CONFORMER_DIVERSEORDER>
1
58
16
42
56
39
22
52
55
48
38
53
47
45
19
26
32
54
31
51
46
25
40
27
43
35
12
5
10
49
57
17
41
44
33
50
37
14
18
7
30
20
15
21
29
13
4
23
8
11
2
9
24
34
28
36
3
6

> <PUBCHEM_MMFF94_PARTIAL_CHARGES>
20
1 -0.53
10 -0.15
11 -0.15
12 0.42
13 0.14
14 0.14
15 0.06
18 0.15
19 0.15
2 -0.57
20 0.15
21 0.15
3 -0.14
31 0.45
4 0.28
5 -0.15
6 0.08
7 0.09
8 -0.29
9 -0.28

> <PUBCHEM_EFFECTIVE_ROTOR_COUNT>
3

> <PUBCHEM_PHARMACOPHORE_FEATURES>
4
1 1 donor
1 2 acceptor
3 9 13 14 hydrophobe
6 3 5 6 7 10 11 rings

> <PUBCHEM_HEAVY_ATOM_COUNT>
15

> <PUBCHEM_ATOM_DEF_STEREO_COUNT>
0

> <PUBCHEM_ATOM_UDEF_STEREO_COUNT>
0

> <PUBCHEM_BOND_DEF_STEREO_COUNT>
0

> <PUBCHEM_BOND_UDEF_STEREO_COUNT>
0

> <PUBCHEM_ISOTOPIC_ATOM_COUNT>
0

> <PUBCHEM_COMPONENT_COUNT>
1

> <PUBCHEM_CACTVS_TAUTO_COUNT>
9

> <PUBCHEM_CONFORMER_ID>
0006C22400000001

> <PUBCHEM_MMFF94_ENERGY>
33.9209

> <PUBCHEM_FEATURE_SELFOVERLAP>
20.297

> <PUBCHEM_SHAPE_FINGERPRINT>
10465860 228 18262794202150773737
10498660 4 15430877790745273937
10922049 32 18334290976713347126
10980938 120 18341614853640809686
11132069 177 18131069333604908439
11471102 22 18058160799092300257
122479 349 18335136462373637944
12251169 10 18201722851030376764
12346645 44 18335138713242365213
12390115 104 18123452909401899692
12644460 14 18130792312730979674
13140716 1 18270688554526926432
13380535 21 18412824677243765566
13380535 76 18412267216026530838
13583140 156 16486430839951669708
14787075 74 18190181196449501649
14897335 6 18411142419857523158
14943859 89 17022625273064136940
15295992 7 18041849406882267184
15309172 13 18343303677905330263
15775835 57 18260829323659488569
15848700 24 9007055738646166546
16945 1 18199205034196765318
1741750 31 18261112937345315834
18186145 218 18334856177050212021
201361 129 18262795306136781977
20279233 1 16916785219255480385
204376 136 18342173341170800229
20510252 161 18050568435153275730
20626108 58 12391215073029270041
20645477 70 18127425655371460623
21501502 16 18339653239256435494
21503847 285 17970898088718597153
21524375 3 18408327665853289726
22485316 2 11095883756850439829
22854114 111 18340488957981546024
22854114 59 18343021112033527453
23402539 116 18040443191233824820
23559900 14 18334859373851234056
2748010 2 17548723101975075126
276578 36 18410289241894525810
458136 41 18341037614347285206
474 4 18410291415106162929
4990 188 17895184532813894006
6333272 397 18412262804999944869
633830 44 18187358882976098381
7364860 26 18264208178810998462
81228 2 17696486082857981586
9882013 296 18131071541218163473

> <PUBCHEM_SHAPE_MULTIPOLES>
296.95
7.92
2.16
0.93
2.97
0.53
0.05
-4.3
1.87
-0.74
0.17
0.54
-0.18
-0.9

> <PUBCHEM_SHAPE_SELFOVERLAP>
609.468

> <PUBCHEM_SHAPE_VOLUME>
172.4

> <PUBCHEM_COORDINATE_TYPE>
2
5
10

$$$$

