13977
  -OEChem-06241222413D

 39 41  0     0  0  0  0  0  0999 V2000
    1.2693    2.1833   -0.9243 S   0  0  0  0  0  0  0  0  0  0  0  0
    1.5006   -3.0627    0.3736 O   0  0  0  0  0  0  0  0  0  0  0  0
    0.7001    1.8409    1.6211 O   0  0  0  0  0  0  0  0  0  0  0  0
    1.1064   -0.8273   -0.2203 N   0  0  0  0  0  0  0  0  0  0  0  0
    2.4028   -0.2580   -0.1807 C   0  0  0  0  0  0  0  0  0  0  0  0
    2.6063    1.0807   -0.4754 C   0  0  0  0  0  0  0  0  0  0  0  0
    3.4591   -1.0875    0.1639 C   0  0  0  0  0  0  0  0  0  0  0  0
   -0.6907   -2.4450   -0.1038 C   0  0  0  0  0  0  0  0  0  0  0  0
    0.7251   -2.1496    0.0471 C   0  0  0  0  0  0  0  0  0  0  0  0
    3.8984    1.6038   -0.4242 C   0  0  0  0  0  0  0  0  0  0  0  0
    4.7512   -0.5642    0.2150 C   0  0  0  0  0  0  0  0  0  0  0  0
    4.9709    0.7814   -0.0792 C   0  0  0  0  0  0  0  0  0  0  0  0
   -1.2103    2.2819    0.3194 C   0  0  0  0  0  0  0  0  0  0  0  0
   -1.2699   -3.4784    0.6328 C   0  0  0  0  0  0  0  0  0  0  0  0
   -1.4699   -1.6948   -0.9845 C   0  0  0  0  0  0  0  0  0  0  0  0
    0.2495    2.0937    0.5102 C   0  0  0  0  0  0  0  0  0  0  0  0
   -2.0842    1.6032    1.1442 C   0  0  0  0  0  0  0  0  0  0  0  0
   -1.6494    3.1303   -0.6768 C   0  0  0  0  0  0  0  0  0  0  0  0
   -2.6279   -3.7618    0.4885 C   0  0  0  0  0  0  0  0  0  0  0  0
   -2.8281   -1.9782   -1.1288 C   0  0  0  0  0  0  0  0  0  0  0  0
   -3.4071   -3.0117   -0.3922 C   0  0  0  0  0  0  0  0  0  0  0  0
   -3.4562    1.7801    0.9650 C   0  0  0  0  0  0  0  0  0  0  0  0
   -3.0213    3.3073   -0.8558 C   0  0  0  0  0  0  0  0  0  0  0  0
   -3.9247    2.6322   -0.0349 C   0  0  0  0  0  0  0  0  0  0  0  0
    0.3806   -0.1624   -0.4650 H   0  0  0  0  0  0  0  0  0  0  0  0
    3.3881   -2.1356    0.4068 H   0  0  0  0  0  0  0  0  0  0  0  0
    4.0925    2.6499   -0.6493 H   0  0  0  0  0  0  0  0  0  0  0  0
    5.5875   -1.2032    0.4836 H   0  0  0  0  0  0  0  0  0  0  0  0
    5.9769    1.1885   -0.0393 H   0  0  0  0  0  0  0  0  0  0  0  0
   -0.6820   -4.0715    1.3285 H   0  0  0  0  0  0  0  0  0  0  0  0
   -1.0587   -0.9066   -1.6081 H   0  0  0  0  0  0  0  0  0  0  0  0
   -1.7336    0.9314    1.9221 H   0  0  0  0  0  0  0  0  0  0  0  0
   -0.9819    3.6976   -1.3167 H   0  0  0  0  0  0  0  0  0  0  0  0
   -3.0792   -4.5658    1.0626 H   0  0  0  0  0  0  0  0  0  0  0  0
   -3.4337   -1.3993   -1.8201 H   0  0  0  0  0  0  0  0  0  0  0  0
   -4.4643   -3.2330   -0.5056 H   0  0  0  0  0  0  0  0  0  0  0  0
   -4.1597    1.2528    1.6027 H   0  0  0  0  0  0  0  0  0  0  0  0
   -3.3869    3.9759   -1.6299 H   0  0  0  0  0  0  0  0  0  0  0  0
   -4.9929    2.7707   -0.1738 H   0  0  0  0  0  0  0  0  0  0  0  0
  1  6  1  0  0  0  0
  1 16  1  0  0  0  0
  2  9  2  0  0  0  0
  3 16  2  0  0  0  0
  4  5  1  0  0  0  0
  4  9  1  0  0  0  0
  4 25  1  0  0  0  0
  5  6  1  0  0  0  0
  5  7  2  0  0  0  0
  6 10  2  0  0  0  0
  7 11  1  0  0  0  0
  7 26  1  0  0  0  0
  8  9  1  0  0  0  0
  8 14  2  0  0  0  0
  8 15  1  0  0  0  0
 10 12  1  0  0  0  0
 10 27  1  0  0  0  0
 11 12  2  0  0  0  0
 11 28  1  0  0  0  0
 12 29  1  0  0  0  0
 13 16  1  0  0  0  0
 13 17  2  0  0  0  0
 13 18  1  0  0  0  0
 14 19  1  0  0  0  0
 14 30  1  0  0  0  0
 15 20  2  0  0  0  0
 15 31  1  0  0  0  0
 17 22  1  0  0  0  0
 17 32  1  0  0  0  0
 18 23  2  0  0  0  0
 18 33  1  0  0  0  0
 19 21  2  0  0  0  0
 19 34  1  0  0  0  0
 20 21  1  0  0  0  0
 20 35  1  0  0  0  0
 21 36  1  0  0  0  0
 22 24  2  0  0  0  0
 22 37  1  0  0  0  0
 23 24  1  0  0  0  0
 23 38  1  0  0  0  0
 24 39  1  0  0  0  0
M  END
> <PUBCHEM_COMPOUND_CID>
13977

> <PUBCHEM_CONFORMER_RMSD>
0.8

> <PUBCHEM_CONFORMER_DIVERSEORDER>
1
74
48
88
91
89
87
54
76
78
95
71
32
52
86
21
36
94
49
19
57
43
84
77
67
3
80
35
90
62
41
44
40
24
56
34
31
13
85
46
81
50
8
66
61
45
22
69
92
42
68
58
70
23
25
15
28
6
72
65
26
20
33
64
39
79
16
12
4
10
14
73
30
60
38
5
11
55
2
27
51
59
53
63
37
9
93
17
75
7
82
83
47
29
18

> <PUBCHEM_MMFF94_PARTIAL_CHARGES>
39
1 -0.24
10 -0.15
11 -0.15
12 -0.15
13 0.09
14 -0.15
15 -0.15
16 0.62
17 -0.15
18 -0.15
19 -0.15
2 -0.57
20 -0.15
21 -0.15
22 -0.15
23 -0.15
24 -0.15
25 0.37
26 0.15
27 0.15
28 0.15
29 0.15
3 -0.57
30 0.15
31 0.15
32 0.15
33 0.15
34 0.15
35 0.15
36 0.15
37 0.15
38 0.15
39 0.15
4 -0.55
5 0.12
6 0.1
7 -0.15
8 0.09
9 0.54

> <PUBCHEM_EFFECTIVE_ROTOR_COUNT>
6

> <PUBCHEM_PHARMACOPHORE_FEATURES>
5
1 2 acceptor
1 4 donor
6 13 17 18 22 23 24 rings
6 5 6 7 10 11 12 rings
6 8 14 15 19 20 21 rings

> <PUBCHEM_HEAVY_ATOM_COUNT>
24

> <PUBCHEM_ATOM_DEF_STEREO_COUNT>
0

> <PUBCHEM_ATOM_UDEF_STEREO_COUNT>
0

> <PUBCHEM_BOND_DEF_STEREO_COUNT>
0

> <PUBCHEM_BOND_UDEF_STEREO_COUNT>
0

> <PUBCHEM_ISOTOPIC_ATOM_COUNT>
0

> <PUBCHEM_COMPONENT_COUNT>
1

> <PUBCHEM_CACTVS_TAUTO_COUNT>
2

> <PUBCHEM_CONFORMER_ID>
0000369900000001

> <PUBCHEM_MMFF94_ENERGY>
79.8273

> <PUBCHEM_FEATURE_SELFOVERLAP>
25.371

> <PUBCHEM_SHAPE_FINGERPRINT>
104564 63 18263640680186056070
10688039 33 18126281943997799307
108634 29 18334290989508526574
10871710 139 18267293253391921103
1100329 8 18122913298232251522
11370993 70 18196654214069625044
12156800 1 18120126993616419659
12293681 4 18055630612452592554
12422481 6 18117810297353397731
12788726 201 18194391196312585108
13052359 8 18411140268300226512
13140716 1 18263919939118040585
1361 2 18196941195890943093
138480 1 16825871279520426655
14117953 113 17330002802542441773
14363568 33 16973351475862654065
14866123 147 18268436922286167618
14931854 50 18336564784493092501
15210252 30 17408806518966438949
17093844 170 17904210230387770705
17138139 8 17826553021699177485
17357779 13 18044100055169780887
19591789 44 17329425563608067878
19930381 70 17476080602026694397
20028762 73 17829060044979774127
21041028 32 18122622751888784527
21236236 1 18335701612120487188
21641784 216 18054774097426873492
23419403 2 17096379323550117640
23559900 14 17331971521252480207
25147074 1 18131069313042708020
3014063 31 18192999218728564703
3052486 1 18339095808245974960
338550 245 18341886381758482933
38695281 34 18123188167443850377
469060 322 18268977705633215243
5171179 24 17678755431384210776
6438718 38 17967811635056962255
653340 110 18264497195776537912
7164475 11 18338794508074713582

> <PUBCHEM_SHAPE_MULTIPOLES>
481.04
7.81
5.61
1.05
6.64
1.77
-0.07
-1.02
0.27
-6.7
0.02
-0.48
-0.32
-0.52

> <PUBCHEM_SHAPE_SELFOVERLAP>
1036.586

> <PUBCHEM_SHAPE_VOLUME>
263.3

> <PUBCHEM_COORDINATE_TYPE>
2
5
10

$$$$

