442700
  -OEChem-07051212593D

 30 31  0     0  0  0  0  0  0999 V2000
    4.0276    2.3967   -0.1649 O   0  0  0  0  0  0  0  0  0  0  0  0
    4.0573   -2.3766   -0.1760 O   0  0  0  0  0  0  0  0  0  0  0  0
   -0.1368   -0.0179    0.6769 C   0  0  0  0  0  0  0  0  0  0  0  0
   -1.0133   -0.0205   -0.5912 C   0  0  0  0  0  0  0  0  0  0  0  0
    1.3423   -0.0080    0.3770 C   0  0  0  0  0  0  0  0  0  0  0  0
   -2.4794   -0.0089   -0.3166 C   0  0  0  0  0  0  0  0  0  0  0  0
    2.0157   -1.2115    0.2391 C   0  0  0  0  0  0  0  0  0  0  0  0
    2.0008    1.2044    0.2449 C   0  0  0  0  0  0  0  0  0  0  0  0
   -3.1731   -1.2113   -0.1807 C   0  0  0  0  0  0  0  0  0  0  0  0
   -3.1568    1.2045   -0.1962 C   0  0  0  0  0  0  0  0  0  0  0  0
    3.3678    1.2135   -0.0324 C   0  0  0  0  0  0  0  0  0  0  0  0
    3.3828   -1.2024   -0.0381 C   0  0  0  0  0  0  0  0  0  0  0  0
    4.0587    0.0102   -0.1738 C   0  0  0  0  0  0  0  0  0  0  0  0
   -4.5442   -1.2005    0.0757 C   0  0  0  0  0  0  0  0  0  0  0  0
   -4.5279    1.2154    0.0602 C   0  0  0  0  0  0  0  0  0  0  0  0
   -5.2215    0.0128    0.1961 C   0  0  0  0  0  0  0  0  0  0  0  0
   -0.3769   -0.8919    1.2975 H   0  0  0  0  0  0  0  0  0  0  0  0
   -0.3861    0.8516    1.3003 H   0  0  0  0  0  0  0  0  0  0  0  0
   -0.7652   -0.8957   -1.2072 H   0  0  0  0  0  0  0  0  0  0  0  0
   -0.7550    0.8441   -1.2181 H   0  0  0  0  0  0  0  0  0  0  0  0
    1.4854   -2.1544    0.3434 H   0  0  0  0  0  0  0  0  0  0  0  0
    1.4650    2.1437    0.3524 H   0  0  0  0  0  0  0  0  0  0  0  0
   -2.6563   -2.1632   -0.2702 H   0  0  0  0  0  0  0  0  0  0  0  0
   -2.6274    2.1481   -0.2980 H   0  0  0  0  0  0  0  0  0  0  0  0
    5.1243    0.0101   -0.3899 H   0  0  0  0  0  0  0  0  0  0  0  0
   -5.0843   -2.1368    0.1822 H   0  0  0  0  0  0  0  0  0  0  0  0
   -5.0553    2.1601    0.1547 H   0  0  0  0  0  0  0  0  0  0  0  0
   -6.2890    0.0213    0.3960 H   0  0  0  0  0  0  0  0  0  0  0  0
    4.9641    2.2159   -0.3551 H   0  0  0  0  0  0  0  0  0  0  0  0
    3.4355   -3.1140   -0.0507 H   0  0  0  0  0  0  0  0  0  0  0  0
  1 11  1  0  0  0  0
  1 29  1  0  0  0  0
  2 12  1  0  0  0  0
  2 30  1  0  0  0  0
  3  4  1  0  0  0  0
  3  5  1  0  0  0  0
  3 17  1  0  0  0  0
  3 18  1  0  0  0  0
  4  6  1  0  0  0  0
  4 19  1  0  0  0  0
  4 20  1  0  0  0  0
  5  7  2  0  0  0  0
  5  8  1  0  0  0  0
  6  9  2  0  0  0  0
  6 10  1  0  0  0  0
  7 12  1  0  0  0  0
  7 21  1  0  0  0  0
  8 11  2  0  0  0  0
  8 22  1  0  0  0  0
  9 14  1  0  0  0  0
  9 23  1  0  0  0  0
 10 15  2  0  0  0  0
 10 24  1  0  0  0  0
 11 13  1  0  0  0  0
 12 13  2  0  0  0  0
 13 25  1  0  0  0  0
 14 16  2  0  0  0  0
 14 26  1  0  0  0  0
 15 16  1  0  0  0  0
 15 27  1  0  0  0  0
 16 28  1  0  0  0  0
M  END
> <PUBCHEM_COMPOUND_CID>
442700

> <PUBCHEM_CONFORMER_RMSD>
0.6

> <PUBCHEM_CONFORMER_DIVERSEORDER>
1
3
5
4
2
6

> <PUBCHEM_MMFF94_PARTIAL_CHARGES>
26
1 -0.53
10 -0.15
11 0.08
12 0.08
13 -0.15
14 -0.15
15 -0.15
16 -0.15
2 -0.53
21 0.15
22 0.15
23 0.15
24 0.15
25 0.15
26 0.15
27 0.15
28 0.15
29 0.45
3 0.14
30 0.45
4 0.14
5 -0.14
6 -0.14
7 -0.15
8 -0.15
9 -0.15

> <PUBCHEM_EFFECTIVE_ROTOR_COUNT>
3

> <PUBCHEM_PHARMACOPHORE_FEATURES>
4
1 1 donor
1 2 donor
6 5 7 8 11 12 13 rings
6 6 9 10 14 15 16 rings

> <PUBCHEM_HEAVY_ATOM_COUNT>
16

> <PUBCHEM_ATOM_DEF_STEREO_COUNT>
0

> <PUBCHEM_ATOM_UDEF_STEREO_COUNT>
0

> <PUBCHEM_BOND_DEF_STEREO_COUNT>
0

> <PUBCHEM_BOND_UDEF_STEREO_COUNT>
0

> <PUBCHEM_ISOTOPIC_ATOM_COUNT>
0

> <PUBCHEM_COMPONENT_COUNT>
1

> <PUBCHEM_CACTVS_TAUTO_COUNT>
10

> <PUBCHEM_CONFORMER_ID>
0006C14C00000001

> <PUBCHEM_MMFF94_ENERGY>
39.7368

> <PUBCHEM_FEATURE_SELFOVERLAP>
20.297

> <PUBCHEM_SHAPE_FINGERPRINT>
10014705 185 18202290208422324685
10616163 171 18263082124158973127
10912923 1 17967531260003244771
11287383 113 18343018865622999211
11405975 8 18411419552806699803
12107183 9 17832139798802943025
12616999 72 18412260606514603628
12730499 353 18341884144227928954
13081056 2 18343302578367608069
13167823 11 18409731768204144727
13675066 3 17822583788321338875
13760787 19 18187365385229484735
13955234 65 18408888417337317914
14341114 176 18411973659770689449
15196674 1 18410856564393686273
15239154 128 18410855464755834733
15242433 33 18335420153833061207
15536298 74 18411982455262337901
17834072 33 18408887313203648775
17844677 252 18411129264683977233
1813 80 16917066659577255709
18186145 218 17917717923791878867
19422 9 18335138704478389827
200 152 18186803590870146867
20281475 54 18260277325862298047
20645477 70 18335700572221787726
21065198 57 18411419535716540023
21267235 1 18409440410159389922
21652331 79 18412265021588405933
221490 88 18412538799857043810
22485316 2 18335140873531930247
23402655 69 18407759222736936508
23557571 272 17418099831551177525
23559900 14 18336269032602276146
239999 70 18408600383856394726
245318 6 16697223505666154844
3545911 37 18411698764209239413
42 15 18411136956917397111
4214541 1 18410575123803250153
449060 50 18343022155747536277
474 4 17774157886214972628
4990 188 18272651276770646594
5104073 3 18411419514252162985
522135 26 18408604773043361078
5281201 14 18342738541687130412
633830 44 18272376381868534035
77779 3 18410855464787086985
8272917 22 18261669358980290782
90127 26 18131064965808025217
9709674 26 18341890753898235035

> <PUBCHEM_SHAPE_MULTIPOLES>
317.53
11.48
1.89
0.69
5.11
0.02
-0.01
0.01
0.25
-1.84
0.08
0.06
0
0.01

> <PUBCHEM_SHAPE_SELFOVERLAP>
677.845

> <PUBCHEM_SHAPE_VOLUME>
176.1

> <PUBCHEM_COORDINATE_TYPE>
2
5
10

$$$$

