5055
  -OEChem-07051213023D

 19 19  0     0  0  0  0  0  0999 V2000
    1.4865    0.0467    0.8501 O   0  0  0  0  0  0  0  0  0  0  0  0
   -2.8388   -1.7436   -0.0849 O   0  0  0  0  0  0  0  0  0  0  0  0
    2.0526   -0.2399   -1.4031 O   0  0  0  0  0  0  0  0  0  0  0  0
    0.1906    0.2294    0.4769 C   0  0  0  0  0  0  0  0  0  0  0  0
   -0.6704   -0.8644    0.3862 C   0  0  0  0  0  0  0  0  0  0  0  0
   -0.2769    1.5109    0.1852 C   0  0  0  0  0  0  0  0  0  0  0  0
   -1.9986   -0.6766    0.0037 C   0  0  0  0  0  0  0  0  0  0  0  0
   -1.6051    1.6987   -0.1972 C   0  0  0  0  0  0  0  0  0  0  0  0
   -2.4659    0.6050   -0.2879 C   0  0  0  0  0  0  0  0  0  0  0  0
    2.3644   -0.1893   -0.2208 C   0  0  0  0  0  0  0  0  0  0  0  0
    3.7615   -0.3769    0.2918 C   0  0  0  0  0  0  0  0  0  0  0  0
   -0.3004   -1.8608    0.6155 H   0  0  0  0  0  0  0  0  0  0  0  0
    0.3882    2.3674    0.2544 H   0  0  0  0  0  0  0  0  0  0  0  0
   -1.9689    2.6965   -0.4242 H   0  0  0  0  0  0  0  0  0  0  0  0
   -3.4995    0.7576   -0.5864 H   0  0  0  0  0  0  0  0  0  0  0  0
    4.0864    0.5253    0.8156 H   0  0  0  0  0  0  0  0  0  0  0  0
    4.4363   -0.5543   -0.5504 H   0  0  0  0  0  0  0  0  0  0  0  0
    3.7972   -1.2430    0.9570 H   0  0  0  0  0  0  0  0  0  0  0  0
   -2.3497   -2.5505    0.1511 H   0  0  0  0  0  0  0  0  0  0  0  0
  1  4  1  0  0  0  0
  1 10  1  0  0  0  0
  2  7  1  0  0  0  0
  2 19  1  0  0  0  0
  3 10  2  0  0  0  0
  4  5  1  0  0  0  0
  4  6  2  0  0  0  0
  5  7  2  0  0  0  0
  5 12  1  0  0  0  0
  6  8  1  0  0  0  0
  6 13  1  0  0  0  0
  7  9  1  0  0  0  0
  8  9  2  0  0  0  0
  8 14  1  0  0  0  0
  9 15  1  0  0  0  0
 10 11  1  0  0  0  0
 11 16  1  0  0  0  0
 11 17  1  0  0  0  0
 11 18  1  0  0  0  0
M  END
> <PUBCHEM_COMPOUND_CID>
5055

> <PUBCHEM_CONFORMER_RMSD>
0.4

> <PUBCHEM_CONFORMER_DIVERSEORDER>
2
25
8
29
15
5
23
12
28
9
11
18
32
4
24
30
26
27
7
13
31
6
14
10
16
20
17
1
21
19
3
22

> <PUBCHEM_MMFF94_PARTIAL_CHARGES>
16
1 -0.23
10 0.66
11 0.06
12 0.15
13 0.15
14 0.15
15 0.15
19 0.45
2 -0.53
3 -0.57
4 0.08
5 -0.15
6 -0.15
7 0.08
8 -0.15
9 -0.15

> <PUBCHEM_EFFECTIVE_ROTOR_COUNT>
2

> <PUBCHEM_PHARMACOPHORE_FEATURES>
3
1 2 donor
1 3 acceptor
6 4 5 6 7 8 9 rings

> <PUBCHEM_HEAVY_ATOM_COUNT>
11

> <PUBCHEM_ATOM_DEF_STEREO_COUNT>
0

> <PUBCHEM_ATOM_UDEF_STEREO_COUNT>
0

> <PUBCHEM_BOND_DEF_STEREO_COUNT>
0

> <PUBCHEM_BOND_UDEF_STEREO_COUNT>
0

> <PUBCHEM_ISOTOPIC_ATOM_COUNT>
0

> <PUBCHEM_COMPONENT_COUNT>
1

> <PUBCHEM_CACTVS_TAUTO_COUNT>
3

> <PUBCHEM_CONFORMER_ID>
000013BF00000002

> <PUBCHEM_MMFF94_ENERGY>
29.4649

> <PUBCHEM_FEATURE_SELFOVERLAP>
15.223

> <PUBCHEM_SHAPE_FINGERPRINT>
12716758 59 18264485276835725966
12897270 3 18410292531828938092
12932764 1 18271519892459514440
13024252 1 17132108069995802697
14128692 85 18341891831881914909
15219456 202 18041573442237944160
15775835 57 17846215630560723668
16945 1 18338801216492019289
20201158 50 17967535713536151606
20653085 51 15123508094817675247
20871998 184 18259985963738886375
20871998 22 18122346774886729803
21040471 1 18123762112486740465
21061003 4 16950000327063579928
23402539 116 18338249235605257020
23552423 10 18201440225002573689
23559900 14 18263371455342485426
2748010 2 18196105352141411665
29004967 10 16877663478420484512
3248919 1 17676204714668094504
369184 2 18410012173512166872
6333449 129 18335144227690417849

> <PUBCHEM_SHAPE_MULTIPOLES>
208.77
4.86
1.49
0.85
3.44
0.13
-0.14
-1.17
-0.38
-1.37
0
0.38
-0.01
0.07

> <PUBCHEM_SHAPE_SELFOVERLAP>
432.883

> <PUBCHEM_SHAPE_VOLUME>
118

> <PUBCHEM_COORDINATE_TYPE>
2
5
10

$$$$

