13944
  -OEChem-06241222412D

 42 43  0     1  0  0  0  0  0999 V2000
    4.5981   -4.0950    0.0000 O   0  0  0  0  0  0  0  0  0  0  0  0
    2.8660   -0.0950    0.0000 O   0  0  0  0  0  0  0  0  0  0  0  0
    6.3301   -0.0950    0.0000 O   0  0  0  0  0  0  0  0  0  0  0  0
    4.5981    2.9050    0.0000 O   0  0  0  0  0  0  0  0  0  0  0  0
    4.5981   -0.0950    0.0000 N   0  0  0  0  0  0  0  0  0  0  0  0
    5.4641    1.4050    0.0000 N   0  0  0  0  0  0  0  0  0  0  0  0
    4.5981   -1.0950    0.0000 C   0  0  0  0  0  0  0  0  0  0  0  0
    3.7320   -1.5950    0.0000 C   0  0  0  0  0  0  0  0  0  0  0  0
    5.4641   -1.5950    0.0000 C   0  0  0  0  0  0  0  0  0  0  0  0
    3.7320   -2.5950    0.0000 C   0  0  0  0  0  0  0  0  0  0  0  0
    5.4641   -2.5950    0.0000 C   0  0  0  0  0  0  0  0  0  0  0  0
    4.5981   -3.0950    0.0000 C   0  0  0  0  0  0  0  0  0  0  0  0
    3.7320    1.4050    0.0000 C   0  0  3  0  0  0  0  0  0  0  0  0
    3.7320    0.4050    0.0000 C   0  0  0  0  0  0  0  0  0  0  0  0
    2.8660    1.9050    0.0000 C   0  0  0  0  0  0  0  0  0  0  0  0
    5.4641    0.4050    0.0000 C   0  0  0  0  0  0  0  0  0  0  0  0
    4.5981    1.9050    0.0000 C   0  0  0  0  0  0  0  0  0  0  0  0
    2.8660    2.9050    0.0000 C   0  0  0  0  0  0  0  0  0  0  0  0
    2.0000    3.4050    0.0000 C   0  0  0  0  0  0  0  0  0  0  0  0
    2.0000    4.4050    0.0000 C   0  0  0  0  0  0  0  0  0  0  0  0
    5.1350   -0.7850    0.0000 H   0  0  0  0  0  0  0  0  0  0  0  0
    3.5200   -1.0124    0.0000 H   0  0  0  0  0  0  0  0  0  0  0  0
    3.1215   -1.7027    0.0000 H   0  0  0  0  0  0  0  0  0  0  0  0
    6.0747   -1.7027    0.0000 H   0  0  0  0  0  0  0  0  0  0  0  0
    5.6762   -1.0124    0.0000 H   0  0  0  0  0  0  0  0  0  0  0  0
    3.1215   -2.4873    0.0000 H   0  0  0  0  0  0  0  0  0  0  0  0
    3.5200   -3.1776    0.0000 H   0  0  0  0  0  0  0  0  0  0  0  0
    5.6762   -3.1776    0.0000 H   0  0  0  0  0  0  0  0  0  0  0  0
    6.0747   -2.4873    0.0000 H   0  0  0  0  0  0  0  0  0  0  0  0
    5.1350   -3.4050    0.0000 H   0  0  0  0  0  0  0  0  0  0  0  0
    3.7320    2.0250    0.0000 H   0  0  0  0  0  0  0  0  0  0  0  0
    2.2554    2.0127    0.0000 H   0  0  0  0  0  0  0  0  0  0  0  0
    2.6540    1.3224    0.0000 H   0  0  0  0  0  0  0  0  0  0  0  0
    3.4766    2.7973    0.0000 H   0  0  0  0  0  0  0  0  0  0  0  0
    3.0781    3.4876    0.0000 H   0  0  0  0  0  0  0  0  0  0  0  0
    6.0010    1.7150    0.0000 H   0  0  0  0  0  0  0  0  0  0  0  0
    5.1350   -4.4050    0.0000 H   0  0  0  0  0  0  0  0  0  0  0  0
    1.3894    3.5127    0.0000 H   0  0  0  0  0  0  0  0  0  0  0  0
    1.7880    2.8224    0.0000 H   0  0  0  0  0  0  0  0  0  0  0  0
    2.6200    4.4050    0.0000 H   0  0  0  0  0  0  0  0  0  0  0  0
    2.0000    5.0250    0.0000 H   0  0  0  0  0  0  0  0  0  0  0  0
    1.3800    4.4050    0.0000 H   0  0  0  0  0  0  0  0  0  0  0  0
  1 12  1  0  0  0  0
  1 37  1  0  0  0  0
  2 14  2  0  0  0  0
  3 16  2  0  0  0  0
  4 17  2  0  0  0  0
  5  7  1  0  0  0  0
  5 14  1  0  0  0  0
  5 16  1  0  0  0  0
  6 16  1  0  0  0  0
  6 17  1  0  0  0  0
  6 36  1  0  0  0  0
  7  8  1  0  0  0  0
  7  9  1  0  0  0  0
  7 21  1  0  0  0  0
  8 10  1  0  0  0  0
  8 22  1  0  0  0  0
  8 23  1  0  0  0  0
  9 11  1  0  0  0  0
  9 24  1  0  0  0  0
  9 25  1  0  0  0  0
 10 12  1  0  0  0  0
 10 26  1  0  0  0  0
 10 27  1  0  0  0  0
 11 12  1  0  0  0  0
 11 28  1  0  0  0  0
 11 29  1  0  0  0  0
 12 30  1  0  0  0  0
 13 14  1  0  0  0  0
 13 15  1  0  0  0  0
 13 17  1  0  0  0  0
 13 31  1  0  0  0  0
 15 18  1  0  0  0  0
 15 32  1  0  0  0  0
 15 33  1  0  0  0  0
 18 19  1  0  0  0  0
 18 34  1  0  0  0  0
 18 35  1  0  0  0  0
 19 20  1  0  0  0  0
 19 38  1  0  0  0  0
 19 39  1  0  0  0  0
 20 40  1  0  0  0  0
 20 41  1  0  0  0  0
 20 42  1  0  0  0  0
M  END
> <PUBCHEM_COMPOUND_CID>
13944

> <PUBCHEM_COMPOUND_CANONICALIZED>
1

> <PUBCHEM_CACTVS_COMPLEXITY>
402

> <PUBCHEM_CACTVS_HBOND_ACCEPTOR>
4

> <PUBCHEM_CACTVS_HBOND_DONOR>
2

> <PUBCHEM_CACTVS_ROTATABLE_BOND>
4

> <PUBCHEM_CACTVS_SUBSKEYS>
AAADceBzOAAAAAAAAAAAAAAAAAAAAAAAAAA8QAAAAAAAAAAAAAAAHgAQCAAADTzhgAYDAAPAAgAIAAEQEAAAAAAAAAAAAAEIAACAEBoIwAAEQAAMFyKAAAG4SAAMAAAAAAAAAAAAgAAAAAAAAAAAAAAAAA==

> <PUBCHEM_IUPAC_OPENEYE_NAME>
5-butyl-1-(4-hydroxycyclohexyl)hexahydropyrimidine-2,4,6-trione

> <PUBCHEM_IUPAC_CAS_NAME>
5-butyl-1-(4-hydroxycyclohexyl)-1,3-diazinane-2,4,6-trione

> <PUBCHEM_IUPAC_NAME>
5-butyl-1-(4-hydroxycyclohexyl)-1,3-diazinane-2,4,6-trione

> <PUBCHEM_IUPAC_SYSTEMATIC_NAME>
5-butyl-1-(4-oxidanylcyclohexyl)-1,3-diazinane-2,4,6-trione

> <PUBCHEM_IUPAC_TRADITIONAL_NAME>
5-butyl-1-(4-hydroxycyclohexyl)barbituric acid

> <PUBCHEM_IUPAC_INCHI>
InChI=1S/C14H22N2O4/c1-2-3-4-11-12(18)15-14(20)16(13(11)19)9-5-7-10(17)8-6-9/h9-11,17H,2-8H2,1H3,(H,15,18,20)

> <PUBCHEM_IUPAC_INCHIKEY>
IVELJTFCCSNMJA-UHFFFAOYSA-N

> <PUBCHEM_XLOGP3>
1.8

> <PUBCHEM_EXACT_MASS>
282.157957

> <PUBCHEM_MOLECULAR_FORMULA>
C14H22N2O4

> <PUBCHEM_MOLECULAR_WEIGHT>
282.33548

> <PUBCHEM_OPENEYE_CAN_SMILES>
CCCCC1C(=O)NC(=O)N(C1=O)C2CCC(CC2)O

> <PUBCHEM_OPENEYE_ISO_SMILES>
CCCCC1C(=O)NC(=O)N(C1=O)C2CCC(CC2)O

> <PUBCHEM_CACTVS_TPSA>
86.7

> <PUBCHEM_MONOISOTOPIC_WEIGHT>
282.157957

> <PUBCHEM_TOTAL_CHARGE>
0

> <PUBCHEM_HEAVY_ATOM_COUNT>
20

> <PUBCHEM_ATOM_DEF_STEREO_COUNT>
0

> <PUBCHEM_ATOM_UDEF_STEREO_COUNT>
1

> <PUBCHEM_BOND_DEF_STEREO_COUNT>
0

> <PUBCHEM_BOND_UDEF_STEREO_COUNT>
0

> <PUBCHEM_ISOTOPIC_ATOM_COUNT>
0

> <PUBCHEM_COMPONENT_COUNT>
1

> <PUBCHEM_CACTVS_TAUTO_COUNT>
8

> <PUBCHEM_COORDINATE_TYPE>
1
5
255

> <PUBCHEM_BONDANNOTATIONS>
13  15  3

$$$$

