13681
  -OEChem-06241222393D

 17 17  0     0  0  0  0  0  0999 V2000
    0.3514    3.4823   -0.0015 Cl  0  0  0  0  0  0  0  0  0  0  0  0
    2.4737    1.3802    0.0003 O   0  0  0  0  0  0  0  0  0  0  0  0
    1.8313   -2.6253   -0.0019 O   0  5  0  0  0  0  0  0  0  0  0  0
    3.2388   -0.9407   -0.0004 O   0  0  0  0  0  0  0  0  0  0  0  0
   -2.9077   -1.8554   -0.0001 O   0  5  0  0  0  0  0  0  0  0  0  0
   -3.6941    0.1942   -0.0006 O   0  0  0  0  0  0  0  0  0  0  0  0
    2.0703   -1.3947   -0.0002 N   0  3  0  0  0  0  0  0  0  0  0  0
   -2.7333   -0.6129   -0.0002 N   0  3  0  0  0  0  0  0  0  0  0  0
    0.9788   -0.4827    0.0017 C   0  0  0  0  0  0  0  0  0  0  0  0
   -1.4074   -0.1042    0.0006 C   0  0  0  0  0  0  0  0  0  0  0  0
   -0.3236   -0.9823    0.0014 C   0  0  0  0  0  0  0  0  0  0  0  0
    1.1972    0.8950    0.0011 C   0  0  0  0  0  0  0  0  0  0  0  0
   -1.1888    1.2734   -0.0002 C   0  0  0  0  0  0  0  0  0  0  0  0
    0.1134    1.7730    0.0001 C   0  0  0  0  0  0  0  0  0  0  0  0
   -0.4974   -2.0558    0.0015 H   0  0  0  0  0  0  0  0  0  0  0  0
   -2.0204    1.9750   -0.0011 H   0  0  0  0  0  0  0  0  0  0  0  0
    2.4329    2.3521   -0.0003 H   0  0  0  0  0  0  0  0  0  0  0  0
  1 14  1  0  0  0  0
  2 12  1  0  0  0  0
  2 17  1  0  0  0  0
  3  7  1  0  0  0  0
  4  7  2  0  0  0  0
  5  8  1  0  0  0  0
  6  8  2  0  0  0  0
  7  9  1  0  0  0  0
  8 10  1  0  0  0  0
  9 11  1  0  0  0  0
  9 12  2  0  0  0  0
 10 11  2  0  0  0  0
 10 13  1  0  0  0  0
 11 15  1  0  0  0  0
 12 14  1  0  0  0  0
 13 14  2  0  0  0  0
 13 16  1  0  0  0  0
M  CHG  4   3  -1   5  -1   7   1   8   1
M  END
> <PUBCHEM_COMPOUND_CID>
13681

> <PUBCHEM_CONFORMER_RMSD>
0.6

> <PUBCHEM_CONFORMER_DIVERSEORDER>
1

> <PUBCHEM_MMFF94_PARTIAL_CHARGES>
17
1 -0.18
10 0.13
11 -0.15
12 0.08
13 -0.15
14 0.18
15 0.15
16 0.15
17 0.45
2 -0.53
3 -0.52
4 -0.52
5 -0.52
6 -0.52
7 0.91
8 0.91
9 0.13

> <PUBCHEM_EFFECTIVE_ROTOR_COUNT>
2

> <PUBCHEM_PHARMACOPHORE_FEATURES>
8
1 2 donor
1 3 acceptor
1 3 anion
1 4 acceptor
1 5 acceptor
1 5 anion
1 6 acceptor
6 9 10 11 12 13 14 rings

> <PUBCHEM_HEAVY_ATOM_COUNT>
14

> <PUBCHEM_ATOM_DEF_STEREO_COUNT>
0

> <PUBCHEM_ATOM_UDEF_STEREO_COUNT>
0

> <PUBCHEM_BOND_DEF_STEREO_COUNT>
0

> <PUBCHEM_BOND_UDEF_STEREO_COUNT>
0

> <PUBCHEM_ISOTOPIC_ATOM_COUNT>
0

> <PUBCHEM_COMPONENT_COUNT>
1

> <PUBCHEM_CACTVS_TAUTO_COUNT>
6

> <PUBCHEM_CONFORMER_ID>
0000357100000001

> <PUBCHEM_MMFF94_ENERGY>
44.6229

> <PUBCHEM_FEATURE_SELFOVERLAP>
40.758

> <PUBCHEM_SHAPE_FINGERPRINT>
1 1 17978792311570374237
10967382 1 18410856572667148743
11471102 20 18411423869465090405
13380535 76 17326897270557462660
14648413 74 18269556035906643137
15442244 35 18336542807050778177
161256 15 18409451414187349172
16945 1 18266740169105199973
17990270 104 18340208471058329691
193761 8 18194683902365348672
20201158 50 18413390955538384843
20645477 70 18053394201960305047
20711985 365 18124316270378096341
20871998 184 17899423261533904358
20871998 22 18262511619167784166
21501502 16 18338510975407994632
2334 1 18410855468797477509
23526114 1 18338517439106694574
23530152 11 17546161900790128463
23552423 10 18342452647057047167
23559900 14 17036980781305506718
241688 4 18339359793878700192
2748010 2 18410018766160567100
3071541 12 18266172829711383701
7364860 26 18265052431662636209
81228 2 18052813933975741640

> <PUBCHEM_SHAPE_MULTIPOLES>
250.67
4.27
3.1
0.57
2.13
1.77
0
-2.2
0
-1.26
0
0
0.06
0

> <PUBCHEM_SHAPE_SELFOVERLAP>
525.515

> <PUBCHEM_SHAPE_VOLUME>
143.4

> <PUBCHEM_COORDINATE_TYPE>
2
5
10

$$$$

