25137932
  -OEChem-07051213113D

 36 35  0     1  0  0  0  0  0999 V2000
    0.0209   -4.3282    0.3960 O   0  0  0  0  0  0  0  0  0  0  0  0
    0.7075   -3.3183   -1.5168 O   0  0  0  0  0  0  0  0  0  0  0  0
    2.1525   -1.1182    1.4676 O   0  0  0  0  0  0  0  0  0  0  0  0
    5.5278    2.5211    0.4818 O   0  0  0  0  0  0  0  0  0  0  0  0
   -3.7048    2.4214   -1.1853 O   0  0  0  0  0  0  0  0  0  0  0  0
    3.9920    2.7380   -1.1774 O   0  0  0  0  0  0  0  0  0  0  0  0
    0.5398   -0.9013   -0.1923 N   0  0  0  0  0  0  0  0  0  0  0  0
   -4.3344    0.9798    0.5293 N   0  0  0  0  0  0  0  0  0  0  0  0
   -4.8486    3.2231    0.6366 N   0  0  0  0  0  0  0  0  0  0  0  0
   -1.7780   -1.7436   -0.1675 C   0  0  0  0  0  0  0  0  0  0  0  0
   -0.3217   -1.9741    0.2356 C   0  0  1  0  0  0  0  0  0  0  0  0
   -2.3516   -0.4549    0.4274 C   0  0  0  0  0  0  0  0  0  0  0  0
   -3.7918   -0.2324   -0.0200 C   0  0  0  0  0  0  0  0  0  0  0  0
    0.2082   -3.2439   -0.4014 C   0  0  0  0  0  0  0  0  0  0  0  0
    1.7154   -0.5598    0.4650 C   0  0  0  0  0  0  0  0  0  0  0  0
    2.4150    0.6083   -0.2066 C   0  0  0  0  0  0  0  0  0  0  0  0
    3.7085    0.9984    0.5010 C   0  0  0  0  0  0  0  0  0  0  0  0
   -4.2476    2.2185   -0.1005 C   0  0  0  0  0  0  0  0  0  0  0  0
    4.3909    2.1661   -0.1724 C   0  0  0  0  0  0  0  0  0  0  0  0
   -2.3860   -2.5991    0.1533 H   0  0  0  0  0  0  0  0  0  0  0  0
   -1.8566   -1.7018   -1.2621 H   0  0  0  0  0  0  0  0  0  0  0  0
   -0.2336   -2.0676    1.3247 H   0  0  0  0  0  0  0  0  0  0  0  0
   -2.3068   -0.5008    1.5227 H   0  0  0  0  0  0  0  0  0  0  0  0
   -1.7456    0.4077    0.1251 H   0  0  0  0  0  0  0  0  0  0  0  0
   -3.8489   -0.1845   -1.1131 H   0  0  0  0  0  0  0  0  0  0  0  0
   -4.4296   -1.0559    0.3184 H   0  0  0  0  0  0  0  0  0  0  0  0
    0.3058   -0.4179   -1.0553 H   0  0  0  0  0  0  0  0  0  0  0  0
    2.6242    0.3326   -1.2475 H   0  0  0  0  0  0  0  0  0  0  0  0
    1.7234    1.4597   -0.2242 H   0  0  0  0  0  0  0  0  0  0  0  0
   -4.7967    0.9316    1.4321 H   0  0  0  0  0  0  0  0  0  0  0  0
    4.4031    0.1508    0.5038 H   0  0  0  0  0  0  0  0  0  0  0  0
    3.4948    1.2790    1.5387 H   0  0  0  0  0  0  0  0  0  0  0  0
    0.3435   -5.1526   -0.0267 H   0  0  0  0  0  0  0  0  0  0  0  0
   -5.2915    3.0363    1.5298 H   0  0  0  0  0  0  0  0  0  0  0  0
   -4.8642    4.1813    0.3037 H   0  0  0  0  0  0  0  0  0  0  0  0
    5.9759    3.2796    0.0503 H   0  0  0  0  0  0  0  0  0  0  0  0
  1 14  1  0  0  0  0
  1 33  1  0  0  0  0
  2 14  2  0  0  0  0
  3 15  2  0  0  0  0
  4 19  1  0  0  0  0
  4 36  1  0  0  0  0
  5 18  2  0  0  0  0
  6 19  2  0  0  0  0
  7 11  1  0  0  0  0
  7 15  1  0  0  0  0
  7 27  1  0  0  0  0
  8 13  1  0  0  0  0
  8 18  1  0  0  0  0
  8 30  1  0  0  0  0
  9 18  1  0  0  0  0
  9 34  1  0  0  0  0
  9 35  1  0  0  0  0
 10 11  1  0  0  0  0
 10 12  1  0  0  0  0
 10 20  1  0  0  0  0
 10 21  1  0  0  0  0
 11 14  1  0  0  0  0
 11 22  1  0  0  0  0
 12 13  1  0  0  0  0
 12 23  1  0  0  0  0
 12 24  1  0  0  0  0
 13 25  1  0  0  0  0
 13 26  1  0  0  0  0
 15 16  1  0  0  0  0
 16 17  1  0  0  0  0
 16 28  1  0  0  0  0
 16 29  1  0  0  0  0
 17 19  1  0  0  0  0
 17 31  1  0  0  0  0
 17 32  1  0  0  0  0
M  END
> <PUBCHEM_COMPOUND_CID>
25137932

> <PUBCHEM_CONFORMER_RMSD>
1

> <PUBCHEM_CONFORMER_DIVERSEORDER>
1
6
8
58
12
72
46
32
71
50
54
36
81
31
49
28
14
3
41
7
63
64
78
75
40
19
43
60
57
16
83
69
80
53
37
18
45
66
74
48
27
30
59
79
34
10
17
39
52
70
65
9
20
29
4
62
77
25
68
61
73
22
35
42
67
13
2
33
11
23
82
26
55
15
21
56
38
51
47
24
5
44
76

> <PUBCHEM_MMFF94_PARTIAL_CHARGES>
23
1 -0.65
11 0.36
13 0.3
14 0.66
15 0.57
16 0.06
17 0.06
18 0.69
19 0.66
2 -0.57
27 0.37
3 -0.57
30 0.37
33 0.5
34 0.37
35 0.37
36 0.5
4 -0.65
5 -0.57
6 -0.57
7 -0.73
8 -0.73
9 -0.8

> <PUBCHEM_EFFECTIVE_ROTOR_COUNT>
11

> <PUBCHEM_PHARMACOPHORE_FEATURES>
11
1 1 acceptor
1 2 acceptor
1 3 acceptor
1 4 acceptor
1 5 acceptor
1 6 acceptor
1 7 donor
1 8 donor
1 9 donor
3 1 2 14 anion
3 4 6 19 anion

> <PUBCHEM_HEAVY_ATOM_COUNT>
19

> <PUBCHEM_ATOM_DEF_STEREO_COUNT>
1

> <PUBCHEM_ATOM_UDEF_STEREO_COUNT>
0

> <PUBCHEM_BOND_DEF_STEREO_COUNT>
0

> <PUBCHEM_BOND_UDEF_STEREO_COUNT>
0

> <PUBCHEM_ISOTOPIC_ATOM_COUNT>
0

> <PUBCHEM_COMPONENT_COUNT>
1

> <PUBCHEM_CACTVS_TAUTO_COUNT>
6

> <PUBCHEM_CONFORMER_ID>
017F930C00000001

> <PUBCHEM_MMFF94_ENERGY>
20.1152

> <PUBCHEM_FEATURE_SELFOVERLAP>
55.985

> <PUBCHEM_SHAPE_FINGERPRINT>
12107183 9 18342189873328039746
12173636 292 18264777558003336390
12788726 201 17979652138222399914
13134695 92 17619067678298418287
13590594 115 17255949599226703331
14123255 52 18411136922219977064
14251764 75 18336817667520085545
14508225 48 17324373904478438087
15163728 17 18337375102360218197
15342168 16 18337392764057172805
1741750 31 18337390414256322850
17834072 32 18411418423024949017
18785283 64 18269275836240203362
20645477 56 17972025956010657306
23590187 32 18410293592786132497
394222 165 18272096023404070786
633830 44 18261959642871433951
7808743 9 18338237055067741857
9981440 41 18413105048450642643

> <PUBCHEM_SHAPE_MULTIPOLES>
340.85
10.36
5.06
0.99
1.29
2.54
0.12
-16.07
-0.54
-0.75
0.85
0.26
0.09
-0.35

> <PUBCHEM_SHAPE_SELFOVERLAP>
662.334

> <PUBCHEM_SHAPE_VOLUME>
203.3

> <PUBCHEM_COORDINATE_TYPE>
2
5
10

$$$$

