25890
  -OEChem-07051213052D

 33 37  0     0  0  0  0  0  0999 V2000
    5.6147   -2.9779    0.0000 O   0  0  0  0  0  0  0  0  0  0  0  0
    3.7841    0.0281    0.0000 C   0  0  0  0  0  0  0  0  0  0  0  0
    3.8001   -1.0134    0.0000 C   0  0  0  0  0  0  0  0  0  0  0  0
    2.9180    0.5281    0.0000 C   0  0  0  0  0  0  0  0  0  0  0  0
    4.6501    0.5281    0.0000 C   0  0  0  0  0  0  0  0  0  0  0  0
    4.6772   -1.4762    0.0000 C   0  0  0  0  0  0  0  0  0  0  0  0
    2.9180    1.5281    0.0000 C   0  0  0  0  0  0  0  0  0  0  0  0
    2.9021   -1.5412    0.0000 C   0  0  0  0  0  0  0  0  0  0  0  0
    3.7841    2.0281    0.0000 C   0  0  0  0  0  0  0  0  0  0  0  0
    4.6501    1.5281    0.0000 C   0  0  0  0  0  0  0  0  0  0  0  0
    2.0080    0.0212    0.0000 C   0  0  0  0  0  0  0  0  0  0  0  0
    5.5095    0.0333    0.0000 C   0  0  0  0  0  0  0  0  0  0  0  0
    2.0000   -1.0204    0.0000 C   0  0  0  0  0  0  0  0  0  0  0  0
    5.5230   -0.9583    0.0000 C   0  0  0  0  0  0  0  0  0  0  0  0
    4.7274   -2.5168    0.0000 C   0  0  0  0  0  0  0  0  0  0  0  0
    2.9282   -2.5827    0.0000 C   0  0  0  0  0  0  0  0  0  0  0  0
    2.0080    2.0349    0.0000 C   0  0  0  0  0  0  0  0  0  0  0  0
    3.8470   -3.0738    0.0000 C   0  0  0  0  0  0  0  0  0  0  0  0
    3.8001    3.0696    0.0000 C   0  0  0  0  0  0  0  0  0  0  0  0
    2.0000    3.0765    0.0000 C   0  0  0  0  0  0  0  0  0  0  0  0
    2.9021    3.5973    0.0000 C   0  0  0  0  0  0  0  0  0  0  0  0
    5.1870    1.8381    0.0000 H   0  0  0  0  0  0  0  0  0  0  0  0
    1.4747    0.3374    0.0000 H   0  0  0  0  0  0  0  0  0  0  0  0
    6.0442    0.3473    0.0000 H   0  0  0  0  0  0  0  0  0  0  0  0
    1.4619   -1.3283    0.0000 H   0  0  0  0  0  0  0  0  0  0  0  0
    6.0659   -1.2577    0.0000 H   0  0  0  0  0  0  0  0  0  0  0  0
    2.4004   -2.9080    0.0000 H   0  0  0  0  0  0  0  0  0  0  0  0
    1.4747    1.7187    0.0000 H   0  0  0  0  0  0  0  0  0  0  0  0
    3.8696   -3.6933    0.0000 H   0  0  0  0  0  0  0  0  0  0  0  0
    4.3406    3.3734    0.0000 H   0  0  0  0  0  0  0  0  0  0  0  0
    1.4619    3.3844    0.0000 H   0  0  0  0  0  0  0  0  0  0  0  0
    2.9045    4.2173    0.0000 H   0  0  0  0  0  0  0  0  0  0  0  0
    5.6422   -3.5973    0.0000 H   0  0  0  0  0  0  0  0  0  0  0  0
  1 15  1  0  0  0  0
  1 33  1  0  0  0  0
  2  3  1  0  0  0  0
  2  4  2  0  0  0  0
  2  5  1  0  0  0  0
  3  6  1  0  0  0  0
  3  8  2  0  0  0  0
  4  7  1  0  0  0  0
  4 11  1  0  0  0  0
  5 10  2  0  0  0  0
  5 12  1  0  0  0  0
  6 14  1  0  0  0  0
  6 15  2  0  0  0  0
  7  9  1  0  0  0  0
  7 17  2  0  0  0  0
  8 13  1  0  0  0  0
  8 16  1  0  0  0  0
  9 10  1  0  0  0  0
  9 19  2  0  0  0  0
 10 22  1  0  0  0  0
 11 13  2  0  0  0  0
 11 23  1  0  0  0  0
 12 14  2  0  0  0  0
 12 24  1  0  0  0  0
 13 25  1  0  0  0  0
 14 26  1  0  0  0  0
 15 18  1  0  0  0  0
 16 18  2  0  0  0  0
 16 27  1  0  0  0  0
 17 20  1  0  0  0  0
 17 28  1  0  0  0  0
 18 29  1  0  0  0  0
 19 21  1  0  0  0  0
 19 30  1  0  0  0  0
 20 21  2  0  0  0  0
 20 31  1  0  0  0  0
 21 32  1  0  0  0  0
M  END
> <PUBCHEM_COMPOUND_CID>
25890

> <PUBCHEM_COMPOUND_CANONICALIZED>
1

> <PUBCHEM_CACTVS_COMPLEXITY>
405

> <PUBCHEM_CACTVS_HBOND_ACCEPTOR>
1

> <PUBCHEM_CACTVS_HBOND_DONOR>
1

> <PUBCHEM_CACTVS_ROTATABLE_BOND>
0

> <PUBCHEM_CACTVS_SUBSKEYS>
AAADccB4IAAAAAAAAAAAAAAAAAAAAAAAAAAwYMGDAAAAAADBVAAAGgAACAAADASAmAAwBsAAAgCAAiBCAAACAAAgIAAIiAAGCIgIJiKCERKAcAAkwBEImAeAwPAO4AADAAAYAADAAAYAADAAAAAAAAAAAA==

> <PUBCHEM_IUPAC_OPENEYE_NAME>
benzo[a]pyren-3-ol

> <PUBCHEM_IUPAC_CAS_NAME>
3-benzo[a]pyrenol

> <PUBCHEM_IUPAC_NAME>
benzo[a]pyren-3-ol

> <PUBCHEM_IUPAC_SYSTEMATIC_NAME>
benzo[a]pyren-3-ol

> <PUBCHEM_IUPAC_TRADITIONAL_NAME>
benzo[a]pyren-3-ol

> <PUBCHEM_IUPAC_INCHI>
InChI=1S/C20H12O/c21-18-10-7-12-5-8-16-15-4-2-1-3-13(15)11-14-6-9-17(18)19(12)20(14)16/h1-11,21H

> <PUBCHEM_IUPAC_INCHIKEY>
SPUUWWRWIAEPDB-UHFFFAOYSA-N

> <PUBCHEM_XLOGP3>
5.9

> <PUBCHEM_EXACT_MASS>
268.088815

> <PUBCHEM_MOLECULAR_FORMULA>
C20H12O

> <PUBCHEM_MOLECULAR_WEIGHT>
268.30868

> <PUBCHEM_OPENEYE_CAN_SMILES>
C1=CC=C2C3=C4C(=CC2=C1)C=CC5=C(C=CC(=C54)C=C3)O

> <PUBCHEM_OPENEYE_ISO_SMILES>
C1=CC=C2C3=C4C(=CC2=C1)C=CC5=C(C=CC(=C54)C=C3)O

> <PUBCHEM_CACTVS_TPSA>
20.2

> <PUBCHEM_MONOISOTOPIC_WEIGHT>
268.088815

> <PUBCHEM_TOTAL_CHARGE>
0

> <PUBCHEM_HEAVY_ATOM_COUNT>
21

> <PUBCHEM_ATOM_DEF_STEREO_COUNT>
0

> <PUBCHEM_ATOM_UDEF_STEREO_COUNT>
0

> <PUBCHEM_BOND_DEF_STEREO_COUNT>
0

> <PUBCHEM_BOND_UDEF_STEREO_COUNT>
0

> <PUBCHEM_ISOTOPIC_ATOM_COUNT>
0

> <PUBCHEM_COMPONENT_COUNT>
1

> <PUBCHEM_CACTVS_TAUTO_COUNT>
2

> <PUBCHEM_COORDINATE_TYPE>
1
5
255

> <PUBCHEM_BONDANNOTATIONS>
11  13  8
12  14  8
15  18  8
16  18  8
17  20  8
19  21  8
2  3  8
2  4  8
2  5  8
20  21  8
3  6  8
3  8  8
4  11  8
4  7  8
5  10  8
5  12  8
6  14  8
6  15  8
7  17  8
7  9  8
8  13  8
8  16  8
9  10  8
9  19  8

$$$$

