86389
  -OEChem-07051213122D

 32 33  0     0  0  0  0  0  0999 V2000
    2.0000   -0.2409    0.0000 Br  0  0  0  0  0  0  0  0  0  0  0  0
    5.4641   -0.2409    0.0000 Br  0  0  0  0  0  0  0  0  0  0  0  0
    3.7891    2.8469    0.0000 S   0  0  0  0  0  0  0  0  0  0  0  0
    7.3092    2.2288    0.0000 F   0  0  0  0  0  0  0  0  0  0  0  0
    6.6672    3.4889    0.0000 F   0  0  0  0  0  0  0  0  0  0  0  0
    6.0491    1.5868    0.0000 F   0  0  0  0  0  0  0  0  0  0  0  0
    2.0000   -4.2409    0.0000 F   0  0  0  0  0  0  0  0  0  0  0  0
    3.3660   -4.6069    0.0000 F   0  0  0  0  0  0  0  0  0  0  0  0
    2.3660   -2.8749    0.0000 F   0  0  0  0  0  0  0  0  0  0  0  0
    3.7320   -3.2409    0.0000 O   0  0  0  0  0  0  0  0  0  0  0  0
    5.4641    0.7591    0.0000 O   0  0  0  0  0  0  0  0  0  0  0  0
    3.7320    0.7591    0.0000 N   0  0  0  0  0  0  0  0  0  0  0  0
    5.0981    3.7979    0.0000 N   0  0  0  0  0  0  0  0  0  0  0  0
    4.5981    2.2591    0.0000 C   0  0  0  0  0  0  0  0  0  0  0  0
    5.4071    2.8469    0.0000 C   0  0  0  0  0  0  0  0  0  0  0  0
    3.7320   -0.2409    0.0000 C   0  0  0  0  0  0  0  0  0  0  0  0
    4.5981    1.2591    0.0000 C   0  0  0  0  0  0  0  0  0  0  0  0
    4.0981    3.7979    0.0000 C   0  0  0  0  0  0  0  0  0  0  0  0
    2.8660   -0.7409    0.0000 C   0  0  0  0  0  0  0  0  0  0  0  0
    4.5981   -0.7409    0.0000 C   0  0  0  0  0  0  0  0  0  0  0  0
    3.7320   -2.2409    0.0000 C   0  0  0  0  0  0  0  0  0  0  0  0
    6.3582    2.5378    0.0000 C   0  0  0  0  0  0  0  0  0  0  0  0
    2.8660   -1.7409    0.0000 C   0  0  0  0  0  0  0  0  0  0  0  0
    4.5981   -1.7409    0.0000 C   0  0  0  0  0  0  0  0  0  0  0  0
    3.5103    4.6069    0.0000 C   0  0  0  0  0  0  0  0  0  0  0  0
    2.8660   -3.7409    0.0000 C   0  0  0  0  0  0  0  0  0  0  0  0
    3.1951    1.0691    0.0000 H   0  0  0  0  0  0  0  0  0  0  0  0
    2.3291   -2.0509    0.0000 H   0  0  0  0  0  0  0  0  0  0  0  0
    5.1350   -2.0509    0.0000 H   0  0  0  0  0  0  0  0  0  0  0  0
    4.0119    4.9714    0.0000 H   0  0  0  0  0  0  0  0  0  0  0  0
    3.1459    5.1085    0.0000 H   0  0  0  0  0  0  0  0  0  0  0  0
    3.0087    4.2425    0.0000 H   0  0  0  0  0  0  0  0  0  0  0  0
  1 19  1  0  0  0  0
  2 20  1  0  0  0  0
  3 14  1  0  0  0  0
  3 18  1  0  0  0  0
  4 22  1  0  0  0  0
  5 22  1  0  0  0  0
  6 22  1  0  0  0  0
  7 26  1  0  0  0  0
  8 26  1  0  0  0  0
  9 26  1  0  0  0  0
 10 21  1  0  0  0  0
 10 26  1  0  0  0  0
 11 17  2  0  0  0  0
 12 16  1  0  0  0  0
 12 17  1  0  0  0  0
 12 27  1  0  0  0  0
 13 15  1  0  0  0  0
 13 18  2  0  0  0  0
 14 15  2  0  0  0  0
 14 17  1  0  0  0  0
 15 22  1  0  0  0  0
 16 19  2  0  0  0  0
 16 20  1  0  0  0  0
 18 25  1  0  0  0  0
 19 23  1  0  0  0  0
 20 24  2  0  0  0  0
 21 23  2  0  0  0  0
 21 24  1  0  0  0  0
 23 28  1  0  0  0  0
 24 29  1  0  0  0  0
 25 30  1  0  0  0  0
 25 31  1  0  0  0  0
 25 32  1  0  0  0  0
M  END
> <PUBCHEM_COMPOUND_CID>
86389

> <PUBCHEM_COMPOUND_CANONICALIZED>
1

> <PUBCHEM_CACTVS_COMPLEXITY>
512

> <PUBCHEM_CACTVS_HBOND_ACCEPTOR>
10

> <PUBCHEM_CACTVS_HBOND_DONOR>
1

> <PUBCHEM_CACTVS_ROTATABLE_BOND>
3

> <PUBCHEM_CACTVS_SUBSKEYS>
AAADcYBzMcBAGAAAAAAAAAAAAAAAAWAAAAAwAAAAAAAAAAABwAAAHwRQAAABqAyB1hAyx5LIFAisASVyVACC+KBlKDwAmBU2TOgMJjrk8ZuEMahkxBHo61ewQAAAAEAAAIAgAAgAgAABAEAAEAAAAAAAAA==

> <PUBCHEM_IUPAC_OPENEYE_NAME>
N-[2,6-dibromo-4-(trifluoromethoxy)phenyl]-2-methyl-4-(trifluoromethyl)thiazole-5-carboxamide

> <PUBCHEM_IUPAC_CAS_NAME>
N-[2,6-dibromo-4-(trifluoromethoxy)phenyl]-2-methyl-4-(trifluoromethyl)-5-thiazolecarboxamide

> <PUBCHEM_IUPAC_NAME>
N-[2,6-dibromo-4-(trifluoromethoxy)phenyl]-2-methyl-4-(trifluoromethyl)-1,3-thiazole-5-carboxamide

> <PUBCHEM_IUPAC_SYSTEMATIC_NAME>
N-[2,6-bis(bromanyl)-4-(trifluoromethyloxy)phenyl]-2-methyl-4-(trifluoromethyl)-1,3-thiazole-5-carboxamide

> <PUBCHEM_IUPAC_TRADITIONAL_NAME>
N-[2,6-dibromo-4-(trifluoromethoxy)phenyl]-2-methyl-4-(trifluoromethyl)thiazole-5-carboxamide

> <PUBCHEM_IUPAC_INCHI>
InChI=1S/C13H6Br2F6N2O2S/c1-4-22-10(12(16,17)18)9(26-4)11(24)23-8-6(14)2-5(3-7(8)15)25-13(19,20)21/h2-3H,1H3,(H,23,24)

> <PUBCHEM_IUPAC_INCHIKEY>
WOSNCVAPUOFXEH-UHFFFAOYSA-N

> <PUBCHEM_XLOGP3_AA>
6

> <PUBCHEM_EXACT_MASS>
527.840045

> <PUBCHEM_MOLECULAR_FORMULA>
C13H6Br2F6N2O2S

> <PUBCHEM_MOLECULAR_WEIGHT>
528.062359

> <PUBCHEM_OPENEYE_CAN_SMILES>
CC1=NC(=C(S1)C(=O)NC2=C(C=C(C=C2Br)OC(F)(F)F)Br)C(F)(F)F

> <PUBCHEM_OPENEYE_ISO_SMILES>
CC1=NC(=C(S1)C(=O)NC2=C(C=C(C=C2Br)OC(F)(F)F)Br)C(F)(F)F

> <PUBCHEM_CACTVS_TPSA>
79.5

> <PUBCHEM_MONOISOTOPIC_WEIGHT>
525.842092

> <PUBCHEM_TOTAL_CHARGE>
0

> <PUBCHEM_HEAVY_ATOM_COUNT>
26

> <PUBCHEM_ATOM_DEF_STEREO_COUNT>
0

> <PUBCHEM_ATOM_UDEF_STEREO_COUNT>
0

> <PUBCHEM_BOND_DEF_STEREO_COUNT>
0

> <PUBCHEM_BOND_UDEF_STEREO_COUNT>
0

> <PUBCHEM_ISOTOPIC_ATOM_COUNT>
0

> <PUBCHEM_COMPONENT_COUNT>
1

> <PUBCHEM_CACTVS_TAUTO_COUNT>
2

> <PUBCHEM_COORDINATE_TYPE>
1
5
255

> <PUBCHEM_BONDANNOTATIONS>
13  15  8
13  18  8
14  15  8
16  19  8
16  20  8
19  23  8
20  24  8
21  23  8
21  24  8
3  14  8
3  18  8

$$$$

