165368
  -OEChem-07051213002D

 29 31  0     0  0  0  0  0  0999 V2000
    7.3424   -0.7824    0.0000 O   0  0  0  0  0  0  0  0  0  0  0  0
    5.5301    2.0223    0.0000 O   0  0  0  0  0  0  0  0  0  0  0  0
    3.7817   -2.0123    0.0000 O   0  0  0  0  0  0  0  0  0  0  0  0
    2.0000   -1.0019    0.0000 O   0  0  0  0  0  0  0  0  0  0  0  0
    5.5301   -0.9777    0.0000 N   0  0  0  0  0  0  0  0  0  0  0  0
    4.6641    0.5223    0.0000 C   0  0  0  0  0  0  0  0  0  0  0  0
    4.6641   -0.4777    0.0000 C   0  0  0  0  0  0  0  0  0  0  0  0
    6.3961    0.5223    0.0000 C   0  0  0  0  0  0  0  0  0  0  0  0
    5.5301    1.0223    0.0000 C   0  0  0  0  0  0  0  0  0  0  0  0
    6.3961   -0.4777    0.0000 C   0  0  0  0  0  0  0  0  0  0  0  0
    3.7702   -1.0124    0.0000 C   0  0  0  0  0  0  0  0  0  0  0  0
    3.7702    1.0570    0.0000 C   0  0  0  0  0  0  0  0  0  0  0  0
    7.3424    0.8270    0.0000 C   0  0  0  0  0  0  0  0  0  0  0  0
    2.8641   -0.4985    0.0000 C   0  0  0  0  0  0  0  0  0  0  0  0
    2.8641    0.5431    0.0000 C   0  0  0  0  0  0  0  0  0  0  0  0
    7.9260    0.0223    0.0000 C   0  0  0  0  0  0  0  0  0  0  0  0
    6.3961    2.5223    0.0000 C   0  0  0  0  0  0  0  0  0  0  0  0
    2.9215   -2.5223    0.0000 C   0  0  0  0  0  0  0  0  0  0  0  0
    5.5301   -1.5977    0.0000 H   0  0  0  0  0  0  0  0  0  0  0  0
    3.7773    1.6769    0.0000 H   0  0  0  0  0  0  0  0  0  0  0  0
    7.5350    1.4163    0.0000 H   0  0  0  0  0  0  0  0  0  0  0  0
    2.3284    0.8552    0.0000 H   0  0  0  0  0  0  0  0  0  0  0  0
    8.5460    0.0223    0.0000 H   0  0  0  0  0  0  0  0  0  0  0  0
    6.7062    1.9854    0.0000 H   0  0  0  0  0  0  0  0  0  0  0  0
    6.9331    2.8323    0.0000 H   0  0  0  0  0  0  0  0  0  0  0  0
    6.0862    3.0592    0.0000 H   0  0  0  0  0  0  0  0  0  0  0  0
    2.6054   -1.9890    0.0000 H   0  0  0  0  0  0  0  0  0  0  0  0
    2.3882   -2.8385    0.0000 H   0  0  0  0  0  0  0  0  0  0  0  0
    3.2377   -3.0556    0.0000 H   0  0  0  0  0  0  0  0  0  0  0  0
  1 10  1  0  0  0  0
  1 16  1  0  0  0  0
  2  9  1  0  0  0  0
  2 17  1  0  0  0  0
  3 11  1  0  0  0  0
  3 18  1  0  0  0  0
  4 14  2  0  0  0  0
  5  7  1  0  0  0  0
  5 10  1  0  0  0  0
  5 19  1  0  0  0  0
  6  7  1  0  0  0  0
  6  9  2  0  0  0  0
  6 12  1  0  0  0  0
  7 11  2  0  0  0  0
  8  9  1  0  0  0  0
  8 10  2  0  0  0  0
  8 13  1  0  0  0  0
 11 14  1  0  0  0  0
 12 15  2  0  0  0  0
 12 20  1  0  0  0  0
 13 16  2  0  0  0  0
 13 21  1  0  0  0  0
 14 15  1  0  0  0  0
 15 22  1  0  0  0  0
 16 23  1  0  0  0  0
 17 24  1  0  0  0  0
 17 25  1  0  0  0  0
 17 26  1  0  0  0  0
 18 27  1  0  0  0  0
 18 28  1  0  0  0  0
 18 29  1  0  0  0  0
M  END
> <PUBCHEM_COMPOUND_CID>
165368

> <PUBCHEM_COMPOUND_CANONICALIZED>
1

> <PUBCHEM_CACTVS_COMPLEXITY>
489

> <PUBCHEM_CACTVS_HBOND_ACCEPTOR>
5

> <PUBCHEM_CACTVS_HBOND_DONOR>
1

> <PUBCHEM_CACTVS_ROTATABLE_BOND>
2

> <PUBCHEM_CACTVS_SUBSKEYS>
AAADccByOAAAAAAAAAAAAAAAAAAAASAAAAAgQAAAAAAAAECBgAAAHgAQAAAADAyhmAIyhILABECIAq1S0AKCCAAtIAAIiAFGTMkMJxTEpI8OGSjH5BHI4cZmAAAIAAAAAAAAAAAAAAAAAAAAAAAAAAAAAA==

> <PUBCHEM_IUPAC_OPENEYE_NAME>
4,8-dimethoxy-9H-furo[2,3-b]quinolin-7-one

> <PUBCHEM_IUPAC_CAS_NAME>
4,8-dimethoxy-9H-furo[2,3-b]quinolin-7-one

> <PUBCHEM_IUPAC_NAME>
4,8-dimethoxy-9H-furo[2,3-b]quinolin-7-one

> <PUBCHEM_IUPAC_SYSTEMATIC_NAME>
4,8-dimethoxy-9H-furo[2,3-b]quinolin-7-one

> <PUBCHEM_IUPAC_TRADITIONAL_NAME>
4,8-dimethoxy-9H-furo[2,3-b]quinolin-7-one

> <PUBCHEM_IUPAC_INCHI>
InChI=1S/C13H11NO4/c1-16-11-7-3-4-9(15)12(17-2)10(7)14-13-8(11)5-6-18-13/h3-6,14H,1-2H3

> <PUBCHEM_IUPAC_INCHIKEY>
WXPKAFIGBNLGNT-UHFFFAOYSA-N

> <PUBCHEM_XLOGP3_AA>
1.4

> <PUBCHEM_EXACT_MASS>
245.068808

> <PUBCHEM_MOLECULAR_FORMULA>
C13H11NO4

> <PUBCHEM_MOLECULAR_WEIGHT>
245.23074

> <PUBCHEM_OPENEYE_CAN_SMILES>
COC1=C2C=CC(=O)C(=C2NC3=C1C=CO3)OC

> <PUBCHEM_OPENEYE_ISO_SMILES>
COC1=C2C=CC(=O)C(=C2NC3=C1C=CO3)OC

> <PUBCHEM_CACTVS_TPSA>
60.7

> <PUBCHEM_MONOISOTOPIC_WEIGHT>
245.068808

> <PUBCHEM_TOTAL_CHARGE>
0

> <PUBCHEM_HEAVY_ATOM_COUNT>
18

> <PUBCHEM_ATOM_DEF_STEREO_COUNT>
0

> <PUBCHEM_ATOM_UDEF_STEREO_COUNT>
0

> <PUBCHEM_BOND_DEF_STEREO_COUNT>
0

> <PUBCHEM_BOND_UDEF_STEREO_COUNT>
0

> <PUBCHEM_ISOTOPIC_ATOM_COUNT>
0

> <PUBCHEM_COMPONENT_COUNT>
1

> <PUBCHEM_CACTVS_TAUTO_COUNT>
5

> <PUBCHEM_COORDINATE_TYPE>
1
5
255

> <PUBCHEM_BONDANNOTATIONS>
1  10  8
1  16  8
11  14  8
12  15  8
13  16  8
14  15  8
5  10  8
5  7  8
6  12  8
6  9  8
7  11  8
8  10  8
8  13  8
8  9  8

$$$$

