135244
  -OEChem-07051213092D

 27 26  0     1  0  0  0  0  0999 V2000
    7.7331    0.5000    0.0000 O   0  0  0  0  0  0  0  0  0  0  0  0
    2.5369    0.5000    0.0000 O   0  0  0  0  0  0  0  0  0  0  0  0
    6.8671    2.0000    0.0000 O   0  0  0  0  0  0  0  0  0  0  0  0
    6.0010    0.5000    0.0000 C   0  0  3  0  0  0  0  0  0  0  0  0
    5.1350    1.0000    0.0000 C   0  0  0  0  0  0  0  0  0  0  0  0
    6.0010   -0.5000    0.0000 C   0  0  0  0  0  0  0  0  0  0  0  0
    4.2690    0.5000    0.0000 C   0  0  0  0  0  0  0  0  0  0  0  0
    5.1350   -1.0000    0.0000 C   0  0  0  0  0  0  0  0  0  0  0  0
    6.8671    1.0000    0.0000 C   0  0  0  0  0  0  0  0  0  0  0  0
    3.4030    1.0000    0.0000 C   0  0  0  0  0  0  0  0  0  0  0  0
    5.1350   -2.0000    0.0000 C   0  0  0  0  0  0  0  0  0  0  0  0
    6.5380    0.1900    0.0000 H   0  0  0  0  0  0  0  0  0  0  0  0
    5.5335    1.4750    0.0000 H   0  0  0  0  0  0  0  0  0  0  0  0
    4.7365    1.4750    0.0000 H   0  0  0  0  0  0  0  0  0  0  0  0
    6.2131   -1.0826    0.0000 H   0  0  0  0  0  0  0  0  0  0  0  0
    6.6116   -0.3923    0.0000 H   0  0  0  0  0  0  0  0  0  0  0  0
    3.8705    0.0251    0.0000 H   0  0  0  0  0  0  0  0  0  0  0  0
    4.6675    0.0251    0.0000 H   0  0  0  0  0  0  0  0  0  0  0  0
    4.9230   -0.4174    0.0000 H   0  0  0  0  0  0  0  0  0  0  0  0
    4.5244   -1.1077    0.0000 H   0  0  0  0  0  0  0  0  0  0  0  0
    3.8015    1.4750    0.0000 H   0  0  0  0  0  0  0  0  0  0  0  0
    3.0044    1.4750    0.0000 H   0  0  0  0  0  0  0  0  0  0  0  0
    4.5150   -2.0000    0.0000 H   0  0  0  0  0  0  0  0  0  0  0  0
    5.1350   -2.6200    0.0000 H   0  0  0  0  0  0  0  0  0  0  0  0
    5.7550   -2.0000    0.0000 H   0  0  0  0  0  0  0  0  0  0  0  0
    8.2700    0.8100    0.0000 H   0  0  0  0  0  0  0  0  0  0  0  0
    2.0000    0.8100    0.0000 H   0  0  0  0  0  0  0  0  0  0  0  0
  1  9  1  0  0  0  0
  1 26  1  0  0  0  0
  2 10  1  0  0  0  0
  2 27  1  0  0  0  0
  3  9  2  0  0  0  0
  4  5  1  0  0  0  0
  4  6  1  0  0  0  0
  4  9  1  0  0  0  0
  4 12  1  0  0  0  0
  5  7  1  0  0  0  0
  5 13  1  0  0  0  0
  5 14  1  0  0  0  0
  6  8  1  0  0  0  0
  6 15  1  0  0  0  0
  6 16  1  0  0  0  0
  7 10  1  0  0  0  0
  7 17  1  0  0  0  0
  7 18  1  0  0  0  0
  8 11  1  0  0  0  0
  8 19  1  0  0  0  0
  8 20  1  0  0  0  0
 10 21  1  0  0  0  0
 10 22  1  0  0  0  0
 11 23  1  0  0  0  0
 11 24  1  0  0  0  0
 11 25  1  0  0  0  0
M  END
> <PUBCHEM_COMPOUND_CID>
135244

> <PUBCHEM_COMPOUND_CANONICALIZED>
1

> <PUBCHEM_CACTVS_COMPLEXITY>
112

> <PUBCHEM_CACTVS_HBOND_ACCEPTOR>
3

> <PUBCHEM_CACTVS_HBOND_DONOR>
2

> <PUBCHEM_CACTVS_ROTATABLE_BOND>
6

> <PUBCHEM_CACTVS_SUBSKEYS>
AAADceBwMAAAAAAAAAAAAAAAAAAAAAAAAAAAAAAAAAAAAAAAAAAAGgAACAAADQCggAICCAAAAgAIAACQCAAAAAAAAAAAAAEAAAAAEBIAAAAAQAAEAAAAAAGI5CAOAAAAAAAAAAAAAAAAAAAAAAAAAAAAAA==

> <PUBCHEM_IUPAC_OPENEYE_NAME>
5-hydroxy-2-propyl-pentanoic acid

> <PUBCHEM_IUPAC_CAS_NAME>
5-hydroxy-2-propylpentanoic acid

> <PUBCHEM_IUPAC_NAME>
5-hydroxy-2-propylpentanoic acid

> <PUBCHEM_IUPAC_SYSTEMATIC_NAME>
5-oxidanyl-2-propyl-pentanoic acid

> <PUBCHEM_IUPAC_TRADITIONAL_NAME>
5-hydroxy-2-propyl-valeric acid

> <PUBCHEM_IUPAC_INCHI>
InChI=1S/C8H16O3/c1-2-4-7(8(10)11)5-3-6-9/h7,9H,2-6H2,1H3,(H,10,11)

> <PUBCHEM_IUPAC_INCHIKEY>
ZIWBCJXKYKOLJK-UHFFFAOYSA-N

> <PUBCHEM_XLOGP3_AA>
1.2

> <PUBCHEM_EXACT_MASS>
160.109944

> <PUBCHEM_MOLECULAR_FORMULA>
C8H16O3

> <PUBCHEM_MOLECULAR_WEIGHT>
160.21084

> <PUBCHEM_OPENEYE_CAN_SMILES>
CCCC(CCCO)C(=O)O

> <PUBCHEM_OPENEYE_ISO_SMILES>
CCCC(CCCO)C(=O)O

> <PUBCHEM_CACTVS_TPSA>
57.5

> <PUBCHEM_MONOISOTOPIC_WEIGHT>
160.109944

> <PUBCHEM_TOTAL_CHARGE>
0

> <PUBCHEM_HEAVY_ATOM_COUNT>
11

> <PUBCHEM_ATOM_DEF_STEREO_COUNT>
0

> <PUBCHEM_ATOM_UDEF_STEREO_COUNT>
1

> <PUBCHEM_BOND_DEF_STEREO_COUNT>
0

> <PUBCHEM_BOND_UDEF_STEREO_COUNT>
0

> <PUBCHEM_ISOTOPIC_ATOM_COUNT>
0

> <PUBCHEM_COMPONENT_COUNT>
1

> <PUBCHEM_CACTVS_TAUTO_COUNT>
1

> <PUBCHEM_COORDINATE_TYPE>
1
5
255

> <PUBCHEM_BONDANNOTATIONS>
4  5  3

$$$$

