68433
  -OEChem-07051213002D

 38 41  0     0  0  0  0  0  0999 V2000
    6.6361    2.2389    0.0000 O   0  0  0  0  0  0  0  0  0  0  0  0
    8.0944    1.4119    0.0000 O   0  0  0  0  0  0  0  0  0  0  0  0
    6.4144   -1.8442    0.0000 O   0  0  0  0  0  0  0  0  0  0  0  0
    8.1962   -0.8338    0.0000 O   0  0  0  0  0  0  0  0  0  0  0  0
    4.6660   -1.8096    0.0000 O   0  0  0  0  0  0  0  0  0  0  0  0
    4.6660    1.1904    0.0000 N   0  0  0  0  0  0  0  0  0  0  0  0
    5.5321    0.6904    0.0000 C   0  0  0  0  0  0  0  0  0  0  0  0
    5.5321   -0.3096    0.0000 C   0  0  0  0  0  0  0  0  0  0  0  0
    6.4260    1.2250    0.0000 C   0  0  0  0  0  0  0  0  0  0  0  0
    3.8000    0.6904    0.0000 C   0  0  0  0  0  0  0  0  0  0  0  0
    3.8000   -0.3096    0.0000 C   0  0  0  0  0  0  0  0  0  0  0  0
    7.3321    0.7112    0.0000 C   0  0  0  0  0  0  0  0  0  0  0  0
    6.4260   -0.8443    0.0000 C   0  0  0  0  0  0  0  0  0  0  0  0
    4.6660   -0.8096    0.0000 C   0  0  0  0  0  0  0  0  0  0  0  0
    7.3321   -0.3305    0.0000 C   0  0  0  0  0  0  0  0  0  0  0  0
    4.6660    2.1904    0.0000 C   0  0  0  0  0  0  0  0  0  0  0  0
    2.9061    1.2250    0.0000 C   0  0  0  0  0  0  0  0  0  0  0  0
    7.6651    2.3542    0.0000 C   0  0  0  0  0  0  0  0  0  0  0  0
    2.9061   -0.8443    0.0000 C   0  0  0  0  0  0  0  0  0  0  0  0
    2.0000    0.7112    0.0000 C   0  0  0  0  0  0  0  0  0  0  0  0
    2.0000   -0.3305    0.0000 C   0  0  0  0  0  0  0  0  0  0  0  0
    7.2746   -2.3542    0.0000 C   0  0  0  0  0  0  0  0  0  0  0  0
    9.0641   -0.3371    0.0000 C   0  0  0  0  0  0  0  0  0  0  0  0
    5.2860    2.1904    0.0000 H   0  0  0  0  0  0  0  0  0  0  0  0
    4.6660    2.8104    0.0000 H   0  0  0  0  0  0  0  0  0  0  0  0
    4.0460    2.1904    0.0000 H   0  0  0  0  0  0  0  0  0  0  0  0
    2.9132    1.8450    0.0000 H   0  0  0  0  0  0  0  0  0  0  0  0
    8.2532    2.5505    0.0000 H   0  0  0  0  0  0  0  0  0  0  0  0
    7.5317    2.9597    0.0000 H   0  0  0  0  0  0  0  0  0  0  0  0
    2.9132   -1.4643    0.0000 H   0  0  0  0  0  0  0  0  0  0  0  0
    1.4643    1.0232    0.0000 H   0  0  0  0  0  0  0  0  0  0  0  0
    1.4643   -0.6425    0.0000 H   0  0  0  0  0  0  0  0  0  0  0  0
    6.9584   -2.8875    0.0000 H   0  0  0  0  0  0  0  0  0  0  0  0
    7.8079   -2.6704    0.0000 H   0  0  0  0  0  0  0  0  0  0  0  0
    7.5908   -1.8209    0.0000 H   0  0  0  0  0  0  0  0  0  0  0  0
    9.3720   -0.8753    0.0000 H   0  0  0  0  0  0  0  0  0  0  0  0
    9.6022   -0.0292    0.0000 H   0  0  0  0  0  0  0  0  0  0  0  0
    8.7562    0.2010    0.0000 H   0  0  0  0  0  0  0  0  0  0  0  0
  1  9  1  0  0  0  0
  1 18  1  0  0  0  0
  2 12  1  0  0  0  0
  2 18  1  0  0  0  0
  3 13  1  0  0  0  0
  3 22  1  0  0  0  0
  4 15  1  0  0  0  0
  4 23  1  0  0  0  0
  5 14  2  0  0  0  0
  6  7  1  0  0  0  0
  6 10  1  0  0  0  0
  6 16  1  0  0  0  0
  7  8  2  0  0  0  0
  7  9  1  0  0  0  0
  8 13  1  0  0  0  0
  8 14  1  0  0  0  0
  9 12  2  0  0  0  0
 10 11  1  0  0  0  0
 10 17  2  0  0  0  0
 11 14  1  0  0  0  0
 11 19  2  0  0  0  0
 12 15  1  0  0  0  0
 13 15  2  0  0  0  0
 16 24  1  0  0  0  0
 16 25  1  0  0  0  0
 16 26  1  0  0  0  0
 17 20  1  0  0  0  0
 17 27  1  0  0  0  0
 18 28  1  0  0  0  0
 18 29  1  0  0  0  0
 19 21  1  0  0  0  0
 19 30  1  0  0  0  0
 20 21  2  0  0  0  0
 20 31  1  0  0  0  0
 21 32  1  0  0  0  0
 22 33  1  0  0  0  0
 22 34  1  0  0  0  0
 22 35  1  0  0  0  0
 23 36  1  0  0  0  0
 23 37  1  0  0  0  0
 23 38  1  0  0  0  0
M  END
> <PUBCHEM_COMPOUND_CID>
68433

> <PUBCHEM_COMPOUND_CANONICALIZED>
1

> <PUBCHEM_CACTVS_COMPLEXITY>
472

> <PUBCHEM_CACTVS_HBOND_ACCEPTOR>
6

> <PUBCHEM_CACTVS_HBOND_DONOR>
0

> <PUBCHEM_CACTVS_ROTATABLE_BOND>
2

> <PUBCHEM_CACTVS_SUBSKEYS>
AAADccB6OAAAAAAAAAAAAAAAAAAAASAAAAA8YIAAAAAAAEixQAAAHgAAAAAADAyBmAcyzoMABACIAqRSQACCCAAlIgAIiAEN7MgfJ37EtZulMepn4B3e6cf6/P/OIUABCgAKUABCgAIUABSgAAAAAAAAAA==

> <PUBCHEM_IUPAC_OPENEYE_NAME>
4,5-dimethoxy-11-methyl-[1,3]dioxolo[4,5-c]acridin-6-one

> <PUBCHEM_IUPAC_CAS_NAME>
4,5-dimethoxy-11-methyl-[1,3]dioxolo[4,5-c]acridin-6-one

> <PUBCHEM_IUPAC_NAME>
4,5-dimethoxy-11-methyl-[1,3]dioxolo[4,5-c]acridin-6-one

> <PUBCHEM_IUPAC_SYSTEMATIC_NAME>
4,5-dimethoxy-11-methyl-[1,3]dioxolo[4,5-c]acridin-6-one

> <PUBCHEM_IUPAC_TRADITIONAL_NAME>
4,5-dimethoxy-11-methyl-[1,3]dioxol[4,5-c]acridin-6-one

> <PUBCHEM_IUPAC_INCHI>
InChI=1S/C17H15NO5/c1-18-10-7-5-4-6-9(10)13(19)11-12(18)15-17(23-8-22-15)16(21-3)14(11)20-2/h4-7H,8H2,1-3H3

> <PUBCHEM_IUPAC_INCHIKEY>
PEWWLIQAXYMMAN-UHFFFAOYSA-N

> <PUBCHEM_XLOGP3_AA>
2.9

> <PUBCHEM_EXACT_MASS>
313.095023

> <PUBCHEM_MOLECULAR_FORMULA>
C17H15NO5

> <PUBCHEM_MOLECULAR_WEIGHT>
313.3047

> <PUBCHEM_OPENEYE_CAN_SMILES>
CN1C2=CC=CC=C2C(=O)C3=C1C4=C(C(=C3OC)OC)OCO4

> <PUBCHEM_OPENEYE_ISO_SMILES>
CN1C2=CC=CC=C2C(=O)C3=C1C4=C(C(=C3OC)OC)OCO4

> <PUBCHEM_CACTVS_TPSA>
57.2

> <PUBCHEM_MONOISOTOPIC_WEIGHT>
313.095023

> <PUBCHEM_TOTAL_CHARGE>
0

> <PUBCHEM_HEAVY_ATOM_COUNT>
23

> <PUBCHEM_ATOM_DEF_STEREO_COUNT>
0

> <PUBCHEM_ATOM_UDEF_STEREO_COUNT>
0

> <PUBCHEM_BOND_DEF_STEREO_COUNT>
0

> <PUBCHEM_BOND_UDEF_STEREO_COUNT>
0

> <PUBCHEM_ISOTOPIC_ATOM_COUNT>
0

> <PUBCHEM_COMPONENT_COUNT>
1

> <PUBCHEM_CACTVS_TAUTO_COUNT>
1

> <PUBCHEM_COORDINATE_TYPE>
1
5
255

> <PUBCHEM_BONDANNOTATIONS>
10  11  8
10  17  8
11  14  8
11  19  8
12  15  8
13  15  8
17  20  8
19  21  8
20  21  8
6  10  8
6  7  8
7  8  8
7  9  8
8  13  8
8  14  8
9  12  8

$$$$

