582761
  -OEChem-06241222442D

 30 31  0     0  0  0  0  0  0999 V2000
    8.5458    2.3684    0.0000 O   0  5  0  0  0  0  0  0  0  0  0  0
    6.8994    2.9065    0.0000 O   0  0  0  0  0  0  0  0  0  0  0  0
    4.6783   -1.1018    0.0000 N   0  0  0  0  0  0  0  0  0  0  0  0
    7.5673    2.1622    0.0000 N   0  3  0  0  0  0  0  0  0  0  0  0
    4.9889   -0.1513    0.0000 C   0  0  0  0  0  0  0  0  0  0  0  0
    5.9674    0.0550    0.0000 C   0  0  0  0  0  0  0  0  0  0  0  0
    6.2781    1.0055    0.0000 C   0  0  0  0  0  0  0  0  0  0  0  0
    3.7320   -1.4065    0.0000 C   0  0  0  0  0  0  0  0  0  0  0  0
    3.7320   -2.4065    0.0000 C   0  0  0  0  0  0  0  0  0  0  0  0
    5.2619   -1.9065    0.0000 C   0  0  0  0  0  0  0  0  0  0  0  0
    4.6783   -2.7112    0.0000 C   0  0  0  0  0  0  0  0  0  0  0  0
    7.2566    1.2117    0.0000 C   0  0  0  0  0  0  0  0  0  0  0  0
    2.8660   -0.9065    0.0000 C   0  0  0  0  0  0  0  0  0  0  0  0
    2.8660   -2.9065    0.0000 C   0  0  0  0  0  0  0  0  0  0  0  0
    2.0000   -1.4065    0.0000 C   0  0  0  0  0  0  0  0  0  0  0  0
    2.0000   -2.4065    0.0000 C   0  0  0  0  0  0  0  0  0  0  0  0
    4.9684    0.4684    0.0000 H   0  0  0  0  0  0  0  0  0  0  0  0
    4.3751   -0.0639    0.0000 H   0  0  0  0  0  0  0  0  0  0  0  0
    5.9880   -0.5647    0.0000 H   0  0  0  0  0  0  0  0  0  0  0  0
    6.5812   -0.0324    0.0000 H   0  0  0  0  0  0  0  0  0  0  0  0
    6.2575    1.6251    0.0000 H   0  0  0  0  0  0  0  0  0  0  0  0
    5.6643    1.0928    0.0000 H   0  0  0  0  0  0  0  0  0  0  0  0
    5.8819   -1.9065    0.0000 H   0  0  0  0  0  0  0  0  0  0  0  0
    7.2772    0.5920    0.0000 H   0  0  0  0  0  0  0  0  0  0  0  0
    7.8704    1.1243    0.0000 H   0  0  0  0  0  0  0  0  0  0  0  0
    4.8709   -3.3006    0.0000 H   0  0  0  0  0  0  0  0  0  0  0  0
    2.8660   -0.2865    0.0000 H   0  0  0  0  0  0  0  0  0  0  0  0
    2.8660   -3.5265    0.0000 H   0  0  0  0  0  0  0  0  0  0  0  0
    1.4631   -1.0965    0.0000 H   0  0  0  0  0  0  0  0  0  0  0  0
    1.4631   -2.7165    0.0000 H   0  0  0  0  0  0  0  0  0  0  0  0
  1  4  1  0  0  0  0
  2  4  2  0  0  0  0
  3  5  1  0  0  0  0
  3  8  1  0  0  0  0
  3 10  1  0  0  0  0
  4 12  1  0  0  0  0
  5  6  1  0  0  0  0
  5 17  1  0  0  0  0
  5 18  1  0  0  0  0
  6  7  1  0  0  0  0
  6 19  1  0  0  0  0
  6 20  1  0  0  0  0
  7 12  1  0  0  0  0
  7 21  1  0  0  0  0
  7 22  1  0  0  0  0
  8  9  1  0  0  0  0
  8 13  2  0  0  0  0
  9 11  1  0  0  0  0
  9 14  2  0  0  0  0
 10 11  2  0  0  0  0
 10 23  1  0  0  0  0
 11 26  1  0  0  0  0
 12 24  1  0  0  0  0
 12 25  1  0  0  0  0
 13 15  1  0  0  0  0
 13 27  1  0  0  0  0
 14 16  1  0  0  0  0
 14 28  1  0  0  0  0
 15 16  2  0  0  0  0
 15 29  1  0  0  0  0
 16 30  1  0  0  0  0
M  CHG  2   1  -1   4   1
M  END
> <PUBCHEM_COMPOUND_CID>
582761

> <PUBCHEM_COMPOUND_CANONICALIZED>
1

> <PUBCHEM_CACTVS_COMPLEXITY>
240

> <PUBCHEM_CACTVS_HBOND_ACCEPTOR>
2

> <PUBCHEM_CACTVS_HBOND_DONOR>
0

> <PUBCHEM_CACTVS_ROTATABLE_BOND>
4

> <PUBCHEM_CACTVS_SUBSKEYS>
AAADccBzMAAAAAAAAAAAAAAAAAAAAWAAAAAwAAAAAAAAAFgB8AAAHAAEAAAADAjBHgQ8wPMcUAChAzRnRwCCgCAxAiAo2CA4ZJgIIOLAkZGEIAhggADIyAcQgIAOAAAAAAACAAAAAAAAAAQAAAAAAAAAAA==

> <PUBCHEM_IUPAC_OPENEYE_NAME>
1-(4-nitrobutyl)indole

> <PUBCHEM_IUPAC_CAS_NAME>
1-(4-nitrobutyl)indole

> <PUBCHEM_IUPAC_NAME>
1-(4-nitrobutyl)indole

> <PUBCHEM_IUPAC_SYSTEMATIC_NAME>
1-(4-nitrobutyl)indole

> <PUBCHEM_IUPAC_TRADITIONAL_NAME>
1-(4-nitrobutyl)indole

> <PUBCHEM_IUPAC_INCHI>
InChI=1S/C12H14N2O2/c15-14(16)9-4-3-8-13-10-7-11-5-1-2-6-12(11)13/h1-2,5-7,10H,3-4,8-9H2

> <PUBCHEM_IUPAC_INCHIKEY>
TYANSGWGHIKALD-UHFFFAOYSA-N

> <PUBCHEM_XLOGP3>
3.2

> <PUBCHEM_EXACT_MASS>
218.105528

> <PUBCHEM_MOLECULAR_FORMULA>
C12H14N2O2

> <PUBCHEM_MOLECULAR_WEIGHT>
218.25176

> <PUBCHEM_OPENEYE_CAN_SMILES>
C1=CC=C2C(=C1)C=CN2CCCC[N+](=O)[O-]

> <PUBCHEM_OPENEYE_ISO_SMILES>
C1=CC=C2C(=C1)C=CN2CCCC[N+](=O)[O-]

> <PUBCHEM_CACTVS_TPSA>
50.8

> <PUBCHEM_MONOISOTOPIC_WEIGHT>
218.105528

> <PUBCHEM_TOTAL_CHARGE>
0

> <PUBCHEM_HEAVY_ATOM_COUNT>
16

> <PUBCHEM_ATOM_DEF_STEREO_COUNT>
0

> <PUBCHEM_ATOM_UDEF_STEREO_COUNT>
0

> <PUBCHEM_BOND_DEF_STEREO_COUNT>
0

> <PUBCHEM_BOND_UDEF_STEREO_COUNT>
0

> <PUBCHEM_ISOTOPIC_ATOM_COUNT>
0

> <PUBCHEM_COMPONENT_COUNT>
1

> <PUBCHEM_CACTVS_TAUTO_COUNT>
2

> <PUBCHEM_COORDINATE_TYPE>
1
5
255

> <PUBCHEM_BONDANNOTATIONS>
10  11  8
13  15  8
14  16  8
15  16  8
3  10  8
3  8  8
8  13  8
8  9  8
9  11  8
9  14  8

$$$$

