443964
  -OEChem-07051213032D

 16 16  0     1  0  0  0  0  0999 V2000
    6.0010    0.3450    0.0000 Cl  0  0  0  0  0  0  0  0  0  0  0  0
    4.2690    1.3450    0.0000 O   0  0  0  0  0  0  0  0  0  0  0  0
    2.5369    0.3450    0.0000 O   0  0  0  0  0  0  0  0  0  0  0  0
    4.2690    0.3450    0.0000 C   0  0  2  0  0  0  0  0  0  0  0  0
    3.4030   -0.1550    0.0000 C   0  0  1  0  0  0  0  0  0  0  0  0
    5.1350   -0.1550    0.0000 C   0  0  0  0  0  0  0  0  0  0  0  0
    3.4030   -1.1550    0.0000 C   0  0  0  0  0  0  0  0  0  0  0  0
    5.1350   -1.1550    0.0000 C   0  0  0  0  0  0  0  0  0  0  0  0
    4.2690   -1.6550    0.0000 C   0  0  0  0  0  0  0  0  0  0  0  0
    4.8059    0.6550    0.0000 H   0  0  0  0  0  0  0  0  0  0  0  0
    3.4030    0.4650    0.0000 H   0  0  0  0  0  0  0  0  0  0  0  0
    2.8660   -1.4650    0.0000 H   0  0  0  0  0  0  0  0  0  0  0  0
    5.6720   -1.4650    0.0000 H   0  0  0  0  0  0  0  0  0  0  0  0
    4.2690   -2.2750    0.0000 H   0  0  0  0  0  0  0  0  0  0  0  0
    4.8059    1.6550    0.0000 H   0  0  0  0  0  0  0  0  0  0  0  0
    2.0000    0.0350    0.0000 H   0  0  0  0  0  0  0  0  0  0  0  0
  1  6  1  0  0  0  0
  4  2  1  1  0  0  0
  2 15  1  0  0  0  0
  5  3  1  1  0  0  0
  3 16  1  0  0  0  0
  4  5  1  0  0  0  0
  4  6  1  0  0  0  0
  4 10  1  0  0  0  0
  5  7  1  0  0  0  0
  5 11  1  0  0  0  0
  6  8  2  0  0  0  0
  7  9  2  0  0  0  0
  7 12  1  0  0  0  0
  8  9  1  0  0  0  0
  8 13  1  0  0  0  0
  9 14  1  0  0  0  0
M  END
> <PUBCHEM_COMPOUND_CID>
443964

> <PUBCHEM_COMPOUND_CANONICALIZED>
1

> <PUBCHEM_CACTVS_COMPLEXITY>
162

> <PUBCHEM_CACTVS_HBOND_ACCEPTOR>
2

> <PUBCHEM_CACTVS_HBOND_DONOR>
2

> <PUBCHEM_CACTVS_ROTATABLE_BOND>
0

> <PUBCHEM_CACTVS_SUBSKEYS>
AAADcYBgMAAEAAAAAAAAAAAAAAAAAAAAAAAgAAAAAAAAAAAAAAAAGgIACAAACBaggAIAAAAAAgCAACBCAAAAAAAgAAAICAAAAwgJFAABAQAAUAAAwAAJkAIAAAAAAAAAAAAAAAAAAAAAAAAAAAAAAAAAAA==

> <PUBCHEM_IUPAC_OPENEYE_NAME>
(1R,2R)-3-chlorocyclohexa-3,5-diene-1,2-diol

> <PUBCHEM_IUPAC_CAS_NAME>
(1R,2R)-3-chlorocyclohexa-3,5-diene-1,2-diol

> <PUBCHEM_IUPAC_NAME>
(1R,2R)-3-chlorocyclohexa-3,5-diene-1,2-diol

> <PUBCHEM_IUPAC_SYSTEMATIC_NAME>
(1R,2R)-3-chloranylcyclohexa-3,5-diene-1,2-diol

> <PUBCHEM_IUPAC_TRADITIONAL_NAME>
(1R,2R)-3-chlorocyclohexa-3,5-diene-1,2-diol

> <PUBCHEM_IUPAC_INCHI>
InChI=1S/C6H7ClO2/c7-4-2-1-3-5(8)6(4)9/h1-3,5-6,8-9H/t5-,6+/m1/s1

> <PUBCHEM_IUPAC_INCHIKEY>
CEKJBAXHIQWXBY-RITPCOANSA-N

> <PUBCHEM_XLOGP3_AA>
0.3

> <PUBCHEM_EXACT_MASS>
146.013457

> <PUBCHEM_MOLECULAR_FORMULA>
C6H7ClO2

> <PUBCHEM_MOLECULAR_WEIGHT>
146.57158

> <PUBCHEM_OPENEYE_CAN_SMILES>
C1=CC(C(C(=C1)Cl)O)O

> <PUBCHEM_OPENEYE_ISO_SMILES>
C1=C[C@H]([C@H](C(=C1)Cl)O)O

> <PUBCHEM_CACTVS_TPSA>
40.5

> <PUBCHEM_MONOISOTOPIC_WEIGHT>
146.013457

> <PUBCHEM_TOTAL_CHARGE>
0

> <PUBCHEM_HEAVY_ATOM_COUNT>
9

> <PUBCHEM_ATOM_DEF_STEREO_COUNT>
2

> <PUBCHEM_ATOM_UDEF_STEREO_COUNT>
0

> <PUBCHEM_BOND_DEF_STEREO_COUNT>
0

> <PUBCHEM_BOND_UDEF_STEREO_COUNT>
0

> <PUBCHEM_ISOTOPIC_ATOM_COUNT>
0

> <PUBCHEM_COMPONENT_COUNT>
1

> <PUBCHEM_CACTVS_TAUTO_COUNT>
1

> <PUBCHEM_COORDINATE_TYPE>
1
5
255

> <PUBCHEM_BONDANNOTATIONS>
4  2  5
5  3  5

$$$$

