11969542
  -OEChem-07051213093D

 66 71  0     1  0  0  0  0  0999 V2000
    0.3887   -2.0647    0.9101 O   0  0  0  0  0  0  0  0  0  0  0  0
    2.8847   -1.8490   -0.0911 O   0  0  0  0  0  0  0  0  0  0  0  0
   -6.7797    0.8892   -1.3728 O   0  0  0  0  0  0  0  0  0  0  0  0
    4.3460    2.8131    0.3728 O   0  0  0  0  0  0  0  0  0  0  0  0
    2.3845   -3.9394   -0.9380 O   0  0  0  0  0  0  0  0  0  0  0  0
    6.5649    2.8903   -0.1148 O   0  0  0  0  0  0  0  0  0  0  0  0
   -0.2075   -0.8428    0.3983 C   0  0  1  0  0  0  0  0  0  0  0  0
    0.6737    0.3941    0.5752 C   0  0  1  0  0  0  0  0  0  0  0  0
    0.5195   -1.8272   -0.4826 C   0  0  1  0  0  0  0  0  0  0  0  0
   -1.6837   -0.8135    0.7479 C   0  0  1  0  0  0  0  0  0  0  0  0
   -2.3426    0.5487    0.4023 C   0  0  1  0  0  0  0  0  0  0  0  0
    1.7108    0.2493   -0.6127 C   0  0  2  0  0  0  0  0  0  0  0  0
    1.8541   -1.2693   -0.8813 C   0  0  1  0  0  0  0  0  0  0  0  0
   -3.8694    0.5984    0.7909 C   0  0  2  0  0  0  0  0  0  0  0  0
   -0.1163    1.7070    0.3840 C   0  0  0  0  0  0  0  0  0  0  0  0
   -1.5005    1.6802    1.0247 C   0  0  0  0  0  0  0  0  0  0  0  0
   -2.4617   -1.9778    0.1152 C   0  0  0  0  0  0  0  0  0  0  0  0
   -4.6169   -0.6091    0.1353 C   0  0  2  0  0  0  0  0  0  0  0  0
    1.3302    0.3868    1.9708 C   0  0  0  0  0  0  0  0  0  0  0  0
   -3.9452   -1.9507    0.4661 C   0  0  0  0  0  0  0  0  0  0  0  0
   -4.5621    1.9136    0.3244 C   0  0  0  0  0  0  0  0  0  0  0  0
    3.0028    0.9856   -0.4599 C   0  0  0  0  0  0  0  0  0  0  0  0
   -4.7727   -0.4573   -1.3973 C   0  0  0  0  0  0  0  0  0  0  0  0
   -4.0511    0.5448    2.3306 C   0  0  0  0  0  0  0  0  0  0  0  0
   -4.6869    2.0521   -1.1916 C   0  0  0  0  0  0  0  0  0  0  0  0
   -5.4202    0.8642   -1.8025 C   0  0  2  0  0  0  0  0  0  0  0  0
    4.1802    0.4460   -1.0886 C   0  0  0  0  0  0  0  0  0  0  0  0
    3.1336    2.1234    0.2296 C   0  0  0  0  0  0  0  0  0  0  0  0
    3.0429   -3.2020   -0.2169 C   0  0  0  0  0  0  0  0  0  0  0  0
    5.3599    1.0652   -0.9824 C   0  0  0  0  0  0  0  0  0  0  0  0
    4.1578   -3.6705    0.6681 C   0  0  0  0  0  0  0  0  0  0  0  0
    5.4825    2.3215   -0.2138 C   0  0  0  0  0  0  0  0  0  0  0  0
    0.0052   -2.4388   -1.2032 H   0  0  0  0  0  0  0  0  0  0  0  0
   -1.7284   -0.9447    1.8371 H   0  0  0  0  0  0  0  0  0  0  0  0
   -2.2717    0.6680   -0.6871 H   0  0  0  0  0  0  0  0  0  0  0  0
    1.2280    0.6424   -1.5217 H   0  0  0  0  0  0  0  0  0  0  0  0
    2.0527   -1.4530   -1.9450 H   0  0  0  0  0  0  0  0  0  0  0  0
   -0.2557    1.9217   -0.6835 H   0  0  0  0  0  0  0  0  0  0  0  0
    0.4074    2.5720    0.7960 H   0  0  0  0  0  0  0  0  0  0  0  0
   -1.4097    1.5547    2.1094 H   0  0  0  0  0  0  0  0  0  0  0  0
   -1.9626    2.6557    0.8504 H   0  0  0  0  0  0  0  0  0  0  0  0
   -2.0460   -2.9356    0.4516 H   0  0  0  0  0  0  0  0  0  0  0  0
   -2.3392   -1.9622   -0.9741 H   0  0  0  0  0  0  0  0  0  0  0  0
   -5.6335   -0.6505    0.5524 H   0  0  0  0  0  0  0  0  0  0  0  0
    0.5852    0.1336    2.7356 H   0  0  0  0  0  0  0  0  0  0  0  0
    2.1200   -0.3681    2.0475 H   0  0  0  0  0  0  0  0  0  0  0  0
    1.7500    1.3472    2.2756 H   0  0  0  0  0  0  0  0  0  0  0  0
   -4.4558   -2.7651   -0.0625 H   0  0  0  0  0  0  0  0  0  0  0  0
   -4.0640   -2.1687    1.5341 H   0  0  0  0  0  0  0  0  0  0  0  0
   -4.0513    2.7953    0.7244 H   0  0  0  0  0  0  0  0  0  0  0  0
   -5.5740    1.9542    0.7519 H   0  0  0  0  0  0  0  0  0  0  0  0
   -3.8025   -0.5377   -1.8987 H   0  0  0  0  0  0  0  0  0  0  0  0
   -5.3918   -1.2847   -1.7667 H   0  0  0  0  0  0  0  0  0  0  0  0
   -3.5740   -0.3254    2.7875 H   0  0  0  0  0  0  0  0  0  0  0  0
   -3.6388    1.4378    2.8126 H   0  0  0  0  0  0  0  0  0  0  0  0
   -5.1142    0.5013    2.5963 H   0  0  0  0  0  0  0  0  0  0  0  0
   -5.2325    2.9780   -1.4103 H   0  0  0  0  0  0  0  0  0  0  0  0
   -3.6940    2.1528   -1.6433 H   0  0  0  0  0  0  0  0  0  0  0  0
   -5.4235    0.9479   -2.8949 H   0  0  0  0  0  0  0  0  0  0  0  0
    4.1295   -0.4359   -1.7154 H   0  0  0  0  0  0  0  0  0  0  0  0
    2.3828    2.7004    0.7359 H   0  0  0  0  0  0  0  0  0  0  0  0
   -7.1675    1.7291   -1.6723 H   0  0  0  0  0  0  0  0  0  0  0  0
    6.2460    0.6794   -1.4732 H   0  0  0  0  0  0  0  0  0  0  0  0
    3.9196   -3.4482    1.7113 H   0  0  0  0  0  0  0  0  0  0  0  0
    5.0919   -3.1852    0.3744 H   0  0  0  0  0  0  0  0  0  0  0  0
    4.2773   -4.7523    0.5601 H   0  0  0  0  0  0  0  0  0  0  0  0
  1  7  1  0  0  0  0
  1  9  1  0  0  0  0
  2 13  1  0  0  0  0
  2 29  1  0  0  0  0
  3 26  1  0  0  0  0
  3 62  1  0  0  0  0
  4 28  1  0  0  0  0
  4 32  1  0  0  0  0
  5 29  2  0  0  0  0
  6 32  2  0  0  0  0
  7  8  1  0  0  0  0
  7  9  1  0  0  0  0
  7 10  1  0  0  0  0
  8 12  1  0  0  0  0
  8 15  1  0  0  0  0
  8 19  1  0  0  0  0
  9 13  1  0  0  0  0
  9 33  1  0  0  0  0
 10 11  1  0  0  0  0
 10 17  1  0  0  0  0
 10 34  1  0  0  0  0
 11 14  1  0  0  0  0
 11 16  1  0  0  0  0
 11 35  1  0  0  0  0
 12 13  1  0  0  0  0
 12 22  1  0  0  0  0
 12 36  1  0  0  0  0
 13 37  1  0  0  0  0
 14 18  1  0  0  0  0
 14 21  1  0  0  0  0
 14 24  1  0  0  0  0
 15 16  1  0  0  0  0
 15 38  1  0  0  0  0
 15 39  1  0  0  0  0
 16 40  1  0  0  0  0
 16 41  1  0  0  0  0
 17 20  1  0  0  0  0
 17 42  1  0  0  0  0
 17 43  1  0  0  0  0
 18 20  1  0  0  0  0
 18 23  1  0  0  0  0
 18 44  1  0  0  0  0
 19 45  1  0  0  0  0
 19 46  1  0  0  0  0
 19 47  1  0  0  0  0
 20 48  1  0  0  0  0
 20 49  1  0  0  0  0
 21 25  1  0  0  0  0
 21 50  1  0  0  0  0
 21 51  1  0  0  0  0
 22 27  1  0  0  0  0
 22 28  2  0  0  0  0
 23 26  1  0  0  0  0
 23 52  1  0  0  0  0
 23 53  1  0  0  0  0
 24 54  1  0  0  0  0
 24 55  1  0  0  0  0
 24 56  1  0  0  0  0
 25 26  1  0  0  0  0
 25 57  1  0  0  0  0
 25 58  1  0  0  0  0
 26 59  1  0  0  0  0
 27 30  2  0  0  0  0
 27 60  1  0  0  0  0
 28 61  1  0  0  0  0
 29 31  1  0  0  0  0
 30 32  1  0  0  0  0
 30 63  1  0  0  0  0
 31 64  1  0  0  0  0
 31 65  1  0  0  0  0
 31 66  1  0  0  0  0
M  END
> <PUBCHEM_COMPOUND_CID>
11969542

> <PUBCHEM_CONFORMER_RMSD>
0.8

> <PUBCHEM_CONFORMER_DIVERSEORDER>
1
3
4
2

> <PUBCHEM_MMFF94_PARTIAL_CHARGES>
25
1 -0.3
10 0.09
12 0.14
13 0.38
2 -0.43
22 -0.14
26 0.28
27 -0.15
28 -0.07
29 0.66
3 -0.68
30 -0.14
31 0.06
32 0.71
33 0.1
4 -0.23
5 -0.57
6 -0.57
60 0.15
61 0.15
62 0.4
63 0.15
7 -0.04
8 0.09
9 -0.05

> <PUBCHEM_EFFECTIVE_ROTOR_COUNT>
5.2

> <PUBCHEM_PHARMACOPHORE_FEATURES>
10
1 1 acceptor
1 3 acceptor
1 3 donor
1 5 acceptor
1 6 acceptor
6 1 7 8 9 12 13 rings
6 10 11 14 17 18 20 rings
6 14 18 21 23 25 26 rings
6 4 22 27 28 30 32 rings
6 7 8 10 11 15 16 rings

> <PUBCHEM_HEAVY_ATOM_COUNT>
32

> <PUBCHEM_ATOM_DEF_STEREO_COUNT>
10

> <PUBCHEM_ATOM_UDEF_STEREO_COUNT>
0

> <PUBCHEM_BOND_DEF_STEREO_COUNT>
0

> <PUBCHEM_BOND_UDEF_STEREO_COUNT>
0

> <PUBCHEM_ISOTOPIC_ATOM_COUNT>
0

> <PUBCHEM_COMPONENT_COUNT>
1

> <PUBCHEM_CACTVS_TAUTO_COUNT>
1

> <PUBCHEM_CONFORMER_ID>
00B6A40600000001

> <PUBCHEM_MMFF94_ENERGY>
117.3356

> <PUBCHEM_FEATURE_SELFOVERLAP>
50.88

> <PUBCHEM_SHAPE_FINGERPRINT>
10675989 125 18198063770944004403
1100329 8 17689141736142825024
11135926 11 18408315592805774020
11578080 2 17988931118801328629
12422481 6 18201736063019705544
12788726 201 16879333714225077361
131258 43 17388241602333223614
13140716 1 18338501045491365443
13224815 77 18408318895909788571
13540713 4 18201141213933389467
13540713 5 17896590876747417609
13631057 29 18043810879865821887
13782708 43 5906056924200588332
13911987 19 18337384920693029540
14790565 3 18193830454051988076
15183329 4 18410571782403278300
15927050 60 18263919935725822566
17349148 13 17969504994738667587
18608769 82 18268708325954413579
19304671 126 17699036147108666341
20197701 30 18263359201547400374
20554085 129 18115887234679433240
21033648 144 18411132537459320815
21033648 29 17561077025688130261
21279426 13 18409439281252670598
21859007 373 17201935927160967037
22182313 1 18059273436240288377
22393880 68 18041562438194082679
23559900 14 18337109098188439282
23569914 152 17248072659212991669
24771293 8 18043251439465235978
25147074 1 17895470449013739481
32027 91 18057041521899285514
4015057 19 18338519754595227201
4058900 60 18271799087188476906
4098825 35 18412546548579029653
4149490 64 18343582958502471411
46194498 28 18266467688312247431
469060 322 17984682439001114219
5104073 3 18341598357009277195
5265222 85 17979905022645838684
6376802 90 18060422408996742699
9981440 41 18268703914485008906

> <PUBCHEM_SHAPE_MULTIPOLES>
623.33
13.72
3.73
1.47
1.77
2.48
0.21
-7.58
-4.46
-5.82
-0.09
1.6
-0.24
0.33

> <PUBCHEM_SHAPE_SELFOVERLAP>
1359.515

> <PUBCHEM_SHAPE_VOLUME>
333.8

> <PUBCHEM_COORDINATE_TYPE>
2
5
10

$$$$

