4440
  -OEChem-07051212542D

 48 50  0     0  0  0  0  0  0999 V2000
    3.7320   -0.6064    0.0000 S   0  0  0  0  0  0  0  0  0  0  0  0
    3.2320   -1.4724    0.0000 O   0  0  0  0  0  0  0  0  0  0  0  0
    4.2320    0.2596    0.0000 O   0  0  0  0  0  0  0  0  0  0  0  0
    9.9404    2.0499    0.0000 N   0  0  0  0  0  0  0  0  0  0  0  0
    9.0084   -2.4111    0.0000 N   0  0  0  0  0  0  0  0  0  0  0  0
    2.8660   -0.1064    0.0000 N   0  0  0  0  0  0  0  0  0  0  0  0
    9.3191    0.1489    0.0000 C   0  0  0  0  0  0  0  0  0  0  0  0
    8.6512    0.8932    0.0000 C   0  0  0  0  0  0  0  0  0  0  0  0
   10.2976    0.3551    0.0000 C   0  0  0  0  0  0  0  0  0  0  0  0
    8.9619    1.8437    0.0000 C   0  0  0  0  0  0  0  0  0  0  0  0
   10.6082    1.3056    0.0000 C   0  0  0  0  0  0  0  0  0  0  0  0
    9.0084   -0.8016    0.0000 C   0  0  0  0  0  0  0  0  0  0  0  0
    8.0622   -1.1064    0.0000 C   0  0  0  0  0  0  0  0  0  0  0  0
    9.5920   -1.6064    0.0000 C   0  0  0  0  0  0  0  0  0  0  0  0
    8.0622   -2.1064    0.0000 C   0  0  0  0  0  0  0  0  0  0  0  0
   10.2510    3.0004    0.0000 C   0  0  0  0  0  0  0  0  0  0  0  0
    7.1962   -0.6064    0.0000 C   0  0  0  0  0  0  0  0  0  0  0  0
    6.3301   -1.1064    0.0000 C   0  0  0  0  0  0  0  0  0  0  0  0
    7.1962   -2.6064    0.0000 C   0  0  0  0  0  0  0  0  0  0  0  0
    5.4641   -0.6064    0.0000 C   0  0  0  0  0  0  0  0  0  0  0  0
    6.3301   -2.1064    0.0000 C   0  0  0  0  0  0  0  0  0  0  0  0
    4.5981   -1.1064    0.0000 C   0  0  0  0  0  0  0  0  0  0  0  0
    2.0000   -0.6064    0.0000 C   0  0  0  0  0  0  0  0  0  0  0  0
    9.7331   -0.3126    0.0000 H   0  0  0  0  0  0  0  0  0  0  0  0
   10.3181   -0.2646    0.0000 H   0  0  0  0  0  0  0  0  0  0  0  0
   10.9114    0.2677    0.0000 H   0  0  0  0  0  0  0  0  0  0  0  0
    8.1043    1.1852    0.0000 H   0  0  0  0  0  0  0  0  0  0  0  0
    8.2687    0.4053    0.0000 H   0  0  0  0  0  0  0  0  0  0  0  0
   11.1552    1.0136    0.0000 H   0  0  0  0  0  0  0  0  0  0  0  0
   10.9908    1.7935    0.0000 H   0  0  0  0  0  0  0  0  0  0  0  0
    8.9413    2.4634    0.0000 H   0  0  0  0  0  0  0  0  0  0  0  0
    8.3481    1.9310    0.0000 H   0  0  0  0  0  0  0  0  0  0  0  0
   10.2120   -1.6064    0.0000 H   0  0  0  0  0  0  0  0  0  0  0  0
   10.8404    2.8078    0.0000 H   0  0  0  0  0  0  0  0  0  0  0  0
   10.4437    3.5898    0.0000 H   0  0  0  0  0  0  0  0  0  0  0  0
    9.6617    3.1930    0.0000 H   0  0  0  0  0  0  0  0  0  0  0  0
    9.2010   -3.0004    0.0000 H   0  0  0  0  0  0  0  0  0  0  0  0
    7.1962    0.0136    0.0000 H   0  0  0  0  0  0  0  0  0  0  0  0
    7.1962   -3.2264    0.0000 H   0  0  0  0  0  0  0  0  0  0  0  0
    5.8626   -0.1314    0.0000 H   0  0  0  0  0  0  0  0  0  0  0  0
    5.0656   -0.1314    0.0000 H   0  0  0  0  0  0  0  0  0  0  0  0
    5.7932   -2.4164    0.0000 H   0  0  0  0  0  0  0  0  0  0  0  0
    4.1996   -1.5813    0.0000 H   0  0  0  0  0  0  0  0  0  0  0  0
    4.9966   -1.5813    0.0000 H   0  0  0  0  0  0  0  0  0  0  0  0
    2.8660    0.5136    0.0000 H   0  0  0  0  0  0  0  0  0  0  0  0
    1.6900   -0.0694    0.0000 H   0  0  0  0  0  0  0  0  0  0  0  0
    1.4631   -0.9164    0.0000 H   0  0  0  0  0  0  0  0  0  0  0  0
    2.3100   -1.1433    0.0000 H   0  0  0  0  0  0  0  0  0  0  0  0
  1  2  2  0  0  0  0
  1  3  2  0  0  0  0
  1  6  1  0  0  0  0
  1 22  1  0  0  0  0
  4 10  1  0  0  0  0
  4 11  1  0  0  0  0
  4 16  1  0  0  0  0
  5 14  1  0  0  0  0
  5 15  1  0  0  0  0
  5 37  1  0  0  0  0
  6 23  1  0  0  0  0
  6 45  1  0  0  0  0
  7  8  1  0  0  0  0
  7  9  1  0  0  0  0
  7 12  1  0  0  0  0
  7 24  1  0  0  0  0
  8 10  1  0  0  0  0
  8 27  1  0  0  0  0
  8 28  1  0  0  0  0
  9 11  1  0  0  0  0
  9 25  1  0  0  0  0
  9 26  1  0  0  0  0
 10 31  1  0  0  0  0
 10 32  1  0  0  0  0
 11 29  1  0  0  0  0
 11 30  1  0  0  0  0
 12 13  1  0  0  0  0
 12 14  2  0  0  0  0
 13 15  2  0  0  0  0
 13 17  1  0  0  0  0
 14 33  1  0  0  0  0
 15 19  1  0  0  0  0
 16 34  1  0  0  0  0
 16 35  1  0  0  0  0
 16 36  1  0  0  0  0
 17 18  2  0  0  0  0
 17 38  1  0  0  0  0
 18 20  1  0  0  0  0
 18 21  1  0  0  0  0
 19 21  2  0  0  0  0
 19 39  1  0  0  0  0
 20 22  1  0  0  0  0
 20 40  1  0  0  0  0
 20 41  1  0  0  0  0
 21 42  1  0  0  0  0
 22 43  1  0  0  0  0
 22 44  1  0  0  0  0
 23 46  1  0  0  0  0
 23 47  1  0  0  0  0
 23 48  1  0  0  0  0
M  END
> <PUBCHEM_COMPOUND_CID>
4440

> <PUBCHEM_COMPOUND_CANONICALIZED>
1

> <PUBCHEM_CACTVS_COMPLEXITY>
483

> <PUBCHEM_CACTVS_HBOND_ACCEPTOR>
4

> <PUBCHEM_CACTVS_HBOND_DONOR>
2

> <PUBCHEM_CACTVS_ROTATABLE_BOND>
5

> <PUBCHEM_CACTVS_SUBSKEYS>
AAADceB7MABAAAAAAAAAAAAAAAAAAWAAAAA8QAAAAAAAAFgB8AAAHAQQQAAADQjFXgS+wPPJkAKgAzRnRHDCgCAxAiAI2aA4ZJgIIOLAkZGEIAhgkADIyAcQgMAOiAACAAACAAAQAAQAAAQAAAAAAAAAAA==

> <PUBCHEM_IUPAC_OPENEYE_NAME>
N-methyl-2-[3-(1-methyl-4-piperidyl)-1H-indol-5-yl]ethanesulfonamide

> <PUBCHEM_IUPAC_CAS_NAME>
N-methyl-2-[3-(1-methyl-4-piperidinyl)-1H-indol-5-yl]ethanesulfonamide

> <PUBCHEM_IUPAC_NAME>
N-methyl-2-[3-(1-methylpiperidin-4-yl)-1H-indol-5-yl]ethanesulfonamide

> <PUBCHEM_IUPAC_SYSTEMATIC_NAME>
N-methyl-2-[3-(1-methylpiperidin-4-yl)-1H-indol-5-yl]ethanesulfonamide

> <PUBCHEM_IUPAC_TRADITIONAL_NAME>
N-methyl-2-[3-(1-methyl-4-piperidyl)-1H-indol-5-yl]ethanesulfonamide

> <PUBCHEM_IUPAC_INCHI>
InChI=1S/C17H25N3O2S/c1-18-23(21,22)10-7-13-3-4-17-15(11-13)16(12-19-17)14-5-8-20(2)9-6-14/h3-4,11-12,14,18-19H,5-10H2,1-2H3

> <PUBCHEM_IUPAC_INCHIKEY>
AMKVXSZCKVJAGH-UHFFFAOYSA-N

> <PUBCHEM_XLOGP3_AA>
2

> <PUBCHEM_EXACT_MASS>
335.166748

> <PUBCHEM_MOLECULAR_FORMULA>
C17H25N3O2S

> <PUBCHEM_MOLECULAR_WEIGHT>
335.4643

> <PUBCHEM_OPENEYE_CAN_SMILES>
CNS(=O)(=O)CCC1=CC2=C(C=C1)NC=C2C3CCN(CC3)C

> <PUBCHEM_OPENEYE_ISO_SMILES>
CNS(=O)(=O)CCC1=CC2=C(C=C1)NC=C2C3CCN(CC3)C

> <PUBCHEM_CACTVS_TPSA>
73.6

> <PUBCHEM_MONOISOTOPIC_WEIGHT>
335.166748

> <PUBCHEM_TOTAL_CHARGE>
0

> <PUBCHEM_HEAVY_ATOM_COUNT>
23

> <PUBCHEM_ATOM_DEF_STEREO_COUNT>
0

> <PUBCHEM_ATOM_UDEF_STEREO_COUNT>
0

> <PUBCHEM_BOND_DEF_STEREO_COUNT>
0

> <PUBCHEM_BOND_UDEF_STEREO_COUNT>
0

> <PUBCHEM_ISOTOPIC_ATOM_COUNT>
0

> <PUBCHEM_COMPONENT_COUNT>
1

> <PUBCHEM_CACTVS_TAUTO_COUNT>
1

> <PUBCHEM_COORDINATE_TYPE>
1
5
255

> <PUBCHEM_BONDANNOTATIONS>
12  13  8
12  14  8
13  15  8
13  17  8
15  19  8
17  18  8
18  21  8
19  21  8
5  14  8
5  15  8

$$$$

