56928086
  -OEChem-07051213093D

 46 49  0     1  0  0  0  0  0999 V2000
    0.1559    0.0816    2.1620 O   0  0  0  0  0  0  0  0  0  0  0  0
   -3.3445   -2.8892    0.1352 O   0  0  0  0  0  0  0  0  0  0  0  0
    1.6962   -0.3445   -0.5688 N   0  0  1  0  0  0  0  0  0  0  0  0
   -3.1260    2.5716   -0.6974 N   0  0  0  0  0  0  0  0  0  0  0  0
    3.8167   -0.2158    0.9348 C   0  0  1  0  0  0  0  0  0  0  0  0
    4.1657    0.0910   -0.5418 C   0  0  2  0  0  0  0  0  0  0  0  0
    2.7585    0.8127    1.3808 C   0  0  0  0  0  0  0  0  0  0  0  0
    1.5810    0.7798    0.3920 C   0  0  2  0  0  0  0  0  0  0  0  0
    3.1552   -1.6010    1.0303 C   0  0  0  0  0  0  0  0  0  0  0  0
    2.8983   -0.1086   -1.4092 C   0  0  0  0  0  0  0  0  0  0  0  0
    1.8999   -1.6279    0.1455 C   0  0  0  0  0  0  0  0  0  0  0  0
    0.2574    0.6723    1.0893 C   0  0  0  0  0  0  0  0  0  0  0  0
    5.3187   -0.7247   -1.0445 C   0  0  0  0  0  0  0  0  0  0  0  0
   -0.9435    1.2951    0.4642 C   0  0  0  0  0  0  0  0  0  0  0  0
    6.4712   -0.2035   -1.4787 C   0  0  0  0  0  0  0  0  0  0  0  0
   -2.0759    0.5543    0.0995 C   0  0  0  0  0  0  0  0  0  0  0  0
   -0.9065    2.6650    0.2478 C   0  0  0  0  0  0  0  0  0  0  0  0
   -3.1592    1.2423   -0.4864 C   0  0  0  0  0  0  0  0  0  0  0  0
   -2.1448   -0.8340    0.3053 C   0  0  0  0  0  0  0  0  0  0  0  0
   -2.0144    3.2499   -0.3310 C   0  0  0  0  0  0  0  0  0  0  0  0
   -4.2837    0.5059   -0.8485 C   0  0  0  0  0  0  0  0  0  0  0  0
   -3.2819   -1.5456   -0.0663 C   0  0  0  0  0  0  0  0  0  0  0  0
   -4.3524   -0.8744   -0.6440 C   0  0  0  0  0  0  0  0  0  0  0  0
   -4.5418   -3.5523   -0.2701 C   0  0  0  0  0  0  0  0  0  0  0  0
    4.7006   -0.1603    1.5799 H   0  0  0  0  0  0  0  0  0  0  0  0
    4.4408    1.1545   -0.5984 H   0  0  0  0  0  0  0  0  0  0  0  0
    2.4656    0.6128    2.4175 H   0  0  0  0  0  0  0  0  0  0  0  0
    3.2059    1.8150    1.3764 H   0  0  0  0  0  0  0  0  0  0  0  0
    1.5881    1.7226   -0.1693 H   0  0  0  0  0  0  0  0  0  0  0  0
    2.8754   -1.8061    2.0710 H   0  0  0  0  0  0  0  0  0  0  0  0
    3.8500   -2.3923    0.7293 H   0  0  0  0  0  0  0  0  0  0  0  0
    2.7351    0.7819   -2.0306 H   0  0  0  0  0  0  0  0  0  0  0  0
    3.0118   -0.9368   -2.1213 H   0  0  0  0  0  0  0  0  0  0  0  0
    1.9858   -2.4403   -0.5879 H   0  0  0  0  0  0  0  0  0  0  0  0
    1.0220   -1.8905    0.7447 H   0  0  0  0  0  0  0  0  0  0  0  0
    5.2076   -1.8055   -1.0741 H   0  0  0  0  0  0  0  0  0  0  0  0
    7.2649   -0.8494   -1.8381 H   0  0  0  0  0  0  0  0  0  0  0  0
    6.6452    0.8667   -1.4842 H   0  0  0  0  0  0  0  0  0  0  0  0
   -0.0536    3.2734    0.5281 H   0  0  0  0  0  0  0  0  0  0  0  0
   -1.3241   -1.3900    0.7481 H   0  0  0  0  0  0  0  0  0  0  0  0
   -2.0440    4.3177   -0.5214 H   0  0  0  0  0  0  0  0  0  0  0  0
   -5.1354    1.0093   -1.3028 H   0  0  0  0  0  0  0  0  0  0  0  0
   -5.2703   -1.3588   -0.9593 H   0  0  0  0  0  0  0  0  0  0  0  0
   -4.4183   -4.6146   -0.0357 H   0  0  0  0  0  0  0  0  0  0  0  0
   -4.6955   -3.4787   -1.3521 H   0  0  0  0  0  0  0  0  0  0  0  0
   -5.4093   -3.1978    0.2970 H   0  0  0  0  0  0  0  0  0  0  0  0
  1 12  2  0  0  0  0
  2 22  1  0  0  0  0
  2 24  1  0  0  0  0
  3  8  1  0  0  0  0
  3 10  1  0  0  0  0
  3 11  1  0  0  0  0
  4 18  2  0  0  0  0
  4 20  1  0  0  0  0
  5  6  1  0  0  0  0
  5  7  1  0  0  0  0
  5  9  1  0  0  0  0
  5 25  1  0  0  0  0
  6 10  1  0  0  0  0
  6 13  1  0  0  0  0
  6 26  1  0  0  0  0
  7  8  1  0  0  0  0
  7 27  1  0  0  0  0
  7 28  1  0  0  0  0
  8 12  1  0  0  0  0
  8 29  1  0  0  0  0
  9 11  1  0  0  0  0
  9 30  1  0  0  0  0
  9 31  1  0  0  0  0
 10 32  1  0  0  0  0
 10 33  1  0  0  0  0
 11 34  1  0  0  0  0
 11 35  1  0  0  0  0
 12 14  1  0  0  0  0
 13 15  2  0  0  0  0
 13 36  1  0  0  0  0
 14 16  2  0  0  0  0
 14 17  1  0  0  0  0
 15 37  1  0  0  0  0
 15 38  1  0  0  0  0
 16 18  1  0  0  0  0
 16 19  1  0  0  0  0
 17 20  2  0  0  0  0
 17 39  1  0  0  0  0
 18 21  1  0  0  0  0
 19 22  2  0  0  0  0
 19 40  1  0  0  0  0
 20 41  1  0  0  0  0
 21 23  2  0  0  0  0
 21 42  1  0  0  0  0
 22 23  1  0  0  0  0
 23 43  1  0  0  0  0
 24 44  1  0  0  0  0
 24 45  1  0  0  0  0
 24 46  1  0  0  0  0
M  END
> <PUBCHEM_COMPOUND_CID>
56928086

> <PUBCHEM_CONFORMER_RMSD>
0.8

> <PUBCHEM_CONFORMER_DIVERSEORDER>
1
26
25
31
18
17
19
27
28
2
32
24
29
14
20
30
21
23
22
7
6
11
9
13
8
16
5
4
10
3
12
15

> <PUBCHEM_MMFF94_PARTIAL_CHARGES>
28
1 -0.57
10 0.27
11 0.27
12 0.42
13 -0.29
14 0.09
15 -0.3
17 -0.15
18 0.31
19 -0.15
2 -0.36
20 0.16
21 -0.15
22 0.08
23 -0.15
24 0.28
3 -0.81
36 0.15
37 0.15
38 0.15
39 0.15
4 -0.62
40 0.15
41 0.15
42 0.15
43 0.15
6 0.14
8 0.33

> <PUBCHEM_EFFECTIVE_ROTOR_COUNT>
5.2

> <PUBCHEM_PHARMACOPHORE_FEATURES>
8
1 1 acceptor
1 15 hydrophobe
1 2 acceptor
1 3 cation
1 4 acceptor
6 16 18 19 21 22 23 rings
6 4 14 16 17 18 20 rings
8 3 5 6 7 8 9 10 11 rings

> <PUBCHEM_HEAVY_ATOM_COUNT>
24

> <PUBCHEM_ATOM_DEF_STEREO_COUNT>
2

> <PUBCHEM_ATOM_UDEF_STEREO_COUNT>
1

> <PUBCHEM_BOND_DEF_STEREO_COUNT>
0

> <PUBCHEM_BOND_UDEF_STEREO_COUNT>
0

> <PUBCHEM_ISOTOPIC_ATOM_COUNT>
0

> <PUBCHEM_COMPONENT_COUNT>
1

> <PUBCHEM_CACTVS_TAUTO_COUNT>
2

> <PUBCHEM_CONFORMER_ID>
0364A75600000001

> <PUBCHEM_MMFF94_ENERGY>
88.7412

> <PUBCHEM_FEATURE_SELFOVERLAP>
40.626

> <PUBCHEM_SHAPE_FINGERPRINT>
10366900 7 18114191872836143789
10616163 171 18410294730815634215
10759866 29 18271809085561436874
107951 10 18045499974708059781
11089746 13 17561358479670299516
11578080 2 17056725522372786452
11796584 16 18191865833131990902
12173636 292 18051989309298940685
12236239 1 17489307533308088245
12553582 1 18341334384166858307
12714826 92 18186240645053411217
12788726 201 18343302608574726425
12969540 114 14908181949826997874
13103583 49 4751161825896049862
13224815 77 18187369839226621648
13544653 18 17603586288011096233
13631057 29 18409727335718741646
14251757 5 18413108372918762069
14386348 63 17676205783835259567
14617045 38 18409163333767396995
15250474 111 18200040667387384562
15537594 2 18342168964773718971
15880784 105 16154003365059984309
16752209 62 18126588897195399961
17349148 13 17632857525505401760
17870717 6 18335417989085024869
20511986 3 17775017816177178340
20775438 99 17042056659011972135
20871999 31 18411701019104084045
21033650 10 17982989418717095012
21054139 6 18201438061146431326
21307412 95 18334019355114690391
21401589 2 11095898081115135231
221490 88 18260267421852238776
22182313 1 17895492362021533064
22393880 68 18410293640357826870
23379529 103 18262794047590571238
23402539 116 17489581282007794748
23557571 272 18259982712285340221
23559900 14 18408613551846296568
238078 22 18409444786915680969
2838139 119 16845564310901707796
2871803 45 18408048398447571114
474 4 16916774215459896204
4921388 177 18261384611169967541
6669772 16 17539405428309953532
6823239 73 18261118452415757112
7495541 125 17530682105081002628
9709674 26 18262525912813566495

> <PUBCHEM_SHAPE_MULTIPOLES>
472.21
11.28
3.07
1.33
8.86
0.31
-0.22
5.32
5
-5.46
0.16
1.38
-0.05
0.36

> <PUBCHEM_SHAPE_SELFOVERLAP>
1035.293

> <PUBCHEM_SHAPE_VOLUME>
253.1

> <PUBCHEM_COORDINATE_TYPE>
2
5
10

$$$$

