4224
  -OEChem-06251223583D

 44 44  0     1  0  0  0  0  0999 V2000
   -0.7372    1.9219    0.1405 S   0  0  0  0  0  0  0  0  0  0  0  0
   -0.6478    2.6245    1.4072 O   0  0  0  0  0  0  0  0  0  0  0  0
   -1.1478    2.6449   -1.0491 O   0  0  0  0  0  0  0  0  0  0  0  0
   -0.4344   -1.8266   -0.3179 O   0  0  0  0  0  0  0  0  0  0  0  0
    4.5770   -0.3846   -0.9608 O   0  0  0  0  0  0  0  0  0  0  0  0
    1.3340   -2.9330    1.4004 O   0  0  0  0  0  0  0  0  0  0  0  0
   -1.7237    0.5201    0.3302 N   0  0  2  0  0  0  0  0  0  0  0  0
    0.4243   -1.9540    1.8220 N   0  0  0  0  0  0  0  0  0  0  0  0
   -3.1932    0.6834    0.1909 C   0  0  1  0  0  0  0  0  0  0  0  0
   -3.8082   -0.6131   -0.3480 C   0  0  0  0  0  0  0  0  0  0  0  0
   -3.7707    1.0445    1.5548 C   0  0  0  0  0  0  0  0  0  0  0  0
   -3.2332   -1.0139   -1.7100 C   0  0  0  0  0  0  0  0  0  0  0  0
   -1.3709   -0.4349    1.4112 C   0  0  0  0  0  0  0  0  0  0  0  0
    0.8588    1.2293   -0.1905 C   0  0  0  0  0  0  0  0  0  0  0  0
   -3.8431   -2.3150   -2.2087 C   0  0  0  0  0  0  0  0  0  0  0  0
   -0.4242   -1.4672    0.8570 C   0  0  0  0  0  0  0  0  0  0  0  0
    1.7060    0.9567    0.8675 C   0  0  0  0  0  0  0  0  0  0  0  0
    1.2238    0.9761   -1.4996 C   0  0  0  0  0  0  0  0  0  0  0  0
    2.9633    0.4114    0.6071 C   0  0  0  0  0  0  0  0  0  0  0  0
    2.4810    0.4305   -1.7601 C   0  0  0  0  0  0  0  0  0  0  0  0
    3.3507    0.1483   -0.7067 C   0  0  0  0  0  0  0  0  0  0  0  0
    5.4155   -0.6493    0.1628 C   0  0  0  0  0  0  0  0  0  0  0  0
   -3.4072    1.4908   -0.5186 H   0  0  0  0  0  0  0  0  0  0  0  0
   -3.6831   -1.4465    0.3522 H   0  0  0  0  0  0  0  0  0  0  0  0
   -4.8919   -0.4696   -0.4508 H   0  0  0  0  0  0  0  0  0  0  0  0
   -3.2273    1.8718    2.0225 H   0  0  0  0  0  0  0  0  0  0  0  0
   -3.8020    0.2131    2.2647 H   0  0  0  0  0  0  0  0  0  0  0  0
   -4.8096    1.3731    1.4314 H   0  0  0  0  0  0  0  0  0  0  0  0
   -3.4565   -0.2228   -2.4366 H   0  0  0  0  0  0  0  0  0  0  0  0
   -2.1491   -1.1130   -1.6931 H   0  0  0  0  0  0  0  0  0  0  0  0
   -2.2117   -1.0034    1.8127 H   0  0  0  0  0  0  0  0  0  0  0  0
   -0.9239    0.0974    2.2577 H   0  0  0  0  0  0  0  0  0  0  0  0
   -3.4427   -2.5673   -3.1957 H   0  0  0  0  0  0  0  0  0  0  0  0
   -4.9311   -2.2317   -2.2952 H   0  0  0  0  0  0  0  0  0  0  0  0
   -3.6132   -3.1407   -1.5277 H   0  0  0  0  0  0  0  0  0  0  0  0
    1.4223    1.1531    1.8967 H   0  0  0  0  0  0  0  0  0  0  0  0
    0.5570    1.1807   -2.3314 H   0  0  0  0  0  0  0  0  0  0  0  0
    3.5878    0.2151    1.4719 H   0  0  0  0  0  0  0  0  0  0  0  0
    2.7764    0.2254   -2.7854 H   0  0  0  0  0  0  0  0  0  0  0  0
    0.3709   -1.7734    2.8178 H   0  0  0  0  0  0  0  0  0  0  0  0
    2.1165   -2.3810    1.2333 H   0  0  0  0  0  0  0  0  0  0  0  0
    4.9747   -1.4025    0.8248 H   0  0  0  0  0  0  0  0  0  0  0  0
    5.6757    0.2711    0.6965 H   0  0  0  0  0  0  0  0  0  0  0  0
    6.3497   -1.0702   -0.2230 H   0  0  0  0  0  0  0  0  0  0  0  0
  1  2  2  0  0  0  0
  1  3  2  0  0  0  0
  1  7  1  0  0  0  0
  1 14  1  0  0  0  0
  4 16  2  0  0  0  0
  5 21  1  0  0  0  0
  5 22  1  0  0  0  0
  6  8  1  0  0  0  0
  6 41  1  0  0  0  0
  7  9  1  0  0  0  0
  7 13  1  0  0  0  0
  8 16  1  0  0  0  0
  8 40  1  0  0  0  0
  9 10  1  0  0  0  0
  9 11  1  0  0  0  0
  9 23  1  0  0  0  0
 10 12  1  0  0  0  0
 10 24  1  0  0  0  0
 10 25  1  0  0  0  0
 11 26  1  0  0  0  0
 11 27  1  0  0  0  0
 11 28  1  0  0  0  0
 12 15  1  0  0  0  0
 12 29  1  0  0  0  0
 12 30  1  0  0  0  0
 13 16  1  0  0  0  0
 13 31  1  0  0  0  0
 13 32  1  0  0  0  0
 14 17  2  0  0  0  0
 14 18  1  0  0  0  0
 15 33  1  0  0  0  0
 15 34  1  0  0  0  0
 15 35  1  0  0  0  0
 17 19  1  0  0  0  0
 17 36  1  0  0  0  0
 18 20  2  0  0  0  0
 18 37  1  0  0  0  0
 19 21  2  0  0  0  0
 19 38  1  0  0  0  0
 20 21  1  0  0  0  0
 20 39  1  0  0  0  0
 22 42  1  0  0  0  0
 22 43  1  0  0  0  0
 22 44  1  0  0  0  0
M  END
> <PUBCHEM_COMPOUND_CID>
4224

> <PUBCHEM_CONFORMER_RMSD>
0.8

> <PUBCHEM_CONFORMER_DIVERSEORDER>
1
11
91
42
114
101
118
136
90
81
132
44
131
130
40
12
93
50
126
102
78
60
139
13
140
117
15
9
83
69
34
48
109
121
103
14
115
29
64
47
108
56
89
105
31
110
127
3
30
28
8
66
32
18
120
87
133
73
19
96
99
4
17
62
53
94
59
74
35
45
84
26
104
111
97
5
95
128
98
7
138
75
52
116
106
27
107
80
86
88
46
39
85
123
51
76
2
119
135
38
122
61
72
124
92
112
82
23
41
16
25
67
58
79
6
134
49
33
54
55
22
113
77
20
129
36
37
21
65
137
71
70
68
10
57
100
24
43
63
125

> <PUBCHEM_MMFF94_PARTIAL_CHARGES>
24
1 1.45
13 0.42
14 -0.01
16 0.57
17 -0.15
18 -0.15
19 -0.15
2 -0.65
20 -0.15
21 0.08
22 0.28
3 -0.65
36 0.15
37 0.15
38 0.15
39 0.15
4 -0.57
40 0.37
41 0.4
5 -0.36
6 -0.44
7 -0.85
8 -0.39
9 0.36

> <PUBCHEM_EFFECTIVE_ROTOR_COUNT>
9

> <PUBCHEM_PHARMACOPHORE_FEATURES>
7
1 15 hydrophobe
1 2 acceptor
1 3 acceptor
1 4 acceptor
1 5 acceptor
1 8 donor
6 14 17 18 19 20 21 rings

> <PUBCHEM_HEAVY_ATOM_COUNT>
22

> <PUBCHEM_ATOM_DEF_STEREO_COUNT>
0

> <PUBCHEM_ATOM_UDEF_STEREO_COUNT>
1

> <PUBCHEM_BOND_DEF_STEREO_COUNT>
0

> <PUBCHEM_BOND_UDEF_STEREO_COUNT>
0

> <PUBCHEM_ISOTOPIC_ATOM_COUNT>
0

> <PUBCHEM_COMPONENT_COUNT>
1

> <PUBCHEM_CACTVS_TAUTO_COUNT>
3

> <PUBCHEM_CONFORMER_ID>
0000108000000001

> <PUBCHEM_MMFF94_ENERGY>
52.0726

> <PUBCHEM_FEATURE_SELFOVERLAP>
35.539

> <PUBCHEM_SHAPE_FINGERPRINT>
10062212 137 18408319999537295215
10863032 1 16877938317551650425
12035759 4 18337968826155456247
12592029 89 17631711881291053760
13140716 1 18199450096129497976
13583140 156 15213023755919233112
14787075 74 18263088738803987840
15163728 17 15338294487632810087
15209289 33 18408878551153964240
16752209 62 18130796676122450152
16945 1 18059860562411982289
17349148 13 18201718470585825418
20600515 1 18268976636065396188
20905425 154 18196931295278558375
22112679 90 18261405485175029059
23402539 116 18412823599127729644
23419403 2 17537761769646834277
23526113 38 18121228588456359673
23557571 272 17240483606719715579
23559900 14 17385445405948654776
238 59 17344371985389034183
2748010 2 17913202062069938433
3286 77 17458912539327918040
34934 24 18265608956804009649

> <PUBCHEM_SHAPE_MULTIPOLES>
417.29
7.87
2.61
1.92
4.37
0.21
0.16
2.79
2.05
-1.6
-0.26
-0.67
0.71
-1.72

> <PUBCHEM_SHAPE_SELFOVERLAP>
829.623

> <PUBCHEM_SHAPE_VOLUME>
248.5

> <PUBCHEM_COORDINATE_TYPE>
2
5
10

$$$$

