99535
  -OEChem-07051212562D

 46 50  0     1  0  0  0  0  0999 V2000
    2.8817   -1.2527    0.0000 O   0  0  0  0  0  0  0  0  0  0  0  0
    2.2640    1.5261    0.0000 O   0  0  0  0  0  0  0  0  0  0  0  0
    4.6300   -2.3215    0.0000 O   0  0  0  0  0  0  0  0  0  0  0  0
    2.2826    3.2836    0.0000 O   0  0  0  0  0  0  0  0  0  0  0  0
    6.4000   -2.2974    0.0000 O   0  0  0  0  0  0  0  0  0  0  0  0
    3.7480   -0.7523    0.0000 C   0  0  2  0  0  0  0  0  0  0  0  0
    2.8820   -0.2523    0.0000 C   0  0  1  0  0  0  0  0  0  0  0  0
    3.7480    1.2477    0.0000 C   0  0  1  0  0  0  0  0  0  0  0  0
    4.6140    0.7477    0.0000 C   0  0  1  0  0  0  0  0  0  0  0  0
    2.8820    0.7477    0.0000 C   0  0  2  0  0  0  0  0  0  0  0  0
    4.6140   -0.2523    0.0000 C   0  0  0  0  0  0  0  0  0  0  0  0
    3.7319    2.2892    0.0000 C   0  0  1  0  0  0  0  0  0  0  0  0
    3.7319   -1.7938    0.0000 C   0  0  1  0  0  0  0  0  0  0  0  0
    5.5240    1.2546    0.0000 C   0  0  0  0  0  0  0  0  0  0  0  0
    5.4800    0.2477    0.0000 C   0  0  0  0  0  0  0  0  0  0  0  0
    2.7439    2.3964    0.0000 C   0  0  0  0  0  0  0  0  0  0  0  0
    4.6300    2.8170    0.0000 C   0  0  0  0  0  0  0  0  0  0  0  0
    2.8602   -2.2837    0.0000 C   0  0  0  0  0  0  0  0  0  0  0  0
    5.5240   -0.7591    0.0000 C   0  0  0  0  0  0  0  0  0  0  0  0
    3.2220    3.1494    0.0000 C   0  0  0  0  0  0  0  0  0  0  0  0
    5.5320    2.2962    0.0000 C   0  0  0  0  0  0  0  0  0  0  0  0
    5.5320   -1.8007    0.0000 C   0  0  0  0  0  0  0  0  0  0  0  0
    2.8486   -3.2836    0.0000 C   0  0  0  0  0  0  0  0  0  0  0  0
    2.0000   -1.7737    0.0000 C   0  0  0  0  0  0  0  0  0  0  0  0
    2.0320   -0.2521    0.0000 H   0  0  0  0  0  0  0  0  0  0  0  0
    4.4841    1.6727    0.0000 H   0  0  0  0  0  0  0  0  0  0  0  0
    2.0794    0.4679    0.0000 H   0  0  0  0  0  0  0  0  0  0  0  0
    3.7260   -2.4137    0.0000 H   0  0  0  0  0  0  0  0  0  0  0  0
    5.7286    0.6693    0.0000 H   0  0  0  0  0  0  0  0  0  0  0  0
    6.1357    1.3560    0.0000 H   0  0  0  0  0  0  0  0  0  0  0  0
    5.1700   -0.2892    0.0000 H   0  0  0  0  0  0  0  0  0  0  0  0
    6.0170   -0.0623    0.0000 H   0  0  0  0  0  0  0  0  0  0  0  0
    5.7900    0.7847    0.0000 H   0  0  0  0  0  0  0  0  0  0  0  0
    4.6276    3.4370    0.0000 H   0  0  0  0  0  0  0  0  0  0  0  0
    2.8674   -1.6638    0.0000 H   0  0  0  0  0  0  0  0  0  0  0  0
    6.0573   -0.4429    0.0000 H   0  0  0  0  0  0  0  0  0  0  0  0
    3.7553    3.4656    0.0000 H   0  0  0  0  0  0  0  0  0  0  0  0
    2.9058    3.6828    0.0000 H   0  0  0  0  0  0  0  0  0  0  0  0
    2.6886    2.8332    0.0000 H   0  0  0  0  0  0  0  0  0  0  0  0
    6.0702    2.6041    0.0000 H   0  0  0  0  0  0  0  0  0  0  0  0
    2.2287   -3.2765    0.0000 H   0  0  0  0  0  0  0  0  0  0  0  0
    2.8414   -3.9036    0.0000 H   0  0  0  0  0  0  0  0  0  0  0  0
    3.4686   -3.2908    0.0000 H   0  0  0  0  0  0  0  0  0  0  0  0
    2.3162   -1.2404    0.0000 H   0  0  0  0  0  0  0  0  0  0  0  0
    1.4667   -1.4575    0.0000 H   0  0  0  0  0  0  0  0  0  0  0  0
    1.6838   -2.3070    0.0000 H   0  0  0  0  0  0  0  0  0  0  0  0
  6  1  1  6  0  0  0
  1  7  1  0  0  0  0
  2 10  1  0  0  0  0
  2 16  1  0  0  0  0
  3 13  1  0  0  0  0
  3 22  1  0  0  0  0
  4 16  2  0  0  0  0
  5 22  2  0  0  0  0
  6  7  1  0  0  0  0
  6 11  1  0  0  0  0
  6 13  1  0  0  0  0
  7 10  1  0  0  0  0
  7 25  1  1  0  0  0
  8  9  1  0  0  0  0
  8 10  1  0  0  0  0
  8 12  1  0  0  0  0
  8 26  1  6  0  0  0
  9 11  1  0  0  0  0
  9 14  1  0  0  0  0
  9 15  1  1  0  0  0
 10 27  1  6  0  0  0
 11 19  2  0  0  0  0
 12 16  1  0  0  0  0
 12 17  1  0  0  0  0
 12 20  1  6  0  0  0
 13 18  1  6  0  0  0
 13 28  1  0  0  0  0
 14 21  1  0  0  0  0
 14 29  1  0  0  0  0
 14 30  1  0  0  0  0
 15 31  1  0  0  0  0
 15 32  1  0  0  0  0
 15 33  1  0  0  0  0
 17 21  2  0  0  0  0
 17 34  1  0  0  0  0
 18 23  1  0  0  0  0
 18 24  1  0  0  0  0
 18 35  1  0  0  0  0
 19 22  1  0  0  0  0
 19 36  1  0  0  0  0
 20 37  1  0  0  0  0
 20 38  1  0  0  0  0
 20 39  1  0  0  0  0
 21 40  1  0  0  0  0
 23 41  1  0  0  0  0
 23 42  1  0  0  0  0
 23 43  1  0  0  0  0
 24 44  1  0  0  0  0
 24 45  1  0  0  0  0
 24 46  1  0  0  0  0
M  END
> <PUBCHEM_COMPOUND_CID>
99535

> <PUBCHEM_COMPOUND_CANONICALIZED>
1

> <PUBCHEM_CACTVS_COMPLEXITY>
736

> <PUBCHEM_CACTVS_HBOND_ACCEPTOR>
5

> <PUBCHEM_CACTVS_HBOND_DONOR>
0

> <PUBCHEM_CACTVS_ROTATABLE_BOND>
1

> <PUBCHEM_CACTVS_SUBSKEYS>
AAADceB4OAAAAAAAAAAAAAAAEgAAASAAAAAwQIAABIAAAEiAAAAAGgAAAAAAD1SggAICCAAABACIAiDSCAAAAAAgAAAICAEAAEgBBBIAIQACEAAFwAAKIQPK7PzPgAAAAAAAAADAAAYQADCAAAAAAAAAAA==

> <PUBCHEM_IUPAC_INCHI>
InChI=1S/C19H22O5/c1-9(2)14-19-10(8-11(20)22-14)17(3)6-5-7-18(4)13(17)12(15(19)24-19)23-16(18)21/h5,7-9,12-15H,6H2,1-4H3/t12-,13+,14+,15+,17+,18-,19+/m0/s1

> <PUBCHEM_IUPAC_INCHIKEY>
NGMZHPQMBVXJMC-DXNUVPBBSA-N

> <PUBCHEM_XLOGP3_AA>
2.3

> <PUBCHEM_EXACT_MASS>
330.146724

> <PUBCHEM_MOLECULAR_FORMULA>
C19H22O5

> <PUBCHEM_MOLECULAR_WEIGHT>
330.37498

> <PUBCHEM_OPENEYE_CAN_SMILES>
CC(C)C1C23C(O2)C4C5C(C3=CC(=O)O1)(CC=CC5(C(=O)O4)C)C

> <PUBCHEM_OPENEYE_ISO_SMILES>
CC(C)[C@@H]1[C@]23[C@H](O2)[C@@H]4[C@@H]5[C@@](C3=CC(=O)O1)(CC=C[C@@]5(C(=O)O4)C)C

> <PUBCHEM_CACTVS_TPSA>
65.1

> <PUBCHEM_MONOISOTOPIC_WEIGHT>
330.146724

> <PUBCHEM_TOTAL_CHARGE>
0

> <PUBCHEM_HEAVY_ATOM_COUNT>
24

> <PUBCHEM_ATOM_DEF_STEREO_COUNT>
7

> <PUBCHEM_ATOM_UDEF_STEREO_COUNT>
0

> <PUBCHEM_BOND_DEF_STEREO_COUNT>
0

> <PUBCHEM_BOND_UDEF_STEREO_COUNT>
0

> <PUBCHEM_ISOTOPIC_ATOM_COUNT>
0

> <PUBCHEM_COMPONENT_COUNT>
1

> <PUBCHEM_CACTVS_TAUTO_COUNT>
1

> <PUBCHEM_COORDINATE_TYPE>
1
5
255

> <PUBCHEM_BONDANNOTATIONS>
6  1  6
10  27  6
12  20  6
13  18  6
7  25  5
8  26  6
9  15  5

$$$$

