47205652
  -OEChem-06241222593D

 36 37  0     1  0  0  0  0  0999 V2000
   -3.3958   -1.4950    0.6719 O   0  0  0  0  0  0  0  0  0  0  0  0
    3.1461   -0.6278   -0.9389 O   0  0  0  0  0  0  0  0  0  0  0  0
    0.9502   -0.8015    1.8392 O   0  0  0  0  0  0  0  0  0  0  0  0
   -1.8226    1.4637   -0.2592 N   0  0  0  0  0  0  0  0  0  0  0  0
   -1.7215   -1.3874   -0.9344 N   0  0  0  0  0  0  0  0  0  0  0  0
    0.9878   -2.0771   -0.0979 N   0  0  0  0  0  0  0  0  0  0  0  0
   -0.1667    2.4677    0.8276 N   0  0  0  0  0  0  0  0  0  0  0  0
   -3.0446    0.5970   -0.5034 C   0  0  1  0  0  0  0  0  0  0  0  0
   -2.7594   -0.8686   -0.1729 C   0  0  0  0  0  0  0  0  0  0  0  0
   -1.2593   -2.7520   -0.8204 C   0  0  0  0  0  0  0  0  0  0  0  0
   -4.2510    1.1215    0.2791 C   0  0  0  0  0  0  0  0  0  0  0  0
   -0.1543   -2.8941    0.2129 C   0  0  0  0  0  0  0  0  0  0  0  0
   -1.1440    2.1883   -1.1981 C   0  0  0  0  0  0  0  0  0  0  0  0
   -1.1994    1.6624    0.9412 C   0  0  0  0  0  0  0  0  0  0  0  0
   -0.1266    2.7991   -0.5036 C   0  0  0  0  0  0  0  0  0  0  0  0
    1.4528   -1.0828    0.7544 C   0  0  0  0  0  0  0  0  0  0  0  0
    2.6273   -0.3092    0.2761 C   0  0  0  0  0  0  0  0  0  0  0  0
    3.3338    0.7235    0.8476 C   0  0  0  0  0  0  0  0  0  0  0  0
    4.3519    1.0614   -0.0757 C   0  0  0  0  0  0  0  0  0  0  0  0
    4.1952    0.2108   -1.1454 C   0  0  0  0  0  0  0  0  0  0  0  0
   -3.2441    0.6781   -1.5794 H   0  0  0  0  0  0  0  0  0  0  0  0
   -0.8980   -3.0478   -1.8113 H   0  0  0  0  0  0  0  0  0  0  0  0
   -2.1035   -3.3981   -0.5576 H   0  0  0  0  0  0  0  0  0  0  0  0
   -5.1496    0.5435    0.0381 H   0  0  0  0  0  0  0  0  0  0  0  0
   -4.4459    2.1714    0.0351 H   0  0  0  0  0  0  0  0  0  0  0  0
   -4.0932    1.0543    1.3612 H   0  0  0  0  0  0  0  0  0  0  0  0
   -1.2570   -0.7921   -1.6136 H   0  0  0  0  0  0  0  0  0  0  0  0
   -0.5341   -2.6466    1.2100 H   0  0  0  0  0  0  0  0  0  0  0  0
    0.1933   -3.9322    0.2382 H   0  0  0  0  0  0  0  0  0  0  0  0
   -1.4303    2.2066   -2.2402 H   0  0  0  0  0  0  0  0  0  0  0  0
   -1.5365    1.1971    1.8573 H   0  0  0  0  0  0  0  0  0  0  0  0
    1.4826   -2.2554   -0.9673 H   0  0  0  0  0  0  0  0  0  0  0  0
    0.6337    3.4595   -0.8945 H   0  0  0  0  0  0  0  0  0  0  0  0
    3.1418    1.1800    1.8082 H   0  0  0  0  0  0  0  0  0  0  0  0
    5.1054    1.8290    0.0255 H   0  0  0  0  0  0  0  0  0  0  0  0
    4.7194    0.0818   -2.0810 H   0  0  0  0  0  0  0  0  0  0  0  0
  1  9  2  0  0  0  0
  2 17  1  0  0  0  0
  2 20  1  0  0  0  0
  3 16  2  0  0  0  0
  4  8  1  0  0  0  0
  4 13  1  0  0  0  0
  4 14  1  0  0  0  0
  5  9  1  0  0  0  0
  5 10  1  0  0  0  0
  5 27  1  0  0  0  0
  6 12  1  0  0  0  0
  6 16  1  0  0  0  0
  6 32  1  0  0  0  0
  7 14  2  0  0  0  0
  7 15  1  0  0  0  0
  8  9  1  0  0  0  0
  8 11  1  0  0  0  0
  8 21  1  0  0  0  0
 10 12  1  0  0  0  0
 10 22  1  0  0  0  0
 10 23  1  0  0  0  0
 11 24  1  0  0  0  0
 11 25  1  0  0  0  0
 11 26  1  0  0  0  0
 12 28  1  0  0  0  0
 12 29  1  0  0  0  0
 13 15  2  0  0  0  0
 13 30  1  0  0  0  0
 14 31  1  0  0  0  0
 15 33  1  0  0  0  0
 16 17  1  0  0  0  0
 17 18  2  0  0  0  0
 18 19  1  0  0  0  0
 18 34  1  0  0  0  0
 19 20  2  0  0  0  0
 19 35  1  0  0  0  0
 20 36  1  0  0  0  0
M  END
> <PUBCHEM_COMPOUND_CID>
47205652

> <PUBCHEM_CONFORMER_RMSD>
1

> <PUBCHEM_CONFORMER_DIVERSEORDER>
2
54
3
46
36
75
142
113
25
35
11
27
134
63
1
92
97
155
6
91
70
102
157
85
76
163
136
141
116
51
41
153
131
55
154
18
4
12
147
89
24
110
162
42
73
122
108
47
50
112
79
150
66
15
39
144
129
126
37
98
159
152
10
67
124
78
146
68
31
60
49
19
34
71
115
16
32
90
149
28
5
101
20
58
77
88
99
82
127
81
111
125
135
84
117
106
57
145
161
140
43
74
103
21
62
132
40
26
80
120
151
105
100
164
95
69
14
114
121
94
52
143
148
128
30
22
93
56
139
29
87
118
83
123
33
17
7
44
104
64
48
86
96
130
45
61
109
138
53
119
137
38
165
107
65
156
23
72
59
13
158
9
160
133
8

> <PUBCHEM_MMFF94_PARTIAL_CHARGES>
27
1 -0.57
10 0.3
12 0.3
13 -0.3
14 0.04
15 0.08
16 0.71
17 0.05
18 -0.15
19 -0.15
2 -0.28
20 -0.01
27 0.37
3 -0.57
30 0.15
31 0.15
32 0.37
33 0.15
34 0.15
35 0.15
36 0.15
4 0.05
5 -0.73
6 -0.73
7 -0.57
8 0.32
9 0.57

> <PUBCHEM_EFFECTIVE_ROTOR_COUNT>
8

> <PUBCHEM_PHARMACOPHORE_FEATURES>
8
1 1 acceptor
1 2 acceptor
1 3 acceptor
1 5 donor
1 6 donor
3 4 7 14 cation
5 2 17 18 19 20 rings
5 4 7 13 14 15 rings

> <PUBCHEM_HEAVY_ATOM_COUNT>
20

> <PUBCHEM_ATOM_DEF_STEREO_COUNT>
0

> <PUBCHEM_ATOM_UDEF_STEREO_COUNT>
1

> <PUBCHEM_BOND_DEF_STEREO_COUNT>
0

> <PUBCHEM_BOND_UDEF_STEREO_COUNT>
0

> <PUBCHEM_ISOTOPIC_ATOM_COUNT>
0

> <PUBCHEM_COMPONENT_COUNT>
1

> <PUBCHEM_CACTVS_TAUTO_COUNT>
4

> <PUBCHEM_CONFORMER_ID>
02D04D1400000002

> <PUBCHEM_MMFF94_ENERGY>
14.301

> <PUBCHEM_FEATURE_SELFOVERLAP>
40.596

> <PUBCHEM_SHAPE_MULTIPOLES>
374.06
7.05
3.33
1.19
3.4
0.55
-0.11
-1.37
0.66
-1.57
0.33
0.33
-0.06
-0.1

> <PUBCHEM_SHAPE_SELFOVERLAP>
778.359

> <PUBCHEM_SHAPE_VOLUME>
214.5

> <PUBCHEM_COORDINATE_TYPE>
2
5
10

$$$$

