9327
  -OEChem-06261203373D

 92102  0     1  0  0  0  0  0999 V2000
    4.3782   -4.6746   -2.7063 O   0  0  0  0  0  0  0  0  0  0  0  0
   -4.2799    4.5719   -0.2768 O   0  0  0  0  0  0  0  0  0  0  0  0
    4.8690    0.1184    0.8519 N   0  3  1  0  0  0  0  0  0  0  0  0
   -4.8595    0.0236    0.3904 N   0  3  1  0  0  0  0  0  0  0  0  0
    0.5912    1.5957   -0.2805 N   0  0  0  0  0  0  0  0  0  0  0  0
   -0.5570   -1.7188   -0.0518 N   0  0  0  0  0  0  0  0  0  0  0  0
    2.7739    1.3700    0.8520 C   0  0  1  0  0  0  0  0  0  0  0  0
   -2.8398   -1.3243    0.7940 C   0  0  1  0  0  0  0  0  0  0  0  0
    4.0218    1.0849   -0.0088 C   0  0  2  0  0  0  0  0  0  0  0  0
   -4.0140   -1.1598   -0.1916 C   0  0  2  0  0  0  0  0  0  0  0  0
    1.4569    0.6116    0.4107 C   0  0  2  0  0  0  0  0  0  0  0  0
   -1.4851   -0.6337    0.3573 C   0  0  2  0  0  0  0  0  0  0  0  0
    3.1876    1.0505    2.3038 C   0  0  0  0  0  0  0  0  0  0  0  0
   -3.3768   -0.7603    2.1104 C   0  0  0  0  0  0  0  0  0  0  0  0
    3.7052    0.5062   -1.3786 C   0  0  0  0  0  0  0  0  0  0  0  0
   -3.5444   -0.8717   -1.6147 C   0  0  0  0  0  0  0  0  0  0  0  0
    2.9512   -0.8074   -1.2277 C   0  0  2  0  0  0  0  0  0  0  0  0
   -2.7903    0.4567   -1.6556 C   0  0  2  0  0  0  0  0  0  0  0  0
    4.6690    0.6994    2.2538 C   0  0  0  0  0  0  0  0  0  0  0  0
   -4.1389    0.4705    1.6754 C   0  0  0  0  0  0  0  0  0  0  0  0
    1.6449   -0.6260   -0.4639 C   0  0  0  0  0  0  0  0  0  0  0  0
   -1.5736    0.4328   -0.7320 C   0  0  0  0  0  0  0  0  0  0  0  0
    2.3546    2.8071    0.6657 C   0  0  0  0  0  0  0  0  0  0  0  0
   -2.4232   -2.7668    0.8919 C   0  0  0  0  0  0  0  0  0  0  0  0
    4.3781   -1.3490    0.8088 C   0  0  0  0  0  0  0  0  0  0  0  0
   -5.0134    1.1967   -0.5834 C   0  0  0  0  0  0  0  0  0  0  0  0
    3.8786   -1.7860   -0.5366 C   0  0  0  0  0  0  0  0  0  0  0  0
   -3.7622    1.5797   -1.3247 C   0  0  0  0  0  0  0  0  0  0  0  0
   -0.6217    1.3764   -0.8980 C   0  0  0  0  0  0  0  0  0  0  0  0
    0.7187   -1.6021   -0.5593 C   0  0  0  0  0  0  0  0  0  0  0  0
    1.1393    2.8738   -0.0179 C   0  0  0  0  0  0  0  0  0  0  0  0
   -1.1432   -2.9382    0.3637 C   0  0  0  0  0  0  0  0  0  0  0  0
    6.3404    0.1747    0.4631 C   0  0  0  0  0  0  0  0  0  0  0  0
   -6.2608   -0.4823    0.7516 C   0  0  0  0  0  0  0  0  0  0  0  0
    3.0366    3.9593    1.0450 C   0  0  0  0  0  0  0  0  0  0  0  0
   -3.1558   -3.8462    1.3763 C   0  0  0  0  0  0  0  0  0  0  0  0
    4.2562   -2.9444   -1.0973 C   0  0  0  0  0  0  0  0  0  0  0  0
   -3.5892    2.8453   -1.7392 C   0  0  0  0  0  0  0  0  0  0  0  0
    0.5913    4.1154   -0.3302 C   0  0  0  0  0  0  0  0  0  0  0  0
   -0.5780   -4.2111    0.3241 C   0  0  0  0  0  0  0  0  0  0  0  0
    2.4855    5.2005    0.7327 C   0  0  0  0  0  0  0  0  0  0  0  0
   -2.5887   -5.1185    1.3356 C   0  0  0  0  0  0  0  0  0  0  0  0
    1.2692    5.2780    0.0470 C   0  0  0  0  0  0  0  0  0  0  0  0
   -1.3056   -5.3001    0.8115 C   0  0  0  0  0  0  0  0  0  0  0  0
    3.7834   -3.4143   -2.4306 C   0  0  0  0  0  0  0  0  0  0  0  0
   -4.5794    3.9360   -1.5113 C   0  0  0  0  0  0  0  0  0  0  0  0
    4.6358    1.9868   -0.1333 H   0  0  0  0  0  0  0  0  0  0  0  0
   -4.6698   -2.0389   -0.1990 H   0  0  0  0  0  0  0  0  0  0  0  0
    0.9443    0.3144    1.3336 H   0  0  0  0  0  0  0  0  0  0  0  0
   -1.0701   -0.1684    1.2596 H   0  0  0  0  0  0  0  0  0  0  0  0
    2.6327    0.1905    2.6964 H   0  0  0  0  0  0  0  0  0  0  0  0
    3.0108    1.8717    3.0070 H   0  0  0  0  0  0  0  0  0  0  0  0
   -2.5928   -0.5198    2.8361 H   0  0  0  0  0  0  0  0  0  0  0  0
   -4.0599   -1.4596    2.6073 H   0  0  0  0  0  0  0  0  0  0  0  0
    4.6290    0.3543   -1.9515 H   0  0  0  0  0  0  0  0  0  0  0  0
    3.1077    1.2229   -1.9565 H   0  0  0  0  0  0  0  0  0  0  0  0
   -4.4033   -0.8504   -2.2986 H   0  0  0  0  0  0  0  0  0  0  0  0
   -2.9017   -1.6867   -1.9716 H   0  0  0  0  0  0  0  0  0  0  0  0
    2.6993   -1.1334   -2.2439 H   0  0  0  0  0  0  0  0  0  0  0  0
   -2.4396    0.5911   -2.6891 H   0  0  0  0  0  0  0  0  0  0  0  0
    5.2889    1.5997    2.3353 H   0  0  0  0  0  0  0  0  0  0  0  0
    4.9778   -0.0389    3.0003 H   0  0  0  0  0  0  0  0  0  0  0  0
   -4.8757    0.8148    2.4077 H   0  0  0  0  0  0  0  0  0  0  0  0
   -3.4619    1.2940    1.4260 H   0  0  0  0  0  0  0  0  0  0  0  0
    3.5637   -1.4530    1.5334 H   0  0  0  0  0  0  0  0  0  0  0  0
    5.2038   -1.9709    1.1749 H   0  0  0  0  0  0  0  0  0  0  0  0
   -5.4279    2.0130    0.0174 H   0  0  0  0  0  0  0  0  0  0  0  0
   -5.7720    0.8931   -1.3162 H   0  0  0  0  0  0  0  0  0  0  0  0
   -0.7763    2.1234   -1.6701 H   0  0  0  0  0  0  0  0  0  0  0  0
    0.9698   -2.4790   -1.1492 H   0  0  0  0  0  0  0  0  0  0  0  0
    6.6711    1.2173    0.4790 H   0  0  0  0  0  0  0  0  0  0  0  0
    6.9093   -0.4100    1.1919 H   0  0  0  0  0  0  0  0  0  0  0  0
    6.4533   -0.2464   -0.5390 H   0  0  0  0  0  0  0  0  0  0  0  0
   -6.8319    0.3533    1.1670 H   0  0  0  0  0  0  0  0  0  0  0  0
   -6.7357   -0.8556   -0.1605 H   0  0  0  0  0  0  0  0  0  0  0  0
   -6.1660   -1.2854    1.4877 H   0  0  0  0  0  0  0  0  0  0  0  0
    3.9860    3.9019    1.5676 H   0  0  0  0  0  0  0  0  0  0  0  0
   -4.1574   -3.7129    1.7718 H   0  0  0  0  0  0  0  0  0  0  0  0
    4.9363   -3.5930   -0.5497 H   0  0  0  0  0  0  0  0  0  0  0  0
   -2.7037    3.1140   -2.3073 H   0  0  0  0  0  0  0  0  0  0  0  0
   -0.3572    4.2070   -0.8498 H   0  0  0  0  0  0  0  0  0  0  0  0
    0.4199   -4.3817   -0.0673 H   0  0  0  0  0  0  0  0  0  0  0  0
    3.0032    6.1113    1.0195 H   0  0  0  0  0  0  0  0  0  0  0  0
   -3.1462   -5.9728    1.7088 H   0  0  0  0  0  0  0  0  0  0  0  0
    0.8462    6.2501   -0.1912 H   0  0  0  0  0  0  0  0  0  0  0  0
   -0.8702   -6.2952    0.7847 H   0  0  0  0  0  0  0  0  0  0  0  0
    4.0895   -2.7237   -3.2223 H   0  0  0  0  0  0  0  0  0  0  0  0
    2.6985   -3.5503   -2.4431 H   0  0  0  0  0  0  0  0  0  0  0  0
   -5.6178    3.5937   -1.4970 H   0  0  0  0  0  0  0  0  0  0  0  0
   -4.5066    4.6794   -2.3123 H   0  0  0  0  0  0  0  0  0  0  0  0
    4.0565   -4.9579   -3.5791 H   0  0  0  0  0  0  0  0  0  0  0  0
   -3.3743    4.9224   -0.3337 H   0  0  0  0  0  0  0  0  0  0  0  0
  1 45  1  0  0  0  0
  1 91  1  0  0  0  0
  2 46  1  0  0  0  0
  2 92  1  0  0  0  0
  3  9  1  0  0  0  0
  3 19  1  0  0  0  0
  3 25  1  0  0  0  0
  3 33  1  0  0  0  0
  4 10  1  0  0  0  0
  4 20  1  0  0  0  0
  4 26  1  0  0  0  0
  4 34  1  0  0  0  0
  5 11  1  0  0  0  0
  5 29  1  0  0  0  0
  5 31  1  0  0  0  0
  6 12  1  0  0  0  0
  6 30  1  0  0  0  0
  6 32  1  0  0  0  0
  7  9  1  0  0  0  0
  7 11  1  0  0  0  0
  7 13  1  0  0  0  0
  7 23  1  0  0  0  0
  8 10  1  0  0  0  0
  8 12  1  0  0  0  0
  8 14  1  0  0  0  0
  8 24  1  0  0  0  0
  9 15  1  0  0  0  0
  9 47  1  0  0  0  0
 10 16  1  0  0  0  0
 10 48  1  0  0  0  0
 11 21  1  0  0  0  0
 11 49  1  0  0  0  0
 12 22  1  0  0  0  0
 12 50  1  0  0  0  0
 13 19  1  0  0  0  0
 13 51  1  0  0  0  0
 13 52  1  0  0  0  0
 14 20  1  0  0  0  0
 14 53  1  0  0  0  0
 14 54  1  0  0  0  0
 15 17  1  0  0  0  0
 15 55  1  0  0  0  0
 15 56  1  0  0  0  0
 16 18  1  0  0  0  0
 16 57  1  0  0  0  0
 16 58  1  0  0  0  0
 17 21  1  0  0  0  0
 17 27  1  0  0  0  0
 17 59  1  0  0  0  0
 18 22  1  0  0  0  0
 18 28  1  0  0  0  0
 18 60  1  0  0  0  0
 19 61  1  0  0  0  0
 19 62  1  0  0  0  0
 20 63  1  0  0  0  0
 20 64  1  0  0  0  0
 21 30  2  0  0  0  0
 22 29  2  0  0  0  0
 23 31  1  0  0  0  0
 23 35  2  0  0  0  0
 24 32  1  0  0  0  0
 24 36  2  0  0  0  0
 25 27  1  0  0  0  0
 25 65  1  0  0  0  0
 25 66  1  0  0  0  0
 26 28  1  0  0  0  0
 26 67  1  0  0  0  0
 26 68  1  0  0  0  0
 27 37  2  0  0  0  0
 28 38  2  0  0  0  0
 29 69  1  0  0  0  0
 30 70  1  0  0  0  0
 31 39  2  0  0  0  0
 32 40  2  0  0  0  0
 33 71  1  0  0  0  0
 33 72  1  0  0  0  0
 33 73  1  0  0  0  0
 34 74  1  0  0  0  0
 34 75  1  0  0  0  0
 34 76  1  0  0  0  0
 35 41  1  0  0  0  0
 35 77  1  0  0  0  0
 36 42  1  0  0  0  0
 36 78  1  0  0  0  0
 37 45  1  0  0  0  0
 37 79  1  0  0  0  0
 38 46  1  0  0  0  0
 38 80  1  0  0  0  0
 39 43  1  0  0  0  0
 39 81  1  0  0  0  0
 40 44  1  0  0  0  0
 40 82  1  0  0  0  0
 41 43  2  0  0  0  0
 41 83  1  0  0  0  0
 42 44  2  0  0  0  0
 42 84  1  0  0  0  0
 43 85  1  0  0  0  0
 44 86  1  0  0  0  0
 45 87  1  0  0  0  0
 45 88  1  0  0  0  0
 46 89  1  0  0  0  0
 46 90  1  0  0  0  0
M  CHG  2   3   1   4   1
M  END
> <PUBCHEM_COMPOUND_CID>
9327

> <PUBCHEM_CONFORMER_RMSD>
1

> <PUBCHEM_CONFORMER_DIVERSEORDER>
1
2

> <PUBCHEM_MMFF94_PARTIAL_CHARGES>
56
1 -0.68
10 0.5
11 0.51
12 0.51
17 0.28
18 0.28
19 0.5
2 -0.68
20 0.5
21 -0.28
22 -0.28
23 -0.14
24 -0.14
25 0.64
26 0.64
27 -0.28
28 -0.28
29 -0.05
3 -1.01
30 -0.05
31 0.1
32 0.1
33 0.5
34 0.5
35 -0.15
36 -0.15
37 -0.29
38 -0.29
39 -0.15
4 -1.01
40 -0.15
41 -0.15
42 -0.15
43 -0.15
44 -0.15
45 0.42
46 0.42
5 -0.57
6 -0.57
69 0.15
7 0.14
70 0.15
77 0.15
78 0.15
79 0.15
8 0.14
80 0.15
81 0.15
82 0.15
83 0.15
84 0.15
85 0.15
86 0.15
9 0.5
91 0.4
92 0.4

> <PUBCHEM_EFFECTIVE_ROTOR_COUNT>
3.6

> <PUBCHEM_PHARMACOPHORE_FEATURES>
18
1 1 acceptor
1 1 donor
1 2 acceptor
1 2 donor
1 3 cation
1 4 cation
1 5 cation
1 6 cation
5 3 7 9 13 19 rings
5 4 8 10 14 20 rings
5 5 7 11 23 31 rings
5 6 8 12 24 32 rings
6 23 31 35 39 41 43 rings
6 24 32 36 40 42 44 rings
6 3 9 15 17 25 27 rings
6 4 10 16 18 26 28 rings
6 7 9 11 15 17 21 rings
6 8 10 12 16 18 22 rings

> <PUBCHEM_HEAVY_ATOM_COUNT>
46

> <PUBCHEM_ATOM_DEF_STEREO_COUNT>
10

> <PUBCHEM_ATOM_UDEF_STEREO_COUNT>
0

> <PUBCHEM_BOND_DEF_STEREO_COUNT>
0

> <PUBCHEM_BOND_UDEF_STEREO_COUNT>
4

> <PUBCHEM_ISOTOPIC_ATOM_COUNT>
0

> <PUBCHEM_COMPONENT_COUNT>
1

> <PUBCHEM_CACTVS_TAUTO_COUNT>
1

> <PUBCHEM_CONFORMER_ID>
0000246F00000001

> <PUBCHEM_MMFF94_ENERGY>
194.8839

> <PUBCHEM_FEATURE_SELFOVERLAP>
95.359

> <PUBCHEM_SHAPE_FINGERPRINT>
10190108 129 17617920874596218697
10290309 65 18342167925418292506
10439779 11 18270138884032025544
10675989 125 17835249217512414644
11285246 1 17831284370346342782
12156800 1 14255096361228297089
12202916 173 18047787976785141550
12422481 6 18053072083856156203
12608794 3 18338780266042710769
12633257 1 18340771425042915912
12788726 201 17762334017427048774
13140716 1 18126005953709916091
13726171 33 18200858631156147580
140371 6 18335134285289832480
14040222 75 17687761844290561055
14068700 686 17688583866929648515
14725015 67 18049161361060546382
15324884 4 18115038386027755840
15351339 4 17620763120494929767
15361156 5 18338238146020798140
16112460 7 18116709819184588745
17627616 140 17332529480633056869
20764821 26 18197223765477172033
21033648 144 18123762949715446757
21033648 29 18341057405498530421
22440779 20 16984010399132640579
23559900 14 18335411319264980198
460360 51 18343299279743547640
469060 322 16965780242920139207
5081480 168 17968359239329787316
508706 21 18341057341274546143
5265222 85 17986084500361425519
7399639 24 17689998933993958504

> <PUBCHEM_SHAPE_MULTIPOLES>
915
11.73
7.58
1.95
0.05
0.35
0.25
0.32
-0.78
0.4
0.56
-0.64
-0.91
5.42

> <PUBCHEM_SHAPE_SELFOVERLAP>
2074.982

> <PUBCHEM_SHAPE_VOLUME>
472.9

> <PUBCHEM_COORDINATE_TYPE>
2
5
10

$$$$

