9547215
  -OEChem-07051213092D

 62 66  0     1  0  0  0  0  0999 V2000
    7.9288   -2.5043    0.0000 O   0  0  0  0  0  0  0  0  0  0  0  0
    2.5357   -3.5566    0.0000 O   0  0  0  0  0  0  0  0  0  0  0  0
    8.8285    2.4458    0.0000 O   0  0  0  0  0  0  0  0  0  0  0  0
   10.1177    3.6025    0.0000 O   0  0  0  0  0  0  0  0  0  0  0  0
    7.9288   -1.5043    0.0000 C   0  0  1  0  0  0  0  0  0  0  0  0
    7.0628   -2.0043    0.0000 C   0  0  1  0  0  0  0  0  0  0  0  0
    6.1968   -1.5043    0.0000 C   0  0  1  0  0  0  0  0  0  0  0  0
    7.9288   -0.5043    0.0000 C   0  0  2  0  0  0  0  0  0  0  0  0
    5.2868   -2.0112    0.0000 C   0  0  2  0  0  0  0  0  0  0  0  0
    5.2787   -3.0528    0.0000 C   0  0  2  0  0  0  0  0  0  0  0  0
    6.1968   -0.5043    0.0000 C   0  0  0  0  0  0  0  0  0  0  0  0
    7.0628   -0.0043    0.0000 C   0  0  0  0  0  0  0  0  0  0  0  0
    8.8750   -0.1996    0.0000 C   0  0  2  0  0  0  0  0  0  0  0  0
    7.0789   -3.0458    0.0000 C   0  0  0  0  0  0  0  0  0  0  0  0
    8.8750   -1.8090    0.0000 C   0  0  0  0  0  0  0  0  0  0  0  0
    6.1808   -3.5736    0.0000 C   0  0  0  0  0  0  0  0  0  0  0  0
    9.4586   -1.0043    0.0000 C   0  0  0  0  0  0  0  0  0  0  0  0
    4.3599   -1.4471    0.0000 C   0  0  0  0  0  0  0  0  0  0  0  0
    4.3433   -3.6025    0.0000 C   0  0  0  0  0  0  0  0  0  0  0  0
    7.9288    0.4957    0.0000 C   0  0  0  0  0  0  0  0  0  0  0  0
    5.2945   -1.0112    0.0000 C   0  0  0  0  0  0  0  0  0  0  0  0
    3.4120   -1.9750    0.0000 C   0  0  0  0  0  0  0  0  0  0  0  0
    3.4037   -3.0600    0.0000 C   0  0  2  0  0  0  0  0  0  0  0  0
    9.1857    0.7509    0.0000 C   0  0  0  0  0  0  0  0  0  0  0  0
   10.1642    0.9572    0.0000 C   0  0  0  0  0  0  0  0  0  0  0  0
    8.5179    1.4952    0.0000 C   0  0  0  0  0  0  0  0  0  0  0  0
   10.4749    1.9077    0.0000 C   0  0  0  0  0  0  0  0  0  0  0  0
    9.8070    2.6520    0.0000 C   0  0  0  0  0  0  0  0  0  0  0  0
    7.8022   -2.4236    0.0000 H   0  0  0  0  0  0  0  0  0  0  0  0
    6.9329   -1.0793    0.0000 H   0  0  0  0  0  0  0  0  0  0  0  0
    5.2820   -3.9028    0.0000 H   0  0  0  0  0  0  0  0  0  0  0  0
    5.9847    0.0783    0.0000 H   0  0  0  0  0  0  0  0  0  0  0  0
    5.5862   -0.6120    0.0000 H   0  0  0  0  0  0  0  0  0  0  0  0
    7.4613    0.4706    0.0000 H   0  0  0  0  0  0  0  0  0  0  0  0
    6.6643    0.4706    0.0000 H   0  0  0  0  0  0  0  0  0  0  0  0
    9.4875   -0.1034    0.0000 H   0  0  0  0  0  0  0  0  0  0  0  0
    7.2969   -3.6262    0.0000 H   0  0  0  0  0  0  0  0  0  0  0  0
    7.6880   -2.9303    0.0000 H   0  0  0  0  0  0  0  0  0  0  0  0
    8.6240   -2.3760    0.0000 H   0  0  0  0  0  0  0  0  0  0  0  0
    9.4124   -2.1183    0.0000 H   0  0  0  0  0  0  0  0  0  0  0  0
    5.7835   -4.0496    0.0000 H   0  0  0  0  0  0  0  0  0  0  0  0
    6.5818   -4.0465    0.0000 H   0  0  0  0  0  0  0  0  0  0  0  0
    9.9195   -1.4190    0.0000 H   0  0  0  0  0  0  0  0  0  0  0  0
    9.9195   -0.5896    0.0000 H   0  0  0  0  0  0  0  0  0  0  0  0
    4.7681   -0.9804    0.0000 H   0  0  0  0  0  0  0  0  0  0  0  0
    3.9700   -0.9650    0.0000 H   0  0  0  0  0  0  0  0  0  0  0  0
    3.9460   -4.0785    0.0000 H   0  0  0  0  0  0  0  0  0  0  0  0
    4.7443   -4.0754    0.0000 H   0  0  0  0  0  0  0  0  0  0  0  0
    8.5488    0.4957    0.0000 H   0  0  0  0  0  0  0  0  0  0  0  0
    7.9288    1.1157    0.0000 H   0  0  0  0  0  0  0  0  0  0  0  0
    7.3088    0.4957    0.0000 H   0  0  0  0  0  0  0  0  0  0  0  0
    5.9145   -1.0160    0.0000 H   0  0  0  0  0  0  0  0  0  0  0  0
    5.2993   -0.3912    0.0000 H   0  0  0  0  0  0  0  0  0  0  0  0
    4.6745   -1.0064    0.0000 H   0  0  0  0  0  0  0  0  0  0  0  0
    3.2075   -1.3898    0.0000 H   0  0  0  0  0  0  0  0  0  0  0  0
    2.8004   -2.0764    0.0000 H   0  0  0  0  0  0  0  0  0  0  0  0
    3.4025   -3.6800    0.0000 H   0  0  0  0  0  0  0  0  0  0  0  0
    8.4658   -2.8143    0.0000 H   0  0  0  0  0  0  0  0  0  0  0  0
   10.5783    0.4957    0.0000 H   0  0  0  0  0  0  0  0  0  0  0  0
    7.9112    1.3674    0.0000 H   0  0  0  0  0  0  0  0  0  0  0  0
    2.0000   -3.2446    0.0000 H   0  0  0  0  0  0  0  0  0  0  0  0
   11.0815    2.0355    0.0000 H   0  0  0  0  0  0  0  0  0  0  0  0
  5  1  1  1  0  0  0
  1 58  1  0  0  0  0
 23  2  1  1  0  0  0
  2 61  1  0  0  0  0
  3 26  1  0  0  0  0
  3 28  1  0  0  0  0
  4 28  2  0  0  0  0
  5  6  1  0  0  0  0
  5  8  1  0  0  0  0
  5 15  1  0  0  0  0
  6  7  1  0  0  0  0
  6 14  1  0  0  0  0
  6 29  1  1  0  0  0
  7  9  1  0  0  0  0
  7 11  1  0  0  0  0
  7 30  1  6  0  0  0
  8 12  1  0  0  0  0
  8 13  1  0  0  0  0
  8 20  1  1  0  0  0
  9 10  1  0  0  0  0
  9 18  1  0  0  0  0
  9 21  1  1  0  0  0
 10 16  1  0  0  0  0
 10 19  1  0  0  0  0
 10 31  1  1  0  0  0
 11 12  1  0  0  0  0
 11 32  1  0  0  0  0
 11 33  1  0  0  0  0
 12 34  1  0  0  0  0
 12 35  1  0  0  0  0
 13 17  1  0  0  0  0
 13 24  1  1  0  0  0
 13 36  1  0  0  0  0
 14 16  1  0  0  0  0
 14 37  1  0  0  0  0
 14 38  1  0  0  0  0
 15 17  1  0  0  0  0
 15 39  1  0  0  0  0
 15 40  1  0  0  0  0
 16 41  1  0  0  0  0
 16 42  1  0  0  0  0
 17 43  1  0  0  0  0
 17 44  1  0  0  0  0
 18 22  1  0  0  0  0
 18 45  1  0  0  0  0
 18 46  1  0  0  0  0
 19 23  1  0  0  0  0
 19 47  1  0  0  0  0
 19 48  1  0  0  0  0
 20 49  1  0  0  0  0
 20 50  1  0  0  0  0
 20 51  1  0  0  0  0
 21 52  1  0  0  0  0
 21 53  1  0  0  0  0
 21 54  1  0  0  0  0
 22 23  1  0  0  0  0
 22 55  1  0  0  0  0
 22 56  1  0  0  0  0
 23 57  1  0  0  0  0
 24 25  1  0  0  0  0
 24 26  2  0  0  0  0
 25 27  2  0  0  0  0
 25 59  1  0  0  0  0
 26 60  1  0  0  0  0
 27 28  1  0  0  0  0
 27 62  1  0  0  0  0
M  END
> <PUBCHEM_COMPOUND_CID>
9547215

> <PUBCHEM_COMPOUND_CANONICALIZED>
1

> <PUBCHEM_CACTVS_COMPLEXITY>
741

> <PUBCHEM_CACTVS_HBOND_ACCEPTOR>
4

> <PUBCHEM_CACTVS_HBOND_DONOR>
2

> <PUBCHEM_CACTVS_ROTATABLE_BOND>
1

> <PUBCHEM_CACTVS_SUBSKEYS>
AAADcfB4OAAAAAAAAAAAAAAAAAAAAYAAAAAwYMEAAAAAAGDAAAAAGgAACAAAD1SggAICCAAABgCIAiDSCAAACAAgIAAICAAAAEgIFAIAIQAAUAAEgAAIoYOAwPAPgAAAAAAAAADAAAYAADAAAYAADAAAAA==

> <PUBCHEM_IUPAC_OPENEYE_NAME>
5-[(3S,5R,8R,9S,10S,13R,14S,17R)-3,14-dihydroxy-10,13-dimethyl-1,2,3,4,5,6,7,8,9,11,12,15,16,17-tetradecahydrocyclopenta[a]phenanthren-17-yl]pyran-2-one

> <PUBCHEM_IUPAC_CAS_NAME>
5-[(3S,5R,8R,9S,10S,13R,14S,17R)-3,14-dihydroxy-10,13-dimethyl-1,2,3,4,5,6,7,8,9,11,12,15,16,17-tetradecahydrocyclopenta[a]phenanthren-17-yl]-2-pyranone

> <PUBCHEM_IUPAC_NAME>
5-[(3S,5R,8R,9S,10S,13R,14S,17R)-3,14-dihydroxy-10,13-dimethyl-1,2,3,4,5,6,7,8,9,11,12,15,16,17-tetradecahydrocyclopenta[a]phenanthren-17-yl]pyran-2-one

> <PUBCHEM_IUPAC_SYSTEMATIC_NAME>
5-[(3S,5R,8R,9S,10S,13R,14S,17R)-10,13-dimethyl-3,14-bis(oxidanyl)-1,2,3,4,5,6,7,8,9,11,12,15,16,17-tetradecahydrocyclopenta[a]phenanthren-17-yl]pyran-2-one

> <PUBCHEM_IUPAC_TRADITIONAL_NAME>
5-[(3S,5R,8R,9S,10S,13R,14S,17R)-3,14-dihydroxy-10,13-dimethyl-1,2,3,4,5,6,7,8,9,11,12,15,16,17-tetradecahydrocyclopenta[a]phenanthren-17-yl]pyran-2-one

> <PUBCHEM_IUPAC_INCHI>
InChI=1S/C24H34O4/c1-22-10-7-17(25)13-16(22)4-5-20-19(22)8-11-23(2)18(9-12-24(20,23)27)15-3-6-21(26)28-14-15/h3,6,14,16-20,25,27H,4-5,7-13H2,1-2H3/t16-,17+,18-,19+,20-,22+,23-,24+/m1/s1

> <PUBCHEM_IUPAC_INCHIKEY>
QEEBRPGZBVVINN-BMPKRDENSA-N

> <PUBCHEM_XLOGP3>
3.2

> <PUBCHEM_EXACT_MASS>
386.24571

> <PUBCHEM_MOLECULAR_FORMULA>
C24H34O4

> <PUBCHEM_MOLECULAR_WEIGHT>
386.52436

> <PUBCHEM_OPENEYE_CAN_SMILES>
CC12CCC(CC1CCC3C2CCC4(C3(CCC4C5=COC(=O)C=C5)O)C)O

> <PUBCHEM_OPENEYE_ISO_SMILES>
C[C@]12CC[C@@H](C[C@H]1CC[C@@H]3[C@@H]2CC[C@]4([C@@]3(CC[C@@H]4C5=COC(=O)C=C5)O)C)O

> <PUBCHEM_CACTVS_TPSA>
66.8

> <PUBCHEM_MONOISOTOPIC_WEIGHT>
386.24571

> <PUBCHEM_TOTAL_CHARGE>
0

> <PUBCHEM_HEAVY_ATOM_COUNT>
28

> <PUBCHEM_ATOM_DEF_STEREO_COUNT>
8

> <PUBCHEM_ATOM_UDEF_STEREO_COUNT>
0

> <PUBCHEM_BOND_DEF_STEREO_COUNT>
0

> <PUBCHEM_BOND_UDEF_STEREO_COUNT>
0

> <PUBCHEM_ISOTOPIC_ATOM_COUNT>
0

> <PUBCHEM_COMPONENT_COUNT>
1

> <PUBCHEM_CACTVS_TAUTO_COUNT>
1

> <PUBCHEM_COORDINATE_TYPE>
1
5
255

> <PUBCHEM_BONDANNOTATIONS>
5  1  5
10  31  5
13  24  5
23  2  5
24  25  8
24  26  8
25  27  8
27  28  8
3  26  8
3  28  8
6  29  5
7  30  6
8  20  5
9  21  5

$$$$

