34312
  -OEChem-07051212533D

 31 33  0     0  0  0  0  0  0999 V2000
    1.0960   -3.0625   -1.0128 O   0  0  0  0  0  0  0  0  0  0  0  0
    0.7617    3.0768   -1.0440 O   0  0  0  0  0  0  0  0  0  0  0  0
   -0.1276    1.0360   -0.2790 N   0  0  0  0  0  0  0  0  0  0  0  0
   -1.4825    2.7977   -1.1045 N   0  0  0  0  0  0  0  0  0  0  0  0
   -1.5541   -0.9569   -0.4171 C   0  0  0  0  0  0  0  0  0  0  0  0
   -1.2796    0.2999    0.1333 C   0  0  0  0  0  0  0  0  0  0  0  0
   -0.6418   -1.5179   -1.4598 C   0  0  0  0  0  0  0  0  0  0  0  0
    1.1397    0.4482    0.0883 C   0  0  0  0  0  0  0  0  0  0  0  0
    1.4930   -0.9074   -0.1105 C   0  0  0  0  0  0  0  0  0  0  0  0
    0.6762   -1.9159   -0.8600 C   0  0  0  0  0  0  0  0  0  0  0  0
   -2.6844   -1.6674    0.0089 C   0  0  0  0  0  0  0  0  0  0  0  0
   -2.1485    0.8401    1.0957 C   0  0  0  0  0  0  0  0  0  0  0  0
    2.0759    1.2781    0.7468 C   0  0  0  0  0  0  0  0  0  0  0  0
    2.7432   -1.3751    0.3474 C   0  0  0  0  0  0  0  0  0  0  0  0
   -0.2072    2.3547   -0.7916 C   0  0  0  0  0  0  0  0  0  0  0  0
   -3.5399   -1.1265    0.9683 C   0  0  0  0  0  0  0  0  0  0  0  0
   -3.2730    0.1274    1.5105 C   0  0  0  0  0  0  0  0  0  0  0  0
    3.3098    0.7998    1.1894 C   0  0  0  0  0  0  0  0  0  0  0  0
    3.6429   -0.5291    0.9907 C   0  0  0  0  0  0  0  0  0  0  0  0
   -1.0929   -2.4059   -1.9200 H   0  0  0  0  0  0  0  0  0  0  0  0
   -0.4766   -0.8064   -2.2773 H   0  0  0  0  0  0  0  0  0  0  0  0
   -2.9086   -2.6464   -0.4072 H   0  0  0  0  0  0  0  0  0  0  0  0
   -1.9468    1.8100    1.5440 H   0  0  0  0  0  0  0  0  0  0  0  0
    1.8404    2.3148    0.9781 H   0  0  0  0  0  0  0  0  0  0  0  0
    3.0477   -2.4093    0.2022 H   0  0  0  0  0  0  0  0  0  0  0  0
   -4.4143   -1.6835    1.2917 H   0  0  0  0  0  0  0  0  0  0  0  0
   -3.9372    0.5487    2.2593 H   0  0  0  0  0  0  0  0  0  0  0  0
    3.9990    1.4654    1.7005 H   0  0  0  0  0  0  0  0  0  0  0  0
    4.5997   -0.9105    1.3341 H   0  0  0  0  0  0  0  0  0  0  0  0
   -1.6192    3.7268   -1.4892 H   0  0  0  0  0  0  0  0  0  0  0  0
   -2.3112    2.2178   -1.0478 H   0  0  0  0  0  0  0  0  0  0  0  0
  1 10  2  0  0  0  0
  2 15  2  0  0  0  0
  3  6  1  0  0  0  0
  3  8  1  0  0  0  0
  3 15  1  0  0  0  0
  4 15  1  0  0  0  0
  4 30  1  0  0  0  0
  4 31  1  0  0  0  0
  5  6  1  0  0  0  0
  5  7  1  0  0  0  0
  5 11  2  0  0  0  0
  6 12  2  0  0  0  0
  7 10  1  0  0  0  0
  7 20  1  0  0  0  0
  7 21  1  0  0  0  0
  8  9  1  0  0  0  0
  8 13  2  0  0  0  0
  9 10  1  0  0  0  0
  9 14  2  0  0  0  0
 11 16  1  0  0  0  0
 11 22  1  0  0  0  0
 12 17  1  0  0  0  0
 12 23  1  0  0  0  0
 13 18  1  0  0  0  0
 13 24  1  0  0  0  0
 14 19  1  0  0  0  0
 14 25  1  0  0  0  0
 16 17  2  0  0  0  0
 16 26  1  0  0  0  0
 17 27  1  0  0  0  0
 18 19  2  0  0  0  0
 18 28  1  0  0  0  0
 19 29  1  0  0  0  0
M  END
> <PUBCHEM_COMPOUND_CID>
34312

> <PUBCHEM_CONFORMER_RMSD>
0.6

> <PUBCHEM_CONFORMER_DIVERSEORDER>
1
7
2
5
6
3
8
4

> <PUBCHEM_MMFF94_PARTIAL_CHARGES>
29
1 -0.57
10 0.42
11 -0.15
12 -0.15
13 -0.15
14 -0.15
15 0.69
16 -0.15
17 -0.15
18 -0.15
19 -0.15
2 -0.57
22 0.15
23 0.15
24 0.15
25 0.15
26 0.15
27 0.15
28 0.15
29 0.15
3 -0.29
30 0.37
31 0.37
4 -0.8
5 -0.14
6 0.12
7 0.2
8 0.12
9 0.09

> <PUBCHEM_EFFECTIVE_ROTOR_COUNT>
1.4

> <PUBCHEM_PHARMACOPHORE_FEATURES>
6
1 1 acceptor
1 2 acceptor
1 4 donor
6 5 6 11 12 16 17 rings
6 8 9 13 14 18 19 rings
7 3 5 6 7 8 9 10 rings

> <PUBCHEM_HEAVY_ATOM_COUNT>
19

> <PUBCHEM_ATOM_DEF_STEREO_COUNT>
0

> <PUBCHEM_ATOM_UDEF_STEREO_COUNT>
0

> <PUBCHEM_BOND_DEF_STEREO_COUNT>
0

> <PUBCHEM_BOND_UDEF_STEREO_COUNT>
0

> <PUBCHEM_ISOTOPIC_ATOM_COUNT>
0

> <PUBCHEM_COMPONENT_COUNT>
1

> <PUBCHEM_CACTVS_TAUTO_COUNT>
4

> <PUBCHEM_CONFORMER_ID>
0000860800000001

> <PUBCHEM_MMFF94_ENERGY>
97.4399

> <PUBCHEM_FEATURE_SELFOVERLAP>
30.468

> <PUBCHEM_SHAPE_FINGERPRINT>
11132069 177 18333739017670894074
11680986 33 17831025989382376118
12035758 1 17617374429947940753
12251169 10 18333167262754960674
12382932 28 18187643634801833235
12400797 245 18341610391080410923
12403814 3 18338535044562834448
12553582 1 18271795805147621531
12633257 1 18045777046678309699
12644460 14 17911483586042107969
12696612 119 18338226085805592171
12716301 132 17550941924475778843
13140716 1 18335710497985790770
13172582 1 18336548213770850074
14178342 30 18335125484922786339
14223421 5 18265334091296644922
14817 1 13321840494733539509
15279307 12 17546720456934185085
15309172 13 18259993651878084642
15881359 60 18118144651608467463
16945 1 18113893913817220419
18219364 16 18042979846442732824
19049666 15 17762337315713706762
19930374 2 18338525247478583823
20871998 184 18339089279811548420
21421861 104 17694471790847610675
21756936 100 16444487671846573744
22149856 69 17244942157717189947
23184049 59 18335423422018447426
2334 1 18335992969315805478
23388829 49 18117000987917537207
23463225 33 18338796719360411195
2748010 2 18047469212221631670
6786 2 15759953005054698358
6992083 37 18192161394936410734
81228 2 17985253325658582417
84936 31 16082205384515478222
90316 7 18272653501474087201

> <PUBCHEM_SHAPE_MULTIPOLES>
369.31
5.2
2.99
1.36
0.19
0.88
0.03
-1.09
3.2
0.23
-1.65
-0.3
0.17
0.22

> <PUBCHEM_SHAPE_SELFOVERLAP>
818.433

> <PUBCHEM_SHAPE_VOLUME>
194.9

> <PUBCHEM_COORDINATE_TYPE>
2
5
10

$$$$

