440516
  -OEChem-07051212503D

 76 80  0     1  0  0  0  0  0999 V2000
    3.7947    0.4943    1.9680 P   0  0  2  0  0  0  0  0  0  0  0  0
    3.9158   -1.8127    0.1458 P   0  0  1  0  0  0  0  0  0  0  0  0
    0.1255    1.5696    0.7193 O   0  0  0  0  0  0  0  0  0  0  0  0
   -0.3483   -1.6618   -0.5551 O   0  0  0  0  0  0  0  0  0  0  0  0
   -2.1664    4.0066    2.0083 O   0  0  0  0  0  0  0  0  0  0  0  0
    0.3105    4.5453    1.0049 O   0  0  0  0  0  0  0  0  0  0  0  0
    2.1955    0.3466    2.1638 O   0  0  0  0  0  0  0  0  0  0  0  0
   -1.7170   -4.3708   -0.8476 O   0  0  0  0  0  0  0  0  0  0  0  0
   -2.0627   -3.2377   -3.2934 O   0  0  0  0  0  0  0  0  0  0  0  0
   -3.6906    1.8397   -0.4936 O   0  0  0  0  0  0  0  0  0  0  0  0
    2.3221   -2.0860    0.2113 O   0  0  0  0  0  0  0  0  0  0  0  0
    4.2417   -0.9857    1.4962 O   0  0  0  0  0  0  0  0  0  0  0  0
    4.3651    0.5819    3.4792 O   0  0  0  0  0  0  0  0  0  0  0  0
   -1.0000   -2.4916    3.2087 O   0  0  0  0  0  0  0  0  0  0  0  0
    4.2395    1.6011    1.0574 O   0  0  0  0  0  0  0  0  0  0  0  0
    4.5846   -3.2589    0.4264 O   0  0  0  0  0  0  0  0  0  0  0  0
    4.3882   -1.1458   -1.1134 O   0  0  0  0  0  0  0  0  0  0  0  0
   -2.1303    0.9633    1.1225 N   0  0  2  0  0  0  0  0  0  0  0  0
   -1.1332   -0.3404   -2.3630 N   0  0  0  0  0  0  0  0  0  0  0  0
   -1.7156    1.4652   -3.5336 N   0  0  0  0  0  0  0  0  0  0  0  0
    1.2345    0.1073   -2.0565 N   0  0  0  0  0  0  0  0  0  0  0  0
   -3.1330   -2.5921    4.0872 N   0  0  0  0  0  0  0  0  0  0  0  0
    1.8812    2.2137   -3.1059 N   0  0  0  0  0  0  0  0  0  0  0  0
    0.3177    3.6031   -4.2686 N   0  0  0  0  0  0  0  0  0  0  0  0
   -1.2189    2.0546    0.8892 C   0  0  1  0  0  0  0  0  0  0  0  0
   -1.1868    2.9907    2.0870 C   0  0  1  0  0  0  0  0  0  0  0  0
    0.2203    3.5456    2.0196 C   0  0  1  0  0  0  0  0  0  0  0  0
    1.0182    2.3349    1.5574 C   0  0  1  0  0  0  0  0  0  0  0  0
   -0.5467   -3.8479   -1.4762 C   0  0  1  0  0  0  0  0  0  0  0  0
   -0.9485   -2.8304   -2.5255 C   0  0  2  0  0  0  0  0  0  0  0  0
   -3.5433    1.1687    0.7564 C   0  0  2  0  0  0  0  0  0  0  0  0
    0.2127   -2.9920   -0.4673 C   0  0  1  0  0  0  0  0  0  0  0  0
   -1.2659   -1.6171   -1.6648 C   0  0  1  0  0  0  0  0  0  0  0  0
    1.4763    1.4417    2.7028 C   0  0  0  0  0  0  0  0  0  0  0  0
   -4.2705   -0.1821    0.6552 C   0  0  0  0  0  0  0  0  0  0  0  0
   -1.7896   -0.0978    1.9495 C   0  0  0  0  0  0  0  0  0  0  0  0
   -4.0799   -1.0449    1.9075 C   0  0  0  0  0  0  0  0  0  0  0  0
   -2.6494   -1.0430    2.3530 C   0  0  0  0  0  0  0  0  0  0  0  0
    1.7029   -2.9052   -0.7654 C   0  0  0  0  0  0  0  0  0  0  0  0
    0.0068    0.3967   -2.5132 C   0  0  0  0  0  0  0  0  0  0  0  0
   -2.1399    0.3420   -2.9931 C   0  0  0  0  0  0  0  0  0  0  0  0
   -2.1663   -2.0999    3.2400 C   0  0  0  0  0  0  0  0  0  0  0  0
   -0.3757    1.5121   -3.2412 C   0  0  0  0  0  0  0  0  0  0  0  0
    0.6168    2.4414   -3.5360 C   0  0  0  0  0  0  0  0  0  0  0  0
    2.1082    1.0776   -2.4033 C   0  0  0  0  0  0  0  0  0  0  0  0
   -1.4704    2.5975   -0.0287 H   0  0  0  0  0  0  0  0  0  0  0  0
   -1.3292    2.4499    3.0303 H   0  0  0  0  0  0  0  0  0  0  0  0
    0.5605    3.9878    2.9603 H   0  0  0  0  0  0  0  0  0  0  0  0
    1.8657    2.6197    0.9271 H   0  0  0  0  0  0  0  0  0  0  0  0
    0.0206   -4.6903   -1.8819 H   0  0  0  0  0  0  0  0  0  0  0  0
   -0.1093   -2.6253   -3.2012 H   0  0  0  0  0  0  0  0  0  0  0  0
   -4.0197    1.7888    1.5256 H   0  0  0  0  0  0  0  0  0  0  0  0
    0.0593   -3.3288    0.5640 H   0  0  0  0  0  0  0  0  0  0  0  0
   -2.2842   -1.6606   -1.2691 H   0  0  0  0  0  0  0  0  0  0  0  0
    2.1159    2.0043    3.3916 H   0  0  0  0  0  0  0  0  0  0  0  0
    0.6469    1.0431    3.2893 H   0  0  0  0  0  0  0  0  0  0  0  0
   -5.3406   -0.0163    0.4787 H   0  0  0  0  0  0  0  0  0  0  0  0
   -3.9173   -0.7258   -0.2273 H   0  0  0  0  0  0  0  0  0  0  0  0
   -0.7546   -0.1225    2.2524 H   0  0  0  0  0  0  0  0  0  0  0  0
   -4.7131   -0.6501    2.7112 H   0  0  0  0  0  0  0  0  0  0  0  0
   -4.4191   -2.0627    1.6820 H   0  0  0  0  0  0  0  0  0  0  0  0
    2.1556   -3.9014   -0.7304 H   0  0  0  0  0  0  0  0  0  0  0  0
    1.8932   -2.4712   -1.7512 H   0  0  0  0  0  0  0  0  0  0  0  0
   -2.0083    4.6224    2.7440 H   0  0  0  0  0  0  0  0  0  0  0  0
    1.2352    4.8447    0.9731 H   0  0  0  0  0  0  0  0  0  0  0  0
   -1.4231   -4.9791   -0.1480 H   0  0  0  0  0  0  0  0  0  0  0  0
   -1.8286   -4.0782   -3.7226 H   0  0  0  0  0  0  0  0  0  0  0  0
   -4.6426    1.9543   -0.6550 H   0  0  0  0  0  0  0  0  0  0  0  0
   -3.1563   -0.0261   -3.0253 H   0  0  0  0  0  0  0  0  0  0  0  0
   -2.9084   -3.3325    4.7441 H   0  0  0  0  0  0  0  0  0  0  0  0
   -4.0860   -2.2462    4.1217 H   0  0  0  0  0  0  0  0  0  0  0  0
    4.1297   -0.1259    4.1162 H   0  0  0  0  0  0  0  0  0  0  0  0
    3.1297    0.9380   -2.0711 H   0  0  0  0  0  0  0  0  0  0  0  0
    5.5521   -3.3653    0.3052 H   0  0  0  0  0  0  0  0  0  0  0  0
    1.0560    4.2639   -4.4692 H   0  0  0  0  0  0  0  0  0  0  0  0
   -0.6253    3.7759   -4.5896 H   0  0  0  0  0  0  0  0  0  0  0  0
  1  7  1  0  0  0  0
  1 12  1  0  0  0  0
  1 13  1  0  0  0  0
  1 15  2  0  0  0  0
  2 11  1  0  0  0  0
  2 12  1  0  0  0  0
  2 16  1  0  0  0  0
  2 17  2  0  0  0  0
  3 25  1  0  0  0  0
  3 28  1  0  0  0  0
  4 32  1  0  0  0  0
  4 33  1  0  0  0  0
  5 26  1  0  0  0  0
  5 64  1  0  0  0  0
  6 27  1  0  0  0  0
  6 65  1  0  0  0  0
  7 34  1  0  0  0  0
  8 29  1  0  0  0  0
  8 66  1  0  0  0  0
  9 30  1  0  0  0  0
  9 67  1  0  0  0  0
 10 31  1  0  0  0  0
 10 68  1  0  0  0  0
 11 39  1  0  0  0  0
 13 72  1  0  0  0  0
 14 42  2  0  0  0  0
 16 74  1  0  0  0  0
 18 25  1  0  0  0  0
 18 31  1  0  0  0  0
 18 36  1  0  0  0  0
 19 33  1  0  0  0  0
 19 40  1  0  0  0  0
 19 41  1  0  0  0  0
 20 41  2  0  0  0  0
 20 43  1  0  0  0  0
 21 40  2  0  0  0  0
 21 45  1  0  0  0  0
 22 42  1  0  0  0  0
 22 70  1  0  0  0  0
 22 71  1  0  0  0  0
 23 44  1  0  0  0  0
 23 45  2  0  0  0  0
 24 44  1  0  0  0  0
 24 75  1  0  0  0  0
 24 76  1  0  0  0  0
 25 26  1  0  0  0  0
 25 46  1  0  0  0  0
 26 27  1  0  0  0  0
 26 47  1  0  0  0  0
 27 28  1  0  0  0  0
 27 48  1  0  0  0  0
 28 34  1  0  0  0  0
 28 49  1  0  0  0  0
 29 30  1  0  0  0  0
 29 32  1  0  0  0  0
 29 50  1  0  0  0  0
 30 33  1  0  0  0  0
 30 51  1  0  0  0  0
 31 35  1  0  0  0  0
 31 52  1  0  0  0  0
 32 39  1  0  0  0  0
 32 53  1  0  0  0  0
 33 54  1  0  0  0  0
 34 55  1  0  0  0  0
 34 56  1  0  0  0  0
 35 37  1  0  0  0  0
 35 57  1  0  0  0  0
 35 58  1  0  0  0  0
 36 38  2  0  0  0  0
 36 59  1  0  0  0  0
 37 38  1  0  0  0  0
 37 60  1  0  0  0  0
 37 61  1  0  0  0  0
 38 42  1  0  0  0  0
 39 62  1  0  0  0  0
 39 63  1  0  0  0  0
 40 43  1  0  0  0  0
 41 69  1  0  0  0  0
 43 44  2  0  0  0  0
 45 73  1  0  0  0  0
M  END
> <PUBCHEM_COMPOUND_CID>
440516

> <PUBCHEM_CONFORMER_RMSD>
1.8

> <PUBCHEM_CONFORMER_DIVERSEORDER>
3
186
173
198
118
1
152
170
10
115
82
159
147
70
167
138
194
63
185
5
119
197
87
114
2
141
57
33
179
42
52
13
127
71
86
96
4
165
44
89
153
97
189
24
149
140
134
37
104
157
122
8
195
95
126
93
129
183
76
7
201
202
39
60
17
205
23
162
184
15
111
133
106
123
6
136
166
112
81
117
55
69
193
32
14
38
85
105
46
175
181
188
196
199
27
43
16
178
110
75
139
90
21
102
145
128
31
203
29
146
109
62
103
20
137
169
101
78
45
84
108
172
35
171
11
204
79
91
30
25
174
168
100
34
142
177
163
72
47
155
135
164
200
144
190
182
26
77
148
9
160
161
36
99
113
66
92
28
151
180
54
120
88
67
74
192
83
121
143
150
158
40
50
51
12
56
187
58
191
125
176
68
61
132
124
130
107
41
80
154
98
156
18
131
73
94
49
53
22
65
48
19
116
64
59

> <PUBCHEM_MMFF94_PARTIAL_CHARGES>
58
1 1.51
10 -0.68
11 -0.55
12 -0.54
13 -0.77
14 -0.57
15 -0.7
16 -0.77
17 -0.7
18 -0.84
19 0.05
2 1.51
20 -0.57
21 -0.57
22 -0.8
23 -0.62
24 -0.9
25 0.65
26 0.28
27 0.28
28 0.28
29 0.28
3 -0.56
30 0.28
31 0.65
32 0.28
33 0.54
34 0.28
36 -0.05
37 0.14
38 -0.12
39 0.28
4 -0.56
40 0.11
41 0.04
42 0.62
43 0.23
44 0.41
45 0.47
5 -0.68
59 0.15
6 -0.68
64 0.4
65 0.4
66 0.4
67 0.4
68 0.4
69 0.15
7 -0.55
70 0.37
71 0.37
72 0.5
73 0.15
74 0.5
75 0.4
76 0.4
8 -0.68
9 -0.68

> <PUBCHEM_EFFECTIVE_ROTOR_COUNT>
13.8

> <PUBCHEM_PHARMACOPHORE_FEATURES>
29
1 10 acceptor
1 10 donor
1 13 acceptor
1 14 acceptor
1 15 acceptor
1 16 acceptor
1 17 acceptor
1 18 cation
1 22 donor
1 24 cation
1 24 donor
1 3 acceptor
1 4 acceptor
1 5 acceptor
1 5 donor
1 6 acceptor
1 6 donor
1 8 acceptor
1 8 donor
1 9 acceptor
1 9 donor
3 19 20 41 cation
3 19 21 40 cation
3 21 23 45 cation
5 19 20 40 41 43 rings
5 3 25 26 27 28 rings
5 4 29 30 32 33 rings
6 18 31 35 36 37 38 rings
6 21 23 40 43 44 45 rings

> <PUBCHEM_HEAVY_ATOM_COUNT>
45

> <PUBCHEM_ATOM_DEF_STEREO_COUNT>
9

> <PUBCHEM_ATOM_UDEF_STEREO_COUNT>
0

> <PUBCHEM_BOND_DEF_STEREO_COUNT>
0

> <PUBCHEM_BOND_UDEF_STEREO_COUNT>
0

> <PUBCHEM_ISOTOPIC_ATOM_COUNT>
0

> <PUBCHEM_COMPONENT_COUNT>
1

> <PUBCHEM_CACTVS_TAUTO_COUNT>
6

> <PUBCHEM_CONFORMER_ID>
0006B8C400000003

> <PUBCHEM_MMFF94_ENERGY>
66.65

> <PUBCHEM_FEATURE_SELFOVERLAP>
147.812

> <PUBCHEM_SHAPE_FINGERPRINT>
11578080 2 16476554214698954084
12156800 1 5929212977961986859
12539773 59 16371309726170958066
13149001 5 11618396129771732997
13642711 20 15097617233368348372
15406563 42 14582888363732047755
20600515 1 15524427525248632603
20764821 26 9626269351565757769
35225 105 14388495335148894326
46939830 39 6333391884721797594
550186 7 13715287042519986751

> <PUBCHEM_SHAPE_MULTIPOLES>
810.87
6.46
5.49
5.36
3.04
0.17
-3.31
1.72
5.58
-0.46
0.16
-0.23
-1.09
0.09

> <PUBCHEM_SHAPE_SELFOVERLAP>
1707.121

> <PUBCHEM_SHAPE_VOLUME>
458

> <PUBCHEM_COORDINATE_TYPE>
2
5
10

$$$$

