8405
  -OEChem-07051212512D

 17 18  0     0  0  0  0  0  0999 V2000
    2.0000   -0.5000    0.0000 N   0  0  0  0  0  0  0  0  0  0  0  0
    3.7320    0.5000    0.0000 C   0  0  0  0  0  0  0  0  0  0  0  0
    3.7320   -0.5000    0.0000 C   0  0  0  0  0  0  0  0  0  0  0  0
    4.6260    1.0347    0.0000 C   0  0  0  0  0  0  0  0  0  0  0  0
    4.6260   -1.0347    0.0000 C   0  0  0  0  0  0  0  0  0  0  0  0
    2.8660    1.0000    0.0000 C   0  0  0  0  0  0  0  0  0  0  0  0
    2.8660   -1.0000    0.0000 C   0  0  0  0  0  0  0  0  0  0  0  0
    5.5321    0.5208    0.0000 C   0  0  0  0  0  0  0  0  0  0  0  0
    5.5321   -0.5208    0.0000 C   0  0  0  0  0  0  0  0  0  0  0  0
    2.0000    0.5000    0.0000 C   0  0  0  0  0  0  0  0  0  0  0  0
    4.6188    1.6546    0.0000 H   0  0  0  0  0  0  0  0  0  0  0  0
    4.6188   -1.6546    0.0000 H   0  0  0  0  0  0  0  0  0  0  0  0
    2.8660    1.6200    0.0000 H   0  0  0  0  0  0  0  0  0  0  0  0
    2.8660   -1.6200    0.0000 H   0  0  0  0  0  0  0  0  0  0  0  0
    6.0678    0.8329    0.0000 H   0  0  0  0  0  0  0  0  0  0  0  0
    6.0678   -0.8329    0.0000 H   0  0  0  0  0  0  0  0  0  0  0  0
    1.4631    0.8100    0.0000 H   0  0  0  0  0  0  0  0  0  0  0  0
  1  7  2  0  0  0  0
  1 10  1  0  0  0  0
  2  3  1  0  0  0  0
  2  4  2  0  0  0  0
  2  6  1  0  0  0  0
  3  5  2  0  0  0  0
  3  7  1  0  0  0  0
  4  8  1  0  0  0  0
  4 11  1  0  0  0  0
  5  9  1  0  0  0  0
  5 12  1  0  0  0  0
  6 10  2  0  0  0  0
  6 13  1  0  0  0  0
  7 14  1  0  0  0  0
  8  9  2  0  0  0  0
  8 15  1  0  0  0  0
  9 16  1  0  0  0  0
 10 17  1  0  0  0  0
M  END
> <PUBCHEM_COMPOUND_CID>
8405

> <PUBCHEM_COMPOUND_CANONICALIZED>
1

> <PUBCHEM_CACTVS_COMPLEXITY>
111

> <PUBCHEM_CACTVS_HBOND_ACCEPTOR>
1

> <PUBCHEM_CACTVS_HBOND_DONOR>
0

> <PUBCHEM_CACTVS_ROTATABLE_BOND>
0

> <PUBCHEM_CACTVS_SUBSKEYS>
AAADcYByAAAAAAAAAAAAAAAAAAAAAAAAAAA8QAAAAAAAAACx8AAAHAAAAAAADADBGgQ8gNIIEACgAjBnRACCgCAxAiAI2CA4ZJgIIOLAkZGEIAhggADIyAcQgIAOgAAAAAAQAAAAAAAAACAAAAAAAAAAAA==

> <PUBCHEM_IUPAC_OPENEYE_NAME>
isoquinoline

> <PUBCHEM_IUPAC_CAS_NAME>
isoquinoline

> <PUBCHEM_IUPAC_NAME>
isoquinoline

> <PUBCHEM_IUPAC_SYSTEMATIC_NAME>
isoquinoline

> <PUBCHEM_IUPAC_TRADITIONAL_NAME>
isoquinoline

> <PUBCHEM_IUPAC_INCHI>
InChI=1S/C9H7N/c1-2-4-9-7-10-6-5-8(9)3-1/h1-7H

> <PUBCHEM_IUPAC_INCHIKEY>
AWJUIBRHMBBTKR-UHFFFAOYSA-N

> <PUBCHEM_XLOGP3>
2.1

> <PUBCHEM_EXACT_MASS>
129.057849

> <PUBCHEM_MOLECULAR_FORMULA>
C9H7N

> <PUBCHEM_MOLECULAR_WEIGHT>
129.15858

> <PUBCHEM_OPENEYE_CAN_SMILES>
C1=CC=C2C=NC=CC2=C1

> <PUBCHEM_OPENEYE_ISO_SMILES>
C1=CC=C2C=NC=CC2=C1

> <PUBCHEM_CACTVS_TPSA>
12.9

> <PUBCHEM_MONOISOTOPIC_WEIGHT>
129.057849

> <PUBCHEM_TOTAL_CHARGE>
0

> <PUBCHEM_HEAVY_ATOM_COUNT>
10

> <PUBCHEM_ATOM_DEF_STEREO_COUNT>
0

> <PUBCHEM_ATOM_UDEF_STEREO_COUNT>
0

> <PUBCHEM_BOND_DEF_STEREO_COUNT>
0

> <PUBCHEM_BOND_UDEF_STEREO_COUNT>
0

> <PUBCHEM_ISOTOPIC_ATOM_COUNT>
0

> <PUBCHEM_COMPONENT_COUNT>
1

> <PUBCHEM_CACTVS_TAUTO_COUNT>
1

> <PUBCHEM_COORDINATE_TYPE>
1
5
255

> <PUBCHEM_BONDANNOTATIONS>
1  10  8
1  7  8
2  3  8
2  4  8
2  6  8
3  5  8
3  7  8
4  8  8
5  9  8
6  10  8
8  9  8

$$$$

