8660
  -OEChem-06261202593D

 22 22  0     0  0  0  0  0  0999 V2000
    1.0314   -0.2322    0.8602 S   0  0  0  0  0  0  0  0  0  0  0  0
   -1.1116   -2.2352   -1.2696 O   0  0  0  0  0  0  0  0  0  0  0  0
   -1.7901   -2.5566    0.8757 O   0  0  0  0  0  0  0  0  0  0  0  0
    4.4746    0.9656   -0.5008 O   0  0  0  0  0  0  0  0  0  0  0  0
    3.8251   -1.0408    0.3464 O   0  0  0  0  0  0  0  0  0  0  0  0
   -0.5487    0.4656    0.3934 C   0  0  0  0  0  0  0  0  0  0  0  0
   -1.6210   -0.3360    0.0015 C   0  0  0  0  0  0  0  0  0  0  0  0
   -0.6915    1.8526    0.4290 C   0  0  0  0  0  0  0  0  0  0  0  0
   -2.8358    0.2494   -0.3548 C   0  0  0  0  0  0  0  0  0  0  0  0
   -1.9064    2.4381    0.0730 C   0  0  0  0  0  0  0  0  0  0  0  0
   -2.9787    1.6365   -0.3192 C   0  0  0  0  0  0  0  0  0  0  0  0
    2.1378    0.5295   -0.3583 C   0  0  0  0  0  0  0  0  0  0  0  0
   -1.5278   -1.7906   -0.0540 C   0  0  0  0  0  0  0  0  0  0  0  0
    3.5428    0.0544   -0.1226 C   0  0  0  0  0  0  0  0  0  0  0  0
    0.1231    2.5010    0.7417 H   0  0  0  0  0  0  0  0  0  0  0  0
   -3.6796   -0.3635   -0.6619 H   0  0  0  0  0  0  0  0  0  0  0  0
   -2.0188    3.5179    0.1033 H   0  0  0  0  0  0  0  0  0  0  0  0
   -3.9247    2.0924   -0.5959 H   0  0  0  0  0  0  0  0  0  0  0  0
    2.1110    1.6167   -0.2434 H   0  0  0  0  0  0  0  0  0  0  0  0
    1.8380    0.2585   -1.3745 H   0  0  0  0  0  0  0  0  0  0  0  0
   -1.0516   -3.2139   -1.2998 H   0  0  0  0  0  0  0  0  0  0  0  0
    5.3875    0.6404   -0.3481 H   0  0  0  0  0  0  0  0  0  0  0  0
  1  6  1  0  0  0  0
  1 12  1  0  0  0  0
  2 13  1  0  0  0  0
  2 21  1  0  0  0  0
  3 13  2  0  0  0  0
  4 14  1  0  0  0  0
  4 22  1  0  0  0  0
  5 14  2  0  0  0  0
  6  7  1  0  0  0  0
  6  8  2  0  0  0  0
  7  9  2  0  0  0  0
  7 13  1  0  0  0  0
  8 10  1  0  0  0  0
  8 15  1  0  0  0  0
  9 11  1  0  0  0  0
  9 16  1  0  0  0  0
 10 11  2  0  0  0  0
 10 17  1  0  0  0  0
 11 18  1  0  0  0  0
 12 14  1  0  0  0  0
 12 19  1  0  0  0  0
 12 20  1  0  0  0  0
M  END
> <PUBCHEM_COMPOUND_CID>
8660

> <PUBCHEM_CONFORMER_RMSD>
0.6

> <PUBCHEM_CONFORMER_DIVERSEORDER>
1
20
11
13
31
16
21
37
36
4
17
26
22
30
35
27
24
19
15
2
18
28
23
14
32
25
5
8
29
7
33
6
38
3
34
12
10
9

> <PUBCHEM_MMFF94_PARTIAL_CHARGES>
20
1 -0.33
10 -0.15
11 -0.15
12 0.29
13 0.63
14 0.66
15 0.15
16 0.15
17 0.15
18 0.15
2 -0.65
21 0.5
22 0.5
3 -0.57
4 -0.65
5 -0.57
6 0.1
7 0.09
8 -0.15
9 -0.15

> <PUBCHEM_EFFECTIVE_ROTOR_COUNT>
4

> <PUBCHEM_PHARMACOPHORE_FEATURES>
7
1 2 acceptor
1 3 acceptor
1 4 acceptor
1 5 acceptor
3 2 3 13 anion
3 4 5 14 anion
6 6 7 8 9 10 11 rings

> <PUBCHEM_HEAVY_ATOM_COUNT>
14

> <PUBCHEM_ATOM_DEF_STEREO_COUNT>
0

> <PUBCHEM_ATOM_UDEF_STEREO_COUNT>
0

> <PUBCHEM_BOND_DEF_STEREO_COUNT>
0

> <PUBCHEM_BOND_UDEF_STEREO_COUNT>
0

> <PUBCHEM_ISOTOPIC_ATOM_COUNT>
0

> <PUBCHEM_COMPONENT_COUNT>
1

> <PUBCHEM_CACTVS_TAUTO_COUNT>
1

> <PUBCHEM_CONFORMER_ID>
000021D400000001

> <PUBCHEM_MMFF94_ENERGY>
38.5146

> <PUBCHEM_FEATURE_SELFOVERLAP>
35.636

> <PUBCHEM_SHAPE_FINGERPRINT>
12173636 292 18338524156457203308
12500047 106 18336272322773941608
12716758 59 18408895035222648225
13024252 1 16988560182759615585
13380535 76 18263927807208021830
15669948 3 18409736144764958050
15775835 57 18129942402758559412
16945 1 18341625801860834409
18534176 82 18334292067550540092
20279233 1 17385449825828431762
20645476 183 17988650726383118881
20645477 56 18411138052123930360
20871998 184 18261949670041794223
20871998 22 17762338016194413331
20871999 31 18338807727730817189
21061003 4 16805872992878259208
21524375 3 18193844966387304481
23402539 116 18262530280900879845
23419403 2 13915467999475659535
23557571 272 18262508200827380236
23559900 14 18261116296890612104
2748010 2 17976558117107119169
4175511 318 18341897398032930356
69090 78 18339364166192258972
81228 2 18266195941209595489
81539 233 17981331406579591317
93112 12 18411134758168532556
9709674 26 18334009532097001582

> <PUBCHEM_SHAPE_MULTIPOLES>
268.49
6.16
2.55
0.87
8.35
0.82
0.01
-1.46
0.93
-2.18
0.01
-0.04
0.26
-0.19

> <PUBCHEM_SHAPE_SELFOVERLAP>
543.804

> <PUBCHEM_SHAPE_VOLUME>
156.7

> <PUBCHEM_COORDINATE_TYPE>
2
5
10

$$$$

