12703
  -OEChem-06261207162D

 21 20  0     0  0  0  0  0  0999 V2000
    4.5981    1.5000    0.0000 O   0  0  0  0  0  0  0  0  0  0  0  0
    3.7320    0.0000    0.0000 N   0  0  0  0  0  0  0  0  0  0  0  0
    2.8660    0.5000    0.0000 C   0  0  0  0  0  0  0  0  0  0  0  0
    3.7320   -1.0000    0.0000 C   0  0  0  0  0  0  0  0  0  0  0  0
    4.5981    0.5000    0.0000 C   0  0  0  0  0  0  0  0  0  0  0  0
    2.8660   -1.5000    0.0000 C   0  0  0  0  0  0  0  0  0  0  0  0
    2.0000    0.0000    0.0000 C   0  0  0  0  0  0  0  0  0  0  0  0
    5.4641    0.0000    0.0000 C   0  0  0  0  0  0  0  0  0  0  0  0
    3.9441   -1.5826    0.0000 H   0  0  0  0  0  0  0  0  0  0  0  0
    4.3426   -0.8923    0.0000 H   0  0  0  0  0  0  0  0  0  0  0  0
    3.2646    0.9749    0.0000 H   0  0  0  0  0  0  0  0  0  0  0  0
    2.4675    0.9749    0.0000 H   0  0  0  0  0  0  0  0  0  0  0  0
    2.5560   -0.9631    0.0000 H   0  0  0  0  0  0  0  0  0  0  0  0
    2.3291   -1.8100    0.0000 H   0  0  0  0  0  0  0  0  0  0  0  0
    3.1760   -2.0369    0.0000 H   0  0  0  0  0  0  0  0  0  0  0  0
    1.6900    0.5369    0.0000 H   0  0  0  0  0  0  0  0  0  0  0  0
    1.4631   -0.3100    0.0000 H   0  0  0  0  0  0  0  0  0  0  0  0
    2.3100   -0.5369    0.0000 H   0  0  0  0  0  0  0  0  0  0  0  0
    5.1541   -0.5369    0.0000 H   0  0  0  0  0  0  0  0  0  0  0  0
    6.0010   -0.3100    0.0000 H   0  0  0  0  0  0  0  0  0  0  0  0
    5.7741    0.5369    0.0000 H   0  0  0  0  0  0  0  0  0  0  0  0
  1  5  2  0  0  0  0
  2  3  1  0  0  0  0
  2  4  1  0  0  0  0
  2  5  1  0  0  0  0
  3  7  1  0  0  0  0
  3 11  1  0  0  0  0
  3 12  1  0  0  0  0
  4  6  1  0  0  0  0
  4  9  1  0  0  0  0
  4 10  1  0  0  0  0
  5  8  1  0  0  0  0
  6 13  1  0  0  0  0
  6 14  1  0  0  0  0
  6 15  1  0  0  0  0
  7 16  1  0  0  0  0
  7 17  1  0  0  0  0
  7 18  1  0  0  0  0
  8 19  1  0  0  0  0
  8 20  1  0  0  0  0
  8 21  1  0  0  0  0
M  END
> <PUBCHEM_COMPOUND_CID>
12703

> <PUBCHEM_COMPOUND_CANONICALIZED>
1

> <PUBCHEM_CACTVS_COMPLEXITY>
76.6

> <PUBCHEM_CACTVS_HBOND_ACCEPTOR>
1

> <PUBCHEM_CACTVS_HBOND_DONOR>
0

> <PUBCHEM_CACTVS_ROTATABLE_BOND>
2

> <PUBCHEM_CACTVS_SUBSKEYS>
AAADccBiIAAAAAAAAAAAAAAAAAAAAAAAAAAAAAAAAAAAAAAAAAAAHgAAAAAAAADBgAQCAAMAAAAIAAEQEAAAAAAAAAAAAAAIAAAAAAAAAAAAAAAABgCAAAAAAAAAAAAAAAAAAAAAAAAAAAAAAAAAAAAAAA==

> <PUBCHEM_IUPAC_OPENEYE_NAME>
N,N-diethylacetamide

> <PUBCHEM_IUPAC_CAS_NAME>
N,N-diethylacetamide

> <PUBCHEM_IUPAC_NAME>
N,N-diethylacetamide

> <PUBCHEM_IUPAC_SYSTEMATIC_NAME>
N,N-diethylethanamide

> <PUBCHEM_IUPAC_TRADITIONAL_NAME>
N,N-diethylacetamide

> <PUBCHEM_IUPAC_INCHI>
InChI=1S/C6H13NO/c1-4-7(5-2)6(3)8/h4-5H2,1-3H3

> <PUBCHEM_IUPAC_INCHIKEY>
AJFDBNQQDYLMJN-UHFFFAOYSA-N

> <PUBCHEM_XLOGP3>
0.3

> <PUBCHEM_EXACT_MASS>
115.099714

> <PUBCHEM_MOLECULAR_FORMULA>
C6H13NO

> <PUBCHEM_MOLECULAR_WEIGHT>
115.17352

> <PUBCHEM_OPENEYE_CAN_SMILES>
CCN(CC)C(=O)C

> <PUBCHEM_OPENEYE_ISO_SMILES>
CCN(CC)C(=O)C

> <PUBCHEM_CACTVS_TPSA>
20.3

> <PUBCHEM_MONOISOTOPIC_WEIGHT>
115.099714

> <PUBCHEM_TOTAL_CHARGE>
0

> <PUBCHEM_HEAVY_ATOM_COUNT>
8

> <PUBCHEM_ATOM_DEF_STEREO_COUNT>
0

> <PUBCHEM_ATOM_UDEF_STEREO_COUNT>
0

> <PUBCHEM_BOND_DEF_STEREO_COUNT>
0

> <PUBCHEM_BOND_UDEF_STEREO_COUNT>
0

> <PUBCHEM_ISOTOPIC_ATOM_COUNT>
0

> <PUBCHEM_COMPONENT_COUNT>
1

> <PUBCHEM_CACTVS_TAUTO_COUNT>
1

> <PUBCHEM_COORDINATE_TYPE>
1
5
255

$$$$

