10665
  -OEChem-06261204493D

 17 18  0     0  0  0  0  0  0999 V2000
   -3.0953    0.0001    0.0922 O   0  0  0  0  0  0  0  0  0  0  0  0
   -1.3462    2.3113   -0.0716 O   0  0  0  0  0  0  0  0  0  0  0  0
   -1.3466   -2.3112   -0.0715 O   0  0  0  0  0  0  0  0  0  0  0  0
   -1.7166    0.0000    0.0235 N   0  0  0  0  0  0  0  0  0  0  0  0
    0.4021    0.6966    0.0042 C   0  0  0  0  0  0  0  0  0  0  0  0
    0.4021   -0.6966    0.0042 C   0  0  0  0  0  0  0  0  0  0  0  0
   -0.9922    1.1502   -0.0127 C   0  0  0  0  0  0  0  0  0  0  0  0
   -0.9923   -1.1502   -0.0127 C   0  0  0  0  0  0  0  0  0  0  0  0
    1.5724    1.4262    0.0076 C   0  0  0  0  0  0  0  0  0  0  0  0
    1.5723   -1.4263    0.0076 C   0  0  0  0  0  0  0  0  0  0  0  0
    2.7702    0.7054    0.0146 C   0  0  0  0  0  0  0  0  0  0  0  0
    2.7701   -0.7055    0.0145 C   0  0  0  0  0  0  0  0  0  0  0  0
    1.5736    2.5098    0.0048 H   0  0  0  0  0  0  0  0  0  0  0  0
    1.5735   -2.5098    0.0047 H   0  0  0  0  0  0  0  0  0  0  0  0
    3.7178    1.2379    0.0184 H   0  0  0  0  0  0  0  0  0  0  0  0
    3.7177   -1.2381    0.0184 H   0  0  0  0  0  0  0  0  0  0  0  0
   -3.3272    0.0001   -0.8520 H   0  0  0  0  0  0  0  0  0  0  0  0
  1  4  1  0  0  0  0
  1 17  1  0  0  0  0
  2  7  2  0  0  0  0
  3  8  2  0  0  0  0
  4  7  1  0  0  0  0
  4  8  1  0  0  0  0
  5  6  1  0  0  0  0
  5  7  1  0  0  0  0
  5  9  2  0  0  0  0
  6  8  1  0  0  0  0
  6 10  2  0  0  0  0
  9 11  1  0  0  0  0
  9 13  1  0  0  0  0
 10 12  1  0  0  0  0
 10 14  1  0  0  0  0
 11 12  2  0  0  0  0
 11 15  1  0  0  0  0
 12 16  1  0  0  0  0
M  END
> <PUBCHEM_COMPOUND_CID>
10665

> <PUBCHEM_CONFORMER_RMSD>
0.4

> <PUBCHEM_CONFORMER_DIVERSEORDER>
1

> <PUBCHEM_MMFF94_PARTIAL_CHARGES>
17
1 -0.44
10 -0.15
11 -0.15
12 -0.15
13 0.15
14 0.15
15 0.15
16 0.15
17 0.4
2 -0.57
3 -0.57
4 -0.08
5 0.09
6 0.09
7 0.54
8 0.54
9 -0.15

> <PUBCHEM_EFFECTIVE_ROTOR_COUNT>
0.2

> <PUBCHEM_PHARMACOPHORE_FEATURES>
4
1 2 acceptor
1 3 acceptor
5 4 5 6 7 8 rings
6 5 6 9 10 11 12 rings

> <PUBCHEM_HEAVY_ATOM_COUNT>
12

> <PUBCHEM_ATOM_DEF_STEREO_COUNT>
0

> <PUBCHEM_ATOM_UDEF_STEREO_COUNT>
0

> <PUBCHEM_BOND_DEF_STEREO_COUNT>
0

> <PUBCHEM_BOND_UDEF_STEREO_COUNT>
0

> <PUBCHEM_ISOTOPIC_ATOM_COUNT>
0

> <PUBCHEM_COMPONENT_COUNT>
1

> <PUBCHEM_CACTVS_TAUTO_COUNT>
1

> <PUBCHEM_CONFORMER_ID>
000029A900000001

> <PUBCHEM_MMFF94_ENERGY>
35.1619

> <PUBCHEM_FEATURE_SELFOVERLAP>
20.392

> <PUBCHEM_SHAPE_FINGERPRINT>
11206711 2 18339923839053926925
12423570 1 6262736399932197930
12524768 44 18409162195073400070
12897270 3 18338234860613467676
16945 1 18410576188691213590
193761 8 18410856564214325230
19973954 147 18410854378134182236
20871998 184 18187642449275042287
21040471 1 18338517576883296964
2334 1 17978229353079492802
23552423 10 18200030616983816454
23559900 14 18117270575342943630
2748010 2 18410855460128161948
369184 2 18409733954173316610
5084963 1 18114466780718129578
528886 8 18337677403786158890

> <PUBCHEM_SHAPE_MULTIPOLES>
224.37
3.69
2.08
0.59
0.25
0
0
0
0.06
-0.53
-0.05
0.06
0
0

> <PUBCHEM_SHAPE_SELFOVERLAP>
500.284

> <PUBCHEM_SHAPE_VOLUME>
121

> <PUBCHEM_COORDINATE_TYPE>
2
5
10

$$$$

