24892783
  -OEChem-07051213082D

 56 58  0     1  0  0  0  0  0999 V2000
    6.7795    4.5564    0.0000 P   0  0  3  0  0  0  0  0  0  0  0  0
    7.1425    6.2500    0.0000 P   0  0  0  0  0  0  0  0  0  0  0  0
    6.1346    1.1033    0.0000 O   0  0  0  0  0  0  0  0  0  0  0  0
    8.4806    0.0114    0.0000 O   0  0  0  0  0  0  0  0  0  0  0  0
    8.4843    2.1870    0.0000 O   0  0  0  0  0  0  0  0  0  0  0  0
    7.0868    3.6049    0.0000 O   0  0  0  0  0  0  0  0  0  0  0  0
    6.4721    5.5080    0.0000 O   0  0  0  0  0  0  0  0  0  0  0  0
    7.7310    4.8638    0.0000 O   0  0  0  0  0  0  0  0  0  0  0  0
    5.8279    4.2491    0.0000 O   0  0  0  0  0  0  0  0  0  0  0  0
    7.8129    6.9920    0.0000 O   0  0  0  0  0  0  0  0  0  0  0  0
    6.4005    6.9204    0.0000 O   0  0  0  0  0  0  0  0  0  0  0  0
    7.8845    5.5796    0.0000 O   0  0  0  0  0  0  0  0  0  0  0  0
    2.0000   -6.9620    0.0000 O   0  0  0  0  0  0  0  0  0  0  0  0
    6.4103   -0.6573    0.0000 N   0  0  0  0  0  0  0  0  0  0  0  0
    6.4103   -2.2667    0.0000 N   0  0  0  0  0  0  0  0  0  0  0  0
    4.5981   -0.4620    0.0000 N   0  0  0  0  0  0  0  0  0  0  0  0
    4.5981   -3.4620    0.0000 N   0  0  0  0  0  0  0  0  0  0  0  0
    3.7320   -1.9620    0.0000 N   0  0  0  0  0  0  0  0  0  0  0  0
    7.6726    0.6006    0.0000 C   0  0  2  0  0  0  0  0  0  0  0  0
    7.6743    1.6006    0.0000 C   0  0  1  0  0  0  0  0  0  0  0  0
    6.7210    0.2933    0.0000 C   0  0  1  0  0  0  0  0  0  0  0  0
    6.7238    1.9113    0.0000 C   0  0  1  0  0  0  0  0  0  0  0  0
    6.4164    2.8629    0.0000 C   0  0  0  0  0  0  0  0  0  0  0  0
    5.4641   -0.9620    0.0000 C   0  0  0  0  0  0  0  0  0  0  0  0
    6.9939   -1.4620    0.0000 C   0  0  0  0  0  0  0  0  0  0  0  0
    5.4641   -1.9620    0.0000 C   0  0  0  0  0  0  0  0  0  0  0  0
    4.5981   -2.4620    0.0000 C   0  0  0  0  0  0  0  0  0  0  0  0
    3.7320   -0.9620    0.0000 C   0  0  0  0  0  0  0  0  0  0  0  0
    3.7320   -3.9620    0.0000 C   0  0  0  0  0  0  0  0  0  0  0  0
    3.7320   -4.9620    0.0000 C   0  0  0  0  0  0  0  0  0  0  0  0
    2.8660   -5.4620    0.0000 C   0  0  0  0  0  0  0  0  0  0  0  0
    2.8660   -6.4620    0.0000 C   0  0  0  0  0  0  0  0  0  0  0  0
    2.0000   -4.9620    0.0000 C   0  0  0  0  0  0  0  0  0  0  0  0
    8.2255    0.8811    0.0000 H   0  0  0  0  0  0  0  0  0  0  0  0
    8.2262    1.3182    0.0000 H   0  0  0  0  0  0  0  0  0  0  0  0
    6.1085    0.1973    0.0000 H   0  0  0  0  0  0  0  0  0  0  0  0
    6.1116    2.0093    0.0000 H   0  0  0  0  0  0  0  0  0  0  0  0
    6.0356    3.3521    0.0000 H   0  0  0  0  0  0  0  0  0  0  0  0
    5.8685    2.5728    0.0000 H   0  0  0  0  0  0  0  0  0  0  0  0
    9.0474    0.2626    0.0000 H   0  0  0  0  0  0  0  0  0  0  0  0
    9.0503    1.9338    0.0000 H   0  0  0  0  0  0  0  0  0  0  0  0
    7.6139   -1.4620    0.0000 H   0  0  0  0  0  0  0  0  0  0  0  0
    3.1951   -0.6520    0.0000 H   0  0  0  0  0  0  0  0  0  0  0  0
    5.1350   -3.7720    0.0000 H   0  0  0  0  0  0  0  0  0  0  0  0
    3.5200   -3.3794    0.0000 H   0  0  0  0  0  0  0  0  0  0  0  0
    3.1215   -4.0697    0.0000 H   0  0  0  0  0  0  0  0  0  0  0  0
    8.1911    4.4482    0.0000 H   0  0  0  0  0  0  0  0  0  0  0  0
    4.2690   -5.2720    0.0000 H   0  0  0  0  0  0  0  0  0  0  0  0
    3.0781   -7.0446    0.0000 H   0  0  0  0  0  0  0  0  0  0  0  0
    3.4766   -6.3543    0.0000 H   0  0  0  0  0  0  0  0  0  0  0  0
    2.3100   -4.4251    0.0000 H   0  0  0  0  0  0  0  0  0  0  0  0
    1.4631   -4.6520    0.0000 H   0  0  0  0  0  0  0  0  0  0  0  0
    1.6900   -5.4989    0.0000 H   0  0  0  0  0  0  0  0  0  0  0  0
    7.6224    7.5820    0.0000 H   0  0  0  0  0  0  0  0  0  0  0  0
    5.8105    6.7299    0.0000 H   0  0  0  0  0  0  0  0  0  0  0  0
    2.0000   -7.5820    0.0000 H   0  0  0  0  0  0  0  0  0  0  0  0
  1  6  1  0  0  0  0
  1  7  1  0  0  0  0
  1  8  1  0  0  0  0
  1  9  2  0  0  0  0
  2  7  1  0  0  0  0
  2 10  1  0  0  0  0
  2 11  1  0  0  0  0
  2 12  2  0  0  0  0
  3 21  1  0  0  0  0
  3 22  1  0  0  0  0
 19  4  1  1  0  0  0
  4 40  1  0  0  0  0
 20  5  1  1  0  0  0
  5 41  1  0  0  0  0
  6 23  1  0  0  0  0
  8 47  1  0  0  0  0
 10 54  1  0  0  0  0
 11 55  1  0  0  0  0
 13 32  1  0  0  0  0
 13 56  1  0  0  0  0
 21 14  1  6  0  0  0
 14 24  1  0  0  0  0
 14 25  1  0  0  0  0
 15 25  2  0  0  0  0
 15 26  1  0  0  0  0
 16 24  2  0  0  0  0
 16 28  1  0  0  0  0
 17 27  1  0  0  0  0
 17 29  1  0  0  0  0
 17 44  1  0  0  0  0
 18 27  1  0  0  0  0
 18 28  2  0  0  0  0
 19 20  1  0  0  0  0
 19 21  1  0  0  0  0
 19 34  1  0  0  0  0
 20 22  1  0  0  0  0
 20 35  1  0  0  0  0
 21 36  1  0  0  0  0
 22 23  1  6  0  0  0
 22 37  1  0  0  0  0
 23 38  1  0  0  0  0
 23 39  1  0  0  0  0
 24 26  1  0  0  0  0
 25 42  1  0  0  0  0
 26 27  2  0  0  0  0
 28 43  1  0  0  0  0
 29 30  1  0  0  0  0
 29 45  1  0  0  0  0
 29 46  1  0  0  0  0
 30 31  2  0  0  0  0
 30 48  1  0  0  0  0
 31 32  1  0  0  0  0
 31 33  1  0  0  0  0
 32 49  1  0  0  0  0
 32 50  1  0  0  0  0
 33 51  1  0  0  0  0
 33 52  1  0  0  0  0
 33 53  1  0  0  0  0
M  END
> <PUBCHEM_COMPOUND_CID>
24892783

> <PUBCHEM_COMPOUND_CANONICALIZED>
1

> <PUBCHEM_CACTVS_COMPLEXITY>
800

> <PUBCHEM_CACTVS_HBOND_ACCEPTOR>
15

> <PUBCHEM_CACTVS_HBOND_DONOR>
7

> <PUBCHEM_CACTVS_ROTATABLE_BOND>
10

> <PUBCHEM_CACTVS_SUBSKEYS>
AAADceBzvAMAAAAAAAAAAAAAAAAAAWJAAAAsAAAAAAAAAFgB+AAAHgAQCCAADBzhlwYH8L/MFxCgQyZjZICAgC0REKABWKAoVBCDXAJAyUAeVAgPEALTECDwMAIAAAAAAAAAAAAAAAAAAAAAAAAAAAAAAA==

> <PUBCHEM_IUPAC_OPENEYE_NAME>
[(2R,3S,4R,5R)-3,4-dihydroxy-5-[6-[[(E)-4-hydroxy-3-methyl-but-2-enyl]amino]purin-9-yl]tetrahydrofuran-2-yl]methyl phosphono hydrogen phosphate

> <PUBCHEM_IUPAC_CAS_NAME>
[(2R,3S,4R,5R)-3,4-dihydroxy-5-[6-[[(E)-4-hydroxy-3-methylbut-2-enyl]amino]-9-purinyl]-2-oxolanyl]methyl phosphono hydrogen phosphate

> <PUBCHEM_IUPAC_NAME>
[(2R,3S,4R,5R)-3,4-dihydroxy-5-[6-[[(E)-4-hydroxy-3-methylbut-2-enyl]amino]purin-9-yl]oxolan-2-yl]methyl phosphono hydrogen phosphate

> <PUBCHEM_IUPAC_SYSTEMATIC_NAME>
[(2R,3S,4R,5R)-5-[6-[[(E)-3-methyl-4-oxidanyl-but-2-enyl]amino]purin-9-yl]-3,4-bis(oxidanyl)oxolan-2-yl]methyl phosphono hydrogen phosphate

> <PUBCHEM_IUPAC_TRADITIONAL_NAME>
[(2R,3S,4R,5R)-3,4-dihydroxy-5-[6-[[(E)-4-hydroxy-3-methyl-but-2-enyl]amino]purin-9-yl]tetrahydrofuran-2-yl]methyl phosphono hydrogen phosphate

> <PUBCHEM_IUPAC_INCHI>
InChI=1S/C15H23N5O11P2/c1-8(4-21)2-3-16-13-10-14(18-6-17-13)20(7-19-10)15-12(23)11(22)9(30-15)5-29-33(27,28)31-32(24,25)26/h2,6-7,9,11-12,15,21-23H,3-5H2,1H3,(H,27,28)(H,16,17,18)(H2,24,25,26)/b8-2+/t9-,11-,12-,15-/m1/s1

> <PUBCHEM_IUPAC_INCHIKEY>
MXFPFNSSZYNJGX-HNNGNKQASA-N

> <PUBCHEM_XLOGP3>
-3.7

> <PUBCHEM_EXACT_MASS>
511.08693

> <PUBCHEM_MOLECULAR_FORMULA>
C15H23N5O11P2

> <PUBCHEM_MOLECULAR_WEIGHT>
511.317544

> <PUBCHEM_OPENEYE_CAN_SMILES>
CC(=CCNC1=NC=NC2=C1N=CN2C3C(C(C(O3)COP(=O)(O)OP(=O)(O)O)O)O)CO

> <PUBCHEM_OPENEYE_ISO_SMILES>
C/C(=C\CNC1=NC=NC2=C1N=CN2[C@H]3[C@@H]([C@@H]([C@H](O3)COP(=O)(O)OP(=O)(O)O)O)O)/CO

> <PUBCHEM_CACTVS_TPSA>
239

> <PUBCHEM_MONOISOTOPIC_WEIGHT>
511.08693

> <PUBCHEM_TOTAL_CHARGE>
0

> <PUBCHEM_HEAVY_ATOM_COUNT>
33

> <PUBCHEM_ATOM_DEF_STEREO_COUNT>
4

> <PUBCHEM_ATOM_UDEF_STEREO_COUNT>
0

> <PUBCHEM_BOND_DEF_STEREO_COUNT>
1

> <PUBCHEM_BOND_UDEF_STEREO_COUNT>
0

> <PUBCHEM_ISOTOPIC_ATOM_COUNT>
0

> <PUBCHEM_COMPONENT_COUNT>
1

> <PUBCHEM_CACTVS_TAUTO_COUNT>
3

> <PUBCHEM_COORDINATE_TYPE>
1
5
255

> <PUBCHEM_BONDANNOTATIONS>
21  14  6
14  24  8
14  25  8
15  25  8
15  26  8
16  24  8
16  28  8
18  27  8
18  28  8
22  23  6
24  26  8
26  27  8
19  4  5
20  5  5

$$$$

