11042375
  -OEChem-07051213093D

 33 33  0     0  0  0  0  0  0999 V2000
    7.1581    1.1842    0.2263 O   0  0  0  0  0  0  0  0  0  0  0  0
   -4.2413    0.3042    0.0664 C   0  0  0  0  0  0  0  0  0  0  0  0
   -4.5025   -1.0475    0.2258 C   0  0  0  0  0  0  0  0  0  0  0  0
   -5.2604    1.2104   -0.1804 C   0  0  0  0  0  0  0  0  0  0  0  0
   -2.8531    0.7871    0.1613 C   0  0  0  0  0  0  0  0  0  0  0  0
   -5.8171   -1.5050    0.1356 C   0  0  0  0  0  0  0  0  0  0  0  0
   -6.5750    0.7527   -0.2704 C   0  0  0  0  0  0  0  0  0  0  0  0
   -6.8533   -0.6050   -0.1124 C   0  0  0  0  0  0  0  0  0  0  0  0
   -1.7619    0.0190    0.0141 C   0  0  0  0  0  0  0  0  0  0  0  0
   -0.4158    0.5434    0.1083 C   0  0  0  0  0  0  0  0  0  0  0  0
    0.6789   -0.2198   -0.0379 C   0  0  0  0  0  0  0  0  0  0  0  0
    2.0222    0.3121    0.0570 C   0  0  0  0  0  0  0  0  0  0  0  0
    3.1789   -0.3579   -0.0721 C   0  0  0  0  0  0  0  0  0  0  0  0
    4.5226    0.1737    0.0228 C   0  0  0  0  0  0  0  0  0  0  0  0
    5.6107   -0.5950   -0.1246 C   0  0  0  0  0  0  0  0  0  0  0  0
    6.9751   -0.0057   -0.0199 C   0  0  0  0  0  0  0  0  0  0  0  0
    8.1338   -0.9508   -0.1999 C   0  0  0  0  0  0  0  0  0  0  0  0
   -3.7326   -1.7809    0.4430 H   0  0  0  0  0  0  0  0  0  0  0  0
   -5.0596    2.2709   -0.3072 H   0  0  0  0  0  0  0  0  0  0  0  0
   -2.7387    1.8518    0.3562 H   0  0  0  0  0  0  0  0  0  0  0  0
   -6.0352   -2.5612    0.2638 H   0  0  0  0  0  0  0  0  0  0  0  0
   -7.3821    1.4534   -0.4635 H   0  0  0  0  0  0  0  0  0  0  0  0
   -7.8770   -0.9610   -0.1812 H   0  0  0  0  0  0  0  0  0  0  0  0
   -1.8365   -1.0413   -0.2080 H   0  0  0  0  0  0  0  0  0  0  0  0
   -0.3141    1.6078    0.3087 H   0  0  0  0  0  0  0  0  0  0  0  0
    0.5867   -1.2846   -0.2375 H   0  0  0  0  0  0  0  0  0  0  0  0
    2.0832    1.3820    0.2567 H   0  0  0  0  0  0  0  0  0  0  0  0
    3.1179   -1.4278   -0.2717 H   0  0  0  0  0  0  0  0  0  0  0  0
    4.6114    1.2384    0.2200 H   0  0  0  0  0  0  0  0  0  0  0  0
    5.5377   -1.6595   -0.3213 H   0  0  0  0  0  0  0  0  0  0  0  0
    8.5210   -1.2393    0.7805 H   0  0  0  0  0  0  0  0  0  0  0  0
    8.9172   -0.4520   -0.7776 H   0  0  0  0  0  0  0  0  0  0  0  0
    7.8326   -1.8467   -0.7497 H   0  0  0  0  0  0  0  0  0  0  0  0
  1 16  2  0  0  0  0
  2  3  2  0  0  0  0
  2  4  1  0  0  0  0
  2  5  1  0  0  0  0
  3  6  1  0  0  0  0
  3 18  1  0  0  0  0
  4  7  2  0  0  0  0
  4 19  1  0  0  0  0
  5  9  2  0  0  0  0
  5 20  1  0  0  0  0
  6  8  2  0  0  0  0
  6 21  1  0  0  0  0
  7  8  1  0  0  0  0
  7 22  1  0  0  0  0
  8 23  1  0  0  0  0
  9 10  1  0  0  0  0
  9 24  1  0  0  0  0
 10 11  2  0  0  0  0
 10 25  1  0  0  0  0
 11 12  1  0  0  0  0
 11 26  1  0  0  0  0
 12 13  2  0  0  0  0
 12 27  1  0  0  0  0
 13 14  1  0  0  0  0
 13 28  1  0  0  0  0
 14 15  2  0  0  0  0
 14 29  1  0  0  0  0
 15 16  1  0  0  0  0
 15 30  1  0  0  0  0
 16 17  1  0  0  0  0
 17 31  1  0  0  0  0
 17 32  1  0  0  0  0
 17 33  1  0  0  0  0
M  END
> <PUBCHEM_COMPOUND_CID>
11042375

> <PUBCHEM_CONFORMER_RMSD>
0.6

> <PUBCHEM_CONFORMER_DIVERSEORDER>
1
20
8
22
3
7
2
9
6
10
21
4
17
14
18
29
28
15
27
16
5
26
11
12
25
23
30
24
13
19

> <PUBCHEM_MMFF94_PARTIAL_CHARGES>
30
1 -0.57
10 -0.15
11 -0.15
12 -0.15
13 -0.15
14 -0.15
15 -0.14
16 0.49
17 0.06
18 0.15
19 0.15
2 0.03
20 0.15
21 0.15
22 0.15
23 0.15
24 0.15
25 0.15
26 0.15
27 0.15
28 0.15
29 0.15
3 -0.15
30 0.15
4 -0.15
5 -0.18
6 -0.15
7 -0.15
8 -0.15
9 -0.15

> <PUBCHEM_EFFECTIVE_ROTOR_COUNT>
5

> <PUBCHEM_PHARMACOPHORE_FEATURES>
2
1 1 acceptor
6 2 3 4 6 7 8 rings

> <PUBCHEM_HEAVY_ATOM_COUNT>
17

> <PUBCHEM_ATOM_DEF_STEREO_COUNT>
0

> <PUBCHEM_ATOM_UDEF_STEREO_COUNT>
0

> <PUBCHEM_BOND_DEF_STEREO_COUNT>
4

> <PUBCHEM_BOND_UDEF_STEREO_COUNT>
0

> <PUBCHEM_ISOTOPIC_ATOM_COUNT>
0

> <PUBCHEM_COMPONENT_COUNT>
1

> <PUBCHEM_CACTVS_TAUTO_COUNT>
2

> <PUBCHEM_CONFORMER_ID>
00A87E4700000001

> <PUBCHEM_MMFF94_ENERGY>
34.892

> <PUBCHEM_FEATURE_SELFOVERLAP>
10.148

> <PUBCHEM_SHAPE_FINGERPRINT>
10066227 49 18115584989220312518
10299344 5 18202001040726553050
10968037 39 18413108364497515371
11315181 36 18261108570081013761
11524674 6 17022905635966624303
11719270 70 18260831523105341598
12091667 2 17561361794978811265
13288520 33 18411419501942247133
13533116 47 16916797322747757912
13885169 127 18411699923750241029
14123256 10 18410855468718109387
1420 363 17749104491372939039
14251732 16 18409167693069154920
14251764 18 17704076200518613130
14251764 46 5112006136363802420
14933364 13 18408323280945108880
15183329 4 16056882433594996312
15716309 27 18186239524130334958
15849732 13 18409448077198058484
17093844 174 18343865520353496169
17834076 25 15985103015640251409
18006028 8 17603587430261673409
19489759 90 18343864425020719545
21150785 3 16415479337357451802
21267235 1 18271803489872664859
21315763 28 18410012152654651688
22224240 67 17632297861502609786
22896161 15 18409729534778582522
23035841 295 18412826888893213291
23402539 116 18202284706326300493
23521765 1 18335421274487118604
23559900 14 18338522941587860305
246663 6 17312817191741475878
33532 11 18340488967526899378
33684 2 18412265051230683579
4073 2 17917425372675079522
4325135 7 18202283610487368679
67123 10 18411699886297912556
8209 1 18410856568235005420

> <PUBCHEM_SHAPE_MULTIPOLES>
343.98
25.69
1.17
0.63
27.36
0.11
0
2.94
1.11
-1.04
-0.02
-0.06
0
0.41

> <PUBCHEM_SHAPE_SELFOVERLAP>
698.453

> <PUBCHEM_SHAPE_VOLUME>
199

> <PUBCHEM_COORDINATE_TYPE>
2
5
10

$$$$

