9549
  -OEChem-06261203483D

 37 36  0     0  0  0  0  0  0999 V2000
    8.3605   -1.0283    0.0183 S   0  0  0  0  0  0  0  0  0  0  0  0
   -8.0976   -0.5491   -0.0236 F   0  0  0  0  0  0  0  0  0  0  0  0
   -0.6440   -0.3288    0.0039 C   0  0  0  0  0  0  0  0  0  0  0  0
    0.5888    0.5789   -0.0091 C   0  0  0  0  0  0  0  0  0  0  0  0
   -1.9331    0.4929    0.0723 C   0  0  0  0  0  0  0  0  0  0  0  0
    1.9142   -0.1892   -0.0436 C   0  0  0  0  0  0  0  0  0  0  0  0
   -3.2040   -0.3592    0.0002 C   0  0  0  0  0  0  0  0  0  0  0  0
    3.1830    0.6696   -0.0306 C   0  0  0  0  0  0  0  0  0  0  0  0
   -4.5284    0.4108    0.0053 C   0  0  0  0  0  0  0  0  0  0  0  0
    4.4759   -0.1538   -0.0065 C   0  0  0  0  0  0  0  0  0  0  0  0
   -5.7589   -0.4933    0.0175 C   0  0  0  0  0  0  0  0  0  0  0  0
    5.7307    0.7214   -0.0014 C   0  0  0  0  0  0  0  0  0  0  0  0
   -7.0456    0.3129   -0.0118 C   0  0  0  0  0  0  0  0  0  0  0  0
    6.9584   -0.0848    0.0091 C   0  0  0  0  0  0  0  0  0  0  0  0
   -0.6484   -0.9493   -0.9001 H   0  0  0  0  0  0  0  0  0  0  0  0
   -0.5961   -1.0079    0.8633 H   0  0  0  0  0  0  0  0  0  0  0  0
    0.5417    1.2451   -0.8793 H   0  0  0  0  0  0  0  0  0  0  0  0
    0.5750    1.2200    0.8810 H   0  0  0  0  0  0  0  0  0  0  0  0
   -1.9453    1.0773    1.0005 H   0  0  0  0  0  0  0  0  0  0  0  0
   -1.9470    1.2133   -0.7550 H   0  0  0  0  0  0  0  0  0  0  0  0
    1.9442   -0.8686    0.8179 H   0  0  0  0  0  0  0  0  0  0  0  0
    1.9295   -0.8248   -0.9381 H   0  0  0  0  0  0  0  0  0  0  0  0
   -3.2003   -1.0576    0.8468 H   0  0  0  0  0  0  0  0  0  0  0  0
   -3.1648   -0.9753   -0.9072 H   0  0  0  0  0  0  0  0  0  0  0  0
    3.1823    1.3200   -0.9138 H   0  0  0  0  0  0  0  0  0  0  0  0
    3.1598    1.3271    0.8472 H   0  0  0  0  0  0  0  0  0  0  0  0
   -4.5548    1.0664    0.8845 H   0  0  0  0  0  0  0  0  0  0  0  0
   -4.5617    1.0633   -0.8760 H   0  0  0  0  0  0  0  0  0  0  0  0
    4.4764   -0.8018    0.8794 H   0  0  0  0  0  0  0  0  0  0  0  0
    4.4960   -0.8195   -0.8791 H   0  0  0  0  0  0  0  0  0  0  0  0
   -5.7530   -1.1324    0.9081 H   0  0  0  0  0  0  0  0  0  0  0  0
   -5.7399   -1.1700   -0.8450 H   0  0  0  0  0  0  0  0  0  0  0  0
    5.7189    1.3769    0.8769 H   0  0  0  0  0  0  0  0  0  0  0  0
    5.7310    1.3701   -0.8849 H   0  0  0  0  0  0  0  0  0  0  0  0
   -7.1415    0.9503    0.8720 H   0  0  0  0  0  0  0  0  0  0  0  0
   -7.1112    0.9347   -0.9093 H   0  0  0  0  0  0  0  0  0  0  0  0
    9.2445   -0.0415    0.2250 H   0  0  0  0  0  0  0  0  0  0  0  0
  1 14  3  0  0  0  0
  1 37  1  0  0  0  0
  2 13  1  0  0  0  0
  3  4  1  0  0  0  0
  3  5  1  0  0  0  0
  3 15  1  0  0  0  0
  3 16  1  0  0  0  0
  4  6  1  0  0  0  0
  4 17  1  0  0  0  0
  4 18  1  0  0  0  0
  5  7  1  0  0  0  0
  5 19  1  0  0  0  0
  5 20  1  0  0  0  0
  6  8  1  0  0  0  0
  6 21  1  0  0  0  0
  6 22  1  0  0  0  0
  7  9  1  0  0  0  0
  7 23  1  0  0  0  0
  7 24  1  0  0  0  0
  8 10  1  0  0  0  0
  8 25  1  0  0  0  0
  8 26  1  0  0  0  0
  9 11  1  0  0  0  0
  9 27  1  0  0  0  0
  9 28  1  0  0  0  0
 10 12  1  0  0  0  0
 10 29  1  0  0  0  0
 10 30  1  0  0  0  0
 11 13  1  0  0  0  0
 11 31  1  0  0  0  0
 11 32  1  0  0  0  0
 12 14  1  0  0  0  0
 12 33  1  0  0  0  0
 12 34  1  0  0  0  0
 13 35  1  0  0  0  0
 13 36  1  0  0  0  0
M  END
> <PUBCHEM_COMPOUND_CID>
9549

> <PUBCHEM_CONFORMER_RMSD>
1

> <PUBCHEM_CONFORMER_DIVERSEORDER>
1
791
165
451
49
13
94
956
1079
28
20
1186
9
46
1076
499
22
354
372
1092
157
1208
598
114
3
96
1200
100
84
1073
772
15
395
651
139
505
98
691
131
813
33
304
644
777
862
190
496
124
1049
595
249
474
163
472
1130
138
4
531
95
322
669
664
416
1199
369
351
1095
36
398
1191
375
1101
950
877
188
578
262
378
820
570
342
1109
169
700
347
851
805
1077
220
1045
1050
1177
888
87
1099
122
258
1216
463
1005
210
1111
959
1106
32
841
1086
471
18
1098
386
678
64
1188
116
45
250
1068
201
260
130
503
520
1044
5
444
849
815
1003
178
24
1113
14
176
1202
93
1063
194
187
1065
502
16
937
6
1008
1133
926
663
19
396
773
126
1198
221
180
411
887
974
97
1061
175
185
591
1224
647
1181
1048
1152
1026
766
393
751
750
921
634
512
916
832
808
35
1197
701
797
310
809
1041
873
196
500
134
318
843
399
433
527
460
1173
271
374
528
295
740
636
413
703
864
1010
91
1038
31
147
899
828
537
665
602
1138
25
454
324
432
491
53
732
12
656
158
952
675
17
939
536
148
355
113

> <PUBCHEM_EFFECTIVE_ROTOR_COUNT>
10

> <PUBCHEM_PHARMACOPHORE_FEATURES>
0

> <PUBCHEM_HEAVY_ATOM_COUNT>
14

> <PUBCHEM_ATOM_DEF_STEREO_COUNT>
0

> <PUBCHEM_ATOM_UDEF_STEREO_COUNT>
0

> <PUBCHEM_BOND_DEF_STEREO_COUNT>
0

> <PUBCHEM_BOND_UDEF_STEREO_COUNT>
0

> <PUBCHEM_ISOTOPIC_ATOM_COUNT>
0

> <PUBCHEM_COMPONENT_COUNT>
1

> <PUBCHEM_CACTVS_TAUTO_COUNT>
1

> <PUBCHEM_CONFORMER_ID>
0000254D00000001

> <PUBCHEM_MMFF94_ENERGY>
-0.0108

> <PUBCHEM_FEATURE_SELFOVERLAP>
0

> <PUBCHEM_SHAPE_FINGERPRINT>
10968037 39 10303813181414314889
11638347 137 15430032189373735238
12091667 2 17060339622394911925
13533116 47 16056614170170252120
14123256 10 18410573993741392227
14251764 18 18335419088417317394
14251764 46 16225765216308428694
14729087 3 5473146206701162131
15716309 27 18259987058776003804
17834076 25 18410573980867124289
18006028 8 18040716965297399905
20621476 8 18202285813889760151
20735858 18 16805323301673470910
21315763 28 18409167705495549616
22224240 67 13840269191106453092
23035841 295 18186239524119746382
23402539 116 18113623365210917796
23521765 1 18335420166369718980
246663 6 18272930535997776586
28498 318 18341332271121829422
33532 11 18341897424620814130
33684 2 18333450950409701815
42788 4 18410855456255402016
8209 1 18273778246023950117

> <PUBCHEM_SHAPE_MULTIPOLES>
284.69
26.43
0.89
0.62
0.42
0.03
0
5.67
0.02
-0.64
0
-0.11
0
-0.02

> <PUBCHEM_SHAPE_SELFOVERLAP>
500.052

> <PUBCHEM_SHAPE_VOLUME>
185.5

> <PUBCHEM_COORDINATE_TYPE>
2
5
10

$$$$

