5462314
  -OEChem-07051212513D

 43 42  0     1  0  0  0  0  0999 V2000
   -3.7924   -2.0509    0.2272 P   0  0  1  0  0  0  0  0  0  0  0  0
   -3.1294   -3.0372    1.3143 O   0  0  0  0  0  0  0  0  0  0  0  0
   -5.2630   -1.8629    0.3633 O   0  0  0  0  0  0  0  0  0  0  0  0
   -0.8297    1.5086   -1.6523 O   0  0  0  0  0  0  0  0  0  0  0  0
    1.0035   -0.1792    1.4686 O   0  0  0  0  0  0  0  0  0  0  0  0
    5.2614    0.1305   -0.5450 O   0  0  0  0  0  0  0  0  0  0  0  0
    5.5094   -2.0753   -0.1120 O   0  0  0  0  0  0  0  0  0  0  0  0
   -0.2698    2.0726    0.5293 N   0  0  0  0  0  0  0  0  0  0  0  0
   -3.1902    3.0294   -0.8887 N   0  0  0  0  0  0  0  0  0  0  0  0
    2.6746    0.1576   -0.1057 N   0  0  0  0  0  0  0  0  0  0  0  0
   -3.4088    0.6666   -0.3057 C   0  0  0  0  0  0  0  0  0  0  0  0
   -2.6118    1.9574   -0.0764 C   0  0  1  0  0  0  0  0  0  0  0  0
   -2.8568   -0.5250    0.4722 C   0  0  0  0  0  0  0  0  0  0  0  0
   -1.1550    1.8266   -0.5101 C   0  0  0  0  0  0  0  0  0  0  0  0
    1.1640    1.9795    0.3785 C   0  0  2  0  0  0  0  0  0  0  0  0
   -3.2552   -2.7045   -1.3279 C   0  0  0  0  0  0  0  0  0  0  0  0
    1.5725    0.5372    0.6476 C   0  0  0  0  0  0  0  0  0  0  0  0
    1.8825    2.9327    1.3208 C   0  0  0  0  0  0  0  0  0  0  0  0
    3.2794   -1.1496    0.0013 C   0  0  1  0  0  0  0  0  0  0  0  0
    2.6333   -2.1195   -0.9765 C   0  0  0  0  0  0  0  0  0  0  0  0
    4.7813   -1.0946   -0.2228 C   0  0  0  0  0  0  0  0  0  0  0  0
   -4.4571    0.8217   -0.0208 H   0  0  0  0  0  0  0  0  0  0  0  0
   -3.4159    0.4082   -1.3726 H   0  0  0  0  0  0  0  0  0  0  0  0
   -2.6813    2.2407    0.9798 H   0  0  0  0  0  0  0  0  0  0  0  0
   -2.8761   -0.2918    1.5430 H   0  0  0  0  0  0  0  0  0  0  0  0
   -1.8137   -0.7198    0.2020 H   0  0  0  0  0  0  0  0  0  0  0  0
    1.4131    2.2399   -0.6571 H   0  0  0  0  0  0  0  0  0  0  0  0
   -0.6345    2.2549    1.4597 H   0  0  0  0  0  0  0  0  0  0  0  0
   -2.1646   -2.7781   -1.3699 H   0  0  0  0  0  0  0  0  0  0  0  0
   -3.5831   -2.0652   -2.1523 H   0  0  0  0  0  0  0  0  0  0  0  0
   -3.6689   -3.7040   -1.4889 H   0  0  0  0  0  0  0  0  0  0  0  0
   -2.7310    3.9120   -0.6655 H   0  0  0  0  0  0  0  0  0  0  0  0
   -4.1723    3.1521   -0.6444 H   0  0  0  0  0  0  0  0  0  0  0  0
    2.9679    2.8690    1.1903 H   0  0  0  0  0  0  0  0  0  0  0  0
    1.5742    3.9677    1.1386 H   0  0  0  0  0  0  0  0  0  0  0  0
    1.6613    2.6983    2.3683 H   0  0  0  0  0  0  0  0  0  0  0  0
    3.1281   -1.5061    1.0271 H   0  0  0  0  0  0  0  0  0  0  0  0
    3.0787    0.8172   -0.7644 H   0  0  0  0  0  0  0  0  0  0  0  0
   -3.4086   -3.9773    1.3416 H   0  0  0  0  0  0  0  0  0  0  0  0
    2.7796   -1.7914   -2.0121 H   0  0  0  0  0  0  0  0  0  0  0  0
    3.0649   -3.1216   -0.8827 H   0  0  0  0  0  0  0  0  0  0  0  0
    1.5547   -2.1966   -0.8014 H   0  0  0  0  0  0  0  0  0  0  0  0
    6.2336    0.1209   -0.6751 H   0  0  0  0  0  0  0  0  0  0  0  0
  1  2  1  0  0  0  0
  1  3  2  0  0  0  0
  1 13  1  0  0  0  0
  1 16  1  0  0  0  0
  2 39  1  0  0  0  0
  4 14  2  0  0  0  0
  5 17  2  0  0  0  0
  6 21  1  0  0  0  0
  6 43  1  0  0  0  0
  7 21  2  0  0  0  0
  8 14  1  0  0  0  0
  8 15  1  0  0  0  0
  8 28  1  0  0  0  0
  9 12  1  0  0  0  0
  9 32  1  0  0  0  0
  9 33  1  0  0  0  0
 10 17  1  0  0  0  0
 10 19  1  0  0  0  0
 10 38  1  0  0  0  0
 11 12  1  0  0  0  0
 11 13  1  0  0  0  0
 11 22  1  0  0  0  0
 11 23  1  0  0  0  0
 12 14  1  0  0  0  0
 12 24  1  0  0  0  0
 13 25  1  0  0  0  0
 13 26  1  0  0  0  0
 15 17  1  0  0  0  0
 15 18  1  0  0  0  0
 15 27  1  0  0  0  0
 16 29  1  0  0  0  0
 16 30  1  0  0  0  0
 16 31  1  0  0  0  0
 18 34  1  0  0  0  0
 18 35  1  0  0  0  0
 18 36  1  0  0  0  0
 19 20  1  0  0  0  0
 19 21  1  0  0  0  0
 19 37  1  0  0  0  0
 20 40  1  0  0  0  0
 20 41  1  0  0  0  0
 20 42  1  0  0  0  0
M  END
> <PUBCHEM_COMPOUND_CID>
5462314

> <PUBCHEM_CONFORMER_RMSD>
1

> <PUBCHEM_CONFORMER_DIVERSEORDER>
1
77
10
39
51
102
43
111
133
78
101
105
60
24
27
104
115
118
75
28
117
25
59
122
46
36
42
124
120
66
70
62
130
91
35
90
30
72
131
18
63
69
108
141
114
37
139
50
74
22
38
6
138
109
32
95
132
26
33
83
100
121
11
20
87
67
41
93
99
34
107
123
40
13
19
64
79
94
89
47
135
16
106
80
113
58
2
21
49
134
126
125
52
140
82
96
97
129
68
17
55
110
84
128
142
73
137
12
127
56
15
4
44
136
57
71
61
9
112
5
116
8
86
119
76
92
88
45
7
29
14
31
98
103
85
3
53
81
54
65
23
48

> <PUBCHEM_MMFF94_PARTIAL_CHARGES>
22
1 0.97
10 -0.73
12 0.33
14 0.57
15 0.36
17 0.57
19 0.36
2 -0.77
21 0.66
28 0.37
3 -0.7
32 0.36
33 0.36
38 0.37
39 0.5
4 -0.57
43 0.5
5 -0.57
6 -0.65
7 -0.57
8 -0.73
9 -0.99

> <PUBCHEM_EFFECTIVE_ROTOR_COUNT>
10

> <PUBCHEM_PHARMACOPHORE_FEATURES>
9
1 10 donor
1 4 acceptor
1 5 acceptor
1 6 acceptor
1 7 acceptor
1 8 donor
1 9 cation
1 9 donor
3 6 7 21 anion

> <PUBCHEM_HEAVY_ATOM_COUNT>
21

> <PUBCHEM_ATOM_DEF_STEREO_COUNT>
3

> <PUBCHEM_ATOM_UDEF_STEREO_COUNT>
0

> <PUBCHEM_BOND_DEF_STEREO_COUNT>
0

> <PUBCHEM_BOND_UDEF_STEREO_COUNT>
0

> <PUBCHEM_ISOTOPIC_ATOM_COUNT>
0

> <PUBCHEM_COMPONENT_COUNT>
1

> <PUBCHEM_CACTVS_TAUTO_COUNT>
4

> <PUBCHEM_CONFORMER_ID>
0053592A00000001

> <PUBCHEM_MMFF94_ENERGY>
21.5645

> <PUBCHEM_FEATURE_SELFOVERLAP>
45.73

> <PUBCHEM_SHAPE_FINGERPRINT>
10968037 57 18335416842682509379
12633257 1 17313653846622497831
13103583 49 17676752224235114667
13402501 40 18335699468431198823
13533116 47 18043247930344846067
13911882 115 18265617567949662024
14251731 5 18410290281250413139
14251757 5 18266461099236633953
14251764 30 17749373885192449686
14863182 85 17621596116712480325
15352361 1 18409728447914863075
17357779 13 18341902835683196311
17913733 40 17388555817249110600
20403669 9 18408879625159941607
20871999 31 18341896337123130376
221490 88 18409167680158197736
23402539 116 16988272205466195372
23557571 272 18337103566291362118
23559900 14 18338527360877514609
238078 22 18337949103649717768
329604 57 18341607097378499998
4416823 128 18410573955408492025
4921388 177 18270677692011146941
5486654 36 18335695066126195753
9709674 26 18339090276586813481

> <PUBCHEM_SHAPE_MULTIPOLES>
385.86
10.51
4
1.19
5.83
0.34
-0.02
-8.55
-0.64
-2.43
-0.03
-0.42
-0.01
1.69

> <PUBCHEM_SHAPE_SELFOVERLAP>
732.56

> <PUBCHEM_SHAPE_VOLUME>
239

> <PUBCHEM_COORDINATE_TYPE>
2
5
10

$$$$

