5282077
  -OEChem-07051213023D

 72 73  0     1  0  0  0  0  0999 V2000
   -1.7020   -2.6232    1.9451 O   0  0  0  0  0  0  0  0  0  0  0  0
   -5.7588   -2.3524   -0.6613 O   0  0  0  0  0  0  0  0  0  0  0  0
    2.6747   -0.4131   -0.9674 O   0  0  0  0  0  0  0  0  0  0  0  0
    4.2509    0.4965    2.6685 O   0  0  0  0  0  0  0  0  0  0  0  0
    6.6048    0.8437    1.5648 O   0  0  0  0  0  0  0  0  0  0  0  0
    6.8642    0.1522   -3.1241 O   0  0  0  0  0  0  0  0  0  0  0  0
   -2.1665   -2.2682    0.6392 C   0  0  1  0  0  0  0  0  0  0  0  0
   -1.1441   -2.7664   -0.4224 C   0  0  2  0  0  0  0  0  0  0  0  0
   -3.6320   -2.7696    0.4800 C   0  0  1  0  0  0  0  0  0  0  0  0
    0.2819   -2.2986   -0.0359 C   0  0  0  0  0  0  0  0  0  0  0  0
   -4.4335   -1.8551   -0.4944 C   0  0  2  0  0  0  0  0  0  0  0  0
   -1.4999   -2.3149   -1.8444 C   0  0  0  0  0  0  0  0  0  0  0  0
   -3.6693   -4.2387    0.0324 C   0  0  0  0  0  0  0  0  0  0  0  0
    0.4758   -0.7835   -0.1356 C   0  0  0  0  0  0  0  0  0  0  0  0
    1.8834   -0.3978    0.1726 C   0  0  0  0  0  0  0  0  0  0  0  0
   -4.4511   -0.4121   -0.0420 C   0  0  0  0  0  0  0  0  0  0  0  0
   -2.2394   -1.7592    2.9323 C   0  0  0  0  0  0  0  0  0  0  0  0
    2.3349   -0.0968    1.4074 C   0  0  0  0  0  0  0  0  0  0  0  0
   -3.9790    0.6426   -0.7256 C   0  0  0  0  0  0  0  0  0  0  0  0
   -6.3143   -1.9397   -1.9008 C   0  0  0  0  0  0  0  0  0  0  0  0
    3.7808    0.2319    1.5690 C   0  0  0  0  0  0  0  0  0  0  0  0
    4.0036   -0.1060   -0.8587 C   0  0  0  0  0  0  0  0  0  0  0  0
    4.6042    0.2169    0.3523 C   0  0  0  0  0  0  0  0  0  0  0  0
    1.5094   -0.0350    2.6596 C   0  0  0  0  0  0  0  0  0  0  0  0
   -4.0364    1.9978   -0.2221 C   0  0  0  0  0  0  0  0  0  0  0  0
    4.7617   -0.1286   -2.0301 C   0  0  0  0  0  0  0  0  0  0  0  0
    5.9675    0.5202    0.4050 C   0  0  0  0  0  0  0  0  0  0  0  0
    6.1228    0.1731   -1.9828 C   0  0  0  0  0  0  0  0  0  0  0  0
    6.7246    0.4971   -0.7668 C   0  0  0  0  0  0  0  0  0  0  0  0
   -3.5636    3.0515   -0.9072 C   0  0  0  0  0  0  0  0  0  0  0  0
   -3.6125    4.4372   -0.4503 C   0  0  0  0  0  0  0  0  0  0  0  0
   -3.8854    5.4197   -1.5562 C   0  0  0  0  0  0  0  0  0  0  0  0
   -3.3764    4.7603    0.8367 C   0  0  0  0  0  0  0  0  0  0  0  0
   -3.3809    6.1180    1.4631 C   0  0  0  0  0  0  0  0  0  0  0  0
   -2.1547   -1.1763    0.5868 H   0  0  0  0  0  0  0  0  0  0  0  0
   -1.1006   -3.8622   -0.3998 H   0  0  0  0  0  0  0  0  0  0  0  0
   -4.1607   -2.7547    1.4389 H   0  0  0  0  0  0  0  0  0  0  0  0
    0.5409   -2.6514    0.9698 H   0  0  0  0  0  0  0  0  0  0  0  0
    0.9941   -2.7927   -0.7116 H   0  0  0  0  0  0  0  0  0  0  0  0
   -3.9538   -1.9011   -1.4730 H   0  0  0  0  0  0  0  0  0  0  0  0
   -1.7702   -1.2567   -1.8889 H   0  0  0  0  0  0  0  0  0  0  0  0
   -0.6453   -2.4641   -2.5148 H   0  0  0  0  0  0  0  0  0  0  0  0
   -2.3130   -2.9080   -2.2678 H   0  0  0  0  0  0  0  0  0  0  0  0
   -3.0380   -4.8602    0.6762 H   0  0  0  0  0  0  0  0  0  0  0  0
   -4.6890   -4.6323    0.1110 H   0  0  0  0  0  0  0  0  0  0  0  0
   -3.3567   -4.3771   -1.0051 H   0  0  0  0  0  0  0  0  0  0  0  0
   -0.2188   -0.2478    0.5174 H   0  0  0  0  0  0  0  0  0  0  0  0
    0.2397   -0.4316   -1.1471 H   0  0  0  0  0  0  0  0  0  0  0  0
   -4.9037   -0.2439    0.9347 H   0  0  0  0  0  0  0  0  0  0  0  0
   -1.7445   -1.9920    3.8800 H   0  0  0  0  0  0  0  0  0  0  0  0
   -3.3105   -1.9082    3.0824 H   0  0  0  0  0  0  0  0  0  0  0  0
   -2.0330   -0.7089    2.7022 H   0  0  0  0  0  0  0  0  0  0  0  0
   -3.5324    0.4884   -1.7039 H   0  0  0  0  0  0  0  0  0  0  0  0
   -6.3887   -0.8503   -1.9642 H   0  0  0  0  0  0  0  0  0  0  0  0
   -5.7297   -2.3307   -2.7398 H   0  0  0  0  0  0  0  0  0  0  0  0
   -7.3248   -2.3520   -1.9719 H   0  0  0  0  0  0  0  0  0  0  0  0
    0.4854   -0.3869    2.5238 H   0  0  0  0  0  0  0  0  0  0  0  0
    1.9548   -0.6632    3.4389 H   0  0  0  0  0  0  0  0  0  0  0  0
    1.4622    0.9942    3.0307 H   0  0  0  0  0  0  0  0  0  0  0  0
   -4.4998    2.1376    0.7516 H   0  0  0  0  0  0  0  0  0  0  0  0
    4.2943   -0.3812   -2.9787 H   0  0  0  0  0  0  0  0  0  0  0  0
    7.7854    0.7332   -0.7268 H   0  0  0  0  0  0  0  0  0  0  0  0
   -3.1220    2.8983   -1.8903 H   0  0  0  0  0  0  0  0  0  0  0  0
    5.9825    0.8338    2.3080 H   0  0  0  0  0  0  0  0  0  0  0  0
    7.7833    0.3855   -2.9077 H   0  0  0  0  0  0  0  0  0  0  0  0
   -3.8955    6.4600   -1.2251 H   0  0  0  0  0  0  0  0  0  0  0  0
   -3.1200    5.3420   -2.3369 H   0  0  0  0  0  0  0  0  0  0  0  0
   -4.8615    5.2168   -2.0113 H   0  0  0  0  0  0  0  0  0  0  0  0
   -3.1462    3.9654    1.5454 H   0  0  0  0  0  0  0  0  0  0  0  0
   -4.0767    6.1269    2.3084 H   0  0  0  0  0  0  0  0  0  0  0  0
   -3.6789    6.9196    0.7858 H   0  0  0  0  0  0  0  0  0  0  0  0
   -2.3818    6.3506    1.8448 H   0  0  0  0  0  0  0  0  0  0  0  0
  1  7  1  0  0  0  0
  1 17  1  0  0  0  0
  2 11  1  0  0  0  0
  2 20  1  0  0  0  0
  3 15  1  0  0  0  0
  3 22  1  0  0  0  0
  4 21  2  0  0  0  0
  5 27  1  0  0  0  0
  5 64  1  0  0  0  0
  6 28  1  0  0  0  0
  6 65  1  0  0  0  0
  7  8  1  0  0  0  0
  7  9  1  0  0  0  0
  7 35  1  0  0  0  0
  8 10  1  0  0  0  0
  8 12  1  0  0  0  0
  8 36  1  0  0  0  0
  9 11  1  0  0  0  0
  9 13  1  0  0  0  0
  9 37  1  0  0  0  0
 10 14  1  0  0  0  0
 10 38  1  0  0  0  0
 10 39  1  0  0  0  0
 11 16  1  0  0  0  0
 11 40  1  0  0  0  0
 12 41  1  0  0  0  0
 12 42  1  0  0  0  0
 12 43  1  0  0  0  0
 13 44  1  0  0  0  0
 13 45  1  0  0  0  0
 13 46  1  0  0  0  0
 14 15  1  0  0  0  0
 14 47  1  0  0  0  0
 14 48  1  0  0  0  0
 15 18  2  0  0  0  0
 16 19  2  0  0  0  0
 16 49  1  0  0  0  0
 17 50  1  0  0  0  0
 17 51  1  0  0  0  0
 17 52  1  0  0  0  0
 18 21  1  0  0  0  0
 18 24  1  0  0  0  0
 19 25  1  0  0  0  0
 19 53  1  0  0  0  0
 20 54  1  0  0  0  0
 20 55  1  0  0  0  0
 20 56  1  0  0  0  0
 21 23  1  0  0  0  0
 22 23  1  0  0  0  0
 22 26  2  0  0  0  0
 23 27  2  0  0  0  0
 24 57  1  0  0  0  0
 24 58  1  0  0  0  0
 24 59  1  0  0  0  0
 25 30  2  0  0  0  0
 25 60  1  0  0  0  0
 26 28  1  0  0  0  0
 26 61  1  0  0  0  0
 27 29  1  0  0  0  0
 28 29  2  0  0  0  0
 29 62  1  0  0  0  0
 30 31  1  0  0  0  0
 30 63  1  0  0  0  0
 31 32  1  0  0  0  0
 31 33  2  0  0  0  0
 32 66  1  0  0  0  0
 32 67  1  0  0  0  0
 32 68  1  0  0  0  0
 33 34  1  0  0  0  0
 33 69  1  0  0  0  0
 34 70  1  0  0  0  0
 34 71  1  0  0  0  0
 34 72  1  0  0  0  0
M  END
> <PUBCHEM_COMPOUND_CID>
5282077

> <PUBCHEM_CONFORMER_RMSD>
1

> <PUBCHEM_CONFORMER_DIVERSEORDER>
2
220
62
209
108
215
161
229
299
199
142
180
235
100
177
227
238
87
266
222
95
67
185
111
135
56
37
279
290
297
91
98
243
74
25
101
144
236
276
145
216
90
268
146
139
57
41
43
160
121
233
94
234
126
93
85
251
189
263
16
173
50
190
225
72
168
205
196
256
81
147
117
82
114
212
17
200
157
289
123
61
274
18
165
214
113
280
277
149
203
70
104
115
64
20
73
120
65
35
80
270
23
272
219
24
207
254
262
1
240
118
271
141
6
34
107
228
246
103
217
249
33
13
194
296
255
119
78
96
110
138
211
30
294
193
201
267
31
174
252
55
155
284
28
169
52
208
186
265
10
134
195
48
8
36
245
150
253
75
128
192
44
275
231
58
88
12
198
116
60
7
239
140
54
21
191
83
125
171
261
47
176
204
166
154
59
218
295
162
158
264
71
181
106
46
259
122
129
278
124
247
298
213
178
9
163
273
187
133
152
287
69
4
148
27
26
40
237
292
19
112
5
79
77
188
286
170
49
197
156
136
164
206
230
89
221
258
244
241
224
293
99
66
38
45
159
288
42
153
29
183
282
172
242
3
151
182
132
53
32
184
167
226
22
285
63
97
232
130
260
143
11
257
248
84
175
76
109
102
14
283
127
39
131
223
137
202
68
250
210
86
92
269
105
51
179
291
281
15

> <PUBCHEM_MMFF94_PARTIAL_CHARGES>
38
1 -0.56
11 0.42
14 0.14
15 -0.06
16 -0.29
17 0.28
18 -0.12
19 -0.15
2 -0.56
20 0.28
21 0.47
22 0.08
23 0.09
24 0.14
25 -0.15
26 -0.15
27 0.08
28 0.08
29 -0.15
3 -0.16
30 -0.15
31 -0.14
32 0.14
33 -0.29
34 0.14
4 -0.57
49 0.15
5 -0.53
53 0.15
6 -0.53
60 0.15
61 0.15
62 0.15
63 0.15
64 0.45
65 0.45
69 0.15
7 0.28

> <PUBCHEM_EFFECTIVE_ROTOR_COUNT>
11

> <PUBCHEM_PHARMACOPHORE_FEATURES>
12
1 1 acceptor
1 12 hydrophobe
1 13 hydrophobe
1 2 acceptor
1 3 acceptor
1 32 hydrophobe
1 34 hydrophobe
1 4 acceptor
1 5 donor
1 6 donor
6 22 23 26 27 28 29 rings
6 3 15 18 21 22 23 rings

> <PUBCHEM_HEAVY_ATOM_COUNT>
34

> <PUBCHEM_ATOM_DEF_STEREO_COUNT>
4

> <PUBCHEM_ATOM_UDEF_STEREO_COUNT>
0

> <PUBCHEM_BOND_DEF_STEREO_COUNT>
3

> <PUBCHEM_BOND_UDEF_STEREO_COUNT>
0

> <PUBCHEM_ISOTOPIC_ATOM_COUNT>
0

> <PUBCHEM_COMPONENT_COUNT>
1

> <PUBCHEM_CACTVS_TAUTO_COUNT>
33

> <PUBCHEM_CONFORMER_ID>
0050991D00000002

> <PUBCHEM_MMFF94_ENERGY>
94.7861

> <PUBCHEM_FEATURE_SELFOVERLAP>
60.92

> <PUBCHEM_SHAPE_FINGERPRINT>
10670039 82 18411981360087921359
10937287 8 17978516661371157005
11059845 2 17980511127765486466
11410812 94 18269254873717701068
11434127 23 18041284377732820420
12788726 201 18273221876567172571
14068700 675 18200884968095229093
14251764 75 17905041809551222969
14347329 18 18410851109706378560
15183329 4 18342173328666245886
15419008 47 18042122077102031427
15513586 35 17416663787919835325
15968369 153 18117284661743911156
16067689 391 16372965784557655156
16067690 210 18201445714102874665
21033650 10 18341885299389606386
21859007 373 18187373116782553498
21927370 108 18196078964496036859
22122407 14 15769775762511317095
23516275 100 17975711497133500369
23559900 14 16226328080395146770
4616759 239 16914819120608836176
46194498 28 17895761669318886184
508706 21 18334583425526404719
550186 7 18335139817159899703
6608658 132 18202004317723244645
9849439 229 18052544562802914229

> <PUBCHEM_SHAPE_MULTIPOLES>
664.49
16.94
6.59
2.53
22.28
11.34
0.62
4.53
-7.41
-18.88
0.43
2.62
-0.05
-0.05

> <PUBCHEM_SHAPE_SELFOVERLAP>
1365.386

> <PUBCHEM_SHAPE_VOLUME>
383

> <PUBCHEM_COORDINATE_TYPE>
2
5
10

$$$$

