17396275
  -OEChem-06241222553D

 43 46  0     1  0  0  0  0  0999 V2000
    3.2944    0.8035   -0.1735 O   0  0  0  0  0  0  0  0  0  0  0  0
   -1.1052   -1.6192   -1.2821 O   0  0  0  0  0  0  0  0  0  0  0  0
   -3.2305   -3.0442    0.8831 O   0  0  0  0  0  0  0  0  0  0  0  0
    0.5604   -0.3560   -0.2661 N   0  0  0  0  0  0  0  0  0  0  0  0
   -2.8901   -0.7321    0.6551 N   0  0  0  0  0  0  0  0  0  0  0  0
   -5.6603   -0.6541    0.0775 N   0  0  0  0  0  0  0  0  0  0  0  0
    1.5325   -0.4226   -1.3336 C   0  0  2  0  0  0  0  0  0  0  0  0
    2.9453   -0.3532   -0.7951 C   0  0  0  0  0  0  0  0  0  0  0  0
   -1.4644   -0.7723    0.9518 C   0  0  0  0  0  0  0  0  0  0  0  0
    3.9955   -1.2417   -0.7969 C   0  0  0  0  0  0  0  0  0  0  0  0
    5.0695   -0.5933   -0.1319 C   0  0  0  0  0  0  0  0  0  0  0  0
    1.2535    0.6521   -2.3824 C   0  0  0  0  0  0  0  0  0  0  0  0
   -0.6848   -0.9643   -0.3316 C   0  0  0  0  0  0  0  0  0  0  0  0
    4.5876    0.6601    0.2314 C   0  0  0  0  0  0  0  0  0  0  0  0
   -3.5174    0.5137    0.3669 C   0  0  0  0  0  0  0  0  0  0  0  0
   -4.8921    0.5183    0.0847 C   0  0  0  0  0  0  0  0  0  0  0  0
   -3.6275   -1.9084    0.6554 C   0  0  0  0  0  0  0  0  0  0  0  0
    6.3936   -0.9266    0.2027 C   0  0  0  0  0  0  0  0  0  0  0  0
    5.3370    1.6182    0.9117 C   0  0  0  0  0  0  0  0  0  0  0  0
   -2.8116    1.7273    0.3559 C   0  0  0  0  0  0  0  0  0  0  0  0
   -5.5364    1.7300   -0.2023 C   0  0  0  0  0  0  0  0  0  0  0  0
    7.1722    0.0169    0.8870 C   0  0  0  0  0  0  0  0  0  0  0  0
    6.6510    1.2660    1.2339 C   0  0  0  0  0  0  0  0  0  0  0  0
   -5.0799   -1.7742    0.3401 C   0  0  0  0  0  0  0  0  0  0  0  0
   -3.4652    2.9271    0.0686 C   0  0  0  0  0  0  0  0  0  0  0  0
   -4.8271    2.9291   -0.2106 C   0  0  0  0  0  0  0  0  0  0  0  0
    1.4138   -1.3981   -1.8231 H   0  0  0  0  0  0  0  0  0  0  0  0
    0.8009    0.1863    0.5590 H   0  0  0  0  0  0  0  0  0  0  0  0
   -1.1415    0.0891    1.5414 H   0  0  0  0  0  0  0  0  0  0  0  0
   -1.2567   -1.6546    1.5707 H   0  0  0  0  0  0  0  0  0  0  0  0
    3.9906   -2.2348   -1.2238 H   0  0  0  0  0  0  0  0  0  0  0  0
    1.3128    1.6572   -1.9490 H   0  0  0  0  0  0  0  0  0  0  0  0
    1.9781    0.5981   -3.2021 H   0  0  0  0  0  0  0  0  0  0  0  0
    0.2504    0.5367   -2.8073 H   0  0  0  0  0  0  0  0  0  0  0  0
    6.8123   -1.8933   -0.0603 H   0  0  0  0  0  0  0  0  0  0  0  0
    4.9257    2.5847    1.1774 H   0  0  0  0  0  0  0  0  0  0  0  0
   -1.7454    1.7858    0.5478 H   0  0  0  0  0  0  0  0  0  0  0  0
   -6.6014    1.7434   -0.4224 H   0  0  0  0  0  0  0  0  0  0  0  0
    8.1977   -0.2283    1.1514 H   0  0  0  0  0  0  0  0  0  0  0  0
   -5.6532   -2.7150    0.3431 H   0  0  0  0  0  0  0  0  0  0  0  0
    7.2785    1.9778    1.7646 H   0  0  0  0  0  0  0  0  0  0  0  0
   -2.9076    3.8592    0.0590 H   0  0  0  0  0  0  0  0  0  0  0  0
   -5.3364    3.8614   -0.4354 H   0  0  0  0  0  0  0  0  0  0  0  0
  1  8  1  0  0  0  0
  1 14  1  0  0  0  0
  2 13  2  0  0  0  0
  3 17  2  0  0  0  0
  4  7  1  0  0  0  0
  4 13  1  0  0  0  0
  4 28  1  0  0  0  0
  5  9  1  0  0  0  0
  5 15  1  0  0  0  0
  5 17  1  0  0  0  0
  6 16  1  0  0  0  0
  6 24  2  0  0  0  0
  7  8  1  0  0  0  0
  7 12  1  0  0  0  0
  7 27  1  0  0  0  0
  8 10  2  0  0  0  0
  9 13  1  0  0  0  0
  9 29  1  0  0  0  0
  9 30  1  0  0  0  0
 10 11  1  0  0  0  0
 10 31  1  0  0  0  0
 11 14  1  0  0  0  0
 11 18  2  0  0  0  0
 12 32  1  0  0  0  0
 12 33  1  0  0  0  0
 12 34  1  0  0  0  0
 14 19  2  0  0  0  0
 15 16  1  0  0  0  0
 15 20  2  0  0  0  0
 16 21  2  0  0  0  0
 17 24  1  0  0  0  0
 18 22  1  0  0  0  0
 18 35  1  0  0  0  0
 19 23  1  0  0  0  0
 19 36  1  0  0  0  0
 20 25  1  0  0  0  0
 20 37  1  0  0  0  0
 21 26  1  0  0  0  0
 21 38  1  0  0  0  0
 22 23  2  0  0  0  0
 22 39  1  0  0  0  0
 23 41  1  0  0  0  0
 24 40  1  0  0  0  0
 25 26  2  0  0  0  0
 25 42  1  0  0  0  0
 26 43  1  0  0  0  0
M  END
> <PUBCHEM_COMPOUND_CID>
17396275

> <PUBCHEM_CONFORMER_RMSD>
0.8

> <PUBCHEM_CONFORMER_DIVERSEORDER>
1
133
218
257
48
164
245
225
197
127
92
51
148
116
237
120
191
267
91
7
216
23
8
93
213
243
72
67
249
138
206
244
181
88
228
14
99
35
103
223
255
170
230
259
74
135
20
81
184
121
253
200
9
207
79
69
44
96
190
141
240
136
159
30
55
137
150
27
90
222
32
62
247
238
57
10
143
201
154
40
250
125
202
104
134
89
17
4
198
61
102
241
2
193
145
224
158
144
16
183
13
37
130
167
147
118
78
234
219
176
85
251
84
266
246
166
86
256
192
173
179
95
50
31
97
11
177
122
188
113
25
231
169
152
6
112
82
59
168
140
22
199
232
268
52
146
54
239
254
163
26
261
94
229
63
189
194
139
205
107
24
235
217
83
248
210
106
43
262
182
71
126
47
178
123
156
129
195
174
132
242
260
208
111
80
263
149
185
209
21
162
128
42
65
236
258
114
110
33
221
157
29
155
203
77
109
186
211
101
212
98
58
117
142
100
12
151
49
161
3
38
265
233
153
171
28
160
5
66
115
46
187
19
172
131
227
220
68
18
64
226
60
175
36
15
39
180
165
53
73
264
70
108
269
34
45
196
56
41
252
124
76
105
204
119
87
75
214
215

> <PUBCHEM_MMFF94_PARTIAL_CHARGES>
35
1 -0.28
10 -0.15
13 0.57
14 0.14
15 0.12
16 0.18
17 0.63
18 -0.15
19 -0.15
2 -0.57
20 -0.15
21 -0.15
22 -0.15
23 -0.15
24 0.39
25 -0.15
26 -0.15
28 0.37
3 -0.57
31 0.15
35 0.15
36 0.15
37 0.15
38 0.15
39 0.15
4 -0.73
40 0.06
41 0.15
42 0.15
43 0.15
5 -0.48
6 -0.63
7 0.48
8 -0.04
9 0.36

> <PUBCHEM_EFFECTIVE_ROTOR_COUNT>
5

> <PUBCHEM_PHARMACOPHORE_FEATURES>
9
1 1 acceptor
1 2 acceptor
1 3 acceptor
1 4 donor
1 6 acceptor
5 1 8 10 11 14 rings
6 11 14 18 19 22 23 rings
6 15 16 20 21 25 26 rings
6 5 6 15 16 17 24 rings

> <PUBCHEM_HEAVY_ATOM_COUNT>
26

> <PUBCHEM_ATOM_DEF_STEREO_COUNT>
0

> <PUBCHEM_ATOM_UDEF_STEREO_COUNT>
1

> <PUBCHEM_BOND_DEF_STEREO_COUNT>
0

> <PUBCHEM_BOND_UDEF_STEREO_COUNT>
0

> <PUBCHEM_ISOTOPIC_ATOM_COUNT>
0

> <PUBCHEM_COMPONENT_COUNT>
1

> <PUBCHEM_CACTVS_TAUTO_COUNT>
2

> <PUBCHEM_CONFORMER_ID>
0109723300000001

> <PUBCHEM_MMFF94_ENERGY>
57.4918

> <PUBCHEM_FEATURE_SELFOVERLAP>
45.801

> <PUBCHEM_SHAPE_FINGERPRINT>
10 15 18260554381934592952
100830 39 18411703226954923888
10319926 262 18412259536978108694
10411042 1 18052254000239985707
10554248 39 14707201094932982044
11315181 36 17846777377928420799
11991303 11 16732990778115301876
12107183 9 17839749505720084922
12236239 1 17704067387134776276
12403259 415 18041548221915415470
12596602 18 18272654519924590656
12616971 3 16702293555575531462
12633257 1 16559022783903481390
12838862 33 18200321034943014797
13402501 40 18259707825857410296
13403585 85 18409449172008562505
13583140 156 18113617876232410582
13673619 4 10591748901255576605
13911987 19 16732704960773620925
13914758 101 16702311165658882773
14251764 30 12247385800535957436
14466204 15 18413107285907083064
14739800 52 18340499961798561488
14840074 17 15430035448257315744
14844126 61 18199462178543044987
14951699 99 18340200800785491484
15021287 119 16415474960796158502
15183329 4 15698000730282475138
15188451 53 17987800692025933395
15348495 7 18411420579662683536
15461852 350 18113338578703607134
15537594 2 14189576321721571104
16990366 60 17553188919192907851
17844677 252 18340761564172602408
19489759 90 18343018891603896931
20511986 3 18059306451437868235
21033648 29 18041290910635806344
21315763 129 18410855430343212576
21315764 268 18409733945663081388
21792934 111 18341605985604319993
21859007 373 18336827619053392116
23522609 53 17059188454836882436
23559900 14 18336261335735759082
255183 451 8717381717335371281
2838139 119 18040726886967408476
312425 54 18059862779216377178
3383291 50 17916859132919563499
373842 8 18334577902342024176
4073 2 18201996604421222530
4325135 7 17022625247848143423
437815 12 12031781462097410399
5104073 3 18337945804735046267
5283173 99 18409165549574967657
5364581 5 18265897960468351136
5969126 39 18189061911093391471
9981440 41 18271516585762452123
9995097 60 18333731347217947526

> <PUBCHEM_SHAPE_MULTIPOLES>
502.52
18.57
2.63
1.25
17.74
0.61
-0.55
4.23
5.47
-4.6
0.4
0.98
-0.03
1.65

> <PUBCHEM_SHAPE_SELFOVERLAP>
1106.803

> <PUBCHEM_SHAPE_VOLUME>
269.5

> <PUBCHEM_COORDINATE_TYPE>
2
5
10

$$$$

