23724754
  -OEChem-07051213082D

 53 55  0     1  0  0  0  0  0999 V2000
    6.7795    5.3634    0.0000 P   0  0  0  0  0  0  0  0  0  0  0  0
    6.1346    1.9102    0.0000 O   0  0  0  0  0  0  0  0  0  0  0  0
    8.4806    0.8184    0.0000 O   0  0  0  0  0  0  0  0  0  0  0  0
    8.4843    2.9940    0.0000 O   0  0  0  0  0  0  0  0  0  0  0  0
    7.0868    4.4118    0.0000 O   0  0  0  0  0  0  0  0  0  0  0  0
    6.4721    6.3150    0.0000 O   0  0  0  0  0  0  0  0  0  0  0  0
    7.7310    5.6708    0.0000 O   0  0  0  0  0  0  0  0  0  0  0  0
    5.8279    5.0560    0.0000 O   0  0  0  0  0  0  0  0  0  0  0  0
    2.0000   -6.1550    0.0000 O   0  0  0  0  0  0  0  0  0  0  0  0
    6.4103    0.1497    0.0000 N   0  0  0  0  0  0  0  0  0  0  0  0
    6.4103   -1.4598    0.0000 N   0  0  0  0  0  0  0  0  0  0  0  0
    4.5981    0.3450    0.0000 N   0  0  0  0  0  0  0  0  0  0  0  0
    4.5981   -2.6550    0.0000 N   0  0  0  0  0  0  0  0  0  0  0  0
    3.7320   -1.1550    0.0000 N   0  0  0  0  0  0  0  0  0  0  0  0
    7.6726    1.4076    0.0000 C   0  0  2  0  0  0  0  0  0  0  0  0
    7.6743    2.4076    0.0000 C   0  0  1  0  0  0  0  0  0  0  0  0
    6.7210    1.1002    0.0000 C   0  0  1  0  0  0  0  0  0  0  0  0
    6.7238    2.7182    0.0000 C   0  0  1  0  0  0  0  0  0  0  0  0
    6.4164    3.6698    0.0000 C   0  0  0  0  0  0  0  0  0  0  0  0
    5.4641   -0.1550    0.0000 C   0  0  0  0  0  0  0  0  0  0  0  0
    6.9939   -0.6550    0.0000 C   0  0  0  0  0  0  0  0  0  0  0  0
    5.4641   -1.1550    0.0000 C   0  0  0  0  0  0  0  0  0  0  0  0
    4.5981   -1.6550    0.0000 C   0  0  0  0  0  0  0  0  0  0  0  0
    3.7320   -4.1550    0.0000 C   0  0  0  0  0  0  0  0  0  0  0  0
    2.8660   -4.6550    0.0000 C   0  0  3  0  0  0  0  0  0  0  0  0
    3.7320   -3.1550    0.0000 C   0  0  0  0  0  0  0  0  0  0  0  0
    3.7320   -0.1550    0.0000 C   0  0  0  0  0  0  0  0  0  0  0  0
    2.8660   -5.6550    0.0000 C   0  0  0  0  0  0  0  0  0  0  0  0
    2.0000   -4.1550    0.0000 C   0  0  0  0  0  0  0  0  0  0  0  0
    8.2255    1.6881    0.0000 H   0  0  0  0  0  0  0  0  0  0  0  0
    7.5784    3.0201    0.0000 H   0  0  0  0  0  0  0  0  0  0  0  0
    6.1085    1.0043    0.0000 H   0  0  0  0  0  0  0  0  0  0  0  0
    6.1116    2.8163    0.0000 H   0  0  0  0  0  0  0  0  0  0  0  0
    6.0356    4.1591    0.0000 H   0  0  0  0  0  0  0  0  0  0  0  0
    5.8685    3.3797    0.0000 H   0  0  0  0  0  0  0  0  0  0  0  0
    9.0474    1.0696    0.0000 H   0  0  0  0  0  0  0  0  0  0  0  0
    9.0503    2.7408    0.0000 H   0  0  0  0  0  0  0  0  0  0  0  0
    7.6139   -0.6550    0.0000 H   0  0  0  0  0  0  0  0  0  0  0  0
    3.9441   -4.7376    0.0000 H   0  0  0  0  0  0  0  0  0  0  0  0
    4.3426   -4.0474    0.0000 H   0  0  0  0  0  0  0  0  0  0  0  0
    2.8660   -4.0350    0.0000 H   0  0  0  0  0  0  0  0  0  0  0  0
    3.5200   -2.5724    0.0000 H   0  0  0  0  0  0  0  0  0  0  0  0
    3.1215   -3.2627    0.0000 H   0  0  0  0  0  0  0  0  0  0  0  0
    5.1350   -2.9650    0.0000 H   0  0  0  0  0  0  0  0  0  0  0  0
    3.1951    0.1550    0.0000 H   0  0  0  0  0  0  0  0  0  0  0  0
    3.0781   -6.2376    0.0000 H   0  0  0  0  0  0  0  0  0  0  0  0
    3.4766   -5.5474    0.0000 H   0  0  0  0  0  0  0  0  0  0  0  0
    2.3100   -3.6181    0.0000 H   0  0  0  0  0  0  0  0  0  0  0  0
    1.4631   -3.8450    0.0000 H   0  0  0  0  0  0  0  0  0  0  0  0
    1.6900   -4.6920    0.0000 H   0  0  0  0  0  0  0  0  0  0  0  0
    7.8610    6.2770    0.0000 H   0  0  0  0  0  0  0  0  0  0  0  0
    6.8877    6.7750    0.0000 H   0  0  0  0  0  0  0  0  0  0  0  0
    2.0000   -6.7750    0.0000 H   0  0  0  0  0  0  0  0  0  0  0  0
  1  5  1  0  0  0  0
  1  6  1  0  0  0  0
  1  7  1  0  0  0  0
  1  8  2  0  0  0  0
  2 17  1  0  0  0  0
  2 18  1  0  0  0  0
 15  3  1  1  0  0  0
  3 36  1  0  0  0  0
 16  4  1  1  0  0  0
  4 37  1  0  0  0  0
  5 19  1  0  0  0  0
  6 52  1  0  0  0  0
  7 51  1  0  0  0  0
  9 28  1  0  0  0  0
  9 53  1  0  0  0  0
 17 10  1  6  0  0  0
 10 20  1  0  0  0  0
 10 21  1  0  0  0  0
 11 21  2  0  0  0  0
 11 22  1  0  0  0  0
 12 20  2  0  0  0  0
 12 27  1  0  0  0  0
 13 23  1  0  0  0  0
 13 26  1  0  0  0  0
 13 44  1  0  0  0  0
 14 23  1  0  0  0  0
 14 27  2  0  0  0  0
 15 16  1  0  0  0  0
 15 17  1  0  0  0  0
 15 30  1  0  0  0  0
 16 18  1  0  0  0  0
 16 31  1  0  0  0  0
 17 32  1  0  0  0  0
 18 19  1  6  0  0  0
 18 33  1  0  0  0  0
 19 34  1  0  0  0  0
 19 35  1  0  0  0  0
 20 22  1  0  0  0  0
 21 38  1  0  0  0  0
 22 23  2  0  0  0  0
 24 25  1  0  0  0  0
 24 26  1  0  0  0  0
 24 39  1  0  0  0  0
 24 40  1  0  0  0  0
 25 28  1  0  0  0  0
 25 29  1  0  0  0  0
 25 41  1  0  0  0  0
 26 42  1  0  0  0  0
 26 43  1  0  0  0  0
 27 45  1  0  0  0  0
 28 46  1  0  0  0  0
 28 47  1  0  0  0  0
 29 48  1  0  0  0  0
 29 49  1  0  0  0  0
 29 50  1  0  0  0  0
M  END
> <PUBCHEM_COMPOUND_CID>
23724754

> <PUBCHEM_COMPOUND_CANONICALIZED>
1

> <PUBCHEM_CACTVS_COMPLEXITY>
585

> <PUBCHEM_CACTVS_HBOND_ACCEPTOR>
12

> <PUBCHEM_CACTVS_HBOND_DONOR>
6

> <PUBCHEM_CACTVS_ROTATABLE_BOND>
9

> <PUBCHEM_CACTVS_SUBSKEYS>
AAADceBzvAIAAAAAAAAAAAAAAAAAAWJAAAAsAAAAAAAAAFgB+AAAHgAQCCAADRzhlwYH8L/MFxCgQQZhZICAgC0REKABUKAoVBCDWAJAyEAeRAgPEALTACDwMAIIAAAAAAAAAAAAAAAAAAAAAAAAAAAAAA==

> <PUBCHEM_IUPAC_OPENEYE_NAME>
[(2R,3S,4R,5R)-3,4-dihydroxy-5-[6-[(4-hydroxy-3-methyl-butyl)amino]purin-9-yl]tetrahydrofuran-2-yl]methyl dihydrogen phosphate

> <PUBCHEM_IUPAC_CAS_NAME>
[(2R,3S,4R,5R)-3,4-dihydroxy-5-[6-[(4-hydroxy-3-methylbutyl)amino]-9-purinyl]-2-oxolanyl]methyl dihydrogen phosphate

> <PUBCHEM_IUPAC_NAME>
[(2R,3S,4R,5R)-3,4-dihydroxy-5-[6-[(4-hydroxy-3-methylbutyl)amino]purin-9-yl]oxolan-2-yl]methyl dihydrogen phosphate

> <PUBCHEM_IUPAC_SYSTEMATIC_NAME>
[(2R,3S,4R,5R)-5-[6-[(3-methyl-4-oxidanyl-butyl)amino]purin-9-yl]-3,4-bis(oxidanyl)oxolan-2-yl]methyl dihydrogen phosphate

> <PUBCHEM_IUPAC_TRADITIONAL_NAME>
[(2R,3S,4R,5R)-3,4-dihydroxy-5-[6-[(4-hydroxy-3-methyl-butyl)amino]purin-9-yl]tetrahydrofuran-2-yl]methyl dihydrogen phosphate

> <PUBCHEM_IUPAC_INCHI>
InChI=1S/C15H24N5O8P/c1-8(4-21)2-3-16-13-10-14(18-6-17-13)20(7-19-10)15-12(23)11(22)9(28-15)5-27-29(24,25)26/h6-9,11-12,15,21-23H,2-5H2,1H3,(H,16,17,18)(H2,24,25,26)/t8?,9-,11-,12-,15-/m1/s1

> <PUBCHEM_IUPAC_INCHIKEY>
PHZVBJISZSHIRV-YXYADJKSSA-N

> <PUBCHEM_XLOGP3>
-2.4

> <PUBCHEM_EXACT_MASS>
433.136249

> <PUBCHEM_MOLECULAR_FORMULA>
C15H24N5O8P

> <PUBCHEM_MOLECULAR_WEIGHT>
433.353522

> <PUBCHEM_OPENEYE_CAN_SMILES>
CC(CCNC1=NC=NC2=C1N=CN2C3C(C(C(O3)COP(=O)(O)O)O)O)CO

> <PUBCHEM_OPENEYE_ISO_SMILES>
CC(CCNC1=NC=NC2=C1N=CN2[C@H]3[C@@H]([C@@H]([C@H](O3)COP(=O)(O)O)O)O)CO

> <PUBCHEM_CACTVS_TPSA>
192

> <PUBCHEM_MONOISOTOPIC_WEIGHT>
433.136249

> <PUBCHEM_TOTAL_CHARGE>
0

> <PUBCHEM_HEAVY_ATOM_COUNT>
29

> <PUBCHEM_ATOM_DEF_STEREO_COUNT>
4

> <PUBCHEM_ATOM_UDEF_STEREO_COUNT>
1

> <PUBCHEM_BOND_DEF_STEREO_COUNT>
0

> <PUBCHEM_BOND_UDEF_STEREO_COUNT>
0

> <PUBCHEM_ISOTOPIC_ATOM_COUNT>
0

> <PUBCHEM_COMPONENT_COUNT>
1

> <PUBCHEM_CACTVS_TAUTO_COUNT>
3

> <PUBCHEM_COORDINATE_TYPE>
1
5
255

> <PUBCHEM_BONDANNOTATIONS>
17  10  6
10  20  8
10  21  8
11  21  8
11  22  8
12  20  8
12  27  8
14  23  8
14  27  8
18  19  6
20  22  8
22  23  8
25  29  3
15  3  5
16  4  5

$$$$

