92155
  -OEChem-07051212513D

 80 84  0     1  0  0  0  0  0999 V2000
   -0.7318   -0.6022    0.1050 C   0  0  1  0  0  0  0  0  0  0  0  0
    0.7791   -0.5565   -0.5314 C   0  0  1  0  0  0  0  0  0  0  0  0
   -1.4434    0.7731   -0.2374 C   0  0  1  0  0  0  0  0  0  0  0  0
    1.5494    0.6818    0.0905 C   0  0  1  0  0  0  0  0  0  0  0  0
   -2.9801    0.8211    0.0451 C   0  0  2  0  0  0  0  0  0  0  0  0
    3.1193    0.7538   -0.1894 C   0  0  2  0  0  0  0  0  0  0  0  0
   -3.6145   -0.3827   -0.6879 C   0  0  1  0  0  0  0  0  0  0  0  0
    3.7306   -0.6330    0.2423 C   0  0  1  0  0  0  0  0  0  0  0  0
   -0.6639    1.9771    0.3144 C   0  0  0  0  0  0  0  0  0  0  0  0
   -1.5753   -1.8015   -0.4587 C   0  0  0  0  0  0  0  0  0  0  0  0
    0.7902    2.0071   -0.1656 C   0  0  0  0  0  0  0  0  0  0  0  0
    1.5659   -1.8638   -0.2254 C   0  0  0  0  0  0  0  0  0  0  0  0
   -3.0922   -1.7226   -0.1918 C   0  0  0  0  0  0  0  0  0  0  0  0
    3.0691   -1.7984   -0.5180 C   0  0  0  0  0  0  0  0  0  0  0  0
   -3.7168    1.9597   -0.6994 C   0  0  0  0  0  0  0  0  0  0  0  0
    5.2974   -0.7068    0.3186 C   0  0  0  0  0  0  0  0  0  0  0  0
   -5.1211   -0.0932   -0.7406 C   0  0  2  0  0  0  0  0  0  0  0  0
    3.7468    1.8513    0.7275 C   0  0  0  0  0  0  0  0  0  0  0  0
   -0.6658   -0.8295    1.6483 C   0  0  0  0  0  0  0  0  0  0  0  0
    0.7112   -0.4495   -2.0873 C   0  0  0  0  0  0  0  0  0  0  0  0
   -5.1651    1.4508   -0.8733 C   0  0  0  0  0  0  0  0  0  0  0  0
   -3.3514    0.9373    1.5434 C   0  0  0  0  0  0  0  0  0  0  0  0
    3.4288    1.1426   -1.6554 C   0  0  0  0  0  0  0  0  0  0  0  0
    5.8119    0.4609    1.1959 C   0  0  0  0  0  0  0  0  0  0  0  0
    5.2743    1.8259    0.7925 C   0  0  0  0  0  0  0  0  0  0  0  0
    5.7370   -2.0158    1.0261 C   0  0  0  0  0  0  0  0  0  0  0  0
    5.9985   -0.6967   -1.0516 C   0  0  0  0  0  0  0  0  0  0  0  0
   -5.9277   -0.5980    0.4149 C   0  0  0  0  0  0  0  0  0  0  0  0
   -5.9440   -2.0913    0.5998 C   0  0  0  0  0  0  0  0  0  0  0  0
   -6.6165    0.1989    1.2486 C   0  0  0  0  0  0  0  0  0  0  0  0
   -1.3842    0.8768   -1.3281 H   0  0  0  0  0  0  0  0  0  0  0  0
    1.5055    0.5417    1.1781 H   0  0  0  0  0  0  0  0  0  0  0  0
   -3.2963   -0.3297   -1.7444 H   0  0  0  0  0  0  0  0  0  0  0  0
    3.4134   -0.7668    1.2908 H   0  0  0  0  0  0  0  0  0  0  0  0
   -0.6641    1.9873    1.4083 H   0  0  0  0  0  0  0  0  0  0  0  0
   -1.1476    2.9101    0.0015 H   0  0  0  0  0  0  0  0  0  0  0  0
   -1.1968   -2.7508   -0.0596 H   0  0  0  0  0  0  0  0  0  0  0  0
   -1.4667   -1.8701   -1.5434 H   0  0  0  0  0  0  0  0  0  0  0  0
    0.7960    2.2674   -1.2279 H   0  0  0  0  0  0  0  0  0  0  0  0
    1.2822    2.8365    0.3523 H   0  0  0  0  0  0  0  0  0  0  0  0
    1.1361   -2.7039   -0.7849 H   0  0  0  0  0  0  0  0  0  0  0  0
    1.4780   -2.1303    0.8307 H   0  0  0  0  0  0  0  0  0  0  0  0
   -3.5715   -2.5463   -0.7314 H   0  0  0  0  0  0  0  0  0  0  0  0
   -3.2602   -1.8741    0.8746 H   0  0  0  0  0  0  0  0  0  0  0  0
    3.4926   -2.7555   -0.1971 H   0  0  0  0  0  0  0  0  0  0  0  0
    3.2552   -1.7407   -1.5932 H   0  0  0  0  0  0  0  0  0  0  0  0
   -3.2757    2.1364   -1.6887 H   0  0  0  0  0  0  0  0  0  0  0  0
   -3.6864    2.9125   -0.1597 H   0  0  0  0  0  0  0  0  0  0  0  0
   -5.5461   -0.5361   -1.6516 H   0  0  0  0  0  0  0  0  0  0  0  0
    3.3629    1.7376    1.7501 H   0  0  0  0  0  0  0  0  0  0  0  0
    3.4436    2.8500    0.3918 H   0  0  0  0  0  0  0  0  0  0  0  0
   -0.1715   -0.0222    2.1905 H   0  0  0  0  0  0  0  0  0  0  0  0
   -1.6538   -0.9348    2.0944 H   0  0  0  0  0  0  0  0  0  0  0  0
   -0.1561   -1.7608    1.9069 H   0  0  0  0  0  0  0  0  0  0  0  0
    0.2887    0.4918   -2.4425 H   0  0  0  0  0  0  0  0  0  0  0  0
    1.6887   -0.5411   -2.5574 H   0  0  0  0  0  0  0  0  0  0  0  0
    0.1290   -1.2589   -2.5332 H   0  0  0  0  0  0  0  0  0  0  0  0
   -5.8393    2.0287   -0.2474 H   0  0  0  0  0  0  0  0  0  0  0  0
   -5.4806    1.6983   -1.8966 H   0  0  0  0  0  0  0  0  0  0  0  0
   -2.5751    1.4431    2.1222 H   0  0  0  0  0  0  0  0  0  0  0  0
   -4.2519    1.5373    1.7069 H   0  0  0  0  0  0  0  0  0  0  0  0
   -3.5320   -0.0297    2.0162 H   0  0  0  0  0  0  0  0  0  0  0  0
    4.3446    1.7313   -1.7509 H   0  0  0  0  0  0  0  0  0  0  0  0
    3.5611    0.2786   -2.3082 H   0  0  0  0  0  0  0  0  0  0  0  0
    2.6502    1.7704   -2.0941 H   0  0  0  0  0  0  0  0  0  0  0  0
    6.9091    0.4911    1.1840 H   0  0  0  0  0  0  0  0  0  0  0  0
    5.5255    0.2815    2.2416 H   0  0  0  0  0  0  0  0  0  0  0  0
    5.7123    2.1353   -0.1614 H   0  0  0  0  0  0  0  0  0  0  0  0
    5.6081    2.5699    1.5263 H   0  0  0  0  0  0  0  0  0  0  0  0
    6.8100   -1.9988    1.2523 H   0  0  0  0  0  0  0  0  0  0  0  0
    5.2049   -2.1556    1.9736 H   0  0  0  0  0  0  0  0  0  0  0  0
    5.5595   -2.8986    0.4037 H   0  0  0  0  0  0  0  0  0  0  0  0
    5.9100    0.2573   -1.5714 H   0  0  0  0  0  0  0  0  0  0  0  0
    7.0740   -0.8806   -0.9371 H   0  0  0  0  0  0  0  0  0  0  0  0
    5.6084   -1.4797   -1.7096 H   0  0  0  0  0  0  0  0  0  0  0  0
   -5.8184   -2.6191   -0.3504 H   0  0  0  0  0  0  0  0  0  0  0  0
   -5.1960   -2.4259    1.3203 H   0  0  0  0  0  0  0  0  0  0  0  0
   -6.9175   -2.4127    0.9910 H   0  0  0  0  0  0  0  0  0  0  0  0
   -7.1779   -0.2553    2.0627 H   0  0  0  0  0  0  0  0  0  0  0  0
   -6.6869    1.2739    1.2277 H   0  0  0  0  0  0  0  0  0  0  0  0
  1  2  1  0  0  0  0
  1  3  1  0  0  0  0
  1 10  1  0  0  0  0
  1 19  1  0  0  0  0
  2  4  1  0  0  0  0
  2 12  1  0  0  0  0
  2 20  1  0  0  0  0
  3  5  1  0  0  0  0
  3  9  1  0  0  0  0
  3 31  1  0  0  0  0
  4  6  1  0  0  0  0
  4 11  1  0  0  0  0
  4 32  1  0  0  0  0
  5  7  1  0  0  0  0
  5 15  1  0  0  0  0
  5 22  1  0  0  0  0
  6  8  1  0  0  0  0
  6 18  1  0  0  0  0
  6 23  1  0  0  0  0
  7 13  1  0  0  0  0
  7 17  1  0  0  0  0
  7 33  1  0  0  0  0
  8 14  1  0  0  0  0
  8 16  1  0  0  0  0
  8 34  1  0  0  0  0
  9 11  1  0  0  0  0
  9 35  1  0  0  0  0
  9 36  1  0  0  0  0
 10 13  1  0  0  0  0
 10 37  1  0  0  0  0
 10 38  1  0  0  0  0
 11 39  1  0  0  0  0
 11 40  1  0  0  0  0
 12 14  1  0  0  0  0
 12 41  1  0  0  0  0
 12 42  1  0  0  0  0
 13 43  1  0  0  0  0
 13 44  1  0  0  0  0
 14 45  1  0  0  0  0
 14 46  1  0  0  0  0
 15 21  1  0  0  0  0
 15 47  1  0  0  0  0
 15 48  1  0  0  0  0
 16 24  1  0  0  0  0
 16 26  1  0  0  0  0
 16 27  1  0  0  0  0
 17 21  1  0  0  0  0
 17 28  1  0  0  0  0
 17 49  1  0  0  0  0
 18 25  1  0  0  0  0
 18 50  1  0  0  0  0
 18 51  1  0  0  0  0
 19 52  1  0  0  0  0
 19 53  1  0  0  0  0
 19 54  1  0  0  0  0
 20 55  1  0  0  0  0
 20 56  1  0  0  0  0
 20 57  1  0  0  0  0
 21 58  1  0  0  0  0
 21 59  1  0  0  0  0
 22 60  1  0  0  0  0
 22 61  1  0  0  0  0
 22 62  1  0  0  0  0
 23 63  1  0  0  0  0
 23 64  1  0  0  0  0
 23 65  1  0  0  0  0
 24 25  1  0  0  0  0
 24 66  1  0  0  0  0
 24 67  1  0  0  0  0
 25 68  1  0  0  0  0
 25 69  1  0  0  0  0
 26 70  1  0  0  0  0
 26 71  1  0  0  0  0
 26 72  1  0  0  0  0
 27 73  1  0  0  0  0
 27 74  1  0  0  0  0
 27 75  1  0  0  0  0
 28 29  1  0  0  0  0
 28 30  2  0  0  0  0
 29 76  1  0  0  0  0
 29 77  1  0  0  0  0
 29 78  1  0  0  0  0
 30 79  1  0  0  0  0
 30 80  1  0  0  0  0
M  END
> <PUBCHEM_COMPOUND_CID>
92155

> <PUBCHEM_CONFORMER_RMSD>
0.8

> <PUBCHEM_CONFORMER_DIVERSEORDER>
1

> <PUBCHEM_MMFF94_PARTIAL_CHARGES>
6
17 0.14
28 -0.28
29 0.14
30 -0.3
79 0.15
80 0.15

> <PUBCHEM_EFFECTIVE_ROTOR_COUNT>
3.6

> <PUBCHEM_PHARMACOPHORE_FEATURES>
6
3 16 26 27 hydrophobe
5 5 7 15 17 21 rings
6 1 2 3 4 9 11 rings
6 1 3 5 7 10 13 rings
6 2 4 6 8 12 14 rings
6 6 8 16 18 24 25 rings

> <PUBCHEM_HEAVY_ATOM_COUNT>
30

> <PUBCHEM_ATOM_DEF_STEREO_COUNT>
9

> <PUBCHEM_ATOM_UDEF_STEREO_COUNT>
0

> <PUBCHEM_BOND_DEF_STEREO_COUNT>
0

> <PUBCHEM_BOND_UDEF_STEREO_COUNT>
0

> <PUBCHEM_ISOTOPIC_ATOM_COUNT>
0

> <PUBCHEM_COMPONENT_COUNT>
1

> <PUBCHEM_CACTVS_TAUTO_COUNT>
1

> <PUBCHEM_CONFORMER_ID>
000167FB00000001

> <PUBCHEM_MMFF94_ENERGY>
162.8285

> <PUBCHEM_FEATURE_SELFOVERLAP>
30.54

> <PUBCHEM_SHAPE_FINGERPRINT>
10 15 18341901749441586096
10675989 125 16754671300680483101
10906281 52 18187911859809606295
11578080 2 16735255694859218402
11646440 116 18259697895892424577
11963148 33 18412267220227384087
12166972 35 17846492621486141157
12236239 1 17846499257120727862
12403259 415 18411141346158027197
12422481 6 18338808904625741804
12516196 113 18410013230090147304
12616971 3 17603873281825818053
12788726 201 16732972146446977145
13140716 1 18119248363751611177
13224815 77 18187362129844766652
13402501 40 18410295808709630313
13533116 47 18201442523496185106
13782708 43 17346600768161737307
13811026 1 18410586084122167009
14251764 18 17775004566461429022
14341114 176 18409166597493902220
15131766 46 14130500618729071242
15183329 4 18407762546814731455
15196674 1 18410015429044688164
15788980 27 18131069346162866621
17349148 13 18059850671086306292
17980427 23 17313096454293571297
1813 80 17060623308841943852
19377110 9 17313099774207864875
19489759 90 17203611501878834853
20511986 3 18188228553444343038
21033648 29 17917443041727546845
21130935 74 18334012774518046947
21150785 3 16128367156183879294
21267235 1 18410004451113638822
21279426 13 18339367477801851116
21792934 111 18409172142956356961
21859007 373 17843982548119712549
22149856 69 18336248082236798179
23402539 116 18336554892545261445
23522609 53 18124280919188975309
23559900 14 18336272266923867464
23569943 247 17272304710384370602
3004659 81 18273494576915180292
335352 9 18410015454772222932
3383291 50 18202003192484654875
34797466 226 17312818256508405700
350125 39 18409165497887192479
3545911 37 18408884044422371614
3633792 109 18261966257817668117
3680242 22 18410004429723166033
392239 28 18408877439374580923
404807 14 17179112419701695654
4073 2 18130507423387228458
4093350 32 16588015831959976366
4340502 62 18409730655749495358
465052 167 18410011057337706070
5104073 3 18409167744202594233
5283173 99 18270688678585482613
6086070 43 14404915656989695063
7495541 125 18334574603690043665
9996256 80 18411419475745552243

> <PUBCHEM_SHAPE_MULTIPOLES>
617.39
15.74
2.29
1.37
2.36
0.01
0.09
-1.84
-3.24
-0.35
-0.1
-0.22
0.05
0.5

> <PUBCHEM_SHAPE_SELFOVERLAP>
1300.861

> <PUBCHEM_SHAPE_VOLUME>
344.7

> <PUBCHEM_COORDINATE_TYPE>
2
5
10

$$$$

