656641
  -OEChem-07051213032D

102101  0     0  0  0  0  0  0999 V2000
   12.3923   -0.2500    0.0000 O   0  0  0  0  0  0  0  0  0  0  0  0
   14.9904    0.2500    0.0000 O   0  0  0  0  0  0  0  0  0  0  0  0
   17.5885   -0.2500    0.0000 O   0  0  0  0  0  0  0  0  0  0  0  0
   20.1865    0.2500    0.0000 O   0  0  0  0  0  0  0  0  0  0  0  0
   22.7846   -0.2500    0.0000 O   0  0  0  0  0  0  0  0  0  0  0  0
   25.3827    0.2500    0.0000 O   0  0  0  0  0  0  0  0  0  0  0  0
   27.9808   -0.2500    0.0000 O   0  0  0  0  0  0  0  0  0  0  0  0
   30.5788    0.2500    0.0000 O   0  0  0  0  0  0  0  0  0  0  0  0
   33.1769   -0.2500    0.0000 O   0  0  0  0  0  0  0  0  0  0  0  0
   35.7750    0.2500    0.0000 O   0  0  0  0  0  0  0  0  0  0  0  0
    7.1962   -0.2500    0.0000 C   0  0  0  0  0  0  0  0  0  0  0  0
    6.3301    0.2500    0.0000 C   0  0  0  0  0  0  0  0  0  0  0  0
    8.0622    0.2500    0.0000 C   0  0  0  0  0  0  0  0  0  0  0  0
    5.4641   -0.2500    0.0000 C   0  0  0  0  0  0  0  0  0  0  0  0
    8.9282   -0.2500    0.0000 C   0  0  0  0  0  0  0  0  0  0  0  0
    4.5981    0.2500    0.0000 C   0  0  0  0  0  0  0  0  0  0  0  0
    9.7942    0.2500    0.0000 C   0  0  0  0  0  0  0  0  0  0  0  0
    3.7320   -0.2500    0.0000 C   0  0  0  0  0  0  0  0  0  0  0  0
   10.6603   -0.2500    0.0000 C   0  0  0  0  0  0  0  0  0  0  0  0
    2.8660    0.2500    0.0000 C   0  0  0  0  0  0  0  0  0  0  0  0
   11.5263    0.2500    0.0000 C   0  0  0  0  0  0  0  0  0  0  0  0
    2.0000   -0.2500    0.0000 C   0  0  0  0  0  0  0  0  0  0  0  0
   13.2583    0.2500    0.0000 C   0  0  0  0  0  0  0  0  0  0  0  0
   14.1244   -0.2500    0.0000 C   0  0  0  0  0  0  0  0  0  0  0  0
   15.8564   -0.2500    0.0000 C   0  0  0  0  0  0  0  0  0  0  0  0
   16.7224    0.2500    0.0000 C   0  0  0  0  0  0  0  0  0  0  0  0
   18.4545    0.2500    0.0000 C   0  0  0  0  0  0  0  0  0  0  0  0
   19.3205   -0.2500    0.0000 C   0  0  0  0  0  0  0  0  0  0  0  0
   21.0526   -0.2500    0.0000 C   0  0  0  0  0  0  0  0  0  0  0  0
   21.9186    0.2500    0.0000 C   0  0  0  0  0  0  0  0  0  0  0  0
   23.6506    0.2500    0.0000 C   0  0  0  0  0  0  0  0  0  0  0  0
   24.5167   -0.2500    0.0000 C   0  0  0  0  0  0  0  0  0  0  0  0
   26.2487   -0.2500    0.0000 C   0  0  0  0  0  0  0  0  0  0  0  0
   27.1147    0.2500    0.0000 C   0  0  0  0  0  0  0  0  0  0  0  0
   28.8468    0.2500    0.0000 C   0  0  0  0  0  0  0  0  0  0  0  0
   29.7128   -0.2500    0.0000 C   0  0  0  0  0  0  0  0  0  0  0  0
   31.4449   -0.2500    0.0000 C   0  0  0  0  0  0  0  0  0  0  0  0
   32.3109    0.2500    0.0000 C   0  0  0  0  0  0  0  0  0  0  0  0
   34.0429    0.2500    0.0000 C   0  0  0  0  0  0  0  0  0  0  0  0
   34.9090   -0.2500    0.0000 C   0  0  0  0  0  0  0  0  0  0  0  0
    6.7976   -0.7249    0.0000 H   0  0  0  0  0  0  0  0  0  0  0  0
    7.5947   -0.7249    0.0000 H   0  0  0  0  0  0  0  0  0  0  0  0
    6.7287    0.7249    0.0000 H   0  0  0  0  0  0  0  0  0  0  0  0
    5.9316    0.7249    0.0000 H   0  0  0  0  0  0  0  0  0  0  0  0
    8.4607    0.7249    0.0000 H   0  0  0  0  0  0  0  0  0  0  0  0
    7.6636    0.7249    0.0000 H   0  0  0  0  0  0  0  0  0  0  0  0
    5.0656   -0.7249    0.0000 H   0  0  0  0  0  0  0  0  0  0  0  0
    5.8626   -0.7249    0.0000 H   0  0  0  0  0  0  0  0  0  0  0  0
    8.5297   -0.7249    0.0000 H   0  0  0  0  0  0  0  0  0  0  0  0
    9.3267   -0.7249    0.0000 H   0  0  0  0  0  0  0  0  0  0  0  0
    4.9966    0.7249    0.0000 H   0  0  0  0  0  0  0  0  0  0  0  0
    4.1996    0.7249    0.0000 H   0  0  0  0  0  0  0  0  0  0  0  0
   10.1928    0.7249    0.0000 H   0  0  0  0  0  0  0  0  0  0  0  0
    9.3957    0.7249    0.0000 H   0  0  0  0  0  0  0  0  0  0  0  0
    3.3335   -0.7249    0.0000 H   0  0  0  0  0  0  0  0  0  0  0  0
    4.1306   -0.7249    0.0000 H   0  0  0  0  0  0  0  0  0  0  0  0
   10.2617   -0.7249    0.0000 H   0  0  0  0  0  0  0  0  0  0  0  0
   11.0588   -0.7249    0.0000 H   0  0  0  0  0  0  0  0  0  0  0  0
    3.2646    0.7249    0.0000 H   0  0  0  0  0  0  0  0  0  0  0  0
    2.4675    0.7249    0.0000 H   0  0  0  0  0  0  0  0  0  0  0  0
   11.9248    0.7249    0.0000 H   0  0  0  0  0  0  0  0  0  0  0  0
   11.1278    0.7249    0.0000 H   0  0  0  0  0  0  0  0  0  0  0  0
    1.6900    0.2869    0.0000 H   0  0  0  0  0  0  0  0  0  0  0  0
    1.4631   -0.5600    0.0000 H   0  0  0  0  0  0  0  0  0  0  0  0
    2.3100   -0.7869    0.0000 H   0  0  0  0  0  0  0  0  0  0  0  0
   13.6569    0.7249    0.0000 H   0  0  0  0  0  0  0  0  0  0  0  0
   12.8598    0.7249    0.0000 H   0  0  0  0  0  0  0  0  0  0  0  0
   13.7258   -0.7249    0.0000 H   0  0  0  0  0  0  0  0  0  0  0  0
   14.5229   -0.7249    0.0000 H   0  0  0  0  0  0  0  0  0  0  0  0
   15.4579   -0.7249    0.0000 H   0  0  0  0  0  0  0  0  0  0  0  0
   16.2549   -0.7249    0.0000 H   0  0  0  0  0  0  0  0  0  0  0  0
   17.1210    0.7249    0.0000 H   0  0  0  0  0  0  0  0  0  0  0  0
   16.3239    0.7249    0.0000 H   0  0  0  0  0  0  0  0  0  0  0  0
   18.8530    0.7249    0.0000 H   0  0  0  0  0  0  0  0  0  0  0  0
   18.0560    0.7249    0.0000 H   0  0  0  0  0  0  0  0  0  0  0  0
   18.9220   -0.7249    0.0000 H   0  0  0  0  0  0  0  0  0  0  0  0
   19.7190   -0.7249    0.0000 H   0  0  0  0  0  0  0  0  0  0  0  0
   20.6540   -0.7249    0.0000 H   0  0  0  0  0  0  0  0  0  0  0  0
   21.4511   -0.7249    0.0000 H   0  0  0  0  0  0  0  0  0  0  0  0
   22.3171    0.7249    0.0000 H   0  0  0  0  0  0  0  0  0  0  0  0
   21.5201    0.7249    0.0000 H   0  0  0  0  0  0  0  0  0  0  0  0
   24.0492    0.7249    0.0000 H   0  0  0  0  0  0  0  0  0  0  0  0
   23.2521    0.7249    0.0000 H   0  0  0  0  0  0  0  0  0  0  0  0
   24.1181   -0.7249    0.0000 H   0  0  0  0  0  0  0  0  0  0  0  0
   24.9152   -0.7249    0.0000 H   0  0  0  0  0  0  0  0  0  0  0  0
   25.8502   -0.7249    0.0000 H   0  0  0  0  0  0  0  0  0  0  0  0
   26.6472   -0.7249    0.0000 H   0  0  0  0  0  0  0  0  0  0  0  0
   27.5133    0.7249    0.0000 H   0  0  0  0  0  0  0  0  0  0  0  0
   26.7162    0.7249    0.0000 H   0  0  0  0  0  0  0  0  0  0  0  0
   29.2453    0.7249    0.0000 H   0  0  0  0  0  0  0  0  0  0  0  0
   28.4483    0.7249    0.0000 H   0  0  0  0  0  0  0  0  0  0  0  0
   29.3143   -0.7249    0.0000 H   0  0  0  0  0  0  0  0  0  0  0  0
   30.1113   -0.7249    0.0000 H   0  0  0  0  0  0  0  0  0  0  0  0
   31.0463   -0.7249    0.0000 H   0  0  0  0  0  0  0  0  0  0  0  0
   31.8434   -0.7249    0.0000 H   0  0  0  0  0  0  0  0  0  0  0  0
   32.7094    0.7249    0.0000 H   0  0  0  0  0  0  0  0  0  0  0  0
   31.9124    0.7249    0.0000 H   0  0  0  0  0  0  0  0  0  0  0  0
   34.4415    0.7249    0.0000 H   0  0  0  0  0  0  0  0  0  0  0  0
   33.6444    0.7249    0.0000 H   0  0  0  0  0  0  0  0  0  0  0  0
   34.5104   -0.7249    0.0000 H   0  0  0  0  0  0  0  0  0  0  0  0
   35.3075   -0.7249    0.0000 H   0  0  0  0  0  0  0  0  0  0  0  0
   36.3119   -0.0600    0.0000 H   0  0  0  0  0  0  0  0  0  0  0  0
  1 21  1  0  0  0  0
  1 23  1  0  0  0  0
  2 24  1  0  0  0  0
  2 25  1  0  0  0  0
  3 26  1  0  0  0  0
  3 27  1  0  0  0  0
  4 28  1  0  0  0  0
  4 29  1  0  0  0  0
  5 30  1  0  0  0  0
  5 31  1  0  0  0  0
  6 32  1  0  0  0  0
  6 33  1  0  0  0  0
  7 34  1  0  0  0  0
  7 35  1  0  0  0  0
  8 36  1  0  0  0  0
  8 37  1  0  0  0  0
  9 38  1  0  0  0  0
  9 39  1  0  0  0  0
 10 40  1  0  0  0  0
 10102  1  0  0  0  0
 11 12  1  0  0  0  0
 11 13  1  0  0  0  0
 11 41  1  0  0  0  0
 11 42  1  0  0  0  0
 12 14  1  0  0  0  0
 12 43  1  0  0  0  0
 12 44  1  0  0  0  0
 13 15  1  0  0  0  0
 13 45  1  0  0  0  0
 13 46  1  0  0  0  0
 14 16  1  0  0  0  0
 14 47  1  0  0  0  0
 14 48  1  0  0  0  0
 15 17  1  0  0  0  0
 15 49  1  0  0  0  0
 15 50  1  0  0  0  0
 16 18  1  0  0  0  0
 16 51  1  0  0  0  0
 16 52  1  0  0  0  0
 17 19  1  0  0  0  0
 17 53  1  0  0  0  0
 17 54  1  0  0  0  0
 18 20  1  0  0  0  0
 18 55  1  0  0  0  0
 18 56  1  0  0  0  0
 19 21  1  0  0  0  0
 19 57  1  0  0  0  0
 19 58  1  0  0  0  0
 20 22  1  0  0  0  0
 20 59  1  0  0  0  0
 20 60  1  0  0  0  0
 21 61  1  0  0  0  0
 21 62  1  0  0  0  0
 22 63  1  0  0  0  0
 22 64  1  0  0  0  0
 22 65  1  0  0  0  0
 23 24  1  0  0  0  0
 23 66  1  0  0  0  0
 23 67  1  0  0  0  0
 24 68  1  0  0  0  0
 24 69  1  0  0  0  0
 25 26  1  0  0  0  0
 25 70  1  0  0  0  0
 25 71  1  0  0  0  0
 26 72  1  0  0  0  0
 26 73  1  0  0  0  0
 27 28  1  0  0  0  0
 27 74  1  0  0  0  0
 27 75  1  0  0  0  0
 28 76  1  0  0  0  0
 28 77  1  0  0  0  0
 29 30  1  0  0  0  0
 29 78  1  0  0  0  0
 29 79  1  0  0  0  0
 30 80  1  0  0  0  0
 30 81  1  0  0  0  0
 31 32  1  0  0  0  0
 31 82  1  0  0  0  0
 31 83  1  0  0  0  0
 32 84  1  0  0  0  0
 32 85  1  0  0  0  0
 33 34  1  0  0  0  0
 33 86  1  0  0  0  0
 33 87  1  0  0  0  0
 34 88  1  0  0  0  0
 34 89  1  0  0  0  0
 35 36  1  0  0  0  0
 35 90  1  0  0  0  0
 35 91  1  0  0  0  0
 36 92  1  0  0  0  0
 36 93  1  0  0  0  0
 37 38  1  0  0  0  0
 37 94  1  0  0  0  0
 37 95  1  0  0  0  0
 38 96  1  0  0  0  0
 38 97  1  0  0  0  0
 39 40  1  0  0  0  0
 39 98  1  0  0  0  0
 39 99  1  0  0  0  0
 40100  1  0  0  0  0
 40101  1  0  0  0  0
M  END
> <PUBCHEM_COMPOUND_CID>
656641

> <PUBCHEM_COMPOUND_CANONICALIZED>
1

> <PUBCHEM_CACTVS_COMPLEXITY>
431

> <PUBCHEM_CACTVS_HBOND_ACCEPTOR>
10

> <PUBCHEM_CACTVS_HBOND_DONOR>
1

> <PUBCHEM_CACTVS_ROTATABLE_BOND>
37

> <PUBCHEM_CACTVS_SUBSKEYS>
AAADcfB4PAAAAAAAAAAAAAAAAAAAAAAAAAAAAAAAAAAAAAAAAAAAGgAACAAACACggAICAAAABgAAAAAAAAAAAAAAAAAAAAAAAAABEAIAAAACAAAEAAADAAGAwKAAAAAAAAAAAAAAAAAAAAAAAAAAAAAAAA==

> <PUBCHEM_IUPAC_OPENEYE_NAME>
2-[2-[2-[2-[2-[2-[2-[2-(2-dodecoxyethoxy)ethoxy]ethoxy]ethoxy]ethoxy]ethoxy]ethoxy]ethoxy]ethanol

> <PUBCHEM_IUPAC_CAS_NAME>
2-[2-[2-[2-[2-[2-[2-[2-(2-dodecoxyethoxy)ethoxy]ethoxy]ethoxy]ethoxy]ethoxy]ethoxy]ethoxy]ethanol

> <PUBCHEM_IUPAC_NAME>
2-[2-[2-[2-[2-[2-[2-[2-(2-dodecoxyethoxy)ethoxy]ethoxy]ethoxy]ethoxy]ethoxy]ethoxy]ethoxy]ethanol

> <PUBCHEM_IUPAC_SYSTEMATIC_NAME>
2-[2-[2-[2-[2-[2-[2-[2-(2-dodecoxyethoxy)ethoxy]ethoxy]ethoxy]ethoxy]ethoxy]ethoxy]ethoxy]ethanol

> <PUBCHEM_IUPAC_TRADITIONAL_NAME>
2-[2-[2-[2-[2-[2-[2-[2-(2-lauryloxyethoxy)ethoxy]ethoxy]ethoxy]ethoxy]ethoxy]ethoxy]ethoxy]ethanol

> <PUBCHEM_IUPAC_INCHI>
InChI=1S/C30H62O10/c1-2-3-4-5-6-7-8-9-10-11-13-32-15-17-34-19-21-36-23-25-38-27-29-40-30-28-39-26-24-37-22-20-35-18-16-33-14-12-31/h31H,2-30H2,1H3

> <PUBCHEM_IUPAC_INCHIKEY>
ONJQDTZCDSESIW-UHFFFAOYSA-N

> <PUBCHEM_XLOGP3>
3.9

> <PUBCHEM_EXACT_MASS>
582.434298

> <PUBCHEM_MOLECULAR_FORMULA>
C30H62O10

> <PUBCHEM_MOLECULAR_WEIGHT>
582.80728

> <PUBCHEM_OPENEYE_CAN_SMILES>
CCCCCCCCCCCCOCCOCCOCCOCCOCCOCCOCCOCCOCCO

> <PUBCHEM_OPENEYE_ISO_SMILES>
CCCCCCCCCCCCOCCOCCOCCOCCOCCOCCOCCOCCOCCO

> <PUBCHEM_CACTVS_TPSA>
103

> <PUBCHEM_MONOISOTOPIC_WEIGHT>
582.434298

> <PUBCHEM_TOTAL_CHARGE>
0

> <PUBCHEM_HEAVY_ATOM_COUNT>
40

> <PUBCHEM_ATOM_DEF_STEREO_COUNT>
0

> <PUBCHEM_ATOM_UDEF_STEREO_COUNT>
0

> <PUBCHEM_BOND_DEF_STEREO_COUNT>
0

> <PUBCHEM_BOND_UDEF_STEREO_COUNT>
0

> <PUBCHEM_ISOTOPIC_ATOM_COUNT>
0

> <PUBCHEM_COMPONENT_COUNT>
1

> <PUBCHEM_CACTVS_TAUTO_COUNT>
1

> <PUBCHEM_COORDINATE_TYPE>
1
5
255

$$$$

