17395974
  -OEChem-06241222533D

 55 58  0     1  0  0  0  0  0999 V2000
   -2.7939    0.1226    1.5056 S   0  0  0  0  0  0  0  0  0  0  0  0
    3.2808   -0.5401   -1.5251 S   0  0  0  0  0  0  0  0  0  0  0  0
    1.2105    1.2364    1.2173 O   0  0  0  0  0  0  0  0  0  0  0  0
    4.6233   -0.6119   -0.9806 O   0  0  0  0  0  0  0  0  0  0  0  0
    3.0032   -1.0547   -2.8524 O   0  0  0  0  0  0  0  0  0  0  0  0
   -0.1547    2.9502    0.4695 N   0  0  0  0  0  0  0  0  0  0  0  0
   -1.7855    0.8864   -0.7421 N   0  0  0  0  0  0  0  0  0  0  0  0
    2.7168    1.0597   -1.4273 N   0  0  0  0  0  0  0  0  0  0  0  0
   -1.3775    2.4941    1.1369 C   0  0  1  0  0  0  0  0  0  0  0  0
   -2.3418    3.6789    1.0151 C   0  0  0  0  0  0  0  0  0  0  0  0
   -1.8804    4.4039   -0.2449 C   0  0  0  0  0  0  0  0  0  0  0  0
   -0.3709    4.2187   -0.2229 C   0  0  0  0  0  0  0  0  0  0  0  0
   -1.9273    1.2193    0.5197 C   0  0  0  0  0  0  0  0  0  0  0  0
    1.0644    2.3076    0.6262 C   0  0  0  0  0  0  0  0  0  0  0  0
    2.2497    3.0018    0.0044 C   0  0  0  0  0  0  0  0  0  0  0  0
    3.2867    1.9829   -0.4195 C   0  0  0  0  0  0  0  0  0  0  0  0
   -3.0166   -0.9107    0.1434 C   0  0  0  0  0  0  0  0  0  0  0  0
   -2.4051   -0.3330   -0.9734 C   0  0  0  0  0  0  0  0  0  0  0  0
   -3.6843   -2.1436    0.0685 C   0  0  0  0  0  0  0  0  0  0  0  0
   -2.4655   -1.0157   -2.2077 C   0  0  0  0  0  0  0  0  0  0  0  0
    2.1946   -1.3778   -0.4101 C   0  0  0  0  0  0  0  0  0  0  0  0
   -3.7295   -2.7983   -1.1650 C   0  0  0  0  0  0  0  0  0  0  0  0
   -3.1287   -2.2435   -2.2896 C   0  0  0  0  0  0  0  0  0  0  0  0
    2.5325   -1.4939    0.9383 C   0  0  0  0  0  0  0  0  0  0  0  0
    0.9995   -1.9229   -0.8790 C   0  0  0  0  0  0  0  0  0  0  0  0
    1.6750   -2.1548    1.8176 C   0  0  0  0  0  0  0  0  0  0  0  0
    0.4798   -2.6999    1.3487 C   0  0  0  0  0  0  0  0  0  0  0  0
    0.1419   -2.5840    0.0003 C   0  0  0  0  0  0  0  0  0  0  0  0
    2.0573   -2.2658    3.2572 C   0  0  0  0  0  0  0  0  0  0  0  0
   -0.4545   -3.4118    2.2709 C   0  0  0  0  0  0  0  0  0  0  0  0
   -1.1324    2.3067    2.1902 H   0  0  0  0  0  0  0  0  0  0  0  0
   -3.3979    3.3957    0.9725 H   0  0  0  0  0  0  0  0  0  0  0  0
   -2.2071    4.3472    1.8751 H   0  0  0  0  0  0  0  0  0  0  0  0
   -2.1755    5.4565   -0.2654 H   0  0  0  0  0  0  0  0  0  0  0  0
   -2.3053    3.9131   -1.1288 H   0  0  0  0  0  0  0  0  0  0  0  0
    0.0359    4.1932   -1.2368 H   0  0  0  0  0  0  0  0  0  0  0  0
    0.1258    5.0080    0.3513 H   0  0  0  0  0  0  0  0  0  0  0  0
    2.6705    3.6876    0.7475 H   0  0  0  0  0  0  0  0  0  0  0  0
    1.9721    3.5861   -0.8743 H   0  0  0  0  0  0  0  0  0  0  0  0
    4.1435    2.4955   -0.8701 H   0  0  0  0  0  0  0  0  0  0  0  0
    3.6497    1.4260    0.4505 H   0  0  0  0  0  0  0  0  0  0  0  0
    2.3106    1.4957   -2.2642 H   0  0  0  0  0  0  0  0  0  0  0  0
   -4.1541   -2.5836    0.9427 H   0  0  0  0  0  0  0  0  0  0  0  0
   -1.9981   -0.5920   -3.0920 H   0  0  0  0  0  0  0  0  0  0  0  0
   -4.2401   -3.7544   -1.2443 H   0  0  0  0  0  0  0  0  0  0  0  0
   -3.1727   -2.7678   -3.2402 H   0  0  0  0  0  0  0  0  0  0  0  0
    3.4605   -1.0665    1.3088 H   0  0  0  0  0  0  0  0  0  0  0  0
    0.7177   -1.8454   -1.9251 H   0  0  0  0  0  0  0  0  0  0  0  0
   -0.7687   -3.0299   -0.3843 H   0  0  0  0  0  0  0  0  0  0  0  0
    3.0123   -1.7701    3.4635 H   0  0  0  0  0  0  0  0  0  0  0  0
    2.1687   -3.3158    3.5463 H   0  0  0  0  0  0  0  0  0  0  0  0
    1.3042   -1.7902    3.8938 H   0  0  0  0  0  0  0  0  0  0  0  0
   -1.3274   -3.8065    1.7394 H   0  0  0  0  0  0  0  0  0  0  0  0
   -0.8259   -2.7303    3.0431 H   0  0  0  0  0  0  0  0  0  0  0  0
    0.0439   -4.2634    2.7452 H   0  0  0  0  0  0  0  0  0  0  0  0
  1 13  1  0  0  0  0
  1 17  1  0  0  0  0
  2  4  2  0  0  0  0
  2  5  2  0  0  0  0
  2  8  1  0  0  0  0
  2 21  1  0  0  0  0
  3 14  2  0  0  0  0
  6  9  1  0  0  0  0
  6 12  1  0  0  0  0
  6 14  1  0  0  0  0
  7 13  2  0  0  0  0
  7 18  1  0  0  0  0
  8 16  1  0  0  0  0
  8 42  1  0  0  0  0
  9 10  1  0  0  0  0
  9 13  1  0  0  0  0
  9 31  1  0  0  0  0
 10 11  1  0  0  0  0
 10 32  1  0  0  0  0
 10 33  1  0  0  0  0
 11 12  1  0  0  0  0
 11 34  1  0  0  0  0
 11 35  1  0  0  0  0
 12 36  1  0  0  0  0
 12 37  1  0  0  0  0
 14 15  1  0  0  0  0
 15 16  1  0  0  0  0
 15 38  1  0  0  0  0
 15 39  1  0  0  0  0
 16 40  1  0  0  0  0
 16 41  1  0  0  0  0
 17 18  1  0  0  0  0
 17 19  2  0  0  0  0
 18 20  2  0  0  0  0
 19 22  1  0  0  0  0
 19 43  1  0  0  0  0
 20 23  1  0  0  0  0
 20 44  1  0  0  0  0
 21 24  2  0  0  0  0
 21 25  1  0  0  0  0
 22 23  2  0  0  0  0
 22 45  1  0  0  0  0
 23 46  1  0  0  0  0
 24 26  1  0  0  0  0
 24 47  1  0  0  0  0
 25 28  2  0  0  0  0
 25 48  1  0  0  0  0
 26 27  2  0  0  0  0
 26 29  1  0  0  0  0
 27 28  1  0  0  0  0
 27 30  1  0  0  0  0
 28 49  1  0  0  0  0
 29 50  1  0  0  0  0
 29 51  1  0  0  0  0
 29 52  1  0  0  0  0
 30 53  1  0  0  0  0
 30 54  1  0  0  0  0
 30 55  1  0  0  0  0
M  END
> <PUBCHEM_COMPOUND_CID>
17395974

> <PUBCHEM_CONFORMER_RMSD>
1.6

> <PUBCHEM_CONFORMER_DIVERSEORDER>
6
68
76
80
87
64
5
78
22
67
57
1
65
15
63
88
20
40
8
7
42
60
10
24
54
19
52
48
25
84
13
17
34
61
29
45
50
56
55
86
36
82
35
3
44
49
74
71
72
12
62
43
21
75
4
83
79
53
77
32
16
33
37
9
66
69
51
28
70
73
85
38
46
41
11
81
2
59
31
14
27
30
39
47
18
58
23
26

> <PUBCHEM_MMFF94_PARTIAL_CHARGES>
36
1 -0.08
12 0.3
13 0.2
14 0.57
15 0.06
16 0.36
17 0.04
18 0.23
19 -0.15
2 1.45
20 -0.15
21 -0.01
22 -0.15
23 -0.15
24 -0.15
25 -0.15
26 -0.14
27 -0.14
28 -0.15
29 0.14
3 -0.57
30 0.14
4 -0.65
42 0.42
43 0.15
44 0.15
45 0.15
46 0.15
47 0.15
48 0.15
49 0.15
5 -0.65
6 -0.66
7 -0.57
8 -0.91
9 0.48

> <PUBCHEM_EFFECTIVE_ROTOR_COUNT>
8

> <PUBCHEM_PHARMACOPHORE_FEATURES>
9
1 3 acceptor
1 4 acceptor
1 5 acceptor
1 7 acceptor
1 8 donor
5 1 7 13 17 18 rings
5 6 9 10 11 12 rings
6 17 18 19 20 22 23 rings
6 21 24 25 26 27 28 rings

> <PUBCHEM_HEAVY_ATOM_COUNT>
30

> <PUBCHEM_ATOM_DEF_STEREO_COUNT>
0

> <PUBCHEM_ATOM_UDEF_STEREO_COUNT>
1

> <PUBCHEM_BOND_DEF_STEREO_COUNT>
0

> <PUBCHEM_BOND_UDEF_STEREO_COUNT>
0

> <PUBCHEM_ISOTOPIC_ATOM_COUNT>
0

> <PUBCHEM_COMPONENT_COUNT>
1

> <PUBCHEM_CACTVS_TAUTO_COUNT>
1

> <PUBCHEM_CONFORMER_ID>
0109710600000006

> <PUBCHEM_MMFF94_ENERGY>
51.8909

> <PUBCHEM_FEATURE_SELFOVERLAP>
45.758

> <PUBCHEM_SHAPE_FINGERPRINT>
10119406 146 18055324043021182206
10675989 125 17831592972869556437
10721379 63 17471343545531633711
11007060 377 17489580161638691310
11578080 2 17555778410471981407
12160290 23 17898023566674251249
12553582 1 18408328804404809859
12788726 201 18265064711612185847
13149001 5 17477204925311378209
133893 2 16988005036640523426
13402501 40 17548979953408444451
13965767 371 16538231345402913515
14114206 34 18270385140282203540
14114207 22 16898844345885191608
14747281 78 17771097954603781133
19026451 147 18118428170942703895
19311894 1 18048305932434290846
19319366 153 17841688988338578938
19930381 70 17899969443919671775
20600515 1 17464020862135534903
20642791 35 18408598184737940273
20691752 17 18271808969132622001
20764821 26 17834936595749228460
20905425 154 18262536817793494936
23419403 2 17478028477064682299
238 59 17760378686241542751
27425 322 9696016755941850270
35225 105 18049993691219620837
5265222 85 16750442583054537394
6287921 2 17459466663081413214

> <PUBCHEM_SHAPE_MULTIPOLES>
592.53
6.25
5.81
2.46
0.59
5.63
0.17
-2.45
-2.99
-1.7
1.91
0.68
-2.36
-1.8

> <PUBCHEM_SHAPE_SELFOVERLAP>
1249.336

> <PUBCHEM_SHAPE_VOLUME>
335.2

> <PUBCHEM_COORDINATE_TYPE>
2
5
10

$$$$

