6436023
  -OEChem-07051213093D

 59 60  0     1  0  0  0  0  0999 V2000
    6.5607   -1.4006   -0.2310 O   0  0  0  0  0  0  0  0  0  0  0  0
    5.5180    0.1821    2.1018 O   0  0  0  0  0  0  0  0  0  0  0  0
    7.2234    1.6493   -0.7462 O   0  0  0  0  0  0  0  0  0  0  0  0
   -5.4800   -1.2383   -0.3221 O   0  0  0  0  0  0  0  0  0  0  0  0
   -8.8232    1.0202    0.6129 O   0  0  0  0  0  0  0  0  0  0  0  0
   -6.6827   -3.1426   -0.0316 O   0  0  0  0  0  0  0  0  0  0  0  0
    6.6698    0.4244    1.2908 C   0  0  2  0  0  0  0  0  0  0  0  0
    6.1871    0.9539   -0.0594 C   0  0  2  0  0  0  0  0  0  0  0  0
    5.7765   -0.3323   -0.8070 C   0  0  1  0  0  0  0  0  0  0  0  0
    7.3296   -0.8952    0.8788 C   0  0  1  0  0  0  0  0  0  0  0  0
    7.6052    1.3565    2.0525 C   0  0  0  0  0  0  0  0  0  0  0  0
    6.0464   -0.3083   -2.3113 C   0  0  0  0  0  0  0  0  0  0  0  0
    7.3995   -1.9704    1.9507 C   0  0  0  0  0  0  0  0  0  0  0  0
    4.3287   -0.6709   -0.5821 C   0  0  0  0  0  0  0  0  0  0  0  0
    3.2448    0.0709   -0.8839 C   0  0  0  0  0  0  0  0  0  0  0  0
    3.2752    1.4339   -1.5192 C   0  0  0  0  0  0  0  0  0  0  0  0
    1.8959   -0.3865   -0.5648 C   0  0  0  0  0  0  0  0  0  0  0  0
    0.7682    0.2918   -0.8318 C   0  0  0  0  0  0  0  0  0  0  0  0
   -0.5468   -0.1981   -0.4788 C   0  0  0  0  0  0  0  0  0  0  0  0
   -1.6745    0.4782   -0.7448 C   0  0  0  0  0  0  0  0  0  0  0  0
   -2.9892   -0.0128   -0.3931 C   0  0  0  0  0  0  0  0  0  0  0  0
   -4.1163    0.6626   -0.6586 C   0  0  0  0  0  0  0  0  0  0  0  0
   -5.4242    0.1799   -0.3146 C   0  0  0  0  0  0  0  0  0  0  0  0
   -6.5030    0.9290   -0.0132 C   0  0  0  0  0  0  0  0  0  0  0  0
   -7.7353    0.2284    0.3064 C   0  0  0  0  0  0  0  0  0  0  0  0
   -6.5440    2.4339    0.0218 C   0  0  0  0  0  0  0  0  0  0  0  0
   -7.8085   -1.1072    0.3037 C   0  0  0  0  0  0  0  0  0  0  0  0
   -6.6262   -1.9178   -0.0269 C   0  0  0  0  0  0  0  0  0  0  0  0
   -8.8750    1.2860    2.0010 C   0  0  0  0  0  0  0  0  0  0  0  0
    5.3727    1.6680    0.0836 H   0  0  0  0  0  0  0  0  0  0  0  0
    8.3412   -0.7137    0.4949 H   0  0  0  0  0  0  0  0  0  0  0  0
    7.8568    0.9356    3.0322 H   0  0  0  0  0  0  0  0  0  0  0  0
    8.5381    1.5438    1.5121 H   0  0  0  0  0  0  0  0  0  0  0  0
    7.1158    2.3181    2.2437 H   0  0  0  0  0  0  0  0  0  0  0  0
    7.1249   -0.3070   -2.5104 H   0  0  0  0  0  0  0  0  0  0  0  0
    5.6666   -1.2189   -2.7920 H   0  0  0  0  0  0  0  0  0  0  0  0
    5.6124    0.5510   -2.8269 H   0  0  0  0  0  0  0  0  0  0  0  0
    6.4036   -2.3107    2.2523 H   0  0  0  0  0  0  0  0  0  0  0  0
    7.9157   -2.8545    1.5601 H   0  0  0  0  0  0  0  0  0  0  0  0
    7.9390   -1.6188    2.8347 H   0  0  0  0  0  0  0  0  0  0  0  0
    4.1532   -1.6449   -0.1225 H   0  0  0  0  0  0  0  0  0  0  0  0
    5.0634   -0.6164    1.7911 H   0  0  0  0  0  0  0  0  0  0  0  0
    7.9826    1.0516   -0.8489 H   0  0  0  0  0  0  0  0  0  0  0  0
    2.8409    2.1896   -0.8542 H   0  0  0  0  0  0  0  0  0  0  0  0
    2.7332    1.4346   -2.4722 H   0  0  0  0  0  0  0  0  0  0  0  0
    4.2766    1.7919   -1.7587 H   0  0  0  0  0  0  0  0  0  0  0  0
    1.8248   -1.3531   -0.0682 H   0  0  0  0  0  0  0  0  0  0  0  0
    0.7802    1.2582   -1.3261 H   0  0  0  0  0  0  0  0  0  0  0  0
   -0.5969   -1.1617    0.0235 H   0  0  0  0  0  0  0  0  0  0  0  0
   -1.6253    1.4417   -1.2474 H   0  0  0  0  0  0  0  0  0  0  0  0
   -3.0254   -0.9784    0.1063 H   0  0  0  0  0  0  0  0  0  0  0  0
   -4.0497    1.6378   -1.1326 H   0  0  0  0  0  0  0  0  0  0  0  0
   -6.6531    2.8052    1.0446 H   0  0  0  0  0  0  0  0  0  0  0  0
   -7.3734    2.8167   -0.5836 H   0  0  0  0  0  0  0  0  0  0  0  0
   -5.6372    2.8943   -0.3793 H   0  0  0  0  0  0  0  0  0  0  0  0
   -8.7298   -1.6267    0.5420 H   0  0  0  0  0  0  0  0  0  0  0  0
   -9.6057    2.0831    2.1676 H   0  0  0  0  0  0  0  0  0  0  0  0
   -7.9176    1.6131    2.4191 H   0  0  0  0  0  0  0  0  0  0  0  0
   -9.2201    0.3983    2.5428 H   0  0  0  0  0  0  0  0  0  0  0  0
  1  9  1  0  0  0  0
  1 10  1  0  0  0  0
  2  7  1  0  0  0  0
  2 42  1  0  0  0  0
  3  8  1  0  0  0  0
  3 43  1  0  0  0  0
  4 23  1  0  0  0  0
  4 28  1  0  0  0  0
  5 25  1  0  0  0  0
  5 29  1  0  0  0  0
  6 28  2  0  0  0  0
  7  8  1  0  0  0  0
  7 10  1  0  0  0  0
  7 11  1  0  0  0  0
  8  9  1  0  0  0  0
  8 30  1  0  0  0  0
  9 12  1  0  0  0  0
  9 14  1  0  0  0  0
 10 13  1  0  0  0  0
 10 31  1  0  0  0  0
 11 32  1  0  0  0  0
 11 33  1  0  0  0  0
 11 34  1  0  0  0  0
 12 35  1  0  0  0  0
 12 36  1  0  0  0  0
 12 37  1  0  0  0  0
 13 38  1  0  0  0  0
 13 39  1  0  0  0  0
 13 40  1  0  0  0  0
 14 15  2  0  0  0  0
 14 41  1  0  0  0  0
 15 16  1  0  0  0  0
 15 17  1  0  0  0  0
 16 44  1  0  0  0  0
 16 45  1  0  0  0  0
 16 46  1  0  0  0  0
 17 18  2  0  0  0  0
 17 47  1  0  0  0  0
 18 19  1  0  0  0  0
 18 48  1  0  0  0  0
 19 20  2  0  0  0  0
 19 49  1  0  0  0  0
 20 21  1  0  0  0  0
 20 50  1  0  0  0  0
 21 22  2  0  0  0  0
 21 51  1  0  0  0  0
 22 23  1  0  0  0  0
 22 52  1  0  0  0  0
 23 24  2  0  0  0  0
 24 25  1  0  0  0  0
 24 26  1  0  0  0  0
 25 27  2  0  0  0  0
 26 53  1  0  0  0  0
 26 54  1  0  0  0  0
 26 55  1  0  0  0  0
 27 28  1  0  0  0  0
 27 56  1  0  0  0  0
 29 57  1  0  0  0  0
 29 58  1  0  0  0  0
 29 59  1  0  0  0  0
M  END
> <PUBCHEM_COMPOUND_CID>
6436023

> <PUBCHEM_CONFORMER_RMSD>
0.8

> <PUBCHEM_CONFORMER_DIVERSEORDER>
14
64
8
12
82
3
68
15
55
20
92
37
53
93
33
56
21
22
31
27
75
36
80
28
88
13
38
83
9
51
35
48
85
23
73
1
67
41
89
63
61
16
18
94
4
86
30
66
91
5
76
34
59
10
2
95
42
49
79
17
97
99
29
57
25
69
24
87
44
52
62
90
45
70
47
32
74
58
98
54
46
11
72
26
50
19
43
65
81
78
71
7
77
96
40
60
39
84
6

> <PUBCHEM_MMFF94_PARTIAL_CHARGES>
36
1 -0.56
10 0.28
14 -0.29
15 -0.14
16 0.14
17 -0.15
18 -0.15
19 -0.15
2 -0.68
20 -0.15
21 -0.15
22 -0.15
23 0.08
24 -0.14
25 0.08
26 0.14
27 -0.14
28 0.71
29 0.28
3 -0.68
4 -0.23
41 0.15
42 0.4
43 0.4
47 0.15
48 0.15
49 0.15
5 -0.36
50 0.15
51 0.15
52 0.15
56 0.15
6 -0.57
7 0.28
8 0.28
9 0.42

> <PUBCHEM_EFFECTIVE_ROTOR_COUNT>
7

> <PUBCHEM_PHARMACOPHORE_FEATURES>
10
1 1 acceptor
1 16 hydrophobe
1 2 acceptor
1 2 donor
1 3 acceptor
1 3 donor
1 5 acceptor
1 6 acceptor
5 1 7 8 9 10 rings
6 4 23 24 25 27 28 rings

> <PUBCHEM_HEAVY_ATOM_COUNT>
29

> <PUBCHEM_ATOM_DEF_STEREO_COUNT>
4

> <PUBCHEM_ATOM_UDEF_STEREO_COUNT>
0

> <PUBCHEM_BOND_DEF_STEREO_COUNT>
4

> <PUBCHEM_BOND_UDEF_STEREO_COUNT>
0

> <PUBCHEM_ISOTOPIC_ATOM_COUNT>
0

> <PUBCHEM_COMPONENT_COUNT>
1

> <PUBCHEM_CACTVS_TAUTO_COUNT>
1

> <PUBCHEM_CONFORMER_ID>
006234B70000000E

> <PUBCHEM_MMFF94_ENERGY>
96.2076

> <PUBCHEM_FEATURE_SELFOVERLAP>
50.745

> <PUBCHEM_SHAPE_FINGERPRINT>
10 15 17894915113509761062
10066227 49 13758085116130038392
10299344 5 17917989486337491991
11135609 127 8934703510949745554
11135926 11 18131357423507118423
11181472 205 5616993113771002631
11315181 36 16732979835319157315
11578821 258 16081090372677779313
11638347 137 18272372009945339290
11719270 70 18410572894699912958
12089408 11 17988921168158558509
125118 31 16877940555356251536
13553643 46 17603586361348178209
14251757 52 6627745609265437874
14251764 18 17917991663664267637
14617042 71 17241053094268081192
15183329 4 15985106318633703938
15419008 91 18260277372896519877
15510794 2 17894625967706019270
1577012 14 18201149971186635301
17093844 174 17894347775302581967
1754908 1 18410011022672013043
1754911 235 6627747794739017312
1818759 1 16845568746690424491
20157964 124 16008749122230729420
20165401 70 17845946229402435626
2026 5 16343154648595123106
21130935 74 18410575115108353230
21360443 126 7204483425145343164
22149856 69 18341047506057842780
22224240 67 17603305955664725871
23081809 10 17632289073192407541
23522609 53 17702074015493652565
397638 26 17966971621348731407
397830 11 17750239114416603127
445580 37 9655582924421051871
636775 72 17240756351130941777
9953998 17 18334293176659495645

> <PUBCHEM_SHAPE_MULTIPOLES>
561.59
35.38
1.95
1.71
24.99
0.71
0.59
0.29
14.5
2.37
0.32
-3.69
-0.24
-1.43

> <PUBCHEM_SHAPE_SELFOVERLAP>
1166.073

> <PUBCHEM_SHAPE_VOLUME>
321.3

> <PUBCHEM_COORDINATE_TYPE>
2
5
10

$$$$

