7846977
  -OEChem-06241222483D

 33 34  0     1  0  0  0  0  0999 V2000
   -1.9075    1.8780    1.0848 S   0  0  0  0  0  0  0  0  0  0  0  0
    2.8484    0.6244    0.6567 O   0  0  0  0  0  0  0  0  0  0  0  0
    1.9257    0.6970   -1.4565 O   0  0  0  0  0  0  0  0  0  0  0  0
    1.3145   -1.6576    0.4697 O   0  0  0  0  0  0  0  0  0  0  0  0
   -1.0762    0.7078   -1.0582 N   0  0  0  0  0  0  0  0  0  0  0  0
    2.8656   -2.5502   -0.9716 N   0  0  0  0  0  0  0  0  0  0  0  0
    0.1371    2.7902   -0.5170 C   0  0  0  0  0  0  0  0  0  0  0  0
    1.4810    2.4603    0.1588 C   0  0  0  0  0  0  0  0  0  0  0  0
   -0.8863    1.7487   -0.2812 C   0  0  0  0  0  0  0  0  0  0  0  0
   -2.6938    0.4146    0.6231 C   0  0  0  0  0  0  0  0  0  0  0  0
   -2.1099   -0.0669   -0.5524 C   0  0  0  0  0  0  0  0  0  0  0  0
    3.4939   -0.6116    0.3342 C   0  0  1  0  0  0  0  0  0  0  0  0
    2.0906    1.1700   -0.3406 C   0  0  0  0  0  0  0  0  0  0  0  0
   -3.7512   -0.2588    1.2555 C   0  0  0  0  0  0  0  0  0  0  0  0
   -2.6036   -1.2651   -1.1127 C   0  0  0  0  0  0  0  0  0  0  0  0
    4.3094   -1.0520    1.5392 C   0  0  0  0  0  0  0  0  0  0  0  0
   -4.2210   -1.4422    0.6804 C   0  0  0  0  0  0  0  0  0  0  0  0
   -3.6561   -1.9407   -0.4883 C   0  0  0  0  0  0  0  0  0  0  0  0
    2.4393   -1.6458   -0.0240 C   0  0  0  0  0  0  0  0  0  0  0  0
    0.2930    2.8933   -1.5985 H   0  0  0  0  0  0  0  0  0  0  0  0
   -0.2086    3.7699   -0.1652 H   0  0  0  0  0  0  0  0  0  0  0  0
    1.3300    2.3869    1.2427 H   0  0  0  0  0  0  0  0  0  0  0  0
    2.1996    3.2648   -0.0317 H   0  0  0  0  0  0  0  0  0  0  0  0
    4.1700   -0.4416   -0.5128 H   0  0  0  0  0  0  0  0  0  0  0  0
   -4.1972    0.1243    2.1683 H   0  0  0  0  0  0  0  0  0  0  0  0
   -2.1692   -1.6636   -2.0252 H   0  0  0  0  0  0  0  0  0  0  0  0
    5.0438   -0.2855    1.8081 H   0  0  0  0  0  0  0  0  0  0  0  0
    3.6659   -1.1977    2.4143 H   0  0  0  0  0  0  0  0  0  0  0  0
    4.8346   -1.9919    1.3428 H   0  0  0  0  0  0  0  0  0  0  0  0
   -5.0388   -1.9791    1.1542 H   0  0  0  0  0  0  0  0  0  0  0  0
   -4.0344   -2.8627   -0.9210 H   0  0  0  0  0  0  0  0  0  0  0  0
    3.7998   -2.5250   -1.3674 H   0  0  0  0  0  0  0  0  0  0  0  0
    2.2513   -3.2873   -1.3016 H   0  0  0  0  0  0  0  0  0  0  0  0
  1  9  1  0  0  0  0
  1 10  1  0  0  0  0
  2 12  1  0  0  0  0
  2 13  1  0  0  0  0
  3 13  2  0  0  0  0
  4 19  2  0  0  0  0
  5  9  2  0  0  0  0
  5 11  1  0  0  0  0
  6 19  1  0  0  0  0
  6 32  1  0  0  0  0
  6 33  1  0  0  0  0
  7  8  1  0  0  0  0
  7  9  1  0  0  0  0
  7 20  1  0  0  0  0
  7 21  1  0  0  0  0
  8 13  1  0  0  0  0
  8 22  1  0  0  0  0
  8 23  1  0  0  0  0
 10 11  1  0  0  0  0
 10 14  2  0  0  0  0
 11 15  2  0  0  0  0
 12 16  1  0  0  0  0
 12 19  1  0  0  0  0
 12 24  1  0  0  0  0
 14 17  1  0  0  0  0
 14 25  1  0  0  0  0
 15 18  1  0  0  0  0
 15 26  1  0  0  0  0
 16 27  1  0  0  0  0
 16 28  1  0  0  0  0
 16 29  1  0  0  0  0
 17 18  2  0  0  0  0
 17 30  1  0  0  0  0
 18 31  1  0  0  0  0
M  END
> <PUBCHEM_COMPOUND_CID>
7846977

> <PUBCHEM_CONFORMER_RMSD>
0.8

> <PUBCHEM_CONFORMER_DIVERSEORDER>
1
152
308
109
176
32
74
215
298
88
163
70
313
114
242
304
209
194
195
265
81
206
71
38
190
128
151
153
270
94
103
284
85
314
305
183
17
245
148
222
309
182
3
278
283
175
47
223
269
286
118
150
129
7
142
160
329
253
307
30
107
281
316
227
33
210
279
301
106
311
126
178
21
44
189
293
101
275
120
225
117
90
69
16
157
158
324
31
277
65
57
41
111
295
24
55
266
62
201
272
263
220
59
82
258
317
12
58
77
168
236
172
136
95
112
218
91
276
130
169
290
29
6
326
207
212
235
205
19
28
134
13
4
246
15
108
45
252
37
110
202
213
89
141
261
73
50
42
137
147
216
200
198
156
162
233
149
228
34
144
241
322
124
27
105
145
262
203
20
303
125
10
8
254
35
135
39
116
320
248
93
22
232
291
294
237
49
188
154
78
285
76
92
127
327
173
274
224
186
40
299
321
300
243
131
104
96
257
115
159
61
185
2
170
323
302
271
67
204
187
230
280
219
72
161
196
267
268
25
146
26
113
312
46
319
179
264
167
177
63
165
60
166
191
192
296
123
325
181
143
66
292
68
287
140
193
48
171
217
239
221
86
251
328
9
54
238
315
122
211
256
14
226
51
87
83
297
75
306
318
273
23
197
247
79
288
80
240
11
244
310
231
64
208
180
99
234
289
249
5
155
18
174
97
100
121
199
184
119
250
214
102
43
255
259
98
138
282
164
56
133
260
52
132
229
36
84
139
53

> <PUBCHEM_MMFF94_PARTIAL_CHARGES>
24
1 -0.08
10 0.04
11 0.23
12 0.34
13 0.66
14 -0.15
15 -0.15
17 -0.15
18 -0.15
19 0.57
2 -0.43
25 0.15
26 0.15
3 -0.57
30 0.15
31 0.15
32 0.37
33 0.37
4 -0.57
5 -0.57
6 -0.8
7 0.18
8 0.06
9 0.2

> <PUBCHEM_EFFECTIVE_ROTOR_COUNT>
6

> <PUBCHEM_PHARMACOPHORE_FEATURES>
6
1 3 acceptor
1 4 acceptor
1 5 acceptor
1 6 donor
5 1 5 9 10 11 rings
6 10 11 14 15 17 18 rings

> <PUBCHEM_HEAVY_ATOM_COUNT>
19

> <PUBCHEM_ATOM_DEF_STEREO_COUNT>
1

> <PUBCHEM_ATOM_UDEF_STEREO_COUNT>
0

> <PUBCHEM_BOND_DEF_STEREO_COUNT>
0

> <PUBCHEM_BOND_UDEF_STEREO_COUNT>
0

> <PUBCHEM_ISOTOPIC_ATOM_COUNT>
0

> <PUBCHEM_COMPONENT_COUNT>
1

> <PUBCHEM_CACTVS_TAUTO_COUNT>
4

> <PUBCHEM_CONFORMER_ID>
0077BC4100000001

> <PUBCHEM_MMFF94_ENERGY>
31.0103

> <PUBCHEM_FEATURE_SELFOVERLAP>
30.519

> <PUBCHEM_SHAPE_FINGERPRINT>
10618630 7 18343301487277057736
11578080 2 17897754010264403921
12363563 72 17917716807279762848
12506688 2 18339923723221652321
12553582 1 18409725140710599380
12596599 1 18336817710184213843
14178342 30 18263367056636539480
14251705 54 18411138043327981550
14251757 5 16751263913792551382
14848160 33 18130230358824907203
15375462 189 18338229350028294365
1813 80 17917699219409888677
19433438 48 18333740108408009739
20291156 8 18410006658636924193
20442098 301 18259982682257050645
20645477 70 18055930805091327613
21421861 104 18264470833230306257
21427221 339 17897978383433785521
21475661 188 5399428332999523411
21731516 1 18410847776458394069
22445834 79 18262509295896438449
2255824 54 18052247402062196301
23559900 14 17096902811623558941
5262128 65 16128371545556151357
6287921 2 18113615677557184742
7064713 232 17967248715300317211
7097593 13 18261662723451023185

> <PUBCHEM_SHAPE_MULTIPOLES>
367.29
7.8
2.96
1.27
0.32
0.69
0.1
-5.32
2.38
0.71
-0.35
0.03
-0.12
-0.6

> <PUBCHEM_SHAPE_SELFOVERLAP>
763.664

> <PUBCHEM_SHAPE_VOLUME>
209.4

> <PUBCHEM_COORDINATE_TYPE>
2
5
10

$$$$

