10243
  -OEChem-07051212513D

 20 21  0     0  0  0  0  0  0999 V2000
    2.6565   -0.9667   -1.2004 O   0  0  0  0  0  0  0  0  0  0  0  0
    2.7816   -1.0739    1.0667 O   0  0  0  0  0  0  0  0  0  0  0  0
   -1.0158    2.0816   -0.0044 N   0  0  0  0  0  0  0  0  0  0  0  0
   -0.2352   -0.1982    0.0172 C   0  0  0  0  0  0  0  0  0  0  0  0
   -1.2708    0.7594   -0.0004 C   0  0  0  0  0  0  0  0  0  0  0  0
    1.0885    0.2616    0.0304 C   0  0  0  0  0  0  0  0  0  0  0  0
   -0.5376   -1.5705    0.0210 C   0  0  0  0  0  0  0  0  0  0  0  0
   -2.5855    0.3021   -0.0134 C   0  0  0  0  0  0  0  0  0  0  0  0
    1.3544    1.6234    0.0262 C   0  0  0  0  0  0  0  0  0  0  0  0
   -1.8615   -2.0000    0.0076 C   0  0  0  0  0  0  0  0  0  0  0  0
   -2.8865   -1.0622   -0.0097 C   0  0  0  0  0  0  0  0  0  0  0  0
    0.2756    2.4840    0.0088 C   0  0  0  0  0  0  0  0  0  0  0  0
    2.2362   -0.6405    0.0503 C   0  0  0  0  0  0  0  0  0  0  0  0
    0.2433   -2.3270    0.0347 H   0  0  0  0  0  0  0  0  0  0  0  0
   -3.4067    1.0165   -0.0270 H   0  0  0  0  0  0  0  0  0  0  0  0
    2.3676    2.0105    0.0366 H   0  0  0  0  0  0  0  0  0  0  0  0
   -2.0917   -3.0611    0.0107 H   0  0  0  0  0  0  0  0  0  0  0  0
   -3.9224   -1.3884   -0.0202 H   0  0  0  0  0  0  0  0  0  0  0  0
    0.4220    3.5591    0.0049 H   0  0  0  0  0  0  0  0  0  0  0  0
    3.4266   -1.5740   -1.1802 H   0  0  0  0  0  0  0  0  0  0  0  0
  1 13  1  0  0  0  0
  1 20  1  0  0  0  0
  2 13  2  0  0  0  0
  3  5  1  0  0  0  0
  3 12  2  0  0  0  0
  4  5  1  0  0  0  0
  4  6  1  0  0  0  0
  4  7  2  0  0  0  0
  5  8  2  0  0  0  0
  6  9  2  0  0  0  0
  6 13  1  0  0  0  0
  7 10  1  0  0  0  0
  7 14  1  0  0  0  0
  8 11  1  0  0  0  0
  8 15  1  0  0  0  0
  9 12  1  0  0  0  0
  9 16  1  0  0  0  0
 10 11  2  0  0  0  0
 10 17  1  0  0  0  0
 11 18  1  0  0  0  0
 12 19  1  0  0  0  0
M  END
> <PUBCHEM_COMPOUND_CID>
10243

> <PUBCHEM_CONFORMER_RMSD>
0.4

> <PUBCHEM_CONFORMER_DIVERSEORDER>
1
3
2

> <PUBCHEM_MMFF94_PARTIAL_CHARGES>
19
1 -0.65
10 -0.15
11 -0.15
12 0.16
13 0.63
14 0.15
15 0.15
16 0.15
17 0.15
18 0.15
19 0.15
2 -0.57
20 0.5
3 -0.62
5 0.31
6 0.09
7 -0.15
8 -0.15
9 -0.15

> <PUBCHEM_EFFECTIVE_ROTOR_COUNT>
1

> <PUBCHEM_PHARMACOPHORE_FEATURES>
6
1 1 acceptor
1 2 acceptor
1 3 acceptor
3 1 2 13 anion
6 3 4 5 6 9 12 rings
6 4 5 7 8 10 11 rings

> <PUBCHEM_HEAVY_ATOM_COUNT>
13

> <PUBCHEM_ATOM_DEF_STEREO_COUNT>
0

> <PUBCHEM_ATOM_UDEF_STEREO_COUNT>
0

> <PUBCHEM_BOND_DEF_STEREO_COUNT>
0

> <PUBCHEM_BOND_UDEF_STEREO_COUNT>
0

> <PUBCHEM_ISOTOPIC_ATOM_COUNT>
0

> <PUBCHEM_COMPONENT_COUNT>
1

> <PUBCHEM_CACTVS_TAUTO_COUNT>
1

> <PUBCHEM_CONFORMER_ID>
0000280300000001

> <PUBCHEM_MMFF94_ENERGY>
44.6458

> <PUBCHEM_FEATURE_SELFOVERLAP>
30.535

> <PUBCHEM_SHAPE_FINGERPRINT>
10967382 1 17906453221244234395
11206711 2 18341615979122812245
12423570 1 17895204289368192583
12524768 44 18263641779692519463
13380535 76 17763189033519296003
161256 15 18267019462164697333
16945 1 18338516460012354499
17990270 104 18263922125003199487
193761 8 18338798905673299241
20645477 70 17976825277290888879
20871998 184 18260838149748788134
20871998 22 18335696126798553038
21501502 16 18265896848224113319
22802520 49 17826223287973991174
2334 1 18266741281670294361
23419403 2 17395069413962423177
23552423 10 18055069861410974383
23559900 14 17973723873206623558
241688 4 18411419514051955705
2748010 2 18338803312414843837
7364860 26 18045216038113486848
81228 2 18265330788387484768

> <PUBCHEM_SHAPE_MULTIPOLES>
250.81
3.88
2.41
0.75
0.28
0.98
0.03
-1.8
0
-0.21
-0.02
-0.37
-0.2
0

> <PUBCHEM_SHAPE_SELFOVERLAP>
554.774

> <PUBCHEM_SHAPE_VOLUME>
134.3

> <PUBCHEM_COORDINATE_TYPE>
2
5
10

$$$$

