54675782
  -OEChem-07051212523D

 47 50  0     1  0  0  0  0  0999 V2000
   -2.1929    1.6645   -1.9148 O   0  0  0  0  0  0  0  0  0  0  0  0
   -2.0739    2.0854    1.0861 O   0  0  0  0  0  0  0  0  0  0  0  0
    0.0418    2.6286   -0.8847 O   0  0  0  0  0  0  0  0  0  0  0  0
   -4.5565   -1.8778    0.1082 O   0  0  0  0  0  0  0  0  0  0  0  0
    2.4075    2.4187   -0.2826 O   0  0  0  0  0  0  0  0  0  0  0  0
   -5.2617    0.2930    2.0396 O   0  0  0  0  0  0  0  0  0  0  0  0
    4.8735    2.1098    0.2889 O   0  0  0  0  0  0  0  0  0  0  0  0
   -3.7679   -0.6837   -2.5522 N   0  0  0  0  0  0  0  0  0  0  0  0
   -3.2134    0.1500    3.0958 N   0  0  0  0  0  0  0  0  0  0  0  0
   -1.5158   -0.6076   -1.4603 C   0  0  1  0  0  0  0  0  0  0  0  0
   -1.5781    0.8307   -0.9243 C   0  0  1  0  0  0  0  0  0  0  0  0
   -0.5804   -1.4877   -0.6072 C   0  0  0  0  0  0  0  0  0  0  0  0
   -2.9132   -1.2504   -1.5114 C   0  0  1  0  0  0  0  0  0  0  0  0
    0.7677   -0.8641   -0.3889 C   0  0  0  0  0  0  0  0  0  0  0  0
   -0.1705    1.4223   -0.7694 C   0  0  0  0  0  0  0  0  0  0  0  0
    0.9607    0.5166   -0.4475 C   0  0  0  0  0  0  0  0  0  0  0  0
   -2.3833    0.9515    0.3549 C   0  0  0  0  0  0  0  0  0  0  0  0
   -3.6542   -1.0937   -0.1928 C   0  0  0  0  0  0  0  0  0  0  0  0
   -3.3197    0.0505    0.7221 C   0  0  0  0  0  0  0  0  0  0  0  0
    1.8558   -1.6897   -0.0638 C   0  0  0  0  0  0  0  0  0  0  0  0
    2.2300    1.0638   -0.2109 C   0  0  0  0  0  0  0  0  0  0  0  0
    3.1329   -1.1580    0.1780 C   0  0  0  0  0  0  0  0  0  0  0  0
    3.3228    0.2390    0.1014 C   0  0  0  0  0  0  0  0  0  0  0  0
    1.6474   -3.1771    0.0116 C   0  0  0  0  0  0  0  0  0  0  0  0
   -4.0419    0.1770    2.0014 C   0  0  0  0  0  0  0  0  0  0  0  0
    4.2240   -1.9841    0.4947 C   0  0  0  0  0  0  0  0  0  0  0  0
    4.5999    0.7724    0.3424 C   0  0  0  0  0  0  0  0  0  0  0  0
    5.4858   -1.4382    0.7311 C   0  0  0  0  0  0  0  0  0  0  0  0
    5.6736   -0.0618    0.6549 C   0  0  0  0  0  0  0  0  0  0  0  0
   -1.1089   -0.5836   -2.4832 H   0  0  0  0  0  0  0  0  0  0  0  0
   -0.4821   -2.4268   -1.1647 H   0  0  0  0  0  0  0  0  0  0  0  0
   -1.0198   -1.7157    0.3709 H   0  0  0  0  0  0  0  0  0  0  0  0
   -2.8021   -2.3247   -1.7045 H   0  0  0  0  0  0  0  0  0  0  0  0
   -2.3318    2.5468   -1.5291 H   0  0  0  0  0  0  0  0  0  0  0  0
   -4.6320   -1.2207   -2.6172 H   0  0  0  0  0  0  0  0  0  0  0  0
   -3.3087   -0.7739   -3.4576 H   0  0  0  0  0  0  0  0  0  0  0  0
    2.1956   -3.6235    0.8474 H   0  0  0  0  0  0  0  0  0  0  0  0
    0.6161   -3.4702    0.2236 H   0  0  0  0  0  0  0  0  0  0  0  0
    1.9607   -3.6513   -0.9239 H   0  0  0  0  0  0  0  0  0  0  0  0
   -2.6399    2.1177    1.8747 H   0  0  0  0  0  0  0  0  0  0  0  0
    4.1501   -3.0657    0.5480 H   0  0  0  0  0  0  0  0  0  0  0  0
    1.5772    2.8771   -0.0805 H   0  0  0  0  0  0  0  0  0  0  0  0
    6.3227   -2.0882    0.9697 H   0  0  0  0  0  0  0  0  0  0  0  0
    6.6645    0.3444    0.8411 H   0  0  0  0  0  0  0  0  0  0  0  0
   -3.5905    0.2307    4.0343 H   0  0  0  0  0  0  0  0  0  0  0  0
   -2.2065    0.0410    3.0223 H   0  0  0  0  0  0  0  0  0  0  0  0
    5.8131    2.2626    0.4869 H   0  0  0  0  0  0  0  0  0  0  0  0
  1 11  1  0  0  0  0
  1 34  1  0  0  0  0
  2 17  1  0  0  0  0
  2 40  1  0  0  0  0
  3 15  2  0  0  0  0
  4 18  2  0  0  0  0
  5 21  1  0  0  0  0
  5 42  1  0  0  0  0
  6 25  2  0  0  0  0
  7 27  1  0  0  0  0
  7 47  1  0  0  0  0
  8 13  1  0  0  0  0
  8 35  1  0  0  0  0
  8 36  1  0  0  0  0
  9 25  1  0  0  0  0
  9 45  1  0  0  0  0
  9 46  1  0  0  0  0
 10 11  1  0  0  0  0
 10 12  1  0  0  0  0
 10 13  1  0  0  0  0
 10 30  1  0  0  0  0
 11 15  1  0  0  0  0
 11 17  1  0  0  0  0
 12 14  1  0  0  0  0
 12 31  1  0  0  0  0
 12 32  1  0  0  0  0
 13 18  1  0  0  0  0
 13 33  1  0  0  0  0
 14 16  2  0  0  0  0
 14 20  1  0  0  0  0
 15 16  1  0  0  0  0
 16 21  1  0  0  0  0
 17 19  2  0  0  0  0
 18 19  1  0  0  0  0
 19 25  1  0  0  0  0
 20 22  2  0  0  0  0
 20 24  1  0  0  0  0
 21 23  2  0  0  0  0
 22 23  1  0  0  0  0
 22 26  1  0  0  0  0
 23 27  1  0  0  0  0
 24 37  1  0  0  0  0
 24 38  1  0  0  0  0
 24 39  1  0  0  0  0
 26 28  2  0  0  0  0
 26 41  1  0  0  0  0
 27 29  2  0  0  0  0
 28 29  1  0  0  0  0
 28 43  1  0  0  0  0
 29 44  1  0  0  0  0
M  END
> <PUBCHEM_COMPOUND_CID>
54675782

> <PUBCHEM_CONFORMER_RMSD>
0.6

> <PUBCHEM_CONFORMER_DIVERSEORDER>
3
1
2
4

> <PUBCHEM_MMFF94_PARTIAL_CHARGES>
37
1 -0.68
11 0.48
12 0.14
13 0.33
14 -0.14
15 0.42
16 0.09
17 -0.06
18 0.49
19 0.03
2 -0.53
20 -0.14
21 0.08
24 0.14
25 0.62
26 -0.15
27 0.08
28 -0.15
29 -0.15
3 -0.57
34 0.4
35 0.36
36 0.36
4 -0.57
40 0.45
41 0.15
42 0.45
43 0.15
44 0.15
45 0.37
46 0.37
47 0.45
5 -0.53
6 -0.57
7 -0.53
8 -0.99
9 -0.8

> <PUBCHEM_EFFECTIVE_ROTOR_COUNT>
1.4

> <PUBCHEM_PHARMACOPHORE_FEATURES>
16
1 1 acceptor
1 1 donor
1 19 anion
1 2 donor
1 3 acceptor
1 4 acceptor
1 5 donor
1 6 acceptor
1 7 donor
1 8 cation
1 8 donor
1 9 donor
6 10 11 12 14 15 16 rings
6 10 11 13 17 18 19 rings
6 14 16 20 21 22 23 rings
6 22 23 26 27 28 29 rings

> <PUBCHEM_HEAVY_ATOM_COUNT>
29

> <PUBCHEM_ATOM_DEF_STEREO_COUNT>
3

> <PUBCHEM_ATOM_UDEF_STEREO_COUNT>
0

> <PUBCHEM_BOND_DEF_STEREO_COUNT>
0

> <PUBCHEM_BOND_UDEF_STEREO_COUNT>
0

> <PUBCHEM_ISOTOPIC_ATOM_COUNT>
0

> <PUBCHEM_COMPONENT_COUNT>
1

> <PUBCHEM_CACTVS_TAUTO_COUNT>
999

> <PUBCHEM_CONFORMER_ID>
0342494600000003

> <PUBCHEM_MMFF94_ENERGY>
95.39

> <PUBCHEM_FEATURE_SELFOVERLAP>
81.336

> <PUBCHEM_SHAPE_FINGERPRINT>
10165383 225 5039683594546849205
10675989 125 16397775332504909484
11578080 2 17680184891164082257
11796584 16 15841004385312266258
12236239 1 18113621157861523647
12422481 6 18263075668685275434
12553582 1 18341324574192288662
12596602 18 17894344449758322107
12633257 1 18271512139769531275
12788726 201 17241336746539834247
13140716 1 18195248802207516278
13224815 77 18342463676949859750
13544653 18 18060137643573631188
13583140 156 16702037369772493034
13782708 43 16988273176065683323
13965767 371 17535714676769815257
14068700 675 17097238059812296863
14294032 229 16370996426763243027
14341114 328 17895185602086898216
14790565 3 18125150538365474324
14840074 17 18340761559735106676
14849402 71 18115031780542784816
14955137 171 18337939191202353804
15163728 17 14563911755568127483
15196674 1 18340218457252808532
15209289 33 18334298639072068466
15209294 21 17821726143508120187
17349148 13 18273498974866661226
1813 80 18272639165026098060
19591789 44 18339369655883312302
200 152 18261692401648385895
20028762 73 18261397685188288246
20261772 1 18335978744452589034
20511986 3 18114470032746799193
20739085 24 18341883091913624524
21033648 29 17560536026816836276
21267235 1 18411704288270567702
21623110 236 18336830796875470904
21756936 100 16660648479021524458
23559900 14 18201176402499835524
3380486 145 18343862208881022101
350125 39 18410297990927771140
3633792 109 18188781655913363975
3737641 26 18192706967985435110
392239 28 18343024384936088834
460360 51 18267018543379092222
469060 322 18412831261201452241
4921388 177 16128657487509559991
5081480 168 16808397673560539158
5104073 3 18339656636918062392
9849439 229 16012095064810071233

> <PUBCHEM_SHAPE_MULTIPOLES>
545.76
10.97
2.55
1.79
5.75
0.06
-0.6
1.48
-4.55
1.45
0.35
-3.47
-0.16
-0.87

> <PUBCHEM_SHAPE_SELFOVERLAP>
1233.011

> <PUBCHEM_SHAPE_VOLUME>
280.4

> <PUBCHEM_COORDINATE_TYPE>
2
5
10

$$$$

