12758
  -OEChem-06261207202D

 11 11  0     0  0  0  0  0  0999 V2000
    5.5201    0.3952    0.0000 Cl  0  0  0  0  0  0  0  0  0  0  0  0
    2.6723   -1.6739    0.0000 Cl  0  0  0  0  0  0  0  0  0  0  0  0
    3.7601    1.6739    0.0000 Cl  0  0  0  0  0  0  0  0  0  0  0  0
    2.0000    0.3952    0.0000 Cl  0  0  0  0  0  0  0  0  0  0  0  0
    4.2601   -0.8649    0.0000 C   0  0  0  0  0  0  0  0  0  0  0  0
    4.5691    0.0861    0.0000 C   0  0  0  0  0  0  0  0  0  0  0  0
    3.2601   -0.8649    0.0000 C   0  0  0  0  0  0  0  0  0  0  0  0
    3.7601    0.6739    0.0000 C   0  0  0  0  0  0  0  0  0  0  0  0
    2.9511    0.0861    0.0000 C   0  0  0  0  0  0  0  0  0  0  0  0
    4.1953   -1.4815    0.0000 H   0  0  0  0  0  0  0  0  0  0  0  0
    4.8665   -0.9938    0.0000 H   0  0  0  0  0  0  0  0  0  0  0  0
  1  6  1  0  0  0  0
  2  7  1  0  0  0  0
  3  8  1  0  0  0  0
  4  9  1  0  0  0  0
  5  6  1  0  0  0  0
  5  7  1  0  0  0  0
  5 10  1  0  0  0  0
  5 11  1  0  0  0  0
  6  8  2  0  0  0  0
  7  9  2  0  0  0  0
  8  9  1  0  0  0  0
M  END
> <PUBCHEM_COMPOUND_CID>
12758

> <PUBCHEM_COMPOUND_CANONICALIZED>
1

> <PUBCHEM_CACTVS_COMPLEXITY>
179

> <PUBCHEM_CACTVS_HBOND_ACCEPTOR>
0

> <PUBCHEM_CACTVS_HBOND_DONOR>
0

> <PUBCHEM_CACTVS_ROTATABLE_BOND>
0

> <PUBCHEM_CACTVS_SUBSKEYS>
AAADcQBgAAAHAAAAAAAAAAAAAAAAAQAAAAAAAAAAAAAAAAAAAAAAGAIAAAAACAKAAAAAAAAAAACAAABAAAAAAAAgAAAACEAAAggIAAAAAAAAAAAAAAAIgAIAAAAAAAAAAAAAAAAAAAAAAAAAAAAAAAAAAA==

> <PUBCHEM_IUPAC_OPENEYE_NAME>
1,2,3,4-tetrachlorocyclopenta-1,3-diene

> <PUBCHEM_IUPAC_CAS_NAME>
1,2,3,4-tetrachlorocyclopenta-1,3-diene

> <PUBCHEM_IUPAC_NAME>
1,2,3,4-tetrachlorocyclopenta-1,3-diene

> <PUBCHEM_IUPAC_SYSTEMATIC_NAME>
1,2,3,4-tetrakis(chloranyl)cyclopenta-1,3-diene

> <PUBCHEM_IUPAC_TRADITIONAL_NAME>
1,2,3,4-tetrachlorocyclopenta-1,3-diene

> <PUBCHEM_IUPAC_INCHI>
InChI=1S/C5H2Cl4/c6-2-1-3(7)5(9)4(2)8/h1H2

> <PUBCHEM_IUPAC_INCHIKEY>
RLKOAZNVJZJJFB-UHFFFAOYSA-N

> <PUBCHEM_XLOGP3_AA>
3.3

> <PUBCHEM_EXACT_MASS>
203.888111

> <PUBCHEM_MOLECULAR_FORMULA>
C5H2Cl4

> <PUBCHEM_MOLECULAR_WEIGHT>
203.88138

> <PUBCHEM_OPENEYE_CAN_SMILES>
C1C(=C(C(=C1Cl)Cl)Cl)Cl

> <PUBCHEM_OPENEYE_ISO_SMILES>
C1C(=C(C(=C1Cl)Cl)Cl)Cl

> <PUBCHEM_CACTVS_TPSA>
0

> <PUBCHEM_MONOISOTOPIC_WEIGHT>
201.891061

> <PUBCHEM_TOTAL_CHARGE>
0

> <PUBCHEM_HEAVY_ATOM_COUNT>
9

> <PUBCHEM_ATOM_DEF_STEREO_COUNT>
0

> <PUBCHEM_ATOM_UDEF_STEREO_COUNT>
0

> <PUBCHEM_BOND_DEF_STEREO_COUNT>
0

> <PUBCHEM_BOND_UDEF_STEREO_COUNT>
0

> <PUBCHEM_ISOTOPIC_ATOM_COUNT>
0

> <PUBCHEM_COMPONENT_COUNT>
1

> <PUBCHEM_CACTVS_TAUTO_COUNT>
1

> <PUBCHEM_COORDINATE_TYPE>
1
5
255

> <PUBCHEM_BONDANNOTATIONS>
5  6  8
5  7  8
6  8  8
7  9  8
8  9  8

$$$$

