3663
  -OEChem-06251223342D

 54 61  0     0  0  0  0  0  0999 V2000
    9.1629   -2.0293    0.0000 O   0  0  0  0  0  0  0  0  0  0  0  0
    2.9808    1.5400    0.0000 O   0  0  0  0  0  0  0  0  0  0  0  0
    8.2593    2.5504    0.0000 O   0  0  0  0  0  0  0  0  0  0  0  0
    7.3987    3.0473    0.0000 O   0  0  0  0  0  0  0  0  0  0  0  0
   10.0411   -0.5083    0.0000 O   0  0  0  0  0  0  0  0  0  0  0  0
    3.8589    3.0609    0.0000 O   0  0  0  0  0  0  0  0  0  0  0  0
    8.3674   -3.6211    0.0000 O   0  0  0  0  0  0  0  0  0  0  0  0
    2.0000    0.0551    0.0000 O   0  0  0  0  0  0  0  0  0  0  0  0
    6.5109   -0.4842    0.0000 C   0  0  0  0  0  0  0  0  0  0  0  0
    5.6449    0.0158    0.0000 C   0  0  0  0  0  0  0  0  0  0  0  0
    6.5270   -1.5257    0.0000 C   0  0  0  0  0  0  0  0  0  0  0  0
    4.7349   -0.4910    0.0000 C   0  0  0  0  0  0  0  0  0  0  0  0
    7.3770    0.0158    0.0000 C   0  0  0  0  0  0  0  0  0  0  0  0
    5.6449    1.0158    0.0000 C   0  0  0  0  0  0  0  0  0  0  0  0
    5.6290   -2.0535    0.0000 C   0  0  0  0  0  0  0  0  0  0  0  0
    4.7269   -1.5326    0.0000 C   0  0  0  0  0  0  0  0  0  0  0  0
    7.3770    1.0158    0.0000 C   0  0  0  0  0  0  0  0  0  0  0  0
    6.5109    1.5158    0.0000 C   0  0  0  0  0  0  0  0  0  0  0  0
    7.3929   -2.0535    0.0000 C   0  0  0  0  0  0  0  0  0  0  0  0
    3.8449   -0.0050    0.0000 C   0  0  0  0  0  0  0  0  0  0  0  0
    8.2870   -0.4910    0.0000 C   0  0  0  0  0  0  0  0  0  0  0  0
    4.7510    1.5505    0.0000 C   0  0  0  0  0  0  0  0  0  0  0  0
    8.2950   -1.5326    0.0000 C   0  0  0  0  0  0  0  0  0  0  0  0
    3.8449    1.0366    0.0000 C   0  0  0  0  0  0  0  0  0  0  0  0
    5.6206   -3.1384    0.0000 C   0  0  0  0  0  0  0  0  0  0  0  0
    3.7915   -2.0824    0.0000 C   0  0  0  0  0  0  0  0  0  0  0  0
    8.2709    1.5505    0.0000 C   0  0  0  0  0  0  0  0  0  0  0  0
    6.5270    2.5573    0.0000 C   0  0  0  0  0  0  0  0  0  0  0  0
    7.4956   -3.1312    0.0000 C   0  0  0  0  0  0  0  0  0  0  0  0
    2.8602   -0.4549    0.0000 C   0  0  0  0  0  0  0  0  0  0  0  0
    9.1770   -0.0050    0.0000 C   0  0  0  0  0  0  0  0  0  0  0  0
    4.7269    2.5643    0.0000 C   0  0  0  0  0  0  0  0  0  0  0  0
    6.5602   -3.6809    0.0000 C   0  0  0  0  0  0  0  0  0  0  0  0
    2.8518   -1.5399    0.0000 C   0  0  0  0  0  0  0  0  0  0  0  0
    9.1770    1.0366    0.0000 C   0  0  0  0  0  0  0  0  0  0  0  0
    5.6290    3.0851    0.0000 C   0  0  0  0  0  0  0  0  0  0  0  0
    4.7526   -3.6351    0.0000 C   0  0  0  0  0  0  0  0  0  0  0  0
    3.7953   -3.0824    0.0000 C   0  0  0  0  0  0  0  0  0  0  0  0
    6.5626   -4.3009    0.0000 H   0  0  0  0  0  0  0  0  0  0  0  0
    2.3137   -1.8478    0.0000 H   0  0  0  0  0  0  0  0  0  0  0  0
    9.7127    1.3487    0.0000 H   0  0  0  0  0  0  0  0  0  0  0  0
    5.6313    3.7051    0.0000 H   0  0  0  0  0  0  0  0  0  0  0  0
    4.4447   -3.0969    0.0000 H   0  0  0  0  0  0  0  0  0  0  0  0
    4.2145   -3.9430    0.0000 H   0  0  0  0  0  0  0  0  0  0  0  0
    5.0606   -4.1732    0.0000 H   0  0  0  0  0  0  0  0  0  0  0  0
    3.1753   -3.0847    0.0000 H   0  0  0  0  0  0  0  0  0  0  0  0
    3.7977   -3.7023    0.0000 H   0  0  0  0  0  0  0  0  0  0  0  0
    4.4153   -3.0800    0.0000 H   0  0  0  0  0  0  0  0  0  0  0  0
    9.6987   -1.7172    0.0000 H   0  0  0  0  0  0  0  0  0  0  0  0
    2.9832    2.1600    0.0000 H   0  0  0  0  0  0  0  0  0  0  0  0
    8.7927    2.8666    0.0000 H   0  0  0  0  0  0  0  0  0  0  0  0
    7.4059    3.6672    0.0000 H   0  0  0  0  0  0  0  0  0  0  0  0
   10.5792   -0.2004    0.0000 H   0  0  0  0  0  0  0  0  0  0  0  0
    3.8565    3.6809    0.0000 H   0  0  0  0  0  0  0  0  0  0  0  0
  1 23  1  0  0  0  0
  1 49  1  0  0  0  0
  2 24  1  0  0  0  0
  2 50  1  0  0  0  0
  3 27  1  0  0  0  0
  3 51  1  0  0  0  0
  4 28  1  0  0  0  0
  4 52  1  0  0  0  0
  5 31  1  0  0  0  0
  5 53  1  0  0  0  0
  6 32  1  0  0  0  0
  6 54  1  0  0  0  0
  7 29  2  0  0  0  0
  8 30  2  0  0  0  0
  9 10  1  0  0  0  0
  9 11  2  0  0  0  0
  9 13  1  0  0  0  0
 10 12  2  0  0  0  0
 10 14  1  0  0  0  0
 11 15  1  0  0  0  0
 11 19  1  0  0  0  0
 12 16  1  0  0  0  0
 12 20  1  0  0  0  0
 13 17  2  0  0  0  0
 13 21  1  0  0  0  0
 14 18  2  0  0  0  0
 14 22  1  0  0  0  0
 15 16  2  0  0  0  0
 15 25  1  0  0  0  0
 16 26  1  0  0  0  0
 17 18  1  0  0  0  0
 17 27  1  0  0  0  0
 18 28  1  0  0  0  0
 19 23  2  0  0  0  0
 19 29  1  0  0  0  0
 20 24  2  0  0  0  0
 20 30  1  0  0  0  0
 21 23  1  0  0  0  0
 21 31  2  0  0  0  0
 22 24  1  0  0  0  0
 22 32  2  0  0  0  0
 25 33  2  0  0  0  0
 25 37  1  0  0  0  0
 26 34  2  0  0  0  0
 26 38  1  0  0  0  0
 27 35  2  0  0  0  0
 28 36  2  0  0  0  0
 29 33  1  0  0  0  0
 30 34  1  0  0  0  0
 31 35  1  0  0  0  0
 32 36  1  0  0  0  0
 33 39  1  0  0  0  0
 34 40  1  0  0  0  0
 35 41  1  0  0  0  0
 36 42  1  0  0  0  0
 37 43  1  0  0  0  0
 37 44  1  0  0  0  0
 37 45  1  0  0  0  0
 38 46  1  0  0  0  0
 38 47  1  0  0  0  0
 38 48  1  0  0  0  0
M  END
> <PUBCHEM_COMPOUND_CID>
3663

> <PUBCHEM_COMPOUND_CANONICALIZED>
1

> <PUBCHEM_CACTVS_COMPLEXITY>
1090

> <PUBCHEM_CACTVS_HBOND_ACCEPTOR>
8

> <PUBCHEM_CACTVS_HBOND_DONOR>
6

> <PUBCHEM_CACTVS_ROTATABLE_BOND>
0

> <PUBCHEM_CACTVS_SUBSKEYS>
AAADceB4PAAAAAAAAAAAAAAAAAAAAAAAAAAwYMGDAAAAAADBVAAAGgAACAAADASAmAAyBsAAAgCIAqBSAAACAAAkIAAAiAEGCMgIJzaCFRKAcUAl4BUImQfI7PTO4AADCAAYAADAAAYQADAAAAAAAAAAAA==

> <PUBCHEM_IUPAC_INCHI>
InChI=1S/C30H16O8/c1-7-3-9(31)19-23-15(7)16-8(2)4-10(32)20-24(16)28-26-18(12(34)6-14(36)22(26)30(20)38)17-11(33)5-13(35)21(29(19)37)25(17)27(23)28/h3-6,33-38H,1-2H3

> <PUBCHEM_IUPAC_INCHIKEY>
YDOIFHVUBCIUHF-UHFFFAOYSA-N

> <PUBCHEM_XLOGP3_AA>
5.7

> <PUBCHEM_EXACT_MASS>
504.084517

> <PUBCHEM_MOLECULAR_FORMULA>
C30H16O8

> <PUBCHEM_MOLECULAR_WEIGHT>
504.44324

> <PUBCHEM_OPENEYE_CAN_SMILES>
CC1=CC(=O)C2=C(C3=C(C=C(C4=C3C5=C6C7=C(C1=C25)C(=CC(=O)C7=C(C8=C(C=C(C4=C86)O)O)O)C)O)O)O

> <PUBCHEM_OPENEYE_ISO_SMILES>
CC1=CC(=O)C2=C(C3=C(C=C(C4=C3C5=C6C7=C(C1=C25)C(=CC(=O)C7=C(C8=C(C=C(C4=C86)O)O)O)C)O)O)O

> <PUBCHEM_CACTVS_TPSA>
156

> <PUBCHEM_MONOISOTOPIC_WEIGHT>
504.084517

> <PUBCHEM_TOTAL_CHARGE>
0

> <PUBCHEM_HEAVY_ATOM_COUNT>
38

> <PUBCHEM_ATOM_DEF_STEREO_COUNT>
0

> <PUBCHEM_ATOM_UDEF_STEREO_COUNT>
0

> <PUBCHEM_BOND_DEF_STEREO_COUNT>
0

> <PUBCHEM_BOND_UDEF_STEREO_COUNT>
0

> <PUBCHEM_ISOTOPIC_ATOM_COUNT>
0

> <PUBCHEM_COMPONENT_COUNT>
1

> <PUBCHEM_CACTVS_TAUTO_COUNT>
991

> <PUBCHEM_COORDINATE_TYPE>
1
5
255

> <PUBCHEM_BONDANNOTATIONS>
10  12  8
10  14  8
11  15  8
11  19  8
12  16  8
12  20  8
13  17  8
13  21  8
14  18  8
14  22  8
15  16  8
15  25  8
16  26  8
17  18  8
17  27  8
18  28  8
19  23  8
19  29  8
20  24  8
20  30  8
21  23  8
21  31  8
22  24  8
22  32  8
25  33  8
26  34  8
27  35  8
28  36  8
29  33  8
30  34  8
31  35  8
32  36  8
9  10  8
9  11  8
9  13  8

$$$$

