13574
  -OEChem-06241222393D

 21 20  0     0  0  0  0  0  0999 V2000
   -3.7838   -0.9313   -0.0263 S   0  0  0  0  0  0  0  0  0  0  0  0
   -2.4719    1.7614    0.0966 S   0  0  0  0  0  0  0  0  0  0  0  0
   -1.1441   -0.5624   -0.0278 O   0  0  0  0  0  0  0  0  0  0  0  0
    2.6386   -0.3878   -0.0435 C   0  0  0  0  0  0  0  0  0  0  0  0
    1.2154   -0.9678   -0.0814 C   0  0  0  0  0  0  0  0  0  0  0  0
    2.8329    0.5890   -1.2057 C   0  0  0  0  0  0  0  0  0  0  0  0
    2.9461    0.3154    1.2791 C   0  0  0  0  0  0  0  0  0  0  0  0
    0.1200    0.0889   -0.0044 C   0  0  0  0  0  0  0  0  0  0  0  0
   -2.3531    0.0945    0.0132 C   0  0  0  0  0  0  0  0  0  0  0  0
    3.3436   -1.2197   -0.1643 H   0  0  0  0  0  0  0  0  0  0  0  0
    1.0861   -1.6830    0.7413 H   0  0  0  0  0  0  0  0  0  0  0  0
    1.0800   -1.5560   -0.9985 H   0  0  0  0  0  0  0  0  0  0  0  0
    0.2078    0.6587    0.9256 H   0  0  0  0  0  0  0  0  0  0  0  0
    0.1805    0.7632   -0.8637 H   0  0  0  0  0  0  0  0  0  0  0  0
    3.8898    0.8666   -1.2886 H   0  0  0  0  0  0  0  0  0  0  0  0
    2.2681    1.5171   -1.0722 H   0  0  0  0  0  0  0  0  0  0  0  0
    2.5372    0.1349   -2.1573 H   0  0  0  0  0  0  0  0  0  0  0  0
    2.3486    1.2220    1.4161 H   0  0  0  0  0  0  0  0  0  0  0  0
    4.0007    0.6098    1.3167 H   0  0  0  0  0  0  0  0  0  0  0  0
    2.7566   -0.3515    2.1266 H   0  0  0  0  0  0  0  0  0  0  0  0
   -4.6905    0.0552    0.0291 H   0  0  0  0  0  0  0  0  0  0  0  0
  1  9  1  0  0  0  0
  1 21  1  0  0  0  0
  2  9  2  0  0  0  0
  3  8  1  0  0  0  0
  3  9  1  0  0  0  0
  4  5  1  0  0  0  0
  4  6  1  0  0  0  0
  4  7  1  0  0  0  0
  4 10  1  0  0  0  0
  5  8  1  0  0  0  0
  5 11  1  0  0  0  0
  5 12  1  0  0  0  0
  6 15  1  0  0  0  0
  6 16  1  0  0  0  0
  6 17  1  0  0  0  0
  7 18  1  0  0  0  0
  7 19  1  0  0  0  0
  7 20  1  0  0  0  0
  8 13  1  0  0  0  0
  8 14  1  0  0  0  0
M  END
> <PUBCHEM_COMPOUND_CID>
13574

> <PUBCHEM_CONFORMER_RMSD>
0.6

> <PUBCHEM_CONFORMER_DIVERSEORDER>
1
12
11
4
3
9
5
2
6
7
10
8

> <PUBCHEM_MMFF94_PARTIAL_CHARGES>
6
1 -0.32
2 -0.38
21 0.18
3 -0.43
8 0.28
9 0.67

> <PUBCHEM_EFFECTIVE_ROTOR_COUNT>
4

> <PUBCHEM_PHARMACOPHORE_FEATURES>
3
1 2 acceptor
3 1 2 9 anion
3 4 6 7 hydrophobe

> <PUBCHEM_HEAVY_ATOM_COUNT>
9

> <PUBCHEM_ATOM_DEF_STEREO_COUNT>
0

> <PUBCHEM_ATOM_UDEF_STEREO_COUNT>
0

> <PUBCHEM_BOND_DEF_STEREO_COUNT>
0

> <PUBCHEM_BOND_UDEF_STEREO_COUNT>
0

> <PUBCHEM_ISOTOPIC_ATOM_COUNT>
0

> <PUBCHEM_COMPONENT_COUNT>
1

> <PUBCHEM_CACTVS_TAUTO_COUNT>
1

> <PUBCHEM_CONFORMER_ID>
0000350600000001

> <PUBCHEM_MMFF94_ENERGY>
16.7399

> <PUBCHEM_FEATURE_SELFOVERLAP>
15.223

> <PUBCHEM_SHAPE_FINGERPRINT>
11062470 55 15698001816787914039
12162725 195 18131348622142636980
12932741 1 17530684329019584516
12932764 1 17749111105707113927
14325111 11 18410011073963628735
14390081 3 18187369864896205049
18186145 218 17240479225631469042
20711983 171 18339916116803000805
23048698 100 17060621083584692620
3248919 1 18060698407357121667

> <PUBCHEM_SHAPE_MULTIPOLES>
187.05
6.77
1.34
0.97
1.5
0.46
-0.04
-0.17
-0.13
1.14
0.01
-0.97
0.16
-0.12

> <PUBCHEM_SHAPE_SELFOVERLAP>
320.218

> <PUBCHEM_SHAPE_VOLUME>
127

> <PUBCHEM_COORDINATE_TYPE>
2
5
10

$$$$

