47205530
  -OEChem-06241222593D

 38 38  0     0  0  0  0  0  0999 V2000
   -3.4798   -0.4592    1.3960 O   0  0  0  0  0  0  0  0  0  0  0  0
   -0.7576    0.7488   -0.7264 O   0  0  0  0  0  0  0  0  0  0  0  0
    0.7045   -1.0204   -0.2252 N   0  0  0  0  0  0  0  0  0  0  0  0
   -2.8982   -0.8858   -0.8106 N   0  0  0  0  0  0  0  0  0  0  0  0
    4.3404   -0.4866    0.2823 C   0  0  0  0  0  0  0  0  0  0  0  0
   -5.0111    0.1741   -0.3691 C   0  0  0  0  0  0  0  0  0  0  0  0
    1.9603   -0.3768   -0.1176 C   0  0  0  0  0  0  0  0  0  0  0  0
    4.4358    0.8921    0.0929 C   0  0  0  0  0  0  0  0  0  0  0  0
   -5.9410    0.6979    0.7214 C   0  0  0  0  0  0  0  0  0  0  0  0
    3.1027   -1.1210    0.1771 C   0  0  0  0  0  0  0  0  0  0  0  0
   -1.6180   -1.4915   -0.5308 C   0  0  0  0  0  0  0  0  0  0  0  0
    2.0556    1.0019   -0.3072 C   0  0  0  0  0  0  0  0  0  0  0  0
    3.2934    1.6362   -0.2019 C   0  0  0  0  0  0  0  0  0  0  0  0
   -3.7305   -0.4150    0.1945 C   0  0  0  0  0  0  0  0  0  0  0  0
   -0.5267   -0.4365   -0.5111 C   0  0  0  0  0  0  0  0  0  0  0  0
    5.5498   -1.3040    0.5984 C   0  0  0  0  0  0  0  0  0  0  0  0
    5.7499    1.5935    0.2011 C   0  0  0  0  0  0  0  0  0  0  0  0
   -7.2296    1.2524    0.1364 C   0  0  0  0  0  0  0  0  0  0  0  0
   -5.5177   -0.6052   -0.9511 H   0  0  0  0  0  0  0  0  0  0  0  0
   -4.7429    0.9867   -1.0548 H   0  0  0  0  0  0  0  0  0  0  0  0
   -5.4364    1.4828    1.2973 H   0  0  0  0  0  0  0  0  0  0  0  0
   -6.1823   -0.1068    1.4262 H   0  0  0  0  0  0  0  0  0  0  0  0
    3.0243   -2.1959    0.3240 H   0  0  0  0  0  0  0  0  0  0  0  0
   -1.4103   -2.2161   -1.3241 H   0  0  0  0  0  0  0  0  0  0  0  0
   -1.6513   -2.0043    0.4359 H   0  0  0  0  0  0  0  0  0  0  0  0
    1.2178    1.6445   -0.5376 H   0  0  0  0  0  0  0  0  0  0  0  0
    3.3511    2.7111   -0.3522 H   0  0  0  0  0  0  0  0  0  0  0  0
    0.7218   -2.0267   -0.0731 H   0  0  0  0  0  0  0  0  0  0  0  0
   -3.1812   -0.7900   -1.7816 H   0  0  0  0  0  0  0  0  0  0  0  0
    6.2860   -1.2316   -0.2087 H   0  0  0  0  0  0  0  0  0  0  0  0
    6.0048   -0.9723    1.5374 H   0  0  0  0  0  0  0  0  0  0  0  0
    5.3036   -2.3650    0.7163 H   0  0  0  0  0  0  0  0  0  0  0  0
   -7.7751    0.4794   -0.4144 H   0  0  0  0  0  0  0  0  0  0  0  0
   -7.8798    1.6231    0.9350 H   0  0  0  0  0  0  0  0  0  0  0  0
   -7.0246    2.0822   -0.5475 H   0  0  0  0  0  0  0  0  0  0  0  0
    6.1723    1.4688    1.2034 H   0  0  0  0  0  0  0  0  0  0  0  0
    6.4553    1.2082   -0.5423 H   0  0  0  0  0  0  0  0  0  0  0  0
    5.6509    2.6703    0.0242 H   0  0  0  0  0  0  0  0  0  0  0  0
  1 14  2  0  0  0  0
  2 15  2  0  0  0  0
  3  7  1  0  0  0  0
  3 15  1  0  0  0  0
  3 28  1  0  0  0  0
  4 11  1  0  0  0  0
  4 14  1  0  0  0  0
  4 29  1  0  0  0  0
  5  8  2  0  0  0  0
  5 10  1  0  0  0  0
  5 16  1  0  0  0  0
  6  9  1  0  0  0  0
  6 14  1  0  0  0  0
  6 19  1  0  0  0  0
  6 20  1  0  0  0  0
  7 10  2  0  0  0  0
  7 12  1  0  0  0  0
  8 13  1  0  0  0  0
  8 17  1  0  0  0  0
  9 18  1  0  0  0  0
  9 21  1  0  0  0  0
  9 22  1  0  0  0  0
 10 23  1  0  0  0  0
 11 15  1  0  0  0  0
 11 24  1  0  0  0  0
 11 25  1  0  0  0  0
 12 13  2  0  0  0  0
 12 26  1  0  0  0  0
 13 27  1  0  0  0  0
 16 30  1  0  0  0  0
 16 31  1  0  0  0  0
 16 32  1  0  0  0  0
 17 36  1  0  0  0  0
 17 37  1  0  0  0  0
 17 38  1  0  0  0  0
 18 33  1  0  0  0  0
 18 34  1  0  0  0  0
 18 35  1  0  0  0  0
M  END
> <PUBCHEM_COMPOUND_CID>
47205530

> <PUBCHEM_CONFORMER_RMSD>
0.8

> <PUBCHEM_CONFORMER_DIVERSEORDER>
1
128
50
134
106
65
119
96
38
8
81
60
77
64
54
101
21
42
79
130
87
66
129
70
102
33
22
58
14
103
114
127
11
131
7
56
73
30
76
24
49
85
19
51
72
31
98
3
27
88
121
109
110
69
35
94
41
23
6
36
105
74
124
52
53
18
62
78
34
83
135
9
111
55
63
45
26
57
84
48
117
99
75
115
123
116
59
113
16
100
2
82
44
20
107
126
125
68
47
80
25
132
108
93
91
61
13
39
12
112
89
10
95
97
71
122
29
15
67
4
5
40
104
17
133
28
43
120
32
90
86
118
37
46
92

> <PUBCHEM_MMFF94_PARTIAL_CHARGES>
21
1 -0.57
10 -0.15
11 0.36
12 -0.15
13 -0.15
14 0.57
15 0.57
16 0.14
17 0.14
2 -0.57
23 0.15
26 0.15
27 0.15
28 0.37
29 0.37
3 -0.55
4 -0.73
5 -0.14
6 0.06
7 0.12
8 -0.14

> <PUBCHEM_EFFECTIVE_ROTOR_COUNT>
7

> <PUBCHEM_PHARMACOPHORE_FEATURES>
6
1 1 acceptor
1 18 hydrophobe
1 2 acceptor
1 3 donor
1 4 donor
6 5 7 8 10 12 13 rings

> <PUBCHEM_HEAVY_ATOM_COUNT>
18

> <PUBCHEM_ATOM_DEF_STEREO_COUNT>
0

> <PUBCHEM_ATOM_UDEF_STEREO_COUNT>
0

> <PUBCHEM_BOND_DEF_STEREO_COUNT>
0

> <PUBCHEM_BOND_UDEF_STEREO_COUNT>
0

> <PUBCHEM_ISOTOPIC_ATOM_COUNT>
0

> <PUBCHEM_COMPONENT_COUNT>
1

> <PUBCHEM_CACTVS_TAUTO_COUNT>
4

> <PUBCHEM_CONFORMER_ID>
02D04C9A00000001

> <PUBCHEM_MMFF94_ENERGY>
39.3827

> <PUBCHEM_FEATURE_SELFOVERLAP>
30.446

> <PUBCHEM_SHAPE_FINGERPRINT>
10299344 5 10735875089206998285
10354089 29 18342737403615638212
10688039 33 17846500356638280604
11089746 13 17822298972197610521
117890 112 18260267447331820633
12236239 1 18259988158361731367
12596602 18 18271803510767220795
13167372 99 18335419110129953017
13533116 47 15936680579646346638
14123256 10 9007051370785765323
14251718 22 7781512616322003019
14251764 18 18411138013848493661
14341114 176 17988924483029499940
14350574 20 9151172047967040463
15048467 5 18260830384263287497
15188451 53 16558173901720307171
15348495 7 17632287931206022569
15475509 35 16343159021177447808
19489759 90 15791728603060399387
20157964 124 18260545671493223951
20281389 69 18411983572523852309
20767249 213 18187364338032709875
21150785 3 6122499125153969168
21267235 1 18270683181950230282
212847 35 18186240619542044392
21637258 2 12895066281232221353
23035841 295 14692571035018294370
23402539 116 17458351836195890959
23402655 69 18261678069574614406
26918003 58 17917993858271216961
2767999 5 17603868923029897065
2838139 119 18335145323820104317
29717793 49 17530961402140074870
300161 21 18040437659584680366
312425 54 17346877845408097603
351380 3 12319736951710051929
4073 2 17988075591349562122
465052 167 11815891267140602129
5104073 3 18269846328472493890
542803 24 17894632543337553735
602551 16 15697713706128812746
8272917 22 18334293193233353342

> <PUBCHEM_SHAPE_MULTIPOLES>
348.73
16.89
1.6
0.85
17.12
0.21
-0.1
5.85
-3.53
-1.31
0.04
0.48
-0.07
-0.58

> <PUBCHEM_SHAPE_SELFOVERLAP>
704.533

> <PUBCHEM_SHAPE_VOLUME>
204

> <PUBCHEM_COORDINATE_TYPE>
2
5
10

$$$$

