644183
  -OEChem-07051213073D

 23 24  0     0  0  0  0  0  0999 V2000
    0.6580    0.4043    2.6154 Cl  0  0  0  0  0  0  0  0  0  0  0  0
   -0.6283   -2.6082    0.2109 Cl  0  0  0  0  0  0  0  0  0  0  0  0
   -3.7826   -2.5033    0.1720 Cl  0  0  0  0  0  0  0  0  0  0  0  0
   -3.4948    2.9173   -0.4584 Cl  0  0  0  0  0  0  0  0  0  0  0  0
    3.5541   -0.2380   -2.8908 Cl  0  0  0  0  0  0  0  0  0  0  0  0
    5.2581    0.0811   -0.1833 Cl  0  0  0  0  0  0  0  0  0  0  0  0
   -5.2438    0.2691   -0.1657 Cl  0  0  0  0  0  0  0  0  0  0  0  0
    3.5727    0.3597    2.2079 O   0  0  0  0  0  0  0  0  0  0  0  0
    0.7346    0.0867   -0.0921 C   0  0  0  0  0  0  0  0  0  0  0  0
   -0.7167    0.0836   -0.1034 C   0  0  0  0  0  0  0  0  0  0  0  0
    1.4642    0.2261    1.0886 C   0  0  0  0  0  0  0  0  0  0  0  0
   -1.4611   -1.0893    0.0271 C   0  0  0  0  0  0  0  0  0  0  0  0
   -1.3677    1.3085   -0.2525 C   0  0  0  0  0  0  0  0  0  0  0  0
    1.3992   -0.0553   -1.3101 C   0  0  0  0  0  0  0  0  0  0  0  0
    2.8586    0.2234    1.0511 C   0  0  0  0  0  0  0  0  0  0  0  0
    2.7936   -0.0582   -1.3474 C   0  0  0  0  0  0  0  0  0  0  0  0
   -2.8550   -1.0372    0.0086 C   0  0  0  0  0  0  0  0  0  0  0  0
   -2.7614    1.3607   -0.2710 C   0  0  0  0  0  0  0  0  0  0  0  0
    3.5233    0.0812   -0.1669 C   0  0  0  0  0  0  0  0  0  0  0  0
   -3.5050    0.1878   -0.1403 C   0  0  0  0  0  0  0  0  0  0  0  0
   -0.7890    2.2252   -0.3543 H   0  0  0  0  0  0  0  0  0  0  0  0
    0.8314   -0.1644   -2.2326 H   0  0  0  0  0  0  0  0  0  0  0  0
    4.5204    0.3353    1.9902 H   0  0  0  0  0  0  0  0  0  0  0  0
  1 11  1  0  0  0  0
  2 12  1  0  0  0  0
  3 17  1  0  0  0  0
  4 18  1  0  0  0  0
  5 16  1  0  0  0  0
  6 19  1  0  0  0  0
  7 20  1  0  0  0  0
  8 15  1  0  0  0  0
  8 23  1  0  0  0  0
  9 10  1  0  0  0  0
  9 11  1  0  0  0  0
  9 14  2  0  0  0  0
 10 12  1  0  0  0  0
 10 13  2  0  0  0  0
 11 15  2  0  0  0  0
 12 17  2  0  0  0  0
 13 18  1  0  0  0  0
 13 21  1  0  0  0  0
 14 16  1  0  0  0  0
 14 22  1  0  0  0  0
 15 19  1  0  0  0  0
 16 19  2  0  0  0  0
 17 20  1  0  0  0  0
 18 20  2  0  0  0  0
M  END
> <PUBCHEM_COMPOUND_CID>
644183

> <PUBCHEM_CONFORMER_RMSD>
0.6

> <PUBCHEM_CONFORMER_DIVERSEORDER>
1
2

> <PUBCHEM_MMFF94_PARTIAL_CHARGES>
21
1 -0.18
11 0.18
12 0.18
13 -0.15
14 -0.15
15 0.08
16 0.18
17 0.18
18 0.18
19 0.18
2 -0.18
20 0.18
21 0.15
22 0.15
23 0.45
3 -0.18
4 -0.18
5 -0.18
6 -0.18
7 -0.18
8 -0.53

> <PUBCHEM_EFFECTIVE_ROTOR_COUNT>
1

> <PUBCHEM_PHARMACOPHORE_FEATURES>
3
1 8 donor
6 10 12 13 17 18 20 rings
6 9 11 14 15 16 19 rings

> <PUBCHEM_HEAVY_ATOM_COUNT>
20

> <PUBCHEM_ATOM_DEF_STEREO_COUNT>
0

> <PUBCHEM_ATOM_UDEF_STEREO_COUNT>
0

> <PUBCHEM_BOND_DEF_STEREO_COUNT>
0

> <PUBCHEM_BOND_UDEF_STEREO_COUNT>
0

> <PUBCHEM_ISOTOPIC_ATOM_COUNT>
0

> <PUBCHEM_COMPONENT_COUNT>
1

> <PUBCHEM_CACTVS_TAUTO_COUNT>
3

> <PUBCHEM_CONFORMER_ID>
0009D45700000001

> <PUBCHEM_MMFF94_ENERGY>
57.8914

> <PUBCHEM_FEATURE_SELFOVERLAP>
15.223

> <PUBCHEM_SHAPE_FINGERPRINT>
1100329 8 4797843125346041987
11471102 20 16298390136982326536
11582403 64 16524477305242727081
11796584 16 18264204876334744662
12236239 1 17489588965171381332
12390115 104 18118111692737014961
12403259 415 18040442100264723856
12553582 1 18126559029924576643
12788726 201 17414694502438468467
13134695 92 16225768540608114272
13140716 1 18268710511955409393
13538477 17 17917998235159506531
13583140 156 18041010539444760134
13911987 19 16878499009027741076
13965767 371 17484526989779083837
14251757 17 17822006561864860267
14386348 63 17821723927252222038
15219456 202 17603589590624636474
15342168 16 14691705646500808886
16752209 62 18271528611238149191
16945 1 18412260610477319991
17357779 13 16805599317615334272
18186145 218 17968651730591487593
19049666 15 17822568420896529827
19422 9 17561368374177716466
200 152 16272216283999660621
20279233 1 17822006506072516070
20510252 161 18335983086691061641
20600515 1 18409174281539139025
20645477 70 16660361519371473228
21065201 7 18409165528036580590
22112679 90 17846785112995820061
23175994 123 17240477005270663792
23366157 5 17628354089145291427
23402539 116 18412548678144486407
23526113 38 17676205801020552722
23557571 272 18260547844113932749
23559900 14 18261670493378917942
23598291 2 17418092113579348830
2838139 119 15359084067024346409
474 4 16343125919358296292
5265222 85 18336537211236120550
602551 16 18338239258612967330
6049 1 17894903018897802965
7615 1 17489593350343696221
77492 1 17489871535354176932
8272917 22 15984828185262745403

> <PUBCHEM_SHAPE_MULTIPOLES>
418.81
9.4
2.1
1.92
0.75
0.29
-0.25
-1.06
1.76
-3.68
0.17
3.06
-0.16
0.22

> <PUBCHEM_SHAPE_SELFOVERLAP>
848.078

> <PUBCHEM_SHAPE_VOLUME>
251.3

> <PUBCHEM_COORDINATE_TYPE>
2
5
10

$$$$

