4315
  -OEChem-06261200022D

 56 60  0     0  0  0  0  0  0999 V2000
   13.1891    0.1559    0.0000 O   0  0  0  0  0  0  0  0  0  0  0  0
   13.1891   -1.4535    0.0000 O   0  0  0  0  0  0  0  0  0  0  0  0
    7.9128    1.3512    0.0000 O   0  0  0  0  0  0  0  0  0  0  0  0
    4.4487    3.3512    0.0000 O   0  0  0  0  0  0  0  0  0  0  0  0
    6.1808    3.3512    0.0000 O   0  0  0  0  0  0  0  0  0  0  0  0
    5.3147   -0.1488    0.0000 N   0  0  0  0  0  0  0  0  0  0  0  0
    8.7788   -0.1488    0.0000 N   0  0  0  0  0  0  0  0  0  0  0  0
    5.3147    1.8512    0.0000 N   0  0  0  0  0  0  0  0  0  0  0  0
    4.4487   -1.6488    0.0000 N   0  0  0  0  0  0  0  0  0  0  0  0
    3.5827   -3.1488    0.0000 N   0  0  0  0  0  0  0  0  0  0  0  0
    5.3147   -3.1488    0.0000 N   0  0  0  0  0  0  0  0  0  0  0  0
    2.5000   -4.3512    0.0000 N   0  0  0  0  0  0  0  0  0  0  0  0
    6.1808    0.3512    0.0000 C   0  0  0  0  0  0  0  0  0  0  0  0
    7.0468   -0.1488    0.0000 C   0  0  0  0  0  0  0  0  0  0  0  0
    9.6448    0.3512    0.0000 C   0  0  0  0  0  0  0  0  0  0  0  0
   10.5109   -0.1488    0.0000 C   0  0  0  0  0  0  0  0  0  0  0  0
    6.1808    1.3512    0.0000 C   0  0  0  0  0  0  0  0  0  0  0  0
    7.9128    0.3512    0.0000 C   0  0  0  0  0  0  0  0  0  0  0  0
    4.4487    0.3512    0.0000 C   0  0  0  0  0  0  0  0  0  0  0  0
    5.3147   -1.1488    0.0000 C   0  0  0  0  0  0  0  0  0  0  0  0
   12.2429   -0.1488    0.0000 C   0  0  0  0  0  0  0  0  0  0  0  0
   11.3769    0.3512    0.0000 C   0  0  0  0  0  0  0  0  0  0  0  0
    4.4487    1.3512    0.0000 C   0  0  0  0  0  0  0  0  0  0  0  0
   12.2429   -1.1488    0.0000 C   0  0  0  0  0  0  0  0  0  0  0  0
   10.5109   -1.1488    0.0000 C   0  0  0  0  0  0  0  0  0  0  0  0
   11.3769   -1.6488    0.0000 C   0  0  0  0  0  0  0  0  0  0  0  0
    6.1808   -1.6488    0.0000 C   0  0  0  0  0  0  0  0  0  0  0  0
   13.7728   -0.6488    0.0000 C   0  0  0  0  0  0  0  0  0  0  0  0
    5.3147    2.8512    0.0000 C   0  0  0  0  0  0  0  0  0  0  0  0
    4.4487   -2.6488    0.0000 C   0  0  0  0  0  0  0  0  0  0  0  0
    6.1808   -2.6488    0.0000 C   0  0  0  0  0  0  0  0  0  0  0  0
    2.6691   -2.7420    0.0000 C   0  0  0  0  0  0  0  0  0  0  0  0
    3.4782   -4.1433    0.0000 C   0  0  0  0  0  0  0  0  0  0  0  0
    2.0000   -3.4852    0.0000 C   0  0  0  0  0  0  0  0  0  0  0  0
    4.4487    4.3512    0.0000 C   0  0  0  0  0  0  0  0  0  0  0  0
    6.6482   -0.6237    0.0000 H   0  0  0  0  0  0  0  0  0  0  0  0
    7.4453   -0.6237    0.0000 H   0  0  0  0  0  0  0  0  0  0  0  0
   10.0434    0.8262    0.0000 H   0  0  0  0  0  0  0  0  0  0  0  0
    9.2463    0.8262    0.0000 H   0  0  0  0  0  0  0  0  0  0  0  0
    6.7177    1.6612    0.0000 H   0  0  0  0  0  0  0  0  0  0  0  0
    8.7788   -0.7688    0.0000 H   0  0  0  0  0  0  0  0  0  0  0  0
    3.9118    0.0412    0.0000 H   0  0  0  0  0  0  0  0  0  0  0  0
   11.3769    0.9712    0.0000 H   0  0  0  0  0  0  0  0  0  0  0  0
    3.9118    1.6612    0.0000 H   0  0  0  0  0  0  0  0  0  0  0  0
    9.9739   -1.4588    0.0000 H   0  0  0  0  0  0  0  0  0  0  0  0
   11.3769   -2.2688    0.0000 H   0  0  0  0  0  0  0  0  0  0  0  0
    6.7177   -1.3388    0.0000 H   0  0  0  0  0  0  0  0  0  0  0  0
   14.2336   -1.0635    0.0000 H   0  0  0  0  0  0  0  0  0  0  0  0
   14.2336   -0.2341    0.0000 H   0  0  0  0  0  0  0  0  0  0  0  0
    6.7177   -2.9588    0.0000 H   0  0  0  0  0  0  0  0  0  0  0  0
    2.5402   -2.1356    0.0000 H   0  0  0  0  0  0  0  0  0  0  0  0
    3.9389   -4.5582    0.0000 H   0  0  0  0  0  0  0  0  0  0  0  0
    1.3834   -3.4204    0.0000 H   0  0  0  0  0  0  0  0  0  0  0  0
    5.0687    4.3512    0.0000 H   0  0  0  0  0  0  0  0  0  0  0  0
    4.4487    4.9712    0.0000 H   0  0  0  0  0  0  0  0  0  0  0  0
    3.8287    4.3512    0.0000 H   0  0  0  0  0  0  0  0  0  0  0  0
  1 21  1  0  0  0  0
  1 28  1  0  0  0  0
  2 24  1  0  0  0  0
  2 28  1  0  0  0  0
  3 18  2  0  0  0  0
  4 29  1  0  0  0  0
  4 35  1  0  0  0  0
  5 29  2  0  0  0  0
  6 13  1  0  0  0  0
  6 19  1  0  0  0  0
  6 20  1  0  0  0  0
  7 15  1  0  0  0  0
  7 18  1  0  0  0  0
  7 41  1  0  0  0  0
  8 17  1  0  0  0  0
  8 23  1  0  0  0  0
  8 29  1  0  0  0  0
  9 20  2  0  0  0  0
  9 30  1  0  0  0  0
 10 30  1  0  0  0  0
 10 32  1  0  0  0  0
 10 33  1  0  0  0  0
 11 30  2  0  0  0  0
 11 31  1  0  0  0  0
 12 33  2  0  0  0  0
 12 34  1  0  0  0  0
 13 14  1  0  0  0  0
 13 17  2  0  0  0  0
 14 18  1  0  0  0  0
 14 36  1  0  0  0  0
 14 37  1  0  0  0  0
 15 16  1  0  0  0  0
 15 38  1  0  0  0  0
 15 39  1  0  0  0  0
 16 22  2  0  0  0  0
 16 25  1  0  0  0  0
 17 40  1  0  0  0  0
 19 23  2  0  0  0  0
 19 42  1  0  0  0  0
 20 27  1  0  0  0  0
 21 22  1  0  0  0  0
 21 24  2  0  0  0  0
 22 43  1  0  0  0  0
 23 44  1  0  0  0  0
 24 26  1  0  0  0  0
 25 26  2  0  0  0  0
 25 45  1  0  0  0  0
 26 46  1  0  0  0  0
 27 31  2  0  0  0  0
 27 47  1  0  0  0  0
 28 48  1  0  0  0  0
 28 49  1  0  0  0  0
 31 50  1  0  0  0  0
 32 34  2  0  0  0  0
 32 51  1  0  0  0  0
 33 52  1  0  0  0  0
 34 53  1  0  0  0  0
 35 54  1  0  0  0  0
 35 55  1  0  0  0  0
 35 56  1  0  0  0  0
M  END
> <PUBCHEM_COMPOUND_CID>
4315

> <PUBCHEM_COMPOUND_CANONICALIZED>
1

> <PUBCHEM_CACTVS_COMPLEXITY>
839

> <PUBCHEM_CACTVS_HBOND_ACCEPTOR>
9

> <PUBCHEM_CACTVS_HBOND_DONOR>
1

> <PUBCHEM_CACTVS_ROTATABLE_BOND>
7

> <PUBCHEM_CACTVS_SUBSKEYS>
AAADceB7uAAAAAAAAAAAAAAAAAAAAWJAAAA8QIAAAAAAAEgB8AAAHgAQAAAADAzBmgc/vpfMFACoAjd3fACCiC0xMqAJ2KE+/JidbqrE+Vu0NCps1hPOqCew0BIOIAABAAAAQABAAAIAAACAAAAAAAAAAA==

> <PUBCHEM_IUPAC_OPENEYE_NAME>
methyl 3-[2-(1,3-benzodioxol-5-ylmethylamino)-2-oxo-ethyl]-4-(2-imidazol-1-ylpyrimidin-4-yl)pyrazine-1-carboxylate

> <PUBCHEM_IUPAC_CAS_NAME>
3-[2-(1,3-benzodioxol-5-ylmethylamino)-2-oxoethyl]-4-[2-(1-imidazolyl)-4-pyrimidinyl]-1-pyrazinecarboxylic acid methyl ester

> <PUBCHEM_IUPAC_NAME>
methyl 3-[2-(1,3-benzodioxol-5-ylmethylamino)-2-oxoethyl]-4-(2-imidazol-1-ylpyrimidin-4-yl)pyrazine-1-carboxylate

> <PUBCHEM_IUPAC_SYSTEMATIC_NAME>
methyl 3-[2-(1,3-benzodioxol-5-ylmethylamino)-2-oxidanylidene-ethyl]-4-(2-imidazol-1-ylpyrimidin-4-yl)pyrazine-1-carboxylate

> <PUBCHEM_IUPAC_TRADITIONAL_NAME>
4-(2-imidazol-1-ylpyrimidin-4-yl)-3-[2-keto-2-(piperonylamino)ethyl]pyrazine-1-carboxylic acid methyl ester

> <PUBCHEM_IUPAC_INCHI>
InChI=1S/C23H21N7O5/c1-33-23(32)28-8-9-30(20-4-5-25-22(27-20)29-7-6-24-14-29)17(13-28)11-21(31)26-12-16-2-3-18-19(10-16)35-15-34-18/h2-10,13-14H,11-12,15H2,1H3,(H,26,31)

> <PUBCHEM_IUPAC_INCHIKEY>
JBZQISRUGZHGRE-UHFFFAOYSA-N

> <PUBCHEM_XLOGP3_AA>
1.2

> <PUBCHEM_EXACT_MASS>
475.160417

> <PUBCHEM_MOLECULAR_FORMULA>
C23H21N7O5

> <PUBCHEM_MOLECULAR_WEIGHT>
475.45674

> <PUBCHEM_OPENEYE_CAN_SMILES>
COC(=O)N1C=CN(C(=C1)CC(=O)NCC2=CC3=C(C=C2)OCO3)C4=NC(=NC=C4)N5C=CN=C5

> <PUBCHEM_OPENEYE_ISO_SMILES>
COC(=O)N1C=CN(C(=C1)CC(=O)NCC2=CC3=C(C=C2)OCO3)C4=NC(=NC=C4)N5C=CN=C5

> <PUBCHEM_CACTVS_TPSA>
124

> <PUBCHEM_MONOISOTOPIC_WEIGHT>
475.160417

> <PUBCHEM_TOTAL_CHARGE>
0

> <PUBCHEM_HEAVY_ATOM_COUNT>
35

> <PUBCHEM_ATOM_DEF_STEREO_COUNT>
0

> <PUBCHEM_ATOM_UDEF_STEREO_COUNT>
0

> <PUBCHEM_BOND_DEF_STEREO_COUNT>
0

> <PUBCHEM_BOND_UDEF_STEREO_COUNT>
0

> <PUBCHEM_ISOTOPIC_ATOM_COUNT>
0

> <PUBCHEM_COMPONENT_COUNT>
1

> <PUBCHEM_CACTVS_TAUTO_COUNT>
2

> <PUBCHEM_COORDINATE_TYPE>
1
5
255

> <PUBCHEM_BONDANNOTATIONS>
10  32  8
10  33  8
11  30  8
11  31  8
12  33  8
12  34  8
16  22  8
16  25  8
20  27  8
21  22  8
21  24  8
24  26  8
25  26  8
27  31  8
32  34  8
9  20  8
9  30  8

$$$$

