442739
  -OEChem-07051212593D

 23 24  0     0  0  0  0  0  0999 V2000
    1.3367    2.7105    0.0200 O   0  0  0  0  0  0  0  0  0  0  0  0
   -2.5041   -2.0136   -0.0034 O   0  0  0  0  0  0  0  0  0  0  0  0
    0.0434   -2.6065    0.0060 O   0  0  0  0  0  0  0  0  0  0  0  0
    2.5698   -1.9128    0.0097 O   0  0  0  0  0  0  0  0  0  0  0  0
   -0.3297    0.9842    0.0013 C   0  0  0  0  0  0  0  0  0  0  0  0
   -0.7320   -0.3572    0.0002 C   0  0  0  0  0  0  0  0  0  0  0  0
    1.1044    1.3479    0.0041 C   0  0  0  0  0  0  0  0  0  0  0  0
    2.0915    0.4296   -0.0035 C   0  0  0  0  0  0  0  0  0  0  0  0
    0.2909   -1.4105    0.0026 C   0  0  0  0  0  0  0  0  0  0  0  0
    1.7362   -1.0173    0.0021 C   0  0  0  0  0  0  0  0  0  0  0  0
   -2.0860   -0.7164   -0.0027 C   0  0  0  0  0  0  0  0  0  0  0  0
   -1.3364    1.9657   -0.0010 C   0  0  0  0  0  0  0  0  0  0  0  0
    3.5683    0.7085   -0.0263 C   0  0  0  0  0  0  0  0  0  0  0  0
   -3.0636    0.2741   -0.0048 C   0  0  0  0  0  0  0  0  0  0  0  0
   -2.6895    1.6139   -0.0040 C   0  0  0  0  0  0  0  0  0  0  0  0
   -1.0908    3.0252   -0.0008 H   0  0  0  0  0  0  0  0  0  0  0  0
    3.8181    1.7602   -0.1805 H   0  0  0  0  0  0  0  0  0  0  0  0
    4.0465    0.1546   -0.8420 H   0  0  0  0  0  0  0  0  0  0  0  0
    4.0249    0.3926    0.9177 H   0  0  0  0  0  0  0  0  0  0  0  0
   -4.1176    0.0103   -0.0072 H   0  0  0  0  0  0  0  0  0  0  0  0
   -3.4499    2.3898   -0.0058 H   0  0  0  0  0  0  0  0  0  0  0  0
    2.2868    2.8833    0.0986 H   0  0  0  0  0  0  0  0  0  0  0  0
   -1.7468   -2.6184   -0.0042 H   0  0  0  0  0  0  0  0  0  0  0  0
  1  7  1  0  0  0  0
  1 22  1  0  0  0  0
  2 11  1  0  0  0  0
  2 23  1  0  0  0  0
  3  9  2  0  0  0  0
  4 10  2  0  0  0  0
  5  6  2  0  0  0  0
  5  7  1  0  0  0  0
  5 12  1  0  0  0  0
  6  9  1  0  0  0  0
  6 11  1  0  0  0  0
  7  8  2  0  0  0  0
  8 10  1  0  0  0  0
  8 13  1  0  0  0  0
  9 10  1  0  0  0  0
 11 14  2  0  0  0  0
 12 15  2  0  0  0  0
 12 16  1  0  0  0  0
 13 17  1  0  0  0  0
 13 18  1  0  0  0  0
 13 19  1  0  0  0  0
 14 15  1  0  0  0  0
 14 20  1  0  0  0  0
 15 21  1  0  0  0  0
M  END
> <PUBCHEM_COMPOUND_CID>
442739

> <PUBCHEM_CONFORMER_RMSD>
0.4

> <PUBCHEM_CONFORMER_DIVERSEORDER>
1

> <PUBCHEM_MMFF94_PARTIAL_CHARGES>
20
1 -0.53
10 0.56
11 0.08
12 -0.15
13 0.14
14 -0.15
15 -0.15
16 0.15
2 -0.53
20 0.15
21 0.15
22 0.45
23 0.45
3 -0.57
4 -0.57
5 0.03
6 0.09
7 0.05
8 -0.12
9 0.48

> <PUBCHEM_EFFECTIVE_ROTOR_COUNT>
0

> <PUBCHEM_PHARMACOPHORE_FEATURES>
6
1 1 donor
1 2 donor
1 3 acceptor
1 4 acceptor
6 5 6 11 12 14 15 rings
6 5 6 7 8 9 10 rings

> <PUBCHEM_HEAVY_ATOM_COUNT>
15

> <PUBCHEM_ATOM_DEF_STEREO_COUNT>
0

> <PUBCHEM_ATOM_UDEF_STEREO_COUNT>
0

> <PUBCHEM_BOND_DEF_STEREO_COUNT>
0

> <PUBCHEM_BOND_UDEF_STEREO_COUNT>
0

> <PUBCHEM_ISOTOPIC_ATOM_COUNT>
0

> <PUBCHEM_COMPONENT_COUNT>
1

> <PUBCHEM_CACTVS_TAUTO_COUNT>
51

> <PUBCHEM_CONFORMER_ID>
0006C17300000001

> <PUBCHEM_MMFF94_ENERGY>
38.544

> <PUBCHEM_FEATURE_SELFOVERLAP>
30.478

> <PUBCHEM_SHAPE_FINGERPRINT>
10967382 1 18410574032411935141
11132069 177 18411143566861574672
11206711 2 18411697643101365365
11471102 20 18339084903609073997
12382932 28 18409454716916934344
13140716 1 18266741470622611986
13380535 21 18338225054897240652
13380535 76 18411704322044451083
13897977 150 18410859849822375045
14790565 3 16181270940329090053
15196674 1 18410856602589469029
15536298 74 18261675977936096926
15775835 57 18409722980368552833
16945 1 18338517417689860712
17990270 104 18411702088450447730
193761 8 18266740181868548707
20510252 161 18189332372956271120
21501502 16 18410576222956051887
2334 1 18410575110686148738
23463225 33 18269558398043508874
23552423 10 18341611465017309645
23559900 14 18189894391903953038
25 1 17407973540525135853
2748010 2 18338234972214084582
2897 32 18339642248076117149
335352 9 17978511162952915676
528886 8 18410299115887267385
53812653 166 18334299755816482120
54173680 148 18052255098933513482
7364860 26 18190743244117204790

> <PUBCHEM_SHAPE_MULTIPOLES>
285.22
4.58
2.7
0.59
0.55
0.26
0
-0.4
0.02
0.06
-0.01
-0.01
-0.03
0

> <PUBCHEM_SHAPE_SELFOVERLAP>
629.301

> <PUBCHEM_SHAPE_VOLUME>
152.9

> <PUBCHEM_COORDINATE_TYPE>
2
5
10

$$$$

