440296
  -OEChem-07051212493D

 57 61  0     1  0  0  0  0  0999 V2000
   -2.1370   -1.6319   -0.8113 O   0  0  0  0  0  0  0  0  0  0  0  0
   -1.7273   -1.6167    2.0521 O   0  0  0  0  0  0  0  0  0  0  0  0
    0.4564   -3.0537    0.9690 O   0  0  0  0  0  0  0  0  0  0  0  0
   -0.7994   -3.8530   -0.7977 O   0  0  0  0  0  0  0  0  0  0  0  0
    5.2841    1.3392    0.9818 O   0  0  0  0  0  0  0  0  0  0  0  0
   -2.1709    1.2235   -1.3149 N   0  0  2  0  0  0  0  0  0  0  0  0
    1.5204   -1.0871   -0.9441 N   0  0  2  0  0  0  0  0  0  0  0  0
    0.0503    0.8514   -0.9901 C   0  0  1  0  0  0  0  0  0  0  0  0
   -1.1795    1.3728   -0.2356 C   0  0  2  0  0  0  0  0  0  0  0  0
   -1.5827    0.6167    1.0704 C   0  0  1  0  0  0  0  0  0  0  0  0
    0.1092   -0.7230   -1.1821 C   0  0  2  0  0  0  0  0  0  0  0  0
   -0.8387   -1.5065   -0.2277 C   0  0  1  0  0  0  0  0  0  0  0  0
   -0.0923    1.5546   -2.3626 C   0  0  0  0  0  0  0  0  0  0  0  0
   -0.9677   -0.8181    1.1381 C   0  0  2  0  0  0  0  0  0  0  0  0
    1.3879    1.1483   -0.3702 C   0  0  0  0  0  0  0  0  0  0  0  0
   -1.5913    1.8137   -2.5155 C   0  0  0  0  0  0  0  0  0  0  0  0
   -1.0487    1.4050    2.2935 C   0  0  0  0  0  0  0  0  0  0  0  0
    2.1929    0.0075   -0.4216 C   0  0  0  0  0  0  0  0  0  0  0  0
   -3.1065    0.6186    1.2316 C   0  0  0  0  0  0  0  0  0  0  0  0
   -3.4871    1.7301   -0.9621 C   0  0  0  0  0  0  0  0  0  0  0  0
   -3.9540    1.1492    0.3373 C   0  0  0  0  0  0  0  0  0  0  0  0
   -0.4111   -2.9435   -0.0771 C   0  0  0  0  0  0  0  0  0  0  0  0
    1.8695    2.3523    0.1280 C   0  0  0  0  0  0  0  0  0  0  0  0
    2.2058   -2.1233   -1.6828 C   0  0  0  0  0  0  0  0  0  0  0  0
   -1.6178    2.8042    2.3207 C   0  0  0  0  0  0  0  0  0  0  0  0
    3.5072    0.0667    0.0232 C   0  0  0  0  0  0  0  0  0  0  0  0
    3.1839    2.4067    0.5890 C   0  0  0  0  0  0  0  0  0  0  0  0
    3.9995    1.2704    0.5343 C   0  0  0  0  0  0  0  0  0  0  0  0
    0.9446   -4.3741    1.2263 C   0  0  0  0  0  0  0  0  0  0  0  0
   -1.0545    2.4448   -0.0659 H   0  0  0  0  0  0  0  0  0  0  0  0
   -0.1580   -0.9842   -2.2153 H   0  0  0  0  0  0  0  0  0  0  0  0
    0.3029    0.9543   -3.1896 H   0  0  0  0  0  0  0  0  0  0  0  0
    0.4374    2.5156   -2.3831 H   0  0  0  0  0  0  0  0  0  0  0  0
    0.0312   -0.7419    1.5857 H   0  0  0  0  0  0  0  0  0  0  0  0
   -1.7738    2.8932   -2.5797 H   0  0  0  0  0  0  0  0  0  0  0  0
   -1.9886    1.3396   -3.4184 H   0  0  0  0  0  0  0  0  0  0  0  0
    0.0453    1.4606    2.2841 H   0  0  0  0  0  0  0  0  0  0  0  0
   -1.3222    0.8923    3.2256 H   0  0  0  0  0  0  0  0  0  0  0  0
   -3.5263    0.2188    2.1523 H   0  0  0  0  0  0  0  0  0  0  0  0
   -4.1994    1.4434   -1.7443 H   0  0  0  0  0  0  0  0  0  0  0  0
   -3.4991    2.8242   -0.8860 H   0  0  0  0  0  0  0  0  0  0  0  0
   -5.0182    1.1655    0.5516 H   0  0  0  0  0  0  0  0  0  0  0  0
    1.2474    3.2406    0.1506 H   0  0  0  0  0  0  0  0  0  0  0  0
   -2.7106   -2.1381   -0.2133 H   0  0  0  0  0  0  0  0  0  0  0  0
    2.7376   -1.6991   -2.5413 H   0  0  0  0  0  0  0  0  0  0  0  0
    1.5037   -2.8683   -2.0692 H   0  0  0  0  0  0  0  0  0  0  0  0
    2.9257   -2.6483   -1.0466 H   0  0  0  0  0  0  0  0  0  0  0  0
   -2.5774   -1.8460    1.6444 H   0  0  0  0  0  0  0  0  0  0  0  0
   -1.1849    3.4753    1.5759 H   0  0  0  0  0  0  0  0  0  0  0  0
   -2.7068    2.8608    2.2614 H   0  0  0  0  0  0  0  0  0  0  0  0
   -1.3548    3.2565    3.2858 H   0  0  0  0  0  0  0  0  0  0  0  0
    4.1485   -0.8091   -0.0093 H   0  0  0  0  0  0  0  0  0  0  0  0
    3.5689    3.3442    0.9818 H   0  0  0  0  0  0  0  0  0  0  0  0
    0.1160   -5.0382    1.4898 H   0  0  0  0  0  0  0  0  0  0  0  0
    1.6358   -4.3216    2.0716 H   0  0  0  0  0  0  0  0  0  0  0  0
    1.4845   -4.7557    0.3545 H   0  0  0  0  0  0  0  0  0  0  0  0
    5.4591    2.2415    1.3003 H   0  0  0  0  0  0  0  0  0  0  0  0
  1 12  1  0  0  0  0
  1 44  1  0  0  0  0
  2 14  1  0  0  0  0
  2 48  1  0  0  0  0
  3 22  1  0  0  0  0
  3 29  1  0  0  0  0
  4 22  2  0  0  0  0
  5 28  1  0  0  0  0
  5 57  1  0  0  0  0
  6  9  1  0  0  0  0
  6 16  1  0  0  0  0
  6 20  1  0  0  0  0
  7 11  1  0  0  0  0
  7 18  1  0  0  0  0
  7 24  1  0  0  0  0
  8  9  1  0  0  0  0
  8 11  1  0  0  0  0
  8 13  1  0  0  0  0
  8 15  1  0  0  0  0
  9 10  1  0  0  0  0
  9 30  1  0  0  0  0
 10 14  1  0  0  0  0
 10 17  1  0  0  0  0
 10 19  1  0  0  0  0
 11 12  1  0  0  0  0
 11 31  1  0  0  0  0
 12 14  1  0  0  0  0
 12 22  1  0  0  0  0
 13 16  1  0  0  0  0
 13 32  1  0  0  0  0
 13 33  1  0  0  0  0
 14 34  1  0  0  0  0
 15 18  2  0  0  0  0
 15 23  1  0  0  0  0
 16 35  1  0  0  0  0
 16 36  1  0  0  0  0
 17 25  1  0  0  0  0
 17 37  1  0  0  0  0
 17 38  1  0  0  0  0
 18 26  1  0  0  0  0
 19 21  2  0  0  0  0
 19 39  1  0  0  0  0
 20 21  1  0  0  0  0
 20 40  1  0  0  0  0
 20 41  1  0  0  0  0
 21 42  1  0  0  0  0
 23 27  2  0  0  0  0
 23 43  1  0  0  0  0
 24 45  1  0  0  0  0
 24 46  1  0  0  0  0
 24 47  1  0  0  0  0
 25 49  1  0  0  0  0
 25 50  1  0  0  0  0
 25 51  1  0  0  0  0
 26 28  2  0  0  0  0
 26 52  1  0  0  0  0
 27 28  1  0  0  0  0
 27 53  1  0  0  0  0
 29 54  1  0  0  0  0
 29 55  1  0  0  0  0
 29 56  1  0  0  0  0
M  END
> <PUBCHEM_COMPOUND_CID>
440296

> <PUBCHEM_CONFORMER_RMSD>
0.8

> <PUBCHEM_CONFORMER_DIVERSEORDER>
1
5
6
3
4
2

> <PUBCHEM_MMFF94_PARTIAL_CHARGES>
34
1 -0.68
10 0.14
11 0.37
12 0.34
14 0.28
15 -0.14
16 0.27
18 0.1
19 -0.29
2 -0.68
20 0.41
21 -0.29
22 0.66
23 -0.15
24 0.37
26 -0.15
27 -0.15
28 0.08
29 0.28
3 -0.43
39 0.15
4 -0.57
42 0.15
43 0.15
44 0.4
48 0.4
5 -0.53
52 0.15
53 0.15
57 0.45
6 -0.81
7 -0.84
8 0.14
9 0.27

> <PUBCHEM_EFFECTIVE_ROTOR_COUNT>
4.2

> <PUBCHEM_PHARMACOPHORE_FEATURES>
14
1 1 acceptor
1 1 donor
1 2 acceptor
1 2 donor
1 25 hydrophobe
1 4 acceptor
1 5 donor
1 6 cation
1 7 cation
5 6 8 9 13 16 rings
5 7 8 11 15 18 rings
6 15 18 23 26 27 28 rings
6 6 9 10 19 20 21 rings
6 8 9 10 11 12 14 rings

> <PUBCHEM_HEAVY_ATOM_COUNT>
29

> <PUBCHEM_ATOM_DEF_STEREO_COUNT>
6

> <PUBCHEM_ATOM_UDEF_STEREO_COUNT>
0

> <PUBCHEM_BOND_DEF_STEREO_COUNT>
0

> <PUBCHEM_BOND_UDEF_STEREO_COUNT>
0

> <PUBCHEM_ISOTOPIC_ATOM_COUNT>
0

> <PUBCHEM_COMPONENT_COUNT>
1

> <PUBCHEM_CACTVS_TAUTO_COUNT>
3

> <PUBCHEM_CONFORMER_ID>
0006B7E800000001

> <PUBCHEM_MMFF94_ENERGY>
117.7504

> <PUBCHEM_FEATURE_SELFOVERLAP>
71.759

> <PUBCHEM_SHAPE_FINGERPRINT>
10863032 1 17894629257982984541
10948715 1 18334577953622356405
11370993 70 18408322181132833425
11578080 2 5892913555016778930
11582403 64 16482242851706419053
11640471 11 16587738767772565224
12156800 1 17612921073096366867
12160290 23 18049416189653529183
12422481 6 18127101149375809851
12553582 1 17111274768158979662
12592029 89 18269567181077692377
12633257 1 18340209600930472160
13004483 165 17617110109313612038
13140716 1 18411692214278637611
13994607 96 17532929407526703280
14223421 5 17757264878170835852
14787075 74 18114187380806838709
14955137 171 16744755801398130963
16945 1 17750494304230365933
17492 54 16732994132485440841
20600515 1 17836359354757555174
20905425 154 17485363705453292143
21033648 29 18268169654929623972
21756936 100 17243288315513531312
22149856 69 14567586482896990209
23419403 2 18119499211200255783
23559900 14 18040712572326116416
238 59 17983875650267731133
25222932 49 15185089344946032449
2748010 2 18269812316267695847
3027735 51 18194987165827476086
3380486 77 17624957358197977803
35225 105 17831260992321950562
392239 28 18115012027370180411
404807 14 14062581839808538708
4340502 62 18334006203803178609
5265222 85 18060412548295111278
5845 1 16379123796770480703
81228 2 18126564509801394326
9981440 41 16304341656201212344

> <PUBCHEM_SHAPE_MULTIPOLES>
557.5
5.59
4.18
2.17
3.02
4.79
0.11
-4.1
-1.16
1.59
-1.06
-1.13
-0.76
0.57

> <PUBCHEM_SHAPE_SELFOVERLAP>
1236.932

> <PUBCHEM_SHAPE_VOLUME>
299.4

> <PUBCHEM_COORDINATE_TYPE>
2
5
10

$$$$

