47205518
  -OEChem-06241222593D

 38 38  0     1  0  0  0  0  0999 V2000
    3.6626    1.4590   -0.2697 S   0  0  0  0  0  0  0  0  0  0  0  0
    3.8994    1.6920    1.1414 O   0  0  0  0  0  0  0  0  0  0  0  0
    4.6586    1.8086   -1.2632 O   0  0  0  0  0  0  0  0  0  0  0  0
    2.0190   -0.1435    1.5601 O   0  0  0  0  0  0  0  0  0  0  0  0
   -5.5950    0.5723   -0.9586 O   0  0  0  0  0  0  0  0  0  0  0  0
    1.2088   -1.6036   -0.0439 N   0  0  0  0  0  0  0  0  0  0  0  0
   -4.7373    2.2930    0.2913 N   0  0  0  0  0  0  0  0  0  0  0  0
    3.2676   -0.2604   -0.4778 C   0  0  2  0  0  0  0  0  0  0  0  0
    2.1144   -0.6533    0.4388 C   0  0  0  0  0  0  0  0  0  0  0  0
    0.0728   -2.0722    0.7411 C   0  0  0  0  0  0  0  0  0  0  0  0
    4.4919   -1.1154   -0.1885 C   0  0  0  0  0  0  0  0  0  0  0  0
   -1.1644   -1.2636    0.4768 C   0  0  0  0  0  0  0  0  0  0  0  0
    2.1468    2.2731   -0.7089 C   0  0  0  0  0  0  0  0  0  0  0  0
    1.3311   -2.2002   -1.3717 C   0  0  0  0  0  0  0  0  0  0  0  0
   -1.2909    0.0152    1.0193 C   0  0  0  0  0  0  0  0  0  0  0  0
   -2.1869   -1.7909   -0.3121 C   0  0  0  0  0  0  0  0  0  0  0  0
   -2.4397    0.7669    0.7727 C   0  0  0  0  0  0  0  0  0  0  0  0
   -3.3360   -1.0393   -0.5584 C   0  0  0  0  0  0  0  0  0  0  0  0
   -3.4624    0.2396   -0.0159 C   0  0  0  0  0  0  0  0  0  0  0  0
   -4.6605    1.0229   -0.2728 C   0  0  0  0  0  0  0  0  0  0  0  0
    2.9920   -0.3496   -1.5320 H   0  0  0  0  0  0  0  0  0  0  0  0
   -0.0903   -3.1415    0.5618 H   0  0  0  0  0  0  0  0  0  0  0  0
    0.3211   -1.9854    1.8066 H   0  0  0  0  0  0  0  0  0  0  0  0
    4.8473   -0.9685    0.8378 H   0  0  0  0  0  0  0  0  0  0  0  0
    4.2726   -2.1814   -0.3042 H   0  0  0  0  0  0  0  0  0  0  0  0
    5.3171   -0.8657   -0.8634 H   0  0  0  0  0  0  0  0  0  0  0  0
    2.3248    3.3505   -0.6824 H   0  0  0  0  0  0  0  0  0  0  0  0
    1.8634    1.9713   -1.7190 H   0  0  0  0  0  0  0  0  0  0  0  0
    1.3663    2.0147    0.0074 H   0  0  0  0  0  0  0  0  0  0  0  0
    2.3706   -2.4417   -1.6010 H   0  0  0  0  0  0  0  0  0  0  0  0
    0.9531   -1.4834   -2.1068 H   0  0  0  0  0  0  0  0  0  0  0  0
    0.7505   -3.1247   -1.4416 H   0  0  0  0  0  0  0  0  0  0  0  0
   -0.5111    0.4387    1.6447 H   0  0  0  0  0  0  0  0  0  0  0  0
   -2.0998   -2.7852   -0.7422 H   0  0  0  0  0  0  0  0  0  0  0  0
   -2.4711    1.7497    1.2274 H   0  0  0  0  0  0  0  0  0  0  0  0
   -4.1184   -1.4717   -1.1765 H   0  0  0  0  0  0  0  0  0  0  0  0
   -5.5664    2.8571    0.1325 H   0  0  0  0  0  0  0  0  0  0  0  0
   -4.0283    2.7338    0.8628 H   0  0  0  0  0  0  0  0  0  0  0  0
  1  2  2  0  0  0  0
  1  3  2  0  0  0  0
  1  8  1  0  0  0  0
  1 13  1  0  0  0  0
  4  9  2  0  0  0  0
  5 20  2  0  0  0  0
  6  9  1  0  0  0  0
  6 10  1  0  0  0  0
  6 14  1  0  0  0  0
  7 20  1  0  0  0  0
  7 37  1  0  0  0  0
  7 38  1  0  0  0  0
  8  9  1  0  0  0  0
  8 11  1  0  0  0  0
  8 21  1  0  0  0  0
 10 12  1  0  0  0  0
 10 22  1  0  0  0  0
 10 23  1  0  0  0  0
 11 24  1  0  0  0  0
 11 25  1  0  0  0  0
 11 26  1  0  0  0  0
 12 15  2  0  0  0  0
 12 16  1  0  0  0  0
 13 27  1  0  0  0  0
 13 28  1  0  0  0  0
 13 29  1  0  0  0  0
 14 30  1  0  0  0  0
 14 31  1  0  0  0  0
 14 32  1  0  0  0  0
 15 17  1  0  0  0  0
 15 33  1  0  0  0  0
 16 18  2  0  0  0  0
 16 34  1  0  0  0  0
 17 19  2  0  0  0  0
 17 35  1  0  0  0  0
 18 19  1  0  0  0  0
 18 36  1  0  0  0  0
 19 20  1  0  0  0  0
M  END
> <PUBCHEM_COMPOUND_CID>
47205518

> <PUBCHEM_CONFORMER_RMSD>
0.8

> <PUBCHEM_CONFORMER_DIVERSEORDER>
5
221
136
166
152
45
239
253
268
320
281
330
259
227
25
179
178
235
207
313
72
319
283
242
255
305
223
324
95
188
323
35
332
82
161
274
92
237
125
290
302
230
287
334
44
243
202
165
193
317
322
216
121
300
185
110
314
196
285
33
233
224
195
310
329
123
198
251
292
325
225
299
168
138
267
199
132
38
215
43
280
228
286
203
143
170
309
62
338
133
192
306
213
245
119
244
28
182
158
12
175
240
254
293
159
109
284
127
148
311
78
265
256
112
146
71
204
180
108
301
18
210
206
160
234
219
298
218
266
308
111
93
23
155
294
99
83
248
55
257
295
149
141
277
183
100
238
102
269
337
32
79
122
205
261
29
321
297
214
105
140
50
96
84
116
56
326
27
144
327
333
275
89
184
154
296
252
21
57
40
67
115
150
42
212
270
20
61
68
247
90
54
63
258
304
177
48
272
120
273
271
163
46
58
66
13
209
201
88
241
307
331
8
126
114
74
249
3
236
97
276
303
31
26
197
98
64
59
91
129
7
139
17
189
186
232
289
340
190
336
142
176
191
174
222
9
282
85
70
162
118
22
87
41
147
291
135
339
260
229
172
69
76
181
194
231
104
16
153
101
6
107
117
217
211
4
335
47
145
15
24
167
52
49
278
279
128
263
103
14
328
37
157
36
80
86
39
312
318
130
134
19
106
77
1
208
164
220
30
10
113
11
316
246
151
156
200
81
124
226
34
187
2
173
60
169
315
262
137
288
171
73
264
250
65
75
131
53
51
94

> <PUBCHEM_MMFF94_PARTIAL_CHARGES>
25
1 1.09
10 0.44
12 -0.14
13 0.11
14 0.3
15 -0.15
16 -0.15
17 -0.15
18 -0.15
19 0.09
2 -0.65
20 0.54
3 -0.65
33 0.15
34 0.15
35 0.15
36 0.15
37 0.37
38 0.37
4 -0.57
5 -0.57
6 -0.66
7 -0.8
8 0.17
9 0.57

> <PUBCHEM_EFFECTIVE_ROTOR_COUNT>
6

> <PUBCHEM_PHARMACOPHORE_FEATURES>
6
1 2 acceptor
1 3 acceptor
1 4 acceptor
1 5 acceptor
1 7 donor
6 12 15 16 17 18 19 rings

> <PUBCHEM_HEAVY_ATOM_COUNT>
20

> <PUBCHEM_ATOM_DEF_STEREO_COUNT>
0

> <PUBCHEM_ATOM_UDEF_STEREO_COUNT>
1

> <PUBCHEM_BOND_DEF_STEREO_COUNT>
0

> <PUBCHEM_BOND_UDEF_STEREO_COUNT>
0

> <PUBCHEM_ISOTOPIC_ATOM_COUNT>
0

> <PUBCHEM_COMPONENT_COUNT>
1

> <PUBCHEM_CACTVS_TAUTO_COUNT>
2

> <PUBCHEM_CONFORMER_ID>
02D04C8E00000005

> <PUBCHEM_MMFF94_ENERGY>
51.7402

> <PUBCHEM_FEATURE_SELFOVERLAP>
30.472

> <PUBCHEM_SHAPE_MULTIPOLES>
382
10.62
2.57
1.15
4.68
0.3
-0.05
6.25
2.27
-0.79
0.41
-0.44
-0.02
-0.24

> <PUBCHEM_SHAPE_SELFOVERLAP>
772.764

> <PUBCHEM_SHAPE_VOLUME>
224.9

> <PUBCHEM_COORDINATE_TYPE>
2
5
10

$$$$

