12261
  -OEChem-06261206443D

 17 16  0     1  0  0  0  0  0999 V2000
    1.6390   -1.1076   -1.1139 Cl  0  0  0  0  0  0  0  0  0  0  0  0
   -1.6427   -1.1502    1.0805 Cl  0  0  0  0  0  0  0  0  0  0  0  0
   -0.0011    0.7537   -0.0244 C   0  0  0  0  0  0  0  0  0  0  0  0
    1.2613   -0.0618    0.2966 C   0  0  2  0  0  0  0  0  0  0  0  0
   -1.2687   -0.0713   -0.2962 C   0  0  2  0  0  0  0  0  0  0  0  0
    2.4797    0.7992    0.6048 C   0  0  0  0  0  0  0  0  0  0  0  0
   -2.4674    0.8379   -0.5475 C   0  0  0  0  0  0  0  0  0  0  0  0
    0.1943    1.4001   -0.8908 H   0  0  0  0  0  0  0  0  0  0  0  0
   -0.1926    1.4317    0.8187 H   0  0  0  0  0  0  0  0  0  0  0  0
    1.0929   -0.7299    1.1460 H   0  0  0  0  0  0  0  0  0  0  0  0
   -1.1344   -0.7141   -1.1712 H   0  0  0  0  0  0  0  0  0  0  0  0
    2.2909    1.4290    1.4806 H   0  0  0  0  0  0  0  0  0  0  0  0
    2.7280    1.4582   -0.2344 H   0  0  0  0  0  0  0  0  0  0  0  0
    3.3565    0.1799    0.8228 H   0  0  0  0  0  0  0  0  0  0  0  0
   -3.3675    0.2515   -0.7620 H   0  0  0  0  0  0  0  0  0  0  0  0
   -2.6771    1.4772    0.3172 H   0  0  0  0  0  0  0  0  0  0  0  0
   -2.2834    1.4882   -1.4093 H   0  0  0  0  0  0  0  0  0  0  0  0
  1  4  1  0  0  0  0
  2  5  1  0  0  0  0
  3  4  1  0  0  0  0
  3  5  1  0  0  0  0
  3  8  1  0  0  0  0
  3  9  1  0  0  0  0
  4  6  1  0  0  0  0
  4 10  1  0  0  0  0
  5  7  1  0  0  0  0
  5 11  1  0  0  0  0
  6 12  1  0  0  0  0
  6 13  1  0  0  0  0
  6 14  1  0  0  0  0
  7 15  1  0  0  0  0
  7 16  1  0  0  0  0
  7 17  1  0  0  0  0
M  END
> <PUBCHEM_COMPOUND_CID>
12261

> <PUBCHEM_CONFORMER_RMSD>
0.4

> <PUBCHEM_CONFORMER_DIVERSEORDER>
1
8
12
15
6
9
10
5
11
2
13
7
4
14
3

> <PUBCHEM_MMFF94_PARTIAL_CHARGES>
4
1 -0.29
2 -0.29
4 0.29
5 0.29

> <PUBCHEM_EFFECTIVE_ROTOR_COUNT>
2

> <PUBCHEM_PHARMACOPHORE_FEATURES>
0

> <PUBCHEM_HEAVY_ATOM_COUNT>
7

> <PUBCHEM_ATOM_DEF_STEREO_COUNT>
0

> <PUBCHEM_ATOM_UDEF_STEREO_COUNT>
2

> <PUBCHEM_BOND_DEF_STEREO_COUNT>
0

> <PUBCHEM_BOND_UDEF_STEREO_COUNT>
0

> <PUBCHEM_ISOTOPIC_ATOM_COUNT>
0

> <PUBCHEM_COMPONENT_COUNT>
1

> <PUBCHEM_CACTVS_TAUTO_COUNT>
1

> <PUBCHEM_CONFORMER_ID>
00002FE500000001

> <PUBCHEM_MMFF94_ENERGY>
5.451

> <PUBCHEM_FEATURE_SELFOVERLAP>
0

> <PUBCHEM_SHAPE_FINGERPRINT>
12932741 1 18410284830820759614
14390081 3 18187939368938376825
16714656 1 17489300932164679685
20645464 45 18413673521399508289
20653085 51 17750791250069816441
20711978 78 17532906441966936215
21040471 1 17774725384580438433
23552333 60 16515696570923088959
23552449 11 17969513786494303566
24536 1 18410847763552191541
29004967 10 18260823778661407264
5460574 1 9943527457139344509

> <PUBCHEM_SHAPE_MULTIPOLES>
147.8
3.6
1.28
1.11
0.02
0.21
0.01
-0.48
-0.04
-0.05
-0.01
0.04
0.3
0.95

> <PUBCHEM_SHAPE_SELFOVERLAP>
244.008

> <PUBCHEM_SHAPE_VOLUME>
102.4

> <PUBCHEM_COORDINATE_TYPE>
2
5
10

$$$$

