3603
  -OEChem-06251223322D

 56 58  0     1  0  0  0  0  0999 V2000
    3.3100    0.2679    0.0000 Si  0  0  3  0  0  0  0  0  0  0  0  0
    3.3100   -3.7320    0.0000 F   0  0  0  0  0  0  0  0  0  0  0  0
    2.3100    0.2679    0.0000 O   0  0  0  0  0  0  0  0  0  0  0  0
    6.3100    2.0000    0.0000 N   0  0  0  0  0  0  0  0  0  0  0  0
    3.3100    1.2680    0.0000 C   0  0  0  0  0  0  0  0  0  0  0  0
    4.1760    1.7680    0.0000 C   0  0  0  0  0  0  0  0  0  0  0  0
    2.4440    1.7680    0.0000 C   0  0  0  0  0  0  0  0  0  0  0  0
    4.3100    0.2679    0.0000 C   0  0  0  0  0  0  0  0  0  0  0  0
    2.4440    2.7680    0.0000 C   0  0  0  0  0  0  0  0  0  0  0  0
    4.1760    2.7680    0.0000 C   0  0  0  0  0  0  0  0  0  0  0  0
    3.3100    3.2680    0.0000 C   0  0  0  0  0  0  0  0  0  0  0  0
    4.8100    1.1340    0.0000 C   0  0  0  0  0  0  0  0  0  0  0  0
    3.3100   -0.7321    0.0000 C   0  0  0  0  0  0  0  0  0  0  0  0
    5.8100    1.1340    0.0000 C   0  0  0  0  0  0  0  0  0  0  0  0
    7.3100    2.0000    0.0000 C   0  0  0  0  0  0  0  0  0  0  0  0
    5.8100    2.8660    0.0000 C   0  0  0  0  0  0  0  0  0  0  0  0
    7.8100    2.8660    0.0000 C   0  0  0  0  0  0  0  0  0  0  0  0
    6.3100    3.7320    0.0000 C   0  0  0  0  0  0  0  0  0  0  0  0
    7.3100    3.7320    0.0000 C   0  0  0  0  0  0  0  0  0  0  0  0
    2.4440   -1.2320    0.0000 C   0  0  0  0  0  0  0  0  0  0  0  0
    4.1760   -1.2320    0.0000 C   0  0  0  0  0  0  0  0  0  0  0  0
    2.4440   -2.2320    0.0000 C   0  0  0  0  0  0  0  0  0  0  0  0
    4.1760   -2.2320    0.0000 C   0  0  0  0  0  0  0  0  0  0  0  0
    3.3100   -2.7320    0.0000 C   0  0  0  0  0  0  0  0  0  0  0  0
    3.8469    0.9579    0.0000 H   0  0  0  0  0  0  0  0  0  0  0  0
    1.8334    1.8756    0.0000 H   0  0  0  0  0  0  0  0  0  0  0  0
    2.2319    1.1853    0.0000 H   0  0  0  0  0  0  0  0  0  0  0  0
    4.3881    1.1853    0.0000 H   0  0  0  0  0  0  0  0  0  0  0  0
    4.7866    1.8756    0.0000 H   0  0  0  0  0  0  0  0  0  0  0  0
    4.2023   -0.3426    0.0000 H   0  0  0  0  0  0  0  0  0  0  0  0
    4.8926    0.0559    0.0000 H   0  0  0  0  0  0  0  0  0  0  0  0
    2.2319    3.3506    0.0000 H   0  0  0  0  0  0  0  0  0  0  0  0
    1.8334    2.6603    0.0000 H   0  0  0  0  0  0  0  0  0  0  0  0
    4.7866    2.6603    0.0000 H   0  0  0  0  0  0  0  0  0  0  0  0
    4.3881    3.3506    0.0000 H   0  0  0  0  0  0  0  0  0  0  0  0
    3.7085    3.7429    0.0000 H   0  0  0  0  0  0  0  0  0  0  0  0
    2.9115    3.7429    0.0000 H   0  0  0  0  0  0  0  0  0  0  0  0
    4.9177    1.7446    0.0000 H   0  0  0  0  0  0  0  0  0  0  0  0
    4.2274    1.3460    0.0000 H   0  0  0  0  0  0  0  0  0  0  0  0
    5.7023    0.5234    0.0000 H   0  0  0  0  0  0  0  0  0  0  0  0
    6.3926    0.9219    0.0000 H   0  0  0  0  0  0  0  0  0  0  0  0
    2.0000    0.8049    0.0000 H   0  0  0  0  0  0  0  0  0  0  0  0
    7.2023    1.3894    0.0000 H   0  0  0  0  0  0  0  0  0  0  0  0
    7.8926    1.7880    0.0000 H   0  0  0  0  0  0  0  0  0  0  0  0
    5.3350    3.2646    0.0000 H   0  0  0  0  0  0  0  0  0  0  0  0
    5.3350    2.4675    0.0000 H   0  0  0  0  0  0  0  0  0  0  0  0
    8.2850    2.4675    0.0000 H   0  0  0  0  0  0  0  0  0  0  0  0
    8.2850    3.2646    0.0000 H   0  0  0  0  0  0  0  0  0  0  0  0
    6.4177    4.3426    0.0000 H   0  0  0  0  0  0  0  0  0  0  0  0
    5.7274    3.9441    0.0000 H   0  0  0  0  0  0  0  0  0  0  0  0
    7.8926    3.9441    0.0000 H   0  0  0  0  0  0  0  0  0  0  0  0
    7.2023    4.3426    0.0000 H   0  0  0  0  0  0  0  0  0  0  0  0
    1.9070   -0.9221    0.0000 H   0  0  0  0  0  0  0  0  0  0  0  0
    4.7130   -0.9221    0.0000 H   0  0  0  0  0  0  0  0  0  0  0  0
    1.9070   -2.5420    0.0000 H   0  0  0  0  0  0  0  0  0  0  0  0
    4.7130   -2.5420    0.0000 H   0  0  0  0  0  0  0  0  0  0  0  0
  1  3  1  0  0  0  0
  1  5  1  0  0  0  0
  1  8  1  0  0  0  0
  1 13  1  0  0  0  0
  2 24  1  0  0  0  0
  3 42  1  0  0  0  0
  4 14  1  0  0  0  0
  4 15  1  0  0  0  0
  4 16  1  0  0  0  0
  5  6  1  0  0  0  0
  5  7  1  0  0  0  0
  5 25  1  0  0  0  0
  6 10  1  0  0  0  0
  6 28  1  0  0  0  0
  6 29  1  0  0  0  0
  7  9  1  0  0  0  0
  7 26  1  0  0  0  0
  7 27  1  0  0  0  0
  8 12  1  0  0  0  0
  8 30  1  0  0  0  0
  8 31  1  0  0  0  0
  9 11  1  0  0  0  0
  9 32  1  0  0  0  0
  9 33  1  0  0  0  0
 10 11  1  0  0  0  0
 10 34  1  0  0  0  0
 10 35  1  0  0  0  0
 11 36  1  0  0  0  0
 11 37  1  0  0  0  0
 12 14  1  0  0  0  0
 12 38  1  0  0  0  0
 12 39  1  0  0  0  0
 13 20  2  0  0  0  0
 13 21  1  0  0  0  0
 14 40  1  0  0  0  0
 14 41  1  0  0  0  0
 15 17  1  0  0  0  0
 15 43  1  0  0  0  0
 15 44  1  0  0  0  0
 16 18  1  0  0  0  0
 16 45  1  0  0  0  0
 16 46  1  0  0  0  0
 17 19  1  0  0  0  0
 17 47  1  0  0  0  0
 17 48  1  0  0  0  0
 18 19  1  0  0  0  0
 18 49  1  0  0  0  0
 18 50  1  0  0  0  0
 19 51  1  0  0  0  0
 19 52  1  0  0  0  0
 20 22  1  0  0  0  0
 20 53  1  0  0  0  0
 21 23  2  0  0  0  0
 21 54  1  0  0  0  0
 22 24  2  0  0  0  0
 22 55  1  0  0  0  0
 23 24  1  0  0  0  0
 23 56  1  0  0  0  0
M  END
> <PUBCHEM_COMPOUND_CID>
3603

> <PUBCHEM_COMPOUND_CANONICALIZED>
1

> <PUBCHEM_CACTVS_COMPLEXITY>
363

> <PUBCHEM_CACTVS_HBOND_ACCEPTOR>
3

> <PUBCHEM_CACTVS_HBOND_DONOR>
1

> <PUBCHEM_CACTVS_ROTATABLE_BOND>
6

> <PUBCHEM_CACTVS_SUBSKEYS>
AAADcfB6IQgAAAAAAAAAAAAAAAAAAAAAAAA8YIAAAAAAAAABAAAAHRAACEAACADBMAxwAIMAAAGAACBCAAACAAAgAAAIiAAIAIgIICKAkRCEIAAggACIiAcQAAAAAAAAAAAAAAAAAAAAAAAAAAAAAAAAAA==

> <PUBCHEM_IUPAC_OPENEYE_NAME>
cyclohexyl-(4-fluorophenyl)-hydroxy-[3-(1-piperidyl)propyl]silane

> <PUBCHEM_IUPAC_CAS_NAME>
cyclohexyl-(4-fluorophenyl)-hydroxy-[3-(1-piperidinyl)propyl]silane

> <PUBCHEM_IUPAC_NAME>
cyclohexyl-(4-fluorophenyl)-hydroxy-(3-piperidin-1-ylpropyl)silane

> <PUBCHEM_IUPAC_SYSTEMATIC_NAME>
cyclohexyl-(4-fluorophenyl)-oxidanyl-(3-piperidin-1-ylpropyl)silane

> <PUBCHEM_IUPAC_TRADITIONAL_NAME>
cyclohexyl-(4-fluorophenyl)-hydroxy-(3-piperidinopropyl)silane

> <PUBCHEM_IUPAC_INCHI>
InChI=1S/C20H32FNOSi/c21-18-10-12-20(13-11-18)24(23,19-8-3-1-4-9-19)17-7-16-22-14-5-2-6-15-22/h10-13,19,23H,1-9,14-17H2

> <PUBCHEM_IUPAC_INCHIKEY>
ZNSZQJHTFRQUPD-UHFFFAOYSA-N

> <PUBCHEM_EXACT_MASS>
349.223719

> <PUBCHEM_MOLECULAR_FORMULA>
C20H32FNOSi

> <PUBCHEM_MOLECULAR_WEIGHT>
349.558083

> <PUBCHEM_OPENEYE_CAN_SMILES>
C1CCC(CC1)[Si](CCCN2CCCCC2)(C3=CC=C(C=C3)F)O

> <PUBCHEM_OPENEYE_ISO_SMILES>
C1CCC(CC1)[Si](CCCN2CCCCC2)(C3=CC=C(C=C3)F)O

> <PUBCHEM_CACTVS_TPSA>
23.5

> <PUBCHEM_MONOISOTOPIC_WEIGHT>
349.223719

> <PUBCHEM_TOTAL_CHARGE>
0

> <PUBCHEM_HEAVY_ATOM_COUNT>
24

> <PUBCHEM_ATOM_DEF_STEREO_COUNT>
0

> <PUBCHEM_ATOM_UDEF_STEREO_COUNT>
1

> <PUBCHEM_BOND_DEF_STEREO_COUNT>
0

> <PUBCHEM_BOND_UDEF_STEREO_COUNT>
0

> <PUBCHEM_ISOTOPIC_ATOM_COUNT>
0

> <PUBCHEM_COMPONENT_COUNT>
1

> <PUBCHEM_CACTVS_TAUTO_COUNT>
1

> <PUBCHEM_COORDINATE_TYPE>
1
5
255

> <PUBCHEM_BONDANNOTATIONS>
1  3  3
13  20  8
13  21  8
20  22  8
21  23  8
22  24  8
23  24  8

$$$$

