46173947
  -OEChem-07051213103D

 22 22  0     1  0  0  0  0  0999 V2000
    2.1902    1.3550   -0.5438 O   0  0  0  0  0  0  0  0  0  0  0  0
   -0.2255    2.5114    0.3601 O   0  0  0  0  0  0  0  0  0  0  0  0
   -2.5351    0.8575   -0.1670 O   0  0  0  0  0  0  0  0  0  0  0  0
   -2.0709   -1.7705   -0.4241 O   0  0  0  0  0  0  0  0  0  0  0  0
    2.5895   -1.4432    0.1997 N   0  0  0  0  0  0  0  0  0  0  0  0
    1.2077    0.6008    0.1713 C   0  0  2  0  0  0  0  0  0  0  0  0
    1.3063   -0.8808   -0.2281 C   0  0  2  0  0  0  0  0  0  0  0  0
   -0.1633    1.1901   -0.1864 C   0  0  1  0  0  0  0  0  0  0  0  0
   -1.3209    0.3761    0.3843 C   0  0  2  0  0  0  0  0  0  0  0  0
    0.1789   -1.7038    0.3920 C   0  0  0  0  0  0  0  0  0  0  0  0
   -1.1568   -1.0926    0.0418 C   0  0  0  0  0  0  0  0  0  0  0  0
    1.4151    0.7363    1.2400 H   0  0  0  0  0  0  0  0  0  0  0  0
    1.2560   -0.9595   -1.3221 H   0  0  0  0  0  0  0  0  0  0  0  0
   -0.2669    1.3033   -1.2724 H   0  0  0  0  0  0  0  0  0  0  0  0
   -1.3820    0.4806    1.4735 H   0  0  0  0  0  0  0  0  0  0  0  0
    0.2549   -1.7412    1.4853 H   0  0  0  0  0  0  0  0  0  0  0  0
    0.2035   -2.7341    0.0180 H   0  0  0  0  0  0  0  0  0  0  0  0
    3.3508   -0.9248   -0.2366 H   0  0  0  0  0  0  0  0  0  0  0  0
    2.6693   -2.4048   -0.1287 H   0  0  0  0  0  0  0  0  0  0  0  0
    2.0403    1.2196   -1.4950 H   0  0  0  0  0  0  0  0  0  0  0  0
   -0.1451    2.4416    1.3268 H   0  0  0  0  0  0  0  0  0  0  0  0
   -3.2634    0.3881    0.2746 H   0  0  0  0  0  0  0  0  0  0  0  0
  1  6  1  0  0  0  0
  1 20  1  0  0  0  0
  2  8  1  0  0  0  0
  2 21  1  0  0  0  0
  3  9  1  0  0  0  0
  3 22  1  0  0  0  0
  4 11  2  0  0  0  0
  5  7  1  0  0  0  0
  5 18  1  0  0  0  0
  5 19  1  0  0  0  0
  6  7  1  0  0  0  0
  6  8  1  0  0  0  0
  6 12  1  0  0  0  0
  7 10  1  0  0  0  0
  7 13  1  0  0  0  0
  8  9  1  0  0  0  0
  8 14  1  0  0  0  0
  9 11  1  0  0  0  0
  9 15  1  0  0  0  0
 10 11  1  0  0  0  0
 10 16  1  0  0  0  0
 10 17  1  0  0  0  0
M  END
> <PUBCHEM_COMPOUND_CID>
46173947

> <PUBCHEM_CONFORMER_RMSD>
0.4

> <PUBCHEM_CONFORMER_DIVERSEORDER>
1
2

> <PUBCHEM_MMFF94_PARTIAL_CHARGES>
16
1 -0.68
10 0.06
11 0.45
18 0.36
19 0.36
2 -0.68
20 0.4
21 0.4
22 0.4
3 -0.68
4 -0.57
5 -0.99
6 0.28
7 0.27
8 0.28
9 0.34

> <PUBCHEM_EFFECTIVE_ROTOR_COUNT>
1

> <PUBCHEM_PHARMACOPHORE_FEATURES>
10
1 1 acceptor
1 1 donor
1 2 acceptor
1 2 donor
1 3 acceptor
1 3 donor
1 4 acceptor
1 5 cation
1 5 donor
6 6 7 8 9 10 11 rings

> <PUBCHEM_HEAVY_ATOM_COUNT>
11

> <PUBCHEM_ATOM_DEF_STEREO_COUNT>
4

> <PUBCHEM_ATOM_UDEF_STEREO_COUNT>
0

> <PUBCHEM_BOND_DEF_STEREO_COUNT>
0

> <PUBCHEM_BOND_UDEF_STEREO_COUNT>
0

> <PUBCHEM_ISOTOPIC_ATOM_COUNT>
0

> <PUBCHEM_COMPONENT_COUNT>
1

> <PUBCHEM_CACTVS_TAUTO_COUNT>
11

> <PUBCHEM_CONFORMER_ID>
02C08EFB00000001

> <PUBCHEM_MMFF94_ENERGY>
12.0435

> <PUBCHEM_FEATURE_SELFOVERLAP>
50.764

> <PUBCHEM_SHAPE_FINGERPRINT>
11206711 2 18123467181261219869
12423570 1 11327920456117939841
12897270 3 17978511931873530111
16945 1 18193551387976521286
18185500 45 18410856576893693723
193761 8 18266459815156943771
21040471 1 18411418375732530712
23552423 10 18343864398691882902
241688 4 18410577292292236603
2748010 2 18410291384909321654
5084963 1 17825674614264689939
66348 1 18410289258900354184

> <PUBCHEM_SHAPE_MULTIPOLES>
197.92
2.91
2.33
0.66
0.27
0.45
0.01
-0.46
-0.26
-0.05
0.07
0.01
-0.01
-0.28

> <PUBCHEM_SHAPE_SELFOVERLAP>
398.175

> <PUBCHEM_SHAPE_VOLUME>
115

> <PUBCHEM_COORDINATE_TYPE>
2
5
10

$$$$

