51090959
  -OEChem-06241223012D

 47 49  0     1  0  0  0  0  0999 V2000
    7.1962    1.2500    0.0000 O   0  0  0  0  0  0  0  0  0  0  0  0
    4.5981    0.7500    0.0000 O   0  0  0  0  0  0  0  0  0  0  0  0
    3.7320    1.2500    0.0000 O   0  0  0  0  0  0  0  0  0  0  0  0
    2.8660   -0.2500    0.0000 N   0  0  0  0  0  0  0  0  0  0  0  0
    5.4641   -0.7500    0.0000 N   0  0  0  0  0  0  0  0  0  0  0  0
    3.7320   -0.7500    0.0000 C   0  0  3  0  0  0  0  0  0  0  0  0
    3.7320   -1.7500    0.0000 C   0  0  0  0  0  0  0  0  0  0  0  0
    2.8660   -2.2500    0.0000 C   0  0  0  0  0  0  0  0  0  0  0  0
    2.0000   -1.7500    0.0000 C   0  0  0  0  0  0  0  0  0  0  0  0
    2.0000   -0.7500    0.0000 C   0  0  0  0  0  0  0  0  0  0  0  0
    6.3301   -0.2500    0.0000 C   0  0  3  0  0  0  0  0  0  0  0  0
    4.5981   -0.2500    0.0000 C   0  0  0  0  0  0  0  0  0  0  0  0
    7.1962   -0.7500    0.0000 C   0  0  0  0  0  0  0  0  0  0  0  0
    2.8660    0.7500    0.0000 C   0  0  0  0  0  0  0  0  0  0  0  0
    6.3301    0.7500    0.0000 C   0  0  0  0  0  0  0  0  0  0  0  0
    8.0622   -0.2500    0.0000 C   0  0  0  0  0  0  0  0  0  0  0  0
    2.0000    1.2500    0.0000 C   0  0  0  0  0  0  0  0  0  0  0  0
    8.0622    0.7500    0.0000 C   0  0  0  0  0  0  0  0  0  0  0  0
    8.9561   -0.7847    0.0000 C   0  0  0  0  0  0  0  0  0  0  0  0
    8.9561    1.2847    0.0000 C   0  0  0  0  0  0  0  0  0  0  0  0
    2.0000    2.2500    0.0000 C   0  0  0  0  0  0  0  0  0  0  0  0
    9.8622   -0.2708    0.0000 C   0  0  0  0  0  0  0  0  0  0  0  0
    9.8622    0.7708    0.0000 C   0  0  0  0  0  0  0  0  0  0  0  0
    3.7320   -0.1300    0.0000 H   0  0  0  0  0  0  0  0  0  0  0  0
    3.9441   -2.3326    0.0000 H   0  0  0  0  0  0  0  0  0  0  0  0
    4.3426   -1.6423    0.0000 H   0  0  0  0  0  0  0  0  0  0  0  0
    2.4675   -2.7250    0.0000 H   0  0  0  0  0  0  0  0  0  0  0  0
    3.2646   -2.7250    0.0000 H   0  0  0  0  0  0  0  0  0  0  0  0
    1.3894   -1.6423    0.0000 H   0  0  0  0  0  0  0  0  0  0  0  0
    1.7880   -2.3326    0.0000 H   0  0  0  0  0  0  0  0  0  0  0  0
    1.7880   -0.1674    0.0000 H   0  0  0  0  0  0  0  0  0  0  0  0
    1.3894   -0.8577    0.0000 H   0  0  0  0  0  0  0  0  0  0  0  0
    5.7932    0.0600    0.0000 H   0  0  0  0  0  0  0  0  0  0  0  0
    5.4641   -1.3700    0.0000 H   0  0  0  0  0  0  0  0  0  0  0  0
    6.7976   -1.2250    0.0000 H   0  0  0  0  0  0  0  0  0  0  0  0
    7.5947   -1.2250    0.0000 H   0  0  0  0  0  0  0  0  0  0  0  0
    6.1181    1.3326    0.0000 H   0  0  0  0  0  0  0  0  0  0  0  0
    5.7196    0.6423    0.0000 H   0  0  0  0  0  0  0  0  0  0  0  0
    1.3894    1.3577    0.0000 H   0  0  0  0  0  0  0  0  0  0  0  0
    1.7880    0.6674    0.0000 H   0  0  0  0  0  0  0  0  0  0  0  0
    8.9490   -1.4046    0.0000 H   0  0  0  0  0  0  0  0  0  0  0  0
    8.9490    1.9046    0.0000 H   0  0  0  0  0  0  0  0  0  0  0  0
    2.6200    2.2500    0.0000 H   0  0  0  0  0  0  0  0  0  0  0  0
    2.0000    2.8700    0.0000 H   0  0  0  0  0  0  0  0  0  0  0  0
    1.3800    2.2500    0.0000 H   0  0  0  0  0  0  0  0  0  0  0  0
   10.3979   -0.5829    0.0000 H   0  0  0  0  0  0  0  0  0  0  0  0
   10.3979    1.0829    0.0000 H   0  0  0  0  0  0  0  0  0  0  0  0
  1 15  1  0  0  0  0
  1 18  1  0  0  0  0
  2 12  2  0  0  0  0
  3 14  2  0  0  0  0
  4  6  1  0  0  0  0
  4 10  1  0  0  0  0
  4 14  1  0  0  0  0
  5 11  1  0  0  0  0
  5 12  1  0  0  0  0
  5 34  1  0  0  0  0
  6  7  1  0  0  0  0
  6 12  1  0  0  0  0
  6 24  1  0  0  0  0
  7  8  1  0  0  0  0
  7 25  1  0  0  0  0
  7 26  1  0  0  0  0
  8  9  1  0  0  0  0
  8 27  1  0  0  0  0
  8 28  1  0  0  0  0
  9 10  1  0  0  0  0
  9 29  1  0  0  0  0
  9 30  1  0  0  0  0
 10 31  1  0  0  0  0
 10 32  1  0  0  0  0
 11 13  1  0  0  0  0
 11 15  1  0  0  0  0
 11 33  1  0  0  0  0
 13 16  1  0  0  0  0
 13 35  1  0  0  0  0
 13 36  1  0  0  0  0
 14 17  1  0  0  0  0
 15 37  1  0  0  0  0
 15 38  1  0  0  0  0
 16 18  1  0  0  0  0
 16 19  2  0  0  0  0
 17 21  1  0  0  0  0
 17 39  1  0  0  0  0
 17 40  1  0  0  0  0
 18 20  2  0  0  0  0
 19 22  1  0  0  0  0
 19 41  1  0  0  0  0
 20 23  1  0  0  0  0
 20 42  1  0  0  0  0
 21 43  1  0  0  0  0
 21 44  1  0  0  0  0
 21 45  1  0  0  0  0
 22 23  2  0  0  0  0
 22 46  1  0  0  0  0
 23 47  1  0  0  0  0
M  END
> <PUBCHEM_COMPOUND_CID>
51090959

> <PUBCHEM_COMPOUND_CANONICALIZED>
1

> <PUBCHEM_CACTVS_COMPLEXITY>
440

> <PUBCHEM_CACTVS_HBOND_ACCEPTOR>
3

> <PUBCHEM_CACTVS_HBOND_DONOR>
1

> <PUBCHEM_CACTVS_ROTATABLE_BOND>
3

> <PUBCHEM_CACTVS_SUBSKEYS>
AAADceB7MAAAAAAAAAAAAAAAAAAAAAAAAAA8SIAAAAAAAACRAAAAHgAQAAAADCzhmAYyBoPABACIAiFSEAACCAAgIAAIiIGOCIgOZjKEsTuXOCCk1hGYqAe4yKAOAAAAAAAIAAAAAAAAABAAAAAAAAAAAA==

> <PUBCHEM_IUPAC_OPENEYE_NAME>
N-chroman-3-yl-1-propanoyl-piperidine-2-carboxamide

> <PUBCHEM_IUPAC_CAS_NAME>
N-(3,4-dihydro-2H-1-benzopyran-3-yl)-1-(1-oxopropyl)-2-piperidinecarboxamide

> <PUBCHEM_IUPAC_NAME>
N-(3,4-dihydro-2H-chromen-3-yl)-1-propanoylpiperidine-2-carboxamide

> <PUBCHEM_IUPAC_SYSTEMATIC_NAME>
N-(3,4-dihydro-2H-chromen-3-yl)-1-propanoyl-piperidine-2-carboxamide

> <PUBCHEM_IUPAC_TRADITIONAL_NAME>
N-chroman-3-yl-1-propionyl-pipecolinamide

> <PUBCHEM_IUPAC_INCHI>
InChI=1S/C18H24N2O3/c1-2-17(21)20-10-6-5-8-15(20)18(22)19-14-11-13-7-3-4-9-16(13)23-12-14/h3-4,7,9,14-15H,2,5-6,8,10-12H2,1H3,(H,19,22)

> <PUBCHEM_IUPAC_INCHIKEY>
TXUYKGOSYXQQDB-UHFFFAOYSA-N

> <PUBCHEM_XLOGP3_AA>
2.2

> <PUBCHEM_EXACT_MASS>
316.178693

> <PUBCHEM_MOLECULAR_FORMULA>
C18H24N2O3

> <PUBCHEM_MOLECULAR_WEIGHT>
316.39476

> <PUBCHEM_OPENEYE_CAN_SMILES>
CCC(=O)N1CCCCC1C(=O)NC2CC3=CC=CC=C3OC2

> <PUBCHEM_OPENEYE_ISO_SMILES>
CCC(=O)N1CCCCC1C(=O)NC2CC3=CC=CC=C3OC2

> <PUBCHEM_CACTVS_TPSA>
58.6

> <PUBCHEM_MONOISOTOPIC_WEIGHT>
316.178693

> <PUBCHEM_TOTAL_CHARGE>
0

> <PUBCHEM_HEAVY_ATOM_COUNT>
23

> <PUBCHEM_ATOM_DEF_STEREO_COUNT>
0

> <PUBCHEM_ATOM_UDEF_STEREO_COUNT>
2

> <PUBCHEM_BOND_DEF_STEREO_COUNT>
0

> <PUBCHEM_BOND_UDEF_STEREO_COUNT>
0

> <PUBCHEM_ISOTOPIC_ATOM_COUNT>
0

> <PUBCHEM_COMPONENT_COUNT>
1

> <PUBCHEM_CACTVS_TAUTO_COUNT>
2

> <PUBCHEM_COORDINATE_TYPE>
1
5
255

> <PUBCHEM_BONDANNOTATIONS>
16  18  8
16  19  8
18  20  8
19  22  8
20  23  8
22  23  8
11  5  3
6  12  3

$$$$

