242491
  -OEChem-07051213073D

 55 58  0     1  0  0  0  0  0999 V2000
    0.6525   -0.0504   -1.4372 F   0  0  0  0  0  0  0  0  0  0  0  0
    0.0425   -2.3849    0.8018 O   0  0  0  0  0  0  0  0  0  0  0  0
   -5.7533   -0.3069    0.6373 O   0  0  0  0  0  0  0  0  0  0  0  0
    5.8271    0.3284   -0.9405 O   0  0  0  0  0  0  0  0  0  0  0  0
   -1.7218    1.0713   -0.3553 C   0  0  2  0  0  0  0  0  0  0  0  0
   -2.5364   -0.1761    0.0560 C   0  0  1  0  0  0  0  0  0  0  0  0
   -0.3473    1.1339    0.3256 C   0  0  1  0  0  0  0  0  0  0  0  0
    0.4774   -0.1303   -0.0718 C   0  0  2  0  0  0  0  0  0  0  0  0
    1.9216   -0.1376    0.5571 C   0  0  2  0  0  0  0  0  0  0  0  0
   -3.8390    0.1087   -0.7226 C   0  0  2  0  0  0  0  0  0  0  0  0
   -2.7028    2.2196   -0.1407 C   0  0  0  0  0  0  0  0  0  0  0  0
   -1.7719   -1.4170   -0.4082 C   0  0  0  0  0  0  0  0  0  0  0  0
   -4.0614    1.6252   -0.5516 C   0  0  0  0  0  0  0  0  0  0  0  0
    0.4083    2.4075   -0.0757 C   0  0  0  0  0  0  0  0  0  0  0  0
   -0.3709   -1.4005    0.1925 C   0  0  0  0  0  0  0  0  0  0  0  0
    2.5977    1.2122    0.2647 C   0  0  0  0  0  0  0  0  0  0  0  0
   -2.8022   -0.2809    1.5812 C   0  0  0  0  0  0  0  0  0  0  0  0
    1.7896    2.4538    0.5637 C   0  0  0  0  0  0  0  0  0  0  0  0
    2.7491   -1.2916   -0.0890 C   0  0  0  0  0  0  0  0  0  0  0  0
    1.8953   -0.3196    2.0932 C   0  0  0  0  0  0  0  0  0  0  0  0
   -5.0190   -0.6942   -0.2705 C   0  0  0  0  0  0  0  0  0  0  0  0
    4.2577   -1.1651    0.1333 C   0  0  2  0  0  0  0  0  0  0  0  0
    3.8468    1.3437   -0.2116 C   0  0  0  0  0  0  0  0  0  0  0  0
    4.7286    0.1700   -0.4118 C   0  0  0  0  0  0  0  0  0  0  0  0
   -5.2643   -1.9969   -0.9827 C   0  0  0  0  0  0  0  0  0  0  0  0
    4.9962   -2.3223   -0.5370 C   0  0  0  0  0  0  0  0  0  0  0  0
   -1.5399    1.0256   -1.4421 H   0  0  0  0  0  0  0  0  0  0  0  0
   -0.4918    1.1600    1.4110 H   0  0  0  0  0  0  0  0  0  0  0  0
   -3.6909   -0.0832   -1.7944 H   0  0  0  0  0  0  0  0  0  0  0  0
   -2.4527    3.0945   -0.7493 H   0  0  0  0  0  0  0  0  0  0  0  0
   -2.7241    2.5397    0.9069 H   0  0  0  0  0  0  0  0  0  0  0  0
   -1.6698   -1.4538   -1.4988 H   0  0  0  0  0  0  0  0  0  0  0  0
   -2.2769   -2.3356   -0.0921 H   0  0  0  0  0  0  0  0  0  0  0  0
   -4.8197    1.8855    0.1940 H   0  0  0  0  0  0  0  0  0  0  0  0
   -4.3941    2.0593   -1.5020 H   0  0  0  0  0  0  0  0  0  0  0  0
   -0.1530    3.2951    0.2385 H   0  0  0  0  0  0  0  0  0  0  0  0
    0.5047    2.4644   -1.1676 H   0  0  0  0  0  0  0  0  0  0  0  0
   -3.3769   -1.1846    1.8151 H   0  0  0  0  0  0  0  0  0  0  0  0
   -1.8778   -0.3483    2.1628 H   0  0  0  0  0  0  0  0  0  0  0  0
   -3.3649    0.5735    1.9694 H   0  0  0  0  0  0  0  0  0  0  0  0
    1.6872    2.5589    1.6508 H   0  0  0  0  0  0  0  0  0  0  0  0
    2.3050    3.3582    0.2174 H   0  0  0  0  0  0  0  0  0  0  0  0
    2.5611   -1.3176   -1.1714 H   0  0  0  0  0  0  0  0  0  0  0  0
    2.4210   -2.2620    0.3003 H   0  0  0  0  0  0  0  0  0  0  0  0
    1.5871   -1.3285    2.3823 H   0  0  0  0  0  0  0  0  0  0  0  0
    2.8856   -0.1552    2.5340 H   0  0  0  0  0  0  0  0  0  0  0  0
    1.2136    0.3808    2.5851 H   0  0  0  0  0  0  0  0  0  0  0  0
    4.4919   -1.1849    1.2040 H   0  0  0  0  0  0  0  0  0  0  0  0
    4.2795    2.3163   -0.4217 H   0  0  0  0  0  0  0  0  0  0  0  0
   -5.3577   -1.8197   -2.0570 H   0  0  0  0  0  0  0  0  0  0  0  0
   -4.4502   -2.6953   -0.7841 H   0  0  0  0  0  0  0  0  0  0  0  0
   -6.1985   -2.4377   -0.6230 H   0  0  0  0  0  0  0  0  0  0  0  0
    6.0736   -2.2594   -0.3489 H   0  0  0  0  0  0  0  0  0  0  0  0
    4.6454   -3.2852   -0.1516 H   0  0  0  0  0  0  0  0  0  0  0  0
    4.8503   -2.3134   -1.6230 H   0  0  0  0  0  0  0  0  0  0  0  0
  1  8  1  0  0  0  0
  2 15  2  0  0  0  0
  3 21  2  0  0  0  0
  4 24  2  0  0  0  0
  5  6  1  0  0  0  0
  5  7  1  0  0  0  0
  5 11  1  0  0  0  0
  5 27  1  0  0  0  0
  6 10  1  0  0  0  0
  6 12  1  0  0  0  0
  6 17  1  0  0  0  0
  7  8  1  0  0  0  0
  7 14  1  0  0  0  0
  7 28  1  0  0  0  0
  8  9  1  0  0  0  0
  8 15  1  0  0  0  0
  9 16  1  0  0  0  0
  9 19  1  0  0  0  0
  9 20  1  0  0  0  0
 10 13  1  0  0  0  0
 10 21  1  0  0  0  0
 10 29  1  0  0  0  0
 11 13  1  0  0  0  0
 11 30  1  0  0  0  0
 11 31  1  0  0  0  0
 12 15  1  0  0  0  0
 12 32  1  0  0  0  0
 12 33  1  0  0  0  0
 13 34  1  0  0  0  0
 13 35  1  0  0  0  0
 14 18  1  0  0  0  0
 14 36  1  0  0  0  0
 14 37  1  0  0  0  0
 16 18  1  0  0  0  0
 16 23  2  0  0  0  0
 17 38  1  0  0  0  0
 17 39  1  0  0  0  0
 17 40  1  0  0  0  0
 18 41  1  0  0  0  0
 18 42  1  0  0  0  0
 19 22  1  0  0  0  0
 19 43  1  0  0  0  0
 19 44  1  0  0  0  0
 20 45  1  0  0  0  0
 20 46  1  0  0  0  0
 20 47  1  0  0  0  0
 21 25  1  0  0  0  0
 22 24  1  0  0  0  0
 22 26  1  0  0  0  0
 22 48  1  0  0  0  0
 23 24  1  0  0  0  0
 23 49  1  0  0  0  0
 25 50  1  0  0  0  0
 25 51  1  0  0  0  0
 25 52  1  0  0  0  0
 26 53  1  0  0  0  0
 26 54  1  0  0  0  0
 26 55  1  0  0  0  0
M  END
> <PUBCHEM_COMPOUND_CID>
242491

> <PUBCHEM_CONFORMER_RMSD>
0.6

> <PUBCHEM_CONFORMER_DIVERSEORDER>
1
3
2
4

> <PUBCHEM_MMFF94_PARTIAL_CHARGES>
17
1 -0.34
10 0.06
12 0.06
15 0.45
16 -0.28
18 0.14
2 -0.57
21 0.45
22 0.06
23 -0.14
24 0.49
25 0.06
3 -0.57
4 -0.57
49 0.15
8 0.4
9 0.14

> <PUBCHEM_EFFECTIVE_ROTOR_COUNT>
2.6

> <PUBCHEM_PHARMACOPHORE_FEATURES>
7
1 2 acceptor
1 3 acceptor
1 4 acceptor
5 5 6 10 11 13 rings
6 5 6 7 8 12 15 rings
6 7 8 9 14 16 18 rings
6 9 16 19 22 23 24 rings

> <PUBCHEM_HEAVY_ATOM_COUNT>
26

> <PUBCHEM_ATOM_DEF_STEREO_COUNT>
7

> <PUBCHEM_ATOM_UDEF_STEREO_COUNT>
0

> <PUBCHEM_BOND_DEF_STEREO_COUNT>
0

> <PUBCHEM_BOND_UDEF_STEREO_COUNT>
0

> <PUBCHEM_ISOTOPIC_ATOM_COUNT>
0

> <PUBCHEM_COMPONENT_COUNT>
1

> <PUBCHEM_CACTVS_TAUTO_COUNT>
30

> <PUBCHEM_CONFORMER_ID>
0003B33B00000001

> <PUBCHEM_MMFF94_ENERGY>
79.9793

> <PUBCHEM_FEATURE_SELFOVERLAP>
35.618

> <PUBCHEM_SHAPE_FINGERPRINT>
10366900 7 17917996057579575697
10693767 8 18261409848588203783
10863032 1 18411418427731093712
12011746 2 18343585118411688693
12236239 1 17775004613389460638
12403259 226 18336273383478350601
12403259 415 18341059553430909221
13140716 1 17764599719786322201
13224815 77 18060140959488895569
13862211 1 18411143532222456202
13944108 23 16398615363504650053
14341114 176 18410007732853670817
14787075 74 18413670205626817795
14790565 3 18267296710920501608
15196674 1 18410857693564169644
15209289 33 18411420622322082475
16752209 62 18340215162374926720
16945 1 18196091049657762008
17349148 13 17530963570776786231
17492 89 18263933154906996911
18608769 82 18199180685594712755
19591789 44 18411704321759543031
200 152 18113338621721877097
20028762 73 18114471067565892919
20775438 99 17322991874355160831
21033648 29 18272382948916045941
21267235 1 18409722980721896366
21279426 13 18267585886904806580
21857420 4 15439662565880012335
221357 26 18410014338191618757
22182313 1 18268736972321180668
22393880 68 18271820059081240749
22950370 63 18335137622099288428
23402539 116 18334580169587864205
23522609 53 18119216581094380257
23559900 14 18409456864443000909
23569914 152 17475265833972544431
296302 2 11743833677123393041
3004659 81 18272086154450133214
335352 9 18337112375575202669
34797466 226 15554154926518179583
350125 39 18410571808220723737
4280585 95 17398105436429883638
4340502 62 16200432472488415074
465052 167 18040994038338599990
474 4 17203318967424744916
5104073 3 18337113457331929240
7495541 125 17530971245725380979
9709674 26 18341052913310632163

> <PUBCHEM_SHAPE_MULTIPOLES>
510.19
11.32
2.47
1.13
1.19
0.31
-0.39
-3.68
2.62
-0.28
0.16
-0.02
-0.17
0.03

> <PUBCHEM_SHAPE_SELFOVERLAP>
1104.781

> <PUBCHEM_SHAPE_VOLUME>
281.4

> <PUBCHEM_COORDINATE_TYPE>
2
5
10

$$$$

