439469
  -OEChem-07051212452D

 32 34  0     0  0  0  0  0  0999 V2000
    3.7320   -3.5000    0.0000 Cl  0  0  0  0  0  0  0  0  0  0  0  0
    2.0000   -0.5000    0.0000 Cl  0  0  0  0  0  0  0  0  0  0  0  0
    5.4641    3.5000    0.0000 O   0  0  0  0  0  0  0  0  0  0  0  0
    2.0000   -2.5000    0.0000 O   0  0  0  0  0  0  0  0  0  0  0  0
    5.4641   -0.5000    0.0000 N   0  0  0  0  0  0  0  0  0  0  0  0
    4.5981    1.0000    0.0000 C   0  0  0  0  0  0  0  0  0  0  0  0
    4.5981    2.0000    0.0000 C   0  0  0  0  0  0  0  0  0  0  0  0
    5.4641    0.5000    0.0000 C   0  0  0  0  0  0  0  0  0  0  0  0
    6.3301    1.0000    0.0000 C   0  0  0  0  0  0  0  0  0  0  0  0
    6.3301    2.0000    0.0000 C   0  0  0  0  0  0  0  0  0  0  0  0
    5.4641    2.5000    0.0000 C   0  0  0  0  0  0  0  0  0  0  0  0
    7.2241    0.4653    0.0000 C   0  0  0  0  0  0  0  0  0  0  0  0
    7.2241    2.5347    0.0000 C   0  0  0  0  0  0  0  0  0  0  0  0
    8.1301    0.9792    0.0000 C   0  0  0  0  0  0  0  0  0  0  0  0
    8.1301    2.0208    0.0000 C   0  0  0  0  0  0  0  0  0  0  0  0
    4.5981   -1.0000    0.0000 C   0  0  0  0  0  0  0  0  0  0  0  0
    3.7320   -0.5000    0.0000 C   0  0  0  0  0  0  0  0  0  0  0  0
    4.5981   -2.0000    0.0000 C   0  0  0  0  0  0  0  0  0  0  0  0
    3.7320   -2.5000    0.0000 C   0  0  0  0  0  0  0  0  0  0  0  0
    2.8660   -1.0000    0.0000 C   0  0  0  0  0  0  0  0  0  0  0  0
    2.8660   -2.0000    0.0000 C   0  0  0  0  0  0  0  0  0  0  0  0
    3.9875    1.1077    0.0000 H   0  0  0  0  0  0  0  0  0  0  0  0
    4.3860    0.4174    0.0000 H   0  0  0  0  0  0  0  0  0  0  0  0
    4.3860    2.5826    0.0000 H   0  0  0  0  0  0  0  0  0  0  0  0
    3.9875    1.8923    0.0000 H   0  0  0  0  0  0  0  0  0  0  0  0
    7.2169   -0.1546    0.0000 H   0  0  0  0  0  0  0  0  0  0  0  0
    7.2169    3.1546    0.0000 H   0  0  0  0  0  0  0  0  0  0  0  0
    8.6659    0.6671    0.0000 H   0  0  0  0  0  0  0  0  0  0  0  0
    8.6659    2.3329    0.0000 H   0  0  0  0  0  0  0  0  0  0  0  0
    3.7320    0.1200    0.0000 H   0  0  0  0  0  0  0  0  0  0  0  0
    5.1350   -2.3100    0.0000 H   0  0  0  0  0  0  0  0  0  0  0  0
    2.0000   -3.1200    0.0000 H   0  0  0  0  0  0  0  0  0  0  0  0
  1 19  1  0  0  0  0
  2 20  1  0  0  0  0
  3 11  2  0  0  0  0
  4 21  1  0  0  0  0
  4 32  1  0  0  0  0
  5  8  2  0  0  0  0
  5 16  1  0  0  0  0
  6  7  1  0  0  0  0
  6  8  1  0  0  0  0
  6 22  1  0  0  0  0
  6 23  1  0  0  0  0
  7 11  1  0  0  0  0
  7 24  1  0  0  0  0
  7 25  1  0  0  0  0
  8  9  1  0  0  0  0
  9 10  1  0  0  0  0
  9 12  2  0  0  0  0
 10 11  1  0  0  0  0
 10 13  2  0  0  0  0
 12 14  1  0  0  0  0
 12 26  1  0  0  0  0
 13 15  1  0  0  0  0
 13 27  1  0  0  0  0
 14 15  2  0  0  0  0
 14 28  1  0  0  0  0
 15 29  1  0  0  0  0
 16 17  2  0  0  0  0
 16 18  1  0  0  0  0
 17 20  1  0  0  0  0
 17 30  1  0  0  0  0
 18 19  2  0  0  0  0
 18 31  1  0  0  0  0
 19 21  1  0  0  0  0
 20 21  2  0  0  0  0
M  END
> <PUBCHEM_COMPOUND_CID>
439469

> <PUBCHEM_COMPOUND_CANONICALIZED>
1

> <PUBCHEM_CACTVS_COMPLEXITY>
428

> <PUBCHEM_CACTVS_HBOND_ACCEPTOR>
3

> <PUBCHEM_CACTVS_HBOND_DONOR>
1

> <PUBCHEM_CACTVS_ROTATABLE_BOND>
1

> <PUBCHEM_CACTVS_SUBSKEYS>
AAADccB6MAAGAAAAAAAAAAAAAAAAAAAAAAAwYMAAAAAAAADBQAAAHgIACAAADA6BmCAwxoIAAgCoA6RyRACCAAAkJ0AIiAE0b9gIJrKDl5OAcQBkwBEI2Ye4yICOgEAAAAKQCAAAgAAABSAQAAAAAAAAAA==

> <PUBCHEM_IUPAC_OPENEYE_NAME>
4-(3,5-dichloro-4-hydroxy-phenyl)iminotetralin-1-one

> <PUBCHEM_IUPAC_CAS_NAME>
4-(3,5-dichloro-4-hydroxyphenyl)imino-2,3-dihydronaphthalen-1-one

> <PUBCHEM_IUPAC_NAME>
4-(3,5-dichloro-4-hydroxyphenyl)imino-2,3-dihydronaphthalen-1-one

> <PUBCHEM_IUPAC_SYSTEMATIC_NAME>
4-[3,5-bis(chloranyl)-4-oxidanyl-phenyl]imino-2,3-dihydronaphthalen-1-one

> <PUBCHEM_IUPAC_TRADITIONAL_NAME>
4-(3,5-dichloro-4-hydroxy-phenyl)iminotetralin-1-one

> <PUBCHEM_IUPAC_INCHI>
InChI=1S/C16H11Cl2NO2/c17-12-7-9(8-13(18)16(12)21)19-14-5-6-15(20)11-4-2-1-3-10(11)14/h1-4,7-8,21H,5-6H2

> <PUBCHEM_IUPAC_INCHIKEY>
OQAQIZUKXROORY-UHFFFAOYSA-N

> <PUBCHEM_XLOGP3_AA>
3.9

> <PUBCHEM_EXACT_MASS>
319.016684

> <PUBCHEM_MOLECULAR_FORMULA>
C16H11Cl2NO2

> <PUBCHEM_MOLECULAR_WEIGHT>
320.17004

> <PUBCHEM_OPENEYE_CAN_SMILES>
C1CC(=O)C2=CC=CC=C2C1=NC3=CC(=C(C(=C3)Cl)O)Cl

> <PUBCHEM_OPENEYE_ISO_SMILES>
C1CC(=O)C2=CC=CC=C2C1=NC3=CC(=C(C(=C3)Cl)O)Cl

> <PUBCHEM_CACTVS_TPSA>
49.7

> <PUBCHEM_MONOISOTOPIC_WEIGHT>
319.016684

> <PUBCHEM_TOTAL_CHARGE>
0

> <PUBCHEM_HEAVY_ATOM_COUNT>
21

> <PUBCHEM_ATOM_DEF_STEREO_COUNT>
0

> <PUBCHEM_ATOM_UDEF_STEREO_COUNT>
0

> <PUBCHEM_BOND_DEF_STEREO_COUNT>
0

> <PUBCHEM_BOND_UDEF_STEREO_COUNT>
0

> <PUBCHEM_ISOTOPIC_ATOM_COUNT>
0

> <PUBCHEM_COMPONENT_COUNT>
1

> <PUBCHEM_CACTVS_TAUTO_COUNT>
12

> <PUBCHEM_COORDINATE_TYPE>
1
5
255

> <PUBCHEM_BONDANNOTATIONS>
10  13  8
12  14  8
13  15  8
14  15  8
16  17  8
16  18  8
17  20  8
18  19  8
19  21  8
20  21  8
9  10  8
9  12  8

$$$$

