442887
  -OEChem-07051213002D

 53 55  0     0  0  0  0  0  0999 V2000
    8.1962    0.1723    0.0000 O   0  0  0  0  0  0  0  0  0  0  0  0
    6.4144   -2.8864    0.0000 O   0  0  0  0  0  0  0  0  0  0  0  0
    4.6660   -2.8519    0.0000 O   0  0  0  0  0  0  0  0  0  0  0  0
    2.9176    1.1827    0.0000 O   0  0  0  0  0  0  0  0  0  0  0  0
    4.6660    0.1481    0.0000 N   0  0  0  0  0  0  0  0  0  0  0  0
    5.5321   -0.3519    0.0000 C   0  0  0  0  0  0  0  0  0  0  0  0
    6.4260    0.1828    0.0000 C   0  0  0  0  0  0  0  0  0  0  0  0
    5.5321   -1.3518    0.0000 C   0  0  0  0  0  0  0  0  0  0  0  0
    7.3321   -1.3727    0.0000 C   0  0  0  0  0  0  0  0  0  0  0  0
    7.3321   -0.3310    0.0000 C   0  0  0  0  0  0  0  0  0  0  0  0
    6.4260   -1.8865    0.0000 C   0  0  0  0  0  0  0  0  0  0  0  0
    6.4144    1.1827    0.0000 C   0  0  0  0  0  0  0  0  0  0  0  0
    3.8000   -0.3519    0.0000 C   0  0  0  0  0  0  0  0  0  0  0  0
    3.8000   -1.3518    0.0000 C   0  0  0  0  0  0  0  0  0  0  0  0
    4.6660   -1.8518    0.0000 C   0  0  0  0  0  0  0  0  0  0  0  0
    8.1962   -1.8760    0.0000 C   0  0  0  0  0  0  0  0  0  0  0  0
    2.9061    0.1828    0.0000 C   0  0  0  0  0  0  0  0  0  0  0  0
    2.9061   -1.8865    0.0000 C   0  0  0  0  0  0  0  0  0  0  0  0
    7.2746    1.6927    0.0000 C   0  0  0  0  0  0  0  0  0  0  0  0
    9.0641   -1.3793    0.0000 C   0  0  0  0  0  0  0  0  0  0  0  0
    2.0000   -0.3310    0.0000 C   0  0  0  0  0  0  0  0  0  0  0  0
    2.0000   -1.3727    0.0000 C   0  0  0  0  0  0  0  0  0  0  0  0
    7.2631    2.6927    0.0000 C   0  0  0  0  0  0  0  0  0  0  0  0
    9.9282   -1.8827    0.0000 C   0  0  0  0  0  0  0  0  0  0  0  0
    8.1232    3.2026    0.0000 C   0  0  0  0  0  0  0  0  0  0  0  0
    6.3913    3.1826    0.0000 C   0  0  0  0  0  0  0  0  0  0  0  0
   10.7961   -1.3860    0.0000 C   0  0  0  0  0  0  0  0  0  0  0  0
    9.9243   -2.8827    0.0000 C   0  0  0  0  0  0  0  0  0  0  0  0
    4.6660    0.7681    0.0000 H   0  0  0  0  0  0  0  0  0  0  0  0
    6.1957    1.7629    0.0000 H   0  0  0  0  0  0  0  0  0  0  0  0
    5.8051    1.0680    0.0000 H   0  0  0  0  0  0  0  0  0  0  0  0
    7.7958   -2.3494    0.0000 H   0  0  0  0  0  0  0  0  0  0  0  0
    8.5929   -2.3525    0.0000 H   0  0  0  0  0  0  0  0  0  0  0  0
    7.8151    1.3889    0.0000 H   0  0  0  0  0  0  0  0  0  0  0  0
    2.9132   -2.5065    0.0000 H   0  0  0  0  0  0  0  0  0  0  0  0
    9.0665   -0.7593    0.0000 H   0  0  0  0  0  0  0  0  0  0  0  0
    1.4643   -0.0190    0.0000 H   0  0  0  0  0  0  0  0  0  0  0  0
    1.4643   -1.6847    0.0000 H   0  0  0  0  0  0  0  0  0  0  0  0
    8.7343   -0.1356    0.0000 H   0  0  0  0  0  0  0  0  0  0  0  0
    6.9478   -3.2026    0.0000 H   0  0  0  0  0  0  0  0  0  0  0  0
    8.4394    2.6693    0.0000 H   0  0  0  0  0  0  0  0  0  0  0  0
    8.6566    3.5188    0.0000 H   0  0  0  0  0  0  0  0  0  0  0  0
    7.8071    3.7360    0.0000 H   0  0  0  0  0  0  0  0  0  0  0  0
    6.6951    3.7231    0.0000 H   0  0  0  0  0  0  0  0  0  0  0  0
    5.8508    3.4864    0.0000 H   0  0  0  0  0  0  0  0  0  0  0  0
    6.0875    2.6421    0.0000 H   0  0  0  0  0  0  0  0  0  0  0  0
    2.3843    1.4989    0.0000 H   0  0  0  0  0  0  0  0  0  0  0  0
    9.3044   -2.8803    0.0000 H   0  0  0  0  0  0  0  0  0  0  0  0
    9.9220   -3.5027    0.0000 H   0  0  0  0  0  0  0  0  0  0  0  0
   10.5443   -2.8851    0.0000 H   0  0  0  0  0  0  0  0  0  0  0  0
   11.1041   -1.9242    0.0000 H   0  0  0  0  0  0  0  0  0  0  0  0
   11.3343   -1.0781    0.0000 H   0  0  0  0  0  0  0  0  0  0  0  0
   10.4882   -0.8479    0.0000 H   0  0  0  0  0  0  0  0  0  0  0  0
  1 10  1  0  0  0  0
  1 39  1  0  0  0  0
  2 11  1  0  0  0  0
  2 40  1  0  0  0  0
  3 15  2  0  0  0  0
  4 17  1  0  0  0  0
  4 47  1  0  0  0  0
  5  6  1  0  0  0  0
  5 13  1  0  0  0  0
  5 29  1  0  0  0  0
  6  7  1  0  0  0  0
  6  8  2  0  0  0  0
  7 10  2  0  0  0  0
  7 12  1  0  0  0  0
  8 11  1  0  0  0  0
  8 15  1  0  0  0  0
  9 10  1  0  0  0  0
  9 11  2  0  0  0  0
  9 16  1  0  0  0  0
 12 19  1  0  0  0  0
 12 30  1  0  0  0  0
 12 31  1  0  0  0  0
 13 14  2  0  0  0  0
 13 17  1  0  0  0  0
 14 15  1  0  0  0  0
 14 18  1  0  0  0  0
 16 20  1  0  0  0  0
 16 32  1  0  0  0  0
 16 33  1  0  0  0  0
 17 21  2  0  0  0  0
 18 22  2  0  0  0  0
 18 35  1  0  0  0  0
 19 23  2  0  0  0  0
 19 34  1  0  0  0  0
 20 24  2  0  0  0  0
 20 36  1  0  0  0  0
 21 22  1  0  0  0  0
 21 37  1  0  0  0  0
 22 38  1  0  0  0  0
 23 25  1  0  0  0  0
 23 26  1  0  0  0  0
 24 27  1  0  0  0  0
 24 28  1  0  0  0  0
 25 41  1  0  0  0  0
 25 42  1  0  0  0  0
 25 43  1  0  0  0  0
 26 44  1  0  0  0  0
 26 45  1  0  0  0  0
 26 46  1  0  0  0  0
 27 51  1  0  0  0  0
 27 52  1  0  0  0  0
 27 53  1  0  0  0  0
 28 48  1  0  0  0  0
 28 49  1  0  0  0  0
 28 50  1  0  0  0  0
M  END
> <PUBCHEM_COMPOUND_CID>
442887

> <PUBCHEM_COMPOUND_CANONICALIZED>
1

> <PUBCHEM_CACTVS_COMPLEXITY>
635

> <PUBCHEM_CACTVS_HBOND_ACCEPTOR>
5

> <PUBCHEM_CACTVS_HBOND_DONOR>
4

> <PUBCHEM_CACTVS_ROTATABLE_BOND>
4

> <PUBCHEM_CACTVS_SUBSKEYS>
AAADceB6OAAAAAAAAAAAAAAAAAAAAAAAAAA8YIAAAAAAAACxQAAAHgAQCAAADAyBmAAyxoLAAgCIAqRSQACCAAAlIAAIiAEHTMgKJ37SlZOEcchn4B3Y2cea/PfOKAADCgAKEABQAAYUABQgAAAAAAAAAA==

> <PUBCHEM_IUPAC_OPENEYE_NAME>
1,3,5-trihydroxy-2,4-bis(3-methylbut-2-enyl)-10H-acridin-9-one

> <PUBCHEM_IUPAC_CAS_NAME>
1,3,5-trihydroxy-2,4-bis(3-methylbut-2-enyl)-10H-acridin-9-one

> <PUBCHEM_IUPAC_NAME>
1,3,5-trihydroxy-2,4-bis(3-methylbut-2-enyl)-10H-acridin-9-one

> <PUBCHEM_IUPAC_SYSTEMATIC_NAME>
2,4-bis(3-methylbut-2-enyl)-1,3,5-tris(oxidanyl)-10H-acridin-9-one

> <PUBCHEM_IUPAC_TRADITIONAL_NAME>
1,3,5-trihydroxy-2,4-bis(3-methylbut-2-enyl)-10H-acridin-9-one

> <PUBCHEM_IUPAC_INCHI>
InChI=1S/C23H25NO4/c1-12(2)8-10-15-20-18(23(28)16(21(15)26)11-9-13(3)4)22(27)14-6-5-7-17(25)19(14)24-20/h5-9,25-26,28H,10-11H2,1-4H3,(H,24,27)

> <PUBCHEM_IUPAC_INCHIKEY>
GLXYKTASIIUSRC-UHFFFAOYSA-N

> <PUBCHEM_XLOGP3_AA>
6.3

> <PUBCHEM_EXACT_MASS>
379.178358

> <PUBCHEM_MOLECULAR_FORMULA>
C23H25NO4

> <PUBCHEM_MOLECULAR_WEIGHT>
379.4489

> <PUBCHEM_OPENEYE_CAN_SMILES>
CC(=CCC1=C(C(=C(C2=C1NC3=C(C2=O)C=CC=C3O)O)CC=C(C)C)O)C

> <PUBCHEM_OPENEYE_ISO_SMILES>
CC(=CCC1=C(C(=C(C2=C1NC3=C(C2=O)C=CC=C3O)O)CC=C(C)C)O)C

> <PUBCHEM_CACTVS_TPSA>
89.8

> <PUBCHEM_MONOISOTOPIC_WEIGHT>
379.178358

> <PUBCHEM_TOTAL_CHARGE>
0

> <PUBCHEM_HEAVY_ATOM_COUNT>
28

> <PUBCHEM_ATOM_DEF_STEREO_COUNT>
0

> <PUBCHEM_ATOM_UDEF_STEREO_COUNT>
0

> <PUBCHEM_BOND_DEF_STEREO_COUNT>
0

> <PUBCHEM_BOND_UDEF_STEREO_COUNT>
0

> <PUBCHEM_ISOTOPIC_ATOM_COUNT>
0

> <PUBCHEM_COMPONENT_COUNT>
1

> <PUBCHEM_CACTVS_TAUTO_COUNT>
998

> <PUBCHEM_COORDINATE_TYPE>
1
5
255

> <PUBCHEM_BONDANNOTATIONS>
13  14  8
13  17  8
14  15  8
14  18  8
17  21  8
18  22  8
21  22  8
5  13  8
5  6  8
6  7  8
6  8  8
7  10  8
8  11  8
8  15  8
9  10  8
9  11  8

$$$$

