441999
  -OEChem-07051212562D

 54 56  0     1  0  0  0  0  0999 V2000
    2.8341    2.2512    0.0000 O   0  0  0  0  0  0  0  0  0  0  0  0
    8.1892    1.8444    0.0000 O   0  0  0  0  0  0  0  0  0  0  0  0
    6.9977    0.6410    0.0000 C   0  0  1  0  0  0  0  0  0  0  0  0
    3.7668    1.8905    0.0000 C   0  0  3  0  0  0  0  0  0  0  0  0
    6.3703    1.4197    0.0000 C   0  0  1  0  0  0  0  0  0  0  0  0
    2.9881    1.2631    0.0000 C   0  0  0  0  0  0  0  0  0  0  0  0
    7.9715    0.8684    0.0000 C   0  0  2  0  0  0  0  0  0  0  0  0
    8.7564    0.2488    0.0000 C   0  0  1  0  0  0  0  0  0  0  0  0
    4.7549    2.0444    0.0000 C   0  0  0  0  0  0  0  0  0  0  0  0
    5.3822    1.2657    0.0000 C   0  0  0  0  0  0  0  0  0  0  0  0
    6.5683   -0.2621    0.0000 C   0  0  0  0  0  0  0  0  0  0  0  0
    8.7614   -0.7512    0.0000 C   0  0  0  0  0  0  0  0  0  0  0  0
    7.0067   -1.1609    0.0000 C   0  0  0  0  0  0  0  0  0  0  0  0
    7.9827   -1.3786    0.0000 C   0  0  0  0  0  0  0  0  0  0  0  0
    9.7011    0.5582    0.0000 C   0  0  0  0  0  0  0  0  0  0  0  0
    6.7310    2.3524    0.0000 C   0  0  0  0  0  0  0  0  0  0  0  0
    2.0000    1.1091    0.0000 C   0  0  0  0  0  0  0  0  0  0  0  0
    3.6155    0.4844    0.0000 C   0  0  0  0  0  0  0  0  0  0  0  0
    9.7092   -1.0512    0.0000 C   0  0  0  0  0  0  0  0  0  0  0  0
   10.2887   -0.2436    0.0000 C   0  0  0  0  0  0  0  0  0  0  0  0
    8.2101   -2.3524    0.0000 C   0  0  0  0  0  0  0  0  0  0  0  0
   10.0070    1.5103    0.0000 C   0  0  0  0  0  0  0  0  0  0  0  0
    6.1535    0.5416    0.0000 H   0  0  0  0  0  0  0  0  0  0  0  0
    3.8577    2.7356    0.0000 H   0  0  0  0  0  0  0  0  0  0  0  0
    6.9829    1.5152    0.0000 H   0  0  0  0  0  0  0  0  0  0  0  0
    7.5309    1.3046    0.0000 H   0  0  0  0  0  0  0  0  0  0  0  0
    8.9051    1.0857    0.0000 H   0  0  0  0  0  0  0  0  0  0  0  0
    5.2979    2.3437    0.0000 H   0  0  0  0  0  0  0  0  0  0  0  0
    4.5545    2.6312    0.0000 H   0  0  0  0  0  0  0  0  0  0  0  0
    4.8392    0.9665    0.0000 H   0  0  0  0  0  0  0  0  0  0  0  0
    5.5826    0.6790    0.0000 H   0  0  0  0  0  0  0  0  0  0  0  0
    6.0817    0.1220    0.0000 H   0  0  0  0  0  0  0  0  0  0  0  0
    6.0855   -0.6511    0.0000 H   0  0  0  0  0  0  0  0  0  0  0  0
    6.4029   -1.3019    0.0000 H   0  0  0  0  0  0  0  0  0  0  0  0
    7.0098   -1.7809    0.0000 H   0  0  0  0  0  0  0  0  0  0  0  0
    7.3093    2.1288    0.0000 H   0  0  0  0  0  0  0  0  0  0  0  0
    6.9546    2.9306    0.0000 H   0  0  0  0  0  0  0  0  0  0  0  0
    6.1528    2.5760    0.0000 H   0  0  0  0  0  0  0  0  0  0  0  0
    1.9045    1.7217    0.0000 H   0  0  0  0  0  0  0  0  0  0  0  0
    1.3874    1.0137    0.0000 H   0  0  0  0  0  0  0  0  0  0  0  0
    2.0955    0.4965    0.0000 H   0  0  0  0  0  0  0  0  0  0  0  0
    3.1326    0.0954    0.0000 H   0  0  0  0  0  0  0  0  0  0  0  0
    4.0044    0.0016    0.0000 H   0  0  0  0  0  0  0  0  0  0  0  0
    4.0983    0.8734    0.0000 H   0  0  0  0  0  0  0  0  0  0  0  0
    9.4610   -1.6194    0.0000 H   0  0  0  0  0  0  0  0  0  0  0  0
   10.2481   -1.3578    0.0000 H   0  0  0  0  0  0  0  0  0  0  0  0
   10.9087   -0.2405    0.0000 H   0  0  0  0  0  0  0  0  0  0  0  0
    8.7807    2.0301    0.0000 H   0  0  0  0  0  0  0  0  0  0  0  0
    7.6063   -2.4934    0.0000 H   0  0  0  0  0  0  0  0  0  0  0  0
    8.3511   -2.9562    0.0000 H   0  0  0  0  0  0  0  0  0  0  0  0
    8.8138   -2.2114    0.0000 H   0  0  0  0  0  0  0  0  0  0  0  0
   10.5973    1.3206    0.0000 H   0  0  0  0  0  0  0  0  0  0  0  0
   10.1967    2.1006    0.0000 H   0  0  0  0  0  0  0  0  0  0  0  0
    9.4168    1.7000    0.0000 H   0  0  0  0  0  0  0  0  0  0  0  0
  1  4  1  0  0  0  0
  1  6  1  0  0  0  0
  7  2  1  1  0  0  0
  2 48  1  0  0  0  0
  3  5  1  0  0  0  0
  3  7  1  0  0  0  0
  3 11  1  0  0  0  0
  3 23  1  6  0  0  0
  4  6  1  0  0  0  0
  4  9  1  0  0  0  0
  4 24  1  0  0  0  0
  5 10  1  0  0  0  0
  5 16  1  1  0  0  0
  5 25  1  0  0  0  0
  6 17  1  0  0  0  0
  6 18  1  0  0  0  0
  7  8  1  0  0  0  0
  7 26  1  0  0  0  0
  8 12  1  0  0  0  0
  8 15  1  0  0  0  0
  8 27  1  1  0  0  0
  9 10  1  0  0  0  0
  9 28  1  0  0  0  0
  9 29  1  0  0  0  0
 10 30  1  0  0  0  0
 10 31  1  0  0  0  0
 11 13  1  0  0  0  0
 11 32  1  0  0  0  0
 11 33  1  0  0  0  0
 12 14  2  0  0  0  0
 12 19  1  0  0  0  0
 13 14  1  0  0  0  0
 13 34  1  0  0  0  0
 13 35  1  0  0  0  0
 14 21  1  0  0  0  0
 15 20  2  0  0  0  0
 15 22  1  0  0  0  0
 16 36  1  0  0  0  0
 16 37  1  0  0  0  0
 16 38  1  0  0  0  0
 17 39  1  0  0  0  0
 17 40  1  0  0  0  0
 17 41  1  0  0  0  0
 18 42  1  0  0  0  0
 18 43  1  0  0  0  0
 18 44  1  0  0  0  0
 19 20  1  0  0  0  0
 19 45  1  0  0  0  0
 19 46  1  0  0  0  0
 20 47  1  0  0  0  0
 21 49  1  0  0  0  0
 21 50  1  0  0  0  0
 21 51  1  0  0  0  0
 22 52  1  0  0  0  0
 22 53  1  0  0  0  0
 22 54  1  0  0  0  0
M  END
> <PUBCHEM_COMPOUND_CID>
441999

> <PUBCHEM_COMPOUND_CANONICALIZED>
1

> <PUBCHEM_CACTVS_COMPLEXITY>
500

> <PUBCHEM_CACTVS_HBOND_ACCEPTOR>
2

> <PUBCHEM_CACTVS_HBOND_DONOR>
1

> <PUBCHEM_CACTVS_ROTATABLE_BOND>
4

> <PUBCHEM_CACTVS_SUBSKEYS>
AAADcfB4MAAAAAAAAAAAAAAAEgAAAQAAAAAAAAAABAAAAACAAAAAGgAACAAADVSggAICAAAABgCAAiBCAAAAAAAgAAAACAAAAAgAEAIAAQACQAAEwAAIAAOAwPAOgAAAAAAAAAAAAAAAAAAAAAAAAAAAAA==

> <PUBCHEM_IUPAC_OPENEYE_NAME>
(3aR,4R,5S)-5-[(1R)-3-(3,3-dimethyloxiran-2-yl)-1-methyl-propyl]-3,8-dimethyl-1,3a,4,5,6,7-hexahydroazulen-4-ol

> <PUBCHEM_IUPAC_CAS_NAME>
(3aR,4R,5S)-5-[(2R)-4-(3,3-dimethyl-2-oxiranyl)butan-2-yl]-3,8-dimethyl-1,3a,4,5,6,7-hexahydroazulen-4-ol

> <PUBCHEM_IUPAC_NAME>
(3aR,4R,5S)-5-[(2R)-4-(3,3-dimethyloxiran-2-yl)butan-2-yl]-3,8-dimethyl-1,3a,4,5,6,7-hexahydroazulen-4-ol

> <PUBCHEM_IUPAC_SYSTEMATIC_NAME>
(3aR,4R,5S)-5-[(2R)-4-(3,3-dimethyloxiran-2-yl)butan-2-yl]-3,8-dimethyl-1,3a,4,5,6,7-hexahydroazulen-4-ol

> <PUBCHEM_IUPAC_TRADITIONAL_NAME>
(3aR,4R,5S)-5-[(1R)-3-(3,3-dimethyloxiran-2-yl)-1-methyl-propyl]-3,8-dimethyl-1,3a,4,5,6,7-hexahydroazulen-4-ol

> <PUBCHEM_IUPAC_INCHI>
InChI=1S/C20H32O2/c1-12-6-10-16(13(2)8-11-17-20(4,5)22-17)19(21)18-14(3)7-9-15(12)18/h7,13,16-19,21H,6,8-11H2,1-5H3/t13-,16+,17?,18-,19-/m1/s1

> <PUBCHEM_IUPAC_INCHIKEY>
YBQDGKYVLDZIDN-SGKAGNBOSA-N

> <PUBCHEM_XLOGP3_AA>
3.2

> <PUBCHEM_EXACT_MASS>
304.24023

> <PUBCHEM_MOLECULAR_FORMULA>
C20H32O2

> <PUBCHEM_MOLECULAR_WEIGHT>
304.46688

> <PUBCHEM_OPENEYE_CAN_SMILES>
CC1=C2CC=C(C2C(C(CC1)C(C)CCC3C(O3)(C)C)O)C

> <PUBCHEM_OPENEYE_ISO_SMILES>
CC1=C2CC=C([C@H]2[C@@H]([C@@H](CC1)[C@H](C)CCC3C(O3)(C)C)O)C

> <PUBCHEM_CACTVS_TPSA>
32.8

> <PUBCHEM_MONOISOTOPIC_WEIGHT>
304.24023

> <PUBCHEM_TOTAL_CHARGE>
0

> <PUBCHEM_HEAVY_ATOM_COUNT>
22

> <PUBCHEM_ATOM_DEF_STEREO_COUNT>
4

> <PUBCHEM_ATOM_UDEF_STEREO_COUNT>
1

> <PUBCHEM_BOND_DEF_STEREO_COUNT>
0

> <PUBCHEM_BOND_UDEF_STEREO_COUNT>
0

> <PUBCHEM_ISOTOPIC_ATOM_COUNT>
0

> <PUBCHEM_COMPONENT_COUNT>
1

> <PUBCHEM_CACTVS_TAUTO_COUNT>
1

> <PUBCHEM_COORDINATE_TYPE>
1
5
255

> <PUBCHEM_BONDANNOTATIONS>
7  2  5
3  23  6
4  24  3
5  16  5
8  27  5

$$$$

