66494
  -OEChem-07051213042D

 40 42  0     0  0  0  0  0  0999 V2000
    8.7749    0.3410    0.0000 O   0  0  0  0  0  0  0  0  0  0  0  0
    2.2645    2.7106    0.0000 O   0  0  0  0  0  0  0  0  0  0  0  0
    2.0000   -2.3855    0.0000 O   0  0  0  0  0  0  0  0  0  0  0  0
    2.3008   -0.6799    0.0000 O   0  0  0  0  0  0  0  0  0  0  0  0
    4.8357   -0.3535    0.0000 C   0  0  0  0  0  0  0  0  0  0  0  0
    4.4937   -1.2932    0.0000 C   0  0  0  0  0  0  0  0  0  0  0  0
    5.8205   -0.1799    0.0000 C   0  0  0  0  0  0  0  0  0  0  0  0
    4.1929    0.4125    0.0000 C   0  0  0  0  0  0  0  0  0  0  0  0
    3.6276   -1.7932    0.0000 C   0  0  0  0  0  0  0  0  0  0  0  0
    5.3597   -1.7932    0.0000 C   0  0  0  0  0  0  0  0  0  0  0  0
    6.1625    0.7598    0.0000 C   0  0  0  0  0  0  0  0  0  0  0  0
    3.2081    0.2388    0.0000 C   0  0  0  0  0  0  0  0  0  0  0  0
    6.4633   -0.9459    0.0000 C   0  0  0  0  0  0  0  0  0  0  0  0
    4.5349    1.3522    0.0000 C   0  0  0  0  0  0  0  0  0  0  0  0
    3.6276   -2.7932    0.0000 C   0  0  0  0  0  0  0  0  0  0  0  0
    5.3597   -2.7932    0.0000 C   0  0  0  0  0  0  0  0  0  0  0  0
    7.1473    0.9334    0.0000 C   0  0  0  0  0  0  0  0  0  0  0  0
    2.5653    1.0049    0.0000 C   0  0  0  0  0  0  0  0  0  0  0  0
    7.4481   -0.7723    0.0000 C   0  0  0  0  0  0  0  0  0  0  0  0
    3.8921    2.1182    0.0000 C   0  0  0  0  0  0  0  0  0  0  0  0
    4.4937   -3.2932    0.0000 C   0  0  0  0  0  0  0  0  0  0  0  0
    7.7901    0.1674    0.0000 C   0  0  0  0  0  0  0  0  0  0  0  0
    2.9073    1.9446    0.0000 C   0  0  0  0  0  0  0  0  0  0  0  0
    2.6428   -1.6196    0.0000 C   0  0  0  0  0  0  0  0  0  0  0  0
    5.0477    0.2291    0.0000 H   0  0  0  0  0  0  0  0  0  0  0  0
    5.8966   -1.4832    0.0000 H   0  0  0  0  0  0  0  0  0  0  0  0
    2.9960   -0.3438    0.0000 H   0  0  0  0  0  0  0  0  0  0  0  0
    5.7640    1.2347    0.0000 H   0  0  0  0  0  0  0  0  0  0  0  0
    5.1455    1.4599    0.0000 H   0  0  0  0  0  0  0  0  0  0  0  0
    6.2512   -1.5286    0.0000 H   0  0  0  0  0  0  0  0  0  0  0  0
    3.0907   -3.1032    0.0000 H   0  0  0  0  0  0  0  0  0  0  0  0
    5.8966   -3.1032    0.0000 H   0  0  0  0  0  0  0  0  0  0  0  0
    1.9547    0.8972    0.0000 H   0  0  0  0  0  0  0  0  0  0  0  0
    7.3594    1.5160    0.0000 H   0  0  0  0  0  0  0  0  0  0  0  0
    4.1042    2.7008    0.0000 H   0  0  0  0  0  0  0  0  0  0  0  0
    7.8466   -1.2472    0.0000 H   0  0  0  0  0  0  0  0  0  0  0  0
    4.4937   -3.9132    0.0000 H   0  0  0  0  0  0  0  0  0  0  0  0
    2.4766    3.2932    0.0000 H   0  0  0  0  0  0  0  0  0  0  0  0
    9.1734   -0.1339    0.0000 H   0  0  0  0  0  0  0  0  0  0  0  0
    2.2120   -2.9682    0.0000 H   0  0  0  0  0  0  0  0  0  0  0  0
  1 22  1  0  0  0  0
  1 39  1  0  0  0  0
  2 23  1  0  0  0  0
  2 38  1  0  0  0  0
  3 24  1  0  0  0  0
  3 40  1  0  0  0  0
  4 24  2  0  0  0  0
  5  6  1  0  0  0  0
  5  7  1  0  0  0  0
  5  8  1  0  0  0  0
  5 25  1  0  0  0  0
  6  9  1  0  0  0  0
  6 10  2  0  0  0  0
  7 11  2  0  0  0  0
  7 13  1  0  0  0  0
  8 12  2  0  0  0  0
  8 14  1  0  0  0  0
  9 15  2  0  0  0  0
  9 24  1  0  0  0  0
 10 16  1  0  0  0  0
 10 26  1  0  0  0  0
 11 17  1  0  0  0  0
 11 28  1  0  0  0  0
 12 18  1  0  0  0  0
 12 27  1  0  0  0  0
 13 19  2  0  0  0  0
 13 30  1  0  0  0  0
 14 20  2  0  0  0  0
 14 29  1  0  0  0  0
 15 21  1  0  0  0  0
 15 31  1  0  0  0  0
 16 21  2  0  0  0  0
 16 32  1  0  0  0  0
 17 22  2  0  0  0  0
 17 34  1  0  0  0  0
 18 23  2  0  0  0  0
 18 33  1  0  0  0  0
 19 22  1  0  0  0  0
 19 36  1  0  0  0  0
 20 23  1  0  0  0  0
 20 35  1  0  0  0  0
 21 37  1  0  0  0  0
M  END
> <PUBCHEM_COMPOUND_CID>
66494

> <PUBCHEM_COMPOUND_CANONICALIZED>
1

> <PUBCHEM_CACTVS_COMPLEXITY>
386

> <PUBCHEM_CACTVS_HBOND_ACCEPTOR>
4

> <PUBCHEM_CACTVS_HBOND_DONOR>
3

> <PUBCHEM_CACTVS_ROTATABLE_BOND>
4

> <PUBCHEM_CACTVS_SUBSKEYS>
AAADceB4OAAAAAAAAAAAAAAAAAAAAAAAAAAwYMAAAAAAAAABUAAAGgAACAAADQSAmAAwDoAAAgCIAiDSCAACAAAkIAAIiAEGCMgIJjKCFRKAcQAkwBEImYeIyPCOoAAAAAAQAABAAAAAACAAAAAAAAAAAA==

> <PUBCHEM_IUPAC_OPENEYE_NAME>
2-[bis(4-hydroxyphenyl)methyl]benzoic acid

> <PUBCHEM_IUPAC_CAS_NAME>
2-[bis(4-hydroxyphenyl)methyl]benzoic acid

> <PUBCHEM_IUPAC_NAME>
2-[bis(4-hydroxyphenyl)methyl]benzoic acid

> <PUBCHEM_IUPAC_SYSTEMATIC_NAME>
2-[bis(4-hydroxyphenyl)methyl]benzoic acid

> <PUBCHEM_IUPAC_TRADITIONAL_NAME>
2-[bis(4-hydroxyphenyl)methyl]benzoic acid

> <PUBCHEM_IUPAC_INCHI>
InChI=1S/C20H16O4/c21-15-9-5-13(6-10-15)19(14-7-11-16(22)12-8-14)17-3-1-2-4-18(17)20(23)24/h1-12,19,21-22H,(H,23,24)

> <PUBCHEM_IUPAC_INCHIKEY>
FFFPYJTVNSSLBQ-UHFFFAOYSA-N

> <PUBCHEM_XLOGP3>
3.4

> <PUBCHEM_EXACT_MASS>
320.104859

> <PUBCHEM_MOLECULAR_FORMULA>
C20H16O4

> <PUBCHEM_MOLECULAR_WEIGHT>
320.33864

> <PUBCHEM_OPENEYE_CAN_SMILES>
C1=CC=C(C(=C1)C(C2=CC=C(C=C2)O)C3=CC=C(C=C3)O)C(=O)O

> <PUBCHEM_OPENEYE_ISO_SMILES>
C1=CC=C(C(=C1)C(C2=CC=C(C=C2)O)C3=CC=C(C=C3)O)C(=O)O

> <PUBCHEM_CACTVS_TPSA>
77.8

> <PUBCHEM_MONOISOTOPIC_WEIGHT>
320.104859

> <PUBCHEM_TOTAL_CHARGE>
0

> <PUBCHEM_HEAVY_ATOM_COUNT>
24

> <PUBCHEM_ATOM_DEF_STEREO_COUNT>
0

> <PUBCHEM_ATOM_UDEF_STEREO_COUNT>
0

> <PUBCHEM_BOND_DEF_STEREO_COUNT>
0

> <PUBCHEM_BOND_UDEF_STEREO_COUNT>
0

> <PUBCHEM_ISOTOPIC_ATOM_COUNT>
0

> <PUBCHEM_COMPONENT_COUNT>
1

> <PUBCHEM_CACTVS_TAUTO_COUNT>
3

> <PUBCHEM_COORDINATE_TYPE>
1
5
255

> <PUBCHEM_BONDANNOTATIONS>
10  16  8
11  17  8
12  18  8
13  19  8
14  20  8
15  21  8
16  21  8
17  22  8
18  23  8
19  22  8
20  23  8
6  10  8
6  9  8
7  11  8
7  13  8
8  12  8
8  14  8
9  15  8

$$$$

