7407
  -OEChem-07051213053D

 19 19  0     0  0  0  0  0  0999 V2000
    0.2817    0.0239    0.0106 C   0  0  0  0  0  0  0  0  0  0  0  0
    1.7359    0.0536    0.0209 C   0  0  0  0  0  0  0  0  0  0  0  0
   -0.4384    1.1990   -0.2048 C   0  0  0  0  0  0  0  0  0  0  0  0
   -0.3927   -1.1796    0.2163 C   0  0  0  0  0  0  0  0  0  0  0  0
   -1.8330    1.1704   -0.2146 C   0  0  0  0  0  0  0  0  0  0  0  0
   -1.7872   -1.2081    0.2065 C   0  0  0  0  0  0  0  0  0  0  0  0
    2.5009   -1.1725   -0.4439 C   0  0  0  0  0  0  0  0  0  0  0  0
   -2.5074   -0.0332   -0.0089 C   0  0  0  0  0  0  0  0  0  0  0  0
    2.4401    1.1467    0.4179 C   0  0  0  0  0  0  0  0  0  0  0  0
    0.0484    2.1524   -0.3915 H   0  0  0  0  0  0  0  0  0  0  0  0
    0.1344   -2.1120    0.3978 H   0  0  0  0  0  0  0  0  0  0  0  0
   -2.3942    2.0841   -0.3874 H   0  0  0  0  0  0  0  0  0  0  0  0
   -2.3128   -2.1447    0.3688 H   0  0  0  0  0  0  0  0  0  0  0  0
    2.1042   -1.5375   -1.3977 H   0  0  0  0  0  0  0  0  0  0  0  0
    2.4397   -1.9747    0.2987 H   0  0  0  0  0  0  0  0  0  0  0  0
    3.5631   -0.9542   -0.6022 H   0  0  0  0  0  0  0  0  0  0  0  0
   -3.5932   -0.0556   -0.0172 H   0  0  0  0  0  0  0  0  0  0  0  0
    3.5261    1.1415    0.4088 H   0  0  0  0  0  0  0  0  0  0  0  0
    1.9699    2.0538    0.7813 H   0  0  0  0  0  0  0  0  0  0  0  0
  1  2  1  0  0  0  0
  1  3  2  0  0  0  0
  1  4  1  0  0  0  0
  2  7  1  0  0  0  0
  2  9  2  0  0  0  0
  3  5  1  0  0  0  0
  3 10  1  0  0  0  0
  4  6  2  0  0  0  0
  4 11  1  0  0  0  0
  5  8  2  0  0  0  0
  5 12  1  0  0  0  0
  6  8  1  0  0  0  0
  6 13  1  0  0  0  0
  7 14  1  0  0  0  0
  7 15  1  0  0  0  0
  7 16  1  0  0  0  0
  8 17  1  0  0  0  0
  9 18  1  0  0  0  0
  9 19  1  0  0  0  0
M  END
> <PUBCHEM_COMPOUND_CID>
7407

> <PUBCHEM_CONFORMER_RMSD>
0.4

> <PUBCHEM_CONFORMER_DIVERSEORDER>
3
1
2

> <PUBCHEM_MMFF94_PARTIAL_CHARGES>
16
1 0.03
10 0.15
11 0.15
12 0.15
13 0.15
17 0.15
18 0.15
19 0.15
2 -0.17
3 -0.15
4 -0.15
5 -0.15
6 -0.15
7 0.14
8 -0.15
9 -0.3

> <PUBCHEM_EFFECTIVE_ROTOR_COUNT>
1

> <PUBCHEM_PHARMACOPHORE_FEATURES>
1
6 1 3 4 5 6 8 rings

> <PUBCHEM_HEAVY_ATOM_COUNT>
9

> <PUBCHEM_ATOM_DEF_STEREO_COUNT>
0

> <PUBCHEM_ATOM_UDEF_STEREO_COUNT>
0

> <PUBCHEM_BOND_DEF_STEREO_COUNT>
0

> <PUBCHEM_BOND_UDEF_STEREO_COUNT>
0

> <PUBCHEM_ISOTOPIC_ATOM_COUNT>
0

> <PUBCHEM_COMPONENT_COUNT>
1

> <PUBCHEM_CACTVS_TAUTO_COUNT>
1

> <PUBCHEM_CONFORMER_ID>
00001CEF00000003

> <PUBCHEM_MMFF94_ENERGY>
26.8001

> <PUBCHEM_FEATURE_SELFOVERLAP>
5.074

> <PUBCHEM_SHAPE_FINGERPRINT>
10857977 72 18269563732113432801
12524768 44 18411420583350865678
12716758 59 18342177803573216539
12897270 3 18410573963861244118
14325111 11 18410294730778535437
16945 1 18342175561594922217
19973954 147 18409165515241459792
20201158 50 18261673774333232518
20645464 45 18335428958457898440
20871998 184 18191018993754966335
21040471 1 18270964668851558597
23552423 10 18201716245502719702
2748010 2 18411982455314988063
29004967 10 18337105653370817106
369184 2 18259705592505252625
5084963 1 18060131097964272748

> <PUBCHEM_SHAPE_MULTIPOLES>
185.22
3.78
1.54
0.68
0.85
0.02
0
0.05
0.04
0.04
0.01
0.08
0
0.4

> <PUBCHEM_SHAPE_SELFOVERLAP>
380.437

> <PUBCHEM_SHAPE_VOLUME>
103.5

> <PUBCHEM_COORDINATE_TYPE>
2
5
10

$$$$

