12913
  -OEChem-06261207322D

 30 31  0     0  0  0  0  0  0999 V2000
    6.1075   -2.5734    0.0000 O   0  0  0  0  0  0  0  0  0  0  0  0
    8.9178   -0.8907    0.0000 O   0  0  0  0  0  0  0  0  0  0  0  0
    2.0000   -0.5201    0.0000 O   0  0  0  0  0  0  0  0  0  0  0  0
    6.9178   -0.8907    0.0000 N   0  0  0  0  0  0  0  0  0  0  0  0
    7.4178   -0.0246    0.0000 N   0  0  0  0  0  0  0  0  0  0  0  0
    9.9178    2.5734    0.0000 N   0  0  0  0  0  0  0  0  0  0  0  0
    2.8262    0.0432    0.0000 N   0  0  0  0  0  0  0  0  0  0  0  0
    5.9178   -0.8907    0.0000 C   0  0  0  0  0  0  0  0  0  0  0  0
    8.9178    0.8414    0.0000 C   0  0  0  0  0  0  0  0  0  0  0  0
    5.4840    0.0103    0.0000 C   0  0  0  0  0  0  0  0  0  0  0  0
    5.4840   -1.7916    0.0000 C   0  0  0  0  0  0  0  0  0  0  0  0
    8.4178   -0.0246    0.0000 C   0  0  0  0  0  0  0  0  0  0  0  0
    4.5090    0.2328    0.0000 C   0  0  0  0  0  0  0  0  0  0  0  0
    4.5090   -2.0141    0.0000 C   0  0  0  0  0  0  0  0  0  0  0  0
    3.7272   -0.3907    0.0000 C   0  0  0  0  0  0  0  0  0  0  0  0
    3.7272   -1.3906    0.0000 C   0  0  0  0  0  0  0  0  0  0  0  0
    8.4178    1.7074    0.0000 C   0  0  0  0  0  0  0  0  0  0  0  0
    9.9178    0.8414    0.0000 C   0  0  0  0  0  0  0  0  0  0  0  0
    8.9178    2.5734    0.0000 C   0  0  0  0  0  0  0  0  0  0  0  0
   10.4179    1.7074    0.0000 C   0  0  0  0  0  0  0  0  0  0  0  0
    7.2278   -1.4276    0.0000 H   0  0  0  0  0  0  0  0  0  0  0  0
    5.8705    0.4951    0.0000 H   0  0  0  0  0  0  0  0  0  0  0  0
    7.1078    0.5123    0.0000 H   0  0  0  0  0  0  0  0  0  0  0  0
    4.3711    0.8373    0.0000 H   0  0  0  0  0  0  0  0  0  0  0  0
    4.3711   -2.6186    0.0000 H   0  0  0  0  0  0  0  0  0  0  0  0
    3.1686   -1.6597    0.0000 H   0  0  0  0  0  0  0  0  0  0  0  0
    7.7978    1.7074    0.0000 H   0  0  0  0  0  0  0  0  0  0  0  0
   10.2279    0.3045    0.0000 H   0  0  0  0  0  0  0  0  0  0  0  0
    8.6078    3.1104    0.0000 H   0  0  0  0  0  0  0  0  0  0  0  0
   11.0379    1.7074    0.0000 H   0  0  0  0  0  0  0  0  0  0  0  0
  1 11  2  0  0  0  0
  2 12  2  0  0  0  0
  3  7  2  0  0  0  0
  4  5  1  0  0  0  0
  4  8  1  0  0  0  0
  4 21  1  0  0  0  0
  5 12  1  0  0  0  0
  5 23  1  0  0  0  0
  6 19  2  0  0  0  0
  6 20  1  0  0  0  0
  7 15  1  0  0  0  0
  8 10  2  0  0  0  0
  8 11  1  0  0  0  0
  9 12  1  0  0  0  0
  9 17  2  0  0  0  0
  9 18  1  0  0  0  0
 10 13  1  0  0  0  0
 10 22  1  0  0  0  0
 11 14  1  0  0  0  0
 13 15  2  0  0  0  0
 13 24  1  0  0  0  0
 14 16  2  0  0  0  0
 14 25  1  0  0  0  0
 15 16  1  0  0  0  0
 16 26  1  0  0  0  0
 17 19  1  0  0  0  0
 17 27  1  0  0  0  0
 18 20  2  0  0  0  0
 18 28  1  0  0  0  0
 19 29  1  0  0  0  0
 20 30  1  0  0  0  0
M  END
> <PUBCHEM_COMPOUND_CID>
12913

> <PUBCHEM_COMPOUND_CANONICALIZED>
1

> <PUBCHEM_CACTVS_COMPLEXITY>
502

> <PUBCHEM_CACTVS_HBOND_ACCEPTOR>
6

> <PUBCHEM_CACTVS_HBOND_DONOR>
2

> <PUBCHEM_CACTVS_ROTATABLE_BOND>
3

> <PUBCHEM_CACTVS_SUBSKEYS>
AAADccBzsAAAAAAAAAAAAAAAAAAAAAAAAAAsAAAABAAAAAABgAAAHgAcAAAADAzBmgQ8gJJ6EACpArV3VgCCgCA1AiIa+CG4ZNgIIHLAlZGEIQhggADIyYYUAAAKAAAAAAAAAAAAAAAAAAAAAAAAAAAAAA==

> <PUBCHEM_IUPAC_OPENEYE_NAME>
N'-(4-nitroso-7-oxo-cyclohepta-1,3,5-trien-1-yl)pyridine-4-carbohydrazide

> <PUBCHEM_IUPAC_CAS_NAME>
N'-(4-nitroso-7-oxo-1-cyclohepta-1,3,5-trienyl)-4-pyridinecarbohydrazide

> <PUBCHEM_IUPAC_NAME>
N'-(4-nitroso-7-oxocyclohepta-1,3,5-trien-1-yl)pyridine-4-carbohydrazide

> <PUBCHEM_IUPAC_SYSTEMATIC_NAME>
N'-(4-nitroso-7-oxidanylidene-cyclohepta-1,3,5-trien-1-yl)pyridine-4-carbohydrazide

> <PUBCHEM_IUPAC_TRADITIONAL_NAME>
N'-(7-keto-4-nitroso-cyclohepta-1,3,5-trien-1-yl)isonicotinohydrazide

> <PUBCHEM_IUPAC_INCHI>
InChI=1S/C13H10N4O3/c18-12-4-2-10(17-20)1-3-11(12)15-16-13(19)9-5-7-14-8-6-9/h1-8H,(H,15,18)(H,16,19)

> <PUBCHEM_IUPAC_INCHIKEY>
MQDAALFMMPMHAN-UHFFFAOYSA-N

> <PUBCHEM_XLOGP3_AA>
1.5

> <PUBCHEM_EXACT_MASS>
270.07529

> <PUBCHEM_MOLECULAR_FORMULA>
C13H10N4O3

> <PUBCHEM_MOLECULAR_WEIGHT>
270.2435

> <PUBCHEM_OPENEYE_CAN_SMILES>
C1=CC(=O)C(=CC=C1N=O)NNC(=O)C2=CC=NC=C2

> <PUBCHEM_OPENEYE_ISO_SMILES>
C1=CC(=O)C(=CC=C1N=O)NNC(=O)C2=CC=NC=C2

> <PUBCHEM_CACTVS_TPSA>
101

> <PUBCHEM_MONOISOTOPIC_WEIGHT>
270.07529

> <PUBCHEM_TOTAL_CHARGE>
0

> <PUBCHEM_HEAVY_ATOM_COUNT>
20

> <PUBCHEM_ATOM_DEF_STEREO_COUNT>
0

> <PUBCHEM_ATOM_UDEF_STEREO_COUNT>
0

> <PUBCHEM_BOND_DEF_STEREO_COUNT>
0

> <PUBCHEM_BOND_UDEF_STEREO_COUNT>
0

> <PUBCHEM_ISOTOPIC_ATOM_COUNT>
0

> <PUBCHEM_COMPONENT_COUNT>
1

> <PUBCHEM_CACTVS_TAUTO_COUNT>
30

> <PUBCHEM_COORDINATE_TYPE>
1
5
255

> <PUBCHEM_BONDANNOTATIONS>
10  13  8
11  14  8
13  15  8
14  16  8
15  16  8
17  19  8
18  20  8
6  19  8
6  20  8
8  10  8
8  11  8
9  17  8
9  18  8

$$$$

