12511
  -OEChem-07051212543D

 16 16  0     0  0  0  0  0  0999 V2000
   -2.6114   -0.0002   -0.2293 O   0  0  0  0  0  0  0  0  0  0  0  0
    2.6108   -0.0003    0.2313 O   0  0  0  0  0  0  0  0  0  0  0  0
   -0.6716    1.2853    0.3532 C   0  0  0  0  0  0  0  0  0  0  0  0
   -0.6712   -1.2851    0.3537 C   0  0  0  0  0  0  0  0  0  0  0  0
    0.6718    1.2853   -0.3541 C   0  0  0  0  0  0  0  0  0  0  0  0
    0.6715   -1.2849   -0.3547 C   0  0  0  0  0  0  0  0  0  0  0  0
   -1.4232   -0.0001    0.0885 C   0  0  0  0  0  0  0  0  0  0  0  0
    1.4233    0.0000   -0.0886 C   0  0  0  0  0  0  0  0  0  0  0  0
   -1.2746    2.1337    0.0134 H   0  0  0  0  0  0  0  0  0  0  0  0
   -0.5401    1.3735    1.4376 H   0  0  0  0  0  0  0  0  0  0  0  0
   -0.5389   -1.3726    1.4380 H   0  0  0  0  0  0  0  0  0  0  0  0
   -1.2741   -2.1339    0.0149 H   0  0  0  0  0  0  0  0  0  0  0  0
    1.2747    2.1338   -0.0147 H   0  0  0  0  0  0  0  0  0  0  0  0
    0.5404    1.3731   -1.4385 H   0  0  0  0  0  0  0  0  0  0  0  0
    0.5393   -1.3718   -1.4390 H   0  0  0  0  0  0  0  0  0  0  0  0
    1.2745   -2.1338   -0.0163 H   0  0  0  0  0  0  0  0  0  0  0  0
  1  7  2  0  0  0  0
  2  8  2  0  0  0  0
  3  5  1  0  0  0  0
  3  7  1  0  0  0  0
  3  9  1  0  0  0  0
  3 10  1  0  0  0  0
  4  6  1  0  0  0  0
  4  7  1  0  0  0  0
  4 11  1  0  0  0  0
  4 12  1  0  0  0  0
  5  8  1  0  0  0  0
  5 13  1  0  0  0  0
  5 14  1  0  0  0  0
  6  8  1  0  0  0  0
  6 15  1  0  0  0  0
  6 16  1  0  0  0  0
M  END
> <PUBCHEM_COMPOUND_CID>
12511

> <PUBCHEM_CONFORMER_RMSD>
0.4

> <PUBCHEM_CONFORMER_DIVERSEORDER>
1

> <PUBCHEM_MMFF94_PARTIAL_CHARGES>
8
1 -0.57
2 -0.57
3 0.06
4 0.06
5 0.06
6 0.06
7 0.45
8 0.45

> <PUBCHEM_EFFECTIVE_ROTOR_COUNT>
0.8

> <PUBCHEM_PHARMACOPHORE_FEATURES>
3
1 1 acceptor
1 2 acceptor
6 3 4 5 6 7 8 rings

> <PUBCHEM_HEAVY_ATOM_COUNT>
8

> <PUBCHEM_ATOM_DEF_STEREO_COUNT>
0

> <PUBCHEM_ATOM_UDEF_STEREO_COUNT>
0

> <PUBCHEM_BOND_DEF_STEREO_COUNT>
0

> <PUBCHEM_BOND_UDEF_STEREO_COUNT>
0

> <PUBCHEM_ISOTOPIC_ATOM_COUNT>
0

> <PUBCHEM_COMPONENT_COUNT>
1

> <PUBCHEM_CACTVS_TAUTO_COUNT>
4

> <PUBCHEM_CONFORMER_ID>
000030DF00000001

> <PUBCHEM_MMFF94_ENERGY>
7.7503

> <PUBCHEM_FEATURE_SELFOVERLAP>
15.223

> <PUBCHEM_SHAPE_FINGERPRINT>
16714656 1 18410571790692181774
18185500 45 18409449184845998071
21040471 1 18410849962591154438
23235685 24 18410575088958150148
23552423 10 18127117804657726014
241688 4 17907288106904205144
29004967 10 18412536626407977921
5084963 1 18261672666099456952

> <PUBCHEM_SHAPE_MULTIPOLES>
152.9
2.69
1.48
0.67
0
0
0
0
0
0
0
0
0
0

> <PUBCHEM_SHAPE_SELFOVERLAP>
304.095

> <PUBCHEM_SHAPE_VOLUME>
90.2

> <PUBCHEM_COORDINATE_TYPE>
2
5
10

$$$$

