91687
  -OEChem-07051213113D

 40 40  0     0  0  0  0  0  0999 V2000
    2.4607   -4.4413   -0.0722 Cl  0  0  0  0  0  0  0  0  0  0  0  0
   -2.4294    1.6207    0.0059 S   0  0  0  0  0  0  0  0  0  0  0  0
   -5.7142    0.3874    0.2641 S   0  0  0  0  0  0  0  0  0  0  0  0
   -3.8041   -0.0029    0.0427 P   0  0  0  0  0  0  0  0  0  0  0  0
    0.0296    3.1142    0.0286 O   0  0  0  0  0  0  0  0  0  0  0  0
   -3.2608   -1.0625    1.1632 O   0  0  0  0  0  0  0  0  0  0  0  0
   -3.5065   -0.9075   -1.2867 O   0  0  0  0  0  0  0  0  0  0  0  0
    1.6285    1.4051    0.0040 N   0  0  0  0  0  0  0  0  0  0  0  0
    2.8001    2.2945    0.0133 C   0  0  0  0  0  0  0  0  0  0  0  0
    1.8325   -0.0317   -0.0148 C   0  0  0  0  0  0  0  0  0  0  0  0
    3.6361    2.0645    1.2661 C   0  0  0  0  0  0  0  0  0  0  0  0
    3.6289    2.0915   -1.2484 C   0  0  0  0  0  0  0  0  0  0  0  0
    0.3095    1.9128    0.0128 C   0  0  0  0  0  0  0  0  0  0  0  0
   -0.7922    0.8634    0.0354 C   0  0  0  0  0  0  0  0  0  0  0  0
    1.9204   -0.6512   -1.2309 C   0  0  0  0  0  0  0  0  0  0  0  0
    1.9254   -0.6820    1.1848 C   0  0  0  0  0  0  0  0  0  0  0  0
    2.1171   -2.0319   -1.2490 C   0  0  0  0  0  0  0  0  0  0  0  0
    2.1220   -2.0628    1.1667 C   0  0  0  0  0  0  0  0  0  0  0  0
    2.2177   -2.7378   -0.0501 C   0  0  0  0  0  0  0  0  0  0  0  0
   -3.3040   -0.7335    2.5419 C   0  0  0  0  0  0  0  0  0  0  0  0
   -3.8175   -0.4091   -2.5773 C   0  0  0  0  0  0  0  0  0  0  0  0
    2.4455    3.3314    0.0255 H   0  0  0  0  0  0  0  0  0  0  0  0
    3.0233    2.1478    2.1703 H   0  0  0  0  0  0  0  0  0  0  0  0
    4.4297    2.8171    1.3336 H   0  0  0  0  0  0  0  0  0  0  0  0
    4.1237    1.0843    1.2713 H   0  0  0  0  0  0  0  0  0  0  0  0
    4.4221    2.8455   -1.3037 H   0  0  0  0  0  0  0  0  0  0  0  0
    4.1173    1.1121   -1.2775 H   0  0  0  0  0  0  0  0  0  0  0  0
    3.0118    2.1946   -2.1475 H   0  0  0  0  0  0  0  0  0  0  0  0
   -0.7175    0.2175   -0.8424 H   0  0  0  0  0  0  0  0  0  0  0  0
   -0.7171    0.2674    0.9480 H   0  0  0  0  0  0  0  0  0  0  0  0
    1.8329   -0.1084   -2.1665 H   0  0  0  0  0  0  0  0  0  0  0  0
    1.8422   -0.1632    2.1342 H   0  0  0  0  0  0  0  0  0  0  0  0
    2.1876   -2.5449   -2.2047 H   0  0  0  0  0  0  0  0  0  0  0  0
    2.1965   -2.6000    2.1088 H   0  0  0  0  0  0  0  0  0  0  0  0
   -4.2993   -0.9470    2.9390 H   0  0  0  0  0  0  0  0  0  0  0  0
   -2.5735   -1.3519    3.0694 H   0  0  0  0  0  0  0  0  0  0  0  0
   -3.0578    0.3186    2.7040 H   0  0  0  0  0  0  0  0  0  0  0  0
   -4.8833   -0.5436   -2.7771 H   0  0  0  0  0  0  0  0  0  0  0  0
   -3.5537    0.6475   -2.6642 H   0  0  0  0  0  0  0  0  0  0  0  0
   -3.2462   -0.9771   -3.3158 H   0  0  0  0  0  0  0  0  0  0  0  0
  1 19  1  0  0  0  0
  2  4  1  0  0  0  0
  2 14  1  0  0  0  0
  3  4  2  0  0  0  0
  4  6  1  0  0  0  0
  4  7  1  0  0  0  0
  5 13  2  0  0  0  0
  6 20  1  0  0  0  0
  7 21  1  0  0  0  0
  8  9  1  0  0  0  0
  8 10  1  0  0  0  0
  8 13  1  0  0  0  0
  9 11  1  0  0  0  0
  9 12  1  0  0  0  0
  9 22  1  0  0  0  0
 10 15  2  0  0  0  0
 10 16  1  0  0  0  0
 11 23  1  0  0  0  0
 11 24  1  0  0  0  0
 11 25  1  0  0  0  0
 12 26  1  0  0  0  0
 12 27  1  0  0  0  0
 12 28  1  0  0  0  0
 13 14  1  0  0  0  0
 14 29  1  0  0  0  0
 14 30  1  0  0  0  0
 15 17  1  0  0  0  0
 15 31  1  0  0  0  0
 16 18  2  0  0  0  0
 16 32  1  0  0  0  0
 17 19  2  0  0  0  0
 17 33  1  0  0  0  0
 18 19  1  0  0  0  0
 18 34  1  0  0  0  0
 20 35  1  0  0  0  0
 20 36  1  0  0  0  0
 20 37  1  0  0  0  0
 21 38  1  0  0  0  0
 21 39  1  0  0  0  0
 21 40  1  0  0  0  0
M  END
> <PUBCHEM_COMPOUND_CID>
91687

> <PUBCHEM_CONFORMER_RMSD>
0.8

> <PUBCHEM_CONFORMER_DIVERSEORDER>
1
71
196
192
133
150
144
56
134
110
165
162
108
194
87
195
148
193
157
170
64
23
122
53
164
3
99
125
182
94
179
75
41
105
81
70
156
141
145
101
184
92
34
160
171
73
120
163
5
177
186
32
146
91
68
83
181
119
185
175
29
180
188
28
42
112
61
93
77
189
51
78
20
161
89
49
176
38
152
17
126
173
84
59
172
97
90
55
16
40
6
11
109
115
128
123
137
169
129
69
86
4
98
111
118
130
65
33
76
147
103
96
26
95
31
140
57
197
151
43
44
13
131
35
143
80
88
74
132
82
27
85
139
12
135
174
8
37
104
10
36
113
136
22
50
46
58
168
63
155
62
45
106
30
18
72
149
25
67
117
52
142
47
127
15
54
107
24
100
14
102
2
21
39
19
7
183
79
167
48
154
116
187
124
9
138
158
60
66
159
190
153
191
114
178
121
166

> <PUBCHEM_MMFF94_PARTIAL_CHARGES>
23
1 -0.18
10 0.12
13 0.57
14 0.29
15 -0.15
16 -0.15
17 -0.15
18 -0.15
19 0.18
2 -0.48
20 0.28
21 0.28
3 -0.68
31 0.15
32 0.15
33 0.15
34 0.15
4 1.47
5 -0.57
6 -0.55
7 -0.55
8 -0.48
9 0.3

> <PUBCHEM_EFFECTIVE_ROTOR_COUNT>
8

> <PUBCHEM_PHARMACOPHORE_FEATURES>
3
1 5 acceptor
3 9 11 12 hydrophobe
6 10 15 16 17 18 19 rings

> <PUBCHEM_HEAVY_ATOM_COUNT>
21

> <PUBCHEM_ATOM_DEF_STEREO_COUNT>
0

> <PUBCHEM_ATOM_UDEF_STEREO_COUNT>
0

> <PUBCHEM_BOND_DEF_STEREO_COUNT>
0

> <PUBCHEM_BOND_UDEF_STEREO_COUNT>
0

> <PUBCHEM_ISOTOPIC_ATOM_COUNT>
0

> <PUBCHEM_COMPONENT_COUNT>
1

> <PUBCHEM_CACTVS_TAUTO_COUNT>
1

> <PUBCHEM_CONFORMER_ID>
0001662700000001

> <PUBCHEM_MMFF94_ENERGY>
62.7154

> <PUBCHEM_FEATURE_SELFOVERLAP>
15.223

> <PUBCHEM_SHAPE_FINGERPRINT>
11578080 2 17415286302161730596
12363563 72 18266744773500220847
12553582 1 17838614809583030739
13083527 12 18194993891845910208
13533116 47 18336258029513093193
14844126 61 17328598721783597722
14863182 85 18412825751048867164
15375358 24 18201721704743828297
15635459 17 18342451530745410523
17134984 74 17757585987522798511
17818456 19 17678170710711226913
20600515 1 17476953579809967408
20645477 70 18412545414217014007
20681651 13 17748832895543760769
21054139 6 17898589582612044685
21421861 104 18409730707104532313
23184049 29 18194687200826320536
23557571 272 16630530626543899301
23559900 14 18201992248532839732
238 59 18196672700004025399
3421961 26 18337670931280973867
9709674 26 18342738563483713649

> <PUBCHEM_SHAPE_MULTIPOLES>
423
9.04
4.03
1.8
12.32
2.23
-0.1
0.53
-0.18
-6.13
-0.01
1.49
0.57
0.13

> <PUBCHEM_SHAPE_SELFOVERLAP>
798.219

> <PUBCHEM_SHAPE_VOLUME>
266.5

> <PUBCHEM_COORDINATE_TYPE>
2
5
10

$$$$

