12712
  -OEChem-06261207162D

 43 42  0     0  0  0  0  0  0999 V2000
    7.1962    2.2500    0.0000 O   0  0  0  0  0  0  0  0  0  0  0  0
    5.4641    2.2500    0.0000 O   0  0  0  0  0  0  0  0  0  0  0  0
    6.3301    0.7500    0.0000 O   0  0  0  0  0  0  0  0  0  0  0  0
    3.7320    2.2500    0.0000 C   0  0  0  0  0  0  0  0  0  0  0  0
    5.4641   -0.7500    0.0000 C   0  0  0  0  0  0  0  0  0  0  0  0
    8.9282    2.2500    0.0000 C   0  0  0  0  0  0  0  0  0  0  0  0
    9.7942    1.7500    0.0000 C   0  0  0  0  0  0  0  0  0  0  0  0
    4.5981   -1.2500    0.0000 C   0  0  0  0  0  0  0  0  0  0  0  0
    2.8660    1.7500    0.0000 C   0  0  0  0  0  0  0  0  0  0  0  0
    4.5981    1.7500    0.0000 C   0  0  0  0  0  0  0  0  0  0  0  0
    5.4641    0.2500    0.0000 C   0  0  0  0  0  0  0  0  0  0  0  0
    8.0622    1.7500    0.0000 C   0  0  0  0  0  0  0  0  0  0  0  0
    2.0000    2.2500    0.0000 C   0  0  0  0  0  0  0  0  0  0  0  0
    4.5981   -2.2500    0.0000 C   0  0  0  0  0  0  0  0  0  0  0  0
   10.6603    2.2500    0.0000 C   0  0  0  0  0  0  0  0  0  0  0  0
    6.3301    1.7500    0.0000 B   0  0  0  0  0  0  0  0  0  0  0  0
    4.1306    2.7250    0.0000 H   0  0  0  0  0  0  0  0  0  0  0  0
    3.3335    2.7250    0.0000 H   0  0  0  0  0  0  0  0  0  0  0  0
    5.6762   -1.3326    0.0000 H   0  0  0  0  0  0  0  0  0  0  0  0
    6.0747   -0.6423    0.0000 H   0  0  0  0  0  0  0  0  0  0  0  0
    9.3267    2.7250    0.0000 H   0  0  0  0  0  0  0  0  0  0  0  0
    8.5297    2.7250    0.0000 H   0  0  0  0  0  0  0  0  0  0  0  0
    9.3957    1.2750    0.0000 H   0  0  0  0  0  0  0  0  0  0  0  0
   10.1928    1.2750    0.0000 H   0  0  0  0  0  0  0  0  0  0  0  0
    4.3860   -0.6674    0.0000 H   0  0  0  0  0  0  0  0  0  0  0  0
    3.9875   -1.3577    0.0000 H   0  0  0  0  0  0  0  0  0  0  0  0
    2.4675    1.2750    0.0000 H   0  0  0  0  0  0  0  0  0  0  0  0
    3.2646    1.2750    0.0000 H   0  0  0  0  0  0  0  0  0  0  0  0
    7.6636    1.2750    0.0000 H   0  0  0  0  0  0  0  0  0  0  0  0
    8.4607    1.2750    0.0000 H   0  0  0  0  0  0  0  0  0  0  0  0
    5.2520    0.8326    0.0000 H   0  0  0  0  0  0  0  0  0  0  0  0
    4.8535    0.1423    0.0000 H   0  0  0  0  0  0  0  0  0  0  0  0
    4.1996    1.2750    0.0000 H   0  0  0  0  0  0  0  0  0  0  0  0
    4.9966    1.2750    0.0000 H   0  0  0  0  0  0  0  0  0  0  0  0
    2.3100    2.7869    0.0000 H   0  0  0  0  0  0  0  0  0  0  0  0
    1.4631    2.5600    0.0000 H   0  0  0  0  0  0  0  0  0  0  0  0
    1.6900    1.7131    0.0000 H   0  0  0  0  0  0  0  0  0  0  0  0
    3.9781   -2.2500    0.0000 H   0  0  0  0  0  0  0  0  0  0  0  0
    4.5981   -2.8700    0.0000 H   0  0  0  0  0  0  0  0  0  0  0  0
    5.2181   -2.2500    0.0000 H   0  0  0  0  0  0  0  0  0  0  0  0
   10.9703    1.7131    0.0000 H   0  0  0  0  0  0  0  0  0  0  0  0
   11.1972    2.5600    0.0000 H   0  0  0  0  0  0  0  0  0  0  0  0
   10.3503    2.7869    0.0000 H   0  0  0  0  0  0  0  0  0  0  0  0
  1 12  1  0  0  0  0
  1 16  1  0  0  0  0
  2 10  1  0  0  0  0
  2 16  1  0  0  0  0
  3 11  1  0  0  0  0
  3 16  1  0  0  0  0
  4  9  1  0  0  0  0
  4 10  1  0  0  0  0
  4 17  1  0  0  0  0
  4 18  1  0  0  0  0
  5  8  1  0  0  0  0
  5 11  1  0  0  0  0
  5 19  1  0  0  0  0
  5 20  1  0  0  0  0
  6  7  1  0  0  0  0
  6 12  1  0  0  0  0
  6 21  1  0  0  0  0
  6 22  1  0  0  0  0
  7 15  1  0  0  0  0
  7 23  1  0  0  0  0
  7 24  1  0  0  0  0
  8 14  1  0  0  0  0
  8 25  1  0  0  0  0
  8 26  1  0  0  0  0
  9 13  1  0  0  0  0
  9 27  1  0  0  0  0
  9 28  1  0  0  0  0
 10 33  1  0  0  0  0
 10 34  1  0  0  0  0
 11 31  1  0  0  0  0
 11 32  1  0  0  0  0
 12 29  1  0  0  0  0
 12 30  1  0  0  0  0
 13 35  1  0  0  0  0
 13 36  1  0  0  0  0
 13 37  1  0  0  0  0
 14 38  1  0  0  0  0
 14 39  1  0  0  0  0
 14 40  1  0  0  0  0
 15 41  1  0  0  0  0
 15 42  1  0  0  0  0
 15 43  1  0  0  0  0
M  END
> <PUBCHEM_COMPOUND_CID>
12712

> <PUBCHEM_COMPOUND_CANONICALIZED>
1

> <PUBCHEM_CACTVS_COMPLEXITY>
110

> <PUBCHEM_CACTVS_HBOND_ACCEPTOR>
3

> <PUBCHEM_CACTVS_HBOND_DONOR>
0

> <PUBCHEM_CACTVS_ROTATABLE_BOND>
12

> <PUBCHEM_CACTVS_SUBSKEYS>
AAADceJwMAAAAAAAAAAAAAAAAAAAAAAAAAAAAAAAAAAAAAAAAAAIGgAAAAAACACggAICAAAAAAAAAAAAAAAAAAAAAAAAAAAAAAAAAAAAAAAAAAAEAAAAAAAAAAAAAAAAAAAAAAAAAAAAAAAAAAAAAAAAAA==

> <PUBCHEM_IUPAC_OPENEYE_NAME>
tributyl borate

> <PUBCHEM_IUPAC_CAS_NAME>
tributyl borate

> <PUBCHEM_IUPAC_NAME>
tributyl borate

> <PUBCHEM_IUPAC_SYSTEMATIC_NAME>
tributyl borate

> <PUBCHEM_IUPAC_TRADITIONAL_NAME>
tributyl borate

> <PUBCHEM_IUPAC_INCHI>
InChI=1S/C12H27BO3/c1-4-7-10-14-13(15-11-8-5-2)16-12-9-6-3/h4-12H2,1-3H3

> <PUBCHEM_IUPAC_INCHIKEY>
LGQXXHMEBUOXRP-UHFFFAOYSA-N

> <PUBCHEM_EXACT_MASS>
230.205325

> <PUBCHEM_MOLECULAR_FORMULA>
C12H27BO3

> <PUBCHEM_MOLECULAR_WEIGHT>
230.15198

> <PUBCHEM_OPENEYE_CAN_SMILES>
B(OCCCC)(OCCCC)OCCCC

> <PUBCHEM_OPENEYE_ISO_SMILES>
B(OCCCC)(OCCCC)OCCCC

> <PUBCHEM_CACTVS_TPSA>
27.7

> <PUBCHEM_MONOISOTOPIC_WEIGHT>
230.205325

> <PUBCHEM_TOTAL_CHARGE>
0

> <PUBCHEM_HEAVY_ATOM_COUNT>
16

> <PUBCHEM_ATOM_DEF_STEREO_COUNT>
0

> <PUBCHEM_ATOM_UDEF_STEREO_COUNT>
0

> <PUBCHEM_BOND_DEF_STEREO_COUNT>
0

> <PUBCHEM_BOND_UDEF_STEREO_COUNT>
0

> <PUBCHEM_ISOTOPIC_ATOM_COUNT>
0

> <PUBCHEM_COMPONENT_COUNT>
1

> <PUBCHEM_CACTVS_TAUTO_COUNT>
1

> <PUBCHEM_COORDINATE_TYPE>
1
5
255

$$$$

