14749
  -OEChem-07051213012D

 55 58  0     1  0  0  0  0  0999 V2000
   10.4601    0.8741    0.0000 O   0  0  0  0  0  0  0  0  0  0  0  0
   11.3357   -1.6225    0.0000 O   0  0  0  0  0  0  0  0  0  0  0  0
   13.0639   -0.6158    0.0000 O   0  0  0  0  0  0  0  0  0  0  0  0
   13.0562    1.3841    0.0000 O   0  0  0  0  0  0  0  0  0  0  0  0
   12.1844    2.8808    0.0000 O   0  0  0  0  0  0  0  0  0  0  0  0
    8.6822    0.8846    0.0000 O   0  0  0  0  0  0  0  0  0  0  0  0
   10.4639   -2.1742    0.0000 O   0  0  0  0  0  0  0  0  0  0  0  0
    8.6822   -3.1846    0.0000 O   0  0  0  0  0  0  0  0  0  0  0  0
    6.9338    0.8500    0.0000 O   0  0  0  0  0  0  0  0  0  0  0  0
    6.9338   -3.1500    0.0000 O   0  0  0  0  0  0  0  0  0  0  0  0
    3.4037   -2.1742    0.0000 O   0  0  0  0  0  0  0  0  0  0  0  0
    2.5357   -0.6225    0.0000 O   0  0  0  0  0  0  0  0  0  0  0  0
    3.4075    0.8741    0.0000 O   0  0  0  0  0  0  0  0  0  0  0  0
   10.4639   -0.1259    0.0000 C   0  0  1  0  0  0  0  0  0  0  0  0
   11.3319   -0.6225    0.0000 C   0  0  1  0  0  0  0  0  0  0  0  0
   12.1960   -0.1192    0.0000 C   0  0  2  0  0  0  0  0  0  0  0  0
   12.1921    0.8808    0.0000 C   0  0  1  0  0  0  0  0  0  0  0  0
   11.3242    1.3775    0.0000 C   0  0  1  0  0  0  0  0  0  0  0  0
    9.5998   -0.6292    0.0000 C   0  0  0  0  0  0  0  0  0  0  0  0
   11.3203    2.3775    0.0000 C   0  0  0  0  0  0  0  0  0  0  0  0
    8.6938   -0.1153    0.0000 C   0  0  0  0  0  0  0  0  0  0  0  0
    9.5998   -1.6708    0.0000 C   0  0  0  0  0  0  0  0  0  0  0  0
    7.7998   -0.6500    0.0000 C   0  0  0  0  0  0  0  0  0  0  0  0
    7.7998   -1.6500    0.0000 C   0  0  0  0  0  0  0  0  0  0  0  0
    8.6938   -2.1847    0.0000 C   0  0  0  0  0  0  0  0  0  0  0  0
    6.9338   -0.1500    0.0000 C   0  0  0  0  0  0  0  0  0  0  0  0
    6.0678   -0.6500    0.0000 C   0  0  0  0  0  0  0  0  0  0  0  0
    6.9338   -2.1500    0.0000 C   0  0  0  0  0  0  0  0  0  0  0  0
    6.0678   -1.6500    0.0000 C   0  0  0  0  0  0  0  0  0  0  0  0
    5.1738   -0.1153    0.0000 C   0  0  0  0  0  0  0  0  0  0  0  0
    5.1738   -2.1847    0.0000 C   0  0  0  0  0  0  0  0  0  0  0  0
    4.2678   -0.6292    0.0000 C   0  0  0  0  0  0  0  0  0  0  0  0
    4.2678   -1.6708    0.0000 C   0  0  0  0  0  0  0  0  0  0  0  0
    5.1854    0.8846    0.0000 C   0  0  0  0  0  0  0  0  0  0  0  0
    3.4037   -0.1259    0.0000 C   0  0  0  0  0  0  0  0  0  0  0  0
   10.4672   -0.9759    0.0000 H   0  0  0  0  0  0  0  0  0  0  0  0
   11.8700   -0.9304    0.0000 H   0  0  0  0  0  0  0  0  0  0  0  0
   12.1984   -0.7392    0.0000 H   0  0  0  0  0  0  0  0  0  0  0  0
   12.7302    0.5729    0.0000 H   0  0  0  0  0  0  0  0  0  0  0  0
   10.7860    1.6854    0.0000 H   0  0  0  0  0  0  0  0  0  0  0  0
   11.1060    2.9592    0.0000 H   0  0  0  0  0  0  0  0  0  0  0  0
   10.7102    2.2675    0.0000 H   0  0  0  0  0  0  0  0  0  0  0  0
   11.8739   -1.9304    0.0000 H   0  0  0  0  0  0  0  0  0  0  0  0
   13.5997   -0.3038    0.0000 H   0  0  0  0  0  0  0  0  0  0  0  0
   13.5943    1.0762    0.0000 H   0  0  0  0  0  0  0  0  0  0  0  0
   12.1820    3.5008    0.0000 H   0  0  0  0  0  0  0  0  0  0  0  0
    8.1417    1.1884    0.0000 H   0  0  0  0  0  0  0  0  0  0  0  0
   10.4615   -2.7942    0.0000 H   0  0  0  0  0  0  0  0  0  0  0  0
    5.1810   -2.8046    0.0000 H   0  0  0  0  0  0  0  0  0  0  0  0
    9.2155   -3.5008    0.0000 H   0  0  0  0  0  0  0  0  0  0  0  0
    5.8054    0.8774    0.0000 H   0  0  0  0  0  0  0  0  0  0  0  0
    5.1926    1.5045    0.0000 H   0  0  0  0  0  0  0  0  0  0  0  0
    4.5654    0.8918    0.0000 H   0  0  0  0  0  0  0  0  0  0  0  0
    3.4061   -2.7942    0.0000 H   0  0  0  0  0  0  0  0  0  0  0  0
    2.0000   -0.3104    0.0000 H   0  0  0  0  0  0  0  0  0  0  0  0
  1 14  1  0  0  0  0
  1 18  1  0  0  0  0
 15  2  1  1  0  0  0
  2 43  1  0  0  0  0
 16  3  1  6  0  0  0
  3 44  1  0  0  0  0
 17  4  1  1  0  0  0
  4 45  1  0  0  0  0
  5 20  1  0  0  0  0
  5 46  1  0  0  0  0
  6 21  1  0  0  0  0
  6 47  1  0  0  0  0
  7 22  1  0  0  0  0
  7 48  1  0  0  0  0
  8 25  1  0  0  0  0
  8 50  1  0  0  0  0
  9 26  2  0  0  0  0
 10 28  2  0  0  0  0
 11 33  1  0  0  0  0
 11 54  1  0  0  0  0
 12 35  1  0  0  0  0
 12 55  1  0  0  0  0
 13 35  2  0  0  0  0
 14 15  1  0  0  0  0
 14 19  1  0  0  0  0
 14 36  1  6  0  0  0
 15 16  1  0  0  0  0
 15 37  1  0  0  0  0
 16 17  1  0  0  0  0
 16 38  1  0  0  0  0
 17 18  1  0  0  0  0
 17 39  1  0  0  0  0
 18 20  1  6  0  0  0
 18 40  1  0  0  0  0
 19 21  2  0  0  0  0
 19 22  1  0  0  0  0
 20 41  1  0  0  0  0
 20 42  1  0  0  0  0
 21 23  1  0  0  0  0
 22 25  2  0  0  0  0
 23 24  2  0  0  0  0
 23 26  1  0  0  0  0
 24 25  1  0  0  0  0
 24 28  1  0  0  0  0
 26 27  1  0  0  0  0
 27 29  1  0  0  0  0
 27 30  2  0  0  0  0
 28 29  1  0  0  0  0
 29 31  2  0  0  0  0
 30 32  1  0  0  0  0
 30 34  1  0  0  0  0
 31 33  1  0  0  0  0
 31 49  1  0  0  0  0
 32 33  2  0  0  0  0
 32 35  1  0  0  0  0
 34 51  1  0  0  0  0
 34 52  1  0  0  0  0
 34 53  1  0  0  0  0
M  END
> <PUBCHEM_COMPOUND_CID>
14749

> <PUBCHEM_COMPOUND_CANONICALIZED>
1

> <PUBCHEM_CACTVS_COMPLEXITY>
864

> <PUBCHEM_CACTVS_HBOND_ACCEPTOR>
13

> <PUBCHEM_CACTVS_HBOND_DONOR>
9

> <PUBCHEM_CACTVS_ROTATABLE_BOND>
3

> <PUBCHEM_CACTVS_SUBSKEYS>
AAADceB4PAAAAAAAAAAAAAAAAAAAAAAAAAA0YMEAAAAAAADBQAAAGgAACAAADBSgmAIyDoAABgCIAqDSCAACAAAkIAAAiAEGiMgJNzaCNBqCcUEl4BULuYfL7vTu4QADCAAYQADCAAYQADCAAAAAAAAAAA==

> <PUBCHEM_IUPAC_OPENEYE_NAME>
3,5,6,8-tetrahydroxy-1-methyl-9,10-dioxo-7-[(2R,3R,4R,5S,6R)-3,4,5-trihydroxy-6-(hydroxymethyl)tetrahydropyran-2-yl]anthracene-2-carboxylic acid

> <PUBCHEM_IUPAC_CAS_NAME>
3,5,6,8-tetrahydroxy-1-methyl-9,10-dioxo-7-[(2R,3R,4R,5S,6R)-3,4,5-trihydroxy-6-(hydroxymethyl)-2-oxanyl]-2-anthracenecarboxylic acid

> <PUBCHEM_IUPAC_NAME>
3,5,6,8-tetrahydroxy-1-methyl-9,10-dioxo-7-[(2R,3R,4R,5S,6R)-3,4,5-trihydroxy-6-(hydroxymethyl)oxan-2-yl]anthracene-2-carboxylic acid

> <PUBCHEM_IUPAC_SYSTEMATIC_NAME>
7-[(2R,3R,4R,5S,6R)-6-(hydroxymethyl)-3,4,5-tris(oxidanyl)oxan-2-yl]-1-methyl-3,5,6,8-tetrakis(oxidanyl)-9,10-bis(oxidanylidene)anthracene-2-carboxylic acid

> <PUBCHEM_IUPAC_TRADITIONAL_NAME>
3,5,6,8-tetrahydroxy-9,10-diketo-1-methyl-7-[(2R,3R,4R,5S,6R)-3,4,5-trihydroxy-6-methylol-tetrahydropyran-2-yl]anthracene-2-carboxylic acid

> <PUBCHEM_IUPAC_INCHI>
InChI=1S/C22H20O13/c1-4-8-5(2-6(24)9(4)22(33)34)13(25)10-11(15(8)27)16(28)12(18(30)17(10)29)21-20(32)19(31)14(26)7(3-23)35-21/h2,7,14,19-21,23-24,26,28-32H,3H2,1H3,(H,33,34)/t7-,14-,19+,20-,21-/m1/s1

> <PUBCHEM_IUPAC_INCHIKEY>
DGQLVPJVXFOQEV-NGOCYOHBSA-N

> <PUBCHEM_XLOGP3_AA>
0.5

> <PUBCHEM_EXACT_MASS>
492.090391

> <PUBCHEM_MOLECULAR_FORMULA>
C22H20O13

> <PUBCHEM_MOLECULAR_WEIGHT>
492.3864

> <PUBCHEM_OPENEYE_CAN_SMILES>
CC1=C2C(=CC(=C1C(=O)O)O)C(=O)C3=C(C2=O)C(=C(C(=C3O)O)C4C(C(C(C(O4)CO)O)O)O)O

> <PUBCHEM_OPENEYE_ISO_SMILES>
CC1=C2C(=CC(=C1C(=O)O)O)C(=O)C3=C(C2=O)C(=C(C(=C3O)O)[C@@H]4[C@@H]([C@H]([C@@H]([C@H](O4)CO)O)O)O)O

> <PUBCHEM_CACTVS_TPSA>
243

> <PUBCHEM_MONOISOTOPIC_WEIGHT>
492.090391

> <PUBCHEM_TOTAL_CHARGE>
0

> <PUBCHEM_HEAVY_ATOM_COUNT>
35

> <PUBCHEM_ATOM_DEF_STEREO_COUNT>
5

> <PUBCHEM_ATOM_UDEF_STEREO_COUNT>
0

> <PUBCHEM_BOND_DEF_STEREO_COUNT>
0

> <PUBCHEM_BOND_UDEF_STEREO_COUNT>
0

> <PUBCHEM_ISOTOPIC_ATOM_COUNT>
0

> <PUBCHEM_COMPONENT_COUNT>
1

> <PUBCHEM_CACTVS_TAUTO_COUNT>
600

> <PUBCHEM_COORDINATE_TYPE>
1
5
255

> <PUBCHEM_BONDANNOTATIONS>
14  36  6
18  20  6
19  21  8
19  22  8
15  2  5
21  23  8
22  25  8
23  24  8
24  25  8
27  29  8
27  30  8
29  31  8
16  3  6
30  32  8
31  33  8
32  33  8
17  4  5

$$$$

