439878
  -OEChem-07051212473D

 36 37  0     1  0  0  0  0  0999 V2000
    1.1830   -1.0179   -0.1667 O   0  0  0  0  0  0  0  0  0  0  0  0
    2.8235    2.5960    0.9434 O   0  0  0  0  0  0  0  0  0  0  0  0
    0.6013    2.5134   -0.9854 O   0  0  0  0  0  0  0  0  0  0  0  0
    4.5096    0.2761    0.6571 O   0  0  0  0  0  0  0  0  0  0  0  0
    2.5763   -3.3835   -0.2074 O   0  0  0  0  0  0  0  0  0  0  0  0
   -2.9042   -0.0271    2.5335 O   0  0  0  0  0  0  0  0  0  0  0  0
   -4.9242   -0.2138    1.5080 O   0  0  0  0  0  0  0  0  0  0  0  0
   -0.8405   -0.0004   -0.9195 N   0  3  0  0  0  0  0  0  0  0  0  0
    2.5342    1.5168    0.0530 C   0  0  2  0  0  0  0  0  0  0  0  0
    1.0218    1.4273   -0.1622 C   0  0  2  0  0  0  0  0  0  0  0  0
    3.0849    0.2323    0.6728 C   0  0  1  0  0  0  0  0  0  0  0  0
    0.6475    0.1133   -0.8548 C   0  0  1  0  0  0  0  0  0  0  0  0
    2.6097   -0.9967   -0.1057 C   0  0  1  0  0  0  0  0  0  0  0  0
    3.0590   -2.2944    0.5582 C   0  0  0  0  0  0  0  0  0  0  0  0
   -1.5441   -0.0104    0.2241 C   0  0  0  0  0  0  0  0  0  0  0  0
   -1.4350   -0.0891   -2.1201 C   0  0  0  0  0  0  0  0  0  0  0  0
   -2.9275   -0.1142    0.1938 C   0  0  0  0  0  0  0  0  0  0  0  0
   -2.8156   -0.1952   -2.2113 C   0  0  0  0  0  0  0  0  0  0  0  0
   -3.5658   -0.2074   -1.0392 C   0  0  0  0  0  0  0  0  0  0  0  0
   -3.6937   -0.1254    1.4282 C   0  0  0  0  0  0  0  0  0  0  0  0
    3.0526    1.7441   -0.8866 H   0  0  0  0  0  0  0  0  0  0  0  0
    0.5289    1.5511    0.8070 H   0  0  0  0  0  0  0  0  0  0  0  0
    2.7703    0.1703    1.7218 H   0  0  0  0  0  0  0  0  0  0  0  0
    1.0184    0.1038   -1.8880 H   0  0  0  0  0  0  0  0  0  0  0  0
    3.0009   -0.9877   -1.1323 H   0  0  0  0  0  0  0  0  0  0  0  0
    2.6383   -2.3829    1.5656 H   0  0  0  0  0  0  0  0  0  0  0  0
    4.1497   -2.3606    0.6145 H   0  0  0  0  0  0  0  0  0  0  0  0
    2.4468    3.4030    0.5526 H   0  0  0  0  0  0  0  0  0  0  0  0
    1.0485    2.4313   -1.8449 H   0  0  0  0  0  0  0  0  0  0  0  0
    4.7985    0.3210   -0.2703 H   0  0  0  0  0  0  0  0  0  0  0  0
   -0.9697    0.0330    1.1402 H   0  0  0  0  0  0  0  0  0  0  0  0
   -0.8031   -0.0742   -2.9996 H   0  0  0  0  0  0  0  0  0  0  0  0
    2.8699   -4.1979    0.2353 H   0  0  0  0  0  0  0  0  0  0  0  0
   -3.3010   -0.2669   -3.1786 H   0  0  0  0  0  0  0  0  0  0  0  0
   -4.6472   -0.2902   -1.1071 H   0  0  0  0  0  0  0  0  0  0  0  0
   -3.4317   -0.0362    3.3606 H   0  0  0  0  0  0  0  0  0  0  0  0
  1 12  1  0  0  0  0
  1 13  1  0  0  0  0
  2  9  1  0  0  0  0
  2 28  1  0  0  0  0
  3 10  1  0  0  0  0
  3 29  1  0  0  0  0
  4 11  1  0  0  0  0
  4 30  1  0  0  0  0
  5 14  1  0  0  0  0
  5 33  1  0  0  0  0
  6 20  1  0  0  0  0
  6 36  1  0  0  0  0
  7 20  2  0  0  0  0
  8 12  1  0  0  0  0
  8 15  1  0  0  0  0
  8 16  2  0  0  0  0
  9 10  1  0  0  0  0
  9 11  1  0  0  0  0
  9 21  1  0  0  0  0
 10 12  1  0  0  0  0
 10 22  1  0  0  0  0
 11 13  1  0  0  0  0
 11 23  1  0  0  0  0
 12 24  1  0  0  0  0
 13 14  1  0  0  0  0
 13 25  1  0  0  0  0
 14 26  1  0  0  0  0
 14 27  1  0  0  0  0
 15 17  2  0  0  0  0
 15 31  1  0  0  0  0
 16 18  1  0  0  0  0
 16 32  1  0  0  0  0
 17 19  1  0  0  0  0
 17 20  1  0  0  0  0
 18 19  2  0  0  0  0
 18 34  1  0  0  0  0
 19 35  1  0  0  0  0
M  CHG  1   8   1
M  END
> <PUBCHEM_COMPOUND_CID>
439878

> <PUBCHEM_CONFORMER_RMSD>
0.6

> <PUBCHEM_CONFORMER_DIVERSEORDER>
1
36
16
17
31
35
37
42
22
4
40
23
26
39
11
8
34
38
19
30
15
2
29
9
45
47
6
18
46
41
21
43
14
20
28
44
12
7
48
5
27
10
32
13
25
33
3
24

> <PUBCHEM_MMFF94_PARTIAL_CHARGES>
29
1 -0.56
10 0.28
11 0.28
12 0.77
13 0.28
14 0.28
15 0.21
16 0.21
17 0.09
18 -0.15
19 -0.15
2 -0.68
20 0.63
28 0.4
29 0.4
3 -0.68
30 0.4
31 0.15
32 0.15
33 0.4
34 0.15
35 0.15
36 0.5
4 -0.68
5 -0.68
6 -0.65
7 -0.57
8 -0.21
9 0.28

> <PUBCHEM_EFFECTIVE_ROTOR_COUNT>
4.2

> <PUBCHEM_PHARMACOPHORE_FEATURES>
14
1 1 acceptor
1 2 acceptor
1 2 donor
1 3 acceptor
1 3 donor
1 4 acceptor
1 4 donor
1 5 acceptor
1 5 donor
1 6 acceptor
1 7 acceptor
3 6 7 20 anion
6 1 9 10 11 12 13 rings
6 8 15 16 17 18 19 rings

> <PUBCHEM_HEAVY_ATOM_COUNT>
20

> <PUBCHEM_ATOM_DEF_STEREO_COUNT>
5

> <PUBCHEM_ATOM_UDEF_STEREO_COUNT>
0

> <PUBCHEM_BOND_DEF_STEREO_COUNT>
0

> <PUBCHEM_BOND_UDEF_STEREO_COUNT>
0

> <PUBCHEM_ISOTOPIC_ATOM_COUNT>
0

> <PUBCHEM_COMPONENT_COUNT>
1

> <PUBCHEM_CACTVS_TAUTO_COUNT>
1

> <PUBCHEM_CONFORMER_ID>
0006B64600000001

> <PUBCHEM_MMFF94_ENERGY>
59.1626

> <PUBCHEM_FEATURE_SELFOVERLAP>
71.113

> <PUBCHEM_SHAPE_FINGERPRINT>
11471102 22 18413674612400361620
11582403 64 16044575513756330212
11640471 11 17531520993038894745
11796584 16 16342599416581686458
12173636 292 15719378565211119705
12202030 40 17560797774993048759
12236239 1 17676496020745610207
12553582 1 18191308380441484918
12714826 92 16773507858786879647
13140716 1 18194980547651436514
13296908 3 17846782939805619631
13533116 47 18339630201531843275
13583140 156 18260824870131765985
13965767 371 17387110139536013841
14252887 29 18343864437525787466
14386348 63 17703792534966169491
14739800 52 15938687017074683664
14787075 74 16309961147759667436
14844126 61 16969171686637085538
14957384 54 16443069408471572024
15422964 175 18202278138772762956
16752209 62 14548750461010051913
16945 1 18337687351341873156
17357990 137 17385995165877973325
173720 79 17095527348837287013
17804303 29 16486976172476640101
1813 80 17970335130623823102
19049666 15 17702118038939271965
20600515 1 16414935143900603540
20645477 70 18270420354803627958
20715895 44 17245810917367972881
21427221 339 17604139445280898650
2255824 54 18261683592960579294
23526113 38 17773618163365072990
23557571 272 16845575322269381140
23559900 14 16629699468957511906
23598291 2 17822010912766841220
31174 14 18413385458022197090
341906 21 15647060382115825323
3472631 163 16081087056852165257
458136 41 18341605959254169820
474 4 18044104457791334584
5282274 181 18057025935373031019
5352402 22 18201992244480589211
602551 16 16200436857586934824
6049 1 17846218894714477557
633830 44 17969777480538822884
7097593 13 17968096477135194670
7615 1 17458923577520144629
77492 1 17676778590859873093
7808743 9 15719385123003351489
81228 2 17771362030025066156
88987 49 15574716880789772317

> <PUBCHEM_SHAPE_MULTIPOLES>
365.52
7.95
2.22
1.85
2.3
0.55
0.08
1.35
3.21
-3.69
0.01
2.74
-0.02
0.36

> <PUBCHEM_SHAPE_SELFOVERLAP>
769.687

> <PUBCHEM_SHAPE_VOLUME>
202.9

> <PUBCHEM_COORDINATE_TYPE>
2
5
10

$$$$

