10634
  -OEChem-07051212493D

 51 54  0     1  0  0  0  0  0999 V2000
   -5.1672    1.0596    0.3337 O   0  0  0  0  0  0  0  0  0  0  0  0
    5.6187    0.4331    0.3758 O   0  0  0  0  0  0  0  0  0  0  0  0
   -1.9765   -0.7234    0.3547 C   0  0  2  0  0  0  0  0  0  0  0  0
   -2.7629    0.5476   -0.0138 C   0  0  2  0  0  0  0  0  0  0  0  0
   -0.5904   -0.7794   -0.2952 C   0  0  1  0  0  0  0  0  0  0  0  0
    0.2433    0.4668    0.1475 C   0  0  1  0  0  0  0  0  0  0  0  0
    1.6723    0.4593   -0.5255 C   0  0  2  0  0  0  0  0  0  0  0  0
   -1.9809    1.7523    0.5224 C   0  0  0  0  0  0  0  0  0  0  0  0
   -0.5500    1.7921   -0.0442 C   0  0  0  0  0  0  0  0  0  0  0  0
   -4.0788    0.2494    0.7335 C   0  0  2  0  0  0  0  0  0  0  0  0
   -2.9690   -1.8512    0.0826 C   0  0  0  0  0  0  0  0  0  0  0  0
    0.1292   -2.0868    0.0674 C   0  0  0  0  0  0  0  0  0  0  0  0
   -4.3331   -1.2479    0.4660 C   0  0  0  0  0  0  0  0  0  0  0  0
    2.3147   -0.9250   -0.3634 C   0  0  0  0  0  0  0  0  0  0  0  0
    2.6107    1.5276    0.1272 C   0  0  0  0  0  0  0  0  0  0  0  0
   -3.0220    0.7273   -1.5304 C   0  0  0  0  0  0  0  0  0  0  0  0
    1.6122   -2.0412   -0.1093 C   0  0  0  0  0  0  0  0  0  0  0  0
    1.5849    0.7734   -2.0384 C   0  0  0  0  0  0  0  0  0  0  0  0
    3.8208   -0.9521   -0.3769 C   0  0  0  0  0  0  0  0  0  0  0  0
    3.4396    0.9643    1.2858 C   0  0  0  0  0  0  0  0  0  0  0  0
    4.3845   -0.1458    0.8006 C   0  0  2  0  0  0  0  0  0  0  0  0
   -1.8110   -0.7220    1.4455 H   0  0  0  0  0  0  0  0  0  0  0  0
   -0.7098   -0.7671   -1.3841 H   0  0  0  0  0  0  0  0  0  0  0  0
    0.3995    0.3694    1.2337 H   0  0  0  0  0  0  0  0  0  0  0  0
   -1.9208    1.7077    1.6177 H   0  0  0  0  0  0  0  0  0  0  0  0
   -2.4995    2.6877    0.2802 H   0  0  0  0  0  0  0  0  0  0  0  0
   -0.6042    2.0557   -1.1043 H   0  0  0  0  0  0  0  0  0  0  0  0
   -0.0282    2.6193    0.4473 H   0  0  0  0  0  0  0  0  0  0  0  0
   -3.9447    0.3994    1.8121 H   0  0  0  0  0  0  0  0  0  0  0  0
   -2.7480   -2.7450    0.6749 H   0  0  0  0  0  0  0  0  0  0  0  0
   -2.9643   -2.1435   -0.9733 H   0  0  0  0  0  0  0  0  0  0  0  0
   -0.2761   -2.9024   -0.5435 H   0  0  0  0  0  0  0  0  0  0  0  0
   -0.0678   -2.3505    1.1142 H   0  0  0  0  0  0  0  0  0  0  0  0
   -5.0675   -1.4112   -0.3304 H   0  0  0  0  0  0  0  0  0  0  0  0
   -4.7315   -1.7269    1.3675 H   0  0  0  0  0  0  0  0  0  0  0  0
    2.0476    2.3937    0.4843 H   0  0  0  0  0  0  0  0  0  0  0  0
    3.3088    1.9262   -0.6222 H   0  0  0  0  0  0  0  0  0  0  0  0
   -3.6273   -0.0829   -1.9493 H   0  0  0  0  0  0  0  0  0  0  0  0
   -3.5599    1.6635   -1.7207 H   0  0  0  0  0  0  0  0  0  0  0  0
   -2.1005    0.7671   -2.1169 H   0  0  0  0  0  0  0  0  0  0  0  0
    2.1369   -2.9819    0.0394 H   0  0  0  0  0  0  0  0  0  0  0  0
    0.9111    0.0922   -2.5668 H   0  0  0  0  0  0  0  0  0  0  0  0
    1.2424    1.7973   -2.2191 H   0  0  0  0  0  0  0  0  0  0  0  0
    2.5642    0.6853   -2.5238 H   0  0  0  0  0  0  0  0  0  0  0  0
    4.2123   -1.9760   -0.3256 H   0  0  0  0  0  0  0  0  0  0  0  0
    4.1851   -0.5576   -1.3339 H   0  0  0  0  0  0  0  0  0  0  0  0
    4.0148    1.7747    1.7486 H   0  0  0  0  0  0  0  0  0  0  0  0
    2.7619    0.5664    2.0510 H   0  0  0  0  0  0  0  0  0  0  0  0
    4.6124   -0.8063    1.6454 H   0  0  0  0  0  0  0  0  0  0  0  0
   -5.4324    0.8014   -0.5647 H   0  0  0  0  0  0  0  0  0  0  0  0
    6.2068   -0.2947    0.1108 H   0  0  0  0  0  0  0  0  0  0  0  0
  1 10  1  0  0  0  0
  1 50  1  0  0  0  0
  2 21  1  0  0  0  0
  2 51  1  0  0  0  0
  3  4  1  0  0  0  0
  3  5  1  0  0  0  0
  3 11  1  0  0  0  0
  3 22  1  0  0  0  0
  4  8  1  0  0  0  0
  4 10  1  0  0  0  0
  4 16  1  0  0  0  0
  5  6  1  0  0  0  0
  5 12  1  0  0  0  0
  5 23  1  0  0  0  0
  6  7  1  0  0  0  0
  6  9  1  0  0  0  0
  6 24  1  0  0  0  0
  7 14  1  0  0  0  0
  7 15  1  0  0  0  0
  7 18  1  0  0  0  0
  8  9  1  0  0  0  0
  8 25  1  0  0  0  0
  8 26  1  0  0  0  0
  9 27  1  0  0  0  0
  9 28  1  0  0  0  0
 10 13  1  0  0  0  0
 10 29  1  0  0  0  0
 11 13  1  0  0  0  0
 11 30  1  0  0  0  0
 11 31  1  0  0  0  0
 12 17  1  0  0  0  0
 12 32  1  0  0  0  0
 12 33  1  0  0  0  0
 13 34  1  0  0  0  0
 13 35  1  0  0  0  0
 14 17  2  0  0  0  0
 14 19  1  0  0  0  0
 15 20  1  0  0  0  0
 15 36  1  0  0  0  0
 15 37  1  0  0  0  0
 16 38  1  0  0  0  0
 16 39  1  0  0  0  0
 16 40  1  0  0  0  0
 17 41  1  0  0  0  0
 18 42  1  0  0  0  0
 18 43  1  0  0  0  0
 18 44  1  0  0  0  0
 19 21  1  0  0  0  0
 19 45  1  0  0  0  0
 19 46  1  0  0  0  0
 20 21  1  0  0  0  0
 20 47  1  0  0  0  0
 20 48  1  0  0  0  0
 21 49  1  0  0  0  0
M  END
> <PUBCHEM_COMPOUND_CID>
10634

> <PUBCHEM_CONFORMER_RMSD>
0.6

> <PUBCHEM_CONFORMER_DIVERSEORDER>
1

> <PUBCHEM_MMFF94_PARTIAL_CHARGES>
12
1 -0.68
10 0.28
12 0.14
14 -0.28
17 -0.29
19 0.14
2 -0.68
21 0.28
41 0.15
50 0.4
51 0.4
7 0.14

> <PUBCHEM_EFFECTIVE_ROTOR_COUNT>
2

> <PUBCHEM_PHARMACOPHORE_FEATURES>
8
1 1 acceptor
1 1 donor
1 2 acceptor
1 2 donor
5 3 4 10 11 13 rings
6 3 4 5 6 8 9 rings
6 5 6 7 12 14 17 rings
6 7 14 15 19 20 21 rings

> <PUBCHEM_HEAVY_ATOM_COUNT>
21

> <PUBCHEM_ATOM_DEF_STEREO_COUNT>
7

> <PUBCHEM_ATOM_UDEF_STEREO_COUNT>
0

> <PUBCHEM_BOND_DEF_STEREO_COUNT>
0

> <PUBCHEM_BOND_UDEF_STEREO_COUNT>
0

> <PUBCHEM_ISOTOPIC_ATOM_COUNT>
0

> <PUBCHEM_COMPONENT_COUNT>
1

> <PUBCHEM_CACTVS_TAUTO_COUNT>
1

> <PUBCHEM_CONFORMER_ID>
0000298A00000001

> <PUBCHEM_MMFF94_ENERGY>
74.3342

> <PUBCHEM_FEATURE_SELFOVERLAP>
40.706

> <PUBCHEM_SHAPE_FINGERPRINT>
10062212 137 18343303626555958083
10366900 7 18114192929493063752
10646746 165 18334857242534326128
10967382 1 18410007779697436363
11132069 177 18412259536930609907
12011746 2 18335419076244558964
12119455 92 16805605846028524788
12236239 1 17846778494968031912
12403259 226 18410017636805818216
12403259 415 18410863148389160176
12403814 3 17847059978750851333
12633257 1 17346593063069269523
12670546 56 15339122342436409814
13140716 1 18339641114220497448
13214271 11 18260267439142702359
13224815 77 18411134727523369823
13581323 91 18412545396968599020
13675066 3 18412260623240941635
14178342 30 18340198691360027729
14223421 5 18264205983792195990
14289901 80 15719386265680922735
14341114 176 18335134315285544650
14787075 74 18264212417779754050
15196674 1 18409446964279340843
15375358 24 18114179748539027949
15536298 74 18261388979141034606
15788980 27 17346602971453313101
16945 1 18339643467873131542
17349148 13 18201722833829505986
1813 80 17275102855939187486
18186145 218 18408884053070335038
18522853 276 18408882953648299993
200 152 18187373121024663023
20715895 44 18057894743592131733
21033648 29 18336282196619263240
21267235 1 18338786849974373571
21421861 104 17987240121441806962
22182313 1 18128820926657203367
22854114 111 18411133632359534847
22854114 59 18335137591939526442
23402539 116 18187653478724268765
23557571 272 18113893815059606255
23559900 14 18335136518836018878
26918003 58 18409451392533177841
2748010 2 18410848867475013279
2838139 119 15141541130055198000
296302 2 16515685537157289255
335352 9 18409727399910856903
34934 24 18409453622027366699
350125 39 18410571765313281288
351380 180 18259706696412126608
3545911 37 18410290341522308571
465052 167 17131540678940683075
474 4 18186803556478902984
5104073 3 18410572855627813785
633830 44 18040436568658004956
69090 78 18113341898713501734
7364860 26 18116147951478055318
9709674 26 18408597071993478287

> <PUBCHEM_SHAPE_MULTIPOLES>
420.43
9.27
2.02
1.14
0.75
0.45
0.42
-0.52
-2.19
-0.44
-0.07
0.28
-0.33
0.35

> <PUBCHEM_SHAPE_SELFOVERLAP>
896.739

> <PUBCHEM_SHAPE_VOLUME>
232.7

> <PUBCHEM_COORDINATE_TYPE>
2
5
10

$$$$

