5281874
  -OEChem-07051213003D

 41 42  0     1  0  0  0  0  0999 V2000
   -5.6659   -1.7221   -0.3626 Cl  0  0  0  0  0  0  0  0  0  0  0  0
   -7.5874   -0.0121    0.5599 F   0  0  0  0  0  0  0  0  0  0  0  0
   -6.6960    1.7926   -0.2800 F   0  0  0  0  0  0  0  0  0  0  0  0
   -6.2630    1.2165    1.7731 F   0  0  0  0  0  0  0  0  0  0  0  0
    3.2429    2.5445   -0.6007 F   0  0  0  0  0  0  0  0  0  0  0  0
    3.1885   -2.2009   -0.7314 F   0  0  0  0  0  0  0  0  0  0  0  0
    5.4977   -2.2670    0.7003 F   0  0  0  0  0  0  0  0  0  0  0  0
    5.5516    2.4785    0.8314 F   0  0  0  0  0  0  0  0  0  0  0  0
    0.8089    0.1965   -0.5799 O   0  0  0  0  0  0  0  0  0  0  0  0
   -0.6590    0.2625   -2.3658 O   0  0  0  0  0  0  0  0  0  0  0  0
   -2.0129   -1.0898    0.3851 C   0  0  0  0  0  0  0  0  0  0  0  0
   -2.8567   -0.3022   -0.5736 C   0  0  2  0  0  0  0  0  0  0  0  0
   -1.5143    0.2104   -0.1594 C   0  0  2  0  0  0  0  0  0  0  0  0
   -1.4242   -2.3684   -0.1094 C   0  0  0  0  0  0  0  0  0  0  0  0
   -2.3732   -1.1281    1.8331 C   0  0  0  0  0  0  0  0  0  0  0  0
   -4.0403    0.4041   -0.1067 C   0  0  0  0  0  0  0  0  0  0  0  0
   -0.4230    0.2266   -1.1666 C   0  0  0  0  0  0  0  0  0  0  0  0
   -5.2868   -0.0768    0.0307 C   0  0  0  0  0  0  0  0  0  0  0  0
    1.9177    0.2088   -1.4706 C   0  0  0  0  0  0  0  0  0  0  0  0
   -6.4465    0.7240    0.5203 C   0  0  0  0  0  0  0  0  0  0  0  0
    3.1848    0.1728   -0.6846 C   0  0  0  0  0  0  0  0  0  0  0  0
    3.7910    1.3633   -0.2836 C   0  0  0  0  0  0  0  0  0  0  0  0
    3.7637   -1.0516   -0.3505 C   0  0  0  0  0  0  0  0  0  0  0  0
    4.9489   -1.0855    0.3842 C   0  0  0  0  0  0  0  0  0  0  0  0
    4.9762    1.3294    0.4512 C   0  0  0  0  0  0  0  0  0  0  0  0
    5.5551    0.1050    0.7851 C   0  0  0  0  0  0  0  0  0  0  0  0
    6.8223    0.0690    1.5709 C   0  0  0  0  0  0  0  0  0  0  0  0
   -2.9563   -0.6855   -1.5850 H   0  0  0  0  0  0  0  0  0  0  0  0
   -1.4815    1.0552    0.5233 H   0  0  0  0  0  0  0  0  0  0  0  0
   -0.4579   -2.5583    0.3703 H   0  0  0  0  0  0  0  0  0  0  0  0
   -1.2655   -2.3760   -1.1933 H   0  0  0  0  0  0  0  0  0  0  0  0
   -2.0870   -3.2095    0.1223 H   0  0  0  0  0  0  0  0  0  0  0  0
   -3.1785   -1.8486    2.0123 H   0  0  0  0  0  0  0  0  0  0  0  0
   -2.6986   -0.1576    2.2236 H   0  0  0  0  0  0  0  0  0  0  0  0
   -1.5090   -1.4368    2.4320 H   0  0  0  0  0  0  0  0  0  0  0  0
   -3.8948    1.4526    0.1510 H   0  0  0  0  0  0  0  0  0  0  0  0
    1.8827    1.1106   -2.0948 H   0  0  0  0  0  0  0  0  0  0  0  0
    1.8627   -0.6564   -2.1433 H   0  0  0  0  0  0  0  0  0  0  0  0
    7.6832    0.0790    0.8951 H   0  0  0  0  0  0  0  0  0  0  0  0
    6.8958    0.9285    2.2457 H   0  0  0  0  0  0  0  0  0  0  0  0
    6.8770   -0.8289    2.1956 H   0  0  0  0  0  0  0  0  0  0  0  0
  1 18  1  0  0  0  0
  2 20  1  0  0  0  0
  3 20  1  0  0  0  0
  4 20  1  0  0  0  0
  5 22  1  0  0  0  0
  6 23  1  0  0  0  0
  7 24  1  0  0  0  0
  8 25  1  0  0  0  0
  9 17  1  0  0  0  0
  9 19  1  0  0  0  0
 10 17  2  0  0  0  0
 11 12  1  0  0  0  0
 11 13  1  0  0  0  0
 11 14  1  0  0  0  0
 11 15  1  0  0  0  0
 12 13  1  0  0  0  0
 12 16  1  0  0  0  0
 12 28  1  0  0  0  0
 13 17  1  0  0  0  0
 13 29  1  0  0  0  0
 14 30  1  0  0  0  0
 14 31  1  0  0  0  0
 14 32  1  0  0  0  0
 15 33  1  0  0  0  0
 15 34  1  0  0  0  0
 15 35  1  0  0  0  0
 16 18  2  0  0  0  0
 16 36  1  0  0  0  0
 18 20  1  0  0  0  0
 19 21  1  0  0  0  0
 19 37  1  0  0  0  0
 19 38  1  0  0  0  0
 21 22  2  0  0  0  0
 21 23  1  0  0  0  0
 22 25  1  0  0  0  0
 23 24  2  0  0  0  0
 24 26  1  0  0  0  0
 25 26  2  0  0  0  0
 26 27  1  0  0  0  0
 27 39  1  0  0  0  0
 27 40  1  0  0  0  0
 27 41  1  0  0  0  0
M  END
> <PUBCHEM_COMPOUND_CID>
5281874

> <PUBCHEM_CONFORMER_RMSD>
0.8

> <PUBCHEM_CONFORMER_DIVERSEORDER>
1
243
32
169
141
42
253
220
315
190
66
58
71
146
202
257
95
47
254
263
75
180
216
3
252
43
285
302
131
18
226
40
330
170
316
84
87
284
289
198
56
248
110
99
245
207
280
67
88
106
135
291
189
183
46
48
225
102
236
334
311
267
163
230
89
17
36
92
319
15
168
314
103
259
104
124
175
331
272
140
296
321
178
96
77
22
51
39
298
197
149
154
239
137
275
52
238
324
205
188
98
234
199
128
83
325
290
143
224
136
114
174
177
277
269
108
255
274
145
4
69
203
195
112
125
134
237
94
162
122
79
156
323
242
105
33
63
307
279
74
208
118
294
86
318
107
265
8
171
278
116
78
172
68
271
11
37
221
223
213
241
57
5
31
322
165
250
133
129
151
179
150
332
293
62
126
139
147
191
246
310
258
7
328
158
260
115
309
81
24
28
235
196
127
217
35
228
132
16
270
97
9
19
82
155
182
117
282
229
14
167
176
283
214
80
2
300
227
333
256
10
160
142
120
55
185
29
297
335
27
53
91
304
317
200
12
13
34
206
164
159
21
251
327
153
326
144
266
25
123
232
148
313
20
240
119
173
138
109
312
295
23
41
166
184
303
64
157
45
308
111
306
247
113
233
70
218
6
287
286
301
181
72
44
121
249
305
276
244
85
281
262
186
219
261
54
130
90
187
61
38
292
264
209
161
73
193
100
26
93
59
210
212
76
268
60
222
152
194
273
204
320
65
50
231
329
30
215
288
101
192
299
201
211
49

> <PUBCHEM_MMFF94_PARTIAL_CHARGES>
29
1 -0.14
10 -0.57
11 -0.19
12 -0.06
13 -0.1
14 0.09
15 0.09
16 -0.19
17 0.72
19 0.42
2 -0.34
20 1.16
21 -0.14
22 0.19
23 0.19
24 0.19
25 0.19
26 -0.14
27 0.14
28 0.1
29 0.1
3 -0.34
36 0.15
4 -0.34
5 -0.19
6 -0.19
7 -0.19
8 -0.19
9 -0.43

> <PUBCHEM_EFFECTIVE_ROTOR_COUNT>
6.6

> <PUBCHEM_PHARMACOPHORE_FEATURES>
3
1 10 acceptor
3 11 14 15 hydrophobe
6 21 22 23 24 25 26 rings

> <PUBCHEM_HEAVY_ATOM_COUNT>
27

> <PUBCHEM_ATOM_DEF_STEREO_COUNT>
0

> <PUBCHEM_ATOM_UDEF_STEREO_COUNT>
2

> <PUBCHEM_BOND_DEF_STEREO_COUNT>
1

> <PUBCHEM_BOND_UDEF_STEREO_COUNT>
0

> <PUBCHEM_ISOTOPIC_ATOM_COUNT>
0

> <PUBCHEM_COMPONENT_COUNT>
1

> <PUBCHEM_CACTVS_TAUTO_COUNT>
1

> <PUBCHEM_CONFORMER_ID>
0050985200000001

> <PUBCHEM_MMFF94_ENERGY>
46.0751

> <PUBCHEM_FEATURE_SELFOVERLAP>
15.223

> <PUBCHEM_SHAPE_FINGERPRINT>
10299344 5 11527948971963074493
10498660 4 4750889113090680890
10692045 39 18341888636521328691
11524674 6 15985100800307403401
11646440 116 17489586770485609321
12236239 1 17603307046280327134
12596602 18 18259984855632237715
12633257 1 18343306933896852430
13167372 99 18260545666702540441
13533116 47 18340766035207417526
13668630 136 13470414400592908288
13685833 64 16272210795163370572
14211702 104 17631160893238880987
14251764 18 18342175540357534271
14251764 30 12463569560992065327
14341114 176 18413673513542998052
14347332 77 9367085336461826590
14347424 109 18412830196550982712
14528608 73 7420947560643871511
15183329 4 18259978284648701417
15348495 7 17988354871924778529
15352257 5 12823292403659234033
15475509 35 16987740012269336832
15840311 113 18189887794744210005
16994733 274 16733253651989677331
19141452 34 18131350773926890887
20157964 124 18040994068118488783
20281389 69 18409727374874665525
20511986 3 18114474400175138279
21130935 74 18412545401005824883
21150785 3 5906043755920386097
21403212 168 17846222185287153979
21781051 124 14764051389889240553
21792934 111 18201723981319465141
21859007 373 17702397310846076661
22122407 14 17895467033950737360
23081809 10 18201432541796516719
23424782 7 7348592033668476421
23522609 53 11815050239498654919
23536379 177 18408322190207817659
23559900 14 18341326704380029276
23569943 247 17702394033738992523
2838139 119 17822017523360508065
312425 54 18343300370854677403
3383291 50 17060616681791880531
3472631 163 15502385478671753472
34797466 226 7853571318261085514
3663271 9 18335140864968460507
4073 2 18059008368002173562
4325135 7 8142085360112881811
4340502 62 18408039615223938574
465052 167 15051726495467845794
5104073 3 18129378211427344466
54039377 194 12319470909005010728

> <PUBCHEM_SHAPE_MULTIPOLES>
494.86
19.61
2.07
1.4
10.22
0.18
0
-3.91
8.06
-1.3
0.12
-0.06
-0.08
-0.29

> <PUBCHEM_SHAPE_SELFOVERLAP>
1044.415

> <PUBCHEM_SHAPE_VOLUME>
281.7

> <PUBCHEM_COORDINATE_TYPE>
2
5
10

$$$$

