5459914
  -OEChem-07051212492D

 14 14  0     0  0  0  0  0  0999 V2000
    3.7601   -0.7992    0.0000 O   0  0  0  0  0  0  0  0  0  0  0  0
    2.0000   -0.5204    0.0000 O   0  0  0  0  0  0  0  0  0  0  0  0
    7.2144   -0.1603    0.0000 O   0  0  0  0  0  0  0  0  0  0  0  0
    6.0554    1.1269    0.0000 O   0  0  0  0  0  0  0  0  0  0  0  0
    4.5691   -0.2114    0.0000 C   0  0  0  0  0  0  0  0  0  0  0  0
    4.2601    0.7397    0.0000 C   0  0  0  0  0  0  0  0  0  0  0  0
    3.2601    0.7397    0.0000 C   0  0  0  0  0  0  0  0  0  0  0  0
    5.5202   -0.5204    0.0000 C   0  0  0  0  0  0  0  0  0  0  0  0
    2.9511   -0.2114    0.0000 C   0  0  0  0  0  0  0  0  0  0  0  0
    6.2633    0.1487    0.0000 C   0  0  0  0  0  0  0  0  0  0  0  0
    4.6245    1.2412    0.0000 H   0  0  0  0  0  0  0  0  0  0  0  0
    2.8956    1.2412    0.0000 H   0  0  0  0  0  0  0  0  0  0  0  0
    5.6490   -1.1269    0.0000 H   0  0  0  0  0  0  0  0  0  0  0  0
    7.6751    0.2546    0.0000 H   0  0  0  0  0  0  0  0  0  0  0  0
  1  5  1  0  0  0  0
  1  9  1  0  0  0  0
  2  9  2  0  0  0  0
  3 10  1  0  0  0  0
  3 14  1  0  0  0  0
  4 10  2  0  0  0  0
  5  6  1  0  0  0  0
  5  8  2  0  0  0  0
  6  7  2  0  0  0  0
  6 11  1  0  0  0  0
  7  9  1  0  0  0  0
  7 12  1  0  0  0  0
  8 10  1  0  0  0  0
  8 13  1  0  0  0  0
M  END
> <PUBCHEM_COMPOUND_CID>
5459914

> <PUBCHEM_COMPOUND_CANONICALIZED>
1

> <PUBCHEM_CACTVS_COMPLEXITY>
236

> <PUBCHEM_CACTVS_HBOND_ACCEPTOR>
4

> <PUBCHEM_CACTVS_HBOND_DONOR>
1

> <PUBCHEM_CACTVS_ROTATABLE_BOND>
1

> <PUBCHEM_CACTVS_SUBSKEYS>
AAADcYBgOAAAAAAAAAAAAAAAAAAAAQAAAAAAAAAAAAAAAAAAAAAAGgAACAAACASAgAAACAAABgCIACDSCAAACAAAIAAICAAAAEAIBAAAIQACEAAAAAAAsYAAAAAAAAAAAAAAAAAAAAAAAAAAAAAAAAAAAA==

> <PUBCHEM_IUPAC_OPENEYE_NAME>
(2E)-2-(5-oxo-2-furylidene)acetic acid

> <PUBCHEM_IUPAC_CAS_NAME>
(2E)-2-(5-oxo-2-furanylidene)acetic acid

> <PUBCHEM_IUPAC_NAME>
(2E)-2-(5-oxofuran-2-ylidene)acetic acid

> <PUBCHEM_IUPAC_SYSTEMATIC_NAME>
(2E)-2-(5-oxidanylidenefuran-2-ylidene)ethanoic acid

> <PUBCHEM_IUPAC_TRADITIONAL_NAME>
(2E)-2-(5-keto-2-furylidene)acetic acid

> <PUBCHEM_IUPAC_INCHI>
InChI=1S/C6H4O4/c7-5(8)3-4-1-2-6(9)10-4/h1-3H,(H,7,8)/b4-3+

> <PUBCHEM_IUPAC_INCHIKEY>
AYFXPGXAZMFWNH-ONEGZZNKSA-N

> <PUBCHEM_XLOGP3_AA>
0

> <PUBCHEM_EXACT_MASS>
140.010959

> <PUBCHEM_MOLECULAR_FORMULA>
C6H4O4

> <PUBCHEM_MOLECULAR_WEIGHT>
140.09356

> <PUBCHEM_OPENEYE_CAN_SMILES>
C1=CC(=O)OC1=CC(=O)O

> <PUBCHEM_OPENEYE_ISO_SMILES>
C\1=CC(=O)O/C1=C/C(=O)O

> <PUBCHEM_CACTVS_TPSA>
63.6

> <PUBCHEM_MONOISOTOPIC_WEIGHT>
140.010959

> <PUBCHEM_TOTAL_CHARGE>
0

> <PUBCHEM_HEAVY_ATOM_COUNT>
10

> <PUBCHEM_ATOM_DEF_STEREO_COUNT>
0

> <PUBCHEM_ATOM_UDEF_STEREO_COUNT>
0

> <PUBCHEM_BOND_DEF_STEREO_COUNT>
1

> <PUBCHEM_BOND_UDEF_STEREO_COUNT>
0

> <PUBCHEM_ISOTOPIC_ATOM_COUNT>
0

> <PUBCHEM_COMPONENT_COUNT>
1

> <PUBCHEM_CACTVS_TAUTO_COUNT>
1

> <PUBCHEM_COORDINATE_TYPE>
1
5
255

$$$$

