8085
  -OEChem-06261202343D

 28 27  0     0  0  0  0  0  0999 V2000
    0.0013    0.1760   -0.0002 N   0  0  0  0  0  0  0  0  0  0  0  0
   -2.4756    0.1848    0.2737 C   0  0  0  0  0  0  0  0  0  0  0  0
    2.4754    0.1848   -0.2737 C   0  0  0  0  0  0  0  0  0  0  0  0
   -1.1890   -0.6515    0.1659 C   0  0  0  0  0  0  0  0  0  0  0  0
    1.1881   -0.6505   -0.1657 C   0  0  0  0  0  0  0  0  0  0  0  0
   -2.6294    1.0594   -0.9735 C   0  0  0  0  0  0  0  0  0  0  0  0
   -3.7255   -0.6808    0.4524 C   0  0  0  0  0  0  0  0  0  0  0  0
    2.6299    1.0595    0.9733 C   0  0  0  0  0  0  0  0  0  0  0  0
    3.7247   -0.6817   -0.4523 C   0  0  0  0  0  0  0  0  0  0  0  0
   -2.3983    0.8443    1.1480 H   0  0  0  0  0  0  0  0  0  0  0  0
    2.3974    0.8444   -1.1480 H   0  0  0  0  0  0  0  0  0  0  0  0
   -1.0903   -1.2556    1.0764 H   0  0  0  0  0  0  0  0  0  0  0  0
   -1.2842   -1.3473   -0.6780 H   0  0  0  0  0  0  0  0  0  0  0  0
    1.0913   -1.2644   -1.0702 H   0  0  0  0  0  0  0  0  0  0  0  0
    1.2841   -1.3388    0.6841 H   0  0  0  0  0  0  0  0  0  0  0  0
   -0.0916    0.7765   -0.8173 H   0  0  0  0  0  0  0  0  0  0  0  0
   -2.5693    0.4645   -1.8914 H   0  0  0  0  0  0  0  0  0  0  0  0
   -3.6012    1.5662   -0.9696 H   0  0  0  0  0  0  0  0  0  0  0  0
   -1.8708    1.8467   -1.0188 H   0  0  0  0  0  0  0  0  0  0  0  0
   -3.8734   -1.3448   -0.4059 H   0  0  0  0  0  0  0  0  0  0  0  0
   -4.6204   -0.0589    0.5607 H   0  0  0  0  0  0  0  0  0  0  0  0
   -3.6380   -1.3019    1.3500 H   0  0  0  0  0  0  0  0  0  0  0  0
    2.6541    0.4531    1.8855 H   0  0  0  0  0  0  0  0  0  0  0  0
    3.5627    1.6326    0.9282 H   0  0  0  0  0  0  0  0  0  0  0  0
    1.8141    1.7837    1.0655 H   0  0  0  0  0  0  0  0  0  0  0  0
    3.8691   -1.3501    0.4032 H   0  0  0  0  0  0  0  0  0  0  0  0
    4.6204   -0.0601   -0.5544 H   0  0  0  0  0  0  0  0  0  0  0  0
    3.6392   -1.2985   -1.3530 H   0  0  0  0  0  0  0  0  0  0  0  0
  1  4  1  0  0  0  0
  1  5  1  0  0  0  0
  1 16  1  0  0  0  0
  2  4  1  0  0  0  0
  2  6  1  0  0  0  0
  2  7  1  0  0  0  0
  2 10  1  0  0  0  0
  3  5  1  0  0  0  0
  3  8  1  0  0  0  0
  3  9  1  0  0  0  0
  3 11  1  0  0  0  0
  4 12  1  0  0  0  0
  4 13  1  0  0  0  0
  5 14  1  0  0  0  0
  5 15  1  0  0  0  0
  6 17  1  0  0  0  0
  6 18  1  0  0  0  0
  6 19  1  0  0  0  0
  7 20  1  0  0  0  0
  7 21  1  0  0  0  0
  7 22  1  0  0  0  0
  8 23  1  0  0  0  0
  8 24  1  0  0  0  0
  8 25  1  0  0  0  0
  9 26  1  0  0  0  0
  9 27  1  0  0  0  0
  9 28  1  0  0  0  0
M  END
> <PUBCHEM_COMPOUND_CID>
8085

> <PUBCHEM_CONFORMER_RMSD>
0.6

> <PUBCHEM_CONFORMER_DIVERSEORDER>
1
3
2

> <PUBCHEM_MMFF94_PARTIAL_CHARGES>
4
1 -0.9
16 0.36
4 0.27
5 0.27

> <PUBCHEM_EFFECTIVE_ROTOR_COUNT>
4

> <PUBCHEM_PHARMACOPHORE_FEATURES>
4
1 1 cation
1 1 donor
3 2 6 7 hydrophobe
3 3 8 9 hydrophobe

> <PUBCHEM_HEAVY_ATOM_COUNT>
9

> <PUBCHEM_ATOM_DEF_STEREO_COUNT>
0

> <PUBCHEM_ATOM_UDEF_STEREO_COUNT>
0

> <PUBCHEM_BOND_DEF_STEREO_COUNT>
0

> <PUBCHEM_BOND_UDEF_STEREO_COUNT>
0

> <PUBCHEM_ISOTOPIC_ATOM_COUNT>
0

> <PUBCHEM_COMPONENT_COUNT>
1

> <PUBCHEM_CACTVS_TAUTO_COUNT>
1

> <PUBCHEM_CONFORMER_ID>
00001F9500000001

> <PUBCHEM_MMFF94_ENERGY>
3.01

> <PUBCHEM_FEATURE_SELFOVERLAP>
20.297

> <PUBCHEM_SHAPE_FINGERPRINT>
10857977 72 18059858337776976849
12932764 1 18410862061493123110
14144814 61 15770059436242048800
14325111 11 18272932738719919998
14390081 3 18411706499492714857
18186145 218 18040997345199445922
20711983 171 16558475287104994525
20765181 27 18410583880756224544

> <PUBCHEM_SHAPE_MULTIPOLES>
180.23
7.08
1.08
0.89
0
0.14
0
-0.41
0
0
0
0
0.2
0.88

> <PUBCHEM_SHAPE_SELFOVERLAP>
317.348

> <PUBCHEM_SHAPE_VOLUME>
118.2

> <PUBCHEM_COORDINATE_TYPE>
2
5
10

$$$$

