442666
  -OEChem-07051212593D

 36 41  0     1  0  0  0  0  0999 V2000
    0.5882   -1.3423    1.6131 O   0  0  0  0  0  0  0  0  0  0  0  0
   -1.1575   -0.1186   -1.7025 O   0  0  0  0  0  0  0  0  0  0  0  0
    1.0510   -3.0048   -1.0477 O   0  0  0  0  0  0  0  0  0  0  0  0
   -3.4692    1.4937   -1.4297 O   0  0  0  0  0  0  0  0  0  0  0  0
    4.4019    1.3726   -1.1581 O   0  0  0  0  0  0  0  0  0  0  0  0
    4.4220    1.6143    1.2408 O   0  0  0  0  0  0  0  0  0  0  0  0
   -4.8424    1.5336    0.5482 O   0  0  0  0  0  0  0  0  0  0  0  0
    0.4697   -1.7300   -0.7861 C   0  0  1  0  0  0  0  0  0  0  0  0
   -0.2985   -1.7915    0.5503 C   0  0  2  0  0  0  0  0  0  0  0  0
    1.5568   -0.7839   -0.4144 C   0  0  0  0  0  0  0  0  0  0  0  0
   -0.4260   -1.3206   -1.9489 C   0  0  0  0  0  0  0  0  0  0  0  0
   -1.5480   -0.9413    0.5585 C   0  0  0  0  0  0  0  0  0  0  0  0
    1.5754   -0.6338    0.9747 C   0  0  0  0  0  0  0  0  0  0  0  0
   -1.8898   -0.1571   -0.5517 C   0  0  0  0  0  0  0  0  0  0  0  0
    2.4847   -0.1366   -1.2167 C   0  0  0  0  0  0  0  0  0  0  0  0
   -2.3681   -0.9126    1.7096 C   0  0  0  0  0  0  0  0  0  0  0  0
    2.5091    0.1509    1.6288 C   0  0  0  0  0  0  0  0  0  0  0  0
   -3.0046    0.6544   -0.4628 C   0  0  0  0  0  0  0  0  0  0  0  0
    3.4100    0.6545   -0.5613 C   0  0  0  0  0  0  0  0  0  0  0  0
    3.4223    0.7926    0.8161 C   0  0  0  0  0  0  0  0  0  0  0  0
   -3.7905    0.6782    0.6658 C   0  0  0  0  0  0  0  0  0  0  0  0
   -3.5023   -0.0986    1.7675 C   0  0  0  0  0  0  0  0  0  0  0  0
    5.0358    1.9770   -0.0126 C   0  0  0  0  0  0  0  0  0  0  0  0
   -4.6301    2.0499   -0.7808 C   0  0  0  0  0  0  0  0  0  0  0  0
   -0.5838   -2.8270    0.7784 H   0  0  0  0  0  0  0  0  0  0  0  0
    0.1691   -1.1607   -2.8560 H   0  0  0  0  0  0  0  0  0  0  0  0
   -1.1320   -2.1244   -2.1999 H   0  0  0  0  0  0  0  0  0  0  0  0
    2.4919   -0.2500   -2.2935 H   0  0  0  0  0  0  0  0  0  0  0  0
    1.4047   -2.9949   -1.9537 H   0  0  0  0  0  0  0  0  0  0  0  0
   -2.1128   -1.5235    2.5727 H   0  0  0  0  0  0  0  0  0  0  0  0
    2.5189    0.2588    2.7056 H   0  0  0  0  0  0  0  0  0  0  0  0
   -4.1251   -0.0772    2.6546 H   0  0  0  0  0  0  0  0  0  0  0  0
    6.0872    1.6682    0.0097 H   0  0  0  0  0  0  0  0  0  0  0  0
    4.9919    3.0667   -0.1220 H   0  0  0  0  0  0  0  0  0  0  0  0
   -5.5135    1.8260   -1.3897 H   0  0  0  0  0  0  0  0  0  0  0  0
   -4.5110    3.1378   -0.7202 H   0  0  0  0  0  0  0  0  0  0  0  0
  1  9  1  0  0  0  0
  1 13  1  0  0  0  0
  2 11  1  0  0  0  0
  2 14  1  0  0  0  0
  3  8  1  0  0  0  0
  3 29  1  0  0  0  0
  4 18  1  0  0  0  0
  4 24  1  0  0  0  0
  5 19  1  0  0  0  0
  5 23  1  0  0  0  0
  6 20  1  0  0  0  0
  6 23  1  0  0  0  0
  7 21  1  0  0  0  0
  7 24  1  0  0  0  0
  8  9  1  0  0  0  0
  8 10  1  0  0  0  0
  8 11  1  0  0  0  0
  9 12  1  0  0  0  0
  9 25  1  0  0  0  0
 10 13  1  0  0  0  0
 10 15  2  0  0  0  0
 11 26  1  0  0  0  0
 11 27  1  0  0  0  0
 12 14  2  0  0  0  0
 12 16  1  0  0  0  0
 13 17  2  0  0  0  0
 14 18  1  0  0  0  0
 15 19  1  0  0  0  0
 15 28  1  0  0  0  0
 16 22  2  0  0  0  0
 16 30  1  0  0  0  0
 17 20  1  0  0  0  0
 17 31  1  0  0  0  0
 18 21  2  0  0  0  0
 19 20  2  0  0  0  0
 21 22  1  0  0  0  0
 22 32  1  0  0  0  0
 23 33  1  0  0  0  0
 23 34  1  0  0  0  0
 24 35  1  0  0  0  0
 24 36  1  0  0  0  0
M  END
> <PUBCHEM_COMPOUND_CID>
442666

> <PUBCHEM_CONFORMER_RMSD>
0.6

> <PUBCHEM_CONFORMER_DIVERSEORDER>
1
2

> <PUBCHEM_MMFF94_PARTIAL_CHARGES>
29
1 -0.36
10 -0.14
11 0.28
12 -0.14
13 0.08
14 0.08
15 -0.15
16 -0.15
17 -0.15
18 0.08
19 0.08
2 -0.36
20 0.08
21 0.08
22 -0.15
23 0.56
24 0.56
28 0.15
29 0.4
3 -0.68
30 0.15
31 0.15
32 0.15
4 -0.36
5 -0.36
6 -0.36
7 -0.36
8 0.42
9 0.42

> <PUBCHEM_EFFECTIVE_ROTOR_COUNT>
1.8

> <PUBCHEM_PHARMACOPHORE_FEATURES>
14
1 1 acceptor
1 2 acceptor
1 3 acceptor
1 3 donor
1 4 acceptor
1 5 acceptor
1 6 acceptor
1 7 acceptor
5 1 8 9 10 13 rings
5 4 7 18 21 24 rings
5 5 6 19 20 23 rings
6 10 13 15 17 19 20 rings
6 12 14 16 18 21 22 rings
6 2 8 9 11 12 14 rings

> <PUBCHEM_HEAVY_ATOM_COUNT>
24

> <PUBCHEM_ATOM_DEF_STEREO_COUNT>
2

> <PUBCHEM_ATOM_UDEF_STEREO_COUNT>
0

> <PUBCHEM_BOND_DEF_STEREO_COUNT>
0

> <PUBCHEM_BOND_UDEF_STEREO_COUNT>
0

> <PUBCHEM_ISOTOPIC_ATOM_COUNT>
0

> <PUBCHEM_COMPONENT_COUNT>
1

> <PUBCHEM_CACTVS_TAUTO_COUNT>
1

> <PUBCHEM_CONFORMER_ID>
0006C12A00000001

> <PUBCHEM_MMFF94_ENERGY>
78.6288

> <PUBCHEM_FEATURE_SELFOVERLAP>
71.758

> <PUBCHEM_SHAPE_FINGERPRINT>
10165383 225 18116971356616408722
10319926 262 17632573885606659370
10498660 4 18040721363517919313
105312 117 18187641350280008876
11221954 11 18050854608851108117
11370993 144 17131566027958963944
11552529 35 16413782675341814266
11578080 2 18192406736949346667
12553582 1 13038901170245369506
12633257 1 16558754502976711308
12670546 177 14707205521899461216
12788726 201 17974874781642836159
12892183 10 16989123145218130945
12969540 114 18040713649624650376
13103583 49 13614240429531863045
13134695 92 17829607610423644478
13544653 18 11023828353419867150
13965767 371 16054638485182352213
14178342 30 16702007691596145947
14251764 30 5039088806344164173
14341114 328 16774070744173717676
14848178 5 8574168119898551236
14950920 106 16199882669705050616
15163728 17 18336533988833962468
15209294 21 17704353242951800656
15475509 8 6194558871793471537
17980427 23 17632291238583957391
1813 80 16738315957494583798
18186145 218 17530958056202444874
193927 3 9727637232334127488
19862831 5 15791733013917797067
200 152 5256138955623267296
20775438 99 6191407705090337685
20871999 31 13984655949547482433
21421861 104 12966552240233713167
21475661 188 18343302565388189445
21756936 100 17987515910578116860
21864079 5 18270122288674467444
22149856 69 17486746827859766865
22393880 68 4750882524505204192
231179 274 18335419071416893832
23227448 37 18267582407923462469
23379529 103 6555111900661815413
23557571 272 17987210340650272507
23559900 14 17630592638815940151
25 1 17531232955621336866
2637199 183 16443057322665637719
2838139 119 18261401069368841568
392239 28 16484700066868371672
4028521 119 17603866672050458368
427121 178 17774713277004412219
4280585 95 5830387374510617084
44062 13 6988319418013390857
463206 1 8358254834960442965
469060 322 18192152595071063591
474 4 18187367635924320433
495365 180 18126851723260568055
5104073 3 17417243381525318457
6442390 28 18261665974567589159
7064713 232 16917065572834491113
7097593 13 16343710940842416898
7808743 9 18200869561625765316
7970288 3 10879995782666920560
90316 7 15267064769926248023

> <PUBCHEM_SHAPE_MULTIPOLES>
452.82
9.24
2.18
1.83
0.93
0.33
-0.06
-8.81
-0.88
0.21
0.5
-0.3
0.32
0.88

> <PUBCHEM_SHAPE_SELFOVERLAP>
1061.274

> <PUBCHEM_SHAPE_VOLUME>
226.8

> <PUBCHEM_COORDINATE_TYPE>
2
5
10

$$$$

