38033
  -OEChem-07051213053D

 22 23  0     0  0  0  0  0  0999 V2000
   -0.3502   -2.8113    0.2222 Cl  0  0  0  0  0  0  0  0  0  0  0  0
   -3.8443    2.3528   -0.0136 Cl  0  0  0  0  0  0  0  0  0  0  0  0
    3.9736    0.6736    1.9838 Cl  0  0  0  0  0  0  0  0  0  0  0  0
   -0.6910   -0.1125   -0.0833 C   0  0  0  0  0  0  0  0  0  0  0  0
    0.7357    0.0323   -0.2765 C   0  0  0  0  0  0  0  0  0  0  0  0
   -1.2827   -1.3565    0.1482 C   0  0  0  0  0  0  0  0  0  0  0  0
   -1.4867    1.0343   -0.1329 C   0  0  0  0  0  0  0  0  0  0  0  0
    1.5691    0.2561    0.8194 C   0  0  0  0  0  0  0  0  0  0  0  0
    1.2774   -0.0504   -1.5593 C   0  0  0  0  0  0  0  0  0  0  0  0
   -2.8664    0.9379    0.0480 C   0  0  0  0  0  0  0  0  0  0  0  0
   -2.6624   -1.4530    0.3291 C   0  0  0  0  0  0  0  0  0  0  0  0
    2.9441    0.3972    0.6325 C   0  0  0  0  0  0  0  0  0  0  0  0
    2.6524    0.0908   -1.7462 C   0  0  0  0  0  0  0  0  0  0  0  0
   -3.4543   -0.3057    0.2789 C   0  0  0  0  0  0  0  0  0  0  0  0
    3.4858    0.3144   -0.6502 C   0  0  0  0  0  0  0  0  0  0  0  0
   -1.0334    2.0078   -0.3128 H   0  0  0  0  0  0  0  0  0  0  0  0
    1.1489    0.3211    1.8213 H   0  0  0  0  0  0  0  0  0  0  0  0
    0.6419   -0.2244   -2.4245 H   0  0  0  0  0  0  0  0  0  0  0  0
   -3.1368   -2.4142    0.5103 H   0  0  0  0  0  0  0  0  0  0  0  0
    3.0741    0.0263   -2.7450 H   0  0  0  0  0  0  0  0  0  0  0  0
   -4.5281   -0.3959    0.4216 H   0  0  0  0  0  0  0  0  0  0  0  0
    4.5554    0.4224   -0.8110 H   0  0  0  0  0  0  0  0  0  0  0  0
  1  6  1  0  0  0  0
  2 10  1  0  0  0  0
  3 12  1  0  0  0  0
  4  5  1  0  0  0  0
  4  6  2  0  0  0  0
  4  7  1  0  0  0  0
  5  8  2  0  0  0  0
  5  9  1  0  0  0  0
  6 11  1  0  0  0  0
  7 10  2  0  0  0  0
  7 16  1  0  0  0  0
  8 12  1  0  0  0  0
  8 17  1  0  0  0  0
  9 13  2  0  0  0  0
  9 18  1  0  0  0  0
 10 14  1  0  0  0  0
 11 14  2  0  0  0  0
 11 19  1  0  0  0  0
 12 15  2  0  0  0  0
 13 15  1  0  0  0  0
 13 20  1  0  0  0  0
 14 21  1  0  0  0  0
 15 22  1  0  0  0  0
M  END
> <PUBCHEM_COMPOUND_CID>
38033

> <PUBCHEM_CONFORMER_RMSD>
0.4

> <PUBCHEM_CONFORMER_DIVERSEORDER>
1
6
4
3
2
5

> <PUBCHEM_MMFF94_PARTIAL_CHARGES>
20
1 -0.18
10 0.18
11 -0.15
12 0.18
13 -0.15
14 -0.15
15 -0.15
16 0.15
17 0.15
18 0.15
19 0.15
2 -0.18
20 0.15
21 0.15
22 0.15
3 -0.18
6 0.18
7 -0.15
8 -0.15
9 -0.15

> <PUBCHEM_EFFECTIVE_ROTOR_COUNT>
1

> <PUBCHEM_PHARMACOPHORE_FEATURES>
2
6 4 6 7 10 11 14 rings
6 5 8 9 12 13 15 rings

> <PUBCHEM_HEAVY_ATOM_COUNT>
15

> <PUBCHEM_ATOM_DEF_STEREO_COUNT>
0

> <PUBCHEM_ATOM_UDEF_STEREO_COUNT>
0

> <PUBCHEM_BOND_DEF_STEREO_COUNT>
0

> <PUBCHEM_BOND_UDEF_STEREO_COUNT>
0

> <PUBCHEM_ISOTOPIC_ATOM_COUNT>
0

> <PUBCHEM_COMPONENT_COUNT>
1

> <PUBCHEM_CACTVS_TAUTO_COUNT>
1

> <PUBCHEM_CONFORMER_ID>
0000949100000001

> <PUBCHEM_MMFF94_ENERGY>
41.8086

> <PUBCHEM_FEATURE_SELFOVERLAP>
10.149

> <PUBCHEM_SHAPE_FINGERPRINT>
10608611 8 18113617871884682888
11132069 177 18343303695175162493
11725454 13 17388573559315703304
12119455 92 17022914432307026344
12236239 1 17489306356339089788
12500047 106 18408601461718742470
12788726 201 17556845941203727691
13538477 17 17773592719847273826
13571099 52 18113907082054918741
13581323 91 18342739572384361530
14144814 61 17846494807566101828
14178342 30 18343023302393034547
15219456 202 17675920980411823028
15279308 16 17749112175159329904
15375358 24 17894919528820855640
15669948 3 18127966417117668166
15775835 57 18131344237118301161
15852999 172 18260259767888312142
16752209 62 18342172229001364183
16945 1 18339918204172995615
17357990 137 17774989207051762852
18186145 218 17968084361111346609
19049666 15 17968362559101889342
19422 9 17418090988260922434
200 152 16128385830749064011
20279233 1 17894629249155556054
20510252 161 18335410236832761305
20645464 45 18113902623973915091
20645476 183 17417238819526263783
20645477 70 16515397504087446940
20715346 28 17821722802171198452
212916 134 18338248144683778273
21639500 275 15719398300179344912
22096605 113 16370733625307432816
22112679 90 17775571901191389788
23382010 3 14418720041864695013
23402539 116 18261969474114832229
23557571 272 18260539000775991005
23559900 14 18262229019605591230
23598291 2 17418088793812261038
2748010 2 18268413810955890839
276578 36 18270110352643308131
305870 269 18269555095155980251
43471831 8 18343584062066629059
45790113 50 15195280971109992764
495365 180 17677060164626274998
5706482 22 18343592849701052643
6049 1 17823118086590042024
69090 78 17603866672319626903
7364860 26 17976257155790277743
7615 1 17631735963077678244
77492 1 17489585628066155942
81228 2 18048029680074722523
84936 182 17757554423327974465
88987 49 18339357470580662430
90316 7 17775013409182504501

> <PUBCHEM_SHAPE_MULTIPOLES>
314.3
7.01
2.03
1.39
0.65
0.91
0.07
-3.41
-1.53
-2.28
-0.27
2.02
-0.21
0.54

> <PUBCHEM_SHAPE_SELFOVERLAP>
654.501

> <PUBCHEM_SHAPE_VOLUME>
173.5

> <PUBCHEM_COORDINATE_TYPE>
2
5
10

$$$$

