2555
  -OEChem-07051212532D

 31 34  0     1  0  0  0  0  0999 V2000
    3.7173   -2.2408    0.0000 O   0  0  0  0  0  0  0  0  0  0  0  0
    4.9143    2.2408    0.0000 O   0  0  0  0  0  0  0  0  0  0  0  0
    5.0438    0.5136    0.0000 N   0  0  0  0  0  0  0  0  0  0  0  0
    6.4749    1.4893    0.0000 N   0  0  0  0  0  0  0  0  0  0  0  0
    4.5438   -1.6770    0.0000 C   0  0  3  0  0  0  0  0  0  0  0  0
    3.6428   -1.2432    0.0000 C   0  0  3  0  0  0  0  0  0  0  0  0
    5.4447   -1.2432    0.0000 C   0  0  0  0  0  0  0  0  0  0  0  0
    3.4203   -0.2682    0.0000 C   0  0  0  0  0  0  0  0  0  0  0  0
    5.6673   -0.2682    0.0000 C   0  0  0  0  0  0  0  0  0  0  0  0
    4.0438    0.5136    0.0000 C   0  0  0  0  0  0  0  0  0  0  0  0
    6.1973   -1.9633    0.0000 C   0  0  0  0  0  0  0  0  0  0  0  0
    2.3880   -0.1289    0.0000 C   0  0  0  0  0  0  0  0  0  0  0  0
    6.6578    0.0541    0.0000 C   0  0  0  0  0  0  0  0  0  0  0  0
    3.6782    1.4890    0.0000 C   0  0  0  0  0  0  0  0  0  0  0  0
    2.0000    0.8378    0.0000 C   0  0  0  0  0  0  0  0  0  0  0  0
    7.1950   -1.6640    0.0000 C   0  0  0  0  0  0  0  0  0  0  0  0
    5.4777    1.4146    0.0000 C   0  0  0  0  0  0  0  0  0  0  0  0
    2.6494    1.6522    0.0000 C   0  0  0  0  0  0  0  0  0  0  0  0
    7.4268   -0.6485    0.0000 C   0  0  0  0  0  0  0  0  0  0  0  0
    4.8538   -2.2139    0.0000 H   0  0  0  0  0  0  0  0  0  0  0  0
    3.0297   -1.3355    0.0000 H   0  0  0  0  0  0  0  0  0  0  0  0
    6.0524   -2.5662    0.0000 H   0  0  0  0  0  0  0  0  0  0  0  0
    2.0071   -0.6180    0.0000 H   0  0  0  0  0  0  0  0  0  0  0  0
    6.7887    0.6601    0.0000 H   0  0  0  0  0  0  0  0  0  0  0  0
    4.0704    1.9692    0.0000 H   0  0  0  0  0  0  0  0  0  0  0  0
    7.6478   -2.0874    0.0000 H   0  0  0  0  0  0  0  0  0  0  0  0
    1.3866    0.9278    0.0000 H   0  0  0  0  0  0  0  0  0  0  0  0
    8.0185   -0.4634    0.0000 H   0  0  0  0  0  0  0  0  0  0  0  0
    2.4252    2.2302    0.0000 H   0  0  0  0  0  0  0  0  0  0  0  0
    6.7439    2.0479    0.0000 H   0  0  0  0  0  0  0  0  0  0  0  0
    6.8241    0.9770    0.0000 H   0  0  0  0  0  0  0  0  0  0  0  0
  1  5  1  0  0  0  0
  1  6  1  0  0  0  0
  2 17  2  0  0  0  0
  3  9  1  0  0  0  0
  3 10  1  0  0  0  0
  3 17  1  0  0  0  0
  4 17  1  0  0  0  0
  4 30  1  0  0  0  0
  4 31  1  0  0  0  0
  5  6  1  0  0  0  0
  5  7  1  0  0  0  0
  5 20  1  0  0  0  0
  6  8  1  0  0  0  0
  6 21  1  0  0  0  0
  7  9  1  0  0  0  0
  7 11  2  0  0  0  0
  8 10  1  0  0  0  0
  8 12  2  0  0  0  0
  9 13  2  0  0  0  0
 10 14  2  0  0  0  0
 11 16  1  0  0  0  0
 11 22  1  0  0  0  0
 12 15  1  0  0  0  0
 12 23  1  0  0  0  0
 13 19  1  0  0  0  0
 13 24  1  0  0  0  0
 14 18  1  0  0  0  0
 14 25  1  0  0  0  0
 15 18  2  0  0  0  0
 15 27  1  0  0  0  0
 16 19  2  0  0  0  0
 16 26  1  0  0  0  0
 18 29  1  0  0  0  0
 19 28  1  0  0  0  0
M  END
> <PUBCHEM_COMPOUND_CID>
2555

> <PUBCHEM_COMPOUND_CANONICALIZED>
1

> <PUBCHEM_CACTVS_COMPLEXITY>
358

> <PUBCHEM_CACTVS_HBOND_ACCEPTOR>
2

> <PUBCHEM_CACTVS_HBOND_DONOR>
1

> <PUBCHEM_CACTVS_ROTATABLE_BOND>
0

> <PUBCHEM_CACTVS_SUBSKEYS>
AAADccBzMAAAAAAAAAAAAAAAEgAAAAAAAAAwYAAABYAWAAABQAAAHgAQAAAADByhmAIxwINABACIAiRCUACCAAAhAgAIiAAAbIiIJmLAsZmGMAhmxAPI6CewwOAOAAAAAAACAAAAAAAAAAQAAAAAAAAAAA==

> <PUBCHEM_IUPAC_INCHI>
InChI=1S/C15H12N2O2/c16-15(18)17-11-7-3-1-5-9(11)13-14(19-13)10-6-2-4-8-12(10)17/h1-8,13-14H,(H2,16,18)

> <PUBCHEM_IUPAC_INCHIKEY>
ZRWWEEVEIOGMMT-UHFFFAOYSA-N

> <PUBCHEM_XLOGP3_AA>
1.3

> <PUBCHEM_EXACT_MASS>
252.089878

> <PUBCHEM_MOLECULAR_FORMULA>
C15H12N2O2

> <PUBCHEM_MOLECULAR_WEIGHT>
252.26798

> <PUBCHEM_OPENEYE_CAN_SMILES>
C1=CC=C2C(=C1)C3C(O3)C4=CC=CC=C4N2C(=O)N

> <PUBCHEM_OPENEYE_ISO_SMILES>
C1=CC=C2C(=C1)C3C(O3)C4=CC=CC=C4N2C(=O)N

> <PUBCHEM_CACTVS_TPSA>
58.9

> <PUBCHEM_MONOISOTOPIC_WEIGHT>
252.089878

> <PUBCHEM_TOTAL_CHARGE>
0

> <PUBCHEM_HEAVY_ATOM_COUNT>
19

> <PUBCHEM_ATOM_DEF_STEREO_COUNT>
0

> <PUBCHEM_ATOM_UDEF_STEREO_COUNT>
2

> <PUBCHEM_BOND_DEF_STEREO_COUNT>
0

> <PUBCHEM_BOND_UDEF_STEREO_COUNT>
0

> <PUBCHEM_ISOTOPIC_ATOM_COUNT>
0

> <PUBCHEM_COMPONENT_COUNT>
1

> <PUBCHEM_CACTVS_TAUTO_COUNT>
2

> <PUBCHEM_COORDINATE_TYPE>
1
5
255

> <PUBCHEM_BONDANNOTATIONS>
5  1  3
6  1  3
10  14  8
11  16  8
12  15  8
13  19  8
14  18  8
15  18  8
16  19  8
7  11  8
7  9  8
8  10  8
8  12  8
9  13  8

$$$$

