7894
  -OEChem-07051212473D

 19 18  0     0  0  0  0  0  0999 V2000
   -2.7428    0.2294   -0.1845 N   0  0  0  0  0  0  0  0  0  0  0  0
    1.0551    0.0221    0.3355 C   0  0  0  0  0  0  0  0  0  0  0  0
   -0.3140    0.5543   -0.1290 C   0  0  0  0  0  0  0  0  0  0  0  0
   -1.4837   -0.3408    0.2837 C   0  0  0  0  0  0  0  0  0  0  0  0
    1.2746   -1.3913   -0.2098 C   0  0  0  0  0  0  0  0  0  0  0  0
    2.2108    0.9262   -0.0959 C   0  0  0  0  0  0  0  0  0  0  0  0
    1.0590   -0.0280    1.4318 H   0  0  0  0  0  0  0  0  0  0  0  0
   -0.4585    1.5596    0.2885 H   0  0  0  0  0  0  0  0  0  0  0  0
   -0.3085    0.6687   -1.2213 H   0  0  0  0  0  0  0  0  0  0  0  0
   -1.3941   -1.3379   -0.1554 H   0  0  0  0  0  0  0  0  0  0  0  0
   -1.5127   -0.4503    1.3731 H   0  0  0  0  0  0  0  0  0  0  0  0
    0.6011   -2.1159    0.2571 H   0  0  0  0  0  0  0  0  0  0  0  0
    1.1312   -1.4302   -1.2951 H   0  0  0  0  0  0  0  0  0  0  0  0
    2.2939   -1.7325    0.0041 H   0  0  0  0  0  0  0  0  0  0  0  0
    3.1670    0.5450    0.2776 H   0  0  0  0  0  0  0  0  0  0  0  0
    2.2741    0.9950   -1.1872 H   0  0  0  0  0  0  0  0  0  0  0  0
    2.0760    1.9383    0.2996 H   0  0  0  0  0  0  0  0  0  0  0  0
   -2.8779    1.1502    0.2312 H   0  0  0  0  0  0  0  0  0  0  0  0
   -3.5168   -0.3474    0.1423 H   0  0  0  0  0  0  0  0  0  0  0  0
  1  4  1  0  0  0  0
  1 18  1  0  0  0  0
  1 19  1  0  0  0  0
  2  3  1  0  0  0  0
  2  5  1  0  0  0  0
  2  6  1  0  0  0  0
  2  7  1  0  0  0  0
  3  4  1  0  0  0  0
  3  8  1  0  0  0  0
  3  9  1  0  0  0  0
  4 10  1  0  0  0  0
  4 11  1  0  0  0  0
  5 12  1  0  0  0  0
  5 13  1  0  0  0  0
  5 14  1  0  0  0  0
  6 15  1  0  0  0  0
  6 16  1  0  0  0  0
  6 17  1  0  0  0  0
M  END
> <PUBCHEM_COMPOUND_CID>
7894

> <PUBCHEM_CONFORMER_RMSD>
0.4

> <PUBCHEM_CONFORMER_DIVERSEORDER>
1
3
2

> <PUBCHEM_MMFF94_PARTIAL_CHARGES>
4
1 -0.99
18 0.36
19 0.36
4 0.27

> <PUBCHEM_EFFECTIVE_ROTOR_COUNT>
2

> <PUBCHEM_PHARMACOPHORE_FEATURES>
3
1 1 cation
1 1 donor
3 2 5 6 hydrophobe

> <PUBCHEM_HEAVY_ATOM_COUNT>
6

> <PUBCHEM_ATOM_DEF_STEREO_COUNT>
0

> <PUBCHEM_ATOM_UDEF_STEREO_COUNT>
0

> <PUBCHEM_BOND_DEF_STEREO_COUNT>
0

> <PUBCHEM_BOND_UDEF_STEREO_COUNT>
0

> <PUBCHEM_ISOTOPIC_ATOM_COUNT>
0

> <PUBCHEM_COMPONENT_COUNT>
1

> <PUBCHEM_CACTVS_TAUTO_COUNT>
1

> <PUBCHEM_CONFORMER_ID>
00001ED600000001

> <PUBCHEM_MMFF94_ENERGY>
-0.2659

> <PUBCHEM_FEATURE_SELFOVERLAP>
15.223

> <PUBCHEM_SHAPE_FINGERPRINT>
139733 1 9582934870578290610
14390081 3 18335703810463553057
16714656 1 18267580209074065964
20096714 4 18337390427072438456
21040471 1 18265615381800381522
23552449 11 18199478820897153618
24536 1 18338810020868884577
29004967 10 18342451538997734913
5460574 1 8718834188705099537

> <PUBCHEM_SHAPE_MULTIPOLES>
118.5
3.3
1.17
0.65
1.64
0.33
0.02
-0.56
-0.18
-0.65
-0.08
-0.03
0.01
0.08

> <PUBCHEM_SHAPE_SELFOVERLAP>
202.201

> <PUBCHEM_SHAPE_VOLUME>
79.6

> <PUBCHEM_COORDINATE_TYPE>
2
5
10

$$$$

