439443
  -OEChem-07051212452D

 58 60  0     1  0  0  0  0  0999 V2000
    6.0010   -0.9207    0.0000 P   0  0  3  0  0  0  0  0  0  0  0  0
    5.1350   -2.4207    0.0000 P   0  0  3  0  0  0  0  0  0  0  0  0
    7.6761    2.1671    0.0000 O   0  0  0  0  0  0  0  0  0  0  0  0
    5.1070    1.8581    0.0000 O   0  0  0  0  0  0  0  0  0  0  0  0
    5.7793    3.9272    0.0000 O   0  0  0  0  0  0  0  0  0  0  0  0
    6.0010    0.0793    0.0000 O   0  0  0  0  0  0  0  0  0  0  0  0
    5.1350   -4.4206    0.0000 O   0  0  0  0  0  0  0  0  0  0  0  0
    4.2690   -2.9207    0.0000 O   0  0  0  0  0  0  0  0  0  0  0  0
    2.5369   -3.9206    0.0000 O   0  0  0  0  0  0  0  0  0  0  0  0
    6.0010   -1.9206    0.0000 O   0  0  0  0  0  0  0  0  0  0  0  0
    2.5369   -5.9206    0.0000 O   0  0  0  0  0  0  0  0  0  0  0  0
    9.3561    2.9091    0.0000 O   0  0  0  0  0  0  0  0  0  0  0  0
    4.2690   -6.9206    0.0000 O   0  0  0  0  0  0  0  0  0  0  0  0
    7.0010   -0.9207    0.0000 O   0  0  0  0  0  0  0  0  0  0  0  0
    5.0010   -0.9207    0.0000 O   0  0  0  0  0  0  0  0  0  0  0  0
    4.6350   -1.5546    0.0000 O   0  0  0  0  0  0  0  0  0  0  0  0
    5.6350   -3.2867    0.0000 O   0  0  0  0  0  0  0  0  0  0  0  0
    7.9548    3.9272    0.0000 N   0  0  0  0  0  0  0  0  0  0  0  0
    9.5372    4.6317    0.0000 N   0  0  0  0  0  0  0  0  0  0  0  0
    9.7182    6.3543    0.0000 N   0  0  0  0  0  0  0  0  0  0  0  0
    6.0580    2.1671    0.0000 C   0  0  1  0  0  0  0  0  0  0  0  0
    6.3671    3.1182    0.0000 C   0  0  2  0  0  0  0  0  0  0  0  0
    6.8671    1.5794    0.0000 C   0  0  1  0  0  0  0  0  0  0  0  0
    7.3671    3.1182    0.0000 C   0  0  1  0  0  0  0  0  0  0  0  0
    6.8671    0.5793    0.0000 C   0  0  0  0  0  0  0  0  0  0  0  0
    3.4030   -4.4206    0.0000 C   0  0  1  0  0  0  0  0  0  0  0  0
    4.2690   -3.9206    0.0000 C   0  0  2  0  0  0  0  0  0  0  0  0
    3.4030   -5.4206    0.0000 C   0  0  2  0  0  0  0  0  0  0  0  0
    7.5481    4.8408    0.0000 C   0  0  0  0  0  0  0  0  0  0  0  0
    5.1350   -5.4206    0.0000 C   0  0  1  0  0  0  0  0  0  0  0  0
    8.9494    3.8227    0.0000 C   0  0  0  0  0  0  0  0  0  0  0  0
    4.2690   -5.9206    0.0000 C   0  0  0  0  0  0  0  0  0  0  0  0
    8.1359    5.6498    0.0000 C   0  0  0  0  0  0  0  0  0  0  0  0
    6.0010   -5.9206    0.0000 C   0  0  0  0  0  0  0  0  0  0  0  0
    9.1304    5.5452    0.0000 C   0  0  0  0  0  0  0  0  0  0  0  0
    5.9611    1.5548    0.0000 H   0  0  0  0  0  0  0  0  0  0  0  0
    5.7547    3.0212    0.0000 H   0  0  0  0  0  0  0  0  0  0  0  0
    7.4195    1.2979    0.0000 H   0  0  0  0  0  0  0  0  0  0  0  0
    7.0856    3.6706    0.0000 H   0  0  0  0  0  0  0  0  0  0  0  0
    7.0791   -0.0033    0.0000 H   0  0  0  0  0  0  0  0  0  0  0  0
    7.4776    0.6870    0.0000 H   0  0  0  0  0  0  0  0  0  0  0  0
    4.6462    2.2730    0.0000 H   0  0  0  0  0  0  0  0  0  0  0  0
    5.1627    3.8624    0.0000 H   0  0  0  0  0  0  0  0  0  0  0  0
    3.4030   -3.8006    0.0000 H   0  0  0  0  0  0  0  0  0  0  0  0
    3.7320   -3.6106    0.0000 H   0  0  0  0  0  0  0  0  0  0  0  0
    3.4030   -6.0406    0.0000 H   0  0  0  0  0  0  0  0  0  0  0  0
    6.9315    4.9056    0.0000 H   0  0  0  0  0  0  0  0  0  0  0  0
    5.6720   -5.1106    0.0000 H   0  0  0  0  0  0  0  0  0  0  0  0
    7.8837    6.2162    0.0000 H   0  0  0  0  0  0  0  0  0  0  0  0
    5.6910   -6.4576    0.0000 H   0  0  0  0  0  0  0  0  0  0  0  0
    6.5380   -6.2306    0.0000 H   0  0  0  0  0  0  0  0  0  0  0  0
    6.3110   -5.3837    0.0000 H   0  0  0  0  0  0  0  0  0  0  0  0
    2.0000   -4.2306    0.0000 H   0  0  0  0  0  0  0  0  0  0  0  0
    2.5369   -6.5406    0.0000 H   0  0  0  0  0  0  0  0  0  0  0  0
    7.3110   -1.4576    0.0000 H   0  0  0  0  0  0  0  0  0  0  0  0
    9.4660    6.9206    0.0000 H   0  0  0  0  0  0  0  0  0  0  0  0
   10.3348    6.2895    0.0000 H   0  0  0  0  0  0  0  0  0  0  0  0
    4.0150   -1.5546    0.0000 H   0  0  0  0  0  0  0  0  0  0  0  0
  1  6  1  0  0  0  0
  1 10  1  0  0  0  0
  1 14  1  0  0  0  0
  1 15  2  0  0  0  0
  2  8  1  0  0  0  0
  2 10  1  0  0  0  0
  2 16  1  0  0  0  0
  2 17  2  0  0  0  0
  3 23  1  0  0  0  0
  3 24  1  0  0  0  0
 21  4  1  1  0  0  0
  4 42  1  0  0  0  0
 22  5  1  1  0  0  0
  5 43  1  0  0  0  0
  6 25  1  0  0  0  0
  7 27  1  0  0  0  0
  7 30  1  0  0  0  0
 27  8  1  1  0  0  0
 26  9  1  1  0  0  0
  9 53  1  0  0  0  0
 28 11  1  6  0  0  0
 11 54  1  0  0  0  0
 12 31  2  0  0  0  0
 13 32  2  0  0  0  0
 14 55  1  0  0  0  0
 16 58  1  0  0  0  0
 24 18  1  6  0  0  0
 18 29  1  0  0  0  0
 18 31  1  0  0  0  0
 19 31  1  0  0  0  0
 19 35  2  0  0  0  0
 20 35  1  0  0  0  0
 20 56  1  0  0  0  0
 20 57  1  0  0  0  0
 21 22  1  0  0  0  0
 21 23  1  0  0  0  0
 21 36  1  0  0  0  0
 22 24  1  0  0  0  0
 22 37  1  0  0  0  0
 23 25  1  6  0  0  0
 23 38  1  0  0  0  0
 24 39  1  0  0  0  0
 25 40  1  0  0  0  0
 25 41  1  0  0  0  0
 26 27  1  0  0  0  0
 26 28  1  0  0  0  0
 26 44  1  0  0  0  0
 27 45  1  0  0  0  0
 28 32  1  0  0  0  0
 28 46  1  0  0  0  0
 29 33  2  0  0  0  0
 29 47  1  0  0  0  0
 30 32  1  0  0  0  0
 30 34  1  6  0  0  0
 30 48  1  0  0  0  0
 33 35  1  0  0  0  0
 33 49  1  0  0  0  0
 34 50  1  0  0  0  0
 34 51  1  0  0  0  0
 34 52  1  0  0  0  0
M  END
> <PUBCHEM_COMPOUND_CID>
439443

> <PUBCHEM_COMPOUND_CANONICALIZED>
1

> <PUBCHEM_CACTVS_COMPLEXITY>
1010

> <PUBCHEM_CACTVS_HBOND_ACCEPTOR>
15

> <PUBCHEM_CACTVS_HBOND_DONOR>
7

> <PUBCHEM_CACTVS_ROTATABLE_BOND>
8

> <PUBCHEM_CACTVS_SUBSKEYS>
AAADceBzPAMAAAAAAAAAAAAAAAAAASAAAAAkQAAAAAAAAAAAAAAAHgAQCCAACBTxgAcDCANABxCoQKJ2dIKAAAEAAgAIAAFYABCTEBYAgAQOQAAHNgIXAAHycAYAAAAAAAAAAAAAAAAAAAAAAAAAAAAAAA==

> <PUBCHEM_IUPAC_OPENEYE_NAME>
[[(2R,3S,4R,5R)-5-(4-amino-2-oxo-pyrimidin-1-yl)-3,4-dihydroxy-tetrahydrofuran-2-yl]methoxy-hydroxy-phosphoryl] [(2R,3R,4R,6R)-3,4-dihydroxy-6-methyl-5-oxo-tetrahydropyran-2-yl] hydrogen phosphate

> <PUBCHEM_IUPAC_CAS_NAME>
[[(2R,3S,4R,5R)-5-(4-amino-2-oxo-1-pyrimidinyl)-3,4-dihydroxy-2-oxolanyl]methoxy-hydroxyphosphoryl] [(2R,3R,4R,6R)-3,4-dihydroxy-6-methyl-5-oxo-2-oxanyl] hydrogen phosphate

> <PUBCHEM_IUPAC_NAME>
[[(2R,3S,4R,5R)-5-(4-amino-2-oxopyrimidin-1-yl)-3,4-dihydroxyoxolan-2-yl]methoxy-hydroxyphosphoryl] [(2R,3R,4R,6R)-3,4-dihydroxy-6-methyl-5-oxooxan-2-yl] hydrogen phosphate

> <PUBCHEM_IUPAC_SYSTEMATIC_NAME>
[[(2R,3S,4R,5R)-5-(4-azanyl-2-oxidanylidene-pyrimidin-1-yl)-3,4-bis(oxidanyl)oxolan-2-yl]methoxy-oxidanyl-phosphoryl] [(2R,3R,4R,6R)-6-methyl-3,4-bis(oxidanyl)-5-oxidanylidene-oxan-2-yl] hydrogen phosphate

> <PUBCHEM_IUPAC_TRADITIONAL_NAME>
[[(2R,3S,4R,5R)-5-(4-amino-2-keto-pyrimidin-1-yl)-3,4-dihydroxy-tetrahydrofuran-2-yl]methoxy-hydroxy-phosphoryl] [(2R,3R,4R,6R)-3,4-dihydroxy-5-keto-6-methyl-tetrahydropyran-2-yl] hydrogen phosphate

> <PUBCHEM_IUPAC_INCHI>
InChI=1S/C15H23N3O15P2/c1-5-8(19)10(21)12(23)14(30-5)32-35(27,28)33-34(25,26)29-4-6-9(20)11(22)13(31-6)18-3-2-7(16)17-15(18)24/h2-3,5-6,9-14,20-23H,4H2,1H3,(H,25,26)(H,27,28)(H2,16,17,24)/t5-,6-,9-,10+,11-,12-,13-,14-/m1/s1

> <PUBCHEM_IUPAC_INCHIKEY>
PUBYMNIINUUJLL-JPHISPRKSA-N

> <PUBCHEM_XLOGP3_AA>
-6

> <PUBCHEM_EXACT_MASS>
547.06044

> <PUBCHEM_MOLECULAR_FORMULA>
C15H23N3O15P2

> <PUBCHEM_MOLECULAR_WEIGHT>
547.301744

> <PUBCHEM_OPENEYE_CAN_SMILES>
CC1C(=O)C(C(C(O1)OP(=O)(O)OP(=O)(O)OCC2C(C(C(O2)N3C=CC(=NC3=O)N)O)O)O)O

> <PUBCHEM_OPENEYE_ISO_SMILES>
C[C@@H]1C(=O)[C@@H]([C@H]([C@H](O1)OP(=O)(O)OP(=O)(O)OC[C@@H]2[C@H]([C@H]([C@@H](O2)N3C=CC(=NC3=O)N)O)O)O)O

> <PUBCHEM_CACTVS_TPSA>
277

> <PUBCHEM_MONOISOTOPIC_WEIGHT>
547.06044

> <PUBCHEM_TOTAL_CHARGE>
0

> <PUBCHEM_HEAVY_ATOM_COUNT>
35

> <PUBCHEM_ATOM_DEF_STEREO_COUNT>
8

> <PUBCHEM_ATOM_UDEF_STEREO_COUNT>
0

> <PUBCHEM_BOND_DEF_STEREO_COUNT>
0

> <PUBCHEM_BOND_UDEF_STEREO_COUNT>
0

> <PUBCHEM_ISOTOPIC_ATOM_COUNT>
0

> <PUBCHEM_COMPONENT_COUNT>
1

> <PUBCHEM_CACTVS_TAUTO_COUNT>
21

> <PUBCHEM_COORDINATE_TYPE>
1
5
255

> <PUBCHEM_BONDANNOTATIONS>
28  11  6
24  18  6
18  29  8
18  31  8
19  31  8
19  35  8
23  25  6
29  33  8
30  34  6
33  35  8
21  4  5
22  5  5
27  8  5
26  9  5

$$$$

