9843
  -OEChem-06261204073D

 14 13  0     0  0  0  0  0  0999 V2000
   -3.5753   -0.8716   -0.5872 Cl  0  0  0  0  0  0  0  0  0  0  0  0
   -0.3743   -0.6390    0.3793 S   0  0  0  0  0  0  0  0  0  0  0  0
    3.5185   -0.2108   -0.1314 F   0  0  0  0  0  0  0  0  0  0  0  0
    1.3069    1.2662   -0.3423 O   0  0  0  0  0  0  0  0  0  0  0  0
   -1.4779    0.7622    0.0960 C   0  0  0  0  0  0  0  0  0  0  0  0
   -2.9268    0.4379    0.4314 C   0  0  0  0  0  0  0  0  0  0  0  0
    1.1833    0.0978    0.0043 C   0  0  0  0  0  0  0  0  0  0  0  0
    2.3457   -0.8425    0.1498 C   0  0  0  0  0  0  0  0  0  0  0  0
   -1.3968    1.0774   -0.9502 H   0  0  0  0  0  0  0  0  0  0  0  0
   -1.1526    1.5999    0.7222 H   0  0  0  0  0  0  0  0  0  0  0  0
   -3.0396    0.1375    1.4782 H   0  0  0  0  0  0  0  0  0  0  0  0
   -3.5555    1.3179    0.2649 H   0  0  0  0  0  0  0  0  0  0  0  0
    2.4085   -1.2117    1.1770 H   0  0  0  0  0  0  0  0  0  0  0  0
    2.2451   -1.6785   -0.5476 H   0  0  0  0  0  0  0  0  0  0  0  0
  1  6  1  0  0  0  0
  2  5  1  0  0  0  0
  2  7  1  0  0  0  0
  3  8  1  0  0  0  0
  4  7  2  0  0  0  0
  5  6  1  0  0  0  0
  5  9  1  0  0  0  0
  5 10  1  0  0  0  0
  6 11  1  0  0  0  0
  6 12  1  0  0  0  0
  7  8  1  0  0  0  0
  8 13  1  0  0  0  0
  8 14  1  0  0  0  0
M  END
> <PUBCHEM_COMPOUND_CID>
9843

> <PUBCHEM_CONFORMER_RMSD>
0.6

> <PUBCHEM_CONFORMER_DIVERSEORDER>
1
66
48
2
26
65
21
61
9
8
68
3
60
11
54
10
15
24
13
45
64
27
12
17
51
22
55
47
18
52
20
19
32
7
70
56
46
4
57
44
28
37
43
67
38
14
29
16
30
69
6
58
50
35
41
33
34
23
62
39
49
5
40
53
63
25
42
59
36
31

> <PUBCHEM_MMFF94_PARTIAL_CHARGES>
8
1 -0.29
2 -0.37
3 -0.34
4 -0.57
5 0.23
6 0.29
7 0.65
8 0.4

> <PUBCHEM_EFFECTIVE_ROTOR_COUNT>
4

> <PUBCHEM_PHARMACOPHORE_FEATURES>
0

> <PUBCHEM_HEAVY_ATOM_COUNT>
8

> <PUBCHEM_ATOM_DEF_STEREO_COUNT>
0

> <PUBCHEM_ATOM_UDEF_STEREO_COUNT>
0

> <PUBCHEM_BOND_DEF_STEREO_COUNT>
0

> <PUBCHEM_BOND_UDEF_STEREO_COUNT>
0

> <PUBCHEM_ISOTOPIC_ATOM_COUNT>
0

> <PUBCHEM_COMPONENT_COUNT>
1

> <PUBCHEM_CACTVS_TAUTO_COUNT>
1

> <PUBCHEM_CONFORMER_ID>
0000267300000001

> <PUBCHEM_MMFF94_ENERGY>
4.6759

> <PUBCHEM_FEATURE_SELFOVERLAP>
0

> <PUBCHEM_SHAPE_FINGERPRINT>
11062470 55 5617534081875951379
12897270 3 18201726145766132439
12932741 1 16702014236841357553
12932764 1 15482672347355367193
14325111 11 18409448106851320379
14390081 3 11095877160033848319
177051 138 17967816033224876847
18342897 69 18260833721748191259
20651381 32 16845297180218985842
21293036 1 17917992771649869638
5084963 1 18410295817568707337
5460574 1 8502366720099932904

> <PUBCHEM_SHAPE_MULTIPOLES>
157.21
5.91
1.13
0.72
0.52
0.06
-0.02
-1.23
0.66
0.15
0.07
0.24
-0.04
-0.4

> <PUBCHEM_SHAPE_SELFOVERLAP>
265.611

> <PUBCHEM_SHAPE_VOLUME>
106.6

> <PUBCHEM_COORDINATE_TYPE>
2
5
10

$$$$

