440255
  -OEChem-07051212493D

 43 45  0     1  0  0  0  0  0999 V2000
   -2.0455    0.6395   -0.0071 O   0  0  0  0  0  0  0  0  0  0  0  0
   -0.9089   -1.3711    0.3242 O   0  0  0  0  0  0  0  0  0  0  0  0
   -5.6211   -1.0488    1.1026 O   0  0  0  0  0  0  0  0  0  0  0  0
   -5.6003    1.4548   -0.3420 O   0  0  0  0  0  0  0  0  0  0  0  0
   -3.3767   -2.7538    0.2442 O   0  0  0  0  0  0  0  0  0  0  0  0
   -1.7978    3.1474   -1.1049 O   0  0  0  0  0  0  0  0  0  0  0  0
    0.3572   -0.1111   -1.1347 O   0  0  0  0  0  0  0  0  0  0  0  0
    4.5485   -1.1157   -1.3818 N   0  0  0  0  0  0  0  0  0  0  0  0
   -4.5940   -0.6710    0.1846 C   0  0  1  0  0  0  0  0  0  0  0  0
   -4.4478    0.8498    0.2384 C   0  0  1  0  0  0  0  0  0  0  0  0
   -3.2877   -1.3664    0.5679 C   0  0  2  0  0  0  0  0  0  0  0  0
   -3.2004    1.3028   -0.5241 C   0  0  1  0  0  0  0  0  0  0  0  0
   -2.0992   -0.7735   -0.1890 C   0  0  1  0  0  0  0  0  0  0  0  0
   -2.9686    2.8042   -0.3865 C   0  0  0  0  0  0  0  0  0  0  0  0
    0.2610   -0.9443   -0.2439 C   0  0  0  0  0  0  0  0  0  0  0  0
    1.4149   -1.6723    0.4079 C   0  0  0  0  0  0  0  0  0  0  0  0
    2.7390   -1.2322   -0.1350 C   0  0  0  0  0  0  0  0  0  0  0  0
    3.5302   -0.1773    0.3674 C   0  0  0  0  0  0  0  0  0  0  0  0
    4.6705   -0.1218   -0.4369 C   0  0  0  0  0  0  0  0  0  0  0  0
    3.3738   -1.7956   -1.2030 C   0  0  0  0  0  0  0  0  0  0  0  0
    3.4015    0.7438    1.4259 C   0  0  0  0  0  0  0  0  0  0  0  0
    5.6925    0.8125   -0.2350 C   0  0  0  0  0  0  0  0  0  0  0  0
    4.4158    1.6841    1.6399 C   0  0  0  0  0  0  0  0  0  0  0  0
    5.5429    1.7161    0.8210 C   0  0  0  0  0  0  0  0  0  0  0  0
   -4.9291   -0.9990   -0.8071 H   0  0  0  0  0  0  0  0  0  0  0  0
   -4.3989    1.1744    1.2851 H   0  0  0  0  0  0  0  0  0  0  0  0
   -3.1272   -1.3033    1.6507 H   0  0  0  0  0  0  0  0  0  0  0  0
   -3.2857    1.0694   -1.5942 H   0  0  0  0  0  0  0  0  0  0  0  0
   -2.1646   -1.0139   -1.2591 H   0  0  0  0  0  0  0  0  0  0  0  0
   -2.8154    3.0920    0.6589 H   0  0  0  0  0  0  0  0  0  0  0  0
   -3.8039    3.3819   -0.7927 H   0  0  0  0  0  0  0  0  0  0  0  0
   -6.4324   -0.5809    0.8405 H   0  0  0  0  0  0  0  0  0  0  0  0
   -5.6479    1.1784   -1.2730 H   0  0  0  0  0  0  0  0  0  0  0  0
   -3.5214   -2.8312   -0.7143 H   0  0  0  0  0  0  0  0  0  0  0  0
    1.2844   -2.7469    0.2336 H   0  0  0  0  0  0  0  0  0  0  0  0
    1.3752   -1.4925    1.4882 H   0  0  0  0  0  0  0  0  0  0  0  0
   -1.0638    2.6251   -0.7383 H   0  0  0  0  0  0  0  0  0  0  0  0
    3.1074   -2.6144   -1.8567 H   0  0  0  0  0  0  0  0  0  0  0  0
    5.2284   -1.3139   -2.1028 H   0  0  0  0  0  0  0  0  0  0  0  0
    2.5290    0.7338    2.0728 H   0  0  0  0  0  0  0  0  0  0  0  0
    6.5703    0.8382   -0.8719 H   0  0  0  0  0  0  0  0  0  0  0  0
    4.3217    2.3972    2.4545 H   0  0  0  0  0  0  0  0  0  0  0  0
    6.3187    2.4550    1.0052 H   0  0  0  0  0  0  0  0  0  0  0  0
  1 12  1  0  0  0  0
  1 13  1  0  0  0  0
  2 13  1  0  0  0  0
  2 15  1  0  0  0  0
  3  9  1  0  0  0  0
  3 32  1  0  0  0  0
  4 10  1  0  0  0  0
  4 33  1  0  0  0  0
  5 11  1  0  0  0  0
  5 34  1  0  0  0  0
  6 14  1  0  0  0  0
  6 37  1  0  0  0  0
  7 15  2  0  0  0  0
  8 19  1  0  0  0  0
  8 20  1  0  0  0  0
  8 39  1  0  0  0  0
  9 10  1  0  0  0  0
  9 11  1  0  0  0  0
  9 25  1  0  0  0  0
 10 12  1  0  0  0  0
 10 26  1  0  0  0  0
 11 13  1  0  0  0  0
 11 27  1  0  0  0  0
 12 14  1  0  0  0  0
 12 28  1  0  0  0  0
 13 29  1  0  0  0  0
 14 30  1  0  0  0  0
 14 31  1  0  0  0  0
 15 16  1  0  0  0  0
 16 17  1  0  0  0  0
 16 35  1  0  0  0  0
 16 36  1  0  0  0  0
 17 18  1  0  0  0  0
 17 20  2  0  0  0  0
 18 19  1  0  0  0  0
 18 21  2  0  0  0  0
 19 22  2  0  0  0  0
 20 38  1  0  0  0  0
 21 23  1  0  0  0  0
 21 40  1  0  0  0  0
 22 24  1  0  0  0  0
 22 41  1  0  0  0  0
 23 24  2  0  0  0  0
 23 42  1  0  0  0  0
 24 43  1  0  0  0  0
M  END
> <PUBCHEM_COMPOUND_CID>
440255

> <PUBCHEM_CONFORMER_RMSD>
1

> <PUBCHEM_CONFORMER_DIVERSEORDER>
1
250
210
382
89
67
204
185
145
25
608
397
316
400
5
7
329
220
358
481
485
318
591
587
367
221
538
129
578
85
179
8
345
609
295
160
54
219
74
347
31
120
19
79
292
87
253
321
90
202
91
208
107
2
385
556
456
194
288
122
376
18
66
365
189
302
519
366
21
184
290
483
128
348
69
17
315
63
563
27
166
105
20
459
172
310
279
466
440
29
44
52
15
398
180
39
150
144
436
540
343
235
28
308
422
61
395
102
24
41
9
92
104
181
126
30
26
4
307
101
224
62
463
402
305
60
335
64
565
3
384
244
13
118
167
223
453
523
249
176
99
23
450
10
525
267
187
136
33
447
57

> <PUBCHEM_MMFF94_PARTIAL_CHARGES>
33
1 -0.56
10 0.28
11 0.28
12 0.28
13 0.56
14 0.28
15 0.66
16 0.24
17 -0.18
19 -0.15
2 -0.43
20 -0.3
21 -0.15
22 -0.15
23 -0.15
24 -0.15
3 -0.68
32 0.4
33 0.4
34 0.4
37 0.4
38 0.15
39 0.27
4 -0.68
40 0.15
41 0.15
42 0.15
43 0.15
5 -0.68
6 -0.68
7 -0.57
8 0.03
9 0.28

> <PUBCHEM_EFFECTIVE_ROTOR_COUNT>
6.2

> <PUBCHEM_PHARMACOPHORE_FEATURES>
15
1 1 acceptor
1 3 acceptor
1 3 donor
1 4 acceptor
1 4 donor
1 5 acceptor
1 5 donor
1 6 acceptor
1 6 donor
1 7 acceptor
1 8 cation
1 8 donor
5 8 17 18 19 20 rings
6 1 9 10 11 12 13 rings
6 18 19 21 22 23 24 rings

> <PUBCHEM_HEAVY_ATOM_COUNT>
24

> <PUBCHEM_ATOM_DEF_STEREO_COUNT>
5

> <PUBCHEM_ATOM_UDEF_STEREO_COUNT>
0

> <PUBCHEM_BOND_DEF_STEREO_COUNT>
0

> <PUBCHEM_BOND_UDEF_STEREO_COUNT>
0

> <PUBCHEM_ISOTOPIC_ATOM_COUNT>
0

> <PUBCHEM_COMPONENT_COUNT>
1

> <PUBCHEM_CACTVS_TAUTO_COUNT>
1

> <PUBCHEM_CONFORMER_ID>
0006B7BF00000001

> <PUBCHEM_MMFF94_ENERGY>
50.4285

> <PUBCHEM_FEATURE_SELFOVERLAP>
76.226

> <PUBCHEM_SHAPE_FINGERPRINT>
10319926 262 18341626957476205722
10498660 4 18341053012010841096
10670039 82 18130215047873061652
11370993 144 17968928807737841715
11595378 159 17703800248806638776
11796584 16 8574716788995548964
12107183 9 17409661277587514930
12236239 1 16988841683216115842
12403259 415 18335134310531725670
12596602 18 16917348108731596480
12730499 353 18187639194349331486
12769317 202 17822300050635218616
13402501 40 18335706018308975488
14251757 17 18260832643669468648
14341114 176 18408597067650460082
14739800 52 18270697440597822192
15961568 22 18270962332891172596
17349148 13 16988839471255223935
1768 85 17823422582618295072
17844677 252 18187074096278772274
20645477 56 18334296461254786543
20645477 70 17385715933454758622
21033648 29 18187655695033025320
21792961 116 18115573968718839782
22122407 14 16443611425202994067
221357 26 17894630396328925832
22289505 5 17967812765255729576
23557571 272 18412254039087719039
23559900 14 18340198695839761046
341906 21 17988927807550458372
34797466 226 17894904114109318926
3545911 37 18333728005427435922
445580 44 16487264304220293077
465052 167 12175630585982228082
497634 4 17022907805278107367
5104073 3 18271523212437787779
5281201 14 18113612426393386518
574716 61 14852187065087603664
6442390 28 18412826885099737086
7808743 9 18267307522138591080

> <PUBCHEM_SHAPE_MULTIPOLES>
447.84
14.3
2.7
1.16
0.37
1.07
0.07
3.7
1.65
-1.5
-0.32
0.92
0.19
2.59

> <PUBCHEM_SHAPE_SELFOVERLAP>
961.902

> <PUBCHEM_SHAPE_VOLUME>
244.5

> <PUBCHEM_COORDINATE_TYPE>
2
5
10

$$$$

