9542989
  -OEChem-07051213043D

 25 25  0     0  0  0  0  0  0999 V2000
    1.0407    1.5876   -0.5207 O   0  0  0  0  0  0  0  0  0  0  0  0
    4.6818    0.7204    1.0810 O   0  0  0  0  0  0  0  0  0  0  0  0
    3.7289    2.0892   -0.4634 O   0  0  0  0  0  0  0  0  0  0  0  0
   -3.6278    0.1066   -1.5455 O   0  0  0  0  0  0  0  0  0  0  0  0
   -5.5388    0.5552    0.1096 O   0  0  0  0  0  0  0  0  0  0  0  0
   -4.1111    0.3342    1.8810 O   0  0  0  0  0  0  0  0  0  0  0  0
    0.4515   -0.7302   -0.4073 C   0  0  0  0  0  0  0  0  0  0  0  0
    1.3974    0.2888   -0.2959 C   0  0  0  0  0  0  0  0  0  0  0  0
    2.7144   -0.0166    0.0472 C   0  0  0  0  0  0  0  0  0  0  0  0
    0.8225   -2.0547   -0.1754 C   0  0  0  0  0  0  0  0  0  0  0  0
    3.0856   -1.3411    0.2789 C   0  0  0  0  0  0  0  0  0  0  0  0
    2.1396   -2.3601    0.1676 C   0  0  0  0  0  0  0  0  0  0  0  0
   -0.9311   -0.4396   -0.7634 C   0  0  0  0  0  0  0  0  0  0  0  0
    3.7200    1.0300    0.1699 C   0  0  0  0  0  0  0  0  0  0  0  0
   -1.9246   -0.1891    0.1158 C   0  0  0  0  0  0  0  0  0  0  0  0
   -3.3000    0.0838   -0.3695 C   0  0  0  0  0  0  0  0  0  0  0  0
   -4.3490    0.3356    0.6902 C   0  0  0  0  0  0  0  0  0  0  0  0
    0.0984   -2.8617   -0.2591 H   0  0  0  0  0  0  0  0  0  0  0  0
    4.1062   -1.6129    0.5350 H   0  0  0  0  0  0  0  0  0  0  0  0
    2.4290   -3.3918    0.3449 H   0  0  0  0  0  0  0  0  0  0  0  0
   -1.1284   -0.4394   -1.8329 H   0  0  0  0  0  0  0  0  0  0  0  0
   -1.7364   -0.1882    1.1837 H   0  0  0  0  0  0  0  0  0  0  0  0
    0.1108    1.6547   -0.7887 H   0  0  0  0  0  0  0  0  0  0  0  0
    5.3545    1.4304    1.1573 H   0  0  0  0  0  0  0  0  0  0  0  0
   -6.2469    0.7244    0.7671 H   0  0  0  0  0  0  0  0  0  0  0  0
  1  8  1  0  0  0  0
  1 23  1  0  0  0  0
  2 14  1  0  0  0  0
  2 24  1  0  0  0  0
  3 14  2  0  0  0  0
  4 16  2  0  0  0  0
  5 17  1  0  0  0  0
  5 25  1  0  0  0  0
  6 17  2  0  0  0  0
  7  8  2  0  0  0  0
  7 10  1  0  0  0  0
  7 13  1  0  0  0  0
  8  9  1  0  0  0  0
  9 11  2  0  0  0  0
  9 14  1  0  0  0  0
 10 12  2  0  0  0  0
 10 18  1  0  0  0  0
 11 12  1  0  0  0  0
 11 19  1  0  0  0  0
 12 20  1  0  0  0  0
 13 15  2  0  0  0  0
 13 21  1  0  0  0  0
 15 16  1  0  0  0  0
 15 22  1  0  0  0  0
 16 17  1  0  0  0  0
M  END
> <PUBCHEM_COMPOUND_CID>
9542989

> <PUBCHEM_CONFORMER_RMSD>
0.6

> <PUBCHEM_CONFORMER_DIVERSEORDER>
1
6
3
9
4
12
2
13
10
5
8
7
11

> <PUBCHEM_MMFF94_PARTIAL_CHARGES>
25
1 -0.53
10 -0.15
11 -0.15
12 -0.15
13 -0.18
14 0.63
15 -0.14
16 0.56
17 0.72
18 0.15
19 0.15
2 -0.65
20 0.15
21 0.15
22 0.15
23 0.45
24 0.5
25 0.5
3 -0.57
4 -0.57
5 -0.65
6 -0.57
7 0.03
8 0.08
9 0.09

> <PUBCHEM_EFFECTIVE_ROTOR_COUNT>
4

> <PUBCHEM_PHARMACOPHORE_FEATURES>
9
1 1 donor
1 2 acceptor
1 3 acceptor
1 4 acceptor
1 5 acceptor
1 6 acceptor
3 2 3 14 anion
3 5 6 17 anion
6 7 8 9 10 11 12 rings

> <PUBCHEM_HEAVY_ATOM_COUNT>
17

> <PUBCHEM_ATOM_DEF_STEREO_COUNT>
0

> <PUBCHEM_ATOM_UDEF_STEREO_COUNT>
0

> <PUBCHEM_BOND_DEF_STEREO_COUNT>
1

> <PUBCHEM_BOND_UDEF_STEREO_COUNT>
0

> <PUBCHEM_ISOTOPIC_ATOM_COUNT>
0

> <PUBCHEM_COMPONENT_COUNT>
1

> <PUBCHEM_CACTVS_TAUTO_COUNT>
6

> <PUBCHEM_CONFORMER_ID>
00919D4D00000001

> <PUBCHEM_MMFF94_ENERGY>
49.156

> <PUBCHEM_FEATURE_SELFOVERLAP>
45.795

> <PUBCHEM_SHAPE_FINGERPRINT>
10354089 29 18335697239321533913
10465860 228 18407755950087979462
10498660 4 15574987433812362363
10980938 120 18409454695489596526
11471102 20 18411989074223698622
12236239 1 17822015323999070759
12346645 6 18408888455833943030
12390115 104 18050835633985975876
12644460 14 18342741844912814810
13583140 156 16342884073733361622
13675066 3 17775566459552234679
14252887 29 17988640834804566770
14739800 52 16878528777287724170
15342168 16 18341609257367274612
15375358 24 17988926682379692563
1813 80 17608637646594035534
18186145 218 18408039623935056110
19784866 9 18410295804768149712
20157964 124 18338519742132214461
20279233 1 17560799953042614739
204376 136 18411980221948104151
20645477 70 18340497780098002303
21065199 12 18201151148519116803
22182313 1 18126587819274283382
22854114 59 18413669110679052703
23048698 100 18187925122953608867
23402539 116 16370730322477588724
23557571 272 16773799259411984607
23559900 14 16629681897787751270
2748010 2 17979660132015497214
276578 36 18335420153991401190
2838139 119 15793162272345780152
293599 30 18268989796393622388
42630746 31 18409169922004460694
449060 50 18343301457354581759
449060 62 18407760335302225774
474 4 18408602530790961800
5104073 3 18410578370424448091
602551 16 16056870308601659379
633830 44 18186513310946794078
77492 1 17822019734825131767
8272917 22 18336262435258228966
9999458 23 18202561774888397510

> <PUBCHEM_SHAPE_MULTIPOLES>
314.64
9.89
1.83
1.04
9.06
0.5
0.17
-3.73
2.46
-2.54
-0.07
0.95
-0.12
-0.29

> <PUBCHEM_SHAPE_SELFOVERLAP>
667.94

> <PUBCHEM_SHAPE_VOLUME>
173.7

> <PUBCHEM_COORDINATE_TYPE>
2
5
10

$$$$

