13987
  -OEChem-07051213043D

 63 67  0     1  0  0  0  0  0999 V2000
    3.0537   -0.1137   -0.2073 O   0  0  0  0  0  0  0  0  0  0  0  0
   -7.8246    0.7183   -0.9559 O   0  0  0  0  0  0  0  0  0  0  0  0
    4.3112   -1.7217   -1.2716 O   0  0  0  0  0  0  0  0  0  0  0  0
   -1.7793   -0.9671    0.4622 C   0  0  2  0  0  0  0  0  0  0  0  0
   -2.3516    0.2634   -0.3140 C   0  0  1  0  0  0  0  0  0  0  0  0
   -0.3927   -1.2978   -0.0999 C   0  0  1  0  0  0  0  0  0  0  0  0
    0.6007   -0.1283    0.0416 C   0  0  2  0  0  0  0  0  0  0  0  0
   -3.8024    0.6417    0.1695 C   0  0  2  0  0  0  0  0  0  0  0  0
   -4.6960   -0.6332    0.0226 C   0  0  1  0  0  0  0  0  0  0  0  0
   -1.3531    1.4521   -0.3390 C   0  0  0  0  0  0  0  0  0  0  0  0
    0.0669    1.0518   -0.7802 C   0  0  0  0  0  0  0  0  0  0  0  0
   -2.7243   -2.1722    0.3656 C   0  0  0  0  0  0  0  0  0  0  0  0
    1.8611   -0.7989   -0.5377 C   0  0  2  0  0  0  0  0  0  0  0  0
    0.3759   -2.4886    0.4675 C   0  0  0  0  0  0  0  0  0  0  0  0
   -4.1450   -1.8307    0.8049 C   0  0  0  0  0  0  0  0  0  0  0  0
    1.8353   -2.2203    0.0576 C   0  0  0  0  0  0  0  0  0  0  0  0
   -4.4116    1.7378   -0.7517 C   0  0  0  0  0  0  0  0  0  0  0  0
    0.8567    0.3308    1.4998 C   0  0  0  0  0  0  0  0  0  0  0  0
   -3.7794    1.1725    1.6245 C   0  0  0  0  0  0  0  0  0  0  0  0
   -6.1652   -0.3828    0.3738 C   0  0  0  0  0  0  0  0  0  0  0  0
   -5.8839    2.0339   -0.4751 C   0  0  0  0  0  0  0  0  0  0  0  0
   -6.7090    0.7696   -0.4385 C   0  0  0  0  0  0  0  0  0  0  0  0
    4.2177   -0.6834   -0.6355 C   0  0  0  0  0  0  0  0  0  0  0  0
    5.3910    0.1286   -0.2253 C   0  0  0  0  0  0  0  0  0  0  0  0
    6.5200    0.1174   -1.0186 C   0  0  0  0  0  0  0  0  0  0  0  0
    5.3160    0.8697    0.9363 C   0  0  0  0  0  0  0  0  0  0  0  0
    7.6223    0.8804   -0.6334 C   0  0  0  0  0  0  0  0  0  0  0  0
    6.4182    1.6328    1.3214 C   0  0  0  0  0  0  0  0  0  0  0  0
    7.5714    1.6381    0.5365 C   0  0  0  0  0  0  0  0  0  0  0  0
   -1.6792   -0.7189    1.5239 H   0  0  0  0  0  0  0  0  0  0  0  0
   -2.4492   -0.0536   -1.3648 H   0  0  0  0  0  0  0  0  0  0  0  0
   -0.5294   -1.5100   -1.1739 H   0  0  0  0  0  0  0  0  0  0  0  0
   -4.6788   -0.9170   -1.0418 H   0  0  0  0  0  0  0  0  0  0  0  0
   -1.2987    1.9264    0.6455 H   0  0  0  0  0  0  0  0  0  0  0  0
   -1.7083    2.2223   -1.0323 H   0  0  0  0  0  0  0  0  0  0  0  0
    0.0378    0.7864   -1.8450 H   0  0  0  0  0  0  0  0  0  0  0  0
    0.7367    1.9161   -0.6965 H   0  0  0  0  0  0  0  0  0  0  0  0
   -2.3511   -2.9948    0.9867 H   0  0  0  0  0  0  0  0  0  0  0  0
   -2.7483   -2.5436   -0.6670 H   0  0  0  0  0  0  0  0  0  0  0  0
    1.7791   -0.8566   -1.6324 H   0  0  0  0  0  0  0  0  0  0  0  0
    0.0163   -3.4398    0.0620 H   0  0  0  0  0  0  0  0  0  0  0  0
    0.2890   -2.5390    1.5586 H   0  0  0  0  0  0  0  0  0  0  0  0
   -4.7832   -2.7076    0.6402 H   0  0  0  0  0  0  0  0  0  0  0  0
   -4.1647   -1.6321    1.8828 H   0  0  0  0  0  0  0  0  0  0  0  0
    2.5007   -2.3285    0.9217 H   0  0  0  0  0  0  0  0  0  0  0  0
    2.1517   -2.9565   -0.6898 H   0  0  0  0  0  0  0  0  0  0  0  0
   -4.3130    1.4207   -1.7987 H   0  0  0  0  0  0  0  0  0  0  0  0
   -3.8547    2.6769   -0.6566 H   0  0  0  0  0  0  0  0  0  0  0  0
    1.5601    1.1715    1.5207 H   0  0  0  0  0  0  0  0  0  0  0  0
   -0.0529    0.6669    2.0043 H   0  0  0  0  0  0  0  0  0  0  0  0
    1.2878   -0.4628    2.1182 H   0  0  0  0  0  0  0  0  0  0  0  0
   -3.2377    2.1216    1.6920 H   0  0  0  0  0  0  0  0  0  0  0  0
   -4.7830    1.3641    2.0143 H   0  0  0  0  0  0  0  0  0  0  0  0
   -3.3043    0.4752    2.3190 H   0  0  0  0  0  0  0  0  0  0  0  0
   -6.3087   -0.1631    1.4361 H   0  0  0  0  0  0  0  0  0  0  0  0
   -6.7582   -1.2748    0.1391 H   0  0  0  0  0  0  0  0  0  0  0  0
   -6.2755    2.6860   -1.2636 H   0  0  0  0  0  0  0  0  0  0  0  0
   -6.0139    2.5554    0.4784 H   0  0  0  0  0  0  0  0  0  0  0  0
    6.5703   -0.4657   -1.9333 H   0  0  0  0  0  0  0  0  0  0  0  0
    4.4351    0.8719    1.5712 H   0  0  0  0  0  0  0  0  0  0  0  0
    8.5199    0.8852   -1.2447 H   0  0  0  0  0  0  0  0  0  0  0  0
    6.3801    2.2206    2.2340 H   0  0  0  0  0  0  0  0  0  0  0  0
    8.4299    2.2318    0.8367 H   0  0  0  0  0  0  0  0  0  0  0  0
  1 13  1  0  0  0  0
  1 23  1  0  0  0  0
  2 22  2  0  0  0  0
  3 23  2  0  0  0  0
  4  5  1  0  0  0  0
  4  6  1  0  0  0  0
  4 12  1  0  0  0  0
  4 30  1  0  0  0  0
  5  8  1  0  0  0  0
  5 10  1  0  0  0  0
  5 31  1  0  0  0  0
  6  7  1  0  0  0  0
  6 14  1  0  0  0  0
  6 32  1  0  0  0  0
  7 11  1  0  0  0  0
  7 13  1  0  0  0  0
  7 18  1  0  0  0  0
  8  9  1  0  0  0  0
  8 17  1  0  0  0  0
  8 19  1  0  0  0  0
  9 15  1  0  0  0  0
  9 20  1  0  0  0  0
  9 33  1  0  0  0  0
 10 11  1  0  0  0  0
 10 34  1  0  0  0  0
 10 35  1  0  0  0  0
 11 36  1  0  0  0  0
 11 37  1  0  0  0  0
 12 15  1  0  0  0  0
 12 38  1  0  0  0  0
 12 39  1  0  0  0  0
 13 16  1  0  0  0  0
 13 40  1  0  0  0  0
 14 16  1  0  0  0  0
 14 41  1  0  0  0  0
 14 42  1  0  0  0  0
 15 43  1  0  0  0  0
 15 44  1  0  0  0  0
 16 45  1  0  0  0  0
 16 46  1  0  0  0  0
 17 21  1  0  0  0  0
 17 47  1  0  0  0  0
 17 48  1  0  0  0  0
 18 49  1  0  0  0  0
 18 50  1  0  0  0  0
 18 51  1  0  0  0  0
 19 52  1  0  0  0  0
 19 53  1  0  0  0  0
 19 54  1  0  0  0  0
 20 22  1  0  0  0  0
 20 55  1  0  0  0  0
 20 56  1  0  0  0  0
 21 22  1  0  0  0  0
 21 57  1  0  0  0  0
 21 58  1  0  0  0  0
 23 24  1  0  0  0  0
 24 25  2  0  0  0  0
 24 26  1  0  0  0  0
 25 27  1  0  0  0  0
 25 59  1  0  0  0  0
 26 28  2  0  0  0  0
 26 60  1  0  0  0  0
 27 29  2  0  0  0  0
 27 61  1  0  0  0  0
 28 29  1  0  0  0  0
 28 62  1  0  0  0  0
 29 63  1  0  0  0  0
M  END
> <PUBCHEM_COMPOUND_CID>
13987

> <PUBCHEM_CONFORMER_RMSD>
0.8

> <PUBCHEM_CONFORMER_DIVERSEORDER>
1
2
3
4

> <PUBCHEM_MMFF94_PARTIAL_CHARGES>
19
1 -0.43
13 0.28
2 -0.57
20 0.06
21 0.06
22 0.45
23 0.63
24 0.09
25 -0.15
26 -0.15
27 -0.15
28 -0.15
29 -0.15
3 -0.57
59 0.15
60 0.15
61 0.15
62 0.15
63 0.15

> <PUBCHEM_EFFECTIVE_ROTOR_COUNT>
5

> <PUBCHEM_PHARMACOPHORE_FEATURES>
7
1 2 acceptor
1 3 acceptor
5 6 7 13 14 16 rings
6 24 25 26 27 28 29 rings
6 4 5 6 7 10 11 rings
6 4 5 8 9 12 15 rings
6 8 9 17 20 21 22 rings

> <PUBCHEM_HEAVY_ATOM_COUNT>
29

> <PUBCHEM_ATOM_DEF_STEREO_COUNT>
7

> <PUBCHEM_ATOM_UDEF_STEREO_COUNT>
0

> <PUBCHEM_BOND_DEF_STEREO_COUNT>
0

> <PUBCHEM_BOND_UDEF_STEREO_COUNT>
0

> <PUBCHEM_ISOTOPIC_ATOM_COUNT>
0

> <PUBCHEM_COMPONENT_COUNT>
1

> <PUBCHEM_CACTVS_TAUTO_COUNT>
3

> <PUBCHEM_CONFORMER_ID>
000036A300000001

> <PUBCHEM_MMFF94_ENERGY>
99.7491

> <PUBCHEM_FEATURE_SELFOVERLAP>
35.612

> <PUBCHEM_SHAPE_FINGERPRINT>
10 15 18131069329014561688
10299344 5 5039954044042071172
10411042 1 17765709127921412915
10835480 77 18335421287504123196
11135609 187 18269558394513588505
11181472 205 16444455974992878697
11315181 36 18186235122390288705
11456790 92 12391507638191574237
11991303 11 16153718582869156212
12236239 1 17132114641032047427
12516196 113 18334295374833886349
12730499 353 18186515510956655374
12838862 33 18201452376203545693
13402501 40 18334857182911407160
13533116 47 16128384779247097952
13673619 4 7925911478161020058
13911987 19 17167860863462569710
14028597 1 16200442393900532112
14394314 77 18263356044842462105
14556957 393 15936677195127695880
14856354 85 16271921584913974819
15183329 4 13984658140614020560
15289351 153 18113619024190971810
15461852 350 18114463366477735575
16989713 51 17825387384154214127
17980427 23 17561076973932654846
18608769 82 18341326705271891243
18681886 176 18411704245056929737
20105231 36 6916260767508460773
20281389 69 18343303673921722656
20511986 3 18130516309273831627
20554085 129 18201449072893569698
21033648 29 18188503359296971736
21150785 3 16443067192226248820
21315759 40 13912315798892188444
21424621 283 18201719561254499770
21521721 280 18186236234058844210
21792961 116 18040709299682440586
22224240 67 18343586239255611102
23522609 53 5472317273861044154
23559900 14 18408609132836437769
23569943 247 8717735781111695284
23576562 1 17531822225145170741
24771293 8 18412543232137011269
335352 9 18343021069695544309
34797466 226 17530960306490897734
34934 24 18271809055449121579
4073 2 18131344190253898298
4093350 32 17603579772492987022
4325135 7 18059855065038310396
44249763 50 18114475457032329686
465052 167 10663818590248431634
5104073 3 18270958050259840826
5758199 1 18410571812357052369
999808 66 7565339868942738293

> <PUBCHEM_SHAPE_MULTIPOLES>
579.2
20.83
2.23
1.14
14.11
0.75
-0.24
-11.08
1.78
-0.75
-0.13
0.49
-0.23
1.76

> <PUBCHEM_SHAPE_SELFOVERLAP>
1253.223

> <PUBCHEM_SHAPE_VOLUME>
313.2

> <PUBCHEM_COORDINATE_TYPE>
2
5
10

$$$$

