442342
  -OEChem-07051212573D

 33 34  0     0  0  0  0  0  0999 V2000
   -1.1323    2.3032   -0.5040 O   0  0  0  0  0  0  0  0  0  0  0  0
   -3.4262    2.0873    0.8436 O   0  0  0  0  0  0  0  0  0  0  0  0
    6.4015   -1.4058    0.0705 O   0  0  0  0  0  0  0  0  0  0  0  0
   -5.7171   -2.0321    0.1479 O   0  0  0  0  0  0  0  0  0  0  0  0
    1.4289    1.2584    0.1553 C   0  0  0  0  0  0  0  0  0  0  0  0
    0.3015    0.3700   -0.3756 C   0  0  0  0  0  0  0  0  0  0  0  0
    2.7569    0.5465    0.1325 C   0  0  0  0  0  0  0  0  0  0  0  0
   -1.0721    1.0641   -0.3774 C   0  0  0  0  0  0  0  0  0  0  0  0
   -2.2857    0.2721   -0.2326 C   0  0  0  0  0  0  0  0  0  0  0  0
    3.1566   -0.1868    1.2399 C   0  0  0  0  0  0  0  0  0  0  0  0
    3.5591    0.6366   -0.9955 C   0  0  0  0  0  0  0  0  0  0  0  0
   -3.4229    0.8090    0.3708 C   0  0  0  0  0  0  0  0  0  0  0  0
   -2.3018   -1.0391   -0.7085 C   0  0  0  0  0  0  0  0  0  0  0  0
    4.3862   -0.8449    1.2188 C   0  0  0  0  0  0  0  0  0  0  0  0
    4.7886   -0.0217   -1.0166 C   0  0  0  0  0  0  0  0  0  0  0  0
    5.2022   -0.7624    0.0906 C   0  0  0  0  0  0  0  0  0  0  0  0
   -4.5761    0.0349    0.4983 C   0  0  0  0  0  0  0  0  0  0  0  0
   -3.4551   -1.8131   -0.5808 C   0  0  0  0  0  0  0  0  0  0  0  0
   -4.5923   -1.2761    0.0226 C   0  0  0  0  0  0  0  0  0  0  0  0
    1.4976    2.1804   -0.4366 H   0  0  0  0  0  0  0  0  0  0  0  0
    1.1974    1.5874    1.1768 H   0  0  0  0  0  0  0  0  0  0  0  0
    0.2424   -0.5312    0.2466 H   0  0  0  0  0  0  0  0  0  0  0  0
    0.5147    0.0596   -1.4056 H   0  0  0  0  0  0  0  0  0  0  0  0
    2.5271   -0.2585    2.1224 H   0  0  0  0  0  0  0  0  0  0  0  0
    3.2449    1.2094   -1.8634 H   0  0  0  0  0  0  0  0  0  0  0  0
   -1.4385   -1.4812   -1.1979 H   0  0  0  0  0  0  0  0  0  0  0  0
    4.6965   -1.4193    2.0876 H   0  0  0  0  0  0  0  0  0  0  0  0
    5.4197    0.0456   -1.8987 H   0  0  0  0  0  0  0  0  0  0  0  0
   -5.4593    0.4590    0.9701 H   0  0  0  0  0  0  0  0  0  0  0  0
   -3.4630   -2.8328   -0.9562 H   0  0  0  0  0  0  0  0  0  0  0  0
   -2.5414    2.4798    0.7781 H   0  0  0  0  0  0  0  0  0  0  0  0
    6.5254   -1.8679    0.9174 H   0  0  0  0  0  0  0  0  0  0  0  0
   -6.4050   -1.5034    0.5878 H   0  0  0  0  0  0  0  0  0  0  0  0
  1  8  2  0  0  0  0
  2 12  1  0  0  0  0
  2 31  1  0  0  0  0
  3 16  1  0  0  0  0
  3 32  1  0  0  0  0
  4 19  1  0  0  0  0
  4 33  1  0  0  0  0
  5  6  1  0  0  0  0
  5  7  1  0  0  0  0
  5 20  1  0  0  0  0
  5 21  1  0  0  0  0
  6  8  1  0  0  0  0
  6 22  1  0  0  0  0
  6 23  1  0  0  0  0
  7 10  2  0  0  0  0
  7 11  1  0  0  0  0
  8  9  1  0  0  0  0
  9 12  2  0  0  0  0
  9 13  1  0  0  0  0
 10 14  1  0  0  0  0
 10 24  1  0  0  0  0
 11 15  2  0  0  0  0
 11 25  1  0  0  0  0
 12 17  1  0  0  0  0
 13 18  2  0  0  0  0
 13 26  1  0  0  0  0
 14 16  2  0  0  0  0
 14 27  1  0  0  0  0
 15 16  1  0  0  0  0
 15 28  1  0  0  0  0
 17 19  2  0  0  0  0
 17 29  1  0  0  0  0
 18 19  1  0  0  0  0
 18 30  1  0  0  0  0
M  END
> <PUBCHEM_COMPOUND_CID>
442342

> <PUBCHEM_CONFORMER_RMSD>
0.6

> <PUBCHEM_CONFORMER_DIVERSEORDER>
1
20
76
68
44
71
29
28
26
63
56
53
60
21
10
18
58
52
57
2
5
41
3
17
73
15
66
12
33
75
14
43
69
36
38
11
9
72
65
16
37
8
6
40
50
46
13
54
59
74
49
67
4
51
48
25
42
24
39
55
31
19
70
35
34
47
64
61
22
62
7
45
30
27
32
23

> <PUBCHEM_MMFF94_PARTIAL_CHARGES>
29
1 -0.57
10 -0.15
11 -0.15
12 0.08
13 -0.15
14 -0.15
15 -0.15
16 0.08
17 -0.15
18 -0.15
19 0.08
2 -0.53
24 0.15
25 0.15
26 0.15
27 0.15
28 0.15
29 0.15
3 -0.53
30 0.15
31 0.45
32 0.45
33 0.45
4 -0.53
5 0.14
6 0.06
7 -0.14
8 0.42
9 0.09

> <PUBCHEM_EFFECTIVE_ROTOR_COUNT>
4

> <PUBCHEM_PHARMACOPHORE_FEATURES>
6
1 1 acceptor
1 2 donor
1 3 donor
1 4 donor
6 7 10 11 14 15 16 rings
6 9 12 13 17 18 19 rings

> <PUBCHEM_HEAVY_ATOM_COUNT>
19

> <PUBCHEM_ATOM_DEF_STEREO_COUNT>
0

> <PUBCHEM_ATOM_UDEF_STEREO_COUNT>
0

> <PUBCHEM_BOND_DEF_STEREO_COUNT>
0

> <PUBCHEM_BOND_UDEF_STEREO_COUNT>
0

> <PUBCHEM_ISOTOPIC_ATOM_COUNT>
0

> <PUBCHEM_COMPONENT_COUNT>
1

> <PUBCHEM_CACTVS_TAUTO_COUNT>
42

> <PUBCHEM_CONFORMER_ID>
0006BFE600000001

> <PUBCHEM_MMFF94_ENERGY>
51.3258

> <PUBCHEM_FEATURE_SELFOVERLAP>
30.446

> <PUBCHEM_SHAPE_FINGERPRINT>
10912923 1 18272082808016533808
11046707 91 18412546505033491501
11089746 13 8358247139027056626
11128504 68 17632572734887629164
11315181 36 18410009940013375281
11545043 162 17967255316490776488
117890 112 8718828682736439070
12107183 9 17763182835928967728
12236239 1 18202279199645587548
12507557 5 5761641603340296803
12553582 1 18271537432789349096
12596602 18 18187085053135984040
12633257 1 16660923262486634479
13167823 11 18413671305391490708
13288520 33 18413108368359959597
13533116 47 18268147548621363185
13551218 46 18334856138585904079
13675066 3 16950284013874893396
13862211 1 18262521386672618615
1420 369 18341898471769485730
14251752 14 17775295984340184285
14341114 176 17967532341960619688
14420673 8 18117270561450576750
14576447 43 17846221081559732218
15188451 53 17386298592881083127
15348495 7 16660650613515087282
15537594 2 18130505339832074802
15880784 105 18334856095751717328
17780758 139 18186524331811808953
17804303 29 18259983739257134609
17844677 252 18187079551204172008
17857418 61 18272093807380072314
1813 80 18060131037808532932
18222031 100 18342745074385251885
19489759 90 17530968016437443097
19784866 240 17988641861824003055
200 152 17346881160685350188
20281475 54 18413673517241905212
20645477 70 15051460465805526968
21033648 29 15936701465850410194
21267235 1 18341045242599599547
22646028 1 18272090500260470620
22950370 63 18341890783862434892
2297311 6 18187637020657822156
23402539 116 18060420243926868340
235170 7 14692577649431863290
23522609 53 18125125369171551285
23559900 14 17750784631108443220
23596394 208 14404912431199937720
26918003 58 17095245843336914914
2767999 5 7925915867654338035
2838139 119 5687943452983167203
3004659 81 17917716790284490150
312423 11 18342450413880320868
351380 3 18343866606247096282
4214541 1 18335983142182985153
441001 317 10087636009527450014
465052 167 18338792321361736790
5104073 3 18186799158195164944
542803 24 7925913673094503892
559249 180 18412547639126215375
573450 72 18410574002526752537
5924683 9 16226624970098361679
602551 16 18260268538522630150
7495541 125 18187367619414481256
7970288 3 18342178838671676978

> <PUBCHEM_SHAPE_MULTIPOLES>
367.53
14.08
1.88
1.01
6.33
0.17
0.08
-7.46
1.09
-1.97
-0.01
0.75
-0.01
-0.87

> <PUBCHEM_SHAPE_SELFOVERLAP>
789.523

> <PUBCHEM_SHAPE_VOLUME>
202.4

> <PUBCHEM_COORDINATE_TYPE>
2
5
10

$$$$

