5418
  -OEChem-06261200413D

 50 52  0     1  0  0  0  0  0999 V2000
    3.7729    2.4828   -0.0643 O   0  0  0  0  0  0  0  0  0  0  0  0
    5.7075    0.4913   -0.0704 O   0  0  0  0  0  0  0  0  0  0  0  0
   -4.3771    2.2693    0.0004 O   0  0  0  0  0  0  0  0  0  0  0  0
   -6.0763    0.0707   -0.0471 O   0  0  0  0  0  0  0  0  0  0  0  0
   -0.0429   -2.2346    0.8711 N   0  0  0  0  0  0  0  0  0  0  0  0
    0.2038   -0.8588    0.3995 C   0  0  1  0  0  0  0  0  0  0  0  0
    1.6754   -0.5064    0.2828 C   0  0  0  0  0  0  0  0  0  0  0  0
    2.6584   -1.5130    0.2707 C   0  0  0  0  0  0  0  0  0  0  0  0
    2.2743   -2.9589    0.4478 C   0  0  0  0  0  0  0  0  0  0  0  0
    0.7935   -3.2092    0.1688 C   0  0  0  0  0  0  0  0  0  0  0  0
   -0.5418   -0.6070   -0.9165 C   0  0  0  0  0  0  0  0  0  0  0  0
    2.0692    0.8358    0.1679 C   0  0  0  0  0  0  0  0  0  0  0  0
   -2.0139   -0.4234   -0.6849 C   0  0  0  0  0  0  0  0  0  0  0  0
    4.0110   -1.1630    0.1578 C   0  0  0  0  0  0  0  0  0  0  0  0
    3.4172    1.1728    0.0459 C   0  0  0  0  0  0  0  0  0  0  0  0
    4.3871    0.1742    0.0406 C   0  0  0  0  0  0  0  0  0  0  0  0
   -2.5185    0.8495   -0.4471 C   0  0  0  0  0  0  0  0  0  0  0  0
   -2.8567   -1.5283   -0.7100 C   0  0  0  0  0  0  0  0  0  0  0  0
   -3.8861    1.0201   -0.2313 C   0  0  0  0  0  0  0  0  0  0  0  0
   -4.2241   -1.3577   -0.4942 C   0  0  0  0  0  0  0  0  0  0  0  0
   -4.7388   -0.0836   -0.2551 C   0  0  0  0  0  0  0  0  0  0  0  0
    4.0333    3.1882    1.1475 C   0  0  0  0  0  0  0  0  0  0  0  0
    6.2486    0.5640   -1.3881 C   0  0  0  0  0  0  0  0  0  0  0  0
   -3.4388    3.3435    0.0083 C   0  0  0  0  0  0  0  0  0  0  0  0
   -6.5372   -0.0182    1.2997 C   0  0  0  0  0  0  0  0  0  0  0  0
   -0.2035   -0.2029    1.1814 H   0  0  0  0  0  0  0  0  0  0  0  0
    2.8725   -3.5897   -0.2206 H   0  0  0  0  0  0  0  0  0  0  0  0
    2.5078   -3.2493    1.4800 H   0  0  0  0  0  0  0  0  0  0  0  0
    0.5970   -3.1989   -0.9090 H   0  0  0  0  0  0  0  0  0  0  0  0
    0.5349   -4.2153    0.5182 H   0  0  0  0  0  0  0  0  0  0  0  0
   -0.3725   -1.3999   -1.6556 H   0  0  0  0  0  0  0  0  0  0  0  0
   -0.1631    0.2970   -1.4132 H   0  0  0  0  0  0  0  0  0  0  0  0
   -1.0239   -2.4858    0.7881 H   0  0  0  0  0  0  0  0  0  0  0  0
    1.3187    1.6234    0.1748 H   0  0  0  0  0  0  0  0  0  0  0  0
    4.7740   -1.9383    0.1658 H   0  0  0  0  0  0  0  0  0  0  0  0
   -1.8067    1.6678   -0.4370 H   0  0  0  0  0  0  0  0  0  0  0  0
   -2.4741   -2.5248   -0.9119 H   0  0  0  0  0  0  0  0  0  0  0  0
   -4.8832   -2.2213   -0.5184 H   0  0  0  0  0  0  0  0  0  0  0  0
    3.1379    3.2129    1.7767 H   0  0  0  0  0  0  0  0  0  0  0  0
    4.3107    4.2148    0.8934 H   0  0  0  0  0  0  0  0  0  0  0  0
    4.8628    2.7262    1.6921 H   0  0  0  0  0  0  0  0  0  0  0  0
    6.1682   -0.4058   -1.8894 H   0  0  0  0  0  0  0  0  0  0  0  0
    7.3060    0.8310   -1.3100 H   0  0  0  0  0  0  0  0  0  0  0  0
    5.7355    1.3336   -1.9735 H   0  0  0  0  0  0  0  0  0  0  0  0
   -2.9611    3.4698   -0.9693 H   0  0  0  0  0  0  0  0  0  0  0  0
   -2.7099    3.2370    0.8189 H   0  0  0  0  0  0  0  0  0  0  0  0
   -4.0021    4.2613    0.2070 H   0  0  0  0  0  0  0  0  0  0  0  0
   -7.6200    0.1336    1.3021 H   0  0  0  0  0  0  0  0  0  0  0  0
   -6.0737    0.7571    1.9180 H   0  0  0  0  0  0  0  0  0  0  0  0
   -6.3215   -1.0083    1.7140 H   0  0  0  0  0  0  0  0  0  0  0  0
  1 15  1  0  0  0  0
  1 22  1  0  0  0  0
  2 16  1  0  0  0  0
  2 23  1  0  0  0  0
  3 19  1  0  0  0  0
  3 24  1  0  0  0  0
  4 21  1  0  0  0  0
  4 25  1  0  0  0  0
  5  6  1  0  0  0  0
  5 10  1  0  0  0  0
  5 33  1  0  0  0  0
  6  7  1  0  0  0  0
  6 11  1  0  0  0  0
  6 26  1  0  0  0  0
  7  8  1  0  0  0  0
  7 12  2  0  0  0  0
  8  9  1  0  0  0  0
  8 14  2  0  0  0  0
  9 10  1  0  0  0  0
  9 27  1  0  0  0  0
  9 28  1  0  0  0  0
 10 29  1  0  0  0  0
 10 30  1  0  0  0  0
 11 13  1  0  0  0  0
 11 31  1  0  0  0  0
 11 32  1  0  0  0  0
 12 15  1  0  0  0  0
 12 34  1  0  0  0  0
 13 17  2  0  0  0  0
 13 18  1  0  0  0  0
 14 16  1  0  0  0  0
 14 35  1  0  0  0  0
 15 16  2  0  0  0  0
 17 19  1  0  0  0  0
 17 36  1  0  0  0  0
 18 20  2  0  0  0  0
 18 37  1  0  0  0  0
 19 21  2  0  0  0  0
 20 21  1  0  0  0  0
 20 38  1  0  0  0  0
 22 39  1  0  0  0  0
 22 40  1  0  0  0  0
 22 41  1  0  0  0  0
 23 42  1  0  0  0  0
 23 43  1  0  0  0  0
 23 44  1  0  0  0  0
 24 45  1  0  0  0  0
 24 46  1  0  0  0  0
 24 47  1  0  0  0  0
 25 48  1  0  0  0  0
 25 49  1  0  0  0  0
 25 50  1  0  0  0  0
M  END
> <PUBCHEM_COMPOUND_CID>
5418

> <PUBCHEM_CONFORMER_RMSD>
0.8

> <PUBCHEM_CONFORMER_DIVERSEORDER>
18
15
65
41
29
57
30
61
59
62
54
36
16
43
53
33
2
66
10
17
67
60
14
24
56
51
22
63
28
3
27
8
5
19
42
31
40
55
12
4
23
7
26
20
64
6
50
1
32
47
35
52
9
44
21
25
68
38
11
49
48
13
34
58
46
39
45
37

> <PUBCHEM_MMFF94_PARTIAL_CHARGES>
31
1 -0.36
10 0.27
11 0.14
12 -0.15
13 -0.14
14 -0.15
15 0.08
16 0.08
17 -0.15
18 -0.15
19 0.08
2 -0.36
20 -0.15
21 0.08
22 0.28
23 0.28
24 0.28
25 0.28
3 -0.36
33 0.36
34 0.15
35 0.15
36 0.15
37 0.15
38 0.15
4 -0.36
5 -0.9
6 0.41
7 -0.14
8 -0.14
9 0.14

> <PUBCHEM_EFFECTIVE_ROTOR_COUNT>
6.8

> <PUBCHEM_PHARMACOPHORE_FEATURES>
9
1 1 acceptor
1 2 acceptor
1 3 acceptor
1 4 acceptor
1 5 cation
1 5 donor
6 13 17 18 19 20 21 rings
6 5 6 7 8 9 10 rings
6 7 8 12 14 15 16 rings

> <PUBCHEM_HEAVY_ATOM_COUNT>
25

> <PUBCHEM_ATOM_DEF_STEREO_COUNT>
0

> <PUBCHEM_ATOM_UDEF_STEREO_COUNT>
1

> <PUBCHEM_BOND_DEF_STEREO_COUNT>
0

> <PUBCHEM_BOND_UDEF_STEREO_COUNT>
0

> <PUBCHEM_ISOTOPIC_ATOM_COUNT>
0

> <PUBCHEM_COMPONENT_COUNT>
1

> <PUBCHEM_CACTVS_TAUTO_COUNT>
1

> <PUBCHEM_CONFORMER_ID>
0000152A00000012

> <PUBCHEM_MMFF94_ENERGY>
107.8022

> <PUBCHEM_FEATURE_SELFOVERLAP>
45.699

> <PUBCHEM_SHAPE_FINGERPRINT>
10165383 225 18201715138023487606
10411042 1 17834962241316574946
10670039 82 18412262856830067028
11796584 16 15213019341289154038
12107183 9 17690003761806348379
12236239 1 17967253091576650751
12403259 415 18272662220347460036
12555020 224 9223229629600238081
12596602 18 17346318215417059425
12730499 353 18343014497773628234
12788726 201 17168702067868843945
12925494 130 18266466588880571713
13955234 65 18341056301908733466
14341114 176 18341327877249076623
14790565 3 18413666911993803852
14849402 71 18413109438324216328
15183329 4 17313090978426195798
17349148 13 12103851180880905099
17844677 252 18336824320439341375
18608769 82 18269829839686920659
21033648 29 17345775039071049933
221357 26 18260551112626048116
22393880 68 18261115162338770276
245318 6 17343491216214022796
335352 9 18412263918541128550
350125 39 18411419509593236901
3545911 37 18413107255894845231
474 4 18131632274725743686
5104073 3 18128819831799206707
54446538 1 18408327682991214157
633830 44 18261966137178476998
8272917 22 18335701680196983454

> <PUBCHEM_SHAPE_MULTIPOLES>
486.03
14.35
3.39
0.96
5.36
0.91
0
6.26
0.11
-1.32
-0.76
-0.1
0.05
-0.04

> <PUBCHEM_SHAPE_SELFOVERLAP>
1034.384

> <PUBCHEM_SHAPE_VOLUME>
272

> <PUBCHEM_COORDINATE_TYPE>
2
5
10

$$$$

