17395298
  -OEChem-06241222493D

 44 46  0     0  0  0  0  0  0999 V2000
    1.4412    0.0662    0.1185 O   0  0  0  0  0  0  0  0  0  0  0  0
    0.2600    2.2968    0.5145 O   0  0  0  0  0  0  0  0  0  0  0  0
    5.9613    1.8542   -0.7813 O   0  0  0  0  0  0  0  0  0  0  0  0
    4.0229   -3.0483    0.8335 O   0  0  0  0  0  0  0  0  0  0  0  0
    1.6605   -2.1942   -0.2596 O   0  0  0  0  0  0  0  0  0  0  0  0
   -1.8781    1.4613    0.2975 N   0  0  0  0  0  0  0  0  0  0  0  0
   -2.6858    0.3875    0.0809 N   0  0  0  0  0  0  0  0  0  0  0  0
   -4.0610    2.2951    0.3731 C   0  0  0  0  0  0  0  0  0  0  0  0
   -2.6101    2.6988    0.4943 C   0  0  0  0  0  0  0  0  0  0  0  0
   -3.9103    0.8177    0.1177 C   0  0  0  0  0  0  0  0  0  0  0  0
   -5.0847   -0.0612   -0.0765 C   0  0  0  0  0  0  0  0  0  0  0  0
   -0.5030    1.3493    0.3214 C   0  0  0  0  0  0  0  0  0  0  0  0
    0.0389   -0.0403    0.0916 C   0  0  0  0  0  0  0  0  0  0  0  0
   -6.3721    0.4735   -0.0251 C   0  0  0  0  0  0  0  0  0  0  0  0
   -4.9047   -1.4244   -0.3113 C   0  0  0  0  0  0  0  0  0  0  0  0
   -7.4794   -0.3548   -0.2083 C   0  0  0  0  0  0  0  0  0  0  0  0
   -6.0120   -2.2527   -0.4946 C   0  0  0  0  0  0  0  0  0  0  0  0
   -7.2993   -1.7178   -0.4431 C   0  0  0  0  0  0  0  0  0  0  0  0
    3.6108   -0.8441   -0.0189 C   0  0  0  0  0  0  0  0  0  0  0  0
    2.1475   -1.0904   -0.0711 C   0  0  0  0  0  0  0  0  0  0  0  0
    4.1061    0.3950   -0.4254 C   0  0  0  0  0  0  0  0  0  0  0  0
    4.4872   -1.8321    0.4300 C   0  0  0  0  0  0  0  0  0  0  0  0
    5.4776    0.6459   -0.3828 C   0  0  0  0  0  0  0  0  0  0  0  0
    5.8586   -1.5812    0.4726 C   0  0  0  0  0  0  0  0  0  0  0  0
    6.3538   -0.3422    0.0662 C   0  0  0  0  0  0  0  0  0  0  0  0
    7.3739    2.0424   -0.7140 C   0  0  0  0  0  0  0  0  0  0  0  0
   -4.6115    2.4812    1.2992 H   0  0  0  0  0  0  0  0  0  0  0  0
   -4.5503    2.7924   -0.4688 H   0  0  0  0  0  0  0  0  0  0  0  0
   -2.3071    3.4236   -0.2682 H   0  0  0  0  0  0  0  0  0  0  0  0
   -2.3661    3.1102    1.4791 H   0  0  0  0  0  0  0  0  0  0  0  0
   -0.3080   -0.7013    0.8930 H   0  0  0  0  0  0  0  0  0  0  0  0
   -0.2940   -0.4041   -0.8864 H   0  0  0  0  0  0  0  0  0  0  0  0
   -6.5497    1.5293    0.1554 H   0  0  0  0  0  0  0  0  0  0  0  0
   -3.9128   -1.8660   -0.3561 H   0  0  0  0  0  0  0  0  0  0  0  0
   -8.4819    0.0611   -0.1684 H   0  0  0  0  0  0  0  0  0  0  0  0
   -5.8723   -3.3141   -0.6775 H   0  0  0  0  0  0  0  0  0  0  0  0
   -8.1613   -2.3628   -0.5857 H   0  0  0  0  0  0  0  0  0  0  0  0
    3.4441    1.1763   -0.7908 H   0  0  0  0  0  0  0  0  0  0  0  0
    6.5521   -2.3423    0.8208 H   0  0  0  0  0  0  0  0  0  0  0  0
    7.4293   -0.2145    0.1249 H   0  0  0  0  0  0  0  0  0  0  0  0
    4.7747   -3.5998    1.1100 H   0  0  0  0  0  0  0  0  0  0  0  0
    7.5821    3.0573   -1.0683 H   0  0  0  0  0  0  0  0  0  0  0  0
    7.9037    1.3556   -1.3827 H   0  0  0  0  0  0  0  0  0  0  0  0
    7.7392    1.9826    0.3169 H   0  0  0  0  0  0  0  0  0  0  0  0
  1 13  1  0  0  0  0
  1 20  1  0  0  0  0
  2 12  2  0  0  0  0
  3 23  1  0  0  0  0
  3 26  1  0  0  0  0
  4 22  1  0  0  0  0
  4 41  1  0  0  0  0
  5 20  2  0  0  0  0
  6  7  1  0  0  0  0
  6  9  1  0  0  0  0
  6 12  1  0  0  0  0
  7 10  2  0  0  0  0
  8  9  1  0  0  0  0
  8 10  1  0  0  0  0
  8 27  1  0  0  0  0
  8 28  1  0  0  0  0
  9 29  1  0  0  0  0
  9 30  1  0  0  0  0
 10 11  1  0  0  0  0
 11 14  2  0  0  0  0
 11 15  1  0  0  0  0
 12 13  1  0  0  0  0
 13 31  1  0  0  0  0
 13 32  1  0  0  0  0
 14 16  1  0  0  0  0
 14 33  1  0  0  0  0
 15 17  2  0  0  0  0
 15 34  1  0  0  0  0
 16 18  2  0  0  0  0
 16 35  1  0  0  0  0
 17 18  1  0  0  0  0
 17 36  1  0  0  0  0
 18 37  1  0  0  0  0
 19 20  1  0  0  0  0
 19 21  1  0  0  0  0
 19 22  2  0  0  0  0
 21 23  2  0  0  0  0
 21 38  1  0  0  0  0
 22 24  1  0  0  0  0
 23 25  1  0  0  0  0
 24 25  2  0  0  0  0
 24 39  1  0  0  0  0
 25 40  1  0  0  0  0
 26 42  1  0  0  0  0
 26 43  1  0  0  0  0
 26 44  1  0  0  0  0
M  END
> <PUBCHEM_COMPOUND_CID>
17395298

> <PUBCHEM_CONFORMER_RMSD>
1.2

> <PUBCHEM_CONFORMER_DIVERSEORDER>
1
36
69
37
5
33
50
44
80
17
23
2
38
55
8
67
61
3
42
74
47
46
34
63
75
66
57
4
78
53
76
58
54
6
27
49
18
62
10
51
22
12
71
68
13
56
29
21
43
81
39
40
77
24
64
32
73
45
35
7
30
26
20
59
70
48
52
11
25
65
14
19
60
41
28
31
9
16
79
72
15

> <PUBCHEM_MMFF94_PARTIAL_CHARGES>
35
1 -0.43
10 0.3
11 0.09
12 0.57
13 0.34
14 -0.15
15 -0.15
16 -0.15
17 -0.15
18 -0.15
19 0.09
2 -0.57
20 0.63
21 -0.15
22 0.08
23 0.08
24 -0.15
25 -0.15
26 0.28
3 -0.36
33 0.15
34 0.15
35 0.15
36 0.15
37 0.15
38 0.15
39 0.15
4 -0.53
40 0.15
41 0.45
5 -0.57
6 -0.3
7 -0.51
8 0.06
9 0.3

> <PUBCHEM_EFFECTIVE_ROTOR_COUNT>
7.6

> <PUBCHEM_PHARMACOPHORE_FEATURES>
8
1 2 acceptor
1 3 acceptor
1 4 donor
1 5 acceptor
1 7 acceptor
5 6 7 8 9 10 rings
6 11 14 15 16 17 18 rings
6 19 21 22 23 24 25 rings

> <PUBCHEM_HEAVY_ATOM_COUNT>
26

> <PUBCHEM_ATOM_DEF_STEREO_COUNT>
0

> <PUBCHEM_ATOM_UDEF_STEREO_COUNT>
0

> <PUBCHEM_BOND_DEF_STEREO_COUNT>
0

> <PUBCHEM_BOND_UDEF_STEREO_COUNT>
0

> <PUBCHEM_ISOTOPIC_ATOM_COUNT>
0

> <PUBCHEM_COMPONENT_COUNT>
1

> <PUBCHEM_CACTVS_TAUTO_COUNT>
4

> <PUBCHEM_CONFORMER_ID>
01096E6200000001

> <PUBCHEM_MMFF94_ENERGY>
78.8784

> <PUBCHEM_FEATURE_SELFOVERLAP>
40.595

> <PUBCHEM_SHAPE_FINGERPRINT>
10299344 5 18334855022315860891
10595046 47 18411698820233666496
10939801 23 18334859364132398838
11315181 36 18334010585001935145
11476731 47 17559382557774059757
11524674 6 16153430532925087143
11724838 91 18413109464235905514
11761917 116 18118406142525194839
12144603 126 18335412466401017601
12166972 35 18059855073343590532
12236239 1 18413388760709590604
12516196 113 18259987076309417849
128238 76 18334579040206806630
1361 2 18272086076729128808
1361 4 18410012139300998447
13631057 29 18333734632846674065
13692114 37 18342463630370787346
14251732 16 18410856551166023036
14461889 52 18409454661583669282
1454969 45 18408321072967720742
15152005 290 18267583513049512356
15537594 2 16732990850776317431
15685185 35 17912076150212566076
15728490 51 18335140847619656582
15927050 60 17465953661616279944
16993438 75 17844517826000526187
17492 89 18120937475905833130
17857418 61 18409728469895711961
20028762 73 18338802342001155322
20157964 124 18202280308480151788
21049683 271 18337669711737998505
21196832 93 18128811950577137339
21223535 225 15841282536253218237
21315763 28 18411701023905245650
21774942 28 13973422282660911999
21781051 124 17385715916411974950
21796203 349 17971450933452812963
22149856 69 17822281439877579147
23522609 53 18118655855928808857
23559900 14 18337680711671047969
249999 5 17752215997711519585
3004659 81 18272657827276079537
3009799 131 15482673472404644909
329604 57 18408604772816566361
335352 9 18334862715430599789
34797466 226 17095519574741357084
394071 54 15141263009163290602
397830 11 15213885700438268439
4015057 19 17988914553208069249
4073 2 18131063818698479059
4098825 35 18060143167582445965
4325135 7 18411698781436451756
437795 163 18268427932465715575
437795 51 17241051994460651296
439807 62 18410857668358537057
45377200 153 16733543793393123367
4938544 92 16588575518413538489
497634 4 18340206396842833669
504579 68 18272922835153304454
5104073 3 18042413589164118530
7495541 125 18113907078250640304
999808 66 18059283294055909579

> <PUBCHEM_SHAPE_MULTIPOLES>
495.76
22.87
2.92
0.74
3.24
0.04
0.01
-4.45
3.59
-0.45
-0.3
-0.33
0.01
-2.32

> <PUBCHEM_SHAPE_SELFOVERLAP>
1069.748

> <PUBCHEM_SHAPE_VOLUME>
271.7

> <PUBCHEM_COORDINATE_TYPE>
2
5
10

$$$$

