47205613
  -OEChem-06241222593D

 35 35  0     0  0  0  0  0  0999 V2000
    3.7561   -1.4793   -1.6444 Cl  0  0  0  0  0  0  0  0  0  0  0  0
   -2.5794    0.6030   -1.2148 O   0  0  0  0  0  0  0  0  0  0  0  0
   -0.5723   -0.6259    1.5211 O   0  0  0  0  0  0  0  0  0  0  0  0
    0.9847   -1.7891    0.2465 N   0  0  0  0  0  0  0  0  0  0  0  0
   -2.6309   -1.3940   -0.0324 N   0  0  0  0  0  0  0  0  0  0  0  0
   -4.5474    0.0538    0.0841 C   0  0  0  0  0  0  0  0  0  0  0  0
   -5.1416    1.3781   -0.3863 C   0  0  0  0  0  0  0  0  0  0  0  0
    2.1633   -1.4232    0.9988 C   0  0  0  0  0  0  0  0  0  0  0  0
   -1.3186   -1.8519   -0.4224 C   0  0  0  0  0  0  0  0  0  0  0  0
    2.7647   -0.1370    0.5107 C   0  0  0  0  0  0  0  0  0  0  0  0
   -3.1547   -0.1864   -0.4704 C   0  0  0  0  0  0  0  0  0  0  0  0
   -0.2922   -1.3563    0.5739 C   0  0  0  0  0  0  0  0  0  0  0  0
   -6.5213    1.6124    0.2069 C   0  0  0  0  0  0  0  0  0  0  0  0
    3.4993   -0.0753   -0.6736 C   0  0  0  0  0  0  0  0  0  0  0  0
    2.5745    1.0148    1.2742 C   0  0  0  0  0  0  0  0  0  0  0  0
    4.0436    1.1381   -1.0943 C   0  0  0  0  0  0  0  0  0  0  0  0
    3.1186    2.2283    0.8533 C   0  0  0  0  0  0  0  0  0  0  0  0
    3.8534    2.2900   -0.3308 C   0  0  0  0  0  0  0  0  0  0  0  0
   -4.4855    0.0391    1.1789 H   0  0  0  0  0  0  0  0  0  0  0  0
   -5.1902   -0.7776   -0.2288 H   0  0  0  0  0  0  0  0  0  0  0  0
   -5.2103    1.3890   -1.4807 H   0  0  0  0  0  0  0  0  0  0  0  0
   -4.4818    2.2066   -0.1021 H   0  0  0  0  0  0  0  0  0  0  0  0
    2.8826   -2.2467    0.9318 H   0  0  0  0  0  0  0  0  0  0  0  0
    1.8896   -1.3452    2.0581 H   0  0  0  0  0  0  0  0  0  0  0  0
   -1.3299   -2.9458   -0.4255 H   0  0  0  0  0  0  0  0  0  0  0  0
   -1.0709   -1.4809   -1.4219 H   0  0  0  0  0  0  0  0  0  0  0  0
    1.1129   -2.3734   -0.5748 H   0  0  0  0  0  0  0  0  0  0  0  0
   -3.1740   -1.9765    0.5985 H   0  0  0  0  0  0  0  0  0  0  0  0
   -6.4781    1.6439    1.3003 H   0  0  0  0  0  0  0  0  0  0  0  0
   -6.9281    2.5658   -0.1445 H   0  0  0  0  0  0  0  0  0  0  0  0
   -7.2146    0.8180   -0.0873 H   0  0  0  0  0  0  0  0  0  0  0  0
    2.0038    0.9855    2.1986 H   0  0  0  0  0  0  0  0  0  0  0  0
    4.6186    1.2031   -2.0146 H   0  0  0  0  0  0  0  0  0  0  0  0
    2.9701    3.1253    1.4474 H   0  0  0  0  0  0  0  0  0  0  0  0
    4.2770    3.2349   -0.6583 H   0  0  0  0  0  0  0  0  0  0  0  0
  1 14  1  0  0  0  0
  2 11  2  0  0  0  0
  3 12  2  0  0  0  0
  4  8  1  0  0  0  0
  4 12  1  0  0  0  0
  4 27  1  0  0  0  0
  5  9  1  0  0  0  0
  5 11  1  0  0  0  0
  5 28  1  0  0  0  0
  6  7  1  0  0  0  0
  6 11  1  0  0  0  0
  6 19  1  0  0  0  0
  6 20  1  0  0  0  0
  7 13  1  0  0  0  0
  7 21  1  0  0  0  0
  7 22  1  0  0  0  0
  8 10  1  0  0  0  0
  8 23  1  0  0  0  0
  8 24  1  0  0  0  0
  9 12  1  0  0  0  0
  9 25  1  0  0  0  0
  9 26  1  0  0  0  0
 10 14  1  0  0  0  0
 10 15  2  0  0  0  0
 13 29  1  0  0  0  0
 13 30  1  0  0  0  0
 13 31  1  0  0  0  0
 14 16  2  0  0  0  0
 15 17  1  0  0  0  0
 15 32  1  0  0  0  0
 16 18  1  0  0  0  0
 16 33  1  0  0  0  0
 17 18  2  0  0  0  0
 17 34  1  0  0  0  0
 18 35  1  0  0  0  0
M  END
> <PUBCHEM_COMPOUND_CID>
47205613

> <PUBCHEM_CONFORMER_RMSD>
1.2

> <PUBCHEM_CONFORMER_DIVERSEORDER>
1
5
20
36
9
48
38
28
31
6
22
4
29
42
39
33
19
35
14
37
45
3
2
11
41
32
10
23
12
8
30
44
47
34
17
15
13
50
40
43
25
27
46
21
7
16
24
49
18
26

> <PUBCHEM_MMFF94_PARTIAL_CHARGES>
22
1 -0.18
10 -0.14
11 0.57
12 0.57
14 0.18
15 -0.15
16 -0.15
17 -0.15
18 -0.15
2 -0.57
27 0.37
28 0.37
3 -0.57
32 0.15
33 0.15
34 0.15
35 0.15
4 -0.73
5 -0.73
6 0.06
8 0.44
9 0.36

> <PUBCHEM_EFFECTIVE_ROTOR_COUNT>
8

> <PUBCHEM_PHARMACOPHORE_FEATURES>
6
1 13 hydrophobe
1 2 acceptor
1 3 acceptor
1 4 donor
1 5 donor
6 10 14 15 16 17 18 rings

> <PUBCHEM_HEAVY_ATOM_COUNT>
18

> <PUBCHEM_ATOM_DEF_STEREO_COUNT>
0

> <PUBCHEM_ATOM_UDEF_STEREO_COUNT>
0

> <PUBCHEM_BOND_DEF_STEREO_COUNT>
0

> <PUBCHEM_BOND_UDEF_STEREO_COUNT>
0

> <PUBCHEM_ISOTOPIC_ATOM_COUNT>
0

> <PUBCHEM_COMPONENT_COUNT>
1

> <PUBCHEM_CACTVS_TAUTO_COUNT>
4

> <PUBCHEM_CONFORMER_ID>
02D04CED00000001

> <PUBCHEM_MMFF94_ENERGY>
27.8395

> <PUBCHEM_FEATURE_SELFOVERLAP>
30.446

> <PUBCHEM_SHAPE_FINGERPRINT>
10378564 45 18040713718280648413
10447042 23 9151166537328814817
10498660 4 18341616970975556941
11595378 159 15697725890819162597
11720765 8 18115019836005800484
11796584 16 5833696964749520781
12363563 72 7637129190126651106
12596602 18 14045730548159345965
12670545 2 13984666979086834949
12730499 353 18341885316659484155
12892183 10 12247690352466940774
13878862 14 17842866527201698285
1420 369 9439405744091691649
14341114 328 15626216914507961941
14429115 67 9799690411483129221
14528608 73 18408892832642721711
14848178 5 8214142945766914985
15210252 30 18272084959848513868
15342168 16 18412267250939696079
15422964 175 9150910368436795994
16752209 62 14490455509013236182
17834072 32 18411139126076283111
17857418 61 10159688093787235337
17868525 174 17340992339636552683
18186145 218 18411707585982388190
193927 3 7565062804797018749
19752476 56 18335425638617256568
20403669 9 8214146269976767045
20621476 91 15984809417068260001
212847 35 18341615940351990234
221357 26 18261107534250291716
22224240 67 10519399894019340278
22289505 5 18187641410362285948
23503958 8 10087104945443065014
23557571 272 18197488528620316555
23559900 14 18040719203181381686
251288 83 9871753477404169014
3004659 81 6555406531143705299
3009799 131 18260818286495442916
3472631 163 18409449168088174573
4463277 69 7348887789047007539
474 4 17846218830316322031
5104073 3 18060424599213624243
5281201 14 18260260828745234102
633830 44 18410018727764434967
6442390 28 17704064075736733947
76465 3 8502378836498119483
7808743 9 17915737562144081924
8988823 20 12103554265380779543
960060 61 14201400456407161169

> <PUBCHEM_SHAPE_MULTIPOLES>
350.6
12.32
2.43
1.3
18.82
0.48
0.03
7.87
2.71
-1.31
-0.04
-1.15
-0.12
0.56

> <PUBCHEM_SHAPE_SELFOVERLAP>
697.85

> <PUBCHEM_SHAPE_VOLUME>
206.6

> <PUBCHEM_COORDINATE_TYPE>
2
5
10

$$$$

