5483872
  -OEChem-07051213122D

 37 38  0     0  0  0  0  0  0999 V2000
    4.5981   -0.5000    0.0000 O   0  0  0  0  0  0  0  0  0  0  0  0
    4.5981    0.5000    0.0000 O   0  0  0  0  0  0  0  0  0  0  0  0
    8.0622    0.5000    0.0000 O   0  0  0  0  0  0  0  0  0  0  0  0
    7.1962    2.0000    0.0000 N   0  0  0  0  0  0  0  0  0  0  0  0
    5.4641    1.0000    0.0000 N   0  0  0  0  0  0  0  0  0  0  0  0
    6.3301   -0.5000    0.0000 C   0  0  0  0  0  0  0  0  0  0  0  0
    5.4641   -1.0000    0.0000 C   0  0  0  0  0  0  0  0  0  0  0  0
    7.1962   -1.0000    0.0000 C   0  0  0  0  0  0  0  0  0  0  0  0
    6.3301    0.5000    0.0000 C   0  0  0  0  0  0  0  0  0  0  0  0
    5.4641   -2.0000    0.0000 C   0  0  0  0  0  0  0  0  0  0  0  0
    7.1962   -2.0000    0.0000 C   0  0  0  0  0  0  0  0  0  0  0  0
    6.3301   -2.5000    0.0000 C   0  0  0  0  0  0  0  0  0  0  0  0
    3.7320   -1.0000    0.0000 C   0  0  0  0  0  0  0  0  0  0  0  0
    7.1962    1.0000    0.0000 C   0  0  0  0  0  0  0  0  0  0  0  0
    2.8660   -0.5000    0.0000 C   0  0  0  0  0  0  0  0  0  0  0  0
    3.7320   -2.0000    0.0000 C   0  0  0  0  0  0  0  0  0  0  0  0
    2.0000   -1.0000    0.0000 C   0  0  0  0  0  0  0  0  0  0  0  0
    2.8660   -2.5000    0.0000 C   0  0  0  0  0  0  0  0  0  0  0  0
    2.0000   -2.0000    0.0000 C   0  0  0  0  0  0  0  0  0  0  0  0
    8.0622    2.5000    0.0000 C   0  0  0  0  0  0  0  0  0  0  0  0
    3.7320    1.0000    0.0000 C   0  0  0  0  0  0  0  0  0  0  0  0
    7.7331   -0.6900    0.0000 H   0  0  0  0  0  0  0  0  0  0  0  0
    4.9272   -2.3100    0.0000 H   0  0  0  0  0  0  0  0  0  0  0  0
    7.7331   -2.3100    0.0000 H   0  0  0  0  0  0  0  0  0  0  0  0
    6.3301   -3.1200    0.0000 H   0  0  0  0  0  0  0  0  0  0  0  0
    2.8660    0.1200    0.0000 H   0  0  0  0  0  0  0  0  0  0  0  0
    4.2690   -2.3100    0.0000 H   0  0  0  0  0  0  0  0  0  0  0  0
    1.4631   -0.6900    0.0000 H   0  0  0  0  0  0  0  0  0  0  0  0
    2.8660   -3.1200    0.0000 H   0  0  0  0  0  0  0  0  0  0  0  0
    6.6592    2.3100    0.0000 H   0  0  0  0  0  0  0  0  0  0  0  0
    1.4631   -2.3100    0.0000 H   0  0  0  0  0  0  0  0  0  0  0  0
    8.3722    1.9631    0.0000 H   0  0  0  0  0  0  0  0  0  0  0  0
    8.5991    2.8100    0.0000 H   0  0  0  0  0  0  0  0  0  0  0  0
    7.7522    3.0369    0.0000 H   0  0  0  0  0  0  0  0  0  0  0  0
    4.0420    1.5369    0.0000 H   0  0  0  0  0  0  0  0  0  0  0  0
    3.1951    1.3100    0.0000 H   0  0  0  0  0  0  0  0  0  0  0  0
    3.4220    0.4631    0.0000 H   0  0  0  0  0  0  0  0  0  0  0  0
  1  7  1  0  0  0  0
  1 13  1  0  0  0  0
  2  5  1  0  0  0  0
  2 21  1  0  0  0  0
  3 14  2  0  0  0  0
  4 14  1  0  0  0  0
  4 20  1  0  0  0  0
  4 30  1  0  0  0  0
  5  9  2  0  0  0  0
  6  7  1  0  0  0  0
  6  8  2  0  0  0  0
  6  9  1  0  0  0  0
  7 10  2  0  0  0  0
  8 11  1  0  0  0  0
  8 22  1  0  0  0  0
  9 14  1  0  0  0  0
 10 12  1  0  0  0  0
 10 23  1  0  0  0  0
 11 12  2  0  0  0  0
 11 24  1  0  0  0  0
 12 25  1  0  0  0  0
 13 15  2  0  0  0  0
 13 16  1  0  0  0  0
 15 17  1  0  0  0  0
 15 26  1  0  0  0  0
 16 18  2  0  0  0  0
 16 27  1  0  0  0  0
 17 19  2  0  0  0  0
 17 28  1  0  0  0  0
 18 19  1  0  0  0  0
 18 29  1  0  0  0  0
 19 31  1  0  0  0  0
 20 32  1  0  0  0  0
 20 33  1  0  0  0  0
 20 34  1  0  0  0  0
 21 35  1  0  0  0  0
 21 36  1  0  0  0  0
 21 37  1  0  0  0  0
M  END
> <PUBCHEM_COMPOUND_CID>
5483872

> <PUBCHEM_COMPOUND_CANONICALIZED>
1

> <PUBCHEM_CACTVS_COMPLEXITY>
365

> <PUBCHEM_CACTVS_HBOND_ACCEPTOR>
4

> <PUBCHEM_CACTVS_HBOND_DONOR>
1

> <PUBCHEM_CACTVS_ROTATABLE_BOND>
5

> <PUBCHEM_CACTVS_SUBSKEYS>
AAADceB7MAAAAAAAAAAAAAAAAAAAAAAAAAAwYAAAAAAAAAABQAAAHgAUAAAADAyBmAYyBoLQBACoAyFyEAACCAAgIAAIiIEuCJgMJrKEtRuGOCCkwhEIqAe6yKCOAAAAAAAIAAAAAAAAABAAAAAAAAAAAA==

> <PUBCHEM_IUPAC_OPENEYE_NAME>
(2E)-2-methoxyimino-N-methyl-2-(2-phenoxyphenyl)acetamide

> <PUBCHEM_IUPAC_CAS_NAME>
(2E)-2-methoxyimino-N-methyl-2-(2-phenoxyphenyl)acetamide

> <PUBCHEM_IUPAC_NAME>
(2E)-2-methoxyimino-N-methyl-2-(2-phenoxyphenyl)acetamide

> <PUBCHEM_IUPAC_SYSTEMATIC_NAME>
(2E)-2-methoxyimino-N-methyl-2-(2-phenoxyphenyl)ethanamide

> <PUBCHEM_IUPAC_TRADITIONAL_NAME>
(2E)-N-methyl-2-methyloximino-2-(2-phenoxyphenyl)acetamide

> <PUBCHEM_IUPAC_INCHI>
InChI=1S/C16H16N2O3/c1-17-16(19)15(18-20-2)13-10-6-7-11-14(13)21-12-8-4-3-5-9-12/h3-11H,1-2H3,(H,17,19)/b18-15+

> <PUBCHEM_IUPAC_INCHIKEY>
HIIRDDUVRXCDBN-OBGWFSINSA-N

> <PUBCHEM_XLOGP3_AA>
3.2

> <PUBCHEM_EXACT_MASS>
284.116092

> <PUBCHEM_MOLECULAR_FORMULA>
C16H16N2O3

> <PUBCHEM_MOLECULAR_WEIGHT>
284.30984

> <PUBCHEM_OPENEYE_CAN_SMILES>
CNC(=O)C(=NOC)C1=CC=CC=C1OC2=CC=CC=C2

> <PUBCHEM_OPENEYE_ISO_SMILES>
CNC(=O)/C(=N/OC)/C1=CC=CC=C1OC2=CC=CC=C2

> <PUBCHEM_CACTVS_TPSA>
59.9

> <PUBCHEM_MONOISOTOPIC_WEIGHT>
284.116092

> <PUBCHEM_TOTAL_CHARGE>
0

> <PUBCHEM_HEAVY_ATOM_COUNT>
21

> <PUBCHEM_ATOM_DEF_STEREO_COUNT>
0

> <PUBCHEM_ATOM_UDEF_STEREO_COUNT>
0

> <PUBCHEM_BOND_DEF_STEREO_COUNT>
1

> <PUBCHEM_BOND_UDEF_STEREO_COUNT>
0

> <PUBCHEM_ISOTOPIC_ATOM_COUNT>
0

> <PUBCHEM_COMPONENT_COUNT>
1

> <PUBCHEM_CACTVS_TAUTO_COUNT>
2

> <PUBCHEM_COORDINATE_TYPE>
1
5
255

> <PUBCHEM_BONDANNOTATIONS>
10  12  8
11  12  8
13  15  8
13  16  8
15  17  8
16  18  8
17  19  8
18  19  8
6  7  8
6  8  8
7  10  8
8  11  8

$$$$

