17395632
  -OEChem-06241222513D

 38 38  0     1  0  0  0  0  0999 V2000
   -1.5791   -0.1847    0.2187 O   0  0  0  0  0  0  0  0  0  0  0  0
   -3.6366    1.3055   -0.5903 O   0  0  0  0  0  0  0  0  0  0  0  0
   -0.4880   -2.1603   -0.2353 O   0  0  0  0  0  0  0  0  0  0  0  0
    5.9496    1.1538    0.0375 O   0  0  0  0  0  0  0  0  0  0  0  0
   -5.1481   -0.4469   -0.4149 N   0  0  0  0  0  0  0  0  0  0  0  0
    4.4133   -0.6156   -0.2220 N   0  0  0  0  0  0  0  0  0  0  0  0
   -2.8331   -0.8442    0.1654 C   0  0  2  0  0  0  0  0  0  0  0  0
   -3.8918    0.1325   -0.3262 C   0  0  0  0  0  0  0  0  0  0  0  0
   -3.1620   -1.3541    1.5596 C   0  0  0  0  0  0  0  0  0  0  0  0
    0.7637   -0.1561    0.0835 C   0  0  0  0  0  0  0  0  0  0  0  0
   -6.3146    0.2913   -0.8384 C   0  0  0  0  0  0  0  0  0  0  0  0
    3.1724   -0.0074   -0.0291 C   0  0  0  0  0  0  0  0  0  0  0  0
   -0.4806   -0.9619   -0.0005 C   0  0  0  0  0  0  0  0  0  0  0  0
    2.0038   -0.7650   -0.1089 C   0  0  0  0  0  0  0  0  0  0  0  0
    0.6921    1.2100    0.3560 C   0  0  0  0  0  0  0  0  0  0  0  0
    3.1007    1.3586    0.2433 C   0  0  0  0  0  0  0  0  0  0  0  0
    1.8606    1.9674    0.4359 C   0  0  0  0  0  0  0  0  0  0  0  0
   -6.8814    1.1284    0.2898 C   0  0  0  0  0  0  0  0  0  0  0  0
    5.6825   -0.0235   -0.1809 C   0  0  0  0  0  0  0  0  0  0  0  0
    6.7767   -1.0277   -0.4430 C   0  0  0  0  0  0  0  0  0  0  0  0
   -2.8131   -1.6762   -0.5505 H   0  0  0  0  0  0  0  0  0  0  0  0
   -3.2638   -0.5199    2.2635 H   0  0  0  0  0  0  0  0  0  0  0  0
   -2.3596   -1.9934    1.9430 H   0  0  0  0  0  0  0  0  0  0  0  0
   -4.0918   -1.9299    1.5841 H   0  0  0  0  0  0  0  0  0  0  0  0
   -5.2650   -1.4329   -0.2026 H   0  0  0  0  0  0  0  0  0  0  0  0
   -6.0413    0.9326   -1.6830 H   0  0  0  0  0  0  0  0  0  0  0  0
   -7.0569   -0.4356   -1.1826 H   0  0  0  0  0  0  0  0  0  0  0  0
    2.0661   -1.8299   -0.3215 H   0  0  0  0  0  0  0  0  0  0  0  0
   -0.2518    1.7243    0.5124 H   0  0  0  0  0  0  0  0  0  0  0  0
    3.9599    2.0101    0.3202 H   0  0  0  0  0  0  0  0  0  0  0  0
    1.8041    3.0313    0.6480 H   0  0  0  0  0  0  0  0  0  0  0  0
   -7.7789    1.6589   -0.0426 H   0  0  0  0  0  0  0  0  0  0  0  0
   -6.1565    1.8709    0.6391 H   0  0  0  0  0  0  0  0  0  0  0  0
   -7.1515    0.5003    1.1453 H   0  0  0  0  0  0  0  0  0  0  0  0
    4.3820   -1.6143   -0.4165 H   0  0  0  0  0  0  0  0  0  0  0  0
    7.7494   -0.5283   -0.4291 H   0  0  0  0  0  0  0  0  0  0  0  0
    6.7624   -1.8000    0.3312 H   0  0  0  0  0  0  0  0  0  0  0  0
    6.6297   -1.4897   -1.4233 H   0  0  0  0  0  0  0  0  0  0  0  0
  1  7  1  0  0  0  0
  1 13  1  0  0  0  0
  2  8  2  0  0  0  0
  3 13  2  0  0  0  0
  4 19  2  0  0  0  0
  5  8  1  0  0  0  0
  5 11  1  0  0  0  0
  5 25  1  0  0  0  0
  6 12  1  0  0  0  0
  6 19  1  0  0  0  0
  6 35  1  0  0  0  0
  7  8  1  0  0  0  0
  7  9  1  0  0  0  0
  7 21  1  0  0  0  0
  9 22  1  0  0  0  0
  9 23  1  0  0  0  0
  9 24  1  0  0  0  0
 10 13  1  0  0  0  0
 10 14  2  0  0  0  0
 10 15  1  0  0  0  0
 11 18  1  0  0  0  0
 11 26  1  0  0  0  0
 11 27  1  0  0  0  0
 12 14  1  0  0  0  0
 12 16  2  0  0  0  0
 14 28  1  0  0  0  0
 15 17  2  0  0  0  0
 15 29  1  0  0  0  0
 16 17  1  0  0  0  0
 16 30  1  0  0  0  0
 17 31  1  0  0  0  0
 18 32  1  0  0  0  0
 18 33  1  0  0  0  0
 18 34  1  0  0  0  0
 19 20  1  0  0  0  0
 20 36  1  0  0  0  0
 20 37  1  0  0  0  0
 20 38  1  0  0  0  0
M  END
> <PUBCHEM_COMPOUND_CID>
17395632

> <PUBCHEM_CONFORMER_RMSD>
1

> <PUBCHEM_CONFORMER_DIVERSEORDER>
2
113
89
139
76
134
91
13
115
62
130
132
9
106
68
105
83
126
46
52
138
87
92
103
122
63
17
69
98
110
123
95
75
109
108
114
61
125
3
85
104
36
39
133
41
93
60
107
33
78
64
137
74
55
43
128
96
118
72
38
116
58
73
102
77
94
119
88
47
117
49
140
12
124
27
34
90
142
86
70
15
7
10
127
29
141
20
65
14
16
6
120
59
40
101
4
37
22
111
79
1
24
44
66
112
48
26
21
97
18
19
28
25
8
45
56
51
121
57
80
54
31
50
23
129
32
84
81
100
131
99
67
42
53
35
30
11
5
71
82
136
135

> <PUBCHEM_MMFF94_PARTIAL_CHARGES>
24
1 -0.43
10 0.09
11 0.3
12 0.12
13 0.63
14 -0.15
15 -0.15
16 -0.15
17 -0.15
19 0.57
2 -0.57
20 0.06
25 0.37
28 0.15
29 0.15
3 -0.57
30 0.15
31 0.15
35 0.37
4 -0.57
5 -0.73
6 -0.55
7 0.34
8 0.57

> <PUBCHEM_EFFECTIVE_ROTOR_COUNT>
8

> <PUBCHEM_PHARMACOPHORE_FEATURES>
6
1 2 acceptor
1 3 acceptor
1 4 acceptor
1 5 donor
1 6 donor
6 10 12 14 15 16 17 rings

> <PUBCHEM_HEAVY_ATOM_COUNT>
20

> <PUBCHEM_ATOM_DEF_STEREO_COUNT>
0

> <PUBCHEM_ATOM_UDEF_STEREO_COUNT>
1

> <PUBCHEM_BOND_DEF_STEREO_COUNT>
0

> <PUBCHEM_BOND_UDEF_STEREO_COUNT>
0

> <PUBCHEM_ISOTOPIC_ATOM_COUNT>
0

> <PUBCHEM_COMPONENT_COUNT>
1

> <PUBCHEM_CACTVS_TAUTO_COUNT>
4

> <PUBCHEM_CONFORMER_ID>
01096FB000000002

> <PUBCHEM_MMFF94_ENERGY>
43.9899

> <PUBCHEM_FEATURE_SELFOVERLAP>
30.446

> <PUBCHEM_SHAPE_FINGERPRINT>
106641 1 13829840314959086797
11089746 13 18187366519396230393
11315181 36 16515684412060759955
11796584 16 17775000177079186850
12011746 2 18413392042170106317
12166972 35 17603589590730411489
12236239 1 17094962138913513919
12916748 109 10447933876097303534
13402501 40 18412548721305428605
13533116 47 5328476864986551148
13668630 136 17167859759745541950
13862211 1 18260829324113325110
14251752 14 18059859493460705182
14251764 18 18130791161516187715
15048467 5 17060618897747071550
15099037 51 18408040702145842542
15183329 4 18411983593449705504
15242439 84 18343865498055629355
15531645 54 18410856555355371784
15716309 27 10735877266154056697
17834072 8 18411699889696126534
18006028 8 18040152929634767080
200 152 17603586331002960673
20281389 69 17846784022269390172
20645477 56 17918277554521576903
20645477 70 18187645859748276190
20681677 155 16559031562584273010
20735858 18 9727633891334595140
21033648 29 18338525131377577232
21150785 3 14851886912010213776
21236236 1 18262234533558252129
21267235 1 18409444778552385217
21279426 13 18195529426764475726
21792934 111 18261967314611595328
220451 1 15626225697969303242
221357 26 18335145306038828845
22224240 67 10303806571227758804
23402539 116 15936403455196888091
23402655 69 18259989254005399981
23559900 14 18338804407568441345
29717793 49 17530678814624656444
3004659 81 18272088323466522934
3009799 131 18333452049314921752
335352 9 18408603652120168270
351380 180 18409452470902167893
3545911 37 18131633387597007307
4072396 5 18336557079438170882
4073 2 18059852818681055810
4340502 62 16559031610087577650
633830 44 17774166678033736578

> <PUBCHEM_SHAPE_MULTIPOLES>
378.15
16.84
1.66
0.83
2.69
0.14
-0.16
1.89
2.81
-0.26
-0.2
0.69
-0.13
0.79

> <PUBCHEM_SHAPE_SELFOVERLAP>
772.278

> <PUBCHEM_SHAPE_VOLUME>
217.8

> <PUBCHEM_COORDINATE_TYPE>
2
5
10

$$$$

