440258
  -OEChem-07051212493D

 33 34  0     0  0  0  0  0  0999 V2000
    3.7510   -2.3446   -0.1059 O   0  0  0  0  0  0  0  0  0  0  0  0
   -0.8988   -2.1489   -0.1022 O   0  0  0  0  0  0  0  0  0  0  0  0
    1.8484    3.5870   -0.3972 O   0  0  0  0  0  0  0  0  0  0  0  0
    0.0104    2.8048    0.6875 O   0  0  0  0  0  0  0  0  0  0  0  0
   -0.3529    0.1293    0.0292 N   0  0  0  0  0  0  0  0  0  0  0  0
    1.0635    0.1138    0.0306 C   0  0  0  0  0  0  0  0  0  0  0  0
    1.7753    1.3001    0.0999 C   0  0  0  0  0  0  0  0  0  0  0  0
    1.7084   -1.1110   -0.0385 C   0  0  0  0  0  0  0  0  0  0  0  0
    3.1027   -1.1497   -0.0385 C   0  0  0  0  0  0  0  0  0  0  0  0
    3.1696    1.2613    0.1003 C   0  0  0  0  0  0  0  0  0  0  0  0
    3.8334    0.0365    0.0310 C   0  0  0  0  0  0  0  0  0  0  0  0
   -2.6529   -0.6222   -0.0455 C   0  0  0  0  0  0  0  0  0  0  0  0
   -1.2378   -0.9563   -0.0344 C   0  0  0  0  0  0  0  0  0  0  0  0
   -3.5883   -1.5321    0.4470 C   0  0  0  0  0  0  0  0  0  0  0  0
   -3.0750    0.6087   -0.5481 C   0  0  0  0  0  0  0  0  0  0  0  0
    1.1119    2.5961    0.1732 C   0  0  0  0  0  0  0  0  0  0  0  0
   -4.9458   -1.2113    0.4366 C   0  0  0  0  0  0  0  0  0  0  0  0
   -4.4324    0.9296   -0.5582 C   0  0  0  0  0  0  0  0  0  0  0  0
   -5.3679    0.0197   -0.0657 C   0  0  0  0  0  0  0  0  0  0  0  0
    5.1773   -2.3108   -0.1011 C   0  0  0  0  0  0  0  0  0  0  0  0
    1.2177   -2.0705   -0.0944 H   0  0  0  0  0  0  0  0  0  0  0  0
   -0.7565    1.0552    0.1248 H   0  0  0  0  0  0  0  0  0  0  0  0
    3.7673    2.1668    0.1672 H   0  0  0  0  0  0  0  0  0  0  0  0
    4.9171    0.0786    0.0384 H   0  0  0  0  0  0  0  0  0  0  0  0
   -3.2805   -2.4944    0.8478 H   0  0  0  0  0  0  0  0  0  0  0  0
   -2.3900    1.3332   -0.9784 H   0  0  0  0  0  0  0  0  0  0  0  0
   -5.6743   -1.9194    0.8207 H   0  0  0  0  0  0  0  0  0  0  0  0
   -4.7625    1.8842   -0.9577 H   0  0  0  0  0  0  0  0  0  0  0  0
   -6.4250    0.2687   -0.0752 H   0  0  0  0  0  0  0  0  0  0  0  0
    5.5669   -1.8962    0.8349 H   0  0  0  0  0  0  0  0  0  0  0  0
    5.5706   -1.7907   -0.9812 H   0  0  0  0  0  0  0  0  0  0  0  0
    5.5253   -3.3473   -0.1607 H   0  0  0  0  0  0  0  0  0  0  0  0
    1.3958    4.4557   -0.3431 H   0  0  0  0  0  0  0  0  0  0  0  0
  1  9  1  0  0  0  0
  1 20  1  0  0  0  0
  2 13  2  0  0  0  0
  3 16  1  0  0  0  0
  3 33  1  0  0  0  0
  4 16  2  0  0  0  0
  5  6  1  0  0  0  0
  5 13  1  0  0  0  0
  5 22  1  0  0  0  0
  6  7  2  0  0  0  0
  6  8  1  0  0  0  0
  7 10  1  0  0  0  0
  7 16  1  0  0  0  0
  8  9  2  0  0  0  0
  8 21  1  0  0  0  0
  9 11  1  0  0  0  0
 10 11  2  0  0  0  0
 10 23  1  0  0  0  0
 11 24  1  0  0  0  0
 12 13  1  0  0  0  0
 12 14  2  0  0  0  0
 12 15  1  0  0  0  0
 14 17  1  0  0  0  0
 14 25  1  0  0  0  0
 15 18  2  0  0  0  0
 15 26  1  0  0  0  0
 17 19  2  0  0  0  0
 17 27  1  0  0  0  0
 18 19  1  0  0  0  0
 18 28  1  0  0  0  0
 19 29  1  0  0  0  0
 20 30  1  0  0  0  0
 20 31  1  0  0  0  0
 20 32  1  0  0  0  0
M  END
> <PUBCHEM_COMPOUND_CID>
440258

> <PUBCHEM_CONFORMER_RMSD>
0.8

> <PUBCHEM_CONFORMER_DIVERSEORDER>
1
7
5
2
4
3
6

> <PUBCHEM_MMFF94_PARTIAL_CHARGES>
30
1 -0.36
10 -0.15
11 -0.15
12 0.09
13 0.54
14 -0.15
15 -0.15
16 0.63
17 -0.15
18 -0.15
19 -0.15
2 -0.57
20 0.28
21 0.15
22 0.37
23 0.15
24 0.15
25 0.15
26 0.15
27 0.15
28 0.15
29 0.15
3 -0.65
33 0.5
4 -0.57
5 -0.55
6 0.12
7 0.09
8 -0.15
9 0.08

> <PUBCHEM_EFFECTIVE_ROTOR_COUNT>
5

> <PUBCHEM_PHARMACOPHORE_FEATURES>
8
1 1 acceptor
1 2 acceptor
1 3 acceptor
1 4 acceptor
1 5 donor
3 3 4 16 anion
6 12 14 15 17 18 19 rings
6 6 7 8 9 10 11 rings

> <PUBCHEM_HEAVY_ATOM_COUNT>
20

> <PUBCHEM_ATOM_DEF_STEREO_COUNT>
0

> <PUBCHEM_ATOM_UDEF_STEREO_COUNT>
0

> <PUBCHEM_BOND_DEF_STEREO_COUNT>
0

> <PUBCHEM_BOND_UDEF_STEREO_COUNT>
0

> <PUBCHEM_ISOTOPIC_ATOM_COUNT>
0

> <PUBCHEM_COMPONENT_COUNT>
1

> <PUBCHEM_CACTVS_TAUTO_COUNT>
3

> <PUBCHEM_CONFORMER_ID>
0006B7C200000001

> <PUBCHEM_MMFF94_ENERGY>
77.8034

> <PUBCHEM_FEATURE_SELFOVERLAP>
40.652

> <PUBCHEM_SHAPE_FINGERPRINT>
10366900 7 17489870445081486611
10411042 1 18338233898942103142
10608611 8 18269276768569418189
11265709 11 18337953497617259962
11471102 20 18410014316579469767
116883 192 18190457349803418756
12293681 160 17537697925201027792
12403259 226 18412548687161610653
12403260 363 18334296449113442839
12507560 14 18260267455716157014
12916754 54 18338515245228011651
13134695 92 17894641339409931856
13140716 1 17903363606597861680
138480 1 18410292475958154504
14341114 176 18412538804483924121
14866123 147 17543909461010855810
15042514 8 17977948217858944282
15081414 286 18408601448886789336
15196674 1 18411138043522978429
15352361 1 18410293648341073928
15442244 35 18408601478597950705
15885798 251 18339081592062434866
16087824 20 18050566545553249549
17349148 13 17603299349968074615
17492 89 18266179427071645023
17804303 29 18343862230055165007
18186145 218 17846508023555186767
18785283 64 18127694824998206356
20645477 70 18408040727678678878
20832881 197 18272089452056725506
21065198 57 18340486677886811267
21267235 1 18337383933092722198
21279426 13 18268433610522841629
21478907 32 18050567636463743642
221357 26 18412831304557365685
221490 88 18269549451437026219
22289505 5 18411140233740314212
23175994 123 18410853304307916895
23402539 116 18187936147728475903
23559900 14 18411142419852066627
3004659 81 18130784607871263334
335352 9 18338517560104465285
3421961 26 18408888438690769730
34934 24 18335146341405080214
351380 180 18411141316704834935
4214541 1 18412826906584778783
5104073 3 18410855447618041075
5281201 14 18341894069702138749
6443956 14 18411978087671105046
7364860 26 18265614290789238376
77779 3 18413107234678633839
7832392 63 18263087617453273358
8863177 126 18058714815746628219
9709674 26 18269835320344960011
9971528 1 18334584537854388736
9981440 41 17545611054086761648

> <PUBCHEM_SHAPE_MULTIPOLES>
383.13
10.61
3.08
0.68
5.93
1.99
0
-5.19
0.29
-3.12
-0.08
0.2
0.06
0.54

> <PUBCHEM_SHAPE_SELFOVERLAP>
827.523

> <PUBCHEM_SHAPE_VOLUME>
209.2

> <PUBCHEM_COORDINATE_TYPE>
2
5
10

$$$$

