9114
  -OEChem-06261203253D

 42 49  0     0  0  0  0  0  0999 V2000
   -0.4537   -0.7075    0.0003 C   0  0  0  0  0  0  0  0  0  0  0  0
   -0.4536    0.7075    0.0004 C   0  0  0  0  0  0  0  0  0  0  0  0
    0.7894   -1.4068    0.0001 C   0  0  0  0  0  0  0  0  0  0  0  0
    0.7896    1.4067    0.0001 C   0  0  0  0  0  0  0  0  0  0  0  0
    2.0168   -0.7042    0.0002 C   0  0  0  0  0  0  0  0  0  0  0  0
    2.0169    0.7040    0.0003 C   0  0  0  0  0  0  0  0  0  0  0  0
   -1.6783   -1.4232    0.0003 C   0  0  0  0  0  0  0  0  0  0  0  0
   -1.6781    1.4232    0.0004 C   0  0  0  0  0  0  0  0  0  0  0  0
    0.8184   -2.8186   -0.0004 C   0  0  0  0  0  0  0  0  0  0  0  0
    0.8188    2.8186   -0.0001 C   0  0  0  0  0  0  0  0  0  0  0  0
    3.2475   -1.4069    0.0000 C   0  0  0  0  0  0  0  0  0  0  0  0
    3.2476    1.4066    0.0001 C   0  0  0  0  0  0  0  0  0  0  0  0
   -2.9225   -0.7107    0.0000 C   0  0  0  0  0  0  0  0  0  0  0  0
   -2.9224    0.7108    0.0003 C   0  0  0  0  0  0  0  0  0  0  0  0
   -1.5951   -2.8366    0.0004 C   0  0  0  0  0  0  0  0  0  0  0  0
   -1.5947    2.8366    0.0001 C   0  0  0  0  0  0  0  0  0  0  0  0
   -0.3806   -3.5201    0.0001 C   0  0  0  0  0  0  0  0  0  0  0  0
   -0.3801    3.5202   -0.0003 C   0  0  0  0  0  0  0  0  0  0  0  0
    2.0402   -3.5030   -0.0003 C   0  0  0  0  0  0  0  0  0  0  0  0
    2.0406    3.5030   -0.0005 C   0  0  0  0  0  0  0  0  0  0  0  0
    3.2432   -2.8042   -0.0003 C   0  0  0  0  0  0  0  0  0  0  0  0
    3.2434    2.8039   -0.0002 C   0  0  0  0  0  0  0  0  0  0  0  0
    4.4530   -0.6963    0.0000 C   0  0  0  0  0  0  0  0  0  0  0  0
    4.4529    0.6961    0.0000 C   0  0  0  0  0  0  0  0  0  0  0  0
   -4.1826   -1.3711   -0.0006 C   0  0  0  0  0  0  0  0  0  0  0  0
   -4.1823    1.3714    0.0002 C   0  0  0  0  0  0  0  0  0  0  0  0
   -5.3973   -0.6886   -0.0005 C   0  0  0  0  0  0  0  0  0  0  0  0
   -5.3971    0.6891   -0.0001 C   0  0  0  0  0  0  0  0  0  0  0  0
   -2.4859   -3.4588    0.0007 H   0  0  0  0  0  0  0  0  0  0  0  0
   -2.4855    3.4589   -0.0001 H   0  0  0  0  0  0  0  0  0  0  0  0
   -0.3929   -4.6079    0.0002 H   0  0  0  0  0  0  0  0  0  0  0  0
   -0.3923    4.6081   -0.0006 H   0  0  0  0  0  0  0  0  0  0  0  0
    2.0678   -4.5908   -0.0004 H   0  0  0  0  0  0  0  0  0  0  0  0
    2.0685    4.5908   -0.0007 H   0  0  0  0  0  0  0  0  0  0  0  0
    4.1755   -3.3647   -0.0004 H   0  0  0  0  0  0  0  0  0  0  0  0
    4.1759    3.3642   -0.0004 H   0  0  0  0  0  0  0  0  0  0  0  0
    5.4069   -1.2196   -0.0002 H   0  0  0  0  0  0  0  0  0  0  0  0
    5.4068    1.2194   -0.0002 H   0  0  0  0  0  0  0  0  0  0  0  0
   -4.2534   -2.4556   -0.0010 H   0  0  0  0  0  0  0  0  0  0  0  0
   -4.2529    2.4559    0.0005 H   0  0  0  0  0  0  0  0  0  0  0  0
   -6.3330   -1.2388   -0.0009 H   0  0  0  0  0  0  0  0  0  0  0  0
   -6.3328    1.2395   -0.0001 H   0  0  0  0  0  0  0  0  0  0  0  0
  1  2  1  0  0  0  0
  1  3  1  0  0  0  0
  1  7  2  0  0  0  0
  2  4  1  0  0  0  0
  2  8  2  0  0  0  0
  3  5  1  0  0  0  0
  3  9  2  0  0  0  0
  4  6  1  0  0  0  0
  4 10  2  0  0  0  0
  5  6  1  0  0  0  0
  5 11  2  0  0  0  0
  6 12  2  0  0  0  0
  7 13  1  0  0  0  0
  7 15  1  0  0  0  0
  8 14  1  0  0  0  0
  8 16  1  0  0  0  0
  9 17  1  0  0  0  0
  9 19  1  0  0  0  0
 10 18  1  0  0  0  0
 10 20  1  0  0  0  0
 11 21  1  0  0  0  0
 11 23  1  0  0  0  0
 12 22  1  0  0  0  0
 12 24  1  0  0  0  0
 13 14  1  0  0  0  0
 13 25  2  0  0  0  0
 14 26  2  0  0  0  0
 15 17  2  0  0  0  0
 15 29  1  0  0  0  0
 16 18  2  0  0  0  0
 16 30  1  0  0  0  0
 17 31  1  0  0  0  0
 18 32  1  0  0  0  0
 19 21  2  0  0  0  0
 19 33  1  0  0  0  0
 20 22  2  0  0  0  0
 20 34  1  0  0  0  0
 21 35  1  0  0  0  0
 22 36  1  0  0  0  0
 23 24  2  0  0  0  0
 23 37  1  0  0  0  0
 24 38  1  0  0  0  0
 25 27  1  0  0  0  0
 25 39  1  0  0  0  0
 26 28  1  0  0  0  0
 26 40  1  0  0  0  0
 27 28  2  0  0  0  0
 27 41  1  0  0  0  0
 28 42  1  0  0  0  0
M  END
> <PUBCHEM_COMPOUND_CID>
9114

> <PUBCHEM_CONFORMER_RMSD>
0.6

> <PUBCHEM_CONFORMER_DIVERSEORDER>
1

> <PUBCHEM_MMFF94_PARTIAL_CHARGES>
28
15 -0.15
16 -0.15
17 -0.15
18 -0.15
19 -0.15
20 -0.15
21 -0.15
22 -0.15
23 -0.15
24 -0.15
25 -0.15
26 -0.15
27 -0.15
28 -0.15
29 0.15
30 0.15
31 0.15
32 0.15
33 0.15
34 0.15
35 0.15
36 0.15
37 0.15
38 0.15
39 0.15
40 0.15
41 0.15
42 0.15

> <PUBCHEM_EFFECTIVE_ROTOR_COUNT>
0

> <PUBCHEM_PHARMACOPHORE_FEATURES>
8
6 1 2 3 4 5 6 rings
6 1 2 7 8 13 14 rings
6 1 3 7 9 15 17 rings
6 13 14 25 26 27 28 rings
6 2 4 8 10 16 18 rings
6 3 5 9 11 19 21 rings
6 4 6 10 12 20 22 rings
6 5 6 11 12 23 24 rings

> <PUBCHEM_HEAVY_ATOM_COUNT>
28

> <PUBCHEM_ATOM_DEF_STEREO_COUNT>
0

> <PUBCHEM_ATOM_UDEF_STEREO_COUNT>
0

> <PUBCHEM_BOND_DEF_STEREO_COUNT>
0

> <PUBCHEM_BOND_UDEF_STEREO_COUNT>
0

> <PUBCHEM_ISOTOPIC_ATOM_COUNT>
0

> <PUBCHEM_COMPONENT_COUNT>
1

> <PUBCHEM_CACTVS_TAUTO_COUNT>
1

> <PUBCHEM_CONFORMER_ID>
0000239A00000001

> <PUBCHEM_MMFF94_ENERGY>
117.5533

> <PUBCHEM_FEATURE_SELFOVERLAP>
40.921

> <PUBCHEM_SHAPE_FINGERPRINT>
10411042 1 18050286174024327331
10693767 8 18115046168208271431
10967382 1 18410573942275650694
1100329 8 18338801109128327954
11513181 2 18041279975586176975
11578080 2 16914830381712048783
12403259 226 18196937896769756572
12553582 1 18410304626551951622
12788726 201 17677033694848968441
12838862 33 18338254690583396976
13122387 1 17906452482546685284
13140716 1 18267029349601139738
13402501 40 18411699885074118020
138480 1 18338799034321364355
14178342 30 17472151574391973104
14784336 7 17968666991470374185
14790565 3 18195800769745458612
15081414 286 18336255846941894451
15196674 1 18410573989894772367
15320467 1 18410855481624103781
15927050 60 18120372051871336438
16087824 20 17690277536245242357
16728300 4 17485397739196315226
17093844 170 18409453553244703608
19591789 44 18410856512627407325
19930381 70 18411420652260311467
20028762 73 18259990353143176911
20642791 178 17984416331090671972
20739085 24 18269813433392131665
20775438 99 15949676450810595847
20905425 154 18191584361990805054
21197605 99 18193831536500096715
21267235 1 18410284826488875439
21421861 104 18128538360605747419
22113638 7 18337959982453342230
23227448 37 18335984151637644991
2334 1 17978228253842145634
23559900 14 18409735087865373760
335352 9 18410856521523122046
338550 245 18269835328570527612
350125 39 18411418440626564524
3680242 22 18341897436729873202
3882209 13 16974809948347447091
5104073 3 18411698781789795793
5265222 85 17837197183114351564
6443956 14 18340203106401525461
9709674 26 18411414025126228427

> <PUBCHEM_SHAPE_MULTIPOLES>
576.23
8.57
4.82
0.62
6.42
0
0
0
0
-2.51
0
0
0
0

> <PUBCHEM_SHAPE_SELFOVERLAP>
1406.889

> <PUBCHEM_SHAPE_VOLUME>
245.9

> <PUBCHEM_COORDINATE_TYPE>
2
5
10

$$$$

