13064
  -OEChem-06261207433D

 30 30  0     0  0  0  0  0  0999 V2000
    1.8557    0.5189   -0.8320 O   0  0  0  0  0  0  0  0  0  0  0  0
   -1.8547    0.5204    0.8317 O   0  0  0  0  0  0  0  0  0  0  0  0
    2.8032   -0.3070    1.1064 O   0  0  0  0  0  0  0  0  0  0  0  0
   -2.8036   -0.3045   -1.1064 O   0  0  0  0  0  0  0  0  0  0  0  0
    0.3627   -1.9753   -0.6765 C   0  0  0  0  0  0  0  0  0  0  0  0
   -0.3651   -1.9759    0.6763 C   0  0  0  0  0  0  0  0  0  0  0  0
    0.6265    2.1717    0.4474 C   0  0  0  0  0  0  0  0  0  0  0  0
   -0.6238    2.1722   -0.4470 C   0  0  0  0  0  0  0  0  0  0  0  0
    1.8772   -1.8207   -0.5298 C   0  0  0  0  0  0  0  0  0  0  0  0
   -1.8794   -1.8193    0.5299 C   0  0  0  0  0  0  0  0  0  0  0  0
    1.9007    1.8742   -0.3433 C   0  0  0  0  0  0  0  0  0  0  0  0
   -1.8985    1.8758    0.3432 C   0  0  0  0  0  0  0  0  0  0  0  0
    2.2527   -0.4663    0.0246 C   0  0  0  0  0  0  0  0  0  0  0  0
   -2.2534   -0.4643   -0.0245 C   0  0  0  0  0  0  0  0  0  0  0  0
   -0.0216   -1.1746   -1.3177 H   0  0  0  0  0  0  0  0  0  0  0  0
    0.1487   -2.9184   -1.1937 H   0  0  0  0  0  0  0  0  0  0  0  0
    0.0201   -1.1764    1.3185 H   0  0  0  0  0  0  0  0  0  0  0  0
   -0.1522   -2.9199    1.1923 H   0  0  0  0  0  0  0  0  0  0  0  0
    0.7164    3.1497    0.9342 H   0  0  0  0  0  0  0  0  0  0  0  0
    0.5193    1.4245    1.2415 H   0  0  0  0  0  0  0  0  0  0  0  0
   -0.7128    3.1502   -0.9338 H   0  0  0  0  0  0  0  0  0  0  0  0
   -0.5173    1.4250   -1.2412 H   0  0  0  0  0  0  0  0  0  0  0  0
    2.3737   -1.9417   -1.4991 H   0  0  0  0  0  0  0  0  0  0  0  0
    2.2778   -2.5940    0.1353 H   0  0  0  0  0  0  0  0  0  0  0  0
   -2.3759   -1.9397    1.4992 H   0  0  0  0  0  0  0  0  0  0  0  0
   -2.2812   -2.5921   -0.1351 H   0  0  0  0  0  0  0  0  0  0  0  0
    1.9830    2.5363   -1.2114 H   0  0  0  0  0  0  0  0  0  0  0  0
    2.7926    2.0287    0.2743 H   0  0  0  0  0  0  0  0  0  0  0  0
   -1.9805    2.5379    1.2114 H   0  0  0  0  0  0  0  0  0  0  0  0
   -2.7902    2.0311   -0.2745 H   0  0  0  0  0  0  0  0  0  0  0  0
  1 11  1  0  0  0  0
  1 13  1  0  0  0  0
  2 12  1  0  0  0  0
  2 14  1  0  0  0  0
  3 13  2  0  0  0  0
  4 14  2  0  0  0  0
  5  6  1  0  0  0  0
  5  9  1  0  0  0  0
  5 15  1  0  0  0  0
  5 16  1  0  0  0  0
  6 10  1  0  0  0  0
  6 17  1  0  0  0  0
  6 18  1  0  0  0  0
  7  8  1  0  0  0  0
  7 11  1  0  0  0  0
  7 19  1  0  0  0  0
  7 20  1  0  0  0  0
  8 12  1  0  0  0  0
  8 21  1  0  0  0  0
  8 22  1  0  0  0  0
  9 13  1  0  0  0  0
  9 23  1  0  0  0  0
  9 24  1  0  0  0  0
 10 14  1  0  0  0  0
 10 25  1  0  0  0  0
 10 26  1  0  0  0  0
 11 27  1  0  0  0  0
 11 28  1  0  0  0  0
 12 29  1  0  0  0  0
 12 30  1  0  0  0  0
M  END
> <PUBCHEM_COMPOUND_CID>
13064

> <PUBCHEM_CONFORMER_RMSD>
0.6

> <PUBCHEM_CONFORMER_DIVERSEORDER>
1
13
6
7
5
11
2
9
16
8
12
15
4
14
3
17
10

> <PUBCHEM_MMFF94_PARTIAL_CHARGES>
10
1 -0.43
10 0.06
11 0.28
12 0.28
13 0.66
14 0.66
2 -0.43
3 -0.57
4 -0.57
9 0.06

> <PUBCHEM_EFFECTIVE_ROTOR_COUNT>
2

> <PUBCHEM_PHARMACOPHORE_FEATURES>
2
1 3 acceptor
1 4 acceptor

> <PUBCHEM_HEAVY_ATOM_COUNT>
14

> <PUBCHEM_ATOM_DEF_STEREO_COUNT>
0

> <PUBCHEM_ATOM_UDEF_STEREO_COUNT>
0

> <PUBCHEM_BOND_DEF_STEREO_COUNT>
0

> <PUBCHEM_BOND_UDEF_STEREO_COUNT>
0

> <PUBCHEM_ISOTOPIC_ATOM_COUNT>
0

> <PUBCHEM_COMPONENT_COUNT>
1

> <PUBCHEM_CACTVS_TAUTO_COUNT>
1

> <PUBCHEM_CONFORMER_ID>
0000330800000001

> <PUBCHEM_MMFF94_ENERGY>
15.1141

> <PUBCHEM_FEATURE_SELFOVERLAP>
10.149

> <PUBCHEM_SHAPE_FINGERPRINT>
12382932 28 18264772245181343896
13897977 150 18266459798256636395
1420 336 18267016352566151010
14251711 518 17761212111829040322
15775835 57 18127404545063576198
15881359 60 17977706127183685916
16945 1 18410849966865237062
19930374 2 17339018746688343500
19973954 147 18410564093842262146
20201158 50 18410860944896461375
22802520 49 17900243492903195454
2334 1 17978227153924504867
23419403 2 17042116367245316216
2748010 2 17977659805961372364
2897 32 17548127187577782204
66348 1 18194111919815771745

> <PUBCHEM_SHAPE_MULTIPOLES>
264.64
3.83
3.07
0.96
0
0.54
0
-0.27
0
0
0
0
-0.12
0.06

> <PUBCHEM_SHAPE_SELFOVERLAP>
515.721

> <PUBCHEM_SHAPE_VOLUME>
156.9

> <PUBCHEM_COORDINATE_TYPE>
2
5
10

$$$$

