93228
  -OEChem-07051213122D

 20 21  0     0  0  0  0  0  0999 V2000
    4.8479    3.1739    0.0000 Cl  0  0  0  0  0  0  0  0  0  0  0  0
    2.6723    3.1739    0.0000 Cl  0  0  0  0  0  0  0  0  0  0  0  0
    3.7601   -3.1739    0.0000 F   0  0  0  0  0  0  0  0  0  0  0  0
    5.5202    1.1048    0.0000 O   0  0  0  0  0  0  0  0  0  0  0  0
    2.0000    1.1048    0.0000 O   0  0  0  0  0  0  0  0  0  0  0  0
    3.7601    0.8261    0.0000 N   0  0  0  0  0  0  0  0  0  0  0  0
    3.7601   -0.1739    0.0000 C   0  0  0  0  0  0  0  0  0  0  0  0
    4.5691    1.4139    0.0000 C   0  0  0  0  0  0  0  0  0  0  0  0
    2.9511    1.4139    0.0000 C   0  0  0  0  0  0  0  0  0  0  0  0
    4.2601    2.3649    0.0000 C   0  0  0  0  0  0  0  0  0  0  0  0
    3.2601    2.3649    0.0000 C   0  0  0  0  0  0  0  0  0  0  0  0
    2.8940   -0.6739    0.0000 C   0  0  0  0  0  0  0  0  0  0  0  0
    4.6261   -0.6739    0.0000 C   0  0  0  0  0  0  0  0  0  0  0  0
    2.8940   -1.6739    0.0000 C   0  0  0  0  0  0  0  0  0  0  0  0
    4.6261   -1.6739    0.0000 C   0  0  0  0  0  0  0  0  0  0  0  0
    3.7601   -2.1739    0.0000 C   0  0  0  0  0  0  0  0  0  0  0  0
    2.3571   -0.3639    0.0000 H   0  0  0  0  0  0  0  0  0  0  0  0
    5.1630   -0.3639    0.0000 H   0  0  0  0  0  0  0  0  0  0  0  0
    2.3571   -1.9839    0.0000 H   0  0  0  0  0  0  0  0  0  0  0  0
    5.1630   -1.9839    0.0000 H   0  0  0  0  0  0  0  0  0  0  0  0
  1 10  1  0  0  0  0
  2 11  1  0  0  0  0
  3 16  1  0  0  0  0
  4  8  2  0  0  0  0
  5  9  2  0  0  0  0
  6  7  1  0  0  0  0
  6  8  1  0  0  0  0
  6  9  1  0  0  0  0
  7 12  2  0  0  0  0
  7 13  1  0  0  0  0
  8 10  1  0  0  0  0
  9 11  1  0  0  0  0
 10 11  2  0  0  0  0
 12 14  1  0  0  0  0
 12 17  1  0  0  0  0
 13 15  2  0  0  0  0
 13 18  1  0  0  0  0
 14 16  2  0  0  0  0
 14 19  1  0  0  0  0
 15 16  1  0  0  0  0
 15 20  1  0  0  0  0
M  END
> <PUBCHEM_COMPOUND_CID>
93228

> <PUBCHEM_COMPOUND_CANONICALIZED>
1

> <PUBCHEM_CACTVS_COMPLEXITY>
351

> <PUBCHEM_CACTVS_HBOND_ACCEPTOR>
3

> <PUBCHEM_CACTVS_HBOND_DONOR>
0

> <PUBCHEM_CACTVS_ROTATABLE_BOND>
1

> <PUBCHEM_CACTVS_SUBSKEYS>
AAADcYByMQAGAAAAAAAAAAAAAAAAAQAAAAAwAAAAAAAAAAABAAAAHwIAAAAACAqBkAgwwIMAAACIACVSUACCAAAhAgAIiAAAZMhIICLAkZHEIAhghCDIyQcQAAAAAAAAAAAAAAAAAAAAAAAAAAAAAAAAAA==

> <PUBCHEM_IUPAC_OPENEYE_NAME>
3,4-dichloro-1-(4-fluorophenyl)pyrrole-2,5-dione

> <PUBCHEM_IUPAC_CAS_NAME>
3,4-dichloro-1-(4-fluorophenyl)pyrrole-2,5-dione

> <PUBCHEM_IUPAC_NAME>
3,4-dichloro-1-(4-fluorophenyl)pyrrole-2,5-dione

> <PUBCHEM_IUPAC_SYSTEMATIC_NAME>
3,4-bis(chloranyl)-1-(4-fluorophenyl)pyrrole-2,5-dione

> <PUBCHEM_IUPAC_TRADITIONAL_NAME>
3,4-dichloro-1-(4-fluorophenyl)-3-pyrroline-2,5-quinone

> <PUBCHEM_IUPAC_INCHI>
InChI=1S/C10H4Cl2FNO2/c11-7-8(12)10(16)14(9(7)15)6-3-1-5(13)2-4-6/h1-4H

> <PUBCHEM_IUPAC_INCHIKEY>
IPENDKRRWFURRE-UHFFFAOYSA-N

> <PUBCHEM_XLOGP3_AA>
2.8

> <PUBCHEM_EXACT_MASS>
258.960312

> <PUBCHEM_MOLECULAR_FORMULA>
C10H4Cl2FNO2

> <PUBCHEM_MOLECULAR_WEIGHT>
260.048663

> <PUBCHEM_OPENEYE_CAN_SMILES>
C1=CC(=CC=C1N2C(=O)C(=C(C2=O)Cl)Cl)F

> <PUBCHEM_OPENEYE_ISO_SMILES>
C1=CC(=CC=C1N2C(=O)C(=C(C2=O)Cl)Cl)F

> <PUBCHEM_CACTVS_TPSA>
37.4

> <PUBCHEM_MONOISOTOPIC_WEIGHT>
258.960312

> <PUBCHEM_TOTAL_CHARGE>
0

> <PUBCHEM_HEAVY_ATOM_COUNT>
16

> <PUBCHEM_ATOM_DEF_STEREO_COUNT>
0

> <PUBCHEM_ATOM_UDEF_STEREO_COUNT>
0

> <PUBCHEM_BOND_DEF_STEREO_COUNT>
0

> <PUBCHEM_BOND_UDEF_STEREO_COUNT>
0

> <PUBCHEM_ISOTOPIC_ATOM_COUNT>
0

> <PUBCHEM_COMPONENT_COUNT>
1

> <PUBCHEM_CACTVS_TAUTO_COUNT>
1

> <PUBCHEM_COORDINATE_TYPE>
1
5
255

> <PUBCHEM_BONDANNOTATIONS>
12  14  8
13  15  8
14  16  8
15  16  8
7  12  8
7  13  8

$$$$

