442148
  -OEChem-07051212573D

 50 52  0     1  0  0  0  0  0999 V2000
   -2.4329   -1.1595   -0.7079 O   0  0  0  0  0  0  0  0  0  0  0  0
   -4.4018    0.8011   -0.2105 O   0  0  0  0  0  0  0  0  0  0  0  0
    2.3112   -0.8713   -1.5609 O   0  0  0  0  0  0  0  0  0  0  0  0
    4.5606   -0.7132   -1.9124 O   0  0  0  0  0  0  0  0  0  0  0  0
   -6.7016    0.9932   -0.3151 O   0  0  0  0  0  0  0  0  0  0  0  0
   -3.1428   -1.0936    0.5570 C   0  0  2  0  0  0  0  0  0  0  0  0
   -4.5308   -0.5239    0.3137 C   0  0  0  0  0  0  0  0  0  0  0  0
   -2.3226   -0.2464    1.5419 C   0  0  0  0  0  0  0  0  0  0  0  0
   -0.9893   -0.3768    0.9124 C   0  0  0  0  0  0  0  0  0  0  0  0
   -1.1331   -0.8788   -0.3735 C   0  0  0  0  0  0  0  0  0  0  0  0
   -5.3335   -0.4487    1.6152 C   0  0  0  0  0  0  0  0  0  0  0  0
   -5.2853   -1.3525   -0.7279 C   0  0  0  0  0  0  0  0  0  0  0  0
    0.2553   -0.0230    1.4083 C   0  0  0  0  0  0  0  0  0  0  0  0
    1.3712   -0.1936    0.5807 C   0  0  0  0  0  0  0  0  0  0  0  0
   -0.0545   -1.0466   -1.2174 C   0  0  0  0  0  0  0  0  0  0  0  0
    1.1986   -0.6991   -0.7130 C   0  0  0  0  0  0  0  0  0  0  0  0
    5.1656    0.3276    0.6448 C   0  0  0  0  0  0  0  0  0  0  0  0
    3.7716   -0.0166    0.2159 C   0  0  0  0  0  0  0  0  0  0  0  0
    2.7138    0.1478    1.0214 C   0  0  0  0  0  0  0  0  0  0  0  0
    3.6056   -0.5540   -1.1591 C   0  0  0  0  0  0  0  0  0  0  0  0
    5.1288    0.8454    2.0967 C   0  0  0  0  0  0  0  0  0  0  0  0
    6.0318   -0.9470    0.5996 C   0  0  0  0  0  0  0  0  0  0  0  0
   -5.5751    1.4418   -0.4793 C   0  0  0  0  0  0  0  0  0  0  0  0
    5.8332    1.3884   -0.2226 C   0  0  0  0  0  0  0  0  0  0  0  0
   -5.2870    2.8103   -1.0183 C   0  0  0  0  0  0  0  0  0  0  0  0
    5.2431    2.3893   -0.8895 C   0  0  0  0  0  0  0  0  0  0  0  0
   -3.2145   -2.1256    0.9309 H   0  0  0  0  0  0  0  0  0  0  0  0
   -2.3604   -0.6596    2.5539 H   0  0  0  0  0  0  0  0  0  0  0  0
   -2.6147    0.8081    1.5641 H   0  0  0  0  0  0  0  0  0  0  0  0
   -6.4148   -0.3673    1.4748 H   0  0  0  0  0  0  0  0  0  0  0  0
   -5.1878   -1.3603    2.2075 H   0  0  0  0  0  0  0  0  0  0  0  0
   -5.0260    0.4049    2.2300 H   0  0  0  0  0  0  0  0  0  0  0  0
   -4.9279   -1.1440   -1.7432 H   0  0  0  0  0  0  0  0  0  0  0  0
   -6.3680   -1.2008   -0.7331 H   0  0  0  0  0  0  0  0  0  0  0  0
   -5.1466   -2.4236   -0.5371 H   0  0  0  0  0  0  0  0  0  0  0  0
    0.3503    0.3813    2.4114 H   0  0  0  0  0  0  0  0  0  0  0  0
   -0.1751   -1.4332   -2.2227 H   0  0  0  0  0  0  0  0  0  0  0  0
    2.7633    0.5352    2.0307 H   0  0  0  0  0  0  0  0  0  0  0  0
    4.5512    1.7721    2.2065 H   0  0  0  0  0  0  0  0  0  0  0  0
    6.1452    1.0921    2.4341 H   0  0  0  0  0  0  0  0  0  0  0  0
    4.7596    0.0937    2.8055 H   0  0  0  0  0  0  0  0  0  0  0  0
    6.9841   -0.7886    1.1221 H   0  0  0  0  0  0  0  0  0  0  0  0
    6.2944   -1.2670   -0.4136 H   0  0  0  0  0  0  0  0  0  0  0  0
    5.5338   -1.7879    1.0982 H   0  0  0  0  0  0  0  0  0  0  0  0
    6.9222    1.3628   -0.2552 H   0  0  0  0  0  0  0  0  0  0  0  0
   -4.7158    2.7301   -1.9466 H   0  0  0  0  0  0  0  0  0  0  0  0
   -4.7359    3.3924   -0.2755 H   0  0  0  0  0  0  0  0  0  0  0  0
   -6.2299    3.3216   -1.2323 H   0  0  0  0  0  0  0  0  0  0  0  0
    5.8419    3.0991   -1.4503 H   0  0  0  0  0  0  0  0  0  0  0  0
    4.1685    2.5303   -0.8868 H   0  0  0  0  0  0  0  0  0  0  0  0
  1  6  1  0  0  0  0
  1 10  1  0  0  0  0
  2  7  1  0  0  0  0
  2 23  1  0  0  0  0
  3 16  1  0  0  0  0
  3 20  1  0  0  0  0
  4 20  2  0  0  0  0
  5 23  2  0  0  0  0
  6  7  1  0  0  0  0
  6  8  1  0  0  0  0
  6 27  1  0  0  0  0
  7 11  1  0  0  0  0
  7 12  1  0  0  0  0
  8  9  1  0  0  0  0
  8 28  1  0  0  0  0
  8 29  1  0  0  0  0
  9 10  2  0  0  0  0
  9 13  1  0  0  0  0
 10 15  1  0  0  0  0
 11 30  1  0  0  0  0
 11 31  1  0  0  0  0
 11 32  1  0  0  0  0
 12 33  1  0  0  0  0
 12 34  1  0  0  0  0
 12 35  1  0  0  0  0
 13 14  2  0  0  0  0
 13 36  1  0  0  0  0
 14 16  1  0  0  0  0
 14 19  1  0  0  0  0
 15 16  2  0  0  0  0
 15 37  1  0  0  0  0
 17 18  1  0  0  0  0
 17 21  1  0  0  0  0
 17 22  1  0  0  0  0
 17 24  1  0  0  0  0
 18 19  2  0  0  0  0
 18 20  1  0  0  0  0
 19 38  1  0  0  0  0
 21 39  1  0  0  0  0
 21 40  1  0  0  0  0
 21 41  1  0  0  0  0
 22 42  1  0  0  0  0
 22 43  1  0  0  0  0
 22 44  1  0  0  0  0
 23 25  1  0  0  0  0
 24 26  2  0  0  0  0
 24 45  1  0  0  0  0
 25 46  1  0  0  0  0
 25 47  1  0  0  0  0
 25 48  1  0  0  0  0
 26 49  1  0  0  0  0
 26 50  1  0  0  0  0
M  END
> <PUBCHEM_COMPOUND_CID>
442148

> <PUBCHEM_CONFORMER_RMSD>
0.8

> <PUBCHEM_CONFORMER_DIVERSEORDER>
1
18
31
29
10
30
35
15
36
28
34
22
32
21
7
26
27
24
19
4
16
25
5
37
6
13
20
11
8
12
2
33
23
9
14
3
17

> <PUBCHEM_MMFF94_PARTIAL_CHARGES>
28
1 -0.36
10 0.08
13 -0.15
14 0.03
15 -0.15
16 0.08
17 0.28
18 -0.12
19 -0.18
2 -0.43
20 0.71
23 0.66
24 -0.29
25 0.06
26 -0.3
3 -0.23
36 0.15
37 0.15
38 0.15
4 -0.57
45 0.15
49 0.15
5 -0.57
50 0.15
6 0.28
7 0.28
8 0.14
9 -0.14

> <PUBCHEM_EFFECTIVE_ROTOR_COUNT>
5.6

> <PUBCHEM_PHARMACOPHORE_FEATURES>
9
1 1 acceptor
1 26 hydrophobe
1 4 acceptor
1 5 acceptor
3 17 21 22 hydrophobe
3 7 11 12 hydrophobe
5 1 6 8 9 10 rings
6 3 14 16 18 19 20 rings
6 9 10 13 14 15 16 rings

> <PUBCHEM_HEAVY_ATOM_COUNT>
26

> <PUBCHEM_ATOM_DEF_STEREO_COUNT>
1

> <PUBCHEM_ATOM_UDEF_STEREO_COUNT>
0

> <PUBCHEM_BOND_DEF_STEREO_COUNT>
0

> <PUBCHEM_BOND_UDEF_STEREO_COUNT>
0

> <PUBCHEM_ISOTOPIC_ATOM_COUNT>
0

> <PUBCHEM_COMPONENT_COUNT>
1

> <PUBCHEM_CACTVS_TAUTO_COUNT>
1

> <PUBCHEM_CONFORMER_ID>
0006BF2400000001

> <PUBCHEM_MMFF94_ENERGY>
94.655

> <PUBCHEM_FEATURE_SELFOVERLAP>
45.801

> <PUBCHEM_SHAPE_FINGERPRINT>
10 15 18201432558971156177
10087517 78 18131074848670536189
10554248 39 17894914061696428700
10693767 8 14707749824049233772
10763959 59 18335141977470914048
11089746 13 18059861648869688457
11646440 116 15051738586233508988
11991303 11 17822577096941959215
12236239 1 17203609280758263890
12422481 6 15195295264893256455
12516196 113 5256403903123140490
12596602 18 17703789193365764008
12838862 33 16733282175141673064
13167372 99 18202567289215058952
13288520 33 7060373735233286939
13533116 47 18411702123639056658
13668630 136 4823212827507519725
14251764 18 16128649730688074411
14341114 176 13183017423552307134
14528608 73 15863785093397078034
14739800 52 18060149768435645745
14849402 71 16629947829372647420
15131766 46 18050853222204633716
15183329 4 17167860863499278721
15196674 1 16732974340748262931
15238133 3 17703785950744485740
15475509 35 9439134109228422468
16079462 125 18186810179123164569
17844677 252 18272645723362108641
17980427 23 17989203738030189789
18222031 100 5545196120952501266
18769570 83 18131353042017893189
19489759 90 18343022190392078819
20281389 69 18335425651116991273
20511986 3 17894927212960453254
20567600 247 7637405111853586364
21033648 29 18335711528509124353
21130935 74 16415482636166480296
21641784 216 17458608030610879056
21859007 373 18264498458576005140
22061861 79 17603302669734896229
22122407 14 18059564738092577324
23081809 10 17275384283107086331
23402539 116 18413675703575288319
23522609 53 6193728885473302875
23536379 177 18272091603866755258
23559900 14 16443637783190357946
23569914 152 14784297990398740661
23569914 2 17621371983618545925
25122255 55 8286204976216279837
2838139 119 18342747351045239445
29717793 49 14201390582530470728
3004659 81 17749097916690943934
312425 54 16630529518257642792
33382 64 8430323441399441012
335352 9 16732979813775794628
34797466 226 18337377258502164542
3680242 22 14405194954175250232
4340502 62 18413384328594180186
5104073 3 14763769829039823040
5283173 99 18334859467238215161
542803 24 18060703874919009378

> <PUBCHEM_SHAPE_MULTIPOLES>
505.72
17.33
1.78
1.63
4.01
1.79
-0.03
6.79
-1.39
1.52
0.2
-1.26
-0.36
0.33

> <PUBCHEM_SHAPE_SELFOVERLAP>
1095.833

> <PUBCHEM_SHAPE_VOLUME>
277.6

> <PUBCHEM_COORDINATE_TYPE>
2
5
10

$$$$

