5977
  -OEChem-06261201012D

 15 14  0     0  0  0  0  0  0999 V2000
    5.1350    0.7500    0.0000 Cl  0  0  0  0  0  0  0  0  0  0  0  0
    3.7690    1.1160    0.0000 Cl  0  0  0  0  0  0  0  0  0  0  0  0
    4.7690   -0.6160    0.0000 Cl  0  0  0  0  0  0  0  0  0  0  0  0
    2.5369   -0.7500    0.0000 O   0  0  0  0  0  0  0  0  0  0  0  0
    3.4030   -0.2500    0.0000 C   0  0  0  0  0  0  0  0  0  0  0  0
    4.2690    0.2500    0.0000 C   0  0  0  0  0  0  0  0  0  0  0  0
    2.9030    0.6160    0.0000 C   0  0  0  0  0  0  0  0  0  0  0  0
    3.9030   -1.1160    0.0000 C   0  0  0  0  0  0  0  0  0  0  0  0
    3.4399    0.9260    0.0000 H   0  0  0  0  0  0  0  0  0  0  0  0
    2.5930    1.1530    0.0000 H   0  0  0  0  0  0  0  0  0  0  0  0
    2.3660    0.3060    0.0000 H   0  0  0  0  0  0  0  0  0  0  0  0
    3.3660   -1.4260    0.0000 H   0  0  0  0  0  0  0  0  0  0  0  0
    4.2130   -1.6530    0.0000 H   0  0  0  0  0  0  0  0  0  0  0  0
    4.4399   -0.8060    0.0000 H   0  0  0  0  0  0  0  0  0  0  0  0
    2.0000   -0.4400    0.0000 H   0  0  0  0  0  0  0  0  0  0  0  0
  1  6  1  0  0  0  0
  2  6  1  0  0  0  0
  3  6  1  0  0  0  0
  4  5  1  0  0  0  0
  4 15  1  0  0  0  0
  5  6  1  0  0  0  0
  5  7  1  0  0  0  0
  5  8  1  0  0  0  0
  7  9  1  0  0  0  0
  7 10  1  0  0  0  0
  7 11  1  0  0  0  0
  8 12  1  0  0  0  0
  8 13  1  0  0  0  0
  8 14  1  0  0  0  0
M  END
> <PUBCHEM_COMPOUND_CID>
5977

> <PUBCHEM_COMPOUND_CANONICALIZED>
1

> <PUBCHEM_CACTVS_COMPLEXITY>
83.8

> <PUBCHEM_CACTVS_HBOND_ACCEPTOR>
1

> <PUBCHEM_CACTVS_HBOND_DONOR>
1

> <PUBCHEM_CACTVS_ROTATABLE_BOND>
0

> <PUBCHEM_CACTVS_SUBSKEYS>
AAADcYBgIAAGAAAAAAAAAAAAAAAAAAAAAAAAAAAAAAAAAAAAAAAAGgIACAAADEaAgIACAAAAAgAAAAAAAAAAAAAAAAAAAAAAAwAAAAAAAAAAAAAAAAAAAAAAAAAAAAAAAAAAAAAAAAAAAAAAAAAAAAAAAA==

> <PUBCHEM_IUPAC_OPENEYE_NAME>
1,1,1-trichloro-2-methyl-propan-2-ol

> <PUBCHEM_IUPAC_CAS_NAME>
1,1,1-trichloro-2-methyl-2-propanol

> <PUBCHEM_IUPAC_NAME>
1,1,1-trichloro-2-methylpropan-2-ol

> <PUBCHEM_IUPAC_SYSTEMATIC_NAME>
1,1,1-tris(chloranyl)-2-methyl-propan-2-ol

> <PUBCHEM_IUPAC_TRADITIONAL_NAME>
1,1,1-trichloro-2-methyl-propan-2-ol

> <PUBCHEM_IUPAC_INCHI>
InChI=1S/C4H7Cl3O/c1-3(2,8)4(5,6)7/h8H,1-2H3

> <PUBCHEM_IUPAC_INCHIKEY>
OSASVXMJTNOKOY-UHFFFAOYSA-N

> <PUBCHEM_XLOGP3>
2

> <PUBCHEM_EXACT_MASS>
175.956248

> <PUBCHEM_MOLECULAR_FORMULA>
C4H7Cl3O

> <PUBCHEM_MOLECULAR_WEIGHT>
177.45678

> <PUBCHEM_OPENEYE_CAN_SMILES>
CC(C)(C(Cl)(Cl)Cl)O

> <PUBCHEM_OPENEYE_ISO_SMILES>
CC(C)(C(Cl)(Cl)Cl)O

> <PUBCHEM_CACTVS_TPSA>
20.2

> <PUBCHEM_MONOISOTOPIC_WEIGHT>
175.956248

> <PUBCHEM_TOTAL_CHARGE>
0

> <PUBCHEM_HEAVY_ATOM_COUNT>
8

> <PUBCHEM_ATOM_DEF_STEREO_COUNT>
0

> <PUBCHEM_ATOM_UDEF_STEREO_COUNT>
0

> <PUBCHEM_BOND_DEF_STEREO_COUNT>
0

> <PUBCHEM_BOND_UDEF_STEREO_COUNT>
0

> <PUBCHEM_ISOTOPIC_ATOM_COUNT>
0

> <PUBCHEM_COMPONENT_COUNT>
1

> <PUBCHEM_CACTVS_TAUTO_COUNT>
1

> <PUBCHEM_COORDINATE_TYPE>
1
5
255

$$$$

