9570206
  -OEChem-07051213132D

 24 25  0     0  0  0  0  0  0999 V2000
    2.0000   -1.0194    0.0000 Cl  0  0  0  0  0  0  0  0  0  0  0  0
    4.0981    3.0194    0.0000 O   0  0  0  0  0  0  0  0  0  0  0  0
    2.8380    1.7594    0.0000 O   0  0  0  0  0  0  0  0  0  0  0  0
    3.7320   -0.0194    0.0000 N   0  0  0  0  0  0  0  0  0  0  0  0
    4.5981    0.4806    0.0000 N   0  0  0  0  0  0  0  0  0  0  0  0
    5.0981    3.0194    0.0000 N   0  0  0  0  0  0  0  0  0  0  0  0
    3.7320   -1.0194    0.0000 C   0  0  0  0  0  0  0  0  0  0  0  0
    4.5981    1.4806    0.0000 C   0  0  0  0  0  0  0  0  0  0  0  0
    5.4071    2.0684    0.0000 C   0  0  0  0  0  0  0  0  0  0  0  0
    2.8660   -1.5194    0.0000 C   0  0  0  0  0  0  0  0  0  0  0  0
    4.5981   -1.5194    0.0000 C   0  0  0  0  0  0  0  0  0  0  0  0
    6.3582    1.7594    0.0000 C   0  0  0  0  0  0  0  0  0  0  0  0
    3.7891    2.0684    0.0000 C   0  0  0  0  0  0  0  0  0  0  0  0
    2.8660   -2.5194    0.0000 C   0  0  0  0  0  0  0  0  0  0  0  0
    4.5981   -2.5194    0.0000 C   0  0  0  0  0  0  0  0  0  0  0  0
    3.7320   -3.0194    0.0000 C   0  0  0  0  0  0  0  0  0  0  0  0
    3.1951    0.2906    0.0000 H   0  0  0  0  0  0  0  0  0  0  0  0
    5.1350   -1.2094    0.0000 H   0  0  0  0  0  0  0  0  0  0  0  0
    6.1666    1.1697    0.0000 H   0  0  0  0  0  0  0  0  0  0  0  0
    6.9478    1.5678    0.0000 H   0  0  0  0  0  0  0  0  0  0  0  0
    6.5497    2.3490    0.0000 H   0  0  0  0  0  0  0  0  0  0  0  0
    2.3291   -2.8294    0.0000 H   0  0  0  0  0  0  0  0  0  0  0  0
    5.1350   -2.8294    0.0000 H   0  0  0  0  0  0  0  0  0  0  0  0
    3.7320   -3.6394    0.0000 H   0  0  0  0  0  0  0  0  0  0  0  0
  1 10  1  0  0  0  0
  2  6  1  0  0  0  0
  2 13  1  0  0  0  0
  3 13  2  0  0  0  0
  4  5  1  0  0  0  0
  4  7  1  0  0  0  0
  4 17  1  0  0  0  0
  5  8  2  0  0  0  0
  6  9  2  0  0  0  0
  7 10  1  0  0  0  0
  7 11  2  0  0  0  0
  8  9  1  0  0  0  0
  8 13  1  0  0  0  0
  9 12  1  0  0  0  0
 10 14  2  0  0  0  0
 11 15  1  0  0  0  0
 11 18  1  0  0  0  0
 12 19  1  0  0  0  0
 12 20  1  0  0  0  0
 12 21  1  0  0  0  0
 14 16  1  0  0  0  0
 14 22  1  0  0  0  0
 15 16  2  0  0  0  0
 15 23  1  0  0  0  0
 16 24  1  0  0  0  0
M  END
> <PUBCHEM_COMPOUND_CID>
9570206

> <PUBCHEM_COMPOUND_CANONICALIZED>
1

> <PUBCHEM_CACTVS_COMPLEXITY>
354

> <PUBCHEM_CACTVS_HBOND_ACCEPTOR>
5

> <PUBCHEM_CACTVS_HBOND_DONOR>
1

> <PUBCHEM_CACTVS_ROTATABLE_BOND>
2

> <PUBCHEM_CACTVS_SUBSKEYS>
AAADccBzMAAEAAAAAAAAAAAAAAAAAQAAAAAwAAAAAAAAAAABAAAAHgIcAAAACAqBkCAyyIByAACoASTySASSBAAgBwAYiAEwZogIIDKBk5GAIABkmAAIyAcQAAAAAAAAAAAAABAAAAAAAAAAIAAAAAAAAA==

> <PUBCHEM_IUPAC_OPENEYE_NAME>
(4Z)-4-[(2-chlorophenyl)hydrazono]-3-methyl-isoxazol-5-one

> <PUBCHEM_IUPAC_CAS_NAME>
(4Z)-4-[(2-chlorophenyl)hydrazinylidene]-3-methyl-5-isoxazolone

> <PUBCHEM_IUPAC_NAME>
(4Z)-4-[(2-chlorophenyl)hydrazinylidene]-3-methyl-1,2-oxazol-5-one

> <PUBCHEM_IUPAC_SYSTEMATIC_NAME>
(4Z)-4-[(2-chlorophenyl)hydrazinylidene]-3-methyl-1,2-oxazol-5-one

> <PUBCHEM_IUPAC_TRADITIONAL_NAME>
(4Z)-4-[(2-chlorophenyl)hydrazono]-3-methyl-2-isoxazolin-5-one

> <PUBCHEM_IUPAC_INCHI>
InChI=1S/C10H8ClN3O2/c1-6-9(10(15)16-14-6)13-12-8-5-3-2-4-7(8)11/h2-5,12H,1H3/b13-9-

> <PUBCHEM_IUPAC_INCHIKEY>
OOTHTARUZHONSW-LCYFTJDESA-N

> <PUBCHEM_XLOGP3_AA>
2.7

> <PUBCHEM_EXACT_MASS>
237.030504

> <PUBCHEM_MOLECULAR_FORMULA>
C10H8ClN3O2

> <PUBCHEM_MOLECULAR_WEIGHT>
237.64242

> <PUBCHEM_OPENEYE_CAN_SMILES>
CC1=NOC(=O)C1=NNC2=CC=CC=C2Cl

> <PUBCHEM_OPENEYE_ISO_SMILES>
CC\1=NOC(=O)/C1=N\NC2=CC=CC=C2Cl

> <PUBCHEM_CACTVS_TPSA>
63

> <PUBCHEM_MONOISOTOPIC_WEIGHT>
237.030504

> <PUBCHEM_TOTAL_CHARGE>
0

> <PUBCHEM_HEAVY_ATOM_COUNT>
16

> <PUBCHEM_ATOM_DEF_STEREO_COUNT>
0

> <PUBCHEM_ATOM_UDEF_STEREO_COUNT>
0

> <PUBCHEM_BOND_DEF_STEREO_COUNT>
1

> <PUBCHEM_BOND_UDEF_STEREO_COUNT>
0

> <PUBCHEM_ISOTOPIC_ATOM_COUNT>
0

> <PUBCHEM_COMPONENT_COUNT>
1

> <PUBCHEM_CACTVS_TAUTO_COUNT>
7

> <PUBCHEM_COORDINATE_TYPE>
1
5
255

> <PUBCHEM_BONDANNOTATIONS>
10  14  8
11  15  8
14  16  8
15  16  8
7  10  8
7  11  8

$$$$

