5963
  -OEChem-06261201012D

 28 27  0     0  0  0  0  0  0999 V2000
    5.6720    2.5115    0.0000 Cl  0  5  0  0  0  0  0  0  0  0  0  0
    2.2690    4.1200    0.0000 N   0  3  0  0  0  0  0  0  0  0  0  0
    1.4030    3.6200    0.0000 C   0  0  0  0  0  0  0  0  0  0  0  0
    3.1350    4.6200    0.0000 C   0  0  0  0  0  0  0  0  0  0  0  0
    1.7690    4.9860    0.0000 C   0  0  0  0  0  0  0  0  0  0  0  0
    2.7690    3.2540    0.0000 C   0  0  0  0  0  0  0  0  0  0  0  0
    1.4030    2.6200    0.0000 C   0  0  0  0  0  0  0  0  0  0  0  0
    0.5369    2.1200    0.0000 C   0  0  0  0  0  0  0  0  0  0  0  0
    2.2690    2.1200    0.0000 C   0  0  0  0  0  0  0  0  0  0  0  0
    0.5369    1.1200    0.0000 C   0  0  0  0  0  0  0  0  0  0  0  0
    2.2690    1.1200    0.0000 C   0  0  0  0  0  0  0  0  0  0  0  0
    1.4030    0.6200    0.0000 C   0  0  0  0  0  0  0  0  0  0  0  0
    1.1909    4.2026    0.0000 H   0  0  0  0  0  0  0  0  0  0  0  0
    0.7924    3.5123    0.0000 H   0  0  0  0  0  0  0  0  0  0  0  0
    3.4450    4.0831    0.0000 H   0  0  0  0  0  0  0  0  0  0  0  0
    2.3059    5.2960    0.0000 H   0  0  0  0  0  0  0  0  0  0  0  0
    1.4590    5.5230    0.0000 H   0  0  0  0  0  0  0  0  0  0  0  0
    1.2320    4.6760    0.0000 H   0  0  0  0  0  0  0  0  0  0  0  0
    2.2320    2.9440    0.0000 H   0  0  0  0  0  0  0  0  0  0  0  0
    3.0790    2.7170    0.0000 H   0  0  0  0  0  0  0  0  0  0  0  0
    3.3059    3.5640    0.0000 H   0  0  0  0  0  0  0  0  0  0  0  0
    3.6720    4.9300    0.0000 H   0  0  0  0  0  0  0  0  0  0  0  0
    2.8250    5.1569    0.0000 H   0  0  0  0  0  0  0  0  0  0  0  0
    0.0000    2.4300    0.0000 H   0  0  0  0  0  0  0  0  0  0  0  0
    2.8059    2.4300    0.0000 H   0  0  0  0  0  0  0  0  0  0  0  0
    0.0000    0.8100    0.0000 H   0  0  0  0  0  0  0  0  0  0  0  0
    2.8059    0.8100    0.0000 H   0  0  0  0  0  0  0  0  0  0  0  0
    1.4030    0.0000    0.0000 H   0  0  0  0  0  0  0  0  0  0  0  0
  2  3  1  0  0  0  0
  2  4  1  0  0  0  0
  2  5  1  0  0  0  0
  2  6  1  0  0  0  0
  3  7  1  0  0  0  0
  3 13  1  0  0  0  0
  3 14  1  0  0  0  0
  4 15  1  0  0  0  0
  4 22  1  0  0  0  0
  4 23  1  0  0  0  0
  5 16  1  0  0  0  0
  5 17  1  0  0  0  0
  5 18  1  0  0  0  0
  6 19  1  0  0  0  0
  6 20  1  0  0  0  0
  6 21  1  0  0  0  0
  7  8  2  0  0  0  0
  7  9  1  0  0  0  0
  8 10  1  0  0  0  0
  8 24  1  0  0  0  0
  9 11  2  0  0  0  0
  9 25  1  0  0  0  0
 10 12  2  0  0  0  0
 10 26  1  0  0  0  0
 11 12  1  0  0  0  0
 11 27  1  0  0  0  0
 12 28  1  0  0  0  0
M  CHG  2   1  -1   2   1
M  END
> <PUBCHEM_COMPOUND_CID>
5963

> <PUBCHEM_COMPOUND_CANONICALIZED>
1

> <PUBCHEM_CACTVS_COMPLEXITY>
107

> <PUBCHEM_CACTVS_HBOND_ACCEPTOR>
1

> <PUBCHEM_CACTVS_HBOND_DONOR>
0

> <PUBCHEM_CACTVS_ROTATABLE_BOND>
2

> <PUBCHEM_CACTVS_SUBSKEYS>
AAADceByAAAEAAAAAAAAAAAAAAAAAAAAAAAwAAAAAAAAAAABAAAAHAAAAAAADADBGAQyAIMAAACAAiBCAACCAAAgAAAIiAAIBIgIICKAkRGEIAhggAAIiAcQgAAOAAAAAAAAAAAAAAAAAAAAAAAAAAAAAA==

> <PUBCHEM_IUPAC_OPENEYE_NAME>
benzyl(trimethyl)ammonium chloride

> <PUBCHEM_IUPAC_CAS_NAME>
trimethyl-(phenylmethyl)ammonium chloride

> <PUBCHEM_IUPAC_NAME>
benzyl(trimethyl)azanium chloride

> <PUBCHEM_IUPAC_SYSTEMATIC_NAME>
trimethyl-(phenylmethyl)azanium chloride

> <PUBCHEM_IUPAC_TRADITIONAL_NAME>
benzyl(trimethyl)ammonium chloride

> <PUBCHEM_IUPAC_INCHI>
InChI=1S/C10H16N.ClH/c1-11(2,3)9-10-7-5-4-6-8-10;/h4-8H,9H2,1-3H3;1H/q+1;/p-1

> <PUBCHEM_IUPAC_INCHIKEY>
KXHPPCXNWTUNSB-UHFFFAOYSA-M

> <PUBCHEM_EXACT_MASS>
185.097127

> <PUBCHEM_MOLECULAR_FORMULA>
C10H16ClN

> <PUBCHEM_MOLECULAR_WEIGHT>
185.69374

> <PUBCHEM_OPENEYE_CAN_SMILES>
C[N+](C)(C)CC1=CC=CC=C1.[Cl-]

> <PUBCHEM_OPENEYE_ISO_SMILES>
C[N+](C)(C)CC1=CC=CC=C1.[Cl-]

> <PUBCHEM_CACTVS_TPSA>
0

> <PUBCHEM_MONOISOTOPIC_WEIGHT>
185.097127

> <PUBCHEM_TOTAL_CHARGE>
0

> <PUBCHEM_HEAVY_ATOM_COUNT>
12

> <PUBCHEM_ATOM_DEF_STEREO_COUNT>
0

> <PUBCHEM_ATOM_UDEF_STEREO_COUNT>
0

> <PUBCHEM_BOND_DEF_STEREO_COUNT>
0

> <PUBCHEM_BOND_UDEF_STEREO_COUNT>
0

> <PUBCHEM_ISOTOPIC_ATOM_COUNT>
0

> <PUBCHEM_COMPONENT_COUNT>
2

> <PUBCHEM_CACTVS_TAUTO_COUNT>
1

> <PUBCHEM_COORDINATE_TYPE>
1
5
255

> <PUBCHEM_BONDANNOTATIONS>
10  12  8
11  12  8
7  8  8
7  9  8
8  10  8
9  11  8

$$$$

