15644
  -OEChem-07051213053D

 42 43  0     1  0  0  0  0  0999 V2000
   -4.6662    1.7679   -0.5528 O   0  0  0  0  0  0  0  0  0  0  0  0
   -2.8916    0.9266   -1.6806 O   0  0  0  0  0  0  0  0  0  0  0  0
    5.1599    0.4721   -0.4451 O   0  0  0  0  0  0  0  0  0  0  0  0
   -2.6007   -1.1145    0.3391 C   0  0  1  0  0  0  0  0  0  0  0  0
   -3.2644    0.2483    0.6299 C   0  0  1  0  0  0  0  0  0  0  0  0
   -2.4146    1.1152    1.5538 C   0  0  0  0  0  0  0  0  0  0  0  0
   -1.0949   -1.0269    0.0889 C   0  0  0  0  0  0  0  0  0  0  0  0
   -0.9981    1.3173    1.0180 C   0  0  0  0  0  0  0  0  0  0  0  0
   -0.3844    0.0796    0.4075 C   0  0  0  0  0  0  0  0  0  0  0  0
   -2.8878   -2.0954    1.4858 C   0  0  0  0  0  0  0  0  0  0  0  0
   -0.5032   -2.2512   -0.5721 C   0  0  0  0  0  0  0  0  0  0  0  0
   -3.5534    0.9882   -0.6471 C   0  0  0  0  0  0  0  0  0  0  0  0
    1.0714    0.1816    0.1837 C   0  0  0  0  0  0  0  0  0  0  0  0
   -0.5720   -2.1483   -2.0789 C   0  0  0  0  0  0  0  0  0  0  0  0
    1.5534    0.6766   -1.0256 C   0  0  0  0  0  0  0  0  0  0  0  0
    1.9565   -0.2165    1.1827 C   0  0  0  0  0  0  0  0  0  0  0  0
    2.9287    0.7742   -1.2371 C   0  0  0  0  0  0  0  0  0  0  0  0
    3.3317   -0.1189    0.9712 C   0  0  0  0  0  0  0  0  0  0  0  0
    3.8178    0.3763   -0.2388 C   0  0  0  0  0  0  0  0  0  0  0  0
    6.0120    0.0478    0.6176 C   0  0  0  0  0  0  0  0  0  0  0  0
   -3.0731   -1.5293   -0.5620 H   0  0  0  0  0  0  0  0  0  0  0  0
   -4.2380    0.0661    1.1051 H   0  0  0  0  0  0  0  0  0  0  0  0
   -2.3582    0.6416    2.5422 H   0  0  0  0  0  0  0  0  0  0  0  0
   -2.8833    2.0949    1.7077 H   0  0  0  0  0  0  0  0  0  0  0  0
   -0.3746    1.6852    1.8429 H   0  0  0  0  0  0  0  0  0  0  0  0
   -1.0104    2.1107    0.2593 H   0  0  0  0  0  0  0  0  0  0  0  0
   -2.5616   -3.1126    1.2496 H   0  0  0  0  0  0  0  0  0  0  0  0
   -2.3859   -1.7924    2.4113 H   0  0  0  0  0  0  0  0  0  0  0  0
   -3.9630   -2.1499    1.6893 H   0  0  0  0  0  0  0  0  0  0  0  0
    0.5402   -2.3958   -0.2703 H   0  0  0  0  0  0  0  0  0  0  0  0
   -1.0155   -3.1626   -0.2495 H   0  0  0  0  0  0  0  0  0  0  0  0
   -0.1286   -3.0393   -2.5358 H   0  0  0  0  0  0  0  0  0  0  0  0
   -0.0302   -1.2787   -2.4606 H   0  0  0  0  0  0  0  0  0  0  0  0
   -1.6071   -2.0792   -2.4298 H   0  0  0  0  0  0  0  0  0  0  0  0
    0.8729    0.9963   -1.8109 H   0  0  0  0  0  0  0  0  0  0  0  0
    1.5906   -0.6041    2.1304 H   0  0  0  0  0  0  0  0  0  0  0  0
   -4.8473    2.2467   -1.3896 H   0  0  0  0  0  0  0  0  0  0  0  0
    3.3014    1.1621   -2.1812 H   0  0  0  0  0  0  0  0  0  0  0  0
    3.9656   -0.4453    1.7886 H   0  0  0  0  0  0  0  0  0  0  0  0
    7.0440    0.1931    0.2820 H   0  0  0  0  0  0  0  0  0  0  0  0
    5.8917   -1.0203    0.8280 H   0  0  0  0  0  0  0  0  0  0  0  0
    5.8770    0.6649    1.5124 H   0  0  0  0  0  0  0  0  0  0  0  0
  1 12  1  0  0  0  0
  1 37  1  0  0  0  0
  2 12  2  0  0  0  0
  3 19  1  0  0  0  0
  3 20  1  0  0  0  0
  4  5  1  0  0  0  0
  4  7  1  0  0  0  0
  4 10  1  0  0  0  0
  4 21  1  0  0  0  0
  5  6  1  0  0  0  0
  5 12  1  0  0  0  0
  5 22  1  0  0  0  0
  6  8  1  0  0  0  0
  6 23  1  0  0  0  0
  6 24  1  0  0  0  0
  7  9  2  0  0  0  0
  7 11  1  0  0  0  0
  8  9  1  0  0  0  0
  8 25  1  0  0  0  0
  8 26  1  0  0  0  0
  9 13  1  0  0  0  0
 10 27  1  0  0  0  0
 10 28  1  0  0  0  0
 10 29  1  0  0  0  0
 11 14  1  0  0  0  0
 11 30  1  0  0  0  0
 11 31  1  0  0  0  0
 13 15  2  0  0  0  0
 13 16  1  0  0  0  0
 14 32  1  0  0  0  0
 14 33  1  0  0  0  0
 14 34  1  0  0  0  0
 15 17  1  0  0  0  0
 15 35  1  0  0  0  0
 16 18  2  0  0  0  0
 16 36  1  0  0  0  0
 17 19  2  0  0  0  0
 17 38  1  0  0  0  0
 18 19  1  0  0  0  0
 18 39  1  0  0  0  0
 20 40  1  0  0  0  0
 20 41  1  0  0  0  0
 20 42  1  0  0  0  0
M  END
> <PUBCHEM_COMPOUND_CID>
15644

> <PUBCHEM_CONFORMER_RMSD>
0.6

> <PUBCHEM_CONFORMER_DIVERSEORDER>
2
11
8
9
12
10
6
4
1
3
5
7

> <PUBCHEM_MMFF94_PARTIAL_CHARGES>
22
1 -0.65
11 0.14
12 0.66
13 0.03
15 -0.15
16 -0.15
17 -0.15
18 -0.15
19 0.08
2 -0.57
20 0.28
3 -0.36
35 0.15
36 0.15
37 0.5
38 0.15
39 0.15
4 0.14
5 0.06
7 -0.28
8 0.14
9 -0.17

> <PUBCHEM_EFFECTIVE_ROTOR_COUNT>
4.8

> <PUBCHEM_PHARMACOPHORE_FEATURES>
7
1 1 acceptor
1 14 hydrophobe
1 2 acceptor
1 3 acceptor
3 1 2 12 anion
6 13 15 16 17 18 19 rings
6 4 5 6 7 8 9 rings

> <PUBCHEM_HEAVY_ATOM_COUNT>
20

> <PUBCHEM_ATOM_DEF_STEREO_COUNT>
0

> <PUBCHEM_ATOM_UDEF_STEREO_COUNT>
2

> <PUBCHEM_BOND_DEF_STEREO_COUNT>
0

> <PUBCHEM_BOND_UDEF_STEREO_COUNT>
0

> <PUBCHEM_ISOTOPIC_ATOM_COUNT>
0

> <PUBCHEM_COMPONENT_COUNT>
1

> <PUBCHEM_CACTVS_TAUTO_COUNT>
1

> <PUBCHEM_CONFORMER_ID>
00003D1C00000002

> <PUBCHEM_MMFF94_ENERGY>
54.8335

> <PUBCHEM_FEATURE_SELFOVERLAP>
35.58

> <PUBCHEM_SHAPE_FINGERPRINT>
10366900 7 16081087061436931658
11315181 36 18333447630537346848
11552529 35 15122926397395661800
121448 382 17385730183676029927
12236239 1 18202281394774646520
12346177 29 17822861870532524262
12500047 106 18041283188532670534
12633257 1 14908179737845351212
12670546 56 17774725259862921636
13583140 156 18342179929682183658
13675066 3 18341611478350487570
15375358 24 17022897939769766078
15852999 172 18338516456123842015
16752209 62 18337964380758887707
16945 1 18412538842911874081
19489759 90 17530685429122088672
200 152 17203327758800520754
20279233 1 17168137928061430246
20600515 1 17677035859675775368
20645476 183 18272936003090536339
22182313 1 18116125896689076359
2306618 200 18272082795258239161
23402539 116 17603870017935580832
23419403 2 15288484184396647267
23493267 7 18343019995299800491
23559900 14 17822004299471980636
23598288 3 18268143158721844078
2748010 2 18115845525750997647
2838139 119 17632026329175197653
34934 24 18202568397337499680
4175511 318 18343301466013068573
465052 167 17979052905012840675
5104073 3 17703791375842400008
559249 180 18202006542669486226
81228 2 17172376386135957991

> <PUBCHEM_SHAPE_MULTIPOLES>
393.98
9.25
1.89
1.6
10.61
1.1
0.23
-2.86
-0.25
-2.07
0.29
-0.66
0.23
0.44

> <PUBCHEM_SHAPE_SELFOVERLAP>
825.597

> <PUBCHEM_SHAPE_VOLUME>
221.8

> <PUBCHEM_COORDINATE_TYPE>
2
5
10

$$$$

