36242
  -OEChem-07051213003D

 29 31  0     1  0  0  0  0  0999 V2000
   -3.8492   -2.6125    0.5443 Cl  0  0  0  0  0  0  0  0  0  0  0  0
   -3.7915    2.6530   -0.6397 Cl  0  0  0  0  0  0  0  0  0  0  0  0
    0.9483    2.2049    0.7374 O   0  0  0  0  0  0  0  0  0  0  0  0
    0.9414   -2.2525   -0.5817 O   0  0  0  0  0  0  0  0  0  0  0  0
    0.5269   -0.0094    0.0307 N   0  0  0  0  0  0  0  0  0  0  0  0
    2.7352    0.6952    0.2967 C   0  0  2  0  0  0  0  0  0  0  0  0
    2.7351   -0.7581   -0.1147 C   0  0  1  0  0  0  0  0  0  0  0  0
    3.3050   -0.3495    1.2134 C   0  0  0  0  0  0  0  0  0  0  0  0
    1.3056    1.0896    0.3891 C   0  0  0  0  0  0  0  0  0  0  0  0
    1.3029   -1.1295   -0.2637 C   0  0  0  0  0  0  0  0  0  0  0  0
    3.7049    1.6341   -0.3436 C   0  0  0  0  0  0  0  0  0  0  0  0
    3.7091   -1.2221   -1.1488 C   0  0  0  0  0  0  0  0  0  0  0  0
   -0.8649   -0.0002    0.0056 C   0  0  0  0  0  0  0  0  0  0  0  0
   -1.5524    1.1831   -0.2720 C   0  0  0  0  0  0  0  0  0  0  0  0
   -1.5785   -1.1738    0.2576 C   0  0  0  0  0  0  0  0  0  0  0  0
   -2.9732   -1.1643    0.2322 C   0  0  0  0  0  0  0  0  0  0  0  0
   -2.9470    1.1928   -0.2975 C   0  0  0  0  0  0  0  0  0  0  0  0
   -3.6575    0.0192   -0.0454 C   0  0  0  0  0  0  0  0  0  0  0  0
    4.3785   -0.3905    1.3602 H   0  0  0  0  0  0  0  0  0  0  0  0
    2.7506   -0.6047    2.1105 H   0  0  0  0  0  0  0  0  0  0  0  0
    3.6833    2.6011    0.1705 H   0  0  0  0  0  0  0  0  0  0  0  0
    4.7398    1.2788   -0.3091 H   0  0  0  0  0  0  0  0  0  0  0  0
    3.4382    1.8075   -1.3916 H   0  0  0  0  0  0  0  0  0  0  0  0
    4.7439   -0.9426   -0.9265 H   0  0  0  0  0  0  0  0  0  0  0  0
    3.6836   -2.3148   -1.2218 H   0  0  0  0  0  0  0  0  0  0  0  0
    3.4496   -0.8160   -2.1324 H   0  0  0  0  0  0  0  0  0  0  0  0
   -1.0293    2.1027   -0.5172 H   0  0  0  0  0  0  0  0  0  0  0  0
   -1.0816   -2.1009    0.5256 H   0  0  0  0  0  0  0  0  0  0  0  0
   -4.7452    0.0268   -0.0651 H   0  0  0  0  0  0  0  0  0  0  0  0
  1 16  1  0  0  0  0
  2 17  1  0  0  0  0
  3  9  2  0  0  0  0
  4 10  2  0  0  0  0
  5  9  1  0  0  0  0
  5 10  1  0  0  0  0
  5 13  1  0  0  0  0
  6  7  1  0  0  0  0
  6  8  1  0  0  0  0
  6  9  1  0  0  0  0
  6 11  1  0  0  0  0
  7  8  1  0  0  0  0
  7 10  1  0  0  0  0
  7 12  1  0  0  0  0
  8 19  1  0  0  0  0
  8 20  1  0  0  0  0
 11 21  1  0  0  0  0
 11 22  1  0  0  0  0
 11 23  1  0  0  0  0
 12 24  1  0  0  0  0
 12 25  1  0  0  0  0
 12 26  1  0  0  0  0
 13 14  2  0  0  0  0
 13 15  1  0  0  0  0
 14 17  1  0  0  0  0
 14 27  1  0  0  0  0
 15 16  2  0  0  0  0
 15 28  1  0  0  0  0
 16 18  1  0  0  0  0
 17 18  2  0  0  0  0
 18 29  1  0  0  0  0
M  END
> <PUBCHEM_COMPOUND_CID>
36242

> <PUBCHEM_CONFORMER_RMSD>
0.6

> <PUBCHEM_CONFORMER_DIVERSEORDER>
2
1
3

> <PUBCHEM_MMFF94_PARTIAL_CHARGES>
23
1 -0.18
10 0.63
11 0.09
12 0.09
13 0.12
14 -0.15
15 -0.15
16 0.18
17 0.18
18 -0.15
19 0.1
2 -0.18
20 0.1
27 0.15
28 0.15
29 0.15
3 -0.57
4 -0.57
5 -0.24
6 -0.09
7 -0.09
8 -0.2
9 0.63

> <PUBCHEM_EFFECTIVE_ROTOR_COUNT>
1.4

> <PUBCHEM_PHARMACOPHORE_FEATURES>
4
1 3 acceptor
1 4 acceptor
6 13 14 15 16 17 18 rings
6 5 6 7 8 9 10 rings

> <PUBCHEM_HEAVY_ATOM_COUNT>
18

> <PUBCHEM_ATOM_DEF_STEREO_COUNT>
0

> <PUBCHEM_ATOM_UDEF_STEREO_COUNT>
2

> <PUBCHEM_BOND_DEF_STEREO_COUNT>
0

> <PUBCHEM_BOND_UDEF_STEREO_COUNT>
0

> <PUBCHEM_ISOTOPIC_ATOM_COUNT>
0

> <PUBCHEM_COMPONENT_COUNT>
1

> <PUBCHEM_CACTVS_TAUTO_COUNT>
1

> <PUBCHEM_CONFORMER_ID>
00008D9200000002

> <PUBCHEM_MMFF94_ENERGY>
58.2464

> <PUBCHEM_FEATURE_SELFOVERLAP>
20.297

> <PUBCHEM_SHAPE_FINGERPRINT>
10608611 8 18410578391999237709
10616163 171 18411699863799845599
10646746 165 18413110575836019124
10967382 1 18192431861822095570
1100329 8 16461919757877335576
11132069 177 18410299133040873224
12032990 46 18334006203333673646
12403259 226 18336830779996366611
12500047 106 18270401732115231877
12654215 9 18261960759842446708
13134695 92 16950569917210741544
13140716 1 18410018762139861216
13224815 77 18341892957105226751
13296908 3 18261108586490710390
13675066 3 18186811279019881714
13760787 19 17988922327093047866
14178342 30 18270977819978161339
14289901 80 18130787823978315793
15196674 1 18410292497295113354
15219456 202 18408322193991010567
15375358 24 18262811772951821329
16945 1 18194680591034941984
18186145 218 18262233434035477041
19049666 15 18336828714116915339
200 152 17676496025547051007
20261772 1 17970624087106846607
20510252 161 18409726223453710777
20645477 56 18199747106604395613
20645477 70 17531529892184667830
21267235 1 18410566301508069923
21501502 16 18343023276443778641
221490 88 18409158905455700286
22943178 12 18334579044295850395
2334 1 18336267851454419688
23402539 116 18200604579444783951
23557571 272 18410004446855582005
23558518 356 18130786720694232769
23559900 14 18264490766395150830
25 1 18122631819023493941
2748010 2 18334297569614525884
2871803 45 18341055116745523087
335352 9 18194685001628621820
495365 180 17678764416186456425
5104073 3 18410013229942182288
6049 1 18334852797137686265
6438718 38 16154819323195487385
69090 78 18336272314400174535
7097593 13 17700716191657887458
81228 2 18131346376713296953
8809292 202 18413102879275970731
9709674 26 18408605889814297887

> <PUBCHEM_SHAPE_MULTIPOLES>
357.45
7.89
2.66
0.89
1.03
0.17
-0.01
0.06
0.43
2.36
0.15
-0.52
-0.07
1.12

> <PUBCHEM_SHAPE_SELFOVERLAP>
768.534

> <PUBCHEM_SHAPE_VOLUME>
203.3

> <PUBCHEM_COORDINATE_TYPE>
2
5
10

$$$$

