10065
  -OEChem-07051213053D

 51 54  0     1  0  0  0  0  0999 V2000
   -0.6765   -0.1698    1.2275 F   0  0  0  0  0  0  0  0  0  0  0  0
    4.9751   -0.7608    0.1797 O   0  0  0  0  0  0  0  0  0  0  0  0
    0.0305   -2.6102   -0.9139 O   0  0  0  0  0  0  0  0  0  0  0  0
   -5.3235    0.2078    1.5716 O   0  0  0  0  0  0  0  0  0  0  0  0
    2.5474   -0.3830   -0.1085 C   0  0  1  0  0  0  0  0  0  0  0  0
    1.7110    0.8943    0.1460 C   0  0  2  0  0  0  0  0  0  0  0  0
    0.3679    0.8905   -0.6039 C   0  0  1  0  0  0  0  0  0  0  0  0
   -0.4756   -0.3420   -0.1223 C   0  0  2  0  0  0  0  0  0  0  0  0
    3.8538   -0.0255    0.6636 C   0  0  2  0  0  0  0  0  0  0  0  0
    2.6966    2.0250   -0.1309 C   0  0  0  0  0  0  0  0  0  0  0  0
   -1.8959   -0.3831   -0.7856 C   0  0  2  0  0  0  0  0  0  0  0  0
    1.7484   -1.5897    0.3995 C   0  0  0  0  0  0  0  0  0  0  0  0
    4.0572    1.4779    0.3394 C   0  0  0  0  0  0  0  0  0  0  0  0
   -0.3929    2.2126   -0.3965 C   0  0  0  0  0  0  0  0  0  0  0  0
    0.3881   -1.6138   -0.2903 C   0  0  0  0  0  0  0  0  0  0  0  0
    2.8765   -0.6202   -1.6129 C   0  0  0  0  0  0  0  0  0  0  0  0
   -2.5424    0.9839   -0.5039 C   0  0  0  0  0  0  0  0  0  0  0  0
   -1.7861    2.1818   -1.0252 C   0  0  0  0  0  0  0  0  0  0  0  0
   -2.7981   -1.5281   -0.2339 C   0  0  0  0  0  0  0  0  0  0  0  0
    3.8055   -0.2463    2.1807 C   0  0  0  0  0  0  0  0  0  0  0  0
   -1.8151   -0.6011   -2.3196 C   0  0  0  0  0  0  0  0  0  0  0  0
   -3.4626   -1.2260    1.0977 C   0  0  0  0  0  0  0  0  0  0  0  0
   -3.6383    1.1741    0.2489 C   0  0  0  0  0  0  0  0  0  0  0  0
   -4.2509    0.0517    0.9929 C   0  0  0  0  0  0  0  0  0  0  0  0
    1.4674    0.9548    1.2172 H   0  0  0  0  0  0  0  0  0  0  0  0
    0.5697    0.8022   -1.6766 H   0  0  0  0  0  0  0  0  0  0  0  0
    2.4300    2.9392    0.4095 H   0  0  0  0  0  0  0  0  0  0  0  0
    2.7345    2.2729   -1.1976 H   0  0  0  0  0  0  0  0  0  0  0  0
    1.5582   -1.5457    1.4771 H   0  0  0  0  0  0  0  0  0  0  0  0
    2.2768   -2.5277    0.1963 H   0  0  0  0  0  0  0  0  0  0  0  0
    4.8094    1.6266   -0.4447 H   0  0  0  0  0  0  0  0  0  0  0  0
    4.4067    2.0358    1.2159 H   0  0  0  0  0  0  0  0  0  0  0  0
    0.1723    3.0439   -0.8341 H   0  0  0  0  0  0  0  0  0  0  0  0
   -0.4830    2.4241    0.6773 H   0  0  0  0  0  0  0  0  0  0  0  0
    3.4456    0.2046   -2.0526 H   0  0  0  0  0  0  0  0  0  0  0  0
    3.4763   -1.5296   -1.7365 H   0  0  0  0  0  0  0  0  0  0  0  0
    1.9810   -0.7551   -2.2265 H   0  0  0  0  0  0  0  0  0  0  0  0
   -1.7164    2.1459   -2.1176 H   0  0  0  0  0  0  0  0  0  0  0  0
   -2.3023    3.1195   -0.7852 H   0  0  0  0  0  0  0  0  0  0  0  0
   -2.2462   -2.4684   -0.1462 H   0  0  0  0  0  0  0  0  0  0  0  0
   -3.6022   -1.7280   -0.9577 H   0  0  0  0  0  0  0  0  0  0  0  0
    4.7398    0.0873    2.6482 H   0  0  0  0  0  0  0  0  0  0  0  0
    2.9823    0.2866    2.6639 H   0  0  0  0  0  0  0  0  0  0  0  0
    3.7194   -1.3129    2.4161 H   0  0  0  0  0  0  0  0  0  0  0  0
   -1.1090    0.0692   -2.8162 H   0  0  0  0  0  0  0  0  0  0  0  0
   -1.5151   -1.6239   -2.5687 H   0  0  0  0  0  0  0  0  0  0  0  0
   -2.7931   -0.4350   -2.7887 H   0  0  0  0  0  0  0  0  0  0  0  0
    5.7751   -0.4017    0.6001 H   0  0  0  0  0  0  0  0  0  0  0  0
   -2.7374   -1.1334    1.9111 H   0  0  0  0  0  0  0  0  0  0  0  0
   -4.1516   -2.0400    1.3496 H   0  0  0  0  0  0  0  0  0  0  0  0
   -4.0556    2.1603    0.4216 H   0  0  0  0  0  0  0  0  0  0  0  0
  1  8  1  0  0  0  0
  2  9  1  0  0  0  0
  2 48  1  0  0  0  0
  3 15  2  0  0  0  0
  4 24  2  0  0  0  0
  5  6  1  0  0  0  0
  5  9  1  0  0  0  0
  5 12  1  0  0  0  0
  5 16  1  0  0  0  0
  6  7  1  0  0  0  0
  6 10  1  0  0  0  0
  6 25  1  0  0  0  0
  7  8  1  0  0  0  0
  7 14  1  0  0  0  0
  7 26  1  0  0  0  0
  8 11  1  0  0  0  0
  8 15  1  0  0  0  0
  9 13  1  0  0  0  0
  9 20  1  0  0  0  0
 10 13  1  0  0  0  0
 10 27  1  0  0  0  0
 10 28  1  0  0  0  0
 11 17  1  0  0  0  0
 11 19  1  0  0  0  0
 11 21  1  0  0  0  0
 12 15  1  0  0  0  0
 12 29  1  0  0  0  0
 12 30  1  0  0  0  0
 13 31  1  0  0  0  0
 13 32  1  0  0  0  0
 14 18  1  0  0  0  0
 14 33  1  0  0  0  0
 14 34  1  0  0  0  0
 16 35  1  0  0  0  0
 16 36  1  0  0  0  0
 16 37  1  0  0  0  0
 17 18  1  0  0  0  0
 17 23  2  0  0  0  0
 18 38  1  0  0  0  0
 18 39  1  0  0  0  0
 19 22  1  0  0  0  0
 19 40  1  0  0  0  0
 19 41  1  0  0  0  0
 20 42  1  0  0  0  0
 20 43  1  0  0  0  0
 20 44  1  0  0  0  0
 21 45  1  0  0  0  0
 21 46  1  0  0  0  0
 21 47  1  0  0  0  0
 22 24  1  0  0  0  0
 22 49  1  0  0  0  0
 22 50  1  0  0  0  0
 23 24  1  0  0  0  0
 23 51  1  0  0  0  0
M  END
> <PUBCHEM_COMPOUND_CID>
10065

> <PUBCHEM_CONFORMER_RMSD>
0.6

> <PUBCHEM_CONFORMER_DIVERSEORDER>
1

> <PUBCHEM_MMFF94_PARTIAL_CHARGES>
16
1 -0.34
11 0.14
12 0.06
15 0.45
17 -0.28
18 0.14
2 -0.68
22 0.06
23 -0.14
24 0.49
3 -0.57
4 -0.57
48 0.4
51 0.15
8 0.4
9 0.28

> <PUBCHEM_EFFECTIVE_ROTOR_COUNT>
1.6

> <PUBCHEM_PHARMACOPHORE_FEATURES>
8
1 2 acceptor
1 2 donor
1 3 acceptor
1 4 acceptor
5 5 6 9 10 13 rings
6 11 17 19 22 23 24 rings
6 5 6 7 8 12 15 rings
6 7 8 11 14 17 18 rings

> <PUBCHEM_HEAVY_ATOM_COUNT>
24

> <PUBCHEM_ATOM_DEF_STEREO_COUNT>
6

> <PUBCHEM_ATOM_UDEF_STEREO_COUNT>
0

> <PUBCHEM_BOND_DEF_STEREO_COUNT>
0

> <PUBCHEM_BOND_UDEF_STEREO_COUNT>
0

> <PUBCHEM_ISOTOPIC_ATOM_COUNT>
0

> <PUBCHEM_COMPONENT_COUNT>
1

> <PUBCHEM_CACTVS_TAUTO_COUNT>
10

> <PUBCHEM_CONFORMER_ID>
0000275100000001

> <PUBCHEM_MMFF94_ENERGY>
86.2344

> <PUBCHEM_FEATURE_SELFOVERLAP>
40.708

> <PUBCHEM_SHAPE_FINGERPRINT>
10863032 1 15574711382920436311
11132069 177 18409167714385709829
11796584 16 15123511372505489601
11961588 58 5111997318764366921
12173636 292 16877663482905394893
12236239 1 17894353259390198167
12403259 415 18335426781279173224
12403814 3 18409736149212977661
12422481 6 18339363096750489025
12553582 1 18342740719087778324
12633257 1 18201146694574792715
12892183 10 17703803534746712328
13140716 1 18339359652170828153
13214271 11 18413393154951666901
13224815 77 18342463620804087452
13581323 91 15482672385751531938
13583140 156 17274283680884346476
13675066 3 17967531259491639234
14178342 30 18194966481206780968
14223421 5 18199186359446691245
14787075 74 17415840185137963250
14790565 3 18196076751559283068
15196674 1 18412265008392014308
15209289 33 17561362889609812411
15209294 21 17894630335940531147
15309172 13 18410295804562583535
16945 1 18341904037994133188
17349148 13 16989124257772903010
1813 80 16845281731722574391
18186145 218 18040998462059858606
19784866 170 18411130368485018251
20028762 73 18191862328286385007
20261772 1 18410012121898621850
20739085 24 18342726395493691588
20871999 31 9007061279043390523
21033648 29 17895771702014447456
21069387 34 12391509797758282723
21267235 1 18343012302749576907
22182313 1 18192993935554677310
23184049 59 18410289181606877549
2334 1 18338804403036116732
23559900 14 17915451903436818590
2748010 2 18120664779762472590
2838139 119 15576111199532338073
296302 2 15140681371200410889
350125 39 18410004460215367160
4340502 62 17895182312801481667
465052 167 17916852548501803419
5104073 3 18337675209020876658
7064713 232 18186800266633921203
7097593 13 17414453988527520794

> <PUBCHEM_SHAPE_MULTIPOLES>
469.03
8.52
2.15
1.55
0.13
0.32
-0.07
0.19
3.93
-0.04
-0.43
-0.28
-0.34
0.16

> <PUBCHEM_SHAPE_SELFOVERLAP>
1021.12

> <PUBCHEM_SHAPE_VOLUME>
256.9

> <PUBCHEM_COORDINATE_TYPE>
2
5
10

$$$$

