441854
  -OEChem-07051212563D

 81 86  0     1  0  0  0  0  0999 V2000
    3.9756   -1.6026    0.5967 O   0  0  0  0  0  0  0  0  0  0  0  0
   -3.9311   -0.5876   -0.6127 O   0  0  0  0  0  0  0  0  0  0  0  0
    0.3568    2.6499   -0.0508 O   0  0  0  0  0  0  0  0  0  0  0  0
    2.9137    2.8513   -0.7899 O   0  0  0  0  0  0  0  0  0  0  0  0
    8.2455    0.2556    0.4775 O   0  0  0  0  0  0  0  0  0  0  0  0
   -5.3773    1.2276   -1.1177 O   0  0  0  0  0  0  0  0  0  0  0  0
    8.5803   -2.0178    0.3515 O   0  0  0  0  0  0  0  0  0  0  0  0
   -8.1916   -1.5552    0.0916 O   0  0  0  0  0  0  0  0  0  0  0  0
   -7.6735    0.7646    1.7225 O   0  0  0  0  0  0  0  0  0  0  0  0
    3.0659   -0.6660   -0.0011 C   0  0  1  0  0  0  0  0  0  0  0  0
    1.6889   -0.8376    0.6938 C   0  0  1  0  0  0  0  0  0  0  0  0
    3.6556    0.7476    0.1414 C   0  0  1  0  0  0  0  0  0  0  0  0
   -0.7318    0.0936    1.0688 C   0  0  2  0  0  0  0  0  0  0  0  0
    0.7187    0.3500    0.5321 C   0  0  0  0  0  0  0  0  0  0  0  0
   -1.2653   -1.3046    0.6112 C   0  0  2  0  0  0  0  0  0  0  0  0
    4.8150    0.7554   -0.9023 C   0  0  2  0  0  0  0  0  0  0  0  0
    3.0756   -0.8879   -1.5255 C   0  0  0  0  0  0  0  0  0  0  0  0
    1.0743   -2.2011    0.3071 C   0  0  0  0  0  0  0  0  0  0  0  0
   -0.2895   -2.4389    0.9303 C   0  0  0  0  0  0  0  0  0  0  0  0
    4.2834   -0.1086   -2.0619 C   0  0  0  0  0  0  0  0  0  0  0  0
   -1.8506    1.1211    0.6936 C   0  0  0  0  0  0  0  0  0  0  0  0
    2.6023    1.7810   -0.2632 C   0  0  0  0  0  0  0  0  0  0  0  0
   -1.6437   -1.3226   -0.8899 C   0  0  0  0  0  0  0  0  0  0  0  0
    1.1652    1.5412    0.0715 C   0  0  0  0  0  0  0  0  0  0  0  0
    4.1061    1.1117    1.5641 C   0  0  0  0  0  0  0  0  0  0  0  0
   -2.6911   -0.2698   -1.2403 C   0  0  2  0  0  0  0  0  0  0  0  0
   -2.2447    1.1136   -0.7858 C   0  0  0  0  0  0  0  0  0  0  0  0
   -0.6408    0.1437    2.6198 C   0  0  0  0  0  0  0  0  0  0  0  0
    6.1350    0.2349   -0.4095 C   0  0  0  0  0  0  0  0  0  0  0  0
    7.1723    1.1372    0.1306 C   0  0  0  0  0  0  0  0  0  0  0  0
    6.5406   -1.0319   -0.3877 C   0  0  0  0  0  0  0  0  0  0  0  0
   -5.0368   -0.1338   -1.3879 C   0  0  2  0  0  0  0  0  0  0  0  0
    7.8905   -1.0279    0.1780 C   0  0  0  0  0  0  0  0  0  0  0  0
   -6.2509   -1.0480   -1.2440 C   0  0  0  0  0  0  0  0  0  0  0  0
   -6.9416   -0.8689    0.1067 C   0  0  1  0  0  0  0  0  0  0  0  0
   -5.9138    1.4334    0.1917 C   0  0  2  0  0  0  0  0  0  0  0  0
   -7.1938    0.6125    0.3887 C   0  0  2  0  0  0  0  0  0  0  0  0
   -6.1770    2.9281    0.3480 C   0  0  0  0  0  0  0  0  0  0  0  0
   -8.0165   -2.9434   -0.1470 C   0  0  0  0  0  0  0  0  0  0  0  0
    1.8863   -0.9024    1.7737 H   0  0  0  0  0  0  0  0  0  0  0  0
   -2.1840   -1.5225    1.1757 H   0  0  0  0  0  0  0  0  0  0  0  0
    5.0037    1.7625   -1.2954 H   0  0  0  0  0  0  0  0  0  0  0  0
    2.1629   -0.5082   -1.9991 H   0  0  0  0  0  0  0  0  0  0  0  0
    3.1751   -1.9483   -1.7828 H   0  0  0  0  0  0  0  0  0  0  0  0
    1.7447   -3.0094    0.6254 H   0  0  0  0  0  0  0  0  0  0  0  0
    0.9886   -2.2948   -0.7805 H   0  0  0  0  0  0  0  0  0  0  0  0
   -0.6919   -3.3931    0.5686 H   0  0  0  0  0  0  0  0  0  0  0  0
   -0.1821   -2.5531    2.0150 H   0  0  0  0  0  0  0  0  0  0  0  0
    5.0228   -0.7734   -2.5200 H   0  0  0  0  0  0  0  0  0  0  0  0
    3.9380    0.5464   -2.8727 H   0  0  0  0  0  0  0  0  0  0  0  0
   -1.5941    2.1358    1.0145 H   0  0  0  0  0  0  0  0  0  0  0  0
   -2.7525    0.8825    1.2756 H   0  0  0  0  0  0  0  0  0  0  0  0
   -0.7592   -1.1535   -1.5141 H   0  0  0  0  0  0  0  0  0  0  0  0
   -2.0375   -2.3150   -1.1431 H   0  0  0  0  0  0  0  0  0  0  0  0
    3.2602    1.1135    2.2612 H   0  0  0  0  0  0  0  0  0  0  0  0
    4.8527    0.4232    1.9700 H   0  0  0  0  0  0  0  0  0  0  0  0
    4.5315    2.1219    1.5890 H   0  0  0  0  0  0  0  0  0  0  0  0
   -2.7913   -0.2790   -2.3329 H   0  0  0  0  0  0  0  0  0  0  0  0
   -3.0269    1.8613   -0.9418 H   0  0  0  0  0  0  0  0  0  0  0  0
   -1.3959    1.4260   -1.4028 H   0  0  0  0  0  0  0  0  0  0  0  0
   -1.6080   -0.0894    3.0804 H   0  0  0  0  0  0  0  0  0  0  0  0
    0.0854   -0.5624    3.0326 H   0  0  0  0  0  0  0  0  0  0  0  0
   -0.3470    1.1440    2.9607 H   0  0  0  0  0  0  0  0  0  0  0  0
    3.9162   -1.5228    1.5631 H   0  0  0  0  0  0  0  0  0  0  0  0
    7.5293    1.8507   -0.6180 H   0  0  0  0  0  0  0  0  0  0  0  0
    6.8544    1.6727    1.0280 H   0  0  0  0  0  0  0  0  0  0  0  0
    0.9042    3.3891   -0.3668 H   0  0  0  0  0  0  0  0  0  0  0  0
    6.0427   -1.9240   -0.7248 H   0  0  0  0  0  0  0  0  0  0  0  0
   -4.7811   -0.1724   -2.4539 H   0  0  0  0  0  0  0  0  0  0  0  0
   -5.9271   -2.0851   -1.3847 H   0  0  0  0  0  0  0  0  0  0  0  0
   -6.9732   -0.8206   -2.0393 H   0  0  0  0  0  0  0  0  0  0  0  0
   -6.3243   -1.2884    0.9126 H   0  0  0  0  0  0  0  0  0  0  0  0
   -5.1626    1.1509    0.9396 H   0  0  0  0  0  0  0  0  0  0  0  0
   -7.9842    0.9744   -0.2805 H   0  0  0  0  0  0  0  0  0  0  0  0
   -6.5512    3.1708    1.3470 H   0  0  0  0  0  0  0  0  0  0  0  0
   -5.2554    3.4952    0.1763 H   0  0  0  0  0  0  0  0  0  0  0  0
   -6.9028    3.2774   -0.3945 H   0  0  0  0  0  0  0  0  0  0  0  0
   -6.9756    0.4608    2.3277 H   0  0  0  0  0  0  0  0  0  0  0  0
   -7.2015   -3.3624    0.4522 H   0  0  0  0  0  0  0  0  0  0  0  0
   -7.8623   -3.1432   -1.2111 H   0  0  0  0  0  0  0  0  0  0  0  0
   -8.9419   -3.4496    0.1441 H   0  0  0  0  0  0  0  0  0  0  0  0
  1 10  1  0  0  0  0
  1 64  1  0  0  0  0
  2 26  1  0  0  0  0
  2 32  1  0  0  0  0
  3 24  1  0  0  0  0
  3 67  1  0  0  0  0
  4 22  2  0  0  0  0
  5 30  1  0  0  0  0
  5 33  1  0  0  0  0
  6 32  1  0  0  0  0
  6 36  1  0  0  0  0
  7 33  2  0  0  0  0
  8 35  1  0  0  0  0
  8 39  1  0  0  0  0
  9 37  1  0  0  0  0
  9 78  1  0  0  0  0
 10 11  1  0  0  0  0
 10 12  1  0  0  0  0
 10 17  1  0  0  0  0
 11 14  1  0  0  0  0
 11 18  1  0  0  0  0
 11 40  1  0  0  0  0
 12 16  1  0  0  0  0
 12 22  1  0  0  0  0
 12 25  1  0  0  0  0
 13 14  1  0  0  0  0
 13 15  1  0  0  0  0
 13 21  1  0  0  0  0
 13 28  1  0  0  0  0
 14 24  2  0  0  0  0
 15 19  1  0  0  0  0
 15 23  1  0  0  0  0
 15 41  1  0  0  0  0
 16 20  1  0  0  0  0
 16 29  1  0  0  0  0
 16 42  1  0  0  0  0
 17 20  1  0  0  0  0
 17 43  1  0  0  0  0
 17 44  1  0  0  0  0
 18 19  1  0  0  0  0
 18 45  1  0  0  0  0
 18 46  1  0  0  0  0
 19 47  1  0  0  0  0
 19 48  1  0  0  0  0
 20 49  1  0  0  0  0
 20 50  1  0  0  0  0
 21 27  1  0  0  0  0
 21 51  1  0  0  0  0
 21 52  1  0  0  0  0
 22 24  1  0  0  0  0
 23 26  1  0  0  0  0
 23 53  1  0  0  0  0
 23 54  1  0  0  0  0
 25 55  1  0  0  0  0
 25 56  1  0  0  0  0
 25 57  1  0  0  0  0
 26 27  1  0  0  0  0
 26 58  1  0  0  0  0
 27 59  1  0  0  0  0
 27 60  1  0  0  0  0
 28 61  1  0  0  0  0
 28 62  1  0  0  0  0
 28 63  1  0  0  0  0
 29 30  1  0  0  0  0
 29 31  2  0  0  0  0
 30 65  1  0  0  0  0
 30 66  1  0  0  0  0
 31 33  1  0  0  0  0
 31 68  1  0  0  0  0
 32 34  1  0  0  0  0
 32 69  1  0  0  0  0
 34 35  1  0  0  0  0
 34 70  1  0  0  0  0
 34 71  1  0  0  0  0
 35 37  1  0  0  0  0
 35 72  1  0  0  0  0
 36 37  1  0  0  0  0
 36 38  1  0  0  0  0
 36 73  1  0  0  0  0
 37 74  1  0  0  0  0
 38 75  1  0  0  0  0
 38 76  1  0  0  0  0
 38 77  1  0  0  0  0
 39 79  1  0  0  0  0
 39 80  1  0  0  0  0
 39 81  1  0  0  0  0
M  END
> <PUBCHEM_COMPOUND_CID>
441854

> <PUBCHEM_CONFORMER_RMSD>
1

> <PUBCHEM_CONFORMER_DIVERSEORDER>
2
31
10
26
28
15
21
22
6
17
35
36
27
30
23
19
11
8
18
4
20
5
14
32
33
29
7
24
16
12
3
34
9
25
1
13

> <PUBCHEM_MMFF94_PARTIAL_CHARGES>
31
1 -0.68
10 0.28
11 0.14
12 0.06
13 0.14
14 -0.28
16 0.14
2 -0.56
22 0.49
24 0.09
26 0.28
29 -0.28
3 -0.53
30 0.42
31 -0.14
32 0.56
33 0.71
35 0.28
36 0.28
37 0.28
39 0.28
4 -0.57
5 -0.43
6 -0.56
64 0.4
67 0.45
68 0.15
7 -0.57
78 0.4
8 -0.56
9 -0.68

> <PUBCHEM_EFFECTIVE_ROTOR_COUNT>
7.4

> <PUBCHEM_PHARMACOPHORE_FEATURES>
16
1 1 acceptor
1 1 donor
1 2 acceptor
1 3 donor
1 4 acceptor
1 6 acceptor
1 7 acceptor
1 8 acceptor
1 9 acceptor
1 9 donor
5 10 12 16 17 20 rings
5 5 29 30 31 33 rings
6 10 11 12 14 22 24 rings
6 11 13 14 15 18 19 rings
6 13 15 21 23 26 27 rings
6 6 32 34 35 36 37 rings

> <PUBCHEM_HEAVY_ATOM_COUNT>
39

> <PUBCHEM_ATOM_DEF_STEREO_COUNT>
11

> <PUBCHEM_ATOM_UDEF_STEREO_COUNT>
0

> <PUBCHEM_BOND_DEF_STEREO_COUNT>
0

> <PUBCHEM_BOND_UDEF_STEREO_COUNT>
0

> <PUBCHEM_ISOTOPIC_ATOM_COUNT>
0

> <PUBCHEM_COMPONENT_COUNT>
1

> <PUBCHEM_CACTVS_TAUTO_COUNT>
9

> <PUBCHEM_CONFORMER_ID>
0006BDFE00000002

> <PUBCHEM_MMFF94_ENERGY>
126.7763

> <PUBCHEM_FEATURE_SELFOVERLAP>
81.471

> <PUBCHEM_SHAPE_FINGERPRINT>
10670039 82 18409174333516414725
11135926 11 18339369655313691375
11456790 92 18342460374357613848
11578080 2 17415552117877616380
11828532 37 18058439920321840446
12082328 90 18334859428936554055
12664476 115 18040156219658811209
12741549 16 17240771709870416104
13782708 43 16558196050186540803
13811026 1 17988923344799732971
14294032 229 18131637806912743973
14394314 77 18338515356291175505
14849402 71 18341892957132256781
14856354 85 18410572852441122023
15131766 46 15265058028684212942
15183329 4 18334020505848978701
15301273 46 9727636107284564086
15840311 113 16630525108264954182
18608769 82 18412263917813095615
19841028 212 18264768938838104974
21033648 29 17631453368011444920
21223535 225 18262524804812867925
21267235 1 18410576175595406220
21781051 124 17846213315504981267
21792961 116 17346317141959987466
22224240 67 7781512621023379892
23559900 14 18188502259289731616
23569917 315 18410851097160048058
23569943 247 18050845821606763146
3178227 256 18273208707617135760
335352 9 18343861105216520380
335507 130 17967532338362082279
4093350 32 17313105224980480828
4098825 35 18260550025882959296
4325135 7 16702023067689860975
4339292 15 16805897183031344071
484989 97 18129656388191490307
6009941 240 5328459311539276797
6523845 18 15985112881486124430

> <PUBCHEM_SHAPE_MULTIPOLES>
749.78
24.22
2.54
1.47
8.16
0.2
-0.19
-5.12
0.46
2.16
-0.12
0.24
0.02
-0.7

> <PUBCHEM_SHAPE_SELFOVERLAP>
1623.674

> <PUBCHEM_SHAPE_VOLUME>
408.3

> <PUBCHEM_COORDINATE_TYPE>
2
5
10

$$$$

