17395840
  -OEChem-06241222523D

 34 35  0     0  0  0  0  0  0999 V2000
    3.4613   -0.0902    0.9023 S   0  0  0  0  0  0  0  0  0  0  0  0
   -1.7835    1.6993   -0.4181 S   0  0  0  0  0  0  0  0  0  0  0  0
    0.9691   -2.0481   -0.2292 O   0  0  0  0  0  0  0  0  0  0  0  0
    0.4016    0.2208   -0.4977 N   0  0  0  0  0  0  0  0  0  0  0  0
   -1.7322   -0.8512   -0.0383 N   0  0  0  0  0  0  0  0  0  0  0  0
    5.1307    0.3415    0.2749 C   0  0  0  0  0  0  0  0  0  0  0  0
    5.0021    1.5248   -0.6886 C   0  0  0  0  0  0  0  0  0  0  0  0
    6.0116    0.7214    1.4686 C   0  0  0  0  0  0  0  0  0  0  0  0
    5.7130   -0.8757   -0.4493 C   0  0  0  0  0  0  0  0  0  0  0  0
    2.6957   -0.4720   -0.6867 C   0  0  0  0  0  0  0  0  0  0  0  0
    1.2556   -0.8740   -0.4484 C   0  0  0  0  0  0  0  0  0  0  0  0
   -0.9818    0.1929   -0.3020 C   0  0  0  0  0  0  0  0  0  0  0  0
   -3.2835    0.9151   -0.0896 C   0  0  0  0  0  0  0  0  0  0  0  0
   -3.0555   -0.4531    0.0856 C   0  0  0  0  0  0  0  0  0  0  0  0
   -4.5696    1.4706    0.0056 C   0  0  0  0  0  0  0  0  0  0  0  0
   -4.1554   -1.2929    0.3655 C   0  0  0  0  0  0  0  0  0  0  0  0
   -5.6408    0.6175    0.2837 C   0  0  0  0  0  0  0  0  0  0  0  0
   -5.4385   -0.7467    0.4617 C   0  0  0  0  0  0  0  0  0  0  0  0
    4.5653    1.2567   -1.6548 H   0  0  0  0  0  0  0  0  0  0  0  0
    4.4238    2.3498   -0.2566 H   0  0  0  0  0  0  0  0  0  0  0  0
    5.9970    1.9262   -0.9208 H   0  0  0  0  0  0  0  0  0  0  0  0
    6.1112   -0.1077    2.1790 H   0  0  0  0  0  0  0  0  0  0  0  0
    5.6103    1.5867    2.0093 H   0  0  0  0  0  0  0  0  0  0  0  0
    7.0227    0.9871    1.1385 H   0  0  0  0  0  0  0  0  0  0  0  0
    5.6611   -1.7841    0.1620 H   0  0  0  0  0  0  0  0  0  0  0  0
    5.2413   -1.0753   -1.4157 H   0  0  0  0  0  0  0  0  0  0  0  0
    6.7742   -0.7055   -0.6713 H   0  0  0  0  0  0  0  0  0  0  0  0
    3.1739   -1.3239   -1.1763 H   0  0  0  0  0  0  0  0  0  0  0  0
    2.7060    0.3799   -1.3699 H   0  0  0  0  0  0  0  0  0  0  0  0
    0.7859    1.1435   -0.6835 H   0  0  0  0  0  0  0  0  0  0  0  0
   -4.7352    2.5347   -0.1324 H   0  0  0  0  0  0  0  0  0  0  0  0
   -4.0086   -2.3600    0.5064 H   0  0  0  0  0  0  0  0  0  0  0  0
   -6.6445    1.0272    0.3616 H   0  0  0  0  0  0  0  0  0  0  0  0
   -6.2835   -1.3949    0.6773 H   0  0  0  0  0  0  0  0  0  0  0  0
  1  6  1  0  0  0  0
  1 10  1  0  0  0  0
  2 12  1  0  0  0  0
  2 13  1  0  0  0  0
  3 11  2  0  0  0  0
  4 11  1  0  0  0  0
  4 12  1  0  0  0  0
  4 30  1  0  0  0  0
  5 12  2  0  0  0  0
  5 14  1  0  0  0  0
  6  7  1  0  0  0  0
  6  8  1  0  0  0  0
  6  9  1  0  0  0  0
  7 19  1  0  0  0  0
  7 20  1  0  0  0  0
  7 21  1  0  0  0  0
  8 22  1  0  0  0  0
  8 23  1  0  0  0  0
  8 24  1  0  0  0  0
  9 25  1  0  0  0  0
  9 26  1  0  0  0  0
  9 27  1  0  0  0  0
 10 11  1  0  0  0  0
 10 28  1  0  0  0  0
 10 29  1  0  0  0  0
 13 14  1  0  0  0  0
 13 15  2  0  0  0  0
 14 16  2  0  0  0  0
 15 17  1  0  0  0  0
 15 31  1  0  0  0  0
 16 18  1  0  0  0  0
 16 32  1  0  0  0  0
 17 18  2  0  0  0  0
 17 33  1  0  0  0  0
 18 34  1  0  0  0  0
M  END
> <PUBCHEM_COMPOUND_CID>
17395840

> <PUBCHEM_CONFORMER_RMSD>
0.6

> <PUBCHEM_CONFORMER_DIVERSEORDER>
1
21
20
22
19
12
15
9
8
18
11
14
16
13
23
4
25
17
24
3
10
6
5
7
2

> <PUBCHEM_MMFF94_PARTIAL_CHARGES>
20
1 -0.46
10 0.29
11 0.57
12 0.44
13 0.04
14 0.23
15 -0.15
16 -0.15
17 -0.15
18 -0.15
2 -0.08
3 -0.57
30 0.37
31 0.15
32 0.15
33 0.15
34 0.15
4 -0.49
5 -0.57
6 0.23

> <PUBCHEM_EFFECTIVE_ROTOR_COUNT>
5

> <PUBCHEM_PHARMACOPHORE_FEATURES>
5
1 3 acceptor
1 4 donor
4 6 7 8 9 hydrophobe
5 2 5 12 13 14 rings
6 13 14 15 16 17 18 rings

> <PUBCHEM_HEAVY_ATOM_COUNT>
18

> <PUBCHEM_ATOM_DEF_STEREO_COUNT>
0

> <PUBCHEM_ATOM_UDEF_STEREO_COUNT>
0

> <PUBCHEM_BOND_DEF_STEREO_COUNT>
0

> <PUBCHEM_BOND_UDEF_STEREO_COUNT>
0

> <PUBCHEM_ISOTOPIC_ATOM_COUNT>
0

> <PUBCHEM_COMPONENT_COUNT>
1

> <PUBCHEM_CACTVS_TAUTO_COUNT>
3

> <PUBCHEM_CONFORMER_ID>
0109708000000001

> <PUBCHEM_MMFF94_ENERGY>
41.6964

> <PUBCHEM_FEATURE_SELFOVERLAP>
25.443

> <PUBCHEM_SHAPE_FINGERPRINT>
10 15 18336836303825502112
10354089 29 18273216396420972160
11045977 3 18409448059680546354
12107183 9 17409946046857006064
12236239 1 17275105032933666209
12596602 18 17275103903558039640
12730499 353 17748820818022202894
12916748 109 18259703402726254480
13214271 11 18408887339242432647
13533116 47 16774086202261780224
13668630 136 13039185926930613168
13685833 64 11023820686966599309
13914758 101 15913340108621026183
1420 363 18410288120734157222
14251732 16 18271521996777120617
14251752 14 7060390197025456347
14251764 18 18060139821981906048
14341114 176 18409164424593858928
14341114 328 18060701684691449248
14848160 23 12895074020209595640
14933364 13 18408600362439106156
15048467 5 17822007636255537457
17834072 33 17918275342191426312
17834072 8 9151175363592063840
17844677 252 18409721889884826516
18222031 100 16487252188639621182
19489759 90 17989488532795131801
19784866 170 18410574011148205791
20281389 69 18260550043099998977
21150785 3 15140970543207233781
220451 1 16630522938504771650
22079108 93 18333455318001246694
22224240 67 18114183012788448143
2297311 6 18409721893952882284
23272321 79 18411980230479880133
23402539 116 17917996070527586007
23557571 272 18339634654684941916
23559900 14 18267296723778783310
2916195 48 18041005012037868456
300161 21 18272092733933543439
32948 21 8142086463782514978
34934 24 18340492261523618215
351380 180 18342176657165121104
3545911 37 18409164445694168558
42788 4 18410572889945346686
465052 167 12679464201382430816
474229 33 18412262822137791495
5104073 3 18268704086262380907
542803 24 18272369767534235908
960060 61 6843923897574618600

> <PUBCHEM_SHAPE_MULTIPOLES>
362.3
15.99
1.61
0.93
7.76
0.08
0.18
2.09
3.33
-0.49
-0.17
1.1
0.09
0.52

> <PUBCHEM_SHAPE_SELFOVERLAP>
729.554

> <PUBCHEM_SHAPE_VOLUME>
214.8

> <PUBCHEM_COORDINATE_TYPE>
2
5
10

$$$$

