442171
  -OEChem-07051212572D

 40 43  0     1  0  0  0  0  0999 V2000
    4.4836   -3.3206    0.0000 O   0  0  0  0  0  0  0  0  0  0  0  0
    2.3784   -1.5538    0.0000 O   0  0  0  0  0  0  0  0  0  0  0  0
    2.8573    0.2315    0.0000 O   0  0  0  0  0  0  0  0  0  0  0  0
    5.7604    1.7370    0.0000 O   0  0  0  0  0  0  0  0  0  0  0  0
    4.9557    3.3206    0.0000 O   0  0  0  0  0  0  0  0  0  0  0  0
    4.0547   -0.9660    0.0000 C   0  0  1  0  0  0  0  0  0  0  0  0
    4.9557   -1.3999    0.0000 C   0  0  1  0  0  0  0  0  0  0  0  0
    4.8197   -2.3846    0.0000 C   0  0  2  0  0  0  0  0  0  0  0  0
    3.8414   -2.5612    0.0000 C   0  0  2  0  0  0  0  0  0  0  0  0
    3.3696   -1.6863    0.0000 C   0  0  2  0  0  0  0  0  0  0  0  0
    5.8566   -0.9660    0.0000 C   0  0  1  0  0  0  0  0  0  0  0  0
    3.8322    0.0090    0.0000 C   0  0  2  0  0  0  0  0  0  0  0  0
    4.4557    0.7908    0.0000 C   0  0  1  0  0  0  0  0  0  0  0  0
    6.0792    0.0090    0.0000 C   0  0  0  0  0  0  0  0  0  0  0  0
    3.1537   -0.5321    0.0000 C   0  0  0  0  0  0  0  0  0  0  0  0
    5.4557    0.7908    0.0000 C   0  0  1  0  0  0  0  0  0  0  0  0
    6.6385   -1.5895    0.0000 C   0  0  0  0  0  0  0  0  0  0  0  0
    4.1509    1.7370    0.0000 C   0  0  0  0  0  0  0  0  0  0  0  0
    4.9557    2.3206    0.0000 C   0  0  0  0  0  0  0  0  0  0  0  0
    3.2004    2.0477    0.0000 C   0  0  0  0  0  0  0  0  0  0  0  0
    5.6427   -1.9004    0.0000 H   0  0  0  0  0  0  0  0  0  0  0  0
    5.4218   -2.5326    0.0000 H   0  0  0  0  0  0  0  0  0  0  0  0
    3.3291   -2.9104    0.0000 H   0  0  0  0  0  0  0  0  0  0  0  0
    3.1636   -1.1015    0.0000 H   0  0  0  0  0  0  0  0  0  0  0  0
    6.4418   -0.7612    0.0000 H   0  0  0  0  0  0  0  0  0  0  0  0
    3.3938   -0.4295    0.0000 H   0  0  0  0  0  0  0  0  0  0  0  0
    3.6195    0.9436    0.0000 H   0  0  0  0  0  0  0  0  0  0  0  0
    6.6378   -0.2601    0.0000 H   0  0  0  0  0  0  0  0  0  0  0  0
    6.4657    0.4937    0.0000 H   0  0  0  0  0  0  0  0  0  0  0  0
    3.4227    0.0265    0.0000 H   0  0  0  0  0  0  0  0  0  0  0  0
    2.5951   -0.2631    0.0000 H   0  0  0  0  0  0  0  0  0  0  0  0
    2.8847   -1.0907    0.0000 H   0  0  0  0  0  0  0  0  0  0  0  0
    6.2918    0.9436    0.0000 H   0  0  0  0  0  0  0  0  0  0  0  0
    6.2519   -2.0742    0.0000 H   0  0  0  0  0  0  0  0  0  0  0  0
    7.1232   -1.9760    0.0000 H   0  0  0  0  0  0  0  0  0  0  0  0
    7.0250   -1.1047    0.0000 H   0  0  0  0  0  0  0  0  0  0  0  0
    2.0000   -2.0449    0.0000 H   0  0  0  0  0  0  0  0  0  0  0  0
    2.6745    0.8239    0.0000 H   0  0  0  0  0  0  0  0  0  0  0  0
    3.0726    2.6543    0.0000 H   0  0  0  0  0  0  0  0  0  0  0  0
    2.7390    1.6336    0.0000 H   0  0  0  0  0  0  0  0  0  0  0  0
  8  1  1  1  0  0  0
  9  1  1  1  0  0  0
 10  2  1  6  0  0  0
  2 37  1  0  0  0  0
 12  3  1  1  0  0  0
  3 38  1  0  0  0  0
  4 16  1  0  0  0  0
  4 19  1  0  0  0  0
  5 19  2  0  0  0  0
  6  7  1  0  0  0  0
  6 10  1  0  0  0  0
  6 12  1  0  0  0  0
  6 15  1  6  0  0  0
  7  8  1  0  0  0  0
  7 11  1  0  0  0  0
  7 21  1  1  0  0  0
  8  9  1  0  0  0  0
  8 22  1  0  0  0  0
  9 10  1  0  0  0  0
  9 23  1  0  0  0  0
 10 24  1  0  0  0  0
 11 14  1  0  0  0  0
 11 17  1  1  0  0  0
 11 25  1  0  0  0  0
 12 13  1  0  0  0  0
 12 26  1  0  0  0  0
 13 16  1  0  0  0  0
 13 18  1  0  0  0  0
 13 27  1  1  0  0  0
 14 16  1  0  0  0  0
 14 28  1  0  0  0  0
 14 29  1  0  0  0  0
 15 30  1  0  0  0  0
 15 31  1  0  0  0  0
 15 32  1  0  0  0  0
 16 33  1  1  0  0  0
 17 34  1  0  0  0  0
 17 35  1  0  0  0  0
 17 36  1  0  0  0  0
 18 19  1  0  0  0  0
 18 20  2  0  0  0  0
 20 39  1  0  0  0  0
 20 40  1  0  0  0  0
M  END
> <PUBCHEM_COMPOUND_CID>
442171

> <PUBCHEM_COMPOUND_CANONICALIZED>
1

> <PUBCHEM_CACTVS_COMPLEXITY>
503

> <PUBCHEM_CACTVS_HBOND_ACCEPTOR>
5

> <PUBCHEM_CACTVS_HBOND_DONOR>
2

> <PUBCHEM_CACTVS_ROTATABLE_BOND>
0

> <PUBCHEM_CACTVS_SUBSKEYS>
AAADceBwOAAAAAAAAAAAAAAAEgAAAaIAAAAkAAAABgAAAADQAAAAGgAACAAADxSggAICCAAABgCIAgDSCAAAAAAgAAAAAAEAAEgBFBIAIQACQAAFwAADIIHK6PyPgAAAAAAAAAAAAAAAAAAAAIQADCAAAA==

> <PUBCHEM_IUPAC_INCHI>
InChI=1S/C15H20O5/c1-5-4-7-8(6(2)14(18)19-7)12(16)15(3)9(5)10-11(20-10)13(15)17/h5,7-13,16-17H,2,4H2,1,3H3/t5-,7-,8-,9-,10-,11-,12+,13+,15-/m1/s1

> <PUBCHEM_IUPAC_INCHIKEY>
NWSWVIKHALGAER-KVLFNOHQSA-N

> <PUBCHEM_XLOGP3_AA>
0.7

> <PUBCHEM_EXACT_MASS>
280.131074

> <PUBCHEM_MOLECULAR_FORMULA>
C15H20O5

> <PUBCHEM_MOLECULAR_WEIGHT>
280.3163

> <PUBCHEM_OPENEYE_CAN_SMILES>
CC1CC2C(C(C3(C1C4C(C3O)O4)C)O)C(=C)C(=O)O2

> <PUBCHEM_OPENEYE_ISO_SMILES>
C[C@@H]1C[C@@H]2[C@H]([C@@H]([C@]3([C@H]1[C@@H]4[C@H]([C@@H]3O)O4)C)O)C(=C)C(=O)O2

> <PUBCHEM_CACTVS_TPSA>
79.3

> <PUBCHEM_MONOISOTOPIC_WEIGHT>
280.131074

> <PUBCHEM_TOTAL_CHARGE>
0

> <PUBCHEM_HEAVY_ATOM_COUNT>
20

> <PUBCHEM_ATOM_DEF_STEREO_COUNT>
9

> <PUBCHEM_ATOM_UDEF_STEREO_COUNT>
0

> <PUBCHEM_BOND_DEF_STEREO_COUNT>
0

> <PUBCHEM_BOND_UDEF_STEREO_COUNT>
0

> <PUBCHEM_ISOTOPIC_ATOM_COUNT>
0

> <PUBCHEM_COMPONENT_COUNT>
1

> <PUBCHEM_CACTVS_TAUTO_COUNT>
1

> <PUBCHEM_COORDINATE_TYPE>
1
5
255

> <PUBCHEM_BONDANNOTATIONS>
8  1  5
9  1  5
11  17  5
13  27  5
16  33  5
10  2  6
12  3  5
6  15  6
7  21  5

$$$$

