5111791
  -OEChem-07051213142D

 18 18  0     0  0  0  0  0  0999 V2000
    6.0010   -2.1550    0.0000 O   0  5  0  0  0  0  0  0  0  0  0  0
    6.8671   -0.6550    0.0000 O   0  0  0  0  0  0  0  0  0  0  0  0
    4.2690    1.8450    0.0000 N   0  0  0  0  0  0  0  0  0  0  0  0
    2.5369    0.8450    0.0000 N   0  0  0  0  0  0  0  0  0  0  0  0
    6.0010   -1.1550    0.0000 N   0  3  0  0  0  0  0  0  0  0  0  0
    4.2690    0.8450    0.0000 C   0  0  0  0  0  0  0  0  0  0  0  0
    3.4030    0.3450    0.0000 C   0  0  0  0  0  0  0  0  0  0  0  0
    5.1350   -0.6550    0.0000 C   0  0  0  0  0  0  0  0  0  0  0  0
    5.1350    0.3450    0.0000 C   0  0  0  0  0  0  0  0  0  0  0  0
    3.4030   -0.6550    0.0000 C   0  0  0  0  0  0  0  0  0  0  0  0
    4.2690   -1.1550    0.0000 C   0  0  0  0  0  0  0  0  0  0  0  0
    5.6720    0.6550    0.0000 H   0  0  0  0  0  0  0  0  0  0  0  0
    2.8660   -0.9650    0.0000 H   0  0  0  0  0  0  0  0  0  0  0  0
    4.2690   -1.7750    0.0000 H   0  0  0  0  0  0  0  0  0  0  0  0
    4.8059    2.1550    0.0000 H   0  0  0  0  0  0  0  0  0  0  0  0
    3.7320    2.1550    0.0000 H   0  0  0  0  0  0  0  0  0  0  0  0
    2.0000    0.5350    0.0000 H   0  0  0  0  0  0  0  0  0  0  0  0
    2.5369    1.4650    0.0000 H   0  0  0  0  0  0  0  0  0  0  0  0
  1  5  1  0  0  0  0
  2  5  2  0  0  0  0
  3  6  1  0  0  0  0
  3 15  1  0  0  0  0
  3 16  1  0  0  0  0
  4  7  1  0  0  0  0
  4 17  1  0  0  0  0
  4 18  1  0  0  0  0
  5  8  1  0  0  0  0
  6  7  2  0  0  0  0
  6  9  1  0  0  0  0
  7 10  1  0  0  0  0
  8  9  2  0  0  0  0
  8 11  1  0  0  0  0
  9 12  1  0  0  0  0
 10 11  2  0  0  0  0
 10 13  1  0  0  0  0
 11 14  1  0  0  0  0
M  CHG  2   1  -1   5   1
M  END
> <PUBCHEM_COMPOUND_CID>
5111791

> <PUBCHEM_COMPOUND_CANONICALIZED>
1

> <PUBCHEM_CACTVS_COMPLEXITY>
156

> <PUBCHEM_CACTVS_HBOND_ACCEPTOR>
4

> <PUBCHEM_CACTVS_HBOND_DONOR>
2

> <PUBCHEM_CACTVS_ROTATABLE_BOND>
0

> <PUBCHEM_CACTVS_SUBSKEYS>
AAADcYBjMAAAAAAAAAAAAAAAAAAAAAAAAAAwAAAAAAAAAAABAAAAHAAUAAAACAiBEAAwwIBQQACBACRCQwCCAAAgAgAoiAAAdIoIYCKA0dGAIABgkAAIyAcQAAAAAACAAAQAACAAAQAACAAAQAAAAAAAAA==

> <PUBCHEM_IUPAC_OPENEYE_NAME>
4-nitrobenzene-1,2-diamine

> <PUBCHEM_IUPAC_CAS_NAME>
4-nitrobenzene-1,2-diamine

> <PUBCHEM_IUPAC_NAME>
4-nitrobenzene-1,2-diamine

> <PUBCHEM_IUPAC_SYSTEMATIC_NAME>
4-nitrobenzene-1,2-diamine

> <PUBCHEM_IUPAC_TRADITIONAL_NAME>
(2-amino-4-nitro-phenyl)amine

> <PUBCHEM_IUPAC_INCHI>
InChI=1S/C6H7N3O2/c7-5-2-1-4(9(10)11)3-6(5)8/h1-3H,7-8H2

> <PUBCHEM_IUPAC_INCHIKEY>
RAUWPNXIALNKQM-UHFFFAOYSA-N

> <PUBCHEM_XLOGP3>
0.9

> <PUBCHEM_EXACT_MASS>
153.053826

> <PUBCHEM_MOLECULAR_FORMULA>
C6H7N3O2

> <PUBCHEM_MOLECULAR_WEIGHT>
153.13868

> <PUBCHEM_OPENEYE_CAN_SMILES>
C1=CC(=C(C=C1[N+](=O)[O-])N)N

> <PUBCHEM_OPENEYE_ISO_SMILES>
C1=CC(=C(C=C1[N+](=O)[O-])N)N

> <PUBCHEM_CACTVS_TPSA>
97.9

> <PUBCHEM_MONOISOTOPIC_WEIGHT>
153.053826

> <PUBCHEM_TOTAL_CHARGE>
0

> <PUBCHEM_HEAVY_ATOM_COUNT>
11

> <PUBCHEM_ATOM_DEF_STEREO_COUNT>
0

> <PUBCHEM_ATOM_UDEF_STEREO_COUNT>
0

> <PUBCHEM_BOND_DEF_STEREO_COUNT>
0

> <PUBCHEM_BOND_UDEF_STEREO_COUNT>
0

> <PUBCHEM_ISOTOPIC_ATOM_COUNT>
0

> <PUBCHEM_COMPONENT_COUNT>
1

> <PUBCHEM_CACTVS_TAUTO_COUNT>
1

> <PUBCHEM_COORDINATE_TYPE>
1
5
255

> <PUBCHEM_BONDANNOTATIONS>
10  11  8
6  7  8
6  9  8
7  10  8
8  11  8
8  9  8

$$$$

