3684
  -OEChem-06251223352D

 93 96  0     1  0  0  0  0  0999 V2000
    9.1857    7.7940    0.0000 O   0  0  0  0  0  0  0  0  0  0  0  0
    2.5357    3.4864    0.0000 O   0  0  0  0  0  0  0  0  0  0  0  0
   13.2274   -3.4322    0.0000 O   0  0  0  0  0  0  0  0  0  0  0  0
   12.3787   -4.9421    0.0000 N   0  0  0  0  0  0  0  0  0  0  0  0
    7.9288    5.5387    0.0000 C   0  0  3  0  0  0  0  0  0  0  0  0
    7.9288    6.5387    0.0000 C   0  0  3  0  0  0  0  0  0  0  0  0
    7.0628    5.0387    0.0000 C   0  0  3  0  0  0  0  0  0  0  0  0
    6.1968    5.5387    0.0000 C   0  0  3  0  0  0  0  0  0  0  0  0
    7.0628    7.0387    0.0000 C   0  0  0  0  0  0  0  0  0  0  0  0
    8.8750    6.8435    0.0000 C   0  0  3  0  0  0  0  0  0  0  0  0
    8.8750    5.2340    0.0000 C   0  0  0  0  0  0  0  0  0  0  0  0
    7.0789    3.9972    0.0000 C   0  0  3  0  0  0  0  0  0  0  0  0
    6.1968    6.5387    0.0000 C   0  0  0  0  0  0  0  0  0  0  0  0
    9.4586    6.0387    0.0000 C   0  0  0  0  0  0  0  0  0  0  0  0
    7.9288    7.5387    0.0000 C   0  0  0  0  0  0  0  0  0  0  0  0
    5.2868    5.0319    0.0000 C   0  0  0  0  0  0  0  0  0  0  0  0
    6.1808    3.4695    0.0000 C   0  0  0  0  0  0  0  0  0  0  0  0
    7.9506    3.5073    0.0000 C   0  0  0  0  0  0  0  0  0  0  0  0
    5.2787    3.9903    0.0000 C   0  0  0  0  0  0  0  0  0  0  0  0
    7.9622    2.5074    0.0000 C   0  0  0  0  0  0  0  0  0  0  0  0
    4.3599    5.5960    0.0000 C   0  0  0  0  0  0  0  0  0  0  0  0
    4.3433    3.4406    0.0000 C   0  0  0  0  0  0  0  0  0  0  0  0
    8.8339    2.0174    0.0000 C   0  0  0  0  0  0  0  0  0  0  0  0
    3.4120    5.0680    0.0000 C   0  0  0  0  0  0  0  0  0  0  0  0
    3.4037    3.9831    0.0000 C   0  0  0  0  0  0  0  0  0  0  0  0
    8.8455    1.0175    0.0000 C   0  0  0  0  0  0  0  0  0  0  0  0
    9.7172    0.5275    0.0000 C   0  0  0  0  0  0  0  0  0  0  0  0
    9.7288   -0.4724    0.0000 C   0  0  0  0  0  0  0  0  0  0  0  0
   10.6005   -0.9624    0.0000 C   0  0  0  0  0  0  0  0  0  0  0  0
   10.6121   -1.9623    0.0000 C   0  0  0  0  0  0  0  0  0  0  0  0
   11.4839   -2.4523    0.0000 C   0  0  0  0  0  0  0  0  0  0  0  0
   11.4954   -3.4522    0.0000 C   0  0  0  0  0  0  0  0  0  0  0  0
   12.3672   -3.9422    0.0000 C   0  0  0  0  0  0  0  0  0  0  0  0
   13.2505   -5.4320    0.0000 C   0  0  0  0  0  0  0  0  0  0  0  0
   11.5185   -5.4521    0.0000 C   0  0  0  0  0  0  0  0  0  0  0  0
   13.2620   -6.4320    0.0000 C   0  0  0  0  0  0  0  0  0  0  0  0
   14.1338   -6.9219    0.0000 C   0  0  0  0  0  0  0  0  0  0  0  0
   14.1454   -7.9218    0.0000 C   0  0  0  0  0  0  0  0  0  0  0  0
    7.9944    4.9222    0.0000 H   0  0  0  0  0  0  0  0  0  0  0  0
    7.6021    4.7329    0.0000 H   0  0  0  0  0  0  0  0  0  0  0  0
    6.7337    5.8487    0.0000 H   0  0  0  0  0  0  0  0  0  0  0  0
    7.4613    7.5137    0.0000 H   0  0  0  0  0  0  0  0  0  0  0  0
    6.6643    7.5137    0.0000 H   0  0  0  0  0  0  0  0  0  0  0  0
    9.4875    6.9397    0.0000 H   0  0  0  0  0  0  0  0  0  0  0  0
    8.6240    4.6671    0.0000 H   0  0  0  0  0  0  0  0  0  0  0  0
    9.4124    4.9248    0.0000 H   0  0  0  0  0  0  0  0  0  0  0  0
    7.6116    4.3144    0.0000 H   0  0  0  0  0  0  0  0  0  0  0  0
    5.9847    7.1214    0.0000 H   0  0  0  0  0  0  0  0  0  0  0  0
    5.5862    6.4311    0.0000 H   0  0  0  0  0  0  0  0  0  0  0  0
    9.9195    5.6240    0.0000 H   0  0  0  0  0  0  0  0  0  0  0  0
    9.9195    6.4535    0.0000 H   0  0  0  0  0  0  0  0  0  0  0  0
    8.5488    7.5387    0.0000 H   0  0  0  0  0  0  0  0  0  0  0  0
    7.9288    8.1587    0.0000 H   0  0  0  0  0  0  0  0  0  0  0  0
    7.3088    7.5387    0.0000 H   0  0  0  0  0  0  0  0  0  0  0  0
    5.7835    2.9935    0.0000 H   0  0  0  0  0  0  0  0  0  0  0  0
    6.5818    2.9966    0.0000 H   0  0  0  0  0  0  0  0  0  0  0  0
    8.5624    3.4067    0.0000 H   0  0  0  0  0  0  0  0  0  0  0  0
    8.1559    4.0923    0.0000 H   0  0  0  0  0  0  0  0  0  0  0  0
    9.7924    7.9218    0.0000 H   0  0  0  0  0  0  0  0  0  0  0  0
    7.3504    2.6079    0.0000 H   0  0  0  0  0  0  0  0  0  0  0  0
    7.7569    1.9223    0.0000 H   0  0  0  0  0  0  0  0  0  0  0  0
    4.3719    6.2159    0.0000 H   0  0  0  0  0  0  0  0  0  0  0  0
    4.3457    2.8206    0.0000 H   0  0  0  0  0  0  0  0  0  0  0  0
    9.4457    1.9168    0.0000 H   0  0  0  0  0  0  0  0  0  0  0  0
    9.0392    2.6024    0.0000 H   0  0  0  0  0  0  0  0  0  0  0  0
    2.8787    5.3842    0.0000 H   0  0  0  0  0  0  0  0  0  0  0  0
    8.2337    1.1181    0.0000 H   0  0  0  0  0  0  0  0  0  0  0  0
    8.6402    0.4324    0.0000 H   0  0  0  0  0  0  0  0  0  0  0  0
    2.0000    3.7985    0.0000 H   0  0  0  0  0  0  0  0  0  0  0  0
   10.3290    0.4269    0.0000 H   0  0  0  0  0  0  0  0  0  0  0  0
    9.9225    1.1125    0.0000 H   0  0  0  0  0  0  0  0  0  0  0  0
    9.1170   -0.3718    0.0000 H   0  0  0  0  0  0  0  0  0  0  0  0
    9.5235   -1.0574    0.0000 H   0  0  0  0  0  0  0  0  0  0  0  0
   11.2123   -1.0630    0.0000 H   0  0  0  0  0  0  0  0  0  0  0  0
   10.8058   -0.3774    0.0000 H   0  0  0  0  0  0  0  0  0  0  0  0
   10.0003   -1.8617    0.0000 H   0  0  0  0  0  0  0  0  0  0  0  0
   10.4068   -2.5473    0.0000 H   0  0  0  0  0  0  0  0  0  0  0  0
   12.0956   -2.5528    0.0000 H   0  0  0  0  0  0  0  0  0  0  0  0
   11.6892   -1.8672    0.0000 H   0  0  0  0  0  0  0  0  0  0  0  0
   10.8836   -3.3516    0.0000 H   0  0  0  0  0  0  0  0  0  0  0  0
   11.2901   -4.0372    0.0000 H   0  0  0  0  0  0  0  0  0  0  0  0
   13.8623   -5.5326    0.0000 H   0  0  0  0  0  0  0  0  0  0  0  0
   13.4558   -4.8470    0.0000 H   0  0  0  0  0  0  0  0  0  0  0  0
   11.2024   -4.9187    0.0000 H   0  0  0  0  0  0  0  0  0  0  0  0
   10.9852   -5.7682    0.0000 H   0  0  0  0  0  0  0  0  0  0  0  0
   11.8347   -5.9854    0.0000 H   0  0  0  0  0  0  0  0  0  0  0  0
   12.6503   -6.3314    0.0000 H   0  0  0  0  0  0  0  0  0  0  0  0
   13.0567   -7.0170    0.0000 H   0  0  0  0  0  0  0  0  0  0  0  0
   14.7456   -7.0225    0.0000 H   0  0  0  0  0  0  0  0  0  0  0  0
   14.3391   -6.3369    0.0000 H   0  0  0  0  0  0  0  0  0  0  0  0
   13.5254   -7.9290    0.0000 H   0  0  0  0  0  0  0  0  0  0  0  0
   14.1525   -8.5418    0.0000 H   0  0  0  0  0  0  0  0  0  0  0  0
   14.7653   -7.9147    0.0000 H   0  0  0  0  0  0  0  0  0  0  0  0
  1 10  1  0  0  0  0
  1 59  1  0  0  0  0
  2 25  1  0  0  0  0
  2 69  1  0  0  0  0
  3 33  2  0  0  0  0
  4 33  1  0  0  0  0
  4 34  1  0  0  0  0
  4 35  1  0  0  0  0
  5  6  1  0  0  0  0
  5  7  1  0  0  0  0
  5 11  1  0  0  0  0
  5 39  1  0  0  0  0
  6  9  1  0  0  0  0
  6 10  1  0  0  0  0
  6 15  1  0  0  0  0
  7  8  1  0  0  0  0
  7 12  1  0  0  0  0
  7 40  1  0  0  0  0
  8 13  1  0  0  0  0
  8 16  1  0  0  0  0
  8 41  1  0  0  0  0
  9 13  1  0  0  0  0
  9 42  1  0  0  0  0
  9 43  1  0  0  0  0
 10 14  1  0  0  0  0
 10 44  1  0  0  0  0
 11 14  1  0  0  0  0
 11 45  1  0  0  0  0
 11 46  1  0  0  0  0
 12 17  1  0  0  0  0
 12 18  1  0  0  0  0
 12 47  1  0  0  0  0
 13 48  1  0  0  0  0
 13 49  1  0  0  0  0
 14 50  1  0  0  0  0
 14 51  1  0  0  0  0
 15 52  1  0  0  0  0
 15 53  1  0  0  0  0
 15 54  1  0  0  0  0
 16 19  2  0  0  0  0
 16 21  1  0  0  0  0
 17 19  1  0  0  0  0
 17 55  1  0  0  0  0
 17 56  1  0  0  0  0
 18 20  1  0  0  0  0
 18 57  1  0  0  0  0
 18 58  1  0  0  0  0
 19 22  1  0  0  0  0
 20 23  1  0  0  0  0
 20 60  1  0  0  0  0
 20 61  1  0  0  0  0
 21 24  2  0  0  0  0
 21 62  1  0  0  0  0
 22 25  2  0  0  0  0
 22 63  1  0  0  0  0
 23 26  1  0  0  0  0
 23 64  1  0  0  0  0
 23 65  1  0  0  0  0
 24 25  1  0  0  0  0
 24 66  1  0  0  0  0
 26 27  1  0  0  0  0
 26 67  1  0  0  0  0
 26 68  1  0  0  0  0
 27 28  1  0  0  0  0
 27 70  1  0  0  0  0
 27 71  1  0  0  0  0
 28 29  1  0  0  0  0
 28 72  1  0  0  0  0
 28 73  1  0  0  0  0
 29 30  1  0  0  0  0
 29 74  1  0  0  0  0
 29 75  1  0  0  0  0
 30 31  1  0  0  0  0
 30 76  1  0  0  0  0
 30 77  1  0  0  0  0
 31 32  1  0  0  0  0
 31 78  1  0  0  0  0
 31 79  1  0  0  0  0
 32 33  1  0  0  0  0
 32 80  1  0  0  0  0
 32 81  1  0  0  0  0
 34 36  1  0  0  0  0
 34 82  1  0  0  0  0
 34 83  1  0  0  0  0
 35 84  1  0  0  0  0
 35 85  1  0  0  0  0
 35 86  1  0  0  0  0
 36 37  1  0  0  0  0
 36 87  1  0  0  0  0
 36 88  1  0  0  0  0
 37 38  1  0  0  0  0
 37 89  1  0  0  0  0
 37 90  1  0  0  0  0
 38 91  1  0  0  0  0
 38 92  1  0  0  0  0
 38 93  1  0  0  0  0
M  END
> <PUBCHEM_COMPOUND_CID>
3684

> <PUBCHEM_COMPOUND_CANONICALIZED>
1

> <PUBCHEM_CACTVS_COMPLEXITY>
727

> <PUBCHEM_CACTVS_HBOND_ACCEPTOR>
3

> <PUBCHEM_CACTVS_HBOND_DONOR>
2

> <PUBCHEM_CACTVS_ROTATABLE_BOND>
14

> <PUBCHEM_CACTVS_SUBSKEYS>
AAADcfB+MAAAAAAAAAAAAAAAAAAAAYAAAAAwYMAAAAAAAGDBAAAAHgAACAAADxThmAYyBoMAAgCIAiFSEAACAAAgIAAIiAEOCIgINjKCkRKEcAAkxhGImAeYyPCPoAABAAAQAADAAAYAACAAAIAADAAAAA==

> <PUBCHEM_IUPAC_OPENEYE_NAME>
N-butyl-11-(3,17-dihydroxy-13-methyl-6,7,8,9,11,12,14,15,16,17-decahydrocyclopenta[a]phenanthren-7-yl)-N-methyl-undecanamide

> <PUBCHEM_IUPAC_CAS_NAME>
N-butyl-11-(3,17-dihydroxy-13-methyl-6,7,8,9,11,12,14,15,16,17-decahydrocyclopenta[a]phenanthren-7-yl)-N-methylundecanamide

> <PUBCHEM_IUPAC_NAME>
N-butyl-11-(3,17-dihydroxy-13-methyl-6,7,8,9,11,12,14,15,16,17-decahydrocyclopenta[a]phenanthren-7-yl)-N-methylundecanamide

> <PUBCHEM_IUPAC_SYSTEMATIC_NAME>
N-butyl-N-methyl-11-[13-methyl-3,17-bis(oxidanyl)-6,7,8,9,11,12,14,15,16,17-decahydrocyclopenta[a]phenanthren-7-yl]undecanamide

> <PUBCHEM_IUPAC_TRADITIONAL_NAME>
N-butyl-11-(3,17-dihydroxy-13-methyl-6,7,8,9,11,12,14,15,16,17-decahydrocyclopenta[a]phenanthren-7-yl)-N-methyl-undecanamide

> <PUBCHEM_IUPAC_INCHI>
InChI=1S/C34H55NO3/c1-4-5-22-35(3)32(38)15-13-11-9-7-6-8-10-12-14-25-23-26-24-27(36)16-17-28(26)29-20-21-34(2)30(33(25)29)18-19-31(34)37/h16-17,24-25,29-31,33,36-37H,4-15,18-23H2,1-3H3

> <PUBCHEM_IUPAC_INCHIKEY>
BVVFOLSZMQVDKV-UHFFFAOYSA-N

> <PUBCHEM_XLOGP3>
9.1

> <PUBCHEM_EXACT_MASS>
525.418195

> <PUBCHEM_MOLECULAR_FORMULA>
C34H55NO3

> <PUBCHEM_MOLECULAR_WEIGHT>
525.8054

> <PUBCHEM_OPENEYE_CAN_SMILES>
CCCCN(C)C(=O)CCCCCCCCCCC1CC2=C(C=CC(=C2)O)C3C1C4CCC(C4(CC3)C)O

> <PUBCHEM_OPENEYE_ISO_SMILES>
CCCCN(C)C(=O)CCCCCCCCCCC1CC2=C(C=CC(=C2)O)C3C1C4CCC(C4(CC3)C)O

> <PUBCHEM_CACTVS_TPSA>
60.8

> <PUBCHEM_MONOISOTOPIC_WEIGHT>
525.418195

> <PUBCHEM_TOTAL_CHARGE>
0

> <PUBCHEM_HEAVY_ATOM_COUNT>
38

> <PUBCHEM_ATOM_DEF_STEREO_COUNT>
0

> <PUBCHEM_ATOM_UDEF_STEREO_COUNT>
6

> <PUBCHEM_BOND_DEF_STEREO_COUNT>
0

> <PUBCHEM_BOND_UDEF_STEREO_COUNT>
0

> <PUBCHEM_ISOTOPIC_ATOM_COUNT>
0

> <PUBCHEM_COMPONENT_COUNT>
1

> <PUBCHEM_CACTVS_TAUTO_COUNT>
9

> <PUBCHEM_COORDINATE_TYPE>
1
5
255

> <PUBCHEM_BONDANNOTATIONS>
10  1  3
12  18  3
16  19  8
16  21  8
19  22  8
21  24  8
22  25  8
24  25  8
5  11  3
6  15  3
7  12  3
8  13  3

$$$$

