4380
  -OEChem-06261200053D

 32 32  0     1  0  0  0  0  0999 V2000
   -1.3202    0.6609   -2.6941 Cl  0  0  0  0  0  0  0  0  0  0  0  0
   -4.6424   -2.0699    0.5494 Cl  0  0  0  0  0  0  0  0  0  0  0  0
   -0.3437    1.8757   -0.1237 O   0  0  0  0  0  0  0  0  0  0  0  0
    2.6093    0.0715    0.0791 N   0  0  1  0  0  0  0  0  0  0  0  0
    2.4761    1.3682   -0.5735 C   0  0  0  0  0  0  0  0  0  0  0  0
    1.9318    2.4013    0.4078 C   0  0  0  0  0  0  0  0  0  0  0  0
    0.5726    1.9891    0.9564 C   0  0  0  0  0  0  0  0  0  0  0  0
    3.0424   -0.9465   -0.8798 C   0  0  0  0  0  0  0  0  0  0  0  0
    3.5527    0.1507    1.1958 C   0  0  0  0  0  0  0  0  0  0  0  0
   -1.3466    0.9509    0.0104 C   0  0  0  0  0  0  0  0  0  0  0  0
   -1.8874    0.3147   -1.1020 C   0  0  0  0  0  0  0  0  0  0  0  0
   -1.8151    0.6612    1.2880 C   0  0  0  0  0  0  0  0  0  0  0  0
    3.1169   -2.2661   -0.2451 C   0  0  0  0  0  0  0  0  0  0  0  0
   -2.9079   -0.6215   -0.9354 C   0  0  0  0  0  0  0  0  0  0  0  0
   -2.8357   -0.2749    1.4545 C   0  0  0  0  0  0  0  0  0  0  0  0
   -3.3821   -0.9163    0.3428 C   0  0  0  0  0  0  0  0  0  0  0  0
    3.1794   -3.3490    0.2697 C   0  0  0  0  0  0  0  0  0  0  0  0
    3.4396    1.7176   -0.9674 H   0  0  0  0  0  0  0  0  0  0  0  0
    1.7976    1.2915   -1.4320 H   0  0  0  0  0  0  0  0  0  0  0  0
    2.6290    2.6289    1.2197 H   0  0  0  0  0  0  0  0  0  0  0  0
    1.8090    3.3401   -0.1487 H   0  0  0  0  0  0  0  0  0  0  0  0
    0.2133    2.7713    1.6356 H   0  0  0  0  0  0  0  0  0  0  0  0
    0.6813    1.0586    1.5262 H   0  0  0  0  0  0  0  0  0  0  0  0
    2.3222   -1.0036   -1.7056 H   0  0  0  0  0  0  0  0  0  0  0  0
    4.0155   -0.6899   -1.3179 H   0  0  0  0  0  0  0  0  0  0  0  0
    3.7002   -0.8148    1.6910 H   0  0  0  0  0  0  0  0  0  0  0  0
    3.1860    0.7936    2.0014 H   0  0  0  0  0  0  0  0  0  0  0  0
    4.5369    0.5170    0.8799 H   0  0  0  0  0  0  0  0  0  0  0  0
   -1.4475    1.1611    2.1789 H   0  0  0  0  0  0  0  0  0  0  0  0
   -3.3351   -1.1223   -1.8016 H   0  0  0  0  0  0  0  0  0  0  0  0
   -3.2013   -0.4892    2.4555 H   0  0  0  0  0  0  0  0  0  0  0  0
    3.2348   -4.3092    0.7268 H   0  0  0  0  0  0  0  0  0  0  0  0
  1 11  1  0  0  0  0
  2 16  1  0  0  0  0
  3  7  1  0  0  0  0
  3 10  1  0  0  0  0
  4  5  1  0  0  0  0
  4  8  1  0  0  0  0
  4  9  1  0  0  0  0
  5  6  1  0  0  0  0
  5 18  1  0  0  0  0
  5 19  1  0  0  0  0
  6  7  1  0  0  0  0
  6 20  1  0  0  0  0
  6 21  1  0  0  0  0
  7 22  1  0  0  0  0
  7 23  1  0  0  0  0
  8 13  1  0  0  0  0
  8 24  1  0  0  0  0
  8 25  1  0  0  0  0
  9 26  1  0  0  0  0
  9 27  1  0  0  0  0
  9 28  1  0  0  0  0
 10 11  2  0  0  0  0
 10 12  1  0  0  0  0
 11 14  1  0  0  0  0
 12 15  2  0  0  0  0
 12 29  1  0  0  0  0
 13 17  3  0  0  0  0
 14 16  2  0  0  0  0
 14 30  1  0  0  0  0
 15 16  1  0  0  0  0
 15 31  1  0  0  0  0
 17 32  1  0  0  0  0
M  END
> <PUBCHEM_COMPOUND_CID>
4380

> <PUBCHEM_CONFORMER_RMSD>
0.8

> <PUBCHEM_CONFORMER_DIVERSEORDER>
18
116
196
191
259
178
261
262
36
185
156
135
222
102
150
140
224
13
170
253
251
246
221
87
237
103
213
52
217
250
225
166
255
124
132
230
84
236
168
92
155
235
66
244
252
90
130
254
161
218
129
118
195
119
105
202
20
179
3
216
214
68
45
81
209
223
2
123
211
205
247
175
26
74
8
233
220
30
9
204
56
41
229
16
97
257
82
98
165
19
248
139
71
219
96
184
152
1
212
144
190
95
39
193
23
109
110
148
200
72
256
28
11
186
44
158
245
57
189
126
29
232
146
101
113
64
151
106
121
163
240
78
203
138
53
263
5
115
100
183
70
226
141
79
88
76
258
14
173
107
25
133
198
62
114
177
60
48
93
67
134
160
125
228
80
99
7
54
15
188
239
120
192
61
194
231
149
207
227
169
51
122
159
242
127
206
10
21
65
162
187
260
174
167
91
147
182
199
24
208
27
234
164
86
94
40
6
172
117
112
201
89
85
31
215
153
38
17
176
59
43
137
12
108
128
50
34
35
210
154
42
157
145
171
46
32
197
181
77
49
75
33
142
243
83
180
22
4
136
58
143
47
241
111
55
131
104
37
63
73
69
249
238

> <PUBCHEM_MMFF94_PARTIAL_CHARGES>
20
1 -0.18
10 0.08
11 0.18
12 -0.15
13 -0.2
14 -0.15
15 -0.15
16 0.18
17 -0.18
2 -0.18
29 0.15
3 -0.36
30 0.15
31 0.15
32 0.18
4 -0.81
5 0.27
7 0.28
8 0.47
9 0.27

> <PUBCHEM_EFFECTIVE_ROTOR_COUNT>
6

> <PUBCHEM_PHARMACOPHORE_FEATURES>
4
1 17 hydrophobe
1 3 acceptor
1 4 cation
6 10 11 12 14 15 16 rings

> <PUBCHEM_HEAVY_ATOM_COUNT>
17

> <PUBCHEM_ATOM_DEF_STEREO_COUNT>
0

> <PUBCHEM_ATOM_UDEF_STEREO_COUNT>
0

> <PUBCHEM_BOND_DEF_STEREO_COUNT>
0

> <PUBCHEM_BOND_UDEF_STEREO_COUNT>
0

> <PUBCHEM_ISOTOPIC_ATOM_COUNT>
0

> <PUBCHEM_COMPONENT_COUNT>
1

> <PUBCHEM_CACTVS_TAUTO_COUNT>
1

> <PUBCHEM_CONFORMER_ID>
0000111C00000012

> <PUBCHEM_MMFF94_ENERGY>
42.7937

> <PUBCHEM_FEATURE_SELFOVERLAP>
20.297

> <PUBCHEM_SHAPE_FINGERPRINT>
11137873 295 18342461494821662605
12202030 40 18201722881195478796
12553582 1 18187366489231362476
12596599 1 17969485177548723307
13533116 47 18262228912231818003
13583140 156 17895480202969221889
14251705 54 18410012177976289970
14251731 5 18337383958809947450
14848160 33 18411426111090255410
15375462 189 17894630323082295248
15422964 175 18410859866954745472
15475509 8 17274822498139316111
15635459 17 18271524191363250738
15664445 248 16988280863729932845
1813 80 17489577932123039117
19930381 70 18410006671775891491
20291156 8 18263637536597218282
20645477 70 18270404875714982681
21285901 2 17631464379911894831
212916 134 14635133634906496379
21731516 1 18261950872875210604
22445834 79 17968371243536558313
2255824 54 18119243957141818528
23557571 272 17203056192044882437
23728640 28 17328867011521017338
27216 239 7492412526251414951
4072396 5 16733249185318439179
5262128 65 16415182482345389500
7097593 13 18114731698749168009
84936 31 17697868181796208237

> <PUBCHEM_SHAPE_MULTIPOLES>
342.74
7.76
2.97
1.69
1.38
1.68
-0.94
5.93
1.34
-2.81
0.43
0.94
-0.45
0.69

> <PUBCHEM_SHAPE_SELFOVERLAP>
673.936

> <PUBCHEM_SHAPE_VOLUME>
206.9

> <PUBCHEM_COORDINATE_TYPE>
2
5
10

$$$$

