91724
  -OEChem-07051213043D

 21 22  0     0  0  0  0  0  0999 V2000
   -0.7535   -0.6374    2.2295 Cl  0  0  0  0  0  0  0  0  0  0  0  0
   -3.8326   -0.0095    1.6150 Cl  0  0  0  0  0  0  0  0  0  0  0  0
    2.8947   -1.7185   -0.0808 N   0  0  0  0  0  0  0  0  0  0  0  0
    2.0128    2.9166    0.4032 N   0  0  0  0  0  0  0  0  0  0  0  0
    1.0310   -0.5292   -0.2321 C   0  0  0  0  0  0  0  0  0  0  0  0
   -0.3691   -0.2570   -0.4335 C   0  0  0  0  0  0  0  0  0  0  0  0
    2.0971    0.3488    0.0682 C   0  0  0  0  0  0  0  0  0  0  0  0
    1.5476   -1.8001   -0.3195 C   0  0  0  0  0  0  0  0  0  0  0  0
   -1.2893   -0.2757    0.6146 C   0  0  0  0  0  0  0  0  0  0  0  0
   -0.7947    0.0323   -1.7303 C   0  0  0  0  0  0  0  0  0  0  0  0
    3.2408   -0.4136    0.1561 C   0  0  0  0  0  0  0  0  0  0  0  0
   -2.6349   -0.0048    0.3663 C   0  0  0  0  0  0  0  0  0  0  0  0
   -2.1403    0.3029   -1.9787 C   0  0  0  0  0  0  0  0  0  0  0  0
   -3.0604    0.2847   -0.9303 C   0  0  0  0  0  0  0  0  0  0  0  0
    2.0507    1.7606    0.2524 C   0  0  0  0  0  0  0  0  0  0  0  0
    1.0876   -2.7566   -0.5286 H   0  0  0  0  0  0  0  0  0  0  0  0
   -0.0930    0.0524   -2.5612 H   0  0  0  0  0  0  0  0  0  0  0  0
    4.2689   -0.1505    0.3650 H   0  0  0  0  0  0  0  0  0  0  0  0
    3.5349   -2.5006   -0.0801 H   0  0  0  0  0  0  0  0  0  0  0  0
   -2.4717    0.5283   -2.9882 H   0  0  0  0  0  0  0  0  0  0  0  0
   -4.1049    0.4984   -1.1426 H   0  0  0  0  0  0  0  0  0  0  0  0
  1  9  1  0  0  0  0
  2 12  1  0  0  0  0
  3  8  1  0  0  0  0
  3 11  1  0  0  0  0
  3 19  1  0  0  0  0
  4 15  3  0  0  0  0
  5  6  1  0  0  0  0
  5  7  1  0  0  0  0
  5  8  2  0  0  0  0
  6  9  2  0  0  0  0
  6 10  1  0  0  0  0
  7 11  2  0  0  0  0
  7 15  1  0  0  0  0
  8 16  1  0  0  0  0
  9 12  1  0  0  0  0
 10 13  2  0  0  0  0
 10 17  1  0  0  0  0
 11 18  1  0  0  0  0
 12 14  2  0  0  0  0
 13 14  1  0  0  0  0
 13 20  1  0  0  0  0
 14 21  1  0  0  0  0
M  END
> <PUBCHEM_COMPOUND_CID>
91724

> <PUBCHEM_CONFORMER_RMSD>
0.4

> <PUBCHEM_CONFORMER_DIVERSEORDER>
2
4
3
1

> <PUBCHEM_MMFF94_PARTIAL_CHARGES>
21
1 -0.18
10 -0.15
11 -0.3
12 0.18
13 -0.15
14 -0.15
15 0.54
16 0.15
17 0.15
18 0.15
19 0.27
2 -0.18
20 0.15
21 0.15
3 0.03
4 -0.56
5 -0.05
6 0.05
7 0.02
8 -0.3
9 0.18

> <PUBCHEM_EFFECTIVE_ROTOR_COUNT>
1

> <PUBCHEM_PHARMACOPHORE_FEATURES>
5
1 3 cation
1 3 donor
1 4 acceptor
5 3 5 7 8 11 rings
6 6 9 10 12 13 14 rings

> <PUBCHEM_HEAVY_ATOM_COUNT>
15

> <PUBCHEM_ATOM_DEF_STEREO_COUNT>
0

> <PUBCHEM_ATOM_UDEF_STEREO_COUNT>
0

> <PUBCHEM_BOND_DEF_STEREO_COUNT>
0

> <PUBCHEM_BOND_UDEF_STEREO_COUNT>
0

> <PUBCHEM_ISOTOPIC_ATOM_COUNT>
0

> <PUBCHEM_COMPONENT_COUNT>
1

> <PUBCHEM_CACTVS_TAUTO_COUNT>
1

> <PUBCHEM_CONFORMER_ID>
0001664C00000002

> <PUBCHEM_MMFF94_ENERGY>
28.5342

> <PUBCHEM_FEATURE_SELFOVERLAP>
25.371

> <PUBCHEM_SHAPE_FINGERPRINT>
10857977 72 16917350316434074077
11640471 11 17458337494709694208
12236239 1 17385729105559954470
12716301 132 16702032992736854637
12932764 1 18060424616092890187
13538477 17 16805325495937775599
13898156 1 16950557766415710986
14115302 16 17169013139169480071
15219456 202 18059858354787995676
15775835 57 17313099731036821128
16945 1 18409173228875921606
17357990 137 17385711491777864660
1813 80 17679283416404494910
18186145 218 18187083953154935183
19049666 15 17845101842266197452
19765921 60 17315917667791045784
20510252 161 16988555827525711917
20645476 183 17313377903404993455
20715346 28 17918277532503291773
21639500 275 18335995163875451164
22112679 90 16877946018391036929
23175994 123 18270119153463944238
23493267 7 14045174268131632573
23526113 38 17915474989059828342
23559900 14 16917074407967451214
23598291 2 17749105595195566477
2748010 2 17275108314663272567
31174 14 18342168955908866793
3286 77 18271515468521886835
474 4 18042699299263821992
6049 1 18060700606480643173
77492 1 17458070364912903622
81228 2 15106948706943390195

> <PUBCHEM_SHAPE_MULTIPOLES>
302.47
5.5
1.79
1.71
1.29
0.2
0.96
0.8
0.5
1.51
0.02
-1.86
-0.31
1.21

> <PUBCHEM_SHAPE_SELFOVERLAP>
642.721

> <PUBCHEM_SHAPE_VOLUME>
167.8

> <PUBCHEM_COORDINATE_TYPE>
2
5
10

$$$$

