4263
  -OEChem-06261200002D

 23 23  0     1  0  0  0  0  0999 V2000
    5.4791   -1.5419    0.0000 O   0  0  0  0  0  0  0  0  0  0  0  0
    2.3222   -1.0419    0.0000 O   0  0  0  0  0  0  0  0  0  0  0  0
    3.4013    1.9407    0.0000 O   0  0  0  0  0  0  0  0  0  0  0  0
    4.0823   -1.3207    0.0000 N   0  0  0  0  0  0  0  0  0  0  0  0
    4.8913   -0.7329    0.0000 C   0  0  3  0  0  0  0  0  0  0  0  0
    4.5823    0.2181    0.0000 C   0  0  0  0  0  0  0  0  0  0  0  0
    3.5823    0.2181    0.0000 C   0  0  0  0  0  0  0  0  0  0  0  0
    5.8424   -0.4239    0.0000 C   0  0  0  0  0  0  0  0  0  0  0  0
    3.2733   -0.7329    0.0000 C   0  0  0  0  0  0  0  0  0  0  0  0
    5.1701    1.0272    0.0000 C   0  0  0  0  0  0  0  0  0  0  0  0
    2.9945    1.0272    0.0000 C   0  0  0  0  0  0  0  0  0  0  0  0
    2.0000    0.9226    0.0000 C   0  0  0  0  0  0  0  0  0  0  0  0
    4.0823   -1.9407    0.0000 H   0  0  0  0  0  0  0  0  0  0  0  0
    6.0340   -1.0136    0.0000 H   0  0  0  0  0  0  0  0  0  0  0  0
    6.4320   -0.2323    0.0000 H   0  0  0  0  0  0  0  0  0  0  0  0
    5.6508    0.1658    0.0000 H   0  0  0  0  0  0  0  0  0  0  0  0
    5.6717    0.6627    0.0000 H   0  0  0  0  0  0  0  0  0  0  0  0
    5.5345    1.5288    0.0000 H   0  0  0  0  0  0  0  0  0  0  0  0
    4.6685    1.3916    0.0000 H   0  0  0  0  0  0  0  0  0  0  0  0
    6.0957   -1.4771    0.0000 H   0  0  0  0  0  0  0  0  0  0  0  0
    1.9352    1.5392    0.0000 H   0  0  0  0  0  0  0  0  0  0  0  0
    1.3834    0.8578    0.0000 H   0  0  0  0  0  0  0  0  0  0  0  0
    2.0648    0.3060    0.0000 H   0  0  0  0  0  0  0  0  0  0  0  0
  1  5  1  0  0  0  0
  1 20  1  0  0  0  0
  2  9  2  0  0  0  0
  3 11  2  0  0  0  0
  4  5  1  0  0  0  0
  4  9  1  0  0  0  0
  4 13  1  0  0  0  0
  5  6  1  0  0  0  0
  5  8  1  0  0  0  0
  6  7  2  0  0  0  0
  6 10  1  0  0  0  0
  7  9  1  0  0  0  0
  7 11  1  0  0  0  0
  8 14  1  0  0  0  0
  8 15  1  0  0  0  0
  8 16  1  0  0  0  0
 10 17  1  0  0  0  0
 10 18  1  0  0  0  0
 10 19  1  0  0  0  0
 11 12  1  0  0  0  0
 12 21  1  0  0  0  0
 12 22  1  0  0  0  0
 12 23  1  0  0  0  0
M  END
> <PUBCHEM_COMPOUND_CID>
4263

> <PUBCHEM_COMPOUND_CANONICALIZED>
1

> <PUBCHEM_CACTVS_COMPLEXITY>
293

> <PUBCHEM_CACTVS_HBOND_ACCEPTOR>
3

> <PUBCHEM_CACTVS_HBOND_DONOR>
2

> <PUBCHEM_CACTVS_ROTATABLE_BOND>
1

> <PUBCHEM_CACTVS_SUBSKEYS>
AAADccByMAAAAAAAAAAAAAAAAAAAAQAAAAAAAAAAAAAAAAAAAAAAHgAQCAAADAyBgAACAALAAgCIAoFQEACAAAAgAAAACAEAAEkABBgIgAAEUAAAFACIEQIAAAAAAAAAAAAAAAAAAAAAAAAAAAAAAAAAAA==

> <PUBCHEM_IUPAC_OPENEYE_NAME>
3-acetyl-5-hydroxy-4,5-dimethyl-1H-pyrrol-2-one

> <PUBCHEM_IUPAC_CAS_NAME>
3-acetyl-5-hydroxy-4,5-dimethyl-1H-pyrrol-2-one

> <PUBCHEM_IUPAC_NAME>
3-acetyl-5-hydroxy-4,5-dimethyl-1H-pyrrol-2-one

> <PUBCHEM_IUPAC_SYSTEMATIC_NAME>
3-ethanoyl-4,5-dimethyl-5-oxidanyl-1H-pyrrol-2-one

> <PUBCHEM_IUPAC_TRADITIONAL_NAME>
3-acetyl-5-hydroxy-4,5-dimethyl-3-pyrrolin-2-one

> <PUBCHEM_IUPAC_INCHI>
InChI=1S/C8H11NO3/c1-4-6(5(2)10)7(11)9-8(4,3)12/h12H,1-3H3,(H,9,11)

> <PUBCHEM_IUPAC_INCHIKEY>
DHZJIJWGYQXKFT-UHFFFAOYSA-N

> <PUBCHEM_XLOGP3_AA>
-0.9

> <PUBCHEM_EXACT_MASS>
169.073893

> <PUBCHEM_MOLECULAR_FORMULA>
C8H11NO3

> <PUBCHEM_MOLECULAR_WEIGHT>
169.17784

> <PUBCHEM_OPENEYE_CAN_SMILES>
CC1=C(C(=O)NC1(C)O)C(=O)C

> <PUBCHEM_OPENEYE_ISO_SMILES>
CC1=C(C(=O)NC1(C)O)C(=O)C

> <PUBCHEM_CACTVS_TPSA>
66.4

> <PUBCHEM_MONOISOTOPIC_WEIGHT>
169.073893

> <PUBCHEM_TOTAL_CHARGE>
0

> <PUBCHEM_HEAVY_ATOM_COUNT>
12

> <PUBCHEM_ATOM_DEF_STEREO_COUNT>
0

> <PUBCHEM_ATOM_UDEF_STEREO_COUNT>
1

> <PUBCHEM_BOND_DEF_STEREO_COUNT>
0

> <PUBCHEM_BOND_UDEF_STEREO_COUNT>
0

> <PUBCHEM_ISOTOPIC_ATOM_COUNT>
0

> <PUBCHEM_COMPONENT_COUNT>
1

> <PUBCHEM_CACTVS_TAUTO_COUNT>
12

> <PUBCHEM_COORDINATE_TYPE>
1
5
255

> <PUBCHEM_BONDANNOTATIONS>
5  1  3

$$$$

