50986109
  -OEChem-07051213033D

 71 76  0     1  0  0  0  0  0999 V2000
   -3.1021    2.7506    1.0461 O   0  0  0  0  0  0  0  0  0  0  0  0
    5.3511   -1.0173   -0.5979 O   0  0  0  0  0  0  0  0  0  0  0  0
    3.1542   -1.0939    0.2902 O   0  0  0  0  0  0  0  0  0  0  0  0
   -1.8222    4.5669    0.4979 O   0  0  0  0  0  0  0  0  0  0  0  0
    1.1495    0.3109    1.1674 O   0  0  0  0  0  0  0  0  0  0  0  0
   -4.0243   -2.8010   -1.1216 O   0  0  0  0  0  0  0  0  0  0  0  0
    3.6635    1.6216    1.0345 O   0  0  0  0  0  0  0  0  0  0  0  0
    6.3834    2.1126    1.0557 O   0  0  0  0  0  0  0  0  0  0  0  0
   -2.2340   -3.5899    0.4150 O   0  0  0  0  0  0  0  0  0  0  0  0
   -1.5130    1.0903    0.7861 N   0  0  3  0  0  0  0  0  0  0  0  0
   -0.8387    2.3372    0.4845 C   0  0  1  0  0  0  0  0  0  0  0  0
   -2.8454    1.3685    1.2845 C   0  0  2  0  0  0  0  0  0  0  0  0
   -0.3476    2.3951   -0.9546 C   0  0  2  0  0  0  0  0  0  0  0  0
   -1.0898   -0.2182    0.5814 C   0  0  0  0  0  0  0  0  0  0  0  0
   -3.8461    0.4516    0.6208 C   0  0  0  0  0  0  0  0  0  0  0  0
   -1.9380    3.3630    0.6736 C   0  0  0  0  0  0  0  0  0  0  0  0
   -1.9760   -1.2081    0.3279 C   0  0  0  0  0  0  0  0  0  0  0  0
   -3.4136   -0.8188    0.1624 C   0  0  0  0  0  0  0  0  0  0  0  0
    0.6372    3.5555   -1.1998 C   0  0  0  0  0  0  0  0  0  0  0  0
   -1.5390    2.5228   -1.9110 C   0  0  0  0  0  0  0  0  0  0  0  0
    0.3707   -0.5094    0.6960 C   0  0  0  0  0  0  0  0  0  0  0  0
    0.8442   -1.8310    0.2575 C   0  0  0  0  0  0  0  0  0  0  0  0
   -1.5060   -2.6228    0.2250 C   0  0  0  0  0  0  0  0  0  0  0  0
   -5.1925    0.8274    0.5023 C   0  0  0  0  0  0  0  0  0  0  0  0
   -0.0666   -2.8569    0.0296 C   0  0  0  0  0  0  0  0  0  0  0  0
   -4.3518   -1.6455   -0.4738 C   0  0  0  0  0  0  0  0  0  0  0  0
    4.3814    1.6740   -0.1982 C   0  0  1  0  0  0  0  0  0  0  0  0
    5.8393    1.2760    0.0425 C   0  0  2  0  0  0  0  0  0  0  0  0
    3.9670   -0.7477   -0.8269 C   0  0  1  0  0  0  0  0  0  0  0  0
    3.7431    0.7196   -1.2082 C   0  0  0  0  0  0  0  0  0  0  0  0
    5.9423   -0.2065    0.4244 C   0  0  2  0  0  0  0  0  0  0  0  0
    1.1371    3.6329   -2.6353 C   0  0  0  0  0  0  0  0  0  0  0  0
   -6.1085   -0.0232   -0.1094 C   0  0  0  0  0  0  0  0  0  0  0  0
    2.2152   -2.0629    0.0952 C   0  0  0  0  0  0  0  0  0  0  0  0
   -5.6869   -1.2524   -0.6045 C   0  0  0  0  0  0  0  0  0  0  0  0
    0.3877   -4.1221   -0.3611 C   0  0  0  0  0  0  0  0  0  0  0  0
    7.3902   -0.6640    0.5757 C   0  0  0  0  0  0  0  0  0  0  0  0
    2.6663   -3.3225   -0.3002 C   0  0  0  0  0  0  0  0  0  0  0  0
   -7.5351    0.3884   -0.2460 C   0  0  0  0  0  0  0  0  0  0  0  0
    1.7538   -4.3507   -0.5277 C   0  0  0  0  0  0  0  0  0  0  0  0
   -0.0519    2.5314    1.2204 H   0  0  0  0  0  0  0  0  0  0  0  0
   -2.8852    1.2021    2.3687 H   0  0  0  0  0  0  0  0  0  0  0  0
    0.1796    1.4678   -1.2067 H   0  0  0  0  0  0  0  0  0  0  0  0
    1.5019    3.4266   -0.5377 H   0  0  0  0  0  0  0  0  0  0  0  0
    0.1896    4.5204   -0.9414 H   0  0  0  0  0  0  0  0  0  0  0  0
   -1.9752    3.5269   -1.9229 H   0  0  0  0  0  0  0  0  0  0  0  0
   -2.3309    1.8012   -1.6889 H   0  0  0  0  0  0  0  0  0  0  0  0
   -1.2245    2.3036   -2.9379 H   0  0  0  0  0  0  0  0  0  0  0  0
   -5.5229    1.7905    0.8842 H   0  0  0  0  0  0  0  0  0  0  0  0
    4.3244    2.7085   -0.5545 H   0  0  0  0  0  0  0  0  0  0  0  0
    6.4066    1.4491   -0.8810 H   0  0  0  0  0  0  0  0  0  0  0  0
    3.6869   -1.3414   -1.7068 H   0  0  0  0  0  0  0  0  0  0  0  0
    2.6694    0.9197   -1.2866 H   0  0  0  0  0  0  0  0  0  0  0  0
    4.2022    0.9037   -2.1872 H   0  0  0  0  0  0  0  0  0  0  0  0
    5.4368   -0.3974    1.3795 H   0  0  0  0  0  0  0  0  0  0  0  0
    1.9423    4.3714   -2.7093 H   0  0  0  0  0  0  0  0  0  0  0  0
    1.5338    2.6692   -2.9693 H   0  0  0  0  0  0  0  0  0  0  0  0
    0.3465    3.9446   -3.3241 H   0  0  0  0  0  0  0  0  0  0  0  0
   -6.4021   -1.8957   -1.1130 H   0  0  0  0  0  0  0  0  0  0  0  0
   -0.3058   -4.9387   -0.5438 H   0  0  0  0  0  0  0  0  0  0  0  0
    7.9426   -0.5300   -0.3609 H   0  0  0  0  0  0  0  0  0  0  0  0
    7.4288   -1.7328    0.8129 H   0  0  0  0  0  0  0  0  0  0  0  0
    7.9049   -0.1138    1.3689 H   0  0  0  0  0  0  0  0  0  0  0  0
    3.7272   -3.5234   -0.4239 H   0  0  0  0  0  0  0  0  0  0  0  0
   -7.8372    1.0471    0.5753 H   0  0  0  0  0  0  0  0  0  0  0  0
   -8.2013   -0.4807   -0.2201 H   0  0  0  0  0  0  0  0  0  0  0  0
   -7.6847    0.9172   -1.1926 H   0  0  0  0  0  0  0  0  0  0  0  0
    2.1064   -5.3320   -0.8316 H   0  0  0  0  0  0  0  0  0  0  0  0
    2.7403    1.8617    0.8469 H   0  0  0  0  0  0  0  0  0  0  0  0
    6.3006    3.0330    0.7532 H   0  0  0  0  0  0  0  0  0  0  0  0
   -4.8190   -3.2078   -1.5065 H   0  0  0  0  0  0  0  0  0  0  0  0
  1 12  1  0  0  0  0
  1 16  1  0  0  0  0
  2 29  1  0  0  0  0
  2 31  1  0  0  0  0
  3 29  1  0  0  0  0
  3 34  1  0  0  0  0
  4 16  2  0  0  0  0
  5 21  2  0  0  0  0
  6 26  1  0  0  0  0
  6 71  1  0  0  0  0
  7 27  1  0  0  0  0
  7 69  1  0  0  0  0
  8 28  1  0  0  0  0
  8 70  1  0  0  0  0
  9 23  2  0  0  0  0
 10 11  1  0  0  0  0
 10 12  1  0  0  0  0
 10 14  1  0  0  0  0
 11 13  1  0  0  0  0
 11 16  1  0  0  0  0
 11 41  1  0  0  0  0
 12 15  1  0  0  0  0
 12 42  1  0  0  0  0
 13 19  1  0  0  0  0
 13 20  1  0  0  0  0
 13 43  1  0  0  0  0
 14 17  2  0  0  0  0
 14 21  1  0  0  0  0
 15 18  2  0  0  0  0
 15 24  1  0  0  0  0
 17 18  1  0  0  0  0
 17 23  1  0  0  0  0
 18 26  1  0  0  0  0
 19 32  1  0  0  0  0
 19 44  1  0  0  0  0
 19 45  1  0  0  0  0
 20 46  1  0  0  0  0
 20 47  1  0  0  0  0
 20 48  1  0  0  0  0
 21 22  1  0  0  0  0
 22 25  2  0  0  0  0
 22 34  1  0  0  0  0
 23 25  1  0  0  0  0
 24 33  2  0  0  0  0
 24 49  1  0  0  0  0
 25 36  1  0  0  0  0
 26 35  2  0  0  0  0
 27 28  1  0  0  0  0
 27 30  1  0  0  0  0
 27 50  1  0  0  0  0
 28 31  1  0  0  0  0
 28 51  1  0  0  0  0
 29 30  1  0  0  0  0
 29 52  1  0  0  0  0
 30 53  1  0  0  0  0
 30 54  1  0  0  0  0
 31 37  1  0  0  0  0
 31 55  1  0  0  0  0
 32 56  1  0  0  0  0
 32 57  1  0  0  0  0
 32 58  1  0  0  0  0
 33 35  1  0  0  0  0
 33 39  1  0  0  0  0
 34 38  2  0  0  0  0
 35 59  1  0  0  0  0
 36 40  2  0  0  0  0
 36 60  1  0  0  0  0
 37 61  1  0  0  0  0
 37 62  1  0  0  0  0
 37 63  1  0  0  0  0
 38 40  1  0  0  0  0
 38 64  1  0  0  0  0
 39 65  1  0  0  0  0
 39 66  1  0  0  0  0
 39 67  1  0  0  0  0
 40 68  1  0  0  0  0
M  END
> <PUBCHEM_COMPOUND_CID>
50986109

> <PUBCHEM_CONFORMER_RMSD>
1

> <PUBCHEM_CONFORMER_DIVERSEORDER>
2
8
15
13
6
16
7
11
10
12
14
1
5
4
9
3

> <PUBCHEM_MMFF94_PARTIAL_CHARGES>
42
1 -0.43
10 -0.84
11 0.43
12 0.79
14 0.11
15 -0.14
16 0.66
17 -0.01
18 0.03
2 -0.56
21 0.47
22 0.09
23 0.47
24 -0.15
25 0.09
26 0.08
27 0.28
28 0.28
29 0.56
3 -0.36
31 0.28
33 -0.14
34 0.08
35 -0.15
36 -0.15
38 -0.15
39 0.14
4 -0.57
40 -0.15
49 0.15
5 -0.57
59 0.15
6 -0.53
60 0.15
64 0.15
68 0.15
69 0.4
7 -0.68
70 0.4
71 0.45
8 -0.68
9 -0.57

> <PUBCHEM_EFFECTIVE_ROTOR_COUNT>
5.6

> <PUBCHEM_PHARMACOPHORE_FEATURES>
19
1 10 cation
1 2 acceptor
1 20 hydrophobe
1 3 acceptor
1 32 hydrophobe
1 4 acceptor
1 5 acceptor
1 6 donor
1 7 acceptor
1 7 donor
1 8 acceptor
1 8 donor
1 9 acceptor
5 1 10 11 12 16 rings
6 10 12 14 15 17 18 rings
6 14 17 21 22 23 25 rings
6 15 18 24 26 33 35 rings
6 2 27 28 29 30 31 rings
6 22 25 34 36 38 40 rings

> <PUBCHEM_HEAVY_ATOM_COUNT>
40

> <PUBCHEM_ATOM_DEF_STEREO_COUNT>
7

> <PUBCHEM_ATOM_UDEF_STEREO_COUNT>
0

> <PUBCHEM_BOND_DEF_STEREO_COUNT>
0

> <PUBCHEM_BOND_UDEF_STEREO_COUNT>
0

> <PUBCHEM_ISOTOPIC_ATOM_COUNT>
0

> <PUBCHEM_COMPONENT_COUNT>
1

> <PUBCHEM_CACTVS_TAUTO_COUNT>
30

> <PUBCHEM_CONFORMER_ID>
0309FC7D00000002

> <PUBCHEM_MMFF94_ENERGY>
131.2657

> <PUBCHEM_FEATURE_SELFOVERLAP>
96.656

> <PUBCHEM_SHAPE_FINGERPRINT>
1100329 8 18267298721217747593
11135926 11 18409173225330125079
11513181 2 18042961171988714567
1361 2 18411978061510677218
13617811 41 18410299112072835361
140371 6 18270946999662006219
14068700 675 18408886200538678493
14117953 113 18342173371520285230
14394314 77 18334569188306717025
14790565 3 18408036304020047953
14840074 17 18202275888136313317
14955137 171 18196358244205544771
15001296 14 18199469879144553712
15219462 58 16699473458938307595
15276724 80 18263925613297287677
15297060 5 18187919543353235538
15320467 1 18408884023353918472
19611394 137 18057593266794825819
20642791 178 18127121983919056237
20715895 44 18411135806024807102
20764821 26 18124016954049248580
20775438 99 16094068720138141615
22113638 7 18197494035216263580
23559900 14 18188500051592067633
24771750 20 17984127168491578533
25019877 29 18040994042559948558
350125 39 18409451422935604570
463206 1 18338510816784186205
469060 322 18342734143487488720
6036956 94 18270668758395652453
6287921 2 18123735711074657324
6371009 1 18410858763575216984
9981440 41 18412257316259374162

> <PUBCHEM_SHAPE_MULTIPOLES>
765.38
14.18
5.51
1.29
5.25
0.25
0.52
-0.74
-1.2
0.13
1.46
0.15
-1.2
-0.61

> <PUBCHEM_SHAPE_SELFOVERLAP>
1700.155

> <PUBCHEM_SHAPE_VOLUME>
404.9

> <PUBCHEM_COORDINATE_TYPE>
2
5
10

$$$$

