5280844
  -OEChem-07051213113D

 42 42  0     0  0  0  0  0  0999 V2000
    0.2636    1.1405   -2.3265 O   0  0  0  0  0  0  0  0  0  0  0  0
   -4.8760   -1.2159    0.3389 O   0  0  0  0  0  0  0  0  0  0  0  0
   -4.1795   -0.0169    2.1399 O   0  0  0  0  0  0  0  0  0  0  0  0
    3.7214    0.6969    1.3780 C   0  0  0  0  0  0  0  0  0  0  0  0
    2.6283    1.4441    0.6429 C   0  0  0  0  0  0  0  0  0  0  0  0
    4.0369   -0.6819    0.7829 C   0  0  0  0  0  0  0  0  0  0  0  0
    0.1935    2.1775    0.3338 C   0  0  0  0  0  0  0  0  0  0  0  0
    1.3253    1.4346    0.9868 C   0  0  0  0  0  0  0  0  0  0  0  0
   -0.8612    1.2482   -0.2130 C   0  0  0  0  0  0  0  0  0  0  0  0
    2.8878   -1.6430    0.9126 C   0  0  0  0  0  0  0  0  0  0  0  0
    3.0925    2.2738   -0.5267 C   0  0  0  0  0  0  0  0  0  0  0  0
   -1.9152    0.8777    0.6097 C   0  0  0  0  0  0  0  0  0  0  0  0
   -0.7696    0.7790   -1.5151 C   0  0  0  0  0  0  0  0  0  0  0  0
    2.2261   -2.2864   -0.0678 C   0  0  0  0  0  0  0  0  0  0  0  0
   -2.8992    0.0193    0.1191 C   0  0  0  0  0  0  0  0  0  0  0  0
   -1.7536   -0.0792   -2.0059 C   0  0  0  0  0  0  0  0  0  0  0  0
   -2.8184   -0.4590   -1.1887 C   0  0  0  0  0  0  0  0  0  0  0  0
    1.0813   -3.2376    0.1347 C   0  0  0  0  0  0  0  0  0  0  0  0
    2.6247   -2.0931   -1.5069 C   0  0  0  0  0  0  0  0  0  0  0  0
   -4.0089   -0.3784    0.9710 C   0  0  0  0  0  0  0  0  0  0  0  0
    3.4349    0.5796    2.4320 H   0  0  0  0  0  0  0  0  0  0  0  0
    4.6335    1.3069    1.3896 H   0  0  0  0  0  0  0  0  0  0  0  0
    4.8799   -1.1073    1.3427 H   0  0  0  0  0  0  0  0  0  0  0  0
    4.3958   -0.5717   -0.2433 H   0  0  0  0  0  0  0  0  0  0  0  0
   -0.2626    2.8188    1.1012 H   0  0  0  0  0  0  0  0  0  0  0  0
    0.5041    2.8859   -0.4383 H   0  0  0  0  0  0  0  0  0  0  0  0
    1.0438    0.8385    1.8547 H   0  0  0  0  0  0  0  0  0  0  0  0
    2.5676   -1.8314    1.9370 H   0  0  0  0  0  0  0  0  0  0  0  0
    3.5628    3.1947   -0.1666 H   0  0  0  0  0  0  0  0  0  0  0  0
    2.3149    2.5403   -1.2423 H   0  0  0  0  0  0  0  0  0  0  0  0
    3.8420    1.7182   -1.1019 H   0  0  0  0  0  0  0  0  0  0  0  0
   -1.9703    1.2528    1.6286 H   0  0  0  0  0  0  0  0  0  0  0  0
   -1.7023   -0.4598   -3.0226 H   0  0  0  0  0  0  0  0  0  0  0  0
   -3.5618   -1.1292   -1.6109 H   0  0  0  0  0  0  0  0  0  0  0  0
    0.1786   -2.8598   -0.3563 H   0  0  0  0  0  0  0  0  0  0  0  0
    0.8525   -3.3707    1.1972 H   0  0  0  0  0  0  0  0  0  0  0  0
    1.3234   -4.2207   -0.2814 H   0  0  0  0  0  0  0  0  0  0  0  0
    3.0670   -1.1163   -1.7151 H   0  0  0  0  0  0  0  0  0  0  0  0
    1.7418   -2.1569   -2.1538 H   0  0  0  0  0  0  0  0  0  0  0  0
    3.3238   -2.8770   -1.8146 H   0  0  0  0  0  0  0  0  0  0  0  0
    0.1562    0.7063   -3.1901 H   0  0  0  0  0  0  0  0  0  0  0  0
   -5.6206   -1.4778    0.9214 H   0  0  0  0  0  0  0  0  0  0  0  0
  1 13  1  0  0  0  0
  1 41  1  0  0  0  0
  2 20  1  0  0  0  0
  2 42  1  0  0  0  0
  3 20  2  0  0  0  0
  4  5  1  0  0  0  0
  4  6  1  0  0  0  0
  4 21  1  0  0  0  0
  4 22  1  0  0  0  0
  5  8  2  0  0  0  0
  5 11  1  0  0  0  0
  6 10  1  0  0  0  0
  6 23  1  0  0  0  0
  6 24  1  0  0  0  0
  7  8  1  0  0  0  0
  7  9  1  0  0  0  0
  7 25  1  0  0  0  0
  7 26  1  0  0  0  0
  8 27  1  0  0  0  0
  9 12  1  0  0  0  0
  9 13  2  0  0  0  0
 10 14  2  0  0  0  0
 10 28  1  0  0  0  0
 11 29  1  0  0  0  0
 11 30  1  0  0  0  0
 11 31  1  0  0  0  0
 12 15  2  0  0  0  0
 12 32  1  0  0  0  0
 13 16  1  0  0  0  0
 14 18  1  0  0  0  0
 14 19  1  0  0  0  0
 15 17  1  0  0  0  0
 15 20  1  0  0  0  0
 16 17  2  0  0  0  0
 16 33  1  0  0  0  0
 17 34  1  0  0  0  0
 18 35  1  0  0  0  0
 18 36  1  0  0  0  0
 18 37  1  0  0  0  0
 19 38  1  0  0  0  0
 19 39  1  0  0  0  0
 19 40  1  0  0  0  0
M  END
> <PUBCHEM_COMPOUND_CID>
5280844

> <PUBCHEM_CONFORMER_RMSD>
0.8

> <PUBCHEM_CONFORMER_DIVERSEORDER>
1
348
99
287
182
170
202
57
216
278
33
135
68
211
153
85
220
122
319
29
155
178
219
351
183
169
109
223
174
297
247
97
324
246
335
222
53
103
104
162
36
112
347
209
240
54
23
234
309
197
176
224
172
8
323
4
16
56
244
334
206
93
161
187
77
318
15
354
64
282
241
291
138
80
144
248
69
312
30
266
352
78
62
332
115
181
214
45
73
264
286
325
35
55
163
288
26
52
316
265
105
12
299
303
284
3
204
250
311
293
356
243
349
65
47
277
171
167
156
340
229
212
134
301
290
357
128
17
31
255
262
237
184
346
147
11
251
253
294
333
196
120
329
343
67
173
98
139
140
350
28
81
226
330
160
116
239
131
19
20
218
192
259
191
274
27
157
304
249
22
9
307
275
37
221
180
210
208
21
341
186
302
66
213
225
308
124
39
92
145
137
82
313
353
7
231
331
119
88
10
89
133
298
261
217
150
83
315
18
154
86
59
79
159
338
96
107
38
32
269
337
227
268
215
281
272
166
148
151
228
242
46
310
271
118
193
235
230
252
185
175
51
123
190
257
306
344
42
305
95
129
355
106
13
322
232
63
91
339
327
101
114
168
283
200
2
254
87
125
258
61
342
203
279
40
328
48
233
126
270
43
143
289
199
165
149
130
90
72
260
207
236
34
300
314
152
292
14
41
345
276
285
108
179
60
100
58
177
164
296
158
194
76
84
70
201
136
102
273
267
238
75
146
94
295
321
336
24
110
121
141
5
317
6
263
326
71
49
113
205
127
44
256
142
188
74
25
195
50
245
111
280
189
117
198
132
320

> <PUBCHEM_MMFF94_PARTIAL_CHARGES>
27
1 -0.53
10 -0.29
11 0.14
12 -0.15
13 0.08
14 -0.28
15 0.09
16 -0.15
17 -0.15
18 0.14
19 0.14
2 -0.65
20 0.63
27 0.15
28 0.15
3 -0.57
32 0.15
33 0.15
34 0.15
4 0.14
41 0.45
42 0.5
5 -0.28
6 0.14
7 0.28
8 -0.29
9 -0.14

> <PUBCHEM_EFFECTIVE_ROTOR_COUNT>
6

> <PUBCHEM_PHARMACOPHORE_FEATURES>
8
1 1 donor
1 11 hydrophobe
1 2 acceptor
1 3 acceptor
3 14 18 19 hydrophobe
3 2 3 20 anion
4 4 5 6 10 hydrophobe
6 9 12 13 15 16 17 rings

> <PUBCHEM_HEAVY_ATOM_COUNT>
20

> <PUBCHEM_ATOM_DEF_STEREO_COUNT>
0

> <PUBCHEM_ATOM_UDEF_STEREO_COUNT>
0

> <PUBCHEM_BOND_DEF_STEREO_COUNT>
1

> <PUBCHEM_BOND_UDEF_STEREO_COUNT>
0

> <PUBCHEM_ISOTOPIC_ATOM_COUNT>
0

> <PUBCHEM_COMPONENT_COUNT>
1

> <PUBCHEM_CACTVS_TAUTO_COUNT>
4

> <PUBCHEM_CONFORMER_ID>
0050944C00000001

> <PUBCHEM_MMFF94_ENERGY>
39.8799

> <PUBCHEM_FEATURE_SELFOVERLAP>
40.658

> <PUBCHEM_SHAPE_FINGERPRINT>
10064457 181 18263645056937208802
12363563 72 16845573119077829849
12553582 1 18261121755140255184
12596599 1 17822021925100496198
12596602 18 17241051994228321603
12633257 1 18409739451821698282
12892183 10 17894910715827435625
13533116 47 18260825978486808619
13583140 156 18113909225945596481
14251705 54 18266746959770268018
14251757 5 16098524576888054350
14957384 54 15430049759103644410
15375462 189 17968105204746123888
15422964 175 18266743661145642344
15635459 17 18343586260741406867
1813 80 17417802963881279733
20645477 70 18270981067073760965
20775530 9 17698719542882472658
21427221 339 17458617973364521603
23557571 272 16773528732011713205
5262128 65 16414622908515811636
5282274 181 18268985388992441539
5352402 22 18342735204682001907
6287921 2 17821728372802434246
7097593 13 18040435499089842057
9795274 37 17696198380137065978

> <PUBCHEM_SHAPE_MULTIPOLES>
393.98
7.89
2.85
1.84
4.33
1.37
-0.6
1.89
3.51
-2.96
-0.12
0.84
-0.09
0.29

> <PUBCHEM_SHAPE_SELFOVERLAP>
802.199

> <PUBCHEM_SHAPE_VOLUME>
229.2

> <PUBCHEM_COORDINATE_TYPE>
2
5
10

$$$$

