440282
  -OEChem-07051212493D

 16 16  0     1  0  0  0  0  0999 V2000
    2.2920   -0.5038   -1.1694 O   0  0  0  0  0  0  0  0  0  0  0  0
   -2.2060   -1.1374    0.4505 O   0  0  0  0  0  0  0  0  0  0  0  0
   -2.3837    0.7853   -0.7748 O   0  0  0  0  0  0  0  0  0  0  0  0
    0.2474    1.2884    0.2869 N   0  0  0  0  0  0  0  0  0  0  0  0
    1.8996   -0.4495    0.1988 C   0  0  2  0  0  0  0  0  0  0  0  0
    0.5382   -1.0922    0.3515 C   0  0  0  0  0  0  0  0  0  0  0  0
    1.6629    0.9971    0.6156 C   0  0  0  0  0  0  0  0  0  0  0  0
   -0.3029    0.1232    0.1643 C   0  0  0  0  0  0  0  0  0  0  0  0
   -1.7474   -0.0111   -0.1233 C   0  0  0  0  0  0  0  0  0  0  0  0
    2.6788   -0.9342    0.7940 H   0  0  0  0  0  0  0  0  0  0  0  0
    0.3790   -1.4808    1.3615 H   0  0  0  0  0  0  0  0  0  0  0  0
    0.3203   -1.8517   -0.4030 H   0  0  0  0  0  0  0  0  0  0  0  0
    1.8055    1.1310    1.6936 H   0  0  0  0  0  0  0  0  0  0  0  0
    2.3150    1.6904    0.0753 H   0  0  0  0  0  0  0  0  0  0  0  0
    2.3996   -1.4412   -1.4047 H   0  0  0  0  0  0  0  0  0  0  0  0
   -3.1639   -1.2724    0.2875 H   0  0  0  0  0  0  0  0  0  0  0  0
  1  5  1  0  0  0  0
  1 15  1  0  0  0  0
  2  9  1  0  0  0  0
  2 16  1  0  0  0  0
  3  9  2  0  0  0  0
  4  7  1  0  0  0  0
  4  8  2  0  0  0  0
  5  6  1  0  0  0  0
  5  7  1  0  0  0  0
  5 10  1  0  0  0  0
  6  8  1  0  0  0  0
  6 11  1  0  0  0  0
  6 12  1  0  0  0  0
  7 13  1  0  0  0  0
  7 14  1  0  0  0  0
  8  9  1  0  0  0  0
M  END
> <PUBCHEM_COMPOUND_CID>
440282

> <PUBCHEM_CONFORMER_RMSD>
0.4

> <PUBCHEM_CONFORMER_DIVERSEORDER>
1
4
2
3

> <PUBCHEM_MMFF94_PARTIAL_CHARGES>
11
1 -0.68
15 0.4
16 0.5
2 -0.65
3 -0.57
4 -0.7
5 0.28
6 0.06
7 0.25
8 0.39
9 0.72

> <PUBCHEM_EFFECTIVE_ROTOR_COUNT>
1.6

> <PUBCHEM_PHARMACOPHORE_FEATURES>
7
1 1 acceptor
1 1 donor
1 2 acceptor
1 3 acceptor
1 4 acceptor
3 2 3 9 anion
5 4 5 6 7 8 rings

> <PUBCHEM_HEAVY_ATOM_COUNT>
9

> <PUBCHEM_ATOM_DEF_STEREO_COUNT>
0

> <PUBCHEM_ATOM_UDEF_STEREO_COUNT>
1

> <PUBCHEM_BOND_DEF_STEREO_COUNT>
0

> <PUBCHEM_BOND_UDEF_STEREO_COUNT>
0

> <PUBCHEM_ISOTOPIC_ATOM_COUNT>
0

> <PUBCHEM_COMPONENT_COUNT>
1

> <PUBCHEM_CACTVS_TAUTO_COUNT>
1

> <PUBCHEM_CONFORMER_ID>
0006B7DA00000001

> <PUBCHEM_MMFF94_ENERGY>
13.3593

> <PUBCHEM_FEATURE_SELFOVERLAP>
35.578

> <PUBCHEM_SHAPE_FINGERPRINT>
12897270 3 18342736338289623694
12932741 1 18409733945583375541
20653085 51 16485253267704590110
21040471 1 18202008728290602122
23552423 10 17774442805612925954
24536 1 17967256390264170811
29004967 10 17967532372019953290
5084963 1 18271237231713049403

> <PUBCHEM_SHAPE_MULTIPOLES>
162.63
3.25
1.23
0.85
0.89
0.07
0.14
-0.19
0.55
-0.04
-0.14
-0.22
-0.04
0.46

> <PUBCHEM_SHAPE_SELFOVERLAP>
332.206

> <PUBCHEM_SHAPE_VOLUME>
95.7

> <PUBCHEM_COORDINATE_TYPE>
2
5
10

$$$$

