586013
  -OEChem-06241222452D

 24 24  0     0  0  0  0  0  0999 V2000
    2.5369   -2.5950    0.0000 O   0  0  0  0  0  0  0  0  0  0  0  0
    4.2690    1.4050    0.0000 N   0  0  0  0  0  0  0  0  0  0  0  0
    4.2690    0.4050    0.0000 C   0  0  0  0  0  0  0  0  0  0  0  0
    3.4030   -1.0950    0.0000 C   0  0  0  0  0  0  0  0  0  0  0  0
    3.4030   -0.0950    0.0000 C   0  0  0  0  0  0  0  0  0  0  0  0
    5.1350    1.9050    0.0000 C   0  0  0  0  0  0  0  0  0  0  0  0
    5.1350   -0.0950    0.0000 C   0  0  0  0  0  0  0  0  0  0  0  0
    4.2690   -1.5950    0.0000 C   0  0  0  0  0  0  0  0  0  0  0  0
    5.1350   -1.0950    0.0000 C   0  0  0  0  0  0  0  0  0  0  0  0
    2.5369   -1.5950    0.0000 C   0  0  0  0  0  0  0  0  0  0  0  0
    5.1350    2.9050    0.0000 C   0  0  0  0  0  0  0  0  0  0  0  0
    2.8660    0.2150    0.0000 H   0  0  0  0  0  0  0  0  0  0  0  0
    3.7320    1.7150    0.0000 H   0  0  0  0  0  0  0  0  0  0  0  0
    5.3471    1.3224    0.0000 H   0  0  0  0  0  0  0  0  0  0  0  0
    5.7456    2.0127    0.0000 H   0  0  0  0  0  0  0  0  0  0  0  0
    5.6720    0.2150    0.0000 H   0  0  0  0  0  0  0  0  0  0  0  0
    4.2690   -2.2150    0.0000 H   0  0  0  0  0  0  0  0  0  0  0  0
    5.6720   -1.4050    0.0000 H   0  0  0  0  0  0  0  0  0  0  0  0
    2.3249   -1.0124    0.0000 H   0  0  0  0  0  0  0  0  0  0  0  0
    1.9264   -1.7027    0.0000 H   0  0  0  0  0  0  0  0  0  0  0  0
    5.7550    2.9050    0.0000 H   0  0  0  0  0  0  0  0  0  0  0  0
    5.1350    3.5250    0.0000 H   0  0  0  0  0  0  0  0  0  0  0  0
    4.5150    2.9050    0.0000 H   0  0  0  0  0  0  0  0  0  0  0  0
    2.0000   -2.9050    0.0000 H   0  0  0  0  0  0  0  0  0  0  0  0
  1 10  1  0  0  0  0
  1 24  1  0  0  0  0
  2  3  1  0  0  0  0
  2  6  1  0  0  0  0
  2 13  1  0  0  0  0
  3  5  1  0  0  0  0
  3  7  2  0  0  0  0
  4  5  2  0  0  0  0
  4  8  1  0  0  0  0
  4 10  1  0  0  0  0
  5 12  1  0  0  0  0
  6 11  1  0  0  0  0
  6 14  1  0  0  0  0
  6 15  1  0  0  0  0
  7  9  1  0  0  0  0
  7 16  1  0  0  0  0
  8  9  2  0  0  0  0
  8 17  1  0  0  0  0
  9 18  1  0  0  0  0
 10 19  1  0  0  0  0
 10 20  1  0  0  0  0
 11 21  1  0  0  0  0
 11 22  1  0  0  0  0
 11 23  1  0  0  0  0
M  END
> <PUBCHEM_COMPOUND_CID>
586013

> <PUBCHEM_COMPOUND_CANONICALIZED>
1

> <PUBCHEM_CACTVS_COMPLEXITY>
106

> <PUBCHEM_CACTVS_HBOND_ACCEPTOR>
2

> <PUBCHEM_CACTVS_HBOND_DONOR>
2

> <PUBCHEM_CACTVS_ROTATABLE_BOND>
3

> <PUBCHEM_CACTVS_SUBSKEYS>
AAADccByIAAAAAAAAAAAAAAAAAAAAAAAAAAwAAAAAAAAAAABAAAAHgAQCAAADAjhmAYywILAAgCAAiRCQACCAAAhAgAIiIAIbIgINiLAkZGEcAhk0AHI2AewwCAOAAAAQAAAAAAAAACAAAAAAAAAAAAAAA==

> <PUBCHEM_IUPAC_OPENEYE_NAME>
[3-(ethylamino)phenyl]methanol

> <PUBCHEM_IUPAC_CAS_NAME>
[3-(ethylamino)phenyl]methanol

> <PUBCHEM_IUPAC_NAME>
[3-(ethylamino)phenyl]methanol

> <PUBCHEM_IUPAC_SYSTEMATIC_NAME>
[3-(ethylamino)phenyl]methanol

> <PUBCHEM_IUPAC_TRADITIONAL_NAME>
[3-(ethylamino)phenyl]methanol

> <PUBCHEM_IUPAC_INCHI>
InChI=1S/C9H13NO/c1-2-10-9-5-3-4-8(6-9)7-11/h3-6,10-11H,2,7H2,1H3

> <PUBCHEM_IUPAC_INCHIKEY>
ZXQDQDWDUYLEPH-UHFFFAOYSA-N

> <PUBCHEM_XLOGP3>
1.7

> <PUBCHEM_EXACT_MASS>
151.099714

> <PUBCHEM_MOLECULAR_FORMULA>
C9H13NO

> <PUBCHEM_MOLECULAR_WEIGHT>
151.20562

> <PUBCHEM_OPENEYE_CAN_SMILES>
CCNC1=CC=CC(=C1)CO

> <PUBCHEM_OPENEYE_ISO_SMILES>
CCNC1=CC=CC(=C1)CO

> <PUBCHEM_CACTVS_TPSA>
32.3

> <PUBCHEM_MONOISOTOPIC_WEIGHT>
151.099714

> <PUBCHEM_TOTAL_CHARGE>
0

> <PUBCHEM_HEAVY_ATOM_COUNT>
11

> <PUBCHEM_ATOM_DEF_STEREO_COUNT>
0

> <PUBCHEM_ATOM_UDEF_STEREO_COUNT>
0

> <PUBCHEM_BOND_DEF_STEREO_COUNT>
0

> <PUBCHEM_BOND_UDEF_STEREO_COUNT>
0

> <PUBCHEM_ISOTOPIC_ATOM_COUNT>
0

> <PUBCHEM_COMPONENT_COUNT>
1

> <PUBCHEM_CACTVS_TAUTO_COUNT>
1

> <PUBCHEM_COORDINATE_TYPE>
1
5
255

> <PUBCHEM_BONDANNOTATIONS>
3  5  8
3  7  8
4  5  8
4  8  8
7  9  8
8  9  8

$$$$

