585243
  -OEChem-06241222453D

 32 33  0     1  0  0  0  0  0999 V2000
   -1.1970    0.6251   -0.7467 O   0  0  0  0  0  0  0  0  0  0  0  0
   -2.8182    1.4703    1.4093 O   0  0  0  0  0  0  0  0  0  0  0  0
   -4.2113   -1.0910   -0.6636 O   0  0  0  0  0  0  0  0  0  0  0  0
   -4.6216    1.1733   -0.5385 O   0  0  0  0  0  0  0  0  0  0  0  0
    0.8684   -0.6156    0.8771 N   0  0  0  0  0  0  0  0  0  0  0  0
    2.5550   -1.9278    0.3138 N   0  0  0  0  0  0  0  0  0  0  0  0
    1.7290    1.5403    0.1747 N   0  0  0  0  0  0  0  0  0  0  0  0
    3.9587    1.3110   -0.7908 N   0  0  0  0  0  0  0  0  0  0  0  0
    5.0679   -0.8009   -0.9754 N   0  0  0  0  0  0  0  0  0  0  0  0
   -1.5397   -0.2474    0.3281 C   0  0  1  0  0  0  0  0  0  0  0  0
   -0.4399   -0.2205    1.4010 C   0  0  0  0  0  0  0  0  0  0  0  0
   -2.9173    0.1591    0.8686 C   0  0  2  0  0  0  0  0  0  0  0  0
    1.7961    0.2107    0.3399 C   0  0  0  0  0  0  0  0  0  0  0  0
    2.8451   -0.6256   -0.0075 C   0  0  0  0  0  0  0  0  0  0  0  0
    1.3517   -1.8840    0.8466 C   0  0  0  0  0  0  0  0  0  0  0  0
   -4.0086    0.1725   -0.1894 C   0  0  0  0  0  0  0  0  0  0  0  0
    3.9572   -0.0293   -0.5933 C   0  0  0  0  0  0  0  0  0  0  0  0
    2.8607    2.0022   -0.4004 C   0  0  0  0  0  0  0  0  0  0  0  0
   -5.2362   -1.2223   -1.6535 C   0  0  0  0  0  0  0  0  0  0  0  0
   -1.6092   -1.2570   -0.0959 H   0  0  0  0  0  0  0  0  0  0  0  0
   -0.3128    0.7861    1.8161 H   0  0  0  0  0  0  0  0  0  0  0  0
   -0.6794   -0.9001    2.2266 H   0  0  0  0  0  0  0  0  0  0  0  0
   -3.2343   -0.5038    1.6806 H   0  0  0  0  0  0  0  0  0  0  0  0
    0.7983   -2.7360    1.2176 H   0  0  0  0  0  0  0  0  0  0  0  0
   -0.4664    0.2170   -1.2409 H   0  0  0  0  0  0  0  0  0  0  0  0
   -2.4643    2.0535    0.7158 H   0  0  0  0  0  0  0  0  0  0  0  0
    2.8963    3.0724   -0.5736 H   0  0  0  0  0  0  0  0  0  0  0  0
    5.8646   -0.3440   -1.3978 H   0  0  0  0  0  0  0  0  0  0  0  0
    5.0702   -1.8012   -0.8280 H   0  0  0  0  0  0  0  0  0  0  0  0
   -6.2027   -0.9179   -1.2409 H   0  0  0  0  0  0  0  0  0  0  0  0
   -4.9876   -0.6269   -2.5372 H   0  0  0  0  0  0  0  0  0  0  0  0
   -5.2948   -2.2744   -1.9447 H   0  0  0  0  0  0  0  0  0  0  0  0
  1 10  1  0  0  0  0
  1 25  1  0  0  0  0
  2 12  1  0  0  0  0
  2 26  1  0  0  0  0
  3 16  1  0  0  0  0
  3 19  1  0  0  0  0
  4 16  2  0  0  0  0
  5 11  1  0  0  0  0
  5 13  1  0  0  0  0
  5 15  1  0  0  0  0
  6 14  1  0  0  0  0
  6 15  2  0  0  0  0
  7 13  2  0  0  0  0
  7 18  1  0  0  0  0
  8 17  1  0  0  0  0
  8 18  2  0  0  0  0
  9 17  1  0  0  0  0
  9 28  1  0  0  0  0
  9 29  1  0  0  0  0
 10 11  1  0  0  0  0
 10 12  1  0  0  0  0
 10 20  1  0  0  0  0
 11 21  1  0  0  0  0
 11 22  1  0  0  0  0
 12 16  1  0  0  0  0
 12 23  1  0  0  0  0
 13 14  1  0  0  0  0
 14 17  2  0  0  0  0
 15 24  1  0  0  0  0
 18 27  1  0  0  0  0
 19 30  1  0  0  0  0
 19 31  1  0  0  0  0
 19 32  1  0  0  0  0
M  END
> <PUBCHEM_COMPOUND_CID>
585243

> <PUBCHEM_CONFORMER_RMSD>
0.6

> <PUBCHEM_CONFORMER_DIVERSEORDER>
3
154
164
23
111
157
87
134
124
94
121
46
116
122
162
96
67
110
136
138
165
91
43
59
97
125
64
65
158
160
123
108
166
133
102
95
104
47
109
27
163
48
31
71
28
85
135
19
145
105
161
86
41
144
131
60
107
92
147
62
83
6
63
34
50
26
132
115
77
152
150
118
82
137
129
72
93
38
149
151
44
79
5
103
112
30
130
1
84
117
127
55
7
153
90
69
36
139
73
101
148
15
106
32
70
146
168
89
113
13
25
141
74
66
126
54
155
68
39
159
142
33
100
114
80
61
21
58
119
53
81
56
52
37
40
20
128
169
12
17
75
18
76
51
42
35
9
22
167
78
143
29
45
49
57
11
10
120
24
4
16
99
2
8
156
140
98
88
14

> <PUBCHEM_MMFF94_PARTIAL_CHARGES>
25
1 -0.68
10 0.28
11 0.26
12 0.34
13 0.11
14 0.23
15 0.04
16 0.66
17 0.41
18 0.47
19 0.28
2 -0.68
24 0.15
25 0.4
26 0.4
27 0.15
28 0.4
29 0.4
3 -0.43
4 -0.57
5 0.05
6 -0.57
7 -0.57
8 -0.62
9 -0.9

> <PUBCHEM_EFFECTIVE_ROTOR_COUNT>
5

> <PUBCHEM_PHARMACOPHORE_FEATURES>
12
1 1 acceptor
1 1 donor
1 2 acceptor
1 2 donor
1 4 acceptor
1 9 cation
1 9 donor
3 5 6 15 cation
3 5 7 13 cation
3 7 8 18 cation
5 5 6 13 14 15 rings
6 7 8 13 14 17 18 rings

> <PUBCHEM_HEAVY_ATOM_COUNT>
19

> <PUBCHEM_ATOM_DEF_STEREO_COUNT>
0

> <PUBCHEM_ATOM_UDEF_STEREO_COUNT>
2

> <PUBCHEM_BOND_DEF_STEREO_COUNT>
0

> <PUBCHEM_BOND_UDEF_STEREO_COUNT>
0

> <PUBCHEM_ISOTOPIC_ATOM_COUNT>
0

> <PUBCHEM_COMPONENT_COUNT>
1

> <PUBCHEM_CACTVS_TAUTO_COUNT>
3

> <PUBCHEM_CONFORMER_ID>
0008EE1B00000003

> <PUBCHEM_MMFF94_ENERGY>
31.9158

> <PUBCHEM_FEATURE_SELFOVERLAP>
61.516

> <PUBCHEM_SHAPE_FINGERPRINT>
10366900 7 17775286066564495149
10498660 4 17203609255115008573
10693767 8 18263361559522434926
11471102 20 18343297072556982232
11543360 7 18411143515569834907
11615757 297 18408603669105059641
11796584 16 15865178273519239542
12236239 1 18040715878955042684
12670546 177 18411141324967884535
12730499 353 17988916778032290099
12892183 10 9943808889287558647
12969540 114 17131846347843062503
13167823 11 18261112950625759391
13675066 3 6916269550515782547
13760787 19 18259986011458176171
14251757 5 18118974577188977631
14252887 29 7060384704221090724
14528608 73 18271812293780135887
14576447 43 18333454244006474862
15375358 24 16773800285829955389
16752209 62 17095811013888706931
17834072 33 18407760326590900525
18186145 218 18271798021377107368
18915474 69 17968098590533242103
19422 9 18187362159872484667
200 152 18407759231363684041
20645477 70 17917432085186918515
21054139 6 18334585611538911686
221357 26 18343305902767481373
22289505 5 18129950090697181204
231179 274 16988844956149909648
23402539 116 18040991886538787776
23402655 69 18341049721949711457
23557571 272 16298661810717333945
23559900 14 17822025185402205769
23598291 2 18191585461196841459
25 1 18201990045731471426
2871803 45 18343867714343286644
29717793 49 17967248719426368957
3060560 45 18413952780685076470
3082319 5 18261110790014538361
4028521 119 17632580439847948343
4072396 5 18130796676924005138
42 15 7637404038327468259
465052 167 16806169831322506399
474 4 18058729096217045844
4990 188 18334006199038511710
543358 83 18198340847800253593
633830 44 17845936346407386451
7495541 125 15357702968080822042

> <PUBCHEM_SHAPE_MULTIPOLES>
342.63
10.5
1.77
1.24
6.43
0.06
0
-0.4
5.28
-0.95
-0.01
0.92
-0.14
-1.08

> <PUBCHEM_SHAPE_SELFOVERLAP>
726.967

> <PUBCHEM_SHAPE_VOLUME>
188.2

> <PUBCHEM_COORDINATE_TYPE>
2
5
10

$$$$

