8752
  -OEChem-06261203032D

 47 46  0     0  0  0  0  0  0999 V2000
    4.5981    0.2500    0.0000 Ca  0  2  0  0  0  0  0  0  0  0  0  0
    3.7320   -1.2500    0.0000 S   0  0  0  0  0  0  0  0  0  0  0  0
    5.4641    1.7500    0.0000 S   0  0  0  0  0  0  0  0  0  0  0  0
    4.5981   -0.7500    0.0000 O   0  5  0  0  0  0  0  0  0  0  0  0
    5.4641    0.7500    0.0000 O   0  5  0  0  0  0  0  0  0  0  0  0
    3.2320   -0.3840    0.0000 O   0  0  0  0  0  0  0  0  0  0  0  0
    4.2320   -2.1160    0.0000 O   0  0  0  0  0  0  0  0  0  0  0  0
    6.4641    1.7500    0.0000 O   0  0  0  0  0  0  0  0  0  0  0  0
    4.4641    1.7500    0.0000 O   0  0  0  0  0  0  0  0  0  0  0  0
    2.8660   -1.7500    0.0000 N   0  0  0  0  0  0  0  0  0  0  0  0
    5.4641    2.7500    0.0000 N   0  0  0  0  0  0  0  0  0  0  0  0
    2.8660   -2.7500    0.0000 C   0  0  0  0  0  0  0  0  0  0  0  0
    6.3301    3.2500    0.0000 C   0  0  0  0  0  0  0  0  0  0  0  0
    2.0000   -3.2500    0.0000 C   0  0  0  0  0  0  0  0  0  0  0  0
    3.7320   -3.2500    0.0000 C   0  0  0  0  0  0  0  0  0  0  0  0
    7.1962    2.7500    0.0000 C   0  0  0  0  0  0  0  0  0  0  0  0
    6.3301    4.2500    0.0000 C   0  0  0  0  0  0  0  0  0  0  0  0
    2.0000   -4.2500    0.0000 C   0  0  0  0  0  0  0  0  0  0  0  0
    3.7320   -4.2500    0.0000 C   0  0  0  0  0  0  0  0  0  0  0  0
    8.0622    3.2500    0.0000 C   0  0  0  0  0  0  0  0  0  0  0  0
    7.1962    4.7500    0.0000 C   0  0  0  0  0  0  0  0  0  0  0  0
    2.8660   -4.7500    0.0000 C   0  0  0  0  0  0  0  0  0  0  0  0
    8.0622    4.2500    0.0000 C   0  0  0  0  0  0  0  0  0  0  0  0
    5.7932    3.5600    0.0000 H   0  0  0  0  0  0  0  0  0  0  0  0
    3.4030   -2.4400    0.0000 H   0  0  0  0  0  0  0  0  0  0  0  0
    1.7880   -2.6674    0.0000 H   0  0  0  0  0  0  0  0  0  0  0  0
    1.3894   -3.3577    0.0000 H   0  0  0  0  0  0  0  0  0  0  0  0
    4.3426   -3.3577    0.0000 H   0  0  0  0  0  0  0  0  0  0  0  0
    3.9441   -2.6674    0.0000 H   0  0  0  0  0  0  0  0  0  0  0  0
    6.7976    2.2750    0.0000 H   0  0  0  0  0  0  0  0  0  0  0  0
    7.5947    2.2750    0.0000 H   0  0  0  0  0  0  0  0  0  0  0  0
    6.1181    4.8326    0.0000 H   0  0  0  0  0  0  0  0  0  0  0  0
    5.7196    4.1423    0.0000 H   0  0  0  0  0  0  0  0  0  0  0  0
    7.5947    5.2250    0.0000 H   0  0  0  0  0  0  0  0  0  0  0  0
    6.7976    5.2250    0.0000 H   0  0  0  0  0  0  0  0  0  0  0  0
    8.2742    2.6674    0.0000 H   0  0  0  0  0  0  0  0  0  0  0  0
    8.6728    3.3577    0.0000 H   0  0  0  0  0  0  0  0  0  0  0  0
    3.9441   -4.8326    0.0000 H   0  0  0  0  0  0  0  0  0  0  0  0
    4.3426   -4.1423    0.0000 H   0  0  0  0  0  0  0  0  0  0  0  0
    1.3894   -4.1423    0.0000 H   0  0  0  0  0  0  0  0  0  0  0  0
    1.7880   -4.8326    0.0000 H   0  0  0  0  0  0  0  0  0  0  0  0
    2.4675   -5.2250    0.0000 H   0  0  0  0  0  0  0  0  0  0  0  0
    3.2646   -5.2250    0.0000 H   0  0  0  0  0  0  0  0  0  0  0  0
    8.6728    4.1423    0.0000 H   0  0  0  0  0  0  0  0  0  0  0  0
    8.2742    4.8326    0.0000 H   0  0  0  0  0  0  0  0  0  0  0  0
    4.9272    3.0600    0.0000 H   0  0  0  0  0  0  0  0  0  0  0  0
    2.3291   -1.4400    0.0000 H   0  0  0  0  0  0  0  0  0  0  0  0
  2  4  1  0  0  0  0
  2  6  2  0  0  0  0
  2  7  2  0  0  0  0
  2 10  1  0  0  0  0
  3  5  1  0  0  0  0
  3  8  2  0  0  0  0
  3  9  2  0  0  0  0
  3 11  1  0  0  0  0
 10 12  1  0  0  0  0
 10 47  1  0  0  0  0
 11 13  1  0  0  0  0
 11 46  1  0  0  0  0
 12 14  1  0  0  0  0
 12 15  1  0  0  0  0
 12 25  1  0  0  0  0
 13 16  1  0  0  0  0
 13 17  1  0  0  0  0
 13 24  1  0  0  0  0
 14 18  1  0  0  0  0
 14 26  1  0  0  0  0
 14 27  1  0  0  0  0
 15 19  1  0  0  0  0
 15 28  1  0  0  0  0
 15 29  1  0  0  0  0
 16 20  1  0  0  0  0
 16 30  1  0  0  0  0
 16 31  1  0  0  0  0
 17 21  1  0  0  0  0
 17 32  1  0  0  0  0
 17 33  1  0  0  0  0
 18 22  1  0  0  0  0
 18 40  1  0  0  0  0
 18 41  1  0  0  0  0
 19 22  1  0  0  0  0
 19 38  1  0  0  0  0
 19 39  1  0  0  0  0
 20 23  1  0  0  0  0
 20 36  1  0  0  0  0
 20 37  1  0  0  0  0
 21 23  1  0  0  0  0
 21 34  1  0  0  0  0
 21 35  1  0  0  0  0
 22 42  1  0  0  0  0
 22 43  1  0  0  0  0
 23 44  1  0  0  0  0
 23 45  1  0  0  0  0
M  CHG  3   1   2   4  -1   5  -1
M  END
> <PUBCHEM_COMPOUND_CID>
8752

> <PUBCHEM_COMPOUND_CANONICALIZED>
1

> <PUBCHEM_CACTVS_COMPLEXITY>
187

> <PUBCHEM_CACTVS_HBOND_ACCEPTOR>
8

> <PUBCHEM_CACTVS_HBOND_DONOR>
2

> <PUBCHEM_CACTVS_ROTATABLE_BOND>
2

> <PUBCHEM_CACTVS_SUBSKEYS>
AAADceBzOABgAAgAAAAAAAAAAAAAAAAAAAAwYAAAAAAAAAAAAAAAHAAQQAAACCjBAAQAAABAAAAAAAAAADAAAAAAAAAAAIAAAAAAAAIAgAAAAAAAEAAAAAEQAAAAAAAAAAAAAAAAAAAAAAAAAAAAAAAAAA==

> <PUBCHEM_IUPAC_OPENEYE_NAME>
calcium N-cyclohexylsulfamate

> <PUBCHEM_IUPAC_CAS_NAME>
calcium N-cyclohexylsulfamate

> <PUBCHEM_IUPAC_NAME>
calcium N-cyclohexylsulfamate

> <PUBCHEM_IUPAC_SYSTEMATIC_NAME>
calcium N-cyclohexylsulfamate

> <PUBCHEM_IUPAC_TRADITIONAL_NAME>
calcium N-cyclohexylsulfamate

> <PUBCHEM_IUPAC_INCHI>
InChI=1S/2C6H13NO3S.Ca/c2*8-11(9,10)7-6-4-2-1-3-5-6;/h2*6-7H,1-5H2,(H,8,9,10);/q;;+2/p-2

> <PUBCHEM_IUPAC_INCHIKEY>
UKLJMHXGZUJRTL-UHFFFAOYSA-L

> <PUBCHEM_EXACT_MASS>
396.070169

> <PUBCHEM_MOLECULAR_FORMULA>
C12H24CaN2O6S2

> <PUBCHEM_MOLECULAR_WEIGHT>
396.53676

> <PUBCHEM_OPENEYE_CAN_SMILES>
C1CCC(CC1)NS(=O)(=O)[O-].C1CCC(CC1)NS(=O)(=O)[O-].[Ca+2]

> <PUBCHEM_OPENEYE_ISO_SMILES>
C1CCC(CC1)NS(=O)(=O)[O-].C1CCC(CC1)NS(=O)(=O)[O-].[Ca+2]

> <PUBCHEM_CACTVS_TPSA>
155

> <PUBCHEM_MONOISOTOPIC_WEIGHT>
396.070169

> <PUBCHEM_TOTAL_CHARGE>
0

> <PUBCHEM_HEAVY_ATOM_COUNT>
23

> <PUBCHEM_ATOM_DEF_STEREO_COUNT>
0

> <PUBCHEM_ATOM_UDEF_STEREO_COUNT>
0

> <PUBCHEM_BOND_DEF_STEREO_COUNT>
0

> <PUBCHEM_BOND_UDEF_STEREO_COUNT>
0

> <PUBCHEM_ISOTOPIC_ATOM_COUNT>
0

> <PUBCHEM_COMPONENT_COUNT>
3

> <PUBCHEM_CACTVS_TAUTO_COUNT>
1

> <PUBCHEM_COORDINATE_TYPE>
1
5
255

$$$$

