10972974
  -OEChem-07051213072D

 66 67  0     1  0  0  0  0  0999 V2000
   12.0856   -1.7434    0.0000 S   0  0  0  0  0  0  0  0  0  0  0  0
    9.5165    0.4678    0.0000 S   0  0  0  0  0  0  0  0  0  0  0  0
    5.3543   -1.4103    0.0000 O   0  0  0  0  0  0  0  0  0  0  0  0
    3.6601   -1.0502    0.0000 O   0  0  0  0  0  0  0  0  0  0  0  0
    4.2839    1.8842    0.0000 O   0  0  0  0  0  0  0  0  0  0  0  0
    9.0165   -1.0711    0.0000 N   0  0  0  0  0  0  0  0  0  0  0  0
   11.5856   -0.2045    0.0000 N   0  0  0  0  0  0  0  0  0  0  0  0
    2.5896    2.2443    0.0000 N   0  0  0  0  0  0  0  0  0  0  0  0
    4.8191    0.2369    0.0000 C   0  0  1  0  0  0  0  0  0  0  0  0
    5.5622   -0.4322    0.0000 C   0  0  2  0  0  0  0  0  0  0  0  0
    5.0270    1.2151    0.0000 C   0  0  0  0  0  0  0  0  0  0  0  0
    3.8680   -0.0721    0.0000 C   0  0  0  0  0  0  0  0  0  0  0  0
    6.5133   -0.1232    0.0000 C   0  0  0  0  0  0  0  0  0  0  0  0
    7.2564   -0.7923    0.0000 C   0  0  0  0  0  0  0  0  0  0  0  0
   13.3457   -0.4833    0.0000 C   0  0  1  0  0  0  0  0  0  0  0  0
    3.1249    0.5971    0.0000 C   0  0  0  0  0  0  0  0  0  0  0  0
    8.2075   -0.4833    0.0000 C   0  0  0  0  0  0  0  0  0  0  0  0
   12.3946   -0.7923    0.0000 C   0  0  0  0  0  0  0  0  0  0  0  0
    4.4033   -1.7194    0.0000 C   0  0  0  0  0  0  0  0  0  0  0  0
   10.7766   -0.7923    0.0000 C   0  0  0  0  0  0  0  0  0  0  0  0
   13.5536    0.4949    0.0000 C   0  0  0  0  0  0  0  0  0  0  0  0
   14.0888   -1.1524    0.0000 C   0  0  0  0  0  0  0  0  0  0  0  0
    9.8255   -0.4833    0.0000 C   0  0  0  0  0  0  0  0  0  0  0  0
   17.4772   -1.8726    0.0000 C   0  0  0  0  0  0  0  0  0  0  0  0
    8.5165    0.4678    0.0000 C   0  0  0  0  0  0  0  0  0  0  0  0
    3.3328    1.5752    0.0000 C   0  0  0  0  0  0  0  0  0  0  0  0
    2.7091   -1.3592    0.0000 C   0  0  0  0  0  0  0  0  0  0  0  0
   11.0856   -1.7434    0.0000 C   0  0  0  0  0  0  0  0  0  0  0  0
   15.0399   -0.8434    0.0000 C   0  0  0  0  0  0  0  0  0  0  0  0
   16.7341   -1.2035    0.0000 C   0  0  0  0  0  0  0  0  0  0  0  0
   15.7830   -1.5125    0.0000 C   0  0  0  0  0  0  0  0  0  0  0  0
   18.4283   -1.5636    0.0000 C   0  0  0  0  0  0  0  0  0  0  0  0
   17.2693   -2.8508    0.0000 C   0  0  0  0  0  0  0  0  0  0  0  0
    4.3583    0.6518    0.0000 H   0  0  0  0  0  0  0  0  0  0  0  0
    6.0230   -0.8470    0.0000 H   0  0  0  0  0  0  0  0  0  0  0  0
    5.6334    1.0862    0.0000 H   0  0  0  0  0  0  0  0  0  0  0  0
    5.1559    1.8215    0.0000 H   0  0  0  0  0  0  0  0  0  0  0  0
    4.4206    1.3440    0.0000 H   0  0  0  0  0  0  0  0  0  0  0  0
    6.6422    0.4833    0.0000 H   0  0  0  0  0  0  0  0  0  0  0  0
    7.1275   -1.3988    0.0000 H   0  0  0  0  0  0  0  0  0  0  0  0
   13.9353   -0.2917    0.0000 H   0  0  0  0  0  0  0  0  0  0  0  0
    2.5352    0.4055    0.0000 H   0  0  0  0  0  0  0  0  0  0  0  0
    4.2117   -1.1297    0.0000 H   0  0  0  0  0  0  0  0  0  0  0  0
    3.8136   -1.9109    0.0000 H   0  0  0  0  0  0  0  0  0  0  0  0
    4.5949   -2.3090    0.0000 H   0  0  0  0  0  0  0  0  0  0  0  0
   14.1600    0.3660    0.0000 H   0  0  0  0  0  0  0  0  0  0  0  0
   13.6825    1.1013    0.0000 H   0  0  0  0  0  0  0  0  0  0  0  0
   12.9471    0.6238    0.0000 H   0  0  0  0  0  0  0  0  0  0  0  0
   13.9599   -1.7589    0.0000 H   0  0  0  0  0  0  0  0  0  0  0  0
   17.6061   -1.2662    0.0000 H   0  0  0  0  0  0  0  0  0  0  0  0
    8.1521    0.9694    0.0000 H   0  0  0  0  0  0  0  0  0  0  0  0
    2.5175   -0.7696    0.0000 H   0  0  0  0  0  0  0  0  0  0  0  0
    2.1194   -1.5508    0.0000 H   0  0  0  0  0  0  0  0  0  0  0  0
    2.9007   -1.9489    0.0000 H   0  0  0  0  0  0  0  0  0  0  0  0
   10.7212   -2.2449    0.0000 H   0  0  0  0  0  0  0  0  0  0  0  0
   15.1688   -0.2369    0.0000 H   0  0  0  0  0  0  0  0  0  0  0  0
   16.8630   -0.5971    0.0000 H   0  0  0  0  0  0  0  0  0  0  0  0
   15.6541   -2.1190    0.0000 H   0  0  0  0  0  0  0  0  0  0  0  0
   18.6199   -2.1533    0.0000 H   0  0  0  0  0  0  0  0  0  0  0  0
   19.0179   -1.3720    0.0000 H   0  0  0  0  0  0  0  0  0  0  0  0
   18.2367   -0.9740    0.0000 H   0  0  0  0  0  0  0  0  0  0  0  0
   16.6629   -2.7219    0.0000 H   0  0  0  0  0  0  0  0  0  0  0  0
   17.1404   -3.4572    0.0000 H   0  0  0  0  0  0  0  0  0  0  0  0
   17.8758   -2.9797    0.0000 H   0  0  0  0  0  0  0  0  0  0  0  0
    2.7186    2.8508    0.0000 H   0  0  0  0  0  0  0  0  0  0  0  0
    2.0000    2.0528    0.0000 H   0  0  0  0  0  0  0  0  0  0  0  0
  1 18  1  0  0  0  0
  1 28  1  0  0  0  0
  2 23  1  0  0  0  0
  2 25  1  0  0  0  0
 10  3  1  6  0  0  0
  3 19  1  0  0  0  0
  4 12  1  0  0  0  0
  4 27  1  0  0  0  0
  5 26  2  0  0  0  0
  6 17  1  0  0  0  0
  6 23  2  0  0  0  0
  7 18  2  0  0  0  0
  7 20  1  0  0  0  0
  8 26  1  0  0  0  0
  8 65  1  0  0  0  0
  8 66  1  0  0  0  0
  9 10  1  0  0  0  0
  9 11  1  6  0  0  0
  9 12  1  0  0  0  0
  9 34  1  0  0  0  0
 10 13  1  0  0  0  0
 10 35  1  0  0  0  0
 11 36  1  0  0  0  0
 11 37  1  0  0  0  0
 11 38  1  0  0  0  0
 12 16  2  0  0  0  0
 13 14  2  0  0  0  0
 13 39  1  0  0  0  0
 14 17  1  0  0  0  0
 14 40  1  0  0  0  0
 15 18  1  0  0  0  0
 15 21  1  1  0  0  0
 15 22  1  0  0  0  0
 15 41  1  0  0  0  0
 16 26  1  0  0  0  0
 16 42  1  0  0  0  0
 17 25  2  0  0  0  0
 19 43  1  0  0  0  0
 19 44  1  0  0  0  0
 19 45  1  0  0  0  0
 20 23  1  0  0  0  0
 20 28  2  0  0  0  0
 21 46  1  0  0  0  0
 21 47  1  0  0  0  0
 21 48  1  0  0  0  0
 22 29  2  0  0  0  0
 22 49  1  0  0  0  0
 24 30  1  0  0  0  0
 24 32  1  0  0  0  0
 24 33  1  0  0  0  0
 24 50  1  0  0  0  0
 25 51  1  0  0  0  0
 27 52  1  0  0  0  0
 27 53  1  0  0  0  0
 27 54  1  0  0  0  0
 28 55  1  0  0  0  0
 29 31  1  0  0  0  0
 29 56  1  0  0  0  0
 30 31  2  0  0  0  0
 30 57  1  0  0  0  0
 31 58  1  0  0  0  0
 32 59  1  0  0  0  0
 32 60  1  0  0  0  0
 32 61  1  0  0  0  0
 33 62  1  0  0  0  0
 33 63  1  0  0  0  0
 33 64  1  0  0  0  0
M  END
> <PUBCHEM_COMPOUND_CID>
10972974

> <PUBCHEM_COMPOUND_CANONICALIZED>
1

> <PUBCHEM_CACTVS_COMPLEXITY>
738

> <PUBCHEM_CACTVS_HBOND_ACCEPTOR>
7

> <PUBCHEM_CACTVS_HBOND_DONOR>
1

> <PUBCHEM_CACTVS_ROTATABLE_BOND>
12

> <PUBCHEM_CACTVS_SUBSKEYS>
AAADcfB7MABgAAAAAAAAAAAAAAAAAWLAAAAAAAAAAAAAAAAB4AAAHgQQAAAADRyl1gKigRJIFAisASVyVACC+KBhKjgIiDQwJFgIRICgIQAUEAgF0ACooQYAAAAIAAAAAAAAAAAAAAAAAAAAAAAAAAAAAA==

> <PUBCHEM_IUPAC_OPENEYE_NAME>
(2E,4R,5S,6E)-7-[2-[2-[(1S,2E,4E)-1,6-dimethylhepta-2,4-dienyl]thiazol-4-yl]thiazol-4-yl]-3,5-dimethoxy-4-methyl-hepta-2,6-dienamide

> <PUBCHEM_IUPAC_CAS_NAME>
(2E,4R,5S,6E)-3,5-dimethoxy-4-methyl-7-[2-[2-[(2S,3E,5E)-7-methylocta-3,5-dien-2-yl]-4-thiazolyl]-4-thiazolyl]hepta-2,6-dienamide

> <PUBCHEM_IUPAC_NAME>
(2E,4R,5S,6E)-3,5-dimethoxy-4-methyl-7-[2-[2-[(2S,3E,5E)-7-methylocta-3,5-dien-2-yl]-1,3-thiazol-4-yl]-1,3-thiazol-4-yl]hepta-2,6-dienamide

> <PUBCHEM_IUPAC_SYSTEMATIC_NAME>
(2E,4R,5S,6E)-3,5-dimethoxy-4-methyl-7-[2-[2-[(2S,3E,5E)-7-methylocta-3,5-dien-2-yl]-1,3-thiazol-4-yl]-1,3-thiazol-4-yl]hepta-2,6-dienamide

> <PUBCHEM_IUPAC_TRADITIONAL_NAME>
(2E,4R,5S,6E)-7-[2-[2-[(1S,2E,4E)-1,6-dimethylhepta-2,4-dienyl]thiazol-4-yl]thiazol-4-yl]-3,5-dimethoxy-4-methyl-hepta-2,6-dienamide

> <PUBCHEM_IUPAC_INCHI>
InChI=1S/C25H33N3O3S2/c1-16(2)9-7-8-10-17(3)24-28-20(15-33-24)25-27-19(14-32-25)11-12-21(30-5)18(4)22(31-6)13-23(26)29/h7-18,21H,1-6H3,(H2,26,29)/b9-7+,10-8+,12-11+,22-13+/t17-,18+,21-/m0/s1

> <PUBCHEM_IUPAC_INCHIKEY>
XKTFQMCPGMTBMD-FYHMSGCOSA-N

> <PUBCHEM_XLOGP3_AA>
4.8

> <PUBCHEM_EXACT_MASS>
487.196334

> <PUBCHEM_MOLECULAR_FORMULA>
C25H33N3O3S2

> <PUBCHEM_MOLECULAR_WEIGHT>
487.67782

> <PUBCHEM_OPENEYE_CAN_SMILES>
CC(C)C=CC=CC(C)C1=NC(=CS1)C2=NC(=CS2)C=CC(C(C)C(=CC(=O)N)OC)OC

> <PUBCHEM_OPENEYE_ISO_SMILES>
C[C@@H](/C=C/C=C/C(C)C)C1=NC(=CS1)C2=NC(=CS2)/C=C/[C@@H]([C@@H](C)/C(=C\C(=O)N)/OC)OC

> <PUBCHEM_CACTVS_TPSA>
144

> <PUBCHEM_MONOISOTOPIC_WEIGHT>
487.196334

> <PUBCHEM_TOTAL_CHARGE>
0

> <PUBCHEM_HEAVY_ATOM_COUNT>
33

> <PUBCHEM_ATOM_DEF_STEREO_COUNT>
3

> <PUBCHEM_ATOM_UDEF_STEREO_COUNT>
0

> <PUBCHEM_BOND_DEF_STEREO_COUNT>
4

> <PUBCHEM_BOND_UDEF_STEREO_COUNT>
0

> <PUBCHEM_ISOTOPIC_ATOM_COUNT>
0

> <PUBCHEM_COMPONENT_COUNT>
1

> <PUBCHEM_CACTVS_TAUTO_COUNT>
6

> <PUBCHEM_COORDINATE_TYPE>
1
5
255

> <PUBCHEM_BONDANNOTATIONS>
1  18  8
1  28  8
15  21  5
17  25  8
2  23  8
2  25  8
20  28  8
10  3  6
6  17  8
6  23  8
7  18  8
7  20  8
9  11  6

$$$$

