46173768
  -OEChem-07051212522D

 65 68  0     1  0  0  0  0  0999 V2000
    4.4026    0.0014    0.0000 O   0  0  0  0  0  0  0  0  0  0  0  0
    6.7485   -1.0905    0.0000 O   0  0  0  0  0  0  0  0  0  0  0  0
    3.7066    1.9706    0.0000 O   0  0  0  0  0  0  0  0  0  0  0  0
    5.7366    2.4881    0.0000 O   0  0  0  0  0  0  0  0  0  0  0  0
    5.6338    3.4828    0.0000 O   0  0  0  0  0  0  0  0  0  0  0  0
   11.6125    4.6034    0.0000 O   0  0  0  0  0  0  0  0  0  0  0  0
    4.6783   -1.7592    0.0000 N   0  0  0  0  0  0  0  0  0  0  0  0
    6.7523    1.0851    0.0000 N   0  0  0  0  0  0  0  0  0  0  0  0
    4.6783   -3.3686    0.0000 N   0  0  0  0  0  0  0  0  0  0  0  0
    2.8660   -1.5639    0.0000 N   0  0  0  0  0  0  0  0  0  0  0  0
    7.3567    3.6609    0.0000 N   0  0  0  0  0  0  0  0  0  0  0  0
    2.8660   -4.5639    0.0000 N   0  0  0  0  0  0  0  0  0  0  0  0
    2.0000   -3.0639    0.0000 N   0  0  0  0  0  0  0  0  0  0  0  0
    5.9422    0.4987    0.0000 C   0  0  1  0  0  0  0  0  0  0  0  0
    5.9405   -0.5013    0.0000 C   0  0  2  0  0  0  0  0  0  0  0  0
    4.9917    0.8094    0.0000 C   0  0  1  0  0  0  0  0  0  0  0  0
    4.9889   -0.8087    0.0000 C   0  0  1  0  0  0  0  0  0  0  0  0
    4.6844    1.7610    0.0000 C   0  0  0  0  0  0  0  0  0  0  0  0
    3.7320   -2.0639    0.0000 C   0  0  0  0  0  0  0  0  0  0  0  0
    6.6495    2.0798    0.0000 C   0  0  0  0  0  0  0  0  0  0  0  0
    5.2619   -2.5639    0.0000 C   0  0  0  0  0  0  0  0  0  0  0  0
    7.4595    2.6662    0.0000 C   0  0  2  0  0  0  0  0  0  0  0  0
    3.7320   -3.0639    0.0000 C   0  0  0  0  0  0  0  0  0  0  0  0
    8.3724    2.2579    0.0000 C   0  0  0  0  0  0  0  0  0  0  0  0
    2.8660   -3.5639    0.0000 C   0  0  0  0  0  0  0  0  0  0  0  0
    9.1824    2.8442    0.0000 C   0  0  0  0  0  0  0  0  0  0  0  0
    2.0000   -2.0639    0.0000 C   0  0  0  0  0  0  0  0  0  0  0  0
    6.4439    4.0692    0.0000 C   0  0  0  0  0  0  0  0  0  0  0  0
   10.0952    2.4359    0.0000 C   0  0  0  0  0  0  0  0  0  0  0  0
    9.0796    3.8390    0.0000 C   0  0  0  0  0  0  0  0  0  0  0  0
    2.0000   -5.0639    0.0000 C   0  0  0  0  0  0  0  0  0  0  0  0
    3.7320   -5.0639    0.0000 C   0  0  0  0  0  0  0  0  0  0  0  0
    6.3411    5.0639    0.0000 C   0  0  0  0  0  0  0  0  0  0  0  0
   10.9053    3.0223    0.0000 C   0  0  0  0  0  0  0  0  0  0  0  0
    9.8896    4.4253    0.0000 C   0  0  0  0  0  0  0  0  0  0  0  0
   10.8025    4.0170    0.0000 C   0  0  0  0  0  0  0  0  0  0  0  0
    6.4942    0.2163    0.0000 H   0  0  0  0  0  0  0  0  0  0  0  0
    5.8425   -1.1135    0.0000 H   0  0  0  0  0  0  0  0  0  0  0  0
    4.3795    0.9074    0.0000 H   0  0  0  0  0  0  0  0  0  0  0  0
    5.4266   -1.2478    0.0000 H   0  0  0  0  0  0  0  0  0  0  0  0
    7.3182    0.8319    0.0000 H   0  0  0  0  0  0  0  0  0  0  0  0
    5.2985    1.8462    0.0000 H   0  0  0  0  0  0  0  0  0  0  0  0
    4.7071    2.3806    0.0000 H   0  0  0  0  0  0  0  0  0  0  0  0
    7.3154   -0.8393    0.0000 H   0  0  0  0  0  0  0  0  0  0  0  0
    5.8819   -2.5639    0.0000 H   0  0  0  0  0  0  0  0  0  0  0  0
    7.9617    3.0297    0.0000 H   0  0  0  0  0  0  0  0  0  0  0  0
    3.5160    2.5606    0.0000 H   0  0  0  0  0  0  0  0  0  0  0  0
    8.0248    1.7445    0.0000 H   0  0  0  0  0  0  0  0  0  0  0  0
    8.8176    1.8264    0.0000 H   0  0  0  0  0  0  0  0  0  0  0  0
    7.8589    4.0244    0.0000 H   0  0  0  0  0  0  0  0  0  0  0  0
    1.4631   -1.7539    0.0000 H   0  0  0  0  0  0  0  0  0  0  0  0
   10.1590    1.8192    0.0000 H   0  0  0  0  0  0  0  0  0  0  0  0
    8.5136    4.0921    0.0000 H   0  0  0  0  0  0  0  0  0  0  0  0
    3.4220   -5.6008    0.0000 H   0  0  0  0  0  0  0  0  0  0  0  0
    4.2690   -5.3739    0.0000 H   0  0  0  0  0  0  0  0  0  0  0  0
    4.0420   -4.5270    0.0000 H   0  0  0  0  0  0  0  0  0  0  0  0
    1.6900   -4.5270    0.0000 H   0  0  0  0  0  0  0  0  0  0  0  0
    1.4631   -5.3739    0.0000 H   0  0  0  0  0  0  0  0  0  0  0  0
    2.3100   -5.6008    0.0000 H   0  0  0  0  0  0  0  0  0  0  0  0
    6.9578    5.1276    0.0000 H   0  0  0  0  0  0  0  0  0  0  0  0
    6.2773    5.6806    0.0000 H   0  0  0  0  0  0  0  0  0  0  0  0
    5.7243    5.0002    0.0000 H   0  0  0  0  0  0  0  0  0  0  0  0
   11.4712    2.7692    0.0000 H   0  0  0  0  0  0  0  0  0  0  0  0
    9.8259    5.0420    0.0000 H   0  0  0  0  0  0  0  0  0  0  0  0
   12.1784    4.3502    0.0000 H   0  0  0  0  0  0  0  0  0  0  0  0
  1 16  1  0  0  0  0
  1 17  1  0  0  0  0
 15  2  1  1  0  0  0
  2 44  1  0  0  0  0
  3 18  1  0  0  0  0
  3 47  1  0  0  0  0
  4 20  2  0  0  0  0
  5 28  2  0  0  0  0
  6 36  1  0  0  0  0
  6 65  1  0  0  0  0
 17  7  1  6  0  0  0
  7 19  1  0  0  0  0
  7 21  1  0  0  0  0
 14  8  1  1  0  0  0
  8 20  1  0  0  0  0
  8 41  1  0  0  0  0
  9 21  2  0  0  0  0
  9 23  1  0  0  0  0
 10 19  1  0  0  0  0
 10 27  2  0  0  0  0
 22 11  1  1  0  0  0
 11 28  1  0  0  0  0
 11 50  1  0  0  0  0
 12 25  1  0  0  0  0
 12 31  1  0  0  0  0
 12 32  1  0  0  0  0
 13 25  2  0  0  0  0
 13 27  1  0  0  0  0
 14 15  1  0  0  0  0
 14 16  1  0  0  0  0
 14 37  1  0  0  0  0
 15 17  1  0  0  0  0
 15 38  1  0  0  0  0
 16 18  1  6  0  0  0
 16 39  1  0  0  0  0
 17 40  1  0  0  0  0
 18 42  1  0  0  0  0
 18 43  1  0  0  0  0
 19 23  2  0  0  0  0
 20 22  1  0  0  0  0
 21 45  1  0  0  0  0
 22 24  1  0  0  0  0
 22 46  1  0  0  0  0
 23 25  1  0  0  0  0
 24 26  1  0  0  0  0
 24 48  1  0  0  0  0
 24 49  1  0  0  0  0
 26 29  2  0  0  0  0
 26 30  1  0  0  0  0
 27 51  1  0  0  0  0
 28 33  1  0  0  0  0
 29 34  1  0  0  0  0
 29 52  1  0  0  0  0
 30 35  2  0  0  0  0
 30 53  1  0  0  0  0
 31 57  1  0  0  0  0
 31 58  1  0  0  0  0
 31 59  1  0  0  0  0
 32 54  1  0  0  0  0
 32 55  1  0  0  0  0
 32 56  1  0  0  0  0
 33 60  1  0  0  0  0
 33 61  1  0  0  0  0
 33 62  1  0  0  0  0
 34 36  2  0  0  0  0
 34 63  1  0  0  0  0
 35 36  1  0  0  0  0
 35 64  1  0  0  0  0
M  END
> <PUBCHEM_COMPOUND_CID>
46173768

> <PUBCHEM_COMPOUND_CANONICALIZED>
1

> <PUBCHEM_CACTVS_COMPLEXITY>
767

> <PUBCHEM_CACTVS_HBOND_ACCEPTOR>
10

> <PUBCHEM_CACTVS_HBOND_DONOR>
5

> <PUBCHEM_CACTVS_ROTATABLE_BOND>
8

> <PUBCHEM_CACTVS_SUBSKEYS>
AAADceB7uAAAAAAAAAAAAAAAAAAAAWJAAAA8QAAAAAAAAFgB/AAAHgAQCAAADDzhnwY39r/MFgCoAydzdACCgC0xMKAJ2KGuXJiLfjLC2XOfdAgv1hPbmCf4+KKOIAAAAAAAAABAAAAAAAAAAAAAAAAAAA==

> <PUBCHEM_IUPAC_OPENEYE_NAME>
(2S)-2-acetamido-N-[(2S,3S,4R,5R)-5-[6-(dimethylamino)purin-9-yl]-4-hydroxy-2-(hydroxymethyl)tetrahydrofuran-3-yl]-3-(4-hydroxyphenyl)propanamide

> <PUBCHEM_IUPAC_CAS_NAME>
(2S)-2-acetamido-N-[(2S,3S,4R,5R)-5-[6-(dimethylamino)-9-purinyl]-4-hydroxy-2-(hydroxymethyl)-3-oxolanyl]-3-(4-hydroxyphenyl)propanamide

> <PUBCHEM_IUPAC_NAME>
(2S)-2-acetamido-N-[(2S,3S,4R,5R)-5-[6-(dimethylamino)purin-9-yl]-4-hydroxy-2-(hydroxymethyl)oxolan-3-yl]-3-(4-hydroxyphenyl)propanamide

> <PUBCHEM_IUPAC_SYSTEMATIC_NAME>
(2S)-2-acetamido-N-[(2S,3S,4R,5R)-5-[6-(dimethylamino)purin-9-yl]-2-(hydroxymethyl)-4-oxidanyl-oxolan-3-yl]-3-(4-hydroxyphenyl)propanamide

> <PUBCHEM_IUPAC_TRADITIONAL_NAME>
(2S)-2-acetamido-N-[(2S,3S,4R,5R)-5-[6-(dimethylamino)purin-9-yl]-4-hydroxy-2-methylol-tetrahydrofuran-3-yl]-3-(4-hydroxyphenyl)propionamide

> <PUBCHEM_IUPAC_INCHI>
InChI=1S/C23H29N7O6/c1-12(32)27-15(8-13-4-6-14(33)7-5-13)22(35)28-17-16(9-31)36-23(19(17)34)30-11-26-18-20(29(2)3)24-10-25-21(18)30/h4-7,10-11,15-17,19,23,31,33-34H,8-9H2,1-3H3,(H,27,32)(H,28,35)/t15-,16+,17+,19+,23+/m0/s1

> <PUBCHEM_IUPAC_INCHIKEY>
ZMYRMMCUDKHWQQ-PXBBLBRZSA-N

> <PUBCHEM_XLOGP3>
0

> <PUBCHEM_EXACT_MASS>
499.217932

> <PUBCHEM_MOLECULAR_FORMULA>
C23H29N7O6

> <PUBCHEM_MOLECULAR_WEIGHT>
499.51966

> <PUBCHEM_OPENEYE_CAN_SMILES>
CC(=O)NC(CC1=CC=C(C=C1)O)C(=O)NC2C(OC(C2O)N3C=NC4=C3N=CN=C4N(C)C)CO

> <PUBCHEM_OPENEYE_ISO_SMILES>
CC(=O)N[C@@H](CC1=CC=C(C=C1)O)C(=O)N[C@@H]2[C@H](O[C@H]([C@@H]2O)N3C=NC4=C3N=CN=C4N(C)C)CO

> <PUBCHEM_CACTVS_TPSA>
175

> <PUBCHEM_MONOISOTOPIC_WEIGHT>
499.217932

> <PUBCHEM_TOTAL_CHARGE>
0

> <PUBCHEM_HEAVY_ATOM_COUNT>
36

> <PUBCHEM_ATOM_DEF_STEREO_COUNT>
5

> <PUBCHEM_ATOM_UDEF_STEREO_COUNT>
0

> <PUBCHEM_BOND_DEF_STEREO_COUNT>
0

> <PUBCHEM_BOND_UDEF_STEREO_COUNT>
0

> <PUBCHEM_ISOTOPIC_ATOM_COUNT>
0

> <PUBCHEM_COMPONENT_COUNT>
1

> <PUBCHEM_CACTVS_TAUTO_COUNT>
8

> <PUBCHEM_COORDINATE_TYPE>
1
5
255

> <PUBCHEM_BONDANNOTATIONS>
10  19  8
10  27  8
22  11  5
13  25  8
13  27  8
16  18  6
19  23  8
15  2  5
23  25  8
26  29  8
26  30  8
29  34  8
30  35  8
34  36  8
35  36  8
17  7  6
7  19  8
7  21  8
14  8  5
9  21  8
9  23  8

$$$$

