16126794
  -OEChem-07051212483D

 72 76  0     1  0  0  0  0  0999 V2000
    2.9770   -0.6110    0.9156 O   0  0  0  0  0  0  0  0  0  0  0  0
    2.8471    2.8692   -0.2422 O   0  0  0  0  0  0  0  0  0  0  0  0
    3.3648   -2.1617   -0.8032 O   0  0  0  0  0  0  0  0  0  0  0  0
    5.5039   -0.2605   -0.5429 O   0  0  0  0  0  0  0  0  0  0  0  0
    6.4834    2.4360   -0.2681 O   0  0  0  0  0  0  0  0  0  0  0  0
    3.3616   -3.2098    1.8229 O   0  0  0  0  0  0  0  0  0  0  0  0
    1.4363   -5.1591    1.3022 O   0  0  0  0  0  0  0  0  0  0  0  0
    1.8679   -5.4346   -1.5409 O   0  0  0  0  0  0  0  0  0  0  0  0
    3.5847    5.5150   -0.2638 O   0  0  0  0  0  0  0  0  0  0  0  0
    0.7829    0.6181    2.4715 O   0  0  0  0  0  0  0  0  0  0  0  0
    1.1549    2.3796   -1.9465 O   0  0  0  0  0  0  0  0  0  0  0  0
   -3.0943    0.9573   -0.4050 O   0  0  0  0  0  0  0  0  0  0  0  0
   -1.5964   -0.1311    3.2241 O   0  0  0  0  0  0  0  0  0  0  0  0
   -7.3335   -0.2613   -2.8105 O   0  0  0  0  0  0  0  0  0  0  0  0
   -9.3219   -0.0549   -0.8802 O   0  0  0  0  0  0  0  0  0  0  0  0
    3.2821    0.4823    0.0501 C   0  0  2  0  0  0  0  0  0  0  0  0
    4.7831    0.7750    0.1276 C   0  0  2  0  0  0  0  0  0  0  0  0
    2.4604    1.7031    0.4919 C   0  0  2  0  0  0  0  0  0  0  0  0
    5.1263    2.1024   -0.5482 C   0  0  1  0  0  0  0  0  0  0  0  0
    4.2162    3.2220   -0.0394 C   0  0  1  0  0  0  0  0  0  0  0  0
    2.4403   -1.7136    0.1907 C   0  0  1  0  0  0  0  0  0  0  0  0
    2.1400   -2.8461    1.1721 C   0  0  1  0  0  0  0  0  0  0  0  0
    1.5831   -4.0527    0.4167 C   0  0  1  0  0  0  0  0  0  0  0  0
    2.5099   -4.4496   -0.7352 C   0  0  2  0  0  0  0  0  0  0  0  0
    2.8408   -3.2272   -1.6026 C   0  0  2  0  0  0  0  0  0  0  0  0
    0.9744    1.4947    0.2747 C   0  0  0  0  0  0  0  0  0  0  0  0
    4.4658    4.5330   -0.7778 C   0  0  0  0  0  0  0  0  0  0  0  0
    3.8837   -3.5597   -2.6650 C   0  0  0  0  0  0  0  0  0  0  0  0
    0.1876    0.9520    1.2914 C   0  0  0  0  0  0  0  0  0  0  0  0
    0.3977    1.8484   -0.9460 C   0  0  0  0  0  0  0  0  0  0  0  0
   -1.1801    0.7655    1.0777 C   0  0  0  0  0  0  0  0  0  0  0  0
   -0.9688    1.6605   -1.1554 C   0  0  0  0  0  0  0  0  0  0  0  0
   -1.7577    1.1178   -0.1409 C   0  0  0  0  0  0  0  0  0  0  0  0
   -2.0354    0.1971    2.1305 C   0  0  0  0  0  0  0  0  0  0  0  0
   -3.4656    0.0424    1.7963 C   0  0  0  0  0  0  0  0  0  0  0  0
   -3.9021    0.4138    0.5823 C   0  0  0  0  0  0  0  0  0  0  0  0
   -5.3220    0.2911    0.1955 C   0  0  0  0  0  0  0  0  0  0  0  0
   -5.6691    0.0696   -1.1395 C   0  0  0  0  0  0  0  0  0  0  0  0
   -6.3244    0.3958    1.1629 C   0  0  0  0  0  0  0  0  0  0  0  0
   -7.0103   -0.0468   -1.5048 C   0  0  0  0  0  0  0  0  0  0  0  0
   -7.6655    0.2798    0.7976 C   0  0  0  0  0  0  0  0  0  0  0  0
   -8.0086    0.0583   -0.5362 C   0  0  0  0  0  0  0  0  0  0  0  0
    3.0391    0.2477   -0.9966 H   0  0  0  0  0  0  0  0  0  0  0  0
    5.1208    0.7626    1.1713 H   0  0  0  0  0  0  0  0  0  0  0  0
    2.6343    1.9156    1.5550 H   0  0  0  0  0  0  0  0  0  0  0  0
    5.0330    1.9928   -1.6356 H   0  0  0  0  0  0  0  0  0  0  0  0
    4.3745    3.4020    1.0326 H   0  0  0  0  0  0  0  0  0  0  0  0
    1.5102   -1.3955   -0.2985 H   0  0  0  0  0  0  0  0  0  0  0  0
    1.4528   -2.5145    1.9581 H   0  0  0  0  0  0  0  0  0  0  0  0
    0.5846   -3.8220    0.0247 H   0  0  0  0  0  0  0  0  0  0  0  0
    3.4243   -4.9025   -0.3338 H   0  0  0  0  0  0  0  0  0  0  0  0
    1.9413   -2.8702   -2.1217 H   0  0  0  0  0  0  0  0  0  0  0  0
    4.2556    4.4238   -1.8471 H   0  0  0  0  0  0  0  0  0  0  0  0
    5.4949    4.8799   -0.6446 H   0  0  0  0  0  0  0  0  0  0  0  0
    6.4496   -0.0409   -0.4853 H   0  0  0  0  0  0  0  0  0  0  0  0
    4.8204   -3.8904   -2.2029 H   0  0  0  0  0  0  0  0  0  0  0  0
    4.1235   -2.6673   -3.2537 H   0  0  0  0  0  0  0  0  0  0  0  0
    3.5327   -4.3402   -3.3464 H   0  0  0  0  0  0  0  0  0  0  0  0
    6.5746    2.5396    0.6945 H   0  0  0  0  0  0  0  0  0  0  0  0
    3.1639   -3.9586    2.4111 H   0  0  0  0  0  0  0  0  0  0  0  0
    0.8509   -4.8782    2.0260 H   0  0  0  0  0  0  0  0  0  0  0  0
    1.0555   -5.0431   -1.9047 H   0  0  0  0  0  0  0  0  0  0  0  0
   -1.4161    1.9365   -2.1070 H   0  0  0  0  0  0  0  0  0  0  0  0
    3.7573    6.3387   -0.7508 H   0  0  0  0  0  0  0  0  0  0  0  0
    0.1421    0.2232    3.0817 H   0  0  0  0  0  0  0  0  0  0  0  0
    2.0986    2.2342   -1.7800 H   0  0  0  0  0  0  0  0  0  0  0  0
   -4.0966   -0.3936    2.5618 H   0  0  0  0  0  0  0  0  0  0  0  0
   -4.9063   -0.0235   -1.9093 H   0  0  0  0  0  0  0  0  0  0  0  0
   -6.1000    0.5896    2.2085 H   0  0  0  0  0  0  0  0  0  0  0  0
   -8.4390    0.3671    1.5559 H   0  0  0  0  0  0  0  0  0  0  0  0
   -8.2473    0.0236   -2.9725 H   0  0  0  0  0  0  0  0  0  0  0  0
   -9.4000   -0.5380   -1.7185 H   0  0  0  0  0  0  0  0  0  0  0  0
  1 16  1  0  0  0  0
  1 21  1  0  0  0  0
  2 18  1  0  0  0  0
  2 20  1  0  0  0  0
  3 21  1  0  0  0  0
  3 25  1  0  0  0  0
  4 17  1  0  0  0  0
  4 55  1  0  0  0  0
  5 19  1  0  0  0  0
  5 59  1  0  0  0  0
  6 22  1  0  0  0  0
  6 60  1  0  0  0  0
  7 23  1  0  0  0  0
  7 61  1  0  0  0  0
  8 24  1  0  0  0  0
  8 62  1  0  0  0  0
  9 27  1  0  0  0  0
  9 64  1  0  0  0  0
 10 29  1  0  0  0  0
 10 65  1  0  0  0  0
 11 30  1  0  0  0  0
 11 66  1  0  0  0  0
 12 33  1  0  0  0  0
 12 36  1  0  0  0  0
 13 34  2  0  0  0  0
 14 40  1  0  0  0  0
 14 71  1  0  0  0  0
 15 42  1  0  0  0  0
 15 72  1  0  0  0  0
 16 17  1  0  0  0  0
 16 18  1  0  0  0  0
 16 43  1  0  0  0  0
 17 19  1  0  0  0  0
 17 44  1  0  0  0  0
 18 26  1  0  0  0  0
 18 45  1  0  0  0  0
 19 20  1  0  0  0  0
 19 46  1  0  0  0  0
 20 27  1  0  0  0  0
 20 47  1  0  0  0  0
 21 22  1  0  0  0  0
 21 48  1  0  0  0  0
 22 23  1  0  0  0  0
 22 49  1  0  0  0  0
 23 24  1  0  0  0  0
 23 50  1  0  0  0  0
 24 25  1  0  0  0  0
 24 51  1  0  0  0  0
 25 28  1  0  0  0  0
 25 52  1  0  0  0  0
 26 29  2  0  0  0  0
 26 30  1  0  0  0  0
 27 53  1  0  0  0  0
 27 54  1  0  0  0  0
 28 56  1  0  0  0  0
 28 57  1  0  0  0  0
 28 58  1  0  0  0  0
 29 31  1  0  0  0  0
 30 32  2  0  0  0  0
 31 33  2  0  0  0  0
 31 34  1  0  0  0  0
 32 33  1  0  0  0  0
 32 63  1  0  0  0  0
 34 35  1  0  0  0  0
 35 36  2  0  0  0  0
 35 67  1  0  0  0  0
 36 37  1  0  0  0  0
 37 38  2  0  0  0  0
 37 39  1  0  0  0  0
 38 40  1  0  0  0  0
 38 68  1  0  0  0  0
 39 41  2  0  0  0  0
 39 69  1  0  0  0  0
 40 42  2  0  0  0  0
 41 42  1  0  0  0  0
 41 70  1  0  0  0  0
M  END
> <PUBCHEM_COMPOUND_CID>
16126794

> <PUBCHEM_CONFORMER_RMSD>
1

> <PUBCHEM_CONFORMER_DIVERSEORDER>
1
95
74
58
46
90
40
42
87
25
83
94
92
15
81
89
82
78
76
86
22
59
44
73
56
63
17
31
35
67
75
39
91
21
88
71
66
57
37
55
72
77
20
32
27
65
80
54
36
9
41
84
7
30
26
29
12
93
4
68
85
8
45
64
24
60
3
49
10
79
70
6
38
13
61
28
11
69
50
34
2
62
33
48
5
19
23
53
51
16
18
43
47
14
52

> <PUBCHEM_MMFF94_PARTIAL_CHARGES>
56
1 -0.56
10 -0.53
11 -0.53
12 -0.16
13 -0.57
14 -0.53
15 -0.53
16 0.28
17 0.28
18 0.42
19 0.28
2 -0.56
20 0.28
21 0.56
22 0.28
23 0.28
24 0.28
25 0.28
26 -0.14
27 0.28
29 0.08
3 -0.56
30 0.08
31 0.09
32 -0.15
33 0.08
34 0.47
35 -0.14
36 0.05
37 0.03
38 -0.15
39 -0.15
4 -0.68
40 0.08
41 -0.15
42 0.08
5 -0.68
55 0.4
59 0.4
6 -0.68
60 0.4
61 0.4
62 0.4
63 0.15
64 0.4
65 0.45
66 0.45
67 0.15
68 0.15
69 0.15
7 -0.68
70 0.15
71 0.45
72 0.45
8 -0.68
9 -0.68

> <PUBCHEM_EFFECTIVE_ROTOR_COUNT>
7.4

> <PUBCHEM_PHARMACOPHORE_FEATURES>
26
1 1 acceptor
1 10 donor
1 11 donor
1 12 acceptor
1 13 acceptor
1 14 donor
1 15 donor
1 2 acceptor
1 3 acceptor
1 4 acceptor
1 4 donor
1 5 acceptor
1 5 donor
1 6 acceptor
1 6 donor
1 7 acceptor
1 7 donor
1 8 acceptor
1 8 donor
1 9 acceptor
1 9 donor
6 12 31 33 34 35 36 rings
6 2 16 17 18 19 20 rings
6 26 29 30 31 32 33 rings
6 3 21 22 23 24 25 rings
6 37 38 39 40 41 42 rings

> <PUBCHEM_HEAVY_ATOM_COUNT>
42

> <PUBCHEM_ATOM_DEF_STEREO_COUNT>
9

> <PUBCHEM_ATOM_UDEF_STEREO_COUNT>
1

> <PUBCHEM_BOND_DEF_STEREO_COUNT>
0

> <PUBCHEM_BOND_UDEF_STEREO_COUNT>
0

> <PUBCHEM_ISOTOPIC_ATOM_COUNT>
0

> <PUBCHEM_COMPONENT_COUNT>
1

> <PUBCHEM_CACTVS_TAUTO_COUNT>
162

> <PUBCHEM_CONFORMER_ID>
00F6134A00000001

> <PUBCHEM_MMFF94_ENERGY>
136.7351

> <PUBCHEM_FEATURE_SELFOVERLAP>
132.046

> <PUBCHEM_SHAPE_FINGERPRINT>
10319688 140 18337109076560609030
10622 236 17897446323080679875
10952577 141 17340950202489347476
11181472 205 18335134354690213561
11421498 54 17822285834235823552
13150687 139 18337663132538288156
13533116 47 18186518830607315337
1361 2 18411699880773876001
13692114 37 18116442453580944730
14118638 360 18409167740641460073
14675020 138 18264224547015643408
15001296 14 18410860967147323087
15183329 4 18408045105130866777
15324884 4 17699816606836838648
15328684 2 17096073810575258027
15467298 65 17968673640207044847
15484559 13 18411412887571266484
15705408 1 18120346986774701988
17138139 8 17605854511653420063
18365409 1 18121217571791392894
18681886 176 15647051521546124521
19315092 285 18043250343309396882
19319366 153 18186806855187645182
20721686 124 18202007612005826802
20775438 99 18411985767173753555
21133410 171 17124818492319386251
23516275 137 17460286976429656023
23522609 53 17822831149380900177
23569914 152 17190420858965893591
24771750 20 17057219070666979901
255183 451 17897996074488863846
27425 322 18119525436566568924
3534868 343 18334565854631775857
394071 54 18342730828263522217
4093350 32 18342742910228351113
4403749 210 17910670960892171160
5309563 4 18194677305891297846
6057620 51 18262237695598304041
6669772 16 18131918144113790787

> <PUBCHEM_SHAPE_MULTIPOLES>
776.3
18.08
6.13
2.16
44.66
5.19
0.22
-4.91
-7.29
-15.73
-1.95
1.43
1.17
-0.13

> <PUBCHEM_SHAPE_SELFOVERLAP>
1699.048

> <PUBCHEM_SHAPE_VOLUME>
414.3

> <PUBCHEM_COORDINATE_TYPE>
2
5
10

$$$$

