123847
  -OEChem-07051213032D

 56 60  0     1  0  0  0  0  0999 V2000
    7.2297    0.8019    0.0000 P   0  0  3  0  0  0  0  0  0  0  0  0
    7.5989    2.6124    0.0000 P   0  0  3  0  0  0  0  0  0  0  0  0
    5.8831   -2.3092    0.0000 O   0  0  0  0  0  0  0  0  0  0  0  0
    5.2382    2.5368    0.0000 O   0  0  0  0  0  0  0  0  0  0  0  0
    5.8205   -3.9380    0.0000 O   0  0  0  0  0  0  0  0  0  0  0  0
    7.4868   -2.5925    0.0000 O   0  0  0  0  0  0  0  0  0  0  0  0
    3.6032    2.3594    0.0000 O   0  0  0  0  0  0  0  0  0  0  0  0
    4.7917    4.1196    0.0000 O   0  0  0  0  0  0  0  0  0  0  0  0
    6.6701   -0.0269    0.0000 O   0  0  0  0  0  0  0  0  0  0  0  0
    7.4086    3.5941    0.0000 O   0  0  0  0  0  0  0  0  0  0  0  0
    7.0394    1.7836    0.0000 O   0  0  0  0  0  0  0  0  0  0  0  0
    8.2279    0.8625    0.0000 O   0  0  0  0  0  0  0  0  0  0  0  0
    8.4331    3.1640    0.0000 O   0  0  0  0  0  0  0  0  0  0  0  0
    7.9177    0.0762    0.0000 O   0  0  0  0  0  0  0  0  0  0  0  0
    8.4937    2.1658    0.0000 O   0  0  0  0  0  0  0  0  0  0  0  0
    4.0598   -1.8705    0.0000 N   0  0  0  0  0  0  0  0  0  0  0  0
    4.2690    1.1013    0.0000 N   0  0  0  0  0  0  0  0  0  0  0  0
    5.1350   -0.3987    0.0000 N   0  0  0  0  0  0  0  0  0  0  0  0
    2.6660   -1.0658    0.0000 N   0  0  0  0  0  0  0  0  0  0  0  0
    2.5369    1.1013    0.0000 N   0  0  0  0  0  0  0  0  0  0  0  0
    4.8886   -2.4301    0.0000 C   0  0  1  0  0  0  0  0  0  0  0  0
    5.7487   -2.9406    0.0000 C   0  0  1  0  0  0  0  0  0  0  0  0
    6.5269   -2.3122    0.0000 C   0  0  1  0  0  0  0  0  0  0  0  0
    5.1680    1.5393    0.0000 C   0  0  1  0  0  0  0  0  0  0  0  0
    6.2091   -1.3638    0.0000 C   0  0  1  0  0  0  0  0  0  0  0  0
    4.6032    2.3630    0.0000 C   0  0  1  0  0  0  0  0  0  0  0  0
    5.1621    3.1908    0.0000 C   0  0  1  0  0  0  0  0  0  0  0  0
    6.1372    2.9748    0.0000 C   0  0  1  0  0  0  0  0  0  0  0  0
    7.1081   -0.9259    0.0000 C   0  0  0  0  0  0  0  0  0  0  0  0
    4.2690   -0.8987    0.0000 C   0  0  0  0  0  0  0  0  0  0  0  0
    6.4632    3.9201    0.0000 C   0  0  0  0  0  0  0  0  0  0  0  0
    3.4030   -0.3987    0.0000 C   0  0  0  0  0  0  0  0  0  0  0  0
    3.4030    0.6013    0.0000 C   0  0  0  0  0  0  0  0  0  0  0  0
    3.0711   -1.9735    0.0000 C   0  0  0  0  0  0  0  0  0  0  0  0
    5.1350    0.6013    0.0000 C   0  0  0  0  0  0  0  0  0  0  0  0
    4.4336   -3.1481    0.0000 H   0  0  0  0  0  0  0  0  0  0  0  0
    6.3174   -3.1876    0.0000 H   0  0  0  0  0  0  0  0  0  0  0  0
    6.6486   -2.9201    0.0000 H   0  0  0  0  0  0  0  0  0  0  0  0
    5.8724    1.0636    0.0000 H   0  0  0  0  0  0  0  0  0  0  0  0
    5.9390   -0.5579    0.0000 H   0  0  0  0  0  0  0  0  0  0  0  0
    4.3113    2.9100    0.0000 H   0  0  0  0  0  0  0  0  0  0  0  0
    5.5637    3.6631    0.0000 H   0  0  0  0  0  0  0  0  0  0  0  0
    5.7220    3.7164    0.0000 H   0  0  0  0  0  0  0  0  0  0  0  0
    7.3796   -1.4832    0.0000 H   0  0  0  0  0  0  0  0  0  0  0  0
    7.6654   -0.6543    0.0000 H   0  0  0  0  0  0  0  0  0  0  0  0
    6.6653    4.5063    0.0000 H   0  0  0  0  0  0  0  0  0  0  0  0
    5.8771    4.1222    0.0000 H   0  0  0  0  0  0  0  0  0  0  0  0
    2.7611   -2.5105    0.0000 H   0  0  0  0  0  0  0  0  0  0  0  0
    5.6720    0.9113    0.0000 H   0  0  0  0  0  0  0  0  0  0  0  0
    6.3783   -4.2087    0.0000 H   0  0  0  0  0  0  0  0  0  0  0  0
    7.6339   -3.1948    0.0000 H   0  0  0  0  0  0  0  0  0  0  0  0
    3.2913    2.8953    0.0000 H   0  0  0  0  0  0  0  0  0  0  0  0
    4.1781    4.2087    0.0000 H   0  0  0  0  0  0  0  0  0  0  0  0
    2.0000    0.7913    0.0000 H   0  0  0  0  0  0  0  0  0  0  0  0
    8.5048    1.4172    0.0000 H   0  0  0  0  0  0  0  0  0  0  0  0
    8.3955    3.7828    0.0000 H   0  0  0  0  0  0  0  0  0  0  0  0
  1  9  1  0  0  0  0
  1 11  1  0  0  0  0
  1 12  1  0  0  0  0
  1 14  2  0  0  0  0
  2 10  1  0  0  0  0
  2 11  1  0  0  0  0
  2 13  1  0  0  0  0
  2 15  2  0  0  0  0
  3 21  1  0  0  0  0
  3 25  1  0  0  0  0
  4 24  1  0  0  0  0
  4 28  1  0  0  0  0
 22  5  1  1  0  0  0
  5 50  1  0  0  0  0
 23  6  1  1  0  0  0
  6 51  1  0  0  0  0
 26  7  1  6  0  0  0
  7 52  1  0  0  0  0
 27  8  1  6  0  0  0
  8 53  1  0  0  0  0
  9 29  1  0  0  0  0
 10 31  1  0  0  0  0
 12 55  1  0  0  0  0
 13 56  1  0  0  0  0
 16 21  1  0  0  0  0
 16 30  1  0  0  0  0
 16 34  1  0  0  0  0
 17 24  1  0  0  0  0
 17 33  1  0  0  0  0
 17 35  1  0  0  0  0
 18 30  1  0  0  0  0
 18 35  2  0  0  0  0
 19 32  1  0  0  0  0
 19 34  2  0  0  0  0
 20 33  2  0  0  0  0
 20 54  1  0  0  0  0
 21 22  1  0  0  0  0
 21 36  1  1  0  0  0
 22 23  1  0  0  0  0
 22 37  1  0  0  0  0
 23 25  1  0  0  0  0
 23 38  1  0  0  0  0
 24 26  1  0  0  0  0
 24 39  1  6  0  0  0
 25 29  1  0  0  0  0
 25 40  1  1  0  0  0
 26 27  1  0  0  0  0
 26 41  1  0  0  0  0
 27 28  1  0  0  0  0
 27 42  1  0  0  0  0
 28 31  1  0  0  0  0
 28 43  1  6  0  0  0
 29 44  1  0  0  0  0
 29 45  1  0  0  0  0
 30 32  2  0  0  0  0
 31 46  1  0  0  0  0
 31 47  1  0  0  0  0
 32 33  1  0  0  0  0
 34 48  1  0  0  0  0
 35 49  1  0  0  0  0
M  END
> <PUBCHEM_COMPOUND_CID>
123847

> <PUBCHEM_COMPOUND_CANONICALIZED>
1

> <PUBCHEM_CACTVS_COMPLEXITY>
989

> <PUBCHEM_CACTVS_HBOND_ACCEPTOR>
16

> <PUBCHEM_CACTVS_HBOND_DONOR>
7

> <PUBCHEM_CACTVS_ROTATABLE_BOND>
0

> <PUBCHEM_CACTVS_SUBSKEYS>
AAADceBzvAMAAAAAAAAAAAAAAAAAAWJEgAAgAAAAAAAAAAABgAAAHgAQCCAACBzhlgYFsBdMFxCgQQZhZICAgC2REKABUAAoVBCDWAJAyAAeQAgPAALTACDwMAIAAAAAAAAAAAAAAAAAAAAAAAAAAAAAAA==

> <PUBCHEM_IUPAC_INCHI>
InChI=1S/C15H21N5O13P2/c16-12-7-13-18-4-19(12)14-10(23)8(21)5(31-14)1-29-34(25,26)33-35(27,28)30-2-6-9(22)11(24)15(32-6)20(13)3-17-7/h3-6,8-11,14-16,21-24H,1-2H2,(H,25,26)(H,27,28)/t5-,6-,8-,9-,10-,11-,14-,15-/m1/s1

> <PUBCHEM_IUPAC_INCHIKEY>
BQOHYSXSASDCEA-KEOHHSTQSA-N

> <PUBCHEM_XLOGP3_AA>
-5.7

> <PUBCHEM_EXACT_MASS>
541.061109

> <PUBCHEM_MOLECULAR_FORMULA>
C15H21N5O13P2

> <PUBCHEM_MOLECULAR_WEIGHT>
541.300464

> <PUBCHEM_OPENEYE_CAN_SMILES>
C1C2C(C(C(O2)N3C=NC4=C3N=CN(C4=N)C5C(C(C(O5)COP(=O)(OP(=O)(O1)O)O)O)O)O)O

> <PUBCHEM_OPENEYE_ISO_SMILES>
C1[C@@H]2[C@H]([C@H]([C@@H](O2)N3C=NC4=C3N=CN(C4=N)[C@H]5[C@@H]([C@@H]([C@H](O5)COP(=O)(OP(=O)(O1)O)O)O)O)O)O

> <PUBCHEM_CACTVS_TPSA>
259

> <PUBCHEM_MONOISOTOPIC_WEIGHT>
541.061109

> <PUBCHEM_TOTAL_CHARGE>
0

> <PUBCHEM_HEAVY_ATOM_COUNT>
35

> <PUBCHEM_ATOM_DEF_STEREO_COUNT>
8

> <PUBCHEM_ATOM_UDEF_STEREO_COUNT>
0

> <PUBCHEM_BOND_DEF_STEREO_COUNT>
0

> <PUBCHEM_BOND_UDEF_STEREO_COUNT>
0

> <PUBCHEM_ISOTOPIC_ATOM_COUNT>
0

> <PUBCHEM_COMPONENT_COUNT>
1

> <PUBCHEM_CACTVS_TAUTO_COUNT>
1

> <PUBCHEM_COORDINATE_TYPE>
1
5
255

> <PUBCHEM_BONDANNOTATIONS>
16  30  8
16  34  8
17  33  8
17  35  8
18  30  8
18  35  8
19  32  8
19  34  8
21  36  5
24  39  6
25  40  5
28  43  6
30  32  8
32  33  8
22  5  5
23  6  5
26  7  6
27  8  6

$$$$

