13034
  -OEChem-06261207402D

 22 22  0     0  0  0  0  0  0999 V2000
    3.7320    2.1900    0.0000 O   0  0  0  0  0  0  0  0  0  0  0  0
    2.8660   -1.3100    0.0000 C   0  0  0  0  0  0  0  0  0  0  0  0
    2.8660   -2.3100    0.0000 C   0  0  0  0  0  0  0  0  0  0  0  0
    2.8660    0.6900    0.0000 C   0  0  0  0  0  0  0  0  0  0  0  0
    3.7320   -0.8100    0.0000 C   0  0  0  0  0  0  0  0  0  0  0  0
    2.0000   -0.8100    0.0000 C   0  0  0  0  0  0  0  0  0  0  0  0
    3.7320    0.1900    0.0000 C   0  0  0  0  0  0  0  0  0  0  0  0
    2.0000    0.1900    0.0000 C   0  0  0  0  0  0  0  0  0  0  0  0
    2.0000   -2.8100    0.0000 C   0  0  0  0  0  0  0  0  0  0  0  0
    2.8660    1.6900    0.0000 C   0  0  0  0  0  0  0  0  0  0  0  0
    3.0781   -2.8926    0.0000 H   0  0  0  0  0  0  0  0  0  0  0  0
    3.4766   -2.2023    0.0000 H   0  0  0  0  0  0  0  0  0  0  0  0
    4.2690   -1.1200    0.0000 H   0  0  0  0  0  0  0  0  0  0  0  0
    1.4631   -1.1200    0.0000 H   0  0  0  0  0  0  0  0  0  0  0  0
    4.2690    0.5000    0.0000 H   0  0  0  0  0  0  0  0  0  0  0  0
    1.4631    0.5000    0.0000 H   0  0  0  0  0  0  0  0  0  0  0  0
    1.6900   -2.2731    0.0000 H   0  0  0  0  0  0  0  0  0  0  0  0
    1.4631   -3.1200    0.0000 H   0  0  0  0  0  0  0  0  0  0  0  0
    2.3100   -3.3469    0.0000 H   0  0  0  0  0  0  0  0  0  0  0  0
    2.6540    2.2726    0.0000 H   0  0  0  0  0  0  0  0  0  0  0  0
    2.2554    1.5823    0.0000 H   0  0  0  0  0  0  0  0  0  0  0  0
    3.7320    2.8100    0.0000 H   0  0  0  0  0  0  0  0  0  0  0  0
  1 10  1  0  0  0  0
  1 22  1  0  0  0  0
  2  3  1  0  0  0  0
  2  5  2  0  0  0  0
  2  6  1  0  0  0  0
  3  9  1  0  0  0  0
  3 11  1  0  0  0  0
  3 12  1  0  0  0  0
  4  7  2  0  0  0  0
  4  8  1  0  0  0  0
  4 10  1  0  0  0  0
  5  7  1  0  0  0  0
  5 13  1  0  0  0  0
  6  8  2  0  0  0  0
  6 14  1  0  0  0  0
  7 15  1  0  0  0  0
  8 16  1  0  0  0  0
  9 17  1  0  0  0  0
  9 18  1  0  0  0  0
  9 19  1  0  0  0  0
 10 20  1  0  0  0  0
 10 21  1  0  0  0  0
M  END
> <PUBCHEM_COMPOUND_CID>
13034

> <PUBCHEM_COMPOUND_CANONICALIZED>
1

> <PUBCHEM_CACTVS_COMPLEXITY>
82.7

> <PUBCHEM_CACTVS_HBOND_ACCEPTOR>
1

> <PUBCHEM_CACTVS_HBOND_DONOR>
1

> <PUBCHEM_CACTVS_ROTATABLE_BOND>
2

> <PUBCHEM_CACTVS_SUBSKEYS>
AAADccBwIAAAAAAAAAAAAAAAAAAAAAAAAAAwAAAAAAAAAAABAAAAGgAACAAADACgmAIyAIAAAgCAAiBCAAACAAAgAAAIiAAACIgINiKAERCAcAAkwAEImAeAwPAOQAAAAAAAAACAAAAAAAAAAAAAAAAAAA==

> <PUBCHEM_IUPAC_OPENEYE_NAME>
(4-ethylphenyl)methanol

> <PUBCHEM_IUPAC_CAS_NAME>
(4-ethylphenyl)methanol

> <PUBCHEM_IUPAC_NAME>
(4-ethylphenyl)methanol

> <PUBCHEM_IUPAC_SYSTEMATIC_NAME>
(4-ethylphenyl)methanol

> <PUBCHEM_IUPAC_TRADITIONAL_NAME>
(4-ethylphenyl)methanol

> <PUBCHEM_IUPAC_INCHI>
InChI=1S/C9H12O/c1-2-8-3-5-9(7-10)6-4-8/h3-6,10H,2,7H2,1H3

> <PUBCHEM_IUPAC_INCHIKEY>
YSLBFFIVJGJBSA-UHFFFAOYSA-N

> <PUBCHEM_XLOGP3>
2

> <PUBCHEM_EXACT_MASS>
136.088815

> <PUBCHEM_MOLECULAR_FORMULA>
C9H12O

> <PUBCHEM_MOLECULAR_WEIGHT>
136.19098

> <PUBCHEM_OPENEYE_CAN_SMILES>
CCC1=CC=C(C=C1)CO

> <PUBCHEM_OPENEYE_ISO_SMILES>
CCC1=CC=C(C=C1)CO

> <PUBCHEM_CACTVS_TPSA>
20.2

> <PUBCHEM_MONOISOTOPIC_WEIGHT>
136.088815

> <PUBCHEM_TOTAL_CHARGE>
0

> <PUBCHEM_HEAVY_ATOM_COUNT>
10

> <PUBCHEM_ATOM_DEF_STEREO_COUNT>
0

> <PUBCHEM_ATOM_UDEF_STEREO_COUNT>
0

> <PUBCHEM_BOND_DEF_STEREO_COUNT>
0

> <PUBCHEM_BOND_UDEF_STEREO_COUNT>
0

> <PUBCHEM_ISOTOPIC_ATOM_COUNT>
0

> <PUBCHEM_COMPONENT_COUNT>
1

> <PUBCHEM_CACTVS_TAUTO_COUNT>
1

> <PUBCHEM_COORDINATE_TYPE>
1
5
255

> <PUBCHEM_BONDANNOTATIONS>
2  5  8
2  6  8
4  7  8
4  8  8
5  7  8
6  8  8

$$$$

