5281271
  -OEChem-07051212553D

 71 73  0     1  0  0  0  0  0999 V2000
    3.9069    1.3212    1.9733 O   0  0  0  0  0  0  0  0  0  0  0  0
    1.6611    2.5923    2.0992 O   0  0  0  0  0  0  0  0  0  0  0  0
    4.2494   -1.6470    1.6490 O   0  0  0  0  0  0  0  0  0  0  0  0
    4.6573   -2.9008   -0.2479 O   0  0  0  0  0  0  0  0  0  0  0  0
   -4.7820    0.4945    0.3543 O   0  0  0  0  0  0  0  0  0  0  0  0
   -4.8123    1.7918   -1.5576 O   0  0  0  0  0  0  0  0  0  0  0  0
   -7.4432   -2.0549    0.5014 N   0  0  0  0  0  0  0  0  0  0  0  0
    1.9908   -0.2145   -0.9866 C   0  0  1  0  0  0  0  0  0  0  0  0
    3.2356    0.3416   -0.1731 C   0  0  2  0  0  0  0  0  0  0  0  0
    0.8439    0.8706   -0.9102 C   0  0  2  0  0  0  0  0  0  0  0  0
    0.4418    1.2070    0.5444 C   0  0  2  0  0  0  0  0  0  0  0  0
    4.5585   -0.4892   -0.3696 C   0  0  1  0  0  0  0  0  0  0  0  0
    2.4152   -0.4000   -2.4709 C   0  0  0  0  0  0  0  0  0  0  0  0
    2.8521    0.6605    1.2924 C   0  0  2  0  0  0  0  0  0  0  0  0
   -0.4134    0.5778   -1.7777 C   0  0  0  0  0  0  0  0  0  0  0  0
    4.8422   -0.6986   -1.8742 C   0  0  0  0  0  0  0  0  0  0  0  0
    3.6625   -1.2540   -2.6548 C   0  0  0  0  0  0  0  0  0  0  0  0
   -0.7135    2.2393    0.5941 C   0  0  2  0  0  0  0  0  0  0  0  0
    1.6636    1.6118    1.3549 C   0  0  0  0  0  0  0  0  0  0  0  0
    1.4678   -1.5664   -0.4413 C   0  0  0  0  0  0  0  0  0  0  0  0
   -1.7181    0.4627   -0.9835 C   0  0  0  0  0  0  0  0  0  0  0  0
    5.8052    0.2065    0.2177 C   0  0  0  0  0  0  0  0  0  0  0  0
   -1.9429    1.6386   -0.0666 C   0  0  0  0  0  0  0  0  0  0  0  0
    4.5002   -1.8292    0.3213 C   0  0  0  0  0  0  0  0  0  0  0  0
   -0.3744    3.5863   -0.0648 C   0  0  0  0  0  0  0  0  0  0  0  0
   -3.1768    2.1122    0.1691 C   0  0  0  0  0  0  0  0  0  0  0  0
   -4.3422    1.4785   -0.4754 C   0  0  0  0  0  0  0  0  0  0  0  0
    4.1672   -2.8440    2.4291 C   0  0  0  0  0  0  0  0  0  0  0  0
   -5.9190   -0.2401   -0.1110 C   0  0  0  0  0  0  0  0  0  0  0  0
   -6.2782   -1.2927    0.9255 C   0  0  0  0  0  0  0  0  0  0  0  0
   -7.8155   -3.0414    1.5184 C   0  0  0  0  0  0  0  0  0  0  0  0
   -7.1894   -2.7203   -0.7788 C   0  0  0  0  0  0  0  0  0  0  0  0
    3.4686    1.3185   -0.6302 H   0  0  0  0  0  0  0  0  0  0  0  0
    1.2910    1.7809   -1.3387 H   0  0  0  0  0  0  0  0  0  0  0  0
    0.0775    0.2993    1.0461 H   0  0  0  0  0  0  0  0  0  0  0  0
    1.6121   -0.8603   -3.0561 H   0  0  0  0  0  0  0  0  0  0  0  0
    2.5990    0.5841   -2.9224 H   0  0  0  0  0  0  0  0  0  0  0  0
    2.5510   -0.2114    1.8750 H   0  0  0  0  0  0  0  0  0  0  0  0
   -0.5222    1.3928   -2.5064 H   0  0  0  0  0  0  0  0  0  0  0  0
   -0.3023   -0.3305   -2.3754 H   0  0  0  0  0  0  0  0  0  0  0  0
    5.7045   -1.3617   -2.0237 H   0  0  0  0  0  0  0  0  0  0  0  0
    5.1231    0.2650   -2.3219 H   0  0  0  0  0  0  0  0  0  0  0  0
    3.4618   -2.2943   -2.3831 H   0  0  0  0  0  0  0  0  0  0  0  0
    3.9227   -1.2729   -3.7205 H   0  0  0  0  0  0  0  0  0  0  0  0
   -0.9451    2.4354    1.6502 H   0  0  0  0  0  0  0  0  0  0  0  0
    1.2527   -1.5336    0.6295 H   0  0  0  0  0  0  0  0  0  0  0  0
    0.5415   -1.8651   -0.9430 H   0  0  0  0  0  0  0  0  0  0  0  0
    2.1649   -2.3894   -0.5999 H   0  0  0  0  0  0  0  0  0  0  0  0
   -2.5275    0.3310   -1.7091 H   0  0  0  0  0  0  0  0  0  0  0  0
   -1.6891   -0.4533   -0.3797 H   0  0  0  0  0  0  0  0  0  0  0  0
    5.8561    0.1878    1.3099 H   0  0  0  0  0  0  0  0  0  0  0  0
    6.7229   -0.2916   -0.1216 H   0  0  0  0  0  0  0  0  0  0  0  0
    5.8647    1.2499   -0.1115 H   0  0  0  0  0  0  0  0  0  0  0  0
   -0.2675    3.5030   -1.1513 H   0  0  0  0  0  0  0  0  0  0  0  0
    0.5519    4.0119    0.3306 H   0  0  0  0  0  0  0  0  0  0  0  0
   -1.1692    4.3172    0.1244 H   0  0  0  0  0  0  0  0  0  0  0  0
    4.1473    2.1129    1.4619 H   0  0  0  0  0  0  0  0  0  0  0  0
   -3.3644    2.9480    0.8326 H   0  0  0  0  0  0  0  0  0  0  0  0
    3.9655   -2.5604    3.4653 H   0  0  0  0  0  0  0  0  0  0  0  0
    3.3464   -3.4726    2.0708 H   0  0  0  0  0  0  0  0  0  0  0  0
    5.1164   -3.3868    2.3910 H   0  0  0  0  0  0  0  0  0  0  0  0
   -5.6360   -0.6883   -1.0686 H   0  0  0  0  0  0  0  0  0  0  0  0
   -6.7568    0.4511   -0.2642 H   0  0  0  0  0  0  0  0  0  0  0  0
   -5.4096   -1.9392    1.1106 H   0  0  0  0  0  0  0  0  0  0  0  0
   -6.4826   -0.7839    1.8767 H   0  0  0  0  0  0  0  0  0  0  0  0
   -8.0348   -2.5469    2.4714 H   0  0  0  0  0  0  0  0  0  0  0  0
   -7.0234   -3.7801    1.6867 H   0  0  0  0  0  0  0  0  0  0  0  0
   -8.7280   -3.5724    1.2251 H   0  0  0  0  0  0  0  0  0  0  0  0
   -6.2579   -3.2981   -0.7733 H   0  0  0  0  0  0  0  0  0  0  0  0
   -7.1716   -2.0106   -1.6115 H   0  0  0  0  0  0  0  0  0  0  0  0
   -8.0070   -3.4118   -1.0172 H   0  0  0  0  0  0  0  0  0  0  0  0
  1 14  1  0  0  0  0
  1 57  1  0  0  0  0
  2 19  2  0  0  0  0
  3 24  1  0  0  0  0
  3 28  1  0  0  0  0
  4 24  2  0  0  0  0
  5 27  1  0  0  0  0
  5 29  1  0  0  0  0
  6 27  2  0  0  0  0
  7 30  1  0  0  0  0
  7 31  1  0  0  0  0
  7 32  1  0  0  0  0
  8  9  1  0  0  0  0
  8 10  1  0  0  0  0
  8 13  1  0  0  0  0
  8 20  1  0  0  0  0
  9 12  1  0  0  0  0
  9 14  1  0  0  0  0
  9 33  1  0  0  0  0
 10 11  1  0  0  0  0
 10 15  1  0  0  0  0
 10 34  1  0  0  0  0
 11 18  1  0  0  0  0
 11 19  1  0  0  0  0
 11 35  1  0  0  0  0
 12 16  1  0  0  0  0
 12 22  1  0  0  0  0
 12 24  1  0  0  0  0
 13 17  1  0  0  0  0
 13 36  1  0  0  0  0
 13 37  1  0  0  0  0
 14 19  1  0  0  0  0
 14 38  1  0  0  0  0
 15 21  1  0  0  0  0
 15 39  1  0  0  0  0
 15 40  1  0  0  0  0
 16 17  1  0  0  0  0
 16 41  1  0  0  0  0
 16 42  1  0  0  0  0
 17 43  1  0  0  0  0
 17 44  1  0  0  0  0
 18 23  1  0  0  0  0
 18 25  1  0  0  0  0
 18 45  1  0  0  0  0
 20 46  1  0  0  0  0
 20 47  1  0  0  0  0
 20 48  1  0  0  0  0
 21 23  1  0  0  0  0
 21 49  1  0  0  0  0
 21 50  1  0  0  0  0
 22 51  1  0  0  0  0
 22 52  1  0  0  0  0
 22 53  1  0  0  0  0
 23 26  2  0  0  0  0
 25 54  1  0  0  0  0
 25 55  1  0  0  0  0
 25 56  1  0  0  0  0
 26 27  1  0  0  0  0
 26 58  1  0  0  0  0
 28 59  1  0  0  0  0
 28 60  1  0  0  0  0
 28 61  1  0  0  0  0
 29 30  1  0  0  0  0
 29 62  1  0  0  0  0
 29 63  1  0  0  0  0
 30 64  1  0  0  0  0
 30 65  1  0  0  0  0
 31 66  1  0  0  0  0
 31 67  1  0  0  0  0
 31 68  1  0  0  0  0
 32 69  1  0  0  0  0
 32 70  1  0  0  0  0
 32 71  1  0  0  0  0
M  END
> <PUBCHEM_COMPOUND_CID>
5281271

> <PUBCHEM_CONFORMER_RMSD>
1

> <PUBCHEM_CONFORMER_DIVERSEORDER>
1
2
16
14
11
4
18
8
13
15
9
3
10
7
17
19
5
6
12

> <PUBCHEM_MMFF94_PARTIAL_CHARGES>
24
1 -0.68
11 0.06
12 0.06
14 0.34
18 0.14
19 0.45
2 -0.57
21 0.14
23 -0.28
24 0.66
26 -0.14
27 0.71
28 0.28
29 0.28
3 -0.43
30 0.27
31 0.27
32 0.27
4 -0.57
5 -0.43
57 0.4
58 0.15
6 -0.57
7 -0.81

> <PUBCHEM_EFFECTIVE_ROTOR_COUNT>
8.6

> <PUBCHEM_PHARMACOPHORE_FEATURES>
9
1 1 acceptor
1 1 donor
1 2 acceptor
1 4 acceptor
1 6 acceptor
1 7 cation
6 10 11 15 18 21 23 rings
6 8 9 10 11 14 19 rings
6 8 9 12 13 16 17 rings

> <PUBCHEM_HEAVY_ATOM_COUNT>
32

> <PUBCHEM_ATOM_DEF_STEREO_COUNT>
7

> <PUBCHEM_ATOM_UDEF_STEREO_COUNT>
0

> <PUBCHEM_BOND_DEF_STEREO_COUNT>
1

> <PUBCHEM_BOND_UDEF_STEREO_COUNT>
0

> <PUBCHEM_ISOTOPIC_ATOM_COUNT>
0

> <PUBCHEM_COMPONENT_COUNT>
1

> <PUBCHEM_CACTVS_TAUTO_COUNT>
5

> <PUBCHEM_CONFORMER_ID>
005095F700000001

> <PUBCHEM_MMFF94_ENERGY>
106.076

> <PUBCHEM_FEATURE_SELFOVERLAP>
45.711

> <PUBCHEM_SHAPE_FINGERPRINT>
10076449 9 17168687722809781684
10169797 241 18261391113666096635
10622 236 17631464525751249331
10981352 41 18041843901251417727
11135609 12 18335140830977967805
11796584 16 18126570256309120677
11963148 33 18410579521444547511
12035758 1 17531254967296853030
12422481 6 17095817618915763068
12661589 4 18200870669912126251
13075007 39 18113336405656045273
13140716 1 16952003659241422432
13782708 43 18410858763680893879
14950920 106 17385716968879045355
15183329 4 15625949712430307807
15475509 35 18412833498816480730
17349148 13 17844236539816739276
1979834 28 16443634587940229268
19958102 18 17203890760652778491
20567600 247 17917712439250686475
20691028 202 9799151668635873055
20715895 44 9871751295017431224
20775438 99 16558749053095834586
22182313 1 16953111000347094716
22393880 68 14044871833609503520
2260408 40 15719656720009072285
23559900 14 18413112771071463269
23569914 152 14186247107876869827
25222932 49 18410864239257898050
2748736 6 8718830860659651779
404807 78 18058154055788794578
4340502 62 18343309197708452098
439807 62 18202562887411527427
465052 167 18259706718045328868
5104073 3 17967535713647376777
8863177 126 18334857186974161783

> <PUBCHEM_SHAPE_MULTIPOLES>
618.35
17.34
3.51
2.16
35.2
0.46
-0.21
17.82
2.63
2.92
1.45
-2.65
0.63
1.38

> <PUBCHEM_SHAPE_SELFOVERLAP>
1284.989

> <PUBCHEM_SHAPE_VOLUME>
349.1

> <PUBCHEM_COORDINATE_TYPE>
2
5
10

$$$$

