11954103
  -OEChem-07051213063D

 60 63  0     1  0  0  0  0  0999 V2000
   -4.5488   -3.5181    0.3117 O   0  0  0  0  0  0  0  0  0  0  0  0
    5.8550   -2.1239   -1.6284 O   0  0  0  0  0  0  0  0  0  0  0  0
   -4.7195   -2.1639    0.6094 N   0  0  0  0  0  0  0  0  0  0  0  0
    5.7495   -0.7594   -1.3575 N   0  0  0  0  0  0  0  0  0  0  0  0
   -2.0751    0.3215    0.1397 C   0  0  1  0  0  0  0  0  0  0  0  0
   -1.0600    1.3620   -0.3816 C   0  0  2  0  0  0  0  0  0  0  0  0
    0.2519    1.3594    0.4090 C   0  0  1  0  0  0  0  0  0  0  0  0
    0.9052   -0.0649    0.2869 C   0  0  1  0  0  0  0  0  0  0  0  0
   -3.2554    0.6306   -0.8139 C   0  0  2  0  0  0  0  0  0  0  0  0
   -1.4536   -1.0711   -0.0342 C   0  0  0  0  0  0  0  0  0  0  0  0
    2.2893   -0.1324    1.0294 C   0  0  2  0  0  0  0  0  0  0  0  0
   -1.8751    2.6490   -0.4642 C   0  0  0  0  0  0  0  0  0  0  0  0
   -0.0931   -1.1852    0.6792 C   0  0  0  0  0  0  0  0  0  0  0  0
   -3.2825    2.1761   -0.8730 C   0  0  0  0  0  0  0  0  0  0  0  0
    1.2097    2.4649   -0.0739 C   0  0  0  0  0  0  0  0  0  0  0  0
   -2.4879    0.5232    1.6197 C   0  0  0  0  0  0  0  0  0  0  0  0
    3.1382    0.9978    0.4309 C   0  0  0  0  0  0  0  0  0  0  0  0
    2.5800    2.3888    0.6024 C   0  0  0  0  0  0  0  0  0  0  0  0
   -4.6043    0.0284   -0.4476 C   0  0  1  0  0  0  0  0  0  0  0  0
    3.0161   -1.4982    0.8603 C   0  0  0  0  0  0  0  0  0  0  0  0
    2.1303    0.0596    2.5593 C   0  0  0  0  0  0  0  0  0  0  0  0
    3.6530   -1.6807   -0.5053 C   0  0  0  0  0  0  0  0  0  0  0  0
    4.2335    0.8096   -0.3244 C   0  0  0  0  0  0  0  0  0  0  0  0
   -5.6888    0.4583   -1.4281 C   0  0  0  0  0  0  0  0  0  0  0  0
   -4.4956   -1.4776   -0.4612 C   0  0  0  0  0  0  0  0  0  0  0  0
    4.6280   -0.5537   -0.7447 C   0  0  0  0  0  0  0  0  0  0  0  0
   -0.7989    1.1026   -1.4216 H   0  0  0  0  0  0  0  0  0  0  0  0
    0.0292    1.5717    1.4593 H   0  0  0  0  0  0  0  0  0  0  0  0
    1.1090   -0.2179   -0.7848 H   0  0  0  0  0  0  0  0  0  0  0  0
   -2.9823    0.2726   -1.8192 H   0  0  0  0  0  0  0  0  0  0  0  0
   -1.3098   -1.2917   -1.0997 H   0  0  0  0  0  0  0  0  0  0  0  0
   -2.0978   -1.8578    0.3650 H   0  0  0  0  0  0  0  0  0  0  0  0
   -1.4624    3.3487   -1.1982 H   0  0  0  0  0  0  0  0  0  0  0  0
   -1.9108    3.1647    0.5019 H   0  0  0  0  0  0  0  0  0  0  0  0
   -0.2515   -1.1900    1.7623 H   0  0  0  0  0  0  0  0  0  0  0  0
    0.3244   -2.1646    0.4229 H   0  0  0  0  0  0  0  0  0  0  0  0
   -4.0235    2.6053   -0.1889 H   0  0  0  0  0  0  0  0  0  0  0  0
   -3.5292    2.5186   -1.8841 H   0  0  0  0  0  0  0  0  0  0  0  0
    0.7734    3.4513    0.1228 H   0  0  0  0  0  0  0  0  0  0  0  0
    1.3390    2.3897   -1.1620 H   0  0  0  0  0  0  0  0  0  0  0  0
   -3.0054    1.4736    1.7842 H   0  0  0  0  0  0  0  0  0  0  0  0
   -3.1579   -0.2741    1.9571 H   0  0  0  0  0  0  0  0  0  0  0  0
   -1.6330    0.5093    2.3009 H   0  0  0  0  0  0  0  0  0  0  0  0
    2.5027    2.6440    1.6646 H   0  0  0  0  0  0  0  0  0  0  0  0
    3.2375    3.1445    0.1557 H   0  0  0  0  0  0  0  0  0  0  0  0
   -4.9191    0.3465    0.5530 H   0  0  0  0  0  0  0  0  0  0  0  0
    2.3452   -2.3364    1.0731 H   0  0  0  0  0  0  0  0  0  0  0  0
    3.8191   -1.5739    1.6090 H   0  0  0  0  0  0  0  0  0  0  0  0
    1.5525    0.9468    2.8297 H   0  0  0  0  0  0  0  0  0  0  0  0
    1.6315   -0.8017    3.0174 H   0  0  0  0  0  0  0  0  0  0  0  0
    3.1093    0.1612    3.0442 H   0  0  0  0  0  0  0  0  0  0  0  0
    2.9034   -1.6698   -1.3039 H   0  0  0  0  0  0  0  0  0  0  0  0
    4.1134   -2.6717   -0.5026 H   0  0  0  0  0  0  0  0  0  0  0  0
    4.7996    1.6383   -0.7358 H   0  0  0  0  0  0  0  0  0  0  0  0
   -5.4125    0.2191   -2.4612 H   0  0  0  0  0  0  0  0  0  0  0  0
   -6.6289   -0.0639   -1.2162 H   0  0  0  0  0  0  0  0  0  0  0  0
   -5.8897    1.5323   -1.3668 H   0  0  0  0  0  0  0  0  0  0  0  0
   -4.2206   -1.9580   -1.4183 H   0  0  0  0  0  0  0  0  0  0  0  0
   -4.7341   -3.9319    1.1716 H   0  0  0  0  0  0  0  0  0  0  0  0
    6.7146   -2.1680   -2.0800 H   0  0  0  0  0  0  0  0  0  0  0  0
  1  3  1  0  0  0  0
  1 59  1  0  0  0  0
  2  4  1  0  0  0  0
  2 60  1  0  0  0  0
  3 25  2  0  0  0  0
  4 26  2  0  0  0  0
  5  6  1  0  0  0  0
  5  9  1  0  0  0  0
  5 10  1  0  0  0  0
  5 16  1  0  0  0  0
  6  7  1  0  0  0  0
  6 12  1  0  0  0  0
  6 27  1  0  0  0  0
  7  8  1  0  0  0  0
  7 15  1  0  0  0  0
  7 28  1  0  0  0  0
  8 11  1  0  0  0  0
  8 13  1  0  0  0  0
  8 29  1  0  0  0  0
  9 14  1  0  0  0  0
  9 19  1  0  0  0  0
  9 30  1  0  0  0  0
 10 13  1  0  0  0  0
 10 31  1  0  0  0  0
 10 32  1  0  0  0  0
 11 17  1  0  0  0  0
 11 20  1  0  0  0  0
 11 21  1  0  0  0  0
 12 14  1  0  0  0  0
 12 33  1  0  0  0  0
 12 34  1  0  0  0  0
 13 35  1  0  0  0  0
 13 36  1  0  0  0  0
 14 37  1  0  0  0  0
 14 38  1  0  0  0  0
 15 18  1  0  0  0  0
 15 39  1  0  0  0  0
 15 40  1  0  0  0  0
 16 41  1  0  0  0  0
 16 42  1  0  0  0  0
 16 43  1  0  0  0  0
 17 18  1  0  0  0  0
 17 23  2  0  0  0  0
 18 44  1  0  0  0  0
 18 45  1  0  0  0  0
 19 24  1  0  0  0  0
 19 25  1  0  0  0  0
 19 46  1  0  0  0  0
 20 22  1  0  0  0  0
 20 47  1  0  0  0  0
 20 48  1  0  0  0  0
 21 49  1  0  0  0  0
 21 50  1  0  0  0  0
 21 51  1  0  0  0  0
 22 26  1  0  0  0  0
 22 52  1  0  0  0  0
 22 53  1  0  0  0  0
 23 26  1  0  0  0  0
 23 54  1  0  0  0  0
 24 55  1  0  0  0  0
 24 56  1  0  0  0  0
 24 57  1  0  0  0  0
 25 58  1  0  0  0  0
M  END
> <PUBCHEM_COMPOUND_CID>
11954103

> <PUBCHEM_CONFORMER_RMSD>
0.8

> <PUBCHEM_CONFORMER_DIVERSEORDER>
1
2

> <PUBCHEM_MMFF94_PARTIAL_CHARGES>
16
1 -0.34
11 0.14
17 -0.28
18 0.14
19 0.06
2 -0.34
22 0.06
23 -0.14
25 0.33
26 0.37
3 -0.51
4 -0.51
54 0.15
58 0.06
59 0.4
60 0.4

> <PUBCHEM_EFFECTIVE_ROTOR_COUNT>
3.8

> <PUBCHEM_PHARMACOPHORE_FEATURES>
9
1 1 anion
1 2 anion
1 24 hydrophobe
1 3 acceptor
1 4 acceptor
5 5 6 9 12 14 rings
6 11 17 20 22 23 26 rings
6 5 6 7 8 10 13 rings
6 7 8 11 15 17 18 rings

> <PUBCHEM_HEAVY_ATOM_COUNT>
26

> <PUBCHEM_ATOM_DEF_STEREO_COUNT>
7

> <PUBCHEM_ATOM_UDEF_STEREO_COUNT>
0

> <PUBCHEM_BOND_DEF_STEREO_COUNT>
2

> <PUBCHEM_BOND_UDEF_STEREO_COUNT>
0

> <PUBCHEM_ISOTOPIC_ATOM_COUNT>
0

> <PUBCHEM_COMPONENT_COUNT>
1

> <PUBCHEM_CACTVS_TAUTO_COUNT>
4

> <PUBCHEM_CONFORMER_ID>
00B667B700000001

> <PUBCHEM_MMFF94_ENERGY>
86.0185

> <PUBCHEM_FEATURE_SELFOVERLAP>
45.786

> <PUBCHEM_SHAPE_FINGERPRINT>
10366900 7 17846778511625831049
10498660 4 18202007624526172528
11961588 58 17274814736785323564
12011746 2 18272090521519185413
12403259 226 18410860932138660145
12422481 6 6555427395941945762
12596602 18 14346092896962624111
12623949 98 17897708891099969303
12670546 177 18272372000716802542
12788726 201 17987525960501363977
12916754 54 18334573516968586577
13009979 54 17676753349574906424
13103583 49 4822925790774598732
13224815 77 18272377468431963089
13533116 47 17603592897813102304
14950920 106 15936968514597150995
15196674 1 18270126712543230977
16752209 62 18270410506301342649
17349148 13 17095241414851287853
17492 89 18342186527011062771
18222031 100 18114191851340143212
193927 3 17676478471630629502
20645477 70 18409453561834806916
20871999 31 18342172319100394044
21267235 1 18409725170796410701
21682296 61 17822285829344685767
221357 26 18409171047085562212
221490 88 18410858724382616497
2215653 11 18335712654196607981
22393880 68 18272660042888451525
23379529 103 18336541608264662535
23559900 14 18410300189819300637
2838139 119 15195564602719605206
2916195 48 10159701278761684799
296302 2 12895065228248166240
46194498 28 18409165489962292964
5104073 3 18335991921122597305
6823239 73 18409455777910844248
9709674 26 18270403784935662401

> <PUBCHEM_SHAPE_MULTIPOLES>
513.37
12
2.84
1.44
0.13
0.4
-0.45
6.25
5.51
-1.5
0.17
0.97
0.2
1.69

> <PUBCHEM_SHAPE_SELFOVERLAP>
1088.219

> <PUBCHEM_SHAPE_VOLUME>
286.6

> <PUBCHEM_COORDINATE_TYPE>
2
5
10

$$$$

