54691338
  -OEChem-07051213033D

 62 63  0     1  0  0  0  0  0999 V2000
   -3.3351    0.8571    1.1268 O   0  0  0  0  0  0  0  0  0  0  0  0
   -1.0895   -0.9449    2.2924 O   0  0  0  0  0  0  0  0  0  0  0  0
   -1.8132   -3.3968   -0.4918 O   0  0  0  0  0  0  0  0  0  0  0  0
   -8.9292    3.1614   -0.1258 O   0  0  0  0  0  0  0  0  0  0  0  0
   -3.9048   -2.6190   -1.0280 N   0  0  0  0  0  0  0  0  0  0  0  0
    7.5772    1.9021   -0.5212 C   0  0  1  0  0  0  0  0  0  0  0  0
    8.2294    0.6860    0.1723 C   0  0  0  0  0  0  0  0  0  0  0  0
    7.5672   -0.6798   -0.1095 C   0  0  1  0  0  0  0  0  0  0  0  0
    8.2658    3.2182   -0.0972 C   0  0  0  0  0  0  0  0  0  0  0  0
    7.5439    1.7509   -2.0441 C   0  0  0  0  0  0  0  0  0  0  0  0
    8.3222   -1.8438    0.5404 C   0  0  0  0  0  0  0  0  0  0  0  0
    6.1450   -0.6580    0.4150 C   0  0  0  0  0  0  0  0  0  0  0  0
    8.2755    3.5026    1.3986 C   0  0  0  0  0  0  0  0  0  0  0  0
    4.9970   -0.8335   -0.2741 C   0  0  0  0  0  0  0  0  0  0  0  0
    4.9352   -1.0485   -1.7639 C   0  0  0  0  0  0  0  0  0  0  0  0
    3.7285   -0.7955    0.4591 C   0  0  0  0  0  0  0  0  0  0  0  0
    2.4984   -0.9496   -0.0596 C   0  0  0  0  0  0  0  0  0  0  0  0
   -4.6865   -0.5316   -0.2423 C   0  0  0  0  0  0  0  0  0  0  0  0
    1.2683   -0.9340    0.7053 C   0  0  0  0  0  0  0  0  0  0  0  0
   -2.4320   -1.2686    0.3877 C   0  0  0  0  0  0  0  0  0  0  0  0
   -3.4110   -0.3399    0.4459 C   0  0  0  0  0  0  0  0  0  0  0  0
   -5.7981    0.4378   -0.2110 C   0  0  0  0  0  0  0  0  0  0  0  0
   -4.8764   -1.6588   -0.9468 C   0  0  0  0  0  0  0  0  0  0  0  0
    0.0423   -1.0879    0.1855 C   0  0  0  0  0  0  0  0  0  0  0  0
   -1.1441   -1.0857    1.0776 C   0  0  0  0  0  0  0  0  0  0  0  0
   -2.6737   -2.5224   -0.4090 C   0  0  0  0  0  0  0  0  0  0  0  0
   -6.7675    0.3553    0.7887 C   0  0  0  0  0  0  0  0  0  0  0  0
   -5.8807    1.4360   -1.1818 C   0  0  0  0  0  0  0  0  0  0  0  0
   -7.8194    1.2707    0.8174 C   0  0  0  0  0  0  0  0  0  0  0  0
   -6.9328    2.3514   -1.1531 C   0  0  0  0  0  0  0  0  0  0  0  0
   -7.9020    2.2688   -0.1535 C   0  0  0  0  0  0  0  0  0  0  0  0
    6.5355    1.9764   -0.1832 H   0  0  0  0  0  0  0  0  0  0  0  0
    8.2378    0.8384    1.2585 H   0  0  0  0  0  0  0  0  0  0  0  0
    9.2829    0.6321   -0.1340 H   0  0  0  0  0  0  0  0  0  0  0  0
    7.6031   -0.8618   -1.1852 H   0  0  0  0  0  0  0  0  0  0  0  0
    9.3000    3.2254   -0.4636 H   0  0  0  0  0  0  0  0  0  0  0  0
    7.7561    4.0525   -0.5959 H   0  0  0  0  0  0  0  0  0  0  0  0
    8.5500    1.5844   -2.4434 H   0  0  0  0  0  0  0  0  0  0  0  0
    6.9084    0.9239   -2.3627 H   0  0  0  0  0  0  0  0  0  0  0  0
    7.1447    2.6578   -2.5113 H   0  0  0  0  0  0  0  0  0  0  0  0
    8.3689   -1.7348    1.6298 H   0  0  0  0  0  0  0  0  0  0  0  0
    9.3501   -1.8911    0.1649 H   0  0  0  0  0  0  0  0  0  0  0  0
    7.8388   -2.8010    0.3155 H   0  0  0  0  0  0  0  0  0  0  0  0
    6.0790   -0.4976    1.4925 H   0  0  0  0  0  0  0  0  0  0  0  0
    8.9415    2.8210    1.9352 H   0  0  0  0  0  0  0  0  0  0  0  0
    8.6352    4.5202    1.5830 H   0  0  0  0  0  0  0  0  0  0  0  0
    7.2698    3.4168    1.8215 H   0  0  0  0  0  0  0  0  0  0  0  0
    4.4394   -0.2027   -2.2526 H   0  0  0  0  0  0  0  0  0  0  0  0
    5.9100   -1.1713   -2.2371 H   0  0  0  0  0  0  0  0  0  0  0  0
    4.3784   -1.9634   -1.9969 H   0  0  0  0  0  0  0  0  0  0  0  0
    3.8091   -0.6392    1.5347 H   0  0  0  0  0  0  0  0  0  0  0  0
    2.3717   -1.1066   -1.1280 H   0  0  0  0  0  0  0  0  0  0  0  0
    1.3866   -0.8012    1.7788 H   0  0  0  0  0  0  0  0  0  0  0  0
   -5.7897   -1.8839   -1.4863 H   0  0  0  0  0  0  0  0  0  0  0  0
   -0.1052   -1.2160   -0.8820 H   0  0  0  0  0  0  0  0  0  0  0  0
   -4.1107   -3.4488   -1.5766 H   0  0  0  0  0  0  0  0  0  0  0  0
   -6.7167   -0.4167    1.5528 H   0  0  0  0  0  0  0  0  0  0  0  0
   -5.1326    1.5138   -1.9671 H   0  0  0  0  0  0  0  0  0  0  0  0
   -8.5715    1.2013    1.5986 H   0  0  0  0  0  0  0  0  0  0  0  0
   -6.9859    3.1243   -1.9152 H   0  0  0  0  0  0  0  0  0  0  0  0
   -2.4645    0.9167    1.5542 H   0  0  0  0  0  0  0  0  0  0  0  0
   -8.8292    3.7798   -0.8699 H   0  0  0  0  0  0  0  0  0  0  0  0
  1 21  1  0  0  0  0
  1 61  1  0  0  0  0
  2 25  2  0  0  0  0
  3 26  2  0  0  0  0
  4 31  1  0  0  0  0
  4 62  1  0  0  0  0
  5 23  1  0  0  0  0
  5 26  1  0  0  0  0
  5 56  1  0  0  0  0
  6  7  1  0  0  0  0
  6  9  1  0  0  0  0
  6 10  1  0  0  0  0
  6 32  1  0  0  0  0
  7  8  1  0  0  0  0
  7 33  1  0  0  0  0
  7 34  1  0  0  0  0
  8 11  1  0  0  0  0
  8 12  1  0  0  0  0
  8 35  1  0  0  0  0
  9 13  1  0  0  0  0
  9 36  1  0  0  0  0
  9 37  1  0  0  0  0
 10 38  1  0  0  0  0
 10 39  1  0  0  0  0
 10 40  1  0  0  0  0
 11 41  1  0  0  0  0
 11 42  1  0  0  0  0
 11 43  1  0  0  0  0
 12 14  2  0  0  0  0
 12 44  1  0  0  0  0
 13 45  1  0  0  0  0
 13 46  1  0  0  0  0
 13 47  1  0  0  0  0
 14 15  1  0  0  0  0
 14 16  1  0  0  0  0
 15 48  1  0  0  0  0
 15 49  1  0  0  0  0
 15 50  1  0  0  0  0
 16 17  2  0  0  0  0
 16 51  1  0  0  0  0
 17 19  1  0  0  0  0
 17 52  1  0  0  0  0
 18 21  1  0  0  0  0
 18 22  1  0  0  0  0
 18 23  2  0  0  0  0
 19 24  2  0  0  0  0
 19 53  1  0  0  0  0
 20 21  2  0  0  0  0
 20 25  1  0  0  0  0
 20 26  1  0  0  0  0
 22 27  2  0  0  0  0
 22 28  1  0  0  0  0
 23 54  1  0  0  0  0
 24 25  1  0  0  0  0
 24 55  1  0  0  0  0
 27 29  1  0  0  0  0
 27 57  1  0  0  0  0
 28 30  2  0  0  0  0
 28 58  1  0  0  0  0
 29 31  2  0  0  0  0
 29 59  1  0  0  0  0
 30 31  1  0  0  0  0
 30 60  1  0  0  0  0
M  END
> <PUBCHEM_COMPOUND_CID>
54691338

> <PUBCHEM_CONFORMER_RMSD>
1

> <PUBCHEM_CONFORMER_DIVERSEORDER>
1
152
130
79
89
147
27
191
135
52
195
181
148
35
73
9
49
5
150
189
120
211
61
36
167
104
166
76
40
103
54
196
42
187
26
110
185
50
169
126
33
134
192
25
124
51
16
193
108
29
180
88
128
131
41
182
82
174
38
91
86
151
65
171
80
17
77
153
119
15
149
129
142
55
60
66
99
62
197
115
96
81
56
19
201
98
210
157
18
160
48
121
87
24
154
172
21
139
72
100
64
155
204
113
43
63
123
158
162
136
156
2
194
105
37
205
10
3
118
111
58
122
198
75
59
47
12
68
133
78
112
137
85
45
207
22
117
203
53
173
102
101
138
140
106
46
186
161
199
179
13
202
7
107
183
177
97
14
170
70
44
28
127
34
90
164
132
114
4
175
67
69
94
190
176
178
6
83
8
92
141
146
93
125
11
20
31
163
84
71
39
188
206
144
168
109
165
23
30
145
116
159
57
208
200
32
184
209
74
143
95

> <PUBCHEM_MMFF94_PARTIAL_CHARGES>
38
1 -0.53
12 -0.29
14 -0.14
15 0.14
16 -0.15
17 -0.15
18 -0.03
19 -0.15
2 -0.57
20 0.03
21 0.08
22 0.03
23 -0.04
24 -0.14
25 0.54
26 0.62
27 -0.15
28 -0.15
29 -0.15
3 -0.57
30 -0.15
31 0.08
4 -0.53
44 0.15
5 -0.54
51 0.15
52 0.15
53 0.15
54 0.15
55 0.15
56 0.37
57 0.15
58 0.15
59 0.15
60 0.15
61 0.45
62 0.45
8 0.14

> <PUBCHEM_EFFECTIVE_ROTOR_COUNT>
9

> <PUBCHEM_PHARMACOPHORE_FEATURES>
13
1 1 donor
1 10 hydrophobe
1 11 hydrophobe
1 13 hydrophobe
1 15 hydrophobe
1 2 acceptor
1 20 anion
1 3 acceptor
1 4 donor
1 5 donor
5 6 7 8 9 12 hydrophobe
6 22 27 28 29 30 31 rings
6 5 18 20 21 23 26 rings

> <PUBCHEM_HEAVY_ATOM_COUNT>
31

> <PUBCHEM_ATOM_DEF_STEREO_COUNT>
2

> <PUBCHEM_ATOM_UDEF_STEREO_COUNT>
0

> <PUBCHEM_BOND_DEF_STEREO_COUNT>
3

> <PUBCHEM_BOND_UDEF_STEREO_COUNT>
0

> <PUBCHEM_ISOTOPIC_ATOM_COUNT>
0

> <PUBCHEM_COMPONENT_COUNT>
1

> <PUBCHEM_CACTVS_TAUTO_COUNT>
34

> <PUBCHEM_CONFORMER_ID>
0342860A00000001

> <PUBCHEM_MMFF94_ENERGY>
77.8688

> <PUBCHEM_FEATURE_SELFOVERLAP>
66.053

> <PUBCHEM_SHAPE_FINGERPRINT>
10369192 42 18342740767329580999
11135609 99 8645898098299771905
11181472 205 18263358247975126418
11315181 36 17240481386116590035
11386260 185 15213310694811809258
11408170 132 18409445883039625108
11578821 258 18409165480967007544
12082328 90 18342740689308603823
125118 31 18202281386670164460
12539765 74 18411414021433011998
12655364 74 18128832992128570405
13668630 136 6122501298391622338
13740195 50 18202276984439547227
15183329 4 18113622330208546395
15604295 49 18411141298898036700
1577012 14 18343309188222556699
16994733 274 18343306929538471544
1754908 1 15123508090792135968
1818759 1 6411009872739670661
19315958 150 18335134340607553374
20105231 36 12751234848787253690
2026 5 8430304741766442549
20505436 4 18201163238795079291
21756936 100 17988924483947748755
21792938 703 6194553464055320012
23559900 14 17603596209444144403
23576562 1 16226629372218533721
3711267 37 18341602776752897417
3918712 181 18259987055341139384
4073 2 18342174415477913042
4516262 110 18059585736846525071
4561138 5 18410578431629442440
4625314 4 18333448730175808990
4760202 170 18335708230513019008
504579 68 17095517379875360152
5265222 85 18261394382189443822
636775 72 18271243932865150061
6475588 51 18340490057473309309
6698420 124 17632572768873172698
9953998 17 15625933267016128729

> <PUBCHEM_SHAPE_MULTIPOLES>
609.51
34.04
3.58
1.39
23.84
1.94
-0.09
30.72
-2.43
0.79
-0.3
0.79
0.23
0.31

> <PUBCHEM_SHAPE_SELFOVERLAP>
1265.261

> <PUBCHEM_SHAPE_VOLUME>
347.1

> <PUBCHEM_COORDINATE_TYPE>
2
5
10

$$$$

