251872
  -OEChem-07051213063D

 63 66  0     1  0  0  0  0  0999 V2000
    4.7041    0.6662    0.1525 O   0  0  0  0  0  0  0  0  0  0  0  0
   -6.4398    0.1528   -0.5566 O   0  0  0  0  0  0  0  0  0  0  0  0
    6.2492   -0.6770   -0.9116 O   0  0  0  0  0  0  0  0  0  0  0  0
    1.4673   -0.9817   -0.1843 C   0  0  2  0  0  0  0  0  0  0  0  0
    2.2546    0.2981    0.1501 C   0  0  2  0  0  0  0  0  0  0  0  0
    0.0038   -0.9164    0.2621 C   0  0  1  0  0  0  0  0  0  0  0  0
   -0.6926    0.2990   -0.4227 C   0  0  1  0  0  0  0  0  0  0  0  0
    1.6168    1.4571   -0.6261 C   0  0  0  0  0  0  0  0  0  0  0  0
   -2.1966    0.4234    0.0364 C   0  0  2  0  0  0  0  0  0  0  0  0
    3.6480   -0.1269   -0.3541 C   0  0  2  0  0  0  0  0  0  0  0  0
    0.1251    1.6122   -0.2806 C   0  0  0  0  0  0  0  0  0  0  0  0
    2.3541   -2.1003    0.3558 C   0  0  0  0  0  0  0  0  0  0  0  0
    3.7856   -1.5886    0.1136 C   0  0  0  0  0  0  0  0  0  0  0  0
   -0.7317   -2.2241   -0.0686 C   0  0  0  0  0  0  0  0  0  0  0  0
    2.3103    0.6476    1.6584 C   0  0  0  0  0  0  0  0  0  0  0  0
   -2.8974   -0.9375   -0.0868 C   0  0  0  0  0  0  0  0  0  0  0  0
   -2.9328    1.4450   -0.8770 C   0  0  0  0  0  0  0  0  0  0  0  0
   -2.2230   -2.1009   -0.1147 C   0  0  0  0  0  0  0  0  0  0  0  0
   -2.3023    0.8902    1.5112 C   0  0  0  0  0  0  0  0  0  0  0  0
   -4.4427    1.5217   -0.6176 C   0  0  0  0  0  0  0  0  0  0  0  0
   -4.3480   -0.9419   -0.2178 C   0  0  0  0  0  0  0  0  0  0  0  0
   -5.0651    0.1703   -0.4415 C   0  0  0  0  0  0  0  0  0  0  0  0
    5.9737    0.2816   -0.2034 C   0  0  0  0  0  0  0  0  0  0  0  0
    6.9785    1.2256    0.4143 C   0  0  0  0  0  0  0  0  0  0  0  0
   -7.0516    0.3366    0.7053 C   0  0  0  0  0  0  0  0  0  0  0  0
    8.4078    0.8423    0.0730 C   0  0  0  0  0  0  0  0  0  0  0  0
   -8.5553    0.3255    0.5306 C   0  0  0  0  0  0  0  0  0  0  0  0
    1.4574   -1.1037   -1.2807 H   0  0  0  0  0  0  0  0  0  0  0  0
   -0.0274   -0.7913    1.3498 H   0  0  0  0  0  0  0  0  0  0  0  0
   -0.7046    0.0781   -1.5027 H   0  0  0  0  0  0  0  0  0  0  0  0
    1.7080    1.2841   -1.7063 H   0  0  0  0  0  0  0  0  0  0  0  0
    2.1431    2.3966   -0.4191 H   0  0  0  0  0  0  0  0  0  0  0  0
    3.6722   -0.0865   -1.4523 H   0  0  0  0  0  0  0  0  0  0  0  0
    0.0424    2.0075    0.7361 H   0  0  0  0  0  0  0  0  0  0  0  0
   -0.2915    2.3805   -0.9416 H   0  0  0  0  0  0  0  0  0  0  0  0
    2.1761   -3.0501   -0.1588 H   0  0  0  0  0  0  0  0  0  0  0  0
    2.1837   -2.2659    1.4254 H   0  0  0  0  0  0  0  0  0  0  0  0
    4.3843   -1.6889    1.0261 H   0  0  0  0  0  0  0  0  0  0  0  0
    4.2661   -2.1982   -0.6599 H   0  0  0  0  0  0  0  0  0  0  0  0
   -0.4621   -2.9850    0.6739 H   0  0  0  0  0  0  0  0  0  0  0  0
   -0.4047   -2.6075   -1.0435 H   0  0  0  0  0  0  0  0  0  0  0  0
    1.3195    0.7909    2.0972 H   0  0  0  0  0  0  0  0  0  0  0  0
    2.8086   -0.1282    2.2485 H   0  0  0  0  0  0  0  0  0  0  0  0
    2.8674    1.5784    1.8167 H   0  0  0  0  0  0  0  0  0  0  0  0
   -2.7761    1.1701   -1.9297 H   0  0  0  0  0  0  0  0  0  0  0  0
   -2.5158    2.4516   -0.7560 H   0  0  0  0  0  0  0  0  0  0  0  0
   -2.7643   -3.0389   -0.2219 H   0  0  0  0  0  0  0  0  0  0  0  0
   -3.3337    0.8636    1.8812 H   0  0  0  0  0  0  0  0  0  0  0  0
   -1.7189    0.2584    2.1876 H   0  0  0  0  0  0  0  0  0  0  0  0
   -1.9553    1.9215    1.6322 H   0  0  0  0  0  0  0  0  0  0  0  0
   -4.9151    2.0420   -1.4596 H   0  0  0  0  0  0  0  0  0  0  0  0
   -4.6336    2.1287    0.2751 H   0  0  0  0  0  0  0  0  0  0  0  0
   -4.8624   -1.8969   -0.1442 H   0  0  0  0  0  0  0  0  0  0  0  0
    6.7750    2.2365    0.0458 H   0  0  0  0  0  0  0  0  0  0  0  0
    6.8477    1.2065    1.5014 H   0  0  0  0  0  0  0  0  0  0  0  0
   -6.7653   -0.4698    1.3919 H   0  0  0  0  0  0  0  0  0  0  0  0
   -6.7515    1.2959    1.1443 H   0  0  0  0  0  0  0  0  0  0  0  0
    8.5711    0.8576   -1.0097 H   0  0  0  0  0  0  0  0  0  0  0  0
    9.1110    1.5421    0.5351 H   0  0  0  0  0  0  0  0  0  0  0  0
    8.6411   -0.1654    0.4325 H   0  0  0  0  0  0  0  0  0  0  0  0
   -9.0617    0.4650    1.4898 H   0  0  0  0  0  0  0  0  0  0  0  0
   -8.8701    1.1206   -0.1535 H   0  0  0  0  0  0  0  0  0  0  0  0
   -8.8857   -0.6217    0.0915 H   0  0  0  0  0  0  0  0  0  0  0  0
  1 10  1  0  0  0  0
  1 23  1  0  0  0  0
  2 22  1  0  0  0  0
  2 25  1  0  0  0  0
  3 23  2  0  0  0  0
  4  5  1  0  0  0  0
  4  6  1  0  0  0  0
  4 12  1  0  0  0  0
  4 28  1  0  0  0  0
  5  8  1  0  0  0  0
  5 10  1  0  0  0  0
  5 15  1  0  0  0  0
  6  7  1  0  0  0  0
  6 14  1  0  0  0  0
  6 29  1  0  0  0  0
  7  9  1  0  0  0  0
  7 11  1  0  0  0  0
  7 30  1  0  0  0  0
  8 11  1  0  0  0  0
  8 31  1  0  0  0  0
  8 32  1  0  0  0  0
  9 16  1  0  0  0  0
  9 17  1  0  0  0  0
  9 19  1  0  0  0  0
 10 13  1  0  0  0  0
 10 33  1  0  0  0  0
 11 34  1  0  0  0  0
 11 35  1  0  0  0  0
 12 13  1  0  0  0  0
 12 36  1  0  0  0  0
 12 37  1  0  0  0  0
 13 38  1  0  0  0  0
 13 39  1  0  0  0  0
 14 18  1  0  0  0  0
 14 40  1  0  0  0  0
 14 41  1  0  0  0  0
 15 42  1  0  0  0  0
 15 43  1  0  0  0  0
 15 44  1  0  0  0  0
 16 18  2  0  0  0  0
 16 21  1  0  0  0  0
 17 20  1  0  0  0  0
 17 45  1  0  0  0  0
 17 46  1  0  0  0  0
 18 47  1  0  0  0  0
 19 48  1  0  0  0  0
 19 49  1  0  0  0  0
 19 50  1  0  0  0  0
 20 22  1  0  0  0  0
 20 51  1  0  0  0  0
 20 52  1  0  0  0  0
 21 22  2  0  0  0  0
 21 53  1  0  0  0  0
 23 24  1  0  0  0  0
 24 26  1  0  0  0  0
 24 54  1  0  0  0  0
 24 55  1  0  0  0  0
 25 27  1  0  0  0  0
 25 56  1  0  0  0  0
 25 57  1  0  0  0  0
 26 58  1  0  0  0  0
 26 59  1  0  0  0  0
 26 60  1  0  0  0  0
 27 61  1  0  0  0  0
 27 62  1  0  0  0  0
 27 63  1  0  0  0  0
M  END
> <PUBCHEM_COMPOUND_CID>
251872

> <PUBCHEM_CONFORMER_RMSD>
0.8

> <PUBCHEM_CONFORMER_DIVERSEORDER>
1
2
6
4
8
5
3
7

> <PUBCHEM_MMFF94_PARTIAL_CHARGES>
16
1 -0.43
10 0.28
14 0.14
16 -0.14
18 -0.29
2 -0.36
20 0.14
21 -0.15
22 -0.06
23 0.66
24 0.06
25 0.28
3 -0.57
47 0.15
53 0.15
9 0.14

> <PUBCHEM_EFFECTIVE_ROTOR_COUNT>
6.6

> <PUBCHEM_PHARMACOPHORE_FEATURES>
7
1 2 acceptor
1 26 hydrophobe
1 3 acceptor
5 4 5 10 12 13 rings
6 4 5 6 7 8 11 rings
6 6 7 9 14 16 18 rings
6 9 16 17 20 21 22 rings

> <PUBCHEM_HEAVY_ATOM_COUNT>
27

> <PUBCHEM_ATOM_DEF_STEREO_COUNT>
6

> <PUBCHEM_ATOM_UDEF_STEREO_COUNT>
0

> <PUBCHEM_BOND_DEF_STEREO_COUNT>
0

> <PUBCHEM_BOND_UDEF_STEREO_COUNT>
0

> <PUBCHEM_ISOTOPIC_ATOM_COUNT>
0

> <PUBCHEM_COMPONENT_COUNT>
1

> <PUBCHEM_CACTVS_TAUTO_COUNT>
1

> <PUBCHEM_CONFORMER_ID>
0003D7E000000001

> <PUBCHEM_MMFF94_ENERGY>
75.1772

> <PUBCHEM_FEATURE_SELFOVERLAP>
35.615

> <PUBCHEM_SHAPE_FINGERPRINT>
10 15 18131633361975065664
10165383 225 18408322185343060170
106641 1 17561080289763087417
11315181 36 18040995112017094184
11578080 2 17532951393252691491
12011746 2 18335422369793495486
12107698 1 16298385764225786264
12236239 1 18040435512470258575
12403259 415 18336277807479171457
12516196 113 18407761447704433004
12741549 16 14117524224662014678
12788726 201 17749953387422315433
12838862 33 18340504303862875469
13073987 5 18129665330376274893
13533116 47 17967817205608841983
14251764 18 18343303673800325403
14251764 46 18410856556151969793
14394314 77 18261947570299601193
14617045 38 18411699893727661503
14849402 71 18261108556758944369
15131766 46 14905897053164707646
15196674 1 18341053024594971831
15840311 113 17917706873669448980
15849732 13 18273495667282894925
16087824 20 18339642343584165437
18335252 98 18343860005547215275
18608769 82 18341611478345537707
18681886 176 18335147435993967424
200 152 18113904875079947607
21033648 29 18041857103569065626
21267235 1 18340764952738547959
21521721 280 18187085023398331560
22224240 67 18344146977385388170
23559900 14 18114753628714907944
3178227 256 18201430381507146393
335352 9 18410856529706965741
34797466 226 17821725040387418500
34934 24 18341900701316591074
350125 39 18410012135115885009
3545911 37 18410294713508794119
3633792 109 18335704966216028445
4073 2 18059852827756449466
4093350 32 17385439951550977614
4325135 7 18343301465733565372
5104073 3 18200315553429861737
5758199 1 18408602569440340819

> <PUBCHEM_SHAPE_MULTIPOLES>
538.04
19.62
1.9
0.96
2.47
0.74
-0.26
-5.88
-0.94
0.27
0.11
-0.18
-0.22
0.25

> <PUBCHEM_SHAPE_SELFOVERLAP>
1135.262

> <PUBCHEM_SHAPE_VOLUME>
300

> <PUBCHEM_COORDINATE_TYPE>
2
5
10

$$$$

