442478
  -OEChem-07051213113D

 25 26  0     1  0  0  0  0  0999 V2000
    1.0438   -1.7724   -0.0543 O   0  0  0  0  0  0  0  0  0  0  0  0
   -2.1991    0.0458    0.3385 C   0  0  2  0  0  0  0  0  0  0  0  0
   -1.6704    1.3478   -0.3244 C   0  0  0  0  0  0  0  0  0  0  0  0
   -1.3449   -1.1889   -0.0539 C   0  0  0  0  0  0  0  0  0  0  0  0
   -0.2121    1.6676    0.0752 C   0  0  0  0  0  0  0  0  0  0  0  0
    0.6294    0.4460    0.0200 C   0  0  0  0  0  0  0  0  0  0  0  0
    0.0855   -0.8172   -0.0179 C   0  0  0  0  0  0  0  0  0  0  0  0
   -3.6655   -0.1864   -0.0190 C   0  0  0  0  0  0  0  0  0  0  0  0
    2.0300    0.2599    0.0144 C   0  0  0  0  0  0  0  0  0  0  0  0
    2.2316   -1.1043   -0.0321 C   0  0  0  0  0  0  0  0  0  0  0  0
    3.0716    1.3020    0.0534 C   0  0  0  0  0  0  0  0  0  0  0  0
   -2.1329    0.1775    1.4277 H   0  0  0  0  0  0  0  0  0  0  0  0
   -2.3082    2.1977   -0.0536 H   0  0  0  0  0  0  0  0  0  0  0  0
   -1.7285    1.2421   -1.4161 H   0  0  0  0  0  0  0  0  0  0  0  0
   -1.5993   -1.5215   -1.0673 H   0  0  0  0  0  0  0  0  0  0  0  0
   -1.5485   -2.0192    0.6310 H   0  0  0  0  0  0  0  0  0  0  0  0
   -0.1961    2.0639    1.0977 H   0  0  0  0  0  0  0  0  0  0  0  0
    0.1871    2.4444   -0.5862 H   0  0  0  0  0  0  0  0  0  0  0  0
   -4.2824    0.6577    0.3063 H   0  0  0  0  0  0  0  0  0  0  0  0
   -3.7974   -0.3051   -1.0997 H   0  0  0  0  0  0  0  0  0  0  0  0
   -4.0457   -1.0887    0.4710 H   0  0  0  0  0  0  0  0  0  0  0  0
    3.1133   -1.7288   -0.0530 H   0  0  0  0  0  0  0  0  0  0  0  0
    2.9396    1.9465    0.9286 H   0  0  0  0  0  0  0  0  0  0  0  0
    4.0748    0.8663    0.1059 H   0  0  0  0  0  0  0  0  0  0  0  0
    3.0225    1.9274   -0.8438 H   0  0  0  0  0  0  0  0  0  0  0  0
  1  7  1  0  0  0  0
  1 10  1  0  0  0  0
  2  3  1  0  0  0  0
  2  4  1  0  0  0  0
  2  8  1  0  0  0  0
  2 12  1  0  0  0  0
  3  5  1  0  0  0  0
  3 13  1  0  0  0  0
  3 14  1  0  0  0  0
  4  7  1  0  0  0  0
  4 15  1  0  0  0  0
  4 16  1  0  0  0  0
  5  6  1  0  0  0  0
  5 17  1  0  0  0  0
  5 18  1  0  0  0  0
  6  7  2  0  0  0  0
  6  9  1  0  0  0  0
  8 19  1  0  0  0  0
  8 20  1  0  0  0  0
  8 21  1  0  0  0  0
  9 10  2  0  0  0  0
  9 11  1  0  0  0  0
 10 22  1  0  0  0  0
 11 23  1  0  0  0  0
 11 24  1  0  0  0  0
 11 25  1  0  0  0  0
M  END
> <PUBCHEM_COMPOUND_CID>
442478

> <PUBCHEM_CONFORMER_RMSD>
0.4

> <PUBCHEM_CONFORMER_DIVERSEORDER>
1
2

> <PUBCHEM_MMFF94_PARTIAL_CHARGES>
9
1 -0.28
10 -0.01
11 0.18
22 0.15
4 0.18
5 0.18
6 -0.18
7 -0.04
9 -0.18

> <PUBCHEM_EFFECTIVE_ROTOR_COUNT>
0.8

> <PUBCHEM_PHARMACOPHORE_FEATURES>
3
1 1 acceptor
5 1 6 7 9 10 rings
6 2 3 4 5 6 7 rings

> <PUBCHEM_HEAVY_ATOM_COUNT>
11

> <PUBCHEM_ATOM_DEF_STEREO_COUNT>
1

> <PUBCHEM_ATOM_UDEF_STEREO_COUNT>
0

> <PUBCHEM_BOND_DEF_STEREO_COUNT>
0

> <PUBCHEM_BOND_UDEF_STEREO_COUNT>
0

> <PUBCHEM_ISOTOPIC_ATOM_COUNT>
0

> <PUBCHEM_COMPONENT_COUNT>
1

> <PUBCHEM_CACTVS_TAUTO_COUNT>
1

> <PUBCHEM_CONFORMER_ID>
0006C06E00000001

> <PUBCHEM_MMFF94_ENERGY>
11.0765

> <PUBCHEM_FEATURE_SELFOVERLAP>
15.317

> <PUBCHEM_SHAPE_FINGERPRINT>
10219947 1 18410570669742634297
11132069 177 18336834074141389112
11471102 20 18410860971035523821
12423570 1 7599362537697235662
12524768 44 18409442617809457983
12897270 3 18411698815611521629
13380535 76 18411420570640368450
14325111 11 18410856585573370505
15775835 57 18261108534871851565
161256 15 18337666524697236710
16945 1 18412822460676364517
17844478 74 18130496505374457777
193761 8 17978228588454118256
19973954 147 18266177429526022412
20201158 50 18341895186383098987
20588541 1 18339921524203489627
20645477 70 18337114570314170247
21040471 1 18338516344285666306
21501502 16 18266456683957200841
23235685 24 18339930324454523889
23402655 69 18335713754045826365
23552423 10 18199183060732518178
2748010 2 18267586981984375237
449060 62 18408317783212714809
5084963 1 18188211029903935402
528886 8 18337676304147859122
53812653 166 18189338978673864608
7364860 26 18334295413852432990

> <PUBCHEM_SHAPE_MULTIPOLES>
220.51
4.59
1.74
0.63
1.3
0.03
0
0.43
-0.07
-0.46
0.05
0.05
0.03
0.09

> <PUBCHEM_SHAPE_SELFOVERLAP>
463.131

> <PUBCHEM_SHAPE_VOLUME>
127.4

> <PUBCHEM_COORDINATE_TYPE>
2
5
10

$$$$

