118372
  -OEChem-07051212563D

 11 11  0     0  0  0  0  0  0999 V2000
    2.9106   -0.6748    0.0004 Cl  0  0  0  0  0  0  0  0  0  0  0  0
   -1.8767   -1.9326    0.0009 O   0  0  0  0  0  0  0  0  0  0  0  0
   -0.7723    2.5234    0.0009 O   0  0  0  0  0  0  0  0  0  0  0  0
    0.3351   -1.2821   -0.0003 N   0  0  0  0  0  0  0  0  0  0  0  0
   -1.3447    0.3153   -0.0008 N   0  0  0  0  0  0  0  0  0  0  0  0
    0.9330    0.9991   -0.0003 N   0  0  0  0  0  0  0  0  0  0  0  0
   -1.0295   -1.0409   -0.0004 C   0  0  0  0  0  0  0  0  0  0  0  0
    1.2490   -0.2554    0.0000 C   0  0  0  0  0  0  0  0  0  0  0  0
   -0.4044    1.3481   -0.0004 C   0  0  0  0  0  0  0  0  0  0  0  0
    0.6669   -2.2417    0.0001 H   0  0  0  0  0  0  0  0  0  0  0  0
   -2.3275    0.5721   -0.0005 H   0  0  0  0  0  0  0  0  0  0  0  0
  1  8  1  0  0  0  0
  2  7  2  0  0  0  0
  3  9  2  0  0  0  0
  4  7  1  0  0  0  0
  4  8  1  0  0  0  0
  4 10  1  0  0  0  0
  5  7  1  0  0  0  0
  5  9  1  0  0  0  0
  5 11  1  0  0  0  0
  6  8  2  0  0  0  0
  6  9  1  0  0  0  0
M  END
> <PUBCHEM_COMPOUND_CID>
118372

> <PUBCHEM_CONFORMER_RMSD>
0.4

> <PUBCHEM_CONFORMER_DIVERSEORDER>
1

> <PUBCHEM_MMFF94_PARTIAL_CHARGES>
11
1 -0.21
10 0.37
11 0.37
2 -0.57
3 -0.57
4 -0.49
5 -0.49
6 -0.66
7 0.69
8 0.72
9 0.84

> <PUBCHEM_EFFECTIVE_ROTOR_COUNT>
0

> <PUBCHEM_PHARMACOPHORE_FEATURES>
6
1 2 acceptor
1 3 acceptor
1 4 donor
1 5 donor
1 6 donor
6 4 5 6 7 8 9 rings

> <PUBCHEM_HEAVY_ATOM_COUNT>
9

> <PUBCHEM_ATOM_DEF_STEREO_COUNT>
0

> <PUBCHEM_ATOM_UDEF_STEREO_COUNT>
0

> <PUBCHEM_BOND_DEF_STEREO_COUNT>
0

> <PUBCHEM_BOND_UDEF_STEREO_COUNT>
0

> <PUBCHEM_ISOTOPIC_ATOM_COUNT>
0

> <PUBCHEM_COMPONENT_COUNT>
1

> <PUBCHEM_CACTVS_TAUTO_COUNT>
5

> <PUBCHEM_CONFORMER_ID>
0001CE6400000001

> <PUBCHEM_MMFF94_ENERGY>
14.017

> <PUBCHEM_FEATURE_SELFOVERLAP>
30.567

> <PUBCHEM_SHAPE_FINGERPRINT>
18185500 45 18193835933854855102
21040471 1 17978510063678677284
23552423 10 18273211972230162846
23552449 1 18409732871936497000
241688 4 18410856516716497288
2748010 2 18337678485959577444
29004967 10 18052538759700158450

> <PUBCHEM_SHAPE_MULTIPOLES>
160.4
2.76
2.19
0.57
2.43
0.33
0
-0.5
0
-1.54
0
0.05
0
0

> <PUBCHEM_SHAPE_SELFOVERLAP>
322.219

> <PUBCHEM_SHAPE_VOLUME>
93.8

> <PUBCHEM_COORDINATE_TYPE>
2
5
10

$$$$

