582921
  -OEChem-06241222442D

 37 39  0     1  0  0  0  0  0999 V2000
    2.4499   -0.0418    0.0000 O   0  0  0  0  0  0  0  0  0  0  0  0
    7.5965    1.0534    0.0000 C   0  0  0  0  0  0  0  0  0  0  0  0
    5.7646    1.2946    0.0000 C   0  0  3  0  0  0  0  0  0  0  0  0
    6.0234    2.2605    0.0000 C   0  0  3  0  0  0  0  0  0  0  0  0
    5.2868    3.2431    0.0000 C   0  0  0  0  0  0  0  0  0  0  0  0
    4.2294    0.0514    0.0000 C   0  0  3  0  0  0  0  0  0  0  0  0
    3.4204    1.4527    0.0000 C   0  0  0  0  0  0  0  0  0  0  0  0
    3.3159    0.4582    0.0000 C   0  0  0  0  0  0  0  0  0  0  0  0
    8.0965    0.1874    0.0000 C   0  0  0  0  0  0  0  0  0  0  0  0
    8.4626    1.5534    0.0000 C   0  0  0  0  0  0  0  0  0  0  0  0
    4.4374   -0.9267    0.0000 C   0  0  0  0  0  0  0  0  0  0  0  0
    3.6942   -1.5958    0.0000 C   0  0  0  0  0  0  0  0  0  0  0  0
    3.9021   -2.5740    0.0000 C   0  0  0  0  0  0  0  0  0  0  0  0
    2.7431   -1.2868    0.0000 C   0  0  0  0  0  0  0  0  0  0  0  0
    3.1590   -3.2431    0.0000 C   0  0  0  0  0  0  0  0  0  0  0  0
    2.0000   -1.9560    0.0000 C   0  0  0  0  0  0  0  0  0  0  0  0
    2.2079   -2.9341    0.0000 C   0  0  0  0  0  0  0  0  0  0  0  0
    5.9953    0.4765    0.0000 H   0  0  0  0  0  0  0  0  0  0  0  0
    6.6278    2.8582    0.0000 H   0  0  0  0  0  0  0  0  0  0  0  0
    5.6046    3.7755    0.0000 H   0  0  0  0  0  0  0  0  0  0  0  0
    4.6736    3.3351    0.0000 H   0  0  0  0  0  0  0  0  0  0  0  0
    3.5689   -0.4835    0.0000 H   0  0  0  0  0  0  0  0  0  0  0  0
    3.3182    2.0642    0.0000 H   0  0  0  0  0  0  0  0  0  0  0  0
    2.8007    1.4338    0.0000 H   0  0  0  0  0  0  0  0  0  0  0  0
    7.5596   -0.1226    0.0000 H   0  0  0  0  0  0  0  0  0  0  0  0
    8.4065   -0.3496    0.0000 H   0  0  0  0  0  0  0  0  0  0  0  0
    8.6335    0.4974    0.0000 H   0  0  0  0  0  0  0  0  0  0  0  0
    8.7726    1.0165    0.0000 H   0  0  0  0  0  0  0  0  0  0  0  0
    8.9995    1.8634    0.0000 H   0  0  0  0  0  0  0  0  0  0  0  0
    8.1526    2.0903    0.0000 H   0  0  0  0  0  0  0  0  0  0  0  0
    4.7659   -1.4525    0.0000 H   0  0  0  0  0  0  0  0  0  0  0  0
    5.0122   -0.6945    0.0000 H   0  0  0  0  0  0  0  0  0  0  0  0
    4.4918   -2.7656    0.0000 H   0  0  0  0  0  0  0  0  0  0  0  0
    2.6142   -0.6804    0.0000 H   0  0  0  0  0  0  0  0  0  0  0  0
    3.2879   -3.8496    0.0000 H   0  0  0  0  0  0  0  0  0  0  0  0
    1.4103   -1.7644    0.0000 H   0  0  0  0  0  0  0  0  0  0  0  0
    1.7472   -3.3490    0.0000 H   0  0  0  0  0  0  0  0  0  0  0  0
  1  8  2  0  0  0  0
  2  3  1  0  0  0  0
  2  4  1  0  0  0  0
  2  9  1  0  0  0  0
  2 10  1  0  0  0  0
  3  5  1  0  0  0  0
  3  6  1  0  0  0  0
  3 18  1  0  0  0  0
  4  5  1  0  0  0  0
  4  7  1  0  0  0  0
  4 19  1  0  0  0  0
  5 20  1  0  0  0  0
  5 21  1  0  0  0  0
  6  8  1  0  0  0  0
  6 11  1  0  0  0  0
  6 22  1  0  0  0  0
  7  8  1  0  0  0  0
  7 23  1  0  0  0  0
  7 24  1  0  0  0  0
  9 25  1  0  0  0  0
  9 26  1  0  0  0  0
  9 27  1  0  0  0  0
 10 28  1  0  0  0  0
 10 29  1  0  0  0  0
 10 30  1  0  0  0  0
 11 12  1  0  0  0  0
 11 31  1  0  0  0  0
 11 32  1  0  0  0  0
 12 13  2  0  0  0  0
 12 14  1  0  0  0  0
 13 15  1  0  0  0  0
 13 33  1  0  0  0  0
 14 16  2  0  0  0  0
 14 34  1  0  0  0  0
 15 17  2  0  0  0  0
 15 35  1  0  0  0  0
 16 17  1  0  0  0  0
 16 36  1  0  0  0  0
 17 37  1  0  0  0  0
M  END
> <PUBCHEM_COMPOUND_CID>
582921

> <PUBCHEM_COMPOUND_CANONICALIZED>
1

> <PUBCHEM_CACTVS_COMPLEXITY>
312

> <PUBCHEM_CACTVS_HBOND_ACCEPTOR>
1

> <PUBCHEM_CACTVS_HBOND_DONOR>
0

> <PUBCHEM_CACTVS_ROTATABLE_BOND>
2

> <PUBCHEM_CACTVS_SUBSKEYS>
AAADceB4IAAAAAAAAAAAAAAAAABgAAAAAAAwYMAAAAAAAAABAAAAGgAAAAAADwSAmAAyAIAAAACIAqBSAAACAAAgAAAIiAEAAIgIIDKAERCAIAAggAAIiAcIiMCPgAAAAAAAAACAAAQAACAAAAAAAAAAAA==

> <PUBCHEM_IUPAC_OPENEYE_NAME>
2-benzyl-6,6-dimethyl-norpinan-3-one

> <PUBCHEM_IUPAC_CAS_NAME>
6,6-dimethyl-4-(phenylmethyl)-3-bicyclo[3.1.1]heptanone

> <PUBCHEM_IUPAC_NAME>
4-benzyl-6,6-dimethylbicyclo[3.1.1]heptan-3-one

> <PUBCHEM_IUPAC_SYSTEMATIC_NAME>
6,6-dimethyl-4-(phenylmethyl)bicyclo[3.1.1]heptan-3-one

> <PUBCHEM_IUPAC_TRADITIONAL_NAME>
2-benzyl-6,6-dimethyl-norpinan-3-one

> <PUBCHEM_IUPAC_INCHI>
InChI=1S/C16H20O/c1-16(2)12-9-14(16)13(15(17)10-12)8-11-6-4-3-5-7-11/h3-7,12-14H,8-10H2,1-2H3

> <PUBCHEM_IUPAC_INCHIKEY>
OTXXXZUUYHIYKM-UHFFFAOYSA-N

> <PUBCHEM_XLOGP3_AA>
3.7

> <PUBCHEM_EXACT_MASS>
228.151415

> <PUBCHEM_MOLECULAR_FORMULA>
C16H20O

> <PUBCHEM_MOLECULAR_WEIGHT>
228.3294

> <PUBCHEM_OPENEYE_CAN_SMILES>
CC1(C2CC1C(C(=O)C2)CC3=CC=CC=C3)C

> <PUBCHEM_OPENEYE_ISO_SMILES>
CC1(C2CC1C(C(=O)C2)CC3=CC=CC=C3)C

> <PUBCHEM_CACTVS_TPSA>
17.1

> <PUBCHEM_MONOISOTOPIC_WEIGHT>
228.151415

> <PUBCHEM_TOTAL_CHARGE>
0

> <PUBCHEM_HEAVY_ATOM_COUNT>
17

> <PUBCHEM_ATOM_DEF_STEREO_COUNT>
0

> <PUBCHEM_ATOM_UDEF_STEREO_COUNT>
3

> <PUBCHEM_BOND_DEF_STEREO_COUNT>
0

> <PUBCHEM_BOND_UDEF_STEREO_COUNT>
0

> <PUBCHEM_ISOTOPIC_ATOM_COUNT>
0

> <PUBCHEM_COMPONENT_COUNT>
1

> <PUBCHEM_CACTVS_TAUTO_COUNT>
3

> <PUBCHEM_COORDINATE_TYPE>
1
5
255

> <PUBCHEM_BONDANNOTATIONS>
12  13  8
12  14  8
13  15  8
14  16  8
15  17  8
16  17  8
3  18  3
4  19  3
6  22  3

$$$$

