13942922
  -OEChem-07051213102D

 47 49  0     1  0  0  0  0  0999 V2000
    6.6009   -2.2284    0.0000 O   0  0  0  0  0  0  0  0  0  0  0  0
    2.5369   -1.6036    0.0000 O   0  0  0  0  0  0  0  0  0  0  0  0
    6.3598    1.6036    0.0000 O   0  0  0  0  0  0  0  0  0  0  0  0
    3.4030   -0.1036    0.0000 O   0  0  0  0  0  0  0  0  0  0  0  0
    4.2690   -5.6036    0.0000 O   0  0  0  0  0  0  0  0  0  0  0  0
    8.0918    5.6036    0.0000 O   0  0  0  0  0  0  0  0  0  0  0  0
    5.1350   -1.1036    0.0000 N   0  0  0  0  0  0  0  0  0  0  0  0
    7.2258    0.1036    0.0000 N   0  0  0  0  0  0  0  0  0  0  0  0
    8.9578    1.1036    0.0000 N   0  0  0  0  0  0  0  0  0  0  0  0
    6.3598   -0.3964    0.0000 C   0  0  1  0  0  0  0  0  0  0  0  0
    5.3938   -0.1376    0.0000 C   0  0  0  0  0  0  0  0  0  0  0  0
    6.1009   -1.3624    0.0000 C   0  0  0  0  0  0  0  0  0  0  0  0
    4.2690   -1.6036    0.0000 C   0  0  2  0  0  0  0  0  0  0  0  0
    4.2690   -2.6035    0.0000 C   0  0  0  0  0  0  0  0  0  0  0  0
    7.2258    1.1036    0.0000 C   0  0  0  0  0  0  0  0  0  0  0  0
    3.4030   -1.1036    0.0000 C   0  0  0  0  0  0  0  0  0  0  0  0
    8.0918    1.6036    0.0000 C   0  0  1  0  0  0  0  0  0  0  0  0
    3.4030   -3.1035    0.0000 C   0  0  0  0  0  0  0  0  0  0  0  0
    5.1350   -3.1035    0.0000 C   0  0  0  0  0  0  0  0  0  0  0  0
    8.0918    2.6035    0.0000 C   0  0  0  0  0  0  0  0  0  0  0  0
    3.4030   -4.1036    0.0000 C   0  0  0  0  0  0  0  0  0  0  0  0
    5.1350   -4.1036    0.0000 C   0  0  0  0  0  0  0  0  0  0  0  0
    4.2690   -4.6036    0.0000 C   0  0  0  0  0  0  0  0  0  0  0  0
    8.9578    3.1035    0.0000 C   0  0  0  0  0  0  0  0  0  0  0  0
    7.2258    3.1035    0.0000 C   0  0  0  0  0  0  0  0  0  0  0  0
    8.9578    4.1036    0.0000 C   0  0  0  0  0  0  0  0  0  0  0  0
    7.2258    4.1036    0.0000 C   0  0  0  0  0  0  0  0  0  0  0  0
    8.0918    4.6036    0.0000 C   0  0  0  0  0  0  0  0  0  0  0  0
    6.2788    0.2182    0.0000 H   0  0  0  0  0  0  0  0  0  0  0  0
    5.5543    0.4612    0.0000 H   0  0  0  0  0  0  0  0  0  0  0  0
    4.7950    0.0228    0.0000 H   0  0  0  0  0  0  0  0  0  0  0  0
    4.2690   -0.9836    0.0000 H   0  0  0  0  0  0  0  0  0  0  0  0
    7.7627   -0.2064    0.0000 H   0  0  0  0  0  0  0  0  0  0  0  0
    8.0918    0.9836    0.0000 H   0  0  0  0  0  0  0  0  0  0  0  0
    2.8660   -2.7936    0.0000 H   0  0  0  0  0  0  0  0  0  0  0  0
    5.6720   -2.7936    0.0000 H   0  0  0  0  0  0  0  0  0  0  0  0
    2.8660   -4.4136    0.0000 H   0  0  0  0  0  0  0  0  0  0  0  0
    5.6720   -4.4136    0.0000 H   0  0  0  0  0  0  0  0  0  0  0  0
    9.4948    1.4136    0.0000 H   0  0  0  0  0  0  0  0  0  0  0  0
    8.9578    0.4836    0.0000 H   0  0  0  0  0  0  0  0  0  0  0  0
    2.0000   -1.2936    0.0000 H   0  0  0  0  0  0  0  0  0  0  0  0
    9.4948    2.7936    0.0000 H   0  0  0  0  0  0  0  0  0  0  0  0
    6.6888    2.7936    0.0000 H   0  0  0  0  0  0  0  0  0  0  0  0
    9.4948    4.4136    0.0000 H   0  0  0  0  0  0  0  0  0  0  0  0
    6.6888    4.4136    0.0000 H   0  0  0  0  0  0  0  0  0  0  0  0
    3.7320   -5.9136    0.0000 H   0  0  0  0  0  0  0  0  0  0  0  0
    8.6287    5.9136    0.0000 H   0  0  0  0  0  0  0  0  0  0  0  0
  1 12  2  0  0  0  0
  2 16  1  0  0  0  0
  2 41  1  0  0  0  0
  3 15  2  0  0  0  0
  4 16  2  0  0  0  0
  5 23  1  0  0  0  0
  5 46  1  0  0  0  0
  6 28  1  0  0  0  0
  6 47  1  0  0  0  0
  7 11  1  0  0  0  0
  7 12  1  0  0  0  0
  7 13  1  0  0  0  0
 10  8  1  6  0  0  0
  8 15  1  0  0  0  0
  8 33  1  0  0  0  0
 17  9  1  1  0  0  0
  9 39  1  0  0  0  0
  9 40  1  0  0  0  0
 10 11  1  0  0  0  0
 10 12  1  0  0  0  0
 10 29  1  0  0  0  0
 11 30  1  0  0  0  0
 11 31  1  0  0  0  0
 13 14  1  0  0  0  0
 13 16  1  6  0  0  0
 13 32  1  0  0  0  0
 14 18  2  0  0  0  0
 14 19  1  0  0  0  0
 15 17  1  0  0  0  0
 17 20  1  0  0  0  0
 17 34  1  0  0  0  0
 18 21  1  0  0  0  0
 18 35  1  0  0  0  0
 19 22  2  0  0  0  0
 19 36  1  0  0  0  0
 20 24  2  0  0  0  0
 20 25  1  0  0  0  0
 21 23  2  0  0  0  0
 21 37  1  0  0  0  0
 22 23  1  0  0  0  0
 22 38  1  0  0  0  0
 24 26  1  0  0  0  0
 24 42  1  0  0  0  0
 25 27  2  0  0  0  0
 25 43  1  0  0  0  0
 26 28  2  0  0  0  0
 26 44  1  0  0  0  0
 27 28  1  0  0  0  0
 27 45  1  0  0  0  0
M  END
> <PUBCHEM_COMPOUND_CID>
13942922

> <PUBCHEM_COMPOUND_CANONICALIZED>
1

> <PUBCHEM_CACTVS_COMPLEXITY>
599

> <PUBCHEM_CACTVS_HBOND_ACCEPTOR>
7

> <PUBCHEM_CACTVS_HBOND_DONOR>
5

> <PUBCHEM_CACTVS_ROTATABLE_BOND>
6

> <PUBCHEM_CACTVS_SUBSKEYS>
AAADceB7OAAAAAAAAAAAAAAAAABYAAAAAAAwYAAAAAAAAAABQAAAHgAQCAAADCzBmAQwDoPAAgCIAiHSGACCAAAgIAAIiIGODIgKZjqClTOUcAhk1hGYmAeY2KOOIAAAAAAAAABAAAAAAAAAAAAAAAAAAA==

> <PUBCHEM_IUPAC_OPENEYE_NAME>
(2R)-2-[(3S)-3-[[(2R)-2-amino-2-(4-hydroxyphenyl)acetyl]amino]-2-oxo-azetidin-1-yl]-2-(4-hydroxyphenyl)acetic acid

> <PUBCHEM_IUPAC_CAS_NAME>
(2R)-2-[(3S)-3-[[(2R)-2-amino-2-(4-hydroxyphenyl)-1-oxoethyl]amino]-2-oxo-1-azetidinyl]-2-(4-hydroxyphenyl)acetic acid

> <PUBCHEM_IUPAC_NAME>
(2R)-2-[(3S)-3-[[(2R)-2-amino-2-(4-hydroxyphenyl)acetyl]amino]-2-oxoazetidin-1-yl]-2-(4-hydroxyphenyl)acetic acid

> <PUBCHEM_IUPAC_SYSTEMATIC_NAME>
(2R)-2-[(3S)-3-[[(2R)-2-azanyl-2-(4-hydroxyphenyl)ethanoyl]amino]-2-oxidanylidene-azetidin-1-yl]-2-(4-hydroxyphenyl)ethanoic acid

> <PUBCHEM_IUPAC_TRADITIONAL_NAME>
(2R)-2-[(3S)-3-[[(2R)-2-amino-2-(4-hydroxyphenyl)acetyl]amino]-2-keto-azetidin-1-yl]-2-(4-hydroxyphenyl)acetic acid

> <PUBCHEM_IUPAC_INCHI>
InChI=1S/C19H19N3O6/c20-15(10-1-5-12(23)6-2-10)17(25)21-14-9-22(18(14)26)16(19(27)28)11-3-7-13(24)8-4-11/h1-8,14-16,23-24H,9,20H2,(H,21,25)(H,27,28)/t14-,15+,16+/m0/s1

> <PUBCHEM_IUPAC_INCHIKEY>
SAVAPYNOQXYBJS-ARFHVFGLSA-N

> <PUBCHEM_XLOGP3_AA>
-2

> <PUBCHEM_EXACT_MASS>
385.127385

> <PUBCHEM_MOLECULAR_FORMULA>
C19H19N3O6

> <PUBCHEM_MOLECULAR_WEIGHT>
385.37066

> <PUBCHEM_OPENEYE_CAN_SMILES>
C1C(C(=O)N1C(C2=CC=C(C=C2)O)C(=O)O)NC(=O)C(C3=CC=C(C=C3)O)N

> <PUBCHEM_OPENEYE_ISO_SMILES>
C1[C@@H](C(=O)N1[C@H](C2=CC=C(C=C2)O)C(=O)O)NC(=O)[C@@H](C3=CC=C(C=C3)O)N

> <PUBCHEM_CACTVS_TPSA>
153

> <PUBCHEM_MONOISOTOPIC_WEIGHT>
385.127385

> <PUBCHEM_TOTAL_CHARGE>
0

> <PUBCHEM_HEAVY_ATOM_COUNT>
28

> <PUBCHEM_ATOM_DEF_STEREO_COUNT>
3

> <PUBCHEM_ATOM_UDEF_STEREO_COUNT>
0

> <PUBCHEM_BOND_DEF_STEREO_COUNT>
0

> <PUBCHEM_BOND_UDEF_STEREO_COUNT>
0

> <PUBCHEM_ISOTOPIC_ATOM_COUNT>
0

> <PUBCHEM_COMPONENT_COUNT>
1

> <PUBCHEM_CACTVS_TAUTO_COUNT>
16

> <PUBCHEM_COORDINATE_TYPE>
1
5
255

> <PUBCHEM_BONDANNOTATIONS>
13  16  6
14  18  8
14  19  8
18  21  8
19  22  8
20  24  8
20  25  8
21  23  8
22  23  8
24  26  8
25  27  8
26  28  8
27  28  8
10  8  6
17  9  5

$$$$

