11954201
  -OEChem-07051213073D

 52 54  0     1  0  0  0  0  0999 V2000
   -2.9649    0.0590    0.8780 O   0  0  0  0  0  0  0  0  0  0  0  0
   -5.5094   -1.2916   -1.8920 O   0  0  0  0  0  0  0  0  0  0  0  0
   -4.4726   -0.0145    2.5658 O   0  0  0  0  0  0  0  0  0  0  0  0
    2.3130   -0.1324    0.2305 C   0  0  2  0  0  0  0  0  0  0  0  0
    1.0885    0.5068   -0.4733 C   0  0  2  0  0  0  0  0  0  0  0  0
    3.6134    0.4442   -0.3832 C   0  0  2  0  0  0  0  0  0  0  0  0
    2.3577   -1.6672    0.1723 C   0  0  0  0  0  0  0  0  0  0  0  0
    4.8342   -0.0644    0.3989 C   0  0  0  0  0  0  0  0  0  0  0  0
    1.0804    2.0505   -0.2443 C   0  0  2  0  0  0  0  0  0  0  0  0
    4.9110   -1.6005    0.4349 C   0  0  1  0  0  0  0  0  0  0  0  0
    3.5852   -2.2125    0.9083 C   0  0  0  0  0  0  0  0  0  0  0  0
   -0.2441   -0.1408   -0.0884 C   0  0  0  0  0  0  0  0  0  0  0  0
    3.5852    1.9465   -0.4677 C   0  0  0  0  0  0  0  0  0  0  0  0
    2.4526    2.6600   -0.4062 C   0  0  0  0  0  0  0  0  0  0  0  0
   -1.3962    0.4586   -0.8850 C   0  0  0  0  0  0  0  0  0  0  0  0
    0.5150    2.4802    1.1151 C   0  0  0  0  0  0  0  0  0  0  0  0
    5.3423   -2.1804   -0.9155 C   0  0  0  0  0  0  0  0  0  0  0  0
   -2.7179   -0.2027   -0.5205 C   0  0  2  0  0  0  0  0  0  0  0  0
   -3.8707    0.3659   -1.3419 C   0  0  0  0  0  0  0  0  0  0  0  0
   -5.1893   -0.2868   -0.9295 C   0  0  2  0  0  0  0  0  0  0  0  0
   -5.1284   -0.9369    0.4489 C   0  0  0  0  0  0  0  0  0  0  0  0
   -4.1853   -0.2411    1.3949 C   0  0  0  0  0  0  0  0  0  0  0  0
    2.2719    0.1436    1.2944 H   0  0  0  0  0  0  0  0  0  0  0  0
    1.2224    0.3407   -1.5536 H   0  0  0  0  0  0  0  0  0  0  0  0
    3.7036    0.0911   -1.4197 H   0  0  0  0  0  0  0  0  0  0  0  0
    2.3562   -2.0088   -0.8693 H   0  0  0  0  0  0  0  0  0  0  0  0
    1.4736   -2.0983    0.6537 H   0  0  0  0  0  0  0  0  0  0  0  0
    5.7587    0.3401   -0.0330 H   0  0  0  0  0  0  0  0  0  0  0  0
    4.7875    0.3108    1.4304 H   0  0  0  0  0  0  0  0  0  0  0  0
    0.4569    2.5054   -1.0248 H   0  0  0  0  0  0  0  0  0  0  0  0
    5.6877   -1.8788    1.1593 H   0  0  0  0  0  0  0  0  0  0  0  0
    3.4682   -2.0006    1.9793 H   0  0  0  0  0  0  0  0  0  0  0  0
    3.6146   -3.3045    0.8127 H   0  0  0  0  0  0  0  0  0  0  0  0
   -0.2152   -1.2112   -0.3215 H   0  0  0  0  0  0  0  0  0  0  0  0
   -0.4140   -0.0649    0.9912 H   0  0  0  0  0  0  0  0  0  0  0  0
    4.5251    2.4695   -0.6223 H   0  0  0  0  0  0  0  0  0  0  0  0
    2.5128    3.7425   -0.4871 H   0  0  0  0  0  0  0  0  0  0  0  0
   -1.4878    1.5319   -0.6934 H   0  0  0  0  0  0  0  0  0  0  0  0
   -1.2061    0.3339   -1.9580 H   0  0  0  0  0  0  0  0  0  0  0  0
    1.0666    2.0262    1.9452 H   0  0  0  0  0  0  0  0  0  0  0  0
    0.5812    3.5682    1.2365 H   0  0  0  0  0  0  0  0  0  0  0  0
   -0.5403    2.2204    1.2309 H   0  0  0  0  0  0  0  0  0  0  0  0
    4.6122   -1.9868   -1.7064 H   0  0  0  0  0  0  0  0  0  0  0  0
    6.3007   -1.7538   -1.2302 H   0  0  0  0  0  0  0  0  0  0  0  0
    5.4718   -3.2656   -0.8422 H   0  0  0  0  0  0  0  0  0  0  0  0
   -2.6347   -1.2879   -0.6626 H   0  0  0  0  0  0  0  0  0  0  0  0
   -3.6831    0.2434   -2.4147 H   0  0  0  0  0  0  0  0  0  0  0  0
   -3.9479    1.4415   -1.1357 H   0  0  0  0  0  0  0  0  0  0  0  0
   -5.9874    0.4633   -0.9687 H   0  0  0  0  0  0  0  0  0  0  0  0
   -4.8262   -1.9895    0.3861 H   0  0  0  0  0  0  0  0  0  0  0  0
   -6.1332   -0.9340    0.8878 H   0  0  0  0  0  0  0  0  0  0  0  0
   -6.3595   -1.6853   -1.6307 H   0  0  0  0  0  0  0  0  0  0  0  0
  1 18  1  0  0  0  0
  1 22  1  0  0  0  0
  2 20  1  0  0  0  0
  2 52  1  0  0  0  0
  3 22  2  0  0  0  0
  4  5  1  0  0  0  0
  4  6  1  0  0  0  0
  4  7  1  0  0  0  0
  4 23  1  0  0  0  0
  5  9  1  0  0  0  0
  5 12  1  0  0  0  0
  5 24  1  0  0  0  0
  6  8  1  0  0  0  0
  6 13  1  0  0  0  0
  6 25  1  0  0  0  0
  7 11  1  0  0  0  0
  7 26  1  0  0  0  0
  7 27  1  0  0  0  0
  8 10  1  0  0  0  0
  8 28  1  0  0  0  0
  8 29  1  0  0  0  0
  9 14  1  0  0  0  0
  9 16  1  0  0  0  0
  9 30  1  0  0  0  0
 10 11  1  0  0  0  0
 10 17  1  0  0  0  0
 10 31  1  0  0  0  0
 11 32  1  0  0  0  0
 11 33  1  0  0  0  0
 12 15  1  0  0  0  0
 12 34  1  0  0  0  0
 12 35  1  0  0  0  0
 13 14  2  0  0  0  0
 13 36  1  0  0  0  0
 14 37  1  0  0  0  0
 15 18  1  0  0  0  0
 15 38  1  0  0  0  0
 15 39  1  0  0  0  0
 16 40  1  0  0  0  0
 16 41  1  0  0  0  0
 16 42  1  0  0  0  0
 17 43  1  0  0  0  0
 17 44  1  0  0  0  0
 17 45  1  0  0  0  0
 18 19  1  0  0  0  0
 18 46  1  0  0  0  0
 19 20  1  0  0  0  0
 19 47  1  0  0  0  0
 19 48  1  0  0  0  0
 20 21  1  0  0  0  0
 20 49  1  0  0  0  0
 21 22  1  0  0  0  0
 21 50  1  0  0  0  0
 21 51  1  0  0  0  0
M  END
> <PUBCHEM_COMPOUND_CID>
11954201

> <PUBCHEM_CONFORMER_RMSD>
0.8

> <PUBCHEM_CONFORMER_DIVERSEORDER>
2
8
7
6
4
1
5
3

> <PUBCHEM_MMFF94_PARTIAL_CHARGES>
14
1 -0.43
13 -0.29
14 -0.29
18 0.28
2 -0.68
20 0.28
21 0.06
22 0.66
3 -0.57
36 0.15
37 0.15
52 0.4
6 0.14
9 0.14

> <PUBCHEM_EFFECTIVE_ROTOR_COUNT>
5.2

> <PUBCHEM_PHARMACOPHORE_FEATURES>
6
1 2 acceptor
1 2 donor
1 3 acceptor
6 1 18 19 20 21 22 rings
6 4 5 6 9 13 14 rings
6 4 6 7 8 10 11 rings

> <PUBCHEM_HEAVY_ATOM_COUNT>
22

> <PUBCHEM_ATOM_DEF_STEREO_COUNT>
7

> <PUBCHEM_ATOM_UDEF_STEREO_COUNT>
0

> <PUBCHEM_BOND_DEF_STEREO_COUNT>
0

> <PUBCHEM_BOND_UDEF_STEREO_COUNT>
0

> <PUBCHEM_ISOTOPIC_ATOM_COUNT>
0

> <PUBCHEM_COMPONENT_COUNT>
1

> <PUBCHEM_CACTVS_TAUTO_COUNT>
1

> <PUBCHEM_CONFORMER_ID>
00B6681900000002

> <PUBCHEM_MMFF94_ENERGY>
44.882

> <PUBCHEM_FEATURE_SELFOVERLAP>
30.463

> <PUBCHEM_SHAPE_FINGERPRINT>
10366900 7 17632587075683333439
10673678 19 17201902749441192572
10912923 1 17894625916514284721
11370993 144 18202273711379035777
11545043 162 17203605974102833937
11552529 35 17974277734592521539
11595378 159 16733261334884114667
11796584 16 16917073273636883466
12236239 1 17894352168067571711
12422481 6 17314500633520573932
12553582 1 18339083795565702662
12596602 18 17458070352001946587
12616971 3 18187637008073288841
12633257 1 18334288769279673935
13533116 47 18335704880347856827
13544653 18 18342176712809772444
13862211 1 18339931514862403166
13911852 28 18265900353065860670
13914758 101 18334860558998359821
13955234 65 18339926987745431312
14251732 14 15553865742038041699
14251757 17 17704069607495777481
14386348 63 17489870423427178163
14573314 32 17561086912354718743
14739800 52 16371866032227113920
15188451 53 16878238493422551847
15788980 27 18408042922527747221
17349148 13 17530966856611475063
17844677 252 18342737433696506757
17857418 61 18261399923034112231
17870717 6 16774077388978500951
1813 80 18261103132319971404
18222031 100 18335427906396918470
18785283 64 17987233331631612172
19078846 21 17603861204520375449
193927 3 18341888645311424478
200 152 18409173212038911261
20028762 73 18187372034013868158
20645477 70 18343029873676913478
21033648 29 17988658354488169061
21065201 7 16271933701032235345
21267235 1 18410571829874687590
21623969 137 18201999902665467986
21682296 61 18337389464979133142
22061861 79 18131635573614158855
221357 26 18272943738526999333
221490 88 18202001062243737020
2215653 11 17846226565943007439
22393880 68 17418100897225462179
23557571 272 14490465357837144953
23559900 14 17203331100369551045
23596394 208 17775013387801950527
239999 70 17417813911853053080
312423 11 18410282636071801108
314194 84 18412546534987713674
341906 21 15864062191712456601
345986 75 18261964062582581864
34797466 226 16630239204486046293
46194498 28 16915924185054176029
465052 167 18335419088934763174
5104073 3 18412830213251090161
5281201 14 17846779593941856396
573450 72 17313099748712295785
5895379 119 15502914368827961393
7495541 125 17703789219662808582
7970288 3 18265057006209768222
8863177 126 17916853639023180891
90127 26 17988928864181140973

> <PUBCHEM_SHAPE_MULTIPOLES>
435.14
13.43
2.46
1.45
9.43
0.88
-0.41
-7.4
0.9
-3.84
-0.07
2.34
-0.18
-0.34

> <PUBCHEM_SHAPE_SELFOVERLAP>
895.349

> <PUBCHEM_SHAPE_VOLUME>
246.5

> <PUBCHEM_COORDINATE_TYPE>
2
5
10

$$$$

