9543348
  -OEChem-07051213113D

 31 34  0     1  0  0  0  0  0999 V2000
   -4.7485   -0.4689   -0.6362 O   0  0  0  0  0  0  0  0  0  0  0  0
   -2.9693    0.4086   -1.7589 O   0  0  0  0  0  0  0  0  0  0  0  0
    0.0140   -0.0186    0.3561 C   0  0  0  0  0  0  0  0  0  0  0  0
   -0.7047   -1.2120    0.5186 C   0  0  0  0  0  0  0  0  0  0  0  0
   -2.1498   -1.1850    0.9482 C   0  0  0  0  0  0  0  0  0  0  0  0
   -2.8635    0.1379    0.6597 C   0  0  1  0  0  0  0  0  0  0  0  0
    1.3974   -0.0380    0.0588 C   0  0  0  0  0  0  0  0  0  0  0  0
   -0.6447    1.3026    0.4898 C   0  0  0  0  0  0  0  0  0  0  0  0
   -1.9817    1.3503    0.6250 C   0  0  0  0  0  0  0  0  0  0  0  0
    2.0506   -1.2799   -0.1094 C   0  0  0  0  0  0  0  0  0  0  0  0
    2.1386    1.1627   -0.0640 C   0  0  0  0  0  0  0  0  0  0  0  0
   -0.0416   -2.4328    0.3624 C   0  0  0  0  0  0  0  0  0  0  0  0
    0.1543    2.5164    0.4065 C   0  0  0  0  0  0  0  0  0  0  0  0
    1.3167   -2.4666    0.0399 C   0  0  0  0  0  0  0  0  0  0  0  0
    1.4691    2.4601    0.1422 C   0  0  0  0  0  0  0  0  0  0  0  0
   -3.5005    0.0539   -0.7171 C   0  0  0  0  0  0  0  0  0  0  0  0
    3.4208   -1.2987   -0.4141 C   0  0  0  0  0  0  0  0  0  0  0  0
    3.5037    1.1176   -0.3653 C   0  0  0  0  0  0  0  0  0  0  0  0
    4.1392   -0.1095   -0.5424 C   0  0  0  0  0  0  0  0  0  0  0  0
   -2.6875   -2.0230    0.4867 H   0  0  0  0  0  0  0  0  0  0  0  0
   -2.1615   -1.3565    2.0330 H   0  0  0  0  0  0  0  0  0  0  0  0
   -3.6577    0.3009    1.3987 H   0  0  0  0  0  0  0  0  0  0  0  0
   -2.4841    2.3136    0.6958 H   0  0  0  0  0  0  0  0  0  0  0  0
   -0.5771   -3.3693    0.4979 H   0  0  0  0  0  0  0  0  0  0  0  0
   -0.3295    3.4783    0.5444 H   0  0  0  0  0  0  0  0  0  0  0  0
    1.8013   -3.4337   -0.0785 H   0  0  0  0  0  0  0  0  0  0  0  0
    2.0587    3.3679    0.0719 H   0  0  0  0  0  0  0  0  0  0  0  0
    3.9435   -2.2431   -0.5506 H   0  0  0  0  0  0  0  0  0  0  0  0
    4.0839    2.0319   -0.4625 H   0  0  0  0  0  0  0  0  0  0  0  0
    5.1995   -0.1412   -0.7765 H   0  0  0  0  0  0  0  0  0  0  0  0
   -5.1774   -0.5309   -1.5161 H   0  0  0  0  0  0  0  0  0  0  0  0
  1 16  1  0  0  0  0
  1 31  1  0  0  0  0
  2 16  2  0  0  0  0
  3  4  2  0  0  0  0
  3  7  1  0  0  0  0
  3  8  1  0  0  0  0
  4  5  1  0  0  0  0
  4 12  1  0  0  0  0
  5  6  1  0  0  0  0
  5 20  1  0  0  0  0
  5 21  1  0  0  0  0
  6  9  1  0  0  0  0
  6 16  1  0  0  0  0
  6 22  1  0  0  0  0
  7 10  2  0  0  0  0
  7 11  1  0  0  0  0
  8  9  2  0  0  0  0
  8 13  1  0  0  0  0
  9 23  1  0  0  0  0
 10 14  1  0  0  0  0
 10 17  1  0  0  0  0
 11 15  1  0  0  0  0
 11 18  2  0  0  0  0
 12 14  2  0  0  0  0
 12 24  1  0  0  0  0
 13 15  2  0  0  0  0
 13 25  1  0  0  0  0
 14 26  1  0  0  0  0
 15 27  1  0  0  0  0
 17 19  2  0  0  0  0
 17 28  1  0  0  0  0
 18 19  1  0  0  0  0
 18 29  1  0  0  0  0
 19 30  1  0  0  0  0
M  END
> <PUBCHEM_COMPOUND_CID>
9543348

> <PUBCHEM_CONFORMER_RMSD>
0.6

> <PUBCHEM_CONFORMER_DIVERSEORDER>
1
2

> <PUBCHEM_MMFF94_PARTIAL_CHARGES>
26
1 -0.65
11 0.03
12 -0.15
13 -0.15
14 -0.15
15 -0.18
16 0.66
17 -0.15
18 -0.15
19 -0.15
2 -0.57
23 0.15
24 0.15
25 0.15
26 0.15
27 0.15
28 0.15
29 0.15
3 0.03
30 0.15
31 0.5
4 -0.14
5 0.14
6 0.2
8 -0.03
9 -0.29

> <PUBCHEM_EFFECTIVE_ROTOR_COUNT>
1.4

> <PUBCHEM_PHARMACOPHORE_FEATURES>
7
1 1 acceptor
1 2 acceptor
3 1 2 16 anion
6 3 4 5 6 8 9 rings
6 3 4 7 10 12 14 rings
6 3 7 8 11 13 15 rings
6 7 10 11 17 18 19 rings

> <PUBCHEM_HEAVY_ATOM_COUNT>
19

> <PUBCHEM_ATOM_DEF_STEREO_COUNT>
0

> <PUBCHEM_ATOM_UDEF_STEREO_COUNT>
1

> <PUBCHEM_BOND_DEF_STEREO_COUNT>
0

> <PUBCHEM_BOND_UDEF_STEREO_COUNT>
0

> <PUBCHEM_ISOTOPIC_ATOM_COUNT>
0

> <PUBCHEM_COMPONENT_COUNT>
1

> <PUBCHEM_CACTVS_TAUTO_COUNT>
1

> <PUBCHEM_CONFORMER_ID>
00919EB400000001

> <PUBCHEM_MMFF94_ENERGY>
52.9206

> <PUBCHEM_FEATURE_SELFOVERLAP>
35.695

> <PUBCHEM_SHAPE_FINGERPRINT>
10693767 8 18187092788140807135
10967382 1 18410565189464727962
11471102 20 18411136926514937857
11680986 33 18265330595282768048
12011746 2 18410287000354218220
12236239 1 17676199174671732401
12553582 1 18266450078534707736
12730499 353 18202005439289989731
13140716 1 16030979769300694768
13464514 151 18200038494154583277
13583140 156 16917345909692406408
14787075 74 17677063334781950152
14790565 3 18194092257815083520
15196674 1 18410004472762405720
16945 1 18410287008437711640
17349148 13 18339938103009666322
18186145 218 18341890809489605998
18219364 16 18270949164119840779
192875 21 18340216305215860242
193761 8 17832978348291601666
19591789 44 18122618349784890931
200 152 18113901575964932453
20905425 154 18047186633891967366
21029758 11 18333730208740624568
21267235 1 18337093644848297522
21501502 16 18121493819908682066
21634736 98 18115316552914330303
21639500 275 18410583863734533119
221357 26 18339092561878784509
221490 88 18194680372034204211
22182313 1 18123183502850215672
2334 1 17760922944618513880
23388829 49 18263921210312341528
23402539 116 18262237836899136478
23493267 7 17489586748978890992
23559900 14 18191009133591612972
238 59 17982771607686854343
25 1 18343024406246972279
2748010 2 18049996697649229088
2871803 45 18409731793704683013
3060560 45 18410582764091101734
3323516 105 18411426072888821319
335352 9 17979063113801066332
34934 24 18338239250470951344
350125 39 17908690744333368347
3524813 1 18131359608827112757
7832392 63 17902787801501199329
9709674 26 18264194971691552630

> <PUBCHEM_SHAPE_MULTIPOLES>
379.27
6.46
2.62
0.94
1.79
0.08
0.21
-0.35
2.16
-1.1
-0.41
0.73
0.02
0.11

> <PUBCHEM_SHAPE_SELFOVERLAP>
867.793

> <PUBCHEM_SHAPE_VOLUME>
195.3

> <PUBCHEM_COORDINATE_TYPE>
2
5
10

$$$$

