213031
  -OEChem-07051213122D

 36 37  0     0  0  0  0  0  0999 V2000
    2.0000   -0.4610    0.0000 Cl  0  0  0  0  0  0  0  0  0  0  0  0
    2.0000   -2.4610    0.0000 Cl  0  0  0  0  0  0  0  0  0  0  0  0
    5.4641    0.5390    0.0000 O   0  0  0  0  0  0  0  0  0  0  0  0
    3.7320   -3.4610    0.0000 O   0  0  0  0  0  0  0  0  0  0  0  0
    3.7320    0.5390    0.0000 N   0  0  0  0  0  0  0  0  0  0  0  0
    4.5981    2.0390    0.0000 C   0  0  0  0  0  0  0  0  0  0  0  0
    5.0981    2.9050    0.0000 C   0  0  0  0  0  0  0  0  0  0  0  0
    3.5981    2.0390    0.0000 C   0  0  0  0  0  0  0  0  0  0  0  0
    3.0981    2.9050    0.0000 C   0  0  0  0  0  0  0  0  0  0  0  0
    4.5981    3.7710    0.0000 C   0  0  0  0  0  0  0  0  0  0  0  0
    3.5981    3.7710    0.0000 C   0  0  0  0  0  0  0  0  0  0  0  0
    5.4641    1.5390    0.0000 C   0  0  0  0  0  0  0  0  0  0  0  0
    4.5981    1.0390    0.0000 C   0  0  0  0  0  0  0  0  0  0  0  0
    3.7320   -0.4610    0.0000 C   0  0  0  0  0  0  0  0  0  0  0  0
    2.8660   -0.9610    0.0000 C   0  0  0  0  0  0  0  0  0  0  0  0
    4.5981   -0.9610    0.0000 C   0  0  0  0  0  0  0  0  0  0  0  0
    2.8660   -1.9610    0.0000 C   0  0  0  0  0  0  0  0  0  0  0  0
    4.5981   -1.9610    0.0000 C   0  0  0  0  0  0  0  0  0  0  0  0
    3.7320   -2.4610    0.0000 C   0  0  0  0  0  0  0  0  0  0  0  0
    3.0155    1.8269    0.0000 H   0  0  0  0  0  0  0  0  0  0  0  0
    3.7057    1.4284    0.0000 H   0  0  0  0  0  0  0  0  0  0  0  0
    5.5730    2.5065    0.0000 H   0  0  0  0  0  0  0  0  0  0  0  0
    5.5730    3.3035    0.0000 H   0  0  0  0  0  0  0  0  0  0  0  0
    5.1807    3.9831    0.0000 H   0  0  0  0  0  0  0  0  0  0  0  0
    4.4904    4.3816    0.0000 H   0  0  0  0  0  0  0  0  0  0  0  0
    2.6231    3.3035    0.0000 H   0  0  0  0  0  0  0  0  0  0  0  0
    2.6231    2.5065    0.0000 H   0  0  0  0  0  0  0  0  0  0  0  0
    3.7057    4.3816    0.0000 H   0  0  0  0  0  0  0  0  0  0  0  0
    3.0155    3.9831    0.0000 H   0  0  0  0  0  0  0  0  0  0  0  0
    5.1541    1.0020    0.0000 H   0  0  0  0  0  0  0  0  0  0  0  0
    6.0010    1.2290    0.0000 H   0  0  0  0  0  0  0  0  0  0  0  0
    5.7741    2.0759    0.0000 H   0  0  0  0  0  0  0  0  0  0  0  0
    3.1951    0.8490    0.0000 H   0  0  0  0  0  0  0  0  0  0  0  0
    5.1350   -0.6510    0.0000 H   0  0  0  0  0  0  0  0  0  0  0  0
    5.1350   -2.2710    0.0000 H   0  0  0  0  0  0  0  0  0  0  0  0
    4.2690   -3.7710    0.0000 H   0  0  0  0  0  0  0  0  0  0  0  0
  1 15  1  0  0  0  0
  2 17  1  0  0  0  0
  3 13  2  0  0  0  0
  4 19  1  0  0  0  0
  4 36  1  0  0  0  0
  5 13  1  0  0  0  0
  5 14  1  0  0  0  0
  5 33  1  0  0  0  0
  6  7  1  0  0  0  0
  6  8  1  0  0  0  0
  6 12  1  0  0  0  0
  6 13  1  0  0  0  0
  7 10  1  0  0  0  0
  7 22  1  0  0  0  0
  7 23  1  0  0  0  0
  8  9  1  0  0  0  0
  8 20  1  0  0  0  0
  8 21  1  0  0  0  0
  9 11  1  0  0  0  0
  9 26  1  0  0  0  0
  9 27  1  0  0  0  0
 10 11  1  0  0  0  0
 10 24  1  0  0  0  0
 10 25  1  0  0  0  0
 11 28  1  0  0  0  0
 11 29  1  0  0  0  0
 12 30  1  0  0  0  0
 12 31  1  0  0  0  0
 12 32  1  0  0  0  0
 14 15  2  0  0  0  0
 14 16  1  0  0  0  0
 15 17  1  0  0  0  0
 16 18  2  0  0  0  0
 16 34  1  0  0  0  0
 17 19  2  0  0  0  0
 18 19  1  0  0  0  0
 18 35  1  0  0  0  0
M  END
> <PUBCHEM_COMPOUND_CID>
213031

> <PUBCHEM_COMPOUND_CANONICALIZED>
1

> <PUBCHEM_CACTVS_COMPLEXITY>
331

> <PUBCHEM_CACTVS_HBOND_ACCEPTOR>
2

> <PUBCHEM_CACTVS_HBOND_DONOR>
2

> <PUBCHEM_CACTVS_ROTATABLE_BOND>
2

> <PUBCHEM_CACTVS_SUBSKEYS>
AAADceByMAAGAAAAAAAAAAAAAAAAAAAAAAAwYAAAAAAAAAABAAAAHgIQCAAADg6BkCAyxoLAAgCIACVSUACCAAAhJkAIikEGb4gIJjLDkpPEcAhk1BHI2Ae4yECPAEAAAQIACBQAgAACBAAQKAAAAAAAAA==

> <PUBCHEM_IUPAC_OPENEYE_NAME>
N-(2,3-dichloro-4-hydroxy-phenyl)-1-methyl-cyclohexanecarboxamide

> <PUBCHEM_IUPAC_CAS_NAME>
N-(2,3-dichloro-4-hydroxyphenyl)-1-methyl-1-cyclohexanecarboxamide

> <PUBCHEM_IUPAC_NAME>
N-(2,3-dichloro-4-hydroxyphenyl)-1-methylcyclohexane-1-carboxamide

> <PUBCHEM_IUPAC_SYSTEMATIC_NAME>
N-[2,3-bis(chloranyl)-4-oxidanyl-phenyl]-1-methyl-cyclohexane-1-carboxamide

> <PUBCHEM_IUPAC_TRADITIONAL_NAME>
N-(2,3-dichloro-4-hydroxy-phenyl)-1-methyl-cyclohexanecarboxamide

> <PUBCHEM_IUPAC_INCHI>
InChI=1S/C14H17Cl2NO2/c1-14(7-3-2-4-8-14)13(19)17-9-5-6-10(18)12(16)11(9)15/h5-6,18H,2-4,7-8H2,1H3,(H,17,19)

> <PUBCHEM_IUPAC_INCHIKEY>
VDLGAVXLJYLFDH-UHFFFAOYSA-N

> <PUBCHEM_XLOGP3_AA>
4.4

> <PUBCHEM_EXACT_MASS>
301.063634

> <PUBCHEM_MOLECULAR_FORMULA>
C14H17Cl2NO2

> <PUBCHEM_MOLECULAR_WEIGHT>
302.19628

> <PUBCHEM_OPENEYE_CAN_SMILES>
CC1(CCCCC1)C(=O)NC2=C(C(=C(C=C2)O)Cl)Cl

> <PUBCHEM_OPENEYE_ISO_SMILES>
CC1(CCCCC1)C(=O)NC2=C(C(=C(C=C2)O)Cl)Cl

> <PUBCHEM_CACTVS_TPSA>
49.3

> <PUBCHEM_MONOISOTOPIC_WEIGHT>
301.063634

> <PUBCHEM_TOTAL_CHARGE>
0

> <PUBCHEM_HEAVY_ATOM_COUNT>
19

> <PUBCHEM_ATOM_DEF_STEREO_COUNT>
0

> <PUBCHEM_ATOM_UDEF_STEREO_COUNT>
0

> <PUBCHEM_BOND_DEF_STEREO_COUNT>
0

> <PUBCHEM_BOND_UDEF_STEREO_COUNT>
0

> <PUBCHEM_ISOTOPIC_ATOM_COUNT>
0

> <PUBCHEM_COMPONENT_COUNT>
1

> <PUBCHEM_CACTVS_TAUTO_COUNT>
6

> <PUBCHEM_COORDINATE_TYPE>
1
5
255

> <PUBCHEM_BONDANNOTATIONS>
14  15  8
14  16  8
15  17  8
16  18  8
17  19  8
18  19  8

$$$$

