8972
  -OEChem-06261203173D

 52 54  0     1  0  0  0  0  0999 V2000
    6.0463    1.5621   -1.2316 Cl  0  0  0  0  0  0  0  0  0  0  0  0
    2.2535   -5.4978   -0.5851 Cl  0  0  0  0  0  0  0  0  0  0  0  0
   -4.4567    2.3008    0.3494 O   0  0  0  0  0  0  0  0  0  0  0  0
    2.2403    2.4413   -0.2431 N   0  0  2  0  0  0  0  0  0  0  0  0
    0.0691    0.4640    1.6945 N   0  0  0  0  0  0  0  0  0  0  0  0
   -1.7071   -2.3388   -0.8661 N   0  0  0  0  0  0  0  0  0  0  0  0
    1.6470    2.8930    1.0096 C   0  0  0  0  0  0  0  0  0  0  0  0
    1.9471    1.9326    2.1645 C   0  0  0  0  0  0  0  0  0  0  0  0
    1.4720    0.4978    1.9384 C   0  0  0  0  0  0  0  0  0  0  0  0
   -0.5329   -0.4858    0.8254 C   0  0  0  0  0  0  0  0  0  0  0  0
    3.6889    2.2840   -0.1005 C   0  0  0  0  0  0  0  0  0  0  0  0
    1.9359    3.3789   -1.3256 C   0  0  0  0  0  0  0  0  0  0  0  0
   -1.8030   -0.2344    0.2964 C   0  0  0  0  0  0  0  0  0  0  0  0
    0.1494   -1.6645    0.5077 C   0  0  0  0  0  0  0  0  0  0  0  0
   -2.3600   -1.2018   -0.5569 C   0  0  0  0  0  0  0  0  0  0  0  0
   -0.4841   -2.5760   -0.3538 C   0  0  0  0  0  0  0  0  0  0  0  0
    4.2875    1.7745   -1.4025 C   0  0  0  0  0  0  0  0  0  0  0  0
    0.4367    3.5072   -1.5355 C   0  0  0  0  0  0  0  0  0  0  0  0
   -2.5114    0.9415    0.5987 C   0  0  0  0  0  0  0  0  0  0  0  0
    1.4266   -1.9430    1.0250 C   0  0  0  0  0  0  0  0  0  0  0  0
   -3.6242   -0.9573   -1.0867 C   0  0  0  0  0  0  0  0  0  0  0  0
    0.1902   -3.7515   -0.6737 C   0  0  0  0  0  0  0  0  0  0  0  0
   -3.7738    1.1619    0.0561 C   0  0  0  0  0  0  0  0  0  0  0  0
   -4.3310    0.2102   -0.7883 C   0  0  0  0  0  0  0  0  0  0  0  0
    2.0793   -3.1255    0.6897 C   0  0  0  0  0  0  0  0  0  0  0  0
    1.4594   -4.0313   -0.1615 C   0  0  0  0  0  0  0  0  0  0  0  0
   -5.7449    2.4581   -0.2445 C   0  0  0  0  0  0  0  0  0  0  0  0
    2.0124    3.8925    1.2812 H   0  0  0  0  0  0  0  0  0  0  0  0
    0.5576    2.9673    0.9335 H   0  0  0  0  0  0  0  0  0  0  0  0
    3.0069    1.9437    2.4430 H   0  0  0  0  0  0  0  0  0  0  0  0
    1.4276    2.3282    3.0494 H   0  0  0  0  0  0  0  0  0  0  0  0
    2.0809    0.2038    1.0805 H   0  0  0  0  0  0  0  0  0  0  0  0
    1.7112   -0.0167    2.8764 H   0  0  0  0  0  0  0  0  0  0  0  0
    4.1623    3.2315    0.1897 H   0  0  0  0  0  0  0  0  0  0  0  0
    3.9444    1.5421    0.6616 H   0  0  0  0  0  0  0  0  0  0  0  0
    2.3751    4.3690   -1.1506 H   0  0  0  0  0  0  0  0  0  0  0  0
    2.3071    3.0139   -2.2863 H   0  0  0  0  0  0  0  0  0  0  0  0
   -0.5235    1.1119    2.1963 H   0  0  0  0  0  0  0  0  0  0  0  0
    4.1916    2.4730   -2.2343 H   0  0  0  0  0  0  0  0  0  0  0  0
    3.8620    0.8091   -1.6946 H   0  0  0  0  0  0  0  0  0  0  0  0
    0.2406    4.0166   -2.4860 H   0  0  0  0  0  0  0  0  0  0  0  0
   -0.0455    4.1069   -0.7576 H   0  0  0  0  0  0  0  0  0  0  0  0
   -0.0523    2.5279   -1.5841 H   0  0  0  0  0  0  0  0  0  0  0  0
   -2.1090    1.7179    1.2424 H   0  0  0  0  0  0  0  0  0  0  0  0
    1.9424   -1.5186    1.8611 H   0  0  0  0  0  0  0  0  0  0  0  0
   -4.0813   -1.6887   -1.7510 H   0  0  0  0  0  0  0  0  0  0  0  0
   -0.2877   -4.4684   -1.3405 H   0  0  0  0  0  0  0  0  0  0  0  0
   -5.3077    0.3089   -1.2497 H   0  0  0  0  0  0  0  0  0  0  0  0
    3.0452   -3.3528    1.1340 H   0  0  0  0  0  0  0  0  0  0  0  0
   -6.1434    3.4189    0.0972 H   0  0  0  0  0  0  0  0  0  0  0  0
   -5.6806    2.5081   -1.3367 H   0  0  0  0  0  0  0  0  0  0  0  0
   -6.4412    1.6836    0.0948 H   0  0  0  0  0  0  0  0  0  0  0  0
  1 17  1  0  0  0  0
  2 26  1  0  0  0  0
  3 23  1  0  0  0  0
  3 27  1  0  0  0  0
  4  7  1  0  0  0  0
  4 11  1  0  0  0  0
  4 12  1  0  0  0  0
  5  9  1  0  0  0  0
  5 10  1  0  0  0  0
  5 38  1  0  0  0  0
  6 15  2  0  0  0  0
  6 16  1  0  0  0  0
  7  8  1  0  0  0  0
  7 28  1  0  0  0  0
  7 29  1  0  0  0  0
  8  9  1  0  0  0  0
  8 30  1  0  0  0  0
  8 31  1  0  0  0  0
  9 32  1  0  0  0  0
  9 33  1  0  0  0  0
 10 13  2  0  0  0  0
 10 14  1  0  0  0  0
 11 17  1  0  0  0  0
 11 34  1  0  0  0  0
 11 35  1  0  0  0  0
 12 18  1  0  0  0  0
 12 36  1  0  0  0  0
 12 37  1  0  0  0  0
 13 15  1  0  0  0  0
 13 19  1  0  0  0  0
 14 16  2  0  0  0  0
 14 20  1  0  0  0  0
 15 21  1  0  0  0  0
 16 22  1  0  0  0  0
 17 39  1  0  0  0  0
 17 40  1  0  0  0  0
 18 41  1  0  0  0  0
 18 42  1  0  0  0  0
 18 43  1  0  0  0  0
 19 23  2  0  0  0  0
 19 44  1  0  0  0  0
 20 25  2  0  0  0  0
 20 45  1  0  0  0  0
 21 24  2  0  0  0  0
 21 46  1  0  0  0  0
 22 26  2  0  0  0  0
 22 47  1  0  0  0  0
 23 24  1  0  0  0  0
 24 48  1  0  0  0  0
 25 26  1  0  0  0  0
 25 49  1  0  0  0  0
 27 50  1  0  0  0  0
 27 51  1  0  0  0  0
 27 52  1  0  0  0  0
M  END
> <PUBCHEM_COMPOUND_CID>
8972

> <PUBCHEM_CONFORMER_RMSD>
1

> <PUBCHEM_CONFORMER_DIVERSEORDER>
1
4
42
40
29
24
47
9
37
11
41
18
3
31
10
33
7
34
26
5
23
25
44
8
28
16
39
36
2
14
43
46
30
6
19
12
21
17
15
20
45
27
38
22
35
48
13
32

> <PUBCHEM_MMFF94_PARTIAL_CHARGES>
30
1 -0.29
10 0.1
11 0.27
12 0.27
15 0.31
16 0.31
17 0.29
19 -0.15
2 -0.18
20 -0.15
21 -0.15
22 -0.15
23 0.08
24 -0.15
25 -0.15
26 0.18
27 0.28
3 -0.36
38 0.4
4 -0.81
44 0.15
45 0.15
46 0.15
47 0.15
48 0.15
49 0.15
5 -0.87
6 -0.62
7 0.27
9 0.37

> <PUBCHEM_EFFECTIVE_ROTOR_COUNT>
9

> <PUBCHEM_PHARMACOPHORE_FEATURES>
8
1 3 acceptor
1 4 cation
1 5 cation
1 5 donor
1 6 acceptor
6 13 15 19 21 23 24 rings
6 14 16 20 22 25 26 rings
6 6 10 13 14 15 16 rings

> <PUBCHEM_HEAVY_ATOM_COUNT>
27

> <PUBCHEM_ATOM_DEF_STEREO_COUNT>
0

> <PUBCHEM_ATOM_UDEF_STEREO_COUNT>
0

> <PUBCHEM_BOND_DEF_STEREO_COUNT>
0

> <PUBCHEM_BOND_UDEF_STEREO_COUNT>
0

> <PUBCHEM_ISOTOPIC_ATOM_COUNT>
0

> <PUBCHEM_COMPONENT_COUNT>
1

> <PUBCHEM_CACTVS_TAUTO_COUNT>
2

> <PUBCHEM_CONFORMER_ID>
0000230C00000001

> <PUBCHEM_MMFF94_ENERGY>
117.2458

> <PUBCHEM_FEATURE_SELFOVERLAP>
40.656

> <PUBCHEM_SHAPE_FINGERPRINT>
10190108 129 18120359966598711547
10483366 6 18340195402000414476
10688039 33 17545883089004845419
11045515 52 17761775465414669459
11200772 48 18197762333761201172
11513181 2 18195824066185883301
11578080 2 15905661174556363326
12156800 1 14833541572647364048
12160290 23 17480041704018253419
12173636 292 18048333149599502837
12422481 6 17909026349131493328
12788726 201 17262163519071168745
13690498 29 17259310317469384972
13965767 371 18051451510331068561
15082195 135 18265917881211744959
15210252 30 17332254597982363021
15475509 35 6626335056179855277
17980427 26 15581254628178571218
1813 80 17907584975197127507
19591789 44 17545891430200696787
20642791 178 18411426128470650058
21049683 271 18120931969398706255
21641784 216 17399779988248651462
21781051 124 17982736268564898715
23366157 5 18267882725328233659
23557571 272 17181947544708550568
23559900 14 18044958985122479931
23572383 38 17823965751038624844
46194498 28 18127697247665359277
474 4 18200889421754768449
5265222 85 18198324205340786580
5895379 119 17693669112846724712
6287921 2 18338809995742724029
6523845 18 18189886540039007121
9981440 41 18119556265899238011

> <PUBCHEM_SHAPE_MULTIPOLES>
538.57
8.76
6.6
1.61
3.19
6.98
0.46
-8.98
-3.58
-5.47
-1.93
-1.15
-0.94
-1.01

> <PUBCHEM_SHAPE_SELFOVERLAP>
1130.541

> <PUBCHEM_SHAPE_VOLUME>
308.1

> <PUBCHEM_COORDINATE_TYPE>
2
5
10

$$$$

