241572
  -OEChem-07051213153D

 82 85  0     1  0  0  0  0  0999 V2000
   -8.4214    0.7569    0.1894 O   0  0  0  0  0  0  0  0  0  0  0  0
    0.2894   -0.0001   -0.0890 C   0  0  1  0  0  0  0  0  0  0  0  0
   -0.6620   -1.1150   -0.5751 C   0  0  2  0  0  0  0  0  0  0  0  0
   -2.0476   -1.0437    0.0764 C   0  0  1  0  0  0  0  0  0  0  0  0
   -2.6898    0.3387   -0.2715 C   0  0  1  0  0  0  0  0  0  0  0  0
   -4.1432    0.4759    0.3170 C   0  0  2  0  0  0  0  0  0  0  0  0
    1.5605   -0.3996   -0.8776 C   0  0  2  0  0  0  0  0  0  0  0  0
   -0.3218    1.3489   -0.4936 C   0  0  0  0  0  0  0  0  0  0  0  0
   -4.9812   -0.7274   -0.2247 C   0  0  1  0  0  0  0  0  0  0  0  0
   -1.7447    1.5211    0.0694 C   0  0  0  0  0  0  0  0  0  0  0  0
    0.1665   -2.3867   -0.4201 C   0  0  0  0  0  0  0  0  0  0  0  0
   -2.9432   -2.2048   -0.3786 C   0  0  0  0  0  0  0  0  0  0  0  0
    1.6037   -1.9402   -0.7461 C   0  0  0  0  0  0  0  0  0  0  0  0
   -4.3706   -2.0821    0.1501 C   0  0  0  0  0  0  0  0  0  0  0  0
   -4.8172    1.7845   -0.1859 C   0  0  0  0  0  0  0  0  0  0  0  0
    0.5537   -0.0142    1.4377 C   0  0  0  0  0  0  0  0  0  0  0  0
    2.8620    0.2674   -0.4563 C   0  0  1  0  0  0  0  0  0  0  0  0
   -6.4608   -0.6511    0.1721 C   0  0  0  0  0  0  0  0  0  0  0  0
   -4.1089    0.5089    1.8665 C   0  0  0  0  0  0  0  0  0  0  0  0
   -6.3045    1.8784    0.1617 C   0  0  0  0  0  0  0  0  0  0  0  0
   -7.0899    0.6573   -0.3050 C   0  0  2  0  0  0  0  0  0  0  0  0
    4.0303   -0.2655   -1.3127 C   0  0  0  0  0  0  0  0  0  0  0  0
    2.7275    1.7910   -0.5516 C   0  0  0  0  0  0  0  0  0  0  0  0
    5.4028    0.3839   -1.0703 C   0  0  0  0  0  0  0  0  0  0  0  0
    6.0197    0.1812    0.3382 C   0  0  2  0  0  0  0  0  0  0  0  0
    7.3548    0.9713    0.5221 C   0  0  0  0  0  0  0  0  0  0  0  0
    6.1590   -1.3279    0.6578 C   0  0  0  0  0  0  0  0  0  0  0  0
    7.1766    2.4758    0.2814 C   0  0  0  0  0  0  0  0  0  0  0  0
    8.5106    0.4479   -0.3347 C   0  0  0  0  0  0  0  0  0  0  0  0
    6.6895   -1.6309    2.0528 C   0  0  0  0  0  0  0  0  0  0  0  0
   -0.8197   -0.9881   -1.6596 H   0  0  0  0  0  0  0  0  0  0  0  0
   -1.9325   -1.1349    1.1610 H   0  0  0  0  0  0  0  0  0  0  0  0
   -2.7974    0.3622   -1.3679 H   0  0  0  0  0  0  0  0  0  0  0  0
    1.3892   -0.1728   -1.9415 H   0  0  0  0  0  0  0  0  0  0  0  0
   -0.3664    1.4306   -1.5873 H   0  0  0  0  0  0  0  0  0  0  0  0
    0.2481    2.2069   -0.1394 H   0  0  0  0  0  0  0  0  0  0  0  0
   -4.9592   -0.6720   -1.3246 H   0  0  0  0  0  0  0  0  0  0  0  0
   -1.6851    1.6623    1.1530 H   0  0  0  0  0  0  0  0  0  0  0  0
   -2.1523    2.4520   -0.3407 H   0  0  0  0  0  0  0  0  0  0  0  0
   -0.1669   -3.1781   -1.0991 H   0  0  0  0  0  0  0  0  0  0  0  0
    0.1107   -2.7806    0.6010 H   0  0  0  0  0  0  0  0  0  0  0  0
   -2.5230   -3.1594   -0.0411 H   0  0  0  0  0  0  0  0  0  0  0  0
   -2.9706   -2.2437   -1.4752 H   0  0  0  0  0  0  0  0  0  0  0  0
    2.2775   -2.2721    0.0522 H   0  0  0  0  0  0  0  0  0  0  0  0
    1.9468   -2.3979   -1.6807 H   0  0  0  0  0  0  0  0  0  0  0  0
   -4.9734   -2.8927   -0.2773 H   0  0  0  0  0  0  0  0  0  0  0  0
   -4.3822   -2.2283    1.2362 H   0  0  0  0  0  0  0  0  0  0  0  0
   -4.7108    1.8537   -1.2766 H   0  0  0  0  0  0  0  0  0  0  0  0
   -4.3139    2.6639    0.2324 H   0  0  0  0  0  0  0  0  0  0  0  0
   -0.3660    0.0634    2.0237 H   0  0  0  0  0  0  0  0  0  0  0  0
    1.0565   -0.9296    1.7655 H   0  0  0  0  0  0  0  0  0  0  0  0
    1.1819    0.8264    1.7473 H   0  0  0  0  0  0  0  0  0  0  0  0
    3.0905    0.0145    0.5857 H   0  0  0  0  0  0  0  0  0  0  0  0
   -7.0146   -1.4889   -0.2714 H   0  0  0  0  0  0  0  0  0  0  0  0
   -6.5897   -0.7685    1.2547 H   0  0  0  0  0  0  0  0  0  0  0  0
   -3.6068    1.4105    2.2328 H   0  0  0  0  0  0  0  0  0  0  0  0
   -5.1104    0.5151    2.3055 H   0  0  0  0  0  0  0  0  0  0  0  0
   -3.5881   -0.3501    2.2963 H   0  0  0  0  0  0  0  0  0  0  0  0
   -6.4346    2.0221    1.2413 H   0  0  0  0  0  0  0  0  0  0  0  0
   -6.7315    2.7799   -0.2958 H   0  0  0  0  0  0  0  0  0  0  0  0
   -7.1468    0.6571   -1.3997 H   0  0  0  0  0  0  0  0  0  0  0  0
    4.1235   -1.3510   -1.2120 H   0  0  0  0  0  0  0  0  0  0  0  0
    3.7831   -0.0967   -2.3703 H   0  0  0  0  0  0  0  0  0  0  0  0
    2.1659    2.1963    0.2907 H   0  0  0  0  0  0  0  0  0  0  0  0
    2.2733    2.1062   -1.4962 H   0  0  0  0  0  0  0  0  0  0  0  0
    3.6936    2.2955   -0.4745 H   0  0  0  0  0  0  0  0  0  0  0  0
    5.3515    1.4435   -1.3300 H   0  0  0  0  0  0  0  0  0  0  0  0
    6.0883   -0.0530   -1.8087 H   0  0  0  0  0  0  0  0  0  0  0  0
   -8.3836    0.7409    1.1610 H   0  0  0  0  0  0  0  0  0  0  0  0
    5.3126    0.6005    1.0668 H   0  0  0  0  0  0  0  0  0  0  0  0
    7.6558    0.8692    1.5725 H   0  0  0  0  0  0  0  0  0  0  0  0
    5.1736   -1.8025    0.5966 H   0  0  0  0  0  0  0  0  0  0  0  0
    6.7875   -1.8252   -0.0895 H   0  0  0  0  0  0  0  0  0  0  0  0
    7.0517    2.7126   -0.7797 H   0  0  0  0  0  0  0  0  0  0  0  0
    8.0596    3.0222    0.6318 H   0  0  0  0  0  0  0  0  0  0  0  0
    6.3108    2.8614    0.8295 H   0  0  0  0  0  0  0  0  0  0  0  0
    8.7368   -0.5989   -0.1136 H   0  0  0  0  0  0  0  0  0  0  0  0
    9.4228    1.0220   -0.1366 H   0  0  0  0  0  0  0  0  0  0  0  0
    8.2943    0.5340   -1.4039 H   0  0  0  0  0  0  0  0  0  0  0  0
    7.7379   -1.3384    2.1589 H   0  0  0  0  0  0  0  0  0  0  0  0
    6.6284   -2.7060    2.2512 H   0  0  0  0  0  0  0  0  0  0  0  0
    6.1027   -1.1121    2.8172 H   0  0  0  0  0  0  0  0  0  0  0  0
  1 21  1  0  0  0  0
  1 69  1  0  0  0  0
  2  3  1  0  0  0  0
  2  7  1  0  0  0  0
  2  8  1  0  0  0  0
  2 16  1  0  0  0  0
  3  4  1  0  0  0  0
  3 11  1  0  0  0  0
  3 31  1  0  0  0  0
  4  5  1  0  0  0  0
  4 12  1  0  0  0  0
  4 32  1  0  0  0  0
  5  6  1  0  0  0  0
  5 10  1  0  0  0  0
  5 33  1  0  0  0  0
  6  9  1  0  0  0  0
  6 15  1  0  0  0  0
  6 19  1  0  0  0  0
  7 13  1  0  0  0  0
  7 17  1  0  0  0  0
  7 34  1  0  0  0  0
  8 10  1  0  0  0  0
  8 35  1  0  0  0  0
  8 36  1  0  0  0  0
  9 14  1  0  0  0  0
  9 18  1  0  0  0  0
  9 37  1  0  0  0  0
 10 38  1  0  0  0  0
 10 39  1  0  0  0  0
 11 13  1  0  0  0  0
 11 40  1  0  0  0  0
 11 41  1  0  0  0  0
 12 14  1  0  0  0  0
 12 42  1  0  0  0  0
 12 43  1  0  0  0  0
 13 44  1  0  0  0  0
 13 45  1  0  0  0  0
 14 46  1  0  0  0  0
 14 47  1  0  0  0  0
 15 20  1  0  0  0  0
 15 48  1  0  0  0  0
 15 49  1  0  0  0  0
 16 50  1  0  0  0  0
 16 51  1  0  0  0  0
 16 52  1  0  0  0  0
 17 22  1  0  0  0  0
 17 23  1  0  0  0  0
 17 53  1  0  0  0  0
 18 21  1  0  0  0  0
 18 54  1  0  0  0  0
 18 55  1  0  0  0  0
 19 56  1  0  0  0  0
 19 57  1  0  0  0  0
 19 58  1  0  0  0  0
 20 21  1  0  0  0  0
 20 59  1  0  0  0  0
 20 60  1  0  0  0  0
 21 61  1  0  0  0  0
 22 24  1  0  0  0  0
 22 62  1  0  0  0  0
 22 63  1  0  0  0  0
 23 64  1  0  0  0  0
 23 65  1  0  0  0  0
 23 66  1  0  0  0  0
 24 25  1  0  0  0  0
 24 67  1  0  0  0  0
 24 68  1  0  0  0  0
 25 26  1  0  0  0  0
 25 27  1  0  0  0  0
 25 70  1  0  0  0  0
 26 28  1  0  0  0  0
 26 29  1  0  0  0  0
 26 71  1  0  0  0  0
 27 30  1  0  0  0  0
 27 72  1  0  0  0  0
 27 73  1  0  0  0  0
 28 74  1  0  0  0  0
 28 75  1  0  0  0  0
 28 76  1  0  0  0  0
 29 77  1  0  0  0  0
 29 78  1  0  0  0  0
 29 79  1  0  0  0  0
 30 80  1  0  0  0  0
 30 81  1  0  0  0  0
 30 82  1  0  0  0  0
M  END
> <PUBCHEM_COMPOUND_CID>
241572

> <PUBCHEM_CONFORMER_RMSD>
1

> <PUBCHEM_CONFORMER_DIVERSEORDER>
1
7
8
9
5
3
2
4
6

> <PUBCHEM_MMFF94_PARTIAL_CHARGES>
3
1 -0.68
21 0.28
69 0.4

> <PUBCHEM_EFFECTIVE_ROTOR_COUNT>
8.2

> <PUBCHEM_PHARMACOPHORE_FEATURES>
10
1 1 acceptor
1 1 donor
1 23 hydrophobe
1 30 hydrophobe
3 26 28 29 hydrophobe
5 2 3 7 11 13 rings
6 17 22 24 25 26 27 hydrophobe
6 2 3 4 5 8 10 rings
6 4 5 6 9 12 14 rings
6 6 9 15 18 20 21 rings

> <PUBCHEM_HEAVY_ATOM_COUNT>
30

> <PUBCHEM_ATOM_DEF_STEREO_COUNT>
10

> <PUBCHEM_ATOM_UDEF_STEREO_COUNT>
0

> <PUBCHEM_BOND_DEF_STEREO_COUNT>
0

> <PUBCHEM_BOND_UDEF_STEREO_COUNT>
0

> <PUBCHEM_ISOTOPIC_ATOM_COUNT>
0

> <PUBCHEM_COMPONENT_COUNT>
1

> <PUBCHEM_CACTVS_TAUTO_COUNT>
1

> <PUBCHEM_CONFORMER_ID>
0003AFA400000001

> <PUBCHEM_MMFF94_ENERGY>
98.3277

> <PUBCHEM_FEATURE_SELFOVERLAP>
50.841

> <PUBCHEM_SHAPE_FINGERPRINT>
10 15 18413387644176316618
10319926 262 18335433321902208498
10411042 1 17832425298882584263
11135926 11 18343590646414900863
11315181 36 17676483939572455073
11719270 70 18334576871406960990
12236239 1 17989204841304079614
12838862 33 18337684074487652149
13533116 47 17846222185587997106
13914758 101 16773801432480871621
14251764 18 18272089388138247686
14251764 46 18261110777757487677
14347424 109 18341337760554303098
14394314 77 18343021090632979240
14955137 171 12679171700481379606
15183329 4 18412535510033089708
15301273 46 13614522960837958847
15461852 350 17458629973687659335
1577012 14 18412267220764531934
15849732 13 18412544302058108460
16989713 51 16879359891798000375
18608769 82 18336822001959225203
18681886 176 18334862675773619641
19841028 212 17489595606219931394
20105231 36 9943520838779981301
20281389 69 18413952793258657516
20554085 129 17676779742112334906
21033648 29 17677348117283924498
21130935 74 18341895186737293754
21150785 3 14634869755798848301
22224240 67 18411136939399846271
23559900 14 18187087222369041001
24771293 8 18333725840579867693
249057 3 18411417289533326381
3009799 131 16805324400662976051
335352 9 18410011018150192445
350125 39 18409732854788588212
4073 2 17988076665781917274
4093350 32 16805881908982803462
5104073 3 18338227172442666776
5381727 24 15697996341770196289
7226269 152 17967810544351397418
99344 41 18410012135353619214

> <PUBCHEM_SHAPE_MULTIPOLES>
611.52
23.18
2.28
1.18
14.46
0.29
-0.44
-7.32
-3.95
0.05
0.02
1.17
0.22
-0.9

> <PUBCHEM_SHAPE_SELFOVERLAP>
1252.731

> <PUBCHEM_SHAPE_VOLUME>
353.2

> <PUBCHEM_COORDINATE_TYPE>
2
5
10

$$$$

