560193
  -OEChem-07051213122D

 34 33  0     1  0  0  0  0  0999 V2000
    7.1962   -0.3660    0.0000 S   0  0  0  0  0  0  0  0  0  0  0  0
    4.5981    0.1340    0.0000 S   0  0  0  0  0  0  0  0  0  0  0  0
    3.7320   -0.3660    0.0000 P   0  0  0  0  0  0  0  0  0  0  0  0
    2.8660   -0.8660    0.0000 O   0  0  0  0  0  0  0  0  0  0  0  0
    3.2320    0.5000    0.0000 O   0  0  0  0  0  0  0  0  0  0  0  0
    8.9282   -1.3660    0.0000 O   0  0  0  0  0  0  0  0  0  0  0  0
    4.2320   -1.2320    0.0000 O   0  0  0  0  0  0  0  0  0  0  0  0
    9.7942    0.1340    0.0000 N   0  0  0  0  0  0  0  0  0  0  0  0
    8.0622    0.1340    0.0000 C   0  0  3  0  0  0  0  0  0  0  0  0
    6.3301    0.1340    0.0000 C   0  0  0  0  0  0  0  0  0  0  0  0
    5.4641   -0.3660    0.0000 C   0  0  0  0  0  0  0  0  0  0  0  0
    8.0622    1.1340    0.0000 C   0  0  0  0  0  0  0  0  0  0  0  0
    8.9282   -0.3660    0.0000 C   0  0  0  0  0  0  0  0  0  0  0  0
   10.6603   -0.3660    0.0000 C   0  0  0  0  0  0  0  0  0  0  0  0
    2.0000   -0.3660    0.0000 C   0  0  0  0  0  0  0  0  0  0  0  0
    3.7320    1.3660    0.0000 C   0  0  0  0  0  0  0  0  0  0  0  0
    7.5252    0.4440    0.0000 H   0  0  0  0  0  0  0  0  0  0  0  0
    6.7287    0.6089    0.0000 H   0  0  0  0  0  0  0  0  0  0  0  0
    5.9316    0.6089    0.0000 H   0  0  0  0  0  0  0  0  0  0  0  0
    5.0656   -0.8410    0.0000 H   0  0  0  0  0  0  0  0  0  0  0  0
    5.8626   -0.8410    0.0000 H   0  0  0  0  0  0  0  0  0  0  0  0
    8.6822    1.1340    0.0000 H   0  0  0  0  0  0  0  0  0  0  0  0
    8.0622    1.7540    0.0000 H   0  0  0  0  0  0  0  0  0  0  0  0
    7.4422    1.1340    0.0000 H   0  0  0  0  0  0  0  0  0  0  0  0
    9.7942    0.7540    0.0000 H   0  0  0  0  0  0  0  0  0  0  0  0
   10.3503   -0.9030    0.0000 H   0  0  0  0  0  0  0  0  0  0  0  0
   11.1972   -0.6760    0.0000 H   0  0  0  0  0  0  0  0  0  0  0  0
   10.9703    0.1709    0.0000 H   0  0  0  0  0  0  0  0  0  0  0  0
    4.2690    1.0560    0.0000 H   0  0  0  0  0  0  0  0  0  0  0  0
    4.0420    1.9030    0.0000 H   0  0  0  0  0  0  0  0  0  0  0  0
    3.1951    1.6760    0.0000 H   0  0  0  0  0  0  0  0  0  0  0  0
    2.3100    0.1709    0.0000 H   0  0  0  0  0  0  0  0  0  0  0  0
    1.4631   -0.0560    0.0000 H   0  0  0  0  0  0  0  0  0  0  0  0
    1.6900   -0.9030    0.0000 H   0  0  0  0  0  0  0  0  0  0  0  0
  1  9  1  0  0  0  0
  1 10  1  0  0  0  0
  2  3  1  0  0  0  0
  2 11  1  0  0  0  0
  3  4  1  0  0  0  0
  3  5  1  0  0  0  0
  3  7  2  0  0  0  0
  4 15  1  0  0  0  0
  5 16  1  0  0  0  0
  6 13  2  0  0  0  0
  8 13  1  0  0  0  0
  8 14  1  0  0  0  0
  8 25  1  0  0  0  0
  9 12  1  0  0  0  0
  9 13  1  0  0  0  0
  9 17  1  0  0  0  0
 10 11  1  0  0  0  0
 10 18  1  0  0  0  0
 10 19  1  0  0  0  0
 11 20  1  0  0  0  0
 11 21  1  0  0  0  0
 12 22  1  0  0  0  0
 12 23  1  0  0  0  0
 12 24  1  0  0  0  0
 14 26  1  0  0  0  0
 14 27  1  0  0  0  0
 14 28  1  0  0  0  0
 15 32  1  0  0  0  0
 15 33  1  0  0  0  0
 15 34  1  0  0  0  0
 16 29  1  0  0  0  0
 16 30  1  0  0  0  0
 16 31  1  0  0  0  0
M  END
> <PUBCHEM_COMPOUND_CID>
560193

> <PUBCHEM_COMPOUND_CANONICALIZED>
1

> <PUBCHEM_CACTVS_COMPLEXITY>
256

> <PUBCHEM_CACTVS_HBOND_ACCEPTOR>
6

> <PUBCHEM_CACTVS_HBOND_DONOR>
1

> <PUBCHEM_CACTVS_ROTATABLE_BOND>
8

> <PUBCHEM_CACTVS_SUBSKEYS>
AAADceByOAJgAAAAAAAAAAAAAAAAAAAAAAAAAAAAAAAAAAAAAAAAHgQQACAACACFwAaCAALAARgIQAEQEIAAAAAAABAAAIEIAAAAAAAAAAAEAAAAEgAgAAAAAAAAAAAAAAAAAAAAAAAAAAAAAAAAAAAAAA==

> <PUBCHEM_IUPAC_OPENEYE_NAME>
2-(2-dimethoxyphosphorylsulfanylethylsulfanyl)-N-methyl-propanamide

> <PUBCHEM_IUPAC_CAS_NAME>
2-[2-(dimethoxyphosphorylthio)ethylthio]-N-methylpropanamide

> <PUBCHEM_IUPAC_NAME>
2-(2-dimethoxyphosphorylsulfanylethylsulfanyl)-N-methylpropanamide

> <PUBCHEM_IUPAC_SYSTEMATIC_NAME>
2-(2-dimethoxyphosphorylsulfanylethylsulfanyl)-N-methyl-propanamide

> <PUBCHEM_IUPAC_TRADITIONAL_NAME>
2-[2-(dimethoxyphosphorylthio)ethylthio]-N-methyl-propionamide

> <PUBCHEM_IUPAC_INCHI>
InChI=1S/C8H18NO4PS2/c1-7(8(10)9-2)15-5-6-16-14(11,12-3)13-4/h7H,5-6H2,1-4H3,(H,9,10)

> <PUBCHEM_IUPAC_INCHIKEY>
LESVOLZBIFDZGS-UHFFFAOYSA-N

> <PUBCHEM_XLOGP3_AA>
0.3

> <PUBCHEM_EXACT_MASS>
287.041487

> <PUBCHEM_MOLECULAR_FORMULA>
C8H18NO4PS2

> <PUBCHEM_MOLECULAR_WEIGHT>
287.336582

> <PUBCHEM_OPENEYE_CAN_SMILES>
CC(C(=O)NC)SCCSP(=O)(OC)OC

> <PUBCHEM_OPENEYE_ISO_SMILES>
CC(C(=O)NC)SCCSP(=O)(OC)OC

> <PUBCHEM_CACTVS_TPSA>
115

> <PUBCHEM_MONOISOTOPIC_WEIGHT>
287.041487

> <PUBCHEM_TOTAL_CHARGE>
0

> <PUBCHEM_HEAVY_ATOM_COUNT>
16

> <PUBCHEM_ATOM_DEF_STEREO_COUNT>
0

> <PUBCHEM_ATOM_UDEF_STEREO_COUNT>
1

> <PUBCHEM_BOND_DEF_STEREO_COUNT>
0

> <PUBCHEM_BOND_UDEF_STEREO_COUNT>
0

> <PUBCHEM_ISOTOPIC_ATOM_COUNT>
0

> <PUBCHEM_COMPONENT_COUNT>
1

> <PUBCHEM_CACTVS_TAUTO_COUNT>
2

> <PUBCHEM_COORDINATE_TYPE>
1
5
255

> <PUBCHEM_BONDANNOTATIONS>
9  12  3

$$$$

