23931
  -OEChem-07051212452D

  1  0  0     0  0  0  0  0  0999 V2000
    2.0000    0.0000    0.0000 Hg  0  0  0  0  0  0  0  0  0  0  0  0
M  END
> <PUBCHEM_COMPOUND_CID>
23931

> <PUBCHEM_COMPOUND_CANONICALIZED>
1

> <PUBCHEM_CACTVS_COMPLEXITY>
0

> <PUBCHEM_CACTVS_HBOND_ACCEPTOR>
0

> <PUBCHEM_CACTVS_HBOND_DONOR>
0

> <PUBCHEM_CACTVS_ROTATABLE_BOND>
0

> <PUBCHEM_CACTVS_SUBSKEYS>
AAADcQAAAAAAAAAAAAAAAQAAAAAAAAAAAAAAAAAAAAAAAAAAAAAAAAAAAAAAAAAAAAAAAAAAAAAAAAAAAAAAAAAAAAAAAAAAAAAAAAAAAAAAAAAAAAAAAAAAAAAAAAAAAAAAAAAAAAAAAAAAAAAAAAAAAA==

> <PUBCHEM_IUPAC_OPENEYE_NAME>
mercury

> <PUBCHEM_IUPAC_CAS_NAME>
mercury

> <PUBCHEM_IUPAC_NAME>
mercury

> <PUBCHEM_IUPAC_SYSTEMATIC_NAME>
mercury

> <PUBCHEM_IUPAC_TRADITIONAL_NAME>
mercury

> <PUBCHEM_IUPAC_INCHI>
InChI=1S/Hg

> <PUBCHEM_IUPAC_INCHIKEY>
QSHDDOUJBYECFT-UHFFFAOYSA-N

> <PUBCHEM_EXACT_MASS>
201.970643

> <PUBCHEM_MOLECULAR_FORMULA>
Hg

> <PUBCHEM_MOLECULAR_WEIGHT>
200.59

> <PUBCHEM_OPENEYE_CAN_SMILES>
[Hg]

> <PUBCHEM_OPENEYE_ISO_SMILES>
[Hg]

> <PUBCHEM_CACTVS_TPSA>
0

> <PUBCHEM_MONOISOTOPIC_WEIGHT>
201.970643

> <PUBCHEM_TOTAL_CHARGE>
0

> <PUBCHEM_HEAVY_ATOM_COUNT>
1

> <PUBCHEM_ATOM_DEF_STEREO_COUNT>
0

> <PUBCHEM_ATOM_UDEF_STEREO_COUNT>
0

> <PUBCHEM_BOND_DEF_STEREO_COUNT>
0

> <PUBCHEM_BOND_UDEF_STEREO_COUNT>
0

> <PUBCHEM_ISOTOPIC_ATOM_COUNT>
0

> <PUBCHEM_COMPONENT_COUNT>
1

> <PUBCHEM_CACTVS_TAUTO_COUNT>
1

> <PUBCHEM_COORDINATE_TYPE>
1
5
255

$$$$

