443275
  -OEChem-07051213012D

 44 48  0     0  0  0  0  0  0999 V2000
    3.6464   -1.6725    0.0000 O   0  0  0  0  0  0  0  0  0  0  0  0
    4.9355   -2.8292    0.0000 O   0  0  0  0  0  0  0  0  0  0  0  0
    6.2712   -1.3406    0.0000 N   0  0  0  0  0  0  0  0  0  0  0  0
    7.0082    0.3264    0.0000 N   0  0  0  0  0  0  0  0  0  0  0  0
    8.7403   -0.6736    0.0000 N   0  0  0  0  0  0  0  0  0  0  0  0
    6.6763   -2.2484    0.0000 C   0  0  0  0  0  0  0  0  0  0  0  0
    7.0082   -0.6736    0.0000 C   0  0  0  0  0  0  0  0  0  0  0  0
    7.6650   -2.1454    0.0000 C   0  0  0  0  0  0  0  0  0  0  0  0
    7.8742   -1.1736    0.0000 C   0  0  0  0  0  0  0  0  0  0  0  0
    5.2927   -1.1344    0.0000 C   0  0  0  0  0  0  0  0  0  0  0  0
    7.8742    0.8264    0.0000 C   0  0  0  0  0  0  0  0  0  0  0  0
    8.7403    0.3264    0.0000 C   0  0  0  0  0  0  0  0  0  0  0  0
    6.2398   -3.1874    0.0000 C   0  0  0  0  0  0  0  0  0  0  0  0
    8.2858   -2.9741    0.0000 C   0  0  0  0  0  0  0  0  0  0  0  0
    8.7562    2.3957    0.0000 C   0  0  0  0  0  0  0  0  0  0  0  0
    9.6583    1.8749    0.0000 C   0  0  0  0  0  0  0  0  0  0  0  0
    7.8582    1.8679    0.0000 C   0  0  0  0  0  0  0  0  0  0  0  0
    9.6503    0.8333    0.0000 C   0  0  0  0  0  0  0  0  0  0  0  0
    6.8412   -4.0303    0.0000 C   0  0  0  0  0  0  0  0  0  0  0  0
    7.8711   -3.9229    0.0000 C   0  0  0  0  0  0  0  0  0  0  0  0
    4.6249   -1.8787    0.0000 C   0  0  0  0  0  0  0  0  0  0  0  0
    8.7395    3.4806    0.0000 C   0  0  0  0  0  0  0  0  0  0  0  0
   10.6062    2.4028    0.0000 C   0  0  0  0  0  0  0  0  0  0  0  0
    9.6749    4.0303    0.0000 C   0  0  0  0  0  0  0  0  0  0  0  0
   10.6146    3.4878    0.0000 C   0  0  0  0  0  0  0  0  0  0  0  0
    2.9785   -2.4168    0.0000 C   0  0  0  0  0  0  0  0  0  0  0  0
    2.0000   -2.2106    0.0000 C   0  0  0  0  0  0  0  0  0  0  0  0
    5.5240   -0.5592    0.0000 H   0  0  0  0  0  0  0  0  0  0  0  0
    4.7663   -0.8068    0.0000 H   0  0  0  0  0  0  0  0  0  0  0  0
    5.6224   -3.2445    0.0000 H   0  0  0  0  0  0  0  0  0  0  0  0
    8.9017   -2.9027    0.0000 H   0  0  0  0  0  0  0  0  0  0  0  0
    7.3177    2.1717    0.0000 H   0  0  0  0  0  0  0  0  0  0  0  0
   10.1836    0.5171    0.0000 H   0  0  0  0  0  0  0  0  0  0  0  0
    6.5864   -4.5955    0.0000 H   0  0  0  0  0  0  0  0  0  0  0  0
    8.2370   -4.4234    0.0000 H   0  0  0  0  0  0  0  0  0  0  0  0
    8.1990    3.7843    0.0000 H   0  0  0  0  0  0  0  0  0  0  0  0
   11.1395    2.0866    0.0000 H   0  0  0  0  0  0  0  0  0  0  0  0
    9.6725    4.6503    0.0000 H   0  0  0  0  0  0  0  0  0  0  0  0
   11.1527    3.7957    0.0000 H   0  0  0  0  0  0  0  0  0  0  0  0
    2.7472   -2.9921    0.0000 H   0  0  0  0  0  0  0  0  0  0  0  0
    3.5049   -2.7444    0.0000 H   0  0  0  0  0  0  0  0  0  0  0  0
    2.1279   -1.6039    0.0000 H   0  0  0  0  0  0  0  0  0  0  0  0
    1.3933   -2.0827    0.0000 H   0  0  0  0  0  0  0  0  0  0  0  0
    1.8721   -2.8173    0.0000 H   0  0  0  0  0  0  0  0  0  0  0  0
  1 21  1  0  0  0  0
  1 26  1  0  0  0  0
  2 21  2  0  0  0  0
  3  6  1  0  0  0  0
  3  7  1  0  0  0  0
  3 10  1  0  0  0  0
  4  7  2  0  0  0  0
  4 11  1  0  0  0  0
  5  9  2  0  0  0  0
  5 12  1  0  0  0  0
  6  8  1  0  0  0  0
  6 13  2  0  0  0  0
  7  9  1  0  0  0  0
  8  9  1  0  0  0  0
  8 14  2  0  0  0  0
 10 21  1  0  0  0  0
 10 28  1  0  0  0  0
 10 29  1  0  0  0  0
 11 12  1  0  0  0  0
 11 17  2  0  0  0  0
 12 18  2  0  0  0  0
 13 19  1  0  0  0  0
 13 30  1  0  0  0  0
 14 20  1  0  0  0  0
 14 31  1  0  0  0  0
 15 16  1  0  0  0  0
 15 17  1  0  0  0  0
 15 22  2  0  0  0  0
 16 18  1  0  0  0  0
 16 23  2  0  0  0  0
 17 32  1  0  0  0  0
 18 33  1  0  0  0  0
 19 20  2  0  0  0  0
 19 34  1  0  0  0  0
 20 35  1  0  0  0  0
 22 24  1  0  0  0  0
 22 36  1  0  0  0  0
 23 25  1  0  0  0  0
 23 37  1  0  0  0  0
 24 25  2  0  0  0  0
 24 38  1  0  0  0  0
 25 39  1  0  0  0  0
 26 27  1  0  0  0  0
 26 40  1  0  0  0  0
 26 41  1  0  0  0  0
 27 42  1  0  0  0  0
 27 43  1  0  0  0  0
 27 44  1  0  0  0  0
M  END
> <PUBCHEM_COMPOUND_CID>
443275

> <PUBCHEM_COMPOUND_CANONICALIZED>
1

> <PUBCHEM_CACTVS_COMPLEXITY>
556

> <PUBCHEM_CACTVS_HBOND_ACCEPTOR>
4

> <PUBCHEM_CACTVS_HBOND_DONOR>
0

> <PUBCHEM_CACTVS_ROTATABLE_BOND>
4

> <PUBCHEM_CACTVS_SUBSKEYS>
AAADceB7MAAAAAAAAAAAAAAAAAAAAWAAAAA8YMEAAAAAAFjx/gAAHgAAAAAADAjhnwYz+P8MFACoAybybACCgC0hEqAJ2CC4dJiKaOLA2fGXJAhogALYyCcQgIAOiAAAQAASACAQAACAACQAQAAAAAAAAA==

> <PUBCHEM_IUPAC_INCHI>
InChI=1S/C22H17N3O2/c1-2-27-20(26)13-25-19-10-6-5-9-16(19)21-22(25)24-18-12-15-8-4-3-7-14(15)11-17(18)23-21/h3-12H,2,13H2,1H3

> <PUBCHEM_IUPAC_INCHIKEY>
AKCPGFVZRKPWCP-UHFFFAOYSA-N

> <PUBCHEM_XLOGP3_AA>
4

> <PUBCHEM_EXACT_MASS>
355.132077

> <PUBCHEM_MOLECULAR_FORMULA>
C22H17N3O2

> <PUBCHEM_MOLECULAR_WEIGHT>
355.38928

> <PUBCHEM_OPENEYE_CAN_SMILES>
CCOC(=O)CN1C2=CC=CC=C2C3=NC4=CC5=CC=CC=C5C=C4N=C31

> <PUBCHEM_OPENEYE_ISO_SMILES>
CCOC(=O)CN1C2=CC=CC=C2C3=NC4=CC5=CC=CC=C5C=C4N=C31

> <PUBCHEM_CACTVS_TPSA>
57

> <PUBCHEM_MONOISOTOPIC_WEIGHT>
355.132077

> <PUBCHEM_TOTAL_CHARGE>
0

> <PUBCHEM_HEAVY_ATOM_COUNT>
27

> <PUBCHEM_ATOM_DEF_STEREO_COUNT>
0

> <PUBCHEM_ATOM_UDEF_STEREO_COUNT>
0

> <PUBCHEM_BOND_DEF_STEREO_COUNT>
0

> <PUBCHEM_BOND_UDEF_STEREO_COUNT>
0

> <PUBCHEM_ISOTOPIC_ATOM_COUNT>
0

> <PUBCHEM_COMPONENT_COUNT>
1

> <PUBCHEM_CACTVS_TAUTO_COUNT>
1

> <PUBCHEM_COORDINATE_TYPE>
1
5
255

> <PUBCHEM_BONDANNOTATIONS>
11  12  8
11  17  8
12  18  8
13  19  8
14  20  8
15  16  8
15  17  8
15  22  8
16  18  8
16  23  8
19  20  8
22  24  8
23  25  8
24  25  8
3  6  8
3  7  8
4  11  8
4  7  8
5  12  8
5  9  8
6  13  8
6  8  8
7  9  8
8  14  8
8  9  8

$$$$

