146302
  -OEChem-07051212452D

 45 47  0     1  0  0  0  0  0999 V2000
    5.0474    1.6098    0.0000 P   0  0  3  0  0  0  0  0  0  0  0  0
    5.4104    3.3034    0.0000 P   0  0  3  0  0  0  0  0  0  0  0  0
    5.7735    4.9970    0.0000 P   0  0  0  0  0  0  0  0  0  0  0  0
    4.4026   -1.8433    0.0000 O   0  0  0  0  0  0  0  0  0  0  0  0
    6.7523   -0.7596    0.0000 O   0  0  0  0  0  0  0  0  0  0  0  0
    5.3548    0.6582    0.0000 O   0  0  0  0  0  0  0  0  0  0  0  0
    4.7400    2.5614    0.0000 O   0  0  0  0  0  0  0  0  0  0  0  0
    5.9990    1.9172    0.0000 O   0  0  0  0  0  0  0  0  0  0  0  0
    4.0958    1.3025    0.0000 O   0  0  0  0  0  0  0  0  0  0  0  0
    2.8660   -6.4086    0.0000 O   0  0  0  0  0  0  0  0  0  0  0  0
    6.0809    4.0454    0.0000 O   0  0  0  0  0  0  0  0  0  0  0  0
    4.6685    3.9738    0.0000 O   0  0  0  0  0  0  0  0  0  0  0  0
    6.1524    2.6330    0.0000 O   0  0  0  0  0  0  0  0  0  0  0  0
    5.4661    5.9486    0.0000 O   0  0  0  0  0  0  0  0  0  0  0  0
    6.7251    5.3044    0.0000 O   0  0  0  0  0  0  0  0  0  0  0  0
    4.8219    4.6896    0.0000 O   0  0  0  0  0  0  0  0  0  0  0  0
    4.6783   -3.6039    0.0000 N   0  0  0  0  0  0  0  0  0  0  0  0
    4.6783   -5.2133    0.0000 N   0  0  0  0  0  0  0  0  0  0  0  0
    2.8660   -3.4086    0.0000 N   0  0  0  0  0  0  0  0  0  0  0  0
    2.0000   -4.9086    0.0000 N   0  0  0  0  0  0  0  0  0  0  0  0
    5.9422   -1.3460    0.0000 C   0  0  2  0  0  0  0  0  0  0  0  0
    4.9889   -2.6534    0.0000 C   0  0  1  0  0  0  0  0  0  0  0  0
    4.9917   -1.0353    0.0000 C   0  0  1  0  0  0  0  0  0  0  0  0
    5.9405   -2.3460    0.0000 C   0  0  0  0  0  0  0  0  0  0  0  0
    4.6844   -0.0837    0.0000 C   0  0  0  0  0  0  0  0  0  0  0  0
    3.7320   -3.9086    0.0000 C   0  0  0  0  0  0  0  0  0  0  0  0
    5.2619   -4.4086    0.0000 C   0  0  0  0  0  0  0  0  0  0  0  0
    3.7320   -4.9086    0.0000 C   0  0  0  0  0  0  0  0  0  0  0  0
    2.8660   -5.4086    0.0000 C   0  0  0  0  0  0  0  0  0  0  0  0
    2.0000   -3.9086    0.0000 C   0  0  0  0  0  0  0  0  0  0  0  0
    6.4942   -1.6284    0.0000 H   0  0  0  0  0  0  0  0  0  0  0  0
    5.4266   -3.0925    0.0000 H   0  0  0  0  0  0  0  0  0  0  0  0
    4.3795   -0.9373    0.0000 H   0  0  0  0  0  0  0  0  0  0  0  0
    6.0684   -2.9527    0.0000 H   0  0  0  0  0  0  0  0  0  0  0  0
    6.5572   -2.2822    0.0000 H   0  0  0  0  0  0  0  0  0  0  0  0
    4.3035    0.4055    0.0000 H   0  0  0  0  0  0  0  0  0  0  0  0
    4.1364   -0.3739    0.0000 H   0  0  0  0  0  0  0  0  0  0  0  0
    7.3182   -1.0128    0.0000 H   0  0  0  0  0  0  0  0  0  0  0  0
    5.8819   -4.4086    0.0000 H   0  0  0  0  0  0  0  0  0  0  0  0
    2.8660   -2.7886    0.0000 H   0  0  0  0  0  0  0  0  0  0  0  0
    1.4631   -3.5986    0.0000 H   0  0  0  0  0  0  0  0  0  0  0  0
    6.4590    1.5016    0.0000 H   0  0  0  0  0  0  0  0  0  0  0  0
    4.0785    3.7833    0.0000 H   0  0  0  0  0  0  0  0  0  0  0  0
    5.8818    6.4086    0.0000 H   0  0  0  0  0  0  0  0  0  0  0  0
    7.1851    4.8887    0.0000 H   0  0  0  0  0  0  0  0  0  0  0  0
  1  6  1  0  0  0  0
  1  7  1  0  0  0  0
  1  8  1  0  0  0  0
  1  9  2  0  0  0  0
  2  7  1  0  0  0  0
  2 11  1  0  0  0  0
  2 12  1  0  0  0  0
  2 13  2  0  0  0  0
  3 11  1  0  0  0  0
  3 14  1  0  0  0  0
  3 15  1  0  0  0  0
  3 16  2  0  0  0  0
  4 22  1  0  0  0  0
  4 23  1  0  0  0  0
 21  5  1  1  0  0  0
  5 38  1  0  0  0  0
  6 25  1  0  0  0  0
  8 42  1  0  0  0  0
 10 29  2  0  0  0  0
 12 43  1  0  0  0  0
 14 44  1  0  0  0  0
 15 45  1  0  0  0  0
 22 17  1  6  0  0  0
 17 26  1  0  0  0  0
 17 27  1  0  0  0  0
 18 27  2  0  0  0  0
 18 28  1  0  0  0  0
 19 26  1  0  0  0  0
 19 30  1  0  0  0  0
 19 40  1  0  0  0  0
 20 29  1  0  0  0  0
 20 30  2  0  0  0  0
 21 23  1  0  0  0  0
 21 24  1  0  0  0  0
 21 31  1  0  0  0  0
 22 24  1  0  0  0  0
 22 32  1  0  0  0  0
 23 25  1  6  0  0  0
 23 33  1  0  0  0  0
 24 34  1  0  0  0  0
 24 35  1  0  0  0  0
 25 36  1  0  0  0  0
 25 37  1  0  0  0  0
 26 28  2  0  0  0  0
 27 39  1  0  0  0  0
 28 29  1  0  0  0  0
 30 41  1  0  0  0  0
M  END
> <PUBCHEM_COMPOUND_CID>
146302

> <PUBCHEM_COMPOUND_CANONICALIZED>
1

> <PUBCHEM_CACTVS_COMPLEXITY>
849

> <PUBCHEM_CACTVS_HBOND_ACCEPTOR>
14

> <PUBCHEM_CACTVS_HBOND_DONOR>
6

> <PUBCHEM_CACTVS_ROTATABLE_BOND>
8

> <PUBCHEM_CACTVS_SUBSKEYS>
AAADccBzvAMAAAAAAAAAAAAAAAAAAWJAAAAgAAAAAAAAAEABgAAAHgAQCCAACBzhlgYFsBfMFxCoQQdxdICAgC0XEKABUIGoVECBWApAyCAeQIAPAALDAGCwMAIAAAAAAAAAAAAAAAAAAAAAAAAAAAAAAA==

> <PUBCHEM_IUPAC_OPENEYE_NAME>
[hydroxy-[[(2R,3S,5R)-3-hydroxy-5-(6-oxo-3H-purin-9-yl)tetrahydrofuran-2-yl]methoxy]phosphoryl] phosphono hydrogen phosphate

> <PUBCHEM_IUPAC_CAS_NAME>
[hydroxy-[[(2R,3S,5R)-3-hydroxy-5-(6-oxo-3H-purin-9-yl)-2-oxolanyl]methoxy]phosphoryl] phosphono hydrogen phosphate

> <PUBCHEM_IUPAC_NAME>
[hydroxy-[[(2R,3S,5R)-3-hydroxy-5-(6-oxo-3H-purin-9-yl)oxolan-2-yl]methoxy]phosphoryl] phosphono hydrogen phosphate

> <PUBCHEM_IUPAC_SYSTEMATIC_NAME>
[(2R,3S,5R)-3-oxidanyl-5-(6-oxidanylidene-3H-purin-9-yl)oxolan-2-yl]methyl [oxidanyl(phosphonooxy)phosphoryl] hydrogen phosphate

> <PUBCHEM_IUPAC_TRADITIONAL_NAME>
[hydroxy-[[(2R,3S,5R)-3-hydroxy-5-(6-keto-3H-purin-9-yl)tetrahydrofuran-2-yl]methoxy]phosphoryl] phosphono hydrogen phosphate

> <PUBCHEM_IUPAC_INCHI>
InChI=1S/C10H15N4O13P3/c15-5-1-7(14-4-13-8-9(14)11-3-12-10(8)16)25-6(5)2-24-29(20,21)27-30(22,23)26-28(17,18)19/h3-7,15H,1-2H2,(H,20,21)(H,22,23)(H,11,12,16)(H2,17,18,19)/t5-,6+,7+/m0/s1

> <PUBCHEM_IUPAC_INCHIKEY>
UFJPAQSLHAGEBL-RRKCRQDMSA-N

> <PUBCHEM_XLOGP3>
-5.5

> <PUBCHEM_EXACT_MASS>
491.984846

> <PUBCHEM_MOLECULAR_FORMULA>
C10H15N4O13P3

> <PUBCHEM_MOLECULAR_WEIGHT>
492.166386

> <PUBCHEM_OPENEYE_CAN_SMILES>
C1C(C(OC1N2C=NC3=C2NC=NC3=O)COP(=O)(O)OP(=O)(O)OP(=O)(O)O)O

> <PUBCHEM_OPENEYE_ISO_SMILES>
C1[C@@H]([C@H](O[C@H]1N2C=NC3=C2NC=NC3=O)COP(=O)(O)OP(=O)(O)OP(=O)(O)O)O

> <PUBCHEM_CACTVS_TPSA>
249

> <PUBCHEM_MONOISOTOPIC_WEIGHT>
491.984846

> <PUBCHEM_TOTAL_CHARGE>
0

> <PUBCHEM_HEAVY_ATOM_COUNT>
30

> <PUBCHEM_ATOM_DEF_STEREO_COUNT>
3

> <PUBCHEM_ATOM_UDEF_STEREO_COUNT>
0

> <PUBCHEM_BOND_DEF_STEREO_COUNT>
0

> <PUBCHEM_BOND_UDEF_STEREO_COUNT>
0

> <PUBCHEM_ISOTOPIC_ATOM_COUNT>
0

> <PUBCHEM_COMPONENT_COUNT>
1

> <PUBCHEM_CACTVS_TAUTO_COUNT>
3

> <PUBCHEM_COORDINATE_TYPE>
1
5
255

> <PUBCHEM_BONDANNOTATIONS>
22  17  6
17  26  8
17  27  8
18  27  8
18  28  8
19  26  8
19  30  8
20  29  8
20  30  8
23  25  6
26  28  8
28  29  8
21  5  5

$$$$

