11954076
  -OEChem-07051213063D

 66 71  0     1  0  0  0  0  0999 V2000
   -2.8085   -0.0594   -0.8807 O   0  0  0  0  0  0  0  0  0  0  0  0
   -3.5939    0.5374    1.2489 O   0  0  0  0  0  0  0  0  0  0  0  0
   -4.4083   -2.6252    0.3046 O   0  0  0  0  0  0  0  0  0  0  0  0
   -2.1108    2.4635   -1.3927 O   0  0  0  0  0  0  0  0  0  0  0  0
    6.7457    1.6104   -0.7123 O   0  0  0  0  0  0  0  0  0  0  0  0
   -1.0632   -1.5829   -0.0190 C   0  0  1  0  0  0  0  0  0  0  0  0
   -0.4569   -0.4272    0.8130 C   0  0  2  0  0  0  0  0  0  0  0  0
    1.0413   -0.6006    1.0841 C   0  0  1  0  0  0  0  0  0  0  0  0
   -2.5516   -1.1598   -0.0125 C   0  0  1  0  0  0  0  0  0  0  0  0
    1.7935   -0.6630   -0.2822 C   0  0  2  0  0  0  0  0  0  0  0  0
   -1.4151   -0.2944    1.9976 C   0  0  0  0  0  0  0  0  0  0  0  0
   -2.7976   -0.6327    1.4000 C   0  0  1  0  0  0  0  0  0  0  0  0
   -0.3599   -1.5789   -1.3847 C   0  0  0  0  0  0  0  0  0  0  0  0
    1.1672   -1.7130   -1.2402 C   0  0  0  0  0  0  0  0  0  0  0  0
    3.3559   -0.7990   -0.1150 C   0  0  2  0  0  0  0  0  0  0  0  0
    1.5922    0.5516    1.9340 C   0  0  0  0  0  0  0  0  0  0  0  0
   -0.9027   -2.9737    0.6530 C   0  0  0  0  0  0  0  0  0  0  0  0
    3.8578    0.2578    0.8775 C   0  0  0  0  0  0  0  0  0  0  0  0
    3.0887    0.3940    2.1705 C   0  0  0  0  0  0  0  0  0  0  0  0
   -3.5117   -2.2298   -0.4387 C   0  0  0  0  0  0  0  0  0  0  0  0
   -3.5284    0.9258   -0.1284 C   0  0  2  0  0  0  0  0  0  0  0  0
    4.0175   -0.5788   -1.5066 C   0  0  0  0  0  0  0  0  0  0  0  0
    3.7609   -2.1923    0.4170 C   0  0  0  0  0  0  0  0  0  0  0  0
    5.5125   -0.3097   -1.4354 C   0  0  0  0  0  0  0  0  0  0  0  0
    4.9347    1.0335    0.6681 C   0  0  0  0  0  0  0  0  0  0  0  0
   -3.3260   -2.7941   -1.8212 C   0  0  0  0  0  0  0  0  0  0  0  0
   -4.9497    1.0346   -0.6722 C   0  0  0  0  0  0  0  0  0  0  0  0
   -2.7966    2.2569   -0.2416 C   0  0  0  0  0  0  0  0  0  0  0  0
    5.7924    0.8568   -0.5260 C   0  0  0  0  0  0  0  0  0  0  0  0
   -2.6771    3.3315    0.6015 C   0  0  0  0  0  0  0  0  0  0  0  0
   -1.8603    4.2677   -0.0761 C   0  0  0  0  0  0  0  0  0  0  0  0
   -1.5420    3.6930   -1.2844 C   0  0  0  0  0  0  0  0  0  0  0  0
   -0.5512    0.5059    0.2369 H   0  0  0  0  0  0  0  0  0  0  0  0
    1.2044   -1.5284    1.6423 H   0  0  0  0  0  0  0  0  0  0  0  0
    1.6184    0.3129   -0.7645 H   0  0  0  0  0  0  0  0  0  0  0  0
   -1.1540   -1.0185    2.7777 H   0  0  0  0  0  0  0  0  0  0  0  0
   -1.3844    0.7074    2.4374 H   0  0  0  0  0  0  0  0  0  0  0  0
   -3.3182   -1.3223    2.0718 H   0  0  0  0  0  0  0  0  0  0  0  0
   -0.5728   -0.6490   -1.9263 H   0  0  0  0  0  0  0  0  0  0  0  0
   -0.7088   -2.3969   -2.0207 H   0  0  0  0  0  0  0  0  0  0  0  0
    1.4063   -2.7263   -0.9026 H   0  0  0  0  0  0  0  0  0  0  0  0
    1.6030   -1.6121   -2.2404 H   0  0  0  0  0  0  0  0  0  0  0  0
    1.0845    0.5815    2.9051 H   0  0  0  0  0  0  0  0  0  0  0  0
    1.3945    1.5131    1.4422 H   0  0  0  0  0  0  0  0  0  0  0  0
    0.1394   -3.2220    0.8696 H   0  0  0  0  0  0  0  0  0  0  0  0
   -1.4460   -3.0433    1.6009 H   0  0  0  0  0  0  0  0  0  0  0  0
   -1.2784   -3.7744    0.0088 H   0  0  0  0  0  0  0  0  0  0  0  0
    3.2708   -0.4946    2.7874 H   0  0  0  0  0  0  0  0  0  0  0  0
    3.4427    1.2513    2.7563 H   0  0  0  0  0  0  0  0  0  0  0  0
    3.5429    0.2779   -2.0055 H   0  0  0  0  0  0  0  0  0  0  0  0
    3.8522   -1.4464   -2.1564 H   0  0  0  0  0  0  0  0  0  0  0  0
    3.5702   -2.9774   -0.3221 H   0  0  0  0  0  0  0  0  0  0  0  0
    4.8294   -2.2356    0.6588 H   0  0  0  0  0  0  0  0  0  0  0  0
    3.2194   -2.4622    1.3290 H   0  0  0  0  0  0  0  0  0  0  0  0
    5.8810   -0.0652   -2.4378 H   0  0  0  0  0  0  0  0  0  0  0  0
    6.0666   -1.1806   -1.0721 H   0  0  0  0  0  0  0  0  0  0  0  0
    5.2519    1.7801    1.3885 H   0  0  0  0  0  0  0  0  0  0  0  0
   -3.0303   -2.0174   -2.5299 H   0  0  0  0  0  0  0  0  0  0  0  0
   -2.5995   -3.6072   -1.8121 H   0  0  0  0  0  0  0  0  0  0  0  0
   -4.2850   -3.1950   -2.1651 H   0  0  0  0  0  0  0  0  0  0  0  0
   -5.5339    1.7784   -0.1191 H   0  0  0  0  0  0  0  0  0  0  0  0
   -4.9512    1.3033   -1.7343 H   0  0  0  0  0  0  0  0  0  0  0  0
   -5.4744    0.0773   -0.5783 H   0  0  0  0  0  0  0  0  0  0  0  0
   -3.1196    3.4345    1.5819 H   0  0  0  0  0  0  0  0  0  0  0  0
   -1.5428    5.2397    0.2727 H   0  0  0  0  0  0  0  0  0  0  0  0
   -0.9523    4.0110   -2.1316 H   0  0  0  0  0  0  0  0  0  0  0  0
  1  9  1  0  0  0  0
  1 21  1  0  0  0  0
  2 12  1  0  0  0  0
  2 21  1  0  0  0  0
  3 20  2  0  0  0  0
  4 28  1  0  0  0  0
  4 32  1  0  0  0  0
  5 29  2  0  0  0  0
  6  7  1  0  0  0  0
  6  9  1  0  0  0  0
  6 13  1  0  0  0  0
  6 17  1  0  0  0  0
  7  8  1  0  0  0  0
  7 11  1  0  0  0  0
  7 33  1  0  0  0  0
  8 10  1  0  0  0  0
  8 16  1  0  0  0  0
  8 34  1  0  0  0  0
  9 12  1  0  0  0  0
  9 20  1  0  0  0  0
 10 14  1  0  0  0  0
 10 15  1  0  0  0  0
 10 35  1  0  0  0  0
 11 12  1  0  0  0  0
 11 36  1  0  0  0  0
 11 37  1  0  0  0  0
 12 38  1  0  0  0  0
 13 14  1  0  0  0  0
 13 39  1  0  0  0  0
 13 40  1  0  0  0  0
 14 41  1  0  0  0  0
 14 42  1  0  0  0  0
 15 18  1  0  0  0  0
 15 22  1  0  0  0  0
 15 23  1  0  0  0  0
 16 19  1  0  0  0  0
 16 43  1  0  0  0  0
 16 44  1  0  0  0  0
 17 45  1  0  0  0  0
 17 46  1  0  0  0  0
 17 47  1  0  0  0  0
 18 19  1  0  0  0  0
 18 25  2  0  0  0  0
 19 48  1  0  0  0  0
 19 49  1  0  0  0  0
 20 26  1  0  0  0  0
 21 27  1  0  0  0  0
 21 28  1  0  0  0  0
 22 24  1  0  0  0  0
 22 50  1  0  0  0  0
 22 51  1  0  0  0  0
 23 52  1  0  0  0  0
 23 53  1  0  0  0  0
 23 54  1  0  0  0  0
 24 29  1  0  0  0  0
 24 55  1  0  0  0  0
 24 56  1  0  0  0  0
 25 29  1  0  0  0  0
 25 57  1  0  0  0  0
 26 58  1  0  0  0  0
 26 59  1  0  0  0  0
 26 60  1  0  0  0  0
 27 61  1  0  0  0  0
 27 62  1  0  0  0  0
 27 63  1  0  0  0  0
 28 30  2  0  0  0  0
 30 31  1  0  0  0  0
 30 64  1  0  0  0  0
 31 32  2  0  0  0  0
 31 65  1  0  0  0  0
 32 66  1  0  0  0  0
M  END
> <PUBCHEM_COMPOUND_CID>
11954076

> <PUBCHEM_CONFORMER_RMSD>
0.8

> <PUBCHEM_CONFORMER_DIVERSEORDER>
3
2
1
4

> <PUBCHEM_MMFF94_PARTIAL_CHARGES>
24
1 -0.56
12 0.28
15 0.14
18 -0.28
19 0.14
2 -0.56
20 0.45
21 0.74
24 0.06
25 -0.14
26 0.06
28 -0.04
29 0.49
3 -0.57
30 -0.15
31 -0.15
32 -0.01
4 -0.28
5 -0.57
57 0.15
64 0.15
65 0.15
66 0.15
9 0.34

> <PUBCHEM_EFFECTIVE_ROTOR_COUNT>
4

> <PUBCHEM_PHARMACOPHORE_FEATURES>
11
1 1 acceptor
1 2 acceptor
1 3 acceptor
1 4 acceptor
1 5 acceptor
5 1 2 9 12 21 rings
5 4 28 30 31 32 rings
5 6 7 9 11 12 rings
6 15 18 22 24 25 29 rings
6 6 7 8 10 13 14 rings
6 8 10 15 16 18 19 rings

> <PUBCHEM_HEAVY_ATOM_COUNT>
32

> <PUBCHEM_ATOM_DEF_STEREO_COUNT>
7

> <PUBCHEM_ATOM_UDEF_STEREO_COUNT>
1

> <PUBCHEM_BOND_DEF_STEREO_COUNT>
0

> <PUBCHEM_BOND_UDEF_STEREO_COUNT>
0

> <PUBCHEM_ISOTOPIC_ATOM_COUNT>
0

> <PUBCHEM_COMPONENT_COUNT>
1

> <PUBCHEM_CACTVS_TAUTO_COUNT>
10

> <PUBCHEM_CONFORMER_ID>
00B6679C00000003

> <PUBCHEM_MMFF94_ENERGY>
91.7896

> <PUBCHEM_FEATURE_SELFOVERLAP>
56.599

> <PUBCHEM_SHAPE_FINGERPRINT>
10165383 225 18043234937715211537
10498660 4 18341060669858174745
10670039 82 18342452682087017172
11477941 20 18336832974862377172
11578080 2 18116414024480080748
11595378 159 17846221089553782224
12107183 9 17766849699114031906
12156800 1 15619817739844568813
12403259 415 17822294539675427378
12596602 18 16988839479955974240
12788726 201 18272381831907700530
13224815 77 17749107777329291498
13583140 156 18041574614722174846
13726171 33 18337945800978805328
13911987 19 17095517379885903404
13944108 23 16823054322035901880
13994607 96 17917991707020414569
14347329 18 18337389456869064600
14713325 29 18409722989248709227
14739800 52 18130799958094929224
14856354 85 18198898116229750446
14910302 57 18113909264040729970
14955137 171 18339355268085405089
15163728 17 18267860777522611320
15324884 4 17682148507446315227
15463212 79 18341334474044946091
15575132 122 18058453269465675885
15876981 60 18200027339617847805
15961568 22 18051422773190485768
1813 80 18193003608570685215
19315092 285 14761485052741650121
20101258 96 18196362616324405619
21033648 29 17967822604667225842
21033650 10 18269531967252671286
22182313 1 17604166856326457232
22393880 68 18260544550533250342
22907989 373 18338531823179295117
22956985 138 16690740716415125307
23557571 272 18410011005518582039
23559900 14 17095525054903200026
376196 1 17195172964984733229
4098825 35 18410847781939836524
469060 322 18268975536891164595
497634 4 17604137156068572227
508706 21 18334019423032144204
5252454 2 18191021398999683217
531348 171 18337666542246858206
6201320 215 18340495543444011904
6700243 42 17684890702135868502
7237137 82 18259982639376157390
7808743 9 18340206400742038384

> <PUBCHEM_SHAPE_MULTIPOLES>
629.2
11.29
3.93
1.77
14.39
2.92
0.31
2.37
-2.66
-5.02
-1.19
0.47
-0.1
0.18

> <PUBCHEM_SHAPE_SELFOVERLAP>
1387.867

> <PUBCHEM_SHAPE_VOLUME>
336.7

> <PUBCHEM_COORDINATE_TYPE>
2
5
10

$$$$

