46173892
  -OEChem-07051213103D

 43 44  0     1  0  0  0  0  0999 V2000
    2.8801    0.8343    1.3366 O   0  0  0  0  0  0  0  0  0  0  0  0
    0.3888    0.0303    2.3038 O   0  0  0  0  0  0  0  0  0  0  0  0
    5.1049   -0.7402   -1.7898 O   0  0  0  0  0  0  0  0  0  0  0  0
    0.6278   -2.4570   -0.7017 O   0  0  0  0  0  0  0  0  0  0  0  0
   -0.7177   -2.6853    1.1112 O   0  0  0  0  0  0  0  0  0  0  0  0
   -2.2195    1.4924   -1.0398 O   0  0  0  0  0  0  0  0  0  0  0  0
    3.6614    0.8812   -0.8656 N   0  0  0  0  0  0  0  0  0  0  0  0
   -1.8323   -0.2281    0.4660 N   0  0  0  0  0  0  0  0  0  0  0  0
   -4.4092    2.2416    0.4278 N   0  0  0  0  0  0  0  0  0  0  0  0
    3.9540    1.3313    0.5020 C   0  0  2  0  0  0  0  0  0  0  0  0
    1.9840    0.0301    0.5199 C   0  0  2  0  0  0  0  0  0  0  0  0
    2.2940    0.4046   -0.9447 C   0  0  0  0  0  0  0  0  0  0  0  0
    5.2728    0.5469    0.4069 C   0  0  0  0  0  0  0  0  0  0  0  0
    0.5486    0.3130    0.9146 C   0  0  1  0  0  0  0  0  0  0  0  0
    4.7644    0.0833   -0.9708 C   0  0  0  0  0  0  0  0  0  0  0  0
   -0.4626   -0.4874    0.0874 C   0  0  1  0  0  0  0  0  0  0  0  0
   -0.2323   -1.9802    0.2359 C   0  0  0  0  0  0  0  0  0  0  0  0
   -4.0147    0.8310    0.4518 C   0  0  2  0  0  0  0  0  0  0  0  0
   -2.6066    0.7526   -0.1367 C   0  0  0  0  0  0  0  0  0  0  0  0
   -5.0400   -0.0511   -0.2991 C   0  0  0  0  0  0  0  0  0  0  0  0
   -4.7155   -1.5488   -0.2669 C   0  0  0  0  0  0  0  0  0  0  0  0
   -5.2303    0.4057   -1.7489 C   0  0  0  0  0  0  0  0  0  0  0  0
    4.0594    2.4179    0.5771 H   0  0  0  0  0  0  0  0  0  0  0  0
    2.2744   -1.0062    0.7271 H   0  0  0  0  0  0  0  0  0  0  0  0
    1.6820    1.2397   -1.2989 H   0  0  0  0  0  0  0  0  0  0  0  0
    2.2087   -0.4485   -1.6223 H   0  0  0  0  0  0  0  0  0  0  0  0
    6.1789    1.1561    0.3654 H   0  0  0  0  0  0  0  0  0  0  0  0
    5.3918   -0.2633    1.1304 H   0  0  0  0  0  0  0  0  0  0  0  0
    0.3415    1.3849    0.8107 H   0  0  0  0  0  0  0  0  0  0  0  0
   -0.3709   -0.2357   -0.9759 H   0  0  0  0  0  0  0  0  0  0  0  0
   -2.2310   -0.7776    1.2222 H   0  0  0  0  0  0  0  0  0  0  0  0
    0.6338   -0.8981    2.4557 H   0  0  0  0  0  0  0  0  0  0  0  0
   -3.9806    0.5139    1.5016 H   0  0  0  0  0  0  0  0  0  0  0  0
   -6.0081    0.0708    0.2070 H   0  0  0  0  0  0  0  0  0  0  0  0
   -5.5404   -2.1304   -0.6927 H   0  0  0  0  0  0  0  0  0  0  0  0
   -4.5634   -1.8899    0.7623 H   0  0  0  0  0  0  0  0  0  0  0  0
   -4.3133    0.2892   -2.3354 H   0  0  0  0  0  0  0  0  0  0  0  0
   -6.0072   -0.1942   -2.2365 H   0  0  0  0  0  0  0  0  0  0  0  0
   -5.5485    1.4508   -1.8114 H   0  0  0  0  0  0  0  0  0  0  0  0
   -3.8145   -1.7810   -0.8437 H   0  0  0  0  0  0  0  0  0  0  0  0
   -5.3440    2.3410    0.8219 H   0  0  0  0  0  0  0  0  0  0  0  0
   -3.7884    2.7804    1.0309 H   0  0  0  0  0  0  0  0  0  0  0  0
    0.7937   -3.4174   -0.5908 H   0  0  0  0  0  0  0  0  0  0  0  0
  1 10  1  0  0  0  0
  1 11  1  0  0  0  0
  2 14  1  0  0  0  0
  2 32  1  0  0  0  0
  3 15  2  0  0  0  0
  4 17  1  0  0  0  0
  4 43  1  0  0  0  0
  5 17  2  0  0  0  0
  6 19  2  0  0  0  0
  7 10  1  0  0  0  0
  7 12  1  0  0  0  0
  7 15  1  0  0  0  0
  8 16  1  0  0  0  0
  8 19  1  0  0  0  0
  8 31  1  0  0  0  0
  9 18  1  0  0  0  0
  9 41  1  0  0  0  0
  9 42  1  0  0  0  0
 10 13  1  0  0  0  0
 10 23  1  0  0  0  0
 11 12  1  0  0  0  0
 11 14  1  0  0  0  0
 11 24  1  0  0  0  0
 12 25  1  0  0  0  0
 12 26  1  0  0  0  0
 13 15  1  0  0  0  0
 13 27  1  0  0  0  0
 13 28  1  0  0  0  0
 14 16  1  0  0  0  0
 14 29  1  0  0  0  0
 16 17  1  0  0  0  0
 16 30  1  0  0  0  0
 18 19  1  0  0  0  0
 18 20  1  0  0  0  0
 18 33  1  0  0  0  0
 20 21  1  0  0  0  0
 20 22  1  0  0  0  0
 20 34  1  0  0  0  0
 21 35  1  0  0  0  0
 21 36  1  0  0  0  0
 21 40  1  0  0  0  0
 22 37  1  0  0  0  0
 22 38  1  0  0  0  0
 22 39  1  0  0  0  0
M  END
> <PUBCHEM_COMPOUND_CID>
46173892

> <PUBCHEM_CONFORMER_RMSD>
0.8

> <PUBCHEM_CONFORMER_DIVERSEORDER>
1
67
177
5
169
186
141
62
114
185
134
86
133
105
147
25
64
184
167
44
153
163
131
89
94
70
127
179
71
69
34
57
65
33
8
72
142
165
36
140
148
175
96
123
159
128
54
41
109
39
21
168
16
119
17
108
52
149
78
166
156
130
174
47
48
162
77
178
75
116
74
188
23
14
182
63
35
81
85
22
122
90
98
115
38
31
9
132
126
82
161
135
124
103
121
180
137
136
27
125
7
12
158
83
154
73
187
117
60
4
104
29
151
50
106
56
138
120
100
30
146
32
152
88
43
91
129
55
144
172
76
183
20
118
92
24
28
53
160
59
112
84
157
87
150
176
3
37
111
155
40
95
139
171
97
93
170
18
6
13
42
2
80
61
46
66
101
107
58
19
143
51
145
15
49
79
110
11
102
45
26
99
10
164
173
68
181
113

> <PUBCHEM_MMFF94_PARTIAL_CHARGES>
24
1 -0.54
10 0.48
11 0.28
12 0.3
13 0.05
14 0.28
15 0.58
16 0.36
17 0.66
18 0.33
19 0.57
2 -0.68
3 -0.57
31 0.37
32 0.4
4 -0.65
41 0.36
42 0.36
43 0.5
5 -0.57
6 -0.57
7 -0.59
8 -0.73
9 -0.99

> <PUBCHEM_EFFECTIVE_ROTOR_COUNT>
7.8

> <PUBCHEM_PHARMACOPHORE_FEATURES>
13
1 1 acceptor
1 2 acceptor
1 2 donor
1 3 acceptor
1 4 acceptor
1 5 acceptor
1 6 acceptor
1 8 donor
1 9 cation
1 9 donor
3 20 21 22 hydrophobe
3 4 5 17 anion
7 1 7 10 11 12 13 15 rings

> <PUBCHEM_HEAVY_ATOM_COUNT>
22

> <PUBCHEM_ATOM_DEF_STEREO_COUNT>
4

> <PUBCHEM_ATOM_UDEF_STEREO_COUNT>
1

> <PUBCHEM_BOND_DEF_STEREO_COUNT>
0

> <PUBCHEM_BOND_UDEF_STEREO_COUNT>
0

> <PUBCHEM_ISOTOPIC_ATOM_COUNT>
0

> <PUBCHEM_COMPONENT_COUNT>
1

> <PUBCHEM_CACTVS_TAUTO_COUNT>
4

> <PUBCHEM_CONFORMER_ID>
02C08EC400000001

> <PUBCHEM_MMFF94_ENERGY>
53.984

> <PUBCHEM_FEATURE_SELFOVERLAP>
66.032

> <PUBCHEM_SHAPE_FINGERPRINT>
10498660 4 18343311383282848941
10670039 82 18272085049873639076
12236239 1 17418101992167536224
12516196 113 9295283941465389773
12592029 89 18272367611714231626
12596602 18 13614232685447502301
12916748 109 18409166584551108169
13533116 47 17749106738627661742
13544653 18 6916266225767970656
13583140 156 16056594323062813369
14251751 93 18334298651904164743
15142383 8 13912590668156710203
15183329 4 18342454881094370318
17980427 23 15339119070109641807
1813 80 5689321243234803153
18186145 218 18113902666971190888
19784866 140 17022619805918948275
200 152 14923937960032393544
204376 136 15913609462677931121
20567600 247 15647062555453517781
20645477 56 18339924801643721472
20645477 70 17240752996296531756
21250096 35 7348888871268268941
21521239 73 17894635863389816463
21524375 3 18342742909610912931
221357 26 17603590725018638553
22218785 32 18407475561674723678
22854114 59 14620797102195897672
23366157 5 17771916196896915723
23402539 116 18407761443045429884
23536379 177 16443342087518790265
23559900 14 18040711442934399008
2838139 119 17632866321145042373
2916195 48 18114753650469670152
296302 2 15554454011414399285
3323516 105 17748545926850347167
4990 188 17821727243040846860
5281201 14 17603868883827175832
5374978 207 7709458321183059234
633830 44 18113907065070618141
69474 34 11095881549179578438
7495541 125 15140971599621203269
8863177 126 5688441677594691533

> <PUBCHEM_SHAPE_MULTIPOLES>
402.59
12.34
1.94
1.45
0.63
1.06
0.01
-3.39
-4.38
1.28
0.19
-0.52
0
0.55

> <PUBCHEM_SHAPE_SELFOVERLAP>
825.667

> <PUBCHEM_SHAPE_VOLUME>
231.1

> <PUBCHEM_COORDINATE_TYPE>
2
5
10

$$$$

