18779
  -OEChem-07051213142D

 33 36  0     0  0  0  0  0  0999 V2000
    4.6660    0.7182    0.0000 C   0  0  0  0  0  0  0  0  0  0  0  0
    5.5321    0.2182    0.0000 C   0  0  0  0  0  0  0  0  0  0  0  0
    3.8000    0.2182    0.0000 C   0  0  0  0  0  0  0  0  0  0  0  0
    3.8000   -0.7818    0.0000 C   0  0  0  0  0  0  0  0  0  0  0  0
    6.4421    0.7251    0.0000 C   0  0  0  0  0  0  0  0  0  0  0  0
    6.4501    1.7667    0.0000 C   0  0  0  0  0  0  0  0  0  0  0  0
    5.5321   -0.7818    0.0000 C   0  0  0  0  0  0  0  0  0  0  0  0
    4.6500    1.7597    0.0000 C   0  0  0  0  0  0  0  0  0  0  0  0
    2.9061   -1.3164    0.0000 C   0  0  0  0  0  0  0  0  0  0  0  0
    4.6660   -1.2818    0.0000 C   0  0  0  0  0  0  0  0  0  0  0  0
    5.5480    2.2875    0.0000 C   0  0  0  0  0  0  0  0  0  0  0  0
    2.9061    0.7529    0.0000 C   0  0  0  0  0  0  0  0  0  0  0  0
    7.3689    0.1610    0.0000 C   0  0  0  0  0  0  0  0  0  0  0  0
    2.0000   -0.8026    0.0000 C   0  0  0  0  0  0  0  0  0  0  0  0
    2.0000    0.2390    0.0000 C   0  0  0  0  0  0  0  0  0  0  0  0
    7.3855    2.3164    0.0000 C   0  0  0  0  0  0  0  0  0  0  0  0
    2.9176   -2.3164    0.0000 C   0  0  0  0  0  0  0  0  0  0  0  0
    8.3168    0.6889    0.0000 C   0  0  0  0  0  0  0  0  0  0  0  0
    8.3252    1.7739    0.0000 C   0  0  0  0  0  0  0  0  0  0  0  0
    6.0690   -1.0918    0.0000 H   0  0  0  0  0  0  0  0  0  0  0  0
    4.1095    2.0635    0.0000 H   0  0  0  0  0  0  0  0  0  0  0  0
    4.6660   -1.9018    0.0000 H   0  0  0  0  0  0  0  0  0  0  0  0
    5.5456    2.9075    0.0000 H   0  0  0  0  0  0  0  0  0  0  0  0
    2.9132    1.3728    0.0000 H   0  0  0  0  0  0  0  0  0  0  0  0
    7.3570   -0.4589    0.0000 H   0  0  0  0  0  0  0  0  0  0  0  0
    1.4643   -1.1147    0.0000 H   0  0  0  0  0  0  0  0  0  0  0  0
    1.4643    0.5511    0.0000 H   0  0  0  0  0  0  0  0  0  0  0  0
    7.3831    2.9364    0.0000 H   0  0  0  0  0  0  0  0  0  0  0  0
    2.2977   -2.3236    0.0000 H   0  0  0  0  0  0  0  0  0  0  0  0
    2.9248   -2.9363    0.0000 H   0  0  0  0  0  0  0  0  0  0  0  0
    3.5376   -2.3092    0.0000 H   0  0  0  0  0  0  0  0  0  0  0  0
    8.8501    0.3727    0.0000 H   0  0  0  0  0  0  0  0  0  0  0  0
    8.8633    2.0818    0.0000 H   0  0  0  0  0  0  0  0  0  0  0  0
  1  2  2  0  0  0  0
  1  3  1  0  0  0  0
  1  8  1  0  0  0  0
  2  5  1  0  0  0  0
  2  7  1  0  0  0  0
  3  4  1  0  0  0  0
  3 12  2  0  0  0  0
  4  9  2  0  0  0  0
  4 10  1  0  0  0  0
  5  6  1  0  0  0  0
  5 13  2  0  0  0  0
  6 11  1  0  0  0  0
  6 16  2  0  0  0  0
  7 10  2  0  0  0  0
  7 20  1  0  0  0  0
  8 11  2  0  0  0  0
  8 21  1  0  0  0  0
  9 14  1  0  0  0  0
  9 17  1  0  0  0  0
 10 22  1  0  0  0  0
 11 23  1  0  0  0  0
 12 15  1  0  0  0  0
 12 24  1  0  0  0  0
 13 18  1  0  0  0  0
 13 25  1  0  0  0  0
 14 15  2  0  0  0  0
 14 26  1  0  0  0  0
 15 27  1  0  0  0  0
 16 19  1  0  0  0  0
 16 28  1  0  0  0  0
 17 29  1  0  0  0  0
 17 30  1  0  0  0  0
 17 31  1  0  0  0  0
 18 19  2  0  0  0  0
 18 32  1  0  0  0  0
 19 33  1  0  0  0  0
M  END
> <PUBCHEM_COMPOUND_CID>
18779

> <PUBCHEM_COMPOUND_CANONICALIZED>
1

> <PUBCHEM_CACTVS_COMPLEXITY>
320

> <PUBCHEM_CACTVS_HBOND_ACCEPTOR>
0

> <PUBCHEM_CACTVS_HBOND_DONOR>
0

> <PUBCHEM_CACTVS_ROTATABLE_BOND>
0

> <PUBCHEM_CACTVS_SUBSKEYS>
AAADccB4AAAAAAAAAAAAAAAAAAAAAAAAAAAwYMGAAAAAAADBVAAAGAAAAAAADACAGAAyAMAAAACAAiBCAAACAAAgAAAIiAAAAIgIICKAERCAIAAggAAIiAcAgMAOwAACAAAQAACAAAQAACAAAAAAAAAAAA==

> <PUBCHEM_IUPAC_OPENEYE_NAME>
1-methylchrysene

> <PUBCHEM_IUPAC_CAS_NAME>
1-methylchrysene

> <PUBCHEM_IUPAC_NAME>
1-methylchrysene

> <PUBCHEM_IUPAC_SYSTEMATIC_NAME>
1-methylchrysene

> <PUBCHEM_IUPAC_TRADITIONAL_NAME>
1-methylchrysene

> <PUBCHEM_IUPAC_INCHI>
InChI=1S/C19H14/c1-13-5-4-8-17-15(13)11-12-18-16-7-3-2-6-14(16)9-10-19(17)18/h2-12H,1H3

> <PUBCHEM_IUPAC_INCHIKEY>
LQKGSLMFGWWLIU-UHFFFAOYSA-N

> <PUBCHEM_XLOGP3>
6.4

> <PUBCHEM_EXACT_MASS>
242.10955

> <PUBCHEM_MOLECULAR_FORMULA>
C19H14

> <PUBCHEM_MOLECULAR_WEIGHT>
242.31446

> <PUBCHEM_OPENEYE_CAN_SMILES>
CC1=CC=CC2=C1C=CC3=C2C=CC4=CC=CC=C43

> <PUBCHEM_OPENEYE_ISO_SMILES>
CC1=CC=CC2=C1C=CC3=C2C=CC4=CC=CC=C43

> <PUBCHEM_CACTVS_TPSA>
0

> <PUBCHEM_MONOISOTOPIC_WEIGHT>
242.10955

> <PUBCHEM_TOTAL_CHARGE>
0

> <PUBCHEM_HEAVY_ATOM_COUNT>
19

> <PUBCHEM_ATOM_DEF_STEREO_COUNT>
0

> <PUBCHEM_ATOM_UDEF_STEREO_COUNT>
0

> <PUBCHEM_BOND_DEF_STEREO_COUNT>
0

> <PUBCHEM_BOND_UDEF_STEREO_COUNT>
0

> <PUBCHEM_ISOTOPIC_ATOM_COUNT>
0

> <PUBCHEM_COMPONENT_COUNT>
1

> <PUBCHEM_CACTVS_TAUTO_COUNT>
1

> <PUBCHEM_COORDINATE_TYPE>
1
5
255

> <PUBCHEM_BONDANNOTATIONS>
1  2  8
1  3  8
1  8  8
12  15  8
13  18  8
14  15  8
16  19  8
18  19  8
2  5  8
2  7  8
3  12  8
3  4  8
4  10  8
4  9  8
5  13  8
5  6  8
6  11  8
6  16  8
7  10  8
8  11  8
9  14  8

$$$$

