586308
  -OEChem-06241222462D

 32 34  0     0  0  0  0  0  0999 V2000
    2.8660   -3.7673    0.0000 Cl  0  0  0  0  0  0  0  0  0  0  0  0
    2.8660    0.2327    0.0000 S   0  0  0  0  0  0  0  0  0  0  0  0
    2.0000    3.7327    0.0000 F   0  0  0  0  0  0  0  0  0  0  0  0
    5.4920    1.6980    0.0000 O   0  0  0  0  0  0  0  0  0  0  0  0
    6.3981    3.2535    0.0000 O   0  0  0  0  0  0  0  0  0  0  0  0
    4.5981    2.2327    0.0000 C   0  0  0  0  0  0  0  0  0  0  0  0
    4.5981    3.2327    0.0000 C   0  0  0  0  0  0  0  0  0  0  0  0
    3.7320    1.7327    0.0000 C   0  0  0  0  0  0  0  0  0  0  0  0
    5.4920    3.7673    0.0000 C   0  0  0  0  0  0  0  0  0  0  0  0
    3.7320    0.7327    0.0000 C   0  0  0  0  0  0  0  0  0  0  0  0
    3.7320    3.7327    0.0000 C   0  0  0  0  0  0  0  0  0  0  0  0
    2.8660    2.2327    0.0000 C   0  0  0  0  0  0  0  0  0  0  0  0
    2.8660    3.2327    0.0000 C   0  0  0  0  0  0  0  0  0  0  0  0
    6.3981    2.2118    0.0000 C   0  0  0  0  0  0  0  0  0  0  0  0
    2.8660   -0.7673    0.0000 C   0  0  0  0  0  0  0  0  0  0  0  0
    2.0000   -1.2673    0.0000 C   0  0  0  0  0  0  0  0  0  0  0  0
    3.7320   -1.2673    0.0000 C   0  0  0  0  0  0  0  0  0  0  0  0
    2.0000   -2.2673    0.0000 C   0  0  0  0  0  0  0  0  0  0  0  0
    3.7320   -2.2673    0.0000 C   0  0  0  0  0  0  0  0  0  0  0  0
    2.8660   -2.7673    0.0000 C   0  0  0  0  0  0  0  0  0  0  0  0
    5.8856    4.2463    0.0000 H   0  0  0  0  0  0  0  0  0  0  0  0
    5.0874    4.2371    0.0000 H   0  0  0  0  0  0  0  0  0  0  0  0
    3.9441    0.1501    0.0000 H   0  0  0  0  0  0  0  0  0  0  0  0
    4.3426    0.8403    0.0000 H   0  0  0  0  0  0  0  0  0  0  0  0
    3.7320    4.3527    0.0000 H   0  0  0  0  0  0  0  0  0  0  0  0
    2.3291    1.9227    0.0000 H   0  0  0  0  0  0  0  0  0  0  0  0
    6.6071    1.6282    0.0000 H   0  0  0  0  0  0  0  0  0  0  0  0
    7.0089    2.3180    0.0000 H   0  0  0  0  0  0  0  0  0  0  0  0
    1.4631   -0.9573    0.0000 H   0  0  0  0  0  0  0  0  0  0  0  0
    4.2690   -0.9573    0.0000 H   0  0  0  0  0  0  0  0  0  0  0  0
    1.4631   -2.5773    0.0000 H   0  0  0  0  0  0  0  0  0  0  0  0
    4.2690   -2.5773    0.0000 H   0  0  0  0  0  0  0  0  0  0  0  0
  1 20  1  0  0  0  0
  2 10  1  0  0  0  0
  2 15  1  0  0  0  0
  3 13  1  0  0  0  0
  4  6  1  0  0  0  0
  4 14  1  0  0  0  0
  5  9  1  0  0  0  0
  5 14  1  0  0  0  0
  6  7  2  0  0  0  0
  6  8  1  0  0  0  0
  7  9  1  0  0  0  0
  7 11  1  0  0  0  0
  8 10  1  0  0  0  0
  8 12  2  0  0  0  0
  9 21  1  0  0  0  0
  9 22  1  0  0  0  0
 10 23  1  0  0  0  0
 10 24  1  0  0  0  0
 11 13  2  0  0  0  0
 11 25  1  0  0  0  0
 12 13  1  0  0  0  0
 12 26  1  0  0  0  0
 14 27  1  0  0  0  0
 14 28  1  0  0  0  0
 15 16  2  0  0  0  0
 15 17  1  0  0  0  0
 16 18  1  0  0  0  0
 16 29  1  0  0  0  0
 17 19  2  0  0  0  0
 17 30  1  0  0  0  0
 18 20  2  0  0  0  0
 18 31  1  0  0  0  0
 19 20  1  0  0  0  0
 19 32  1  0  0  0  0
M  END
> <PUBCHEM_COMPOUND_CID>
586308

> <PUBCHEM_COMPOUND_CANONICALIZED>
1

> <PUBCHEM_CACTVS_COMPLEXITY>
312

> <PUBCHEM_CACTVS_HBOND_ACCEPTOR>
4

> <PUBCHEM_CACTVS_HBOND_DONOR>
0

> <PUBCHEM_CACTVS_ROTATABLE_BOND>
3

> <PUBCHEM_CACTVS_SUBSKEYS>
AAADccBwMQBEAAAAAAAAAAAAAAAAAAAAAAA0YIAAAAAAAACRQAAAGwYAAAAADAak2CuwD4AABAiAAiBCAAACCAAgLRAIiBgECogcJyKlMxqgMCAlwBEsqAeAwGAOAAICAAAIAAAABAQAABAAAAAAAAAAAA==

> <PUBCHEM_IUPAC_OPENEYE_NAME>
8-[(4-chlorophenyl)sulfanylmethyl]-6-fluoro-4H-1,3-benzodioxine

> <PUBCHEM_IUPAC_CAS_NAME>
8-[[(4-chlorophenyl)thio]methyl]-6-fluoro-4H-1,3-benzodioxin

> <PUBCHEM_IUPAC_NAME>
8-[(4-chlorophenyl)sulfanylmethyl]-6-fluoro-4H-1,3-benzodioxine

> <PUBCHEM_IUPAC_SYSTEMATIC_NAME>
8-[(4-chlorophenyl)sulfanylmethyl]-6-fluoranyl-4H-1,3-benzodioxine

> <PUBCHEM_IUPAC_TRADITIONAL_NAME>
8-[[(4-chlorophenyl)thio]methyl]-6-fluoro-4H-1,3-benzodioxin

> <PUBCHEM_IUPAC_INCHI>
InChI=1S/C15H12ClFO2S/c16-12-1-3-14(4-2-12)20-8-11-6-13(17)5-10-7-18-9-19-15(10)11/h1-6H,7-9H2

> <PUBCHEM_IUPAC_INCHIKEY>
OFEDXVORMVUYFI-UHFFFAOYSA-N

> <PUBCHEM_XLOGP3_AA>
4.1

> <PUBCHEM_EXACT_MASS>
310.023057

> <PUBCHEM_MOLECULAR_FORMULA>
C15H12ClFO2S

> <PUBCHEM_MOLECULAR_WEIGHT>
310.770983

> <PUBCHEM_OPENEYE_CAN_SMILES>
C1C2=CC(=CC(=C2OCO1)CSC3=CC=C(C=C3)Cl)F

> <PUBCHEM_OPENEYE_ISO_SMILES>
C1C2=CC(=CC(=C2OCO1)CSC3=CC=C(C=C3)Cl)F

> <PUBCHEM_CACTVS_TPSA>
43.8

> <PUBCHEM_MONOISOTOPIC_WEIGHT>
310.023057

> <PUBCHEM_TOTAL_CHARGE>
0

> <PUBCHEM_HEAVY_ATOM_COUNT>
20

> <PUBCHEM_ATOM_DEF_STEREO_COUNT>
0

> <PUBCHEM_ATOM_UDEF_STEREO_COUNT>
0

> <PUBCHEM_BOND_DEF_STEREO_COUNT>
0

> <PUBCHEM_BOND_UDEF_STEREO_COUNT>
0

> <PUBCHEM_ISOTOPIC_ATOM_COUNT>
0

> <PUBCHEM_COMPONENT_COUNT>
1

> <PUBCHEM_CACTVS_TAUTO_COUNT>
1

> <PUBCHEM_COORDINATE_TYPE>
1
5
255

> <PUBCHEM_BONDANNOTATIONS>
11  13  8
12  13  8
15  16  8
15  17  8
16  18  8
17  19  8
18  20  8
19  20  8
6  7  8
6  8  8
7  11  8
8  12  8

$$$$

