88693
  -OEChem-07051213032D

 34 34  0     0  0  0  0  0  0999 V2000
    3.3660    1.7500    0.0000 O   0  0  0  0  0  0  0  0  0  0  0  0
    4.8660    0.8840    0.0000 O   0  0  0  0  0  0  0  0  0  0  0  0
    2.8660    0.8840    0.0000 C   0  0  0  0  0  0  0  0  0  0  0  0
    2.8660   -1.1160    0.0000 C   0  0  0  0  0  0  0  0  0  0  0  0
    2.0000    0.3840    0.0000 C   0  0  0  0  0  0  0  0  0  0  0  0
    3.7320    0.3840    0.0000 C   0  0  0  0  0  0  0  0  0  0  0  0
    2.0000   -0.6160    0.0000 C   0  0  0  0  0  0  0  0  0  0  0  0
    3.7320   -0.6160    0.0000 C   0  0  0  0  0  0  0  0  0  0  0  0
    2.3660    1.7500    0.0000 C   0  0  0  0  0  0  0  0  0  0  0  0
    2.8660   -2.1160    0.0000 C   0  0  0  0  0  0  0  0  0  0  0  0
    2.0000   -2.6160    0.0000 C   0  0  0  0  0  0  0  0  0  0  0  0
    3.7320   -2.6160    0.0000 C   0  0  0  0  0  0  0  0  0  0  0  0
    4.3660    1.7500    0.0000 C   0  0  0  0  0  0  0  0  0  0  0  0
    4.8660    2.6160    0.0000 C   0  0  0  0  0  0  0  0  0  0  0  0
    3.4030   -1.4260    0.0000 H   0  0  0  0  0  0  0  0  0  0  0  0
    1.7880    0.9666    0.0000 H   0  0  0  0  0  0  0  0  0  0  0  0
    1.3894    0.2763    0.0000 H   0  0  0  0  0  0  0  0  0  0  0  0
    4.3426    0.2763    0.0000 H   0  0  0  0  0  0  0  0  0  0  0  0
    3.9441    0.9666    0.0000 H   0  0  0  0  0  0  0  0  0  0  0  0
    1.3894   -0.5084    0.0000 H   0  0  0  0  0  0  0  0  0  0  0  0
    3.9441   -1.1986    0.0000 H   0  0  0  0  0  0  0  0  0  0  0  0
    4.3426   -0.5084    0.0000 H   0  0  0  0  0  0  0  0  0  0  0  0
    1.7880   -1.1986    0.0000 H   0  0  0  0  0  0  0  0  0  0  0  0
    2.9030    2.0600    0.0000 H   0  0  0  0  0  0  0  0  0  0  0  0
    2.0560    2.2869    0.0000 H   0  0  0  0  0  0  0  0  0  0  0  0
    1.8291    1.4400    0.0000 H   0  0  0  0  0  0  0  0  0  0  0  0
    1.6900   -2.0791    0.0000 H   0  0  0  0  0  0  0  0  0  0  0  0
    1.4631   -2.9260    0.0000 H   0  0  0  0  0  0  0  0  0  0  0  0
    2.3100   -3.1530    0.0000 H   0  0  0  0  0  0  0  0  0  0  0  0
    3.7320   -3.2360    0.0000 H   0  0  0  0  0  0  0  0  0  0  0  0
    4.2690   -2.3060    0.0000 H   0  0  0  0  0  0  0  0  0  0  0  0
    5.4030    2.3060    0.0000 H   0  0  0  0  0  0  0  0  0  0  0  0
    5.1760    3.1530    0.0000 H   0  0  0  0  0  0  0  0  0  0  0  0
    4.3291    2.9260    0.0000 H   0  0  0  0  0  0  0  0  0  0  0  0
  1  3  1  0  0  0  0
  1 13  1  0  0  0  0
  2 13  2  0  0  0  0
  3  5  1  0  0  0  0
  3  6  1  0  0  0  0
  3  9  1  0  0  0  0
  4  7  1  0  0  0  0
  4  8  1  0  0  0  0
  4 10  1  0  0  0  0
  4 15  1  0  0  0  0
  5  7  1  0  0  0  0
  5 16  1  0  0  0  0
  5 17  1  0  0  0  0
  6  8  1  0  0  0  0
  6 18  1  0  0  0  0
  6 19  1  0  0  0  0
  7 20  1  0  0  0  0
  7 23  1  0  0  0  0
  8 21  1  0  0  0  0
  8 22  1  0  0  0  0
  9 24  1  0  0  0  0
  9 25  1  0  0  0  0
  9 26  1  0  0  0  0
 10 11  1  0  0  0  0
 10 12  2  0  0  0  0
 11 27  1  0  0  0  0
 11 28  1  0  0  0  0
 11 29  1  0  0  0  0
 12 30  1  0  0  0  0
 12 31  1  0  0  0  0
 13 14  1  0  0  0  0
 14 32  1  0  0  0  0
 14 33  1  0  0  0  0
 14 34  1  0  0  0  0
M  END
> <PUBCHEM_COMPOUND_CID>
88693

> <PUBCHEM_COMPOUND_CANONICALIZED>
1

> <PUBCHEM_CACTVS_COMPLEXITY>
235

> <PUBCHEM_CACTVS_HBOND_ACCEPTOR>
2

> <PUBCHEM_CACTVS_HBOND_DONOR>
0

> <PUBCHEM_CACTVS_ROTATABLE_BOND>
3

> <PUBCHEM_CACTVS_SUBSKEYS>
AAADceBwMAAAAAAAAAAAAAAAAAAAAAAAAAAwAAAAAAAAAAAAAAAAGgAAAAAADUSAgAACCAAABACIAgDSCAAAAAAgAAAAAAAAAAgAAAIAAQACAAAEgAAAAAGAwMAOAAAAAAAAAADAAAAAAAAAAAAAAAAAAA==

> <PUBCHEM_IUPAC_OPENEYE_NAME>
(4-isopropenyl-1-methyl-cyclohexyl) acetate

> <PUBCHEM_IUPAC_CAS_NAME>
acetic acid [1-methyl-4-(1-methylethenyl)cyclohexyl] ester

> <PUBCHEM_IUPAC_NAME>
(1-methyl-4-prop-1-en-2-ylcyclohexyl) acetate

> <PUBCHEM_IUPAC_SYSTEMATIC_NAME>
(1-methyl-4-prop-1-en-2-yl-cyclohexyl) ethanoate

> <PUBCHEM_IUPAC_TRADITIONAL_NAME>
acetic acid (4-isopropenyl-1-methyl-cyclohexyl) ester

> <PUBCHEM_IUPAC_INCHI>
InChI=1S/C12H20O2/c1-9(2)11-5-7-12(4,8-6-11)14-10(3)13/h11H,1,5-8H2,2-4H3

> <PUBCHEM_IUPAC_INCHIKEY>
URVNHQCLMBMWIW-UHFFFAOYSA-N

> <PUBCHEM_XLOGP3_AA>
3.1

> <PUBCHEM_EXACT_MASS>
196.14633

> <PUBCHEM_MOLECULAR_FORMULA>
C12H20O2

> <PUBCHEM_MOLECULAR_WEIGHT>
196.286

> <PUBCHEM_OPENEYE_CAN_SMILES>
CC(=C)C1CCC(CC1)(C)OC(=O)C

> <PUBCHEM_OPENEYE_ISO_SMILES>
CC(=C)C1CCC(CC1)(C)OC(=O)C

> <PUBCHEM_CACTVS_TPSA>
26.3

> <PUBCHEM_MONOISOTOPIC_WEIGHT>
196.14633

> <PUBCHEM_TOTAL_CHARGE>
0

> <PUBCHEM_HEAVY_ATOM_COUNT>
14

> <PUBCHEM_ATOM_DEF_STEREO_COUNT>
0

> <PUBCHEM_ATOM_UDEF_STEREO_COUNT>
0

> <PUBCHEM_BOND_DEF_STEREO_COUNT>
0

> <PUBCHEM_BOND_UDEF_STEREO_COUNT>
0

> <PUBCHEM_ISOTOPIC_ATOM_COUNT>
0

> <PUBCHEM_COMPONENT_COUNT>
1

> <PUBCHEM_CACTVS_TAUTO_COUNT>
1

> <PUBCHEM_COORDINATE_TYPE>
1
5
255

$$$$

