5460816
  -OEChem-07051213012D

 73 77  0     1  0  0  0  0  0999 V2000
    6.7535   -1.2005    0.0000 S   0  0  0  0  0  0  0  0  0  0  0  0
    7.5630   -2.7758    0.0000 O   0  0  0  0  0  0  0  0  0  0  0  0
    9.0859   -3.8875    0.0000 O   0  0  0  0  0  0  0  0  0  0  0  0
    8.8088   -0.5287    0.0000 O   0  0  0  0  0  0  0  0  0  0  0  0
   10.8821   -1.0413    0.0000 O   0  0  0  0  0  0  0  0  0  0  0  0
   12.6302   -4.0828    0.0000 O   0  0  0  0  0  0  0  0  0  0  0  0
   11.7763    0.4865    0.0000 O   0  0  0  0  0  0  0  0  0  0  0  0
   13.9882    0.2236    0.0000 O   0  0  0  0  0  0  0  0  0  0  0  0
    3.3080   -0.8414    0.0000 O   0  0  0  0  0  0  0  0  0  0  0  0
    3.4117    0.1532    0.0000 O   0  0  0  0  0  0  0  0  0  0  0  0
    2.0838   -4.2327    0.0000 O   0  0  0  0  0  0  0  0  0  0  0  0
    3.0169    4.7188    0.0000 O   0  0  0  0  0  0  0  0  0  0  0  0
    3.8066   -4.4123    0.0000 O   0  0  0  0  0  0  0  0  0  0  0  0
    2.0000    3.3166    0.0000 O   0  0  0  0  0  0  0  0  0  0  0  0
    5.1344   -0.0263    0.0000 N   0  0  0  0  0  0  0  0  0  0  0  0
    4.0139   -2.4231    0.0000 N   0  0  0  0  0  0  0  0  0  0  0  0
    4.6359    3.5446    0.0000 N   0  0  0  0  0  0  0  0  0  0  0  0
    9.0859   -2.2780    0.0000 C   0  0  3  0  0  0  0  0  0  0  0  0
    8.5023   -3.0828    0.0000 C   0  0  3  0  0  0  0  0  0  0  0  0
    8.5023   -1.4806    0.0000 C   0  0  2  0  0  0  0  0  0  0  0  0
   10.0321   -2.5828    0.0000 C   0  0  0  0  0  0  0  0  0  0  0  0
    7.5630   -1.7876    0.0000 C   0  0  2  0  0  0  0  0  0  0  0  0
   10.0321   -3.5828    0.0000 C   0  0  0  0  0  0  0  0  0  0  0  0
   10.8982   -2.0828    0.0000 C   0  0  0  0  0  0  0  0  0  0  0  0
   11.7642   -2.5828    0.0000 C   0  0  0  0  0  0  0  0  0  0  0  0
   10.8982   -4.0828    0.0000 C   0  0  0  0  0  0  0  0  0  0  0  0
   12.6742   -2.0759    0.0000 C   0  0  0  0  0  0  0  0  0  0  0  0
   11.7642   -3.5828    0.0000 C   0  0  0  0  0  0  0  0  0  0  0  0
   13.6573   -2.4009    0.0000 C   0  0  0  0  0  0  0  0  0  0  0  0
   12.6822   -1.0343    0.0000 C   0  0  0  0  0  0  0  0  0  0  0  0
    5.8403   -1.6080    0.0000 C   0  0  0  0  0  0  0  0  0  0  0  0
   14.2717   -1.5674    0.0000 C   0  0  0  0  0  0  0  0  0  0  0  0
   11.7801   -0.5135    0.0000 C   0  0  0  0  0  0  0  0  0  0  0  0
   13.6702   -0.7245    0.0000 C   0  0  0  0  0  0  0  0  0  0  0  0
    5.0308   -1.0209    0.0000 C   0  0  3  0  0  0  0  0  0  0  0  0
    4.1176   -1.4285    0.0000 C   0  0  0  0  0  0  0  0  0  0  0  0
   12.6302   -5.0828    0.0000 C   0  0  0  0  0  0  0  0  0  0  0  0
    4.3249    0.5608    0.0000 C   0  0  0  0  0  0  0  0  0  0  0  0
    4.4286    1.5554    0.0000 C   0  0  0  0  0  0  0  0  0  0  0  0
    3.6190    2.1425    0.0000 C   0  0  0  0  0  0  0  0  0  0  0  0
    3.1007   -2.8306    0.0000 C   0  0  0  0  0  0  0  0  0  0  0  0
    3.7227    3.1371    0.0000 C   0  0  3  0  0  0  0  0  0  0  0  0
    2.9970   -3.8252    0.0000 C   0  0  0  0  0  0  0  0  0  0  0  0
    2.9132    3.7242    0.0000 C   0  0  0  0  0  0  0  0  0  0  0  0
    9.4488   -1.7753    0.0000 H   0  0  0  0  0  0  0  0  0  0  0  0
    8.1372   -3.5839    0.0000 H   0  0  0  0  0  0  0  0  0  0  0  0
    8.0630   -1.0431    0.0000 H   0  0  0  0  0  0  0  0  0  0  0  0
    7.0107   -2.0693    0.0000 H   0  0  0  0  0  0  0  0  0  0  0  0
   10.8982   -4.7028    0.0000 H   0  0  0  0  0  0  0  0  0  0  0  0
    8.3928   -0.0691    0.0000 H   0  0  0  0  0  0  0  0  0  0  0  0
   13.4019   -2.9659    0.0000 H   0  0  0  0  0  0  0  0  0  0  0  0
   14.1923   -2.7143    0.0000 H   0  0  0  0  0  0  0  0  0  0  0  0
    5.3947   -2.0391    0.0000 H   0  0  0  0  0  0  0  0  0  0  0  0
    6.1874   -2.1217    0.0000 H   0  0  0  0  0  0  0  0  0  0  0  0
   14.7293   -1.9857    0.0000 H   0  0  0  0  0  0  0  0  0  0  0  0
   14.7357   -1.1562    0.0000 H   0  0  0  0  0  0  0  0  0  0  0  0
    4.5289   -0.6569    0.0000 H   0  0  0  0  0  0  0  0  0  0  0  0
    5.7006    0.2263    0.0000 H   0  0  0  0  0  0  0  0  0  0  0  0
   12.0102   -5.0828    0.0000 H   0  0  0  0  0  0  0  0  0  0  0  0
   12.6302   -5.7028    0.0000 H   0  0  0  0  0  0  0  0  0  0  0  0
   13.2502   -5.0828    0.0000 H   0  0  0  0  0  0  0  0  0  0  0  0
    4.5158   -2.7871    0.0000 H   0  0  0  0  0  0  0  0  0  0  0  0
    5.0247    1.3850    0.0000 H   0  0  0  0  0  0  0  0  0  0  0  0
    4.6999    2.1129    0.0000 H   0  0  0  0  0  0  0  0  0  0  0  0
    3.0229    2.3128    0.0000 H   0  0  0  0  0  0  0  0  0  0  0  0
    3.3477    1.5850    0.0000 H   0  0  0  0  0  0  0  0  0  0  0  0
    2.9502   -2.2291    0.0000 H   0  0  0  0  0  0  0  0  0  0  0  0
    2.4823   -2.8744    0.0000 H   0  0  0  0  0  0  0  0  0  0  0  0
    4.2246    2.7731    0.0000 H   0  0  0  0  0  0  0  0  0  0  0  0
    4.7002    4.1613    0.0000 H   0  0  0  0  0  0  0  0  0  0  0  0
    5.1378    3.1806    0.0000 H   0  0  0  0  0  0  0  0  0  0  0  0
    2.0196   -4.8494    0.0000 H   0  0  0  0  0  0  0  0  0  0  0  0
    2.5150    5.0828    0.0000 H   0  0  0  0  0  0  0  0  0  0  0  0
 22  1  1  1  0  0  0
  1 31  1  0  0  0  0
  2 19  1  0  0  0  0
  2 22  1  0  0  0  0
  3 19  1  0  0  0  0
  3 23  1  0  0  0  0
 20  4  1  6  0  0  0
  4 50  1  0  0  0  0
  5 24  1  0  0  0  0
  5 33  1  0  0  0  0
  6 28  1  0  0  0  0
  6 37  1  0  0  0  0
  7 33  2  0  0  0  0
  8 34  2  0  0  0  0
  9 36  2  0  0  0  0
 10 38  2  0  0  0  0
 11 43  1  0  0  0  0
 11 72  1  0  0  0  0
 12 44  1  0  0  0  0
 12 73  1  0  0  0  0
 13 43  2  0  0  0  0
 14 44  2  0  0  0  0
 15 35  1  0  0  0  0
 15 38  1  0  0  0  0
 15 58  1  0  0  0  0
 16 36  1  0  0  0  0
 16 41  1  0  0  0  0
 16 62  1  0  0  0  0
 17 42  1  0  0  0  0
 17 70  1  0  0  0  0
 17 71  1  0  0  0  0
 18 19  1  0  0  0  0
 18 20  1  0  0  0  0
 18 21  1  0  0  0  0
 18 45  1  0  0  0  0
 19 46  1  0  0  0  0
 20 22  1  0  0  0  0
 20 47  1  0  0  0  0
 21 23  1  0  0  0  0
 21 24  2  0  0  0  0
 22 48  1  0  0  0  0
 23 26  2  0  0  0  0
 24 25  1  0  0  0  0
 25 27  1  0  0  0  0
 25 28  2  0  0  0  0
 26 28  1  0  0  0  0
 26 49  1  0  0  0  0
 27 29  1  0  0  0  0
 27 30  2  0  0  0  0
 29 32  1  0  0  0  0
 29 51  1  0  0  0  0
 29 52  1  0  0  0  0
 30 33  1  0  0  0  0
 30 34  1  0  0  0  0
 31 35  1  0  0  0  0
 31 53  1  0  0  0  0
 31 54  1  0  0  0  0
 32 34  1  0  0  0  0
 32 55  1  0  0  0  0
 32 56  1  0  0  0  0
 35 36  1  0  0  0  0
 35 57  1  0  0  0  0
 37 59  1  0  0  0  0
 37 60  1  0  0  0  0
 37 61  1  0  0  0  0
 38 39  1  0  0  0  0
 39 40  1  0  0  0  0
 39 63  1  0  0  0  0
 39 64  1  0  0  0  0
 40 42  1  0  0  0  0
 40 65  1  0  0  0  0
 40 66  1  0  0  0  0
 41 43  1  0  0  0  0
 41 67  1  0  0  0  0
 41 68  1  0  0  0  0
 42 44  1  0  0  0  0
 42 69  1  0  0  0  0
M  END
> <PUBCHEM_COMPOUND_CID>
5460816

> <PUBCHEM_COMPOUND_CANONICALIZED>
1

> <PUBCHEM_CACTVS_COMPLEXITY>
1260

> <PUBCHEM_CACTVS_HBOND_ACCEPTOR>
15

> <PUBCHEM_CACTVS_HBOND_DONOR>
6

> <PUBCHEM_CACTVS_ROTATABLE_BOND>
12

> <PUBCHEM_CACTVS_SUBSKEYS>
AAADceB7PABAAAAAAAAAAAAAAAAAASJEAAAwQAAAAAASAEiBAAAAHgQQCAAADTz12AeyDoLABgiIAqHSGAACCAAgIBAAiIGOCMgfdzassDq2eiCl9hW/qQfc//6OoAACCAAIAABAAAQQABAAAAAAAAAAAA==

> <PUBCHEM_IUPAC_INCHI>
InChI=1S/C27H29N3O13S/c1-40-13-6-14-19(22-18(13)9-2-4-12(31)17(9)25(39)42-22)20-21(35)27(43-26(20)41-14)44-8-11(23(36)29-7-16(33)34)30-15(32)5-3-10(28)24(37)38/h6,10-11,20-21,26-27,35H,2-5,7-8,28H2,1H3,(H,29,36)(H,30,32)(H,33,34)(H,37,38)/t10?,11?,20?,21-,26?,27+/m1/s1

> <PUBCHEM_IUPAC_INCHIKEY>
LYDBAPNRLUDIAS-NCQSKUNESA-N

> <PUBCHEM_XLOGP3_AA>
-3.8

> <PUBCHEM_EXACT_MASS>
635.142109

> <PUBCHEM_MOLECULAR_FORMULA>
C27H29N3O13S

> <PUBCHEM_MOLECULAR_WEIGHT>
635.59646

> <PUBCHEM_OPENEYE_CAN_SMILES>
COC1=C2C3=C(C(=O)CC3)C(=O)OC2=C4C5C(C(OC5OC4=C1)SCC(C(=O)NCC(=O)O)NC(=O)CCC(C(=O)O)N)O

> <PUBCHEM_OPENEYE_ISO_SMILES>
COC1=C2C3=C(C(=O)CC3)C(=O)OC2=C4C5[C@H]([C@@H](OC5OC4=C1)SCC(C(=O)NCC(=O)O)NC(=O)CCC(C(=O)O)N)O

> <PUBCHEM_CACTVS_TPSA>
275

> <PUBCHEM_MONOISOTOPIC_WEIGHT>
635.142109

> <PUBCHEM_TOTAL_CHARGE>
0

> <PUBCHEM_HEAVY_ATOM_COUNT>
44

> <PUBCHEM_ATOM_DEF_STEREO_COUNT>
2

> <PUBCHEM_ATOM_UDEF_STEREO_COUNT>
4

> <PUBCHEM_BOND_DEF_STEREO_COUNT>
0

> <PUBCHEM_BOND_UDEF_STEREO_COUNT>
0

> <PUBCHEM_ISOTOPIC_ATOM_COUNT>
0

> <PUBCHEM_COMPONENT_COUNT>
1

> <PUBCHEM_CACTVS_TAUTO_COUNT>
40

> <PUBCHEM_COORDINATE_TYPE>
1
5
255

> <PUBCHEM_BONDANNOTATIONS>
22  1  5
42  17  3
18  21  3
21  23  8
21  24  8
23  26  8
24  25  8
25  27  8
25  28  8
26  28  8
27  30  8
19  3  3
30  33  8
35  31  3
20  4  6
5  24  8
5  33  8

$$$$

