47759
  -OEChem-07051213123D

 52 53  0     0  0  0  0  0  0999 V2000
    3.5701   -0.4984    0.4491 S   0  0  0  0  0  0  0  0  0  0  0  0
   -1.1529   -1.0111   -1.2146 O   0  0  0  0  0  0  0  0  0  0  0  0
    0.7213   -0.7129    0.9287 O   0  0  0  0  0  0  0  0  0  0  0  0
    2.2776    2.0280    0.1980 O   0  0  0  0  0  0  0  0  0  0  0  0
    0.7115   -3.0064    1.2382 O   0  0  0  0  0  0  0  0  0  0  0  0
    1.7368    1.8717   -2.0179 O   0  0  0  0  0  0  0  0  0  0  0  0
    2.7307   -1.9559    0.7779 N   0  0  0  0  0  0  0  0  0  0  0  0
    2.8682    0.1282   -0.9843 N   0  0  0  0  0  0  0  0  0  0  0  0
   -2.3971   -0.9192   -1.9671 C   0  0  0  0  0  0  0  0  0  0  0  0
   -3.5843   -1.0530   -0.9849 C   0  0  0  0  0  0  0  0  0  0  0  0
   -2.8836   -0.8280    0.2995 C   0  0  0  0  0  0  0  0  0  0  0  0
   -1.5143   -0.8391    0.0955 C   0  0  0  0  0  0  0  0  0  0  0  0
   -2.3993   -2.0521   -2.9946 C   0  0  0  0  0  0  0  0  0  0  0  0
   -2.4079    0.4366   -2.6846 C   0  0  0  0  0  0  0  0  0  0  0  0
   -3.4105   -0.6719    1.5689 C   0  0  0  0  0  0  0  0  0  0  0  0
   -0.6188   -0.6967    1.1381 C   0  0  0  0  0  0  0  0  0  0  0  0
   -2.5242   -0.5175    2.6380 C   0  0  0  0  0  0  0  0  0  0  0  0
   -1.1365   -0.5306    2.4239 C   0  0  0  0  0  0  0  0  0  0  0  0
    1.3499   -1.9815    0.9994 C   0  0  0  0  0  0  0  0  0  0  0  0
    0.1947    3.1565    0.6031 C   0  0  0  0  0  0  0  0  0  0  0  0
   -0.5282    4.4996    0.6494 C   0  0  0  0  0  0  0  0  0  0  0  0
    1.6635    3.3210    0.2391 C   0  0  0  0  0  0  0  0  0  0  0  0
   -2.0041    4.3270    0.9708 C   0  0  0  0  0  0  0  0  0  0  0  0
    3.5393   -3.1654    0.8130 C   0  0  0  0  0  0  0  0  0  0  0  0
    2.2525    1.3838   -1.0131 C   0  0  0  0  0  0  0  0  0  0  0  0
    2.9458   -0.7128   -2.1695 C   0  0  0  0  0  0  0  0  0  0  0  0
   -4.0195   -2.0582   -0.9965 H   0  0  0  0  0  0  0  0  0  0  0  0
   -4.3714   -0.3160   -1.1706 H   0  0  0  0  0  0  0  0  0  0  0  0
   -3.3115   -2.0444   -3.5998 H   0  0  0  0  0  0  0  0  0  0  0  0
   -2.3169   -3.0265   -2.4997 H   0  0  0  0  0  0  0  0  0  0  0  0
   -1.5351   -1.9732   -3.6640 H   0  0  0  0  0  0  0  0  0  0  0  0
   -1.5271    0.5422   -3.3282 H   0  0  0  0  0  0  0  0  0  0  0  0
   -2.3651    1.2634   -1.9664 H   0  0  0  0  0  0  0  0  0  0  0  0
   -3.3055    0.5583   -3.2994 H   0  0  0  0  0  0  0  0  0  0  0  0
   -4.4820   -0.6734    1.7367 H   0  0  0  0  0  0  0  0  0  0  0  0
   -2.9110   -0.3909    3.6455 H   0  0  0  0  0  0  0  0  0  0  0  0
   -0.4663   -0.4111    3.2714 H   0  0  0  0  0  0  0  0  0  0  0  0
   -0.2938    2.4952   -0.1232 H   0  0  0  0  0  0  0  0  0  0  0  0
    0.1141    2.6473    1.5715 H   0  0  0  0  0  0  0  0  0  0  0  0
   -0.0665    5.1449    1.4056 H   0  0  0  0  0  0  0  0  0  0  0  0
   -0.4300    5.0090   -0.3164 H   0  0  0  0  0  0  0  0  0  0  0  0
    1.7974    3.8623   -0.7047 H   0  0  0  0  0  0  0  0  0  0  0  0
    2.1808    3.8976    1.0135 H   0  0  0  0  0  0  0  0  0  0  0  0
   -2.5014    3.7129    0.2130 H   0  0  0  0  0  0  0  0  0  0  0  0
   -2.5026    5.3009    0.9999 H   0  0  0  0  0  0  0  0  0  0  0  0
   -2.1395    3.8461    1.9449 H   0  0  0  0  0  0  0  0  0  0  0  0
    4.0216   -3.3068   -0.1593 H   0  0  0  0  0  0  0  0  0  0  0  0
    2.9228   -4.0424    1.0282 H   0  0  0  0  0  0  0  0  0  0  0  0
    4.2988   -3.0708    1.5953 H   0  0  0  0  0  0  0  0  0  0  0  0
    2.2922   -1.5807   -2.0396 H   0  0  0  0  0  0  0  0  0  0  0  0
    2.6182   -0.1650   -3.0574 H   0  0  0  0  0  0  0  0  0  0  0  0
    3.9781   -1.0422   -2.3236 H   0  0  0  0  0  0  0  0  0  0  0  0
  1  7  1  0  0  0  0
  1  8  1  0  0  0  0
  2  9  1  0  0  0  0
  2 12  1  0  0  0  0
  3 16  1  0  0  0  0
  3 19  1  0  0  0  0
  4 22  1  0  0  0  0
  4 25  1  0  0  0  0
  5 19  2  0  0  0  0
  6 25  2  0  0  0  0
  7 19  1  0  0  0  0
  7 24  1  0  0  0  0
  8 25  1  0  0  0  0
  8 26  1  0  0  0  0
  9 10  1  0  0  0  0
  9 13  1  0  0  0  0
  9 14  1  0  0  0  0
 10 11  1  0  0  0  0
 10 27  1  0  0  0  0
 10 28  1  0  0  0  0
 11 12  2  0  0  0  0
 11 15  1  0  0  0  0
 12 16  1  0  0  0  0
 13 29  1  0  0  0  0
 13 30  1  0  0  0  0
 13 31  1  0  0  0  0
 14 32  1  0  0  0  0
 14 33  1  0  0  0  0
 14 34  1  0  0  0  0
 15 17  2  0  0  0  0
 15 35  1  0  0  0  0
 16 18  2  0  0  0  0
 17 18  1  0  0  0  0
 17 36  1  0  0  0  0
 18 37  1  0  0  0  0
 20 21  1  0  0  0  0
 20 22  1  0  0  0  0
 20 38  1  0  0  0  0
 20 39  1  0  0  0  0
 21 23  1  0  0  0  0
 21 40  1  0  0  0  0
 21 41  1  0  0  0  0
 22 42  1  0  0  0  0
 22 43  1  0  0  0  0
 23 44  1  0  0  0  0
 23 45  1  0  0  0  0
 23 46  1  0  0  0  0
 24 47  1  0  0  0  0
 24 48  1  0  0  0  0
 24 49  1  0  0  0  0
 26 50  1  0  0  0  0
 26 51  1  0  0  0  0
 26 52  1  0  0  0  0
M  END
> <PUBCHEM_COMPOUND_CID>
47759

> <PUBCHEM_CONFORMER_RMSD>
1.2

> <PUBCHEM_CONFORMER_DIVERSEORDER>
5
152
8
76
86
64
66
24
163
49
88
159
166
29
7
58
156
72
145
80
21
45
165
42
67
55
126
125
104
105
23
27
18
54
106
135
120
82
113
69
28
31
123
9
73
6
136
43
46
134
41
87
122
70
160
148
128
63
74
37
68
75
140
119
99
61
19
139
25
157
97
10
52
26
12
110
127
131
14
164
51
77
48
146
57
84
124
11
107
138
98
39
103
33
129
3
47
149
141
79
60
130
93
154
78
137
40
1
133
161
15
151
36
13
116
167
59
56
102
62
53
158
108
142
147
30
91
65
89
114
44
155
83
132
144
143
22
117
34
35
95
96
81
112
17
109
94
101
50
100
150
2
20
118
121
111
90
4
85
115
16
153
38
162
32
92
71

> <PUBCHEM_MMFF94_PARTIAL_CHARGES>
24
1 0.02
10 0.14
11 -0.14
12 0.08
15 -0.15
16 0.08
17 -0.15
18 -0.15
19 0.78
2 -0.36
22 0.28
24 0.3
25 0.78
26 0.3
3 -0.23
35 0.15
36 0.15
37 0.15
4 -0.43
5 -0.57
6 -0.57
7 -0.37
8 -0.37
9 0.28

> <PUBCHEM_EFFECTIVE_ROTOR_COUNT>
10.6

> <PUBCHEM_PHARMACOPHORE_FEATURES>
7
1 2 acceptor
1 23 hydrophobe
1 5 acceptor
1 6 acceptor
3 9 13 14 hydrophobe
5 2 9 10 11 12 rings
6 11 12 15 16 17 18 rings

> <PUBCHEM_HEAVY_ATOM_COUNT>
26

> <PUBCHEM_ATOM_DEF_STEREO_COUNT>
0

> <PUBCHEM_ATOM_UDEF_STEREO_COUNT>
0

> <PUBCHEM_BOND_DEF_STEREO_COUNT>
0

> <PUBCHEM_BOND_UDEF_STEREO_COUNT>
0

> <PUBCHEM_ISOTOPIC_ATOM_COUNT>
0

> <PUBCHEM_COMPONENT_COUNT>
1

> <PUBCHEM_CACTVS_TAUTO_COUNT>
1

> <PUBCHEM_CONFORMER_ID>
0000BA8F00000005

> <PUBCHEM_MMFF94_ENERGY>
62.4003

> <PUBCHEM_FEATURE_SELFOVERLAP>
35.62

> <PUBCHEM_SHAPE_FINGERPRINT>
10165383 225 17339810033998278900
104564 63 18196912565411613728
11578080 2 17246998342179787594
11582403 64 8338338710688694178
11725454 13 16910639876594790499
12156800 1 16674219901425437217
13583140 156 18049705349033432251
13911987 19 18127683834661783500
13965767 371 17750215036924926744
14251757 17 16701749362082304294
14251764 3 17550697424957331309
18219364 16 17912920582787593928
19930381 70 17907856211219477561
20600515 1 16984662538577241032
23559900 14 15913335675529760242
23598288 3 18050271858755054394
238 59 17907879304799653061
35225 105 17910651487278219213
3524813 1 17558527141895457102
6438718 38 17832993019789238362
81228 2 17336492077478657906

> <PUBCHEM_SHAPE_MULTIPOLES>
499.61
5.95
4.79
2.82
1.75
7.19
-1.12
-3.16
-0.75
0.57
1.07
-2.03
-1.43
-1.86

> <PUBCHEM_SHAPE_SELFOVERLAP>
1014.233

> <PUBCHEM_SHAPE_VOLUME>
295.7

> <PUBCHEM_COORDINATE_TYPE>
2
5
10

$$$$

