13674
  -OEChem-06241222393D

 29 30  0     0  0  0  0  0  0999 V2000
    3.1373    0.3028   -0.7555 O   0  0  0  0  0  0  0  0  0  0  0  0
   -1.2311    0.4328    0.3129 N   0  0  0  0  0  0  0  0  0  0  0  0
    2.0201    1.1066   -0.9466 N   0  0  0  0  0  0  0  0  0  0  0  0
   -1.2904   -0.5176   -0.8065 C   0  0  0  0  0  0  0  0  0  0  0  0
   -2.5141    1.1279    0.4882 C   0  0  0  0  0  0  0  0  0  0  0  0
   -2.3840   -1.5638   -0.5850 C   0  0  0  0  0  0  0  0  0  0  0  0
   -3.6476    0.1355    0.7520 C   0  0  0  0  0  0  0  0  0  0  0  0
   -3.7406   -0.9076   -0.3558 C   0  0  0  0  0  0  0  0  0  0  0  0
   -0.1505    1.3972    0.1086 C   0  0  0  0  0  0  0  0  0  0  0  0
    1.1892    0.7270    0.0083 C   0  0  0  0  0  0  0  0  0  0  0  0
    1.6791   -0.2804    0.8273 C   0  0  0  0  0  0  0  0  0  0  0  0
    2.9222   -0.5188    0.3036 C   0  0  0  0  0  0  0  0  0  0  0  0
    4.0105   -1.4416    0.6487 C   0  0  0  0  0  0  0  0  0  0  0  0
   -0.3541   -1.0716   -0.9286 H   0  0  0  0  0  0  0  0  0  0  0  0
   -1.4774    0.0088   -1.7524 H   0  0  0  0  0  0  0  0  0  0  0  0
   -2.7548    1.7339   -0.3953 H   0  0  0  0  0  0  0  0  0  0  0  0
   -2.4529    1.8105    1.3446 H   0  0  0  0  0  0  0  0  0  0  0  0
   -2.1272   -2.1863    0.2816 H   0  0  0  0  0  0  0  0  0  0  0  0
   -2.4397   -2.2311   -1.4527 H   0  0  0  0  0  0  0  0  0  0  0  0
   -4.5989    0.6733    0.8340 H   0  0  0  0  0  0  0  0  0  0  0  0
   -3.4799   -0.3665    1.7134 H   0  0  0  0  0  0  0  0  0  0  0  0
   -4.0767   -0.4278   -1.2832 H   0  0  0  0  0  0  0  0  0  0  0  0
   -4.4869   -1.6665   -0.0966 H   0  0  0  0  0  0  0  0  0  0  0  0
   -0.1052    2.0865    0.9620 H   0  0  0  0  0  0  0  0  0  0  0  0
   -0.3364    2.0078   -0.7857 H   0  0  0  0  0  0  0  0  0  0  0  0
    1.2195   -0.7702    1.6730 H   0  0  0  0  0  0  0  0  0  0  0  0
    4.9208   -0.8874    0.8973 H   0  0  0  0  0  0  0  0  0  0  0  0
    3.7448   -2.0610    1.5110 H   0  0  0  0  0  0  0  0  0  0  0  0
    4.2315   -2.1073   -0.1913 H   0  0  0  0  0  0  0  0  0  0  0  0
  1  3  1  0  0  0  0
  1 12  1  0  0  0  0
  2  4  1  0  0  0  0
  2  5  1  0  0  0  0
  2  9  1  0  0  0  0
  3 10  2  0  0  0  0
  4  6  1  0  0  0  0
  4 14  1  0  0  0  0
  4 15  1  0  0  0  0
  5  7  1  0  0  0  0
  5 16  1  0  0  0  0
  5 17  1  0  0  0  0
  6  8  1  0  0  0  0
  6 18  1  0  0  0  0
  6 19  1  0  0  0  0
  7  8  1  0  0  0  0
  7 20  1  0  0  0  0
  7 21  1  0  0  0  0
  8 22  1  0  0  0  0
  8 23  1  0  0  0  0
  9 10  1  0  0  0  0
  9 24  1  0  0  0  0
  9 25  1  0  0  0  0
 10 11  1  0  0  0  0
 11 12  2  0  0  0  0
 11 26  1  0  0  0  0
 12 13  1  0  0  0  0
 13 27  1  0  0  0  0
 13 28  1  0  0  0  0
 13 29  1  0  0  0  0
M  END
> <PUBCHEM_COMPOUND_CID>
13674

> <PUBCHEM_CONFORMER_RMSD>
0.6

> <PUBCHEM_CONFORMER_DIVERSEORDER>
1
5
9
10
13
15
2
6
3
12
7
8
4
11
14

> <PUBCHEM_MMFF94_PARTIAL_CHARGES>
11
1 -0.02
10 0.11
11 -0.15
12 -0.04
13 0.18
2 -0.81
26 0.15
3 -0.41
4 0.27
5 0.27
9 0.45

> <PUBCHEM_EFFECTIVE_ROTOR_COUNT>
3.2

> <PUBCHEM_PHARMACOPHORE_FEATURES>
4
1 2 cation
1 3 acceptor
5 1 3 10 11 12 rings
6 2 4 5 6 7 8 rings

> <PUBCHEM_HEAVY_ATOM_COUNT>
13

> <PUBCHEM_ATOM_DEF_STEREO_COUNT>
0

> <PUBCHEM_ATOM_UDEF_STEREO_COUNT>
0

> <PUBCHEM_BOND_DEF_STEREO_COUNT>
0

> <PUBCHEM_BOND_UDEF_STEREO_COUNT>
0

> <PUBCHEM_ISOTOPIC_ATOM_COUNT>
0

> <PUBCHEM_COMPONENT_COUNT>
1

> <PUBCHEM_CACTVS_TAUTO_COUNT>
1

> <PUBCHEM_CONFORMER_ID>
0000356A00000001

> <PUBCHEM_MMFF94_ENERGY>
8.17

> <PUBCHEM_FEATURE_SELFOVERLAP>
20.297

> <PUBCHEM_SHAPE_FINGERPRINT>
10130415 120 18333730199986860705
11769659 78 18410860949106954587
12346177 29 17676779720879351189
124424 183 16805611407483665584
12932764 1 18411698764235782061
13581323 91 17894914035467675241
13690532 89 18408327666407190599
14144814 61 18334293150061484313
15375462 189 18412544323010497626
17804303 29 18040432200406953619
18186145 218 16128657457133838257
190213 19 18273216387150438649
19049666 15 15938075898308591073
19422 9 18341889684355886995
20279233 1 16226047799117682997
20281475 54 18411702054111899191
20361792 2 18202009814933223797
20645464 45 16370730331135887163
20645477 70 17989213641687106091
22169311 14 17313109656658633002
22485316 2 18410578383298293048
2255824 54 18272646797525886804
22646028 28 18412267237406259394
232386 152 18260551108383464638
23402655 69 17988925595415545220
23463225 33 18409447007244948503
23552423 10 17977667511602453221
23559900 14 17458334278359340612
23598291 2 18271798055837273844
465052 167 18339912707337796707
474 4 17983574096594114260
7364860 26 17824545153867538457
74978 22 18263366902080883597
77492 1 18412818079841514037
81228 2 16372108091935404224

> <PUBCHEM_SHAPE_MULTIPOLES>
251.7
7.22
1.48
0.94
1
0.13
0.03
2.61
-0.85
-0.18
0.07
0.13
0.01
-0.96

> <PUBCHEM_SHAPE_SELFOVERLAP>
514.876

> <PUBCHEM_SHAPE_VOLUME>
147.7

> <PUBCHEM_COORDINATE_TYPE>
2
5
10

$$$$

