47205706
  -OEChem-06241223003D

 29 30  0     0  0  0  0  0  0999 V2000
   -1.5241    1.8947   -0.1229 S   0  0  0  0  0  0  0  0  0  0  0  0
   -0.3916    1.9518   -1.0346 O   0  0  0  0  0  0  0  0  0  0  0  0
   -2.7047    2.7047   -0.3792 O   0  0  0  0  0  0  0  0  0  0  0  0
    0.4813   -0.5228   -1.8395 O   0  0  0  0  0  0  0  0  0  0  0  0
    1.1427   -0.5020    0.4118 N   0  0  0  0  0  0  0  0  0  0  0  0
    4.6537   -0.0333    0.8175 N   0  0  0  0  0  0  0  0  0  0  0  0
    4.6390    0.0072   -0.5258 N   0  0  0  0  0  0  0  0  0  0  0  0
   -2.0421    0.2289    0.0266 C   0  0  0  0  0  0  0  0  0  0  0  0
   -1.1690   -0.8285   -0.2288 C   0  0  0  0  0  0  0  0  0  0  0  0
   -3.3580   -0.0302    0.4097 C   0  0  0  0  0  0  0  0  0  0  0  0
   -1.6118   -2.1450   -0.1009 C   0  0  0  0  0  0  0  0  0  0  0  0
    0.2122   -0.5975   -0.6310 C   0  0  0  0  0  0  0  0  0  0  0  0
   -0.9129    2.3094    1.4939 C   0  0  0  0  0  0  0  0  0  0  0  0
   -3.8009   -1.3467    0.5376 C   0  0  0  0  0  0  0  0  0  0  0  0
   -2.9278   -2.4040    0.2823 C   0  0  0  0  0  0  0  0  0  0  0  0
    2.5432   -0.3067    0.3263 C   0  0  0  0  0  0  0  0  0  0  0  0
    3.4238   -0.2193    1.3769 C   0  0  0  0  0  0  0  0  0  0  0  0
    3.3470   -0.1604   -0.8200 C   0  0  0  0  0  0  0  0  0  0  0  0
   -4.0558    0.7746    0.6229 H   0  0  0  0  0  0  0  0  0  0  0  0
   -0.9415   -2.9781   -0.2970 H   0  0  0  0  0  0  0  0  0  0  0  0
   -0.5855    3.3513    1.4729 H   0  0  0  0  0  0  0  0  0  0  0  0
   -1.7204    2.1909    2.2189 H   0  0  0  0  0  0  0  0  0  0  0  0
   -0.0711    1.6641    1.7446 H   0  0  0  0  0  0  0  0  0  0  0  0
   -4.8249   -1.5488    0.8380 H   0  0  0  0  0  0  0  0  0  0  0  0
   -3.2725   -3.4291    0.3823 H   0  0  0  0  0  0  0  0  0  0  0  0
    0.7950   -0.5870    1.3646 H   0  0  0  0  0  0  0  0  0  0  0  0
    3.2915   -0.2713    2.4483 H   0  0  0  0  0  0  0  0  0  0  0  0
    3.0591   -0.1667   -1.8613 H   0  0  0  0  0  0  0  0  0  0  0  0
    5.5421    0.0734    1.2910 H   0  0  0  0  0  0  0  0  0  0  0  0
  1  2  2  0  0  0  0
  1  3  2  0  0  0  0
  1  8  1  0  0  0  0
  1 13  1  0  0  0  0
  4 12  2  0  0  0  0
  5 12  1  0  0  0  0
  5 16  1  0  0  0  0
  5 26  1  0  0  0  0
  6  7  1  0  0  0  0
  6 17  1  0  0  0  0
  6 29  1  0  0  0  0
  7 18  2  0  0  0  0
  8  9  1  0  0  0  0
  8 10  2  0  0  0  0
  9 11  2  0  0  0  0
  9 12  1  0  0  0  0
 10 14  1  0  0  0  0
 10 19  1  0  0  0  0
 11 15  1  0  0  0  0
 11 20  1  0  0  0  0
 13 21  1  0  0  0  0
 13 22  1  0  0  0  0
 13 23  1  0  0  0  0
 14 15  2  0  0  0  0
 14 24  1  0  0  0  0
 15 25  1  0  0  0  0
 16 17  2  0  0  0  0
 16 18  1  0  0  0  0
 17 27  1  0  0  0  0
 18 28  1  0  0  0  0
M  END
> <PUBCHEM_COMPOUND_CID>
47205706

> <PUBCHEM_CONFORMER_RMSD>
0.6

> <PUBCHEM_CONFORMER_DIVERSEORDER>
1
8
4
5
7
2
3
6

> <PUBCHEM_MMFF94_PARTIAL_CHARGES>
26
1 1.2
10 -0.15
11 -0.15
12 0.54
13 0.11
14 -0.15
15 -0.15
16 0.06
17 -0.3
18 0.14
19 0.15
2 -0.65
20 0.15
24 0.15
25 0.15
26 0.37
27 0.15
28 0.15
29 0.27
3 -0.65
4 -0.57
5 -0.49
6 0.3
7 -0.71
8 -0.01
9 0.09

> <PUBCHEM_EFFECTIVE_ROTOR_COUNT>
4

> <PUBCHEM_PHARMACOPHORE_FEATURES>
8
1 2 acceptor
1 3 acceptor
1 4 acceptor
1 5 donor
1 6 donor
1 7 acceptor
5 6 7 16 17 18 rings
6 8 9 10 11 14 15 rings

> <PUBCHEM_HEAVY_ATOM_COUNT>
18

> <PUBCHEM_ATOM_DEF_STEREO_COUNT>
0

> <PUBCHEM_ATOM_UDEF_STEREO_COUNT>
0

> <PUBCHEM_BOND_DEF_STEREO_COUNT>
0

> <PUBCHEM_BOND_UDEF_STEREO_COUNT>
0

> <PUBCHEM_ISOTOPIC_ATOM_COUNT>
0

> <PUBCHEM_COMPONENT_COUNT>
1

> <PUBCHEM_CACTVS_TAUTO_COUNT>
2

> <PUBCHEM_CONFORMER_ID>
02D04D4A00000001

> <PUBCHEM_MMFF94_ENERGY>
39.4856

> <PUBCHEM_FEATURE_SELFOVERLAP>
40.618

> <PUBCHEM_SHAPE_FINGERPRINT>
10989021 7 18268147552615572205
11132069 177 18259982656619329971
12011746 2 18333737927028632573
12186901 62 18334568079634630110
12236239 1 17632574937673387646
13140716 1 18266449907158093547
13296909 8 18272373104539228293
13583140 156 18115612433881394674
13764800 53 18187933940263030640
13897977 58 18340762668000309492
14289901 80 18343580750746550882
14420673 8 17837498814610141138
15375462 189 17846217704877011963
15375462 478 18409449150470396702
16945 1 18411703188194177591
17357779 13 18189074031073979525
17780758 139 17982483630599597898
18222031 100 18189900803525553143
19049666 15 17823969246308677126
200 152 16487263157716978490
20388701 513 18336256912299291415
20510252 161 18335699481152018299
20600515 1 18337376150848910701
21452121 71 17844800404423932877
21486144 27 16081379501312363114
21650355 55 18339925901028820099
22112679 90 18195787614628980255
2297311 6 18262785307700999198
2306618 200 17775020002093908335
23402539 116 18333737888469262511
23419403 2 18119836637196239141
23557571 272 18261096500373462630
23559900 14 18263635320478723974
2838139 119 14780373704908269323
6049 1 17967533463326677520
633830 44 14851596666398762446
69474 34 18187927218997759569
7097593 13 17771642414348758162
77492 1 17561074809052670886
81228 2 18193531524180006291
84936 182 17182506633476219161
90316 7 18413669119264030897

> <PUBCHEM_SHAPE_MULTIPOLES>
341.73
7.49
2.48
1.19
8.07
1.2
-0.02
-1.92
1.43
-3.16
0.14
0.58
0.24
0.27

> <PUBCHEM_SHAPE_SELFOVERLAP>
720.667

> <PUBCHEM_SHAPE_VOLUME>
192.9

> <PUBCHEM_COORDINATE_TYPE>
2
5
10

$$$$

