5232
  -OEChem-06261200353D

 35 34  0     1  0  0  0  0  0999 V2000
   -2.0916   -1.9233    0.9768 S   0  0  0  0  0  0  0  0  0  0  0  0
   -1.9121    2.2325   -1.6007 O   0  0  0  0  0  0  0  0  0  0  0  0
    1.3155    0.1810   -1.5169 O   0  0  0  0  0  0  0  0  0  0  0  0
   -0.9079    2.8113    0.3476 O   0  0  0  0  0  0  0  0  0  0  0  0
   -1.9020   -3.4195   -0.9194 O   0  0  0  0  0  0  0  0  0  0  0  0
    0.0759    0.2660    0.4461 N   0  0  0  0  0  0  0  0  0  0  0  0
   -2.0926   -2.2177   -0.7077 N   0  0  0  0  0  0  0  0  0  0  0  0
   -2.3947   -0.1254    0.6728 C   0  0  0  0  0  0  0  0  0  0  0  0
   -1.2212    0.4464   -0.1638 C   0  0  1  0  0  0  0  0  0  0  0  0
   -3.7612    0.0010   -0.0184 C   0  0  0  0  0  0  0  0  0  0  0  0
   -2.4635    0.5415    2.0561 C   0  0  0  0  0  0  0  0  0  0  0  0
    2.4563   -0.0295    0.6073 C   0  0  0  0  0  0  0  0  0  0  0  0
    1.2450    0.1476   -0.2914 C   0  0  0  0  0  0  0  0  0  0  0  0
    3.7556   -0.1621   -0.1838 C   0  0  0  0  0  0  0  0  0  0  0  0
   -1.3229    1.9438   -0.4110 C   0  0  0  0  0  0  0  0  0  0  0  0
    4.9609   -0.3000    0.7450 C   0  0  0  0  0  0  0  0  0  0  0  0
    6.2604   -0.3937   -0.0385 C   0  0  0  0  0  0  0  0  0  0  0  0
   -1.1761   -0.0025   -1.1636 H   0  0  0  0  0  0  0  0  0  0  0  0
   -4.5485   -0.5439    0.5163 H   0  0  0  0  0  0  0  0  0  0  0  0
   -4.0747    1.0521   -0.0430 H   0  0  0  0  0  0  0  0  0  0  0  0
   -3.7549   -0.3330   -1.0613 H   0  0  0  0  0  0  0  0  0  0  0  0
   -2.6603    1.6158    1.9715 H   0  0  0  0  0  0  0  0  0  0  0  0
   -1.5473    0.4197    2.6428 H   0  0  0  0  0  0  0  0  0  0  0  0
   -3.2852    0.1273    2.6546 H   0  0  0  0  0  0  0  0  0  0  0  0
    0.1475    0.2878    1.4583 H   0  0  0  0  0  0  0  0  0  0  0  0
    2.5126    0.8369    1.2773 H   0  0  0  0  0  0  0  0  0  0  0  0
    2.2996   -0.9232    1.2231 H   0  0  0  0  0  0  0  0  0  0  0  0
    3.8858    0.7171   -0.8274 H   0  0  0  0  0  0  0  0  0  0  0  0
    3.6972   -1.0332   -0.8482 H   0  0  0  0  0  0  0  0  0  0  0  0
    5.0118    0.5620    1.4205 H   0  0  0  0  0  0  0  0  0  0  0  0
    4.8498   -1.1947    1.3684 H   0  0  0  0  0  0  0  0  0  0  0  0
    6.4176    0.5029   -0.6466 H   0  0  0  0  0  0  0  0  0  0  0  0
    6.2556   -1.2635   -0.7033 H   0  0  0  0  0  0  0  0  0  0  0  0
    7.1091   -0.4934    0.6453 H   0  0  0  0  0  0  0  0  0  0  0  0
   -1.9645    3.1995   -1.7573 H   0  0  0  0  0  0  0  0  0  0  0  0
  1  7  1  0  0  0  0
  1  8  1  0  0  0  0
  2 15  1  0  0  0  0
  2 35  1  0  0  0  0
  3 13  2  0  0  0  0
  4 15  2  0  0  0  0
  5  7  2  0  0  0  0
  6  9  1  0  0  0  0
  6 13  1  0  0  0  0
  6 25  1  0  0  0  0
  8  9  1  0  0  0  0
  8 10  1  0  0  0  0
  8 11  1  0  0  0  0
  9 15  1  0  0  0  0
  9 18  1  0  0  0  0
 10 19  1  0  0  0  0
 10 20  1  0  0  0  0
 10 21  1  0  0  0  0
 11 22  1  0  0  0  0
 11 23  1  0  0  0  0
 11 24  1  0  0  0  0
 12 13  1  0  0  0  0
 12 14  1  0  0  0  0
 12 26  1  0  0  0  0
 12 27  1  0  0  0  0
 14 16  1  0  0  0  0
 14 28  1  0  0  0  0
 14 29  1  0  0  0  0
 16 17  1  0  0  0  0
 16 30  1  0  0  0  0
 16 31  1  0  0  0  0
 17 32  1  0  0  0  0
 17 33  1  0  0  0  0
 17 34  1  0  0  0  0
M  END
> <PUBCHEM_COMPOUND_CID>
5232

> <PUBCHEM_CONFORMER_RMSD>
0.8

> <PUBCHEM_CONFORMER_DIVERSEORDER>
1
37
273
193
57
51
249
234
74
62
40
152
263
141
185
159
160
169
238
260
139
150
203
130
106
262
179
75
33
232
50
241
135
21
166
82
80
194
201
170
149
99
69
217
228
187
145
127
269
77
8
132
239
266
133
181
272
27
200
214
91
202
265
112
5
102
205
164
109
216
267
175
256
198
78
70
115
223
153
134
108
165
188
84
186
209
258
182
58
94
195
270
142
183
2
125
41
207
275
230
65
101
250
20
54
154
213
97
191
128
92
15
218
151
254
261
196
39
163
245
257
72
124
47
123
3
143
114
180
178
199
210
76
189
96
119
52
126
226
172
264
274
225
244
131
235
236
56
171
167
268
161
211
23
83
237
88
192
79
28
246
9
113
177
220
55
38
252
6
71
93
120
168
157
100
148
121
43
105
89
155
117
26
221
104
247
255
208
174
140
144
53
64
219
31
253
147
73
86
34
197
7
146
44
116
190
204
118
87
240
95
259
24
85
248
61
16
11
35
173
136
224
251
243
13
103
233
98
25
162
158
63
156
222
111
90
49
271
81
48
227
19
242
229
110
32
137
18
184
14
66
231
68
22
10
42
176
215
67
46
129
45
206
17
30
212
60
138
12
59
107
4
29
122
36

> <PUBCHEM_MMFF94_PARTIAL_CHARGES>
14
1 -0.04
12 0.06
13 0.57
15 0.66
2 -0.65
25 0.37
3 -0.57
35 0.5
4 -0.57
5 -0.16
6 -0.73
7 -0.03
8 0.23
9 0.36

> <PUBCHEM_EFFECTIVE_ROTOR_COUNT>
9

> <PUBCHEM_PHARMACOPHORE_FEATURES>
7
1 17 hydrophobe
1 2 acceptor
1 3 acceptor
1 4 acceptor
1 6 donor
3 2 4 15 anion
3 8 10 11 hydrophobe

> <PUBCHEM_HEAVY_ATOM_COUNT>
17

> <PUBCHEM_ATOM_DEF_STEREO_COUNT>
0

> <PUBCHEM_ATOM_UDEF_STEREO_COUNT>
1

> <PUBCHEM_BOND_DEF_STEREO_COUNT>
0

> <PUBCHEM_BOND_UDEF_STEREO_COUNT>
0

> <PUBCHEM_ISOTOPIC_ATOM_COUNT>
0

> <PUBCHEM_COMPONENT_COUNT>
1

> <PUBCHEM_CACTVS_TAUTO_COUNT>
2

> <PUBCHEM_CONFORMER_ID>
0000147000000001

> <PUBCHEM_MMFF94_ENERGY>
33.9668

> <PUBCHEM_FEATURE_SELFOVERLAP>
35.579

> <PUBCHEM_SHAPE_FINGERPRINT>
10680689 15 18413387657636062618
11552529 35 17822576001999617178
12633257 1 18040703749904128448
13024252 1 16415476065172575585
13214271 11 16588021342097263328
13583140 156 18114198453554157802
14123260 362 6627471843565132746
14289901 80 18342178873769120800
16945 1 18042664166562734993
17834072 33 18131063819621320036
200 152 17561362868208822104
20600515 1 18188756293409242249
20645477 70 14404917933511895696
21339142 126 18342459239821283965
21650355 55 18334856091229974233
2306618 200 18333731338021449152
23402539 116 18261118478148429445
23419403 2 17244737492990990139
23557571 272 18261668268491237548
23559900 14 18271812281228036872
23598288 3 17631715149845626597
559249 180 17772763899240022010

> <PUBCHEM_SHAPE_MULTIPOLES>
320.26
8.95
2.54
1.33
19.16
0.7
-0.17
2.14
-1.27
-3.27
0.91
-0.87
-0.06
-0.16

> <PUBCHEM_SHAPE_SELFOVERLAP>
603.757

> <PUBCHEM_SHAPE_VOLUME>
200.1

> <PUBCHEM_COORDINATE_TYPE>
2
5
10

$$$$

