441246
  -OEChem-07051212533D

 30 30  0     1  0  0  0  0  0999 V2000
    1.8497    1.4001   -0.9533 O   0  0  0  0  0  0  0  0  0  0  0  0
    1.2818   -2.0644    0.1390 O   0  0  0  0  0  0  0  0  0  0  0  0
    1.8625    0.3087   -0.0251 C   0  0  2  0  0  0  0  0  0  0  0  0
   -1.0590   -0.2127    0.2877 C   0  0  1  0  0  0  0  0  0  0  0  0
    1.1872   -0.9083   -0.6902 C   0  0  2  0  0  0  0  0  0  0  0  0
    1.0905    0.7520    1.2293 C   0  0  0  0  0  0  0  0  0  0  0  0
   -0.2988   -0.6503   -0.9735 C   0  0  0  0  0  0  0  0  0  0  0  0
   -0.3916    1.0044    0.9393 C   0  0  0  0  0  0  0  0  0  0  0  0
    3.3260    0.0354    0.3364 C   0  0  0  0  0  0  0  0  0  0  0  0
   -2.4924    0.0745   -0.0399 C   0  0  0  0  0  0  0  0  0  0  0  0
   -3.5129   -0.7804    0.6512 C   0  0  0  0  0  0  0  0  0  0  0  0
   -2.8430    1.0411   -0.9011 C   0  0  0  0  0  0  0  0  0  0  0  0
   -1.0184   -1.0392    1.0107 H   0  0  0  0  0  0  0  0  0  0  0  0
    1.6885   -1.1386   -1.6384 H   0  0  0  0  0  0  0  0  0  0  0  0
    1.5215    1.6795    1.6268 H   0  0  0  0  0  0  0  0  0  0  0  0
    1.1775   -0.0083    2.0158 H   0  0  0  0  0  0  0  0  0  0  0  0
   -0.7589   -1.5657   -1.3690 H   0  0  0  0  0  0  0  0  0  0  0  0
   -0.3732    0.1086   -1.7622 H   0  0  0  0  0  0  0  0  0  0  0  0
   -0.9006    1.2513    1.8798 H   0  0  0  0  0  0  0  0  0  0  0  0
   -0.4748    1.8928    0.3006 H   0  0  0  0  0  0  0  0  0  0  0  0
    3.8069    0.9411    0.7233 H   0  0  0  0  0  0  0  0  0  0  0  0
    3.4212   -0.7542    1.0885 H   0  0  0  0  0  0  0  0  0  0  0  0
    3.8954   -0.2627   -0.5512 H   0  0  0  0  0  0  0  0  0  0  0  0
    2.3366    1.1226   -1.7481 H   0  0  0  0  0  0  0  0  0  0  0  0
    0.8807   -2.8074   -0.3432 H   0  0  0  0  0  0  0  0  0  0  0  0
   -3.3600   -1.8346    0.3981 H   0  0  0  0  0  0  0  0  0  0  0  0
   -3.4319   -0.6665    1.7372 H   0  0  0  0  0  0  0  0  0  0  0  0
   -4.5358   -0.5144    0.3644 H   0  0  0  0  0  0  0  0  0  0  0  0
   -3.8863    1.2366   -1.1273 H   0  0  0  0  0  0  0  0  0  0  0  0
   -2.1109    1.6636   -1.4033 H   0  0  0  0  0  0  0  0  0  0  0  0
  1  3  1  0  0  0  0
  1 24  1  0  0  0  0
  2  5  1  0  0  0  0
  2 25  1  0  0  0  0
  3  5  1  0  0  0  0
  3  6  1  0  0  0  0
  3  9  1  0  0  0  0
  4  7  1  0  0  0  0
  4  8  1  0  0  0  0
  4 10  1  0  0  0  0
  4 13  1  0  0  0  0
  5  7  1  0  0  0  0
  5 14  1  0  0  0  0
  6  8  1  0  0  0  0
  6 15  1  0  0  0  0
  6 16  1  0  0  0  0
  7 17  1  0  0  0  0
  7 18  1  0  0  0  0
  8 19  1  0  0  0  0
  8 20  1  0  0  0  0
  9 21  1  0  0  0  0
  9 22  1  0  0  0  0
  9 23  1  0  0  0  0
 10 11  1  0  0  0  0
 10 12  2  0  0  0  0
 11 26  1  0  0  0  0
 11 27  1  0  0  0  0
 11 28  1  0  0  0  0
 12 29  1  0  0  0  0
 12 30  1  0  0  0  0
M  END
> <PUBCHEM_COMPOUND_CID>
441246

> <PUBCHEM_CONFORMER_RMSD>
0.6

> <PUBCHEM_CONFORMER_DIVERSEORDER>
1
3
4
5
2
6

> <PUBCHEM_MMFF94_PARTIAL_CHARGES>
12
1 -0.68
10 -0.28
11 0.14
12 -0.3
2 -0.68
24 0.4
25 0.4
29 0.15
3 0.28
30 0.15
4 0.14
5 0.28

> <PUBCHEM_EFFECTIVE_ROTOR_COUNT>
2.2

> <PUBCHEM_PHARMACOPHORE_FEATURES>
5
1 1 acceptor
1 1 donor
1 2 acceptor
1 2 donor
6 3 4 5 6 7 8 rings

> <PUBCHEM_HEAVY_ATOM_COUNT>
12

> <PUBCHEM_ATOM_DEF_STEREO_COUNT>
3

> <PUBCHEM_ATOM_UDEF_STEREO_COUNT>
0

> <PUBCHEM_BOND_DEF_STEREO_COUNT>
0

> <PUBCHEM_BOND_UDEF_STEREO_COUNT>
0

> <PUBCHEM_ISOTOPIC_ATOM_COUNT>
0

> <PUBCHEM_COMPONENT_COUNT>
1

> <PUBCHEM_CACTVS_TAUTO_COUNT>
1

> <PUBCHEM_CONFORMER_ID>
0006BB9E00000001

> <PUBCHEM_MMFF94_ENERGY>
26.9463

> <PUBCHEM_FEATURE_SELFOVERLAP>
25.371

> <PUBCHEM_SHAPE_FINGERPRINT>
10219947 1 18413674612632444100
10353120 184 17459169850808013473
12423570 1 18271537441579711420
12897270 3 18408040723399178301
12932764 1 18040439880230439597
13581323 91 17561081380315703955
13839132 238 17845662580717805989
14993402 34 18341039762500729548
15219456 202 18341332292359198007
15310529 11 18412826893430676215
15775835 57 17967818219146751197
16945 1 17675925386985030200
17844478 74 18410285896494907945
19973954 147 18271804678814007269
20201158 50 18410575102186008483
20653091 64 18265605657804779330
21028194 46 18411981317169831480
23235685 24 18335706018134401624
23402539 116 17775294824466989831
23402655 69 17823431568502299981
23419403 2 16461983435178517298
23552423 10 18337945813530390291
2748010 2 17533210018976999908
3248919 1 18272097110378662925
5084963 1 18410290293992792745
528862 383 18338525234657407794
8030462 33 18040436637414313873

> <PUBCHEM_SHAPE_MULTIPOLES>
235.22
4.86
1.4
1.11
1.77
0.32
-0.06
-0.07
0.19
-0.34
0.01
0.14
-0.2
0.27

> <PUBCHEM_SHAPE_SELFOVERLAP>
466.688

> <PUBCHEM_SHAPE_VOLUME>
139.9

> <PUBCHEM_COORDINATE_TYPE>
2
5
10

$$$$

