586193
  -OEChem-06241222453D

 26 27  0     0  0  0  0  0  0999 V2000
    2.3075    1.2786    0.1326 S   0  0  0  0  0  0  0  0  0  0  0  0
   -2.6973    2.2750    0.5791 O   0  0  0  0  0  0  0  0  0  0  0  0
   -0.4117    2.2072   -0.7830 O   0  0  0  0  0  0  0  0  0  0  0  0
   -5.1872   -1.7833    0.4009 O   0  0  0  0  0  0  0  0  0  0  0  0
    4.8518    0.4602    0.4686 N   0  0  0  0  0  0  0  0  0  0  0  0
    3.5276   -1.1499   -0.1866 N   0  0  0  0  0  0  0  0  0  0  0  0
    5.6717   -0.5988    0.3892 N   0  0  0  0  0  0  0  0  0  0  0  0
   -1.6495    0.2856   -0.2567 C   0  0  0  0  0  0  0  0  0  0  0  0
   -0.3994    0.9934   -0.4966 C   0  0  0  0  0  0  0  0  0  0  0  0
    0.9294    0.2301   -0.4007 C   0  0  0  0  0  0  0  0  0  0  0  0
   -2.7574    0.9488    0.2709 C   0  0  0  0  0  0  0  0  0  0  0  0
   -1.7306   -1.0726   -0.5638 C   0  0  0  0  0  0  0  0  0  0  0  0
   -3.9463    0.2537    0.4916 C   0  0  0  0  0  0  0  0  0  0  0  0
   -2.9195   -1.7677   -0.3430 C   0  0  0  0  0  0  0  0  0  0  0  0
   -4.0275   -1.1046    0.1847 C   0  0  0  0  0  0  0  0  0  0  0  0
    3.6161    0.0912    0.1243 C   0  0  0  0  0  0  0  0  0  0  0  0
    4.8223   -1.5471   -0.0114 C   0  0  0  0  0  0  0  0  0  0  0  0
    1.1464   -0.1905   -1.3879 H   0  0  0  0  0  0  0  0  0  0  0  0
    0.8284   -0.5787    0.3298 H   0  0  0  0  0  0  0  0  0  0  0  0
   -0.8918   -1.6143   -0.9919 H   0  0  0  0  0  0  0  0  0  0  0  0
   -4.8063    0.7761    0.9036 H   0  0  0  0  0  0  0  0  0  0  0  0
   -2.9781   -2.8249   -0.5873 H   0  0  0  0  0  0  0  0  0  0  0  0
    5.2201    1.3593    0.7575 H   0  0  0  0  0  0  0  0  0  0  0  0
   -1.7943    2.6122    0.4702 H   0  0  0  0  0  0  0  0  0  0  0  0
    5.1572   -2.5597   -0.1806 H   0  0  0  0  0  0  0  0  0  0  0  0
   -5.8472   -1.1707    0.7687 H   0  0  0  0  0  0  0  0  0  0  0  0
  1 10  1  0  0  0  0
  1 16  1  0  0  0  0
  2 11  1  0  0  0  0
  2 24  1  0  0  0  0
  3  9  2  0  0  0  0
  4 15  1  0  0  0  0
  4 26  1  0  0  0  0
  5  7  1  0  0  0  0
  5 16  1  0  0  0  0
  5 23  1  0  0  0  0
  6 16  2  0  0  0  0
  6 17  1  0  0  0  0
  7 17  2  0  0  0  0
  8  9  1  0  0  0  0
  8 11  2  0  0  0  0
  8 12  1  0  0  0  0
  9 10  1  0  0  0  0
 10 18  1  0  0  0  0
 10 19  1  0  0  0  0
 11 13  1  0  0  0  0
 12 14  2  0  0  0  0
 12 20  1  0  0  0  0
 13 15  2  0  0  0  0
 13 21  1  0  0  0  0
 14 15  1  0  0  0  0
 14 22  1  0  0  0  0
 17 25  1  0  0  0  0
M  END
> <PUBCHEM_COMPOUND_CID>
586193

> <PUBCHEM_CONFORMER_RMSD>
0.6

> <PUBCHEM_CONFORMER_DIVERSEORDER>
1
139
217
243
77
100
144
186
5
255
141
166
115
25
276
215
102
37
277
274
173
259
239
119
96
44
203
97
86
90
240
193
153
212
114
234
13
268
263
236
192
14
238
84
9
152
226
241
92
135
122
162
216
36
133
224
71
223
237
220
65
103
222
66
117
72
206
67
106
218
78
264
199
63
43
284
59
251
56
42
23
148
49
109
184
262
208
197
112
195
27
26
4
61
174
8
12
205
194
18
260
110
75
39
21
125
111
142
105
137
207
2
127
256
10
201
248
6
198
91
57
41
179
120
272
22
168
225
69
95
252
211
278
82
15
154
196
132
68
79
246
150
3
283
202
101
29
250
282
185
46
227
32
249
172
209
204
118
169
221
151
54
30
177
279
161
146
235
28
214
280
145
176
165
16
121
33
123
261
156
128
219
51
140
270
130
167
231
104
45
108
62
170
89
254
94
55
178
247
88
99
244
164
269
232
48
213
181
11
138
266
200
73
228
76
229
271
83
124
134
160
7
116
191
182
245
265
273
126
47
74
190
107
163
189
64
157
275
80
50
58
183
40
60
257
175
155
52
20
113
85
53
98
34
147
242
17
180
35
31
87
70
253
158
19
230
81
171
93
159
210
233
131
149
187
258
24
143
188
38
129
267
136
281

> <PUBCHEM_MMFF94_PARTIAL_CHARGES>
24
1 -0.29
10 0.29
11 0.08
12 -0.15
13 -0.15
14 -0.15
15 0.08
16 0.24
17 0.37
2 -0.53
20 0.15
21 0.15
22 0.15
23 0.27
24 0.45
25 0.15
26 0.45
3 -0.57
4 -0.53
5 0.3
6 -0.57
7 -0.71
8 0.09
9 0.42

> <PUBCHEM_EFFECTIVE_ROTOR_COUNT>
4

> <PUBCHEM_PHARMACOPHORE_FEATURES>
8
1 2 donor
1 3 acceptor
1 4 donor
1 5 donor
3 5 6 16 cation
3 6 7 17 cation
5 5 6 7 16 17 rings
6 8 11 12 13 14 15 rings

> <PUBCHEM_HEAVY_ATOM_COUNT>
17

> <PUBCHEM_ATOM_DEF_STEREO_COUNT>
0

> <PUBCHEM_ATOM_UDEF_STEREO_COUNT>
0

> <PUBCHEM_BOND_DEF_STEREO_COUNT>
0

> <PUBCHEM_BOND_UDEF_STEREO_COUNT>
0

> <PUBCHEM_ISOTOPIC_ATOM_COUNT>
0

> <PUBCHEM_COMPONENT_COUNT>
1

> <PUBCHEM_CACTVS_TAUTO_COUNT>
63

> <PUBCHEM_CONFORMER_ID>
0008F1D100000001

> <PUBCHEM_MMFF94_ENERGY>
35.8518

> <PUBCHEM_FEATURE_SELFOVERLAP>
43.444

> <PUBCHEM_SHAPE_FINGERPRINT>
11046707 91 18343585148323517900
11128504 68 17131540696669171934
12107183 9 17832702753146205762
12251169 10 18260548913681712604
12633257 1 16733260136773095403
13167823 11 18411138047965794794
13288520 33 18341894103861423334
13533116 47 18265895761502545905
13551218 46 18335416880931396871
13675066 3 17676491670270949044
13862211 1 18263081033843707447
1420 369 18341891874778918246
14341114 176 18259700082347211072
14420673 8 18119239821299296142
15196674 1 18411136930825729422
15209289 33 18342738507248387682
15352361 1 18412826871866324778
17804303 29 18333728005327287021
17834072 33 18341609283569672700
17834074 16 18335702771281648118
1813 80 17704351069967517668
19141452 34 18408323289424026959
193927 3 18130496462002876283
19422 9 18341608205153105700
19784866 240 17846776270190920415
200 152 15051734204986876756
20281475 54 18413105074347117908
20645477 56 9079121068067894163
21065199 12 18259707809104198296
21267235 1 18412255121261351750
21673915 165 18410856572936622370
22079108 93 5039951879684314575
22646028 28 18272370858482315838
2297311 6 18260536849530054436
23402539 116 18187370922128027653
23559900 14 18335992973363346849
24859131 72 18333729113549980663
2838139 119 5687381585224367427
351380 3 18202848751327908530
42 15 18408884035980045516
4214541 1 18408604798755408984
5104073 3 18334582382165870256
559249 180 18271813470469520163
5924683 9 17531539676336816207
77779 3 18408323306899334088

> <PUBCHEM_SHAPE_MULTIPOLES>
321.15
11.71
2.05
0.74
9.89
0.3
-0.03
-5.67
2.51
-1.18
-0.06
-0.13
0.08
-0.09

> <PUBCHEM_SHAPE_SELFOVERLAP>
676.898

> <PUBCHEM_SHAPE_VOLUME>
182.1

> <PUBCHEM_COORDINATE_TYPE>
2
5
10

$$$$

