27525
  -OEChem-07051213122D

 28 29  0     1  0  0  0  0  0999 V2000
    9.8787   -0.4089    0.0000 Cl  0  0  0  0  0  0  0  0  0  0  0  0
    8.8787   -1.4089    0.0000 Cl  0  0  0  0  0  0  0  0  0  0  0  0
    8.8787    0.5911    0.0000 Cl  0  0  0  0  0  0  0  0  0  0  0  0
    5.3978   -1.2180    0.0000 O   0  0  0  0  0  0  0  0  0  0  0  0
    7.2951    0.3958    0.0000 O   0  0  0  0  0  0  0  0  0  0  0  0
    7.2951   -1.2137    0.0000 O   0  0  0  0  0  0  0  0  0  0  0  0
    5.0888    1.3511    0.0000 O   0  0  0  0  0  0  0  0  0  0  0  0
    3.3100    0.4571    0.0000 O   0  0  0  0  0  0  0  0  0  0  0  0
    2.3100   -1.2750    0.0000 O   0  0  0  0  0  0  0  0  0  0  0  0
    6.3488    0.0911    0.0000 C   0  0  2  0  0  0  0  0  0  0  0  0
    5.3978    0.4001    0.0000 C   0  0  2  0  0  0  0  0  0  0  0  0
    4.8100   -0.4089    0.0000 C   0  0  1  0  0  0  0  0  0  0  0  0
    6.3488   -0.9089    0.0000 C   0  0  3  0  0  0  0  0  0  0  0  0
    3.8100   -0.4089    0.0000 C   0  0  3  0  0  0  0  0  0  0  0  0
    7.8787   -0.4089    0.0000 C   0  0  2  0  0  0  0  0  0  0  0  0
    3.3100   -1.2750    0.0000 C   0  0  0  0  0  0  0  0  0  0  0  0
    8.8787   -0.4089    0.0000 C   0  0  0  0  0  0  0  0  0  0  0  0
    6.3500    0.9411    0.0000 H   0  0  0  0  0  0  0  0  0  0  0  0
    4.7854    0.4971    0.0000 H   0  0  0  0  0  0  0  0  0  0  0  0
    4.5285   -0.9614    0.0000 H   0  0  0  0  0  0  0  0  0  0  0  0
    6.3496   -1.5289    0.0000 H   0  0  0  0  0  0  0  0  0  0  0  0
    3.1900   -0.4089    0.0000 H   0  0  0  0  0  0  0  0  0  0  0  0
    8.1604   -0.9612    0.0000 H   0  0  0  0  0  0  0  0  0  0  0  0
    3.2023   -1.8855    0.0000 H   0  0  0  0  0  0  0  0  0  0  0  0
    3.8926   -1.4870    0.0000 H   0  0  0  0  0  0  0  0  0  0  0  0
    5.5036    1.8119    0.0000 H   0  0  0  0  0  0  0  0  0  0  0  0
    2.6900    0.4571    0.0000 H   0  0  0  0  0  0  0  0  0  0  0  0
    2.0000   -1.8119    0.0000 H   0  0  0  0  0  0  0  0  0  0  0  0
  1 17  1  0  0  0  0
  2 17  1  0  0  0  0
  3 17  1  0  0  0  0
  4 12  1  0  0  0  0
  4 13  1  0  0  0  0
  5 10  1  0  0  0  0
  5 15  1  0  0  0  0
  6 13  1  0  0  0  0
  6 15  1  0  0  0  0
 11  7  1  6  0  0  0
  7 26  1  0  0  0  0
  8 14  1  0  0  0  0
  8 27  1  0  0  0  0
  9 16  1  0  0  0  0
  9 28  1  0  0  0  0
 10 11  1  0  0  0  0
 10 13  1  0  0  0  0
 10 18  1  6  0  0  0
 11 12  1  0  0  0  0
 11 19  1  0  0  0  0
 12 14  1  6  0  0  0
 12 20  1  0  0  0  0
 13 21  1  0  0  0  0
 14 16  1  0  0  0  0
 14 22  1  0  0  0  0
 15 17  1  1  0  0  0
 15 23  1  0  0  0  0
 16 24  1  0  0  0  0
 16 25  1  0  0  0  0
M  END
> <PUBCHEM_COMPOUND_CID>
27525

> <PUBCHEM_COMPOUND_CANONICALIZED>
1

> <PUBCHEM_CACTVS_COMPLEXITY>
285

> <PUBCHEM_CACTVS_HBOND_ACCEPTOR>
6

> <PUBCHEM_CACTVS_HBOND_DONOR>
3

> <PUBCHEM_CACTVS_ROTATABLE_BOND>
2

> <PUBCHEM_CACTVS_SUBSKEYS>
AAADccBwOAAGAAAAAAAAAAAAAAAAASJAAAAAAAAAAAASAAAAAAAAGgIACAAACBawgIMACAAABgAAAAAAAAAAAAAAAAAAAAAAAQAREAIAAAAiQAAFAAAHAAHAYAwAAAAAAAAAAAAAAAAAAAAAAAAAAAAAAA==

> <PUBCHEM_IUPAC_OPENEYE_NAME>
1-[(2R,5R,6S,6aR)-6-hydroxy-2-(trichloromethyl)-3a,5,6,6a-tetrahydrofuro[2,3-d][1,3]dioxol-5-yl]ethane-1,2-diol

> <PUBCHEM_IUPAC_CAS_NAME>
1-[(2R,5R,6S,6aR)-6-hydroxy-2-(trichloromethyl)-3a,5,6,6a-tetrahydrofuro[2,3-d][1,3]dioxol-5-yl]ethane-1,2-diol

> <PUBCHEM_IUPAC_NAME>
1-[(2R,5R,6S,6aR)-6-hydroxy-2-(trichloromethyl)-3a,5,6,6a-tetrahydrofuro[2,3-d][1,3]dioxol-5-yl]ethane-1,2-diol

> <PUBCHEM_IUPAC_SYSTEMATIC_NAME>
1-[(2R,5R,6S,6aR)-6-oxidanyl-2-(trichloromethyl)-3a,5,6,6a-tetrahydrofuro[2,3-d][1,3]dioxol-5-yl]ethane-1,2-diol

> <PUBCHEM_IUPAC_TRADITIONAL_NAME>
1-[(2R,5R,6S,6aR)-6-hydroxy-2-(trichloromethyl)-3a,5,6,6a-tetrahydrofuro[2,3-d][1,3]dioxol-5-yl]ethane-1,2-diol

> <PUBCHEM_IUPAC_INCHI>
InChI=1S/C8H11Cl3O6/c9-8(10,11)7-16-5-3(14)4(2(13)1-12)15-6(5)17-7/h2-7,12-14H,1H2/t2?,3-,4+,5+,6?,7+/m0/s1

> <PUBCHEM_IUPAC_INCHIKEY>
OJYGBLRPYBAHRT-OPKHMCHVSA-N

> <PUBCHEM_XLOGP3>
1

> <PUBCHEM_EXACT_MASS>
307.962121

> <PUBCHEM_MOLECULAR_FORMULA>
C8H11Cl3O6

> <PUBCHEM_MOLECULAR_WEIGHT>
309.52834

> <PUBCHEM_OPENEYE_CAN_SMILES>
C(C(C1C(C2C(O1)OC(O2)C(Cl)(Cl)Cl)O)O)O

> <PUBCHEM_OPENEYE_ISO_SMILES>
C(C([C@@H]1[C@@H]([C@@H]2C(O1)O[C@@H](O2)C(Cl)(Cl)Cl)O)O)O

> <PUBCHEM_CACTVS_TPSA>
88.4

> <PUBCHEM_MONOISOTOPIC_WEIGHT>
307.962121

> <PUBCHEM_TOTAL_CHARGE>
0

> <PUBCHEM_HEAVY_ATOM_COUNT>
17

> <PUBCHEM_ATOM_DEF_STEREO_COUNT>
4

> <PUBCHEM_ATOM_UDEF_STEREO_COUNT>
2

> <PUBCHEM_BOND_DEF_STEREO_COUNT>
0

> <PUBCHEM_BOND_UDEF_STEREO_COUNT>
0

> <PUBCHEM_ISOTOPIC_ATOM_COUNT>
0

> <PUBCHEM_COMPONENT_COUNT>
1

> <PUBCHEM_CACTVS_TAUTO_COUNT>
1

> <PUBCHEM_COORDINATE_TYPE>
1
5
255

> <PUBCHEM_BONDANNOTATIONS>
10  18  6
12  14  6
15  17  5
13  6  3
11  7  6
14  8  3

$$$$

