431734
  -OEChem-07051213002D

 27 28  0     1  0  0  0  0  0999 V2000
    5.0000   -1.9258    0.0000 O   0  0  0  0  0  0  0  0  0  0  0  0
    4.3882    2.2548    0.0000 N   0  0  0  0  0  0  0  0  0  0  0  0
    5.1248    1.2722    0.0000 C   0  0  3  0  0  0  0  0  0  0  0  0
    4.8660    0.3063    0.0000 C   0  0  3  0  0  0  0  0  0  0  0  0
    6.9568    0.5134    0.0000 C   0  0  0  0  0  0  0  0  0  0  0  0
    6.6980   -0.4525    0.0000 C   0  0  0  0  0  0  0  0  0  0  0  0
    2.5000    0.6723    0.0000 C   0  0  0  0  0  0  0  0  0  0  0  0
    3.5000   -1.0597    0.0000 C   0  0  0  0  0  0  0  0  0  0  0  0
    2.0000   -0.1937    0.0000 C   0  0  0  0  0  0  0  0  0  0  0  0
    2.5000   -1.0597    0.0000 C   0  0  0  0  0  0  0  0  0  0  0  0
    4.0000   -1.9258    0.0000 C   0  0  0  0  0  0  0  0  0  0  0  0
    3.5000   -2.7918    0.0000 C   0  0  0  0  0  0  0  0  0  0  0  0
    5.0728    0.6544    0.0000 H   0  0  0  0  0  0  0  0  0  0  0  0
    4.9870   -0.3018    0.0000 H   0  0  0  0  0  0  0  0  0  0  0  0
    7.5481    0.3270    0.0000 H   0  0  0  0  0  0  0  0  0  0  0  0
    7.1688    1.0960    0.0000 H   0  0  0  0  0  0  0  0  0  0  0  0
    6.4859   -1.0351    0.0000 H   0  0  0  0  0  0  0  0  0  0  0  0
    7.2893   -0.6390    0.0000 H   0  0  0  0  0  0  0  0  0  0  0  0
    4.0782    2.7918    0.0000 H   0  0  0  0  0  0  0  0  0  0  0  0
    2.5153    1.2921    0.0000 H   0  0  0  0  0  0  0  0  0  0  0  0
    1.9032    0.8402    0.0000 H   0  0  0  0  0  0  0  0  0  0  0  0
    1.5250    0.2048    0.0000 H   0  0  0  0  0  0  0  0  0  0  0  0
    1.5250   -0.5922    0.0000 H   0  0  0  0  0  0  0  0  0  0  0  0
    2.1900   -1.5967    0.0000 H   0  0  0  0  0  0  0  0  0  0  0  0
    2.9631   -2.4818    0.0000 H   0  0  0  0  0  0  0  0  0  0  0  0
    3.1900   -3.3287    0.0000 H   0  0  0  0  0  0  0  0  0  0  0  0
    4.0369   -3.1018    0.0000 H   0  0  0  0  0  0  0  0  0  0  0  0
  1 11  2  0  0  0  0
  2  3  1  0  0  0  0
  2  4  1  0  0  0  0
  2 19  1  0  0  0  0
  3  5  1  0  0  0  0
  3  7  1  0  0  0  0
  3 13  1  0  0  0  0
  4  6  1  0  0  0  0
  4  8  1  0  0  0  0
  4 14  1  0  0  0  0
  5  6  1  0  0  0  0
  5 15  1  0  0  0  0
  5 16  1  0  0  0  0
  6 17  1  0  0  0  0
  6 18  1  0  0  0  0
  7  9  1  0  0  0  0
  7 20  1  0  0  0  0
  7 21  1  0  0  0  0
  8 10  2  0  0  0  0
  8 11  1  0  0  0  0
  9 10  1  0  0  0  0
  9 22  1  0  0  0  0
  9 23  1  0  0  0  0
 10 24  1  0  0  0  0
 11 12  1  0  0  0  0
 12 25  1  0  0  0  0
 12 26  1  0  0  0  0
 12 27  1  0  0  0  0
M  END
> <PUBCHEM_COMPOUND_CID>
431734

> <PUBCHEM_COMPOUND_CANONICALIZED>
1

> <PUBCHEM_CACTVS_COMPLEXITY>
232

> <PUBCHEM_CACTVS_HBOND_ACCEPTOR>
2

> <PUBCHEM_CACTVS_HBOND_DONOR>
1

> <PUBCHEM_CACTVS_ROTATABLE_BOND>
1

> <PUBCHEM_CACTVS_SUBSKEYS>
AAADccByIAAAAAAAAAAAAAAAAAAAAWAAAAAAAAAABAAQAAAAAAAAHgAQAAAADCzBgAQCAALAAACIAqBSAACAAAAgAAAACIEIAEgAABoAgQAEAAAAkACIAYMYiICAAAAAAAAAAAAAAAAAAAAAAAAAAAAAAA==

> <PUBCHEM_IUPAC_OPENEYE_NAME>
1-(9-azabicyclo[4.2.1]non-4-en-5-yl)ethanone

> <PUBCHEM_IUPAC_CAS_NAME>
1-(9-azabicyclo[4.2.1]non-4-en-5-yl)ethanone

> <PUBCHEM_IUPAC_NAME>
1-(9-azabicyclo[4.2.1]non-4-en-5-yl)ethanone

> <PUBCHEM_IUPAC_SYSTEMATIC_NAME>
1-(9-azabicyclo[4.2.1]non-4-en-5-yl)ethanone

> <PUBCHEM_IUPAC_TRADITIONAL_NAME>
1-(9-azabicyclo[4.2.1]non-4-en-5-yl)ethanone

> <PUBCHEM_IUPAC_INCHI>
InChI=1S/C10H15NO/c1-7(12)9-4-2-3-8-5-6-10(9)11-8/h4,8,10-11H,2-3,5-6H2,1H3

> <PUBCHEM_IUPAC_INCHIKEY>
SGNXVBOIDPPRJJ-UHFFFAOYSA-N

> <PUBCHEM_XLOGP3_AA>
0.8

> <PUBCHEM_EXACT_MASS>
165.115364

> <PUBCHEM_MOLECULAR_FORMULA>
C10H15NO

> <PUBCHEM_MOLECULAR_WEIGHT>
165.2322

> <PUBCHEM_OPENEYE_CAN_SMILES>
CC(=O)C1=CCCC2CCC1N2

> <PUBCHEM_OPENEYE_ISO_SMILES>
CC(=O)C1=CCCC2CCC1N2

> <PUBCHEM_CACTVS_TPSA>
29.1

> <PUBCHEM_MONOISOTOPIC_WEIGHT>
165.115364

> <PUBCHEM_TOTAL_CHARGE>
0

> <PUBCHEM_HEAVY_ATOM_COUNT>
12

> <PUBCHEM_ATOM_DEF_STEREO_COUNT>
0

> <PUBCHEM_ATOM_UDEF_STEREO_COUNT>
2

> <PUBCHEM_BOND_DEF_STEREO_COUNT>
0

> <PUBCHEM_BOND_UDEF_STEREO_COUNT>
0

> <PUBCHEM_ISOTOPIC_ATOM_COUNT>
0

> <PUBCHEM_COMPONENT_COUNT>
1

> <PUBCHEM_CACTVS_TAUTO_COUNT>
5

> <PUBCHEM_COORDINATE_TYPE>
1
5
255

> <PUBCHEM_BONDANNOTATIONS>
3  5  3
4  6  3

$$$$

