14429
  -OEChem-06241222432D

 48 51  0     0  0  0  0  0  0999 V2000
    7.5388   -0.2231    0.0000 S   0  0  0  0  0  0  0  0  0  0  0  0
    2.9749    3.1080    0.0000 N   0  0  0  0  0  0  0  0  0  0  0  0
    5.5143    0.7518    0.0000 C   0  0  0  0  0  0  0  0  0  0  0  0
    5.7368   -0.2231    0.0000 C   0  0  0  0  0  0  0  0  0  0  0  0
    6.1378    1.5337    0.0000 C   0  0  0  0  0  0  0  0  0  0  0  0
    6.6378   -0.6570    0.0000 C   0  0  0  0  0  0  0  0  0  0  0  0
    7.1378    1.5337    0.0000 C   0  0  0  0  0  0  0  0  0  0  0  0
    6.7316   -1.6944    0.0000 C   0  0  0  0  0  0  0  0  0  0  0  0
    4.5394    0.9744    0.0000 C   0  0  0  0  0  0  0  0  0  0  0  0
    7.7613    0.7518    0.0000 C   0  0  0  0  0  0  0  0  0  0  0  0
    4.2446    1.9299    0.0000 C   0  0  0  0  0  0  0  0  0  0  0  0
    5.8755   -2.2878    0.0000 C   0  0  0  0  0  0  0  0  0  0  0  0
    4.8672   -0.7965    0.0000 C   0  0  0  0  0  0  0  0  0  0  0  0
    3.2697    2.1525    0.0000 C   0  0  0  0  0  0  0  0  0  0  0  0
    4.9371   -1.8358    0.0000 C   0  0  0  0  0  0  0  0  0  0  0  0
    5.6031    2.4276    0.0000 C   0  0  0  0  0  0  0  0  0  0  0  0
    7.6724    2.4276    0.0000 C   0  0  0  0  0  0  0  0  0  0  0  0
    7.7198   -2.1424    0.0000 C   0  0  0  0  0  0  0  0  0  0  0  0
    5.9483   -3.3703    0.0000 C   0  0  0  0  0  0  0  0  0  0  0  0
    6.1170    3.3337    0.0000 C   0  0  0  0  0  0  0  0  0  0  0  0
    7.1586    3.3337    0.0000 C   0  0  0  0  0  0  0  0  0  0  0  0
    7.8176   -3.2230    0.0000 C   0  0  0  0  0  0  0  0  0  0  0  0
    6.9258   -3.8411    0.0000 C   0  0  0  0  0  0  0  0  0  0  0  0
    2.0000    3.3305    0.0000 C   0  0  0  0  0  0  0  0  0  0  0  0
    3.6551    3.8411    0.0000 C   0  0  0  0  0  0  0  0  0  0  0  0
    4.1177    0.5199    0.0000 H   0  0  0  0  0  0  0  0  0  0  0  0
    8.1478    1.2366    0.0000 H   0  0  0  0  0  0  0  0  0  0  0  0
    8.3199    0.4828    0.0000 H   0  0  0  0  0  0  0  0  0  0  0  0
    4.8598    2.0070    0.0000 H   0  0  0  0  0  0  0  0  0  0  0  0
    4.2755    2.5492    0.0000 H   0  0  0  0  0  0  0  0  0  0  0  0
    4.3118   -0.5211    0.0000 H   0  0  0  0  0  0  0  0  0  0  0  0
    2.6545    2.0754    0.0000 H   0  0  0  0  0  0  0  0  0  0  0  0
    3.2388    1.5332    0.0000 H   0  0  0  0  0  0  0  0  0  0  0  0
    4.4235   -2.1831    0.0000 H   0  0  0  0  0  0  0  0  0  0  0  0
    4.9832    2.4204    0.0000 H   0  0  0  0  0  0  0  0  0  0  0  0
    8.2924    2.4204    0.0000 H   0  0  0  0  0  0  0  0  0  0  0  0
    8.2252   -1.7833    0.0000 H   0  0  0  0  0  0  0  0  0  0  0  0
    5.4347   -3.7176    0.0000 H   0  0  0  0  0  0  0  0  0  0  0  0
    5.8049    3.8694    0.0000 H   0  0  0  0  0  0  0  0  0  0  0  0
    7.4707    3.8694    0.0000 H   0  0  0  0  0  0  0  0  0  0  0  0
    8.3792   -3.4855    0.0000 H   0  0  0  0  0  0  0  0  0  0  0  0
    6.9745   -4.4592    0.0000 H   0  0  0  0  0  0  0  0  0  0  0  0
    2.1380    3.9350    0.0000 H   0  0  0  0  0  0  0  0  0  0  0  0
    1.3955    3.4685    0.0000 H   0  0  0  0  0  0  0  0  0  0  0  0
    1.8620    2.7261    0.0000 H   0  0  0  0  0  0  0  0  0  0  0  0
    4.1096    3.4194    0.0000 H   0  0  0  0  0  0  0  0  0  0  0  0
    4.0768    4.2956    0.0000 H   0  0  0  0  0  0  0  0  0  0  0  0
    3.2006    4.2628    0.0000 H   0  0  0  0  0  0  0  0  0  0  0  0
  1  6  1  0  0  0  0
  1 10  1  0  0  0  0
  2 14  1  0  0  0  0
  2 24  1  0  0  0  0
  2 25  1  0  0  0  0
  3  4  1  0  0  0  0
  3  5  1  0  0  0  0
  3  9  2  3  0  0  0
  4  6  2  0  0  0  0
  4 13  1  0  0  0  0
  5  7  1  0  0  0  0
  5 16  2  0  0  0  0
  6  8  1  0  0  0  0
  7 10  1  0  0  0  0
  7 17  2  0  0  0  0
  8 12  1  0  0  0  0
  8 18  2  0  0  0  0
  9 11  1  0  0  0  0
  9 26  1  0  0  0  0
 10 27  1  0  0  0  0
 10 28  1  0  0  0  0
 11 14  1  0  0  0  0
 11 29  1  0  0  0  0
 11 30  1  0  0  0  0
 12 15  1  0  0  0  0
 12 19  2  0  0  0  0
 13 15  2  0  0  0  0
 13 31  1  0  0  0  0
 14 32  1  0  0  0  0
 14 33  1  0  0  0  0
 15 34  1  0  0  0  0
 16 20  1  0  0  0  0
 16 35  1  0  0  0  0
 17 21  1  0  0  0  0
 17 36  1  0  0  0  0
 18 22  1  0  0  0  0
 18 37  1  0  0  0  0
 19 23  1  0  0  0  0
 19 38  1  0  0  0  0
 20 21  2  0  0  0  0
 20 39  1  0  0  0  0
 21 40  1  0  0  0  0
 22 23  2  0  0  0  0
 22 41  1  0  0  0  0
 23 42  1  0  0  0  0
 24 43  1  0  0  0  0
 24 44  1  0  0  0  0
 24 45  1  0  0  0  0
 25 46  1  0  0  0  0
 25 47  1  0  0  0  0
 25 48  1  0  0  0  0
M  END
> <PUBCHEM_COMPOUND_CID>
14429

> <PUBCHEM_COMPOUND_CANONICALIZED>
1

> <PUBCHEM_CACTVS_COMPLEXITY>
471

> <PUBCHEM_CACTVS_HBOND_ACCEPTOR>
2

> <PUBCHEM_CACTVS_HBOND_DONOR>
0

> <PUBCHEM_CACTVS_ROTATABLE_BOND>
3

> <PUBCHEM_CACTVS_SUBSKEYS>
AAADceB6AABAAAAAAAAAAAAAAAAAAAAAAAAwYMAABIAAAADBVAAAHAQAAAAADADFWASyAcMAAAiAAiBCAAACAAAgCBAIiBAIAIgIICKgERCEIAAggAAoiAcAgMAOwAACgAAUAACAAAUAACgAAAAAAAAAAA==

> <PUBCHEM_IUPAC_INCHI>
InChI=1S/C23H23NS/c1-24(2)15-7-12-21-19-10-5-4-9-18(19)16-25-23-20-11-6-3-8-17(20)13-14-22(21)23/h3-6,8-14H,7,15-16H2,1-2H3

> <PUBCHEM_IUPAC_INCHIKEY>
GGSKMJNMTZUZJV-UHFFFAOYSA-N

> <PUBCHEM_XLOGP3>
5.7

> <PUBCHEM_EXACT_MASS>
345.155121

> <PUBCHEM_MOLECULAR_FORMULA>
C23H23NS

> <PUBCHEM_MOLECULAR_WEIGHT>
345.50042

> <PUBCHEM_OPENEYE_CAN_SMILES>
CN(C)CCC=C1C2=C(C3=CC=CC=C3C=C2)SCC4=CC=CC=C41

> <PUBCHEM_OPENEYE_ISO_SMILES>
CN(C)CCC=C1C2=C(C3=CC=CC=C3C=C2)SCC4=CC=CC=C41

> <PUBCHEM_CACTVS_TPSA>
28.5

> <PUBCHEM_MONOISOTOPIC_WEIGHT>
345.155121

> <PUBCHEM_TOTAL_CHARGE>
0

> <PUBCHEM_HEAVY_ATOM_COUNT>
25

> <PUBCHEM_ATOM_DEF_STEREO_COUNT>
0

> <PUBCHEM_ATOM_UDEF_STEREO_COUNT>
0

> <PUBCHEM_BOND_DEF_STEREO_COUNT>
0

> <PUBCHEM_BOND_UDEF_STEREO_COUNT>
1

> <PUBCHEM_ISOTOPIC_ATOM_COUNT>
0

> <PUBCHEM_COMPONENT_COUNT>
1

> <PUBCHEM_CACTVS_TAUTO_COUNT>
1

> <PUBCHEM_COORDINATE_TYPE>
1
5
255

> <PUBCHEM_BONDANNOTATIONS>
12  15  8
12  19  8
13  15  8
16  20  8
17  21  8
18  22  8
19  23  8
20  21  8
22  23  8
3  9  1
4  13  8
4  6  8
5  16  8
5  7  8
6  8  8
7  17  8
8  12  8
8  18  8

$$$$

