14286
  -OEChem-06241222432D

 16 16  0     0  0  0  0  0  0999 V2000
    2.8660   -1.5000    0.0000 O   0  0  0  0  0  0  0  0  0  0  0  0
    4.5981   -0.5000    0.0000 N   0  0  0  0  0  0  0  0  0  0  0  0
    3.7320    0.0000    0.0000 C   0  0  0  0  0  0  0  0  0  0  0  0
    3.7320    1.0000    0.0000 C   0  0  0  0  0  0  0  0  0  0  0  0
    2.8660   -0.5000    0.0000 C   0  0  0  0  0  0  0  0  0  0  0  0
    4.5981    1.5000    0.0000 C   0  0  0  0  0  0  0  0  0  0  0  0
    2.0000    0.0000    0.0000 C   0  0  0  0  0  0  0  0  0  0  0  0
    5.4641    1.0000    0.0000 C   0  0  0  0  0  0  0  0  0  0  0  0
    5.4641    0.0000    0.0000 C   0  0  0  0  0  0  0  0  0  0  0  0
    3.1951    1.3100    0.0000 H   0  0  0  0  0  0  0  0  0  0  0  0
    4.5981    2.1200    0.0000 H   0  0  0  0  0  0  0  0  0  0  0  0
    2.3100    0.5369    0.0000 H   0  0  0  0  0  0  0  0  0  0  0  0
    1.4631    0.3100    0.0000 H   0  0  0  0  0  0  0  0  0  0  0  0
    1.6900   -0.5369    0.0000 H   0  0  0  0  0  0  0  0  0  0  0  0
    6.0010    1.3100    0.0000 H   0  0  0  0  0  0  0  0  0  0  0  0
    6.0010   -0.3100    0.0000 H   0  0  0  0  0  0  0  0  0  0  0  0
  1  5  2  0  0  0  0
  2  3  1  0  0  0  0
  2  9  2  0  0  0  0
  3  4  2  0  0  0  0
  3  5  1  0  0  0  0
  4  6  1  0  0  0  0
  4 10  1  0  0  0  0
  5  7  1  0  0  0  0
  6  8  2  0  0  0  0
  6 11  1  0  0  0  0
  7 12  1  0  0  0  0
  7 13  1  0  0  0  0
  7 14  1  0  0  0  0
  8  9  1  0  0  0  0
  8 15  1  0  0  0  0
  9 16  1  0  0  0  0
M  END
> <PUBCHEM_COMPOUND_CID>
14286

> <PUBCHEM_COMPOUND_CANONICALIZED>
1

> <PUBCHEM_CACTVS_COMPLEXITY>
112

> <PUBCHEM_CACTVS_HBOND_ACCEPTOR>
2

> <PUBCHEM_CACTVS_HBOND_DONOR>
0

> <PUBCHEM_CACTVS_ROTATABLE_BOND>
1

> <PUBCHEM_CACTVS_SUBSKEYS>
AAADcYBiIAAAAAAAAAAAAAAAAAAAAAAAAAAsAAAAAAAAAAABgAAAHgAAAAAACAzBlgQ+gJIIEACoAbR3RACCgCA3AiAI2CG4ZNgIIPLAlbGEIQhggADIyYcYiAAAAAAAAAAAAAAAAAAAAAAAAAAAAAAAAA==

> <PUBCHEM_IUPAC_OPENEYE_NAME>
1-(2-pyridyl)ethanone

> <PUBCHEM_IUPAC_CAS_NAME>
1-(2-pyridinyl)ethanone

> <PUBCHEM_IUPAC_NAME>
1-pyridin-2-ylethanone

> <PUBCHEM_IUPAC_SYSTEMATIC_NAME>
1-pyridin-2-ylethanone

> <PUBCHEM_IUPAC_TRADITIONAL_NAME>
1-(2-pyridyl)ethanone

> <PUBCHEM_IUPAC_INCHI>
InChI=1S/C7H7NO/c1-6(9)7-4-2-3-5-8-7/h2-5H,1H3

> <PUBCHEM_IUPAC_INCHIKEY>
AJKVQEKCUACUMD-UHFFFAOYSA-N

> <PUBCHEM_XLOGP3>
0.9

> <PUBCHEM_EXACT_MASS>
121.052764

> <PUBCHEM_MOLECULAR_FORMULA>
C7H7NO

> <PUBCHEM_MOLECULAR_WEIGHT>
121.13658

> <PUBCHEM_OPENEYE_CAN_SMILES>
CC(=O)C1=CC=CC=N1

> <PUBCHEM_OPENEYE_ISO_SMILES>
CC(=O)C1=CC=CC=N1

> <PUBCHEM_CACTVS_TPSA>
30

> <PUBCHEM_MONOISOTOPIC_WEIGHT>
121.052764

> <PUBCHEM_TOTAL_CHARGE>
0

> <PUBCHEM_HEAVY_ATOM_COUNT>
9

> <PUBCHEM_ATOM_DEF_STEREO_COUNT>
0

> <PUBCHEM_ATOM_UDEF_STEREO_COUNT>
0

> <PUBCHEM_BOND_DEF_STEREO_COUNT>
0

> <PUBCHEM_BOND_UDEF_STEREO_COUNT>
0

> <PUBCHEM_ISOTOPIC_ATOM_COUNT>
0

> <PUBCHEM_COMPONENT_COUNT>
1

> <PUBCHEM_CACTVS_TAUTO_COUNT>
2

> <PUBCHEM_COORDINATE_TYPE>
1
5
255

> <PUBCHEM_BONDANNOTATIONS>
2  3  8
2  9  8
3  4  8
4  6  8
6  8  8
8  9  8

$$$$

