25137936
  -OEChem-07051213113D

 40 42  0     1  0  0  0  0  0999 V2000
    1.4081    2.5783   -0.9550 O   0  0  0  0  0  0  0  0  0  0  0  0
    0.8233   -0.6870    0.1103 C   0  0  1  0  0  0  0  0  0  0  0  0
   -1.3481   -1.5482   -0.0210 C   0  0  1  0  0  0  0  0  0  0  0  0
   -0.1030   -1.6294    0.8752 C   0  0  0  0  0  0  0  0  0  0  0  0
    2.2244   -0.5101    0.7027 C   0  0  2  0  0  0  0  0  0  0  0  0
    0.7137   -1.2251   -1.3270 C   0  0  0  0  0  0  0  0  0  0  0  0
    0.2829    0.7388    0.1308 C   0  0  0  0  0  0  0  0  0  0  0  0
   -2.0614   -0.1523    0.1713 C   0  0  0  0  0  0  0  0  0  0  0  0
   -0.7239   -1.7608   -1.4202 C   0  0  0  0  0  0  0  0  0  0  0  0
   -1.0402    1.0089    0.1737 C   0  0  0  0  0  0  0  0  0  0  0  0
    1.4354    1.7114    0.1659 C   0  0  1  0  0  0  0  0  0  0  0  0
    2.6803    0.8222    0.1058 C   0  0  0  0  0  0  0  0  0  0  0  0
    3.2160   -1.6339    0.4421 C   0  0  0  0  0  0  0  0  0  0  0  0
   -2.8061   -0.1795    1.5303 C   0  0  0  0  0  0  0  0  0  0  0  0
   -3.1248    0.0512   -0.9296 C   0  0  0  0  0  0  0  0  0  0  0  0
   -1.5765    2.4155    0.2449 C   0  0  0  0  0  0  0  0  0  0  0  0
   -2.0513   -2.3598    0.2001 H   0  0  0  0  0  0  0  0  0  0  0  0
   -0.2815   -1.3188    1.9087 H   0  0  0  0  0  0  0  0  0  0  0  0
    0.2953   -2.6513    0.8992 H   0  0  0  0  0  0  0  0  0  0  0  0
    2.1380   -0.3898    1.7929 H   0  0  0  0  0  0  0  0  0  0  0  0
    1.4064   -2.0526   -1.5123 H   0  0  0  0  0  0  0  0  0  0  0  0
    0.9025   -0.4628   -2.0915 H   0  0  0  0  0  0  0  0  0  0  0  0
   -1.2770   -1.2955   -2.2381 H   0  0  0  0  0  0  0  0  0  0  0  0
   -0.6867   -2.8351   -1.6414 H   0  0  0  0  0  0  0  0  0  0  0  0
    1.4178    2.2962    1.0922 H   0  0  0  0  0  0  0  0  0  0  0  0
    3.0321    0.7030   -0.9272 H   0  0  0  0  0  0  0  0  0  0  0  0
    3.5069    1.2603    0.6760 H   0  0  0  0  0  0  0  0  0  0  0  0
    3.4573   -1.7321   -0.6208 H   0  0  0  0  0  0  0  0  0  0  0  0
    2.8251   -2.5922    0.7975 H   0  0  0  0  0  0  0  0  0  0  0  0
    4.1556   -1.4388    0.9703 H   0  0  0  0  0  0  0  0  0  0  0  0
   -3.4458   -1.0662    1.6090 H   0  0  0  0  0  0  0  0  0  0  0  0
   -3.4575    0.6928    1.6555 H   0  0  0  0  0  0  0  0  0  0  0  0
   -2.1165   -0.1882    2.3806 H   0  0  0  0  0  0  0  0  0  0  0  0
   -3.7342   -0.8505   -1.0584 H   0  0  0  0  0  0  0  0  0  0  0  0
   -2.6756    0.3007   -1.8965 H   0  0  0  0  0  0  0  0  0  0  0  0
   -3.8106    0.8701   -0.6820 H   0  0  0  0  0  0  0  0  0  0  0  0
   -2.1343    2.6600   -0.6642 H   0  0  0  0  0  0  0  0  0  0  0  0
   -0.7893    3.1668    0.3530 H   0  0  0  0  0  0  0  0  0  0  0  0
   -2.2401    2.5382    1.1055 H   0  0  0  0  0  0  0  0  0  0  0  0
    2.2118    3.1246   -0.9205 H   0  0  0  0  0  0  0  0  0  0  0  0
  1 11  1  0  0  0  0
  1 40  1  0  0  0  0
  2  4  1  0  0  0  0
  2  5  1  0  0  0  0
  2  6  1  0  0  0  0
  2  7  1  0  0  0  0
  3  4  1  0  0  0  0
  3  8  1  0  0  0  0
  3  9  1  0  0  0  0
  3 17  1  0  0  0  0
  4 18  1  0  0  0  0
  4 19  1  0  0  0  0
  5 12  1  0  0  0  0
  5 13  1  0  0  0  0
  5 20  1  0  0  0  0
  6  9  1  0  0  0  0
  6 21  1  0  0  0  0
  6 22  1  0  0  0  0
  7 10  2  0  0  0  0
  7 11  1  0  0  0  0
  8 10  1  0  0  0  0
  8 14  1  0  0  0  0
  8 15  1  0  0  0  0
  9 23  1  0  0  0  0
  9 24  1  0  0  0  0
 10 16  1  0  0  0  0
 11 12  1  0  0  0  0
 11 25  1  0  0  0  0
 12 26  1  0  0  0  0
 12 27  1  0  0  0  0
 13 28  1  0  0  0  0
 13 29  1  0  0  0  0
 13 30  1  0  0  0  0
 14 31  1  0  0  0  0
 14 32  1  0  0  0  0
 14 33  1  0  0  0  0
 15 34  1  0  0  0  0
 15 35  1  0  0  0  0
 15 36  1  0  0  0  0
 16 37  1  0  0  0  0
 16 38  1  0  0  0  0
 16 39  1  0  0  0  0
M  END
> <PUBCHEM_COMPOUND_CID>
25137936

> <PUBCHEM_CONFORMER_RMSD>
0.6

> <PUBCHEM_CONFORMER_DIVERSEORDER>
1

> <PUBCHEM_MMFF94_PARTIAL_CHARGES>
8
1 -0.68
10 -0.28
11 0.42
16 0.14
2 0.14
40 0.4
7 -0.28
8 0.14

> <PUBCHEM_EFFECTIVE_ROTOR_COUNT>
1.4

> <PUBCHEM_PHARMACOPHORE_FEATURES>
5
1 1 acceptor
1 1 donor
3 8 14 15 hydrophobe
5 2 5 7 11 12 rings
8 2 3 4 6 7 8 9 10 rings

> <PUBCHEM_HEAVY_ATOM_COUNT>
16

> <PUBCHEM_ATOM_DEF_STEREO_COUNT>
4

> <PUBCHEM_ATOM_UDEF_STEREO_COUNT>
0

> <PUBCHEM_BOND_DEF_STEREO_COUNT>
0

> <PUBCHEM_BOND_UDEF_STEREO_COUNT>
0

> <PUBCHEM_ISOTOPIC_ATOM_COUNT>
0

> <PUBCHEM_COMPONENT_COUNT>
1

> <PUBCHEM_CACTVS_TAUTO_COUNT>
1

> <PUBCHEM_CONFORMER_ID>
017F931000000001

> <PUBCHEM_MMFF94_ENERGY>
54.5751

> <PUBCHEM_FEATURE_SELFOVERLAP>
25.439

> <PUBCHEM_SHAPE_FINGERPRINT>
10863032 1 18269562641418612167
10967382 1 18339364050201566904
12423570 1 10648172483507713279
12491281 212 17968367949185612843
12524768 44 18334566906723572719
12696612 119 18339067280814725201
13024252 1 17632306674010817787
13140716 1 18265614281988184306
13172582 1 18334289915682208699
13221675 6 18411132494562336602
13571099 22 18341342131733744719
144361 1 18262537964586484763
14614273 12 17694516848684334997
14993402 34 18334583459712290894
15076042 46 18408605876670699232
15775835 57 18187643548744257592
15881359 60 17977988744595414516
16945 1 18410571790491903666
20511035 2 18335423404901654306
21130352 189 18342184396458694726
22112679 90 17969225521258745911
2334 1 17617940231944483192
23402539 116 18190481517320909167
23419403 2 11941450452456373714
23463225 33 18337108973422786771
23552423 10 18196658380424778782
23559900 14 17974569406301803094
2748010 2 17902786701984179767
5084963 1 18187093874629706723
53812654 25 18115043917101568706
6992083 37 18260556644665238082
7364860 26 18335141934731834832

> <PUBCHEM_SHAPE_MULTIPOLES>
323.4
4.11
2.44
1.2
0.3
1.06
-0.08
-0.22
0.67
0.41
-0.44
-0.41
-0.36
-0.35

> <PUBCHEM_SHAPE_SELFOVERLAP>
694.336

> <PUBCHEM_SHAPE_VOLUME>
183.4

> <PUBCHEM_COORDINATE_TYPE>
2
5
10

$$$$

