12834
  -OEChem-06261207263D

 27 28  0     1  0  0  0  0  0999 V2000
   -3.0419   -2.4084   -0.0617 F   0  0  0  0  0  0  0  0  0  0  0  0
   -0.3321    2.3306    0.0254 N   0  0  0  0  0  0  0  0  0  0  0  0
    3.9638   -1.6903    0.1165 N   0  0  0  0  0  0  0  0  0  0  0  0
    2.0531   -0.3026    0.8695 C   0  0  0  0  0  0  0  0  0  0  0  0
    0.9016    0.5500    0.5097 C   0  0  0  0  0  0  0  0  0  0  0  0
    2.8685   -0.8294   -0.3401 C   0  0  1  0  0  0  0  0  0  0  0  0
   -0.4283    0.1134    0.2537 C   0  0  0  0  0  0  0  0  0  0  0  0
   -1.1819    1.2499   -0.0474 C   0  0  0  0  0  0  0  0  0  0  0  0
    0.9292    1.9176    0.3614 C   0  0  0  0  0  0  0  0  0  0  0  0
    3.4648    0.3033   -1.1756 C   0  0  0  0  0  0  0  0  0  0  0  0
   -1.0651   -1.1436    0.2492 C   0  0  0  0  0  0  0  0  0  0  0  0
   -2.5461    1.1920   -0.3537 C   0  0  0  0  0  0  0  0  0  0  0  0
   -2.4292   -1.2167   -0.0554 C   0  0  0  0  0  0  0  0  0  0  0  0
   -3.1564   -0.0655   -0.3517 C   0  0  0  0  0  0  0  0  0  0  0  0
    2.7208    0.2589    1.5381 H   0  0  0  0  0  0  0  0  0  0  0  0
    1.6988   -1.1574    1.4614 H   0  0  0  0  0  0  0  0  0  0  0  0
    2.2096   -1.4254   -0.9838 H   0  0  0  0  0  0  0  0  0  0  0  0
    1.7311    2.6354    0.4647 H   0  0  0  0  0  0  0  0  0  0  0  0
   -0.6013    3.2898   -0.1447 H   0  0  0  0  0  0  0  0  0  0  0  0
    4.1032   -0.0926   -1.9742 H   0  0  0  0  0  0  0  0  0  0  0  0
    4.0736    0.9779   -0.5633 H   0  0  0  0  0  0  0  0  0  0  0  0
    2.6834    0.8932   -1.6645 H   0  0  0  0  0  0  0  0  0  0  0  0
   -0.5134   -2.0511    0.4765 H   0  0  0  0  0  0  0  0  0  0  0  0
   -3.1132    2.0875   -0.5847 H   0  0  0  0  0  0  0  0  0  0  0  0
    4.4491   -2.0850   -0.6883 H   0  0  0  0  0  0  0  0  0  0  0  0
    3.5829   -2.4793    0.6373 H   0  0  0  0  0  0  0  0  0  0  0  0
   -4.2149   -0.1457   -0.5853 H   0  0  0  0  0  0  0  0  0  0  0  0
  1 13  1  0  0  0  0
  2  8  1  0  0  0  0
  2  9  1  0  0  0  0
  2 19  1  0  0  0  0
  3  6  1  0  0  0  0
  3 25  1  0  0  0  0
  3 26  1  0  0  0  0
  4  5  1  0  0  0  0
  4  6  1  0  0  0  0
  4 15  1  0  0  0  0
  4 16  1  0  0  0  0
  5  7  1  0  0  0  0
  5  9  2  0  0  0  0
  6 10  1  0  0  0  0
  6 17  1  0  0  0  0
  7  8  2  0  0  0  0
  7 11  1  0  0  0  0
  8 12  1  0  0  0  0
  9 18  1  0  0  0  0
 10 20  1  0  0  0  0
 10 21  1  0  0  0  0
 10 22  1  0  0  0  0
 11 13  2  0  0  0  0
 11 23  1  0  0  0  0
 12 14  2  0  0  0  0
 12 24  1  0  0  0  0
 13 14  1  0  0  0  0
 14 27  1  0  0  0  0
M  END
> <PUBCHEM_COMPOUND_CID>
12834

> <PUBCHEM_CONFORMER_RMSD>
0.6

> <PUBCHEM_CONFORMER_DIVERSEORDER>
1
11
10
9
4
5
8
7
3
6
2

> <PUBCHEM_MMFF94_PARTIAL_CHARGES>
19
1 -0.19
11 -0.15
12 -0.15
13 0.19
14 -0.15
18 0.15
19 0.27
2 0.03
23 0.15
24 0.15
25 0.36
26 0.36
27 0.15
3 -0.99
4 0.18
5 -0.18
6 0.27
8 -0.15
9 -0.3

> <PUBCHEM_EFFECTIVE_ROTOR_COUNT>
2

> <PUBCHEM_PHARMACOPHORE_FEATURES>
6
1 2 cation
1 2 donor
1 3 cation
1 3 donor
5 2 5 7 8 9 rings
6 7 8 11 12 13 14 rings

> <PUBCHEM_HEAVY_ATOM_COUNT>
14

> <PUBCHEM_ATOM_DEF_STEREO_COUNT>
0

> <PUBCHEM_ATOM_UDEF_STEREO_COUNT>
1

> <PUBCHEM_BOND_DEF_STEREO_COUNT>
0

> <PUBCHEM_BOND_UDEF_STEREO_COUNT>
0

> <PUBCHEM_ISOTOPIC_ATOM_COUNT>
0

> <PUBCHEM_COMPONENT_COUNT>
1

> <PUBCHEM_CACTVS_TAUTO_COUNT>
1

> <PUBCHEM_CONFORMER_ID>
0000322200000001

> <PUBCHEM_MMFF94_ENERGY>
13.06

> <PUBCHEM_FEATURE_SELFOVERLAP>
30.538

> <PUBCHEM_SHAPE_FINGERPRINT>
10465860 71 18337658772413298884
11127187 94 18412262873845840639
11206711 2 18271536337857518981
11769659 78 18261396607018607687
12032990 46 18410575067884259915
13296908 3 18335144163318552066
14115302 16 18271242832513966364
14128692 85 18412542076642673413
14911166 2 18339935912708149213
161256 15 18194685864933184033
16945 1 18339935912465581905
17990270 104 18266466395020539065
18186145 218 16271922723079917986
20201158 50 18187648062965973158
20281407 28 18334011692259498138
20281475 54 18408880733055327386
20645476 183 17702666708200345451
20645477 70 17906747903710266719
20711983 138 18113340837951317377
20871998 22 18337394816302057931
20871999 31 18342457032450804183
21501502 16 18337948991711438613
22213442 358 18336828593747184580
22721475 48 18259982695142036918
23382010 3 17274536508402819122
23552423 10 18200597969220849729
23557571 272 18041842947641908488
23559900 14 18263934400953388674
2748010 2 18267601117043571025
6333272 397 9295285049445788615
7364860 26 18046065951911843312
81228 2 17461430605940020520
8809292 202 18412544322979212619

> <PUBCHEM_SHAPE_MULTIPOLES>
270.88
5.85
2.16
0.83
2.9
0.06
-0.06
-2.95
-1.31
-0.76
0.08
0.47
0.05
-0.01

> <PUBCHEM_SHAPE_SELFOVERLAP>
580.901

> <PUBCHEM_SHAPE_VOLUME>
151.9

> <PUBCHEM_COORDINATE_TYPE>
2
5
10

$$$$

