168948
  -OEChem-07051212483D

 34 36  0     1  0  0  0  0  0999 V2000
   -2.3929   -0.3089    0.8814 O   0  0  0  0  0  0  0  0  0  0  0  0
   -3.8432    2.2646   -0.0158 O   0  0  0  0  0  0  0  0  0  0  0  0
   -4.1628   -2.4487    0.5587 O   0  0  0  0  0  0  0  0  0  0  0  0
   -0.1669   -0.0793    0.0943 N   0  0  0  0  0  0  0  0  0  0  0  0
    1.3134   -1.7181   -0.2353 N   0  0  0  0  0  0  0  0  0  0  0  0
    1.3513    1.7976    0.3712 N   0  0  0  0  0  0  0  0  0  0  0  0
    3.6801    1.0944    0.1759 N   0  0  0  0  0  0  0  0  0  0  0  0
    4.3056   -1.1780   -0.2391 N   0  0  0  0  0  0  0  0  0  0  0  0
   -1.4575    0.5818    0.2490 C   0  0  1  0  0  0  0  0  0  0  0  0
   -3.5605    1.0435   -0.6957 C   0  0  1  0  0  0  0  0  0  0  0  0
   -2.0934    1.0279   -1.0597 C   0  0  0  0  0  0  0  0  0  0  0  0
   -3.6902   -0.1243    0.2764 C   0  0  1  0  0  0  0  0  0  0  0  0
   -4.0769   -1.4240   -0.4159 C   0  0  0  0  0  0  0  0  0  0  0  0
    1.0691    0.5038    0.1562 C   0  0  0  0  0  0  0  0  0  0  0  0
    0.0353   -1.4155   -0.1422 C   0  0  0  0  0  0  0  0  0  0  0  0
    1.9710   -0.5278   -0.0509 C   0  0  0  0  0  0  0  0  0  0  0  0
    3.3217   -0.1948   -0.0362 C   0  0  0  0  0  0  0  0  0  0  0  0
    2.6873    1.9971    0.3636 C   0  0  0  0  0  0  0  0  0  0  0  0
    5.7094   -0.8912   -0.2360 C   0  0  0  0  0  0  0  0  0  0  0  0
   -1.3069    1.4278    0.9301 H   0  0  0  0  0  0  0  0  0  0  0  0
   -4.2266    0.9824   -1.5603 H   0  0  0  0  0  0  0  0  0  0  0  0
   -1.9116    0.2930   -1.8528 H   0  0  0  0  0  0  0  0  0  0  0  0
   -1.7044    1.9969   -1.3875 H   0  0  0  0  0  0  0  0  0  0  0  0
   -4.3929    0.0893    1.0899 H   0  0  0  0  0  0  0  0  0  0  0  0
   -3.3226   -1.7252   -1.1498 H   0  0  0  0  0  0  0  0  0  0  0  0
   -5.0475   -1.3292   -0.9126 H   0  0  0  0  0  0  0  0  0  0  0  0
   -0.7803   -2.1187   -0.2425 H   0  0  0  0  0  0  0  0  0  0  0  0
   -3.3680    2.2716    0.8317 H   0  0  0  0  0  0  0  0  0  0  0  0
   -4.4115   -3.2661    0.0942 H   0  0  0  0  0  0  0  0  0  0  0  0
    3.0105    3.0191    0.5305 H   0  0  0  0  0  0  0  0  0  0  0  0
    3.9952   -2.1304   -0.3951 H   0  0  0  0  0  0  0  0  0  0  0  0
    6.2772   -1.8096   -0.4139 H   0  0  0  0  0  0  0  0  0  0  0  0
    6.0264   -0.4831    0.7292 H   0  0  0  0  0  0  0  0  0  0  0  0
    5.9681   -0.1790   -1.0262 H   0  0  0  0  0  0  0  0  0  0  0  0
  1  9  1  0  0  0  0
  1 12  1  0  0  0  0
  2 10  1  0  0  0  0
  2 28  1  0  0  0  0
  3 13  1  0  0  0  0
  3 29  1  0  0  0  0
  4  9  1  0  0  0  0
  4 14  1  0  0  0  0
  4 15  1  0  0  0  0
  5 15  2  0  0  0  0
  5 16  1  0  0  0  0
  6 14  2  0  0  0  0
  6 18  1  0  0  0  0
  7 17  1  0  0  0  0
  7 18  2  0  0  0  0
  8 17  1  0  0  0  0
  8 19  1  0  0  0  0
  8 31  1  0  0  0  0
  9 11  1  0  0  0  0
  9 20  1  0  0  0  0
 10 11  1  0  0  0  0
 10 12  1  0  0  0  0
 10 21  1  0  0  0  0
 11 22  1  0  0  0  0
 11 23  1  0  0  0  0
 12 13  1  0  0  0  0
 12 24  1  0  0  0  0
 13 25  1  0  0  0  0
 13 26  1  0  0  0  0
 14 16  1  0  0  0  0
 15 27  1  0  0  0  0
 16 17  2  0  0  0  0
 18 30  1  0  0  0  0
 19 32  1  0  0  0  0
 19 33  1  0  0  0  0
 19 34  1  0  0  0  0
M  END
> <PUBCHEM_COMPOUND_CID>
168948

> <PUBCHEM_CONFORMER_RMSD>
0.6

> <PUBCHEM_CONFORMER_DIVERSEORDER>
1
25
24
26
7
35
4
36
31
19
2
8
29
5
27
3
28
23
30
16
10
33
34
9
22
13
21
32
11
6
18
15
17
20
12
14

> <PUBCHEM_MMFF94_PARTIAL_CHARGES>
23
1 -0.56
10 0.28
12 0.28
13 0.28
14 0.11
15 0.04
16 0.23
17 0.41
18 0.47
19 0.37
2 -0.68
27 0.15
28 0.4
29 0.4
3 -0.68
30 0.15
31 0.4
4 0.05
5 -0.57
6 -0.57
7 -0.62
8 -0.87
9 0.54

> <PUBCHEM_EFFECTIVE_ROTOR_COUNT>
4

> <PUBCHEM_PHARMACOPHORE_FEATURES>
13
1 1 acceptor
1 2 acceptor
1 2 donor
1 3 acceptor
1 3 donor
1 8 cation
1 8 donor
3 4 5 15 cation
3 4 6 14 cation
3 6 7 18 cation
5 1 9 10 11 12 rings
5 4 5 14 15 16 rings
6 6 7 14 16 17 18 rings

> <PUBCHEM_HEAVY_ATOM_COUNT>
19

> <PUBCHEM_ATOM_DEF_STEREO_COUNT>
3

> <PUBCHEM_ATOM_UDEF_STEREO_COUNT>
0

> <PUBCHEM_BOND_DEF_STEREO_COUNT>
0

> <PUBCHEM_BOND_UDEF_STEREO_COUNT>
0

> <PUBCHEM_ISOTOPIC_ATOM_COUNT>
0

> <PUBCHEM_COMPONENT_COUNT>
1

> <PUBCHEM_CACTVS_TAUTO_COUNT>
3

> <PUBCHEM_CONFORMER_ID>
000293F400000001

> <PUBCHEM_MMFF94_ENERGY>
43.4628

> <PUBCHEM_FEATURE_SELFOVERLAP>
66.576

> <PUBCHEM_SHAPE_FINGERPRINT>
10366900 7 17632860819344287322
10608611 8 18411986866515803037
11405975 8 18410293639967664417
11471102 20 18408045130352154628
11615757 297 18186518795693714881
12032990 46 18409164420230196294
12236239 1 17167866386795669933
12403259 226 18337958883068698073
12403259 415 18410015416196943424
12500047 106 18271249442896032733
12507557 5 18334296482829733064
12715332 25 17749391429822844398
12916754 54 18336826394934815297
13675066 3 17968104122540738160
13760787 19 17917150610204523530
13862211 1 18336549412916447982
14341114 176 18411694375042832825
15196674 1 18410012126457592960
15219456 202 18412265034293673849
18186145 218 18114174233468859912
19591789 44 18410013195772866798
200 152 18040159517608067029
20645477 56 18200031875926497821
21267235 1 18409441475432767583
21682296 61 18041834129773824526
21709351 56 18411423920667198660
221490 88 18410571743294781634
23402539 116 17060338556288227774
23402655 69 18334579083019407348
23557571 272 18412259558421283933
23559900 14 18411990143406869585
2871803 45 18270128915998798759
296302 2 9799694804838832774
3286 77 18410575050419651700
335352 9 18337391663785779660
350125 39 18337948995879506543
3545911 37 18411419557455374021
4214541 1 18410856581468222833
4990 188 18260542351293392430
5104073 3 18408606950333402680
633830 44 17847062177199256052
77779 3 18410855451575377869
9709674 26 18270398270071112331

> <PUBCHEM_SHAPE_MULTIPOLES>
348.5
9.99
2.15
0.76
3.78
0.08
-0.06
-2.26
-0.54
-1.02
0.11
-0.36
0.05
0.78

> <PUBCHEM_SHAPE_SELFOVERLAP>
750.823

> <PUBCHEM_SHAPE_VOLUME>
190.2

> <PUBCHEM_COORDINATE_TYPE>
2
5
10

$$$$

