5281381
  -OEChem-07051212563D

 39 41  0     1  0  0  0  0  0999 V2000
    5.3305    0.6266    0.4454 O   0  0  0  0  0  0  0  0  0  0  0  0
    1.4862   -2.4737   -0.1372 N   0  0  0  0  0  0  0  0  0  0  0  0
   -4.0066   -0.1582    0.1141 N   0  0  0  0  0  0  0  0  0  0  0  0
    0.3691   -1.5945    0.2245 C   0  0  1  0  0  0  0  0  0  0  0  0
    0.6502   -0.1146   -0.2639 C   0  0  1  0  0  0  0  0  0  0  0  0
   -0.9629   -2.2174   -0.3135 C   0  0  0  0  0  0  0  0  0  0  0  0
   -0.5805    0.7598   -0.0807 C   0  0  0  0  0  0  0  0  0  0  0  0
   -1.8257    0.1181   -0.0371 C   0  0  0  0  0  0  0  0  0  0  0  0
   -2.0914   -1.2642   -0.1268 C   0  0  0  0  0  0  0  0  0  0  0  0
   -3.0186    0.8028    0.1000 C   0  0  0  0  0  0  0  0  0  0  0  0
    1.8574    0.4421    0.4353 C   0  0  0  0  0  0  0  0  0  0  0  0
   -3.4543   -1.4150   -0.0283 C   0  0  0  0  0  0  0  0  0  0  0  0
   -0.6049    2.1606   -0.0257 C   0  0  0  0  0  0  0  0  0  0  0  0
   -3.0512    2.1941    0.1882 C   0  0  0  0  0  0  0  0  0  0  0  0
   -1.8156    2.8575    0.1147 C   0  0  0  0  0  0  0  0  0  0  0  0
    3.0186    0.8554   -0.1076 C   0  0  0  0  0  0  0  0  0  0  0  0
    1.3017   -3.7958    0.4363 C   0  0  0  0  0  0  0  0  0  0  0  0
    4.1773    1.4296    0.6622 C   0  0  0  0  0  0  0  0  0  0  0  0
    3.2208    0.7868   -1.6000 C   0  0  0  0  0  0  0  0  0  0  0  0
    0.2888   -1.5556    1.3229 H   0  0  0  0  0  0  0  0  0  0  0  0
    0.8088   -0.1689   -1.3475 H   0  0  0  0  0  0  0  0  0  0  0  0
   -1.2112   -3.1433    0.2170 H   0  0  0  0  0  0  0  0  0  0  0  0
   -0.8700   -2.4502   -1.3819 H   0  0  0  0  0  0  0  0  0  0  0  0
    1.7664    0.5194    1.5193 H   0  0  0  0  0  0  0  0  0  0  0  0
    2.3566   -2.0819    0.2206 H   0  0  0  0  0  0  0  0  0  0  0  0
   -4.0883   -2.2902   -0.0506 H   0  0  0  0  0  0  0  0  0  0  0  0
    0.3182    2.7309   -0.0916 H   0  0  0  0  0  0  0  0  0  0  0  0
   -4.9957    0.0294    0.2031 H   0  0  0  0  0  0  0  0  0  0  0  0
   -3.9808    2.7414    0.2941 H   0  0  0  0  0  0  0  0  0  0  0  0
   -1.7971    3.9441    0.1637 H   0  0  0  0  0  0  0  0  0  0  0  0
    1.0626   -3.7617    1.5045 H   0  0  0  0  0  0  0  0  0  0  0  0
    2.2380   -4.3559    0.3352 H   0  0  0  0  0  0  0  0  0  0  0  0
    0.5454   -4.3799   -0.0962 H   0  0  0  0  0  0  0  0  0  0  0  0
    4.3942    2.4488    0.3274 H   0  0  0  0  0  0  0  0  0  0  0  0
    3.9790    1.4647    1.7384 H   0  0  0  0  0  0  0  0  0  0  0  0
    3.9827    1.5067   -1.9202 H   0  0  0  0  0  0  0  0  0  0  0  0
    3.5604   -0.2116   -1.8931 H   0  0  0  0  0  0  0  0  0  0  0  0
    2.3189    1.0446   -2.1621 H   0  0  0  0  0  0  0  0  0  0  0  0
    5.1341   -0.2671    0.7753 H   0  0  0  0  0  0  0  0  0  0  0  0
  1 18  1  0  0  0  0
  1 39  1  0  0  0  0
  2  4  1  0  0  0  0
  2 17  1  0  0  0  0
  2 25  1  0  0  0  0
  3 10  1  0  0  0  0
  3 12  1  0  0  0  0
  3 28  1  0  0  0  0
  4  5  1  0  0  0  0
  4  6  1  0  0  0  0
  4 20  1  0  0  0  0
  5  7  1  0  0  0  0
  5 11  1  0  0  0  0
  5 21  1  0  0  0  0
  6  9  1  0  0  0  0
  6 22  1  0  0  0  0
  6 23  1  0  0  0  0
  7  8  2  0  0  0  0
  7 13  1  0  0  0  0
  8  9  1  0  0  0  0
  8 10  1  0  0  0  0
  9 12  2  0  0  0  0
 10 14  2  0  0  0  0
 11 16  2  0  0  0  0
 11 24  1  0  0  0  0
 12 26  1  0  0  0  0
 13 15  2  0  0  0  0
 13 27  1  0  0  0  0
 14 15  1  0  0  0  0
 14 29  1  0  0  0  0
 15 30  1  0  0  0  0
 16 18  1  0  0  0  0
 16 19  1  0  0  0  0
 17 31  1  0  0  0  0
 17 32  1  0  0  0  0
 17 33  1  0  0  0  0
 18 34  1  0  0  0  0
 18 35  1  0  0  0  0
 19 36  1  0  0  0  0
 19 37  1  0  0  0  0
 19 38  1  0  0  0  0
M  END
> <PUBCHEM_COMPOUND_CID>
5281381

> <PUBCHEM_CONFORMER_RMSD>
0.6

> <PUBCHEM_CONFORMER_DIVERSEORDER>
1
4
9
5
2
3
7
6
8

> <PUBCHEM_MMFF94_PARTIAL_CHARGES>
26
1 -0.68
10 -0.15
11 -0.29
12 -0.3
13 -0.15
14 -0.15
15 -0.15
16 -0.28
17 0.27
18 0.42
19 0.14
2 -0.9
24 0.15
25 0.36
26 0.15
27 0.15
28 0.27
29 0.15
3 0.03
30 0.15
39 0.4
4 0.27
5 0.28
6 0.18
7 -0.14
9 -0.18

> <PUBCHEM_EFFECTIVE_ROTOR_COUNT>
3.6

> <PUBCHEM_PHARMACOPHORE_FEATURES>
10
1 1 acceptor
1 1 donor
1 19 hydrophobe
1 2 cation
1 2 donor
1 3 cation
1 3 donor
5 3 8 9 10 12 rings
6 4 5 6 7 8 9 rings
6 7 8 10 13 14 15 rings

> <PUBCHEM_HEAVY_ATOM_COUNT>
19

> <PUBCHEM_ATOM_DEF_STEREO_COUNT>
2

> <PUBCHEM_ATOM_UDEF_STEREO_COUNT>
0

> <PUBCHEM_BOND_DEF_STEREO_COUNT>
1

> <PUBCHEM_BOND_UDEF_STEREO_COUNT>
0

> <PUBCHEM_ISOTOPIC_ATOM_COUNT>
0

> <PUBCHEM_COMPONENT_COUNT>
1

> <PUBCHEM_CACTVS_TAUTO_COUNT>
1

> <PUBCHEM_CONFORMER_ID>
0050966500000001

> <PUBCHEM_MMFF94_ENERGY>
41.6689

> <PUBCHEM_FEATURE_SELFOVERLAP>
50.96

> <PUBCHEM_SHAPE_FINGERPRINT>
10411042 1 17545322982193641054
10493431 412 18262226833383588617
10498660 4 18410575089227507045
10616163 171 18411700984654499650
10967382 1 18410574007058862765
1100329 8 17906171755132245675
11132069 177 18335416829180461325
11578080 2 16914264158983251734
11680986 33 18123753316172029179
12173636 292 18410294704961506156
12236239 1 17775290417983693756
12390115 104 18187910811690588312
12839892 36 18339942488271528578
13140716 1 18121494649148613145
13862211 1 18265897952294946223
14178342 30 18341046406050660893
14223421 5 18339642368551349221
14420673 8 18123758814627552010
14614273 12 18272658969215453013
14790565 3 18195226851067879993
15042514 8 18124032334533513330
15536298 74 18335418023503129606
16945 1 18410013200394342453
18186145 218 17968362520748019908
193761 8 18194401319344773143
19591789 44 18122903119101419379
20028762 73 17684076986206876783
20510252 161 18261671489162802344
20671657 1 18050000300994875952
20905425 154 18334851774830137431
21501502 16 18192713560516848747
21524375 3 18333731299699000446
2334 1 18338233877245317887
23366157 5 17986667280453255642
23402539 116 18262245404146209102
23557571 272 18187072920022755404
23558518 356 18200306761790074955
23559900 14 17976267046873133098
2748010 2 18266735964769807445
34934 24 18408610266744337231
350125 39 18194958767112655456
352729 6 18126552436595558014
43471831 8 18413108372428437378
5104073 3 18338514252320108970
589210 1 18194402423030009931
6138700 20 18194114343317498414
7097593 13 17768542924992199466
7364860 26 18192713577586188510
81228 2 17541683615906138234
9709674 26 18334007268759792014
9981440 41 18342178855914395578

> <PUBCHEM_SHAPE_MULTIPOLES>
375.18
7.17
3.5
0.81
5.57
2.21
0.19
-2.96
-0.51
-0.31
-0.37
0.61
-0.11
-0.21

> <PUBCHEM_SHAPE_SELFOVERLAP>
809.104

> <PUBCHEM_SHAPE_VOLUME>
207.6

> <PUBCHEM_COORDINATE_TYPE>
2
5
10

$$$$

