3050259
  -OEChem-07051213103D

 19 20  0     1  0  0  0  0  0999 V2000
   -0.7907   -1.0358    0.0639 O   0  0  0  0  0  0  0  0  0  0  0  0
    2.7386    0.9932   -0.7288 O   0  0  0  0  0  0  0  0  0  0  0  0
   -3.4204   -0.2263   -0.6266 O   0  0  0  0  0  0  0  0  0  0  0  0
    0.9997    0.3177    0.7156 N   0  0  0  0  0  0  0  0  0  0  0  0
    0.5499   -1.0769    0.6097 C   0  0  2  0  0  0  0  0  0  0  0  0
   -0.1301    1.2125    0.5545 C   0  0  0  0  0  0  0  0  0  0  0  0
   -1.1345    0.3460   -0.2340 C   0  0  2  0  0  0  0  0  0  0  0  0
    1.7472   -1.3223   -0.3232 C   0  0  0  0  0  0  0  0  0  0  0  0
    2.0163    0.1878   -0.1865 C   0  0  0  0  0  0  0  0  0  0  0  0
   -2.5760    0.6042    0.1553 C   0  0  0  0  0  0  0  0  0  0  0  0
    0.5849   -1.6073    1.5662 H   0  0  0  0  0  0  0  0  0  0  0  0
    0.1453    2.1191    0.0087 H   0  0  0  0  0  0  0  0  0  0  0  0
   -0.4959    1.4625    1.5549 H   0  0  0  0  0  0  0  0  0  0  0  0
   -0.9873    0.4696   -1.3135 H   0  0  0  0  0  0  0  0  0  0  0  0
    1.4958   -1.6371   -1.3389 H   0  0  0  0  0  0  0  0  0  0  0  0
    2.5388   -1.9547    0.0861 H   0  0  0  0  0  0  0  0  0  0  0  0
   -2.8585    1.6487   -0.0075 H   0  0  0  0  0  0  0  0  0  0  0  0
   -2.7532    0.3486    1.2048 H   0  0  0  0  0  0  0  0  0  0  0  0
   -3.2907    0.0170   -1.5592 H   0  0  0  0  0  0  0  0  0  0  0  0
  1  5  1  0  0  0  0
  1  7  1  0  0  0  0
  2  9  2  0  0  0  0
  3 10  1  0  0  0  0
  3 19  1  0  0  0  0
  4  5  1  0  0  0  0
  4  6  1  0  0  0  0
  4  9  1  0  0  0  0
  5  8  1  0  0  0  0
  5 11  1  0  0  0  0
  6  7  1  0  0  0  0
  6 12  1  0  0  0  0
  6 13  1  0  0  0  0
  7 10  1  0  0  0  0
  7 14  1  0  0  0  0
  8  9  1  0  0  0  0
  8 15  1  0  0  0  0
  8 16  1  0  0  0  0
 10 17  1  0  0  0  0
 10 18  1  0  0  0  0
M  END
> <PUBCHEM_COMPOUND_CID>
3050259

> <PUBCHEM_CONFORMER_RMSD>
0.4

> <PUBCHEM_CONFORMER_DIVERSEORDER>
1
2
3

> <PUBCHEM_MMFF94_PARTIAL_CHARGES>
11
1 -0.54
10 0.28
19 0.4
2 -0.57
3 -0.68
4 -0.59
5 0.48
6 0.3
7 0.28
8 0.05
9 0.58

> <PUBCHEM_EFFECTIVE_ROTOR_COUNT>
1.8

> <PUBCHEM_PHARMACOPHORE_FEATURES>
5
1 1 acceptor
1 2 acceptor
1 3 acceptor
1 3 donor
7 1 4 5 6 7 8 9 rings

> <PUBCHEM_HEAVY_ATOM_COUNT>
10

> <PUBCHEM_ATOM_DEF_STEREO_COUNT>
2

> <PUBCHEM_ATOM_UDEF_STEREO_COUNT>
0

> <PUBCHEM_BOND_DEF_STEREO_COUNT>
0

> <PUBCHEM_BOND_UDEF_STEREO_COUNT>
0

> <PUBCHEM_ISOTOPIC_ATOM_COUNT>
0

> <PUBCHEM_COMPONENT_COUNT>
1

> <PUBCHEM_CACTVS_TAUTO_COUNT>
1

> <PUBCHEM_CONFORMER_ID>
002E8B1300000001

> <PUBCHEM_MMFF94_ENERGY>
31.3407

> <PUBCHEM_FEATURE_SELFOVERLAP>
25.375

> <PUBCHEM_SHAPE_FINGERPRINT>
12897270 3 18412541015775013524
12932764 1 17458352944149837881
14128692 85 18044654441227718558
14325111 11 18411981386147777509
16945 1 18335134267634793848
20653085 51 17559092308368514644
21040471 1 18410297986448051082
21293036 1 18336826403240056165
23235685 24 18341615888823055500
23552423 10 18194680595124297859
2748010 2 17832707872362398985
29004967 10 5111714739791221850
5084963 1 18266744756013987360

> <PUBCHEM_SHAPE_MULTIPOLES>
183.21
3.99
1.3
0.8
2.29
0.1
0.03
-0.27
-1.13
-0.45
0.04
-0.08
-0.03
-0.23

> <PUBCHEM_SHAPE_SELFOVERLAP>
379.12

> <PUBCHEM_SHAPE_VOLUME>
105.5

> <PUBCHEM_COORDINATE_TYPE>
2
5
10

$$$$

