5284409
  -OEChem-07051212542D

 48 48  0     1  0  0  0  0  0999 V2000
    9.2968    4.2164    0.0000 Cl  0  0  0  0  0  0  0  0  0  0  0  0
    4.0010    4.9030    0.0000 O   0  0  0  0  0  0  0  0  0  0  0  0
    4.0010    2.9030    0.0000 O   0  0  0  0  0  0  0  0  0  0  0  0
    5.7494    8.9376    0.0000 O   0  0  0  0  0  0  0  0  0  0  0  0
    2.2690    1.9030    0.0000 N   0  0  0  0  0  0  0  0  0  0  0  0
    1.4030    1.4030    0.0000 C   0  0  0  0  0  0  0  0  0  0  0  0
    5.7610    5.8683    0.0000 C   0  0  0  0  0  0  0  0  0  0  0  0
    4.8671    6.4030    0.0000 C   0  0  0  0  0  0  0  0  0  0  0  0
    2.2690    2.9030    0.0000 C   0  0  0  0  0  0  0  0  0  0  0  0
    6.6671    6.3822    0.0000 C   0  0  0  0  0  0  0  0  0  0  0  0
    3.1350    3.4030    0.0000 C   0  0  1  0  0  0  0  0  0  0  0  0
    6.6671    7.4238    0.0000 C   0  0  0  0  0  0  0  0  0  0  0  0
    4.8671    7.4030    0.0000 C   0  0  0  0  0  0  0  0  0  0  0  0
    4.0010    5.9030    0.0000 C   0  0  0  0  0  0  0  0  0  0  0  0
    0.5369    0.9030    0.0000 C   0  0  0  0  0  0  0  0  0  0  0  0
    1.9030    0.5369    0.0000 C   0  0  0  0  0  0  0  0  0  0  0  0
    0.9030    2.2690    0.0000 C   0  0  0  0  0  0  0  0  0  0  0  0
    3.1350    4.4030    0.0000 C   0  0  0  0  0  0  0  0  0  0  0  0
    5.7610    7.9376    0.0000 C   0  0  0  0  0  0  0  0  0  0  0  0
    4.0010    7.9030    0.0000 C   0  0  0  0  0  0  0  0  0  0  0  0
    3.1350    6.4030    0.0000 C   0  0  0  0  0  0  0  0  0  0  0  0
    3.1350    7.4030    0.0000 C   0  0  0  0  0  0  0  0  0  0  0  0
    5.3564    5.3985    0.0000 H   0  0  0  0  0  0  0  0  0  0  0  0
    6.1546    5.3893    0.0000 H   0  0  0  0  0  0  0  0  0  0  0  0
    2.0569    3.4856    0.0000 H   0  0  0  0  0  0  0  0  0  0  0  0
    1.6584    2.7953    0.0000 H   0  0  0  0  0  0  0  0  0  0  0  0
    6.8761    5.7984    0.0000 H   0  0  0  0  0  0  0  0  0  0  0  0
    7.2779    6.4882    0.0000 H   0  0  0  0  0  0  0  0  0  0  0  0
    2.8059    1.5930    0.0000 H   0  0  0  0  0  0  0  0  0  0  0  0
    3.1350    2.7830    0.0000 H   0  0  0  0  0  0  0  0  0  0  0  0
    7.2779    7.3177    0.0000 H   0  0  0  0  0  0  0  0  0  0  0  0
    6.8761    8.0075    0.0000 H   0  0  0  0  0  0  0  0  0  0  0  0
    0.2269    1.4399    0.0000 H   0  0  0  0  0  0  0  0  0  0  0  0
    0.0000    0.5930    0.0000 H   0  0  0  0  0  0  0  0  0  0  0  0
    0.8469    0.3660    0.0000 H   0  0  0  0  0  0  0  0  0  0  0  0
    1.4399    2.5790    0.0000 H   0  0  0  0  0  0  0  0  0  0  0  0
    0.5930    2.8059    0.0000 H   0  0  0  0  0  0  0  0  0  0  0  0
    0.3660    1.9590    0.0000 H   0  0  0  0  0  0  0  0  0  0  0  0
    1.3660    0.2269    0.0000 H   0  0  0  0  0  0  0  0  0  0  0  0
    2.2130    0.0000    0.0000 H   0  0  0  0  0  0  0  0  0  0  0  0
    2.4399    0.8469    0.0000 H   0  0  0  0  0  0  0  0  0  0  0  0
    2.9230    4.9856    0.0000 H   0  0  0  0  0  0  0  0  0  0  0  0
    2.5244    4.2953    0.0000 H   0  0  0  0  0  0  0  0  0  0  0  0
    4.0010    8.5230    0.0000 H   0  0  0  0  0  0  0  0  0  0  0  0
    2.5981    6.0930    0.0000 H   0  0  0  0  0  0  0  0  0  0  0  0
    2.5981    7.7130    0.0000 H   0  0  0  0  0  0  0  0  0  0  0  0
    4.0010    2.2830    0.0000 H   0  0  0  0  0  0  0  0  0  0  0  0
   10.2968    4.2164    0.0000 H   0  0  0  0  0  0  0  0  0  0  0  0
  1 48  1  0  0  0  0
  2 14  1  0  0  0  0
  2 18  1  0  0  0  0
 11  3  1  1  0  0  0
  3 47  1  0  0  0  0
  4 19  2  0  0  0  0
  5  6  1  0  0  0  0
  5  9  1  0  0  0  0
  5 29  1  0  0  0  0
  6 15  1  0  0  0  0
  6 16  1  0  0  0  0
  6 17  1  0  0  0  0
  7  8  1  0  0  0  0
  7 10  1  0  0  0  0
  7 23  1  0  0  0  0
  7 24  1  0  0  0  0
  8 13  2  0  0  0  0
  8 14  1  0  0  0  0
  9 11  1  0  0  0  0
  9 25  1  0  0  0  0
  9 26  1  0  0  0  0
 10 12  1  0  0  0  0
 10 27  1  0  0  0  0
 10 28  1  0  0  0  0
 11 18  1  0  0  0  0
 11 30  1  0  0  0  0
 12 19  1  0  0  0  0
 12 31  1  0  0  0  0
 12 32  1  0  0  0  0
 13 19  1  0  0  0  0
 13 20  1  0  0  0  0
 14 21  2  0  0  0  0
 15 33  1  0  0  0  0
 15 34  1  0  0  0  0
 15 35  1  0  0  0  0
 16 39  1  0  0  0  0
 16 40  1  0  0  0  0
 16 41  1  0  0  0  0
 17 36  1  0  0  0  0
 17 37  1  0  0  0  0
 17 38  1  0  0  0  0
 18 42  1  0  0  0  0
 18 43  1  0  0  0  0
 20 22  2  0  0  0  0
 20 44  1  0  0  0  0
 21 22  1  0  0  0  0
 21 45  1  0  0  0  0
 22 46  1  0  0  0  0
M  END
> <PUBCHEM_COMPOUND_CID>
5284409

> <PUBCHEM_COMPOUND_CANONICALIZED>
1

> <PUBCHEM_CACTVS_COMPLEXITY>
350

> <PUBCHEM_CACTVS_HBOND_ACCEPTOR>
4

> <PUBCHEM_CACTVS_HBOND_DONOR>
3

> <PUBCHEM_CACTVS_ROTATABLE_BOND>
6

> <PUBCHEM_CACTVS_SUBSKEYS>
AAADceB6MAAEAAAAAAAAAAAAAAAAAAAAAAAwYAAAAAAAAADBAAAAHgAQCAAADJzhmAYyBoLABgCIAqBSAAACCAAkIAAIiIEOCMgPNjKENRqGOSCm0BGbqYeKyLCOgAABAAAYAAAAAAIAADAAAAAAAAAAAA==

> <PUBCHEM_IUPAC_OPENEYE_NAME>
5-[(2S)-3-(tert-butylamino)-2-hydroxy-propoxy]tetralin-1-one hydrochloride

> <PUBCHEM_IUPAC_CAS_NAME>
5-[(2S)-3-(tert-butylamino)-2-hydroxypropoxy]-3,4-dihydro-2H-naphthalen-1-one hydrochloride

> <PUBCHEM_IUPAC_NAME>
5-[(2S)-3-(tert-butylamino)-2-hydroxypropoxy]-3,4-dihydro-2H-naphthalen-1-one hydrochloride

> <PUBCHEM_IUPAC_SYSTEMATIC_NAME>
5-[(2S)-3-(tert-butylamino)-2-oxidanyl-propoxy]-3,4-dihydro-2H-naphthalen-1-one hydrochloride

> <PUBCHEM_IUPAC_TRADITIONAL_NAME>
5-[(2S)-3-(tert-butylamino)-2-hydroxy-propoxy]tetralin-1-one hydrochloride

> <PUBCHEM_IUPAC_INCHI>
InChI=1S/C17H25NO3.ClH/c1-17(2,3)18-10-12(19)11-21-16-9-5-6-13-14(16)7-4-8-15(13)20;/h5-6,9,12,18-19H,4,7-8,10-11H2,1-3H3;1H/t12-;/m0./s1

> <PUBCHEM_IUPAC_INCHIKEY>
DNTDOBSIBZKFCP-YDALLXLXSA-N

> <PUBCHEM_EXACT_MASS>
327.160121

> <PUBCHEM_MOLECULAR_FORMULA>
C17H26ClNO3

> <PUBCHEM_MOLECULAR_WEIGHT>
327.84624

> <PUBCHEM_OPENEYE_CAN_SMILES>
CC(C)(C)NCC(COC1=CC=CC2=C1CCCC2=O)O.Cl

> <PUBCHEM_OPENEYE_ISO_SMILES>
CC(C)(C)NC[C@@H](COC1=CC=CC2=C1CCCC2=O)O.Cl

> <PUBCHEM_CACTVS_TPSA>
58.6

> <PUBCHEM_MONOISOTOPIC_WEIGHT>
327.160121

> <PUBCHEM_TOTAL_CHARGE>
0

> <PUBCHEM_HEAVY_ATOM_COUNT>
22

> <PUBCHEM_ATOM_DEF_STEREO_COUNT>
1

> <PUBCHEM_ATOM_UDEF_STEREO_COUNT>
0

> <PUBCHEM_BOND_DEF_STEREO_COUNT>
0

> <PUBCHEM_BOND_UDEF_STEREO_COUNT>
0

> <PUBCHEM_ISOTOPIC_ATOM_COUNT>
0

> <PUBCHEM_COMPONENT_COUNT>
2

> <PUBCHEM_CACTVS_TAUTO_COUNT>
2

> <PUBCHEM_COORDINATE_TYPE>
1
5
255

> <PUBCHEM_BONDANNOTATIONS>
13  20  8
14  21  8
20  22  8
21  22  8
11  3  5
8  13  8
8  14  8

$$$$

