15588758
  -OEChem-07051213112D

 77 80  0     1  0  0  0  0  0999 V2000
    8.6270   -1.0216    0.0000 O   0  0  0  0  0  0  0  0  0  0  0  0
    6.8671    1.0131    0.0000 O   0  0  0  0  0  0  0  0  0  0  0  0
   10.3972   -1.0111    0.0000 O   0  0  0  0  0  0  0  0  0  0  0  0
    5.1350    1.0131    0.0000 O   0  0  0  0  0  0  0  0  0  0  0  0
    6.8671   -1.9869    0.0000 O   0  0  0  0  0  0  0  0  0  0  0  0
    8.6613   -2.0044    0.0000 O   0  0  0  0  0  0  0  0  0  0  0  0
    4.2690    2.5131    0.0000 O   0  0  0  0  0  0  0  0  0  0  0  0
    8.6536   -4.0044    0.0000 O   0  0  0  0  0  0  0  0  0  0  0  0
    6.8671    2.0131    0.0000 O   0  0  0  0  0  0  0  0  0  0  0  0
    6.8671    4.0131    0.0000 O   0  0  0  0  0  0  0  0  0  0  0  0
    5.1350    5.0131    0.0000 O   0  0  0  0  0  0  0  0  0  0  0  0
    2.5369    3.5131    0.0000 O   0  0  0  0  0  0  0  0  0  0  0  0
    5.1350   -0.9869    0.0000 N   0  0  0  0  0  0  0  0  0  0  0  0
   10.3972    1.0372    0.0000 N   0  0  0  0  0  0  0  0  0  0  0  0
   12.1254   -2.0177    0.0000 N   0  0  0  0  0  0  0  0  0  0  0  0
   10.3818   -5.0110    0.0000 N   0  0  0  0  0  0  0  0  0  0  0  0
    7.7331   -0.4869    0.0000 C   0  0  1  0  0  0  0  0  0  0  0  0
    7.7331    0.5131    0.0000 C   0  0  2  0  0  0  0  0  0  0  0  0
    6.8671   -0.9869    0.0000 C   0  0  1  0  0  0  0  0  0  0  0  0
    8.6270    1.0478    0.0000 C   0  0  0  0  0  0  0  0  0  0  0  0
    6.0010   -0.4869    0.0000 C   0  0  1  0  0  0  0  0  0  0  0  0
    9.5331    0.5339    0.0000 C   0  0  2  0  0  0  0  0  0  0  0  0
    9.5331   -0.5077    0.0000 C   0  0  2  0  0  0  0  0  0  0  0  0
   10.3933   -2.0110    0.0000 C   0  0  2  0  0  0  0  0  0  0  0  0
    6.0010    0.5131    0.0000 C   0  0  2  0  0  0  0  0  0  0  0  0
   11.2574   -2.5144    0.0000 C   0  0  2  0  0  0  0  0  0  0  0  0
    9.5254   -2.5077    0.0000 C   0  0  1  0  0  0  0  0  0  0  0  0
    9.5215   -3.5077    0.0000 C   0  0  2  0  0  0  0  0  0  0  0  0
   11.2536   -3.5144    0.0000 C   0  0  0  0  0  0  0  0  0  0  0  0
   10.3856   -4.0110    0.0000 C   0  0  1  0  0  0  0  0  0  0  0  0
    5.1350    2.0131    0.0000 C   0  0  1  0  0  0  0  0  0  0  0  0
    6.0010    2.5131    0.0000 C   0  0  1  0  0  0  0  0  0  0  0  0
    6.0010    3.5131    0.0000 C   0  0  2  0  0  0  0  0  0  0  0  0
    5.1350    4.0131    0.0000 C   0  0  1  0  0  0  0  0  0  0  0  0
    4.2690    3.5131    0.0000 C   0  0  1  0  0  0  0  0  0  0  0  0
    5.1350   -1.9869    0.0000 C   0  0  0  0  0  0  0  0  0  0  0  0
    3.4030    4.0131    0.0000 C   0  0  0  0  0  0  0  0  0  0  0  0
    7.7265   -1.3369    0.0000 H   0  0  0  0  0  0  0  0  0  0  0  0
    7.7265    1.3631    0.0000 H   0  0  0  0  0  0  0  0  0  0  0  0
    6.3301   -1.2969    0.0000 H   0  0  0  0  0  0  0  0  0  0  0  0
    9.0207    1.5268    0.0000 H   0  0  0  0  0  0  0  0  0  0  0  0
    8.2224    1.5175    0.0000 H   0  0  0  0  0  0  0  0  0  0  0  0
    5.4641   -0.1769    0.0000 H   0  0  0  0  0  0  0  0  0  0  0  0
    9.5295    1.1539    0.0000 H   0  0  0  0  0  0  0  0  0  0  0  0
    9.5295   -1.1277    0.0000 H   0  0  0  0  0  0  0  0  0  0  0  0
    9.8576   -1.6990    0.0000 H   0  0  0  0  0  0  0  0  0  0  0  0
    5.4641    0.2031    0.0000 H   0  0  0  0  0  0  0  0  0  0  0  0
   11.7932   -2.8264    0.0000 H   0  0  0  0  0  0  0  0  0  0  0  0
    9.5278   -1.8877    0.0000 H   0  0  0  0  0  0  0  0  0  0  0  0
    8.9858   -3.1956    0.0000 H   0  0  0  0  0  0  0  0  0  0  0  0
   11.4634   -4.0978    0.0000 H   0  0  0  0  0  0  0  0  0  0  0  0
   11.8646   -3.4091    0.0000 H   0  0  0  0  0  0  0  0  0  0  0  0
    9.8475   -4.3190    0.0000 H   0  0  0  0  0  0  0  0  0  0  0  0
    4.5981   -0.6769    0.0000 H   0  0  0  0  0  0  0  0  0  0  0  0
    5.6720    1.7031    0.0000 H   0  0  0  0  0  0  0  0  0  0  0  0
   10.3948    1.6572    0.0000 H   0  0  0  0  0  0  0  0  0  0  0  0
   10.9353    0.7293    0.0000 H   0  0  0  0  0  0  0  0  0  0  0  0
    6.3301   -2.2969    0.0000 H   0  0  0  0  0  0  0  0  0  0  0  0
    6.5380    2.8231    0.0000 H   0  0  0  0  0  0  0  0  0  0  0  0
    6.0010    4.1331    0.0000 H   0  0  0  0  0  0  0  0  0  0  0  0
   12.6611   -2.3298    0.0000 H   0  0  0  0  0  0  0  0  0  0  0  0
   12.1278   -1.3977    0.0000 H   0  0  0  0  0  0  0  0  0  0  0  0
    5.6720    4.3231    0.0000 H   0  0  0  0  0  0  0  0  0  0  0  0
    3.7320    3.2031    0.0000 H   0  0  0  0  0  0  0  0  0  0  0  0
   10.9175   -5.3231    0.0000 H   0  0  0  0  0  0  0  0  0  0  0  0
    9.8436   -5.3190    0.0000 H   0  0  0  0  0  0  0  0  0  0  0  0
    8.1232   -2.3123    0.0000 H   0  0  0  0  0  0  0  0  0  0  0  0
    4.5150   -1.9869    0.0000 H   0  0  0  0  0  0  0  0  0  0  0  0
    5.1350   -2.6069    0.0000 H   0  0  0  0  0  0  0  0  0  0  0  0
    5.7550   -1.9869    0.0000 H   0  0  0  0  0  0  0  0  0  0  0  0
    8.6512   -4.6244    0.0000 H   0  0  0  0  0  0  0  0  0  0  0  0
    3.8015    4.4880    0.0000 H   0  0  0  0  0  0  0  0  0  0  0  0
    3.0044    4.4880    0.0000 H   0  0  0  0  0  0  0  0  0  0  0  0
    7.4040    2.3231    0.0000 H   0  0  0  0  0  0  0  0  0  0  0  0
    6.8671    4.6331    0.0000 H   0  0  0  0  0  0  0  0  0  0  0  0
    4.5981    5.3231    0.0000 H   0  0  0  0  0  0  0  0  0  0  0  0
    2.0000    3.8231    0.0000 H   0  0  0  0  0  0  0  0  0  0  0  0
  1 17  1  0  0  0  0
  1 23  1  0  0  0  0
  2 18  1  0  0  0  0
  2 25  1  0  0  0  0
 23  3  1  1  0  0  0
 24  3  1  6  0  0  0
 25  4  1  1  0  0  0
 31  4  1  1  0  0  0
 19  5  1  6  0  0  0
  5 58  1  0  0  0  0
 27  6  1  1  0  0  0
  6 67  1  0  0  0  0
  7 31  1  0  0  0  0
  7 35  1  0  0  0  0
 28  8  1  6  0  0  0
  8 71  1  0  0  0  0
 32  9  1  1  0  0  0
  9 74  1  0  0  0  0
 33 10  1  6  0  0  0
 10 75  1  0  0  0  0
 34 11  1  1  0  0  0
 11 76  1  0  0  0  0
 12 37  1  0  0  0  0
 12 77  1  0  0  0  0
 21 13  1  6  0  0  0
 13 36  1  0  0  0  0
 13 54  1  0  0  0  0
 22 14  1  1  0  0  0
 14 56  1  0  0  0  0
 14 57  1  0  0  0  0
 26 15  1  1  0  0  0
 15 61  1  0  0  0  0
 15 62  1  0  0  0  0
 30 16  1  1  0  0  0
 16 65  1  0  0  0  0
 16 66  1  0  0  0  0
 17 18  1  0  0  0  0
 17 19  1  0  0  0  0
 17 38  1  1  0  0  0
 18 20  1  0  0  0  0
 18 39  1  6  0  0  0
 19 21  1  0  0  0  0
 19 40  1  0  0  0  0
 20 22  1  0  0  0  0
 20 41  1  0  0  0  0
 20 42  1  0  0  0  0
 21 25  1  0  0  0  0
 21 43  1  0  0  0  0
 22 23  1  0  0  0  0
 22 44  1  0  0  0  0
 23 45  1  0  0  0  0
 24 26  1  0  0  0  0
 24 27  1  0  0  0  0
 24 46  1  0  0  0  0
 25 47  1  0  0  0  0
 26 29  1  0  0  0  0
 26 48  1  0  0  0  0
 27 28  1  0  0  0  0
 27 49  1  0  0  0  0
 28 30  1  0  0  0  0
 28 50  1  0  0  0  0
 29 30  1  0  0  0  0
 29 51  1  0  0  0  0
 29 52  1  0  0  0  0
 30 53  1  0  0  0  0
 31 32  1  0  0  0  0
 31 55  1  0  0  0  0
 32 33  1  0  0  0  0
 32 59  1  0  0  0  0
 33 34  1  0  0  0  0
 33 60  1  0  0  0  0
 34 35  1  0  0  0  0
 34 63  1  0  0  0  0
 35 37  1  6  0  0  0
 35 64  1  0  0  0  0
 36 68  1  0  0  0  0
 36 69  1  0  0  0  0
 36 70  1  0  0  0  0
 37 72  1  0  0  0  0
 37 73  1  0  0  0  0
M  END
> <PUBCHEM_COMPOUND_CID>
15588758

> <PUBCHEM_COMPOUND_CANONICALIZED>
1

> <PUBCHEM_CACTVS_COMPLEXITY>
758

> <PUBCHEM_CACTVS_HBOND_ACCEPTOR>
16

> <PUBCHEM_CACTVS_HBOND_DONOR>
11

> <PUBCHEM_CACTVS_ROTATABLE_BOND>
6

> <PUBCHEM_CACTVS_SUBSKEYS>
AAADcfB7vAAAAAAAAAAAAAAAAAAAAAAAAAA0SJEAAAAAAACQAAAAHgAQCAAACDzxgAcCCALABgAAAAAAAAAAAAAAAAAAAIAIAAATEAIAwAAnQAAHEAAXAAHw8K0AAAAAAAAAAAAAgAAUCACgAAAAAAAAAA==

> <PUBCHEM_IUPAC_OPENEYE_NAME>
(2R,3R,4S,5S,6R)-2-[[(2R,3S,4R,4aR,6S,7R,8aS)-7-amino-6-[(1R,2R,3S,4R,6S)-4,6-diamino-2,3-dihydroxy-cyclohexoxy]-4-hydroxy-3-(methylamino)-2,3,4,4a,6,7,8,8a-octahydropyrano[3,2-b]pyran-2-yl]oxy]-6-(hydroxymethyl)tetrahydropyran-3,4,5-triol

> <PUBCHEM_IUPAC_CAS_NAME>
(2R,3R,4S,5S,6R)-2-[[(2R,3S,4R,4aR,6S,7R,8aS)-7-amino-6-[(1R,2R,3S,4R,6S)-4,6-diamino-2,3-dihydroxycyclohexyl]oxy-4-hydroxy-3-(methylamino)-2,3,4,4a,6,7,8,8a-octahydropyrano[3,2-b]pyran-2-yl]oxy]-6-(hydroxymethyl)oxane-3,4,5-triol

> <PUBCHEM_IUPAC_NAME>
(2R,3R,4S,5S,6R)-2-[[(2R,3S,4R,4aR,6S,7R,8aS)-7-amino-6-[(1R,2R,3S,4R,6S)-4,6-diamino-2,3-dihydroxycyclohexyl]oxy-4-hydroxy-3-(methylamino)-2,3,4,4a,6,7,8,8a-octahydropyrano[3,2-b]pyran-2-yl]oxy]-6-(hydroxymethyl)oxane-3,4,5-triol

> <PUBCHEM_IUPAC_SYSTEMATIC_NAME>
(2R,3R,4S,5S,6R)-2-[[(2R,3S,4R,4aR,6S,7R,8aS)-7-azanyl-6-[(1R,2R,3S,4R,6S)-4,6-bis(azanyl)-2,3-bis(oxidanyl)cyclohexyl]oxy-3-(methylamino)-4-oxidanyl-2,3,4,4a,6,7,8,8a-octahydropyrano[3,2-b]pyran-2-yl]oxy]-6-(hydroxymethyl)oxane-3,4,5-triol

> <PUBCHEM_IUPAC_TRADITIONAL_NAME>
(2R,3R,4S,5S,6R)-2-[[(2R,3S,4R,4aR,6S,7R,8aS)-7-amino-6-[(1R,2R,3S,4R,6S)-4,6-diamino-2,3-dihydroxy-cyclohexoxy]-4-hydroxy-3-(methylamino)-2,3,4,4a,6,7,8,8a-octahydropyrano[3,2-b]pyran-2-yl]oxy]-6-methylol-tetrahydropyran-3,4,5-triol

> <PUBCHEM_IUPAC_INCHI>
InChI=1S/C21H40N4O12/c1-25-10-13(29)18-8(33-20(10)37-21-16(32)14(30)12(28)9(4-26)34-21)3-7(24)19(36-18)35-17-6(23)2-5(22)11(27)15(17)31/h5-21,25-32H,2-4,22-24H2,1H3/t5-,6+,7-,8+,9-,10+,11+,12-,13-,14+,15-,16-,17-,18+,19+,20-,21-/m1/s1

> <PUBCHEM_IUPAC_INCHIKEY>
WKKBQRRWYZAXFF-VJCYLLSFSA-N

> <PUBCHEM_XLOGP3_AA>
-6.8

> <PUBCHEM_EXACT_MASS>
540.264273

> <PUBCHEM_MOLECULAR_FORMULA>
C21H40N4O12

> <PUBCHEM_MOLECULAR_WEIGHT>
540.5619

> <PUBCHEM_OPENEYE_CAN_SMILES>
CNC1C(C2C(CC(C(O2)OC3C(CC(C(C3O)O)N)N)N)OC1OC4C(C(C(C(O4)CO)O)O)O)O

> <PUBCHEM_OPENEYE_ISO_SMILES>
CN[C@H]1[C@H]([C@@H]2[C@H](C[C@H]([C@H](O2)O[C@@H]3[C@H](C[C@H]([C@@H]([C@H]3O)O)N)N)N)O[C@@H]1O[C@@H]4[C@@H]([C@H]([C@@H]([C@H](O4)CO)O)O)O)O

> <PUBCHEM_CACTVS_TPSA>
278

> <PUBCHEM_MONOISOTOPIC_WEIGHT>
540.264273

> <PUBCHEM_TOTAL_CHARGE>
0

> <PUBCHEM_HEAVY_ATOM_COUNT>
37

> <PUBCHEM_ATOM_DEF_STEREO_COUNT>
17

> <PUBCHEM_ATOM_UDEF_STEREO_COUNT>
0

> <PUBCHEM_BOND_DEF_STEREO_COUNT>
0

> <PUBCHEM_BOND_UDEF_STEREO_COUNT>
0

> <PUBCHEM_ISOTOPIC_ATOM_COUNT>
0

> <PUBCHEM_COMPONENT_COUNT>
1

> <PUBCHEM_CACTVS_TAUTO_COUNT>
1

> <PUBCHEM_COORDINATE_TYPE>
1
5
255

> <PUBCHEM_BONDANNOTATIONS>
33  10  6
34  11  5
21  13  6
22  14  5
26  15  5
30  16  5
17  38  5
18  39  6
23  3  5
24  3  6
35  37  6
25  4  5
31  4  5
19  5  6
27  6  5
28  8  6
32  9  5

$$$$

