582944
  -OEChem-06241222443D

 28 29  0     1  0  0  0  0  0999 V2000
   -3.6654   -1.1293    0.1790 O   0  0  0  0  0  0  0  0  0  0  0  0
   -0.4176   -0.3887   -0.7741 C   0  0  1  0  0  0  0  0  0  0  0  0
   -1.2831   -0.8607    0.4167 C   0  0  1  0  0  0  0  0  0  0  0  0
   -1.0274    0.8510   -1.4738 C   0  0  0  0  0  0  0  0  0  0  0  0
   -1.6435    0.2674    1.3945 C   0  0  0  0  0  0  0  0  0  0  0  0
    1.0422   -0.2404   -0.3525 C   0  0  0  0  0  0  0  0  0  0  0  0
   -1.6951    1.8314   -0.5551 C   0  0  0  0  0  0  0  0  0  0  0  0
   -1.9573    1.5754    0.7326 C   0  0  0  0  0  0  0  0  0  0  0  0
   -2.5353   -1.5129   -0.1043 C   0  0  0  0  0  0  0  0  0  0  0  0
    1.8664   -1.3609   -0.3115 C   0  0  0  0  0  0  0  0  0  0  0  0
    1.5391    1.0142   -0.0126 C   0  0  0  0  0  0  0  0  0  0  0  0
    3.2003   -1.2255    0.0735 C   0  0  0  0  0  0  0  0  0  0  0  0
    2.8730    1.1494    0.3722 C   0  0  0  0  0  0  0  0  0  0  0  0
    3.7036    0.0295    0.4152 C   0  0  0  0  0  0  0  0  0  0  0  0
   -0.4159   -1.1766   -1.5430 H   0  0  0  0  0  0  0  0  0  0  0  0
   -0.7678   -1.6509    0.9790 H   0  0  0  0  0  0  0  0  0  0  0  0
   -1.7976    0.5086   -2.1781 H   0  0  0  0  0  0  0  0  0  0  0  0
   -0.2746    1.3664   -2.0822 H   0  0  0  0  0  0  0  0  0  0  0  0
   -0.7964    0.4374    2.0714 H   0  0  0  0  0  0  0  0  0  0  0  0
   -2.4857   -0.0210    2.0349 H   0  0  0  0  0  0  0  0  0  0  0  0
   -1.9695    2.7975   -0.9688 H   0  0  0  0  0  0  0  0  0  0  0  0
   -2.4233    2.3455    1.3406 H   0  0  0  0  0  0  0  0  0  0  0  0
   -2.3860   -2.3907   -0.7564 H   0  0  0  0  0  0  0  0  0  0  0  0
    1.4851   -2.3439   -0.5740 H   0  0  0  0  0  0  0  0  0  0  0  0
    0.9314    1.9109   -0.0257 H   0  0  0  0  0  0  0  0  0  0  0  0
    3.8469   -2.0975    0.1075 H   0  0  0  0  0  0  0  0  0  0  0  0
    3.2653    2.1263    0.6399 H   0  0  0  0  0  0  0  0  0  0  0  0
    4.7420    0.1349    0.7153 H   0  0  0  0  0  0  0  0  0  0  0  0
  1  9  2  0  0  0  0
  2  3  1  0  0  0  0
  2  4  1  0  0  0  0
  2  6  1  0  0  0  0
  2 15  1  0  0  0  0
  3  5  1  0  0  0  0
  3  9  1  0  0  0  0
  3 16  1  0  0  0  0
  4  7  1  0  0  0  0
  4 17  1  0  0  0  0
  4 18  1  0  0  0  0
  5  8  1  0  0  0  0
  5 19  1  0  0  0  0
  5 20  1  0  0  0  0
  6 10  2  0  0  0  0
  6 11  1  0  0  0  0
  7  8  2  0  0  0  0
  7 21  1  0  0  0  0
  8 22  1  0  0  0  0
  9 23  1  0  0  0  0
 10 12  1  0  0  0  0
 10 24  1  0  0  0  0
 11 13  2  0  0  0  0
 11 25  1  0  0  0  0
 12 14  2  0  0  0  0
 12 26  1  0  0  0  0
 13 14  1  0  0  0  0
 13 27  1  0  0  0  0
 14 28  1  0  0  0  0
M  END
> <PUBCHEM_COMPOUND_CID>
582944

> <PUBCHEM_CONFORMER_RMSD>
0.6

> <PUBCHEM_CONFORMER_DIVERSEORDER>
1
3
10
4
9
11
8
2
12
13
15
7
6
16
5
17
14

> <PUBCHEM_MMFF94_PARTIAL_CHARGES>
22
1 -0.57
10 -0.15
11 -0.15
12 -0.15
13 -0.15
14 -0.15
2 0.14
21 0.15
22 0.15
23 0.06
24 0.15
25 0.15
26 0.15
27 0.15
28 0.15
3 0.06
4 0.14
5 0.14
6 -0.14
7 -0.29
8 -0.29
9 0.45

> <PUBCHEM_EFFECTIVE_ROTOR_COUNT>
2.8

> <PUBCHEM_PHARMACOPHORE_FEATURES>
3
1 1 acceptor
6 2 3 4 5 7 8 rings
6 6 10 11 12 13 14 rings

> <PUBCHEM_HEAVY_ATOM_COUNT>
14

> <PUBCHEM_ATOM_DEF_STEREO_COUNT>
0

> <PUBCHEM_ATOM_UDEF_STEREO_COUNT>
2

> <PUBCHEM_BOND_DEF_STEREO_COUNT>
0

> <PUBCHEM_BOND_UDEF_STEREO_COUNT>
0

> <PUBCHEM_ISOTOPIC_ATOM_COUNT>
0

> <PUBCHEM_COMPONENT_COUNT>
1

> <PUBCHEM_CACTVS_TAUTO_COUNT>
2

> <PUBCHEM_CONFORMER_ID>
0008E52000000001

> <PUBCHEM_MMFF94_ENERGY>
29.5553

> <PUBCHEM_FEATURE_SELFOVERLAP>
15.223

> <PUBCHEM_SHAPE_FINGERPRINT>
10608611 8 18410017662660004948
12251169 10 18336537300248343145
12382932 28 18335424633615748448
12696612 119 18411411804865260020
12932764 1 18059571468416294506
13024252 1 15626222450820968293
13296908 3 18335138747850276854
13693222 15 18342175548884204242
13764800 53 16515671291009205761
14144814 61 18408324406257974602
15219456 202 18410580595180011868
15375462 478 18040433278380525765
15775835 57 18059010729991131688
16945 1 18267288851076816355
17834072 14 18201166464087612405
17844478 74 18411418388765015172
200 152 18114196219506590831
20361792 2 16343695526051895150
20525323 117 18261114062626604407
20528008 55 18408889507779092491
21296965 67 18271244903057552307
21501502 16 18413101779832713212
23388829 49 18194397780133530957
23402539 116 18341344287950025007
23419403 2 18046091297146820701
2748010 2 18336549412478098182
369184 2 18408042935222751329
5084963 1 18412827967066992122
69090 78 18339646766946234365
74978 22 18265053711805301614
8030462 33 15769782381182292232
81228 2 17846494859390916285

> <PUBCHEM_SHAPE_MULTIPOLES>
282.24
5.53
1.81
1.07
2.46
0.16
-0.04
-1.05
0.95
-0.69
-0.05
-0.48
0.23
0.21

> <PUBCHEM_SHAPE_SELFOVERLAP>
595.488

> <PUBCHEM_SHAPE_VOLUME>
155.6

> <PUBCHEM_COORDINATE_TYPE>
2
5
10

$$$$

