5281737
  -OEChem-07051212593D

 38 39  0     1  0  0  0  0  0999 V2000
    0.6940    2.1001    0.7673 O   0  0  0  0  0  0  0  0  0  0  0  0
   -1.3622   -0.3581   -0.1804 O   0  0  0  0  0  0  0  0  0  0  0  0
   -2.6709   -1.3270    1.4473 O   0  0  0  0  0  0  0  0  0  0  0  0
    3.2662    0.6700    0.0356 N   0  0  2  0  0  0  0  0  0  0  0  0
    2.3317   -0.3538    0.5492 C   0  0  1  0  0  0  0  0  0  0  0  0
    1.0149   -0.1179   -0.1879 C   0  0  2  0  0  0  0  0  0  0  0  0
    1.0443    1.3915   -0.4148 C   0  0  2  0  0  0  0  0  0  0  0  0
    2.9925   -1.7059    0.3077 C   0  0  0  0  0  0  0  0  0  0  0  0
    2.5088    1.6463   -0.7630 C   0  0  0  0  0  0  0  0  0  0  0  0
    4.3159   -0.0216   -0.7147 C   0  0  0  0  0  0  0  0  0  0  0  0
    4.4405   -1.3463    0.0176 C   0  0  0  0  0  0  0  0  0  0  0  0
   -0.1950   -0.6319    0.5762 C   0  0  0  0  0  0  0  0  0  0  0  0
   -2.5469   -0.7601    0.3710 C   0  0  0  0  0  0  0  0  0  0  0  0
   -3.6784   -0.4098   -0.5404 C   0  0  0  0  0  0  0  0  0  0  0  0
   -4.0723   -1.3977   -1.5981 C   0  0  0  0  0  0  0  0  0  0  0  0
   -4.2356    0.7998   -0.3467 C   0  0  0  0  0  0  0  0  0  0  0  0
   -3.8475    1.8223    0.6739 C   0  0  0  0  0  0  0  0  0  0  0  0
    2.2138   -0.1909    1.6281 H   0  0  0  0  0  0  0  0  0  0  0  0
    1.0418   -0.5965   -1.1777 H   0  0  0  0  0  0  0  0  0  0  0  0
    0.3686    1.7063   -1.2155 H   0  0  0  0  0  0  0  0  0  0  0  0
    2.5578   -2.2203   -0.5572 H   0  0  0  0  0  0  0  0  0  0  0  0
    2.9090   -2.3693    1.1741 H   0  0  0  0  0  0  0  0  0  0  0  0
    2.6518    1.4893   -1.8388 H   0  0  0  0  0  0  0  0  0  0  0  0
    2.8248    2.6637   -0.5122 H   0  0  0  0  0  0  0  0  0  0  0  0
    5.2544    0.5403   -0.7092 H   0  0  0  0  0  0  0  0  0  0  0  0
    4.0265   -0.2146   -1.7554 H   0  0  0  0  0  0  0  0  0  0  0  0
    4.9956   -1.2190    0.9552 H   0  0  0  0  0  0  0  0  0  0  0  0
    4.9448   -2.1107   -0.5806 H   0  0  0  0  0  0  0  0  0  0  0  0
   -0.2733   -0.1592    1.5624 H   0  0  0  0  0  0  0  0  0  0  0  0
   -0.1040   -1.7155    0.7191 H   0  0  0  0  0  0  0  0  0  0  0  0
    1.3683    1.9266    1.4452 H   0  0  0  0  0  0  0  0  0  0  0  0
   -4.8928   -1.0213   -2.2174 H   0  0  0  0  0  0  0  0  0  0  0  0
   -3.2230   -1.6105   -2.2550 H   0  0  0  0  0  0  0  0  0  0  0  0
   -4.3988   -2.3352   -1.1369 H   0  0  0  0  0  0  0  0  0  0  0  0
   -5.0554    1.0930   -0.9999 H   0  0  0  0  0  0  0  0  0  0  0  0
   -3.5524    2.7481    0.1697 H   0  0  0  0  0  0  0  0  0  0  0  0
   -3.0212    1.5188    1.3211 H   0  0  0  0  0  0  0  0  0  0  0  0
   -4.7074    2.0447    1.3137 H   0  0  0  0  0  0  0  0  0  0  0  0
  1  7  1  0  0  0  0
  1 31  1  0  0  0  0
  2 12  1  0  0  0  0
  2 13  1  0  0  0  0
  3 13  2  0  0  0  0
  4  5  1  0  0  0  0
  4  9  1  0  0  0  0
  4 10  1  0  0  0  0
  5  6  1  0  0  0  0
  5  8  1  0  0  0  0
  5 18  1  0  0  0  0
  6  7  1  0  0  0  0
  6 12  1  0  0  0  0
  6 19  1  0  0  0  0
  7  9  1  0  0  0  0
  7 20  1  0  0  0  0
  8 11  1  0  0  0  0
  8 21  1  0  0  0  0
  8 22  1  0  0  0  0
  9 23  1  0  0  0  0
  9 24  1  0  0  0  0
 10 11  1  0  0  0  0
 10 25  1  0  0  0  0
 10 26  1  0  0  0  0
 11 27  1  0  0  0  0
 11 28  1  0  0  0  0
 12 29  1  0  0  0  0
 12 30  1  0  0  0  0
 13 14  1  0  0  0  0
 14 15  1  0  0  0  0
 14 16  2  0  0  0  0
 15 32  1  0  0  0  0
 15 33  1  0  0  0  0
 15 34  1  0  0  0  0
 16 17  1  0  0  0  0
 16 35  1  0  0  0  0
 17 36  1  0  0  0  0
 17 37  1  0  0  0  0
 17 38  1  0  0  0  0
M  END
> <PUBCHEM_COMPOUND_CID>
5281737

> <PUBCHEM_CONFORMER_RMSD>
0.6

> <PUBCHEM_CONFORMER_DIVERSEORDER>
2
126
158
174
144
122
61
137
131
123
64
145
78
134
31
140
87
169
52
99
86
139
107
72
172
181
36
81
73
143
106
39
96
180
125
152
179
88
28
168
57
49
147
112
175
74
184
129
155
133
170
111
115
178
15
24
22
95
68
136
33
70
114
84
46
167
121
89
101
21
162
9
160
85
65
166
42
48
120
151
41
138
100
60
124
25
32
176
177
26
45
130
98
93
18
59
63
12
50
92
82
113
7
19
16
173
165
163
156
79
35
132
38
171
8
10
77
164
110
55
30
141
6
116
53
148
161
154
90
1
159
135
47
13
83
157
56
142
117
4
54
119
91
5
29
58
94
43
62
183
153
102
105
23
20
104
150
185
76
109
3
103
149
127
51
11
44
67
128
14
182
75
146
118
69
40
66
108
71
17
37
27
34
80
97

> <PUBCHEM_MMFF94_PARTIAL_CHARGES>
16
1 -0.68
10 0.27
12 0.28
13 0.71
14 -0.12
15 0.14
16 -0.29
17 0.14
2 -0.43
3 -0.57
31 0.4
35 0.15
4 -0.81
5 0.27
7 0.28
9 0.27

> <PUBCHEM_EFFECTIVE_ROTOR_COUNT>
5.2

> <PUBCHEM_PHARMACOPHORE_FEATURES>
8
1 1 acceptor
1 1 donor
1 15 hydrophobe
1 17 hydrophobe
1 3 acceptor
1 4 cation
5 4 5 6 7 9 rings
5 4 5 8 10 11 rings

> <PUBCHEM_HEAVY_ATOM_COUNT>
17

> <PUBCHEM_ATOM_DEF_STEREO_COUNT>
3

> <PUBCHEM_ATOM_UDEF_STEREO_COUNT>
0

> <PUBCHEM_BOND_DEF_STEREO_COUNT>
1

> <PUBCHEM_BOND_UDEF_STEREO_COUNT>
0

> <PUBCHEM_ISOTOPIC_ATOM_COUNT>
0

> <PUBCHEM_COMPONENT_COUNT>
1

> <PUBCHEM_CACTVS_TAUTO_COUNT>
1

> <PUBCHEM_CONFORMER_ID>
005097C900000002

> <PUBCHEM_MMFF94_ENERGY>
39.283

> <PUBCHEM_FEATURE_SELFOVERLAP>
40.889

> <PUBCHEM_SHAPE_FINGERPRINT>
10062212 137 18333735736516242239
10498660 4 16343434920680127991
11471102 20 18272371958284087526
116883 192 18119804970190823452
124424 183 18411980269361250617
12916754 54 18042127557828622687
13134695 92 18334862692832390276
13167823 11 18261397728126742383
13583140 156 15864365682538701238
14004511 7 18408601491783279577
15442244 35 18339923830469377080
15848700 24 18410863170132502510
17834072 8 18340768242551296845
18186145 218 17489590051803382043
200 152 18334014986219891139
20645477 70 18412544306079100206
21452121 103 18261684675588062080
21637258 2 16588574444698172550
221357 26 18343312465783198565
2306618 200 17458057175817320211
23402539 116 18187651331562491054
23402655 69 18341609309202125046
23557571 272 14996551928455128475
2838139 119 14619646927994177454
2916195 48 13038610826752114462
312423 11 18337101260109831693
3286 77 18188220801313392509
4214541 1 18342174475327002895
4463277 69 17387121169428722494
5104073 3 18343300353395175504
543358 83 18343015640376898738
633830 44 18131632287631887311
74978 22 18337954476453124019
9882013 296 9007053565403400665
9971528 1 18411426115785856996
9981440 41 17617951226855540057

> <PUBCHEM_SHAPE_MULTIPOLES>
327.26
9.74
1.94
1.07
2.12
0.55
0.09
-1.52
1.68
0.08
-0.1
0.78
-0.21
-0.91

> <PUBCHEM_SHAPE_SELFOVERLAP>
668.28

> <PUBCHEM_SHAPE_VOLUME>
192.2

> <PUBCHEM_COORDINATE_TYPE>
2
5
10

$$$$

