9335
  -OEChem-06261203373D

 20 19  0     0  0  0  0  0  0999 V2000
    3.3484   -1.5738   -0.1370 Cl  0  0  0  0  0  0  0  0  0  0  0  0
   -3.6300   -1.1434   -0.1921 Cl  0  0  0  0  0  0  0  0  0  0  0  0
   -0.0040    1.0196    1.3393 O   0  5  0  0  0  0  0  0  0  0  0  0
   -0.0128    0.7378   -0.0026 N   0  3  0  0  0  0  0  0  0  0  0  0
    0.8752   -0.4443   -0.2665 C   0  0  0  0  0  0  0  0  0  0  0  0
   -1.4165    0.4223   -0.4334 C   0  0  0  0  0  0  0  0  0  0  0  0
    0.4934    1.9303   -0.7625 C   0  0  0  0  0  0  0  0  0  0  0  0
    2.3030   -0.1617    0.1531 C   0  0  0  0  0  0  0  0  0  0  0  0
   -1.9567   -0.7869    0.3016 C   0  0  0  0  0  0  0  0  0  0  0  0
    0.5125   -1.2795    0.3366 H   0  0  0  0  0  0  0  0  0  0  0  0
    0.7946   -0.6846   -1.3325 H   0  0  0  0  0  0  0  0  0  0  0  0
   -2.0143    1.3151   -0.2143 H   0  0  0  0  0  0  0  0  0  0  0  0
   -1.3881    0.2625   -1.5175 H   0  0  0  0  0  0  0  0  0  0  0  0
    1.4102    2.2909   -0.2913 H   0  0  0  0  0  0  0  0  0  0  0  0
    0.6482    1.6385   -1.8042 H   0  0  0  0  0  0  0  0  0  0  0  0
   -0.2692    2.7116   -0.6889 H   0  0  0  0  0  0  0  0  0  0  0  0
    2.3790    0.0854    1.2160 H   0  0  0  0  0  0  0  0  0  0  0  0
    2.7525    0.6530   -0.4180 H   0  0  0  0  0  0  0  0  0  0  0  0
   -1.9591   -0.6449    1.3861 H   0  0  0  0  0  0  0  0  0  0  0  0
   -1.4088   -1.7025    0.0762 H   0  0  0  0  0  0  0  0  0  0  0  0
  1  8  1  0  0  0  0
  2  9  1  0  0  0  0
  3  4  1  0  0  0  0
  4  5  1  0  0  0  0
  4  6  1  0  0  0  0
  4  7  1  0  0  0  0
  5  8  1  0  0  0  0
  5 10  1  0  0  0  0
  5 11  1  0  0  0  0
  6  9  1  0  0  0  0
  6 12  1  0  0  0  0
  6 13  1  0  0  0  0
  7 14  1  0  0  0  0
  7 15  1  0  0  0  0
  7 16  1  0  0  0  0
  8 17  1  0  0  0  0
  8 18  1  0  0  0  0
  9 19  1  0  0  0  0
  9 20  1  0  0  0  0
M  CHG  2   3  -1   4   1
M  END
> <PUBCHEM_COMPOUND_CID>
9335

> <PUBCHEM_CONFORMER_RMSD>
0.6

> <PUBCHEM_CONFORMER_DIVERSEORDER>
4
17
5
15
3
12
14
18
9
11
7
8
6
13
10
16
1
2

> <PUBCHEM_MMFF94_PARTIAL_CHARGES>
9
1 -0.29
2 -0.29
3 -0.75
4 -0.02
5 0.26
6 0.26
7 0.26
8 0.29
9 0.29

> <PUBCHEM_EFFECTIVE_ROTOR_COUNT>
4

> <PUBCHEM_PHARMACOPHORE_FEATURES>
1
1 3 anion

> <PUBCHEM_HEAVY_ATOM_COUNT>
9

> <PUBCHEM_ATOM_DEF_STEREO_COUNT>
0

> <PUBCHEM_ATOM_UDEF_STEREO_COUNT>
0

> <PUBCHEM_BOND_DEF_STEREO_COUNT>
0

> <PUBCHEM_BOND_UDEF_STEREO_COUNT>
0

> <PUBCHEM_ISOTOPIC_ATOM_COUNT>
0

> <PUBCHEM_COMPONENT_COUNT>
1

> <PUBCHEM_CACTVS_TAUTO_COUNT>
1

> <PUBCHEM_CONFORMER_ID>
0000247700000004

> <PUBCHEM_MMFF94_ENERGY>
21.1256

> <PUBCHEM_FEATURE_SELFOVERLAP>
5.074

> <PUBCHEM_SHAPE_FINGERPRINT>
14128692 85 18412257311741833870
14390081 3 9295293841454885639
20645477 70 18126854798599973111
20653085 51 11167931494091404174
20711978 1 18340768148346846245
20711985 344 18056769946705464920
21293036 1 13470398968174325383
23552423 10 18131064987171896838
29004967 10 18342175540109672760

> <PUBCHEM_SHAPE_MULTIPOLES>
178.1
5.08
1.76
0.87
0.92
0.45
-0.16
-4.11
0.44
-0.48
0.25
0.01
0.22
0.02

> <PUBCHEM_SHAPE_SELFOVERLAP>
305.244

> <PUBCHEM_SHAPE_VOLUME>
123.5

> <PUBCHEM_COORDINATE_TYPE>
2
5
10

$$$$

