582763
  -OEChem-06241222442D

 33 35  0     0  0  0  0  0  0999 V2000
    5.6103    1.8297    0.0000 O   0  0  0  0  0  0  0  0  0  0  0  0
    7.2566    1.2916    0.0000 N   0  0  0  0  0  0  0  0  0  0  0  0
    4.6783   -2.6313    0.0000 N   0  0  0  0  0  0  0  0  0  0  0  0
    7.5673    2.2421    0.0000 C   0  0  0  0  0  0  0  0  0  0  0  0
    8.3116    2.9100    0.0000 C   0  0  0  0  0  0  0  0  0  0  0  0
    7.3610    3.2206    0.0000 C   0  0  0  0  0  0  0  0  0  0  0  0
    6.2781    1.0854    0.0000 C   0  0  0  0  0  0  0  0  0  0  0  0
    5.9674    0.1349    0.0000 C   0  0  0  0  0  0  0  0  0  0  0  0
    4.9889   -0.0713    0.0000 C   0  0  0  0  0  0  0  0  0  0  0  0
    4.6783   -1.0219    0.0000 C   0  0  0  0  0  0  0  0  0  0  0  0
    3.7320   -1.3266    0.0000 C   0  0  0  0  0  0  0  0  0  0  0  0
    3.7320   -2.3266    0.0000 C   0  0  0  0  0  0  0  0  0  0  0  0
    5.2619   -1.8266    0.0000 C   0  0  0  0  0  0  0  0  0  0  0  0
    2.8660   -0.8266    0.0000 C   0  0  0  0  0  0  0  0  0  0  0  0
    2.8660   -2.8266    0.0000 C   0  0  0  0  0  0  0  0  0  0  0  0
    2.0000   -1.3266    0.0000 C   0  0  0  0  0  0  0  0  0  0  0  0
    2.0000   -2.3266    0.0000 C   0  0  0  0  0  0  0  0  0  0  0  0
    6.9482    2.2757    0.0000 H   0  0  0  0  0  0  0  0  0  0  0  0
    8.7995    2.5274    0.0000 H   0  0  0  0  0  0  0  0  0  0  0  0
    8.6036    3.4569    0.0000 H   0  0  0  0  0  0  0  0  0  0  0  0
    7.4484    3.8345    0.0000 H   0  0  0  0  0  0  0  0  0  0  0  0
    6.7414    3.2001    0.0000 H   0  0  0  0  0  0  0  0  0  0  0  0
    7.6707    0.8302    0.0000 H   0  0  0  0  0  0  0  0  0  0  0  0
    5.9880   -0.4848    0.0000 H   0  0  0  0  0  0  0  0  0  0  0  0
    6.5812    0.0475    0.0000 H   0  0  0  0  0  0  0  0  0  0  0  0
    4.9684    0.5483    0.0000 H   0  0  0  0  0  0  0  0  0  0  0  0
    4.3751    0.0160    0.0000 H   0  0  0  0  0  0  0  0  0  0  0  0
    5.8819   -1.8266    0.0000 H   0  0  0  0  0  0  0  0  0  0  0  0
    4.8709   -3.2206    0.0000 H   0  0  0  0  0  0  0  0  0  0  0  0
    2.8660   -0.2066    0.0000 H   0  0  0  0  0  0  0  0  0  0  0  0
    2.8660   -3.4466    0.0000 H   0  0  0  0  0  0  0  0  0  0  0  0
    1.4631   -1.0166    0.0000 H   0  0  0  0  0  0  0  0  0  0  0  0
    1.4631   -2.6366    0.0000 H   0  0  0  0  0  0  0  0  0  0  0  0
  1  7  2  0  0  0  0
  2  4  1  0  0  0  0
  2  7  1  0  0  0  0
  2 23  1  0  0  0  0
  3 12  1  0  0  0  0
  3 13  1  0  0  0  0
  3 29  1  0  0  0  0
  4  5  1  0  0  0  0
  4  6  1  0  0  0  0
  4 18  1  0  0  0  0
  5  6  1  0  0  0  0
  5 19  1  0  0  0  0
  5 20  1  0  0  0  0
  6 21  1  0  0  0  0
  6 22  1  0  0  0  0
  7  8  1  0  0  0  0
  8  9  1  0  0  0  0
  8 24  1  0  0  0  0
  8 25  1  0  0  0  0
  9 10  1  0  0  0  0
  9 26  1  0  0  0  0
  9 27  1  0  0  0  0
 10 11  1  0  0  0  0
 10 13  2  0  0  0  0
 11 12  1  0  0  0  0
 11 14  2  0  0  0  0
 12 15  2  0  0  0  0
 13 28  1  0  0  0  0
 14 16  1  0  0  0  0
 14 30  1  0  0  0  0
 15 17  1  0  0  0  0
 15 31  1  0  0  0  0
 16 17  2  0  0  0  0
 16 32  1  0  0  0  0
 17 33  1  0  0  0  0
M  END
> <PUBCHEM_COMPOUND_CID>
582763

> <PUBCHEM_COMPOUND_CANONICALIZED>
1

> <PUBCHEM_CACTVS_COMPLEXITY>
288

> <PUBCHEM_CACTVS_HBOND_ACCEPTOR>
1

> <PUBCHEM_CACTVS_HBOND_DONOR>
2

> <PUBCHEM_CACTVS_ROTATABLE_BOND>
4

> <PUBCHEM_CACTVS_SUBSKEYS>
AAADceBzIAAAAAAAAAAAAAAAGAAAAWAAAAAwAAAAAAAAAFgB8AAAHgAQAAAADCjBngQ8wPLJkACoAzV3VACCgCAxAiAI2aE4ZJgIIPLAkZGEIAhglgDIyAcYicCOgAAAAAACAAAAAAAAAAQAAAAAAAAAAA==

> <PUBCHEM_IUPAC_OPENEYE_NAME>
N-cyclopropyl-3-(1H-indol-3-yl)propanamide

> <PUBCHEM_IUPAC_CAS_NAME>
N-cyclopropyl-3-(1H-indol-3-yl)propanamide

> <PUBCHEM_IUPAC_NAME>
N-cyclopropyl-3-(1H-indol-3-yl)propanamide

> <PUBCHEM_IUPAC_SYSTEMATIC_NAME>
N-cyclopropyl-3-(1H-indol-3-yl)propanamide

> <PUBCHEM_IUPAC_TRADITIONAL_NAME>
N-cyclopropyl-3-(1H-indol-3-yl)propionamide

> <PUBCHEM_IUPAC_INCHI>
InChI=1S/C14H16N2O/c17-14(16-11-6-7-11)8-5-10-9-15-13-4-2-1-3-12(10)13/h1-4,9,11,15H,5-8H2,(H,16,17)

> <PUBCHEM_IUPAC_INCHIKEY>
RANZRTOGLIETAR-UHFFFAOYSA-N

> <PUBCHEM_XLOGP3>
2.1

> <PUBCHEM_EXACT_MASS>
228.126263

> <PUBCHEM_MOLECULAR_FORMULA>
C14H16N2O

> <PUBCHEM_MOLECULAR_WEIGHT>
228.28964

> <PUBCHEM_OPENEYE_CAN_SMILES>
C1CC1NC(=O)CCC2=CNC3=CC=CC=C32

> <PUBCHEM_OPENEYE_ISO_SMILES>
C1CC1NC(=O)CCC2=CNC3=CC=CC=C32

> <PUBCHEM_CACTVS_TPSA>
44.9

> <PUBCHEM_MONOISOTOPIC_WEIGHT>
228.126263

> <PUBCHEM_TOTAL_CHARGE>
0

> <PUBCHEM_HEAVY_ATOM_COUNT>
17

> <PUBCHEM_ATOM_DEF_STEREO_COUNT>
0

> <PUBCHEM_ATOM_UDEF_STEREO_COUNT>
0

> <PUBCHEM_BOND_DEF_STEREO_COUNT>
0

> <PUBCHEM_BOND_UDEF_STEREO_COUNT>
0

> <PUBCHEM_ISOTOPIC_ATOM_COUNT>
0

> <PUBCHEM_COMPONENT_COUNT>
1

> <PUBCHEM_CACTVS_TAUTO_COUNT>
2

> <PUBCHEM_COORDINATE_TYPE>
1
5
255

> <PUBCHEM_BONDANNOTATIONS>
10  11  8
10  13  8
11  12  8
11  14  8
12  15  8
14  16  8
15  17  8
16  17  8
3  12  8
3  13  8

$$$$

