13975
  -OEChem-06241222413D

 40 42  0     0  0  0  0  0  0999 V2000
    0.2898    2.9072   -0.1173 Br  0  0  0  0  0  0  0  0  0  0  0  0
   -6.4105    1.1517    0.1468 Cl  0  0  0  0  0  0  0  0  0  0  0  0
    5.8891    0.5771   -0.2639 O   0  0  0  0  0  0  0  0  0  0  0  0
    0.3146    0.0283   -0.0654 C   0  0  0  0  0  0  0  0  0  0  0  0
    1.8059    0.1748   -0.1191 C   0  0  0  0  0  0  0  0  0  0  0  0
   -0.3008   -1.2889   -0.0201 C   0  0  0  0  0  0  0  0  0  0  0  0
   -0.4488    1.1692   -0.0594 C   0  0  0  0  0  0  0  0  0  0  0  0
   -1.9252    1.1653   -0.0080 C   0  0  0  0  0  0  0  0  0  0  0  0
    2.4142    0.2165   -1.3491 C   0  0  0  0  0  0  0  0  0  0  0  0
    2.4951    0.2609    1.0652 C   0  0  0  0  0  0  0  0  0  0  0  0
   -0.5546   -1.8983    1.2088 C   0  0  0  0  0  0  0  0  0  0  0  0
   -0.6373   -1.9428   -1.2055 C   0  0  0  0  0  0  0  0  0  0  0  0
    3.8015    0.3529   -1.3980 C   0  0  0  0  0  0  0  0  0  0  0  0
    3.8825    0.3974    1.0162 C   0  0  0  0  0  0  0  0  0  0  0  0
    4.5357    0.4436   -0.2154 C   0  0  0  0  0  0  0  0  0  0  0  0
   -2.5579    1.1854    1.2222 C   0  0  0  0  0  0  0  0  0  0  0  0
   -2.6411    1.1415   -1.1919 C   0  0  0  0  0  0  0  0  0  0  0  0
   -1.1445   -3.1615    1.2523 C   0  0  0  0  0  0  0  0  0  0  0  0
   -1.2273   -3.2060   -1.1618 C   0  0  0  0  0  0  0  0  0  0  0  0
   -1.4809   -3.8153    0.0671 C   0  0  0  0  0  0  0  0  0  0  0  0
   -3.9519    1.1813    1.2704 C   0  0  0  0  0  0  0  0  0  0  0  0
   -4.0352    1.1377   -1.1438 C   0  0  0  0  0  0  0  0  0  0  0  0
   -4.6907    1.1577    0.0873 C   0  0  0  0  0  0  0  0  0  0  0  0
    6.5783    0.6643    0.9825 C   0  0  0  0  0  0  0  0  0  0  0  0
    1.8508    0.1476   -2.2748 H   0  0  0  0  0  0  0  0  0  0  0  0
    1.9941    0.2268    2.0281 H   0  0  0  0  0  0  0  0  0  0  0  0
   -0.2997   -1.4026    2.1425 H   0  0  0  0  0  0  0  0  0  0  0  0
   -0.4477   -1.4821   -2.1721 H   0  0  0  0  0  0  0  0  0  0  0  0
    4.3047    0.3885   -2.3604 H   0  0  0  0  0  0  0  0  0  0  0  0
    4.3908    0.4626    1.9722 H   0  0  0  0  0  0  0  0  0  0  0  0
   -1.9936    1.2037    2.1508 H   0  0  0  0  0  0  0  0  0  0  0  0
   -2.1420    1.1253   -2.1571 H   0  0  0  0  0  0  0  0  0  0  0  0
   -1.3424   -3.6357    2.2090 H   0  0  0  0  0  0  0  0  0  0  0  0
   -1.4899   -3.7150   -2.0846 H   0  0  0  0  0  0  0  0  0  0  0  0
   -1.9406   -4.7987    0.1010 H   0  0  0  0  0  0  0  0  0  0  0  0
   -4.4490    1.1965    2.2368 H   0  0  0  0  0  0  0  0  0  0  0  0
   -4.5977    1.1185   -2.0737 H   0  0  0  0  0  0  0  0  0  0  0  0
    7.6446    0.7666    0.7558 H   0  0  0  0  0  0  0  0  0  0  0  0
    6.4630   -0.2523    1.5710 H   0  0  0  0  0  0  0  0  0  0  0  0
    6.2835    1.5576    1.5436 H   0  0  0  0  0  0  0  0  0  0  0  0
  1  7  1  0  0  0  0
  2 23  1  0  0  0  0
  3 15  1  0  0  0  0
  3 24  1  0  0  0  0
  4  5  1  0  0  0  0
  4  6  1  0  0  0  0
  4  7  2  0  0  0  0
  5  9  2  0  0  0  0
  5 10  1  0  0  0  0
  6 11  2  0  0  0  0
  6 12  1  0  0  0  0
  7  8  1  0  0  0  0
  8 16  2  0  0  0  0
  8 17  1  0  0  0  0
  9 13  1  0  0  0  0
  9 25  1  0  0  0  0
 10 14  2  0  0  0  0
 10 26  1  0  0  0  0
 11 18  1  0  0  0  0
 11 27  1  0  0  0  0
 12 19  2  0  0  0  0
 12 28  1  0  0  0  0
 13 15  2  0  0  0  0
 13 29  1  0  0  0  0
 14 15  1  0  0  0  0
 14 30  1  0  0  0  0
 16 21  1  0  0  0  0
 16 31  1  0  0  0  0
 17 22  2  0  0  0  0
 17 32  1  0  0  0  0
 18 20  2  0  0  0  0
 18 33  1  0  0  0  0
 19 20  1  0  0  0  0
 19 34  1  0  0  0  0
 20 35  1  0  0  0  0
 21 23  2  0  0  0  0
 21 36  1  0  0  0  0
 22 23  1  0  0  0  0
 22 37  1  0  0  0  0
 24 38  1  0  0  0  0
 24 39  1  0  0  0  0
 24 40  1  0  0  0  0
M  END
> <PUBCHEM_COMPOUND_CID>
13975

> <PUBCHEM_CONFORMER_RMSD>
0.8

> <PUBCHEM_CONFORMER_DIVERSEORDER>
1

> <PUBCHEM_MMFF94_PARTIAL_CHARGES>
37
1 -0.11
10 -0.15
11 -0.15
12 -0.15
13 -0.15
14 -0.15
15 0.08
16 -0.15
17 -0.15
18 -0.15
19 -0.15
2 -0.18
20 -0.15
21 -0.15
22 -0.15
23 0.18
24 0.28
25 0.15
26 0.15
27 0.15
28 0.15
29 0.15
3 -0.36
30 0.15
31 0.15
32 0.15
33 0.15
34 0.15
35 0.15
36 0.15
37 0.15
4 -0.06
5 0.03
6 0.03
7 0.08
8 0.03
9 -0.15

> <PUBCHEM_EFFECTIVE_ROTOR_COUNT>
4

> <PUBCHEM_PHARMACOPHORE_FEATURES>
5
1 1 hydrophobe
1 3 acceptor
6 5 9 10 13 14 15 rings
6 6 11 12 18 19 20 rings
6 8 16 17 21 22 23 rings

> <PUBCHEM_HEAVY_ATOM_COUNT>
24

> <PUBCHEM_ATOM_DEF_STEREO_COUNT>
0

> <PUBCHEM_ATOM_UDEF_STEREO_COUNT>
0

> <PUBCHEM_BOND_DEF_STEREO_COUNT>
0

> <PUBCHEM_BOND_UDEF_STEREO_COUNT>
1

> <PUBCHEM_ISOTOPIC_ATOM_COUNT>
0

> <PUBCHEM_COMPONENT_COUNT>
1

> <PUBCHEM_CACTVS_TAUTO_COUNT>
1

> <PUBCHEM_CONFORMER_ID>
0000369700000001

> <PUBCHEM_MMFF94_ENERGY>
92.2738

> <PUBCHEM_FEATURE_SELFOVERLAP>
25.371

> <PUBCHEM_SHAPE_FINGERPRINT>
10291535 26 17749389235157327120
10906281 52 18041547084166475732
1100329 8 18339361859805688889
11421498 54 17604986091547912745
11488393 25 17972581445859807615
11578080 2 17316484998521191705
12035758 1 18336813213532504257
121448 382 18408046212699542855
12236239 1 17632857521326621656
12293681 4 17894625955280033840
12597179 24 18259981591510113310
12616971 3 17131558259112250276
12788726 201 18053372198167731263
12969540 114 18341624732166233405
13052359 8 18341609279032222643
13083527 12 17839474623897987963
13140716 1 18266457616556240152
13149001 5 18262524675915999097
13583140 156 16917072148197481613
13911987 19 18343026613902880861
14790565 3 18338790212607355333
15131766 46 15480954841800249190
15849732 13 17775566463994869284
16728300 4 17200818840717017392
16752209 62 18269563744988291731
173720 79 18202283610508487031
17492 54 18270141070840298727
17980427 23 18059013853419098860
20197701 30 18341896354413983895
20554085 129 18115886233313463953
20567600 347 18339355387817299607
20600515 1 18334563630207604964
20602899 9 16008749095612047982
21033648 29 18269575947328392400
21033650 10 16952500668362092600
21236236 1 18336830784017215655
21344244 181 17968362546528900359
21424621 283 18113612438819742657
22182313 1 18045188683482992991
22224240 67 18410291424371149009
229495 10 16772975707685391227
22956985 138 17698444661107881379
23402539 116 18260836998660772596
23419403 2 16880485766087707427
23557571 272 18188207581693874110
23558518 356 17982731866038147301
23559900 14 18333724729163701596
23569943 247 17389364215714385054
23598288 3 18195801869562541718
25147074 1 17986947445723163988
283562 15 18262797513719148865
3178227 256 18341601621574987209
3759504 43 18273213092836896847
404807 14 14856906396764416236
4258327 124 18128807556662004796
474229 33 18342453755723001473
5486654 2 18411133653840009861
6081469 158 12607409892662187785
6669772 16 18337670931318728822
81228 2 18195534688047009667

> <PUBCHEM_SHAPE_MULTIPOLES>
495.85
11.22
3.4
1.4
7.02
4.07
0.04
-7.33
-1.4
-2.85
-0.04
0.08
0.24
0.01

> <PUBCHEM_SHAPE_SELFOVERLAP>
1060.592

> <PUBCHEM_SHAPE_VOLUME>
283.7

> <PUBCHEM_COORDINATE_TYPE>
2
5
10

$$$$

