160179
  -OEChem-07051212573D

 32 35  0     0  0  0  0  0  0999 V2000
   -2.1305   -0.5455   -0.1754 O   0  0  0  0  0  0  0  0  0  0  0  0
   -3.8568   -2.8569    0.9785 O   0  0  0  0  0  0  0  0  0  0  0  0
    0.5382   -0.7421   -0.0992 N   0  0  0  0  0  0  0  0  0  0  0  0
   -0.6818    2.7338    0.0863 N   0  0  0  0  0  0  0  0  0  0  0  0
    0.3731    0.6190   -0.0159 C   0  0  0  0  0  0  0  0  0  0  0  0
    1.6434    1.1885    0.0642 C   0  0  0  0  0  0  0  0  0  0  0  0
    2.5924    0.1182    0.0270 C   0  0  0  0  0  0  0  0  0  0  0  0
    1.8728   -1.0731   -0.0747 C   0  0  0  0  0  0  0  0  0  0  0  0
   -0.7836    1.3878   -0.0049 C   0  0  0  0  0  0  0  0  0  0  0  0
    1.7444    2.5854    0.1585 C   0  0  0  0  0  0  0  0  0  0  0  0
   -2.0912    0.8119   -0.0862 C   0  0  0  0  0  0  0  0  0  0  0  0
    4.0010    0.0537    0.0708 C   0  0  0  0  0  0  0  0  0  0  0  0
    2.4905   -2.3277   -0.1347 C   0  0  0  0  0  0  0  0  0  0  0  0
    0.5483    3.2901    0.1638 C   0  0  0  0  0  0  0  0  0  0  0  0
    4.6328   -1.1935    0.0115 C   0  0  0  0  0  0  0  0  0  0  0  0
    3.8867   -2.3654   -0.0894 C   0  0  0  0  0  0  0  0  0  0  0  0
   -3.3694    1.3282   -0.0956 C   0  0  0  0  0  0  0  0  0  0  0  0
   -3.4414   -0.8968   -0.2423 C   0  0  0  0  0  0  0  0  0  0  0  0
   -4.2435    0.2197   -0.1970 C   0  0  0  0  0  0  0  0  0  0  0  0
   -3.7254   -2.3352   -0.3453 C   0  0  0  0  0  0  0  0  0  0  0  0
   -0.2144   -1.4131   -0.1685 H   0  0  0  0  0  0  0  0  0  0  0  0
    2.6992    3.0942    0.2240 H   0  0  0  0  0  0  0  0  0  0  0  0
    4.5968    0.9588    0.1497 H   0  0  0  0  0  0  0  0  0  0  0  0
    1.9100   -3.2408   -0.2136 H   0  0  0  0  0  0  0  0  0  0  0  0
    0.5533    4.3737    0.2345 H   0  0  0  0  0  0  0  0  0  0  0  0
    5.7178   -1.2467    0.0450 H   0  0  0  0  0  0  0  0  0  0  0  0
   -3.6424    2.3725   -0.0370 H   0  0  0  0  0  0  0  0  0  0  0  0
    4.3968   -3.3243   -0.1340 H   0  0  0  0  0  0  0  0  0  0  0  0
   -5.3235    0.2355   -0.2323 H   0  0  0  0  0  0  0  0  0  0  0  0
   -4.6599   -2.5155   -0.8852 H   0  0  0  0  0  0  0  0  0  0  0  0
   -2.9148   -2.8676   -0.8523 H   0  0  0  0  0  0  0  0  0  0  0  0
   -4.0459   -3.8068    0.8906 H   0  0  0  0  0  0  0  0  0  0  0  0
  1 11  1  0  0  0  0
  1 18  1  0  0  0  0
  2 20  1  0  0  0  0
  2 32  1  0  0  0  0
  3  5  1  0  0  0  0
  3  8  1  0  0  0  0
  3 21  1  0  0  0  0
  4  9  2  0  0  0  0
  4 14  1  0  0  0  0
  5  6  2  0  0  0  0
  5  9  1  0  0  0  0
  6  7  1  0  0  0  0
  6 10  1  0  0  0  0
  7  8  1  0  0  0  0
  7 12  2  0  0  0  0
  8 13  2  0  0  0  0
  9 11  1  0  0  0  0
 10 14  2  0  0  0  0
 10 22  1  0  0  0  0
 11 17  2  0  0  0  0
 12 15  1  0  0  0  0
 12 23  1  0  0  0  0
 13 16  1  0  0  0  0
 13 24  1  0  0  0  0
 14 25  1  0  0  0  0
 15 16  2  0  0  0  0
 15 26  1  0  0  0  0
 16 28  1  0  0  0  0
 17 19  1  0  0  0  0
 17 27  1  0  0  0  0
 18 19  2  0  0  0  0
 18 20  1  0  0  0  0
 19 29  1  0  0  0  0
 20 30  1  0  0  0  0
 20 31  1  0  0  0  0
M  END
> <PUBCHEM_COMPOUND_CID>
160179

> <PUBCHEM_CONFORMER_RMSD>
0.6

> <PUBCHEM_CONFORMER_DIVERSEORDER>
1
6
4
3
2
5

> <PUBCHEM_MMFF94_PARTIAL_CHARGES>
28
1 -0.28
10 -0.15
11 0.09
12 -0.15
13 -0.15
14 0.16
15 -0.15
16 -0.15
17 -0.15
18 -0.04
19 -0.15
2 -0.68
20 0.46
21 0.27
22 0.15
23 0.15
24 0.15
25 0.15
26 0.15
27 0.15
28 0.15
29 0.15
3 0.03
32 0.4
4 -0.62
5 -0.15
8 -0.15
9 0.36

> <PUBCHEM_EFFECTIVE_ROTOR_COUNT>
2

> <PUBCHEM_PHARMACOPHORE_FEATURES>
10
1 1 acceptor
1 2 acceptor
1 2 donor
1 3 cation
1 3 donor
1 4 acceptor
5 1 11 17 18 19 rings
5 3 5 6 7 8 rings
6 4 5 6 9 10 14 rings
6 7 8 12 13 15 16 rings

> <PUBCHEM_HEAVY_ATOM_COUNT>
20

> <PUBCHEM_ATOM_DEF_STEREO_COUNT>
0

> <PUBCHEM_ATOM_UDEF_STEREO_COUNT>
0

> <PUBCHEM_BOND_DEF_STEREO_COUNT>
0

> <PUBCHEM_BOND_UDEF_STEREO_COUNT>
0

> <PUBCHEM_ISOTOPIC_ATOM_COUNT>
0

> <PUBCHEM_COMPONENT_COUNT>
1

> <PUBCHEM_CACTVS_TAUTO_COUNT>
2

> <PUBCHEM_CONFORMER_ID>
000271B300000001

> <PUBCHEM_MMFF94_ENERGY>
35.7769

> <PUBCHEM_FEATURE_SELFOVERLAP>
50.93

> <PUBCHEM_SHAPE_FINGERPRINT>
10616163 171 18336263560613740846
10906281 52 18043519723937913189
10967382 1 18337675187836293588
11578080 2 17388006211390221953
11806522 49 18412265043089102972
12506688 2 18334858328923798656
12553582 1 18267594670150005747
12839892 36 17760106024321628056
12969540 37 18269841912961101062
13140716 1 18407755937203175249
13533116 47 18190181183923484267
14787075 74 18272368647043604746
14790565 3 17183334561700964564
14863182 85 17406827385420052111
14866123 147 17615123717040400009
15196674 1 18410013225721067110
15352361 1 18410014346750002239
15442244 35 18408039632778347417
15475509 84 18042381609566029361
15927050 60 17614282165950206932
17492 89 18266180530909693679
1813 80 17703503384825073908
19141452 34 18335700615319030169
19591789 44 16970260744149808764
20261772 1 17894636932894851206
20281475 54 18410852170236285469
20291156 8 18409450305758537847
20645477 70 18124610682403185015
21267235 1 18337383941408135911
221490 88 18340764823767949947
23366157 5 18130228138385207676
23379529 103 18116422821053917806
23402539 116 18340212993927995606
23557571 272 17970625418925782556
23559900 14 18410020913633802033
238078 22 18338507646892463598
2871803 45 18268996556165451574
3091708 16 9500303320809406088
314173 41 18410568509084109574
335352 9 18337674221753748877
3421961 26 18337110051517684961
34934 24 18338244876176579997
46194498 28 17703797959905504125
4921388 177 16558736902617412235
5104073 3 18335704953040574338
5486654 36 18341319046827926147
5902787 121 18412832399235936378
7364860 26 18263929847417999968
8809292 202 18342173392768540523
8863177 126 17986937580347101547
9709674 26 18269276760016673347

> <PUBCHEM_SHAPE_MULTIPOLES>
389.89
8.5
3.53
0.65
1.13
0.67
-0.03
-6.36
0.01
0.36
-0.33
0.16
-0.13
0.41

> <PUBCHEM_SHAPE_SELFOVERLAP>
888.597

> <PUBCHEM_SHAPE_VOLUME>
204.6

> <PUBCHEM_COORDINATE_TYPE>
2
5
10

$$$$

