46173850
  -OEChem-07051213093D

 48 50  0     1  0  0  0  0  0999 V2000
    0.5498    0.5349    1.0119 O   0  0  0  0  0  0  0  0  0  0  0  0
   -1.0348    1.8579   -0.0592 O   0  0  0  0  0  0  0  0  0  0  0  0
    2.1303   -0.7462   -0.1188 O   0  0  0  0  0  0  0  0  0  0  0  0
   -3.4266   -3.1187    1.0469 O   0  0  0  0  0  0  0  0  0  0  0  0
    2.3988    2.7024    1.0945 O   0  0  0  0  0  0  0  0  0  0  0  0
    5.1590    1.7836    1.0276 O   0  0  0  0  0  0  0  0  0  0  0  0
    5.5839   -0.0390   -1.1505 O   0  0  0  0  0  0  0  0  0  0  0  0
    2.3954   -2.7605   -1.9586 O   0  0  0  0  0  0  0  0  0  0  0  0
   -5.5718    0.8300   -0.1473 O   0  0  0  0  0  0  0  0  0  0  0  0
   -4.8318    2.2186   -1.8070 O   0  0  0  0  0  0  0  0  0  0  0  0
   -1.7226   -0.2670    1.0278 C   0  0  2  0  0  0  0  0  0  0  0  0
   -3.0961   -0.1904    0.3311 C   0  0  2  0  0  0  0  0  0  0  0  0
   -3.0998   -1.3989   -0.6150 C   0  0  0  0  0  0  0  0  0  0  0  0
   -0.6488    0.5076    0.2358 C   0  0  2  0  0  0  0  0  0  0  0  0
   -2.4517   -2.5039    0.2136 C   0  0  1  0  0  0  0  0  0  0  0  0
   -1.4674   -1.7608    1.0755 C   0  0  0  0  0  0  0  0  0  0  0  0
   -3.2990    1.1119   -0.3661 C   0  0  0  0  0  0  0  0  0  0  0  0
    1.6995    0.5792    0.1819 C   0  0  2  0  0  0  0  0  0  0  0  0
    2.7911    1.3397    0.9347 C   0  0  1  0  0  0  0  0  0  0  0  0
    4.1170    1.3074    0.1742 C   0  0  2  0  0  0  0  0  0  0  0  0
    4.4653   -0.1132   -0.2703 C   0  0  1  0  0  0  0  0  0  0  0  0
    3.2748   -0.7696   -0.9736 C   0  0  1  0  0  0  0  0  0  0  0  0
   -2.3245    2.0184   -0.4868 C   0  0  0  0  0  0  0  0  0  0  0  0
   -0.5089   -2.3583    1.7944 C   0  0  0  0  0  0  0  0  0  0  0  0
   -4.6259    1.4645   -0.8720 C   0  0  0  0  0  0  0  0  0  0  0  0
    3.5447   -2.2295   -1.3246 C   0  0  0  0  0  0  0  0  0  0  0  0
   -1.8018    0.1408    2.0443 H   0  0  0  0  0  0  0  0  0  0  0  0
   -3.8641   -0.3331    1.1045 H   0  0  0  0  0  0  0  0  0  0  0  0
   -2.5030   -1.1963   -1.5136 H   0  0  0  0  0  0  0  0  0  0  0  0
   -4.1177   -1.6540   -0.9293 H   0  0  0  0  0  0  0  0  0  0  0  0
   -0.4652   -0.0078   -0.7191 H   0  0  0  0  0  0  0  0  0  0  0  0
   -1.9798   -3.2646   -0.4158 H   0  0  0  0  0  0  0  0  0  0  0  0
    1.4694    1.1140   -0.7511 H   0  0  0  0  0  0  0  0  0  0  0  0
    2.9179    0.9276    1.9429 H   0  0  0  0  0  0  0  0  0  0  0  0
    4.0916    1.9893   -0.6841 H   0  0  0  0  0  0  0  0  0  0  0  0
    4.7715   -0.7074    0.5992 H   0  0  0  0  0  0  0  0  0  0  0  0
    3.0267   -0.2392   -1.9031 H   0  0  0  0  0  0  0  0  0  0  0  0
   -2.4507    3.0053   -0.9117 H   0  0  0  0  0  0  0  0  0  0  0  0
   -0.3909   -3.4365    1.7808 H   0  0  0  0  0  0  0  0  0  0  0  0
    0.1714   -1.7850    2.4142 H   0  0  0  0  0  0  0  0  0  0  0  0
   -4.0868   -3.5336    0.4659 H   0  0  0  0  0  0  0  0  0  0  0  0
    3.7304   -2.8199   -0.4211 H   0  0  0  0  0  0  0  0  0  0  0  0
    4.3983   -2.3264   -2.0023 H   0  0  0  0  0  0  0  0  0  0  0  0
    2.2526    3.0799    0.2104 H   0  0  0  0  0  0  0  0  0  0  0  0
    5.2019    1.2019    1.8056 H   0  0  0  0  0  0  0  0  0  0  0  0
    5.3095    0.4511   -1.9444 H   0  0  0  0  0  0  0  0  0  0  0  0
    2.5873   -3.6904   -2.1687 H   0  0  0  0  0  0  0  0  0  0  0  0
   -6.4779    1.0415   -0.4581 H   0  0  0  0  0  0  0  0  0  0  0  0
  1 14  1  0  0  0  0
  1 18  1  0  0  0  0
  2 14  1  0  0  0  0
  2 23  1  0  0  0  0
  3 18  1  0  0  0  0
  3 22  1  0  0  0  0
  4 15  1  0  0  0  0
  4 41  1  0  0  0  0
  5 19  1  0  0  0  0
  5 44  1  0  0  0  0
  6 20  1  0  0  0  0
  6 45  1  0  0  0  0
  7 21  1  0  0  0  0
  7 46  1  0  0  0  0
  8 26  1  0  0  0  0
  8 47  1  0  0  0  0
  9 25  1  0  0  0  0
  9 48  1  0  0  0  0
 10 25  2  0  0  0  0
 11 12  1  0  0  0  0
 11 14  1  0  0  0  0
 11 16  1  0  0  0  0
 11 27  1  0  0  0  0
 12 13  1  0  0  0  0
 12 17  1  0  0  0  0
 12 28  1  0  0  0  0
 13 15  1  0  0  0  0
 13 29  1  0  0  0  0
 13 30  1  0  0  0  0
 14 31  1  0  0  0  0
 15 16  1  0  0  0  0
 15 32  1  0  0  0  0
 16 24  2  0  0  0  0
 17 23  2  0  0  0  0
 17 25  1  0  0  0  0
 18 19  1  0  0  0  0
 18 33  1  0  0  0  0
 19 20  1  0  0  0  0
 19 34  1  0  0  0  0
 20 21  1  0  0  0  0
 20 35  1  0  0  0  0
 21 22  1  0  0  0  0
 21 36  1  0  0  0  0
 22 26  1  0  0  0  0
 22 37  1  0  0  0  0
 23 38  1  0  0  0  0
 24 39  1  0  0  0  0
 24 40  1  0  0  0  0
 26 42  1  0  0  0  0
 26 43  1  0  0  0  0
M  END
> <PUBCHEM_COMPOUND_CID>
46173850

> <PUBCHEM_CONFORMER_RMSD>
0.8

> <PUBCHEM_CONFORMER_DIVERSEORDER>
1
16
17
9
15
12
13
7
18
3
14
4
5
10
8
19
6
11
2

> <PUBCHEM_MMFF94_PARTIAL_CHARGES>
34
1 -0.56
10 -0.57
11 0.14
12 0.14
14 0.56
15 0.42
16 -0.28
17 -0.12
18 0.56
19 0.28
2 -0.36
20 0.28
21 0.28
22 0.28
23 -0.07
24 -0.3
25 0.71
26 0.28
3 -0.56
38 0.15
39 0.15
4 -0.68
40 0.15
41 0.4
44 0.4
45 0.4
46 0.4
47 0.4
48 0.5
5 -0.68
6 -0.68
7 -0.68
8 -0.68
9 -0.65

> <PUBCHEM_EFFECTIVE_ROTOR_COUNT>
6

> <PUBCHEM_PHARMACOPHORE_FEATURES>
19
1 1 acceptor
1 10 acceptor
1 2 acceptor
1 3 acceptor
1 4 acceptor
1 4 donor
1 5 acceptor
1 5 donor
1 6 acceptor
1 6 donor
1 7 acceptor
1 7 donor
1 8 acceptor
1 8 donor
1 9 acceptor
3 9 10 25 anion
5 11 12 13 15 16 rings
6 2 11 12 14 17 23 rings
6 3 18 19 20 21 22 rings

> <PUBCHEM_HEAVY_ATOM_COUNT>
26

> <PUBCHEM_ATOM_DEF_STEREO_COUNT>
9

> <PUBCHEM_ATOM_UDEF_STEREO_COUNT>
0

> <PUBCHEM_BOND_DEF_STEREO_COUNT>
0

> <PUBCHEM_BOND_UDEF_STEREO_COUNT>
0

> <PUBCHEM_ISOTOPIC_ATOM_COUNT>
0

> <PUBCHEM_COMPONENT_COUNT>
1

> <PUBCHEM_CACTVS_TAUTO_COUNT>
1

> <PUBCHEM_CONFORMER_ID>
02C08E9A00000001

> <PUBCHEM_MMFF94_ENERGY>
68.5012

> <PUBCHEM_FEATURE_SELFOVERLAP>
96.693

> <PUBCHEM_SHAPE_FINGERPRINT>
10366900 7 18114177566717071844
105312 117 17774736358733622341
107951 10 18202560696530222923
12236239 1 16200432481020729488
12788726 201 18115874181451063121
12969540 114 18129962173073174789
13402501 40 18409448081297950332
13544592 145 18411135882932915053
13583140 156 18041282054160183564
13944108 23 17260195917766849485
140371 6 18408879633650175664
14251757 17 18336542815165842227
14790565 3 17978227489750047457
15375358 24 18408887330372935856
17980427 23 17844534310174048388
19930381 70 17682391799815858567
200 152 16950564384823443577
20645477 56 18342174462510770337
20645477 70 17603581950347367660
21033648 29 18271254910253010341
221490 88 18334003970351417942
22182313 1 18340195332948868443
22393880 68 18410289203657123350
23227448 37 18342740685197557949
23402539 116 18200886084322599080
23557571 272 18270676468003509363
23559900 14 18407761430672166008
3472631 163 17632573834188670004
4015057 19 18041006141372050841
495365 180 17895208670656905944
5283173 99 18413392037859496525
633830 44 18191881221904854093
7399639 24 17830177896143634643
9709674 26 18408602543728728046

> <PUBCHEM_SHAPE_MULTIPOLES>
476.37
10.97
3.22
1.44
3.44
1.33
0.17
-3.75
3.37
-1.26
-0.07
0.37
0.51
3.23

> <PUBCHEM_SHAPE_SELFOVERLAP>
1009.875

> <PUBCHEM_SHAPE_VOLUME>
261.6

> <PUBCHEM_COORDINATE_TYPE>
2
5
10

$$$$

