10643
  -OEChem-06261204472D

 47 49  0     0  0  0  0  0  0999 V2000
    7.1962   -0.7398    0.0000 O   0  0  0  0  0  0  0  0  0  0  0  0
    8.9446   -1.7744    0.0000 O   0  0  0  0  0  0  0  0  0  0  0  0
    5.4641    1.2602    0.0000 O   0  0  0  0  0  0  0  0  0  0  0  0
   10.7263   -0.7639    0.0000 O   0  0  0  0  0  0  0  0  0  0  0  0
   10.7263    1.2844    0.0000 O   0  0  0  0  0  0  0  0  0  0  0  0
    7.1962    2.2602    0.0000 O   0  0  0  0  0  0  0  0  0  0  0  0
    2.8660   -2.2398    0.0000 O   0  0  0  0  0  0  0  0  0  0  0  0
    8.0622    0.7602    0.0000 C   0  0  0  0  0  0  0  0  0  0  0  0
    8.0622   -0.2398    0.0000 C   0  0  0  0  0  0  0  0  0  0  0  0
    6.3301   -0.2398    0.0000 C   0  0  0  0  0  0  0  0  0  0  0  0
    8.9561   -0.7744    0.0000 C   0  0  0  0  0  0  0  0  0  0  0  0
    7.1962    1.2602    0.0000 C   0  0  0  0  0  0  0  0  0  0  0  0
    6.3301    0.7602    0.0000 C   0  0  0  0  0  0  0  0  0  0  0  0
    8.9561    1.2949    0.0000 C   0  0  0  0  0  0  0  0  0  0  0  0
    9.8622   -0.2606    0.0000 C   0  0  0  0  0  0  0  0  0  0  0  0
    9.8622    0.7810    0.0000 C   0  0  0  0  0  0  0  0  0  0  0  0
    5.4641   -0.7398    0.0000 C   0  0  0  0  0  0  0  0  0  0  0  0
    4.5981   -0.2398    0.0000 C   0  0  0  0  0  0  0  0  0  0  0  0
    5.4641   -1.7398    0.0000 C   0  0  0  0  0  0  0  0  0  0  0  0
    3.7320   -0.7398    0.0000 C   0  0  0  0  0  0  0  0  0  0  0  0
    4.5981   -2.2398    0.0000 C   0  0  0  0  0  0  0  0  0  0  0  0
    3.7320   -1.7398    0.0000 C   0  0  0  0  0  0  0  0  0  0  0  0
    9.8047   -2.2844    0.0000 C   0  0  0  0  0  0  0  0  0  0  0  0
    5.4641    2.2602    0.0000 C   0  0  0  0  0  0  0  0  0  0  0  0
   11.5942   -0.2673    0.0000 C   0  0  0  0  0  0  0  0  0  0  0  0
   10.7224    2.2844    0.0000 C   0  0  0  0  0  0  0  0  0  0  0  0
    2.0000   -1.7398    0.0000 C   0  0  0  0  0  0  0  0  0  0  0  0
    8.9490    1.9148    0.0000 H   0  0  0  0  0  0  0  0  0  0  0  0
    4.5981    0.3802    0.0000 H   0  0  0  0  0  0  0  0  0  0  0  0
    6.0010   -2.0498    0.0000 H   0  0  0  0  0  0  0  0  0  0  0  0
    3.1951   -0.4298    0.0000 H   0  0  0  0  0  0  0  0  0  0  0  0
    4.5981   -2.8598    0.0000 H   0  0  0  0  0  0  0  0  0  0  0  0
    9.4886   -2.8177    0.0000 H   0  0  0  0  0  0  0  0  0  0  0  0
   10.3381   -2.6006    0.0000 H   0  0  0  0  0  0  0  0  0  0  0  0
   10.1209   -1.7510    0.0000 H   0  0  0  0  0  0  0  0  0  0  0  0
    6.0841    2.2602    0.0000 H   0  0  0  0  0  0  0  0  0  0  0  0
    5.4641    2.8802    0.0000 H   0  0  0  0  0  0  0  0  0  0  0  0
    4.8441    2.2602    0.0000 H   0  0  0  0  0  0  0  0  0  0  0  0
   11.9022   -0.8054    0.0000 H   0  0  0  0  0  0  0  0  0  0  0  0
   12.1324    0.0407    0.0000 H   0  0  0  0  0  0  0  0  0  0  0  0
   11.2863    0.2709    0.0000 H   0  0  0  0  0  0  0  0  0  0  0  0
   11.3424    2.2868    0.0000 H   0  0  0  0  0  0  0  0  0  0  0  0
   10.7200    2.9044    0.0000 H   0  0  0  0  0  0  0  0  0  0  0  0
   10.1024    2.2820    0.0000 H   0  0  0  0  0  0  0  0  0  0  0  0
    2.3100   -1.2028    0.0000 H   0  0  0  0  0  0  0  0  0  0  0  0
    1.4631   -1.4298    0.0000 H   0  0  0  0  0  0  0  0  0  0  0  0
    1.6900   -2.2767    0.0000 H   0  0  0  0  0  0  0  0  0  0  0  0
  1  9  1  0  0  0  0
  1 10  1  0  0  0  0
  2 11  1  0  0  0  0
  2 23  1  0  0  0  0
  3 13  1  0  0  0  0
  3 24  1  0  0  0  0
  4 15  1  0  0  0  0
  4 25  1  0  0  0  0
  5 16  1  0  0  0  0
  5 26  1  0  0  0  0
  6 12  2  0  0  0  0
  7 22  1  0  0  0  0
  7 27  1  0  0  0  0
  8  9  1  0  0  0  0
  8 12  1  0  0  0  0
  8 14  2  0  0  0  0
  9 11  2  0  0  0  0
 10 13  2  0  0  0  0
 10 17  1  0  0  0  0
 11 15  1  0  0  0  0
 12 13  1  0  0  0  0
 14 16  1  0  0  0  0
 14 28  1  0  0  0  0
 15 16  2  0  0  0  0
 17 18  2  0  0  0  0
 17 19  1  0  0  0  0
 18 20  1  0  0  0  0
 18 29  1  0  0  0  0
 19 21  2  0  0  0  0
 19 30  1  0  0  0  0
 20 22  2  0  0  0  0
 20 31  1  0  0  0  0
 21 22  1  0  0  0  0
 21 32  1  0  0  0  0
 23 33  1  0  0  0  0
 23 34  1  0  0  0  0
 23 35  1  0  0  0  0
 24 36  1  0  0  0  0
 24 37  1  0  0  0  0
 24 38  1  0  0  0  0
 25 39  1  0  0  0  0
 25 40  1  0  0  0  0
 25 41  1  0  0  0  0
 26 42  1  0  0  0  0
 26 43  1  0  0  0  0
 26 44  1  0  0  0  0
 27 45  1  0  0  0  0
 27 46  1  0  0  0  0
 27 47  1  0  0  0  0
M  END
> <PUBCHEM_COMPOUND_CID>
10643

> <PUBCHEM_COMPOUND_CANONICALIZED>
1

> <PUBCHEM_CACTVS_COMPLEXITY>
553

> <PUBCHEM_CACTVS_HBOND_ACCEPTOR>
7

> <PUBCHEM_CACTVS_HBOND_DONOR>
0

> <PUBCHEM_CACTVS_ROTATABLE_BOND>
6

> <PUBCHEM_CACTVS_SUBSKEYS>
AAADceB4OAAAAAAAAAAAAAAAAAAAAAAAAAAwYIAAAAAAAACBQAAAGgAAAAAADASAmAIyBoAABACIAqBSAAICCAAkIAAIiAFGiMgNJzaENR6COWKl4BUKqYfK7LzOIQABCAAIQABCAAIQABCAAAAAAAAAAA==

> <PUBCHEM_IUPAC_OPENEYE_NAME>
3,6,7,8-tetramethoxy-2-(4-methoxyphenyl)chromen-4-one

> <PUBCHEM_IUPAC_CAS_NAME>
3,6,7,8-tetramethoxy-2-(4-methoxyphenyl)-1-benzopyran-4-one

> <PUBCHEM_IUPAC_NAME>
3,6,7,8-tetramethoxy-2-(4-methoxyphenyl)chromen-4-one

> <PUBCHEM_IUPAC_SYSTEMATIC_NAME>
3,6,7,8-tetramethoxy-2-(4-methoxyphenyl)chromen-4-one

> <PUBCHEM_IUPAC_TRADITIONAL_NAME>
3,6,7,8-tetramethoxy-2-(4-methoxyphenyl)chromone

> <PUBCHEM_IUPAC_INCHI>
InChI=1S/C20H20O7/c1-22-12-8-6-11(7-9-12)16-19(25-4)15(21)13-10-14(23-2)18(24-3)20(26-5)17(13)27-16/h6-10H,1-5H3

> <PUBCHEM_IUPAC_INCHIKEY>
DGNOHOXRWCCDLK-UHFFFAOYSA-N

> <PUBCHEM_XLOGP3_AA>
3.2

> <PUBCHEM_EXACT_MASS>
372.120903

> <PUBCHEM_MOLECULAR_FORMULA>
C20H20O7

> <PUBCHEM_MOLECULAR_WEIGHT>
372.3686

> <PUBCHEM_OPENEYE_CAN_SMILES>
COC1=CC=C(C=C1)C2=C(C(=O)C3=CC(=C(C(=C3O2)OC)OC)OC)OC

> <PUBCHEM_OPENEYE_ISO_SMILES>
COC1=CC=C(C=C1)C2=C(C(=O)C3=CC(=C(C(=C3O2)OC)OC)OC)OC

> <PUBCHEM_CACTVS_TPSA>
72.4

> <PUBCHEM_MONOISOTOPIC_WEIGHT>
372.120903

> <PUBCHEM_TOTAL_CHARGE>
0

> <PUBCHEM_HEAVY_ATOM_COUNT>
27

> <PUBCHEM_ATOM_DEF_STEREO_COUNT>
0

> <PUBCHEM_ATOM_UDEF_STEREO_COUNT>
0

> <PUBCHEM_BOND_DEF_STEREO_COUNT>
0

> <PUBCHEM_BOND_UDEF_STEREO_COUNT>
0

> <PUBCHEM_ISOTOPIC_ATOM_COUNT>
0

> <PUBCHEM_COMPONENT_COUNT>
1

> <PUBCHEM_CACTVS_TAUTO_COUNT>
1

> <PUBCHEM_COORDINATE_TYPE>
1
5
255

> <PUBCHEM_BONDANNOTATIONS>
1  10  8
1  9  8
10  13  8
11  15  8
12  13  8
14  16  8
15  16  8
17  18  8
17  19  8
18  20  8
19  21  8
20  22  8
21  22  8
8  12  8
8  14  8
8  9  8
9  11  8

$$$$

