26840
  -OEChem-07051212463D

 62 61  0     1  0  0  0  0  0999 V2000
    6.7170   -2.6307    0.0176 O   0  0  0  0  0  0  0  0  0  0  0  0
    4.7372   -1.9309    0.8970 O   0  0  0  0  0  0  0  0  0  0  0  0
    1.8095    0.9595    0.2515 C   0  0  1  0  0  0  0  0  0  0  0  0
   -3.2044   -0.2041   -0.0477 C   0  0  1  0  0  0  0  0  0  0  0  0
    0.3593    1.4431    0.0219 C   0  0  0  0  0  0  0  0  0  0  0  0
   -2.0965    0.8692   -0.1485 C   0  0  0  0  0  0  0  0  0  0  0  0
   -0.6810    0.3171    0.0595 C   0  0  0  0  0  0  0  0  0  0  0  0
    2.7636    2.1678    0.1204 C   0  0  0  0  0  0  0  0  0  0  0  0
   -4.5815    0.4944   -0.1085 C   0  0  0  0  0  0  0  0  0  0  0  0
    4.2617    1.8794    0.2875 C   0  0  0  0  0  0  0  0  0  0  0  0
   -5.8116   -0.3948    0.1189 C   0  0  0  0  0  0  0  0  0  0  0  0
    4.8249    0.9336   -0.7776 C   0  0  0  0  0  0  0  0  0  0  0  0
    1.9643    0.2617    1.6057 C   0  0  0  0  0  0  0  0  0  0  0  0
    6.3079    0.5687   -0.5566 C   0  0  1  0  0  0  0  0  0  0  0  0
   -7.1346    0.3778    0.1137 C   0  0  0  0  0  0  0  0  0  0  0  0
   -3.0615   -1.2672   -1.1404 C   0  0  0  0  0  0  0  0  0  0  0  0
   -8.3692   -0.5193    0.3293 C   0  0  0  0  0  0  0  0  0  0  0  0
    6.5626   -0.3558    0.6435 C   0  0  0  0  0  0  0  0  0  0  0  0
    6.8940   -0.0208   -1.8446 C   0  0  0  0  0  0  0  0  0  0  0  0
   -8.5112   -1.5919   -0.7520 C   0  0  0  0  0  0  0  0  0  0  0  0
   -9.6346    0.3419    0.3668 C   0  0  0  0  0  0  0  0  0  0  0  0
    5.8842   -1.6987    0.5426 C   0  0  0  0  0  0  0  0  0  0  0  0
    2.0453    0.2337   -0.5356 H   0  0  0  0  0  0  0  0  0  0  0  0
   -3.1178   -0.7009    0.9272 H   0  0  0  0  0  0  0  0  0  0  0  0
    0.2990    1.9462   -0.9517 H   0  0  0  0  0  0  0  0  0  0  0  0
    0.1037    2.1942    0.7806 H   0  0  0  0  0  0  0  0  0  0  0  0
   -2.1528    1.3646   -1.1263 H   0  0  0  0  0  0  0  0  0  0  0  0
   -2.2821    1.6434    0.6073 H   0  0  0  0  0  0  0  0  0  0  0  0
   -0.6562   -0.1998    1.0239 H   0  0  0  0  0  0  0  0  0  0  0  0
   -0.4327   -0.4139   -0.7165 H   0  0  0  0  0  0  0  0  0  0  0  0
    2.4834    2.9239    0.8659 H   0  0  0  0  0  0  0  0  0  0  0  0
    2.6113    2.6362   -0.8607 H   0  0  0  0  0  0  0  0  0  0  0  0
   -4.6866    0.9956   -1.0799 H   0  0  0  0  0  0  0  0  0  0  0  0
   -4.6010    1.2895    0.6487 H   0  0  0  0  0  0  0  0  0  0  0  0
    4.8017    2.8330    0.2268 H   0  0  0  0  0  0  0  0  0  0  0  0
    4.4527    1.4920    1.2921 H   0  0  0  0  0  0  0  0  0  0  0  0
   -5.8364   -1.1533   -0.6685 H   0  0  0  0  0  0  0  0  0  0  0  0
   -5.7033   -0.9227    1.0738 H   0  0  0  0  0  0  0  0  0  0  0  0
    4.2302    0.0172   -0.8374 H   0  0  0  0  0  0  0  0  0  0  0  0
    4.7176    1.4286   -1.7518 H   0  0  0  0  0  0  0  0  0  0  0  0
    2.9949   -0.0552    1.7824 H   0  0  0  0  0  0  0  0  0  0  0  0
    1.3565   -0.6458    1.6621 H   0  0  0  0  0  0  0  0  0  0  0  0
    1.6691    0.9236    2.4267 H   0  0  0  0  0  0  0  0  0  0  0  0
    6.8548    1.5016   -0.3627 H   0  0  0  0  0  0  0  0  0  0  0  0
   -7.2328    0.9147   -0.8384 H   0  0  0  0  0  0  0  0  0  0  0  0
   -7.1019    1.1401    0.9024 H   0  0  0  0  0  0  0  0  0  0  0  0
   -2.1055   -1.7935   -1.0667 H   0  0  0  0  0  0  0  0  0  0  0  0
   -3.8395   -2.0317   -1.0569 H   0  0  0  0  0  0  0  0  0  0  0  0
   -3.1295   -0.8206   -2.1379 H   0  0  0  0  0  0  0  0  0  0  0  0
   -8.2732   -1.0214    1.3002 H   0  0  0  0  0  0  0  0  0  0  0  0
    6.2297    0.1113    1.5771 H   0  0  0  0  0  0  0  0  0  0  0  0
    7.6404   -0.5174    0.7737 H   0  0  0  0  0  0  0  0  0  0  0  0
    6.3470   -0.9129   -2.1664 H   0  0  0  0  0  0  0  0  0  0  0  0
    7.9457   -0.2930   -1.7069 H   0  0  0  0  0  0  0  0  0  0  0  0
    6.8460    0.7099   -2.6594 H   0  0  0  0  0  0  0  0  0  0  0  0
   -8.5037   -1.1499   -1.7540 H   0  0  0  0  0  0  0  0  0  0  0  0
   -9.4520   -2.1406   -0.6328 H   0  0  0  0  0  0  0  0  0  0  0  0
   -7.7043   -2.3284   -0.6948 H   0  0  0  0  0  0  0  0  0  0  0  0
   -9.7904    0.8619   -0.5846 H   0  0  0  0  0  0  0  0  0  0  0  0
  -10.5188   -0.2729    0.5661 H   0  0  0  0  0  0  0  0  0  0  0  0
   -9.5686    1.0955    1.1588 H   0  0  0  0  0  0  0  0  0  0  0  0
    6.2873   -3.5100   -0.0485 H   0  0  0  0  0  0  0  0  0  0  0  0
  1 22  1  0  0  0  0
  1 62  1  0  0  0  0
  2 22  2  0  0  0  0
  3  5  1  0  0  0  0
  3  8  1  0  0  0  0
  3 13  1  0  0  0  0
  3 23  1  0  0  0  0
  4  6  1  0  0  0  0
  4  9  1  0  0  0  0
  4 16  1  0  0  0  0
  4 24  1  0  0  0  0
  5  7  1  0  0  0  0
  5 25  1  0  0  0  0
  5 26  1  0  0  0  0
  6  7  1  0  0  0  0
  6 27  1  0  0  0  0
  6 28  1  0  0  0  0
  7 29  1  0  0  0  0
  7 30  1  0  0  0  0
  8 10  1  0  0  0  0
  8 31  1  0  0  0  0
  8 32  1  0  0  0  0
  9 11  1  0  0  0  0
  9 33  1  0  0  0  0
  9 34  1  0  0  0  0
 10 12  1  0  0  0  0
 10 35  1  0  0  0  0
 10 36  1  0  0  0  0
 11 15  1  0  0  0  0
 11 37  1  0  0  0  0
 11 38  1  0  0  0  0
 12 14  1  0  0  0  0
 12 39  1  0  0  0  0
 12 40  1  0  0  0  0
 13 41  1  0  0  0  0
 13 42  1  0  0  0  0
 13 43  1  0  0  0  0
 14 18  1  0  0  0  0
 14 19  1  0  0  0  0
 14 44  1  0  0  0  0
 15 17  1  0  0  0  0
 15 45  1  0  0  0  0
 15 46  1  0  0  0  0
 16 47  1  0  0  0  0
 16 48  1  0  0  0  0
 16 49  1  0  0  0  0
 17 20  1  0  0  0  0
 17 21  1  0  0  0  0
 17 50  1  0  0  0  0
 18 22  1  0  0  0  0
 18 51  1  0  0  0  0
 18 52  1  0  0  0  0
 19 53  1  0  0  0  0
 19 54  1  0  0  0  0
 19 55  1  0  0  0  0
 20 56  1  0  0  0  0
 20 57  1  0  0  0  0
 20 58  1  0  0  0  0
 21 59  1  0  0  0  0
 21 60  1  0  0  0  0
 21 61  1  0  0  0  0
M  END
> <PUBCHEM_COMPOUND_CID>
26840

> <PUBCHEM_CONFORMER_RMSD>
1.6

> <PUBCHEM_CONFORMER_DIVERSEORDER>
1
26
6
31
37
22
38
27
3
13
28
14
32
30
16
41
39
5
15
21
35
7
23
4
42
36
18
40
12
33
25
43
20
8
9
11
24
10
19
17
29
2
34

> <PUBCHEM_MMFF94_PARTIAL_CHARGES>
5
1 -0.65
18 0.06
2 -0.57
22 0.66
62 0.5

> <PUBCHEM_EFFECTIVE_ROTOR_COUNT>
14

> <PUBCHEM_PHARMACOPHORE_FEATURES>
7
1 1 acceptor
1 13 hydrophobe
1 16 hydrophobe
1 19 hydrophobe
1 2 acceptor
3 1 2 22 anion
3 17 20 21 hydrophobe

> <PUBCHEM_HEAVY_ATOM_COUNT>
22

> <PUBCHEM_ATOM_DEF_STEREO_COUNT>
0

> <PUBCHEM_ATOM_UDEF_STEREO_COUNT>
3

> <PUBCHEM_BOND_DEF_STEREO_COUNT>
0

> <PUBCHEM_BOND_UDEF_STEREO_COUNT>
0

> <PUBCHEM_ISOTOPIC_ATOM_COUNT>
0

> <PUBCHEM_COMPONENT_COUNT>
1

> <PUBCHEM_CACTVS_TAUTO_COUNT>
1

> <PUBCHEM_CONFORMER_ID>
000068D800000001

> <PUBCHEM_MMFF94_ENERGY>
24.424

> <PUBCHEM_FEATURE_SELFOVERLAP>
35.577

> <PUBCHEM_SHAPE_FINGERPRINT>
10 15 6122501311123686288
10066227 49 18412265073033132899
10299344 5 18409729560754075683
11135609 127 17560229199677456324
11638347 137 14129049335872727828
11719270 70 17385437726262150454
11796584 16 17822571612706136078
12592606 108 18334013882840694031
13533116 47 18408045091987801032
13685833 64 18412265051341499003
14123256 10 12823297888062990421
14216079 64 18410855468924104213
14251764 18 18335138696357986071
14251764 46 16989127534664475784
14429380 56 8502368901864315402
15183329 4 18259978275583883000
15301273 46 17203612584268472959
1754908 1 14273455852002186591
21095086 128 18336265657549057791
21150785 3 16487255460840262853
21267235 1 18413390955865348113
21315759 40 18334571322667676521
21315763 28 18408323264298217017
21360442 67 16988841670589950826
21360443 126 16702015349100919786
21792934 111 14056715760490136291
22224240 67 6627754383778505581
2835820 82 18269557307107096058
28498 318 18413390947486286605
3004659 81 18113613474502803572
33532 11 18411703183904608387
34797466 226 16343701015521220596
4325135 7 11240002256287980800
439807 62 18272369789278305538
444735 82 7276829103961435866
5283156 175 18408884049055072505
6438161 24 18410015442356708642

> <PUBCHEM_SHAPE_MULTIPOLES>
441.01
30.23
1.96
1.1
44.96
0.62
-0.14
10.64
-2.05
-3.38
0.13
-1.48
0.17
-1.34

> <PUBCHEM_SHAPE_SELFOVERLAP>
816.809

> <PUBCHEM_SHAPE_VOLUME>
278.3

> <PUBCHEM_COORDINATE_TYPE>
2
5
10

$$$$

