77322
  -OEChem-07051213133D

 37 36  0     0  0  0  0  0  0999 V2000
    0.6948   -0.9571    0.4544 S   0  0  0  0  0  0  0  0  0  0  0  0
    2.6123   -0.6187   -0.3361 P   0  0  0  0  0  0  0  0  0  0  0  0
    3.6821   -0.5146    0.8841 O   0  0  0  0  0  0  0  0  0  0  0  0
    2.7005    0.8539   -1.0192 O   0  0  0  0  0  0  0  0  0  0  0  0
   -2.2863   -2.3186   -0.3698 O   0  0  0  0  0  0  0  0  0  0  0  0
    2.9704   -1.7068   -1.3151 O   0  0  0  0  0  0  0  0  0  0  0  0
   -2.5041   -0.0108   -0.2018 N   0  0  0  0  0  0  0  0  0  0  0  0
   -4.5950    2.5253    0.6474 N   0  0  0  0  0  0  0  0  0  0  0  0
   -3.8640    0.0175    0.2872 C   0  0  0  0  0  0  0  0  0  0  0  0
   -4.7903   -0.6426   -0.7399 C   0  0  0  0  0  0  0  0  0  0  0  0
   -3.9373   -0.7386    1.6172 C   0  0  0  0  0  0  0  0  0  0  0  0
   -1.8269   -1.1841   -0.4904 C   0  0  0  0  0  0  0  0  0  0  0  0
   -0.4138   -0.9462   -0.9684 C   0  0  0  0  0  0  0  0  0  0  0  0
   -4.2726    1.4217    0.4886 C   0  0  0  0  0  0  0  0  0  0  0  0
    5.0383   -0.2353    0.5809 C   0  0  0  0  0  0  0  0  0  0  0  0
    2.3993    2.0095   -0.2564 C   0  0  0  0  0  0  0  0  0  0  0  0
    5.8320   -0.1886    1.8691 C   0  0  0  0  0  0  0  0  0  0  0  0
    2.5603    3.2341   -1.1318 C   0  0  0  0  0  0  0  0  0  0  0  0
   -2.0161    0.8725   -0.3264 H   0  0  0  0  0  0  0  0  0  0  0  0
   -5.8412   -0.5438   -0.4407 H   0  0  0  0  0  0  0  0  0  0  0  0
   -4.6892   -0.1716   -1.7257 H   0  0  0  0  0  0  0  0  0  0  0  0
   -4.5966   -1.7120   -0.8675 H   0  0  0  0  0  0  0  0  0  0  0  0
   -3.2166   -0.3387    2.3415 H   0  0  0  0  0  0  0  0  0  0  0  0
   -4.9334   -0.6437    2.0675 H   0  0  0  0  0  0  0  0  0  0  0  0
   -3.7377   -1.8096    1.5150 H   0  0  0  0  0  0  0  0  0  0  0  0
   -0.3346    0.0097   -1.4947 H   0  0  0  0  0  0  0  0  0  0  0  0
   -0.1357   -1.7416   -1.6663 H   0  0  0  0  0  0  0  0  0  0  0  0
    5.1140    0.7235    0.0600 H   0  0  0  0  0  0  0  0  0  0  0  0
    5.4287   -1.0211   -0.0732 H   0  0  0  0  0  0  0  0  0  0  0  0
    3.0712    2.0718    0.6044 H   0  0  0  0  0  0  0  0  0  0  0  0
    1.3691    1.9519    0.1062 H   0  0  0  0  0  0  0  0  0  0  0  0
    6.8869    0.0203    1.6708 H   0  0  0  0  0  0  0  0  0  0  0  0
    5.4378    0.5850    2.5364 H   0  0  0  0  0  0  0  0  0  0  0  0
    5.7546   -1.1406    2.4045 H   0  0  0  0  0  0  0  0  0  0  0  0
    2.3317    4.1463   -0.5737 H   0  0  0  0  0  0  0  0  0  0  0  0
    3.5838    3.3014   -1.5151 H   0  0  0  0  0  0  0  0  0  0  0  0
    1.8977    3.1762   -2.0015 H   0  0  0  0  0  0  0  0  0  0  0  0
  1  2  1  0  0  0  0
  1 13  1  0  0  0  0
  2  3  1  0  0  0  0
  2  4  1  0  0  0  0
  2  6  2  0  0  0  0
  3 15  1  0  0  0  0
  4 16  1  0  0  0  0
  5 12  2  0  0  0  0
  7  9  1  0  0  0  0
  7 12  1  0  0  0  0
  7 19  1  0  0  0  0
  8 14  3  0  0  0  0
  9 10  1  0  0  0  0
  9 11  1  0  0  0  0
  9 14  1  0  0  0  0
 10 20  1  0  0  0  0
 10 21  1  0  0  0  0
 10 22  1  0  0  0  0
 11 23  1  0  0  0  0
 11 24  1  0  0  0  0
 11 25  1  0  0  0  0
 12 13  1  0  0  0  0
 13 26  1  0  0  0  0
 13 27  1  0  0  0  0
 15 17  1  0  0  0  0
 15 28  1  0  0  0  0
 15 29  1  0  0  0  0
 16 18  1  0  0  0  0
 16 30  1  0  0  0  0
 16 31  1  0  0  0  0
 17 32  1  0  0  0  0
 17 33  1  0  0  0  0
 17 34  1  0  0  0  0
 18 35  1  0  0  0  0
 18 36  1  0  0  0  0
 18 37  1  0  0  0  0
M  END
> <PUBCHEM_COMPOUND_CID>
77322

> <PUBCHEM_CONFORMER_RMSD>
0.8

> <PUBCHEM_CONFORMER_DIVERSEORDER>
1
47
107
156
180
35
37
332
179
309
9
281
61
188
351
356
276
138
316
274
6
151
301
355
130
43
98
168
178
264
62
42
331
48
218
317
63
221
191
88
288
60
189
183
103
111
336
3
135
323
213
255
297
56
8
207
222
50
279
38
143
308
85
199
116
20
313
32
361
71
289
290
155
90
145
171
318
230
233
95
115
26
131
14
217
55
193
278
212
175
198
120
29
22
302
360
104
28
234
257
148
223
298
52
36
86
203
108
292
137
72
68
51
352
160
228
337
76
75
314
2
283
181
305
113
159
353
125
16
64
215
134
190
99
31
273
53
45
66
10
260
59
242
74
268
285
174
77
46
158
123
300
33
57
100
78
39
49
44
117
97
182
204
200
272
157
286
105
119
303
220
19
348
244
93
25
186
84
41
262
96
128
81
166
197
7
235
201
266
24
91
211
161
118
129
92
256
362
121
358
226
149
140
280
141
164
248
58
343
40
329
106
315
5
209
205
67
94
306
296
27
70
271
253
284
124
224
238
167
65
132
294
219
12
299
270
194
295
342
101
13
202
147
30
109
79
206
321
122
310
110
146
354
144
340
277
239
184
195
326
23
18
246
263
139
245
126
185
322
243
196
114
176
83
359
154
152
345
229
225
240
347
187
80
364
333
17
261
133
328
150
269
82
341
34
87
251
172
349
339
102
320
153
216
357
237
54
4
293
252
236
335
247
241
163
11
254
127
73
210
312
162
214
259
21
275
267
15
307
282
227
363
89
250
311
192
344
346
177
327
112
291
319
232
265
173
231
136
208
324
338
165
258
69
334
325
330
169
287
350
142
304
170
249

> <PUBCHEM_MMFF94_PARTIAL_CHARGES>
15
1 -0.48
12 0.57
13 0.29
14 0.36
15 0.28
16 0.28
19 0.37
2 1.49
3 -0.55
4 -0.55
5 -0.57
6 -0.7
7 -0.73
8 -0.56
9 0.5

> <PUBCHEM_EFFECTIVE_ROTOR_COUNT>
9

> <PUBCHEM_PHARMACOPHORE_FEATURES>
5
1 5 acceptor
1 6 acceptor
1 7 donor
1 8 acceptor
3 9 10 11 hydrophobe

> <PUBCHEM_HEAVY_ATOM_COUNT>
18

> <PUBCHEM_ATOM_DEF_STEREO_COUNT>
0

> <PUBCHEM_ATOM_UDEF_STEREO_COUNT>
0

> <PUBCHEM_BOND_DEF_STEREO_COUNT>
0

> <PUBCHEM_BOND_UDEF_STEREO_COUNT>
0

> <PUBCHEM_ISOTOPIC_ATOM_COUNT>
0

> <PUBCHEM_COMPONENT_COUNT>
1

> <PUBCHEM_CACTVS_TAUTO_COUNT>
2

> <PUBCHEM_CONFORMER_ID>
00012E0A00000001

> <PUBCHEM_MMFF94_ENERGY>
16.1934

> <PUBCHEM_FEATURE_SELFOVERLAP>
25.371

> <PUBCHEM_SHAPE_FINGERPRINT>
11089746 13 17988657293594076959
11405975 8 18201435831224682410
12403259 118 18410853265901111545
12507557 5 18413674612548106569
12633257 1 18343305855453743182
13583140 156 17846785109202109995
14251764 38 18410569609197734669
14466204 15 18271534203106077784
14576447 43 8934995962754387164
15238133 3 18201430424340781124
15295992 7 17774714277747649232
17041 49 18343305851422552182
17834072 32 18263635325037408857
20281389 69 17968105213747359418
20645477 56 17603308124607645115
21304253 335 18261396629100346016
21864079 5 18337380561606633773
235170 7 4678821618926301729
23557571 272 17095527240651189150
23559900 14 17968921111040741254
2871803 45 9943516406214631862
2916195 48 17894642447669425154
5104073 3 18131060494620469905
9971528 1 18261390083480334526

> <PUBCHEM_SHAPE_MULTIPOLES>
344.69
12.61
2.56
1.38
1.91
2.47
0.32
1.46
5.08
0.11
-0.7
0.81
-0.16
-1.34

> <PUBCHEM_SHAPE_SELFOVERLAP>
627.499

> <PUBCHEM_SHAPE_VOLUME>
221.1

> <PUBCHEM_COORDINATE_TYPE>
2
5
10

$$$$

