439339
  -OEChem-07051212452D

 58 61  0     1  0  0  0  0  0999 V2000
    9.0712    2.6912    0.0000 O   0  0  0  0  0  0  0  0  0  0  0  0
    5.6591   -1.2208    0.0000 C   0  0  1  0  0  0  0  0  0  0  0  0
    6.5251   -0.7208    0.0000 C   0  0  1  0  0  0  0  0  0  0  0  0
    4.7931   -0.7208    0.0000 C   0  0  1  0  0  0  0  0  0  0  0  0
    6.5251    0.2792    0.0000 C   0  0  1  0  0  0  0  0  0  0  0  0
    3.8831   -1.2277    0.0000 C   0  0  2  0  0  0  0  0  0  0  0  0
    3.8751   -2.2693    0.0000 C   0  0  2  0  0  0  0  0  0  0  0  0
    7.4714    0.5839    0.0000 C   0  0  2  0  0  0  0  0  0  0  0  0
    4.7931    0.2792    0.0000 C   0  0  0  0  0  0  0  0  0  0  0  0
    5.6591    0.7792    0.0000 C   0  0  0  0  0  0  0  0  0  0  0  0
    5.6752   -2.2624    0.0000 C   0  0  0  0  0  0  0  0  0  0  0  0
    7.4714   -1.0256    0.0000 C   0  0  0  0  0  0  0  0  0  0  0  0
    4.7771   -2.7901    0.0000 C   0  0  0  0  0  0  0  0  0  0  0  0
    8.0550   -0.2208    0.0000 C   0  0  0  0  0  0  0  0  0  0  0  0
    2.9562   -0.6636    0.0000 C   0  0  0  0  0  0  0  0  0  0  0  0
    6.5251    1.2792    0.0000 C   0  0  0  0  0  0  0  0  0  0  0  0
    2.9396   -2.8190    0.0000 C   0  0  0  0  0  0  0  0  0  0  0  0
    3.8908   -0.2277    0.0000 C   0  0  0  0  0  0  0  0  0  0  0  0
    7.7820    1.5344    0.0000 C   0  0  0  0  0  0  0  0  0  0  0  0
    2.0084   -1.1916    0.0000 C   0  0  0  0  0  0  0  0  0  0  0  0
    2.0000   -2.2765    0.0000 C   0  0  0  0  0  0  0  0  0  0  0  0
    8.7605    1.7406    0.0000 C   0  0  0  0  0  0  0  0  0  0  0  0
    6.3985   -1.6402    0.0000 H   0  0  0  0  0  0  0  0  0  0  0  0
    6.6151   -1.5661    0.0000 H   0  0  0  0  0  0  0  0  0  0  0  0
    5.5292   -0.2958    0.0000 H   0  0  0  0  0  0  0  0  0  0  0  0
    3.8783   -3.1193    0.0000 H   0  0  0  0  0  0  0  0  0  0  0  0
    8.0838    0.6801    0.0000 H   0  0  0  0  0  0  0  0  0  0  0  0
    4.5810    0.8618    0.0000 H   0  0  0  0  0  0  0  0  0  0  0  0
    4.1825    0.1715    0.0000 H   0  0  0  0  0  0  0  0  0  0  0  0
    6.0576    1.2541    0.0000 H   0  0  0  0  0  0  0  0  0  0  0  0
    5.2606    1.2541    0.0000 H   0  0  0  0  0  0  0  0  0  0  0  0
    5.8932   -2.8427    0.0000 H   0  0  0  0  0  0  0  0  0  0  0  0
    6.2843   -2.1468    0.0000 H   0  0  0  0  0  0  0  0  0  0  0  0
    7.2203   -1.5925    0.0000 H   0  0  0  0  0  0  0  0  0  0  0  0
    8.0087   -1.3348    0.0000 H   0  0  0  0  0  0  0  0  0  0  0  0
    4.3798   -3.2661    0.0000 H   0  0  0  0  0  0  0  0  0  0  0  0
    5.1781   -3.2630    0.0000 H   0  0  0  0  0  0  0  0  0  0  0  0
    8.5158   -0.6356    0.0000 H   0  0  0  0  0  0  0  0  0  0  0  0
    8.5158    0.1939    0.0000 H   0  0  0  0  0  0  0  0  0  0  0  0
    3.3645   -0.1969    0.0000 H   0  0  0  0  0  0  0  0  0  0  0  0
    2.5663   -0.1816    0.0000 H   0  0  0  0  0  0  0  0  0  0  0  0
    7.1451    1.2792    0.0000 H   0  0  0  0  0  0  0  0  0  0  0  0
    6.5251    1.8992    0.0000 H   0  0  0  0  0  0  0  0  0  0  0  0
    5.9051    1.2792    0.0000 H   0  0  0  0  0  0  0  0  0  0  0  0
    2.5423   -3.2950    0.0000 H   0  0  0  0  0  0  0  0  0  0  0  0
    3.3406   -3.2919    0.0000 H   0  0  0  0  0  0  0  0  0  0  0  0
    4.5108   -0.2325    0.0000 H   0  0  0  0  0  0  0  0  0  0  0  0
    3.8956    0.3923    0.0000 H   0  0  0  0  0  0  0  0  0  0  0  0
    3.2708   -0.2229    0.0000 H   0  0  0  0  0  0  0  0  0  0  0  0
    7.7614    2.1541    0.0000 H   0  0  0  0  0  0  0  0  0  0  0  0
    7.1682    1.6218    0.0000 H   0  0  0  0  0  0  0  0  0  0  0  0
    1.8038   -0.6063    0.0000 H   0  0  0  0  0  0  0  0  0  0  0  0
    1.3967   -1.2929    0.0000 H   0  0  0  0  0  0  0  0  0  0  0  0
    1.3900   -2.1657    0.0000 H   0  0  0  0  0  0  0  0  0  0  0  0
    1.7864   -2.8586    0.0000 H   0  0  0  0  0  0  0  0  0  0  0  0
    8.7811    1.1210    0.0000 H   0  0  0  0  0  0  0  0  0  0  0  0
    9.3743    1.6533    0.0000 H   0  0  0  0  0  0  0  0  0  0  0  0
    9.6779    2.8190    0.0000 H   0  0  0  0  0  0  0  0  0  0  0  0
  1 22  1  0  0  0  0
  1 58  1  0  0  0  0
  2  3  1  0  0  0  0
  2  4  1  0  0  0  0
  2 11  1  0  0  0  0
  2 23  1  1  0  0  0
  3  5  1  0  0  0  0
  3 12  1  0  0  0  0
  3 24  1  6  0  0  0
  4  6  1  0  0  0  0
  4  9  1  0  0  0  0
  4 25  1  6  0  0  0
  5  8  1  0  0  0  0
  5 10  1  0  0  0  0
  5 16  1  1  0  0  0
  6  7  1  0  0  0  0
  6 15  1  0  0  0  0
  6 18  1  1  0  0  0
  7 13  1  0  0  0  0
  7 17  1  0  0  0  0
  7 26  1  1  0  0  0
  8 14  1  0  0  0  0
  8 19  1  1  0  0  0
  8 27  1  0  0  0  0
  9 10  1  0  0  0  0
  9 28  1  0  0  0  0
  9 29  1  0  0  0  0
 10 30  1  0  0  0  0
 10 31  1  0  0  0  0
 11 13  1  0  0  0  0
 11 32  1  0  0  0  0
 11 33  1  0  0  0  0
 12 14  1  0  0  0  0
 12 34  1  0  0  0  0
 12 35  1  0  0  0  0
 13 36  1  0  0  0  0
 13 37  1  0  0  0  0
 14 38  1  0  0  0  0
 14 39  1  0  0  0  0
 15 20  1  0  0  0  0
 15 40  1  0  0  0  0
 15 41  1  0  0  0  0
 16 42  1  0  0  0  0
 16 43  1  0  0  0  0
 16 44  1  0  0  0  0
 17 21  1  0  0  0  0
 17 45  1  0  0  0  0
 17 46  1  0  0  0  0
 18 47  1  0  0  0  0
 18 48  1  0  0  0  0
 18 49  1  0  0  0  0
 19 22  1  0  0  0  0
 19 50  1  0  0  0  0
 19 51  1  0  0  0  0
 20 21  1  0  0  0  0
 20 52  1  0  0  0  0
 20 53  1  0  0  0  0
 21 54  1  0  0  0  0
 21 55  1  0  0  0  0
 22 56  1  0  0  0  0
 22 57  1  0  0  0  0
M  END
> <PUBCHEM_COMPOUND_CID>
439339

> <PUBCHEM_COMPOUND_CANONICALIZED>
1

> <PUBCHEM_CACTVS_COMPLEXITY>
418

> <PUBCHEM_CACTVS_HBOND_ACCEPTOR>
1

> <PUBCHEM_CACTVS_HBOND_DONOR>
1

> <PUBCHEM_CACTVS_ROTATABLE_BOND>
2

> <PUBCHEM_CACTVS_SUBSKEYS>
AAADcfB4IAAAAAAAAAAAAAAAAAAAAYAAAAAwYMAAAAAAAGDAAAAAGgAACAAADwCggAICAAAAAgAAAAAAAAAAAAAAAAAAAAAAAAAAEAIAAAAAQAAEAAAAAAGAwPAPgAAAAAAAAACAAAQAACAAAQAACAAAAA==

> <PUBCHEM_IUPAC_OPENEYE_NAME>
2-[(5S,8S,9S,10S,13R,14S,17R)-10,13-dimethyl-2,3,4,5,6,7,8,9,11,12,14,15,16,17-tetradecahydro-1H-cyclopenta[a]phenanthren-17-yl]ethanol

> <PUBCHEM_IUPAC_CAS_NAME>
2-[(5S,8S,9S,10S,13R,14S,17R)-10,13-dimethyl-2,3,4,5,6,7,8,9,11,12,14,15,16,17-tetradecahydro-1H-cyclopenta[a]phenanthren-17-yl]ethanol

> <PUBCHEM_IUPAC_NAME>
2-[(5S,8S,9S,10S,13R,14S,17R)-10,13-dimethyl-2,3,4,5,6,7,8,9,11,12,14,15,16,17-tetradecahydro-1H-cyclopenta[a]phenanthren-17-yl]ethanol

> <PUBCHEM_IUPAC_SYSTEMATIC_NAME>
2-[(5S,8S,9S,10S,13R,14S,17R)-10,13-dimethyl-2,3,4,5,6,7,8,9,11,12,14,15,16,17-tetradecahydro-1H-cyclopenta[a]phenanthren-17-yl]ethanol

> <PUBCHEM_IUPAC_TRADITIONAL_NAME>
2-[(5S,8S,9S,10S,13R,14S,17R)-10,13-dimethyl-2,3,4,5,6,7,8,9,11,12,14,15,16,17-tetradecahydro-1H-cyclopenta[a]phenanthren-17-yl]ethanol

> <PUBCHEM_IUPAC_INCHI>
InChI=1S/C21H36O/c1-20-12-4-3-5-15(20)6-8-17-18-9-7-16(11-14-22)21(18,2)13-10-19(17)20/h15-19,22H,3-14H2,1-2H3/t15-,16+,17-,18-,19-,20-,21+/m0/s1

> <PUBCHEM_IUPAC_INCHIKEY>
DBMUNIJZUYVPCQ-GCOKGBOCSA-N

> <PUBCHEM_XLOGP3_AA>
7

> <PUBCHEM_EXACT_MASS>
304.276616

> <PUBCHEM_MOLECULAR_FORMULA>
C21H36O

> <PUBCHEM_MOLECULAR_WEIGHT>
304.50994

> <PUBCHEM_OPENEYE_CAN_SMILES>
CC12CCCCC1CCC3C2CCC4(C3CCC4CCO)C

> <PUBCHEM_OPENEYE_ISO_SMILES>
C[C@]12CCCC[C@H]1CC[C@@H]3[C@@H]2CC[C@]4([C@H]3CC[C@@H]4CCO)C

> <PUBCHEM_CACTVS_TPSA>
20.2

> <PUBCHEM_MONOISOTOPIC_WEIGHT>
304.276616

> <PUBCHEM_TOTAL_CHARGE>
0

> <PUBCHEM_HEAVY_ATOM_COUNT>
22

> <PUBCHEM_ATOM_DEF_STEREO_COUNT>
7

> <PUBCHEM_ATOM_UDEF_STEREO_COUNT>
0

> <PUBCHEM_BOND_DEF_STEREO_COUNT>
0

> <PUBCHEM_BOND_UDEF_STEREO_COUNT>
0

> <PUBCHEM_ISOTOPIC_ATOM_COUNT>
0

> <PUBCHEM_COMPONENT_COUNT>
1

> <PUBCHEM_CACTVS_TAUTO_COUNT>
1

> <PUBCHEM_COORDINATE_TYPE>
1
5
255

> <PUBCHEM_BONDANNOTATIONS>
2  23  5
3  24  6
4  25  6
5  16  5
6  18  5
7  26  5
8  19  5

$$$$

