441259
  -OEChem-07051212533D

 70 73  0     1  0  0  0  0  0999 V2000
    2.2430    0.1002   -0.3517 O   0  0  0  0  0  0  0  0  0  0  0  0
    4.1970    1.3419   -0.0617 O   0  0  0  0  0  0  0  0  0  0  0  0
    1.9958    0.0039    1.9943 O   0  0  0  0  0  0  0  0  0  0  0  0
    3.7661   -1.9855   -1.5083 O   0  0  0  0  0  0  0  0  0  0  0  0
    6.2279   -0.9776   -2.7751 O   0  0  0  0  0  0  0  0  0  0  0  0
    7.6953    0.7047   -0.9387 O   0  0  0  0  0  0  0  0  0  0  0  0
   -0.5170   -3.5709    0.9652 O   0  0  0  0  0  0  0  0  0  0  0  0
    5.3822    3.2275    1.5496 O   0  0  0  0  0  0  0  0  0  0  0  0
   -0.8263   -2.9941    3.1859 O   0  0  0  0  0  0  0  0  0  0  0  0
   -6.1056    2.6022    1.3851 O   0  0  0  0  0  0  0  0  0  0  0  0
   -7.9834    1.7540   -0.4767 O   0  0  0  0  0  0  0  0  0  0  0  0
   -2.4618   -1.3153   -1.6506 N   0  0  0  0  0  0  0  0  0  0  0  0
   -0.5049   -0.6263    0.5572 C   0  0  2  0  0  0  0  0  0  0  0  0
    0.1201    0.7980    0.5706 C   0  0  2  0  0  0  0  0  0  0  0  0
   -2.0380   -0.5798    0.6042 C   0  0  0  0  0  0  0  0  0  0  0  0
   -2.6203   -0.1573   -0.7502 C   0  0  2  0  0  0  0  0  0  0  0  0
    1.6431    0.7085    0.7940 C   0  0  2  0  0  0  0  0  0  0  0  0
    3.6619    0.0295   -0.2158 C   0  0  2  0  0  0  0  0  0  0  0  0
    4.2228   -0.6336   -1.4739 C   0  0  1  0  0  0  0  0  0  0  0  0
    0.1205   -1.4714    1.6353 C   0  0  0  0  0  0  0  0  0  0  0  0
    5.7514   -0.6141   -1.4783 C   0  0  2  0  0  0  0  0  0  0  0  0
   -4.0570    0.3388   -0.6556 C   0  0  0  0  0  0  0  0  0  0  0  0
    6.2881    0.7795   -1.1510 C   0  0  1  0  0  0  0  0  0  0  0  0
    5.6159    1.3390    0.1050 C   0  0  1  0  0  0  0  0  0  0  0  0
   -3.1225   -1.0851   -2.9311 C   0  0  0  0  0  0  0  0  0  0  0  0
   -5.0068   -0.0517   -1.6212 C   0  0  0  0  0  0  0  0  0  0  0  0
   -0.4934    1.7290    1.5810 C   0  0  0  0  0  0  0  0  0  0  0  0
   -4.6316   -1.0129   -2.7197 C   0  0  0  0  0  0  0  0  0  0  0  0
    1.2497   -1.1142    2.2606 C   0  0  0  0  0  0  0  0  0  0  0  0
    6.0489    2.7746    0.3853 C   0  0  0  0  0  0  0  0  0  0  0  0
   -4.4469    1.2520    0.3375 C   0  0  0  0  0  0  0  0  0  0  0  0
   -0.4626   -2.7510    2.0455 C   0  0  0  0  0  0  0  0  0  0  0  0
   -6.3258    0.4190   -1.5414 C   0  0  0  0  0  0  0  0  0  0  0  0
   -5.7592    1.7248    0.4020 C   0  0  0  0  0  0  0  0  0  0  0  0
   -1.0989    2.8794    1.2678 C   0  0  0  0  0  0  0  0  0  0  0  0
   -6.6995    1.3036   -0.5326 C   0  0  0  0  0  0  0  0  0  0  0  0
   -1.0680   -4.8695    1.2075 C   0  0  0  0  0  0  0  0  0  0  0  0
   -0.1972   -1.1048   -0.3838 H   0  0  0  0  0  0  0  0  0  0  0  0
   -0.0284    1.2243   -0.4314 H   0  0  0  0  0  0  0  0  0  0  0  0
   -2.4518   -1.5642    0.8652 H   0  0  0  0  0  0  0  0  0  0  0  0
   -2.3673    0.0507    1.4339 H   0  0  0  0  0  0  0  0  0  0  0  0
   -2.0459    0.6788   -1.1662 H   0  0  0  0  0  0  0  0  0  0  0  0
    2.0354    1.7285    0.8938 H   0  0  0  0  0  0  0  0  0  0  0  0
    3.9095   -0.5819    0.6618 H   0  0  0  0  0  0  0  0  0  0  0  0
    3.8296   -0.1442   -2.3728 H   0  0  0  0  0  0  0  0  0  0  0  0
    6.1548   -1.3610   -0.7846 H   0  0  0  0  0  0  0  0  0  0  0  0
    6.1211    1.4484   -2.0042 H   0  0  0  0  0  0  0  0  0  0  0  0
    5.8616    0.7326    0.9875 H   0  0  0  0  0  0  0  0  0  0  0  0
   -2.8546   -2.1504   -1.2158 H   0  0  0  0  0  0  0  0  0  0  0  0
   -2.7437   -0.1663   -3.3957 H   0  0  0  0  0  0  0  0  0  0  0  0
   -2.8862   -1.9064   -3.6163 H   0  0  0  0  0  0  0  0  0  0  0  0
   -0.4385    1.4505    2.6307 H   0  0  0  0  0  0  0  0  0  0  0  0
   -5.1040   -0.7066   -3.6607 H   0  0  0  0  0  0  0  0  0  0  0  0
   -5.0209   -2.0050   -2.4580 H   0  0  0  0  0  0  0  0  0  0  0  0
    1.7094   -1.6782    3.0617 H   0  0  0  0  0  0  0  0  0  0  0  0
    7.1285    2.8439    0.5492 H   0  0  0  0  0  0  0  0  0  0  0  0
    5.7645    3.4359   -0.4400 H   0  0  0  0  0  0  0  0  0  0  0  0
   -3.7282    1.6167    1.0641 H   0  0  0  0  0  0  0  0  0  0  0  0
   -7.0568    0.0922   -2.2777 H   0  0  0  0  0  0  0  0  0  0  0  0
    4.1032   -2.4382   -0.7164 H   0  0  0  0  0  0  0  0  0  0  0  0
    5.8711   -0.3411   -3.4179 H   0  0  0  0  0  0  0  0  0  0  0  0
    7.8535    0.1241   -0.1748 H   0  0  0  0  0  0  0  0  0  0  0  0
   -1.5217    3.5068    2.0448 H   0  0  0  0  0  0  0  0  0  0  0  0
   -1.1870    3.2137    0.2400 H   0  0  0  0  0  0  0  0  0  0  0  0
    5.6687    4.1433    1.7065 H   0  0  0  0  0  0  0  0  0  0  0  0
   -5.3277    2.7815    1.9407 H   0  0  0  0  0  0  0  0  0  0  0  0
   -8.4912    1.3567   -1.2049 H   0  0  0  0  0  0  0  0  0  0  0  0
   -1.0520   -5.4264    0.2669 H   0  0  0  0  0  0  0  0  0  0  0  0
   -2.1046   -4.7826    1.5469 H   0  0  0  0  0  0  0  0  0  0  0  0
   -0.4632   -5.4062    1.9446 H   0  0  0  0  0  0  0  0  0  0  0  0
  1 17  1  0  0  0  0
  1 18  1  0  0  0  0
  2 18  1  0  0  0  0
  2 24  1  0  0  0  0
  3 17  1  0  0  0  0
  3 29  1  0  0  0  0
  4 19  1  0  0  0  0
  4 60  1  0  0  0  0
  5 21  1  0  0  0  0
  5 61  1  0  0  0  0
  6 23  1  0  0  0  0
  6 62  1  0  0  0  0
  7 32  1  0  0  0  0
  7 37  1  0  0  0  0
  8 30  1  0  0  0  0
  8 65  1  0  0  0  0
  9 32  2  0  0  0  0
 10 34  1  0  0  0  0
 10 66  1  0  0  0  0
 11 36  1  0  0  0  0
 11 67  1  0  0  0  0
 12 16  1  0  0  0  0
 12 25  1  0  0  0  0
 12 49  1  0  0  0  0
 13 14  1  0  0  0  0
 13 15  1  0  0  0  0
 13 20  1  0  0  0  0
 13 38  1  0  0  0  0
 14 17  1  0  0  0  0
 14 27  1  0  0  0  0
 14 39  1  0  0  0  0
 15 16  1  0  0  0  0
 15 40  1  0  0  0  0
 15 41  1  0  0  0  0
 16 22  1  0  0  0  0
 16 42  1  0  0  0  0
 17 43  1  0  0  0  0
 18 19  1  0  0  0  0
 18 44  1  0  0  0  0
 19 21  1  0  0  0  0
 19 45  1  0  0  0  0
 20 29  2  0  0  0  0
 20 32  1  0  0  0  0
 21 23  1  0  0  0  0
 21 46  1  0  0  0  0
 22 26  1  0  0  0  0
 22 31  2  0  0  0  0
 23 24  1  0  0  0  0
 23 47  1  0  0  0  0
 24 30  1  0  0  0  0
 24 48  1  0  0  0  0
 25 28  1  0  0  0  0
 25 50  1  0  0  0  0
 25 51  1  0  0  0  0
 26 28  1  0  0  0  0
 26 33  2  0  0  0  0
 27 35  2  0  0  0  0
 27 52  1  0  0  0  0
 28 53  1  0  0  0  0
 28 54  1  0  0  0  0
 29 55  1  0  0  0  0
 30 56  1  0  0  0  0
 30 57  1  0  0  0  0
 31 34  1  0  0  0  0
 31 58  1  0  0  0  0
 33 36  1  0  0  0  0
 33 59  1  0  0  0  0
 34 36  2  0  0  0  0
 35 63  1  0  0  0  0
 35 64  1  0  0  0  0
 37 68  1  0  0  0  0
 37 69  1  0  0  0  0
 37 70  1  0  0  0  0
M  END
> <PUBCHEM_COMPOUND_CID>
441259

> <PUBCHEM_CONFORMER_RMSD>
1.2

> <PUBCHEM_CONFORMER_DIVERSEORDER>
1
15
21
3
8
9
6
11
24
17
23
20
14
5
28
12
29
16
2
18
27
22
19
26
25
10
7
13
4

> <PUBCHEM_MMFF94_PARTIAL_CHARGES>
49
1 -0.56
10 -0.53
11 -0.53
12 -0.9
13 0.14
14 0.14
16 0.41
17 0.56
18 0.56
19 0.28
2 -0.56
20 -0.12
21 0.28
22 -0.14
23 0.28
24 0.28
25 0.27
26 -0.14
27 -0.29
28 0.14
29 -0.07
3 -0.36
30 0.28
31 -0.15
32 0.71
33 -0.15
34 0.08
35 -0.3
36 0.08
37 0.28
4 -0.68
49 0.36
5 -0.68
52 0.15
55 0.15
58 0.15
59 0.15
6 -0.68
60 0.4
61 0.4
62 0.4
63 0.15
64 0.15
65 0.4
66 0.45
67 0.45
7 -0.43
8 -0.68
9 -0.57

> <PUBCHEM_EFFECTIVE_ROTOR_COUNT>
10.8

> <PUBCHEM_PHARMACOPHORE_FEATURES>
21
1 1 acceptor
1 10 donor
1 11 donor
1 12 cation
1 12 donor
1 2 acceptor
1 3 acceptor
1 35 hydrophobe
1 4 acceptor
1 4 donor
1 5 acceptor
1 5 donor
1 6 acceptor
1 6 donor
1 8 acceptor
1 8 donor
1 9 acceptor
6 12 16 22 25 26 28 rings
6 2 18 19 21 23 24 rings
6 22 26 31 33 34 36 rings
6 3 13 14 17 20 29 rings

> <PUBCHEM_HEAVY_ATOM_COUNT>
37

> <PUBCHEM_ATOM_DEF_STEREO_COUNT>
9

> <PUBCHEM_ATOM_UDEF_STEREO_COUNT>
0

> <PUBCHEM_BOND_DEF_STEREO_COUNT>
0

> <PUBCHEM_BOND_UDEF_STEREO_COUNT>
0

> <PUBCHEM_ISOTOPIC_ATOM_COUNT>
0

> <PUBCHEM_COMPONENT_COUNT>
1

> <PUBCHEM_CACTVS_TAUTO_COUNT>
18

> <PUBCHEM_CONFORMER_ID>
0006BBAB00000001

> <PUBCHEM_MMFF94_ENERGY>
99.4503

> <PUBCHEM_FEATURE_SELFOVERLAP>
106.688

> <PUBCHEM_SHAPE_FINGERPRINT>
10 15 15123791785923936829
10165383 225 17775283872548220365
10319926 262 13685753786667240929
10369192 42 17418372510972890623
105312 117 17847059960991259334
10670039 82 17531249521948845617
10674148 151 18113339738561106224
11007060 377 18335984169291715691
11578080 2 17058072313196489092
117089 54 17245849039323872583
11991303 11 17131823253197459027
13636023 51 15647919036067121209
13782708 43 14996867424321737797
14294032 229 16845287203068232859
14340393 91 17385719248652773880
14400156 260 18263086685762473289
15082195 135 17676770873363643216
15183329 4 17675925425956331733
15276724 80 18261391208240228253
15775530 1 17763468309594720569
16993438 75 18118967992761526310
18222031 100 6194840393054725864
19319366 153 18340496668017925123
20505436 4 18335708273884100703
21223535 225 18341333391781948164
21424621 283 18343021103227581473
23559900 14 16154007759180825713
244849 19 17897734149649104234
27425 322 18410860932222472021
3004659 81 17603304886375910102
38570 142 18410292536567023595
392239 28 13039184844825766397
4015057 19 17967807194509236328
4098825 35 17894913992813427781
6669772 16 17775286105647235674

> <PUBCHEM_SHAPE_MULTIPOLES>
691.9
18.37
3.68
2.71
4.79
3.1
0.48
-14.15
11.19
-0.27
-3.02
-0.24
1.74
0.47

> <PUBCHEM_SHAPE_SELFOVERLAP>
1468.213

> <PUBCHEM_SHAPE_VOLUME>
378.8

> <PUBCHEM_COORDINATE_TYPE>
2
5
10

$$$$

