439208
  -OEChem-07051212442D

  6  5  0     1  0  0  0  0  0999 V2000
    2.8660    0.0000    0.0000 S   0  0  3  0  0  0  0  0  0  0  0  0
    2.3660    0.8660    0.0000 S   0  0  0  0  0  0  0  0  0  0  0  0
    3.7320    0.5000    0.0000 O   0  0  0  0  0  0  0  0  0  0  0  0
    2.0000   -0.5000    0.0000 O   0  5  0  0  0  0  0  0  0  0  0  0
    3.3660   -0.8660    0.0000 O   0  0  0  0  0  0  0  0  0  0  0  0
    4.2690    0.1900    0.0000 H   0  0  0  0  0  0  0  0  0  0  0  0
  1  2  2  0  0  0  0
  1  3  1  0  0  0  0
  1  4  1  0  0  0  0
  1  5  2  0  0  0  0
  3  6  1  0  0  0  0
M  CHG  1   4  -1
M  END
> <PUBCHEM_COMPOUND_CID>
439208

> <PUBCHEM_COMPOUND_CANONICALIZED>
1

> <PUBCHEM_CACTVS_COMPLEXITY>
95

> <PUBCHEM_CACTVS_HBOND_ACCEPTOR>
4

> <PUBCHEM_CACTVS_HBOND_DONOR>
1

> <PUBCHEM_CACTVS_ROTATABLE_BOND>
0

> <PUBCHEM_CACTVS_SUBSKEYS>
AAADcQAAMABgAAAAAAAAAAAAAAAAAAAAAAAAAAAAAAAAAAAAAAAAAAAACAAAAAAAAAAAAAAAAIAAAAAAACAAAAAAAAAAAAAAAAAAAAAAAAAAAAAAAAAAAAAAAAAAAAAAAAAAAAAAAAAAAAAAAAAAAAAAAA==

> <PUBCHEM_IUPAC_OPENEYE_NAME>
hydroxy-oxido-oxo-thioxo-$l^{6}-sulfane

> <PUBCHEM_IUPAC_CAS_NAME>
hydroxy-oxido-oxo-sulfanylidene-$l^{6}-sulfane

> <PUBCHEM_IUPAC_NAME>
hydroxy-oxido-oxo-sulfanylidene-$l^{6}-sulfane

> <PUBCHEM_IUPAC_SYSTEMATIC_NAME>
oxidanidyl-oxidanyl-oxidanylidene-sulfanylidene-$l^{6}-sulfane

> <PUBCHEM_IUPAC_TRADITIONAL_NAME>
hydroxy-keto-oxido-thioxo-$l^{6}-sulfane

> <PUBCHEM_IUPAC_INCHI>
InChI=1S/H2O3S2/c1-5(2,3)4/h(H2,1,2,3,4)/p-1

> <PUBCHEM_IUPAC_INCHIKEY>
DHCDFWKWKRSZHF-UHFFFAOYSA-M

> <PUBCHEM_XLOGP3_AA>
0.3

> <PUBCHEM_EXACT_MASS>
112.936711

> <PUBCHEM_MOLECULAR_FORMULA>
HO3S2-

> <PUBCHEM_MOLECULAR_WEIGHT>
113.13614

> <PUBCHEM_OPENEYE_CAN_SMILES>
OS(=O)(=S)[O-]

> <PUBCHEM_OPENEYE_ISO_SMILES>
OS(=O)(=S)[O-]

> <PUBCHEM_CACTVS_TPSA>
101

> <PUBCHEM_MONOISOTOPIC_WEIGHT>
112.936711

> <PUBCHEM_TOTAL_CHARGE>
-1

> <PUBCHEM_HEAVY_ATOM_COUNT>
5

> <PUBCHEM_ATOM_DEF_STEREO_COUNT>
0

> <PUBCHEM_ATOM_UDEF_STEREO_COUNT>
0

> <PUBCHEM_BOND_DEF_STEREO_COUNT>
0

> <PUBCHEM_BOND_UDEF_STEREO_COUNT>
0

> <PUBCHEM_ISOTOPIC_ATOM_COUNT>
0

> <PUBCHEM_COMPONENT_COUNT>
1

> <PUBCHEM_CACTVS_TAUTO_COUNT>
1

> <PUBCHEM_COORDINATE_TYPE>
1
5
255

$$$$

