442189
  -OEChem-07051212572D

 38 42  0     1  0  0  0  0  0999 V2000
    4.0753   -3.4289    0.0000 O   0  0  0  0  0  0  0  0  0  0  0  0
    2.1028   -1.2422    0.0000 O   0  0  0  0  0  0  0  0  0  0  0  0
    5.4032   -1.9016    0.0000 O   0  0  0  0  0  0  0  0  0  0  0  0
    8.1156   -0.0446    0.0000 O   0  0  0  0  0  0  0  0  0  0  0  0
    8.3567   -1.8766    0.0000 O   0  0  0  0  0  0  0  0  0  0  0  0
    2.9128   -1.8286    0.0000 C   0  0  1  0  0  0  0  0  0  0  0  0
    3.5761   -1.0881    0.0000 C   0  0  1  0  0  0  0  0  0  0  0  0
    4.4896   -1.4949    0.0000 C   0  0  2  0  0  0  0  0  0  0  0  0
    3.4106   -2.6891    0.0000 C   0  0  1  0  0  0  0  0  0  0  0  0
    4.3832   -2.4832    0.0000 C   0  0  2  0  0  0  0  0  0  0  0  0
    6.0248   -0.2517    0.0000 C   0  0  2  0  0  0  0  0  0  0  0  0
    2.0000   -2.2369    0.0000 C   0  0  0  0  0  0  0  0  0  0  0  0
    3.6806   -0.0936    0.0000 C   0  0  0  0  0  0  0  0  0  0  0  0
    6.2836    0.7142    0.0000 C   0  0  1  0  0  0  0  0  0  0  0  0
    5.5470    1.6968    0.0000 C   0  0  1  0  0  0  0  0  0  0  0  0
    2.6625   -0.6814    0.0000 C   0  0  0  0  0  0  0  0  0  0  0  0
    7.8567   -1.0105    0.0000 C   0  0  0  0  0  0  0  0  0  0  0  0
    5.0470    2.5628    0.0000 C   0  0  0  0  0  0  0  0  0  0  0  0
    5.5470    3.4289    0.0000 C   0  0  0  0  0  0  0  0  0  0  0  0
    4.0470    2.5628    0.0000 C   0  0  0  0  0  0  0  0  0  0  0  0
    2.9090   -3.0534    0.0000 H   0  0  0  0  0  0  0  0  0  0  0  0
    4.9894   -2.6131    0.0000 H   0  0  0  0  0  0  0  0  0  0  0  0
    5.8048   -1.0728    0.0000 H   0  0  0  0  0  0  0  0  0  0  0  0
    1.3816   -2.2812    0.0000 H   0  0  0  0  0  0  0  0  0  0  0  0
    2.1510   -2.8382    0.0000 H   0  0  0  0  0  0  0  0  0  0  0  0
    3.5784    0.5179    0.0000 H   0  0  0  0  0  0  0  0  0  0  0  0
    3.0609   -0.1125    0.0000 H   0  0  0  0  0  0  0  0  0  0  0  0
    6.5036    1.5352    0.0000 H   0  0  0  0  0  0  0  0  0  0  0  0
    6.0644    2.0384    0.0000 H   0  0  0  0  0  0  0  0  0  0  0  0
    2.9147   -0.1150    0.0000 H   0  0  0  0  0  0  0  0  0  0  0  0
    2.0962   -0.4292    0.0000 H   0  0  0  0  0  0  0  0  0  0  0  0
    2.4104   -1.2478    0.0000 H   0  0  0  0  0  0  0  0  0  0  0  0
    5.4680   -2.5182    0.0000 H   0  0  0  0  0  0  0  0  0  0  0  0
    6.0839    3.1189    0.0000 H   0  0  0  0  0  0  0  0  0  0  0  0
    5.8570    3.9658    0.0000 H   0  0  0  0  0  0  0  0  0  0  0  0
    5.0101    3.7389    0.0000 H   0  0  0  0  0  0  0  0  0  0  0  0
    3.7370    3.0998    0.0000 H   0  0  0  0  0  0  0  0  0  0  0  0
    3.7370    2.0259    0.0000 H   0  0  0  0  0  0  0  0  0  0  0  0
  9  1  1  1  0  0  0
 10  1  1  1  0  0  0
  6  2  1  1  0  0  0
  2 12  1  0  0  0  0
  8  3  1  1  0  0  0
  3 33  1  0  0  0  0
  4 14  1  0  0  0  0
  4 17  1  0  0  0  0
  5 17  2  0  0  0  0
  6  7  1  0  0  0  0
  6  9  1  0  0  0  0
  6 12  1  0  0  0  0
  7  8  1  0  0  0  0
  7 13  1  0  0  0  0
  7 16  1  1  0  0  0
  8 10  1  0  0  0  0
  8 11  1  0  0  0  0
  9 10  1  0  0  0  0
  9 21  1  0  0  0  0
 10 22  1  0  0  0  0
 11 15  1  0  0  0  0
 11 17  1  0  0  0  0
 11 23  1  1  0  0  0
 12 24  1  0  0  0  0
 12 25  1  0  0  0  0
 13 14  1  0  0  0  0
 13 26  1  0  0  0  0
 13 27  1  0  0  0  0
 14 15  1  0  0  0  0
 14 28  1  6  0  0  0
 15 18  1  6  0  0  0
 15 29  1  0  0  0  0
 16 30  1  0  0  0  0
 16 31  1  0  0  0  0
 16 32  1  0  0  0  0
 18 19  1  0  0  0  0
 18 20  2  0  0  0  0
 19 34  1  0  0  0  0
 19 35  1  0  0  0  0
 19 36  1  0  0  0  0
 20 37  1  0  0  0  0
 20 38  1  0  0  0  0
M  END
> <PUBCHEM_COMPOUND_CID>
442189

> <PUBCHEM_COMPOUND_CANONICALIZED>
1

> <PUBCHEM_CACTVS_COMPLEXITY>
573

> <PUBCHEM_CACTVS_HBOND_ACCEPTOR>
5

> <PUBCHEM_CACTVS_HBOND_DONOR>
1

> <PUBCHEM_CACTVS_ROTATABLE_BOND>
1

> <PUBCHEM_CACTVS_SUBSKEYS>
AAADceBwOAAAAAAAAAAAAAAAEiQAAaIAAAA0QAAABIAAAGAAAAAAGgAACAAAD1SggAICCAAABgCIAgDSCAAAAAAgAAAAAAEAAAgBABYAAQACQAAF4AADAAHK7PzPgAAAAAAAAADCAAYAADAAAYQADCAAAA==

> <PUBCHEM_IUPAC_INCHI>
InChI=1S/C15H18O5/c1-6(2)8-7-4-13(3)14(5-18-14)10-11(20-10)15(13,17)9(8)12(16)19-7/h7-11,17H,1,4-5H2,2-3H3/t7-,8+,9+,10+,11-,13-,14+,15-/m0/s1

> <PUBCHEM_IUPAC_INCHIKEY>
BWWDLKVKPVKBGJ-TWMZOSGRSA-N

> <PUBCHEM_XLOGP3_AA>
0.5

> <PUBCHEM_EXACT_MASS>
278.115424

> <PUBCHEM_MOLECULAR_FORMULA>
C15H18O5

> <PUBCHEM_MOLECULAR_WEIGHT>
278.30042

> <PUBCHEM_OPENEYE_CAN_SMILES>
CC(=C)C1C2CC3(C4(CO4)C5C(C3(C1C(=O)O2)O)O5)C

> <PUBCHEM_OPENEYE_ISO_SMILES>
CC(=C)[C@@H]1[C@@H]2C[C@]3([C@@]4(CO4)[C@H]5[C@@H]([C@]3([C@H]1C(=O)O2)O)O5)C

> <PUBCHEM_CACTVS_TPSA>
71.6

> <PUBCHEM_MONOISOTOPIC_WEIGHT>
278.115424

> <PUBCHEM_TOTAL_CHARGE>
0

> <PUBCHEM_HEAVY_ATOM_COUNT>
20

> <PUBCHEM_ATOM_DEF_STEREO_COUNT>
8

> <PUBCHEM_ATOM_UDEF_STEREO_COUNT>
0

> <PUBCHEM_BOND_DEF_STEREO_COUNT>
0

> <PUBCHEM_BOND_UDEF_STEREO_COUNT>
0

> <PUBCHEM_ISOTOPIC_ATOM_COUNT>
0

> <PUBCHEM_COMPONENT_COUNT>
1

> <PUBCHEM_CACTVS_TAUTO_COUNT>
1

> <PUBCHEM_COORDINATE_TYPE>
1
5
255

> <PUBCHEM_BONDANNOTATIONS>
10  1  5
9  1  5
11  23  5
14  28  6
15  18  6
6  2  5
8  3  5
7  16  5

$$$$

