176448
  -OEChem-07051212542D

 19 20  0     1  0  0  0  0  0999 V2000
    4.9889    1.6913    0.0000 O   0  0  0  0  0  0  0  0  0  0  0  0
    4.9889   -1.8192    0.0000 O   0  0  0  0  0  0  0  0  0  0  0  0
    4.6783    0.7408    0.0000 C   0  0  3  0  0  0  0  0  0  0  0  0
    5.2619   -0.0639    0.0000 C   0  0  0  0  0  0  0  0  0  0  0  0
    3.7320    0.4361    0.0000 C   0  0  0  0  0  0  0  0  0  0  0  0
    3.7320   -0.5639    0.0000 C   0  0  0  0  0  0  0  0  0  0  0  0
    4.6783   -0.8687    0.0000 C   0  0  0  0  0  0  0  0  0  0  0  0
    2.8660    0.9361    0.0000 C   0  0  0  0  0  0  0  0  0  0  0  0
    2.8660   -1.0639    0.0000 C   0  0  0  0  0  0  0  0  0  0  0  0
    2.0000    0.4361    0.0000 C   0  0  0  0  0  0  0  0  0  0  0  0
    2.0000   -0.5639    0.0000 C   0  0  0  0  0  0  0  0  0  0  0  0
    5.2908    0.8370    0.0000 H   0  0  0  0  0  0  0  0  0  0  0  0
    5.7227   -0.4787    0.0000 H   0  0  0  0  0  0  0  0  0  0  0  0
    5.7227    0.3508    0.0000 H   0  0  0  0  0  0  0  0  0  0  0  0
    2.8660    1.5561    0.0000 H   0  0  0  0  0  0  0  0  0  0  0  0
    2.8660   -1.6839    0.0000 H   0  0  0  0  0  0  0  0  0  0  0  0
    1.4631    0.7461    0.0000 H   0  0  0  0  0  0  0  0  0  0  0  0
    1.4631   -0.8739    0.0000 H   0  0  0  0  0  0  0  0  0  0  0  0
    5.5956    1.8192    0.0000 H   0  0  0  0  0  0  0  0  0  0  0  0
  1  3  1  0  0  0  0
  1 19  1  0  0  0  0
  2  7  2  0  0  0  0
  3  4  1  0  0  0  0
  3  5  1  0  0  0  0
  3 12  1  0  0  0  0
  4  7  1  0  0  0  0
  4 13  1  0  0  0  0
  4 14  1  0  0  0  0
  5  6  1  0  0  0  0
  5  8  2  0  0  0  0
  6  7  1  0  0  0  0
  6  9  2  0  0  0  0
  8 10  1  0  0  0  0
  8 15  1  0  0  0  0
  9 11  1  0  0  0  0
  9 16  1  0  0  0  0
 10 11  2  0  0  0  0
 10 17  1  0  0  0  0
 11 18  1  0  0  0  0
M  END
> <PUBCHEM_COMPOUND_CID>
176448

> <PUBCHEM_COMPOUND_CANONICALIZED>
1

> <PUBCHEM_CACTVS_COMPLEXITY>
176

> <PUBCHEM_CACTVS_HBOND_ACCEPTOR>
2

> <PUBCHEM_CACTVS_HBOND_DONOR>
1

> <PUBCHEM_CACTVS_ROTATABLE_BOND>
0

> <PUBCHEM_CACTVS_SUBSKEYS>
AAADccBwMAAAAAAAAAAAAAAAAAAAAYAAAAAwAAAAAAAAAGABAAAAGgAACAAADBSgmAIwAIAAAgCIAqBSAAACAAAkAAAIiAEACMgINjaAFRCAcQAk4AEImYeKyKCOgAAAAAAQAAAAAAAAACAAAIAADAAAAA==

> <PUBCHEM_IUPAC_OPENEYE_NAME>
3-hydroxyindan-1-one

> <PUBCHEM_IUPAC_CAS_NAME>
3-hydroxy-2,3-dihydroinden-1-one

> <PUBCHEM_IUPAC_NAME>
3-hydroxy-2,3-dihydroinden-1-one

> <PUBCHEM_IUPAC_SYSTEMATIC_NAME>
3-oxidanyl-2,3-dihydroinden-1-one

> <PUBCHEM_IUPAC_TRADITIONAL_NAME>
3-hydroxyindan-1-one

> <PUBCHEM_IUPAC_INCHI>
InChI=1S/C9H8O2/c10-8-5-9(11)7-4-2-1-3-6(7)8/h1-4,8,10H,5H2

> <PUBCHEM_IUPAC_INCHIKEY>
UOBZGMJWBBQSLX-UHFFFAOYSA-N

> <PUBCHEM_XLOGP3_AA>
0.6

> <PUBCHEM_EXACT_MASS>
148.052429

> <PUBCHEM_MOLECULAR_FORMULA>
C9H8O2

> <PUBCHEM_MOLECULAR_WEIGHT>
148.15862

> <PUBCHEM_OPENEYE_CAN_SMILES>
C1C(C2=CC=CC=C2C1=O)O

> <PUBCHEM_OPENEYE_ISO_SMILES>
C1C(C2=CC=CC=C2C1=O)O

> <PUBCHEM_CACTVS_TPSA>
37.3

> <PUBCHEM_MONOISOTOPIC_WEIGHT>
148.052429

> <PUBCHEM_TOTAL_CHARGE>
0

> <PUBCHEM_HEAVY_ATOM_COUNT>
11

> <PUBCHEM_ATOM_DEF_STEREO_COUNT>
0

> <PUBCHEM_ATOM_UDEF_STEREO_COUNT>
1

> <PUBCHEM_BOND_DEF_STEREO_COUNT>
0

> <PUBCHEM_BOND_UDEF_STEREO_COUNT>
0

> <PUBCHEM_ISOTOPIC_ATOM_COUNT>
0

> <PUBCHEM_COMPONENT_COUNT>
1

> <PUBCHEM_CACTVS_TAUTO_COUNT>
2

> <PUBCHEM_COORDINATE_TYPE>
1
5
255

> <PUBCHEM_BONDANNOTATIONS>
3  1  3
10  11  8
5  6  8
5  8  8
6  9  8
8  10  8
9  11  8

$$$$

