2375
  -OEChem-07051212543D

 43 44  0     1  0  0  0  0  0999 V2000
    2.9018    0.9317   -0.6541 S   0  0  0  0  0  0  0  0  0  0  0  0
    6.4013   -3.7222    0.1278 F   0  0  0  0  0  0  0  0  0  0  0  0
   -3.7862   -2.2514    2.0527 F   0  0  0  0  0  0  0  0  0  0  0  0
   -5.7148   -1.4582    1.4377 F   0  0  0  0  0  0  0  0  0  0  0  0
   -4.6509   -2.8540    0.1439 F   0  0  0  0  0  0  0  0  0  0  0  0
    2.0920    3.6428    0.4784 O   0  0  0  0  0  0  0  0  0  0  0  0
    3.7389    2.0193   -1.1262 O   0  0  0  0  0  0  0  0  0  0  0  0
    1.7501    0.5027   -1.4266 O   0  0  0  0  0  0  0  0  0  0  0  0
   -0.1255    3.0255   -0.7792 O   0  0  0  0  0  0  0  0  0  0  0  0
   -0.6862    1.2873    0.6856 N   0  0  0  0  0  0  0  0  0  0  0  0
   -6.6067   -0.8544   -1.8183 N   0  0  0  0  0  0  0  0  0  0  0  0
    1.3938    2.5236    1.0242 C   0  0  1  0  0  0  0  0  0  0  0  0
    2.3391    1.3195    0.9775 C   0  0  0  0  0  0  0  0  0  0  0  0
    1.0476    2.8679    2.4767 C   0  0  0  0  0  0  0  0  0  0  0  0
    0.1103    2.3173    0.1976 C   0  0  0  0  0  0  0  0  0  0  0  0
    3.9545   -0.4682   -0.4185 C   0  0  0  0  0  0  0  0  0  0  0  0
   -1.9244    0.8334    0.1710 C   0  0  0  0  0  0  0  0  0  0  0  0
    3.4116   -1.7400   -0.4793 C   0  0  0  0  0  0  0  0  0  0  0  0
    5.3027   -0.2673   -0.1776 C   0  0  0  0  0  0  0  0  0  0  0  0
   -2.5755   -0.2156    0.7981 C   0  0  0  0  0  0  0  0  0  0  0  0
    4.2423   -2.8451   -0.2936 C   0  0  0  0  0  0  0  0  0  0  0  0
    6.1335   -1.3721    0.0081 C   0  0  0  0  0  0  0  0  0  0  0  0
   -2.4574    1.4483   -0.9496 C   0  0  0  0  0  0  0  0  0  0  0  0
   -3.7951   -0.6627    0.2899 C   0  0  0  0  0  0  0  0  0  0  0  0
    5.6033   -2.6610   -0.0498 C   0  0  0  0  0  0  0  0  0  0  0  0
   -4.3458   -0.0543   -0.8380 C   0  0  0  0  0  0  0  0  0  0  0  0
   -3.6771    1.0012   -1.4577 C   0  0  0  0  0  0  0  0  0  0  0  0
   -4.4827   -1.7977    0.9790 C   0  0  0  0  0  0  0  0  0  0  0  0
   -5.5947   -0.4963   -1.3796 C   0  0  0  0  0  0  0  0  0  0  0  0
    3.2421    1.5296    1.5632 H   0  0  0  0  0  0  0  0  0  0  0  0
    1.8635    0.4193    1.3801 H   0  0  0  0  0  0  0  0  0  0  0  0
    1.9405    3.1950    3.0220 H   0  0  0  0  0  0  0  0  0  0  0  0
    0.6085    2.0229    3.0159 H   0  0  0  0  0  0  0  0  0  0  0  0
    0.3356    3.7007    2.5164 H   0  0  0  0  0  0  0  0  0  0  0  0
   -0.3564    0.7817    1.5037 H   0  0  0  0  0  0  0  0  0  0  0  0
    2.2538    3.4790   -0.4655 H   0  0  0  0  0  0  0  0  0  0  0  0
    2.3536   -1.9028   -0.6607 H   0  0  0  0  0  0  0  0  0  0  0  0
    5.7328    0.7279   -0.1208 H   0  0  0  0  0  0  0  0  0  0  0  0
   -2.1341   -0.6803    1.6758 H   0  0  0  0  0  0  0  0  0  0  0  0
    3.8297   -3.8487   -0.3371 H   0  0  0  0  0  0  0  0  0  0  0  0
    7.1930   -1.2294    0.1996 H   0  0  0  0  0  0  0  0  0  0  0  0
   -2.0041    2.2678   -1.4865 H   0  0  0  0  0  0  0  0  0  0  0  0
   -4.0937    1.4853   -2.3382 H   0  0  0  0  0  0  0  0  0  0  0  0
  1  7  2  0  0  0  0
  1  8  2  0  0  0  0
  1 13  1  0  0  0  0
  1 16  1  0  0  0  0
  2 25  1  0  0  0  0
  3 28  1  0  0  0  0
  4 28  1  0  0  0  0
  5 28  1  0  0  0  0
  6 12  1  0  0  0  0
  6 36  1  0  0  0  0
  9 15  2  0  0  0  0
 10 15  1  0  0  0  0
 10 17  1  0  0  0  0
 10 35  1  0  0  0  0
 11 29  3  0  0  0  0
 12 13  1  0  0  0  0
 12 14  1  0  0  0  0
 12 15  1  0  0  0  0
 13 30  1  0  0  0  0
 13 31  1  0  0  0  0
 14 32  1  0  0  0  0
 14 33  1  0  0  0  0
 14 34  1  0  0  0  0
 16 18  2  0  0  0  0
 16 19  1  0  0  0  0
 17 20  2  0  0  0  0
 17 23  1  0  0  0  0
 18 21  1  0  0  0  0
 18 37  1  0  0  0  0
 19 22  2  0  0  0  0
 19 38  1  0  0  0  0
 20 24  1  0  0  0  0
 20 39  1  0  0  0  0
 21 25  2  0  0  0  0
 21 40  1  0  0  0  0
 22 25  1  0  0  0  0
 22 41  1  0  0  0  0
 23 27  2  0  0  0  0
 23 42  1  0  0  0  0
 24 26  2  0  0  0  0
 24 28  1  0  0  0  0
 26 27  1  0  0  0  0
 26 29  1  0  0  0  0
 27 43  1  0  0  0  0
M  END
> <PUBCHEM_COMPOUND_CID>
2375

> <PUBCHEM_CONFORMER_RMSD>
0.8

> <PUBCHEM_CONFORMER_DIVERSEORDER>
1
100
145
14
90
147
89
117
58
101
157
33
87
13
103
73
150
83
136
16
53
118
134
121
153
109
71
62
152
55
131
38
115
67
12
124
128
151
155
81
69
37
63
93
56
111
21
59
122
125
102
95
137
120
149
140
88
91
57
112
49
158
36
85
72
154
30
24
129
113
34
74
110
66
116
35
146
108
84
31
4
98
41
142
127
17
68
123
22
130
44
138
104
92
143
29
45
18
60
135
52
105
10
86
19
97
15
50
25
133
32
126
119
107
82
20
106
75
99
11
70
77
51
54
144
27
46
64
39
80
132
23
43
148
3
48
78
5
76
7
94
47
6
141
79
42
40
65
26
8
96
2
114
159
139
28
156
9
61

> <PUBCHEM_MMFF94_PARTIAL_CHARGES>
37
1 1.2
10 -0.55
11 -0.56
12 0.34
13 0.11
15 0.57
16 -0.01
17 0.12
18 -0.15
19 -0.15
2 -0.19
20 -0.15
21 -0.15
22 -0.15
23 -0.15
24 -0.14
25 0.19
26 0.07
27 -0.15
28 1.16
29 0.48
3 -0.34
35 0.37
36 0.4
37 0.15
38 0.15
39 0.15
4 -0.34
40 0.15
41 0.15
42 0.15
43 0.15
5 -0.34
6 -0.68
7 -0.65
8 -0.65
9 -0.57

> <PUBCHEM_EFFECTIVE_ROTOR_COUNT>
7

> <PUBCHEM_PHARMACOPHORE_FEATURES>
9
1 10 donor
1 11 acceptor
1 6 acceptor
1 6 donor
1 7 acceptor
1 8 acceptor
1 9 acceptor
6 16 18 19 21 22 25 rings
6 17 20 23 24 26 27 rings

> <PUBCHEM_HEAVY_ATOM_COUNT>
29

> <PUBCHEM_ATOM_DEF_STEREO_COUNT>
0

> <PUBCHEM_ATOM_UDEF_STEREO_COUNT>
1

> <PUBCHEM_BOND_DEF_STEREO_COUNT>
0

> <PUBCHEM_BOND_UDEF_STEREO_COUNT>
0

> <PUBCHEM_ISOTOPIC_ATOM_COUNT>
0

> <PUBCHEM_COMPONENT_COUNT>
1

> <PUBCHEM_CACTVS_TAUTO_COUNT>
2

> <PUBCHEM_CONFORMER_ID>
0000094700000001

> <PUBCHEM_MMFF94_ENERGY>
57.5294

> <PUBCHEM_FEATURE_SELFOVERLAP>
45.701

> <PUBCHEM_SHAPE_FINGERPRINT>
11135609 201 10087628304445954503
11204353 107 18193552260699421198
11796584 16 18130796702002906968
12107183 9 18189033426717291145
12633257 1 17313098618677123965
12760667 363 18335983155426193387
13402501 40 18413386527348156835
13533116 47 17968664792225448673
13631057 29 18263926721594119738
13782708 43 18340485578407091815
13955234 65 18044658590214281976
14251751 18 18272928332305267390
14848178 5 18339644542232081938
14866123 147 18192708071702275345
14910302 57 18130238085777054173
14950920 106 17750502993545519491
15019793 15 17976261240331316759
15183329 4 17132120181745490038
15352361 1 18410291449782126494
15510800 12 18340495538346561370
15728490 83 18052525862140878426
17492 89 18045499983556495926
18393751 57 7853563643703530717
19315092 285 17459195079841373835
19319366 153 18118682111517128260
20567600 70 18411136940117550546
21033650 10 16773802544972892605
21307412 95 18272375278563274719
21315764 119 17846784039712698511
21344244 78 15502660369041619785
22393880 68 17704078416563365054
23559900 14 18131072593632928837
23569943 247 18335708269552690503
23572383 38 18343020004085290322
244849 19 18192181301957672276
25025965 108 17900002691631665366
25122255 55 18412821408483633062
2838139 119 13686299075947074486
3004659 81 18131073744626057196
314194 84 18260267425909595348
32027 91 18410017611104482395
329604 57 18412539938365937190
3421961 26 18335419019983171192
345986 75 17531236266635005984
439807 62 18273206504478572563
46194498 28 17846500301304508516
463206 1 18334859415735556638
5104073 3 18040147431285857904
5486654 36 18334849571617682657
6431902 208 18337109072608331502
6608658 132 15195019292376061199
6669772 16 18045788888700080016
7970288 3 18337953501881202306
9980921 52 17898581873991001663

> <PUBCHEM_SHAPE_MULTIPOLES>
538.12
15.69
4.05
1.59
1.29
0.4
-0.43
-17
2.65
-4.09
-1.27
1.86
0.43
1.28

> <PUBCHEM_SHAPE_SELFOVERLAP>
1144.107

> <PUBCHEM_SHAPE_VOLUME>
302.2

> <PUBCHEM_COORDINATE_TYPE>
2
5
10

$$$$

