5281990
  -OEChem-07051213023D

 65 66  0     1  0  0  0  0  0999 V2000
   -5.4275    1.3033   -0.9144 P   0  0  2  0  0  0  0  0  0  0  0  0
   -6.8875   -0.0582    1.2463 P   0  0  0  0  0  0  0  0  0  0  0  0
   -3.9777    0.8300   -0.3817 O   0  0  0  0  0  0  0  0  0  0  0  0
   -6.4636    0.2333   -0.2856 O   0  0  0  0  0  0  0  0  0  0  0  0
   -5.4225    0.9332   -2.4892 O   0  0  0  0  0  0  0  0  0  0  0  0
   -5.7657    2.7353   -0.6162 O   0  0  0  0  0  0  0  0  0  0  0  0
   -7.6570    1.2938    1.6844 O   0  0  0  0  0  0  0  0  0  0  0  0
   -8.0788   -1.1403    1.0976 O   0  0  0  0  0  0  0  0  0  0  0  0
   -5.7563   -0.4711    2.1411 O   0  0  0  0  0  0  0  0  0  0  0  0
    3.5906    0.2895   -0.3154 C   0  0  1  0  0  0  0  0  0  0  0  0
    4.8643    0.1612    0.6148 C   0  0  2  0  0  0  0  0  0  0  0  0
    5.9210    1.3214    0.5347 C   0  0  0  0  0  0  0  0  0  0  0  0
    2.5447   -0.7952    0.1817 C   0  0  2  0  0  0  0  0  0  0  0  0
    3.0005    1.7143   -0.1528 C   0  0  0  0  0  0  0  0  0  0  0  0
    5.4707   -1.2588    0.5380 C   0  0  0  0  0  0  0  0  0  0  0  0
    5.1962    2.6871    0.6181 C   0  0  0  0  0  0  0  0  0  0  0  0
    4.0253    2.8290   -0.3439 C   0  0  0  0  0  0  0  0  0  0  0  0
    3.8892    0.0506   -1.8176 C   0  0  0  0  0  0  0  0  0  0  0  0
    4.4438   -2.3312    0.9118 C   0  0  0  0  0  0  0  0  0  0  0  0
    3.1690   -2.1891    0.1181 C   0  0  0  0  0  0  0  0  0  0  0  0
    1.1573   -0.6928   -0.4760 C   0  0  0  0  0  0  0  0  0  0  0  0
    6.8284    1.2764   -0.7089 C   0  0  0  0  0  0  0  0  0  0  0  0
    6.8693    1.2481    1.7621 C   0  0  0  0  0  0  0  0  0  0  0  0
    0.1585   -1.6047    0.2254 C   0  0  0  0  0  0  0  0  0  0  0  0
    2.6831   -3.2328   -0.5736 C   0  0  0  0  0  0  0  0  0  0  0  0
   -1.2107   -1.5153   -0.4091 C   0  0  0  0  0  0  0  0  0  0  0  0
   -1.4411   -2.4428   -1.5735 C   0  0  0  0  0  0  0  0  0  0  0  0
   -2.1795   -0.6676   -0.0120 C   0  0  0  0  0  0  0  0  0  0  0  0
   -3.5439   -0.5065   -0.6043 C   0  0  0  0  0  0  0  0  0  0  0  0
    4.4655    0.2439    1.6403 H   0  0  0  0  0  0  0  0  0  0  0  0
    2.3732   -0.5942    1.2512 H   0  0  0  0  0  0  0  0  0  0  0  0
    2.5575    1.8158    0.8467 H   0  0  0  0  0  0  0  0  0  0  0  0
    2.1913    1.8830   -0.8729 H   0  0  0  0  0  0  0  0  0  0  0  0
    5.8659   -1.4605   -0.4634 H   0  0  0  0  0  0  0  0  0  0  0  0
    6.3143   -1.3588    1.2281 H   0  0  0  0  0  0  0  0  0  0  0  0
    4.8143    2.8337    1.6380 H   0  0  0  0  0  0  0  0  0  0  0  0
    5.9061    3.5053    0.4410 H   0  0  0  0  0  0  0  0  0  0  0  0
    4.3814    2.8570   -1.3785 H   0  0  0  0  0  0  0  0  0  0  0  0
    3.5356    3.7943   -0.1671 H   0  0  0  0  0  0  0  0  0  0  0  0
    4.3580   -0.9182   -2.0086 H   0  0  0  0  0  0  0  0  0  0  0  0
    4.5343    0.8127   -2.2505 H   0  0  0  0  0  0  0  0  0  0  0  0
    2.9693    0.0833   -2.4112 H   0  0  0  0  0  0  0  0  0  0  0  0
    4.8979   -3.3197    0.7731 H   0  0  0  0  0  0  0  0  0  0  0  0
    4.2020   -2.2482    1.9791 H   0  0  0  0  0  0  0  0  0  0  0  0
    1.2080   -0.9375   -1.5431 H   0  0  0  0  0  0  0  0  0  0  0  0
    0.7787    0.3327   -0.4103 H   0  0  0  0  0  0  0  0  0  0  0  0
    7.6311    2.0201   -0.6270 H   0  0  0  0  0  0  0  0  0  0  0  0
    6.3032    1.5080   -1.6342 H   0  0  0  0  0  0  0  0  0  0  0  0
    7.3118    0.3016   -0.8252 H   0  0  0  0  0  0  0  0  0  0  0  0
    7.5309    0.3773    1.7180 H   0  0  0  0  0  0  0  0  0  0  0  0
    6.3057    1.1972    2.7005 H   0  0  0  0  0  0  0  0  0  0  0  0
    7.5124    2.1348    1.8153 H   0  0  0  0  0  0  0  0  0  0  0  0
    0.4373   -2.6561    0.2974 H   0  0  0  0  0  0  0  0  0  0  0  0
    0.0739   -1.2759    1.2713 H   0  0  0  0  0  0  0  0  0  0  0  0
    1.8177   -3.1778   -1.2209 H   0  0  0  0  0  0  0  0  0  0  0  0
    3.1948   -4.1907   -0.5584 H   0  0  0  0  0  0  0  0  0  0  0  0
   -1.1068   -3.4546   -1.3177 H   0  0  0  0  0  0  0  0  0  0  0  0
   -0.8690   -2.1059   -2.4439 H   0  0  0  0  0  0  0  0  0  0  0  0
   -2.4886   -2.5376   -1.8693 H   0  0  0  0  0  0  0  0  0  0  0  0
   -1.9641   -0.0328    0.8467 H   0  0  0  0  0  0  0  0  0  0  0  0
   -3.5459   -0.6858   -1.6820 H   0  0  0  0  0  0  0  0  0  0  0  0
   -4.2395   -1.1943   -0.1160 H   0  0  0  0  0  0  0  0  0  0  0  0
   -4.9701    1.5363   -3.1166 H   0  0  0  0  0  0  0  0  0  0  0  0
   -7.9475    1.3944    2.6160 H   0  0  0  0  0  0  0  0  0  0  0  0
   -8.4545   -1.5473    1.9072 H   0  0  0  0  0  0  0  0  0  0  0  0
  1  3  1  0  0  0  0
  1  4  1  0  0  0  0
  1  5  1  0  0  0  0
  1  6  2  0  0  0  0
  2  4  1  0  0  0  0
  2  7  1  0  0  0  0
  2  8  1  0  0  0  0
  2  9  2  0  0  0  0
  3 29  1  0  0  0  0
  5 63  1  0  0  0  0
  7 64  1  0  0  0  0
  8 65  1  0  0  0  0
 10 11  1  0  0  0  0
 10 13  1  0  0  0  0
 10 14  1  0  0  0  0
 10 18  1  0  0  0  0
 11 12  1  0  0  0  0
 11 15  1  0  0  0  0
 11 30  1  0  0  0  0
 12 16  1  0  0  0  0
 12 22  1  0  0  0  0
 12 23  1  0  0  0  0
 13 20  1  0  0  0  0
 13 21  1  0  0  0  0
 13 31  1  0  0  0  0
 14 17  1  0  0  0  0
 14 32  1  0  0  0  0
 14 33  1  0  0  0  0
 15 19  1  0  0  0  0
 15 34  1  0  0  0  0
 15 35  1  0  0  0  0
 16 17  1  0  0  0  0
 16 36  1  0  0  0  0
 16 37  1  0  0  0  0
 17 38  1  0  0  0  0
 17 39  1  0  0  0  0
 18 40  1  0  0  0  0
 18 41  1  0  0  0  0
 18 42  1  0  0  0  0
 19 20  1  0  0  0  0
 19 43  1  0  0  0  0
 19 44  1  0  0  0  0
 20 25  2  0  0  0  0
 21 24  1  0  0  0  0
 21 45  1  0  0  0  0
 21 46  1  0  0  0  0
 22 47  1  0  0  0  0
 22 48  1  0  0  0  0
 22 49  1  0  0  0  0
 23 50  1  0  0  0  0
 23 51  1  0  0  0  0
 23 52  1  0  0  0  0
 24 26  1  0  0  0  0
 24 53  1  0  0  0  0
 24 54  1  0  0  0  0
 25 55  1  0  0  0  0
 25 56  1  0  0  0  0
 26 27  1  0  0  0  0
 26 28  2  0  0  0  0
 27 57  1  0  0  0  0
 27 58  1  0  0  0  0
 27 59  1  0  0  0  0
 28 29  1  0  0  0  0
 28 60  1  0  0  0  0
 29 61  1  0  0  0  0
 29 62  1  0  0  0  0
M  END
> <PUBCHEM_COMPOUND_CID>
5281990

> <PUBCHEM_CONFORMER_RMSD>
1

> <PUBCHEM_CONFORMER_DIVERSEORDER>
1
10
92
123
129
164
121
167
47
37
51
166
55
48
13
127
91
133
22
63
143
7
83
158
29
40
160
46
49
102
75
5
107
94
101
64
163
66
70
59
106
52
120
14
89
16
151
132
60
73
81
155
165
88
39
26
42
56
169
15
135
82
139
134
33
99
6
24
162
8
113
98
53
90
100
74
9
2
43
128
137
18
111
3
159
11
68
77
117
156
12
161
103
4
34
19
71
65
95
36
125
32
124
147
104
126
84
25
140
72
149
28
57
153
23
157
114
54
80
119
130
31
67
27
45
50
116
131
85
152
168
78
118
87
17
44
112
109
150
96
142
69
138
62
86
122
146
110
41
141
97
115
20
154
93
61
21
35
58
79
30
38
136
105
108
76
148
144
145

> <PUBCHEM_MMFF94_PARTIAL_CHARGES>
24
1 1.51
13 0.14
19 0.14
2 1.51
20 -0.28
24 0.14
25 -0.3
26 -0.28
27 0.14
28 -0.29
29 0.42
3 -0.55
4 -0.54
5 -0.77
55 0.15
56 0.15
6 -0.7
60 0.15
63 0.5
64 0.5
65 0.5
7 -0.77
8 -0.77
9 -0.7

> <PUBCHEM_EFFECTIVE_ROTOR_COUNT>
9.4

> <PUBCHEM_PHARMACOPHORE_FEATURES>
10
1 27 hydrophobe
1 5 acceptor
1 6 acceptor
1 7 acceptor
1 8 acceptor
1 9 acceptor
3 12 22 23 hydrophobe
4 2 7 8 9 anion
6 10 11 12 14 16 17 rings
6 10 11 13 15 19 20 rings

> <PUBCHEM_HEAVY_ATOM_COUNT>
29

> <PUBCHEM_ATOM_DEF_STEREO_COUNT>
3

> <PUBCHEM_ATOM_UDEF_STEREO_COUNT>
0

> <PUBCHEM_BOND_DEF_STEREO_COUNT>
1

> <PUBCHEM_BOND_UDEF_STEREO_COUNT>
0

> <PUBCHEM_ISOTOPIC_ATOM_COUNT>
0

> <PUBCHEM_COMPONENT_COUNT>
1

> <PUBCHEM_CACTVS_TAUTO_COUNT>
1

> <PUBCHEM_CONFORMER_ID>
005098C600000001

> <PUBCHEM_MMFF94_ENERGY>
25.4323

> <PUBCHEM_FEATURE_SELFOVERLAP>
50.804

> <PUBCHEM_SHAPE_FINGERPRINT>
10 15 17917429800274261985
10411042 1 17905612456518834482
11456790 92 18200607977206663896
11796584 16 6555403202818299557
12788726 201 17313383460850321968
13692114 37 16845569782147172835
13782708 43 14117804621585647299
14251764 75 18262796246803451244
14294032 229 18263362478122943110
14461889 52 17918269831643177043
15183329 4 18260272945069463725
15475509 35 16629975442297720114
15519825 34 16845004607769560515
1577012 14 17894916230565352319
16760501 71 18412544297330357701
20157964 124 18408325501364001710
20281389 69 18412826893436015855
20511986 3 18042423373642988834
20715895 44 18408893927854178760
21033648 29 16988009426471471455
21033650 10 14996549708010459299
21298829 104 18335712607126306832
23081809 10 17386016095781348559
2838139 119 18336274508722443621
397830 11 18131064923053621987
4073 2 17989485195410955674
4093350 32 17458340862485930124
465052 167 10952046792846128154
5104073 3 18059859510440134171

> <PUBCHEM_SHAPE_MULTIPOLES>
563.42
23.04
3.12
1.58
36.1
0.25
-0.05
-11.86
7.82
-3.06
-0.34
1.84
-0.15
0.65

> <PUBCHEM_SHAPE_SELFOVERLAP>
1104.65

> <PUBCHEM_SHAPE_VOLUME>
340.8

> <PUBCHEM_COORDINATE_TYPE>
2
5
10

$$$$

