46173976
  -OEChem-07051213103D

 71 75  0     1  0  0  0  0  0999 V2000
   -6.1239   -1.5191   -1.1870 O   0  0  0  0  0  0  0  0  0  0  0  0
    1.9189   -1.1408    1.5982 O   0  0  0  0  0  0  0  0  0  0  0  0
   -6.7677   -0.4084    0.7112 O   0  0  0  0  0  0  0  0  0  0  0  0
   -0.3676   -0.6458    3.2480 O   0  0  0  0  0  0  0  0  0  0  0  0
    1.5796   -3.1847   -2.7281 O   0  0  0  0  0  0  0  0  0  0  0  0
    5.1182    2.1854   -0.8862 O   0  0  0  0  0  0  0  0  0  0  0  0
    0.0708    2.7317   -1.5156 O   0  0  0  0  0  0  0  0  0  0  0  0
    7.5549    1.0144   -0.2408 O   0  0  0  0  0  0  0  0  0  0  0  0
    0.1471    4.0925    0.9068 O   0  0  0  0  0  0  0  0  0  0  0  0
   -3.8188   -1.0943   -1.1237 C   0  0  1  0  0  0  0  0  0  0  0  0
   -4.5115   -0.1457   -0.1513 C   0  0  1  0  0  0  0  0  0  0  0  0
   -3.2026   -2.2885   -0.3895 C   0  0  0  0  0  0  0  0  0  0  0  0
    1.8793   -1.9757   -0.6888 C   0  0  1  0  0  0  0  0  0  0  0  0
   -4.9589   -1.5376   -2.0191 C   0  0  0  0  0  0  0  0  0  0  0  0
    0.5245   -1.9066   -0.0772 C   0  0  0  0  0  0  0  0  0  0  0  0
    2.7260   -1.8236    0.5975 C   0  0  1  0  0  0  0  0  0  0  0  0
   -1.8515   -1.9783    0.1634 C   0  0  0  0  0  0  0  0  0  0  0  0
   -4.5255    1.2974   -0.6355 C   0  0  0  0  0  0  0  0  0  0  0  0
   -5.9183   -0.6869   -0.1217 C   0  0  0  0  0  0  0  0  0  0  0  0
    0.6277   -1.3951    1.2092 C   0  0  0  0  0  0  0  0  0  0  0  0
   -0.7151   -2.1997   -0.6196 C   0  0  0  0  0  0  0  0  0  0  0  0
   -1.7358   -1.4580    1.4625 C   0  0  0  0  0  0  0  0  0  0  0  0
    2.1831   -3.2590   -1.4478 C   0  0  0  0  0  0  0  0  0  0  0  0
   -0.4824   -1.1552    1.9961 C   0  0  0  0  0  0  0  0  0  0  0  0
    4.0131   -1.0640    0.3718 C   0  0  0  0  0  0  0  0  0  0  0  0
   -3.2793    2.0402   -0.2272 C   0  0  0  0  0  0  0  0  0  0  0  0
    3.9780    0.2249   -0.1605 C   0  0  0  0  0  0  0  0  0  0  0  0
    5.2358   -1.6514    0.6966 C   0  0  0  0  0  0  0  0  0  0  0  0
   -2.1640    2.0446   -1.0649 C   0  0  0  0  0  0  0  0  0  0  0  0
   -3.2415    2.7238    0.9881 C   0  0  0  0  0  0  0  0  0  0  0  0
    5.1658    0.9264   -0.3679 C   0  0  0  0  0  0  0  0  0  0  0  0
    6.4235   -0.9499    0.4890 C   0  0  0  0  0  0  0  0  0  0  0  0
   -1.0109    2.7329   -0.6875 C   0  0  0  0  0  0  0  0  0  0  0  0
   -2.0883    3.4119    1.3655 C   0  0  0  0  0  0  0  0  0  0  0  0
    6.3885    0.3390   -0.0431 C   0  0  0  0  0  0  0  0  0  0  0  0
   -0.9731    3.4165    0.5277 C   0  0  0  0  0  0  0  0  0  0  0  0
   -1.5759   -0.4342    3.9811 C   0  0  0  0  0  0  0  0  0  0  0  0
    3.8282    2.7123   -1.1907 C   0  0  0  0  0  0  0  0  0  0  0  0
   -0.0505    2.0086   -2.7390 C   0  0  0  0  0  0  0  0  0  0  0  0
   -3.0449   -0.6162   -1.7321 H   0  0  0  0  0  0  0  0  0  0  0  0
   -4.1159   -0.2116    0.8644 H   0  0  0  0  0  0  0  0  0  0  0  0
   -3.0979   -3.1366   -1.0800 H   0  0  0  0  0  0  0  0  0  0  0  0
   -3.8627   -2.6570    0.4070 H   0  0  0  0  0  0  0  0  0  0  0  0
    1.9700   -1.1152   -1.3630 H   0  0  0  0  0  0  0  0  0  0  0  0
   -5.1247   -0.8399   -2.8474 H   0  0  0  0  0  0  0  0  0  0  0  0
   -4.8253   -2.5400   -2.4361 H   0  0  0  0  0  0  0  0  0  0  0  0
    2.9519   -2.8141    1.0200 H   0  0  0  0  0  0  0  0  0  0  0  0
   -4.6551    1.3582   -1.7241 H   0  0  0  0  0  0  0  0  0  0  0  0
   -5.3938    1.8304   -0.2239 H   0  0  0  0  0  0  0  0  0  0  0  0
   -0.8039   -2.5785   -1.6322 H   0  0  0  0  0  0  0  0  0  0  0  0
   -2.6515   -1.3291    2.0286 H   0  0  0  0  0  0  0  0  0  0  0  0
    3.2618   -3.3709   -1.5980 H   0  0  0  0  0  0  0  0  0  0  0  0
    1.8048   -4.1458   -0.9279 H   0  0  0  0  0  0  0  0  0  0  0  0
    3.0017    0.6443   -0.3768 H   0  0  0  0  0  0  0  0  0  0  0  0
    5.2791   -2.6547    1.1116 H   0  0  0  0  0  0  0  0  0  0  0  0
   -2.2531    1.5097   -2.0035 H   0  0  0  0  0  0  0  0  0  0  0  0
   -4.1028    2.7251    1.6508 H   0  0  0  0  0  0  0  0  0  0  0  0
    1.7922   -4.0114   -3.1936 H   0  0  0  0  0  0  0  0  0  0  0  0
    7.3691   -1.4195    0.7463 H   0  0  0  0  0  0  0  0  0  0  0  0
   -2.0720    3.9391    2.3156 H   0  0  0  0  0  0  0  0  0  0  0  0
   -2.2210    0.3007    3.4874 H   0  0  0  0  0  0  0  0  0  0  0  0
   -2.0962   -1.3779    4.1762 H   0  0  0  0  0  0  0  0  0  0  0  0
   -1.2954   -0.0144    4.9525 H   0  0  0  0  0  0  0  0  0  0  0  0
    8.2975    0.4529    0.0407 H   0  0  0  0  0  0  0  0  0  0  0  0
   -0.0090    4.5026    1.7748 H   0  0  0  0  0  0  0  0  0  0  0  0
    3.3264    2.1275   -1.9692 H   0  0  0  0  0  0  0  0  0  0  0  0
    3.2138    2.8239   -0.2906 H   0  0  0  0  0  0  0  0  0  0  0  0
    3.9787    3.7177   -1.5977 H   0  0  0  0  0  0  0  0  0  0  0  0
   -0.1993    0.9377   -2.5616 H   0  0  0  0  0  0  0  0  0  0  0  0
   -0.8226    2.4370   -3.3871 H   0  0  0  0  0  0  0  0  0  0  0  0
    0.9018    2.1118   -3.2695 H   0  0  0  0  0  0  0  0  0  0  0  0
  1 14  1  0  0  0  0
  1 19  1  0  0  0  0
  2 16  1  0  0  0  0
  2 20  1  0  0  0  0
  3 19  2  0  0  0  0
  4 24  1  0  0  0  0
  4 37  1  0  0  0  0
  5 23  1  0  0  0  0
  5 58  1  0  0  0  0
  6 31  1  0  0  0  0
  6 38  1  0  0  0  0
  7 33  1  0  0  0  0
  7 39  1  0  0  0  0
  8 35  1  0  0  0  0
  8 64  1  0  0  0  0
  9 36  1  0  0  0  0
  9 65  1  0  0  0  0
 10 11  1  0  0  0  0
 10 12  1  0  0  0  0
 10 14  1  0  0  0  0
 10 40  1  0  0  0  0
 11 18  1  0  0  0  0
 11 19  1  0  0  0  0
 11 41  1  0  0  0  0
 12 17  1  0  0  0  0
 12 42  1  0  0  0  0
 12 43  1  0  0  0  0
 13 15  1  0  0  0  0
 13 16  1  0  0  0  0
 13 23  1  0  0  0  0
 13 44  1  0  0  0  0
 14 45  1  0  0  0  0
 14 46  1  0  0  0  0
 15 20  2  0  0  0  0
 15 21  1  0  0  0  0
 16 25  1  0  0  0  0
 16 47  1  0  0  0  0
 17 21  2  0  0  0  0
 17 22  1  0  0  0  0
 18 26  1  0  0  0  0
 18 48  1  0  0  0  0
 18 49  1  0  0  0  0
 20 24  1  0  0  0  0
 21 50  1  0  0  0  0
 22 24  2  0  0  0  0
 22 51  1  0  0  0  0
 23 52  1  0  0  0  0
 23 53  1  0  0  0  0
 25 27  2  0  0  0  0
 25 28  1  0  0  0  0
 26 29  2  0  0  0  0
 26 30  1  0  0  0  0
 27 31  1  0  0  0  0
 27 54  1  0  0  0  0
 28 32  2  0  0  0  0
 28 55  1  0  0  0  0
 29 33  1  0  0  0  0
 29 56  1  0  0  0  0
 30 34  2  0  0  0  0
 30 57  1  0  0  0  0
 31 35  2  0  0  0  0
 32 35  1  0  0  0  0
 32 59  1  0  0  0  0
 33 36  2  0  0  0  0
 34 36  1  0  0  0  0
 34 60  1  0  0  0  0
 37 61  1  0  0  0  0
 37 62  1  0  0  0  0
 37 63  1  0  0  0  0
 38 66  1  0  0  0  0
 38 67  1  0  0  0  0
 38 68  1  0  0  0  0
 39 69  1  0  0  0  0
 39 70  1  0  0  0  0
 39 71  1  0  0  0  0
M  END
> <PUBCHEM_COMPOUND_CID>
46173976

> <PUBCHEM_CONFORMER_RMSD>
1.2

> <PUBCHEM_CONFORMER_DIVERSEORDER>
1
44
33
80
97
68
49
62
105
102
89
128
111
86
116
63
99
28
37
75
121
50
112
88
21
35
95
98
60
113
90
117
46
69
87
120
106
129
4
22
115
36
79
32
7
61
108
24
56
77
58
70
78
96
82
124
74
107
114
92
122
125
109
2
26
59
65
54
66
91
83
73
38
3
104
93
11
52
23
6
39
29
76
40
57
43
42
25
85
101
103
5
45
118
12
67
17
53
84
55
15
81
126
18
20
119
8
41
19
27
71
110
30
34
94
64
48
72
14
51
127
123
10
31
16
9
100
47
13

> <PUBCHEM_MMFF94_PARTIAL_CHARGES>
49
1 -0.43
11 0.06
12 0.14
13 0.14
14 0.28
15 -0.14
16 0.42
17 -0.14
18 0.14
19 0.66
2 -0.36
20 0.08
21 -0.15
22 -0.15
23 0.28
24 0.08
25 -0.14
26 -0.14
27 -0.15
28 -0.15
29 -0.15
3 -0.57
30 -0.15
31 0.08
32 -0.15
33 0.08
34 -0.15
35 0.08
36 0.08
37 0.28
38 0.28
39 0.28
4 -0.36
5 -0.68
50 0.15
51 0.15
54 0.15
55 0.15
56 0.15
57 0.15
58 0.4
59 0.15
6 -0.36
60 0.15
64 0.45
65 0.45
7 -0.36
8 -0.53
9 -0.53

> <PUBCHEM_EFFECTIVE_ROTOR_COUNT>
10.4

> <PUBCHEM_PHARMACOPHORE_FEATURES>
14
1 2 acceptor
1 3 acceptor
1 4 acceptor
1 5 acceptor
1 5 donor
1 6 acceptor
1 7 acceptor
1 8 donor
1 9 donor
5 1 10 11 14 19 rings
5 2 13 15 16 20 rings
6 15 17 20 21 22 24 rings
6 25 27 28 31 32 35 rings
6 26 29 30 33 34 36 rings

> <PUBCHEM_HEAVY_ATOM_COUNT>
39

> <PUBCHEM_ATOM_DEF_STEREO_COUNT>
4

> <PUBCHEM_ATOM_UDEF_STEREO_COUNT>
0

> <PUBCHEM_BOND_DEF_STEREO_COUNT>
0

> <PUBCHEM_BOND_UDEF_STEREO_COUNT>
0

> <PUBCHEM_ISOTOPIC_ATOM_COUNT>
0

> <PUBCHEM_COMPONENT_COUNT>
1

> <PUBCHEM_CACTVS_TAUTO_COUNT>
16

> <PUBCHEM_CONFORMER_ID>
02C08F1800000001

> <PUBCHEM_MMFF94_ENERGY>
132.6088

> <PUBCHEM_FEATURE_SELFOVERLAP>
71.145

> <PUBCHEM_SHAPE_FINGERPRINT>
11513181 2 18189043368843738718
11578080 2 17751344299764813838
12107698 1 18343028813252884498
12156800 1 16300041681194735249
12788726 201 18339654428914780787
13165054 235 18411993463490346221
13726171 33 18196938984040827513
14068700 675 17677055642299980185
14394314 77 18411133654394482469
15001296 14 18198626536314240956
15219462 58 15938110009487898554
15297060 5 18114463474084000409
15406563 42 18336540599195053918
15876981 60 18340771425328279295
15961568 22 18409730672665426118
18336668 15 18273497866886600653
19611394 137 18198616628242057275
20764821 26 18265874948360509812
21033648 29 17059494007664231786
21133410 90 17677051231458745208
21792938 131 18263087626660522801
22122407 14 18201994383922629856
2838139 119 18343308041550165054
3493558 16 18413384337230918502
392239 28 18336540603247479345
469060 322 18187639228138884073
6036956 94 17985532365183829700
6287921 2 17903065969316149412
6700243 42 17608340494801955366

> <PUBCHEM_SHAPE_MULTIPOLES>
749.78
14.05
4.49
2.41
10.48
3.24
1.43
-0.74
-2.56
-0.56
-1.02
-1.25
-0.55
-1.32

> <PUBCHEM_SHAPE_SELFOVERLAP>
1638.958

> <PUBCHEM_SHAPE_VOLUME>
409.4

> <PUBCHEM_COORDINATE_TYPE>
2
5
10

$$$$

