360322
  -OEChem-07051213002D

 30 33  0     0  0  0  0  0  0999 V2000
    2.5836    0.0374    0.0000 O   0  0  0  0  0  0  0  0  0  0  0  0
    2.5836   -1.5721    0.0000 O   0  0  0  0  0  0  0  0  0  0  0  0
    6.9939   -0.2673    0.0000 N   0  0  0  0  0  0  0  0  0  0  0  0
    5.2619   -0.2673    0.0000 C   0  0  0  0  0  0  0  0  0  0  0  0
    6.1279    0.2327    0.0000 C   0  0  0  0  0  0  0  0  0  0  0  0
    3.5298   -0.2673    0.0000 C   0  0  0  0  0  0  0  0  0  0  0  0
    3.5298   -1.2673    0.0000 C   0  0  0  0  0  0  0  0  0  0  0  0
    4.3958    0.2327    0.0000 C   0  0  0  0  0  0  0  0  0  0  0  0
    7.8600    1.2327    0.0000 C   0  0  0  0  0  0  0  0  0  0  0  0
    5.2619   -1.2673    0.0000 C   0  0  0  0  0  0  0  0  0  0  0  0
    7.8600    0.2327    0.0000 C   0  0  0  0  0  0  0  0  0  0  0  0
    4.3958   -1.7673    0.0000 C   0  0  0  0  0  0  0  0  0  0  0  0
    6.1279    1.2327    0.0000 C   0  0  0  0  0  0  0  0  0  0  0  0
    6.9939    1.7327    0.0000 C   0  0  0  0  0  0  0  0  0  0  0  0
    2.0000   -0.7673    0.0000 C   0  0  0  0  0  0  0  0  0  0  0  0
    8.7539    1.7673    0.0000 C   0  0  0  0  0  0  0  0  0  0  0  0
    8.7539   -0.3020    0.0000 C   0  0  0  0  0  0  0  0  0  0  0  0
    9.6600    1.2535    0.0000 C   0  0  0  0  0  0  0  0  0  0  0  0
    9.6600    0.2119    0.0000 C   0  0  0  0  0  0  0  0  0  0  0  0
    4.3958    0.8527    0.0000 H   0  0  0  0  0  0  0  0  0  0  0  0
    5.7988   -1.5773    0.0000 H   0  0  0  0  0  0  0  0  0  0  0  0
    4.3958   -2.3873    0.0000 H   0  0  0  0  0  0  0  0  0  0  0  0
    5.5910    1.5427    0.0000 H   0  0  0  0  0  0  0  0  0  0  0  0
    6.9939    2.3527    0.0000 H   0  0  0  0  0  0  0  0  0  0  0  0
    1.5391   -0.3526    0.0000 H   0  0  0  0  0  0  0  0  0  0  0  0
    1.5391   -1.1821    0.0000 H   0  0  0  0  0  0  0  0  0  0  0  0
    8.7467    2.3873    0.0000 H   0  0  0  0  0  0  0  0  0  0  0  0
    8.7467   -0.9220    0.0000 H   0  0  0  0  0  0  0  0  0  0  0  0
   10.1957    1.5656    0.0000 H   0  0  0  0  0  0  0  0  0  0  0  0
   10.1957   -0.1002    0.0000 H   0  0  0  0  0  0  0  0  0  0  0  0
  1  6  1  0  0  0  0
  1 15  1  0  0  0  0
  2  7  1  0  0  0  0
  2 15  1  0  0  0  0
  3  5  2  0  0  0  0
  3 11  1  0  0  0  0
  4  5  1  0  0  0  0
  4  8  2  0  0  0  0
  4 10  1  0  0  0  0
  5 13  1  0  0  0  0
  6  7  2  0  0  0  0
  6  8  1  0  0  0  0
  7 12  1  0  0  0  0
  8 20  1  0  0  0  0
  9 11  1  0  0  0  0
  9 14  1  0  0  0  0
  9 16  2  0  0  0  0
 10 12  2  0  0  0  0
 10 21  1  0  0  0  0
 11 17  2  0  0  0  0
 12 22  1  0  0  0  0
 13 14  2  0  0  0  0
 13 23  1  0  0  0  0
 14 24  1  0  0  0  0
 15 25  1  0  0  0  0
 15 26  1  0  0  0  0
 16 18  1  0  0  0  0
 16 27  1  0  0  0  0
 17 19  1  0  0  0  0
 17 28  1  0  0  0  0
 18 19  2  0  0  0  0
 18 29  1  0  0  0  0
 19 30  1  0  0  0  0
M  END
> <PUBCHEM_COMPOUND_CID>
360322

> <PUBCHEM_COMPOUND_CANONICALIZED>
1

> <PUBCHEM_CACTVS_COMPLEXITY>
322

> <PUBCHEM_CACTVS_HBOND_ACCEPTOR>
3

> <PUBCHEM_CACTVS_HBOND_DONOR>
0

> <PUBCHEM_CACTVS_ROTATABLE_BOND>
1

> <PUBCHEM_CACTVS_SUBSKEYS>
AAADccB6MAAAAAAAAAAAAAAAAAAAASAAAAA8YIAAAAAAAEix9AAAHgAAAAAADAyBngMwzvIIFACgAyRiRACCiCAhIiAImCA27JgdJuLEsZukMCpkwBHO6Aew0PMOIAABAAACQABAAAIAAASAAAAAAAAAAA==

> <PUBCHEM_IUPAC_OPENEYE_NAME>
2-(1,3-benzodioxol-5-yl)quinoline

> <PUBCHEM_IUPAC_CAS_NAME>
2-(1,3-benzodioxol-5-yl)quinoline

> <PUBCHEM_IUPAC_NAME>
2-(1,3-benzodioxol-5-yl)quinoline

> <PUBCHEM_IUPAC_SYSTEMATIC_NAME>
2-(1,3-benzodioxol-5-yl)quinoline

> <PUBCHEM_IUPAC_TRADITIONAL_NAME>
2-(1,3-benzodioxol-5-yl)quinoline

> <PUBCHEM_IUPAC_INCHI>
InChI=1S/C16H11NO2/c1-2-4-13-11(3-1)5-7-14(17-13)12-6-8-15-16(9-12)19-10-18-15/h1-9H,10H2

> <PUBCHEM_IUPAC_INCHIKEY>
VQHLFUQPZRTKIV-UHFFFAOYSA-N

> <PUBCHEM_XLOGP3>
3.7

> <PUBCHEM_EXACT_MASS>
249.078979

> <PUBCHEM_MOLECULAR_FORMULA>
C16H11NO2

> <PUBCHEM_MOLECULAR_WEIGHT>
249.26404

> <PUBCHEM_OPENEYE_CAN_SMILES>
C1OC2=C(O1)C=C(C=C2)C3=NC4=CC=CC=C4C=C3

> <PUBCHEM_OPENEYE_ISO_SMILES>
C1OC2=C(O1)C=C(C=C2)C3=NC4=CC=CC=C4C=C3

> <PUBCHEM_CACTVS_TPSA>
31.4

> <PUBCHEM_MONOISOTOPIC_WEIGHT>
249.078979

> <PUBCHEM_TOTAL_CHARGE>
0

> <PUBCHEM_HEAVY_ATOM_COUNT>
19

> <PUBCHEM_ATOM_DEF_STEREO_COUNT>
0

> <PUBCHEM_ATOM_UDEF_STEREO_COUNT>
0

> <PUBCHEM_BOND_DEF_STEREO_COUNT>
0

> <PUBCHEM_BOND_UDEF_STEREO_COUNT>
0

> <PUBCHEM_ISOTOPIC_ATOM_COUNT>
0

> <PUBCHEM_COMPONENT_COUNT>
1

> <PUBCHEM_CACTVS_TAUTO_COUNT>
1

> <PUBCHEM_COORDINATE_TYPE>
1
5
255

> <PUBCHEM_BONDANNOTATIONS>
10  12  8
11  17  8
13  14  8
16  18  8
17  19  8
18  19  8
3  11  8
3  5  8
4  10  8
4  8  8
5  13  8
6  7  8
6  8  8
7  12  8
9  11  8
9  14  8
9  16  8

$$$$

