20288
  -OEChem-07051213133D

 34 35  0     0  0  0  0  0  0999 V2000
    6.9588    0.3714    0.9458 F   0  0  0  0  0  0  0  0  0  0  0  0
    4.4496    0.1250   -0.1795 O   0  0  0  0  0  0  0  0  0  0  0  0
    2.6902   -1.3653   -0.1168 O   0  0  0  0  0  0  0  0  0  0  0  0
    0.8126    0.7587   -0.1557 C   0  0  0  0  0  0  0  0  0  0  0  0
   -1.9279    0.2519   -0.0307 C   0  0  0  0  0  0  0  0  0  0  0  0
    2.2776    1.0301   -0.2222 C   0  0  0  0  0  0  0  0  0  0  0  0
   -3.3492   -0.0117    0.0346 C   0  0  0  0  0  0  0  0  0  0  0  0
    0.0874    0.5508   -1.3291 C   0  0  0  0  0  0  0  0  0  0  0  0
    0.1675    0.7130    1.0803 C   0  0  0  0  0  0  0  0  0  0  0  0
   -1.2828    0.2976   -1.2665 C   0  0  0  0  0  0  0  0  0  0  0  0
   -1.2028    0.4596    1.1428 C   0  0  0  0  0  0  0  0  0  0  0  0
   -4.2572    1.0465   -0.0071 C   0  0  0  0  0  0  0  0  0  0  0  0
   -3.8115   -1.3236    0.1387 C   0  0  0  0  0  0  0  0  0  0  0  0
    3.1283   -0.2239   -0.1657 C   0  0  0  0  0  0  0  0  0  0  0  0
   -5.6273    0.7927    0.0555 C   0  0  0  0  0  0  0  0  0  0  0  0
   -5.1817   -1.5772    0.2012 C   0  0  0  0  0  0  0  0  0  0  0  0
   -6.0896   -0.5191    0.1596 C   0  0  0  0  0  0  0  0  0  0  0  0
    5.3755   -0.9654   -0.1314 C   0  0  0  0  0  0  0  0  0  0  0  0
    6.7824   -0.4113   -0.1540 C   0  0  0  0  0  0  0  0  0  0  0  0
    2.5152    1.5635   -1.1506 H   0  0  0  0  0  0  0  0  0  0  0  0
    2.5702    1.6819    0.6103 H   0  0  0  0  0  0  0  0  0  0  0  0
    0.5787    0.5817   -2.2979 H   0  0  0  0  0  0  0  0  0  0  0  0
    0.7215    0.8711    2.0018 H   0  0  0  0  0  0  0  0  0  0  0  0
   -1.8331    0.1372   -2.1907 H   0  0  0  0  0  0  0  0  0  0  0  0
   -1.6900    0.4268    2.1144 H   0  0  0  0  0  0  0  0  0  0  0  0
   -3.9138    2.0752   -0.0882 H   0  0  0  0  0  0  0  0  0  0  0  0
   -3.1175   -2.1602    0.1723 H   0  0  0  0  0  0  0  0  0  0  0  0
   -6.3344    1.6165    0.0231 H   0  0  0  0  0  0  0  0  0  0  0  0
   -5.5418   -2.5987    0.2822 H   0  0  0  0  0  0  0  0  0  0  0  0
   -7.1564   -0.7167    0.2082 H   0  0  0  0  0  0  0  0  0  0  0  0
    5.2167   -1.6217   -0.9938 H   0  0  0  0  0  0  0  0  0  0  0  0
    5.2154   -1.5240    0.7973 H   0  0  0  0  0  0  0  0  0  0  0  0
    7.5288   -1.2094   -0.1290 H   0  0  0  0  0  0  0  0  0  0  0  0
    6.9485    0.2203   -1.0312 H   0  0  0  0  0  0  0  0  0  0  0  0
  1 19  1  0  0  0  0
  2 14  1  0  0  0  0
  2 18  1  0  0  0  0
  3 14  2  0  0  0  0
  4  6  1  0  0  0  0
  4  8  2  0  0  0  0
  4  9  1  0  0  0  0
  5  7  1  0  0  0  0
  5 10  2  0  0  0  0
  5 11  1  0  0  0  0
  6 14  1  0  0  0  0
  6 20  1  0  0  0  0
  6 21  1  0  0  0  0
  7 12  2  0  0  0  0
  7 13  1  0  0  0  0
  8 10  1  0  0  0  0
  8 22  1  0  0  0  0
  9 11  2  0  0  0  0
  9 23  1  0  0  0  0
 10 24  1  0  0  0  0
 11 25  1  0  0  0  0
 12 15  1  0  0  0  0
 12 26  1  0  0  0  0
 13 16  2  0  0  0  0
 13 27  1  0  0  0  0
 15 17  2  0  0  0  0
 15 28  1  0  0  0  0
 16 17  1  0  0  0  0
 16 29  1  0  0  0  0
 17 30  1  0  0  0  0
 18 19  1  0  0  0  0
 18 31  1  0  0  0  0
 18 32  1  0  0  0  0
 19 33  1  0  0  0  0
 19 34  1  0  0  0  0
M  END
> <PUBCHEM_COMPOUND_CID>
20288

> <PUBCHEM_CONFORMER_RMSD>
0.8

> <PUBCHEM_CONFORMER_DIVERSEORDER>
1
20
22
33
3
13
19
21
28
18
10
32
15
29
8
31
26
14
30
6
16
12
9
23
7
24
4
25
11
27
2
17
5

> <PUBCHEM_MMFF94_PARTIAL_CHARGES>
26
1 -0.34
10 -0.15
11 -0.15
12 -0.15
13 -0.15
14 0.66
15 -0.15
16 -0.15
17 -0.15
18 0.28
19 0.34
2 -0.43
22 0.15
23 0.15
24 0.15
25 0.15
26 0.15
27 0.15
28 0.15
29 0.15
3 -0.57
30 0.15
4 -0.14
6 0.2
8 -0.15
9 -0.15

> <PUBCHEM_EFFECTIVE_ROTOR_COUNT>
6

> <PUBCHEM_PHARMACOPHORE_FEATURES>
3
1 3 acceptor
6 4 5 8 9 10 11 rings
6 7 12 13 15 16 17 rings

> <PUBCHEM_HEAVY_ATOM_COUNT>
19

> <PUBCHEM_ATOM_DEF_STEREO_COUNT>
0

> <PUBCHEM_ATOM_UDEF_STEREO_COUNT>
0

> <PUBCHEM_BOND_DEF_STEREO_COUNT>
0

> <PUBCHEM_BOND_UDEF_STEREO_COUNT>
0

> <PUBCHEM_ISOTOPIC_ATOM_COUNT>
0

> <PUBCHEM_COMPONENT_COUNT>
1

> <PUBCHEM_CACTVS_TAUTO_COUNT>
1

> <PUBCHEM_CONFORMER_ID>
00004F4000000001

> <PUBCHEM_MMFF94_ENERGY>
45.4166

> <PUBCHEM_FEATURE_SELFOVERLAP>
15.223

> <PUBCHEM_SHAPE_FINGERPRINT>
10 15 17749117673613982010
10354089 29 7781514807092999086
106641 1 15936695874082863807
10730089 173 9871753489846381439
11315181 36 18335416859909779945
11524674 6 17749391459650537839
11796584 16 18408037416717751439
12091667 2 17060618914995629269
12107183 9 17690840481554627913
12236239 1 17968095343738374248
12516196 113 18334575746130446728
12596602 18 17676485064442774546
12670543 26 15267071358089522879
13140716 1 15792306869046312477
13288520 33 18342737408369470029
13533116 47 5544927806493973436
1420 363 17821443565231190566
14251752 14 14908190754214640078
14251764 18 18333728014370590457
14251764 46 18411138038911474029
14911166 2 15554445180555541341
15716309 27 18260550021999604750
17093844 174 18411703197201025649
17834072 33 18342732992499823557
18006028 8 17894632556307040161
187816 3 15554446301251972197
19489759 90 18259702320278412281
19784866 240 18411409631484928422
200 152 18411136948227209704
20281389 69 5328742951063816930
20374829 77 17846779606916090774
21267235 1 17561075875111674683
21637258 2 18412553088922944167
22079108 93 18113625565067564538
22224240 67 15213025951153962822
23035841 295 17131832062464863667
23402539 116 16917350346182353588
23522609 53 17630580488369622460
23536379 177 18342737429185189817
23559900 14 18339083675042835641
23622692 88 16298389046066102696
26918003 58 18187363229414260739
2838139 119 9655577387702084347
3004659 81 18272929428001650894
3009799 131 14189574122693105518
347723 3 15698280022941019445
4214541 1 18411980274141800429
4325135 7 18130783452661704502
4463277 17 17821730541939818144
5104073 3 16009601144415143251
54446538 1 8718823184746147434
559249 180 18342458145317065767

> <PUBCHEM_SHAPE_MULTIPOLES>
372
16.44
1.24
0.97
16.03
0.31
0.04
4.21
-1.67
-0.84
-0.01
0.1
-0.17
0.21

> <PUBCHEM_SHAPE_SELFOVERLAP>
789.643

> <PUBCHEM_SHAPE_VOLUME>
207.8

> <PUBCHEM_COORDINATE_TYPE>
2
5
10

$$$$

