173650
  -OEChem-07051213042D

 47 49  0     1  0  0  0  0  0999 V2000
    2.8660   -1.4573    0.0000 O   0  0  0  0  0  0  0  0  0  0  0  0
    5.4641   -2.9573    0.0000 O   0  0  0  0  0  0  0  0  0  0  0  0
    2.0000   -2.9573    0.0000 O   0  0  0  0  0  0  0  0  0  0  0  0
    4.5981    1.5427    0.0000 C   0  0  2  0  0  0  0  0  0  0  0  0
    5.4641    2.0427    0.0000 C   0  0  1  0  0  0  0  0  0  0  0  0
    3.7320    2.0427    0.0000 C   0  0  2  0  0  0  0  0  0  0  0  0
    4.5981    0.5427    0.0000 C   0  0  0  0  0  0  0  0  0  0  0  0
    6.3580    1.5080    0.0000 C   0  0  0  0  0  0  0  0  0  0  0  0
    5.4641    3.0427    0.0000 C   0  0  0  0  0  0  0  0  0  0  0  0
    3.7320    0.0427    0.0000 C   0  0  0  0  0  0  0  0  0  0  0  0
    7.2641    2.0218    0.0000 C   0  0  0  0  0  0  0  0  0  0  0  0
    3.7320    3.0427    0.0000 C   0  0  0  0  0  0  0  0  0  0  0  0
    3.7320   -0.9573    0.0000 C   0  0  2  0  0  0  0  0  0  0  0  0
    7.2641    3.0635    0.0000 C   0  0  0  0  0  0  0  0  0  0  0  0
    4.5981    3.5427    0.0000 C   0  0  0  0  0  0  0  0  0  0  0  0
    6.3580    3.5773    0.0000 C   0  0  0  0  0  0  0  0  0  0  0  0
    2.8660    1.5427    0.0000 C   0  0  0  0  0  0  0  0  0  0  0  0
    4.5981   -1.4573    0.0000 C   0  0  0  0  0  0  0  0  0  0  0  0
    4.5981   -2.4573    0.0000 C   0  0  2  0  0  0  0  0  0  0  0  0
    3.7320   -2.9573    0.0000 C   0  0  0  0  0  0  0  0  0  0  0  0
    2.8660   -2.4573    0.0000 C   0  0  0  0  0  0  0  0  0  0  0  0
    5.1350    1.2327    0.0000 H   0  0  0  0  0  0  0  0  0  0  0  0
    5.4576    1.1927    0.0000 H   0  0  0  0  0  0  0  0  0  0  0  0
    3.7320    1.4227    0.0000 H   0  0  0  0  0  0  0  0  0  0  0  0
    4.8101   -0.0399    0.0000 H   0  0  0  0  0  0  0  0  0  0  0  0
    5.2087    0.6503    0.0000 H   0  0  0  0  0  0  0  0  0  0  0  0
    5.9534    1.0382    0.0000 H   0  0  0  0  0  0  0  0  0  0  0  0
    6.7517    1.0290    0.0000 H   0  0  0  0  0  0  0  0  0  0  0  0
    3.5200    0.6253    0.0000 H   0  0  0  0  0  0  0  0  0  0  0  0
    3.1215   -0.0650    0.0000 H   0  0  0  0  0  0  0  0  0  0  0  0
    7.4732    1.4382    0.0000 H   0  0  0  0  0  0  0  0  0  0  0  0
    7.8750    2.1279    0.0000 H   0  0  0  0  0  0  0  0  0  0  0  0
    3.1951   -0.6473    0.0000 H   0  0  0  0  0  0  0  0  0  0  0  0
    3.1951    3.3527    0.0000 H   0  0  0  0  0  0  0  0  0  0  0  0
    7.8750    2.9574    0.0000 H   0  0  0  0  0  0  0  0  0  0  0  0
    7.4732    3.6472    0.0000 H   0  0  0  0  0  0  0  0  0  0  0  0
    4.5981    4.1627    0.0000 H   0  0  0  0  0  0  0  0  0  0  0  0
    6.3509    4.1973    0.0000 H   0  0  0  0  0  0  0  0  0  0  0  0
    2.5560    2.0796    0.0000 H   0  0  0  0  0  0  0  0  0  0  0  0
    2.3291    1.2327    0.0000 H   0  0  0  0  0  0  0  0  0  0  0  0
    3.1760    1.0057    0.0000 H   0  0  0  0  0  0  0  0  0  0  0  0
    5.2087   -1.5650    0.0000 H   0  0  0  0  0  0  0  0  0  0  0  0
    4.8101   -0.8747    0.0000 H   0  0  0  0  0  0  0  0  0  0  0  0
    4.5981   -3.0773    0.0000 H   0  0  0  0  0  0  0  0  0  0  0  0
    3.3335   -3.4323    0.0000 H   0  0  0  0  0  0  0  0  0  0  0  0
    4.1306   -3.4323    0.0000 H   0  0  0  0  0  0  0  0  0  0  0  0
    5.4641   -3.5773    0.0000 H   0  0  0  0  0  0  0  0  0  0  0  0
  1 13  1  0  0  0  0
  1 21  1  0  0  0  0
 19  2  1  1  0  0  0
  2 47  1  0  0  0  0
  3 21  2  0  0  0  0
  4  5  1  0  0  0  0
  4  6  1  0  0  0  0
  4  7  1  1  0  0  0
  4 22  1  0  0  0  0
  5  8  1  0  0  0  0
  5  9  1  0  0  0  0
  5 23  1  1  0  0  0
  6 12  1  0  0  0  0
  6 17  1  1  0  0  0
  6 24  1  0  0  0  0
  7 10  1  0  0  0  0
  7 25  1  0  0  0  0
  7 26  1  0  0  0  0
  8 11  1  0  0  0  0
  8 27  1  0  0  0  0
  8 28  1  0  0  0  0
  9 15  1  0  0  0  0
  9 16  2  0  0  0  0
 13 10  1  6  0  0  0
 10 29  1  0  0  0  0
 10 30  1  0  0  0  0
 11 14  1  0  0  0  0
 11 31  1  0  0  0  0
 11 32  1  0  0  0  0
 12 15  2  0  0  0  0
 12 34  1  0  0  0  0
 13 18  1  0  0  0  0
 13 33  1  0  0  0  0
 14 16  1  0  0  0  0
 14 35  1  0  0  0  0
 14 36  1  0  0  0  0
 15 37  1  0  0  0  0
 16 38  1  0  0  0  0
 17 39  1  0  0  0  0
 17 40  1  0  0  0  0
 17 41  1  0  0  0  0
 18 19  1  0  0  0  0
 18 42  1  0  0  0  0
 18 43  1  0  0  0  0
 19 20  1  0  0  0  0
 19 44  1  0  0  0  0
 20 21  1  0  0  0  0
 20 45  1  0  0  0  0
 20 46  1  0  0  0  0
M  END
> <PUBCHEM_COMPOUND_CID>
173650

> <PUBCHEM_COMPOUND_CANONICALIZED>
1

> <PUBCHEM_CACTVS_COMPLEXITY>
451

> <PUBCHEM_CACTVS_HBOND_ACCEPTOR>
3

> <PUBCHEM_CACTVS_HBOND_DONOR>
1

> <PUBCHEM_CACTVS_ROTATABLE_BOND>
3

> <PUBCHEM_CACTVS_SUBSKEYS>
AAADceB4MAAAAAAAAAAAAAAAAAAAAAAAAAAkQIAAAAAAAACAAAAAGgAACAAADRSggAICCAAABgCIAiDSCAAAAAAgAAAICAEAAAgIEBYAAQACQAAFoAAIgAOIzPDOgAAAAAAAAAAAAAAAAAAAAAAAAAAAAA==

> <PUBCHEM_IUPAC_OPENEYE_NAME>
(4R,6R)-6-[2-[(1S,2S,8aR)-2-methyl-1,2,6,7,8,8a-hexahydronaphthalen-1-yl]ethyl]-4-hydroxy-tetrahydropyran-2-one

> <PUBCHEM_IUPAC_CAS_NAME>
(4R,6R)-6-[2-[(1S,2S,8aR)-2-methyl-1,2,6,7,8,8a-hexahydronaphthalen-1-yl]ethyl]-4-hydroxy-2-oxanone

> <PUBCHEM_IUPAC_NAME>
(4R,6R)-6-[2-[(1S,2S,8aR)-2-methyl-1,2,6,7,8,8a-hexahydronaphthalen-1-yl]ethyl]-4-hydroxyoxan-2-one

> <PUBCHEM_IUPAC_SYSTEMATIC_NAME>
(4R,6R)-6-[2-[(1S,2S,8aR)-2-methyl-1,2,6,7,8,8a-hexahydronaphthalen-1-yl]ethyl]-4-oxidanyl-oxan-2-one

> <PUBCHEM_IUPAC_TRADITIONAL_NAME>
(4R,6R)-6-[2-[(1S,2S,8aR)-2-methyl-1,2,6,7,8,8a-hexahydronaphthalen-1-yl]ethyl]-4-hydroxy-tetrahydropyran-2-one

> <PUBCHEM_IUPAC_INCHI>
InChI=1S/C18H26O3/c1-12-6-7-13-4-2-3-5-17(13)16(12)9-8-15-10-14(19)11-18(20)21-15/h4,6-7,12,14-17,19H,2-3,5,8-11H2,1H3/t12-,14+,15+,16-,17-/m0/s1

> <PUBCHEM_IUPAC_INCHIKEY>
NXIASLUNMKAUTN-WFKFIOEPSA-N

> <PUBCHEM_XLOGP3>
3.2

> <PUBCHEM_EXACT_MASS>
290.188195

> <PUBCHEM_MOLECULAR_FORMULA>
C18H26O3

> <PUBCHEM_MOLECULAR_WEIGHT>
290.39724

> <PUBCHEM_OPENEYE_CAN_SMILES>
CC1C=CC2=CCCCC2C1CCC3CC(CC(=O)O3)O

> <PUBCHEM_OPENEYE_ISO_SMILES>
C[C@H]1C=CC2=CCCC[C@@H]2[C@H]1CC[C@@H]3C[C@H](CC(=O)O3)O

> <PUBCHEM_CACTVS_TPSA>
46.5

> <PUBCHEM_MONOISOTOPIC_WEIGHT>
290.188195

> <PUBCHEM_TOTAL_CHARGE>
0

> <PUBCHEM_HEAVY_ATOM_COUNT>
21

> <PUBCHEM_ATOM_DEF_STEREO_COUNT>
5

> <PUBCHEM_ATOM_UDEF_STEREO_COUNT>
0

> <PUBCHEM_BOND_DEF_STEREO_COUNT>
0

> <PUBCHEM_BOND_UDEF_STEREO_COUNT>
0

> <PUBCHEM_ISOTOPIC_ATOM_COUNT>
0

> <PUBCHEM_COMPONENT_COUNT>
1

> <PUBCHEM_CACTVS_TAUTO_COUNT>
2

> <PUBCHEM_COORDINATE_TYPE>
1
5
255

> <PUBCHEM_BONDANNOTATIONS>
13  10  6
19  2  5
4  7  5
5  23  5
6  17  5

$$$$

