7700
  -OEChem-06261202153D

 47 47  0     0  0  0  0  0  0999 V2000
   -5.4168    0.1601    0.2915 O   0  0  0  0  0  0  0  0  0  0  0  0
   -8.0337    1.1536    0.3941 O   0  0  0  0  0  0  0  0  0  0  0  0
    3.4583    0.1115   -0.0536 C   0  0  0  0  0  0  0  0  0  0  0  0
    4.8987   -0.3974   -0.1440 C   0  0  0  0  0  0  0  0  0  0  0  0
    2.4118   -0.9936   -0.2289 C   0  0  0  0  0  0  0  0  0  0  0  0
    5.9026    0.7406    0.0609 C   0  0  0  0  0  0  0  0  0  0  0  0
    0.9716   -0.4959   -0.0643 C   0  0  0  0  0  0  0  0  0  0  0  0
    7.3425    0.2245    0.0088 C   0  0  0  0  0  0  0  0  0  0  0  0
   -0.0686   -1.6070   -0.2522 C   0  0  0  0  0  0  0  0  0  0  0  0
    8.3886    1.3283    0.1779 C   0  0  0  0  0  0  0  0  0  0  0  0
   -1.4940   -1.1364   -0.1069 C   0  0  0  0  0  0  0  0  0  0  0  0
    9.8189    0.8113    0.1983 C   0  0  0  0  0  0  0  0  0  0  0  0
   -2.1120   -1.1573    1.1435 C   0  0  0  0  0  0  0  0  0  0  0  0
   -2.1943   -0.6798   -1.2234 C   0  0  0  0  0  0  0  0  0  0  0  0
   -3.4302   -0.7218    1.2774 C   0  0  0  0  0  0  0  0  0  0  0  0
   -3.5126   -0.2443   -1.0896 C   0  0  0  0  0  0  0  0  0  0  0  0
   -4.1306   -0.2653    0.1607 C   0  0  0  0  0  0  0  0  0  0  0  0
   -5.8617    1.1706   -0.6123 C   0  0  0  0  0  0  0  0  0  0  0  0
   -6.9385    1.9985    0.0622 C   0  0  0  0  0  0  0  0  0  0  0  0
    3.2960    0.8833   -0.8161 H   0  0  0  0  0  0  0  0  0  0  0  0
    3.3081    0.5927    0.9210 H   0  0  0  0  0  0  0  0  0  0  0  0
    5.0622   -0.8641   -1.1228 H   0  0  0  0  0  0  0  0  0  0  0  0
    5.0601   -1.1720    0.6155 H   0  0  0  0  0  0  0  0  0  0  0  0
    2.6007   -1.7876    0.5042 H   0  0  0  0  0  0  0  0  0  0  0  0
    2.5287   -1.4442   -1.2221 H   0  0  0  0  0  0  0  0  0  0  0  0
    5.7233    1.2234    1.0291 H   0  0  0  0  0  0  0  0  0  0  0  0
    5.7577    1.5033   -0.7136 H   0  0  0  0  0  0  0  0  0  0  0  0
    0.8547   -0.0501    0.9316 H   0  0  0  0  0  0  0  0  0  0  0  0
    0.7835    0.3071   -0.7882 H   0  0  0  0  0  0  0  0  0  0  0  0
    7.5128   -0.2847   -0.9480 H   0  0  0  0  0  0  0  0  0  0  0  0
    7.4834   -0.5266    0.7961 H   0  0  0  0  0  0  0  0  0  0  0  0
    0.0585   -2.0665   -1.2411 H   0  0  0  0  0  0  0  0  0  0  0  0
    0.1193   -2.4126    0.4696 H   0  0  0  0  0  0  0  0  0  0  0  0
    8.1977    1.8689    1.1126 H   0  0  0  0  0  0  0  0  0  0  0  0
    8.2840    2.0552   -0.6363 H   0  0  0  0  0  0  0  0  0  0  0  0
    9.9696    0.1126    1.0271 H   0  0  0  0  0  0  0  0  0  0  0  0
   10.5219    1.6413    0.3196 H   0  0  0  0  0  0  0  0  0  0  0  0
   10.0595    0.2937   -0.7357 H   0  0  0  0  0  0  0  0  0  0  0  0
   -1.5758   -1.5089    2.0210 H   0  0  0  0  0  0  0  0  0  0  0  0
   -1.7243   -0.6626   -2.2032 H   0  0  0  0  0  0  0  0  0  0  0  0
   -3.9063   -0.7396    2.2539 H   0  0  0  0  0  0  0  0  0  0  0  0
   -4.0305    0.0777   -1.9882 H   0  0  0  0  0  0  0  0  0  0  0  0
   -6.2715    0.6805   -1.5028 H   0  0  0  0  0  0  0  0  0  0  0  0
   -5.0499    1.8511   -0.8974 H   0  0  0  0  0  0  0  0  0  0  0  0
   -7.2933    2.7913   -0.6028 H   0  0  0  0  0  0  0  0  0  0  0  0
   -6.5625    2.4395    0.9906 H   0  0  0  0  0  0  0  0  0  0  0  0
   -8.7041    1.7119    0.8235 H   0  0  0  0  0  0  0  0  0  0  0  0
  1 17  1  0  0  0  0
  1 18  1  0  0  0  0
  2 19  1  0  0  0  0
  2 47  1  0  0  0  0
  3  4  1  0  0  0  0
  3  5  1  0  0  0  0
  3 20  1  0  0  0  0
  3 21  1  0  0  0  0
  4  6  1  0  0  0  0
  4 22  1  0  0  0  0
  4 23  1  0  0  0  0
  5  7  1  0  0  0  0
  5 24  1  0  0  0  0
  5 25  1  0  0  0  0
  6  8  1  0  0  0  0
  6 26  1  0  0  0  0
  6 27  1  0  0  0  0
  7  9  1  0  0  0  0
  7 28  1  0  0  0  0
  7 29  1  0  0  0  0
  8 10  1  0  0  0  0
  8 30  1  0  0  0  0
  8 31  1  0  0  0  0
  9 11  1  0  0  0  0
  9 32  1  0  0  0  0
  9 33  1  0  0  0  0
 10 12  1  0  0  0  0
 10 34  1  0  0  0  0
 10 35  1  0  0  0  0
 11 13  2  0  0  0  0
 11 14  1  0  0  0  0
 12 36  1  0  0  0  0
 12 37  1  0  0  0  0
 12 38  1  0  0  0  0
 13 15  1  0  0  0  0
 13 39  1  0  0  0  0
 14 16  2  0  0  0  0
 14 40  1  0  0  0  0
 15 17  2  0  0  0  0
 15 41  1  0  0  0  0
 16 17  1  0  0  0  0
 16 42  1  0  0  0  0
 18 19  1  0  0  0  0
 18 43  1  0  0  0  0
 18 44  1  0  0  0  0
 19 45  1  0  0  0  0
 19 46  1  0  0  0  0
M  END
> <PUBCHEM_COMPOUND_CID>
7700

> <PUBCHEM_CONFORMER_RMSD>
1.2

> <PUBCHEM_CONFORMER_DIVERSEORDER>
1
32
40
44
26
37
14
7
41
34
4
5
47
15
46
19
23
38
22
11
16
24
10
43
6
13
50
30
48
27
35
51
36
12
2
52
25
21
54
18
20
49
3
56
8
42
9
53
29
31
55
39
45
17
33
28

> <PUBCHEM_MMFF94_PARTIAL_CHARGES>
16
1 -0.36
11 -0.14
13 -0.15
14 -0.15
15 -0.15
16 -0.15
17 0.08
18 0.28
19 0.28
2 -0.68
39 0.15
40 0.15
41 0.15
42 0.15
47 0.4
9 0.14

> <PUBCHEM_EFFECTIVE_ROTOR_COUNT>
11

> <PUBCHEM_PHARMACOPHORE_FEATURES>
5
1 1 acceptor
1 12 hydrophobe
1 2 acceptor
1 2 donor
6 11 13 14 15 16 17 rings

> <PUBCHEM_HEAVY_ATOM_COUNT>
19

> <PUBCHEM_ATOM_DEF_STEREO_COUNT>
0

> <PUBCHEM_ATOM_UDEF_STEREO_COUNT>
0

> <PUBCHEM_BOND_DEF_STEREO_COUNT>
0

> <PUBCHEM_BOND_UDEF_STEREO_COUNT>
0

> <PUBCHEM_ISOTOPIC_ATOM_COUNT>
0

> <PUBCHEM_COMPONENT_COUNT>
1

> <PUBCHEM_CACTVS_TAUTO_COUNT>
1

> <PUBCHEM_CONFORMER_ID>
00001E1400000001

> <PUBCHEM_MMFF94_ENERGY>
30.0648

> <PUBCHEM_FEATURE_SELFOVERLAP>
25.375

> <PUBCHEM_SHAPE_FINGERPRINT>
10 15 17847062198478868361
106641 1 17489300894158840097
11315181 36 16515682204626904842
11463208 3 11167675304817261528
12091667 2 17988929929755107814
125118 31 18341892945249570604
13288520 33 8502652606709897259
13668630 136 9223234048720580832
13685833 64 10375868576255056998
14251764 18 17632577145297101347
14251764 46 18342459222720763426
14344974 52 17313395487112035017
14729087 3 18410856564251423896
15048467 5 18410293631498840919
15183329 4 16298100991547628270
155225 1 18334575767995933153
15690457 1 10592041354184760104
15706992 2 18335126623500608833
15716309 27 13254800127515683886
15778101 99 18410575063225620535
17093844 174 18409167671504998674
1768 4 18334849537959349969
1818759 1 11383835991758995352
18643901 69 7132716098197938169
19784866 240 8862935096479121219
20281389 69 18202565115570950925
20621476 66 18341892974717541302
20621476 8 18334010593618152582
21095086 128 10015588312043978176
21150785 3 4823216117821317680
21267235 1 7637394129711250915
21307412 95 6194542404746985845
21637258 2 10591751066388487919
22224240 67 17418091027559368779
22288116 15 17168438069013580615
23559900 14 14562828615738959666
246663 6 11240000062224356680
300161 21 17967251988571961110
5104073 3 16127792077311333901
5385378 56 17774726458649927866
636775 72 18413108381251052229
636775 8 5184057167887362269
9953998 17 16845290518750914714

> <PUBCHEM_SHAPE_MULTIPOLES>
379.27
27.72
1.53
0.96
44.15
0.33
0.02
19.75
2.49
-1.64
0.06
-1.01
-0.19
0.38

> <PUBCHEM_SHAPE_SELFOVERLAP>
736.53

> <PUBCHEM_SHAPE_VOLUME>
230.4

> <PUBCHEM_COORDINATE_TYPE>
2
5
10

$$$$

