5280968
  -OEChem-07051212513D

 26 26  0     0  0  0  0  0  0999 V2000
   -6.4314   -1.2044    0.0107 Cl  0  0  0  0  0  0  0  0  0  0  0  0
   -0.7122    2.2781    0.0025 O   0  0  0  0  0  0  0  0  0  0  0  0
    4.3097    1.3644    0.0015 O   0  0  0  0  0  0  0  0  0  0  0  0
    6.3168   -0.2466    0.0077 O   0  0  0  0  0  0  0  0  0  0  0  0
    4.9198   -2.0533    0.0024 O   0  0  0  0  0  0  0  0  0  0  0  0
   -2.2307    0.3823   -0.0051 C   0  0  0  0  0  0  0  0  0  0  0  0
   -0.8508    0.9027   -0.0105 C   0  0  0  0  0  0  0  0  0  0  0  0
   -2.8622    0.1499    1.2052 C   0  0  0  0  0  0  0  0  0  0  0  0
   -2.8662    0.1359   -1.2107 C   0  0  0  0  0  0  0  0  0  0  0  0
   -4.1671   -0.3431    1.2101 C   0  0  0  0  0  0  0  0  0  0  0  0
   -4.1711   -0.3570   -1.2057 C   0  0  0  0  0  0  0  0  0  0  0  0
   -4.8216   -0.5965    0.0047 C   0  0  0  0  0  0  0  0  0  0  0  0
    0.2131    0.0805   -0.0078 C   0  0  0  0  0  0  0  0  0  0  0  0
    1.5938    0.5204   -0.0054 C   0  0  0  0  0  0  0  0  0  0  0  0
    2.6241   -0.3367   -0.0028 C   0  0  0  0  0  0  0  0  0  0  0  0
    4.0153    0.1792   -0.0001 C   0  0  0  0  0  0  0  0  0  0  0  0
    5.1206   -0.8557    0.0033 C   0  0  0  0  0  0  0  0  0  0  0  0
   -2.3631    0.3442    2.1508 H   0  0  0  0  0  0  0  0  0  0  0  0
   -2.3702    0.3193   -2.1601 H   0  0  0  0  0  0  0  0  0  0  0  0
   -4.6617   -0.5248    2.1609 H   0  0  0  0  0  0  0  0  0  0  0  0
   -4.6687   -0.5497   -2.1527 H   0  0  0  0  0  0  0  0  0  0  0  0
    0.0503   -0.9962   -0.0095 H   0  0  0  0  0  0  0  0  0  0  0  0
    1.7729    1.5921   -0.0058 H   0  0  0  0  0  0  0  0  0  0  0  0
    2.4703   -1.4101   -0.0024 H   0  0  0  0  0  0  0  0  0  0  0  0
   -1.6013    2.6729    0.0056 H   0  0  0  0  0  0  0  0  0  0  0  0
    7.0593   -0.8876    0.0103 H   0  0  0  0  0  0  0  0  0  0  0  0
  1 12  1  0  0  0  0
  2  7  1  0  0  0  0
  2 25  1  0  0  0  0
  3 16  2  0  0  0  0
  4 17  1  0  0  0  0
  4 26  1  0  0  0  0
  5 17  2  0  0  0  0
  6  7  1  0  0  0  0
  6  8  2  0  0  0  0
  6  9  1  0  0  0  0
  7 13  2  0  0  0  0
  8 10  1  0  0  0  0
  8 18  1  0  0  0  0
  9 11  2  0  0  0  0
  9 19  1  0  0  0  0
 10 12  2  0  0  0  0
 10 20  1  0  0  0  0
 11 12  1  0  0  0  0
 11 21  1  0  0  0  0
 13 14  1  0  0  0  0
 13 22  1  0  0  0  0
 14 15  2  0  0  0  0
 14 23  1  0  0  0  0
 15 16  1  0  0  0  0
 15 24  1  0  0  0  0
 16 17  1  0  0  0  0
M  END
> <PUBCHEM_COMPOUND_CID>
5280968

> <PUBCHEM_CONFORMER_RMSD>
0.6

> <PUBCHEM_CONFORMER_DIVERSEORDER>
1
7
9
5
8
6
12
2
10
11
3
4

> <PUBCHEM_MMFF94_PARTIAL_CHARGES>
26
1 -0.18
10 -0.15
11 -0.15
12 0.18
13 -0.15
14 -0.15
15 -0.14
16 0.56
17 0.72
18 0.15
19 0.15
2 -0.53
20 0.15
21 0.15
22 0.15
23 0.15
24 0.15
25 0.45
26 0.5
3 -0.57
4 -0.65
5 -0.57
6 0.03
7 0.05
8 -0.15
9 -0.15

> <PUBCHEM_EFFECTIVE_ROTOR_COUNT>
4

> <PUBCHEM_PHARMACOPHORE_FEATURES>
6
1 2 donor
1 3 acceptor
1 4 acceptor
1 5 acceptor
3 4 5 17 anion
6 6 8 9 10 11 12 rings

> <PUBCHEM_HEAVY_ATOM_COUNT>
17

> <PUBCHEM_ATOM_DEF_STEREO_COUNT>
0

> <PUBCHEM_ATOM_UDEF_STEREO_COUNT>
0

> <PUBCHEM_BOND_DEF_STEREO_COUNT>
2

> <PUBCHEM_BOND_UDEF_STEREO_COUNT>
0

> <PUBCHEM_ISOTOPIC_ATOM_COUNT>
0

> <PUBCHEM_COMPONENT_COUNT>
1

> <PUBCHEM_CACTVS_TAUTO_COUNT>
4

> <PUBCHEM_CONFORMER_ID>
005094C800000001

> <PUBCHEM_MMFF94_ENERGY>
39.3563

> <PUBCHEM_FEATURE_SELFOVERLAP>
30.514

> <PUBCHEM_SHAPE_FINGERPRINT>
10014705 185 8862649192826489632
10912923 1 17603302631238510968
11089746 13 12175619577838785774
11315181 36 15913322489921554620
12236239 1 17967811626962737065
12507557 5 6483351149367693819
12596602 18 16298390162742048666
13288520 33 18413389818184064399
13533116 47 18409448094430856626
13551218 46 17895191155337609543
13668630 136 18341892991338871187
13685833 64 18341328916683864467
13862211 1 18412265047194536546
1420 363 18343580741934927018
14251718 22 17132111343019280022
14350574 20 18272370858223885516
14528608 73 13901898995476125622
14848160 23 18060139838460200818
15048467 5 9655573011493925590
15348495 7 4967315929503213382
15716309 27 17894631457069608350
17834072 8 15554448483332696487
17844677 252 18413103970139914532
17870717 6 16917063378391111043
1813 80 18261096483194171653
19489759 90 16343706538379670893
19784866 240 18412259502966458535
200 152 18412829100690607309
20281389 69 7709467112717688403
20645477 70 18343021125319518402
21150785 3 17275098415011731086
21267235 1 18334289890729991462
21637258 2 18113909230303711175
2297311 6 16917348139149405669
23035841 295 18411982447057681147
23175994 123 18131911542601324413
23402539 116 18410293639846344725
23402655 69 12607408788428246569
23557571 272 17131836511824181511
23559900 14 16558464176061834845
2916195 48 8214138547319405831
34797466 226 16988835064740020078
351380 3 18334860523652229758
465052 167 18333446521697403542
5104073 3 18189904295818683904

> <PUBCHEM_SHAPE_MULTIPOLES>
328.24
15.34
1.37
0.96
8.89
0.15
0
-7.04
0.06
0.86
0
-1.28
-0.02
0

> <PUBCHEM_SHAPE_SELFOVERLAP>
676.446

> <PUBCHEM_SHAPE_VOLUME>
187.5

> <PUBCHEM_COORDINATE_TYPE>
2
5
10

$$$$

