9548595
  -OEChem-07051213012D

 81 84  0     1  0  0  0  0  0999 V2000
    2.5357   -3.1598    0.0000 O   0  0  0  0  0  0  0  0  0  0  0  0
    7.9288   -0.1074    0.0000 C   0  0  1  0  0  0  0  0  0  0  0  0
    7.9288   -1.1074    0.0000 C   0  0  2  0  0  0  0  0  0  0  0  0
    6.1968   -1.1074    0.0000 C   0  0  2  0  0  0  0  0  0  0  0  0
    5.2868   -1.6143    0.0000 C   0  0  2  0  0  0  0  0  0  0  0  0
    8.8750    0.1973    0.0000 C   0  0  2  0  0  0  0  0  0  0  0  0
    7.0628   -1.6074    0.0000 C   0  0  0  0  0  0  0  0  0  0  0  0
    5.2787   -2.6559    0.0000 C   0  0  2  0  0  0  0  0  0  0  0  0
    7.0628    0.3926    0.0000 C   0  0  0  0  0  0  0  0  0  0  0  0
    6.1968   -0.1074    0.0000 C   0  0  0  0  0  0  0  0  0  0  0  0
    8.8750   -1.4122    0.0000 C   0  0  0  0  0  0  0  0  0  0  0  0
    9.4586   -0.6074    0.0000 C   0  0  0  0  0  0  0  0  0  0  0  0
    4.3599   -1.0502    0.0000 C   0  0  0  0  0  0  0  0  0  0  0  0
    4.3433   -3.2056    0.0000 C   0  0  1  0  0  0  0  0  0  0  0  0
    6.1808   -3.1767    0.0000 C   0  0  0  0  0  0  0  0  0  0  0  0
    9.1857    1.1478    0.0000 C   0  0  1  0  0  0  0  0  0  0  0  0
    7.9288    0.8926    0.0000 C   0  0  0  0  0  0  0  0  0  0  0  0
    7.0789   -2.6489    0.0000 C   0  0  0  0  0  0  0  0  0  0  0  0
    5.2945   -0.6143    0.0000 C   0  0  0  0  0  0  0  0  0  0  0  0
    3.4120   -1.5782    0.0000 C   0  0  0  0  0  0  0  0  0  0  0  0
    3.4037   -2.6631    0.0000 C   0  0  2  0  0  0  0  0  0  0  0  0
   10.1642    1.3540    0.0000 C   0  0  0  0  0  0  0  0  0  0  0  0
    4.3472   -4.2056    0.0000 C   0  0  0  0  0  0  0  0  0  0  0  0
    8.5179    1.8921    0.0000 C   0  0  0  0  0  0  0  0  0  0  0  0
   10.4749    2.3046    0.0000 C   0  0  0  0  0  0  0  0  0  0  0  0
   11.4534    2.5108    0.0000 C   0  0  0  0  0  0  0  0  0  0  0  0
   11.7640    3.4613    0.0000 C   0  0  0  0  0  0  0  0  0  0  0  0
   12.1212    1.7665    0.0000 C   0  0  0  0  0  0  0  0  0  0  0  0
   12.7425    3.6675    0.0000 C   0  0  0  0  0  0  0  0  0  0  0  0
   11.0962    4.2056    0.0000 C   0  0  0  0  0  0  0  0  0  0  0  0
   13.0997    1.9727    0.0000 C   0  0  0  0  0  0  0  0  0  0  0  0
    8.0188   -1.9527    0.0000 H   0  0  0  0  0  0  0  0  0  0  0  0
    6.9329   -0.6824    0.0000 H   0  0  0  0  0  0  0  0  0  0  0  0
    9.7148    0.3292    0.0000 H   0  0  0  0  0  0  0  0  0  0  0  0
    5.2820   -3.5059    0.0000 H   0  0  0  0  0  0  0  0  0  0  0  0
    7.4613    0.8675    0.0000 H   0  0  0  0  0  0  0  0  0  0  0  0
    6.6643    0.8675    0.0000 H   0  0  0  0  0  0  0  0  0  0  0  0
    5.9847    0.4752    0.0000 H   0  0  0  0  0  0  0  0  0  0  0  0
    5.5862   -0.2151    0.0000 H   0  0  0  0  0  0  0  0  0  0  0  0
    8.6240   -1.9791    0.0000 H   0  0  0  0  0  0  0  0  0  0  0  0
    9.4124   -1.7214    0.0000 H   0  0  0  0  0  0  0  0  0  0  0  0
    9.9195   -1.0222    0.0000 H   0  0  0  0  0  0  0  0  0  0  0  0
    9.9195   -0.1927    0.0000 H   0  0  0  0  0  0  0  0  0  0  0  0
    4.7681   -0.5835    0.0000 H   0  0  0  0  0  0  0  0  0  0  0  0
    3.9700   -0.5682    0.0000 H   0  0  0  0  0  0  0  0  0  0  0  0
    3.8070   -3.5166    0.0000 H   0  0  0  0  0  0  0  0  0  0  0  0
    5.7835   -3.6527    0.0000 H   0  0  0  0  0  0  0  0  0  0  0  0
    6.5818   -3.6496    0.0000 H   0  0  0  0  0  0  0  0  0  0  0  0
    9.3783    1.7371    0.0000 H   0  0  0  0  0  0  0  0  0  0  0  0
    8.5488    0.8926    0.0000 H   0  0  0  0  0  0  0  0  0  0  0  0
    7.9288    1.5126    0.0000 H   0  0  0  0  0  0  0  0  0  0  0  0
    7.3088    0.8926    0.0000 H   0  0  0  0  0  0  0  0  0  0  0  0
    7.6193   -2.9527    0.0000 H   0  0  0  0  0  0  0  0  0  0  0  0
    5.9145   -0.6191    0.0000 H   0  0  0  0  0  0  0  0  0  0  0  0
    5.2993    0.0057    0.0000 H   0  0  0  0  0  0  0  0  0  0  0  0
    4.6745   -0.6095    0.0000 H   0  0  0  0  0  0  0  0  0  0  0  0
    3.2075   -0.9929    0.0000 H   0  0  0  0  0  0  0  0  0  0  0  0
    2.8004   -1.6795    0.0000 H   0  0  0  0  0  0  0  0  0  0  0  0
    3.4025   -3.2831    0.0000 H   0  0  0  0  0  0  0  0  0  0  0  0
   10.1848    0.7344    0.0000 H   0  0  0  0  0  0  0  0  0  0  0  0
   10.7780    1.2667    0.0000 H   0  0  0  0  0  0  0  0  0  0  0  0
    3.7272   -4.2080    0.0000 H   0  0  0  0  0  0  0  0  0  0  0  0
    4.3496   -4.8256    0.0000 H   0  0  0  0  0  0  0  0  0  0  0  0
    4.9672   -4.2032    0.0000 H   0  0  0  0  0  0  0  0  0  0  0  0
    8.9793    2.3062    0.0000 H   0  0  0  0  0  0  0  0  0  0  0  0
    8.1038    2.3536    0.0000 H   0  0  0  0  0  0  0  0  0  0  0  0
    8.0564    1.4781    0.0000 H   0  0  0  0  0  0  0  0  0  0  0  0
    2.0000   -2.8477    0.0000 H   0  0  0  0  0  0  0  0  0  0  0  0
   10.4543    2.9242    0.0000 H   0  0  0  0  0  0  0  0  0  0  0  0
    9.8611    2.3919    0.0000 H   0  0  0  0  0  0  0  0  0  0  0  0
   12.1781    2.9998    0.0000 H   0  0  0  0  0  0  0  0  0  0  0  0
   11.9286    1.1772    0.0000 H   0  0  0  0  0  0  0  0  0  0  0  0
   12.8704    3.0608    0.0000 H   0  0  0  0  0  0  0  0  0  0  0  0
   11.5577    4.6197    0.0000 H   0  0  0  0  0  0  0  0  0  0  0  0
   10.6821    4.6671    0.0000 H   0  0  0  0  0  0  0  0  0  0  0  0
   10.6347    3.7915    0.0000 H   0  0  0  0  0  0  0  0  0  0  0  0
   13.3492    3.7954    0.0000 H   0  0  0  0  0  0  0  0  0  0  0  0
   12.6147    4.2742    0.0000 H   0  0  0  0  0  0  0  0  0  0  0  0
   13.2276    1.3660    0.0000 H   0  0  0  0  0  0  0  0  0  0  0  0
   13.7064    2.1006    0.0000 H   0  0  0  0  0  0  0  0  0  0  0  0
   12.9719    2.5794    0.0000 H   0  0  0  0  0  0  0  0  0  0  0  0
 21  1  1  1  0  0  0
  1 68  1  0  0  0  0
  2  3  1  0  0  0  0
  2  6  1  0  0  0  0
  2  9  1  0  0  0  0
  2 17  1  1  0  0  0
  3  7  1  0  0  0  0
  3 11  1  0  0  0  0
  3 32  1  6  0  0  0
  4  5  1  0  0  0  0
  4  7  1  0  0  0  0
  4 10  1  0  0  0  0
  4 33  1  6  0  0  0
  5  8  1  0  0  0  0
  5 13  1  0  0  0  0
  5 19  1  1  0  0  0
  6 12  1  0  0  0  0
  6 16  1  0  0  0  0
  6 34  1  6  0  0  0
  7 18  2  0  0  0  0
  8 14  1  0  0  0  0
  8 15  1  0  0  0  0
  8 35  1  6  0  0  0
  9 10  1  0  0  0  0
  9 36  1  0  0  0  0
  9 37  1  0  0  0  0
 10 38  1  0  0  0  0
 10 39  1  0  0  0  0
 11 12  1  0  0  0  0
 11 40  1  0  0  0  0
 11 41  1  0  0  0  0
 12 42  1  0  0  0  0
 12 43  1  0  0  0  0
 13 20  1  0  0  0  0
 13 44  1  0  0  0  0
 13 45  1  0  0  0  0
 14 21  1  0  0  0  0
 14 23  1  6  0  0  0
 14 46  1  0  0  0  0
 15 18  1  0  0  0  0
 15 47  1  0  0  0  0
 15 48  1  0  0  0  0
 16 22  1  0  0  0  0
 16 24  1  6  0  0  0
 16 49  1  0  0  0  0
 17 50  1  0  0  0  0
 17 51  1  0  0  0  0
 17 52  1  0  0  0  0
 18 53  1  0  0  0  0
 19 54  1  0  0  0  0
 19 55  1  0  0  0  0
 19 56  1  0  0  0  0
 20 21  1  0  0  0  0
 20 57  1  0  0  0  0
 20 58  1  0  0  0  0
 21 59  1  0  0  0  0
 22 25  1  0  0  0  0
 22 60  1  0  0  0  0
 22 61  1  0  0  0  0
 23 62  1  0  0  0  0
 23 63  1  0  0  0  0
 23 64  1  0  0  0  0
 24 65  1  0  0  0  0
 24 66  1  0  0  0  0
 24 67  1  0  0  0  0
 25 26  1  0  0  0  0
 25 69  1  0  0  0  0
 25 70  1  0  0  0  0
 26 27  1  0  0  0  0
 26 28  2  0  0  0  0
 27 29  1  0  0  0  0
 27 30  1  0  0  0  0
 27 71  1  0  0  0  0
 28 31  1  0  0  0  0
 28 72  1  0  0  0  0
 29 73  1  0  0  0  0
 29 77  1  0  0  0  0
 29 78  1  0  0  0  0
 30 74  1  0  0  0  0
 30 75  1  0  0  0  0
 30 76  1  0  0  0  0
 31 79  1  0  0  0  0
 31 80  1  0  0  0  0
 31 81  1  0  0  0  0
M  END
> <PUBCHEM_COMPOUND_CID>
9548595

> <PUBCHEM_COMPOUND_CANONICALIZED>
1

> <PUBCHEM_CACTVS_COMPLEXITY>
716

> <PUBCHEM_CACTVS_HBOND_ACCEPTOR>
1

> <PUBCHEM_CACTVS_HBOND_DONOR>
1

> <PUBCHEM_CACTVS_ROTATABLE_BOND>
5

> <PUBCHEM_CACTVS_SUBSKEYS>
AAADcfB4IAAAAAAAAAAAAAAAAAAAAYAAAAAwYIAAAAAAAGCAAAAAGgAACAAADxSggAICAAAAAgCAAiBCAAAAAAAgAAAACAAAAAgAEAIAAQAAQAAEgAAIAAOAwPAPgAAAAAAAAADAAAYAADAAAQAACAAAAA==

> <PUBCHEM_IUPAC_OPENEYE_NAME>
(3S,4S,5S,9R,10S,13R,14R,17R)-17-[(Z,1R)-4-isopropyl-1-methyl-hex-4-enyl]-4,10,13-trimethyl-2,3,4,5,6,9,11,12,14,15,16,17-dodecahydro-1H-cyclopenta[a]phenanthren-3-ol

> <PUBCHEM_IUPAC_CAS_NAME>
(3S,4S,5S,9R,10S,13R,14R,17R)-4,10,13-trimethyl-17-[(Z,2R)-5-propan-2-ylhept-5-en-2-yl]-2,3,4,5,6,9,11,12,14,15,16,17-dodecahydro-1H-cyclopenta[a]phenanthren-3-ol

> <PUBCHEM_IUPAC_NAME>
(3S,4S,5S,9R,10S,13R,14R,17R)-4,10,13-trimethyl-17-[(Z,2R)-5-propan-2-ylhept-5-en-2-yl]-2,3,4,5,6,9,11,12,14,15,16,17-dodecahydro-1H-cyclopenta[a]phenanthren-3-ol

> <PUBCHEM_IUPAC_SYSTEMATIC_NAME>
(3S,4S,5S,9R,10S,13R,14R,17R)-4,10,13-trimethyl-17-[(Z,2R)-5-propan-2-ylhept-5-en-2-yl]-2,3,4,5,6,9,11,12,14,15,16,17-dodecahydro-1H-cyclopenta[a]phenanthren-3-ol

> <PUBCHEM_IUPAC_TRADITIONAL_NAME>
(3S,4S,5S,9R,10S,13R,14R,17R)-17-[(Z,1R)-4-isopropyl-1-methyl-hex-4-enyl]-4,10,13-trimethyl-2,3,4,5,6,9,11,12,14,15,16,17-dodecahydro-1H-cyclopenta[a]phenanthren-3-ol

> <PUBCHEM_IUPAC_INCHI>
InChI=1S/C30H50O/c1-8-22(19(2)3)10-9-20(4)24-13-14-26-23-11-12-25-21(5)28(31)16-18-30(25,7)27(23)15-17-29(24,26)6/h8,11,19-21,24-28,31H,9-10,12-18H2,1-7H3/b22-8-/t20-,21+,24-,25+,26+,27+,28+,29-,30+/m1/s1

> <PUBCHEM_IUPAC_INCHIKEY>
LPZCCMIISIBREI-JXMPMKKESA-N

> <PUBCHEM_XLOGP3_AA>
9

> <PUBCHEM_EXACT_MASS>
426.386166

> <PUBCHEM_MOLECULAR_FORMULA>
C30H50O

> <PUBCHEM_MOLECULAR_WEIGHT>
426.7174

> <PUBCHEM_OPENEYE_CAN_SMILES>
CC=C(CCC(C)C1CCC2C1(CCC3C2=CCC4C3(CCC(C4C)O)C)C)C(C)C

> <PUBCHEM_OPENEYE_ISO_SMILES>
C/C=C(/CC[C@@H](C)[C@H]1CC[C@@H]2[C@@]1(CC[C@H]3C2=CC[C@@H]4[C@@]3(CC[C@@H]([C@H]4C)O)C)C)\C(C)C

> <PUBCHEM_CACTVS_TPSA>
20.2

> <PUBCHEM_MONOISOTOPIC_WEIGHT>
426.386166

> <PUBCHEM_TOTAL_CHARGE>
0

> <PUBCHEM_HEAVY_ATOM_COUNT>
31

> <PUBCHEM_ATOM_DEF_STEREO_COUNT>
9

> <PUBCHEM_ATOM_UDEF_STEREO_COUNT>
0

> <PUBCHEM_BOND_DEF_STEREO_COUNT>
1

> <PUBCHEM_BOND_UDEF_STEREO_COUNT>
0

> <PUBCHEM_ISOTOPIC_ATOM_COUNT>
0

> <PUBCHEM_COMPONENT_COUNT>
1

> <PUBCHEM_CACTVS_TAUTO_COUNT>
1

> <PUBCHEM_COORDINATE_TYPE>
1
5
255

> <PUBCHEM_BONDANNOTATIONS>
21  1  5
14  23  6
16  24  6
2  17  5
3  32  6
4  33  6
5  19  5
6  34  6
8  35  6

$$$$

