7453
  -OEChem-07051213042D

 25 25  0     1  0  0  0  0  0999 V2000
    2.8660   -2.5950    0.0000 O   0  0  0  0  0  0  0  0  0  0  0  0
    2.8660    1.4050    0.0000 C   0  0  3  0  0  0  0  0  0  0  0  0
    3.7320    1.9050    0.0000 C   0  0  0  0  0  0  0  0  0  0  0  0
    2.8660    0.4050    0.0000 C   0  0  0  0  0  0  0  0  0  0  0  0
    2.0000    1.9050    0.0000 C   0  0  0  0  0  0  0  0  0  0  0  0
    3.7320    2.9050    0.0000 C   0  0  0  0  0  0  0  0  0  0  0  0
    2.0000   -0.0950    0.0000 C   0  0  0  0  0  0  0  0  0  0  0  0
    3.7320   -0.0950    0.0000 C   0  0  0  0  0  0  0  0  0  0  0  0
    2.0000   -1.0950    0.0000 C   0  0  0  0  0  0  0  0  0  0  0  0
    3.7320   -1.0950    0.0000 C   0  0  0  0  0  0  0  0  0  0  0  0
    2.8660   -1.5950    0.0000 C   0  0  0  0  0  0  0  0  0  0  0  0
    2.8660    2.2550    0.0000 H   0  0  0  0  0  0  0  0  0  0  0  0
    3.9441    1.3224    0.0000 H   0  0  0  0  0  0  0  0  0  0  0  0
    4.3426    2.0127    0.0000 H   0  0  0  0  0  0  0  0  0  0  0  0
    2.3100    2.4419    0.0000 H   0  0  0  0  0  0  0  0  0  0  0  0
    1.4631    2.2150    0.0000 H   0  0  0  0  0  0  0  0  0  0  0  0
    1.6900    1.3681    0.0000 H   0  0  0  0  0  0  0  0  0  0  0  0
    4.3520    2.9050    0.0000 H   0  0  0  0  0  0  0  0  0  0  0  0
    3.7320    3.5250    0.0000 H   0  0  0  0  0  0  0  0  0  0  0  0
    3.1120    2.9050    0.0000 H   0  0  0  0  0  0  0  0  0  0  0  0
    1.4631    0.2150    0.0000 H   0  0  0  0  0  0  0  0  0  0  0  0
    4.2690    0.2150    0.0000 H   0  0  0  0  0  0  0  0  0  0  0  0
    1.4631   -1.4050    0.0000 H   0  0  0  0  0  0  0  0  0  0  0  0
    4.2690   -1.4050    0.0000 H   0  0  0  0  0  0  0  0  0  0  0  0
    2.3291   -2.9050    0.0000 H   0  0  0  0  0  0  0  0  0  0  0  0
  1 11  1  0  0  0  0
  1 25  1  0  0  0  0
  2  3  1  0  0  0  0
  2  4  1  0  0  0  0
  2  5  1  0  0  0  0
  2 12  1  0  0  0  0
  3  6  1  0  0  0  0
  3 13  1  0  0  0  0
  3 14  1  0  0  0  0
  4  7  2  0  0  0  0
  4  8  1  0  0  0  0
  5 15  1  0  0  0  0
  5 16  1  0  0  0  0
  5 17  1  0  0  0  0
  6 18  1  0  0  0  0
  6 19  1  0  0  0  0
  6 20  1  0  0  0  0
  7  9  1  0  0  0  0
  7 21  1  0  0  0  0
  8 10  2  0  0  0  0
  8 22  1  0  0  0  0
  9 11  2  0  0  0  0
  9 23  1  0  0  0  0
 10 11  1  0  0  0  0
 10 24  1  0  0  0  0
M  END
> <PUBCHEM_COMPOUND_CID>
7453

> <PUBCHEM_COMPOUND_CANONICALIZED>
1

> <PUBCHEM_CACTVS_COMPLEXITY>
103

> <PUBCHEM_CACTVS_HBOND_ACCEPTOR>
1

> <PUBCHEM_CACTVS_HBOND_DONOR>
1

> <PUBCHEM_CACTVS_ROTATABLE_BOND>
2

> <PUBCHEM_CACTVS_SUBSKEYS>
AAADccBwIAAAAAAAAAAAAAAAAAAAAAAAAAAwAAAAAAAAAAABAAAAGgAACAAADQSAmAAyBoAAAgCAAiBCAAACAAAgIAAIiAAGCIgIJiKCERKAcAAkwBEImAeAwPAOoAAAAAAAAABAAAAAAAAAAAAAAAAAAA==

> <PUBCHEM_IUPAC_OPENEYE_NAME>
4-sec-butylphenol

> <PUBCHEM_IUPAC_CAS_NAME>
4-butan-2-ylphenol

> <PUBCHEM_IUPAC_NAME>
4-butan-2-ylphenol

> <PUBCHEM_IUPAC_SYSTEMATIC_NAME>
4-butan-2-ylphenol

> <PUBCHEM_IUPAC_TRADITIONAL_NAME>
4-sec-butylphenol

> <PUBCHEM_IUPAC_INCHI>
InChI=1S/C10H14O/c1-3-8(2)9-4-6-10(11)7-5-9/h4-8,11H,3H2,1-2H3

> <PUBCHEM_IUPAC_INCHIKEY>
ZUTYZAFDFLLILI-UHFFFAOYSA-N

> <PUBCHEM_XLOGP3>
3.1

> <PUBCHEM_EXACT_MASS>
150.104465

> <PUBCHEM_MOLECULAR_FORMULA>
C10H14O

> <PUBCHEM_MOLECULAR_WEIGHT>
150.21756

> <PUBCHEM_OPENEYE_CAN_SMILES>
CCC(C)C1=CC=C(C=C1)O

> <PUBCHEM_OPENEYE_ISO_SMILES>
CCC(C)C1=CC=C(C=C1)O

> <PUBCHEM_CACTVS_TPSA>
20.2

> <PUBCHEM_MONOISOTOPIC_WEIGHT>
150.104465

> <PUBCHEM_TOTAL_CHARGE>
0

> <PUBCHEM_HEAVY_ATOM_COUNT>
11

> <PUBCHEM_ATOM_DEF_STEREO_COUNT>
0

> <PUBCHEM_ATOM_UDEF_STEREO_COUNT>
1

> <PUBCHEM_BOND_DEF_STEREO_COUNT>
0

> <PUBCHEM_BOND_UDEF_STEREO_COUNT>
0

> <PUBCHEM_ISOTOPIC_ATOM_COUNT>
0

> <PUBCHEM_COMPONENT_COUNT>
1

> <PUBCHEM_CACTVS_TAUTO_COUNT>
2

> <PUBCHEM_COORDINATE_TYPE>
1
5
255

> <PUBCHEM_BONDANNOTATIONS>
10  11  8
2  12  3
4  7  8
4  8  8
7  9  8
8  10  8
9  11  8

$$$$

