10903
  -OEChem-06261205063D

 12 11  0     0  0  0  0  0  0999 V2000
   -0.5233    0.4709    0.0000 O   0  0  0  0  0  0  0  0  0  0  0  0
    0.4954   -0.5201    0.0000 C   0  0  0  0  0  0  0  0  0  0  0  0
    1.8469    0.1619    0.0000 C   0  0  0  0  0  0  0  0  0  0  0  0
   -1.8191   -0.1127    0.0000 C   0  0  0  0  0  0  0  0  0  0  0  0
    0.3995   -1.1496    0.8917 H   0  0  0  0  0  0  0  0  0  0  0  0
    0.3994   -1.1496   -0.8917 H   0  0  0  0  0  0  0  0  0  0  0  0
    2.6561   -0.5738    0.0000 H   0  0  0  0  0  0  0  0  0  0  0  0
    1.9543    0.8051   -0.8796 H   0  0  0  0  0  0  0  0  0  0  0  0
    1.9544    0.8052    0.8796 H   0  0  0  0  0  0  0  0  0  0  0  0
   -1.9655   -0.7217   -0.8974 H   0  0  0  0  0  0  0  0  0  0  0  0
   -2.5592    0.6920    0.0000 H   0  0  0  0  0  0  0  0  0  0  0  0
   -1.9655   -0.7217    0.8972 H   0  0  0  0  0  0  0  0  0  0  0  0
  1  2  1  0  0  0  0
  1  4  1  0  0  0  0
  2  3  1  0  0  0  0
  2  5  1  0  0  0  0
  2  6  1  0  0  0  0
  3  7  1  0  0  0  0
  3  8  1  0  0  0  0
  3  9  1  0  0  0  0
  4 10  1  0  0  0  0
  4 11  1  0  0  0  0
  4 12  1  0  0  0  0
M  END
> <PUBCHEM_COMPOUND_CID>
10903

> <PUBCHEM_CONFORMER_RMSD>
0.4

> <PUBCHEM_CONFORMER_DIVERSEORDER>
1
2
3

> <PUBCHEM_MMFF94_PARTIAL_CHARGES>
3
1 -0.56
2 0.28
4 0.28

> <PUBCHEM_EFFECTIVE_ROTOR_COUNT>
1

> <PUBCHEM_PHARMACOPHORE_FEATURES>
1
1 1 acceptor

> <PUBCHEM_HEAVY_ATOM_COUNT>
4

> <PUBCHEM_ATOM_DEF_STEREO_COUNT>
0

> <PUBCHEM_ATOM_UDEF_STEREO_COUNT>
0

> <PUBCHEM_BOND_DEF_STEREO_COUNT>
0

> <PUBCHEM_BOND_UDEF_STEREO_COUNT>
0

> <PUBCHEM_ISOTOPIC_ATOM_COUNT>
0

> <PUBCHEM_COMPONENT_COUNT>
1

> <PUBCHEM_CACTVS_TAUTO_COUNT>
1

> <PUBCHEM_CONFORMER_ID>
00002A9700000001

> <PUBCHEM_MMFF94_ENERGY>
3.8929

> <PUBCHEM_FEATURE_SELFOVERLAP>
5.074

> <PUBCHEM_SHAPE_FINGERPRINT>
139733 1 18410856551245059782
20096714 4 8574419937476723179
21015797 1 17978509737034316006
5460574 1 18410856572540528710

> <PUBCHEM_SHAPE_MULTIPOLES>
76.45
2.52
0.72
0.59
0.11
0.04
0
-0.1
0
-0.03
0
-0.01
0.01
0

> <PUBCHEM_SHAPE_SELFOVERLAP>
121.822

> <PUBCHEM_SHAPE_VOLUME>
55.2

> <PUBCHEM_COORDINATE_TYPE>
2
5
10

$$$$

