6763
  -OEChem-07051212483D

 24 26  0     0  0  0  0  0  0999 V2000
    1.3173    2.7983    0.0048 O   0  0  0  0  0  0  0  0  0  0  0  0
   -1.3175    2.7982   -0.0035 O   0  0  0  0  0  0  0  0  0  0  0  0
    0.7430   -0.7767   -0.0002 C   0  0  0  0  0  0  0  0  0  0  0  0
   -0.7430   -0.7767    0.0003 C   0  0  0  0  0  0  0  0  0  0  0  0
    1.4664    0.4317   -0.0003 C   0  0  0  0  0  0  0  0  0  0  0  0
   -1.4665    0.4317   -0.0005 C   0  0  0  0  0  0  0  0  0  0  0  0
    0.7483    1.7175    0.0011 C   0  0  0  0  0  0  0  0  0  0  0  0
   -0.7483    1.7174   -0.0013 C   0  0  0  0  0  0  0  0  0  0  0  0
    1.5077   -1.9609   -0.0003 C   0  0  0  0  0  0  0  0  0  0  0  0
   -1.5077   -1.9610    0.0012 C   0  0  0  0  0  0  0  0  0  0  0  0
    2.8699    0.4596   -0.0006 C   0  0  0  0  0  0  0  0  0  0  0  0
   -2.8698    0.4595   -0.0005 C   0  0  0  0  0  0  0  0  0  0  0  0
    2.9076   -1.9394   -0.0007 C   0  0  0  0  0  0  0  0  0  0  0  0
   -2.9074   -1.9396    0.0012 C   0  0  0  0  0  0  0  0  0  0  0  0
    3.5883   -0.7298   -0.0010 C   0  0  0  0  0  0  0  0  0  0  0  0
   -3.5882   -0.7299    0.0002 C   0  0  0  0  0  0  0  0  0  0  0  0
    1.0401   -2.9414   -0.0002 H   0  0  0  0  0  0  0  0  0  0  0  0
   -1.0400   -2.9415    0.0020 H   0  0  0  0  0  0  0  0  0  0  0  0
    3.4160    1.3992   -0.0007 H   0  0  0  0  0  0  0  0  0  0  0  0
   -3.4160    1.3991   -0.0012 H   0  0  0  0  0  0  0  0  0  0  0  0
    3.4616   -2.8740   -0.0008 H   0  0  0  0  0  0  0  0  0  0  0  0
   -3.4615   -2.8741    0.0018 H   0  0  0  0  0  0  0  0  0  0  0  0
    4.6738   -0.7131   -0.0013 H   0  0  0  0  0  0  0  0  0  0  0  0
   -4.6736   -0.7132    0.0002 H   0  0  0  0  0  0  0  0  0  0  0  0
  1  7  2  0  0  0  0
  2  8  2  0  0  0  0
  3  4  1  0  0  0  0
  3  5  1  0  0  0  0
  3  9  2  0  0  0  0
  4  6  1  0  0  0  0
  4 10  2  0  0  0  0
  5  7  1  0  0  0  0
  5 11  2  0  0  0  0
  6  8  1  0  0  0  0
  6 12  2  0  0  0  0
  7  8  1  0  0  0  0
  9 13  1  0  0  0  0
  9 17  1  0  0  0  0
 10 14  1  0  0  0  0
 10 18  1  0  0  0  0
 11 15  1  0  0  0  0
 11 19  1  0  0  0  0
 12 16  1  0  0  0  0
 12 20  1  0  0  0  0
 13 15  2  0  0  0  0
 13 21  1  0  0  0  0
 14 16  2  0  0  0  0
 14 22  1  0  0  0  0
 15 23  1  0  0  0  0
 16 24  1  0  0  0  0
M  END
> <PUBCHEM_COMPOUND_CID>
6763

> <PUBCHEM_CONFORMER_RMSD>
0.4

> <PUBCHEM_CONFORMER_DIVERSEORDER>
1

> <PUBCHEM_MMFF94_PARTIAL_CHARGES>
22
1 -0.57
10 -0.15
11 -0.15
12 -0.15
13 -0.15
14 -0.15
15 -0.15
16 -0.15
17 0.15
18 0.15
19 0.15
2 -0.57
20 0.15
21 0.15
22 0.15
23 0.15
24 0.15
5 0.09
6 0.09
7 0.48
8 0.48
9 -0.15

> <PUBCHEM_EFFECTIVE_ROTOR_COUNT>
0

> <PUBCHEM_PHARMACOPHORE_FEATURES>
5
1 1 acceptor
1 2 acceptor
6 3 4 5 6 7 8 rings
6 3 5 9 11 13 15 rings
6 4 6 10 12 14 16 rings

> <PUBCHEM_HEAVY_ATOM_COUNT>
16

> <PUBCHEM_ATOM_DEF_STEREO_COUNT>
0

> <PUBCHEM_ATOM_UDEF_STEREO_COUNT>
0

> <PUBCHEM_BOND_DEF_STEREO_COUNT>
0

> <PUBCHEM_BOND_UDEF_STEREO_COUNT>
0

> <PUBCHEM_ISOTOPIC_ATOM_COUNT>
0

> <PUBCHEM_COMPONENT_COUNT>
1

> <PUBCHEM_CACTVS_TAUTO_COUNT>
1

> <PUBCHEM_CONFORMER_ID>
00001A6B00000001

> <PUBCHEM_MMFF94_ENERGY>
47.1261

> <PUBCHEM_FEATURE_SELFOVERLAP>
25.422

> <PUBCHEM_SHAPE_FINGERPRINT>
10319926 262 17904792182268657562
10967382 1 18122624955132783878
11132069 177 18409736174645203930
11471102 20 18411143493820782887
12032990 46 18410851062082092419
12553582 1 18410569591400121710
13140716 1 18266459802103237217
13221675 6 18410855460128447622
13583140 156 14129347346383850255
15001771 113 18409725158001400593
15042514 8 17979916343150781298
15196674 1 18410573985151613550
15375462 189 18273212014831877971
15442244 35 18409445920644485931
15536298 74 18189333472610063424
16945 1 18410856559639893508
193761 8 18410573985151905860
19591789 44 17617372231283556113
20510252 161 18117280465502275472
20645477 70 18196944262418139591
20871998 184 18115592680667332814
21267235 1 18410565193354006850
21501502 16 18410006671532395072
221490 88 18125436406666304739
22721475 48 18410570690911587078
22802520 49 17754166806401210206
2334 1 17906170655087328705
23402539 116 18263376930460553719
23463225 33 18410854326293848895
23557571 272 18115863174087926734
23559900 14 17830178262166147750
2748010 2 18122908616247900204
3091708 16 9354225474064805512
335352 9 18338516472944775061
34934 24 18410584984562949546
352729 6 17690001562360956193
427121 178 15651795012592662489
5104073 3 18410293614002753866
54173680 148 18122625226048305770
7364860 26 18263926523144604120
81228 2 18267575982530737370
8809292 202 18272084980979965379
9709674 26 18263081187861208430

> <PUBCHEM_SHAPE_MULTIPOLES>
317.53
5.32
2.89
0.6
0
1.29
0
-2.34
0
0
0
0
-0.03
0

> <PUBCHEM_SHAPE_SELFOVERLAP>
717.985

> <PUBCHEM_SHAPE_VOLUME>
164.3

> <PUBCHEM_COORDINATE_TYPE>
2
5
10

$$$$

