586291
  -OEChem-06241222462D

 28 29  0     0  0  0  0  0  0999 V2000
    2.0000   -3.5684    0.0000 S   0  0  0  0  0  0  0  0  0  0  0  0
    4.5411    0.0194    0.0000 O   0  0  0  0  0  0  0  0  0  0  0  0
    2.8090    0.0194    0.0000 O   0  0  0  0  0  0  0  0  0  0  0  0
    5.4071    4.5194    0.0000 O   0  5  0  0  0  0  0  0  0  0  0  0
    3.6750    4.5194    0.0000 O   0  0  0  0  0  0  0  0  0  0  0  0
    4.5411    4.0194    0.0000 N   0  3  0  0  0  0  0  0  0  0  0  0
    4.5411    1.0194    0.0000 C   0  0  0  0  0  0  0  0  0  0  0  0
    4.5411    3.0194    0.0000 C   0  0  0  0  0  0  0  0  0  0  0  0
    5.4071    1.5194    0.0000 C   0  0  0  0  0  0  0  0  0  0  0  0
    3.6750    1.5194    0.0000 C   0  0  0  0  0  0  0  0  0  0  0  0
    5.4071    2.5194    0.0000 C   0  0  0  0  0  0  0  0  0  0  0  0
    3.6750    2.5194    0.0000 C   0  0  0  0  0  0  0  0  0  0  0  0
    2.8090   -2.9806    0.0000 C   0  0  0  0  0  0  0  0  0  0  0  0
    2.8090   -1.9806    0.0000 C   0  0  0  0  0  0  0  0  0  0  0  0
    3.6180   -3.5684    0.0000 C   0  0  0  0  0  0  0  0  0  0  0  0
    3.6750   -1.4806    0.0000 C   0  0  0  0  0  0  0  0  0  0  0  0
    3.6750   -0.4806    0.0000 C   0  0  0  0  0  0  0  0  0  0  0  0
    3.3090   -4.5194    0.0000 C   0  0  0  0  0  0  0  0  0  0  0  0
    2.3090   -4.5194    0.0000 C   0  0  0  0  0  0  0  0  0  0  0  0
    5.9440    1.2094    0.0000 H   0  0  0  0  0  0  0  0  0  0  0  0
    3.1381    1.2094    0.0000 H   0  0  0  0  0  0  0  0  0  0  0  0
    5.9440    2.8294    0.0000 H   0  0  0  0  0  0  0  0  0  0  0  0
    3.1381    2.8294    0.0000 H   0  0  0  0  0  0  0  0  0  0  0  0
    2.2721   -1.6706    0.0000 H   0  0  0  0  0  0  0  0  0  0  0  0
    4.2077   -3.3768    0.0000 H   0  0  0  0  0  0  0  0  0  0  0  0
    4.2120   -1.7906    0.0000 H   0  0  0  0  0  0  0  0  0  0  0  0
    3.6734   -5.0210    0.0000 H   0  0  0  0  0  0  0  0  0  0  0  0
    1.9446   -5.0210    0.0000 H   0  0  0  0  0  0  0  0  0  0  0  0
  1 13  1  0  0  0  0
  1 19  1  0  0  0  0
  2  7  1  0  0  0  0
  2 17  1  0  0  0  0
  3 17  2  0  0  0  0
  4  6  1  0  0  0  0
  5  6  2  0  0  0  0
  6  8  1  0  0  0  0
  7  9  2  0  0  0  0
  7 10  1  0  0  0  0
  8 11  2  0  0  0  0
  8 12  1  0  0  0  0
  9 11  1  0  0  0  0
  9 20  1  0  0  0  0
 10 12  2  0  0  0  0
 10 21  1  0  0  0  0
 11 22  1  0  0  0  0
 12 23  1  0  0  0  0
 13 14  1  0  0  0  0
 13 15  2  0  0  0  0
 14 16  2  3  0  0  0
 14 24  1  0  0  0  0
 15 18  1  0  0  0  0
 15 25  1  0  0  0  0
 16 17  1  0  0  0  0
 16 26  1  0  0  0  0
 18 19  2  0  0  0  0
 18 27  1  0  0  0  0
 19 28  1  0  0  0  0
M  CHG  2   4  -1   6   1
M  END
> <PUBCHEM_COMPOUND_CID>
586291

> <PUBCHEM_COMPOUND_CANONICALIZED>
1

> <PUBCHEM_CACTVS_COMPLEXITY>
358

> <PUBCHEM_CACTVS_HBOND_ACCEPTOR>
5

> <PUBCHEM_CACTVS_HBOND_DONOR>
0

> <PUBCHEM_CACTVS_ROTATABLE_BOND>
4

> <PUBCHEM_CACTVS_SUBSKEYS>
AAADccByOABAAAAAAAAAAAAAAAAAASAAAAAwAAAAAAAAAAABwAAAHgQEAAAACAyF0ACwz4AQRAiNACTSSwCDCIAgKhBoiBgGbMoMJiKksZuCOiDkwBEo6YewQAAAAEAAAAAAAAAAgAAAAAAAAAAAAAAAAA==

> <PUBCHEM_IUPAC_OPENEYE_NAME>
(4-nitrophenyl) 3-(2-thienyl)prop-2-enoate

> <PUBCHEM_IUPAC_CAS_NAME>
3-thiophen-2-yl-2-propenoic acid (4-nitrophenyl) ester

> <PUBCHEM_IUPAC_NAME>
(4-nitrophenyl) 3-thiophen-2-ylprop-2-enoate

> <PUBCHEM_IUPAC_SYSTEMATIC_NAME>
(4-nitrophenyl) 3-thiophen-2-ylprop-2-enoate

> <PUBCHEM_IUPAC_TRADITIONAL_NAME>
3-(2-thienyl)acrylic acid (4-nitrophenyl) ester

> <PUBCHEM_IUPAC_INCHI>
InChI=1S/C13H9NO4S/c15-13(8-7-12-2-1-9-19-12)18-11-5-3-10(4-6-11)14(16)17/h1-9H

> <PUBCHEM_IUPAC_INCHIKEY>
JIAIYOVZZUDUBY-UHFFFAOYSA-N

> <PUBCHEM_XLOGP3_AA>
3.3

> <PUBCHEM_EXACT_MASS>
275.025229

> <PUBCHEM_MOLECULAR_FORMULA>
C13H9NO4S

> <PUBCHEM_MOLECULAR_WEIGHT>
275.27986

> <PUBCHEM_OPENEYE_CAN_SMILES>
C1=CSC(=C1)C=CC(=O)OC2=CC=C(C=C2)[N+](=O)[O-]

> <PUBCHEM_OPENEYE_ISO_SMILES>
C1=CSC(=C1)C=CC(=O)OC2=CC=C(C=C2)[N+](=O)[O-]

> <PUBCHEM_CACTVS_TPSA>
100

> <PUBCHEM_MONOISOTOPIC_WEIGHT>
275.025229

> <PUBCHEM_TOTAL_CHARGE>
0

> <PUBCHEM_HEAVY_ATOM_COUNT>
19

> <PUBCHEM_ATOM_DEF_STEREO_COUNT>
0

> <PUBCHEM_ATOM_UDEF_STEREO_COUNT>
0

> <PUBCHEM_BOND_DEF_STEREO_COUNT>
0

> <PUBCHEM_BOND_UDEF_STEREO_COUNT>
1

> <PUBCHEM_ISOTOPIC_ATOM_COUNT>
0

> <PUBCHEM_COMPONENT_COUNT>
1

> <PUBCHEM_CACTVS_TAUTO_COUNT>
1

> <PUBCHEM_COORDINATE_TYPE>
1
5
255

> <PUBCHEM_BONDANNOTATIONS>
1  13  8
1  19  8
10  12  8
13  15  8
14  16  1
15  18  8
18  19  8
7  10  8
7  9  8
8  11  8
8  12  8
9  11  8

$$$$

