441793
  -OEChem-07051212563D

 49 52  0     1  0  0  0  0  0999 V2000
    2.7108   -0.8892    1.5877 O   0  0  0  0  0  0  0  0  0  0  0  0
    0.8607   -2.5067   -1.1483 O   0  0  0  0  0  0  0  0  0  0  0  0
   -1.7636   -2.6812    0.0941 O   0  0  0  0  0  0  0  0  0  0  0  0
    1.2698    3.0728    0.0548 O   0  0  0  0  0  0  0  0  0  0  0  0
    2.7856    1.3461    2.1467 O   0  0  0  0  0  0  0  0  0  0  0  0
   -4.2901   -2.0893    0.7055 O   0  0  0  0  0  0  0  0  0  0  0  0
    0.3256   -0.3608    0.0009 C   0  0  1  0  0  0  0  0  0  0  0  0
    1.1901    0.7635   -0.6881 C   0  0  2  0  0  0  0  0  0  0  0  0
   -1.2284   -0.3065   -0.2932 C   0  0  2  0  0  0  0  0  0  0  0  0
    2.6753    0.6431   -0.1982 C   0  0  2  0  0  0  0  0  0  0  0  0
    1.0551   -1.7415    0.0285 C   0  0  2  0  0  0  0  0  0  0  0  0
    3.2834   -0.6910   -0.6399 C   0  0  2  0  0  0  0  0  0  0  0  0
   -1.7070    1.1106    0.2161 C   0  0  1  0  0  0  0  0  0  0  0  0
    2.5661   -1.6013    0.3423 C   0  0  1  0  0  0  0  0  0  0  0  0
    0.5782    2.1126   -0.2872 C   0  0  0  0  0  0  0  0  0  0  0  0
   -0.9297    2.2661   -0.4399 C   0  0  0  0  0  0  0  0  0  0  0  0
   -1.9929   -1.3605    0.5639 C   0  0  1  0  0  0  0  0  0  0  0  0
    1.2124    0.7606   -2.2344 C   0  0  0  0  0  0  0  0  0  0  0  0
   -1.5791   -0.5399   -1.7832 C   0  0  0  0  0  0  0  0  0  0  0  0
    2.7446    0.4601    1.3092 C   0  0  0  0  0  0  0  0  0  0  0  0
   -3.2221    1.2635    0.1893 C   0  0  0  0  0  0  0  0  0  0  0  0
    4.8073   -0.7247   -0.4777 C   0  0  0  0  0  0  0  0  0  0  0  0
   -3.5023   -1.1575    0.5442 C   0  0  0  0  0  0  0  0  0  0  0  0
   -4.0386    0.2100    0.3475 C   0  0  0  0  0  0  0  0  0  0  0  0
   -3.8115    2.6412    0.0594 C   0  0  0  0  0  0  0  0  0  0  0  0
    0.3454   -0.0860    1.0696 H   0  0  0  0  0  0  0  0  0  0  0  0
    3.2968    1.4915   -0.5036 H   0  0  0  0  0  0  0  0  0  0  0  0
    0.6331   -2.3222    0.8589 H   0  0  0  0  0  0  0  0  0  0  0  0
    3.0634   -0.9577   -1.6770 H   0  0  0  0  0  0  0  0  0  0  0  0
   -1.4516    1.1718    1.2873 H   0  0  0  0  0  0  0  0  0  0  0  0
    3.0481   -2.5820    0.4142 H   0  0  0  0  0  0  0  0  0  0  0  0
   -1.1929    3.2128    0.0483 H   0  0  0  0  0  0  0  0  0  0  0  0
   -1.1745    2.3803   -1.4996 H   0  0  0  0  0  0  0  0  0  0  0  0
   -1.6694   -1.3083    1.6109 H   0  0  0  0  0  0  0  0  0  0  0  0
    1.1948   -0.2533   -2.6437 H   0  0  0  0  0  0  0  0  0  0  0  0
    0.3885    1.3173   -2.6860 H   0  0  0  0  0  0  0  0  0  0  0  0
    2.1192    1.2507   -2.6110 H   0  0  0  0  0  0  0  0  0  0  0  0
   -1.0003   -1.3491   -2.2307 H   0  0  0  0  0  0  0  0  0  0  0  0
   -2.6323   -0.8069   -1.9228 H   0  0  0  0  0  0  0  0  0  0  0  0
   -1.4313    0.3495   -2.3956 H   0  0  0  0  0  0  0  0  0  0  0  0
    5.1926   -1.7170   -0.7355 H   0  0  0  0  0  0  0  0  0  0  0  0
    5.2758    0.0026   -1.1490 H   0  0  0  0  0  0  0  0  0  0  0  0
    5.1346   -0.4978    0.5420 H   0  0  0  0  0  0  0  0  0  0  0  0
   -0.0354   -2.8806   -1.1103 H   0  0  0  0  0  0  0  0  0  0  0  0
   -5.1182    0.3164    0.3529 H   0  0  0  0  0  0  0  0  0  0  0  0
   -2.1413   -3.2956    0.7466 H   0  0  0  0  0  0  0  0  0  0  0  0
   -3.4405    3.2920    0.8577 H   0  0  0  0  0  0  0  0  0  0  0  0
   -4.9047    2.6320    0.1310 H   0  0  0  0  0  0  0  0  0  0  0  0
   -3.5546    3.0817   -0.9090 H   0  0  0  0  0  0  0  0  0  0  0  0
  1 14  1  0  0  0  0
  1 20  1  0  0  0  0
  2 11  1  0  0  0  0
  2 44  1  0  0  0  0
  3 17  1  0  0  0  0
  3 46  1  0  0  0  0
  4 15  2  0  0  0  0
  5 20  2  0  0  0  0
  6 23  2  0  0  0  0
  7  8  1  0  0  0  0
  7  9  1  0  0  0  0
  7 11  1  0  0  0  0
  7 26  1  0  0  0  0
  8 10  1  0  0  0  0
  8 15  1  0  0  0  0
  8 18  1  0  0  0  0
  9 13  1  0  0  0  0
  9 17  1  0  0  0  0
  9 19  1  0  0  0  0
 10 12  1  0  0  0  0
 10 20  1  0  0  0  0
 10 27  1  0  0  0  0
 11 14  1  0  0  0  0
 11 28  1  0  0  0  0
 12 14  1  0  0  0  0
 12 22  1  0  0  0  0
 12 29  1  0  0  0  0
 13 16  1  0  0  0  0
 13 21  1  0  0  0  0
 13 30  1  0  0  0  0
 14 31  1  0  0  0  0
 15 16  1  0  0  0  0
 16 32  1  0  0  0  0
 16 33  1  0  0  0  0
 17 23  1  0  0  0  0
 17 34  1  0  0  0  0
 18 35  1  0  0  0  0
 18 36  1  0  0  0  0
 18 37  1  0  0  0  0
 19 38  1  0  0  0  0
 19 39  1  0  0  0  0
 19 40  1  0  0  0  0
 21 24  2  0  0  0  0
 21 25  1  0  0  0  0
 22 41  1  0  0  0  0
 22 42  1  0  0  0  0
 22 43  1  0  0  0  0
 23 24  1  0  0  0  0
 24 45  1  0  0  0  0
 25 47  1  0  0  0  0
 25 48  1  0  0  0  0
 25 49  1  0  0  0  0
M  END
> <PUBCHEM_COMPOUND_CID>
441793

> <PUBCHEM_CONFORMER_RMSD>
0.6

> <PUBCHEM_CONFORMER_DIVERSEORDER>
1

> <PUBCHEM_MMFF94_PARTIAL_CHARGES>
22
1 -0.43
10 0.06
11 0.28
13 0.14
14 0.28
15 0.45
16 0.06
17 0.34
2 -0.68
20 0.66
21 -0.28
23 0.49
24 -0.14
25 0.14
3 -0.68
4 -0.57
44 0.4
45 0.15
46 0.4
5 -0.57
6 -0.57
8 0.06

> <PUBCHEM_EFFECTIVE_ROTOR_COUNT>
1

> <PUBCHEM_PHARMACOPHORE_FEATURES>
10
1 2 acceptor
1 2 donor
1 3 acceptor
1 3 donor
1 4 acceptor
1 5 acceptor
1 6 acceptor
6 7 8 9 13 15 16 rings
6 9 13 17 21 23 24 rings
8 1 7 8 10 11 12 14 20 rings

> <PUBCHEM_HEAVY_ATOM_COUNT>
25

> <PUBCHEM_ATOM_DEF_STEREO_COUNT>
9

> <PUBCHEM_ATOM_UDEF_STEREO_COUNT>
0

> <PUBCHEM_BOND_DEF_STEREO_COUNT>
0

> <PUBCHEM_BOND_UDEF_STEREO_COUNT>
0

> <PUBCHEM_ISOTOPIC_ATOM_COUNT>
0

> <PUBCHEM_COMPONENT_COUNT>
1

> <PUBCHEM_CACTVS_TAUTO_COUNT>
30

> <PUBCHEM_CONFORMER_ID>
0006BDC100000001

> <PUBCHEM_MMFF94_ENERGY>
94.8476

> <PUBCHEM_FEATURE_SELFOVERLAP>
50.775

> <PUBCHEM_SHAPE_FINGERPRINT>
10366900 7 18115597087414690889
10616163 171 18412537738878535863
10863032 1 18338796835308645384
10967382 1 18051971712738118813
11578080 2 17387152913405361201
11640471 11 5039659383468185056
12011746 2 18190461747517932356
12382932 28 18339924917248752523
12507560 40 18187650184716649792
12553582 1 18342742922537960685
12633257 1 18269842076090672329
13132413 78 18409445894927741620
13140716 1 18338526334300657752
13224815 77 18335991891120765035
13583140 156 18040439910210983463
14178342 30 18341908371674332714
14223421 5 18338798888535316377
14790565 3 18340196389753793156
15196674 1 18412538812599208892
1601671 61 18338792424751811324
16752209 62 18413386532128004967
16945 1 18129678481434234092
17349148 13 18412272748550589061
17804303 29 18408601495978097938
1813 80 17203322368764445734
19078846 21 18202289125478395976
20559304 39 18269829835449598605
20600515 1 18189882296490668004
20691752 17 16702018647503881565
20905425 154 17039790041438471509
21033648 29 17676781949529599721
21267235 1 18341879797373196867
21421861 104 18055346947221428169
21731516 1 16773804713635418812
21756936 100 17536895277718204632
23184049 29 18268710519991410329
2334 1 18050847711080499925
23419403 2 16749101869945791820
23557571 272 18335411400805840955
23559900 14 18193272112445183118
2748010 2 18336562576563591668
335352 9 18340200920500717781
34934 24 18268992153496873533
350125 39 18342164554153132709
495365 180 17677916684215993681
5104073 3 18411135865795231688
7097593 13 18130797797024635899
7364860 26 18266452101422359212
9709674 26 18263922297208190303

> <PUBCHEM_SHAPE_MULTIPOLES>
479.27
7.16
2.85
1.39
1.19
0.39
0.15
-0.93
-1.46
1.5
-0.08
-0.92
0.13
0.45

> <PUBCHEM_SHAPE_SELFOVERLAP>
1047.557

> <PUBCHEM_SHAPE_VOLUME>
255.6

> <PUBCHEM_COORDINATE_TYPE>
2
5
10

$$$$

