5284267
  -OEChem-07051213103D

 74 77  0     1  0  0  0  0  0999 V2000
   -1.9562    2.0211   -1.5422 O   0  0  0  0  0  0  0  0  0  0  0  0
   -7.0693    2.1515    1.2268 O   0  0  0  0  0  0  0  0  0  0  0  0
    8.1534    1.8041    0.0346 O   0  0  0  0  0  0  0  0  0  0  0  0
    0.5235   -1.3195   -0.1686 C   0  0  1  0  0  0  0  0  0  0  0  0
   -0.1501   -0.2139   -1.0095 C   0  0  2  0  0  0  0  0  0  0  0  0
   -1.6771   -0.3567   -1.0772 C   0  0  1  0  0  0  0  0  0  0  0  0
   -2.2467   -0.2804    0.3767 C   0  0  1  0  0  0  0  0  0  0  0  0
    2.0047   -0.9144   -0.3680 C   0  0  2  0  0  0  0  0  0  0  0  0
    0.0094   -1.1864    1.2710 C   0  0  0  0  0  0  0  0  0  0  0  0
    0.6484   -0.2159   -2.3099 C   0  0  0  0  0  0  0  0  0  0  0  0
   -3.8208   -0.3882    0.4212 C   0  0  2  0  0  0  0  0  0  0  0  0
   -1.5259   -1.2701    1.3348 C   0  0  0  0  0  0  0  0  0  0  0  0
    2.0853   -0.5505   -1.8689 C   0  0  0  0  0  0  0  0  0  0  0  0
   -2.3221    0.7125   -1.9761 C   0  0  1  0  0  0  0  0  0  0  0  0
    3.0533   -1.9346    0.0512 C   0  0  1  0  0  0  0  0  0  0  0  0
    0.2645   -2.7567   -0.6855 C   0  0  0  0  0  0  0  0  0  0  0  0
   -4.4342    0.5864   -0.5920 C   0  0  0  0  0  0  0  0  0  0  0  0
   -3.8434    0.5849   -1.9854 C   0  0  0  0  0  0  0  0  0  0  0  0
   -4.2927   -0.0270    1.8603 C   0  0  0  0  0  0  0  0  0  0  0  0
   -4.3143   -1.8118    0.0758 C   0  0  0  0  0  0  0  0  0  0  0  0
    4.4944   -1.4701   -0.2483 C   0  0  0  0  0  0  0  0  0  0  0  0
    2.8777   -2.3202    1.5222 C   0  0  0  0  0  0  0  0  0  0  0  0
   -5.7805    0.2713    1.9576 C   0  0  0  0  0  0  0  0  0  0  0  0
   -5.4633    1.4057   -0.3167 C   0  0  0  0  0  0  0  0  0  0  0  0
   -6.1597    1.3595    0.9891 C   0  0  0  0  0  0  0  0  0  0  0  0
    4.9026   -0.1421    0.4022 C   0  0  0  0  0  0  0  0  0  0  0  0
    6.3294    0.2469   -0.0016 C   0  0  0  0  0  0  0  0  0  0  0  0
    6.8252    1.6044    0.5376 C   0  0  0  0  0  0  0  0  0  0  0  0
    6.8997    1.6365    2.0656 C   0  0  0  0  0  0  0  0  0  0  0  0
    5.9846    2.7737    0.0236 C   0  0  0  0  0  0  0  0  0  0  0  0
    0.0623    0.7518   -0.5219 H   0  0  0  0  0  0  0  0  0  0  0  0
   -1.9260   -1.3306   -1.5123 H   0  0  0  0  0  0  0  0  0  0  0  0
   -1.9918    0.7238    0.7517 H   0  0  0  0  0  0  0  0  0  0  0  0
    2.1652    0.0107    0.2034 H   0  0  0  0  0  0  0  0  0  0  0  0
    0.3257   -0.2271    1.7005 H   0  0  0  0  0  0  0  0  0  0  0  0
    0.3890   -1.9658    1.9322 H   0  0  0  0  0  0  0  0  0  0  0  0
    0.6068    0.7512   -2.8209 H   0  0  0  0  0  0  0  0  0  0  0  0
    0.2766   -0.9749   -3.0075 H   0  0  0  0  0  0  0  0  0  0  0  0
   -1.8336   -2.2982    1.1194 H   0  0  0  0  0  0  0  0  0  0  0  0
   -1.8248   -1.0705    2.3699 H   0  0  0  0  0  0  0  0  0  0  0  0
    2.4691   -1.3769   -2.4777 H   0  0  0  0  0  0  0  0  0  0  0  0
    2.7483    0.3079   -2.0236 H   0  0  0  0  0  0  0  0  0  0  0  0
   -1.9660    0.6022   -3.0074 H   0  0  0  0  0  0  0  0  0  0  0  0
    2.9238   -2.8542   -0.5345 H   0  0  0  0  0  0  0  0  0  0  0  0
   -0.8007   -2.9947   -0.7486 H   0  0  0  0  0  0  0  0  0  0  0  0
    0.6805   -2.9218   -1.6845 H   0  0  0  0  0  0  0  0  0  0  0  0
    0.7038   -3.5098   -0.0247 H   0  0  0  0  0  0  0  0  0  0  0  0
   -4.1293   -0.3482   -2.4861 H   0  0  0  0  0  0  0  0  0  0  0  0
   -4.2633    1.4060   -2.5804 H   0  0  0  0  0  0  0  0  0  0  0  0
   -3.7461    0.8589    2.2127 H   0  0  0  0  0  0  0  0  0  0  0  0
   -4.0558   -0.8366    2.5610 H   0  0  0  0  0  0  0  0  0  0  0  0
   -5.4052   -1.8452   -0.0287 H   0  0  0  0  0  0  0  0  0  0  0  0
   -3.8953   -2.1793   -0.8660 H   0  0  0  0  0  0  0  0  0  0  0  0
   -4.0486   -2.5320    0.8567 H   0  0  0  0  0  0  0  0  0  0  0  0
    5.1931   -2.2534    0.0743 H   0  0  0  0  0  0  0  0  0  0  0  0
    4.6263   -1.3888   -1.3345 H   0  0  0  0  0  0  0  0  0  0  0  0
    2.6964   -1.4497    2.1603 H   0  0  0  0  0  0  0  0  0  0  0  0
    3.7870   -2.8053    1.8975 H   0  0  0  0  0  0  0  0  0  0  0  0
    2.0854   -3.0579    1.6614 H   0  0  0  0  0  0  0  0  0  0  0  0
   -6.0124    0.6127    2.9725 H   0  0  0  0  0  0  0  0  0  0  0  0
   -6.3887   -0.6142    1.7490 H   0  0  0  0  0  0  0  0  0  0  0  0
   -5.8632    2.0917   -1.0559 H   0  0  0  0  0  0  0  0  0  0  0  0
   -1.0306    2.1725   -1.7958 H   0  0  0  0  0  0  0  0  0  0  0  0
    4.8313   -0.2304    1.4910 H   0  0  0  0  0  0  0  0  0  0  0  0
    4.2186    0.6498    0.0879 H   0  0  0  0  0  0  0  0  0  0  0  0
    7.0251   -0.5391    0.3224 H   0  0  0  0  0  0  0  0  0  0  0  0
    6.4061    0.2578   -1.0977 H   0  0  0  0  0  0  0  0  0  0  0  0
    7.3664    2.5645    2.4160 H   0  0  0  0  0  0  0  0  0  0  0  0
    5.9109    1.5598    2.5276 H   0  0  0  0  0  0  0  0  0  0  0  0
    7.5240    0.8173    2.4397 H   0  0  0  0  0  0  0  0  0  0  0  0
    4.9663    2.7592    0.4236 H   0  0  0  0  0  0  0  0  0  0  0  0
    6.4386    3.7333    0.2979 H   0  0  0  0  0  0  0  0  0  0  0  0
    5.9295    2.7617   -1.0709 H   0  0  0  0  0  0  0  0  0  0  0  0
    8.4850    2.6511    0.3786 H   0  0  0  0  0  0  0  0  0  0  0  0
  1 14  1  0  0  0  0
  1 63  1  0  0  0  0
  2 25  2  0  0  0  0
  3 28  1  0  0  0  0
  3 74  1  0  0  0  0
  4  5  1  0  0  0  0
  4  8  1  0  0  0  0
  4  9  1  0  0  0  0
  4 16  1  0  0  0  0
  5  6  1  0  0  0  0
  5 10  1  0  0  0  0
  5 31  1  0  0  0  0
  6  7  1  0  0  0  0
  6 14  1  0  0  0  0
  6 32  1  0  0  0  0
  7 11  1  0  0  0  0
  7 12  1  0  0  0  0
  7 33  1  0  0  0  0
  8 13  1  0  0  0  0
  8 15  1  0  0  0  0
  8 34  1  0  0  0  0
  9 12  1  0  0  0  0
  9 35  1  0  0  0  0
  9 36  1  0  0  0  0
 10 13  1  0  0  0  0
 10 37  1  0  0  0  0
 10 38  1  0  0  0  0
 11 17  1  0  0  0  0
 11 19  1  0  0  0  0
 11 20  1  0  0  0  0
 12 39  1  0  0  0  0
 12 40  1  0  0  0  0
 13 41  1  0  0  0  0
 13 42  1  0  0  0  0
 14 18  1  0  0  0  0
 14 43  1  0  0  0  0
 15 21  1  0  0  0  0
 15 22  1  0  0  0  0
 15 44  1  0  0  0  0
 16 45  1  0  0  0  0
 16 46  1  0  0  0  0
 16 47  1  0  0  0  0
 17 18  1  0  0  0  0
 17 24  2  0  0  0  0
 18 48  1  0  0  0  0
 18 49  1  0  0  0  0
 19 23  1  0  0  0  0
 19 50  1  0  0  0  0
 19 51  1  0  0  0  0
 20 52  1  0  0  0  0
 20 53  1  0  0  0  0
 20 54  1  0  0  0  0
 21 26  1  0  0  0  0
 21 55  1  0  0  0  0
 21 56  1  0  0  0  0
 22 57  1  0  0  0  0
 22 58  1  0  0  0  0
 22 59  1  0  0  0  0
 23 25  1  0  0  0  0
 23 60  1  0  0  0  0
 23 61  1  0  0  0  0
 24 25  1  0  0  0  0
 24 62  1  0  0  0  0
 26 27  1  0  0  0  0
 26 64  1  0  0  0  0
 26 65  1  0  0  0  0
 27 28  1  0  0  0  0
 27 66  1  0  0  0  0
 27 67  1  0  0  0  0
 28 29  1  0  0  0  0
 28 30  1  0  0  0  0
 29 68  1  0  0  0  0
 29 69  1  0  0  0  0
 29 70  1  0  0  0  0
 30 71  1  0  0  0  0
 30 72  1  0  0  0  0
 30 73  1  0  0  0  0
M  END
> <PUBCHEM_COMPOUND_CID>
5284267

> <PUBCHEM_CONFORMER_RMSD>
0.8

> <PUBCHEM_CONFORMER_DIVERSEORDER>
1
14
5
11
16
9
8
13
4
3
12
7
2
15
6
10

> <PUBCHEM_MMFF94_PARTIAL_CHARGES>
14
1 -0.68
11 0.14
14 0.28
17 -0.28
18 0.14
2 -0.57
23 0.06
24 -0.14
25 0.49
28 0.28
3 -0.68
62 0.15
63 0.4
74 0.4

> <PUBCHEM_EFFECTIVE_ROTOR_COUNT>
6.8

> <PUBCHEM_PHARMACOPHORE_FEATURES>
12
1 1 acceptor
1 1 donor
1 2 acceptor
1 22 hydrophobe
1 3 acceptor
1 3 donor
3 28 29 30 hydrophobe
4 15 21 26 27 hydrophobe
5 4 5 8 10 13 rings
6 11 17 19 23 24 25 rings
6 4 5 6 7 9 12 rings
6 6 7 11 14 17 18 rings

> <PUBCHEM_HEAVY_ATOM_COUNT>
30

> <PUBCHEM_ATOM_DEF_STEREO_COUNT>
8

> <PUBCHEM_ATOM_UDEF_STEREO_COUNT>
0

> <PUBCHEM_BOND_DEF_STEREO_COUNT>
0

> <PUBCHEM_BOND_UDEF_STEREO_COUNT>
0

> <PUBCHEM_ISOTOPIC_ATOM_COUNT>
0

> <PUBCHEM_COMPONENT_COUNT>
1

> <PUBCHEM_CACTVS_TAUTO_COUNT>
5

> <PUBCHEM_CONFORMER_ID>
0050A1AB00000001

> <PUBCHEM_MMFF94_ENERGY>
95.3303

> <PUBCHEM_FEATURE_SELFOVERLAP>
60.992

> <PUBCHEM_SHAPE_FINGERPRINT>
10 15 17561082493281880668
10319926 262 16773797012864441956
10554248 39 16733833149645052860
10670039 82 15213293145079558498
10693767 8 8142091923140090436
10906281 52 16950832696152770443
12011746 2 5544904716591468783
12035758 1 17418088827850063965
12166972 35 12463275999661386383
12236239 1 17313108596134260583
12422481 6 17274831229507180958
12596602 18 18335136501060434218
12838862 33 16917072188107441821
13140716 1 17059188373016549915
13668630 136 10087637091753986472
13690498 29 14274602581915119197
13782708 43 10375869675734925888
14840074 17 17603588538395053072
15131766 46 17967825920340111408
15183329 4 4895560671372017430
15475509 35 13183019593112314844
15510800 12 11167944718829121848
15575132 122 17240480338223522288
15840311 113 18337666515996512965
16994733 274 17967255312079940224
17349148 13 14332829548268203743
17980427 23 18201155468734354567
18393751 57 18342455941355414275
2026 5 10087649195173053472
21033648 29 17988644129065562331
21130935 74 18129937996539235691
21267235 1 16701441515690125367
21298829 104 17967819298028282808
21304303 64 18334576840972931193
21307412 95 6843919498779599668
21637258 2 11600005444708466230
21792934 111 16988288689202433231
22122407 14 18187636977961558824
22393880 68 4750860538161401735
23559900 14 17058933466882014590
23569914 152 10255513593921526368
23576562 1 15719972232296038513
24771293 8 18130222662839462820
2838139 119 17894353259548681256
3383291 50 14836118853635823624
350125 39 16916487255693891543
3882209 13 17053852288168055187
392239 28 18131635564823965580
397830 11 18342166735474526898
4058900 60 16588296215646190302
4093350 32 17894623786505827644
4258327 124 17458067062837667453
4340502 62 17846778529407132282
474113 269 14261359029151870227
50009960 94 16413771697843704019
5104073 3 16629659783364835813
531348 171 10735887166285867043
5364581 5 17916862404993428876
5718773 13 11455883659420646441
6608658 132 16298656269929713928
9689198 14 17895187788636617064

> <PUBCHEM_SHAPE_MULTIPOLES>
599.78
18.79
2.5
2.04
18.32
0.14
-0.23
15.99
8.6
2.32
0.39
-1.3
0.26
0.57

> <PUBCHEM_SHAPE_SELFOVERLAP>
1253.459

> <PUBCHEM_SHAPE_VOLUME>
339.3

> <PUBCHEM_COORDINATE_TYPE>
2
5
10

$$$$

