440806
  -OEChem-07051212503D

 30 31  0     0  0  0  0  0  0999 V2000
    2.7047    3.2669    0.3711 O   0  0  0  0  0  0  0  0  0  0  0  0
   -1.5073   -0.9445   -1.1049 O   0  0  0  0  0  0  0  0  0  0  0  0
   -3.4623    1.7017    0.2895 O   0  0  0  0  0  0  0  0  0  0  0  0
   -5.3954    1.3138   -0.8331 O   0  0  0  0  0  0  0  0  0  0  0  0
    2.6049   -2.1545   -0.4391 N   0  0  0  0  0  0  0  0  0  0  0  0
   -2.9292   -0.8178    0.7258 N   0  0  0  0  0  0  0  0  0  0  0  0
    0.7733   -1.3248    0.5012 C   0  0  0  0  0  0  0  0  0  0  0  0
    1.6793   -0.2524    0.2695 C   0  0  0  0  0  0  0  0  0  0  0  0
    2.8202   -0.7999   -0.3209 C   0  0  0  0  0  0  0  0  0  0  0  0
   -0.5688   -1.2261    1.1092 C   0  0  0  0  0  0  0  0  0  0  0  0
    1.3704   -2.4812    0.0547 C   0  0  0  0  0  0  0  0  0  0  0  0
    1.6381    1.1361    0.5061 C   0  0  0  0  0  0  0  0  0  0  0  0
    3.9266   -0.0254   -0.6878 C   0  0  0  0  0  0  0  0  0  0  0  0
   -1.6979   -0.9848    0.1079 C   0  0  0  0  0  0  0  0  0  0  0  0
    2.7373    1.9233    0.1444 C   0  0  0  0  0  0  0  0  0  0  0  0
    3.8629    1.3495   -0.4433 C   0  0  0  0  0  0  0  0  0  0  0  0
   -4.1445   -0.5731   -0.0151 C   0  0  0  0  0  0  0  0  0  0  0  0
   -4.4124    0.8934   -0.2352 C   0  0  0  0  0  0  0  0  0  0  0  0
   -0.8015   -2.1515    1.6518 H   0  0  0  0  0  0  0  0  0  0  0  0
   -0.5908   -0.4161    1.8487 H   0  0  0  0  0  0  0  0  0  0  0  0
    1.0292   -3.5071    0.0429 H   0  0  0  0  0  0  0  0  0  0  0  0
    3.2632   -2.8120   -0.8338 H   0  0  0  0  0  0  0  0  0  0  0  0
    0.7615    1.5873    0.9629 H   0  0  0  0  0  0  0  0  0  0  0  0
    4.8033   -0.4714   -1.1453 H   0  0  0  0  0  0  0  0  0  0  0  0
    4.7093    1.9745   -0.7187 H   0  0  0  0  0  0  0  0  0  0  0  0
   -2.9855   -0.8492    1.7396 H   0  0  0  0  0  0  0  0  0  0  0  0
   -4.9684   -0.9947    0.5674 H   0  0  0  0  0  0  0  0  0  0  0  0
   -4.0799   -1.0659   -0.9897 H   0  0  0  0  0  0  0  0  0  0  0  0
    1.8542    3.4969    0.7831 H   0  0  0  0  0  0  0  0  0  0  0  0
   -3.6587    2.6499    0.1322 H   0  0  0  0  0  0  0  0  0  0  0  0
  1 15  1  0  0  0  0
  1 29  1  0  0  0  0
  2 14  2  0  0  0  0
  3 18  1  0  0  0  0
  3 30  1  0  0  0  0
  4 18  2  0  0  0  0
  5  9  1  0  0  0  0
  5 11  1  0  0  0  0
  5 22  1  0  0  0  0
  6 14  1  0  0  0  0
  6 17  1  0  0  0  0
  6 26  1  0  0  0  0
  7  8  1  0  0  0  0
  7 10  1  0  0  0  0
  7 11  2  0  0  0  0
  8  9  2  0  0  0  0
  8 12  1  0  0  0  0
  9 13  1  0  0  0  0
 10 14  1  0  0  0  0
 10 19  1  0  0  0  0
 10 20  1  0  0  0  0
 11 21  1  0  0  0  0
 12 15  2  0  0  0  0
 12 23  1  0  0  0  0
 13 16  2  0  0  0  0
 13 24  1  0  0  0  0
 15 16  1  0  0  0  0
 16 25  1  0  0  0  0
 17 18  1  0  0  0  0
 17 27  1  0  0  0  0
 17 28  1  0  0  0  0
M  END
> <PUBCHEM_COMPOUND_CID>
440806

> <PUBCHEM_CONFORMER_RMSD>
0.6

> <PUBCHEM_CONFORMER_DIVERSEORDER>
1
18
121
81
50
65
54
116
117
84
105
30
104
32
87
17
122
28
109
93
62
70
115
112
78
74
37
101
16
88
86
23
60
40
90
57
80
113
34
43
31
39
111
29
94
41
22
53
107
55
98
19
114
61
24
77
66
21
102
51
72
4
79
73
25
49
108
95
56
97
119
59
20
14
10
91
100
85
83
47
124
67
3
106
58
11
120
15
76
110
33
69
45
89
96
38
5
42
118
99
63
71
103
82
27
44
92
123
48
6
2
52
8
64
12
36
9
26
13
46
75
35
68
7

> <PUBCHEM_MMFF94_PARTIAL_CHARGES>
25
1 -0.53
10 0.24
11 -0.3
12 -0.15
13 -0.15
14 0.57
15 0.08
16 -0.15
17 0.36
18 0.66
2 -0.57
21 0.15
22 0.27
23 0.15
24 0.15
25 0.15
26 0.37
29 0.45
3 -0.65
30 0.5
4 -0.57
5 0.03
6 -0.73
7 -0.18
9 -0.15

> <PUBCHEM_EFFECTIVE_ROTOR_COUNT>
5

> <PUBCHEM_PHARMACOPHORE_FEATURES>
10
1 1 donor
1 2 acceptor
1 3 acceptor
1 4 acceptor
1 5 cation
1 5 donor
1 6 donor
3 3 4 18 anion
5 5 7 8 9 11 rings
6 8 9 12 13 15 16 rings

> <PUBCHEM_HEAVY_ATOM_COUNT>
18

> <PUBCHEM_ATOM_DEF_STEREO_COUNT>
0

> <PUBCHEM_ATOM_UDEF_STEREO_COUNT>
0

> <PUBCHEM_BOND_DEF_STEREO_COUNT>
0

> <PUBCHEM_BOND_UDEF_STEREO_COUNT>
0

> <PUBCHEM_ISOTOPIC_ATOM_COUNT>
0

> <PUBCHEM_COMPONENT_COUNT>
1

> <PUBCHEM_CACTVS_TAUTO_COUNT>
16

> <PUBCHEM_CONFORMER_ID>
0006B9E600000001

> <PUBCHEM_MMFF94_ENERGY>
26.9073

> <PUBCHEM_FEATURE_SELFOVERLAP>
50.894

> <PUBCHEM_SHAPE_FINGERPRINT>
10498660 4 18272094902876528477
10608611 8 18341046328851714243
11471102 20 18409728482517103606
11543360 7 18260272915194830487
11595378 159 15410621440618527405
12596602 18 14333113174939121053
12654215 9 18410848850822430762
12730499 353 18341885290884405555
12769317 202 18408610236031148512
13464514 151 18412819192575588994
14123255 52 18337674100808550083
14252887 29 12319467588614858744
14415576 193 18411415085908894798
14848178 96 18342177752239818013
15210252 30 18059563690231269228
16945 1 18190723260262007090
17134986 127 18336264531581908438
18186145 218 18115572756630531634
20621476 13 18411986827824706909
20645477 70 18187638137117548407
21709351 56 18334860485029179470
221357 26 18336546126828486901
22289505 5 18338801224870840644
22892500 29 18411701006197940462
231179 274 18410852153177586142
23402655 69 18334292071750457894
23557571 272 17702369659851990291
23559900 14 18337676428787021475
25 1 18412544288946463202
2748010 2 17614260192965877762
3060560 45 18186516627136677078
4028521 119 18413671314250658561
4072396 5 18410866477690214106
474 4 18060135401706165285
5104073 3 18201717379811832715
5281201 14 18336256920789213679
543358 83 18336541741302575427
5895379 119 17970347242041110320
76465 3 6411027404521716884
84936 182 18187930525832687048

> <PUBCHEM_SHAPE_MULTIPOLES>
336.99
9.21
2.7
0.87
10.78
0.9
0
4.92
2.1
-1.87
-0.2
0.12
-0.09
0.63

> <PUBCHEM_SHAPE_SELFOVERLAP>
723.61

> <PUBCHEM_SHAPE_VOLUME>
186.3

> <PUBCHEM_COORDINATE_TYPE>
2
5
10

$$$$

