90363
  -OEChem-07051213002D

 22 23  0     0  0  0  0  0  0999 V2000
    5.4921   -2.2694    0.0000 Cl  0  0  0  0  0  0  0  0  0  0  0  0
    2.0280   -2.2694    0.0000 Cl  0  0  0  0  0  0  0  0  0  0  0  0
    5.5202    1.0094    0.0000 O   0  0  0  0  0  0  0  0  0  0  0  0
    2.0000    1.0094    0.0000 O   0  0  0  0  0  0  0  0  0  0  0  0
    3.7601    0.7306    0.0000 N   0  0  0  0  0  0  0  0  0  0  0  0
    4.2601    2.2694    0.0000 C   0  0  0  0  0  0  0  0  0  0  0  0
    3.2601    2.2694    0.0000 C   0  0  0  0  0  0  0  0  0  0  0  0
    4.5691    1.3184    0.0000 C   0  0  0  0  0  0  0  0  0  0  0  0
    2.9511    1.3184    0.0000 C   0  0  0  0  0  0  0  0  0  0  0  0
    3.7601   -0.2694    0.0000 C   0  0  0  0  0  0  0  0  0  0  0  0
    2.8940   -0.7694    0.0000 C   0  0  0  0  0  0  0  0  0  0  0  0
    4.6261   -0.7694    0.0000 C   0  0  0  0  0  0  0  0  0  0  0  0
    4.6261   -1.7694    0.0000 C   0  0  0  0  0  0  0  0  0  0  0  0
    2.8940   -1.7694    0.0000 C   0  0  0  0  0  0  0  0  0  0  0  0
    3.7601   -2.2694    0.0000 C   0  0  0  0  0  0  0  0  0  0  0  0
    4.8665    2.3983    0.0000 H   0  0  0  0  0  0  0  0  0  0  0  0
    4.1953    2.8860    0.0000 H   0  0  0  0  0  0  0  0  0  0  0  0
    3.3249    2.8860    0.0000 H   0  0  0  0  0  0  0  0  0  0  0  0
    2.6536    2.3983    0.0000 H   0  0  0  0  0  0  0  0  0  0  0  0
    2.3571   -0.4594    0.0000 H   0  0  0  0  0  0  0  0  0  0  0  0
    5.1630   -0.4594    0.0000 H   0  0  0  0  0  0  0  0  0  0  0  0
    3.7601   -2.8894    0.0000 H   0  0  0  0  0  0  0  0  0  0  0  0
  1 13  1  0  0  0  0
  2 14  1  0  0  0  0
  3  8  2  0  0  0  0
  4  9  2  0  0  0  0
  5  8  1  0  0  0  0
  5  9  1  0  0  0  0
  5 10  1  0  0  0  0
  6  7  1  0  0  0  0
  6  8  1  0  0  0  0
  6 16  1  0  0  0  0
  6 17  1  0  0  0  0
  7  9  1  0  0  0  0
  7 18  1  0  0  0  0
  7 19  1  0  0  0  0
 10 11  2  0  0  0  0
 10 12  1  0  0  0  0
 11 14  1  0  0  0  0
 11 20  1  0  0  0  0
 12 13  2  0  0  0  0
 12 21  1  0  0  0  0
 13 15  1  0  0  0  0
 14 15  2  0  0  0  0
 15 22  1  0  0  0  0
M  END
> <PUBCHEM_COMPOUND_CID>
90363

> <PUBCHEM_COMPOUND_CANONICALIZED>
1

> <PUBCHEM_CACTVS_COMPLEXITY>
269

> <PUBCHEM_CACTVS_HBOND_ACCEPTOR>
2

> <PUBCHEM_CACTVS_HBOND_DONOR>
0

> <PUBCHEM_CACTVS_ROTATABLE_BOND>
1

> <PUBCHEM_CACTVS_SUBSKEYS>
AAADcYByMAAGAAAAAAAAAAAAAAAAAWAAAAAwAAAAAAAAAAABAAAAHgIAAAAACAqBkCAwwIMAAACIACVSUACCAAAhBwAAiAEAZogIIDLBk5GEIAhghCDIyAcVAAAAAAAAAAKAAAAAAAAABQAAAAAAAAAAAA==

> <PUBCHEM_IUPAC_OPENEYE_NAME>
1-(3,5-dichlorophenyl)pyrrolidine-2,5-dione

> <PUBCHEM_IUPAC_CAS_NAME>
1-(3,5-dichlorophenyl)pyrrolidine-2,5-dione

> <PUBCHEM_IUPAC_NAME>
1-(3,5-dichlorophenyl)pyrrolidine-2,5-dione

> <PUBCHEM_IUPAC_SYSTEMATIC_NAME>
1-[3,5-bis(chloranyl)phenyl]pyrrolidine-2,5-dione

> <PUBCHEM_IUPAC_TRADITIONAL_NAME>
1-(3,5-dichlorophenyl)pyrrolidine-2,5-quinone

> <PUBCHEM_IUPAC_INCHI>
InChI=1S/C10H7Cl2NO2/c11-6-3-7(12)5-8(4-6)13-9(14)1-2-10(13)15/h3-5H,1-2H2

> <PUBCHEM_IUPAC_INCHIKEY>
CFZLNRGUBAVQNO-UHFFFAOYSA-N

> <PUBCHEM_XLOGP3>
1.6

> <PUBCHEM_EXACT_MASS>
242.985384

> <PUBCHEM_MOLECULAR_FORMULA>
C10H7Cl2NO2

> <PUBCHEM_MOLECULAR_WEIGHT>
244.07408

> <PUBCHEM_OPENEYE_CAN_SMILES>
C1CC(=O)N(C1=O)C2=CC(=CC(=C2)Cl)Cl

> <PUBCHEM_OPENEYE_ISO_SMILES>
C1CC(=O)N(C1=O)C2=CC(=CC(=C2)Cl)Cl

> <PUBCHEM_CACTVS_TPSA>
37.4

> <PUBCHEM_MONOISOTOPIC_WEIGHT>
242.985384

> <PUBCHEM_TOTAL_CHARGE>
0

> <PUBCHEM_HEAVY_ATOM_COUNT>
15

> <PUBCHEM_ATOM_DEF_STEREO_COUNT>
0

> <PUBCHEM_ATOM_UDEF_STEREO_COUNT>
0

> <PUBCHEM_BOND_DEF_STEREO_COUNT>
0

> <PUBCHEM_BOND_UDEF_STEREO_COUNT>
0

> <PUBCHEM_ISOTOPIC_ATOM_COUNT>
0

> <PUBCHEM_COMPONENT_COUNT>
1

> <PUBCHEM_CACTVS_TAUTO_COUNT>
3

> <PUBCHEM_COORDINATE_TYPE>
1
5
255

> <PUBCHEM_BONDANNOTATIONS>
10  11  8
10  12  8
11  14  8
12  13  8
13  15  8
14  15  8

$$$$

