13676
  -OEChem-07051213132D

 29 29  0     1  0  0  0  0  0999 V2000
    2.8660    0.2500    0.0000 S   0  0  0  0  0  0  0  0  0  0  0  0
    4.2320   -0.1160    0.0000 S   0  0  0  0  0  0  0  0  0  0  0  0
    3.7320    0.7500    0.0000 P   0  0  3  0  0  0  0  0  0  0  0  0
    4.5981    1.2500    0.0000 O   0  0  0  0  0  0  0  0  0  0  0  0
    3.2320    1.6160    0.0000 C   0  0  0  0  0  0  0  0  0  0  0  0
    2.2320    1.6160    0.0000 C   0  0  0  0  0  0  0  0  0  0  0  0
    4.5981    2.2500    0.0000 C   0  0  0  0  0  0  0  0  0  0  0  0
    2.8660   -0.7500    0.0000 C   0  0  0  0  0  0  0  0  0  0  0  0
    5.4641    2.7500    0.0000 C   0  0  0  0  0  0  0  0  0  0  0  0
    2.0000   -1.2500    0.0000 C   0  0  0  0  0  0  0  0  0  0  0  0
    3.7320   -1.2500    0.0000 C   0  0  0  0  0  0  0  0  0  0  0  0
    2.0000   -2.2500    0.0000 C   0  0  0  0  0  0  0  0  0  0  0  0
    3.7320   -2.2500    0.0000 C   0  0  0  0  0  0  0  0  0  0  0  0
    2.8660   -2.7500    0.0000 C   0  0  0  0  0  0  0  0  0  0  0  0
    3.8147    1.8281    0.0000 H   0  0  0  0  0  0  0  0  0  0  0  0
    3.1244    2.2266    0.0000 H   0  0  0  0  0  0  0  0  0  0  0  0
    2.2320    2.2360    0.0000 H   0  0  0  0  0  0  0  0  0  0  0  0
    1.6120    1.6160    0.0000 H   0  0  0  0  0  0  0  0  0  0  0  0
    2.2320    0.9960    0.0000 H   0  0  0  0  0  0  0  0  0  0  0  0
    4.3860    2.8326    0.0000 H   0  0  0  0  0  0  0  0  0  0  0  0
    3.9875    2.1423    0.0000 H   0  0  0  0  0  0  0  0  0  0  0  0
    5.7741    2.2131    0.0000 H   0  0  0  0  0  0  0  0  0  0  0  0
    6.0010    3.0600    0.0000 H   0  0  0  0  0  0  0  0  0  0  0  0
    5.1541    3.2869    0.0000 H   0  0  0  0  0  0  0  0  0  0  0  0
    1.4631   -0.9400    0.0000 H   0  0  0  0  0  0  0  0  0  0  0  0
    4.2690   -0.9400    0.0000 H   0  0  0  0  0  0  0  0  0  0  0  0
    1.4631   -2.5600    0.0000 H   0  0  0  0  0  0  0  0  0  0  0  0
    4.2690   -2.5600    0.0000 H   0  0  0  0  0  0  0  0  0  0  0  0
    2.8660   -3.3700    0.0000 H   0  0  0  0  0  0  0  0  0  0  0  0
  1  3  1  0  0  0  0
  1  8  1  0  0  0  0
  2  3  2  0  0  0  0
  3  4  1  0  0  0  0
  3  5  1  0  0  0  0
  4  7  1  0  0  0  0
  5  6  1  0  0  0  0
  5 15  1  0  0  0  0
  5 16  1  0  0  0  0
  6 17  1  0  0  0  0
  6 18  1  0  0  0  0
  6 19  1  0  0  0  0
  7  9  1  0  0  0  0
  7 20  1  0  0  0  0
  7 21  1  0  0  0  0
  8 10  2  0  0  0  0
  8 11  1  0  0  0  0
  9 22  1  0  0  0  0
  9 23  1  0  0  0  0
  9 24  1  0  0  0  0
 10 12  1  0  0  0  0
 10 25  1  0  0  0  0
 11 13  2  0  0  0  0
 11 26  1  0  0  0  0
 12 14  2  0  0  0  0
 12 27  1  0  0  0  0
 13 14  1  0  0  0  0
 13 28  1  0  0  0  0
 14 29  1  0  0  0  0
M  END
> <PUBCHEM_COMPOUND_CID>
13676

> <PUBCHEM_COMPOUND_CANONICALIZED>
1

> <PUBCHEM_CACTVS_COMPLEXITY>
202

> <PUBCHEM_CACTVS_HBOND_ACCEPTOR>
3

> <PUBCHEM_CACTVS_HBOND_DONOR>
0

> <PUBCHEM_CACTVS_ROTATABLE_BOND>
5

> <PUBCHEM_CACTVS_SUBSKEYS>
AAADccBwIAJgAAAAAAAAAAAAAAAAAAAAAAAwAAAAAAAAAAABAAAAGgwAACAACACo0AIyAYAAAQCAACBCAAACAAAgAAAIiBgAAIgIICKAERCAIAAggAAIiAcAAAAAAAAAAAAAAAAAAAAAAAAAAAAAAAAAAA==

> <PUBCHEM_IUPAC_OPENEYE_NAME>
ethoxy-ethyl-phenylsulfanyl-thioxo-$l^{5}-phosphane

> <PUBCHEM_IUPAC_CAS_NAME>
ethoxy-ethyl-(phenylthio)-sulfanylidenephosphorane

> <PUBCHEM_IUPAC_NAME>
ethoxy-ethyl-phenylsulfanyl-sulfanylidene-$l^{5}-phosphane

> <PUBCHEM_IUPAC_SYSTEMATIC_NAME>
ethoxy-ethyl-phenylsulfanyl-sulfanylidene-$l^{5}-phosphane

> <PUBCHEM_IUPAC_TRADITIONAL_NAME>
ethoxy-ethyl-(phenylthio)-thioxo-phosphorane

> <PUBCHEM_IUPAC_INCHI>
InChI=1S/C10H15OPS2/c1-3-11-12(13,4-2)14-10-8-6-5-7-9-10/h5-9H,3-4H2,1-2H3

> <PUBCHEM_IUPAC_INCHIKEY>
KVGLBTYUCJYMND-UHFFFAOYSA-N

> <PUBCHEM_XLOGP3>
3.9

> <PUBCHEM_EXACT_MASS>
246.030194

> <PUBCHEM_MOLECULAR_FORMULA>
C10H15OPS2

> <PUBCHEM_MOLECULAR_WEIGHT>
246.329262

> <PUBCHEM_OPENEYE_CAN_SMILES>
CCOP(=S)(CC)SC1=CC=CC=C1

> <PUBCHEM_OPENEYE_ISO_SMILES>
CCOP(=S)(CC)SC1=CC=CC=C1

> <PUBCHEM_CACTVS_TPSA>
66.6

> <PUBCHEM_MONOISOTOPIC_WEIGHT>
246.030194

> <PUBCHEM_TOTAL_CHARGE>
0

> <PUBCHEM_HEAVY_ATOM_COUNT>
14

> <PUBCHEM_ATOM_DEF_STEREO_COUNT>
0

> <PUBCHEM_ATOM_UDEF_STEREO_COUNT>
1

> <PUBCHEM_BOND_DEF_STEREO_COUNT>
0

> <PUBCHEM_BOND_UDEF_STEREO_COUNT>
0

> <PUBCHEM_ISOTOPIC_ATOM_COUNT>
0

> <PUBCHEM_COMPONENT_COUNT>
1

> <PUBCHEM_CACTVS_TAUTO_COUNT>
1

> <PUBCHEM_COORDINATE_TYPE>
1
5
255

> <PUBCHEM_BONDANNOTATIONS>
10  12  8
11  13  8
12  14  8
13  14  8
3  5  3
8  10  8
8  11  8

$$$$

