23724754
  -OEChem-07051213083D

 53 55  0     1  0  0  0  0  0999 V2000
    5.4760   -2.8856   -0.3677 P   0  0  0  0  0  0  0  0  0  0  0  0
    2.6768    0.4102   -0.7348 O   0  0  0  0  0  0  0  0  0  0  0  0
    3.0403    3.5587   -0.2365 O   0  0  0  0  0  0  0  0  0  0  0  0
    4.5376    2.3185    1.6745 O   0  0  0  0  0  0  0  0  0  0  0  0
    4.8176   -1.4282   -0.6202 O   0  0  0  0  0  0  0  0  0  0  0  0
    6.7330   -2.5527    0.5936 O   0  0  0  0  0  0  0  0  0  0  0  0
    4.4291   -3.6125    0.6275 O   0  0  0  0  0  0  0  0  0  0  0  0
    5.8157   -3.6519   -1.6127 O   0  0  0  0  0  0  0  0  0  0  0  0
   -5.9239   -3.3829   -1.3357 O   0  0  0  0  0  0  0  0  0  0  0  0
    0.4616    1.0378   -0.1568 N   0  0  0  0  0  0  0  0  0  0  0  0
   -1.0740   -0.2494    0.8204 N   0  0  0  0  0  0  0  0  0  0  0  0
   -0.9841    2.6576   -1.2460 N   0  0  0  0  0  0  0  0  0  0  0  0
   -4.0449    0.3315    0.5358 N   0  0  0  0  0  0  0  0  0  0  0  0
   -3.3372    2.1805   -0.8087 N   0  0  0  0  0  0  0  0  0  0  0  0
    2.4184    2.4776    0.4563 C   0  0  2  0  0  0  0  0  0  0  0  0
    3.4487    1.5976    1.1388 C   0  0  1  0  0  0  0  0  0  0  0  0
    1.7806    1.5285   -0.5598 C   0  0  1  0  0  0  0  0  0  0  0  0
    3.8749    0.6687    0.0152 C   0  0  1  0  0  0  0  0  0  0  0  0
    4.4676   -0.6405    0.5043 C   0  0  0  0  0  0  0  0  0  0  0  0
   -0.7492    1.5760   -0.4880 C   0  0  0  0  0  0  0  0  0  0  0  0
    0.2144   -0.0566    0.6291 C   0  0  0  0  0  0  0  0  0  0  0  0
   -1.6880    0.7638    0.1278 C   0  0  0  0  0  0  0  0  0  0  0  0
   -3.0398    1.0888   -0.0458 C   0  0  0  0  0  0  0  0  0  0  0  0
   -6.2986   -0.4501    1.0787 C   0  0  0  0  0  0  0  0  0  0  0  0
   -6.0586   -1.8938    0.5847 C   0  0  2  0  0  0  0  0  0  0  0  0
   -5.4512    0.6194    0.3909 C   0  0  0  0  0  0  0  0  0  0  0  0
   -2.3121    2.8820   -1.3498 C   0  0  0  0  0  0  0  0  0  0  0  0
   -6.2148   -2.0518   -0.9335 C   0  0  0  0  0  0  0  0  0  0  0  0
   -7.0160   -2.8412    1.3183 C   0  0  0  0  0  0  0  0  0  0  0  0
    1.7100    2.9195    1.1632 H   0  0  0  0  0  0  0  0  0  0  0  0
    2.9687    1.0299    1.9446 H   0  0  0  0  0  0  0  0  0  0  0  0
    1.6546    1.9977   -1.5425 H   0  0  0  0  0  0  0  0  0  0  0  0
    4.5890    1.1520   -0.6638 H   0  0  0  0  0  0  0  0  0  0  0  0
    3.7314   -1.1905    1.0993 H   0  0  0  0  0  0  0  0  0  0  0  0
    5.3560   -0.4521    1.1148 H   0  0  0  0  0  0  0  0  0  0  0  0
    3.6324    3.1925   -0.9145 H   0  0  0  0  0  0  0  0  0  0  0  0
    4.9287    2.8493    0.9601 H   0  0  0  0  0  0  0  0  0  0  0  0
    1.0031   -0.6734    1.0381 H   0  0  0  0  0  0  0  0  0  0  0  0
   -6.1068   -0.4133    2.1593 H   0  0  0  0  0  0  0  0  0  0  0  0
   -7.3559   -0.1894    0.9415 H   0  0  0  0  0  0  0  0  0  0  0  0
   -5.0429   -2.2076    0.8567 H   0  0  0  0  0  0  0  0  0  0  0  0
   -5.7230    0.6948   -0.6678 H   0  0  0  0  0  0  0  0  0  0  0  0
   -5.6744    1.5909    0.8482 H   0  0  0  0  0  0  0  0  0  0  0  0
   -3.7561   -0.4353    1.1331 H   0  0  0  0  0  0  0  0  0  0  0  0
   -2.5980    3.7408   -1.9476 H   0  0  0  0  0  0  0  0  0  0  0  0
   -7.2356   -1.8086   -1.2475 H   0  0  0  0  0  0  0  0  0  0  0  0
   -5.5218   -1.3979   -1.4701 H   0  0  0  0  0  0  0  0  0  0  0  0
   -6.9019   -2.7444    2.4035 H   0  0  0  0  0  0  0  0  0  0  0  0
   -8.0598   -2.6236    1.0670 H   0  0  0  0  0  0  0  0  0  0  0  0
   -6.8162   -3.8863    1.0602 H   0  0  0  0  0  0  0  0  0  0  0  0
    7.3596   -3.2721    0.8219 H   0  0  0  0  0  0  0  0  0  0  0  0
    4.5808   -4.5498    0.8737 H   0  0  0  0  0  0  0  0  0  0  0  0
   -6.0435   -3.4231   -2.2998 H   0  0  0  0  0  0  0  0  0  0  0  0
  1  5  1  0  0  0  0
  1  6  1  0  0  0  0
  1  7  1  0  0  0  0
  1  8  2  0  0  0  0
  2 17  1  0  0  0  0
  2 18  1  0  0  0  0
  3 15  1  0  0  0  0
  3 36  1  0  0  0  0
  4 16  1  0  0  0  0
  4 37  1  0  0  0  0
  5 19  1  0  0  0  0
  6 51  1  0  0  0  0
  7 52  1  0  0  0  0
  9 28  1  0  0  0  0
  9 53  1  0  0  0  0
 10 17  1  0  0  0  0
 10 20  1  0  0  0  0
 10 21  1  0  0  0  0
 11 21  2  0  0  0  0
 11 22  1  0  0  0  0
 12 20  2  0  0  0  0
 12 27  1  0  0  0  0
 13 23  1  0  0  0  0
 13 26  1  0  0  0  0
 13 44  1  0  0  0  0
 14 23  1  0  0  0  0
 14 27  2  0  0  0  0
 15 16  1  0  0  0  0
 15 17  1  0  0  0  0
 15 30  1  0  0  0  0
 16 18  1  0  0  0  0
 16 31  1  0  0  0  0
 17 32  1  0  0  0  0
 18 19  1  0  0  0  0
 18 33  1  0  0  0  0
 19 34  1  0  0  0  0
 19 35  1  0  0  0  0
 20 22  1  0  0  0  0
 21 38  1  0  0  0  0
 22 23  2  0  0  0  0
 24 25  1  0  0  0  0
 24 26  1  0  0  0  0
 24 39  1  0  0  0  0
 24 40  1  0  0  0  0
 25 28  1  0  0  0  0
 25 29  1  0  0  0  0
 25 41  1  0  0  0  0
 26 42  1  0  0  0  0
 26 43  1  0  0  0  0
 27 45  1  0  0  0  0
 28 46  1  0  0  0  0
 28 47  1  0  0  0  0
 29 48  1  0  0  0  0
 29 49  1  0  0  0  0
 29 50  1  0  0  0  0
M  END
> <PUBCHEM_COMPOUND_CID>
23724754

> <PUBCHEM_CONFORMER_RMSD>
1

> <PUBCHEM_CONFORMER_DIVERSEORDER>
1
191
99
172
257
107
269
104
265
118
26
32
84
196
120
43
266
109
212
119
179
264
204
277
66
42
75
253
53
233
31
134
130
89
140
126
94
202
245
79
138
229
201
127
181
27
244
243
132
240
197
206
182
51
114
14
242
52
194
247
97
207
110
91
17
278
215
40
183
175
200
30
144
105
103
260
57
111
280
224
121
147
275
254
20
187
50
74
157
86
38
190
70
185
101
284
208
108
35
161
151
225
148
238
236
28
180
177
7
203
23
279
19
227
222
55
262
263
232
167
81
128
124
163
72
88
267
241
56
176
123
230
211
189
34
115
131
24
164
246
9
116
219
251
143
16
29
259
282
71
112
8
198
250
258
174
165
102
67
234
142
65
133
73
33
186
49
54
192
77
237
158
129
135
62
41
83
154
90
117
283
252
268
92
48
223
5
213
96
47
226
155
95
270
153
139
156
85
152
188
256
239
214
10
18
39
216
63
25
3
15
106
58
221
249
37
45
80
178
168
273
44
255
218
261
166
59
21
2
4
235
150
136
113
60
271
248
36
61
149
98
22
100
145
76
276
87
93
210
69
274
162
217
13
195
231
170
272
11
228
184
205
220
122
209
281
78
46
6
159
193
169
160
141
199
12
171
68
64
137
82
125
146
173

> <PUBCHEM_MMFF94_PARTIAL_CHARGES>
34
1 1.51
10 0.05
11 -0.57
12 -0.57
13 -0.87
14 -0.62
15 0.28
16 0.28
17 0.54
18 0.28
19 0.28
2 -0.56
20 0.11
21 0.04
22 0.23
23 0.41
26 0.37
27 0.47
28 0.28
3 -0.68
36 0.4
37 0.4
38 0.15
4 -0.68
44 0.4
45 0.15
5 -0.55
51 0.5
52 0.5
53 0.4
6 -0.77
7 -0.77
8 -0.7
9 -0.68

> <PUBCHEM_EFFECTIVE_ROTOR_COUNT>
10

> <PUBCHEM_PHARMACOPHORE_FEATURES>
20
1 13 cation
1 13 donor
1 2 acceptor
1 29 hydrophobe
1 3 acceptor
1 3 donor
1 4 acceptor
1 4 donor
1 6 acceptor
1 7 acceptor
1 8 acceptor
1 9 acceptor
1 9 donor
3 10 11 21 cation
3 10 12 20 cation
3 12 14 27 cation
4 1 6 7 8 anion
5 10 11 20 21 22 rings
5 2 15 16 17 18 rings
6 12 14 20 22 23 27 rings

> <PUBCHEM_HEAVY_ATOM_COUNT>
29

> <PUBCHEM_ATOM_DEF_STEREO_COUNT>
4

> <PUBCHEM_ATOM_UDEF_STEREO_COUNT>
1

> <PUBCHEM_BOND_DEF_STEREO_COUNT>
0

> <PUBCHEM_BOND_UDEF_STEREO_COUNT>
0

> <PUBCHEM_ISOTOPIC_ATOM_COUNT>
0

> <PUBCHEM_COMPONENT_COUNT>
1

> <PUBCHEM_CACTVS_TAUTO_COUNT>
3

> <PUBCHEM_CONFORMER_ID>
016A02D200000001

> <PUBCHEM_MMFF94_ENERGY>
29.5301

> <PUBCHEM_FEATURE_SELFOVERLAP>
102.141

> <PUBCHEM_SHAPE_FINGERPRINT>
10571361 74 17971200223106012375
12403259 226 18341898532020977388
12422481 6 18040997337021410359
12623949 98 18336254682979111246
12717326 69 18040998393293500950
13533116 47 18334009484741240864
1361 4 18264488382562090703
13782708 43 18409448106851495723
13862211 1 17845941711001283625
14211702 104 18340763746259147307
14347332 77 18271524298784639221
14950920 106 17894346700838260385
17492 89 18410014351150587928
18222031 100 17132116810275803861
18393751 57 17758696450748057688
20028762 73 18269556044633994203
20505436 4 17169554000565917036
20715895 44 8502368919545460918
21049683 271 18410568510340189180
21130935 74 18336257947871914899
21424621 283 7637404017068864261
21682296 61 18411131468112723243
23522609 53 18052500461525220788
23559900 14 18271249447365553996
23569943 247 18270677684002325971
312425 54 18259977159625577177
3610482 184 14332860352237777831
465052 167 18334570257135595990
50009960 94 17914360063090626042
5104073 3 17967809461998994921
5718773 13 18413108385313482114
636775 8 18118955027099038174
8863177 126 18410855490477918950
9831232 110 18342454867550150399

> <PUBCHEM_SHAPE_MULTIPOLES>
528.8
18.64
4.73
1.27
11.21
2.63
-0.06
22.31
2.03
-3.76
-1.19
0.27
0.16
2.05

> <PUBCHEM_SHAPE_SELFOVERLAP>
1091.825

> <PUBCHEM_SHAPE_VOLUME>
305.8

> <PUBCHEM_COORDINATE_TYPE>
2
5
10

$$$$

