636458
  -OEChem-07051213092D

 36 37  0     0  0  0  0  0  0999 V2000
    2.0000    1.0590    0.0000 O   0  0  0  0  0  0  0  0  0  0  0  0
    3.6030    0.8919    0.0000 C   0  0  0  0  0  0  0  0  0  0  0  0
    2.7370    0.3919    0.0000 C   0  0  0  0  0  0  0  0  0  0  0  0
    2.7370   -0.6081    0.0000 C   0  0  0  0  0  0  0  0  0  0  0  0
    4.4691    0.3919    0.0000 C   0  0  0  0  0  0  0  0  0  0  0  0
    5.3351   -2.1081    0.0000 C   0  0  0  0  0  0  0  0  0  0  0  0
    4.4691   -2.6081    0.0000 C   0  0  0  0  0  0  0  0  0  0  0  0
    3.6030   -1.1081    0.0000 C   0  0  0  0  0  0  0  0  0  0  0  0
    5.3351   -1.1081    0.0000 C   0  0  0  0  0  0  0  0  0  0  0  0
    3.3938    1.8638    0.0000 C   0  0  0  0  0  0  0  0  0  0  0  0
    4.4691   -0.6081    0.0000 C   0  0  0  0  0  0  0  0  0  0  0  0
    3.6030   -2.1081    0.0000 C   0  0  0  0  0  0  0  0  0  0  0  0
    2.4051    1.9668    0.0000 C   0  0  0  0  0  0  0  0  0  0  0  0
    4.7904   -0.1117    0.0000 C   0  0  0  0  0  0  0  0  0  0  0  0
    6.2011   -0.6081    0.0000 C   0  0  0  0  0  0  0  0  0  0  0  0
    4.0617    2.6081    0.0000 C   0  0  0  0  0  0  0  0  0  0  0  0
    2.1264   -0.5004    0.0000 H   0  0  0  0  0  0  0  0  0  0  0  0
    2.5250   -1.1907    0.0000 H   0  0  0  0  0  0  0  0  0  0  0  0
    5.0796    0.2843    0.0000 H   0  0  0  0  0  0  0  0  0  0  0  0
    4.6811    0.9746    0.0000 H   0  0  0  0  0  0  0  0  0  0  0  0
    5.5471   -2.6907    0.0000 H   0  0  0  0  0  0  0  0  0  0  0  0
    5.9457   -2.0004    0.0000 H   0  0  0  0  0  0  0  0  0  0  0  0
    4.0705   -3.0830    0.0000 H   0  0  0  0  0  0  0  0  0  0  0  0
    4.8676   -3.0830    0.0000 H   0  0  0  0  0  0  0  0  0  0  0  0
    4.2570   -1.1907    0.0000 H   0  0  0  0  0  0  0  0  0  0  0  0
    3.0661   -2.4181    0.0000 H   0  0  0  0  0  0  0  0  0  0  0  0
    2.0951    2.5038    0.0000 H   0  0  0  0  0  0  0  0  0  0  0  0
    5.1889   -0.5867    0.0000 H   0  0  0  0  0  0  0  0  0  0  0  0
    5.2654    0.2868    0.0000 H   0  0  0  0  0  0  0  0  0  0  0  0
    4.3919    0.3632    0.0000 H   0  0  0  0  0  0  0  0  0  0  0  0
    6.5111   -1.1450    0.0000 H   0  0  0  0  0  0  0  0  0  0  0  0
    6.7380   -0.2981    0.0000 H   0  0  0  0  0  0  0  0  0  0  0  0
    5.8911   -0.0711    0.0000 H   0  0  0  0  0  0  0  0  0  0  0  0
    4.5232    2.1940    0.0000 H   0  0  0  0  0  0  0  0  0  0  0  0
    4.4757    3.0695    0.0000 H   0  0  0  0  0  0  0  0  0  0  0  0
    3.6002    3.0221    0.0000 H   0  0  0  0  0  0  0  0  0  0  0  0
  1  3  1  0  0  0  0
  1 13  1  0  0  0  0
  2  3  2  0  0  0  0
  2  5  1  0  0  0  0
  2 10  1  0  0  0  0
  3  4  1  0  0  0  0
  4  8  1  0  0  0  0
  4 17  1  0  0  0  0
  4 18  1  0  0  0  0
  5 11  1  0  0  0  0
  5 19  1  0  0  0  0
  5 20  1  0  0  0  0
  6  7  1  0  0  0  0
  6  9  1  0  0  0  0
  6 21  1  0  0  0  0
  6 22  1  0  0  0  0
  7 12  1  0  0  0  0
  7 23  1  0  0  0  0
  7 24  1  0  0  0  0
  8 12  2  0  0  0  0
  8 14  1  0  0  0  0
  9 11  2  0  0  0  0
  9 15  1  0  0  0  0
 10 13  2  0  0  0  0
 10 16  1  0  0  0  0
 11 25  1  0  0  0  0
 12 26  1  0  0  0  0
 13 27  1  0  0  0  0
 14 28  1  0  0  0  0
 14 29  1  0  0  0  0
 14 30  1  0  0  0  0
 15 31  1  0  0  0  0
 15 32  1  0  0  0  0
 15 33  1  0  0  0  0
 16 34  1  0  0  0  0
 16 35  1  0  0  0  0
 16 36  1  0  0  0  0
M  END
> <PUBCHEM_COMPOUND_CID>
636458

> <PUBCHEM_COMPOUND_CANONICALIZED>
1

> <PUBCHEM_CACTVS_COMPLEXITY>
301

> <PUBCHEM_CACTVS_HBOND_ACCEPTOR>
1

> <PUBCHEM_CACTVS_HBOND_DONOR>
0

> <PUBCHEM_CACTVS_ROTATABLE_BOND>
0

> <PUBCHEM_CACTVS_SUBSKEYS>
AAADceBwIAAAAAAAAAAAAAAAAAAAASAAAAAAAAAAAAAAAACBgAAAGgAAAAAADASgmAIiBIAABECIAqhSgAACCAAkIAAAiAEECMgMJjKENRqCGSCkwBEIqQeIyGCOgAAAAAAAAAAAAAAAAAAAAAAAAAAAAA==

> <PUBCHEM_IUPAC_OPENEYE_NAME>
(5E,9E)-3,6,10-trimethyl-4,7,8,11-tetrahydrocyclodeca[b]furan

> <PUBCHEM_IUPAC_CAS_NAME>
(5E,9E)-3,6,10-trimethyl-4,7,8,11-tetrahydrocyclodeca[b]furan

> <PUBCHEM_IUPAC_NAME>
(5E,9E)-3,6,10-trimethyl-4,7,8,11-tetrahydrocyclodeca[b]furan

> <PUBCHEM_IUPAC_SYSTEMATIC_NAME>
(5E,9E)-3,6,10-trimethyl-4,7,8,11-tetrahydrocyclodeca[b]furan

> <PUBCHEM_IUPAC_TRADITIONAL_NAME>
(5E,9E)-3,6,10-trimethyl-4,7,8,11-tetrahydrocyclodeca[b]furan

> <PUBCHEM_IUPAC_INCHI>
InChI=1S/C15H20O/c1-11-5-4-6-12(2)9-15-14(8-7-11)13(3)10-16-15/h6-7,10H,4-5,8-9H2,1-3H3/b11-7+,12-6+

> <PUBCHEM_IUPAC_INCHIKEY>
VMDXHYHOJPKFEK-IAVOFVOCSA-N

> <PUBCHEM_XLOGP3_AA>
3.7

> <PUBCHEM_EXACT_MASS>
216.151415

> <PUBCHEM_MOLECULAR_FORMULA>
C15H20O

> <PUBCHEM_MOLECULAR_WEIGHT>
216.3187

> <PUBCHEM_OPENEYE_CAN_SMILES>
CC1=CCC2=C(CC(=CCC1)C)OC=C2C

> <PUBCHEM_OPENEYE_ISO_SMILES>
C/C/1=C\CC2=C(C/C(=C/CC1)/C)OC=C2C

> <PUBCHEM_CACTVS_TPSA>
13.1

> <PUBCHEM_MONOISOTOPIC_WEIGHT>
216.151415

> <PUBCHEM_TOTAL_CHARGE>
0

> <PUBCHEM_HEAVY_ATOM_COUNT>
16

> <PUBCHEM_ATOM_DEF_STEREO_COUNT>
0

> <PUBCHEM_ATOM_UDEF_STEREO_COUNT>
0

> <PUBCHEM_BOND_DEF_STEREO_COUNT>
2

> <PUBCHEM_BOND_UDEF_STEREO_COUNT>
0

> <PUBCHEM_ISOTOPIC_ATOM_COUNT>
0

> <PUBCHEM_COMPONENT_COUNT>
1

> <PUBCHEM_CACTVS_TAUTO_COUNT>
1

> <PUBCHEM_COORDINATE_TYPE>
1
5
255

> <PUBCHEM_BONDANNOTATIONS>
1  13  8
1  3  8
10  13  8
2  10  8
2  3  8

$$$$

