188456
  -OEChem-07051212563D

 53 55  0     1  0  0  0  0  0999 V2000
    2.2678    0.5147    1.6003 O   0  0  0  0  0  0  0  0  0  0  0  0
   -1.2707   -2.8243    0.6017 O   0  0  0  0  0  0  0  0  0  0  0  0
   -0.3727    3.0785    0.8992 O   0  0  0  0  0  0  0  0  0  0  0  0
    1.0146   -0.6818   -0.0987 C   0  0  2  0  0  0  0  0  0  0  0  0
    2.0125    0.5009    0.1852 C   0  0  2  0  0  0  0  0  0  0  0  0
   -0.4365   -0.4962    0.5315 C   0  0  2  0  0  0  0  0  0  0  0  0
    3.4060    0.2807   -0.5391 C   0  0  0  0  0  0  0  0  0  0  0  0
    1.6684   -2.0341    0.2686 C   0  0  0  0  0  0  0  0  0  0  0  0
   -1.4140   -1.5716   -0.0703 C   0  0  2  0  0  0  0  0  0  0  0  0
    1.3810    1.8565   -0.1887 C   0  0  0  0  0  0  0  0  0  0  0  0
    3.9787   -1.1052   -0.1458 C   0  0  0  0  0  0  0  0  0  0  0  0
   -0.9378    0.8914    0.1752 C   0  0  0  0  0  0  0  0  0  0  0  0
    3.0120   -2.2480   -0.4188 C   0  0  0  0  0  0  0  0  0  0  0  0
   -2.8926   -1.1681    0.0367 C   0  0  0  0  0  0  0  0  0  0  0  0
   -0.0072    2.0308    0.3726 C   0  0  0  0  0  0  0  0  0  0  0  0
   -0.4459   -0.6016    2.0777 C   0  0  0  0  0  0  0  0  0  0  0  0
   -3.2078    0.1744   -0.6526 C   0  0  1  0  0  0  0  0  0  0  0  0
    3.2980    0.3661   -2.0808 C   0  0  0  0  0  0  0  0  0  0  0  0
    4.4573    1.3355   -0.1109 C   0  0  0  0  0  0  0  0  0  0  0  0
   -2.1351    1.1949   -0.3510 C   0  0  0  0  0  0  0  0  0  0  0  0
   -3.2920   -0.0063   -2.1781 C   0  0  0  0  0  0  0  0  0  0  0  0
   -4.5504    0.6601   -0.1633 C   0  0  0  0  0  0  0  0  0  0  0  0
   -5.5334   -0.1473    0.2492 C   0  0  0  0  0  0  0  0  0  0  0  0
    0.8565   -0.6976   -1.1867 H   0  0  0  0  0  0  0  0  0  0  0  0
    1.0253   -2.8674   -0.0254 H   0  0  0  0  0  0  0  0  0  0  0  0
    1.8160   -2.1089    1.3515 H   0  0  0  0  0  0  0  0  0  0  0  0
   -1.1685   -1.7452   -1.1250 H   0  0  0  0  0  0  0  0  0  0  0  0
    1.2911    1.9830   -1.2721 H   0  0  0  0  0  0  0  0  0  0  0  0
    1.9839    2.6841    0.2019 H   0  0  0  0  0  0  0  0  0  0  0  0
    4.2380   -1.1131    0.9212 H   0  0  0  0  0  0  0  0  0  0  0  0
    4.9153   -1.2970   -0.6850 H   0  0  0  0  0  0  0  0  0  0  0  0
    3.4532   -3.1871   -0.0641 H   0  0  0  0  0  0  0  0  0  0  0  0
    2.8603   -2.3685   -1.4975 H   0  0  0  0  0  0  0  0  0  0  0  0
   -3.4927   -1.9811   -0.3963 H   0  0  0  0  0  0  0  0  0  0  0  0
   -3.1611   -1.1477    1.1027 H   0  0  0  0  0  0  0  0  0  0  0  0
   -1.4658   -0.5353    2.4744 H   0  0  0  0  0  0  0  0  0  0  0  0
   -0.0292   -1.5487    2.4323 H   0  0  0  0  0  0  0  0  0  0  0  0
    0.1115    0.2058    2.5609 H   0  0  0  0  0  0  0  0  0  0  0  0
    2.5332   -0.2978   -2.4910 H   0  0  0  0  0  0  0  0  0  0  0  0
    3.0677    1.3832   -2.4142 H   0  0  0  0  0  0  0  0  0  0  0  0
    4.2488    0.0902   -2.5526 H   0  0  0  0  0  0  0  0  0  0  0  0
    5.4162    1.1550   -0.6119 H   0  0  0  0  0  0  0  0  0  0  0  0
    4.1450    2.3508   -0.3745 H   0  0  0  0  0  0  0  0  0  0  0  0
    4.6519    1.3087    0.9661 H   0  0  0  0  0  0  0  0  0  0  0  0
   -2.3583    2.2278   -0.6157 H   0  0  0  0  0  0  0  0  0  0  0  0
    2.6667    1.3681    1.8375 H   0  0  0  0  0  0  0  0  0  0  0  0
   -1.8420   -3.4686    0.1503 H   0  0  0  0  0  0  0  0  0  0  0  0
   -4.0364   -0.7631   -2.4535 H   0  0  0  0  0  0  0  0  0  0  0  0
   -3.5754    0.9282   -2.6790 H   0  0  0  0  0  0  0  0  0  0  0  0
   -2.3322   -0.3216   -2.6034 H   0  0  0  0  0  0  0  0  0  0  0  0
   -4.7550    1.7285   -0.1967 H   0  0  0  0  0  0  0  0  0  0  0  0
   -6.4800    0.2833    0.5619 H   0  0  0  0  0  0  0  0  0  0  0  0
   -5.4630   -1.2268    0.2799 H   0  0  0  0  0  0  0  0  0  0  0  0
  1  5  1  0  0  0  0
  1 46  1  0  0  0  0
  2  9  1  0  0  0  0
  2 47  1  0  0  0  0
  3 15  2  0  0  0  0
  4  5  1  0  0  0  0
  4  6  1  0  0  0  0
  4  8  1  0  0  0  0
  4 24  1  0  0  0  0
  5  7  1  0  0  0  0
  5 10  1  0  0  0  0
  6  9  1  0  0  0  0
  6 12  1  0  0  0  0
  6 16  1  0  0  0  0
  7 11  1  0  0  0  0
  7 18  1  0  0  0  0
  7 19  1  0  0  0  0
  8 13  1  0  0  0  0
  8 25  1  0  0  0  0
  8 26  1  0  0  0  0
  9 14  1  0  0  0  0
  9 27  1  0  0  0  0
 10 15  1  0  0  0  0
 10 28  1  0  0  0  0
 10 29  1  0  0  0  0
 11 13  1  0  0  0  0
 11 30  1  0  0  0  0
 11 31  1  0  0  0  0
 12 15  1  0  0  0  0
 12 20  2  0  0  0  0
 13 32  1  0  0  0  0
 13 33  1  0  0  0  0
 14 17  1  0  0  0  0
 14 34  1  0  0  0  0
 14 35  1  0  0  0  0
 16 36  1  0  0  0  0
 16 37  1  0  0  0  0
 16 38  1  0  0  0  0
 17 20  1  0  0  0  0
 17 21  1  0  0  0  0
 17 22  1  0  0  0  0
 18 39  1  0  0  0  0
 18 40  1  0  0  0  0
 18 41  1  0  0  0  0
 19 42  1  0  0  0  0
 19 43  1  0  0  0  0
 19 44  1  0  0  0  0
 20 45  1  0  0  0  0
 21 48  1  0  0  0  0
 21 49  1  0  0  0  0
 21 50  1  0  0  0  0
 22 23  2  0  0  0  0
 22 51  1  0  0  0  0
 23 52  1  0  0  0  0
 23 53  1  0  0  0  0
M  END
> <PUBCHEM_COMPOUND_CID>
188456

> <PUBCHEM_CONFORMER_RMSD>
0.6

> <PUBCHEM_CONFORMER_DIVERSEORDER>
2
1

> <PUBCHEM_MMFF94_PARTIAL_CHARGES>
19
1 -0.68
10 0.06
12 -0.12
15 0.49
17 0.28
2 -0.68
20 -0.29
22 -0.29
23 -0.3
3 -0.57
45 0.15
46 0.4
47 0.4
5 0.28
51 0.15
52 0.15
53 0.15
6 0.14
9 0.28

> <PUBCHEM_EFFECTIVE_ROTOR_COUNT>
2.6

> <PUBCHEM_PHARMACOPHORE_FEATURES>
10
1 1 acceptor
1 1 donor
1 2 acceptor
1 2 donor
1 23 hydrophobe
1 3 acceptor
3 7 18 19 hydrophobe
6 4 5 6 10 12 15 rings
6 4 5 7 8 11 13 rings
6 6 9 12 14 17 20 rings

> <PUBCHEM_HEAVY_ATOM_COUNT>
23

> <PUBCHEM_ATOM_DEF_STEREO_COUNT>
5

> <PUBCHEM_ATOM_UDEF_STEREO_COUNT>
0

> <PUBCHEM_BOND_DEF_STEREO_COUNT>
0

> <PUBCHEM_BOND_UDEF_STEREO_COUNT>
0

> <PUBCHEM_ISOTOPIC_ATOM_COUNT>
0

> <PUBCHEM_COMPONENT_COUNT>
1

> <PUBCHEM_CACTVS_TAUTO_COUNT>
2

> <PUBCHEM_CONFORMER_ID>
0002E02800000002

> <PUBCHEM_MMFF94_ENERGY>
82.7661

> <PUBCHEM_FEATURE_SELFOVERLAP>
50.777

> <PUBCHEM_SHAPE_FINGERPRINT>
10498660 4 18338784612512372100
10863032 1 18411135827156544382
10906281 52 18339069394435000808
10948715 1 15626224610804532656
10967382 1 18410573993905059018
11578080 2 17170402797371265187
116883 192 18189611825166551630
12403814 3 17275108310573949173
12553582 1 18334867120785215541
12788726 201 17822843290256328889
13140716 1 18194691358164739952
13224815 77 18342738528712427490
13583140 156 5544902547221553903
14115302 16 18272925020985364884
14289901 80 15502365734406218394
14790565 3 18265607870198694617
15196674 1 18410855503473597133
15375358 24 18336832987709789976
1601671 61 18412543215241530025
16752209 62 18340493390456659673
16945 1 18412271609772553033
17349148 13 18342746260154720298
17492 89 18120936371608718823
17980427 23 17487062155109042044
1813 80 17748821934360239309
18186145 218 17703512189518365423
19591789 44 18338797948259102003
19765921 60 17632302267331999058
19862831 5 18343023310755940391
200 152 17967816067589746838
20626108 58 17386589975983166951
20645477 70 18335418001996800694
20691752 17 18266481882878245783
21267235 1 18337664321368847518
21501502 16 18191018117950545760
221357 26 18410864278550862021
22182313 1 18048028580599543936
23227448 37 17059481929477418279
2334 1 17834395622784888128
23402539 116 18335709398220890228
23557571 272 17750515255629215146
23558518 356 17980470479830915000
23559900 14 18410294671472010608
25 1 18342744004991025591
2748010 2 17907302052573539297
2871803 45 18335414690908967524
296302 2 18410856533901660422
3004659 81 18272369814958451646
3323516 105 18413389834862825591
34934 24 18334860472397237974
350125 39 18195525020175697160
4340502 62 16559027199424943083
474 4 17418083300606988390
5104073 3 18413388722112933923
537710 114 18413102879175594525
633830 44 17774724268089401781
7164475 11 18192429886327394380
9709674 26 18262794194157224166

> <PUBCHEM_SHAPE_MULTIPOLES>
455.72
8.31
2.43
1.41
3.97
0.08
-0.26
0.01
-2.27
-0.83
0.48
0.01
-0.08
0.14

> <PUBCHEM_SHAPE_SELFOVERLAP>
964.591

> <PUBCHEM_SHAPE_VOLUME>
253.4

> <PUBCHEM_COORDINATE_TYPE>
2
5
10

$$$$

