245871
  -OEChem-07051213063D

 60 63  0     1  0  0  0  0  0999 V2000
   -3.7792    1.9938   -0.5667 O   0  0  0  0  0  0  0  0  0  0  0  0
   -3.9451   -0.3708   -1.8418 O   0  0  0  0  0  0  0  0  0  0  0  0
    6.9035   -0.4970   -0.0248 O   0  0  0  0  0  0  0  0  0  0  0  0
   -1.4789    1.0777   -0.3862 C   0  0  1  0  0  0  0  0  0  0  0  0
   -1.0242   -0.3380    0.0212 C   0  0  2  0  0  0  0  0  0  0  0  0
    0.4559   -0.5736   -0.2806 C   0  0  1  0  0  0  0  0  0  0  0  0
   -2.9741    0.9669   -0.0209 C   0  0  2  0  0  0  0  0  0  0  0  0
   -3.3919   -0.4413   -0.5284 C   0  0  2  0  0  0  0  0  0  0  0  0
   -2.0737   -1.2577   -0.6061 C   0  0  0  0  0  0  0  0  0  0  0  0
    1.3006    0.4354    0.5554 C   0  0  2  0  0  0  0  0  0  0  0  0
   -0.6900    2.0896    0.4572 C   0  0  0  0  0  0  0  0  0  0  0  0
    0.8325    1.8962    0.3168 C   0  0  0  0  0  0  0  0  0  0  0  0
    0.9061   -1.9967    0.0552 C   0  0  0  0  0  0  0  0  0  0  0  0
   -1.2940    1.4181   -1.8856 C   0  0  0  0  0  0  0  0  0  0  0  0
   -4.4305   -1.0910    0.3803 C   0  0  0  0  0  0  0  0  0  0  0  0
    2.7962    0.1969    0.3649 C   0  0  0  0  0  0  0  0  0  0  0  0
    2.3475   -2.2045   -0.3997 C   0  0  0  0  0  0  0  0  0  0  0  0
    3.2741   -1.0674   -0.0448 C   0  0  0  0  0  0  0  0  0  0  0  0
   -5.7274   -0.2858    0.4057 C   0  0  0  0  0  0  0  0  0  0  0  0
    3.7375    1.1943    0.6755 C   0  0  0  0  0  0  0  0  0  0  0  0
    4.6569   -1.2825   -0.1827 C   0  0  0  0  0  0  0  0  0  0  0  0
   -6.7764   -0.9575    1.2915 C   0  0  0  0  0  0  0  0  0  0  0  0
    5.1086    0.9644    0.5425 C   0  0  0  0  0  0  0  0  0  0  0  0
    5.5687   -0.2723    0.1090 C   0  0  0  0  0  0  0  0  0  0  0  0
   -8.0828   -0.1797    1.2956 C   0  0  0  0  0  0  0  0  0  0  0  0
    7.7800    0.5822    0.2975 C   0  0  0  0  0  0  0  0  0  0  0  0
   -1.1464   -0.4452    1.1123 H   0  0  0  0  0  0  0  0  0  0  0  0
    0.6418   -0.4126   -1.3505 H   0  0  0  0  0  0  0  0  0  0  0  0
   -3.0755    1.0178    1.0711 H   0  0  0  0  0  0  0  0  0  0  0  0
   -1.8106   -1.5035   -1.6416 H   0  0  0  0  0  0  0  0  0  0  0  0
   -2.1388   -2.2003   -0.0515 H   0  0  0  0  0  0  0  0  0  0  0  0
    1.1134    0.2228    1.6195 H   0  0  0  0  0  0  0  0  0  0  0  0
   -0.9532    1.9786    1.5173 H   0  0  0  0  0  0  0  0  0  0  0  0
   -0.9581    3.1165    0.1808 H   0  0  0  0  0  0  0  0  0  0  0  0
    1.1631    2.2343   -0.6726 H   0  0  0  0  0  0  0  0  0  0  0  0
    1.3080    2.5682    1.0408 H   0  0  0  0  0  0  0  0  0  0  0  0
    0.2704   -2.7416   -0.4360 H   0  0  0  0  0  0  0  0  0  0  0  0
    0.8261   -2.1716    1.1359 H   0  0  0  0  0  0  0  0  0  0  0  0
   -0.2433    1.4255   -2.1880 H   0  0  0  0  0  0  0  0  0  0  0  0
   -1.7989    0.7115   -2.5488 H   0  0  0  0  0  0  0  0  0  0  0  0
   -1.6898    2.4158   -2.1075 H   0  0  0  0  0  0  0  0  0  0  0  0
   -4.0352   -1.1976    1.3981 H   0  0  0  0  0  0  0  0  0  0  0  0
   -4.6559   -2.1013    0.0150 H   0  0  0  0  0  0  0  0  0  0  0  0
    2.3638   -2.3229   -1.4908 H   0  0  0  0  0  0  0  0  0  0  0  0
    2.7211   -3.1384    0.0377 H   0  0  0  0  0  0  0  0  0  0  0  0
   -3.8926    1.8182   -1.5159 H   0  0  0  0  0  0  0  0  0  0  0  0
   -4.1353   -1.2778   -2.1367 H   0  0  0  0  0  0  0  0  0  0  0  0
   -5.5481    0.7221    0.7946 H   0  0  0  0  0  0  0  0  0  0  0  0
   -6.1323   -0.1778   -0.6073 H   0  0  0  0  0  0  0  0  0  0  0  0
    3.4237    2.1697    1.0350 H   0  0  0  0  0  0  0  0  0  0  0  0
    5.0225   -2.2504   -0.5198 H   0  0  0  0  0  0  0  0  0  0  0  0
   -6.4011   -1.0379    2.3183 H   0  0  0  0  0  0  0  0  0  0  0  0
   -6.9685   -1.9763    0.9352 H   0  0  0  0  0  0  0  0  0  0  0  0
    5.7584    1.7942    0.7991 H   0  0  0  0  0  0  0  0  0  0  0  0
   -8.5021   -0.1111    0.2868 H   0  0  0  0  0  0  0  0  0  0  0  0
   -7.9336    0.8359    1.6758 H   0  0  0  0  0  0  0  0  0  0  0  0
   -8.8180   -0.6773    1.9358 H   0  0  0  0  0  0  0  0  0  0  0  0
    8.8029    0.2283    0.1325 H   0  0  0  0  0  0  0  0  0  0  0  0
    7.7040    0.8601    1.3542 H   0  0  0  0  0  0  0  0  0  0  0  0
    7.6261    1.4380   -0.3685 H   0  0  0  0  0  0  0  0  0  0  0  0
  1  7  1  0  0  0  0
  1 46  1  0  0  0  0
  2  8  1  0  0  0  0
  2 47  1  0  0  0  0
  3 24  1  0  0  0  0
  3 26  1  0  0  0  0
  4  5  1  0  0  0  0
  4  7  1  0  0  0  0
  4 11  1  0  0  0  0
  4 14  1  0  0  0  0
  5  6  1  0  0  0  0
  5  9  1  0  0  0  0
  5 27  1  0  0  0  0
  6 10  1  0  0  0  0
  6 13  1  0  0  0  0
  6 28  1  0  0  0  0
  7  8  1  0  0  0  0
  7 29  1  0  0  0  0
  8  9  1  0  0  0  0
  8 15  1  0  0  0  0
  9 30  1  0  0  0  0
  9 31  1  0  0  0  0
 10 12  1  0  0  0  0
 10 16  1  0  0  0  0
 10 32  1  0  0  0  0
 11 12  1  0  0  0  0
 11 33  1  0  0  0  0
 11 34  1  0  0  0  0
 12 35  1  0  0  0  0
 12 36  1  0  0  0  0
 13 17  1  0  0  0  0
 13 37  1  0  0  0  0
 13 38  1  0  0  0  0
 14 39  1  0  0  0  0
 14 40  1  0  0  0  0
 14 41  1  0  0  0  0
 15 19  1  0  0  0  0
 15 42  1  0  0  0  0
 15 43  1  0  0  0  0
 16 18  2  0  0  0  0
 16 20  1  0  0  0  0
 17 18  1  0  0  0  0
 17 44  1  0  0  0  0
 17 45  1  0  0  0  0
 18 21  1  0  0  0  0
 19 22  1  0  0  0  0
 19 48  1  0  0  0  0
 19 49  1  0  0  0  0
 20 23  2  0  0  0  0
 20 50  1  0  0  0  0
 21 24  2  0  0  0  0
 21 51  1  0  0  0  0
 22 25  1  0  0  0  0
 22 52  1  0  0  0  0
 22 53  1  0  0  0  0
 23 24  1  0  0  0  0
 23 54  1  0  0  0  0
 25 55  1  0  0  0  0
 25 56  1  0  0  0  0
 25 57  1  0  0  0  0
 26 58  1  0  0  0  0
 26 59  1  0  0  0  0
 26 60  1  0  0  0  0
M  END
> <PUBCHEM_COMPOUND_CID>
245871

> <PUBCHEM_CONFORMER_RMSD>
0.8

> <PUBCHEM_CONFORMER_DIVERSEORDER>
1
2
4
3

> <PUBCHEM_MMFF94_PARTIAL_CHARGES>
19
1 -0.68
10 0.14
16 -0.14
17 0.14
18 -0.14
2 -0.68
20 -0.15
21 -0.15
23 -0.15
24 0.08
26 0.28
3 -0.36
46 0.4
47 0.4
50 0.15
51 0.15
54 0.15
7 0.28
8 0.28

> <PUBCHEM_EFFECTIVE_ROTOR_COUNT>
5.4

> <PUBCHEM_PHARMACOPHORE_FEATURES>
10
1 1 acceptor
1 1 donor
1 2 acceptor
1 2 donor
1 25 hydrophobe
1 3 acceptor
5 4 5 7 8 9 rings
6 16 18 20 21 23 24 rings
6 4 5 6 10 11 12 rings
6 6 10 13 16 17 18 rings

> <PUBCHEM_HEAVY_ATOM_COUNT>
26

> <PUBCHEM_ATOM_DEF_STEREO_COUNT>
6

> <PUBCHEM_ATOM_UDEF_STEREO_COUNT>
0

> <PUBCHEM_BOND_DEF_STEREO_COUNT>
0

> <PUBCHEM_BOND_UDEF_STEREO_COUNT>
0

> <PUBCHEM_ISOTOPIC_ATOM_COUNT>
0

> <PUBCHEM_COMPONENT_COUNT>
1

> <PUBCHEM_CACTVS_TAUTO_COUNT>
1

> <PUBCHEM_CONFORMER_ID>
0003C06F00000001

> <PUBCHEM_MMFF94_ENERGY>
97.9429

> <PUBCHEM_FEATURE_SELFOVERLAP>
50.854

> <PUBCHEM_SHAPE_FINGERPRINT>
10 15 18342743975596194048
106641 1 16773795862509506166
11315181 36 10231749020403209062
11578080 2 17343802652702384534
11963148 33 17988649557926428723
12166972 35 17918272048294623100
12236239 1 17168144507793241131
12403259 415 18334588927749205064
12730499 353 18408602582953444706
12838862 33 18263662743306416002
13073987 5 18200878490598847866
13140716 1 18121782725395163987
13402501 40 18411419501188256586
13685833 64 18412824685485202851
14251764 18 17748826298389545899
14341114 176 18408037412337836001
14617045 38 18408600361896092502
14955137 171 18339355262930990729
15048467 5 17022618676369189563
15131766 46 5182621240367291474
15142383 8 5112010526179205290
15196674 1 18336551615928215518
15461852 350 14620792704170648074
15527383 91 18186518791857735561
15849732 13 4823213918281104409
17492 89 18124881415303354178
1813 80 17632290190443164469
18335252 98 18202842162916557378
18608769 82 18340767048598329019
19141452 34 18041000596679996183
200 152 17968103031771947696
21150785 3 13973965385095178154
21267235 1 18409162230013153186
21304253 13 18040714749516489649
21521721 280 18114465561733336464
21623969 137 18411131433621466915
21781051 124 18129079170325218842
21792961 116 18200603595406364158
22224240 67 18261112950304421603
23402539 116 18261684731242983260
23522609 53 17970325067173024761
23559900 14 18188223030897531736
23845131 108 17472690807984970057
3009799 131 9583522001308338803
3178227 256 18409165494204226826
335352 9 18334859381143177199
34797466 226 18113891647003039820
350125 39 18408603656093635208
3545911 37 18408042914233243994
3633792 109 12031800174810956886
4093350 32 16732696186303505366
4325135 7 18272647939839345052
4340502 62 17418096512053472386
5028188 123 17313662642868351836
5104073 3 18338804540495890347
6086070 43 16733565883317202657

> <PUBCHEM_SHAPE_MULTIPOLES>
517.46
17.7
1.97
1.1
2.18
0.14
0.31
-2.31
-6.23
-0.31
0.15
1.45
0.16
0.97

> <PUBCHEM_SHAPE_SELFOVERLAP>
1101.862

> <PUBCHEM_SHAPE_VOLUME>
287.4

> <PUBCHEM_COORDINATE_TYPE>
2
5
10

$$$$

