46173726
  -OEChem-07051212493D

 29 29  0     1  0  0  0  0  0999 V2000
    3.5726    0.9965   -0.1335 P   0  0  0  0  0  0  0  0  0  0  0  0
   -3.9009    0.7944   -0.0607 P   0  0  0  0  0  0  0  0  0  0  0  0
    0.3456    0.1355   -0.2083 O   0  0  0  0  0  0  0  0  0  0  0  0
    2.6462   -0.3249   -0.0461 O   0  0  0  0  0  0  0  0  0  0  0  0
    1.1398   -2.7997   -0.8726 O   0  0  0  0  0  0  0  0  0  0  0  0
   -2.4187    0.3390   -0.5270 O   0  0  0  0  0  0  0  0  0  0  0  0
    3.7466    1.4479    1.4096 O   0  0  0  0  0  0  0  0  0  0  0  0
    2.5578    2.1038   -0.7327 O   0  0  0  0  0  0  0  0  0  0  0  0
    4.8513    0.8275   -0.9006 O   0  0  0  0  0  0  0  0  0  0  0  0
   -3.7752    0.9219    1.5466 O   0  0  0  0  0  0  0  0  0  0  0  0
   -4.7724   -0.5531   -0.2597 O   0  0  0  0  0  0  0  0  0  0  0  0
   -4.4406    2.0074   -0.7603 O   0  0  0  0  0  0  0  0  0  0  0  0
    0.2604   -2.2225    0.0900 C   0  0  2  0  0  0  0  0  0  0  0  0
   -0.4556   -1.0221   -0.5151 C   0  0  1  0  0  0  0  0  0  0  0  0
    1.0631   -1.6121    1.2189 C   0  0  0  0  0  0  0  0  0  0  0  0
    1.4168   -0.2412    0.6659 C   0  0  2  0  0  0  0  0  0  0  0  0
   -1.8368   -0.7981    0.0857 C   0  0  0  0  0  0  0  0  0  0  0  0
   -0.5263   -1.0816   -1.6069 H   0  0  0  0  0  0  0  0  0  0  0  0
   -0.4144   -3.0129    0.4322 H   0  0  0  0  0  0  0  0  0  0  0  0
    0.4195   -1.4968    2.0984 H   0  0  0  0  0  0  0  0  0  0  0  0
    1.9463   -2.1989    1.4884 H   0  0  0  0  0  0  0  0  0  0  0  0
    1.4890    0.4919    1.4745 H   0  0  0  0  0  0  0  0  0  0  0  0
   -1.7642   -0.6152    1.1626 H   0  0  0  0  0  0  0  0  0  0  0  0
   -2.4707   -1.6730   -0.0883 H   0  0  0  0  0  0  0  0  0  0  0  0
    0.5911   -3.1382   -1.6007 H   0  0  0  0  0  0  0  0  0  0  0  0
    4.3316    2.2068    1.6189 H   0  0  0  0  0  0  0  0  0  0  0  0
    2.9076    2.9889   -0.9702 H   0  0  0  0  0  0  0  0  0  0  0  0
   -4.5425    1.2572    2.0575 H   0  0  0  0  0  0  0  0  0  0  0  0
   -5.7437   -0.5139   -0.1281 H   0  0  0  0  0  0  0  0  0  0  0  0
  1  4  1  0  0  0  0
  1  7  1  0  0  0  0
  1  8  1  0  0  0  0
  1  9  2  0  0  0  0
  2  6  1  0  0  0  0
  2 10  1  0  0  0  0
  2 11  1  0  0  0  0
  2 12  2  0  0  0  0
  3 14  1  0  0  0  0
  3 16  1  0  0  0  0
  4 16  1  0  0  0  0
  5 13  1  0  0  0  0
  5 25  1  0  0  0  0
  6 17  1  0  0  0  0
  7 26  1  0  0  0  0
  8 27  1  0  0  0  0
 10 28  1  0  0  0  0
 11 29  1  0  0  0  0
 13 14  1  0  0  0  0
 13 15  1  0  0  0  0
 13 19  1  0  0  0  0
 14 17  1  0  0  0  0
 14 18  1  0  0  0  0
 15 16  1  0  0  0  0
 15 20  1  0  0  0  0
 15 21  1  0  0  0  0
 16 22  1  0  0  0  0
 17 23  1  0  0  0  0
 17 24  1  0  0  0  0
M  END
> <PUBCHEM_COMPOUND_CID>
46173726

> <PUBCHEM_CONFORMER_RMSD>
0.8

> <PUBCHEM_CONFORMER_DIVERSEORDER>
1
17
22
3
13
19
2
24
21
12
10
8
4
23
18
6
16
14
11
20
7
15
5
9

> <PUBCHEM_MMFF94_PARTIAL_CHARGES>
21
1 1.51
10 -0.77
11 -0.77
12 -0.7
13 0.28
14 0.28
16 0.56
17 0.28
2 1.51
25 0.4
26 0.5
27 0.5
28 0.5
29 0.5
3 -0.56
4 -0.55
5 -0.68
6 -0.55
7 -0.77
8 -0.77
9 -0.7

> <PUBCHEM_EFFECTIVE_ROTOR_COUNT>
6

> <PUBCHEM_PHARMACOPHORE_FEATURES>
12
1 10 acceptor
1 11 acceptor
1 12 acceptor
1 3 acceptor
1 5 acceptor
1 5 donor
1 7 acceptor
1 8 acceptor
1 9 acceptor
4 1 7 8 9 anion
4 2 10 11 12 anion
5 3 13 14 15 16 rings

> <PUBCHEM_HEAVY_ATOM_COUNT>
17

> <PUBCHEM_ATOM_DEF_STEREO_COUNT>
3

> <PUBCHEM_ATOM_UDEF_STEREO_COUNT>
0

> <PUBCHEM_BOND_DEF_STEREO_COUNT>
0

> <PUBCHEM_BOND_UDEF_STEREO_COUNT>
0

> <PUBCHEM_ISOTOPIC_ATOM_COUNT>
0

> <PUBCHEM_COMPONENT_COUNT>
1

> <PUBCHEM_CACTVS_TAUTO_COUNT>
1

> <PUBCHEM_CONFORMER_ID>
02C08E1E00000001

> <PUBCHEM_MMFF94_ENERGY>
-33.8349

> <PUBCHEM_FEATURE_SELFOVERLAP>
60.966

> <PUBCHEM_SHAPE_FINGERPRINT>
10465860 228 18263922296954709699
10498660 4 18334020514275714201
10922049 32 18412257307605459766
10980938 120 18411421738839493131
11543360 7 15719683056200060369
122479 349 18200029526178154858
12346645 44 18411141329125643003
13705890 14 5328456003723459274
14123255 52 18409174294096421613
14252887 29 11743844677020103680
14415576 193 18410858797507719975
15534591 1 18335988549467715726
170605 34 18341896315859569883
1741750 31 18262805051586472706
17834072 14 9799692588614713023
1798214 55 18410579470009681304
18186145 218 18260542303874685000
200 152 7420959659756680592
20645477 56 17971473996946877968
20671657 1 18187931741150409551
21250096 35 9439413414618393821
21501925 9 9727634999130319118
21524375 3 18340207388457701515
2255824 54 18118685663091279559
231179 274 18272089430481265613
23253445 4 12463569539432859302
23402539 116 18187370891957813404
23559900 14 18046073915177030699
25 1 18335699451219232730
293599 30 18412540990511774348
474 4 18342172254491352789
4990 188 17822005406740184478
7364860 26 18263646336753261710
81539 233 18341896328528154998

> <PUBCHEM_SHAPE_MULTIPOLES>
298.86
8.99
2.35
1.09
4.23
0.76
0.33
-6.56
-0.45
-0.7
-0.35
-0.2
-0.09
-0.01

> <PUBCHEM_SHAPE_SELFOVERLAP>
569.392

> <PUBCHEM_SHAPE_VOLUME>
184.8

> <PUBCHEM_COORDINATE_TYPE>
2
5
10

$$$$

