442963
  -OEChem-07051213003D

 38 40  0     1  0  0  0  0  0999 V2000
    3.9692   -1.0533   -1.5796 O   0  0  0  0  0  0  0  0  0  0  0  0
   -1.8710   -0.4982    0.0612 N   0  0  2  0  0  0  0  0  0  0  0  0
    2.1575   -0.3411   -0.2928 N   0  0  0  0  0  0  0  0  0  0  0  0
    0.2711   -1.9548    0.5693 C   0  0  1  0  0  0  0  0  0  0  0  0
    0.2214    0.3583    0.9836 C   0  0  2  0  0  0  0  0  0  0  0  0
    0.4426   -0.9783    1.7079 C   0  0  0  0  0  0  0  0  0  0  0  0
   -1.2528   -1.8524    0.1771 C   0  0  0  0  0  0  0  0  0  0  0  0
   -1.3009    0.5707    0.9433 C   0  0  0  0  0  0  0  0  0  0  0  0
    1.3393   -1.5967   -0.5326 C   0  0  0  0  0  0  0  0  0  0  0  0
    1.5792    0.7086    0.4675 C   0  0  0  0  0  0  0  0  0  0  0  0
   -3.3247   -0.5450    0.1383 C   0  0  0  0  0  0  0  0  0  0  0  0
    2.2320    1.8553    0.6873 C   0  0  0  0  0  0  0  0  0  0  0  0
    3.4204   -0.2057   -0.8774 C   0  0  0  0  0  0  0  0  0  0  0  0
   -3.9231    0.7782   -0.3373 C   0  0  0  0  0  0  0  0  0  0  0  0
    3.5465    2.0357    0.1311 C   0  0  0  0  0  0  0  0  0  0  0  0
    4.1281    1.0827   -0.6075 C   0  0  0  0  0  0  0  0  0  0  0  0
   -5.4226    0.7435   -0.2850 C   0  0  0  0  0  0  0  0  0  0  0  0
   -6.2124    0.8925   -1.3542 C   0  0  0  0  0  0  0  0  0  0  0  0
    0.4585   -2.9808    0.9085 H   0  0  0  0  0  0  0  0  0  0  0  0
    0.3114    1.0352    1.8609 H   0  0  0  0  0  0  0  0  0  0  0  0
    1.4326   -1.0743    2.1751 H   0  0  0  0  0  0  0  0  0  0  0  0
   -0.2834   -1.1580    2.5116 H   0  0  0  0  0  0  0  0  0  0  0  0
   -1.4074   -2.3896   -0.7661 H   0  0  0  0  0  0  0  0  0  0  0  0
   -1.8017   -2.4085    0.9505 H   0  0  0  0  0  0  0  0  0  0  0  0
   -1.7480    0.5195    1.9450 H   0  0  0  0  0  0  0  0  0  0  0  0
   -1.4941    1.5597    0.5155 H   0  0  0  0  0  0  0  0  0  0  0  0
    2.0454   -2.4305   -0.6251 H   0  0  0  0  0  0  0  0  0  0  0  0
    0.8594   -1.4792   -1.5113 H   0  0  0  0  0  0  0  0  0  0  0  0
   -3.6554   -0.7773    1.1590 H   0  0  0  0  0  0  0  0  0  0  0  0
   -3.7008   -1.3472   -0.5104 H   0  0  0  0  0  0  0  0  0  0  0  0
    1.8071    2.6648    1.2696 H   0  0  0  0  0  0  0  0  0  0  0  0
   -3.6163    1.6121    0.3032 H   0  0  0  0  0  0  0  0  0  0  0  0
   -3.5757    1.0056   -1.3532 H   0  0  0  0  0  0  0  0  0  0  0  0
    4.0569    2.9723    0.3264 H   0  0  0  0  0  0  0  0  0  0  0  0
    5.1170    1.2174   -1.0301 H   0  0  0  0  0  0  0  0  0  0  0  0
   -5.8855    0.5985    0.6878 H   0  0  0  0  0  0  0  0  0  0  0  0
   -7.2913    0.8627   -1.2484 H   0  0  0  0  0  0  0  0  0  0  0  0
   -5.8018    1.0447   -2.3462 H   0  0  0  0  0  0  0  0  0  0  0  0
  1 13  2  0  0  0  0
  2  7  1  0  0  0  0
  2  8  1  0  0  0  0
  2 11  1  0  0  0  0
  3  9  1  0  0  0  0
  3 10  1  0  0  0  0
  3 13  1  0  0  0  0
  4  6  1  0  0  0  0
  4  7  1  0  0  0  0
  4  9  1  0  0  0  0
  4 19  1  0  0  0  0
  5  6  1  0  0  0  0
  5  8  1  0  0  0  0
  5 10  1  0  0  0  0
  5 20  1  0  0  0  0
  6 21  1  0  0  0  0
  6 22  1  0  0  0  0
  7 23  1  0  0  0  0
  7 24  1  0  0  0  0
  8 25  1  0  0  0  0
  8 26  1  0  0  0  0
  9 27  1  0  0  0  0
  9 28  1  0  0  0  0
 10 12  2  0  0  0  0
 11 14  1  0  0  0  0
 11 29  1  0  0  0  0
 11 30  1  0  0  0  0
 12 15  1  0  0  0  0
 12 31  1  0  0  0  0
 13 16  1  0  0  0  0
 14 17  1  0  0  0  0
 14 32  1  0  0  0  0
 14 33  1  0  0  0  0
 15 16  2  0  0  0  0
 15 34  1  0  0  0  0
 16 35  1  0  0  0  0
 17 18  2  0  0  0  0
 17 36  1  0  0  0  0
 18 37  1  0  0  0  0
 18 38  1  0  0  0  0
M  END
> <PUBCHEM_COMPOUND_CID>
442963

> <PUBCHEM_CONFORMER_RMSD>
0.6

> <PUBCHEM_CONFORMER_DIVERSEORDER>
1
4
5
3
2

> <PUBCHEM_MMFF94_PARTIAL_CHARGES>
22
1 -0.57
10 -0.03
11 0.27
12 -0.15
13 0.62
14 0.14
15 -0.15
16 -0.14
17 -0.29
18 -0.3
2 -0.81
3 -0.47
31 0.15
34 0.15
35 0.15
36 0.15
37 0.15
38 0.15
5 0.14
7 0.27
8 0.27
9 0.3

> <PUBCHEM_EFFECTIVE_ROTOR_COUNT>
4

> <PUBCHEM_PHARMACOPHORE_FEATURES>
6
1 1 acceptor
1 18 hydrophobe
1 2 cation
6 2 4 5 6 7 8 rings
6 3 10 12 13 15 16 rings
6 3 4 5 6 9 10 rings

> <PUBCHEM_HEAVY_ATOM_COUNT>
18

> <PUBCHEM_ATOM_DEF_STEREO_COUNT>
2

> <PUBCHEM_ATOM_UDEF_STEREO_COUNT>
0

> <PUBCHEM_BOND_DEF_STEREO_COUNT>
0

> <PUBCHEM_BOND_UDEF_STEREO_COUNT>
0

> <PUBCHEM_ISOTOPIC_ATOM_COUNT>
0

> <PUBCHEM_COMPONENT_COUNT>
1

> <PUBCHEM_CACTVS_TAUTO_COUNT>
1

> <PUBCHEM_CONFORMER_ID>
0006C25300000001

> <PUBCHEM_MMFF94_ENERGY>
86.1009

> <PUBCHEM_FEATURE_SELFOVERLAP>
31.24

> <PUBCHEM_SHAPE_FINGERPRINT>
10498660 4 18343871013400500237
10693767 8 17896037826741664846
11471102 20 18260545627920831280
11796584 16 4823210607315246709
12596602 18 13973953308043222613
12633257 1 14045742591031320285
12670546 177 18113622279085144135
12730499 353 18341888611157732971
12824470 246 5689055092780545124
12892183 10 11455897948734596767
12969540 114 18272665540926495917
13464513 79 7276829091176350948
1420 369 7781517040523634877
14341114 176 11095883787157771773
14341114 328 14692567724031292157
14528608 73 18411710893998620061
14911166 2 18334569165955654046
15061688 2 18271529680573976464
15210252 30 18202001027552371621
15342816 4 4750882524309771910
15475509 84 12894812349100403398
15885798 251 7709459442185380267
1601671 61 17489588978510217741
16945 1 18261940925699532226
17134986 127 18412549786224871443
1813 80 5617540700352048099
18186145 218 18409719651763416154
193927 3 5978106894813678613
19784866 240 15574986316661896606
19862831 5 18187082858344391633
200 152 16588569955945378186
20261772 1 11384111925426047377
20645477 70 17967806154509952343
20871998 22 8646776594472122899
20871999 31 17968949574258496855
212847 35 17989210360453112456
21501925 9 8790884090635968083
21637258 2 14273450418277687148
221357 26 18187648037539404917
22224240 67 10447630363147330526
22289505 5 18339367473644319709
231179 274 18131354120054158273
23253445 4 10735871760095537247
23402539 116 18339088081694916844
23402655 69 18187362112511916669
23557571 272 18198900319194071075
23559900 14 18114737145500740256
25 1 18410854356358607114
2748010 2 18045762513078659122
2871803 45 18335701675928155853
3009799 131 18334855052607569910
3060560 45 18408326604859302126
3472631 163 17846216592475240325
4028521 119 18411416185520807809
4047638 21 18342739615281137648
465052 167 8430313567100776693
474 4 17846776291523442525
495365 180 17604156913414188064
4990 188 18259704488957224383
56616090 163 18272366477995715955
633830 44 18130230358703522983
960060 61 17385448721874286789

> <PUBCHEM_SHAPE_MULTIPOLES>
354.6
10.24
1.99
1.25
14.43
0.24
0
-5.66
-5.4
-1.06
0.13
-0.32
0.14
0.99

> <PUBCHEM_SHAPE_SELFOVERLAP>
742.761

> <PUBCHEM_SHAPE_VOLUME>
197

> <PUBCHEM_COORDINATE_TYPE>
2
5
10

$$$$

