162602
  -OEChem-07051213103D

 20 20  0     0  0  0  0  0  0999 V2000
   -2.2718   -1.8658   -0.0973 O   0  0  0  0  0  0  0  0  0  0  0  0
   -3.2681    0.6192   -0.3625 O   0  0  0  0  0  0  0  0  0  0  0  0
    4.3875   -0.1612   -0.3450 N   0  0  0  0  0  0  0  0  0  0  0  0
    2.1665   -0.0493    0.6618 C   0  0  0  0  0  0  0  0  0  0  0  0
    0.6944    0.0384    0.3876 C   0  0  0  0  0  0  0  0  0  0  0  0
    2.9606   -0.0818   -0.6367 C   0  0  0  0  0  0  0  0  0  0  0  0
   -0.0739   -1.0562    0.2817 C   0  0  0  0  0  0  0  0  0  0  0  0
    0.1456    1.3728    0.2421 C   0  0  0  0  0  0  0  0  0  0  0  0
   -1.5185   -0.9108    0.0103 C   0  0  0  0  0  0  0  0  0  0  0  0
   -1.1462    1.6156   -0.0041 C   0  0  0  0  0  0  0  0  0  0  0  0
   -2.0762    0.4790   -0.1379 C   0  0  0  0  0  0  0  0  0  0  0  0
    2.3782   -0.9573    1.2436 H   0  0  0  0  0  0  0  0  0  0  0  0
    2.4899    0.7870    1.2959 H   0  0  0  0  0  0  0  0  0  0  0  0
    2.6705   -0.9440   -1.2484 H   0  0  0  0  0  0  0  0  0  0  0  0
    2.7729    0.8214   -1.2281 H   0  0  0  0  0  0  0  0  0  0  0  0
    0.3241   -2.0589    0.3865 H   0  0  0  0  0  0  0  0  0  0  0  0
    0.8264    2.2141    0.3367 H   0  0  0  0  0  0  0  0  0  0  0  0
   -1.5328    2.6216   -0.1099 H   0  0  0  0  0  0  0  0  0  0  0  0
    4.9075   -0.2313   -1.2187 H   0  0  0  0  0  0  0  0  0  0  0  0
    4.5851   -1.0159    0.1740 H   0  0  0  0  0  0  0  0  0  0  0  0
  1  9  2  0  0  0  0
  2 11  2  0  0  0  0
  3  6  1  0  0  0  0
  3 19  1  0  0  0  0
  3 20  1  0  0  0  0
  4  5  1  0  0  0  0
  4  6  1  0  0  0  0
  4 12  1  0  0  0  0
  4 13  1  0  0  0  0
  5  7  2  0  0  0  0
  5  8  1  0  0  0  0
  6 14  1  0  0  0  0
  6 15  1  0  0  0  0
  7  9  1  0  0  0  0
  7 16  1  0  0  0  0
  8 10  2  0  0  0  0
  8 17  1  0  0  0  0
  9 11  1  0  0  0  0
 10 11  1  0  0  0  0
 10 18  1  0  0  0  0
M  END
> <PUBCHEM_COMPOUND_CID>
162602

> <PUBCHEM_CONFORMER_RMSD>
0.4

> <PUBCHEM_CONFORMER_DIVERSEORDER>
1
8
11
10
5
6
9
2
4
3
7

> <PUBCHEM_MMFF94_PARTIAL_CHARGES>
16
1 -0.57
10 -0.14
11 0.56
16 0.15
17 0.15
18 0.15
19 0.36
2 -0.57
20 0.36
3 -0.99
4 0.14
5 -0.14
6 0.27
7 -0.14
8 -0.15
9 0.56

> <PUBCHEM_EFFECTIVE_ROTOR_COUNT>
2

> <PUBCHEM_PHARMACOPHORE_FEATURES>
5
1 1 acceptor
1 2 acceptor
1 3 cation
1 3 donor
6 5 7 8 9 10 11 rings

> <PUBCHEM_HEAVY_ATOM_COUNT>
11

> <PUBCHEM_ATOM_DEF_STEREO_COUNT>
0

> <PUBCHEM_ATOM_UDEF_STEREO_COUNT>
0

> <PUBCHEM_BOND_DEF_STEREO_COUNT>
0

> <PUBCHEM_BOND_UDEF_STEREO_COUNT>
0

> <PUBCHEM_ISOTOPIC_ATOM_COUNT>
0

> <PUBCHEM_COMPONENT_COUNT>
1

> <PUBCHEM_CACTVS_TAUTO_COUNT>
3

> <PUBCHEM_CONFORMER_ID>
00027B2A00000001

> <PUBCHEM_MMFF94_ENERGY>
12.8718

> <PUBCHEM_FEATURE_SELFOVERLAP>
25.379

> <PUBCHEM_SHAPE_FINGERPRINT>
11206711 2 18270696280925100807
12032990 46 18337388236686726715
12716758 59 18409451414023702114
12897270 3 18409449193678499756
12932764 1 17846227656511304952
13024252 1 17132108044088744921
14128692 85 18340765918931914844
14911166 2 18410302423392029989
14993402 34 18343025514427812077
15219456 202 17968948474599026544
15310529 11 16702029724377421281
15775835 57 17775003522409868764
16945 1 18338809991015207601
20201158 50 18040432222251133358
20645476 183 17918274255222081915
20871998 184 18187643574661851943
21040471 1 18266752461459752937
21293036 1 18412546526239211749
23235685 24 18338242664553415029
23402539 116 18334585684326034796
23402655 69 18050028850624376637
23552423 10 18128821849948564432
23559900 14 18334860533196543714
2748010 2 18194697964146077265
369184 2 12031788054476629040
528716 315 18341040857263637782
53812653 8 18268994361284351457
6333449 129 18334858320254560746

> <PUBCHEM_SHAPE_MULTIPOLES>
209.66
5.28
1.52
0.72
4.57
0.06
-0.02
0.4
1.17
-1.12
-0.03
0.23
-0.01
0.06

> <PUBCHEM_SHAPE_SELFOVERLAP>
429.816

> <PUBCHEM_SHAPE_VOLUME>
120.7

> <PUBCHEM_COORDINATE_TYPE>
2
5
10

$$$$

