94160
  -OEChem-07051212573D

 51 55  0     1  0  0  0  0  0999 V2000
    4.7020   -0.5472   -0.2825 O   0  0  0  0  0  0  0  0  0  0  0  0
   -1.4017   -1.3462   -2.6326 O   0  0  0  0  0  0  0  0  0  0  0  0
    1.5375    2.7616    0.5337 O   0  0  0  0  0  0  0  0  0  0  0  0
    3.0622    3.1790   -1.1576 O   0  0  0  0  0  0  0  0  0  0  0  0
    0.1342   -2.2783   -0.0268 N   0  0  1  0  0  0  0  0  0  0  0  0
   -2.9347    0.2419   -1.8441 N   0  0  0  0  0  0  0  0  0  0  0  0
   -0.4233   -0.9656    0.3212 C   0  0  2  0  0  0  0  0  0  0  0  0
   -1.8568   -1.1014   -0.2049 C   0  0  1  0  0  0  0  0  0  0  0  0
    0.4425    0.1737   -0.2304 C   0  0  0  0  0  0  0  0  0  0  0  0
    2.3979   -1.3893   -0.0332 C   0  0  2  0  0  0  0  0  0  0  0  0
    1.8761    0.0270    0.3221 C   0  0  1  0  0  0  0  0  0  0  0  0
   -2.1973   -2.5828    0.0579 C   0  0  0  0  0  0  0  0  0  0  0  0
    1.4700   -2.4800    0.5297 C   0  0  0  0  0  0  0  0  0  0  0  0
   -0.8621   -3.2472    0.4171 C   0  0  0  0  0  0  0  0  0  0  0  0
   -2.8312   -0.1286    0.4036 C   0  0  0  0  0  0  0  0  0  0  0  0
    3.8786   -1.5410    0.3632 C   0  0  2  0  0  0  0  0  0  0  0  0
   -1.9975   -0.7884   -1.7230 C   0  0  0  0  0  0  0  0  0  0  0  0
    2.8765    1.0350   -0.1644 C   0  0  0  0  0  0  0  0  0  0  0  0
   -3.4250    0.6298   -0.6034 C   0  0  0  0  0  0  0  0  0  0  0  0
   -3.1738    0.0862    1.7275 C   0  0  0  0  0  0  0  0  0  0  0  0
    4.1639   -1.5162    1.8641 C   0  0  0  0  0  0  0  0  0  0  0  0
    4.1456    0.6985   -0.4343 C   0  0  0  0  0  0  0  0  0  0  0  0
   -4.3618    1.6113   -0.3463 C   0  0  0  0  0  0  0  0  0  0  0  0
    2.5258    2.4448   -0.3413 C   0  0  0  0  0  0  0  0  0  0  0  0
   -4.1204    1.0746    2.0159 C   0  0  0  0  0  0  0  0  0  0  0  0
   -4.7092    1.8311    0.9871 C   0  0  0  0  0  0  0  0  0  0  0  0
    1.0819    4.1176    0.4815 C   0  0  0  0  0  0  0  0  0  0  0  0
   -0.4490   -0.8643    1.4177 H   0  0  0  0  0  0  0  0  0  0  0  0
   -0.0213    1.1196    0.0602 H   0  0  0  0  0  0  0  0  0  0  0  0
    0.4733    0.1586   -1.3268 H   0  0  0  0  0  0  0  0  0  0  0  0
    2.3721   -1.4785   -1.1327 H   0  0  0  0  0  0  0  0  0  0  0  0
    1.8187    0.1254    1.4155 H   0  0  0  0  0  0  0  0  0  0  0  0
   -2.6319   -3.0611   -0.8281 H   0  0  0  0  0  0  0  0  0  0  0  0
   -2.9068   -2.7156    0.8827 H   0  0  0  0  0  0  0  0  0  0  0  0
    1.8479   -3.4654    0.2332 H   0  0  0  0  0  0  0  0  0  0  0  0
    1.4469   -2.4470    1.6256 H   0  0  0  0  0  0  0  0  0  0  0  0
   -0.8134   -3.4124    1.5008 H   0  0  0  0  0  0  0  0  0  0  0  0
   -0.7463   -4.2118   -0.0868 H   0  0  0  0  0  0  0  0  0  0  0  0
    4.2328   -2.5069   -0.0178 H   0  0  0  0  0  0  0  0  0  0  0  0
   -3.2308    0.6575   -2.7194 H   0  0  0  0  0  0  0  0  0  0  0  0
   -2.7249   -0.4930    2.5271 H   0  0  0  0  0  0  0  0  0  0  0  0
    5.2390   -1.6329    2.0421 H   0  0  0  0  0  0  0  0  0  0  0  0
    3.8810   -0.5617    2.3187 H   0  0  0  0  0  0  0  0  0  0  0  0
    3.6441   -2.3224    2.3885 H   0  0  0  0  0  0  0  0  0  0  0  0
    4.8998    1.3819   -0.8027 H   0  0  0  0  0  0  0  0  0  0  0  0
   -4.8142    2.1922   -1.1419 H   0  0  0  0  0  0  0  0  0  0  0  0
   -4.4054    1.2615    3.0479 H   0  0  0  0  0  0  0  0  0  0  0  0
   -5.4423    2.5938    1.2353 H   0  0  0  0  0  0  0  0  0  0  0  0
    1.9014    4.8019    0.7207 H   0  0  0  0  0  0  0  0  0  0  0  0
    0.2924    4.2395    1.2278 H   0  0  0  0  0  0  0  0  0  0  0  0
    0.6681    4.3395   -0.5068 H   0  0  0  0  0  0  0  0  0  0  0  0
  1 16  1  0  0  0  0
  1 22  1  0  0  0  0
  2 17  2  0  0  0  0
  3 24  1  0  0  0  0
  3 27  1  0  0  0  0
  4 24  2  0  0  0  0
  5  7  1  0  0  0  0
  5 13  1  0  0  0  0
  5 14  1  0  0  0  0
  6 17  1  0  0  0  0
  6 19  1  0  0  0  0
  6 40  1  0  0  0  0
  7  8  1  0  0  0  0
  7  9  1  0  0  0  0
  7 28  1  0  0  0  0
  8 12  1  0  0  0  0
  8 15  1  0  0  0  0
  8 17  1  0  0  0  0
  9 11  1  0  0  0  0
  9 29  1  0  0  0  0
  9 30  1  0  0  0  0
 10 11  1  0  0  0  0
 10 13  1  0  0  0  0
 10 16  1  0  0  0  0
 10 31  1  0  0  0  0
 11 18  1  0  0  0  0
 11 32  1  0  0  0  0
 12 14  1  0  0  0  0
 12 33  1  0  0  0  0
 12 34  1  0  0  0  0
 13 35  1  0  0  0  0
 13 36  1  0  0  0  0
 14 37  1  0  0  0  0
 14 38  1  0  0  0  0
 15 19  1  0  0  0  0
 15 20  2  0  0  0  0
 16 21  1  0  0  0  0
 16 39  1  0  0  0  0
 18 22  2  0  0  0  0
 18 24  1  0  0  0  0
 19 23  2  0  0  0  0
 20 25  1  0  0  0  0
 20 41  1  0  0  0  0
 21 42  1  0  0  0  0
 21 43  1  0  0  0  0
 21 44  1  0  0  0  0
 22 45  1  0  0  0  0
 23 26  1  0  0  0  0
 23 46  1  0  0  0  0
 25 26  2  0  0  0  0
 25 47  1  0  0  0  0
 26 48  1  0  0  0  0
 27 49  1  0  0  0  0
 27 50  1  0  0  0  0
 27 51  1  0  0  0  0
M  END
> <PUBCHEM_COMPOUND_CID>
94160

> <PUBCHEM_CONFORMER_RMSD>
0.8

> <PUBCHEM_CONFORMER_DIVERSEORDER>
1
4
3
2

> <PUBCHEM_MMFF94_PARTIAL_CHARGES>
29
1 -0.36
11 0.14
13 0.27
14 0.27
15 -0.14
16 0.28
17 0.57
18 -0.12
19 0.12
2 -0.57
20 -0.15
22 -0.07
23 -0.15
24 0.71
25 -0.15
26 -0.15
27 0.28
3 -0.43
4 -0.57
40 0.37
41 0.15
45 0.15
46 0.15
47 0.15
48 0.15
5 -0.81
6 -0.55
7 0.27
8 0.2

> <PUBCHEM_EFFECTIVE_ROTOR_COUNT>
3.4

> <PUBCHEM_PHARMACOPHORE_FEATURES>
10
1 1 acceptor
1 2 acceptor
1 4 acceptor
1 5 cation
1 6 donor
5 5 7 8 12 14 rings
5 6 8 15 17 19 rings
6 1 10 11 16 18 22 rings
6 15 19 20 23 25 26 rings
6 5 7 9 10 11 13 rings

> <PUBCHEM_HEAVY_ATOM_COUNT>
27

> <PUBCHEM_ATOM_DEF_STEREO_COUNT>
5

> <PUBCHEM_ATOM_UDEF_STEREO_COUNT>
0

> <PUBCHEM_BOND_DEF_STEREO_COUNT>
0

> <PUBCHEM_BOND_UDEF_STEREO_COUNT>
0

> <PUBCHEM_ISOTOPIC_ATOM_COUNT>
0

> <PUBCHEM_COMPONENT_COUNT>
1

> <PUBCHEM_CACTVS_TAUTO_COUNT>
2

> <PUBCHEM_CONFORMER_ID>
00016FD000000001

> <PUBCHEM_MMFF94_ENERGY>
81.3036

> <PUBCHEM_FEATURE_SELFOVERLAP>
50.944

> <PUBCHEM_SHAPE_FINGERPRINT>
10165383 225 18059559296083261303
10906281 52 18409439268773969756
1100329 8 18410570686996597128
11135926 11 18201726146425794910
11640471 11 17749957777316669755
12173636 292 18121216485175138079
12236239 1 17823145682256195707
12422481 6 17467362548249142330
12553582 1 18339363067276600266
12633257 1 18341337763984197694
12788726 201 18264200486909602192
13140716 1 18341335517837731994
13583140 156 18201993344345625643
14022347 108 18196076958207953186
14178342 30 17907865007254678552
14223421 5 17981045210937917618
14466204 15 18125731333174371704
14790565 3 18339348777746911216
14955137 171 18268414897155556810
151778 21 18129930192240442244
15238133 3 18127963320403919684
15475509 8 17972014085026792150
1601671 61 18410289250969997434
17980427 23 17969242095880159896
1813 80 17105089989731739583
18219364 16 18202288017403324191
19930381 70 17185033865252163817
20739085 24 18049151469481513850
21033648 29 17560532771548494565
21033650 10 15430576442421939425
21857420 4 6321036548090830915
21864079 5 18410290272581175378
22122407 14 18265600156638099641
23227448 37 18409162204117099719
23558518 356 18054225427959778618
238 59 17767730252823475727
3459 110 18129362866079200723
350125 39 18340199683761308251
392239 28 18337370683835825331
474 4 18335421330712421491
5081480 168 17245804297994505855
5104073 3 18343308033435101642
5252454 2 18129089031532902148
5895379 119 17458330975213264944
6287921 2 17696743363957334476
9981440 41 17468224152985077112

> <PUBCHEM_SHAPE_MULTIPOLES>
522.21
8.89
3.86
1.59
0.17
2.18
0.26
2.85
-1.96
-1.88
-0.29
1.25
-0.17
-1.55

> <PUBCHEM_SHAPE_SELFOVERLAP>
1154.592

> <PUBCHEM_SHAPE_VOLUME>
279.3

> <PUBCHEM_COORDINATE_TYPE>
2
5
10

$$$$

