9925
  -OEChem-06261204113D

 44 46  0     0  0  0  0  0  0999 V2000
   -3.4535    3.1062    0.3446 O   0  0  0  0  0  0  0  0  0  0  0  0
    0.5456   -0.4466   -0.8557 N   0  0  0  0  0  0  0  0  0  0  0  0
   -3.9959   -3.9009    0.4801 N   0  0  0  0  0  0  0  0  0  0  0  0
   -1.2068   -1.3384    0.1741 C   0  0  0  0  0  0  0  0  0  0  0  0
    0.0280   -1.6155   -0.3655 C   0  0  0  0  0  0  0  0  0  0  0  0
   -1.4505    0.0534    0.0060 C   0  0  0  0  0  0  0  0  0  0  0  0
   -0.3360    0.5891   -0.6429 C   0  0  0  0  0  0  0  0  0  0  0  0
   -2.1154   -2.3126    0.8145 C   0  0  0  0  0  0  0  0  0  0  0  0
    1.8338   -0.3168   -1.5055 C   0  0  0  0  0  0  0  0  0  0  0  0
   -2.5157    0.9115    0.3444 C   0  0  0  0  0  0  0  0  0  0  0  0
   -0.2331    1.9455   -0.9717 C   0  0  0  0  0  0  0  0  0  0  0  0
    0.7615   -2.8963   -0.4555 C   0  0  0  0  0  0  0  0  0  0  0  0
   -3.0917   -2.9656   -0.1804 C   0  0  0  0  0  0  0  0  0  0  0  0
    2.9219   -0.0119   -0.5119 C   0  0  0  0  0  0  0  0  0  0  0  0
   -2.4266    2.2705    0.0218 C   0  0  0  0  0  0  0  0  0  0  0  0
   -1.3019    2.7774   -0.6261 C   0  0  0  0  0  0  0  0  0  0  0  0
    3.6114   -1.0559    0.0895 C   0  0  0  0  0  0  0  0  0  0  0  0
    3.2216    1.3095   -0.2098 C   0  0  0  0  0  0  0  0  0  0  0  0
    4.6198   -0.7731    1.0107 C   0  0  0  0  0  0  0  0  0  0  0  0
    4.2301    1.5923    0.7113 C   0  0  0  0  0  0  0  0  0  0  0  0
    4.9293    0.5510    1.3216 C   0  0  0  0  0  0  0  0  0  0  0  0
   -4.5760    2.5271    1.0064 C   0  0  0  0  0  0  0  0  0  0  0  0
   -1.5323   -3.0938    1.3194 H   0  0  0  0  0  0  0  0  0  0  0  0
   -2.6863   -1.8144    1.6090 H   0  0  0  0  0  0  0  0  0  0  0  0
    1.7642    0.4775   -2.2585 H   0  0  0  0  0  0  0  0  0  0  0  0
    2.0584   -1.2193   -2.0809 H   0  0  0  0  0  0  0  0  0  0  0  0
   -3.3661    0.4651    0.8449 H   0  0  0  0  0  0  0  0  0  0  0  0
    0.6219    2.3545   -1.4960 H   0  0  0  0  0  0  0  0  0  0  0  0
    1.4336   -3.0148    0.3987 H   0  0  0  0  0  0  0  0  0  0  0  0
    0.0618   -3.7392   -0.4232 H   0  0  0  0  0  0  0  0  0  0  0  0
    1.3243   -3.0183   -1.3831 H   0  0  0  0  0  0  0  0  0  0  0  0
   -2.5330   -3.5013   -0.9563 H   0  0  0  0  0  0  0  0  0  0  0  0
   -3.6835   -2.1933   -0.6858 H   0  0  0  0  0  0  0  0  0  0  0  0
   -1.2501    3.8349   -0.8750 H   0  0  0  0  0  0  0  0  0  0  0  0
    3.4108   -2.0908   -0.1634 H   0  0  0  0  0  0  0  0  0  0  0  0
    2.7052    2.1349   -0.6864 H   0  0  0  0  0  0  0  0  0  0  0  0
   -4.6626   -4.2639   -0.1999 H   0  0  0  0  0  0  0  0  0  0  0  0
   -4.5441   -3.4075    1.1834 H   0  0  0  0  0  0  0  0  0  0  0  0
    5.1699   -1.5836    1.4799 H   0  0  0  0  0  0  0  0  0  0  0  0
    4.4745    2.6234    0.9498 H   0  0  0  0  0  0  0  0  0  0  0  0
    5.7166    0.7712    2.0366 H   0  0  0  0  0  0  0  0  0  0  0  0
   -5.2948    3.3331    1.1877 H   0  0  0  0  0  0  0  0  0  0  0  0
   -4.3013    2.1199    1.9855 H   0  0  0  0  0  0  0  0  0  0  0  0
   -5.0799    1.7878    0.3744 H   0  0  0  0  0  0  0  0  0  0  0  0
  1 15  1  0  0  0  0
  1 22  1  0  0  0  0
  2  5  1  0  0  0  0
  2  7  1  0  0  0  0
  2  9  1  0  0  0  0
  3 13  1  0  0  0  0
  3 37  1  0  0  0  0
  3 38  1  0  0  0  0
  4  5  2  0  0  0  0
  4  6  1  0  0  0  0
  4  8  1  0  0  0  0
  5 12  1  0  0  0  0
  6  7  2  0  0  0  0
  6 10  1  0  0  0  0
  7 11  1  0  0  0  0
  8 13  1  0  0  0  0
  8 23  1  0  0  0  0
  8 24  1  0  0  0  0
  9 14  1  0  0  0  0
  9 25  1  0  0  0  0
  9 26  1  0  0  0  0
 10 15  2  0  0  0  0
 10 27  1  0  0  0  0
 11 16  2  0  0  0  0
 11 28  1  0  0  0  0
 12 29  1  0  0  0  0
 12 30  1  0  0  0  0
 12 31  1  0  0  0  0
 13 32  1  0  0  0  0
 13 33  1  0  0  0  0
 14 17  2  0  0  0  0
 14 18  1  0  0  0  0
 15 16  1  0  0  0  0
 16 34  1  0  0  0  0
 17 19  1  0  0  0  0
 17 35  1  0  0  0  0
 18 20  2  0  0  0  0
 18 36  1  0  0  0  0
 19 21  2  0  0  0  0
 19 39  1  0  0  0  0
 20 21  1  0  0  0  0
 20 40  1  0  0  0  0
 21 41  1  0  0  0  0
 22 42  1  0  0  0  0
 22 43  1  0  0  0  0
 22 44  1  0  0  0  0
M  END
> <PUBCHEM_COMPOUND_CID>
9925

> <PUBCHEM_CONFORMER_RMSD>
0.8

> <PUBCHEM_CONFORMER_DIVERSEORDER>
1
9
15
18
14
11
16
13
10
17
12
7
2
4
8
3
5
6

> <PUBCHEM_MMFF94_PARTIAL_CHARGES>
31
1 -0.36
10 -0.15
11 -0.15
12 0.18
13 0.27
14 -0.14
15 0.08
16 -0.15
17 -0.15
18 -0.15
19 -0.15
2 0.05
20 -0.15
21 -0.15
22 0.28
27 0.15
28 0.15
3 -0.99
34 0.15
35 0.15
36 0.15
37 0.36
38 0.36
39 0.15
4 -0.18
40 0.15
41 0.15
5 -0.33
7 -0.15
8 0.18
9 0.4

> <PUBCHEM_EFFECTIVE_ROTOR_COUNT>
5

> <PUBCHEM_PHARMACOPHORE_FEATURES>
7
1 1 acceptor
1 2 cation
1 3 cation
1 3 donor
5 2 4 5 6 7 rings
6 14 17 18 19 20 21 rings
6 6 7 10 11 15 16 rings

> <PUBCHEM_HEAVY_ATOM_COUNT>
22

> <PUBCHEM_ATOM_DEF_STEREO_COUNT>
0

> <PUBCHEM_ATOM_UDEF_STEREO_COUNT>
0

> <PUBCHEM_BOND_DEF_STEREO_COUNT>
0

> <PUBCHEM_BOND_UDEF_STEREO_COUNT>
0

> <PUBCHEM_ISOTOPIC_ATOM_COUNT>
0

> <PUBCHEM_COMPONENT_COUNT>
1

> <PUBCHEM_CACTVS_TAUTO_COUNT>
1

> <PUBCHEM_CONFORMER_ID>
000026C500000001

> <PUBCHEM_MMFF94_ENERGY>
52.9689

> <PUBCHEM_FEATURE_SELFOVERLAP>
35.612

> <PUBCHEM_SHAPE_FINGERPRINT>
10074138 170 18341909480076523827
10319926 262 18336276712642137810
11265709 11 18124874560392598535
121448 382 18267606752183166805
12422481 6 18193528187249049899
12553582 1 17981864381355243767
12633257 1 18269847552754307800
12788726 201 18125146152586121134
12892183 10 18338248059591475786
13004483 165 18194693565793968299
13083527 12 17977665312230778333
13140716 1 18410576206156075300
13955234 65 17329701532816221177
14178342 30 18413101766721217951
14420673 8 18124041380610494658
14787075 74 18041006180306610577
15042514 8 18341608231107272331
15295992 7 17895773871336818128
16110190 28 18055374667605521482
16945 1 18268977834133807935
20510252 161 18262515897160763906
21033648 29 18053962906980401780
21041028 32 18122341277471028791
21065199 12 18336273358198598922
21452121 103 17978792638141161745
21731228 192 18339086007288828036
23419403 2 17753347378417857737
23557571 272 18260813900220776526
23558518 356 18343298150298692762
23559900 14 18263348335269566644
25147074 1 17988347175243099164
3187 122 18196390129536789456
4340502 62 18263638644910095673
474 4 18042691782939262808
5104073 3 18338815455004743776
7097593 13 18058460953435695314
7364860 26 17688588681329466223
7808743 9 18340753906568245604
81228 2 18271792502423415455
9709674 26 18335422413091640126
9777508 108 18409447024625232275

> <PUBCHEM_SHAPE_MULTIPOLES>
436.92
8.74
4.19
1.1
5.39
1.65
0.02
-1.86
-4.14
-6.56
-0.35
0.53
-0.14
0.1

> <PUBCHEM_SHAPE_SELFOVERLAP>
944.708

> <PUBCHEM_SHAPE_VOLUME>
243

> <PUBCHEM_COORDINATE_TYPE>
2
5
10

$$$$

