440992
  -OEChem-07051212512D

 28 28  0     1  0  0  0  0  0999 V2000
    6.3301    1.8450    0.0000 P   0  0  0  0  0  0  0  0  0  0  0  0
    3.7320    0.3450    0.0000 O   0  0  0  0  0  0  0  0  0  0  0  0
    5.4641   -1.6550    0.0000 O   0  0  0  0  0  0  0  0  0  0  0  0
    3.7320   -2.6550    0.0000 O   0  0  0  0  0  0  0  0  0  0  0  0
    5.4641    1.3450    0.0000 O   0  0  0  0  0  0  0  0  0  0  0  0
    2.0000    0.3450    0.0000 O   0  0  0  0  0  0  0  0  0  0  0  0
    7.1962    2.3450    0.0000 O   0  0  0  0  0  0  0  0  0  0  0  0
    5.8301    2.7110    0.0000 O   0  0  0  0  0  0  0  0  0  0  0  0
    6.8301    0.9790    0.0000 O   0  0  0  0  0  0  0  0  0  0  0  0
    4.5981   -1.1550    0.0000 C   0  0  2  0  0  0  0  0  0  0  0  0
    4.5981   -0.1550    0.0000 C   0  0  1  0  0  0  0  0  0  0  0  0
    3.7320   -1.6550    0.0000 C   0  0  1  0  0  0  0  0  0  0  0  0
    2.8660   -1.1550    0.0000 C   0  0  0  0  0  0  0  0  0  0  0  0
    2.8660   -0.1550    0.0000 C   0  0  3  0  0  0  0  0  0  0  0  0
    5.4641    0.3450    0.0000 C   0  0  0  0  0  0  0  0  0  0  0  0
    4.5981   -1.7750    0.0000 H   0  0  0  0  0  0  0  0  0  0  0  0
    4.5981    0.4650    0.0000 H   0  0  0  0  0  0  0  0  0  0  0  0
    4.2690   -1.9650    0.0000 H   0  0  0  0  0  0  0  0  0  0  0  0
    2.2554   -1.0473    0.0000 H   0  0  0  0  0  0  0  0  0  0  0  0
    2.6540   -1.7376    0.0000 H   0  0  0  0  0  0  0  0  0  0  0  0
    2.8660    0.6950    0.0000 H   0  0  0  0  0  0  0  0  0  0  0  0
    5.6762   -0.2376    0.0000 H   0  0  0  0  0  0  0  0  0  0  0  0
    6.0747    0.4527    0.0000 H   0  0  0  0  0  0  0  0  0  0  0  0
    5.4641   -2.2750    0.0000 H   0  0  0  0  0  0  0  0  0  0  0  0
    3.1951   -2.9650    0.0000 H   0  0  0  0  0  0  0  0  0  0  0  0
    2.0000    0.9650    0.0000 H   0  0  0  0  0  0  0  0  0  0  0  0
    7.1962    2.9650    0.0000 H   0  0  0  0  0  0  0  0  0  0  0  0
    5.2101    2.7110    0.0000 H   0  0  0  0  0  0  0  0  0  0  0  0
  1  5  1  0  0  0  0
  1  7  1  0  0  0  0
  1  8  1  0  0  0  0
  1  9  2  0  0  0  0
  2 11  1  0  0  0  0
  2 14  1  0  0  0  0
 10  3  1  1  0  0  0
  3 24  1  0  0  0  0
 12  4  1  6  0  0  0
  4 25  1  0  0  0  0
  5 15  1  0  0  0  0
  6 14  1  0  0  0  0
  6 26  1  0  0  0  0
  7 27  1  0  0  0  0
  8 28  1  0  0  0  0
 10 11  1  0  0  0  0
 10 12  1  0  0  0  0
 10 16  1  0  0  0  0
 11 15  1  6  0  0  0
 11 17  1  0  0  0  0
 12 13  1  0  0  0  0
 12 18  1  0  0  0  0
 13 14  1  0  0  0  0
 13 19  1  0  0  0  0
 13 20  1  0  0  0  0
 14 21  1  0  0  0  0
 15 22  1  0  0  0  0
 15 23  1  0  0  0  0
M  END
> <PUBCHEM_COMPOUND_CID>
440992

> <PUBCHEM_COMPOUND_CANONICALIZED>
1

> <PUBCHEM_CACTVS_COMPLEXITY>
252

> <PUBCHEM_CACTVS_HBOND_ACCEPTOR>
8

> <PUBCHEM_CACTVS_HBOND_DONOR>
5

> <PUBCHEM_CACTVS_ROTATABLE_BOND>
3

> <PUBCHEM_CACTVS_SUBSKEYS>
AAADccBgPAIAAAAAAAAAAAAAAAAAAAAAAAAkAAAAAAAAAAAAAAAAGgAACCAACBSwgAMACAAABxAAQAAAAIAAAAAAAAAAAAAAAAAREAIAAAACQAAFAAAHAAHAYAQAAAAAAAAAAAAAAAAAAAAAAAAAAAAAAA==

> <PUBCHEM_IUPAC_OPENEYE_NAME>
[(2R,3S,4R)-3,4,6-trihydroxytetrahydropyran-2-yl]methyl dihydrogen phosphate

> <PUBCHEM_IUPAC_CAS_NAME>
[(2R,3S,4R)-3,4,6-trihydroxy-2-oxanyl]methyl dihydrogen phosphate

> <PUBCHEM_IUPAC_NAME>
[(2R,3S,4R)-3,4,6-trihydroxyoxan-2-yl]methyl dihydrogen phosphate

> <PUBCHEM_IUPAC_SYSTEMATIC_NAME>
[(2R,3S,4R)-3,4,6-tris(oxidanyl)oxan-2-yl]methyl dihydrogen phosphate

> <PUBCHEM_IUPAC_TRADITIONAL_NAME>
[(2R,3S,4R)-3,4,6-trihydroxytetrahydropyran-2-yl]methyl dihydrogen phosphate

> <PUBCHEM_IUPAC_INCHI>
InChI=1S/C6H13O8P/c7-3-1-5(8)14-4(6(3)9)2-13-15(10,11)12/h3-9H,1-2H2,(H2,10,11,12)/t3-,4-,5?,6+/m1/s1

> <PUBCHEM_IUPAC_INCHIKEY>
UQJFZAAGZAYVKZ-CERMHHMHSA-N

> <PUBCHEM_XLOGP3_AA>
-3.3

> <PUBCHEM_EXACT_MASS>
244.034804

> <PUBCHEM_MOLECULAR_FORMULA>
C6H13O8P

> <PUBCHEM_MOLECULAR_WEIGHT>
244.136382

> <PUBCHEM_OPENEYE_CAN_SMILES>
C1C(C(C(OC1O)COP(=O)(O)O)O)O

> <PUBCHEM_OPENEYE_ISO_SMILES>
C1[C@H]([C@@H]([C@H](OC1O)COP(=O)(O)O)O)O

> <PUBCHEM_CACTVS_TPSA>
137

> <PUBCHEM_MONOISOTOPIC_WEIGHT>
244.034804

> <PUBCHEM_TOTAL_CHARGE>
0

> <PUBCHEM_HEAVY_ATOM_COUNT>
15

> <PUBCHEM_ATOM_DEF_STEREO_COUNT>
3

> <PUBCHEM_ATOM_UDEF_STEREO_COUNT>
1

> <PUBCHEM_BOND_DEF_STEREO_COUNT>
0

> <PUBCHEM_BOND_UDEF_STEREO_COUNT>
0

> <PUBCHEM_ISOTOPIC_ATOM_COUNT>
0

> <PUBCHEM_COMPONENT_COUNT>
1

> <PUBCHEM_CACTVS_TAUTO_COUNT>
1

> <PUBCHEM_COORDINATE_TYPE>
1
5
255

> <PUBCHEM_BONDANNOTATIONS>
11  15  6
14  21  3
10  3  5
12  4  6

$$$$

