13341
  -OEChem-06261209072D

 76 78  0     1  0  0  0  0  0999 V2000
   12.3424    9.5336    0.0000 Na  0  3  0  0  0  0  0  0  0  0  0  0
    5.0628    5.1514    0.0000 O   0  0  0  0  0  0  0  0  0  0  0  0
    5.9506    0.6200    0.0000 O   0  0  0  0  0  0  0  0  0  0  0  0
    0.5357    0.5991    0.0000 O   0  0  0  0  0  0  0  0  0  0  0  0
   10.1212    5.5253    0.0000 O   0  0  0  0  0  0  0  0  0  0  0  0
   12.0317    8.5831    0.0000 O   0  5  0  0  0  0  0  0  0  0  0  0
   10.3854    9.1212    0.0000 O   0  0  0  0  0  0  0  0  0  0  0  0
    9.7640    7.2202    0.0000 N   0  0  0  0  0  0  0  0  0  0  0  0
    5.9288    3.6514    0.0000 C   0  0  3  0  0  0  0  0  0  0  0  0
    5.9288    2.6514    0.0000 C   0  0  3  0  0  0  0  0  0  0  0  0
    5.0628    2.1514    0.0000 C   0  0  3  0  0  0  0  0  0  0  0  0
    4.1968    2.6514    0.0000 C   0  0  3  0  0  0  0  0  0  0  0  0
    3.2868    2.1446    0.0000 C   0  0  3  0  0  0  0  0  0  0  0  0
    6.8750    3.9562    0.0000 C   0  0  3  0  0  0  0  0  0  0  0  0
    5.0628    4.1514    0.0000 C   0  0  3  0  0  0  0  0  0  0  0  0
    4.1968    3.6514    0.0000 C   0  0  0  0  0  0  0  0  0  0  0  0
    3.2787    1.1030    0.0000 C   0  0  3  0  0  0  0  0  0  0  0  0
    6.8750    2.3467    0.0000 C   0  0  0  0  0  0  0  0  0  0  0  0
    5.0789    1.1099    0.0000 C   0  0  3  0  0  0  0  0  0  0  0  0
    7.4587    3.1514    0.0000 C   0  0  0  0  0  0  0  0  0  0  0  0
    4.1808    0.5822    0.0000 C   0  0  0  0  0  0  0  0  0  0  0  0
    2.3599    2.7087    0.0000 C   0  0  0  0  0  0  0  0  0  0  0  0
    5.9288    4.6514    0.0000 C   0  0  0  0  0  0  0  0  0  0  0  0
    7.1857    4.9067    0.0000 C   0  0  3  0  0  0  0  0  0  0  0  0
    2.3433    0.5532    0.0000 C   0  0  0  0  0  0  0  0  0  0  0  0
    3.2945    3.1445    0.0000 C   0  0  0  0  0  0  0  0  0  0  0  0
    1.4121    2.1807    0.0000 C   0  0  0  0  0  0  0  0  0  0  0  0
    1.4037    1.0957    0.0000 C   0  0  3  0  0  0  0  0  0  0  0  0
    8.1642    5.1129    0.0000 C   0  0  0  0  0  0  0  0  0  0  0  0
    6.5179    5.6510    0.0000 C   0  0  0  0  0  0  0  0  0  0  0  0
    8.4749    6.0634    0.0000 C   0  0  0  0  0  0  0  0  0  0  0  0
    9.4534    6.2696    0.0000 C   0  0  0  0  0  0  0  0  0  0  0  0
   10.7425    7.4264    0.0000 C   0  0  0  0  0  0  0  0  0  0  0  0
   11.0532    8.3769    0.0000 C   0  0  0  0  0  0  0  0  0  0  0  0
    6.0188    1.8062    0.0000 H   0  0  0  0  0  0  0  0  0  0  0  0
    5.8022    1.7321    0.0000 H   0  0  0  0  0  0  0  0  0  0  0  0
    4.9329    3.0764    0.0000 H   0  0  0  0  0  0  0  0  0  0  0  0
    7.7148    4.0880    0.0000 H   0  0  0  0  0  0  0  0  0  0  0  0
    5.7989    4.5764    0.0000 H   0  0  0  0  0  0  0  0  0  0  0  0
    3.9847    4.2340    0.0000 H   0  0  0  0  0  0  0  0  0  0  0  0
    3.5862    3.5438    0.0000 H   0  0  0  0  0  0  0  0  0  0  0  0
    3.2820    0.2530    0.0000 H   0  0  0  0  0  0  0  0  0  0  0  0
    6.6240    1.7798    0.0000 H   0  0  0  0  0  0  0  0  0  0  0  0
    7.4124    2.0375    0.0000 H   0  0  0  0  0  0  0  0  0  0  0  0
    5.8092    1.5448    0.0000 H   0  0  0  0  0  0  0  0  0  0  0  0
    7.9195    2.7367    0.0000 H   0  0  0  0  0  0  0  0  0  0  0  0
    7.9195    3.5662    0.0000 H   0  0  0  0  0  0  0  0  0  0  0  0
    3.7835    0.1062    0.0000 H   0  0  0  0  0  0  0  0  0  0  0  0
    4.5818    0.1093    0.0000 H   0  0  0  0  0  0  0  0  0  0  0  0
    2.7681    3.1753    0.0000 H   0  0  0  0  0  0  0  0  0  0  0  0
    1.9700    3.1907    0.0000 H   0  0  0  0  0  0  0  0  0  0  0  0
    6.5488    4.6514    0.0000 H   0  0  0  0  0  0  0  0  0  0  0  0
    5.9288    5.2714    0.0000 H   0  0  0  0  0  0  0  0  0  0  0  0
    5.3088    4.6514    0.0000 H   0  0  0  0  0  0  0  0  0  0  0  0
    7.4498    5.7146    0.0000 H   0  0  0  0  0  0  0  0  0  0  0  0
    1.9460    0.0773    0.0000 H   0  0  0  0  0  0  0  0  0  0  0  0
    2.7443    0.0804    0.0000 H   0  0  0  0  0  0  0  0  0  0  0  0
    3.9145    3.1398    0.0000 H   0  0  0  0  0  0  0  0  0  0  0  0
    3.2993    3.7645    0.0000 H   0  0  0  0  0  0  0  0  0  0  0  0
    2.6745    3.1493    0.0000 H   0  0  0  0  0  0  0  0  0  0  0  0
    1.2075    2.7660    0.0000 H   0  0  0  0  0  0  0  0  0  0  0  0
    0.8004    2.0793    0.0000 H   0  0  0  0  0  0  0  0  0  0  0  0
    1.4021    0.2457    0.0000 H   0  0  0  0  0  0  0  0  0  0  0  0
    4.5259    5.4614    0.0000 H   0  0  0  0  0  0  0  0  0  0  0  0
    8.1848    4.4932    0.0000 H   0  0  0  0  0  0  0  0  0  0  0  0
    8.7780    5.0255    0.0000 H   0  0  0  0  0  0  0  0  0  0  0  0
    5.9578    0.0000    0.0000 H   0  0  0  0  0  0  0  0  0  0  0  0
    6.9793    6.0650    0.0000 H   0  0  0  0  0  0  0  0  0  0  0  0
    6.1038    6.1124    0.0000 H   0  0  0  0  0  0  0  0  0  0  0  0
    6.0564    5.2369    0.0000 H   0  0  0  0  0  0  0  0  0  0  0  0
    0.0000    0.9112    0.0000 H   0  0  0  0  0  0  0  0  0  0  0  0
    8.4543    6.6831    0.0000 H   0  0  0  0  0  0  0  0  0  0  0  0
    7.8611    6.1508    0.0000 H   0  0  0  0  0  0  0  0  0  0  0  0
    9.3500    7.6816    0.0000 H   0  0  0  0  0  0  0  0  0  0  0  0
   10.7631    6.8067    0.0000 H   0  0  0  0  0  0  0  0  0  0  0  0
   11.3564    7.3390    0.0000 H   0  0  0  0  0  0  0  0  0  0  0  0
  2 15  1  0  0  0  0
  2 64  1  0  0  0  0
  3 19  1  0  0  0  0
  3 67  1  0  0  0  0
  4 28  1  0  0  0  0
  4 71  1  0  0  0  0
  5 32  2  0  0  0  0
  6 34  1  0  0  0  0
  7 34  2  0  0  0  0
  8 32  1  0  0  0  0
  8 33  1  0  0  0  0
  8 74  1  0  0  0  0
  9 10  1  0  0  0  0
  9 14  1  0  0  0  0
  9 15  1  0  0  0  0
  9 23  1  0  0  0  0
 10 11  1  0  0  0  0
 10 18  1  0  0  0  0
 10 35  1  0  0  0  0
 11 12  1  0  0  0  0
 11 19  1  0  0  0  0
 11 36  1  0  0  0  0
 12 13  1  0  0  0  0
 12 16  1  0  0  0  0
 12 37  1  0  0  0  0
 13 17  1  0  0  0  0
 13 22  1  0  0  0  0
 13 26  1  0  0  0  0
 14 20  1  0  0  0  0
 14 24  1  0  0  0  0
 14 38  1  0  0  0  0
 15 16  1  0  0  0  0
 15 39  1  0  0  0  0
 16 40  1  0  0  0  0
 16 41  1  0  0  0  0
 17 21  1  0  0  0  0
 17 25  1  0  0  0  0
 17 42  1  0  0  0  0
 18 20  1  0  0  0  0
 18 43  1  0  0  0  0
 18 44  1  0  0  0  0
 19 21  1  0  0  0  0
 19 45  1  0  0  0  0
 20 46  1  0  0  0  0
 20 47  1  0  0  0  0
 21 48  1  0  0  0  0
 21 49  1  0  0  0  0
 22 27  1  0  0  0  0
 22 50  1  0  0  0  0
 22 51  1  0  0  0  0
 23 52  1  0  0  0  0
 23 53  1  0  0  0  0
 23 54  1  0  0  0  0
 24 29  1  0  0  0  0
 24 30  1  0  0  0  0
 24 55  1  0  0  0  0
 25 28  1  0  0  0  0
 25 56  1  0  0  0  0
 25 57  1  0  0  0  0
 26 58  1  0  0  0  0
 26 59  1  0  0  0  0
 26 60  1  0  0  0  0
 27 28  1  0  0  0  0
 27 61  1  0  0  0  0
 27 62  1  0  0  0  0
 28 63  1  0  0  0  0
 29 31  1  0  0  0  0
 29 65  1  0  0  0  0
 29 66  1  0  0  0  0
 30 68  1  0  0  0  0
 30 69  1  0  0  0  0
 30 70  1  0  0  0  0
 31 32  1  0  0  0  0
 31 72  1  0  0  0  0
 31 73  1  0  0  0  0
 33 34  1  0  0  0  0
 33 75  1  0  0  0  0
 33 76  1  0  0  0  0
M  CHG  2   1   1   6  -1
M  END
> <PUBCHEM_COMPOUND_CID>
13341

> <PUBCHEM_COMPOUND_CANONICALIZED>
1

> <PUBCHEM_CACTVS_COMPLEXITY>
754

> <PUBCHEM_CACTVS_HBOND_ACCEPTOR>
6

> <PUBCHEM_CACTVS_HBOND_DONOR>
4

> <PUBCHEM_CACTVS_ROTATABLE_BOND>
5

> <PUBCHEM_CACTVS_SUBSKEYS>
AAADcfB6OCAAAAAAAAAAAAAAAAAAAYAAAAAwYMAAAAAAAGDAAAAAHgAQCAAADxThgAYCCALAAgAIAAGQGAAAAAAAAAAAAIGIAAACEBIAgCAEQAAEFgCQAAGY6PSPgAAAAAAAAADAAAYAADAAAQAACAAAAA==

> <PUBCHEM_IUPAC_OPENEYE_NAME>
sodium 2-[4-(3,7,12-trihydroxy-10,13-dimethyl-2,3,4,5,6,7,8,9,11,12,14,15,16,17-tetradecahydro-1H-cyclopenta[a]phenanthren-17-yl)pentanoylamino]acetate

> <PUBCHEM_IUPAC_CAS_NAME>
sodium 2-[[1-oxo-4-(3,7,12-trihydroxy-10,13-dimethyl-2,3,4,5,6,7,8,9,11,12,14,15,16,17-tetradecahydro-1H-cyclopenta[a]phenanthren-17-yl)pentyl]amino]acetate

> <PUBCHEM_IUPAC_NAME>
sodium 2-[4-(3,7,12-trihydroxy-10,13-dimethyl-2,3,4,5,6,7,8,9,11,12,14,15,16,17-tetradecahydro-1H-cyclopenta[a]phenanthren-17-yl)pentanoylamino]acetate

> <PUBCHEM_IUPAC_SYSTEMATIC_NAME>
sodium 2-[4-[10,13-dimethyl-3,7,12-tris(oxidanyl)-2,3,4,5,6,7,8,9,11,12,14,15,16,17-tetradecahydro-1H-cyclopenta[a]phenanthren-17-yl]pentanoylamino]ethanoate

> <PUBCHEM_IUPAC_TRADITIONAL_NAME>
sodium 2-[4-(3,7,12-trihydroxy-10,13-dimethyl-2,3,4,5,6,7,8,9,11,12,14,15,16,17-tetradecahydro-1H-cyclopenta[a]phenanthren-17-yl)pentanoylamino]acetate

> <PUBCHEM_IUPAC_INCHI>
InChI=1S/C26H43NO6.Na/c1-14(4-7-22(31)27-13-23(32)33)17-5-6-18-24-19(12-21(30)26(17,18)3)25(2)9-8-16(28)10-15(25)11-20(24)29;/h14-21,24,28-30H,4-13H2,1-3H3,(H,27,31)(H,32,33);/q;+1/p-1

> <PUBCHEM_IUPAC_INCHIKEY>
OABYVIYXWMZFFJ-UHFFFAOYSA-M

> <PUBCHEM_EXACT_MASS>
487.290982

> <PUBCHEM_MOLECULAR_FORMULA>
C26H42NNaO6

> <PUBCHEM_MOLECULAR_WEIGHT>
487.604549

> <PUBCHEM_OPENEYE_CAN_SMILES>
CC(CCC(=O)NCC(=O)[O-])C1CCC2C1(C(CC3C2C(CC4C3(CCC(C4)O)C)O)O)C.[Na+]

> <PUBCHEM_OPENEYE_ISO_SMILES>
CC(CCC(=O)NCC(=O)[O-])C1CCC2C1(C(CC3C2C(CC4C3(CCC(C4)O)C)O)O)C.[Na+]

> <PUBCHEM_CACTVS_TPSA>
130

> <PUBCHEM_MONOISOTOPIC_WEIGHT>
487.290982

> <PUBCHEM_TOTAL_CHARGE>
0

> <PUBCHEM_HEAVY_ATOM_COUNT>
34

> <PUBCHEM_ATOM_DEF_STEREO_COUNT>
0

> <PUBCHEM_ATOM_UDEF_STEREO_COUNT>
11

> <PUBCHEM_BOND_DEF_STEREO_COUNT>
0

> <PUBCHEM_BOND_UDEF_STEREO_COUNT>
0

> <PUBCHEM_ISOTOPIC_ATOM_COUNT>
0

> <PUBCHEM_COMPONENT_COUNT>
2

> <PUBCHEM_CACTVS_TAUTO_COUNT>
2

> <PUBCHEM_COORDINATE_TYPE>
1
5
255

> <PUBCHEM_BONDANNOTATIONS>
10  35  3
11  36  3
12  37  3
13  26  3
14  38  3
15  39  3
17  42  3
19  45  3
24  55  3
28  63  3
9  23  3

$$$$

