7847026
  -OEChem-06241222483D

 44 46  0     0  0  0  0  0  0999 V2000
    3.6117    0.5656   -1.3939 S   0  0  0  0  0  0  0  0  0  0  0  0
   -0.9060   -0.4771   -1.2773 O   0  0  0  0  0  0  0  0  0  0  0  0
    0.9534   -2.0769   -0.1682 O   0  0  0  0  0  0  0  0  0  0  0  0
    1.7089   -3.5964    1.3947 O   0  0  0  0  0  0  0  0  0  0  0  0
   -2.4918   -1.0502    0.3246 N   0  0  0  0  0  0  0  0  0  0  0  0
   -4.1567   -0.9477   -2.6281 N   0  0  0  0  0  0  0  0  0  0  0  0
    2.6890    0.1800    0.9836 N   0  0  0  0  0  0  0  0  0  0  0  0
   -3.5715   -0.2242   -0.1707 C   0  0  0  0  0  0  0  0  0  0  0  0
   -3.2097    1.2612   -0.0858 C   0  0  0  0  0  0  0  0  0  0  0  0
   -4.7911   -0.3043    0.7518 C   0  0  0  0  0  0  0  0  0  0  0  0
   -3.4457    1.6372    1.3760 C   0  0  0  0  0  0  0  0  0  0  0  0
   -4.4643    0.6325    1.9137 C   0  0  0  0  0  0  0  0  0  0  0  0
   -3.8983   -0.6283   -1.5430 C   0  0  0  0  0  0  0  0  0  0  0  0
   -1.2456   -1.1037   -0.2772 C   0  0  0  0  0  0  0  0  0  0  0  0
   -0.3140   -2.0474    0.4530 C   0  0  0  0  0  0  0  0  0  0  0  0
    3.1838   -2.8195   -0.3765 C   0  0  0  0  0  0  0  0  0  0  0  0
    4.0925   -1.7011    0.1358 C   0  0  0  0  0  0  0  0  0  0  0  0
    1.8922   -2.9013    0.4049 C   0  0  0  0  0  0  0  0  0  0  0  0
    3.4232   -0.3543    0.0357 C   0  0  0  0  0  0  0  0  0  0  0  0
    2.6274    1.8069   -0.7131 C   0  0  0  0  0  0  0  0  0  0  0  0
    2.2253    1.4199    0.5689 C   0  0  0  0  0  0  0  0  0  0  0  0
    2.2390    3.0346   -1.2731 C   0  0  0  0  0  0  0  0  0  0  0  0
    1.4055    2.2946    1.3147 C   0  0  0  0  0  0  0  0  0  0  0  0
    1.4277    3.8815   -0.5139 C   0  0  0  0  0  0  0  0  0  0  0  0
    1.0152    3.5183    0.7633 C   0  0  0  0  0  0  0  0  0  0  0  0
   -2.1904    1.5088   -0.3973 H   0  0  0  0  0  0  0  0  0  0  0  0
   -3.8850    1.8581   -0.7145 H   0  0  0  0  0  0  0  0  0  0  0  0
   -5.0069   -1.3203    1.1008 H   0  0  0  0  0  0  0  0  0  0  0  0
   -5.6921    0.0626    0.2418 H   0  0  0  0  0  0  0  0  0  0  0  0
   -2.5120    1.5610    1.9455 H   0  0  0  0  0  0  0  0  0  0  0  0
   -3.8027    2.6679    1.4690 H   0  0  0  0  0  0  0  0  0  0  0  0
   -5.3651    1.1283    2.2892 H   0  0  0  0  0  0  0  0  0  0  0  0
   -4.0281    0.0708    2.7478 H   0  0  0  0  0  0  0  0  0  0  0  0
   -2.6601   -1.6200    1.1493 H   0  0  0  0  0  0  0  0  0  0  0  0
   -0.7579   -3.0496    0.4408 H   0  0  0  0  0  0  0  0  0  0  0  0
   -0.2117   -1.6994    1.4876 H   0  0  0  0  0  0  0  0  0  0  0  0
    2.9503   -2.6948   -1.4408 H   0  0  0  0  0  0  0  0  0  0  0  0
    3.6906   -3.7872   -0.2859 H   0  0  0  0  0  0  0  0  0  0  0  0
    4.3410   -1.8836    1.1888 H   0  0  0  0  0  0  0  0  0  0  0  0
    5.0382   -1.7085   -0.4184 H   0  0  0  0  0  0  0  0  0  0  0  0
    2.5571    3.3247   -2.2698 H   0  0  0  0  0  0  0  0  0  0  0  0
    1.0760    2.0200    2.3128 H   0  0  0  0  0  0  0  0  0  0  0  0
    1.1152    4.8362   -0.9289 H   0  0  0  0  0  0  0  0  0  0  0  0
    0.3831    4.1893    1.3385 H   0  0  0  0  0  0  0  0  0  0  0  0
  1 19  1  0  0  0  0
  1 20  1  0  0  0  0
  2 14  2  0  0  0  0
  3 15  1  0  0  0  0
  3 18  1  0  0  0  0
  4 18  2  0  0  0  0
  5  8  1  0  0  0  0
  5 14  1  0  0  0  0
  5 34  1  0  0  0  0
  6 13  3  0  0  0  0
  7 19  2  0  0  0  0
  7 21  1  0  0  0  0
  8  9  1  0  0  0  0
  8 10  1  0  0  0  0
  8 13  1  0  0  0  0
  9 11  1  0  0  0  0
  9 26  1  0  0  0  0
  9 27  1  0  0  0  0
 10 12  1  0  0  0  0
 10 28  1  0  0  0  0
 10 29  1  0  0  0  0
 11 12  1  0  0  0  0
 11 30  1  0  0  0  0
 11 31  1  0  0  0  0
 12 32  1  0  0  0  0
 12 33  1  0  0  0  0
 14 15  1  0  0  0  0
 15 35  1  0  0  0  0
 15 36  1  0  0  0  0
 16 17  1  0  0  0  0
 16 18  1  0  0  0  0
 16 37  1  0  0  0  0
 16 38  1  0  0  0  0
 17 19  1  0  0  0  0
 17 39  1  0  0  0  0
 17 40  1  0  0  0  0
 20 21  1  0  0  0  0
 20 22  2  0  0  0  0
 21 23  2  0  0  0  0
 22 24  1  0  0  0  0
 22 41  1  0  0  0  0
 23 25  1  0  0  0  0
 23 42  1  0  0  0  0
 24 25  2  0  0  0  0
 24 43  1  0  0  0  0
 25 44  1  0  0  0  0
M  END
> <PUBCHEM_COMPOUND_CID>
7847026

> <PUBCHEM_CONFORMER_RMSD>
1.2

> <PUBCHEM_CONFORMER_DIVERSEORDER>
1
9
163
63
205
90
161
131
33
172
183
117
168
31
49
144
40
28
75
24
160
58
110
82
195
158
4
143
159
190
197
65
202
13
99
86
97
50
112
121
152
124
47
41
72
21
89
104
18
153
60
137
178
8
30
81
23
101
43
80
103
199
165
3
206
132
34
177
37
145
85
25
207
106
77
70
126
66
107
14
198
15
48
128
171
100
157
44
62
105
46
119
116
27
204
55
179
115
186
176
149
94
123
83
138
166
156
185
51
203
19
188
2
6
162
113
22
29
98
189
38
148
32
35
67
76
196
16
71
73
127
173
191
150
146
17
74
141
187
36
79
42
181
39
45
142
118
114
133
84
184
7
151
11
182
26
52
135
130
167
154
109
122
139
95
192
12
180
155
92
57
136
20
129
54
140
164
170
64
174
111
68
102
134
78
108
125
175
147
61
69
200
93
5
193
91
194
96
169
59
53
10
56
87
88
201
120

> <PUBCHEM_MMFF94_PARTIAL_CHARGES>
26
1 -0.08
13 0.36
14 0.57
15 0.34
16 0.06
17 0.18
18 0.66
19 0.2
2 -0.57
20 0.04
21 0.23
22 -0.15
23 -0.15
24 -0.15
25 -0.15
3 -0.43
34 0.37
4 -0.57
41 0.15
42 0.15
43 0.15
44 0.15
5 -0.73
6 -0.56
7 -0.57
8 0.5

> <PUBCHEM_EFFECTIVE_ROTOR_COUNT>
9

> <PUBCHEM_PHARMACOPHORE_FEATURES>
8
1 2 acceptor
1 4 acceptor
1 5 donor
1 6 acceptor
1 7 acceptor
5 1 7 19 20 21 rings
5 8 9 10 11 12 rings
6 20 21 22 23 24 25 rings

> <PUBCHEM_HEAVY_ATOM_COUNT>
25

> <PUBCHEM_ATOM_DEF_STEREO_COUNT>
0

> <PUBCHEM_ATOM_UDEF_STEREO_COUNT>
0

> <PUBCHEM_BOND_DEF_STEREO_COUNT>
0

> <PUBCHEM_BOND_UDEF_STEREO_COUNT>
0

> <PUBCHEM_ISOTOPIC_ATOM_COUNT>
0

> <PUBCHEM_COMPONENT_COUNT>
1

> <PUBCHEM_CACTVS_TAUTO_COUNT>
4

> <PUBCHEM_CONFORMER_ID>
0077BC7200000001

> <PUBCHEM_MMFF94_ENERGY>
40.5552

> <PUBCHEM_FEATURE_SELFOVERLAP>
40.666

> <PUBCHEM_SHAPE_FINGERPRINT>
10165383 225 17986090934433184332
104564 63 17975977888779834270
11513181 2 16740021338868092341
12553582 1 18411980299563379600
12633257 1 18272091595197744986
13533116 47 18337390444753350711
13583140 156 18342452682218827107
15081414 286 18410568518380737478
151778 21 18127677245438341132
15210252 30 18200294599017913732
19930381 70 18195807371526092593
20465049 17 18194656234185599300
21860390 5 18334575754688895870
238 59 18265900150901353454
312423 11 18187085049020780007
474 4 18411981321644237803
5312544 6 18194401096154264263
633830 44 18262507088235516077

> <PUBCHEM_SHAPE_MULTIPOLES>
485.79
9.11
4.47
1.66
8.64
1.18
0.53
-1.17
0.52
-5.01
-0.65
1.52
0.11
-1.68

> <PUBCHEM_SHAPE_SELFOVERLAP>
1019.631

> <PUBCHEM_SHAPE_VOLUME>
273.7

> <PUBCHEM_COORDINATE_TYPE>
2
5
10

$$$$

