69254
  -OEChem-07051213023D

 16 16  0     0  0  0  0  0  0999 V2000
   -3.0293    1.5824   -0.0024 Cl  0  0  0  0  0  0  0  0  0  0  0  0
    2.2868    1.5971    0.0094 O   0  0  0  0  0  0  0  0  0  0  0  0
    2.9971   -0.5832   -0.0047 N   0  0  0  0  0  0  0  0  0  0  0  0
    0.6168   -0.0636   -0.0014 C   0  0  0  0  0  0  0  0  0  0  0  0
   -0.4217    0.8677   -0.0024 C   0  0  0  0  0  0  0  0  0  0  0  0
    0.3294   -1.4286    0.0014 C   0  0  0  0  0  0  0  0  0  0  0  0
   -1.7473    0.4341   -0.0006 C   0  0  0  0  0  0  0  0  0  0  0  0
   -0.9963   -1.8622    0.0032 C   0  0  0  0  0  0  0  0  0  0  0  0
   -2.0347   -0.9308    0.0021 C   0  0  0  0  0  0  0  0  0  0  0  0
    1.9993    0.3872   -0.0046 C   0  0  0  0  0  0  0  0  0  0  0  0
   -0.2082    1.9342   -0.0050 H   0  0  0  0  0  0  0  0  0  0  0  0
    1.0830   -2.2067    0.0028 H   0  0  0  0  0  0  0  0  0  0  0  0
   -1.2212   -2.9249    0.0055 H   0  0  0  0  0  0  0  0  0  0  0  0
   -3.0629   -1.2833    0.0034 H   0  0  0  0  0  0  0  0  0  0  0  0
    2.8533   -1.5846   -0.0116 H   0  0  0  0  0  0  0  0  0  0  0  0
    3.9704   -0.2939    0.0001 H   0  0  0  0  0  0  0  0  0  0  0  0
  1  7  1  0  0  0  0
  2 10  2  0  0  0  0
  3 10  1  0  0  0  0
  3 15  1  0  0  0  0
  3 16  1  0  0  0  0
  4  5  2  0  0  0  0
  4  6  1  0  0  0  0
  4 10  1  0  0  0  0
  5  7  1  0  0  0  0
  5 11  1  0  0  0  0
  6  8  2  0  0  0  0
  6 12  1  0  0  0  0
  7  9  2  0  0  0  0
  8  9  1  0  0  0  0
  8 13  1  0  0  0  0
  9 14  1  0  0  0  0
M  END
> <PUBCHEM_COMPOUND_CID>
69254

> <PUBCHEM_CONFORMER_RMSD>
0.4

> <PUBCHEM_CONFORMER_DIVERSEORDER>
1
2

> <PUBCHEM_MMFF94_PARTIAL_CHARGES>
16
1 -0.18
10 0.54
11 0.15
12 0.15
13 0.15
14 0.15
15 0.37
16 0.37
2 -0.57
3 -0.8
4 0.09
5 -0.15
6 -0.15
7 0.18
8 -0.15
9 -0.15

> <PUBCHEM_EFFECTIVE_ROTOR_COUNT>
1

> <PUBCHEM_PHARMACOPHORE_FEATURES>
3
1 2 acceptor
1 3 donor
6 4 5 6 7 8 9 rings

> <PUBCHEM_HEAVY_ATOM_COUNT>
10

> <PUBCHEM_ATOM_DEF_STEREO_COUNT>
0

> <PUBCHEM_ATOM_UDEF_STEREO_COUNT>
0

> <PUBCHEM_BOND_DEF_STEREO_COUNT>
0

> <PUBCHEM_BOND_UDEF_STEREO_COUNT>
0

> <PUBCHEM_ISOTOPIC_ATOM_COUNT>
0

> <PUBCHEM_COMPONENT_COUNT>
1

> <PUBCHEM_CACTVS_TAUTO_COUNT>
2

> <PUBCHEM_CONFORMER_ID>
00010E8600000001

> <PUBCHEM_MMFF94_ENERGY>
26.6042

> <PUBCHEM_FEATURE_SELFOVERLAP>
15.223

> <PUBCHEM_SHAPE_FINGERPRINT>
12716758 59 18336268963587159962
12932764 1 17604990317157265302
13380535 76 18338519758795424047
14325111 11 18410575080368300005
15775835 57 18272364304293780268
16945 1 18338516464165013927
193761 8 14447405866552333190
19973954 147 18339078164430749116
20653085 51 18411971464435713800
20871998 184 18044930182418015975
21028194 46 18412258467320255321
21040471 1 18410855477455776007
23235685 24 18337960107144699497
23402655 69 18120389902425819093
23552423 10 18200313208710241158
23559900 14 18261667160964259702
241688 4 16463610807082829459
2748010 2 18410290281118382005
369184 2 18262799557985625786
5084963 1 18259985950685081834
528886 8 18338521948927856905

> <PUBCHEM_SHAPE_MULTIPOLES>
196.81
4.07
1.88
0.6
0.53
0.28
0
-1.68
0
-0.52
0
-0.06
0.01
0

> <PUBCHEM_SHAPE_SELFOVERLAP>
403.408

> <PUBCHEM_SHAPE_VOLUME>
114.7

> <PUBCHEM_COORDINATE_TYPE>
2
5
10

$$$$

