13839
  -OEChem-06241222403D

 40 39  0     0  0  0  0  0  0999 V2000
   -0.0140    2.0567   -0.0713 P   0  0  0  0  0  0  0  0  0  0  0  0
    1.5046    1.5969   -0.3799 O   0  0  0  0  0  0  0  0  0  0  0  0
   -0.8485    0.6696   -0.0792 O   0  0  0  0  0  0  0  0  0  0  0  0
   -0.5271    3.0962   -1.0263 O   0  0  0  0  0  0  0  0  0  0  0  0
    3.2905    0.0027   -0.4339 C   0  0  0  0  0  0  0  0  0  0  0  0
   -2.8056   -0.7043   -0.0733 C   0  0  0  0  0  0  0  0  0  0  0  0
    4.0006   -1.1248    0.3120 C   0  0  0  0  0  0  0  0  0  0  0  0
   -4.3321   -0.7270   -0.0393 C   0  0  0  0  0  0  0  0  0  0  0  0
    2.1102    0.5454    0.3594 C   0  0  0  0  0  0  0  0  0  0  0  0
   -2.2642    0.7184   -0.0613 C   0  0  0  0  0  0  0  0  0  0  0  0
    5.2093   -1.6352   -0.4719 C   0  0  0  0  0  0  0  0  0  0  0  0
   -4.8663   -2.1587   -0.0089 C   0  0  0  0  0  0  0  0  0  0  0  0
   -0.0114    2.5844    1.6315 C   0  0  0  0  0  0  0  0  0  0  0  0
    5.9389   -2.7350    0.2830 C   0  0  0  0  0  0  0  0  0  0  0  0
   -6.3849   -2.1853    0.0593 C   0  0  0  0  0  0  0  0  0  0  0  0
    3.9914    0.8204   -0.6436 H   0  0  0  0  0  0  0  0  0  0  0  0
    2.9404   -0.3504   -1.4119 H   0  0  0  0  0  0  0  0  0  0  0  0
   -2.3983   -1.2525    0.7855 H   0  0  0  0  0  0  0  0  0  0  0  0
   -2.4372   -1.2272   -0.9647 H   0  0  0  0  0  0  0  0  0  0  0  0
    4.3278   -0.7644    1.2950 H   0  0  0  0  0  0  0  0  0  0  0  0
    3.2995   -1.9498    0.4875 H   0  0  0  0  0  0  0  0  0  0  0  0
   -4.6868   -0.1854    0.8462 H   0  0  0  0  0  0  0  0  0  0  0  0
   -4.7284   -0.2038   -0.9180 H   0  0  0  0  0  0  0  0  0  0  0  0
    1.3848   -0.2517    0.5487 H   0  0  0  0  0  0  0  0  0  0  0  0
    2.4469    0.9466    1.3205 H   0  0  0  0  0  0  0  0  0  0  0  0
   -2.6148    1.2682   -0.9408 H   0  0  0  0  0  0  0  0  0  0  0  0
   -2.5934    1.2481    0.8384 H   0  0  0  0  0  0  0  0  0  0  0  0
    5.9052   -0.8101   -0.6634 H   0  0  0  0  0  0  0  0  0  0  0  0
    4.8857   -2.0196   -1.4462 H   0  0  0  0  0  0  0  0  0  0  0  0
   -4.4597   -2.6902    0.8594 H   0  0  0  0  0  0  0  0  0  0  0  0
   -4.5355   -2.6984   -0.9039 H   0  0  0  0  0  0  0  0  0  0  0  0
   -1.0140    2.8965    1.9366 H   0  0  0  0  0  0  0  0  0  0  0  0
    0.6652    3.4329    1.7654 H   0  0  0  0  0  0  0  0  0  0  0  0
    0.3089    1.7790    2.2978 H   0  0  0  0  0  0  0  0  0  0  0  0
    6.3053   -2.3718    1.2485 H   0  0  0  0  0  0  0  0  0  0  0  0
    5.2796   -3.5897    0.4649 H   0  0  0  0  0  0  0  0  0  0  0  0
    6.7986   -3.0862   -0.2962 H   0  0  0  0  0  0  0  0  0  0  0  0
   -6.7462   -1.6825    0.9621 H   0  0  0  0  0  0  0  0  0  0  0  0
   -6.8253   -1.6881   -0.8109 H   0  0  0  0  0  0  0  0  0  0  0  0
   -6.7454   -3.2186    0.0787 H   0  0  0  0  0  0  0  0  0  0  0  0
  1  2  1  0  0  0  0
  1  3  1  0  0  0  0
  1  4  2  0  0  0  0
  1 13  1  0  0  0  0
  2  9  1  0  0  0  0
  3 10  1  0  0  0  0
  5  7  1  0  0  0  0
  5  9  1  0  0  0  0
  5 16  1  0  0  0  0
  5 17  1  0  0  0  0
  6  8  1  0  0  0  0
  6 10  1  0  0  0  0
  6 18  1  0  0  0  0
  6 19  1  0  0  0  0
  7 11  1  0  0  0  0
  7 20  1  0  0  0  0
  7 21  1  0  0  0  0
  8 12  1  0  0  0  0
  8 22  1  0  0  0  0
  8 23  1  0  0  0  0
  9 24  1  0  0  0  0
  9 25  1  0  0  0  0
 10 26  1  0  0  0  0
 10 27  1  0  0  0  0
 11 14  1  0  0  0  0
 11 28  1  0  0  0  0
 11 29  1  0  0  0  0
 12 15  1  0  0  0  0
 12 30  1  0  0  0  0
 12 31  1  0  0  0  0
 13 32  1  0  0  0  0
 13 33  1  0  0  0  0
 13 34  1  0  0  0  0
 14 35  1  0  0  0  0
 14 36  1  0  0  0  0
 14 37  1  0  0  0  0
 15 38  1  0  0  0  0
 15 39  1  0  0  0  0
 15 40  1  0  0  0  0
M  END
> <PUBCHEM_COMPOUND_CID>
13839

> <PUBCHEM_CONFORMER_RMSD>
1

> <PUBCHEM_CONFORMER_DIVERSEORDER>
1
596
599
462
340
26
230
57
13
428
293
289
327
424
60
357
80
130
284
250
297
448
321
77
76
281
283
33
44
48
247
72
238
105
268
114
372
204
4
414
438
8
35
319
6
571
314
129
58
108
52
453
322
276
103
573
360
216
296
257
30
81
112
270
184
536
24
124
439
425
546
200
447
482
2
7
195
265
461
93
163
111
55
161
9
99
495
3

> <PUBCHEM_MMFF94_PARTIAL_CHARGES>
6
1 1.24
10 0.28
2 -0.55
3 -0.55
4 -0.7
9 0.28

> <PUBCHEM_EFFECTIVE_ROTOR_COUNT>
10

> <PUBCHEM_PHARMACOPHORE_FEATURES>
3
1 14 hydrophobe
1 15 hydrophobe
1 4 acceptor

> <PUBCHEM_HEAVY_ATOM_COUNT>
15

> <PUBCHEM_ATOM_DEF_STEREO_COUNT>
0

> <PUBCHEM_ATOM_UDEF_STEREO_COUNT>
0

> <PUBCHEM_BOND_DEF_STEREO_COUNT>
0

> <PUBCHEM_BOND_UDEF_STEREO_COUNT>
0

> <PUBCHEM_ISOTOPIC_ATOM_COUNT>
0

> <PUBCHEM_COMPONENT_COUNT>
1

> <PUBCHEM_CACTVS_TAUTO_COUNT>
1

> <PUBCHEM_CONFORMER_ID>
0000360F00000001

> <PUBCHEM_MMFF94_ENERGY>
0.1874

> <PUBCHEM_FEATURE_SELFOVERLAP>
15.223

> <PUBCHEM_SHAPE_FINGERPRINT>
10753850 27 18341897393669599043
12633257 1 15647062538120861742
13533116 47 18118121377813816955
13631057 29 18339642347704643698
13911852 28 18408045108766801903
13955234 65 17904195937026948577
14123255 352 9511460030619803294
14123256 34 18410004442492516942
14178000 29 18343019956629458757
1420 369 18409165523968570378
14251731 5 18410577279391373668
14251764 30 18412546504891410967
14251764 75 10159706827902298591
14866123 147 18337949116950961609
15342168 16 9223237334032913539
15352361 1 18411418418830286478
20374829 77 18412828018385209511
20388580 30 18342452595507241100
20621476 21 17897714595528753414
20645477 70 18128541462062731829
23559900 14 18198065785995556339
3421961 26 18335703775950730040
351380 3 18411419518331494630
465052 167 18335415734022005423
559249 180 18408603687055153043
7062679 13 18412547647595291866
77188 2 18409730633969431297
7970288 3 18411702092788554898

> <PUBCHEM_SHAPE_MULTIPOLES>
294.93
14.02
3.63
0.9
1.87
1.03
-0.19
-20.49
-0.12
-0.32
-0.24
-0.18
0.6
-0.04

> <PUBCHEM_SHAPE_SELFOVERLAP>
518.354

> <PUBCHEM_SHAPE_VOLUME>
194

> <PUBCHEM_COORDINATE_TYPE>
2
5
10

$$$$

