47205065
  -OEChem-06241222583D

 33 34  0     0  0  0  0  0  0999 V2000
   -4.6149    1.3799    0.5098 O   0  0  0  0  0  0  0  0  0  0  0  0
    0.9404   -1.9254    1.2745 O   0  0  0  0  0  0  0  0  0  0  0  0
    1.9628   -1.5608   -0.7775 N   0  0  0  0  0  0  0  0  0  0  0  0
    3.6123    1.1363   -0.9172 N   0  0  0  0  0  0  0  0  0  0  0  0
    3.7408    2.3872   -0.4427 N   0  0  0  0  0  0  0  0  0  0  0  0
   -0.3818   -2.1341   -0.7432 C   0  0  0  0  0  0  0  0  0  0  0  0
   -1.5010   -1.2054   -0.4123 C   0  0  0  0  0  0  0  0  0  0  0  0
    3.2802   -1.2647   -0.2653 C   0  0  0  0  0  0  0  0  0  0  0  0
    0.8914   -1.8700    0.0484 C   0  0  0  0  0  0  0  0  0  0  0  0
    3.4444    0.1931    0.0538 C   0  0  0  0  0  0  0  0  0  0  0  0
   -2.4010   -1.5316    0.6022 C   0  0  0  0  0  0  0  0  0  0  0  0
   -1.6476   -0.0107   -1.1173 C   0  0  0  0  0  0  0  0  0  0  0  0
   -3.4474   -0.6628    0.9122 C   0  0  0  0  0  0  0  0  0  0  0  0
   -2.6941    0.8579   -0.8076 C   0  0  0  0  0  0  0  0  0  0  0  0
   -3.5940    0.5320    0.2072 C   0  0  0  0  0  0  0  0  0  0  0  0
    3.4650    0.8743    1.2463 C   0  0  0  0  0  0  0  0  0  0  0  0
    3.6500    2.2208    0.8794 C   0  0  0  0  0  0  0  0  0  0  0  0
   -4.7055    2.5839   -0.2506 C   0  0  0  0  0  0  0  0  0  0  0  0
   -0.6771   -3.1715   -0.5384 H   0  0  0  0  0  0  0  0  0  0  0  0
   -0.1876   -2.1040   -1.8225 H   0  0  0  0  0  0  0  0  0  0  0  0
    4.0059   -1.5682   -1.0275 H   0  0  0  0  0  0  0  0  0  0  0  0
    3.4619   -1.8668    0.6319 H   0  0  0  0  0  0  0  0  0  0  0  0
    1.8286   -1.5135   -1.7831 H   0  0  0  0  0  0  0  0  0  0  0  0
   -2.2969   -2.4584    1.1601 H   0  0  0  0  0  0  0  0  0  0  0  0
   -0.9507    0.2545   -1.9082 H   0  0  0  0  0  0  0  0  0  0  0  0
   -4.1450   -0.9218    1.7040 H   0  0  0  0  0  0  0  0  0  0  0  0
   -2.7488    1.7688   -1.3939 H   0  0  0  0  0  0  0  0  0  0  0  0
    3.3600    0.4581    2.2376 H   0  0  0  0  0  0  0  0  0  0  0  0
    3.6476    0.9986   -1.9196 H   0  0  0  0  0  0  0  0  0  0  0  0
    3.7222    3.0875    1.5206 H   0  0  0  0  0  0  0  0  0  0  0  0
   -3.8292    3.2230   -0.0982 H   0  0  0  0  0  0  0  0  0  0  0  0
   -4.8899    2.3777   -1.3104 H   0  0  0  0  0  0  0  0  0  0  0  0
   -5.5734    3.1373    0.1229 H   0  0  0  0  0  0  0  0  0  0  0  0
  1 15  1  0  0  0  0
  1 18  1  0  0  0  0
  2  9  2  0  0  0  0
  3  8  1  0  0  0  0
  3  9  1  0  0  0  0
  3 23  1  0  0  0  0
  4  5  1  0  0  0  0
  4 10  1  0  0  0  0
  4 29  1  0  0  0  0
  5 17  2  0  0  0  0
  6  7  1  0  0  0  0
  6  9  1  0  0  0  0
  6 19  1  0  0  0  0
  6 20  1  0  0  0  0
  7 11  2  0  0  0  0
  7 12  1  0  0  0  0
  8 10  1  0  0  0  0
  8 21  1  0  0  0  0
  8 22  1  0  0  0  0
 10 16  2  0  0  0  0
 11 13  1  0  0  0  0
 11 24  1  0  0  0  0
 12 14  2  0  0  0  0
 12 25  1  0  0  0  0
 13 15  2  0  0  0  0
 13 26  1  0  0  0  0
 14 15  1  0  0  0  0
 14 27  1  0  0  0  0
 16 17  1  0  0  0  0
 16 28  1  0  0  0  0
 17 30  1  0  0  0  0
 18 31  1  0  0  0  0
 18 32  1  0  0  0  0
 18 33  1  0  0  0  0
M  END
> <PUBCHEM_COMPOUND_CID>
47205065

> <PUBCHEM_CONFORMER_RMSD>
0.8

> <PUBCHEM_CONFORMER_DIVERSEORDER>
1
5
9
18
28
25
40
58
29
12
11
46
20
38
41
24
3
17
42
70
69
50
7
67
52
30
6
15
66
56
55
35
8
23
34
31
14
51
4
44
63
62
19
45
32
26
49
60
33
65
59
61
21
37
39
16
64
2
57
22
53
47
36
13
48
43
54
10
27
68

> <PUBCHEM_MMFF94_PARTIAL_CHARGES>
26
1 -0.36
10 -0.33
11 -0.15
12 -0.15
13 -0.15
14 -0.15
15 0.08
16 -0.15
17 0.14
18 0.28
2 -0.57
23 0.37
24 0.15
25 0.15
26 0.15
27 0.15
28 0.15
29 0.27
3 -0.73
30 0.15
4 0.3
5 -0.71
6 0.2
7 -0.14
8 0.48
9 0.57

> <PUBCHEM_EFFECTIVE_ROTOR_COUNT>
6

> <PUBCHEM_PHARMACOPHORE_FEATURES>
7
1 1 acceptor
1 2 acceptor
1 3 donor
1 4 donor
1 5 acceptor
5 4 5 10 16 17 rings
6 7 11 12 13 14 15 rings

> <PUBCHEM_HEAVY_ATOM_COUNT>
18

> <PUBCHEM_ATOM_DEF_STEREO_COUNT>
0

> <PUBCHEM_ATOM_UDEF_STEREO_COUNT>
0

> <PUBCHEM_BOND_DEF_STEREO_COUNT>
0

> <PUBCHEM_BOND_UDEF_STEREO_COUNT>
0

> <PUBCHEM_ISOTOPIC_ATOM_COUNT>
0

> <PUBCHEM_COMPONENT_COUNT>
1

> <PUBCHEM_CACTVS_TAUTO_COUNT>
4

> <PUBCHEM_CONFORMER_ID>
02D04AC900000001

> <PUBCHEM_MMFF94_ENERGY>
37.2818

> <PUBCHEM_FEATURE_SELFOVERLAP>
35.52

> <PUBCHEM_SHAPE_FINGERPRINT>
10498660 4 18040436572731289889
10968037 57 11383568822500702409
11137873 295 8790892899403077511
11615756 256 18411416176994118268
12173636 292 18261398793199646991
122479 349 18411418401576473291
12363563 72 10087653614735494306
12633257 1 16271929276957613704
12824470 246 11095879401985834239
14123255 52 18335423465089212143
1420 369 10807929384119290169
14251710 61 10015585016706498017
14251764 30 13685193079362099328
14251764 75 18335409154264444497
14341114 328 16988277573774570428
14848178 96 18408887373201776761
15295992 7 18201995547474210786
15342168 16 18408885148619272509
15342816 4 8070035471462592928
17810953 82 18337389460605122189
17834072 32 18335983155368171179
17868525 174 18126290976509292874
1798214 55 18335703823422138984
18186145 218 17822283544780714706
20621476 13 18334861627475058432
21475661 188 18341333404555534085
21503847 285 18339640139679710862
21864079 5 18335707113366853844
22182937 141 18336825269236853795
23227448 37 18407761422029204631
23403322 49 9223238442086944307
23559900 14 18191305094511947743
26353 1 13768200558907934890
27216 239 18341050709982158747
312425 83 14129324179409208760
4463277 69 9943517510110962859
474 4 18410857676341836046
49207404 50 18201429242834612026
633830 44 18413111649741678990
7808743 9 18051407375753399820
88748 71 8790893998809450493
90316 7 16702307853722243695
960060 61 7060378149773975656

> <PUBCHEM_SHAPE_MULTIPOLES>
343.75
9.75
2.9
1.12
1.32
0.78
-0.1
7.97
-0.95
-0.37
-0.01
-0.19
-0.04
0.58

> <PUBCHEM_SHAPE_SELFOVERLAP>
722.999

> <PUBCHEM_SHAPE_VOLUME>
193.7

> <PUBCHEM_COORDINATE_TYPE>
2
5
10

$$$$

