5284594
  -OEChem-07051212543D

 50 55  0     1  0  0  0  0  0999 V2000
   -2.6869   -0.0351    1.3651 O   0  0  0  0  0  0  0  0  0  0  0  0
    0.6275   -2.6332   -0.2484 O   0  0  0  0  0  0  0  0  0  0  0  0
   -4.0000    2.5131    0.9065 O   0  0  0  0  0  0  0  0  0  0  0  0
    2.3451   -0.4511   -0.1501 N   0  0  2  0  0  0  0  0  0  0  0  0
   -0.4741   -0.6273    0.5212 C   0  0  1  0  0  0  0  0  0  0  0  0
    0.1163   -1.3655   -0.6924 C   0  0  1  0  0  0  0  0  0  0  0  0
    1.3051   -0.4786   -1.2093 C   0  0  1  0  0  0  0  0  0  0  0  0
   -1.7956   -1.1739    1.1077 C   0  0  2  0  0  0  0  0  0  0  0  0
    0.5964   -0.4435    1.6226 C   0  0  0  0  0  0  0  0  0  0  0  0
   -0.9606    0.6981    0.0536 C   0  0  0  0  0  0  0  0  0  0  0  0
   -0.9298   -1.6863   -1.7941 C   0  0  0  0  0  0  0  0  0  0  0  0
    0.8272    0.9492   -1.6665 C   0  0  0  0  0  0  0  0  0  0  0  0
    1.9003    0.1756    1.0971 C   0  0  0  0  0  0  0  0  0  0  0  0
   -0.3611    1.4901   -0.9101 C   0  0  0  0  0  0  0  0  0  0  0  0
   -2.3732   -1.8796   -1.2913 C   0  0  0  0  0  0  0  0  0  0  0  0
    3.6208    0.0963   -0.5996 C   0  0  0  0  0  0  0  0  0  0  0  0
   -2.4671   -2.1679    0.1824 C   0  0  0  0  0  0  0  0  0  0  0  0
    4.6838   -0.1180    0.4607 C   0  0  0  0  0  0  0  0  0  0  0  0
   -2.1803    0.9977    0.6187 C   0  0  0  0  0  0  0  0  0  0  0  0
    6.0536    0.3862    0.1902 C   0  0  0  0  0  0  0  0  0  0  0  0
    5.1810    1.0678    1.2030 C   0  0  0  0  0  0  0  0  0  0  0  0
   -0.9792    2.7065   -1.2024 C   0  0  0  0  0  0  0  0  0  0  0  0
   -2.8062    2.1941    0.3465 C   0  0  0  0  0  0  0  0  0  0  0  0
   -3.0596   -3.2770    0.6499 C   0  0  0  0  0  0  0  0  0  0  0  0
   -2.1834    3.0625   -0.5609 C   0  0  0  0  0  0  0  0  0  0  0  0
    1.7503   -0.9883   -2.0744 H   0  0  0  0  0  0  0  0  0  0  0  0
   -1.6144   -1.6485    2.0809 H   0  0  0  0  0  0  0  0  0  0  0  0
    0.8237   -1.4181    2.0747 H   0  0  0  0  0  0  0  0  0  0  0  0
    0.2153    0.1869    2.4372 H   0  0  0  0  0  0  0  0  0  0  0  0
   -0.6240   -2.6042   -2.3146 H   0  0  0  0  0  0  0  0  0  0  0  0
   -0.9535   -0.9094   -2.5662 H   0  0  0  0  0  0  0  0  0  0  0  0
    0.5328    0.8728   -2.7217 H   0  0  0  0  0  0  0  0  0  0  0  0
    1.6390    1.6817   -1.6331 H   0  0  0  0  0  0  0  0  0  0  0  0
    1.7757    1.2584    0.9718 H   0  0  0  0  0  0  0  0  0  0  0  0
    2.6373    0.0429    1.8968 H   0  0  0  0  0  0  0  0  0  0  0  0
    3.9479   -0.4400   -1.4988 H   0  0  0  0  0  0  0  0  0  0  0  0
    3.5508    1.1577   -0.8618 H   0  0  0  0  0  0  0  0  0  0  0  0
   -2.8508   -2.6686   -1.8857 H   0  0  0  0  0  0  0  0  0  0  0  0
   -2.9503   -0.9702   -1.5022 H   0  0  0  0  0  0  0  0  0  0  0  0
    4.6223   -1.0785    0.9584 H   0  0  0  0  0  0  0  0  0  0  0  0
    1.4784   -2.4840    0.1964 H   0  0  0  0  0  0  0  0  0  0  0  0
    6.2459    0.9065   -0.7400 H   0  0  0  0  0  0  0  0  0  0  0  0
    6.8909   -0.1943    0.5579 H   0  0  0  0  0  0  0  0  0  0  0  0
    5.4285    0.9401    2.2498 H   0  0  0  0  0  0  0  0  0  0  0  0
    4.7959    2.0493    0.9557 H   0  0  0  0  0  0  0  0  0  0  0  0
   -0.5548    3.3738   -1.9477 H   0  0  0  0  0  0  0  0  0  0  0  0
   -3.1024   -3.4877    1.7133 H   0  0  0  0  0  0  0  0  0  0  0  0
   -3.5172   -3.9979   -0.0194 H   0  0  0  0  0  0  0  0  0  0  0  0
   -2.6475    4.0133   -0.8137 H   0  0  0  0  0  0  0  0  0  0  0  0
   -4.2746    3.3879    0.5821 H   0  0  0  0  0  0  0  0  0  0  0  0
  1  8  1  0  0  0  0
  1 19  1  0  0  0  0
  2  6  1  0  0  0  0
  2 41  1  0  0  0  0
  3 23  1  0  0  0  0
  3 50  1  0  0  0  0
  4  7  1  0  0  0  0
  4 13  1  0  0  0  0
  4 16  1  0  0  0  0
  5  6  1  0  0  0  0
  5  8  1  0  0  0  0
  5  9  1  0  0  0  0
  5 10  1  0  0  0  0
  6  7  1  0  0  0  0
  6 11  1  0  0  0  0
  7 12  1  0  0  0  0
  7 26  1  0  0  0  0
  8 17  1  0  0  0  0
  8 27  1  0  0  0  0
  9 13  1  0  0  0  0
  9 28  1  0  0  0  0
  9 29  1  0  0  0  0
 10 14  2  0  0  0  0
 10 19  1  0  0  0  0
 11 15  1  0  0  0  0
 11 30  1  0  0  0  0
 11 31  1  0  0  0  0
 12 14  1  0  0  0  0
 12 32  1  0  0  0  0
 12 33  1  0  0  0  0
 13 34  1  0  0  0  0
 13 35  1  0  0  0  0
 14 22  1  0  0  0  0
 15 17  1  0  0  0  0
 15 38  1  0  0  0  0
 15 39  1  0  0  0  0
 16 18  1  0  0  0  0
 16 36  1  0  0  0  0
 16 37  1  0  0  0  0
 17 24  2  0  0  0  0
 18 20  1  0  0  0  0
 18 21  1  0  0  0  0
 18 40  1  0  0  0  0
 19 23  2  0  0  0  0
 20 21  1  0  0  0  0
 20 42  1  0  0  0  0
 20 43  1  0  0  0  0
 21 44  1  0  0  0  0
 21 45  1  0  0  0  0
 22 25  2  0  0  0  0
 22 46  1  0  0  0  0
 23 25  1  0  0  0  0
 24 47  1  0  0  0  0
 24 48  1  0  0  0  0
 25 49  1  0  0  0  0
M  END
> <PUBCHEM_COMPOUND_CID>
5284594

> <PUBCHEM_CONFORMER_RMSD>
0.8

> <PUBCHEM_CONFORMER_DIVERSEORDER>
1
2
3
4

> <PUBCHEM_MMFF94_PARTIAL_CHARGES>
34
1 -0.36
10 -0.14
12 0.14
13 0.27
14 -0.14
15 0.14
16 0.37
17 -0.28
18 -0.19
19 0.08
2 -0.68
20 -0.2
21 -0.2
22 -0.15
23 0.08
24 -0.3
25 -0.15
3 -0.53
4 -0.81
40 0.1
41 0.4
42 0.1
43 0.1
44 0.1
45 0.1
46 0.15
47 0.15
48 0.15
49 0.15
5 0.14
50 0.45
6 0.28
7 0.27
8 0.42

> <PUBCHEM_EFFECTIVE_ROTOR_COUNT>
4

> <PUBCHEM_PHARMACOPHORE_FEATURES>
10
1 1 acceptor
1 2 acceptor
1 2 donor
1 3 donor
1 4 cation
5 1 5 8 10 19 rings
6 10 14 19 22 23 25 rings
6 4 5 6 7 9 13 rings
6 5 6 7 10 12 14 rings
6 5 6 8 11 15 17 rings

> <PUBCHEM_HEAVY_ATOM_COUNT>
25

> <PUBCHEM_ATOM_DEF_STEREO_COUNT>
4

> <PUBCHEM_ATOM_UDEF_STEREO_COUNT>
0

> <PUBCHEM_BOND_DEF_STEREO_COUNT>
0

> <PUBCHEM_BOND_UDEF_STEREO_COUNT>
0

> <PUBCHEM_ISOTOPIC_ATOM_COUNT>
0

> <PUBCHEM_COMPONENT_COUNT>
1

> <PUBCHEM_CACTVS_TAUTO_COUNT>
3

> <PUBCHEM_CONFORMER_ID>
0050A2F200000001

> <PUBCHEM_MMFF94_ENERGY>
96.3927

> <PUBCHEM_FEATURE_SELFOVERLAP>
52.928

> <PUBCHEM_SHAPE_FINGERPRINT>
10165383 225 18188768473815233312
10319926 262 18337403707971187410
10369192 42 16735792226986565024
10863032 1 18189051056829845206
10948715 1 18118684563346893549
11101153 10 18125159330363976180
11315181 36 17988934328138865176
11387372 6 16987709289677789386
11578080 2 17896580925529465516
12403814 3 18188208685041793138
12422481 6 18118374350981499635
12423570 1 11770414151876757087
12788726 201 18268734795204712971
13004483 165 18194126204871899014
13140716 1 18340195281261593673
13583140 156 17968103014808512290
14142880 1 18409174311228870229
14178342 30 18271798034341565418
14251740 79 8430315740438748028
14713325 29 18410012139268674434
15230672 131 18196929101875272622
16945 1 18198316594420412109
17349148 13 17346323648772273498
17492 54 18055386697339172309
17980427 23 18272642446349885885
17980427 26 17616262811044968029
1813 80 18046337544274236310
18393751 57 17617398190725510856
200 152 17059788710770974594
21041028 32 18124029036235539071
22112679 90 18196354953864885189
22149856 69 17622136377367774529
22182313 1 17968916682876711279
23227448 37 18411983559459732380
23402539 116 18341054003963793626
23419403 2 15721675320057011087
23557571 272 18334005090963361824
238 59 17402631030584042925
25147074 1 17844510154913822804
2748010 2 17837740659811632967
3729539 64 17539668606741373158
376196 1 17339008859568737349
4340502 62 17969491783735717761
5845 1 6011606170648425783
7471813 234 18052258397378537895
81228 2 18338815445966376491
9862522 239 18129949016966121076

> <PUBCHEM_SHAPE_MULTIPOLES>
491.9
7.75
3.23
1.54
14.46
0.56
-0.2
1.11
2.62
-4.78
-0.39
-0.19
-0.09
0

> <PUBCHEM_SHAPE_SELFOVERLAP>
1106.351

> <PUBCHEM_SHAPE_VOLUME>
257.7

> <PUBCHEM_COORDINATE_TYPE>
2
5
10

$$$$

