7846963
  -OEChem-06241222483D

 43 45  0     1  0  0  0  0  0999 V2000
    0.6726    2.1286    1.8744 S   0  0  0  0  0  0  0  0  0  0  0  0
   -2.5131   -0.4697    0.3759 O   0  0  0  0  0  0  0  0  0  0  0  0
    2.7497   -1.8134    0.3410 O   0  0  0  0  0  0  0  0  0  0  0  0
   -3.7585    1.2722   -0.4824 O   0  0  0  0  0  0  0  0  0  0  0  0
   -1.5720   -3.3177   -1.1522 O   0  0  0  0  0  0  0  0  0  0  0  0
   -0.3023   -1.3752   -1.1183 N   0  0  0  0  0  0  0  0  0  0  0  0
   -0.5163    2.5433   -0.3767 N   0  0  0  0  0  0  0  0  0  0  0  0
   -2.0270    2.7180    1.6017 C   0  0  0  0  0  0  0  0  0  0  0  0
   -2.8137    1.4154    1.7543 C   0  0  0  0  0  0  0  0  0  0  0  0
   -2.6975   -1.2052   -0.8221 C   0  0  1  0  0  0  0  0  0  0  0  0
   -0.7018    2.4880    0.9216 C   0  0  0  0  0  0  0  0  0  0  0  0
   -3.1016    0.7688    0.4183 C   0  0  0  0  0  0  0  0  0  0  0  0
    1.6276    2.0309    0.4421 C   0  0  0  0  0  0  0  0  0  0  0  0
    0.8150    2.2833   -0.6672 C   0  0  0  0  0  0  0  0  0  0  0  0
   -1.4851   -2.0955   -1.0545 C   0  0  0  0  0  0  0  0  0  0  0  0
    0.9814   -2.0076   -1.3115 C   0  0  0  0  0  0  0  0  0  0  0  0
   -3.9663   -2.0314   -0.6828 C   0  0  0  0  0  0  0  0  0  0  0  0
    1.5600   -2.3847    0.0181 C   0  0  0  0  0  0  0  0  0  0  0  0
    2.9973    1.7511    0.3099 C   0  0  0  0  0  0  0  0  0  0  0  0
    1.3964    2.2540   -1.9535 C   0  0  0  0  0  0  0  0  0  0  0  0
    3.5474    1.7282   -0.9741 C   0  0  0  0  0  0  0  0  0  0  0  0
    2.7592    1.9761   -2.0925 C   0  0  0  0  0  0  0  0  0  0  0  0
    1.1344   -3.2175    1.0269 C   0  0  0  0  0  0  0  0  0  0  0  0
    2.1265   -3.1536    2.0343 C   0  0  0  0  0  0  0  0  0  0  0  0
    3.0875   -2.2863    1.5694 C   0  0  0  0  0  0  0  0  0  0  0  0
   -1.8842    3.1811    2.5852 H   0  0  0  0  0  0  0  0  0  0  0  0
   -2.6042    3.4305    0.9991 H   0  0  0  0  0  0  0  0  0  0  0  0
   -3.7750    1.6032    2.2453 H   0  0  0  0  0  0  0  0  0  0  0  0
   -2.2663    0.7128    2.3944 H   0  0  0  0  0  0  0  0  0  0  0  0
   -2.7733   -0.5454   -1.6963 H   0  0  0  0  0  0  0  0  0  0  0  0
    0.8667   -2.8995   -1.9360 H   0  0  0  0  0  0  0  0  0  0  0  0
    1.6271   -1.2946   -1.8333 H   0  0  0  0  0  0  0  0  0  0  0  0
   -4.8381   -1.3867   -0.5293 H   0  0  0  0  0  0  0  0  0  0  0  0
   -4.1446   -2.6440   -1.5725 H   0  0  0  0  0  0  0  0  0  0  0  0
   -3.9097   -2.6969    0.1863 H   0  0  0  0  0  0  0  0  0  0  0  0
   -0.3291   -0.3665   -1.0028 H   0  0  0  0  0  0  0  0  0  0  0  0
    3.6184    1.5548    1.1784 H   0  0  0  0  0  0  0  0  0  0  0  0
    0.7895    2.4448   -2.8340 H   0  0  0  0  0  0  0  0  0  0  0  0
    4.6053    1.5122   -1.0986 H   0  0  0  0  0  0  0  0  0  0  0  0
    3.2044    1.9528   -3.0834 H   0  0  0  0  0  0  0  0  0  0  0  0
    0.2256   -3.8015    1.0405 H   0  0  0  0  0  0  0  0  0  0  0  0
    2.1394   -3.6743    2.9807 H   0  0  0  0  0  0  0  0  0  0  0  0
    4.0209   -1.9193    1.9705 H   0  0  0  0  0  0  0  0  0  0  0  0
  1 11  1  0  0  0  0
  1 13  1  0  0  0  0
  2 10  1  0  0  0  0
  2 12  1  0  0  0  0
  3 18  1  0  0  0  0
  3 25  1  0  0  0  0
  4 12  2  0  0  0  0
  5 15  2  0  0  0  0
  6 15  1  0  0  0  0
  6 16  1  0  0  0  0
  6 36  1  0  0  0  0
  7 11  2  0  0  0  0
  7 14  1  0  0  0  0
  8  9  1  0  0  0  0
  8 11  1  0  0  0  0
  8 26  1  0  0  0  0
  8 27  1  0  0  0  0
  9 12  1  0  0  0  0
  9 28  1  0  0  0  0
  9 29  1  0  0  0  0
 10 15  1  0  0  0  0
 10 17  1  0  0  0  0
 10 30  1  0  0  0  0
 13 14  1  0  0  0  0
 13 19  2  0  0  0  0
 14 20  2  0  0  0  0
 16 18  1  0  0  0  0
 16 31  1  0  0  0  0
 16 32  1  0  0  0  0
 17 33  1  0  0  0  0
 17 34  1  0  0  0  0
 17 35  1  0  0  0  0
 18 23  2  0  0  0  0
 19 21  1  0  0  0  0
 19 37  1  0  0  0  0
 20 22  1  0  0  0  0
 20 38  1  0  0  0  0
 21 22  2  0  0  0  0
 21 39  1  0  0  0  0
 22 40  1  0  0  0  0
 23 24  1  0  0  0  0
 23 41  1  0  0  0  0
 24 25  2  0  0  0  0
 24 42  1  0  0  0  0
 25 43  1  0  0  0  0
M  END
> <PUBCHEM_COMPOUND_CID>
7846963

> <PUBCHEM_CONFORMER_RMSD>
1

> <PUBCHEM_CONFORMER_DIVERSEORDER>
1
57
107
65
290
164
71
390
103
400
214
17
292
413
94
91
247
4
239
86
393
223
74
21
215
306
156
353
321
293
101
423
371
426
116
377
207
28
309
252
134
138
190
44
227
51
182
131
408
272
284
193
191
279
348
154
14
395
225
95
2
273
3
175
251
399
61
29
267
421
115
424
379
6
332
121
129
157
113
386
308
236
194
416
281
195
139
82
59
76
232
11
96
420
269
52
260
226
110
201
391
183
414
374
135
36
13
162
111
289
220
27
352
158
161
335
142
147
343
314
104
130
311
346
81
305
261
165
77
126
100
42
43
48
41
30
200
174
211
56
8
329
124
388
229
362
73
34
127
366
133
203
249
381
282
148
144
338
246
217
304
422
170
55
188
358
417
255
315
365
210
99
262
213
78
384
58
40
383
26
411
125
218
155
375
185
303
87
152
268
277
243
367
265
378
171
199
360
340
319
230
93
83
398
345
68
140
301
300
339
323
79
172
256
80
85
403
369
402
206
39
351
153
347
108
333
168
409
425
69
173
66
317
324
67
392
242
60
84
222
169
176
406
407
274
25
280
382
341
359
119
387
5
202
355
258
240
270
275
380
33
337
278
63
204
89
298
98
205
106
238
334
114
244
20
310
396
368
248
370
344
320
46
263
198
109
189
288
385
122
405
16
62
234
10
97
221
23
187
412
181
179
364
254
105
72
331
118
145
330
102
146
177
250
92
394
427
397
178
356
53
326
410
192
64
318
197
373
287
163
136
159
112
299
150
350
296
419
88
266
209
160
245
241
166
276
312
233
297
120
237
349
208
75
415
235
389
19
123
38
313
151
50
322
361
167
212
47
302
224
70
336
186
196
117
149
9
128
376
184
35
132
18
257
295
327
404
54
316
12
90
15
283
325
31
307
49
372
141
143
271
294
180
22
328
37
228
24
286
259
363
231
253
219
354
342
45
285
7
291
401
418
137
216
32
357
264

> <PUBCHEM_MMFF94_PARTIAL_CHARGES>
32
1 -0.08
10 0.34
11 0.2
12 0.66
13 0.04
14 0.23
15 0.57
16 0.48
18 -0.04
19 -0.15
2 -0.43
20 -0.15
21 -0.15
22 -0.15
23 -0.15
24 -0.15
25 -0.01
3 -0.28
36 0.37
37 0.15
38 0.15
39 0.15
4 -0.57
40 0.15
41 0.15
42 0.15
43 0.15
5 -0.57
6 -0.73
7 -0.57
8 0.18
9 0.06

> <PUBCHEM_EFFECTIVE_ROTOR_COUNT>
9

> <PUBCHEM_PHARMACOPHORE_FEATURES>
8
1 3 acceptor
1 4 acceptor
1 5 acceptor
1 6 donor
1 7 acceptor
5 1 7 11 13 14 rings
5 3 18 23 24 25 rings
6 13 14 19 20 21 22 rings

> <PUBCHEM_HEAVY_ATOM_COUNT>
25

> <PUBCHEM_ATOM_DEF_STEREO_COUNT>
1

> <PUBCHEM_ATOM_UDEF_STEREO_COUNT>
0

> <PUBCHEM_BOND_DEF_STEREO_COUNT>
0

> <PUBCHEM_BOND_UDEF_STEREO_COUNT>
0

> <PUBCHEM_ISOTOPIC_ATOM_COUNT>
0

> <PUBCHEM_COMPONENT_COUNT>
1

> <PUBCHEM_CACTVS_TAUTO_COUNT>
4

> <PUBCHEM_CONFORMER_ID>
0077BC3300000001

> <PUBCHEM_MMFF94_ENERGY>
28.0396

> <PUBCHEM_FEATURE_SELFOVERLAP>
40.666

> <PUBCHEM_SHAPE_FINGERPRINT>
10675989 125 17686921418929808949
11513181 2 17532660233119759198
12422481 6 18125190292692750432
12788726 201 17687731753950294236
13122387 1 17976821217944731603
14202776 33 16327910156173861886
14251757 17 17242428578522984596
15297060 5 17532642645260316946
20600515 1 17900262206344579966
20905425 154 18261386724351529541
23419403 2 17326672239930101744
35225 105 17052447099443317122
445580 2 16684558123846130835
445580 42 17550387341757285016
445580 44 17482022285580139730
463206 1 18410290268402350465
469060 322 17258814896479773086
5282940 2 18341886403217170182
539174 4 18341342106122203374

> <PUBCHEM_SHAPE_MULTIPOLES>
484.9
5.82
5.22
2.07
2.7
2.7
0.21
-0.26
-0.89
-1.43
1.42
-0.81
-0.18
-3.15

> <PUBCHEM_SHAPE_SELFOVERLAP>
1021.729

> <PUBCHEM_SHAPE_VOLUME>
274.3

> <PUBCHEM_COORDINATE_TYPE>
2
5
10

$$$$

