6216
  -OEChem-07051212543D

 65 68  0     1  0  0  0  0  0999 V2000
   -2.1122   -0.3216    1.2332 F   0  0  0  0  0  0  0  0  0  0  0  0
    2.2022    0.3247    1.5057 O   0  0  0  0  0  0  0  0  0  0  0  0
    2.7566    2.8015    0.6969 O   0  0  0  0  0  0  0  0  0  0  0  0
   -1.1054   -2.2675   -1.6316 O   0  0  0  0  0  0  0  0  0  0  0  0
    4.3587    0.3861   -0.9576 O   0  0  0  0  0  0  0  0  0  0  0  0
    4.9381   -2.0491    0.1975 O   0  0  0  0  0  0  0  0  0  0  0  0
   -6.9175   -0.7410    1.9016 O   0  0  0  0  0  0  0  0  0  0  0  0
    2.2456    4.6842   -0.5406 O   0  0  0  0  0  0  0  0  0  0  0  0
    4.3141   -4.2274    0.6483 O   0  0  0  0  0  0  0  0  0  0  0  0
    0.9200   -0.0902   -0.5455 C   0  0  1  0  0  0  0  0  0  0  0  0
   -0.0559    1.0465   -0.1652 C   0  0  2  0  0  0  0  0  0  0  0  0
   -1.4746    0.8375   -0.7149 C   0  0  1  0  0  0  0  0  0  0  0  0
   -2.0574   -0.5009   -0.1417 C   0  0  1  0  0  0  0  0  0  0  0  0
    2.2204    0.4765    0.0902 C   0  0  1  0  0  0  0  0  0  0  0  0
    0.3744   -1.3901    0.0783 C   0  0  0  0  0  0  0  0  0  0  0  0
    0.7007    2.3243   -0.5374 C   0  0  0  0  0  0  0  0  0  0  0  0
   -1.0827   -1.7027   -0.3310 C   0  0  2  0  0  0  0  0  0  0  0  0
    2.1867    1.9730   -0.3054 C   0  0  1  0  0  0  0  0  0  0  0  0
   -3.5522   -0.7336   -0.5968 C   0  0  1  0  0  0  0  0  0  0  0  0
   -2.3709    2.0355   -0.3490 C   0  0  0  0  0  0  0  0  0  0  0  0
    1.1258   -0.2501   -2.0775 C   0  0  0  0  0  0  0  0  0  0  0  0
   -3.8199    1.8253   -0.7715 C   0  0  0  0  0  0  0  0  0  0  0  0
   -4.3451    0.5243   -0.2199 C   0  0  0  0  0  0  0  0  0  0  0  0
    3.4761   -0.2163   -0.3485 C   0  0  0  0  0  0  0  0  0  0  0  0
   -3.7334   -0.9672   -2.1140 C   0  0  0  0  0  0  0  0  0  0  0  0
   -4.1227   -1.9678    0.0866 C   0  0  0  0  0  0  0  0  0  0  0  0
   -5.4205    0.5158    0.5833 C   0  0  0  0  0  0  0  0  0  0  0  0
    3.5883   -1.6852    0.0003 C   0  0  0  0  0  0  0  0  0  0  0  0
   -5.1922   -1.9825    0.8881 C   0  0  0  0  0  0  0  0  0  0  0  0
   -5.9252   -0.7374    1.1809 C   0  0  0  0  0  0  0  0  0  0  0  0
    2.7197    4.1471    0.4513 C   0  0  0  0  0  0  0  0  0  0  0  0
    3.3522    4.8920    1.5876 C   0  0  0  0  0  0  0  0  0  0  0  0
    5.1698   -3.3622    0.5202 C   0  0  0  0  0  0  0  0  0  0  0  0
    6.6386   -3.6015    0.6980 C   0  0  0  0  0  0  0  0  0  0  0  0
   -0.1522    1.0693    0.9328 H   0  0  0  0  0  0  0  0  0  0  0  0
   -1.4336    0.7800   -1.8074 H   0  0  0  0  0  0  0  0  0  0  0  0
    0.4041   -1.3225    1.1727 H   0  0  0  0  0  0  0  0  0  0  0  0
    0.9971   -2.2429   -0.2079 H   0  0  0  0  0  0  0  0  0  0  0  0
    0.5323    2.5737   -1.5915 H   0  0  0  0  0  0  0  0  0  0  0  0
    0.3378    3.1584    0.0709 H   0  0  0  0  0  0  0  0  0  0  0  0
   -1.3963   -2.5009    0.3546 H   0  0  0  0  0  0  0  0  0  0  0  0
    2.7310    2.1508   -1.2420 H   0  0  0  0  0  0  0  0  0  0  0  0
   -1.9957    2.9460   -0.8311 H   0  0  0  0  0  0  0  0  0  0  0  0
   -2.3312    2.2142    0.7337 H   0  0  0  0  0  0  0  0  0  0  0  0
    0.1848   -0.4013   -2.6114 H   0  0  0  0  0  0  0  0  0  0  0  0
    1.6014    0.6199   -2.5397 H   0  0  0  0  0  0  0  0  0  0  0  0
    1.7544   -1.1179   -2.3023 H   0  0  0  0  0  0  0  0  0  0  0  0
   -3.8974    1.8235   -1.8648 H   0  0  0  0  0  0  0  0  0  0  0  0
   -4.4171    2.6776   -0.4249 H   0  0  0  0  0  0  0  0  0  0  0  0
   -3.1645   -0.2555   -2.7196 H   0  0  0  0  0  0  0  0  0  0  0  0
   -3.4332   -1.9715   -2.4276 H   0  0  0  0  0  0  0  0  0  0  0  0
   -4.7873   -0.8642   -2.4061 H   0  0  0  0  0  0  0  0  0  0  0  0
   -3.6374   -2.9214   -0.1089 H   0  0  0  0  0  0  0  0  0  0  0  0
    2.9079    0.8830    1.8751 H   0  0  0  0  0  0  0  0  0  0  0  0
   -1.7513   -2.9937   -1.6277 H   0  0  0  0  0  0  0  0  0  0  0  0
   -5.9519    1.4269    0.8368 H   0  0  0  0  0  0  0  0  0  0  0  0
    3.1738   -2.2663   -0.8290 H   0  0  0  0  0  0  0  0  0  0  0  0
    3.0409   -1.8973    0.9228 H   0  0  0  0  0  0  0  0  0  0  0  0
   -5.5513   -2.9035    1.3324 H   0  0  0  0  0  0  0  0  0  0  0  0
    4.3972    4.5899    1.6921 H   0  0  0  0  0  0  0  0  0  0  0  0
    2.8005    4.6968    2.5105 H   0  0  0  0  0  0  0  0  0  0  0  0
    3.3184    5.9656    1.3814 H   0  0  0  0  0  0  0  0  0  0  0  0
    7.0193   -2.9774    1.5103 H   0  0  0  0  0  0  0  0  0  0  0  0
    7.1644   -3.3829   -0.2347 H   0  0  0  0  0  0  0  0  0  0  0  0
    6.8069   -4.6510    0.9559 H   0  0  0  0  0  0  0  0  0  0  0  0
  1 13  1  0  0  0  0
  2 14  1  0  0  0  0
  2 54  1  0  0  0  0
  3 18  1  0  0  0  0
  3 31  1  0  0  0  0
  4 17  1  0  0  0  0
  4 55  1  0  0  0  0
  5 24  2  0  0  0  0
  6 28  1  0  0  0  0
  6 33  1  0  0  0  0
  7 30  2  0  0  0  0
  8 31  2  0  0  0  0
  9 33  2  0  0  0  0
 10 11  1  0  0  0  0
 10 14  1  0  0  0  0
 10 15  1  0  0  0  0
 10 21  1  0  0  0  0
 11 12  1  0  0  0  0
 11 16  1  0  0  0  0
 11 35  1  0  0  0  0
 12 13  1  0  0  0  0
 12 20  1  0  0  0  0
 12 36  1  0  0  0  0
 13 17  1  0  0  0  0
 13 19  1  0  0  0  0
 14 18  1  0  0  0  0
 14 24  1  0  0  0  0
 15 17  1  0  0  0  0
 15 37  1  0  0  0  0
 15 38  1  0  0  0  0
 16 18  1  0  0  0  0
 16 39  1  0  0  0  0
 16 40  1  0  0  0  0
 17 41  1  0  0  0  0
 18 42  1  0  0  0  0
 19 23  1  0  0  0  0
 19 25  1  0  0  0  0
 19 26  1  0  0  0  0
 20 22  1  0  0  0  0
 20 43  1  0  0  0  0
 20 44  1  0  0  0  0
 21 45  1  0  0  0  0
 21 46  1  0  0  0  0
 21 47  1  0  0  0  0
 22 23  1  0  0  0  0
 22 48  1  0  0  0  0
 22 49  1  0  0  0  0
 23 27  2  0  0  0  0
 24 28  1  0  0  0  0
 25 50  1  0  0  0  0
 25 51  1  0  0  0  0
 25 52  1  0  0  0  0
 26 29  2  0  0  0  0
 26 53  1  0  0  0  0
 27 30  1  0  0  0  0
 27 56  1  0  0  0  0
 28 57  1  0  0  0  0
 28 58  1  0  0  0  0
 29 30  1  0  0  0  0
 29 59  1  0  0  0  0
 31 32  1  0  0  0  0
 32 60  1  0  0  0  0
 32 61  1  0  0  0  0
 32 62  1  0  0  0  0
 33 34  1  0  0  0  0
 34 63  1  0  0  0  0
 34 64  1  0  0  0  0
 34 65  1  0  0  0  0
M  END
> <PUBCHEM_COMPOUND_CID>
6216

> <PUBCHEM_CONFORMER_RMSD>
1

> <PUBCHEM_CONFORMER_DIVERSEORDER>
1
5
4
6
8
9
7
3
2
10

> <PUBCHEM_MMFF94_PARTIAL_CHARGES>
31
1 -0.34
13 0.34
14 0.34
17 0.28
18 0.28
19 0.28
2 -0.68
22 0.14
23 -0.28
24 0.45
26 -0.29
27 -0.14
28 0.34
29 -0.14
3 -0.43
30 0.54
31 0.66
32 0.06
33 0.66
34 0.06
4 -0.68
5 -0.57
53 0.15
54 0.4
55 0.4
56 0.15
59 0.15
6 -0.43
7 -0.57
8 -0.57
9 -0.57

> <PUBCHEM_EFFECTIVE_ROTOR_COUNT>
7.4

> <PUBCHEM_PHARMACOPHORE_FEATURES>
12
1 2 acceptor
1 2 donor
1 4 acceptor
1 4 donor
1 5 acceptor
1 7 acceptor
1 8 acceptor
1 9 acceptor
5 10 11 14 16 18 rings
6 10 11 12 13 15 17 rings
6 12 13 19 20 22 23 rings
6 19 23 26 27 29 30 rings

> <PUBCHEM_HEAVY_ATOM_COUNT>
34

> <PUBCHEM_ATOM_DEF_STEREO_COUNT>
8

> <PUBCHEM_ATOM_UDEF_STEREO_COUNT>
0

> <PUBCHEM_BOND_DEF_STEREO_COUNT>
0

> <PUBCHEM_BOND_UDEF_STEREO_COUNT>
0

> <PUBCHEM_ISOTOPIC_ATOM_COUNT>
0

> <PUBCHEM_COMPONENT_COUNT>
1

> <PUBCHEM_CACTVS_TAUTO_COUNT>
6

> <PUBCHEM_CONFORMER_ID>
0000184800000001

> <PUBCHEM_MMFF94_ENERGY>
108.6507

> <PUBCHEM_FEATURE_SELFOVERLAP>
60.992

> <PUBCHEM_SHAPE_FINGERPRINT>
10074138 170 17543085923087102368
11135926 11 18340496552317201780
11331351 85 17677329545481306766
11456790 92 18265603459615084825
12107183 9 18263916808482638017
12166972 35 17774991427750633382
12342043 65 17917418827070995667
12403259 226 18342460378019792477
12403259 415 18270964544841248549
12422481 6 18041838540626057663
12516196 113 18338518651095041738
12633257 1 17312824874778974959
13140716 1 18194118516901544638
13224815 77 18339929195463804597
13533116 47 18343015562920067427
13540713 4 18201453471167511957
13540713 5 17823709568364944591
13757389 114 16756049478407545500
13782708 43 17561364010538981850
13955234 65 18336828572568078952
14341114 176 18272927228809837035
14347424 109 18335972100724030897
14394314 77 18266181819620779330
14849402 71 18339353072571405736
14955137 171 18339642364177514074
15042514 8 18050006894270705372
15927050 60 18048313350064558254
16992752 21 18194673999215678678
17349148 13 17749106690633682047
17492 89 18340209592171816567
17980427 26 18118981191574769684
18393751 57 17617106802168072313
21033648 29 17533524423325583947
21049683 271 18342448245707742236
21130935 74 18268138779005391035
21267235 1 18271517714637308298
21716022 299 18057863892999644644
21796203 349 18264744680482463882
21987483 16 18194114111415852963
22182313 1 18058751112372639957
23522609 53 17981568776052330141
23559900 14 18411149042676001041
32027 91 18341341045444979675
335352 9 18268153243753188605
3383291 50 18202003265193514106
350125 39 18337382743096884412
376196 1 17101432563560631936
3886686 26 16611391754363418674
4409770 3 17693948796695303900
463206 1 18341614858337684594
5104073 3 18335701684375308952
5385378 56 18264487283060947840
6058803 2 17897457094383982959
6086070 43 18194986221113493189
6679774 75 17984717619627005168
6697151 62 18195272072128933340
79837 15 17257382843289253672
9981440 41 17762632689600376200

> <PUBCHEM_SHAPE_MULTIPOLES>
645.48
13.44
5.18
1.42
4.28
4.06
0.18
-10.72
-5.49
-11.07
-1.69
0.97
-0.04
0.36

> <PUBCHEM_SHAPE_SELFOVERLAP>
1391.653

> <PUBCHEM_SHAPE_VOLUME>
354.1

> <PUBCHEM_COORDINATE_TYPE>
2
5
10

$$$$

