5280361
  -OEChem-07051212442D

 14 13  0     0  0  0  0  0  0999 V2000
    4.2690   -1.3450    0.0000 O   0  0  0  0  0  0  0  0  0  0  0  0
    2.5369   -0.3450    0.0000 O   0  0  0  0  0  0  0  0  0  0  0  0
    3.4030    1.1550    0.0000 O   0  0  0  0  0  0  0  0  0  0  0  0
    4.2690   -0.3450    0.0000 C   0  0  0  0  0  0  0  0  0  0  0  0
    5.1350    0.1550    0.0000 C   0  0  0  0  0  0  0  0  0  0  0  0
    5.1350    1.1550    0.0000 C   0  0  0  0  0  0  0  0  0  0  0  0
    3.4030    0.1550    0.0000 C   0  0  0  0  0  0  0  0  0  0  0  0
    6.0010    1.6550    0.0000 C   0  0  0  0  0  0  0  0  0  0  0  0
    5.6720   -0.1550    0.0000 H   0  0  0  0  0  0  0  0  0  0  0  0
    4.5981    1.4650    0.0000 H   0  0  0  0  0  0  0  0  0  0  0  0
    4.8059   -1.6550    0.0000 H   0  0  0  0  0  0  0  0  0  0  0  0
    6.5380    1.3450    0.0000 H   0  0  0  0  0  0  0  0  0  0  0  0
    6.0010    2.2750    0.0000 H   0  0  0  0  0  0  0  0  0  0  0  0
    2.0000   -0.0350    0.0000 H   0  0  0  0  0  0  0  0  0  0  0  0
  1  4  1  0  0  0  0
  1 11  1  0  0  0  0
  2  7  1  0  0  0  0
  2 14  1  0  0  0  0
  3  7  2  0  0  0  0
  4  5  2  0  0  0  0
  4  7  1  0  0  0  0
  5  6  1  0  0  0  0
  5  9  1  0  0  0  0
  6  8  2  0  0  0  0
  6 10  1  0  0  0  0
  8 12  1  0  0  0  0
  8 13  1  0  0  0  0
M  END
> <PUBCHEM_COMPOUND_CID>
5280361

> <PUBCHEM_COMPOUND_CANONICALIZED>
1

> <PUBCHEM_CACTVS_COMPLEXITY>
135

> <PUBCHEM_CACTVS_HBOND_ACCEPTOR>
3

> <PUBCHEM_CACTVS_HBOND_DONOR>
2

> <PUBCHEM_CACTVS_ROTATABLE_BOND>
2

> <PUBCHEM_CACTVS_SUBSKEYS>
AAADcYBgMAAAAAAAAAAAAAAAAAAAAAAAAAAAAAAAAAAAAAAAAAAAGgAACAAACASAgAAACAAAAgCIACDSCAIAAAAAIAAICABAAEAJBAAAAQAAEAAAAAABkYAAAAAAAAAAAAAAAAAAAAAAAAAAAAAAAAAAAA==

> <PUBCHEM_IUPAC_OPENEYE_NAME>
(2E)-2-hydroxypenta-2,4-dienoic acid

> <PUBCHEM_IUPAC_CAS_NAME>
(2E)-2-hydroxypenta-2,4-dienoic acid

> <PUBCHEM_IUPAC_NAME>
(2E)-2-hydroxypenta-2,4-dienoic acid

> <PUBCHEM_IUPAC_SYSTEMATIC_NAME>
(2E)-2-oxidanylpenta-2,4-dienoic acid

> <PUBCHEM_IUPAC_TRADITIONAL_NAME>
(2E)-2-hydroxypenta-2,4-dienoic acid

> <PUBCHEM_IUPAC_INCHI>
InChI=1S/C5H6O3/c1-2-3-4(6)5(7)8/h2-3,6H,1H2,(H,7,8)/b4-3+

> <PUBCHEM_IUPAC_INCHIKEY>
VHTQQDXPNUTMNB-ONEGZZNKSA-N

> <PUBCHEM_XLOGP3_AA>
0.9

> <PUBCHEM_EXACT_MASS>
114.031694

> <PUBCHEM_MOLECULAR_FORMULA>
C5H6O3

> <PUBCHEM_MOLECULAR_WEIGHT>
114.09934

> <PUBCHEM_OPENEYE_CAN_SMILES>
C=CC=C(C(=O)O)O

> <PUBCHEM_OPENEYE_ISO_SMILES>
C=C/C=C(\C(=O)O)/O

> <PUBCHEM_CACTVS_TPSA>
57.5

> <PUBCHEM_MONOISOTOPIC_WEIGHT>
114.031694

> <PUBCHEM_TOTAL_CHARGE>
0

> <PUBCHEM_HEAVY_ATOM_COUNT>
8

> <PUBCHEM_ATOM_DEF_STEREO_COUNT>
0

> <PUBCHEM_ATOM_UDEF_STEREO_COUNT>
0

> <PUBCHEM_BOND_DEF_STEREO_COUNT>
1

> <PUBCHEM_BOND_UDEF_STEREO_COUNT>
0

> <PUBCHEM_ISOTOPIC_ATOM_COUNT>
0

> <PUBCHEM_COMPONENT_COUNT>
1

> <PUBCHEM_CACTVS_TAUTO_COUNT>
3

> <PUBCHEM_COORDINATE_TYPE>
1
5
255

$$$$

