4479243
  -OEChem-07051212552D

 26 26  0     1  0  0  0  0  0999 V2000
    2.0000    0.0000    0.0000 O   0  5  0  0  0  0  0  0  0  0  0  0
    2.8660   -1.5000    0.0000 O   0  0  0  0  0  0  0  0  0  0  0  0
    4.5981   -0.5000    0.0000 N   0  3  0  0  0  0  0  0  0  0  0  0
    3.7320    0.0000    0.0000 C   0  0  3  0  0  0  0  0  0  0  0  0
    5.4641    0.0000    0.0000 C   0  0  0  0  0  0  0  0  0  0  0  0
    3.7320    1.0000    0.0000 C   0  0  0  0  0  0  0  0  0  0  0  0
    5.4641    1.0000    0.0000 C   0  0  0  0  0  0  0  0  0  0  0  0
    4.5981    1.5000    0.0000 C   0  0  0  0  0  0  0  0  0  0  0  0
    4.0981   -1.3660    0.0000 C   0  0  0  0  0  0  0  0  0  0  0  0
    5.0981   -1.3660    0.0000 C   0  0  0  0  0  0  0  0  0  0  0  0
    2.8660   -0.5000    0.0000 C   0  0  0  0  0  0  0  0  0  0  0  0
    3.7320   -0.6200    0.0000 H   0  0  0  0  0  0  0  0  0  0  0  0
    5.6762   -0.5826    0.0000 H   0  0  0  0  0  0  0  0  0  0  0  0
    6.0747    0.1077    0.0000 H   0  0  0  0  0  0  0  0  0  0  0  0
    3.5200    1.5826    0.0000 H   0  0  0  0  0  0  0  0  0  0  0  0
    3.1215    0.8923    0.0000 H   0  0  0  0  0  0  0  0  0  0  0  0
    6.0747    0.8923    0.0000 H   0  0  0  0  0  0  0  0  0  0  0  0
    5.6762    1.5826    0.0000 H   0  0  0  0  0  0  0  0  0  0  0  0
    4.9966    1.9750    0.0000 H   0  0  0  0  0  0  0  0  0  0  0  0
    4.1996    1.9750    0.0000 H   0  0  0  0  0  0  0  0  0  0  0  0
    3.5611   -1.0560    0.0000 H   0  0  0  0  0  0  0  0  0  0  0  0
    3.7881   -1.9030    0.0000 H   0  0  0  0  0  0  0  0  0  0  0  0
    4.6350   -1.6760    0.0000 H   0  0  0  0  0  0  0  0  0  0  0  0
    4.5611   -1.6760    0.0000 H   0  0  0  0  0  0  0  0  0  0  0  0
    5.4081   -1.9030    0.0000 H   0  0  0  0  0  0  0  0  0  0  0  0
    5.6350   -1.0560    0.0000 H   0  0  0  0  0  0  0  0  0  0  0  0
  1 11  1  0  0  0  0
  2 11  2  0  0  0  0
  3  4  1  0  0  0  0
  3  5  1  0  0  0  0
  3  9  1  0  0  0  0
  3 10  1  0  0  0  0
  4  6  1  0  0  0  0
  4 11  1  0  0  0  0
  4 12  1  0  0  0  0
  5  7  1  0  0  0  0
  5 13  1  0  0  0  0
  5 14  1  0  0  0  0
  6  8  1  0  0  0  0
  6 15  1  0  0  0  0
  6 16  1  0  0  0  0
  7  8  1  0  0  0  0
  7 17  1  0  0  0  0
  7 18  1  0  0  0  0
  8 19  1  0  0  0  0
  8 20  1  0  0  0  0
  9 21  1  0  0  0  0
  9 22  1  0  0  0  0
  9 23  1  0  0  0  0
 10 24  1  0  0  0  0
 10 25  1  0  0  0  0
 10 26  1  0  0  0  0
M  CHG  2   1  -1   3   1
M  END
> <PUBCHEM_COMPOUND_CID>
4479243

> <PUBCHEM_COMPOUND_CANONICALIZED>
1

> <PUBCHEM_CACTVS_COMPLEXITY>
160

> <PUBCHEM_CACTVS_HBOND_ACCEPTOR>
2

> <PUBCHEM_CACTVS_HBOND_DONOR>
0

> <PUBCHEM_CACTVS_ROTATABLE_BOND>
0

> <PUBCHEM_CACTVS_SUBSKEYS>
AAADccByMAAAAAAAAAAAAAAAAAAAAAAAAAAsAAAAAAAAAAAAAAAAHgAAAAAACCjBgAQCCAMAAAAIAACQCAAAAAAAAAAAAAGIAAACABIAgCAEAAAEAACQAAGYSAAAAAAAAAAAAAAAAAAAAAAAAAAAAAAAAA==

> <PUBCHEM_IUPAC_OPENEYE_NAME>
1,1-dimethylpiperidin-1-ium-2-carboxylate

> <PUBCHEM_IUPAC_CAS_NAME>
1,1-dimethyl-2-piperidin-1-iumcarboxylate

> <PUBCHEM_IUPAC_NAME>
1,1-dimethylpiperidin-1-ium-2-carboxylate

> <PUBCHEM_IUPAC_SYSTEMATIC_NAME>
1,1-dimethylpiperidin-1-ium-2-carboxylate

> <PUBCHEM_IUPAC_TRADITIONAL_NAME>
1,1-dimethylpiperidin-1-ium-2-carboxylate

> <PUBCHEM_IUPAC_INCHI>
InChI=1S/C8H15NO2/c1-9(2)6-4-3-5-7(9)8(10)11/h7H,3-6H2,1-2H3

> <PUBCHEM_IUPAC_INCHIKEY>
XULZWQRXYTVUTE-UHFFFAOYSA-N

> <PUBCHEM_XLOGP3_AA>
1.4

> <PUBCHEM_EXACT_MASS>
157.110279

> <PUBCHEM_MOLECULAR_FORMULA>
C8H15NO2

> <PUBCHEM_MOLECULAR_WEIGHT>
157.2102

> <PUBCHEM_OPENEYE_CAN_SMILES>
C[N+]1(CCCCC1C(=O)[O-])C

> <PUBCHEM_OPENEYE_ISO_SMILES>
C[N+]1(CCCCC1C(=O)[O-])C

> <PUBCHEM_CACTVS_TPSA>
40.1

> <PUBCHEM_MONOISOTOPIC_WEIGHT>
157.110279

> <PUBCHEM_TOTAL_CHARGE>
0

> <PUBCHEM_HEAVY_ATOM_COUNT>
11

> <PUBCHEM_ATOM_DEF_STEREO_COUNT>
0

> <PUBCHEM_ATOM_UDEF_STEREO_COUNT>
1

> <PUBCHEM_BOND_DEF_STEREO_COUNT>
0

> <PUBCHEM_BOND_UDEF_STEREO_COUNT>
0

> <PUBCHEM_ISOTOPIC_ATOM_COUNT>
0

> <PUBCHEM_COMPONENT_COUNT>
1

> <PUBCHEM_CACTVS_TAUTO_COUNT>
1

> <PUBCHEM_COORDINATE_TYPE>
1
5
255

> <PUBCHEM_BONDANNOTATIONS>
4  11  3

$$$$

