5281712
  -OEChem-07051212593D

 51 53  0     1  0  0  0  0  0999 V2000
    2.2399   -1.0700    0.6065 O   0  0  0  0  0  0  0  0  0  0  0  0
    6.1277   -2.1222   -0.1963 O   0  0  0  0  0  0  0  0  0  0  0  0
    3.9740   -3.9009   -0.9400 O   0  0  0  0  0  0  0  0  0  0  0  0
    2.8331    1.1638    0.9267 O   0  0  0  0  0  0  0  0  0  0  0  0
    5.2716    0.6875   -0.4276 O   0  0  0  0  0  0  0  0  0  0  0  0
    0.0859   -2.7430    0.2634 O   0  0  0  0  0  0  0  0  0  0  0  0
    1.3415    5.4714   -0.4893 O   0  0  0  0  0  0  0  0  0  0  0  0
   -5.4408   -3.0218    0.5065 O   0  0  0  0  0  0  0  0  0  0  0  0
   -7.5122   -1.3202   -0.2280 O   0  0  0  0  0  0  0  0  0  0  0  0
    3.8249   -2.7659   -0.0911 C   0  0  1  0  0  0  0  0  0  0  0  0
    4.8095   -1.6790   -0.5226 C   0  0  1  0  0  0  0  0  0  0  0  0
    2.3837   -2.2575   -0.1746 C   0  0  1  0  0  0  0  0  0  0  0  0
    4.5247   -0.3585    0.1930 C   0  0  2  0  0  0  0  0  0  0  0  0
    3.0415    0.0044    0.1209 C   0  0  1  0  0  0  0  0  0  0  0  0
    1.3908   -3.2839    0.3617 C   0  0  0  0  0  0  0  0  0  0  0  0
    1.8201    2.0004    0.5456 C   0  0  0  0  0  0  0  0  0  0  0  0
    0.5145    1.5225    0.4866 C   0  0  0  0  0  0  0  0  0  0  0  0
    2.1030    3.3233    0.2194 C   0  0  0  0  0  0  0  0  0  0  0  0
   -0.5182    2.3757    0.0976 C   0  0  0  0  0  0  0  0  0  0  0  0
    1.0702    4.1764   -0.1694 C   0  0  0  0  0  0  0  0  0  0  0  0
   -0.2404    3.7026   -0.2303 C   0  0  0  0  0  0  0  0  0  0  0  0
   -1.8847    1.8817    0.0342 C   0  0  0  0  0  0  0  0  0  0  0  0
   -2.2398    0.5779   -0.0524 C   0  0  0  0  0  0  0  0  0  0  0  0
   -3.6245    0.0756   -0.0972 C   0  0  0  0  0  0  0  0  0  0  0  0
   -3.8775   -1.2468    0.2290 C   0  0  0  0  0  0  0  0  0  0  0  0
   -4.6461    0.9359   -0.4656 C   0  0  0  0  0  0  0  0  0  0  0  0
   -5.1882   -1.7221    0.1856 C   0  0  0  0  0  0  0  0  0  0  0  0
   -5.9566    0.4607   -0.5091 C   0  0  0  0  0  0  0  0  0  0  0  0
   -6.2278   -0.8682   -0.1833 C   0  0  0  0  0  0  0  0  0  0  0  0
    4.7901   -1.5402   -1.6106 H   0  0  0  0  0  0  0  0  0  0  0  0
    4.0617   -3.0873    0.9306 H   0  0  0  0  0  0  0  0  0  0  0  0
    2.1057   -2.0275   -1.2123 H   0  0  0  0  0  0  0  0  0  0  0  0
    4.8597   -0.4116    1.2357 H   0  0  0  0  0  0  0  0  0  0  0  0
    2.7643    0.2301   -0.9197 H   0  0  0  0  0  0  0  0  0  0  0  0
    1.5796   -3.5126    1.4159 H   0  0  0  0  0  0  0  0  0  0  0  0
    1.4218   -4.2146   -0.2119 H   0  0  0  0  0  0  0  0  0  0  0  0
    6.2723   -2.9677   -0.6546 H   0  0  0  0  0  0  0  0  0  0  0  0
    3.7587   -3.6272   -1.8479 H   0  0  0  0  0  0  0  0  0  0  0  0
    4.9868    0.7524   -1.3552 H   0  0  0  0  0  0  0  0  0  0  0  0
    0.0639   -1.9314    0.7985 H   0  0  0  0  0  0  0  0  0  0  0  0
    0.3166    0.5008    0.7909 H   0  0  0  0  0  0  0  0  0  0  0  0
    3.1248    3.6906    0.2667 H   0  0  0  0  0  0  0  0  0  0  0  0
   -1.0415    4.3725   -0.5359 H   0  0  0  0  0  0  0  0  0  0  0  0
   -2.6425    2.6582    0.0902 H   0  0  0  0  0  0  0  0  0  0  0  0
   -1.4848   -0.2010   -0.1096 H   0  0  0  0  0  0  0  0  0  0  0  0
    0.5123    5.9164   -0.7348 H   0  0  0  0  0  0  0  0  0  0  0  0
   -3.0685   -1.9134    0.5185 H   0  0  0  0  0  0  0  0  0  0  0  0
   -4.4798    1.9701   -0.7493 H   0  0  0  0  0  0  0  0  0  0  0  0
   -6.7619    1.1291   -0.8020 H   0  0  0  0  0  0  0  0  0  0  0  0
   -4.6035   -3.4605    0.7358 H   0  0  0  0  0  0  0  0  0  0  0  0
   -7.5150   -2.2591    0.0273 H   0  0  0  0  0  0  0  0  0  0  0  0
  1 12  1  0  0  0  0
  1 14  1  0  0  0  0
  2 11  1  0  0  0  0
  2 37  1  0  0  0  0
  3 10  1  0  0  0  0
  3 38  1  0  0  0  0
  4 14  1  0  0  0  0
  4 16  1  0  0  0  0
  5 13  1  0  0  0  0
  5 39  1  0  0  0  0
  6 15  1  0  0  0  0
  6 40  1  0  0  0  0
  7 20  1  0  0  0  0
  7 46  1  0  0  0  0
  8 27  1  0  0  0  0
  8 50  1  0  0  0  0
  9 29  1  0  0  0  0
  9 51  1  0  0  0  0
 10 11  1  0  0  0  0
 10 12  1  0  0  0  0
 10 31  1  0  0  0  0
 11 13  1  0  0  0  0
 11 30  1  0  0  0  0
 12 15  1  0  0  0  0
 12 32  1  0  0  0  0
 13 14  1  0  0  0  0
 13 33  1  0  0  0  0
 14 34  1  0  0  0  0
 15 35  1  0  0  0  0
 15 36  1  0  0  0  0
 16 17  2  0  0  0  0
 16 18  1  0  0  0  0
 17 19  1  0  0  0  0
 17 41  1  0  0  0  0
 18 20  2  0  0  0  0
 18 42  1  0  0  0  0
 19 21  2  0  0  0  0
 19 22  1  0  0  0  0
 20 21  1  0  0  0  0
 21 43  1  0  0  0  0
 22 23  2  0  0  0  0
 22 44  1  0  0  0  0
 23 24  1  0  0  0  0
 23 45  1  0  0  0  0
 24 25  2  0  0  0  0
 24 26  1  0  0  0  0
 25 27  1  0  0  0  0
 25 47  1  0  0  0  0
 26 28  2  0  0  0  0
 26 48  1  0  0  0  0
 27 29  2  0  0  0  0
 28 29  1  0  0  0  0
 28 49  1  0  0  0  0
M  END
> <PUBCHEM_COMPOUND_CID>
5281712

> <PUBCHEM_CONFORMER_RMSD>
1

> <PUBCHEM_CONFORMER_DIVERSEORDER>
1
130
184
172
13
163
147
17
101
95
6
75
165
109
91
167
30
10
49
24
8
46
164
122
47
19
158
92
143
177
114
112
14
127
4
78
12
106
152
61
25
11
128
161
170
94
9
20
96
157
123
173
113
136
134
181
189
40
168
76
138
121
87
77
178
85
104
31
88
179
150
70
63
97
182
2
132
110
162
125
51
141
155
146
139
29
36
3
7
48
137
99
169
28
176
154
59
98
72
52
56
103
140
153
105
160
175
142
93
5
26
86
53
102
124
74
118
111
159
120
171
145
15
18
115
90
71
16
129
185
186
151
33
23
89
82
55
65
68
80
180
84
67
79
54
83
44
117
144
156
73
57
69
38
58
131
32
166
43
148
119
34
27
174
45
81
183
66
107
133
35
21
50
100
149
188
126
108
41
62
187
64
39
135
37
42
22
116
60

> <PUBCHEM_MMFF94_PARTIAL_CHARGES>
44
1 -0.56
10 0.28
11 0.28
12 0.28
13 0.28
14 0.56
15 0.28
16 0.08
17 -0.15
18 -0.15
19 0.03
2 -0.68
20 0.08
21 -0.15
22 -0.18
23 -0.18
24 0.03
25 -0.15
26 -0.15
27 0.08
28 -0.15
29 0.08
3 -0.68
37 0.4
38 0.4
39 0.4
4 -0.36
40 0.4
41 0.15
42 0.15
43 0.15
44 0.15
45 0.15
46 0.45
47 0.15
48 0.15
49 0.15
5 -0.68
50 0.45
51 0.45
6 -0.68
7 -0.53
8 -0.53
9 -0.53

> <PUBCHEM_EFFECTIVE_ROTOR_COUNT>
6.2

> <PUBCHEM_PHARMACOPHORE_FEATURES>
16
1 1 acceptor
1 2 acceptor
1 2 donor
1 3 acceptor
1 3 donor
1 4 acceptor
1 5 acceptor
1 5 donor
1 6 acceptor
1 6 donor
1 7 donor
1 8 donor
1 9 donor
6 1 10 11 12 13 14 rings
6 16 17 18 19 20 21 rings
6 24 25 26 27 28 29 rings

> <PUBCHEM_HEAVY_ATOM_COUNT>
29

> <PUBCHEM_ATOM_DEF_STEREO_COUNT>
5

> <PUBCHEM_ATOM_UDEF_STEREO_COUNT>
0

> <PUBCHEM_BOND_DEF_STEREO_COUNT>
1

> <PUBCHEM_BOND_UDEF_STEREO_COUNT>
0

> <PUBCHEM_ISOTOPIC_ATOM_COUNT>
0

> <PUBCHEM_COMPONENT_COUNT>
1

> <PUBCHEM_CACTVS_TAUTO_COUNT>
57

> <PUBCHEM_CONFORMER_ID>
005097B000000001

> <PUBCHEM_MMFF94_ENERGY>
93.3422

> <PUBCHEM_FEATURE_SELFOVERLAP>
81.255

> <PUBCHEM_SHAPE_FINGERPRINT>
10622 236 17389407930439922967
11513181 2 17685206175804791958
11719270 70 18122069706346803912
12107183 9 18262788697021488105
12166972 35 17917706933281974286
12788726 201 17912928575748099425
13008946 62 16620646872273863709
13383661 66 17460580657961813302
13402501 40 18412826884624957571
13533116 47 18261675853667220057
1361 2 18339082583777854833
13631057 29 18192148411983283624
13692114 37 17471023479709356472
13785724 45 18335411422391473445
138480 1 18410856559719248697
13955234 65 18117842092733117353
13989917 61 18194401096424095195
14790565 3 17259057394449593221
14866123 147 17975131264916637593
15320467 1 18410856551520048475
15352361 1 18410012177828168129
15400415 2 17545883729388158085
15803439 3 17052138179989979132
15927050 60 17832423094766620220
17492 89 18338517418402088785
17909252 39 18408603660594565096
1979834 28 18262532381002828792
20645477 70 18271252595270626841
21033650 10 16916507106896031573
21133410 171 17409135625405236435
21197605 99 17764869096394190995
22849339 104 17326880181230544324
23559900 14 18411427185523117481
3004659 81 18131071549560048264
329604 57 18340203102628979398
338550 245 18196656190075782669
3421961 26 18408608032665660689
3882209 13 17190702329020681075
46194498 28 17703511008545239301
463206 1 18341886441734732467
5265222 85 17405134132849980181
5309563 4 18410013273087111141
5776283 40 18125710189746731732
613672 6 18194428738231640861
6443956 14 18412546513581461933
7970288 3 18410012181996846734

> <PUBCHEM_SHAPE_MULTIPOLES>
543.98
14.73
5.94
0.73
17.31
4.53
0
-13.62
1.82
-5.05
0.54
-0.15
-0.04
1.03

> <PUBCHEM_SHAPE_SELFOVERLAP>
1167.392

> <PUBCHEM_SHAPE_VOLUME>
298.3

> <PUBCHEM_COORDINATE_TYPE>
2
5
10

$$$$

