248269
  -OEChem-07051213063D

 43 45  0     0  0  0  0  0  0999 V2000
    0.5836    2.3623   -0.1060 O   0  0  0  0  0  0  0  0  0  0  0  0
    2.0151   -2.2625   -0.0897 O   0  0  0  0  0  0  0  0  0  0  0  0
    4.6071   -1.4196   -0.0075 O   0  0  0  0  0  0  0  0  0  0  0  0
    5.1984    1.2809    0.0255 O   0  0  0  0  0  0  0  0  0  0  0  0
   -0.4768   -1.5770   -0.1937 O   0  0  0  0  0  0  0  0  0  0  0  0
   -6.7043   -0.3815   -0.1779 O   0  0  0  0  0  0  0  0  0  0  0  0
    1.2443    0.0267   -0.0992 C   0  0  0  0  0  0  0  0  0  0  0  0
    1.5480    1.3876   -0.0820 C   0  0  0  0  0  0  0  0  0  0  0  0
   -1.1832    0.6966   -0.1515 C   0  0  0  0  0  0  0  0  0  0  0  0
    2.2692   -0.9227   -0.0745 C   0  0  0  0  0  0  0  0  0  0  0  0
   -0.1685   -0.3931   -0.1476 C   0  0  0  0  0  0  0  0  0  0  0  0
    3.5988   -0.5010   -0.0320 C   0  0  0  0  0  0  0  0  0  0  0  0
   -2.6280    0.4153   -0.1584 C   0  0  0  0  0  0  0  0  0  0  0  0
    2.8780    1.8069   -0.0404 C   0  0  0  0  0  0  0  0  0  0  0  0
    3.9028    0.8609   -0.0151 C   0  0  0  0  0  0  0  0  0  0  0  0
   -0.7295    1.9589   -0.1296 C   0  0  0  0  0  0  0  0  0  0  0  0
   -3.3136    0.3018   -1.3696 C   0  0  0  0  0  0  0  0  0  0  0  0
   -3.3169    0.2600    1.0461 C   0  0  0  0  0  0  0  0  0  0  0  0
   -4.6827    0.0345   -1.3762 C   0  0  0  0  0  0  0  0  0  0  0  0
   -4.6860   -0.0076    1.0394 C   0  0  0  0  0  0  0  0  0  0  0  0
   -5.3689   -0.1201   -0.1716 C   0  0  0  0  0  0  0  0  0  0  0  0
    1.8572   -2.9052    1.1730 C   0  0  0  0  0  0  0  0  0  0  0  0
    5.1223   -1.8474   -1.2657 C   0  0  0  0  0  0  0  0  0  0  0  0
    5.7769    1.4732    1.3148 C   0  0  0  0  0  0  0  0  0  0  0  0
   -7.3435   -0.5281    1.0894 C   0  0  0  0  0  0  0  0  0  0  0  0
    3.1160    2.8676   -0.0283 H   0  0  0  0  0  0  0  0  0  0  0  0
   -1.3737    2.8296   -0.1257 H   0  0  0  0  0  0  0  0  0  0  0  0
   -2.7928    0.4185   -2.3170 H   0  0  0  0  0  0  0  0  0  0  0  0
   -2.7976    0.3440    1.9979 H   0  0  0  0  0  0  0  0  0  0  0  0
   -5.2091   -0.0526   -2.3227 H   0  0  0  0  0  0  0  0  0  0  0  0
   -5.1565   -0.1167    2.0106 H   0  0  0  0  0  0  0  0  0  0  0  0
    1.1776   -2.3485    1.8264 H   0  0  0  0  0  0  0  0  0  0  0  0
    2.8307   -3.0147    1.6608 H   0  0  0  0  0  0  0  0  0  0  0  0
    1.4399   -3.9011    1.0007 H   0  0  0  0  0  0  0  0  0  0  0  0
    5.9136   -2.5789   -1.0808 H   0  0  0  0  0  0  0  0  0  0  0  0
    5.5493   -1.0022   -1.8148 H   0  0  0  0  0  0  0  0  0  0  0  0
    4.3382   -2.3244   -1.8620 H   0  0  0  0  0  0  0  0  0  0  0  0
    6.8121    1.7985    1.1808 H   0  0  0  0  0  0  0  0  0  0  0  0
    5.7750    0.5370    1.8820 H   0  0  0  0  0  0  0  0  0  0  0  0
    5.2350    2.2481    1.8664 H   0  0  0  0  0  0  0  0  0  0  0  0
   -7.2974    0.3978    1.6728 H   0  0  0  0  0  0  0  0  0  0  0  0
   -6.9486   -1.3872    1.6422 H   0  0  0  0  0  0  0  0  0  0  0  0
   -8.4018   -0.7316    0.8960 H   0  0  0  0  0  0  0  0  0  0  0  0
  1  8  1  0  0  0  0
  1 16  1  0  0  0  0
  2 10  1  0  0  0  0
  2 22  1  0  0  0  0
  3 12  1  0  0  0  0
  3 23  1  0  0  0  0
  4 15  1  0  0  0  0
  4 24  1  0  0  0  0
  5 11  2  0  0  0  0
  6 21  1  0  0  0  0
  6 25  1  0  0  0  0
  7  8  1  0  0  0  0
  7 10  2  0  0  0  0
  7 11  1  0  0  0  0
  8 14  2  0  0  0  0
  9 11  1  0  0  0  0
  9 13  1  0  0  0  0
  9 16  2  0  0  0  0
 10 12  1  0  0  0  0
 12 15  2  0  0  0  0
 13 17  2  0  0  0  0
 13 18  1  0  0  0  0
 14 15  1  0  0  0  0
 14 26  1  0  0  0  0
 16 27  1  0  0  0  0
 17 19  1  0  0  0  0
 17 28  1  0  0  0  0
 18 20  2  0  0  0  0
 18 29  1  0  0  0  0
 19 21  2  0  0  0  0
 19 30  1  0  0  0  0
 20 21  1  0  0  0  0
 20 31  1  0  0  0  0
 22 32  1  0  0  0  0
 22 33  1  0  0  0  0
 22 34  1  0  0  0  0
 23 35  1  0  0  0  0
 23 36  1  0  0  0  0
 23 37  1  0  0  0  0
 24 38  1  0  0  0  0
 24 39  1  0  0  0  0
 24 40  1  0  0  0  0
 25 41  1  0  0  0  0
 25 42  1  0  0  0  0
 25 43  1  0  0  0  0
M  END
> <PUBCHEM_COMPOUND_CID>
248269

> <PUBCHEM_CONFORMER_RMSD>
0.8

> <PUBCHEM_CONFORMER_DIVERSEORDER>
2
4
3
1

> <PUBCHEM_MMFF94_PARTIAL_CHARGES>
31
1 -0.16
10 0.08
11 0.47
12 0.08
13 0.03
14 -0.15
15 0.08
16 -0.07
17 -0.15
18 -0.15
19 -0.15
2 -0.36
20 -0.15
21 0.08
22 0.28
23 0.28
24 0.28
25 0.28
26 0.15
27 0.15
28 0.15
29 0.15
3 -0.36
30 0.15
31 0.15
4 -0.36
5 -0.57
6 -0.36
7 0.09
8 0.08
9 -0.01

> <PUBCHEM_EFFECTIVE_ROTOR_COUNT>
5

> <PUBCHEM_PHARMACOPHORE_FEATURES>
9
1 1 acceptor
1 2 acceptor
1 3 acceptor
1 4 acceptor
1 5 acceptor
1 6 acceptor
6 1 7 8 9 11 16 rings
6 13 17 18 19 20 21 rings
6 7 8 10 12 14 15 rings

> <PUBCHEM_HEAVY_ATOM_COUNT>
25

> <PUBCHEM_ATOM_DEF_STEREO_COUNT>
0

> <PUBCHEM_ATOM_UDEF_STEREO_COUNT>
0

> <PUBCHEM_BOND_DEF_STEREO_COUNT>
0

> <PUBCHEM_BOND_UDEF_STEREO_COUNT>
0

> <PUBCHEM_ISOTOPIC_ATOM_COUNT>
0

> <PUBCHEM_COMPONENT_COUNT>
1

> <PUBCHEM_CACTVS_TAUTO_COUNT>
1

> <PUBCHEM_CONFORMER_ID>
0003C9CD00000002

> <PUBCHEM_MMFF94_ENERGY>
118.7935

> <PUBCHEM_FEATURE_SELFOVERLAP>
45.721

> <PUBCHEM_SHAPE_FINGERPRINT>
10 15 18059862706154791320
10366900 7 17988350568077267642
10906281 52 18266739070448393892
11421498 54 17385999632628429778
12107183 9 17613991216159330945
12236239 1 17749106695392742797
12516196 113 18407760322428256713
12553582 1 18337121166798335367
12596602 18 17821443565141442427
12616971 3 18040438785187982701
12730499 353 18273493481065783370
13140716 1 18195249906014189432
13402501 40 18059569170735652003
13533116 47 17894347796044143362
13685833 64 18342452643489995731
13782708 43 17418098766663447675
13862211 1 18339643446762642590
14170010 4 18411136913677859573
14341114 176 18409162217202162829
14386348 63 17918270957362035627
15081414 286 18408322177328736300
15196674 1 18337110167450471612
17492 89 18123474040261291755
1813 80 18188757457181732853
19489759 90 16128381476005796733
200 152 18333453149201193077
20028762 73 18187085087259241790
20511986 3 18113345236567800569
20645477 70 18410857693521939343
21033648 29 18129679542439362677
21267235 1 18336540616501360774
21521721 280 18337110043097029896
21623969 137 18343862199810792555
22149856 69 18341314657640401009
22182313 1 18270980036677567596
22224240 67 18337398132449678104
22956985 138 17129320915774038306
23559900 14 17632287952638472341
23569914 152 17038405734734588911
239999 70 18411133654272429294
2871803 45 18342458183676099596
335352 9 18410290277957759508
33824 294 18342178881810571874
345986 75 18115033042133482827
34797466 226 16558738014570680751
34934 24 18336836311766680718
4073 2 18131343091184869051
4093350 32 17603860122025040734
42630746 31 18409450276305735400
4340502 62 18411986828050572824
46194498 28 17489586727805021125
465052 167 18335414681823427255
5104073 3 18337678636373558936
542803 24 17240202132022462733
5758199 1 18114747027988782760
602551 16 15213596554528226373

> <PUBCHEM_SHAPE_MULTIPOLES>
479.27
15.02
2.24
1.11
14.81
0.69
0
1.42
1.98
-3.43
0.28
0.5
0.18
0.95

> <PUBCHEM_SHAPE_SELFOVERLAP>
1045.994

> <PUBCHEM_SHAPE_VOLUME>
261.7

> <PUBCHEM_COORDINATE_TYPE>
2
5
10

$$$$

