228864
  -OEChem-07051213053D

 50 53  0     1  0  0  0  0  0999 V2000
   -5.3503   -0.1358    0.5130 O   0  0  0  0  0  0  0  0  0  0  0  0
    5.7712   -0.6703   -1.2227 O   0  0  0  0  0  0  0  0  0  0  0  0
   -2.1203   -0.2368    0.1360 C   0  0  1  0  0  0  0  0  0  0  0  0
   -1.2223    0.9072   -0.3845 C   0  0  2  0  0  0  0  0  0  0  0  0
    0.1110    0.9958    0.3589 C   0  0  1  0  0  0  0  0  0  0  0  0
    0.8805   -0.3564    0.1665 C   0  0  2  0  0  0  0  0  0  0  0  0
   -3.3578   -0.0083   -0.7602 C   0  0  2  0  0  0  0  0  0  0  0  0
   -1.3843   -1.5622   -0.1057 C   0  0  0  0  0  0  0  0  0  0  0  0
   -2.1533    2.1142   -0.3883 C   0  0  0  0  0  0  0  0  0  0  0  0
    0.0083   -1.5740    0.5510 C   0  0  0  0  0  0  0  0  0  0  0  0
    2.2242   -0.2872    0.9407 C   0  0  2  0  0  0  0  0  0  0  0  0
   -3.5113    1.5265   -0.8127 C   0  0  0  0  0  0  0  0  0  0  0  0
    0.9608    2.1931   -0.1099 C   0  0  0  0  0  0  0  0  0  0  0  0
   -2.4908   -0.1142    1.6374 C   0  0  0  0  0  0  0  0  0  0  0  0
    2.3338    2.2195    0.5684 C   0  0  0  0  0  0  0  0  0  0  0  0
    3.0087    0.8871    0.3818 C   0  0  0  0  0  0  0  0  0  0  0  0
    3.0703   -1.5696    0.9492 C   0  0  0  0  0  0  0  0  0  0  0  0
   -4.6025   -0.6901   -0.2833 C   0  0  0  0  0  0  0  0  0  0  0  0
    3.8298   -1.7764   -0.3496 C   0  0  0  0  0  0  0  0  0  0  0  0
    4.1564    0.7705   -0.3032 C   0  0  0  0  0  0  0  0  0  0  0  0
    4.6905   -0.5706   -0.6453 C   0  0  0  0  0  0  0  0  0  0  0  0
   -4.8526   -2.0620   -0.8375 C   0  0  0  0  0  0  0  0  0  0  0  0
   -0.9798    0.7062   -1.4417 H   0  0  0  0  0  0  0  0  0  0  0  0
   -0.0759    1.1448    1.4297 H   0  0  0  0  0  0  0  0  0  0  0  0
    1.1054   -0.4612   -0.9060 H   0  0  0  0  0  0  0  0  0  0  0  0
   -3.1543   -0.3513   -1.7841 H   0  0  0  0  0  0  0  0  0  0  0  0
   -1.2638   -1.7347   -1.1831 H   0  0  0  0  0  0  0  0  0  0  0  0
   -1.9645   -2.4068    0.2817 H   0  0  0  0  0  0  0  0  0  0  0  0
   -1.8205    2.8897   -1.0855 H   0  0  0  0  0  0  0  0  0  0  0  0
   -2.2246    2.5700    0.6054 H   0  0  0  0  0  0  0  0  0  0  0  0
   -0.0932   -1.6273    1.6410 H   0  0  0  0  0  0  0  0  0  0  0  0
    0.5069   -2.4993    0.2409 H   0  0  0  0  0  0  0  0  0  0  0  0
    1.9932   -0.0730    1.9943 H   0  0  0  0  0  0  0  0  0  0  0  0
   -4.3031    1.9225   -0.1684 H   0  0  0  0  0  0  0  0  0  0  0  0
   -3.7555    1.8374   -1.8355 H   0  0  0  0  0  0  0  0  0  0  0  0
    0.4406    3.1328    0.1096 H   0  0  0  0  0  0  0  0  0  0  0  0
    1.0923    2.1494   -1.1992 H   0  0  0  0  0  0  0  0  0  0  0  0
   -3.0627    0.7930    1.8563 H   0  0  0  0  0  0  0  0  0  0  0  0
   -3.0983   -0.9684    1.9583 H   0  0  0  0  0  0  0  0  0  0  0  0
   -1.6135   -0.0990    2.2893 H   0  0  0  0  0  0  0  0  0  0  0  0
    2.2224    2.4251    1.6399 H   0  0  0  0  0  0  0  0  0  0  0  0
    2.9296    3.0381    0.1482 H   0  0  0  0  0  0  0  0  0  0  0  0
    2.4697   -2.4530    1.1836 H   0  0  0  0  0  0  0  0  0  0  0  0
    3.8033   -1.4877    1.7650 H   0  0  0  0  0  0  0  0  0  0  0  0
    3.1510   -1.9408   -1.1926 H   0  0  0  0  0  0  0  0  0  0  0  0
    4.4801   -2.6526   -0.2530 H   0  0  0  0  0  0  0  0  0  0  0  0
    4.6854    1.6319   -0.6951 H   0  0  0  0  0  0  0  0  0  0  0  0
   -4.8624   -2.0270   -1.9298 H   0  0  0  0  0  0  0  0  0  0  0  0
   -4.0897   -2.7587   -0.4879 H   0  0  0  0  0  0  0  0  0  0  0  0
   -5.8299   -2.4159   -0.4965 H   0  0  0  0  0  0  0  0  0  0  0  0
  1 18  2  0  0  0  0
  2 21  2  0  0  0  0
  3  4  1  0  0  0  0
  3  7  1  0  0  0  0
  3  8  1  0  0  0  0
  3 14  1  0  0  0  0
  4  5  1  0  0  0  0
  4  9  1  0  0  0  0
  4 23  1  0  0  0  0
  5  6  1  0  0  0  0
  5 13  1  0  0  0  0
  5 24  1  0  0  0  0
  6 10  1  0  0  0  0
  6 11  1  0  0  0  0
  6 25  1  0  0  0  0
  7 12  1  0  0  0  0
  7 18  1  0  0  0  0
  7 26  1  0  0  0  0
  8 10  1  0  0  0  0
  8 27  1  0  0  0  0
  8 28  1  0  0  0  0
  9 12  1  0  0  0  0
  9 29  1  0  0  0  0
  9 30  1  0  0  0  0
 10 31  1  0  0  0  0
 10 32  1  0  0  0  0
 11 16  1  0  0  0  0
 11 17  1  0  0  0  0
 11 33  1  0  0  0  0
 12 34  1  0  0  0  0
 12 35  1  0  0  0  0
 13 15  1  0  0  0  0
 13 36  1  0  0  0  0
 13 37  1  0  0  0  0
 14 38  1  0  0  0  0
 14 39  1  0  0  0  0
 14 40  1  0  0  0  0
 15 16  1  0  0  0  0
 15 41  1  0  0  0  0
 15 42  1  0  0  0  0
 16 20  2  0  0  0  0
 17 19  1  0  0  0  0
 17 43  1  0  0  0  0
 17 44  1  0  0  0  0
 18 22  1  0  0  0  0
 19 21  1  0  0  0  0
 19 45  1  0  0  0  0
 19 46  1  0  0  0  0
 20 21  1  0  0  0  0
 20 47  1  0  0  0  0
 22 48  1  0  0  0  0
 22 49  1  0  0  0  0
 22 50  1  0  0  0  0
M  END
> <PUBCHEM_COMPOUND_CID>
228864

> <PUBCHEM_CONFORMER_RMSD>
0.6

> <PUBCHEM_CONFORMER_DIVERSEORDER>
1
4
3
2

> <PUBCHEM_MMFF94_PARTIAL_CHARGES>
12
1 -0.57
11 0.14
15 0.14
16 -0.28
18 0.45
19 0.06
2 -0.57
20 -0.14
21 0.49
22 0.06
47 0.15
7 0.06

> <PUBCHEM_EFFECTIVE_ROTOR_COUNT>
2.8

> <PUBCHEM_PHARMACOPHORE_FEATURES>
6
1 1 acceptor
1 2 acceptor
5 3 4 7 9 12 rings
6 11 16 17 19 20 21 rings
6 3 4 5 6 8 10 rings
6 5 6 11 13 15 16 rings

> <PUBCHEM_HEAVY_ATOM_COUNT>
22

> <PUBCHEM_ATOM_DEF_STEREO_COUNT>
6

> <PUBCHEM_ATOM_UDEF_STEREO_COUNT>
0

> <PUBCHEM_BOND_DEF_STEREO_COUNT>
0

> <PUBCHEM_BOND_UDEF_STEREO_COUNT>
0

> <PUBCHEM_ISOTOPIC_ATOM_COUNT>
0

> <PUBCHEM_COMPONENT_COUNT>
1

> <PUBCHEM_CACTVS_TAUTO_COUNT>
24

> <PUBCHEM_CONFORMER_ID>
00037E0000000001

> <PUBCHEM_MMFF94_ENERGY>
60.536

> <PUBCHEM_FEATURE_SELFOVERLAP>
30.562

> <PUBCHEM_SHAPE_FINGERPRINT>
10366900 7 17989487411434050161
10498660 4 17703237311701365508
10967382 1 18341057310967064993
11089746 13 12607406567988488678
11615757 297 18260547818364760529
12011746 2 18272369776008152023
12236239 1 17748822995412002497
12403259 226 18410022034847236365
12403259 415 18343027696313656253
12553582 1 18337402603278283878
12916754 54 18260549987660887321
13140716 1 17909276784247692872
13167823 11 18187368675554319471
13224815 77 18059857280877418552
13288520 33 18260544541214971285
13533116 47 17895757279435015785
13862211 1 18412553101823800314
13944108 23 16112079343276749949
15196674 1 18412831312604104456
15536298 74 18336272249274227032
15848702 151 17967807284144295431
16752209 62 18339367473559689704
16945 1 18269841930156859544
17349148 13 17530963566487178183
1813 80 17677316308334533164
18186145 218 18334301967413214785
19591789 44 18411987978780372955
19784866 240 17894904131294189812
19862831 5 18411419540064345784
200 152 17894349968833345561
20028762 73 18041569044171042447
20645477 70 18335986385320974764
20871999 31 18271803553484745404
21267235 1 18410849962586022570
221357 26 18410577296608354685
221490 88 18340205189434205739
2215653 11 18409738374021855157
22182313 1 18198366033383476044
22393880 68 18341622541542761405
23522609 53 18194088946215949973
23559900 14 18337117769415939560
2871803 45 18271813397249159504
296302 2 12319735869019655464
3004659 81 18129942412197949898
3323516 105 18412268337086497248
335352 9 18267029530042786653
350125 39 18340767139341242133
4280585 95 17472134459327756358
465052 167 18186798041577481703
474 4 16558455402065803772
4990 188 18335138717590151694
5104073 3 18339932596708723097
7364860 26 18262242106181492576
9709674 26 18341335474671501603

> <PUBCHEM_SHAPE_MULTIPOLES>
441.01
10.68
2.28
1.06
0.38
0.46
0.15
-3.64
-2.89
0
-0.15
0.02
-0.13
0.19

> <PUBCHEM_SHAPE_SELFOVERLAP>
945.268

> <PUBCHEM_SHAPE_VOLUME>
242.4

> <PUBCHEM_COORDINATE_TYPE>
2
5
10

$$$$

