252288
  -OEChem-07051213063D

 66 69  0     1  0  0  0  0  0999 V2000
    2.4071   -0.2234   -1.9654 O   0  0  0  0  0  0  0  0  0  0  0  0
    5.9304   -1.3257    0.0120 O   0  0  0  0  0  0  0  0  0  0  0  0
   -5.9060    0.1735    0.9146 O   0  0  0  0  0  0  0  0  0  0  0  0
    2.1174    2.3208    0.7547 N   0  0  0  0  0  0  0  0  0  0  0  0
    0.1735   -0.8296   -0.2254 C   0  0  1  0  0  0  0  0  0  0  0  0
   -0.4122    0.6196   -0.1426 C   0  0  2  0  0  0  0  0  0  0  0  0
    1.6739   -0.8857    0.2617 C   0  0  2  0  0  0  0  0  0  0  0  0
   -1.8504    0.5936   -0.6765 C   0  0  1  0  0  0  0  0  0  0  0  0
   -2.7738   -0.3519    0.1226 C   0  0  2  0  0  0  0  0  0  0  0  0
    2.5072    0.1641   -0.5715 C   0  0  2  0  0  0  0  0  0  0  0  0
    0.4552    1.6204   -0.9244 C   0  0  0  0  0  0  0  0  0  0  0  0
   -0.7596   -1.8692    0.4527 C   0  0  0  0  0  0  0  0  0  0  0  0
    1.9377    1.6064   -0.5060 C   0  0  1  0  0  0  0  0  0  0  0  0
   -2.2222   -1.7767   -0.0189 C   0  0  0  0  0  0  0  0  0  0  0  0
   -4.1019   -0.0916   -0.6221 C   0  0  2  0  0  0  0  0  0  0  0  0
   -2.6424    1.8957   -0.7347 C   0  0  0  0  0  0  0  0  0  0  0  0
    2.2784   -2.3000   -0.0105 C   0  0  0  0  0  0  0  0  0  0  0  0
   -4.1037    1.4318   -0.8699 C   0  0  0  0  0  0  0  0  0  0  0  0
    4.0113    0.0958   -0.2329 C   0  0  0  0  0  0  0  0  0  0  0  0
    1.7440   -0.6634    1.7970 C   0  0  0  0  0  0  0  0  0  0  0  0
   -2.8991    0.0136    1.6251 C   0  0  0  0  0  0  0  0  0  0  0  0
    3.7794   -2.3811    0.2801 C   0  0  0  0  0  0  0  0  0  0  0  0
    4.5828   -1.3090   -0.4506 C   0  0  2  0  0  0  0  0  0  0  0  0
   -5.3234   -0.5526    0.1106 C   0  0  0  0  0  0  0  0  0  0  0  0
    1.6867    3.7128    0.6219 C   0  0  0  0  0  0  0  0  0  0  0  0
    3.5145    2.2588    1.1852 C   0  0  0  0  0  0  0  0  0  0  0  0
   -5.8049   -1.9470   -0.1866 C   0  0  0  0  0  0  0  0  0  0  0  0
    0.1742   -1.1051   -1.2912 H   0  0  0  0  0  0  0  0  0  0  0  0
   -0.4313    0.9531    0.8994 H   0  0  0  0  0  0  0  0  0  0  0  0
   -1.7934    0.2262   -1.7152 H   0  0  0  0  0  0  0  0  0  0  0  0
    0.4075    1.3457   -1.9887 H   0  0  0  0  0  0  0  0  0  0  0  0
    0.0099    2.6175   -0.9061 H   0  0  0  0  0  0  0  0  0  0  0  0
   -0.7325   -1.7599    1.5407 H   0  0  0  0  0  0  0  0  0  0  0  0
   -0.4068   -2.8835    0.2355 H   0  0  0  0  0  0  0  0  0  0  0  0
    2.4640    2.1736   -1.2910 H   0  0  0  0  0  0  0  0  0  0  0  0
   -2.2745   -2.1004   -1.0664 H   0  0  0  0  0  0  0  0  0  0  0  0
   -2.8253   -2.4871    0.5571 H   0  0  0  0  0  0  0  0  0  0  0  0
   -4.0912   -0.5843   -1.6043 H   0  0  0  0  0  0  0  0  0  0  0  0
   -2.3467    2.5215   -1.5829 H   0  0  0  0  0  0  0  0  0  0  0  0
   -2.5092    2.4879    0.1774 H   0  0  0  0  0  0  0  0  0  0  0  0
    2.0829   -2.6247   -1.0390 H   0  0  0  0  0  0  0  0  0  0  0  0
    1.7847   -3.0483    0.6222 H   0  0  0  0  0  0  0  0  0  0  0  0
   -4.7370    1.9969   -0.1782 H   0  0  0  0  0  0  0  0  0  0  0  0
   -4.4771    1.6412   -1.8794 H   0  0  0  0  0  0  0  0  0  0  0  0
    4.2869    0.2472    0.7991 H   0  0  0  0  0  0  0  0  0  0  0  0
    4.5910    0.7743   -0.8712 H   0  0  0  0  0  0  0  0  0  0  0  0
    1.2886   -1.4982    2.3411 H   0  0  0  0  0  0  0  0  0  0  0  0
    2.7691   -0.5933    2.1669 H   0  0  0  0  0  0  0  0  0  0  0  0
    1.2231    0.2410    2.1175 H   0  0  0  0  0  0  0  0  0  0  0  0
   -1.9357    0.0184    2.1414 H   0  0  0  0  0  0  0  0  0  0  0  0
   -3.3444    1.0013    1.7811 H   0  0  0  0  0  0  0  0  0  0  0  0
   -3.5285   -0.7143    2.1501 H   0  0  0  0  0  0  0  0  0  0  0  0
    3.9670   -2.3183    1.3590 H   0  0  0  0  0  0  0  0  0  0  0  0
    4.1520   -3.3719   -0.0092 H   0  0  0  0  0  0  0  0  0  0  0  0
    4.6258   -1.5399   -1.5204 H   0  0  0  0  0  0  0  0  0  0  0  0
    2.7656   -1.1098   -2.1103 H   0  0  0  0  0  0  0  0  0  0  0  0
    0.5988    3.8087    0.5683 H   0  0  0  0  0  0  0  0  0  0  0  0
    2.1414    4.2174   -0.2383 H   0  0  0  0  0  0  0  0  0  0  0  0
    1.9522    4.2878    1.5181 H   0  0  0  0  0  0  0  0  0  0  0  0
    3.7172    3.1282    1.8313 H   0  0  0  0  0  0  0  0  0  0  0  0
    4.2601    2.3923    0.3979 H   0  0  0  0  0  0  0  0  0  0  0  0
    3.6750    1.4692    1.9192 H   0  0  0  0  0  0  0  0  0  0  0  0
    6.2795   -2.2217   -0.1330 H   0  0  0  0  0  0  0  0  0  0  0  0
   -5.9696   -2.0613   -1.2609 H   0  0  0  0  0  0  0  0  0  0  0  0
   -5.0784   -2.6808    0.1649 H   0  0  0  0  0  0  0  0  0  0  0  0
   -6.7544   -2.1208    0.3279 H   0  0  0  0  0  0  0  0  0  0  0  0
  1 10  1  0  0  0  0
  1 56  1  0  0  0  0
  2 23  1  0  0  0  0
  2 63  1  0  0  0  0
  3 24  2  0  0  0  0
  4 13  1  0  0  0  0
  4 25  1  0  0  0  0
  4 26  1  0  0  0  0
  5  6  1  0  0  0  0
  5  7  1  0  0  0  0
  5 12  1  0  0  0  0
  5 28  1  0  0  0  0
  6  8  1  0  0  0  0
  6 11  1  0  0  0  0
  6 29  1  0  0  0  0
  7 10  1  0  0  0  0
  7 17  1  0  0  0  0
  7 20  1  0  0  0  0
  8  9  1  0  0  0  0
  8 16  1  0  0  0  0
  8 30  1  0  0  0  0
  9 14  1  0  0  0  0
  9 15  1  0  0  0  0
  9 21  1  0  0  0  0
 10 13  1  0  0  0  0
 10 19  1  0  0  0  0
 11 13  1  0  0  0  0
 11 31  1  0  0  0  0
 11 32  1  0  0  0  0
 12 14  1  0  0  0  0
 12 33  1  0  0  0  0
 12 34  1  0  0  0  0
 13 35  1  0  0  0  0
 14 36  1  0  0  0  0
 14 37  1  0  0  0  0
 15 18  1  0  0  0  0
 15 24  1  0  0  0  0
 15 38  1  0  0  0  0
 16 18  1  0  0  0  0
 16 39  1  0  0  0  0
 16 40  1  0  0  0  0
 17 22  1  0  0  0  0
 17 41  1  0  0  0  0
 17 42  1  0  0  0  0
 18 43  1  0  0  0  0
 18 44  1  0  0  0  0
 19 23  1  0  0  0  0
 19 45  1  0  0  0  0
 19 46  1  0  0  0  0
 20 47  1  0  0  0  0
 20 48  1  0  0  0  0
 20 49  1  0  0  0  0
 21 50  1  0  0  0  0
 21 51  1  0  0  0  0
 21 52  1  0  0  0  0
 22 23  1  0  0  0  0
 22 53  1  0  0  0  0
 22 54  1  0  0  0  0
 23 55  1  0  0  0  0
 24 27  1  0  0  0  0
 25 57  1  0  0  0  0
 25 58  1  0  0  0  0
 25 59  1  0  0  0  0
 26 60  1  0  0  0  0
 26 61  1  0  0  0  0
 26 62  1  0  0  0  0
 27 64  1  0  0  0  0
 27 65  1  0  0  0  0
 27 66  1  0  0  0  0
M  END
> <PUBCHEM_COMPOUND_CID>
252288

> <PUBCHEM_CONFORMER_RMSD>
0.8

> <PUBCHEM_CONFORMER_DIVERSEORDER>
1

> <PUBCHEM_MMFF94_PARTIAL_CHARGES>
14
1 -0.68
10 0.28
13 0.27
15 0.06
2 -0.68
23 0.28
24 0.45
25 0.27
26 0.27
27 0.06
3 -0.57
4 -0.81
56 0.4
63 0.4

> <PUBCHEM_EFFECTIVE_ROTOR_COUNT>
4.2

> <PUBCHEM_PHARMACOPHORE_FEATURES>
10
1 1 acceptor
1 1 donor
1 2 acceptor
1 2 donor
1 3 acceptor
1 4 cation
5 8 9 15 16 18 rings
6 5 6 7 10 11 13 rings
6 5 6 8 9 12 14 rings
6 7 10 17 19 22 23 rings

> <PUBCHEM_HEAVY_ATOM_COUNT>
27

> <PUBCHEM_ATOM_DEF_STEREO_COUNT>
9

> <PUBCHEM_ATOM_UDEF_STEREO_COUNT>
0

> <PUBCHEM_BOND_DEF_STEREO_COUNT>
0

> <PUBCHEM_BOND_UDEF_STEREO_COUNT>
0

> <PUBCHEM_ISOTOPIC_ATOM_COUNT>
0

> <PUBCHEM_COMPONENT_COUNT>
1

> <PUBCHEM_CACTVS_TAUTO_COUNT>
3

> <PUBCHEM_CONFORMER_ID>
0003D98000000001

> <PUBCHEM_MMFF94_ENERGY>
127.7951

> <PUBCHEM_FEATURE_SELFOVERLAP>
50.832

> <PUBCHEM_SHAPE_FINGERPRINT>
10076449 9 18335691781256981430
10366900 7 17775283872073434707
11578080 2 17315366820987081370
12011746 2 18202566206714268223
12035758 1 18336283283857366914
12166972 35 18342452647194418148
12236239 1 17967811644079400067
12403259 226 18341619247645977125
12403259 415 18272940435860737341
12516196 113 18335703875394295710
12616971 3 17894352155551883309
12633257 1 18261383464571604227
12788726 201 18123185964689668898
13134695 92 18335145306239146236
13140716 1 18268145353449852995
13224815 77 18410300173018914757
13402501 40 18343302599636579910
13533116 47 18334574590847352657
13583140 156 18340761546766360843
14223421 5 18196093244063952545
14294032 229 16270535243292412173
14787075 74 18272085037552628462
14790565 3 17257089801518124812
14849402 71 18262235509101553456
14866123 147 16895675961401497882
14955137 171 18186797015338754094
15196674 1 18271526489376209415
15536298 74 18410578353275706989
15927050 60 17974853866053054262
1601671 61 18338518650704287766
16945 1 18199741462463136340
17349148 13 17748827423301751439
17844677 252 18333725815426592841
17980427 23 17167856491739731272
1813 80 17896024598499939444
18608769 82 18058157341564902171
18681886 176 18261398831849090666
19591789 44 18343023332584464559
200 152 18335140920834612319
20028762 73 18261115149613098863
20691752 17 17560252305445726358
21033648 144 18337399240387398439
21033648 29 17846228756339398749
21267235 1 18342730862491677550
21452121 103 18335990748791482880
221357 26 18412829113897145821
22149856 69 18197763424941532843
22182313 1 17987257610828301845
22393880 68 18130237042184202215
23522609 53 18125124291546099925
23559900 14 18411145727224953581
3004659 81 18059571447421817950
3286 77 18412545426759232781
335352 9 18412544323031882519
3411729 13 18263649468312168768
350125 39 18341047497420428797
4093350 32 16877936115051079052
474 4 18190462645071385537
5104073 3 18336540539492519859
54040823 5 18334855039516946150
5895379 119 15648151118914621136
6823239 73 18411710897697501536
7364860 26 18409172082478258656
7495541 125 18410009931454907230
9709674 26 18270121210621410115
9981440 41 17544482951141225512

> <PUBCHEM_SHAPE_MULTIPOLES>
533.06
11.16
2.97
1.21
7.9
1.52
-0.18
-4.01
-0.16
-2.26
-0.42
-0.17
0.23
0.82

> <PUBCHEM_SHAPE_SELFOVERLAP>
1127.223

> <PUBCHEM_SHAPE_VOLUME>
297.4

> <PUBCHEM_COORDINATE_TYPE>
2
5
10

$$$$

