11954166
  -OEChem-07051213073D

 49 52  0     1  0  0  0  0  0999 V2000
   -5.1896    0.9673    0.5282 O   0  0  0  0  0  0  0  0  0  0  0  0
    5.0603    0.6930    1.1727 O   0  0  0  0  0  0  0  0  0  0  0  0
   -1.9573   -0.7082    0.3368 C   0  0  2  0  0  0  0  0  0  0  0  0
   -2.8251    0.5185   -0.0094 C   0  0  2  0  0  0  0  0  0  0  0  0
   -0.6550   -0.7443   -0.4626 C   0  0  1  0  0  0  0  0  0  0  0  0
    0.1699    0.5442   -0.1312 C   0  0  2  0  0  0  0  0  0  0  0  0
   -2.0399    1.7824    0.3653 C   0  0  0  0  0  0  0  0  0  0  0  0
   -4.0420    0.2226    0.8883 C   0  0  2  0  0  0  0  0  0  0  0  0
   -0.6670    1.8296   -0.3312 C   0  0  0  0  0  0  0  0  0  0  0  0
   -2.9323   -1.8770    0.2289 C   0  0  0  0  0  0  0  0  0  0  0  0
    1.4873    0.5213   -0.9532 C   0  0  2  0  0  0  0  0  0  0  0  0
    0.1669   -2.0147   -0.1832 C   0  0  0  0  0  0  0  0  0  0  0  0
   -4.2688   -1.2930    0.7218 C   0  0  0  0  0  0  0  0  0  0  0  0
   -3.2609    0.6071   -1.4945 C   0  0  0  0  0  0  0  0  0  0  0  0
    2.2668   -0.7275   -0.5463 C   0  0  0  0  0  0  0  0  0  0  0  0
    1.5176   -1.9919   -0.9072 C   0  0  0  0  0  0  0  0  0  0  0  0
    2.3549    1.7803   -0.8717 C   0  0  0  0  0  0  0  0  0  0  0  0
    3.4421   -0.6998    0.1185 C   0  0  0  0  0  0  0  0  0  0  0  0
    3.1149    1.8527    0.4340 C   0  0  0  0  0  0  0  0  0  0  0  0
    3.9750    0.6232    0.5957 C   0  0  0  0  0  0  0  0  0  0  0  0
    4.2819   -1.8857    0.5001 C   0  0  0  0  0  0  0  0  0  0  0  0
   -1.6738   -0.6464    1.4010 H   0  0  0  0  0  0  0  0  0  0  0  0
   -0.8857   -0.7480   -1.5355 H   0  0  0  0  0  0  0  0  0  0  0  0
    0.4301    0.5066    0.9378 H   0  0  0  0  0  0  0  0  0  0  0  0
   -1.8782    1.8141    1.4507 H   0  0  0  0  0  0  0  0  0  0  0  0
   -2.6121    2.6834    0.1134 H   0  0  0  0  0  0  0  0  0  0  0  0
   -3.8103    0.4454    1.9376 H   0  0  0  0  0  0  0  0  0  0  0  0
   -0.7985    2.0227   -1.4021 H   0  0  0  0  0  0  0  0  0  0  0  0
   -0.1247    2.6912    0.0747 H   0  0  0  0  0  0  0  0  0  0  0  0
   -2.6200   -2.7293    0.8409 H   0  0  0  0  0  0  0  0  0  0  0  0
   -3.0268   -2.2278   -0.8047 H   0  0  0  0  0  0  0  0  0  0  0  0
    1.2163    0.4209   -2.0145 H   0  0  0  0  0  0  0  0  0  0  0  0
   -0.3919   -2.9008   -0.5064 H   0  0  0  0  0  0  0  0  0  0  0  0
    0.3333   -2.1201    0.8970 H   0  0  0  0  0  0  0  0  0  0  0  0
   -5.0751   -1.5143    0.0136 H   0  0  0  0  0  0  0  0  0  0  0  0
   -4.5577   -1.7364    1.6813 H   0  0  0  0  0  0  0  0  0  0  0  0
   -2.4129    0.6708   -2.1813 H   0  0  0  0  0  0  0  0  0  0  0  0
   -3.8591   -0.2545   -1.8072 H   0  0  0  0  0  0  0  0  0  0  0  0
   -3.8724    1.5011   -1.6639 H   0  0  0  0  0  0  0  0  0  0  0  0
    1.3634   -2.0230   -1.9930 H   0  0  0  0  0  0  0  0  0  0  0  0
    2.0585   -2.9047   -0.6494 H   0  0  0  0  0  0  0  0  0  0  0  0
    1.7692    2.6912   -1.0257 H   0  0  0  0  0  0  0  0  0  0  0  0
    3.0809    1.7537   -1.6971 H   0  0  0  0  0  0  0  0  0  0  0  0
    2.4440    1.9317    1.2953 H   0  0  0  0  0  0  0  0  0  0  0  0
    3.7666    2.7332    0.4239 H   0  0  0  0  0  0  0  0  0  0  0  0
   -5.9248    0.6572    1.0839 H   0  0  0  0  0  0  0  0  0  0  0  0
    3.9884   -2.8101   -0.0004 H   0  0  0  0  0  0  0  0  0  0  0  0
    4.2296   -2.0534    1.5808 H   0  0  0  0  0  0  0  0  0  0  0  0
    5.3294   -1.7148    0.2279 H   0  0  0  0  0  0  0  0  0  0  0  0
  1  8  1  0  0  0  0
  1 46  1  0  0  0  0
  2 20  2  0  0  0  0
  3  4  1  0  0  0  0
  3  5  1  0  0  0  0
  3 10  1  0  0  0  0
  3 22  1  0  0  0  0
  4  7  1  0  0  0  0
  4  8  1  0  0  0  0
  4 14  1  0  0  0  0
  5  6  1  0  0  0  0
  5 12  1  0  0  0  0
  5 23  1  0  0  0  0
  6  9  1  0  0  0  0
  6 11  1  0  0  0  0
  6 24  1  0  0  0  0
  7  9  1  0  0  0  0
  7 25  1  0  0  0  0
  7 26  1  0  0  0  0
  8 13  1  0  0  0  0
  8 27  1  0  0  0  0
  9 28  1  0  0  0  0
  9 29  1  0  0  0  0
 10 13  1  0  0  0  0
 10 30  1  0  0  0  0
 10 31  1  0  0  0  0
 11 15  1  0  0  0  0
 11 17  1  0  0  0  0
 11 32  1  0  0  0  0
 12 16  1  0  0  0  0
 12 33  1  0  0  0  0
 12 34  1  0  0  0  0
 13 35  1  0  0  0  0
 13 36  1  0  0  0  0
 14 37  1  0  0  0  0
 14 38  1  0  0  0  0
 14 39  1  0  0  0  0
 15 16  1  0  0  0  0
 15 18  2  0  0  0  0
 16 40  1  0  0  0  0
 16 41  1  0  0  0  0
 17 19  1  0  0  0  0
 17 42  1  0  0  0  0
 17 43  1  0  0  0  0
 18 20  1  0  0  0  0
 18 21  1  0  0  0  0
 19 20  1  0  0  0  0
 19 44  1  0  0  0  0
 19 45  1  0  0  0  0
 21 47  1  0  0  0  0
 21 48  1  0  0  0  0
 21 49  1  0  0  0  0
M  END
> <PUBCHEM_COMPOUND_CID>
11954166

> <PUBCHEM_CONFORMER_RMSD>
0.6

> <PUBCHEM_CONFORMER_DIVERSEORDER>
1
2

> <PUBCHEM_MMFF94_PARTIAL_CHARGES>
11
1 -0.68
11 0.14
15 -0.28
16 0.14
18 -0.12
19 0.06
2 -0.57
20 0.49
21 0.14
46 0.4
8 0.28

> <PUBCHEM_EFFECTIVE_ROTOR_COUNT>
1.8

> <PUBCHEM_PHARMACOPHORE_FEATURES>
7
1 1 acceptor
1 1 donor
1 2 acceptor
5 3 4 8 10 13 rings
6 11 15 17 18 19 20 rings
6 3 4 5 6 7 9 rings
6 5 6 11 12 15 16 rings

> <PUBCHEM_HEAVY_ATOM_COUNT>
21

> <PUBCHEM_ATOM_DEF_STEREO_COUNT>
6

> <PUBCHEM_ATOM_UDEF_STEREO_COUNT>
0

> <PUBCHEM_BOND_DEF_STEREO_COUNT>
0

> <PUBCHEM_BOND_UDEF_STEREO_COUNT>
0

> <PUBCHEM_ISOTOPIC_ATOM_COUNT>
0

> <PUBCHEM_COMPONENT_COUNT>
1

> <PUBCHEM_CACTVS_TAUTO_COUNT>
8

> <PUBCHEM_CONFORMER_ID>
00B667F600000001

> <PUBCHEM_MMFF94_ENERGY>
60.2964

> <PUBCHEM_FEATURE_SELFOVERLAP>
35.636

> <PUBCHEM_SHAPE_FINGERPRINT>
10062212 137 18410576150305871079
10759866 29 18058437717377884908
10967382 1 18410005541955963957
11132069 177 18411131429310259343
11796584 16 16702025215057614507
12011746 2 18410572912185107022
12236239 1 17530970211329027909
12251169 10 18412266108335937868
12403259 226 18340772632229679132
12403259 415 18340770437475023756
12403814 3 18271807878812302503
12507557 5 18343306954849566332
12507560 40 18410859893025119112
12633257 1 18337666524496822259
13140716 1 18410852144513967451
13224815 77 18260267438609939511
13583140 156 17202505375352440293
13675066 3 18201999923670968243
14178342 30 18268422602168435056
14223421 5 18336824315848988150
14341114 176 18411132563239713010
14790565 3 17764861404108036484
15163728 17 14564189940789605321
15196674 1 18410852148977525363
15375358 24 18410009953409577263
15536298 74 18261666043128186750
15788980 27 17346883342702556525
16752209 62 10591501476410466351
16945 1 18338789143085574031
17349148 13 18409456902907464951
17492 89 18412543197740641706
17804303 29 18339355387711583838
1813 80 16989124257931048332
18186145 218 18409724071385094494
19050596 39 18410571764737846105
200 152 18260276231041049327
20715895 44 18268713994926512109
21267235 1 18340474612759447191
21637258 2 15841283627180133594
21859007 373 17702114766702265837
22182313 1 18268710687157447429
22854114 59 18260264140011720090
23184049 59 18410011039746263334
23402539 116 18408892810735400975
23463225 33 18341608192104394220
23559900 14 18409726296489480910
26918003 58 18341896290100205201
2748010 2 18339347617809900903
2838139 119 14924523918763787648
296302 2 17676207961383626347
335352 9 18339920536456119887
34934 24 18408044031035588735
350125 39 18410849971803847724
351380 180 18410576188475039890
474 4 18187082836605947480
5104073 3 18410564085811231331
633830 44 17894342280915843004
7364860 26 18115581681556891542
84936 31 16661480882354312190
9709674 26 18335416932491739871

> <PUBCHEM_SHAPE_MULTIPOLES>
420.43
9.38
2.3
1.05
0.4
0.27
-0.14
-0.08
3.15
-0.65
-0.07
0.03
-0.1
0.33

> <PUBCHEM_SHAPE_SELFOVERLAP>
901.263

> <PUBCHEM_SHAPE_VOLUME>
230.5

> <PUBCHEM_COORDINATE_TYPE>
2
5
10

$$$$

