586344
  -OEChem-06241222463D

 33 34  0     1  0  0  0  0  0999 V2000
   -1.5073    1.7233   -0.1783 O   0  0  0  0  0  0  0  0  0  0  0  0
   -2.0562   -1.3497   -1.8400 O   0  0  0  0  0  0  0  0  0  0  0  0
   -1.2721   -0.7232    1.5647 O   0  0  0  0  0  0  0  0  0  0  0  0
   -3.5403    2.2694    0.7202 O   0  0  0  0  0  0  0  0  0  0  0  0
   -1.2443   -2.6494    0.2897 O   0  0  0  0  0  0  0  0  0  0  0  0
    4.5393   -0.1474   -0.0013 O   0  0  0  0  0  0  0  0  0  0  0  0
   -1.8938   -0.5410   -0.6883 C   0  0  1  0  0  0  0  0  0  0  0  0
   -0.9840    0.6484   -0.9757 C   0  0  2  0  0  0  0  0  0  0  0  0
   -3.2153    0.1115   -0.3247 C   0  0  0  0  0  0  0  0  0  0  0  0
    0.4906    0.4362   -0.7157 C   0  0  0  0  0  0  0  0  0  0  0  0
   -2.8102    1.4781    0.1425 C   0  0  0  0  0  0  0  0  0  0  0  0
   -1.4345   -1.4479    0.4213 C   0  0  0  0  0  0  0  0  0  0  0  0
    1.2015   -0.5116   -1.4535 C   0  0  0  0  0  0  0  0  0  0  0  0
    1.1430    1.1876    0.2630 C   0  0  0  0  0  0  0  0  0  0  0  0
    2.5614   -0.7077   -1.2129 C   0  0  0  0  0  0  0  0  0  0  0  0
    2.5030    0.9916    0.5034 C   0  0  0  0  0  0  0  0  0  0  0  0
    3.2121    0.0439   -0.2345 C   0  0  0  0  0  0  0  0  0  0  0  0
   -0.8356   -1.4665    2.7071 C   0  0  0  0  0  0  0  0  0  0  0  0
    5.1426    0.6545    1.0131 C   0  0  0  0  0  0  0  0  0  0  0  0
   -1.0808    0.9676   -2.0228 H   0  0  0  0  0  0  0  0  0  0  0  0
   -3.7454   -0.4122    0.4765 H   0  0  0  0  0  0  0  0  0  0  0  0
   -3.8743    0.2165   -1.1927 H   0  0  0  0  0  0  0  0  0  0  0  0
   -1.2065   -1.7672   -2.0529 H   0  0  0  0  0  0  0  0  0  0  0  0
    0.7242   -1.0913   -2.2364 H   0  0  0  0  0  0  0  0  0  0  0  0
    0.6226    1.9310    0.8595 H   0  0  0  0  0  0  0  0  0  0  0  0
    3.1100   -1.4435   -1.7945 H   0  0  0  0  0  0  0  0  0  0  0  0
    2.9461    1.6080    1.2781 H   0  0  0  0  0  0  0  0  0  0  0  0
   -0.7483   -0.7747    3.5489 H   0  0  0  0  0  0  0  0  0  0  0  0
    0.1453   -1.9120    2.5155 H   0  0  0  0  0  0  0  0  0  0  0  0
   -1.5690   -2.2379    2.9601 H   0  0  0  0  0  0  0  0  0  0  0  0
    6.1988    0.3704    1.0643 H   0  0  0  0  0  0  0  0  0  0  0  0
    4.7087    0.4509    1.9980 H   0  0  0  0  0  0  0  0  0  0  0  0
    5.1098    1.7189    0.7571 H   0  0  0  0  0  0  0  0  0  0  0  0
  1  8  1  0  0  0  0
  1 11  1  0  0  0  0
  2  7  1  0  0  0  0
  2 23  1  0  0  0  0
  3 12  1  0  0  0  0
  3 18  1  0  0  0  0
  4 11  2  0  0  0  0
  5 12  2  0  0  0  0
  6 17  1  0  0  0  0
  6 19  1  0  0  0  0
  7  8  1  0  0  0  0
  7  9  1  0  0  0  0
  7 12  1  0  0  0  0
  8 10  1  0  0  0  0
  8 20  1  0  0  0  0
  9 11  1  0  0  0  0
  9 21  1  0  0  0  0
  9 22  1  0  0  0  0
 10 13  2  0  0  0  0
 10 14  1  0  0  0  0
 13 15  1  0  0  0  0
 13 24  1  0  0  0  0
 14 16  2  0  0  0  0
 14 25  1  0  0  0  0
 15 17  2  0  0  0  0
 15 26  1  0  0  0  0
 16 17  1  0  0  0  0
 16 27  1  0  0  0  0
 18 28  1  0  0  0  0
 18 29  1  0  0  0  0
 18 30  1  0  0  0  0
 19 31  1  0  0  0  0
 19 32  1  0  0  0  0
 19 33  1  0  0  0  0
M  END
> <PUBCHEM_COMPOUND_CID>
586344

> <PUBCHEM_CONFORMER_RMSD>
0.6

> <PUBCHEM_CONFORMER_DIVERSEORDER>
1
38
55
46
24
30
26
54
34
59
2
29
37
33
10
3
22
56
27
15
32
41
8
5
39
18
52
7
23
14
25
19
42
28
16
53
40
51
58
20
43
4
6
47
35
48
57
31
49
11
13
36
21
44
50
9
12
45
17

> <PUBCHEM_MMFF94_PARTIAL_CHARGES>
24
1 -0.43
10 -0.14
11 0.66
12 0.66
13 -0.15
14 -0.15
15 -0.15
16 -0.15
17 0.08
18 0.28
19 0.28
2 -0.68
23 0.4
24 0.15
25 0.15
26 0.15
27 0.15
3 -0.43
4 -0.57
5 -0.57
6 -0.36
7 0.34
8 0.42
9 0.06

> <PUBCHEM_EFFECTIVE_ROTOR_COUNT>
4.8

> <PUBCHEM_PHARMACOPHORE_FEATURES>
7
1 2 acceptor
1 2 donor
1 4 acceptor
1 5 acceptor
1 6 acceptor
5 1 7 8 9 11 rings
6 10 13 14 15 16 17 rings

> <PUBCHEM_HEAVY_ATOM_COUNT>
19

> <PUBCHEM_ATOM_DEF_STEREO_COUNT>
0

> <PUBCHEM_ATOM_UDEF_STEREO_COUNT>
2

> <PUBCHEM_BOND_DEF_STEREO_COUNT>
0

> <PUBCHEM_BOND_UDEF_STEREO_COUNT>
0

> <PUBCHEM_ISOTOPIC_ATOM_COUNT>
0

> <PUBCHEM_COMPONENT_COUNT>
1

> <PUBCHEM_CACTVS_TAUTO_COUNT>
2

> <PUBCHEM_CONFORMER_ID>
0008F26800000001

> <PUBCHEM_MMFF94_ENERGY>
49.0338

> <PUBCHEM_FEATURE_SELFOVERLAP>
35.53

> <PUBCHEM_SHAPE_FINGERPRINT>
10863032 1 18041279984165112967
10948715 1 18116149050994548453
11315181 36 18201165356571761576
13024252 1 11240004447211782295
13581323 91 17704070702928773604
14115302 16 17274816918058874406
15309172 13 17060054891099904329
15375358 24 18259705614360072732
16945 1 18340475738568042429
18981168 100 15214952273587090708
200 152 16153716396577554517
20602899 9 17202782396897055499
20645476 183 16128384752564709835
21339142 149 18411423894844562375
21501502 16 18268986497267914932
22926399 37 15791454828896708096
2306618 200 17167860829118402130
23402539 116 18335995177134672431
23419403 2 16541622742095817031
23559900 14 17775291530897103800
23566358 27 13541020557282433390
23728640 28 18343021068867966810
296302 2 17240766198393158900
427121 178 17625505216005248497
69090 78 18041000669899863309
74978 22 17203040773285953652
81228 2 17986383400383984377
90525 40 15769507494332089670
9709674 26 18260264140286267454

> <PUBCHEM_SHAPE_MULTIPOLES>
355.8
6.87
1.94
1.69
7.97
0.4
-0.46
-1.96
-1.3
-1.92
-0.68
-0.28
0.82
0.12

> <PUBCHEM_SHAPE_SELFOVERLAP>
761.633

> <PUBCHEM_SHAPE_VOLUME>
198.2

> <PUBCHEM_COORDINATE_TYPE>
2
5
10

$$$$

