12313357
  -OEChem-07051213093D

 59 62  0     1  0  0  0  0  0999 V2000
    0.6698    2.7419    0.6758 O   0  0  0  0  0  0  0  0  0  0  0  0
    0.1584   -2.7238    0.2496 O   0  0  0  0  0  0  0  0  0  0  0  0
    2.9369   -2.9811   -0.0434 O   0  0  0  0  0  0  0  0  0  0  0  0
    3.6950   -0.7649   -1.4842 O   0  0  0  0  0  0  0  0  0  0  0  0
   -1.7112   -1.5508    1.5328 O   0  0  0  0  0  0  0  0  0  0  0  0
   -4.4351   -1.6066    1.1752 O   0  0  0  0  0  0  0  0  0  0  0  0
    2.2050    3.6210    2.0911 O   0  0  0  0  0  0  0  0  0  0  0  0
    0.2487   -0.2769   -0.1291 C   0  0  1  0  0  0  0  0  0  0  0  0
    1.1618    0.8172   -0.7925 C   0  0  1  0  0  0  0  0  0  0  0  0
   -1.2942   -0.1625   -0.4622 C   0  0  1  0  0  0  0  0  0  0  0  0
   -1.7730    1.3286   -0.3335 C   0  0  1  0  0  0  0  0  0  0  0  0
    0.5780    2.2374   -0.6670 C   0  0  1  0  0  0  0  0  0  0  0  0
    0.9228   -1.6785   -0.3469 C   0  0  1  0  0  0  0  0  0  0  0  0
   -0.8885    2.3210   -1.0967 C   0  0  0  0  0  0  0  0  0  0  0  0
    2.4901    0.7477   -0.0159 C   0  0  0  0  0  0  0  0  0  0  0  0
    3.2772   -0.5634   -0.1307 C   0  0  1  0  0  0  0  0  0  0  0  0
    2.3343   -1.7251    0.2835 C   0  0  2  0  0  0  0  0  0  0  0  0
   -3.2789    1.4917   -0.7028 C   0  0  1  0  0  0  0  0  0  0  0  0
    1.4099    0.6222   -2.3157 C   0  0  0  0  0  0  0  0  0  0  0  0
   -1.6180   -0.7987   -1.8302 C   0  0  0  0  0  0  0  0  0  0  0  0
   -2.1656   -0.8671    0.6182 C   0  0  0  0  0  0  0  0  0  0  0  0
    2.8296    1.7202    0.8489 C   0  0  0  0  0  0  0  0  0  0  0  0
   -4.1273    0.4107   -0.0740 C   0  0  0  0  0  0  0  0  0  0  0  0
   -3.6423   -0.6676    0.5564 C   0  0  0  0  0  0  0  0  0  0  0  0
    4.5701   -0.6466    0.7041 C   0  0  0  0  0  0  0  0  0  0  0  0
   -3.8330    2.8584   -0.2777 C   0  0  0  0  0  0  0  0  0  0  0  0
    1.9017    2.7986    1.2347 C   0  0  0  0  0  0  0  0  0  0  0  0
    2.1692   -4.0629    0.4569 C   0  0  0  0  0  0  0  0  0  0  0  0
   -4.7913   -2.6399    0.2754 C   0  0  0  0  0  0  0  0  0  0  0  0
    0.2912   -0.1008    0.9593 H   0  0  0  0  0  0  0  0  0  0  0  0
   -1.6840    1.5989    0.7320 H   0  0  0  0  0  0  0  0  0  0  0  0
    1.1426    2.9429   -1.2944 H   0  0  0  0  0  0  0  0  0  0  0  0
    0.9807   -1.9393   -1.4063 H   0  0  0  0  0  0  0  0  0  0  0  0
   -0.9966    2.1676   -2.1749 H   0  0  0  0  0  0  0  0  0  0  0  0
   -1.2292    3.3428   -0.8951 H   0  0  0  0  0  0  0  0  0  0  0  0
    2.2214   -1.6881    1.3780 H   0  0  0  0  0  0  0  0  0  0  0  0
   -3.3984    1.4142   -1.7911 H   0  0  0  0  0  0  0  0  0  0  0  0
    2.2640    1.2279   -2.6458 H   0  0  0  0  0  0  0  0  0  0  0  0
    1.6157   -0.4081   -2.6084 H   0  0  0  0  0  0  0  0  0  0  0  0
    0.5656    0.9419   -2.9297 H   0  0  0  0  0  0  0  0  0  0  0  0
   -1.1451   -0.2690   -2.6571 H   0  0  0  0  0  0  0  0  0  0  0  0
   -1.2978   -1.8447   -1.8699 H   0  0  0  0  0  0  0  0  0  0  0  0
   -2.6894   -0.8219   -2.0510 H   0  0  0  0  0  0  0  0  0  0  0  0
    3.7463    1.6861    1.4264 H   0  0  0  0  0  0  0  0  0  0  0  0
   -5.2070    0.5297   -0.1368 H   0  0  0  0  0  0  0  0  0  0  0  0
    4.3738   -0.5663    1.7785 H   0  0  0  0  0  0  0  0  0  0  0  0
    5.0957   -1.5927    0.5284 H   0  0  0  0  0  0  0  0  0  0  0  0
    5.2744    0.1421    0.4135 H   0  0  0  0  0  0  0  0  0  0  0  0
   -3.3700    3.6724   -0.8431 H   0  0  0  0  0  0  0  0  0  0  0  0
   -4.9118    2.9228   -0.4624 H   0  0  0  0  0  0  0  0  0  0  0  0
   -3.6654    3.0441    0.7892 H   0  0  0  0  0  0  0  0  0  0  0  0
    0.0162   -2.4913    1.1831 H   0  0  0  0  0  0  0  0  0  0  0  0
    4.0255   -1.6760   -1.5651 H   0  0  0  0  0  0  0  0  0  0  0  0
    2.8704   -4.8982    0.5741 H   0  0  0  0  0  0  0  0  0  0  0  0
    1.4465   -4.4232   -0.2809 H   0  0  0  0  0  0  0  0  0  0  0  0
    1.7617   -3.8924    1.4589 H   0  0  0  0  0  0  0  0  0  0  0  0
   -5.3856   -2.2520   -0.5593 H   0  0  0  0  0  0  0  0  0  0  0  0
   -5.4033   -3.3677    0.8164 H   0  0  0  0  0  0  0  0  0  0  0  0
   -3.9040   -3.1592   -0.1040 H   0  0  0  0  0  0  0  0  0  0  0  0
  1 12  1  0  0  0  0
  1 27  1  0  0  0  0
  2 13  1  0  0  0  0
  2 52  1  0  0  0  0
  3 17  1  0  0  0  0
  3 28  1  0  0  0  0
  4 16  1  0  0  0  0
  4 53  1  0  0  0  0
  5 21  2  0  0  0  0
  6 24  1  0  0  0  0
  6 29  1  0  0  0  0
  7 27  2  0  0  0  0
  8  9  1  0  0  0  0
  8 10  1  0  0  0  0
  8 13  1  0  0  0  0
  8 30  1  0  0  0  0
  9 12  1  0  0  0  0
  9 15  1  0  0  0  0
  9 19  1  0  0  0  0
 10 11  1  0  0  0  0
 10 20  1  0  0  0  0
 10 21  1  0  0  0  0
 11 14  1  0  0  0  0
 11 18  1  0  0  0  0
 11 31  1  0  0  0  0
 12 14  1  0  0  0  0
 12 32  1  0  0  0  0
 13 17  1  0  0  0  0
 13 33  1  0  0  0  0
 14 34  1  0  0  0  0
 14 35  1  0  0  0  0
 15 16  1  0  0  0  0
 15 22  2  0  0  0  0
 16 17  1  0  0  0  0
 16 25  1  0  0  0  0
 17 36  1  0  0  0  0
 18 23  1  0  0  0  0
 18 26  1  0  0  0  0
 18 37  1  0  0  0  0
 19 38  1  0  0  0  0
 19 39  1  0  0  0  0
 19 40  1  0  0  0  0
 20 41  1  0  0  0  0
 20 42  1  0  0  0  0
 20 43  1  0  0  0  0
 21 24  1  0  0  0  0
 22 27  1  0  0  0  0
 22 44  1  0  0  0  0
 23 24  2  0  0  0  0
 23 45  1  0  0  0  0
 25 46  1  0  0  0  0
 25 47  1  0  0  0  0
 25 48  1  0  0  0  0
 26 49  1  0  0  0  0
 26 50  1  0  0  0  0
 26 51  1  0  0  0  0
 28 54  1  0  0  0  0
 28 55  1  0  0  0  0
 28 56  1  0  0  0  0
 29 57  1  0  0  0  0
 29 58  1  0  0  0  0
 29 59  1  0  0  0  0
M  END
> <PUBCHEM_COMPOUND_CID>
12313357

> <PUBCHEM_CONFORMER_RMSD>
0.8

> <PUBCHEM_CONFORMER_DIVERSEORDER>
1

> <PUBCHEM_MMFF94_PARTIAL_CHARGES>
26
1 -0.43
10 0.06
12 0.28
13 0.28
15 -0.28
16 0.42
17 0.28
18 0.14
2 -0.68
21 0.49
22 -0.14
23 -0.29
24 0.09
27 0.71
28 0.28
29 0.28
3 -0.56
4 -0.68
44 0.15
45 0.15
5 -0.57
52 0.4
53 0.4
6 -0.36
7 -0.57
9 0.14

> <PUBCHEM_EFFECTIVE_ROTOR_COUNT>
3.2

> <PUBCHEM_PHARMACOPHORE_FEATURES>
12
1 2 acceptor
1 2 donor
1 3 acceptor
1 4 acceptor
1 4 donor
1 5 acceptor
1 6 acceptor
1 7 acceptor
6 1 9 12 15 22 27 rings
6 10 11 18 21 23 24 rings
6 8 9 10 11 12 14 rings
6 8 9 13 15 16 17 rings

> <PUBCHEM_HEAVY_ATOM_COUNT>
29

> <PUBCHEM_ATOM_DEF_STEREO_COUNT>
9

> <PUBCHEM_ATOM_UDEF_STEREO_COUNT>
0

> <PUBCHEM_BOND_DEF_STEREO_COUNT>
0

> <PUBCHEM_BOND_UDEF_STEREO_COUNT>
0

> <PUBCHEM_ISOTOPIC_ATOM_COUNT>
0

> <PUBCHEM_COMPONENT_COUNT>
1

> <PUBCHEM_CACTVS_TAUTO_COUNT>
3

> <PUBCHEM_CONFORMER_ID>
00BBE30D00000001

> <PUBCHEM_MMFF94_ENERGY>
135.0653

> <PUBCHEM_FEATURE_SELFOVERLAP>
61.061

> <PUBCHEM_SHAPE_FINGERPRINT>
10165383 225 17903067842207337808
10366900 7 18270952458265135811
10863032 1 18340485693906621477
11578080 2 17315954085140352553
12035758 1 18263375694374973864
12156800 1 10293187779752599738
12403259 226 18411419514067597715
12506688 2 18339079418656041148
12788726 201 17685772828219909968
13140716 1 18122628249626401402
13224815 77 18341610387138572703
13402501 40 18341896277230926362
13583140 156 18335144198042222511
14178342 30 18272097084139347745
14223421 5 18411420575130332593
14787075 74 18411129213370853038
14790565 3 18340199701205285324
14866123 147 16390990271391725643
14955137 171 18113888373615493862
16945 1 18047497752559050892
17349148 13 17774441569152961351
19049666 15 18412266151048688745
19591789 44 18411698755645633254
19930381 70 18339927017667517795
20028762 73 18116995490191535607
20600515 1 17980473782681838932
20775438 99 17764920979968009175
20905425 154 18269270334328886742
21033648 29 17168721845676147139
22149856 69 17909526395922974883
22182313 1 18271259213872836637
23419403 2 17837522951814018180
23559900 14 18272088262725109789
2748010 2 18341623568050767596
335352 9 17838336642047499839
350125 39 18340481175643418933
35225 105 16164171446835949272
4340502 62 17756136800826500259
5104073 3 18268993261635405379
5265222 85 18269547236136189596
9709674 26 18268712890671166999

> <PUBCHEM_SHAPE_MULTIPOLES>
555.72
7.69
4.2
1.46
4.31
0.61
-0.27
2.64
1.39
-0.96
1.45
-0.44
-0.6
1.48

> <PUBCHEM_SHAPE_SELFOVERLAP>
1200.053

> <PUBCHEM_SHAPE_VOLUME>
299.6

> <PUBCHEM_COORDINATE_TYPE>
2
5
10

$$$$

