15643
  -OEChem-07051213133D

 26 26  0     0  0  0  0  0  0999 V2000
   -1.6027   -0.0337    0.1782 P   0  0  0  0  0  0  0  0  0  0  0  0
   -0.3036    0.7958   -0.3404 O   0  0  0  0  0  0  0  0  0  0  0  0
   -1.5012   -0.3376    1.6547 O   0  0  0  0  0  0  0  0  0  0  0  0
   -2.9223    0.8700   -0.2826 N   0  0  0  0  0  0  0  0  0  0  0  0
   -1.6396   -1.3875   -0.7941 N   0  0  0  0  0  0  0  0  0  0  0  0
    1.0022    0.4184   -0.1766 C   0  0  0  0  0  0  0  0  0  0  0  0
   -3.1853    2.1366    0.3815 C   0  0  0  0  0  0  0  0  0  0  0  0
   -2.8026   -2.2608   -0.7363 C   0  0  0  0  0  0  0  0  0  0  0  0
    1.2991   -0.7691    0.4837 C   0  0  0  0  0  0  0  0  0  0  0  0
    2.0203    1.2264   -0.6718 C   0  0  0  0  0  0  0  0  0  0  0  0
    2.6296   -1.1531    0.6512 C   0  0  0  0  0  0  0  0  0  0  0  0
    3.3508    0.8423   -0.5045 C   0  0  0  0  0  0  0  0  0  0  0  0
    3.6553   -0.3475    0.1571 C   0  0  0  0  0  0  0  0  0  0  0  0
   -3.8028    0.3582   -0.3343 H   0  0  0  0  0  0  0  0  0  0  0  0
   -1.4100   -1.2263   -1.7746 H   0  0  0  0  0  0  0  0  0  0  0  0
   -4.0200    2.6490   -0.1053 H   0  0  0  0  0  0  0  0  0  0  0  0
   -2.3097    2.7900    0.3261 H   0  0  0  0  0  0  0  0  0  0  0  0
   -3.4403    1.9762    1.4329 H   0  0  0  0  0  0  0  0  0  0  0  0
   -2.5999   -3.1831   -1.2887 H   0  0  0  0  0  0  0  0  0  0  0  0
   -3.6801   -1.7829   -1.1799 H   0  0  0  0  0  0  0  0  0  0  0  0
   -3.0305   -2.5329    0.2984 H   0  0  0  0  0  0  0  0  0  0  0  0
    0.5436   -1.4375    0.8768 H   0  0  0  0  0  0  0  0  0  0  0  0
    1.7874    2.1538   -1.1875 H   0  0  0  0  0  0  0  0  0  0  0  0
    2.8675   -2.0807    1.1637 H   0  0  0  0  0  0  0  0  0  0  0  0
    4.1496    1.4694   -0.8894 H   0  0  0  0  0  0  0  0  0  0  0  0
    4.6912   -0.6469    0.2867 H   0  0  0  0  0  0  0  0  0  0  0  0
  1  2  1  0  0  0  0
  1  3  2  0  0  0  0
  1  4  1  0  0  0  0
  1  5  1  0  0  0  0
  2  6  1  0  0  0  0
  4  7  1  0  0  0  0
  4 14  1  0  0  0  0
  5  8  1  0  0  0  0
  5 15  1  0  0  0  0
  6  9  2  0  0  0  0
  6 10  1  0  0  0  0
  7 16  1  0  0  0  0
  7 17  1  0  0  0  0
  7 18  1  0  0  0  0
  8 19  1  0  0  0  0
  8 20  1  0  0  0  0
  8 21  1  0  0  0  0
  9 11  1  0  0  0  0
  9 22  1  0  0  0  0
 10 12  2  0  0  0  0
 10 23  1  0  0  0  0
 11 13  2  0  0  0  0
 11 24  1  0  0  0  0
 12 13  1  0  0  0  0
 12 25  1  0  0  0  0
 13 26  1  0  0  0  0
M  END
> <PUBCHEM_COMPOUND_CID>
15643

> <PUBCHEM_CONFORMER_RMSD>
0.6

> <PUBCHEM_CONFORMER_DIVERSEORDER>
2
11
1
20
16
15
12
14
18
3
19
10
7
4
9
6
17
13
5
8
21
22

> <PUBCHEM_MMFF94_PARTIAL_CHARGES>
20
1 1.51
10 -0.15
11 -0.15
12 -0.15
13 -0.15
14 0.36
15 0.36
2 -0.35
22 0.15
23 0.15
24 0.15
25 0.15
26 0.15
3 -0.7
4 -0.9
5 -0.9
6 0.08
7 0.27
8 0.27
9 -0.15

> <PUBCHEM_EFFECTIVE_ROTOR_COUNT>
4

> <PUBCHEM_PHARMACOPHORE_FEATURES>
1
6 6 9 10 11 12 13 rings

> <PUBCHEM_HEAVY_ATOM_COUNT>
13

> <PUBCHEM_ATOM_DEF_STEREO_COUNT>
0

> <PUBCHEM_ATOM_UDEF_STEREO_COUNT>
0

> <PUBCHEM_BOND_DEF_STEREO_COUNT>
0

> <PUBCHEM_BOND_UDEF_STEREO_COUNT>
0

> <PUBCHEM_ISOTOPIC_ATOM_COUNT>
0

> <PUBCHEM_COMPONENT_COUNT>
1

> <PUBCHEM_CACTVS_TAUTO_COUNT>
2

> <PUBCHEM_CONFORMER_ID>
00003D1B00000002

> <PUBCHEM_MMFF94_ENERGY>
19.5496

> <PUBCHEM_FEATURE_SELFOVERLAP>
5.074

> <PUBCHEM_SHAPE_FINGERPRINT>
12500047 106 18187091701370765648
12932764 1 18335128753039321024
14144814 61 18340486758921581608
14325111 11 18342455915933490732
15279307 12 18411984693035562923
15775835 57 18411415115994784364
15852999 172 17531808085869609319
17844478 74 16128369432326700725
18186145 218 16415477151820322386
18511873 20 18268995456347816800
18522853 266 18334012817387994518
19422 9 18412827967156942454
20279233 1 15936414442029166694
21501502 16 18343304751610276452
21524375 3 18198059386257408697
23402655 69 18201726166718918325
23598291 2 18342745147410323422
3248919 1 17489025955410281620
53748568 43 18341609321849753934
69090 78 18340491170364574101
74978 22 18333732416121621448
7832392 63 18411982485575236708
8030462 33 18201154339215600598
9939556 21 18412546517691325748

> <PUBCHEM_SHAPE_MULTIPOLES>
249.68
6.31
1.97
0.99
0.88
0.21
-0.21
-0.59
0.24
-2.01
0.28
-0.22
0.16
-1.09

> <PUBCHEM_SHAPE_SELFOVERLAP>
484.943

> <PUBCHEM_SHAPE_VOLUME>
151.4

> <PUBCHEM_COORDINATE_TYPE>
2
5
10

$$$$

