5281332
  -OEChem-07051212562D

 57 59  0     0  0  0  0  0  0999 V2000
    6.0812    3.8358    0.0000 O   0  0  0  0  0  0  0  0  0  0  0  0
    9.6648    1.2990    0.0000 O   0  0  0  0  0  0  0  0  0  0  0  0
    9.6648    4.7631    0.0000 O   0  0  0  0  0  0  0  0  0  0  0  0
    2.5369    4.0311    0.0000 O   0  0  0  0  0  0  0  0  0  0  0  0
    8.1648    2.1651    0.0000 C   0  0  0  0  0  0  0  0  0  0  0  0
    7.6648    1.2990    0.0000 C   0  0  0  0  0  0  0  0  0  0  0  0
    7.6648    3.0311    0.0000 C   0  0  0  0  0  0  0  0  0  0  0  0
    6.6648    3.0311    0.0000 C   0  0  0  0  0  0  0  0  0  0  0  0
    7.6648   -0.4330    0.0000 C   0  0  0  0  0  0  0  0  0  0  0  0
    8.1648   -1.2990    0.0000 C   0  0  0  0  0  0  0  0  0  0  0  0
    8.1648    0.4330    0.0000 C   0  0  0  0  0  0  0  0  0  0  0  0
    9.1648    2.1651    0.0000 C   0  0  0  0  0  0  0  0  0  0  0  0
    7.6648   -2.1651    0.0000 C   0  0  0  0  0  0  0  0  0  0  0  0
    8.1648    3.8971    0.0000 C   0  0  0  0  0  0  0  0  0  0  0  0
    5.1350    2.5311    0.0000 C   0  0  0  0  0  0  0  0  0  0  0  0
    6.0812    2.2264    0.0000 C   0  0  0  0  0  0  0  0  0  0  0  0
    5.1350    3.5311    0.0000 C   0  0  0  0  0  0  0  0  0  0  0  0
    9.6648    3.0311    0.0000 C   0  0  0  0  0  0  0  0  0  0  0  0
    9.1648    3.8971    0.0000 C   0  0  0  0  0  0  0  0  0  0  0  0
    6.6648   -0.4330    0.0000 C   0  0  0  0  0  0  0  0  0  0  0  0
    8.1648   -3.0311    0.0000 C   0  0  0  0  0  0  0  0  0  0  0  0
    4.2690    2.0311    0.0000 C   0  0  0  0  0  0  0  0  0  0  0  0
    4.2690    4.0311    0.0000 C   0  0  0  0  0  0  0  0  0  0  0  0
    7.6648   -3.8971    0.0000 C   0  0  0  0  0  0  0  0  0  0  0  0
    3.4030    3.5311    0.0000 C   0  0  0  0  0  0  0  0  0  0  0  0
    3.4030    2.5311    0.0000 C   0  0  0  0  0  0  0  0  0  0  0  0
    8.1648   -4.7631    0.0000 C   0  0  0  0  0  0  0  0  0  0  0  0
    6.6648   -3.8971    0.0000 C   0  0  0  0  0  0  0  0  0  0  0  0
   10.6648    1.2990    0.0000 C   0  0  0  0  0  0  0  0  0  0  0  0
    7.1899    1.6976    0.0000 H   0  0  0  0  0  0  0  0  0  0  0  0
    7.1899    0.9005    0.0000 H   0  0  0  0  0  0  0  0  0  0  0  0
    8.6398   -1.6976    0.0000 H   0  0  0  0  0  0  0  0  0  0  0  0
    8.6398   -0.9005    0.0000 H   0  0  0  0  0  0  0  0  0  0  0  0
    8.7848    0.4330    0.0000 H   0  0  0  0  0  0  0  0  0  0  0  0
    7.1899   -1.7665    0.0000 H   0  0  0  0  0  0  0  0  0  0  0  0
    7.1899   -2.5636    0.0000 H   0  0  0  0  0  0  0  0  0  0  0  0
    7.8548    4.4340    0.0000 H   0  0  0  0  0  0  0  0  0  0  0  0
    6.2738    1.6370    0.0000 H   0  0  0  0  0  0  0  0  0  0  0  0
   10.2848    3.0311    0.0000 H   0  0  0  0  0  0  0  0  0  0  0  0
    6.6648    0.1870    0.0000 H   0  0  0  0  0  0  0  0  0  0  0  0
    6.0448   -0.4330    0.0000 H   0  0  0  0  0  0  0  0  0  0  0  0
    6.6648   -1.0530    0.0000 H   0  0  0  0  0  0  0  0  0  0  0  0
    8.7848   -3.0311    0.0000 H   0  0  0  0  0  0  0  0  0  0  0  0
    4.2690    1.4111    0.0000 H   0  0  0  0  0  0  0  0  0  0  0  0
    4.2690    4.6511    0.0000 H   0  0  0  0  0  0  0  0  0  0  0  0
    2.8660    2.2211    0.0000 H   0  0  0  0  0  0  0  0  0  0  0  0
    7.6279   -5.0731    0.0000 H   0  0  0  0  0  0  0  0  0  0  0  0
    6.6648   -3.2771    0.0000 H   0  0  0  0  0  0  0  0  0  0  0  0
    6.0448   -3.8971    0.0000 H   0  0  0  0  0  0  0  0  0  0  0  0
    6.6648   -4.5171    0.0000 H   0  0  0  0  0  0  0  0  0  0  0  0
    8.4748   -5.3001    0.0000 H   0  0  0  0  0  0  0  0  0  0  0  0
    8.7018   -4.4531    0.0000 H   0  0  0  0  0  0  0  0  0  0  0  0
   10.2848    4.7631    0.0000 H   0  0  0  0  0  0  0  0  0  0  0  0
   10.6648    0.6790    0.0000 H   0  0  0  0  0  0  0  0  0  0  0  0
   11.2848    1.2990    0.0000 H   0  0  0  0  0  0  0  0  0  0  0  0
   10.6648    1.9190    0.0000 H   0  0  0  0  0  0  0  0  0  0  0  0
    2.0000    3.7211    0.0000 H   0  0  0  0  0  0  0  0  0  0  0  0
  1  8  1  0  0  0  0
  1 17  1  0  0  0  0
  2 12  1  0  0  0  0
  2 29  1  0  0  0  0
  3 19  1  0  0  0  0
  3 53  1  0  0  0  0
  4 25  1  0  0  0  0
  4 57  1  0  0  0  0
  5  6  1  0  0  0  0
  5  7  2  0  0  0  0
  5 12  1  0  0  0  0
  6 11  1  0  0  0  0
  6 30  1  0  0  0  0
  6 31  1  0  0  0  0
  7  8  1  0  0  0  0
  7 14  1  0  0  0  0
  8 16  2  0  0  0  0
  9 10  1  0  0  0  0
  9 11  2  0  0  0  0
  9 20  1  0  0  0  0
 10 13  1  0  0  0  0
 10 32  1  0  0  0  0
 10 33  1  0  0  0  0
 11 34  1  0  0  0  0
 12 18  2  0  0  0  0
 13 21  1  0  0  0  0
 13 35  1  0  0  0  0
 13 36  1  0  0  0  0
 14 19  2  0  0  0  0
 14 37  1  0  0  0  0
 15 16  1  0  0  0  0
 15 17  2  0  0  0  0
 15 22  1  0  0  0  0
 16 38  1  0  0  0  0
 17 23  1  0  0  0  0
 18 19  1  0  0  0  0
 18 39  1  0  0  0  0
 20 40  1  0  0  0  0
 20 41  1  0  0  0  0
 20 42  1  0  0  0  0
 21 24  2  0  0  0  0
 21 43  1  0  0  0  0
 22 26  2  0  0  0  0
 22 44  1  0  0  0  0
 23 25  2  0  0  0  0
 23 45  1  0  0  0  0
 24 27  1  0  0  0  0
 24 28  1  0  0  0  0
 25 26  1  0  0  0  0
 26 46  1  0  0  0  0
 27 47  1  0  0  0  0
 27 51  1  0  0  0  0
 27 52  1  0  0  0  0
 28 48  1  0  0  0  0
 28 49  1  0  0  0  0
 28 50  1  0  0  0  0
 29 54  1  0  0  0  0
 29 55  1  0  0  0  0
 29 56  1  0  0  0  0
M  END
> <PUBCHEM_COMPOUND_CID>
5281332

> <PUBCHEM_COMPOUND_CANONICALIZED>
1

> <PUBCHEM_CACTVS_COMPLEXITY>
579

> <PUBCHEM_CACTVS_HBOND_ACCEPTOR>
4

> <PUBCHEM_CACTVS_HBOND_DONOR>
2

> <PUBCHEM_CACTVS_ROTATABLE_BOND>
7

> <PUBCHEM_CACTVS_SUBSKEYS>
AAADceB4OAAAAAAAAAAAAAAAAAAAASAAAAAwYAAAAAAAAEgB9AAAGgAACAAADASAmAIyBsAABkCIAqBSAAACCAAkIAAIiAEGCMgMJzaGNRqCeWCl4BUIuYfK7PzOoAABCAAYAABAAAIQADAAAAAAAAAAAA==

> <PUBCHEM_IUPAC_OPENEYE_NAME>
2-[2-[(2E)-3,7-dimethylocta-2,6-dienyl]-5-hydroxy-3-methoxy-phenyl]benzofuran-6-ol

> <PUBCHEM_IUPAC_CAS_NAME>
2-[2-[(2E)-3,7-dimethylocta-2,6-dienyl]-5-hydroxy-3-methoxyphenyl]-6-benzofuranol

> <PUBCHEM_IUPAC_NAME>
2-[2-[(2E)-3,7-dimethylocta-2,6-dienyl]-5-hydroxy-3-methoxyphenyl]-1-benzofuran-6-ol

> <PUBCHEM_IUPAC_SYSTEMATIC_NAME>
2-[2-[(2E)-3,7-dimethylocta-2,6-dienyl]-3-methoxy-5-oxidanyl-phenyl]-1-benzofuran-6-ol

> <PUBCHEM_IUPAC_TRADITIONAL_NAME>
2-[2-[(2E)-3,7-dimethylocta-2,6-dienyl]-5-hydroxy-3-methoxy-phenyl]benzofuran-6-ol

> <PUBCHEM_IUPAC_INCHI>
InChI=1S/C25H28O4/c1-16(2)6-5-7-17(3)8-11-21-22(13-20(27)15-24(21)28-4)25-12-18-9-10-19(26)14-23(18)29-25/h6,8-10,12-15,26-27H,5,7,11H2,1-4H3/b17-8+

> <PUBCHEM_IUPAC_INCHIKEY>
MQYYTNPXQXSQGM-CAOOACKPSA-N

> <PUBCHEM_XLOGP3_AA>
7

> <PUBCHEM_EXACT_MASS>
392.198759

> <PUBCHEM_MOLECULAR_FORMULA>
C25H28O4

> <PUBCHEM_MOLECULAR_WEIGHT>
392.48742

> <PUBCHEM_OPENEYE_CAN_SMILES>
CC(=CCCC(=CCC1=C(C=C(C=C1C2=CC3=C(O2)C=C(C=C3)O)O)OC)C)C

> <PUBCHEM_OPENEYE_ISO_SMILES>
CC(=CCC/C(=C/CC1=C(C=C(C=C1C2=CC3=C(O2)C=C(C=C3)O)O)OC)/C)C

> <PUBCHEM_CACTVS_TPSA>
62.8

> <PUBCHEM_MONOISOTOPIC_WEIGHT>
392.198759

> <PUBCHEM_TOTAL_CHARGE>
0

> <PUBCHEM_HEAVY_ATOM_COUNT>
29

> <PUBCHEM_ATOM_DEF_STEREO_COUNT>
0

> <PUBCHEM_ATOM_UDEF_STEREO_COUNT>
0

> <PUBCHEM_BOND_DEF_STEREO_COUNT>
1

> <PUBCHEM_BOND_UDEF_STEREO_COUNT>
0

> <PUBCHEM_ISOTOPIC_ATOM_COUNT>
0

> <PUBCHEM_COMPONENT_COUNT>
1

> <PUBCHEM_CACTVS_TAUTO_COUNT>
19

> <PUBCHEM_COORDINATE_TYPE>
1
5
255

> <PUBCHEM_BONDANNOTATIONS>
1  17  8
1  8  8
12  18  8
14  19  8
15  16  8
15  17  8
15  22  8
17  23  8
18  19  8
22  26  8
23  25  8
25  26  8
5  12  8
5  7  8
7  14  8
8  16  8

$$$$

