443828
  -OEChem-07051213032D

 71 75  0     1  0  0  0  0  0999 V2000
    5.9812    1.1215    0.0000 O   0  0  0  0  0  0  0  0  0  0  0  0
    4.0636   -1.4377    0.0000 O   0  0  0  0  0  0  0  0  0  0  0  0
    4.2493    1.1416    0.0000 O   0  0  0  0  0  0  0  0  0  0  0  0
    5.1210   -3.4576    0.0000 O   0  0  0  0  0  0  0  0  0  0  0  0
    7.7296   -2.9130    0.0000 O   0  0  0  0  0  0  0  0  0  0  0  0
    7.7296    1.0870    0.0000 O   0  0  0  0  0  0  0  0  0  0  0  0
    2.5405    3.1615    0.0000 O   0  0  0  0  0  0  0  0  0  0  0  0
    6.8530   -3.4376    0.0000 O   0  0  0  0  0  0  0  0  0  0  0  0
    9.4780   -2.9476    0.0000 O   0  0  0  0  0  0  0  0  0  0  0  0
    9.4780    1.1215    0.0000 O   0  0  0  0  0  0  0  0  0  0  0  0
   11.3153    1.1646    0.0000 O   0  0  0  0  0  0  0  0  0  0  0  0
    4.2840    4.1414    0.0000 N   0  0  0  0  0  0  0  0  0  0  0  0
    5.0636   -1.4339    0.0000 C   0  0  1  0  0  0  0  0  0  0  0  0
    5.9697   -1.9477    0.0000 C   0  0  1  0  0  0  0  0  0  0  0  0
    5.0636   -0.3922    0.0000 C   0  0  0  0  0  0  0  0  0  0  0  0
    5.9697    0.1216    0.0000 C   0  0  1  0  0  0  0  0  0  0  0  0
    6.8636   -1.4130    0.0000 C   0  0  0  0  0  0  0  0  0  0  0  0
    6.8636   -0.4131    0.0000 C   0  0  0  0  0  0  0  0  0  0  0  0
    4.5669   -2.3018    0.0000 C   0  0  0  0  0  0  0  0  0  0  0  0
    5.1210    1.6315    0.0000 C   0  0  2  0  0  0  0  0  0  0  0  0
    7.7296   -1.9130    0.0000 C   0  0  0  0  0  0  0  0  0  0  0  0
    5.1326    2.6315    0.0000 C   0  0  0  0  0  0  0  0  0  0  0  0
    7.7296    0.0869    0.0000 C   0  0  0  0  0  0  0  0  0  0  0  0
    4.2724    3.1414    0.0000 C   0  0  1  0  0  0  0  0  0  0  0  0
    5.9812   -2.9476    0.0000 C   0  0  0  0  0  0  0  0  0  0  0  0
    3.4007    2.6515    0.0000 C   0  0  1  0  0  0  0  0  0  0  0  0
    3.3891    1.6516    0.0000 C   0  0  2  0  0  0  0  0  0  0  0  0
    8.5957   -1.4130    0.0000 C   0  0  0  0  0  0  0  0  0  0  0  0
    8.5957   -0.4131    0.0000 C   0  0  0  0  0  0  0  0  0  0  0  0
    3.5670   -2.3057    0.0000 C   0  0  0  0  0  0  0  0  0  0  0  0
    9.4896   -1.9477    0.0000 C   0  0  0  0  0  0  0  0  0  0  0  0
    9.4896    0.1216    0.0000 C   0  0  0  0  0  0  0  0  0  0  0  0
    2.5174    1.1616    0.0000 C   0  0  0  0  0  0  0  0  0  0  0  0
   10.3957   -0.3922    0.0000 C   0  0  0  0  0  0  0  0  0  0  0  0
   10.3957   -1.4339    0.0000 C   0  0  0  0  0  0  0  0  0  0  0  0
    5.1326   -4.4576    0.0000 C   0  0  0  0  0  0  0  0  0  0  0  0
   11.3268    0.1647    0.0000 C   0  0  0  0  0  0  0  0  0  0  0  0
   11.3268   -1.9908    0.0000 C   0  0  0  0  0  0  0  0  0  0  0  0
   12.2706   -0.3706    0.0000 C   0  0  0  0  0  0  0  0  0  0  0  0
   12.2706   -1.4555    0.0000 C   0  0  0  0  0  0  0  0  0  0  0  0
    6.5107   -2.2504    0.0000 H   0  0  0  0  0  0  0  0  0  0  0  0
    4.8545    0.1915    0.0000 H   0  0  0  0  0  0  0  0  0  0  0  0
    4.4527   -0.4983    0.0000 H   0  0  0  0  0  0  0  0  0  0  0  0
    5.4357    0.4368    0.0000 H   0  0  0  0  0  0  0  0  0  0  0  0
    4.4616   -2.9128    0.0000 H   0  0  0  0  0  0  0  0  0  0  0  0
    5.1504   -2.5116    0.0000 H   0  0  0  0  0  0  0  0  0  0  0  0
    5.6615    1.9353    0.0000 H   0  0  0  0  0  0  0  0  0  0  0  0
    5.7419    2.5167    0.0000 H   0  0  0  0  0  0  0  0  0  0  0  0
    5.3514    3.2116    0.0000 H   0  0  0  0  0  0  0  0  0  0  0  0
    3.7391    3.4576    0.0000 H   0  0  0  0  0  0  0  0  0  0  0  0
    2.8602    2.3477    0.0000 H   0  0  0  0  0  0  0  0  0  0  0  0
    3.7515   -0.9020    0.0000 H   0  0  0  0  0  0  0  0  0  0  0  0
    3.3819    1.0316    0.0000 H   0  0  0  0  0  0  0  0  0  0  0  0
    3.5646   -1.6857    0.0000 H   0  0  0  0  0  0  0  0  0  0  0  0
    2.9470   -2.3081    0.0000 H   0  0  0  0  0  0  0  0  0  0  0  0
    3.5693   -2.9257    0.0000 H   0  0  0  0  0  0  0  0  0  0  0  0
    2.2136    1.7021    0.0000 H   0  0  0  0  0  0  0  0  0  0  0  0
    1.9769    0.8578    0.0000 H   0  0  0  0  0  0  0  0  0  0  0  0
    2.8211    0.6211    0.0000 H   0  0  0  0  0  0  0  0  0  0  0  0
    4.8245    4.4451    0.0000 H   0  0  0  0  0  0  0  0  0  0  0  0
    3.7507    4.4576    0.0000 H   0  0  0  0  0  0  0  0  0  0  0  0
    8.2666   -3.2231    0.0000 H   0  0  0  0  0  0  0  0  0  0  0  0
    8.2666    1.3970    0.0000 H   0  0  0  0  0  0  0  0  0  0  0  0
    2.0000    2.8577    0.0000 H   0  0  0  0  0  0  0  0  0  0  0  0
    4.5126   -4.4647    0.0000 H   0  0  0  0  0  0  0  0  0  0  0  0
    5.1398   -5.0775    0.0000 H   0  0  0  0  0  0  0  0  0  0  0  0
    5.7526   -4.4504    0.0000 H   0  0  0  0  0  0  0  0  0  0  0  0
   11.3197   -2.6107    0.0000 H   0  0  0  0  0  0  0  0  0  0  0  0
   12.8063   -0.0585    0.0000 H   0  0  0  0  0  0  0  0  0  0  0  0
   12.8063   -1.7676    0.0000 H   0  0  0  0  0  0  0  0  0  0  0  0
   11.8486    1.4808    0.0000 H   0  0  0  0  0  0  0  0  0  0  0  0
 16  1  1  6  0  0  0
 20  1  1  6  0  0  0
 13  2  1  6  0  0  0
  2 52  1  0  0  0  0
  3 20  1  0  0  0  0
  3 27  1  0  0  0  0
  4 25  1  0  0  0  0
  4 36  1  0  0  0  0
  5 21  1  0  0  0  0
  5 62  1  0  0  0  0
  6 23  1  0  0  0  0
  6 63  1  0  0  0  0
 26  7  1  1  0  0  0
  7 64  1  0  0  0  0
  8 25  2  0  0  0  0
  9 31  2  0  0  0  0
 10 32  2  0  0  0  0
 11 37  1  0  0  0  0
 11 71  1  0  0  0  0
 24 12  1  1  0  0  0
 12 60  1  0  0  0  0
 12 61  1  0  0  0  0
 13 14  1  0  0  0  0
 13 15  1  0  0  0  0
 13 19  1  0  0  0  0
 14 17  1  0  0  0  0
 14 25  1  1  0  0  0
 14 41  1  0  0  0  0
 15 16  1  0  0  0  0
 15 42  1  0  0  0  0
 15 43  1  0  0  0  0
 16 18  1  0  0  0  0
 16 44  1  0  0  0  0
 17 18  1  0  0  0  0
 17 21  2  0  0  0  0
 18 23  2  0  0  0  0
 19 30  1  0  0  0  0
 19 45  1  0  0  0  0
 19 46  1  0  0  0  0
 20 22  1  0  0  0  0
 20 47  1  0  0  0  0
 21 28  1  0  0  0  0
 22 24  1  0  0  0  0
 22 48  1  0  0  0  0
 22 49  1  0  0  0  0
 23 29  1  0  0  0  0
 24 26  1  0  0  0  0
 24 50  1  0  0  0  0
 26 27  1  0  0  0  0
 26 51  1  0  0  0  0
 27 33  1  1  0  0  0
 27 53  1  0  0  0  0
 28 29  2  0  0  0  0
 28 31  1  0  0  0  0
 29 32  1  0  0  0  0
 30 54  1  0  0  0  0
 30 55  1  0  0  0  0
 30 56  1  0  0  0  0
 31 35  1  0  0  0  0
 32 34  1  0  0  0  0
 33 57  1  0  0  0  0
 33 58  1  0  0  0  0
 33 59  1  0  0  0  0
 34 35  2  0  0  0  0
 34 37  1  0  0  0  0
 35 38  1  0  0  0  0
 36 65  1  0  0  0  0
 36 66  1  0  0  0  0
 36 67  1  0  0  0  0
 37 39  2  0  0  0  0
 38 40  2  0  0  0  0
 38 68  1  0  0  0  0
 39 40  1  0  0  0  0
 39 69  1  0  0  0  0
 40 70  1  0  0  0  0
M  END
> <PUBCHEM_COMPOUND_CID>
443828

> <PUBCHEM_COMPOUND_CANONICALIZED>
1

> <PUBCHEM_CACTVS_COMPLEXITY>
1010

> <PUBCHEM_CACTVS_HBOND_ACCEPTOR>
12

> <PUBCHEM_CACTVS_HBOND_DONOR>
6

> <PUBCHEM_CACTVS_ROTATABLE_BOND>
5

> <PUBCHEM_CACTVS_SUBSKEYS>
AAADceB6PAAAAAAAAAAAAAAAAAAAAAAAAAA0YMGCAAAAAADBQAAAHgAQCAAADXzxmAcyDoBABgCIAqDSCAACAAAkIAAIiIEGCMgbNzaCtRqicUAn8BEPuYfL7PzOwQADAAAYAADCAAYQADAAAAAAAAAAAA==

> <PUBCHEM_IUPAC_OPENEYE_NAME>
methyl (1R,2R,4S)-4-[(2R,4S,5S,6S)-4-amino-5-hydroxy-6-methyl-tetrahydropyran-2-yl]oxy-2-ethyl-2,5,7,12-tetrahydroxy-6,11-dioxo-3,4-dihydro-1H-tetracene-1-carboxylate

> <PUBCHEM_IUPAC_CAS_NAME>
(1R,2R,4S)-4-[[(2R,4S,5S,6S)-4-amino-5-hydroxy-6-methyl-2-oxanyl]oxy]-2-ethyl-2,5,7,12-tetrahydroxy-6,11-dioxo-3,4-dihydro-1H-tetracene-1-carboxylic acid methyl ester

> <PUBCHEM_IUPAC_NAME>
methyl (1R,2R,4S)-4-[(2R,4S,5S,6S)-4-amino-5-hydroxy-6-methyloxan-2-yl]oxy-2-ethyl-2,5,7,12-tetrahydroxy-6,11-dioxo-3,4-dihydro-1H-tetracene-1-carboxylate

> <PUBCHEM_IUPAC_SYSTEMATIC_NAME>
methyl (1R,2R,4S)-4-[(2R,4S,5S,6S)-4-azanyl-6-methyl-5-oxidanyl-oxan-2-yl]oxy-2-ethyl-2,5,7,12-tetrakis(oxidanyl)-6,11-bis(oxidanylidene)-3,4-dihydro-1H-tetracene-1-carboxylate

> <PUBCHEM_IUPAC_TRADITIONAL_NAME>
(1R,2R,4S)-4-[(2R,4S,5S,6S)-4-amino-5-hydroxy-6-methyl-tetrahydropyran-2-yl]oxy-2-ethyl-2,5,7,12-tetrahydroxy-6,11-diketo-3,4-dihydro-1H-tetracene-1-carboxylic acid methyl ester

> <PUBCHEM_IUPAC_INCHI>
InChI=1S/C28H31NO11/c1-4-28(37)9-14(40-15-8-12(29)22(31)10(2)39-15)17-18(21(28)27(36)38-3)26(35)19-20(25(17)34)24(33)16-11(23(19)32)6-5-7-13(16)30/h5-7,10,12,14-15,21-22,30-31,34-35,37H,4,8-9,29H2,1-3H3/t10-,12-,14-,15-,21-,22+,28+/m0/s1

> <PUBCHEM_IUPAC_INCHIKEY>
CADJZGPRUYOSGU-QWWLYEKJSA-N

> <PUBCHEM_XLOGP3_AA>
2.3

> <PUBCHEM_EXACT_MASS>
557.189711

> <PUBCHEM_MOLECULAR_FORMULA>
C28H31NO11

> <PUBCHEM_MOLECULAR_WEIGHT>
557.54584

> <PUBCHEM_OPENEYE_CAN_SMILES>
CCC1(CC(C2=C(C3=C(C(=C2C1C(=O)OC)O)C(=O)C4=C(C3=O)C(=CC=C4)O)O)OC5CC(C(C(O5)C)O)N)O

> <PUBCHEM_OPENEYE_ISO_SMILES>
CC[C@]1(C[C@@H](C2=C(C3=C(C(=C2[C@H]1C(=O)OC)O)C(=O)C4=C(C3=O)C(=CC=C4)O)O)O[C@H]5C[C@@H]([C@@H]([C@@H](O5)C)O)N)O

> <PUBCHEM_CACTVS_TPSA>
206

> <PUBCHEM_MONOISOTOPIC_WEIGHT>
557.189711

> <PUBCHEM_TOTAL_CHARGE>
0

> <PUBCHEM_HEAVY_ATOM_COUNT>
40

> <PUBCHEM_ATOM_DEF_STEREO_COUNT>
7

> <PUBCHEM_ATOM_UDEF_STEREO_COUNT>
0

> <PUBCHEM_BOND_DEF_STEREO_COUNT>
0

> <PUBCHEM_BOND_UDEF_STEREO_COUNT>
0

> <PUBCHEM_ISOTOPIC_ATOM_COUNT>
0

> <PUBCHEM_COMPONENT_COUNT>
1

> <PUBCHEM_CACTVS_TAUTO_COUNT>
263

> <PUBCHEM_COORDINATE_TYPE>
1
5
255

> <PUBCHEM_BONDANNOTATIONS>
16  1  6
20  1  6
24  12  5
14  25  5
17  18  8
17  21  8
18  23  8
13  2  6
21  28  8
23  29  8
27  33  5
28  29  8
34  35  8
34  37  8
35  38  8
37  39  8
38  40  8
39  40  8
26  7  5

$$$$

