17395902
  -OEChem-06241222533D

 44 48  0     0  0  0  0  0  0999 V2000
   -1.2738    0.9158    1.8713 S   0  0  0  0  0  0  0  0  0  0  0  0
    3.6813   -0.4693    0.7214 S   0  0  0  0  0  0  0  0  0  0  0  0
    2.0964    1.3705   -0.6076 N   0  0  0  0  0  0  0  0  0  0  0  0
    1.4465    1.5551   -1.7652 N   0  0  0  0  0  0  0  0  0  0  0  0
    2.4697   -0.4257   -1.7640 N   0  0  0  0  0  0  0  0  0  0  0  0
    1.6787    0.4536   -2.4686 N   0  0  0  0  0  0  0  0  0  0  0  0
    0.5426   -1.0060    1.5707 N   0  0  0  0  0  0  0  0  0  0  0  0
    0.1880   -2.7282   -0.0965 N   0  0  0  0  0  0  0  0  0  0  0  0
   -1.7148   -2.7898   -1.5025 N   0  0  0  0  0  0  0  0  0  0  0  0
    2.1035    2.3511    0.4594 C   0  0  0  0  0  0  0  0  0  0  0  0
    1.8623    3.8057    0.1808 C   0  0  0  0  0  0  0  0  0  0  0  0
    3.2247    3.3381    0.6015 C   0  0  0  0  0  0  0  0  0  0  0  0
   -2.6309   -0.2139   -0.0020 C   0  0  0  0  0  0  0  0  0  0  0  0
   -3.7347   -0.4444   -0.9921 C   0  0  0  0  0  0  0  0  0  0  0  0
   -4.9922    0.3693   -0.6504 C   0  0  0  0  0  0  0  0  0  0  0  0
   -4.6447    1.8173   -0.2780 C   0  0  0  0  0  0  0  0  0  0  0  0
   -3.7361    1.8823    0.9588 C   0  0  0  0  0  0  0  0  0  0  0  0
   -2.6419    0.8655    0.8625 C   0  0  0  0  0  0  0  0  0  0  0  0
    2.7165    0.1619   -0.6160 C   0  0  0  0  0  0  0  0  0  0  0  0
   -1.4520   -1.0154    0.1650 C   0  0  0  0  0  0  0  0  0  0  0  0
   -0.6360   -0.4962    1.1631 C   0  0  0  0  0  0  0  0  0  0  0  0
   -0.9869   -2.1754   -0.4659 C   0  0  0  0  0  0  0  0  0  0  0  0
    3.3936   -2.2515    0.4934 C   0  0  0  0  0  0  0  0  0  0  0  0
    2.1672   -2.7538    1.2723 C   0  0  0  0  0  0  0  0  0  0  0  0
    0.8729   -2.1165    0.8887 C   0  0  0  0  0  0  0  0  0  0  0  0
    1.6811    1.9704    1.3840 H   0  0  0  0  0  0  0  0  0  0  0  0
    1.7479    4.1445   -0.8414 H   0  0  0  0  0  0  0  0  0  0  0  0
    1.2769    4.3652    0.9006 H   0  0  0  0  0  0  0  0  0  0  0  0
    4.0101    3.3431   -0.1445 H   0  0  0  0  0  0  0  0  0  0  0  0
    3.5564    3.5841    1.6028 H   0  0  0  0  0  0  0  0  0  0  0  0
   -4.0347   -1.4966   -0.9999 H   0  0  0  0  0  0  0  0  0  0  0  0
   -3.3813   -0.1734   -1.9939 H   0  0  0  0  0  0  0  0  0  0  0  0
   -5.5175   -0.0998    0.1916 H   0  0  0  0  0  0  0  0  0  0  0  0
   -5.6796    0.3558   -1.5038 H   0  0  0  0  0  0  0  0  0  0  0  0
   -5.5618    2.3862   -0.0878 H   0  0  0  0  0  0  0  0  0  0  0  0
   -4.1421    2.2950   -1.1289 H   0  0  0  0  0  0  0  0  0  0  0  0
   -4.3320    1.6777    1.8570 H   0  0  0  0  0  0  0  0  0  0  0  0
   -3.3268    2.8943    1.0562 H   0  0  0  0  0  0  0  0  0  0  0  0
    3.3119   -2.5048   -0.5687 H   0  0  0  0  0  0  0  0  0  0  0  0
    4.2804   -2.7720    0.8713 H   0  0  0  0  0  0  0  0  0  0  0  0
    2.0854   -3.8385    1.1259 H   0  0  0  0  0  0  0  0  0  0  0  0
    2.3327   -2.6145    2.3488 H   0  0  0  0  0  0  0  0  0  0  0  0
   -1.3222   -3.6203   -1.9269 H   0  0  0  0  0  0  0  0  0  0  0  0
   -2.5258   -2.3677   -1.9219 H   0  0  0  0  0  0  0  0  0  0  0  0
  1 18  1  0  0  0  0
  1 21  1  0  0  0  0
  2 19  1  0  0  0  0
  2 23  1  0  0  0  0
  3  4  1  0  0  0  0
  3 10  1  0  0  0  0
  3 19  1  0  0  0  0
  4  6  2  0  0  0  0
  5  6  1  0  0  0  0
  5 19  2  0  0  0  0
  7 21  2  0  0  0  0
  7 25  1  0  0  0  0
  8 22  1  0  0  0  0
  8 25  2  0  0  0  0
  9 22  1  0  0  0  0
  9 43  1  0  0  0  0
  9 44  1  0  0  0  0
 10 11  1  0  0  0  0
 10 12  1  0  0  0  0
 10 26  1  0  0  0  0
 11 12  1  0  0  0  0
 11 27  1  0  0  0  0
 11 28  1  0  0  0  0
 12 29  1  0  0  0  0
 12 30  1  0  0  0  0
 13 14  1  0  0  0  0
 13 18  2  0  0  0  0
 13 20  1  0  0  0  0
 14 15  1  0  0  0  0
 14 31  1  0  0  0  0
 14 32  1  0  0  0  0
 15 16  1  0  0  0  0
 15 33  1  0  0  0  0
 15 34  1  0  0  0  0
 16 17  1  0  0  0  0
 16 35  1  0  0  0  0
 16 36  1  0  0  0  0
 17 18  1  0  0  0  0
 17 37  1  0  0  0  0
 17 38  1  0  0  0  0
 20 21  1  0  0  0  0
 20 22  2  0  0  0  0
 23 24  1  0  0  0  0
 23 39  1  0  0  0  0
 23 40  1  0  0  0  0
 24 25  1  0  0  0  0
 24 41  1  0  0  0  0
 24 42  1  0  0  0  0
M  END
> <PUBCHEM_COMPOUND_CID>
17395902

> <PUBCHEM_CONFORMER_RMSD>
0.8

> <PUBCHEM_CONFORMER_DIVERSEORDER>
1
32
100
60
147
67
14
155
97
90
43
107
144
44
172
23
119
99
137
7
115
130
108
36
85
143
27
175
160
64
57
29
101
102
22
58
75
30
74
123
167
62
169
70
173
176
103
28
2
154
105
49
116
136
84
69
86
150
178
117
122
88
163
145
56
82
171
21
34
111
87
152
25
185
51
182
149
109
132
12
50
18
61
158
5
78
113
77
142
96
55
157
92
66
139
63
83
98
26
114
65
45
33
13
133
120
168
20
3
174
68
80
161
140
162
52
125
6
72
48
53
184
118
179
127
91
11
15
4
141
181
106
9
165
54
146
134
39
79
38
8
41
81
93
124
126
135
31
10
177
73
170
183
110
112
35
159
94
128
138
19
166
42
121
76
104
95
71
40
16
180
24
17
129
156
47
164
46
153
131
89
148
151
37
59

> <PUBCHEM_MMFF94_PARTIAL_CHARGES>
28
1 -0.08
10 -0.09
11 -0.2
12 -0.2
13 -0.18
14 0.18
17 0.18
18 -0.14
19 0.24
2 -0.29
21 0.3
22 0.41
23 0.23
24 0.14
25 0.48
26 0.1
27 0.1
28 0.1
29 0.1
3 0.56
30 0.1
4 -0.42
43 0.4
44 0.4
5 -0.34
7 -0.57
8 -0.62
9 -0.9

> <PUBCHEM_EFFECTIVE_ROTOR_COUNT>
6.4

> <PUBCHEM_PHARMACOPHORE_FEATURES>
9
1 7 acceptor
1 9 cation
1 9 donor
3 3 5 19 cation
3 7 8 25 cation
5 1 13 18 20 21 rings
5 3 4 5 6 19 rings
6 13 14 15 16 17 18 rings
6 7 8 20 21 22 25 rings

> <PUBCHEM_HEAVY_ATOM_COUNT>
25

> <PUBCHEM_ATOM_DEF_STEREO_COUNT>
0

> <PUBCHEM_ATOM_UDEF_STEREO_COUNT>
0

> <PUBCHEM_BOND_DEF_STEREO_COUNT>
0

> <PUBCHEM_BOND_UDEF_STEREO_COUNT>
0

> <PUBCHEM_ISOTOPIC_ATOM_COUNT>
0

> <PUBCHEM_COMPONENT_COUNT>
1

> <PUBCHEM_CACTVS_TAUTO_COUNT>
9

> <PUBCHEM_CONFORMER_ID>
010970BE00000001

> <PUBCHEM_MMFF94_ENERGY>
42.1302

> <PUBCHEM_FEATURE_SELFOVERLAP>
45.806

> <PUBCHEM_SHAPE_FINGERPRINT>
10165383 225 17123614243765795792
104564 63 17693925702797934554
11370993 70 18194972833310430792
11582403 64 17026584464682135320
11640471 11 18411412895417740038
12156800 1 14783816047954819040
12633257 1 18198362692595180760
128993 33 17198224852305880420
13134695 92 18127697234368779914
13583140 156 18272925016796198179
13642711 20 16386826945280561701
14955137 171 18194949962446127427
17980427 23 18117015444466297115
18681886 176 18263093252303095179
18981168 100 17845079671740019938
192875 21 18186799205545214992
20567600 299 18122352529990484125
20905425 154 17769371956701188709
21033648 29 16558474192532029221
23419403 2 17629230335218639476
23557571 272 16660648504859919547
23559900 14 17603579746818063742
238 59 18339062844219139977
345986 75 17699019701414593010
474 4 17917708024114028707
5262128 65 17604965122747628124
5895379 119 17604984995445431360
6443956 14 18197499738795877120
7832392 63 18410015450868015666
84936 182 18338237051010196864
9981440 41 17834968473001924400

> <PUBCHEM_SHAPE_MULTIPOLES>
487.32
7.64
3.95
1.7
6.6
1.55
0.49
2.74
0.66
-3.28
-0.37
-0.39
-0.07
-1.16

> <PUBCHEM_SHAPE_SELFOVERLAP>
1031.048

> <PUBCHEM_SHAPE_VOLUME>
274.6

> <PUBCHEM_COORDINATE_TYPE>
2
5
10

$$$$

