4834
  -OEChem-06261200222D

 62 65  0     1  0  0  0  0  0999 V2000
    9.2365   -1.8936    0.0000 S   0  0  0  0  0  0  0  0  0  0  0  0
    6.5715   -3.9154    0.0000 O   0  0  0  0  0  0  0  0  0  0  0  0
    8.8764   -5.2059    0.0000 O   0  5  0  0  0  0  0  0  0  0  0  0
   10.5236   -4.6706    0.0000 O   0  0  0  0  0  0  0  0  0  0  0  0
    5.3442   -2.7122    0.0000 O   0  0  0  0  0  0  0  0  0  0  0  0
    3.4881    0.3789    0.0000 O   0  0  0  0  0  0  0  0  0  0  0  0
    6.3874    1.1494    0.0000 O   0  0  0  0  0  0  0  0  0  0  0  0
    6.9090    3.0802    0.0000 O   0  0  0  0  0  0  0  0  0  0  0  0
    8.2854   -3.2026    0.0000 N   0  0  0  0  0  0  0  0  0  0  0  0
    6.5715   -1.4899    0.0000 N   0  0  0  0  0  0  0  0  0  0  0  0
    5.1602   -0.0728    0.0000 N   0  0  0  0  0  0  0  0  0  0  0  0
    4.7153    1.6011    0.0000 N   0  0  0  0  0  0  0  0  0  0  0  0
    5.2369    3.5319    0.0000 N   0  0  0  0  0  0  0  0  0  0  0  0
    8.2854   -2.2026    0.0000 C   0  0  3  0  0  0  0  0  0  0  0  0
    9.8242   -2.7026    0.0000 C   0  0  0  0  0  0  0  0  0  0  0  0
    9.2365   -3.5117    0.0000 C   0  0  3  0  0  0  0  0  0  0  0  0
    7.2771   -2.1985    0.0000 C   0  0  3  0  0  0  0  0  0  0  0  0
    7.2771   -3.2068    0.0000 C   0  0  0  0  0  0  0  0  0  0  0  0
   10.6333   -2.1149    0.0000 C   0  0  0  0  0  0  0  0  0  0  0  0
   10.6333   -3.2904    0.0000 C   0  0  0  0  0  0  0  0  0  0  0  0
    9.5455   -4.4627    0.0000 C   0  0  0  0  0  0  0  0  0  0  0  0
    5.6050   -1.7468    0.0000 C   0  0  0  0  0  0  0  0  0  0  0  0
    4.8994   -1.0382    0.0000 C   0  0  3  0  0  0  0  0  0  0  0  0
    3.9329   -1.2950    0.0000 C   0  0  0  0  0  0  0  0  0  0  0  0
    4.4545    0.6357    0.0000 C   0  0  0  0  0  0  0  0  0  0  0  0
    3.2273   -0.5865    0.0000 C   0  0  0  0  0  0  0  0  0  0  0  0
    3.6721   -2.2604    0.0000 C   0  0  0  0  0  0  0  0  0  0  0  0
    4.0097    2.3097    0.0000 C   0  0  0  0  0  0  0  0  0  0  0  0
    4.2705    3.2751    0.0000 C   0  0  0  0  0  0  0  0  0  0  0  0
    5.6818    1.8580    0.0000 C   0  0  0  0  0  0  0  0  0  0  0  0
    5.9426    2.8234    0.0000 C   0  0  0  0  0  0  0  0  0  0  0  0
    2.2608   -0.8433    0.0000 C   0  0  0  0  0  0  0  0  0  0  0  0
    2.7056   -2.5173    0.0000 C   0  0  0  0  0  0  0  0  0  0  0  0
    5.4977    4.4973    0.0000 C   0  0  0  0  0  0  0  0  0  0  0  0
    2.0000   -1.8087    0.0000 C   0  0  0  0  0  0  0  0  0  0  0  0
    4.7921    5.2059    0.0000 C   0  0  0  0  0  0  0  0  0  0  0  0
    8.1542   -1.3628    0.0000 H   0  0  0  0  0  0  0  0  0  0  0  0
    8.6354   -4.1127    0.0000 H   0  0  0  0  0  0  0  0  0  0  0  0
    6.4915   -2.5230    0.0000 H   0  0  0  0  0  0  0  0  0  0  0  0
   10.2688   -3.7920    0.0000 H   0  0  0  0  0  0  0  0  0  0  0  0
   11.1349   -3.6549    0.0000 H   0  0  0  0  0  0  0  0  0  0  0  0
   10.9977   -2.7888    0.0000 H   0  0  0  0  0  0  0  0  0  0  0  0
   10.9977   -2.6164    0.0000 H   0  0  0  0  0  0  0  0  0  0  0  0
   11.1349   -1.7504    0.0000 H   0  0  0  0  0  0  0  0  0  0  0  0
   10.2688   -1.6133    0.0000 H   0  0  0  0  0  0  0  0  0  0  0  0
    6.7332   -0.8914    0.0000 H   0  0  0  0  0  0  0  0  0  0  0  0
    4.2996   -0.4359    0.0000 H   0  0  0  0  0  0  0  0  0  0  0  0
    5.7594    0.0864    0.0000 H   0  0  0  0  0  0  0  0  0  0  0  0
    3.3890    0.0121    0.0000 H   0  0  0  0  0  0  0  0  0  0  0  0
    4.1096   -2.6998    0.0000 H   0  0  0  0  0  0  0  0  0  0  0  0
    3.4483    2.5729    0.0000 H   0  0  0  0  0  0  0  0  0  0  0  0
    3.6530    1.8025    0.0000 H   0  0  0  0  0  0  0  0  0  0  0  0
    4.2177    3.8928    0.0000 H   0  0  0  0  0  0  0  0  0  0  0  0
    3.6530    3.3304    0.0000 H   0  0  0  0  0  0  0  0  0  0  0  0
    1.8233   -0.4040    0.0000 H   0  0  0  0  0  0  0  0  0  0  0  0
    2.5440   -3.1158    0.0000 H   0  0  0  0  0  0  0  0  0  0  0  0
    6.0591    4.2341    0.0000 H   0  0  0  0  0  0  0  0  0  0  0  0
    5.8544    5.0044    0.0000 H   0  0  0  0  0  0  0  0  0  0  0  0
    1.4008   -1.9680    0.0000 H   0  0  0  0  0  0  0  0  0  0  0  0
    5.2314    5.6434    0.0000 H   0  0  0  0  0  0  0  0  0  0  0  0
    4.3546    5.6452    0.0000 H   0  0  0  0  0  0  0  0  0  0  0  0
    4.3528    4.7684    0.0000 H   0  0  0  0  0  0  0  0  0  0  0  0
  1 14  1  0  0  0  0
  1 15  1  0  0  0  0
  2 18  2  0  0  0  0
  3 21  1  0  0  0  0
  4 21  2  0  0  0  0
  5 22  2  0  0  0  0
  6 25  2  0  0  0  0
  7 30  2  0  0  0  0
  8 31  2  0  0  0  0
  9 14  1  0  0  0  0
  9 16  1  0  0  0  0
  9 18  1  0  0  0  0
 10 17  1  0  0  0  0
 10 22  1  0  0  0  0
 10 46  1  0  0  0  0
 11 23  1  0  0  0  0
 11 25  1  0  0  0  0
 11 48  1  0  0  0  0
 12 25  1  0  0  0  0
 12 28  1  0  0  0  0
 12 30  1  0  0  0  0
 13 29  1  0  0  0  0
 13 31  1  0  0  0  0
 13 34  1  0  0  0  0
 14 17  1  0  0  0  0
 14 37  1  0  0  0  0
 15 16  1  0  0  0  0
 15 19  1  0  0  0  0
 15 20  1  0  0  0  0
 16 21  1  0  0  0  0
 16 38  1  0  0  0  0
 17 18  1  0  0  0  0
 17 39  1  0  0  0  0
 19 43  1  0  0  0  0
 19 44  1  0  0  0  0
 19 45  1  0  0  0  0
 20 40  1  0  0  0  0
 20 41  1  0  0  0  0
 20 42  1  0  0  0  0
 22 23  1  0  0  0  0
 23 24  1  0  0  0  0
 23 47  1  0  0  0  0
 24 26  2  0  0  0  0
 24 27  1  0  0  0  0
 26 32  1  0  0  0  0
 26 49  1  0  0  0  0
 27 33  2  0  0  0  0
 27 50  1  0  0  0  0
 28 29  1  0  0  0  0
 28 51  1  0  0  0  0
 28 52  1  0  0  0  0
 29 53  1  0  0  0  0
 29 54  1  0  0  0  0
 30 31  1  0  0  0  0
 32 35  2  0  0  0  0
 32 55  1  0  0  0  0
 33 35  1  0  0  0  0
 33 56  1  0  0  0  0
 34 36  1  0  0  0  0
 34 57  1  0  0  0  0
 34 58  1  0  0  0  0
 35 59  1  0  0  0  0
 36 60  1  0  0  0  0
 36 61  1  0  0  0  0
 36 62  1  0  0  0  0
M  CHG  1   3  -1
M  END
> <PUBCHEM_COMPOUND_CID>
4834

> <PUBCHEM_COMPOUND_CANONICALIZED>
1

> <PUBCHEM_CACTVS_COMPLEXITY>
976

> <PUBCHEM_CACTVS_HBOND_ACCEPTOR>
8

> <PUBCHEM_CACTVS_HBOND_DONOR>
2

> <PUBCHEM_CACTVS_ROTATABLE_BOND>
5

> <PUBCHEM_CACTVS_SUBSKEYS>
AAADceB7uABAAAAAAAAAAAAAAABYAWAAAAA8QAAABYAAAAABAAAAHgQQAAAADCjF2ASzCIPAAAiIAiHSGACCAABgABAIiIGIBIiKYDqglTGUIAhslyK4iAcYiICOAAAAAAAAAAAAAAAAAAAAAAAAAAAAAA==

> <PUBCHEM_IUPAC_OPENEYE_NAME>
6-[[2-[(4-ethyl-2,3-dioxo-piperazine-1-carbonyl)amino]-2-phenyl-acetyl]amino]-3,3-dimethyl-7-oxo-4-thia-1-azabicyclo[3.2.0]heptane-2-carboxylate

> <PUBCHEM_IUPAC_CAS_NAME>
6-[[2-[[(4-ethyl-2,3-dioxo-1-piperazinyl)-oxomethyl]amino]-1-oxo-2-phenylethyl]amino]-3,3-dimethyl-7-oxo-4-thia-1-azabicyclo[3.2.0]heptane-2-carboxylate

> <PUBCHEM_IUPAC_NAME>
6-[[2-[(4-ethyl-2,3-dioxopiperazine-1-carbonyl)amino]-2-phenylacetyl]amino]-3,3-dimethyl-7-oxo-4-thia-1-azabicyclo[3.2.0]heptane-2-carboxylate

> <PUBCHEM_IUPAC_SYSTEMATIC_NAME>
6-[[2-[[4-ethyl-2,3-bis(oxidanylidene)piperazin-1-yl]carbonylamino]-2-phenyl-ethanoyl]amino]-3,3-dimethyl-7-oxidanylidene-4-thia-1-azabicyclo[3.2.0]heptane-2-carboxylate

> <PUBCHEM_IUPAC_TRADITIONAL_NAME>
6-[[2-[(4-ethyl-2,3-diketo-piperazine-1-carbonyl)amino]-2-phenyl-acetyl]amino]-7-keto-3,3-dimethyl-4-thia-1-azabicyclo[3.2.0]heptane-2-carboxylate

> <PUBCHEM_IUPAC_INCHI>
InChI=1S/C23H27N5O7S/c1-4-26-10-11-27(19(32)18(26)31)22(35)25-13(12-8-6-5-7-9-12)16(29)24-14-17(30)28-15(21(33)34)23(2,3)36-20(14)28/h5-9,13-15,20H,4,10-11H2,1-3H3,(H,24,29)(H,25,35)(H,33,34)/p-1

> <PUBCHEM_IUPAC_INCHIKEY>
IVBHGBMCVLDMKU-UHFFFAOYSA-M

> <PUBCHEM_XLOGP3>
1.1

> <PUBCHEM_EXACT_MASS>
516.155294

> <PUBCHEM_MOLECULAR_FORMULA>
C23H26N5O7S-

> <PUBCHEM_MOLECULAR_WEIGHT>
516.54684

> <PUBCHEM_OPENEYE_CAN_SMILES>
CCN1CCN(C(=O)C1=O)C(=O)NC(C2=CC=CC=C2)C(=O)NC3C4N(C3=O)C(C(S4)(C)C)C(=O)[O-]

> <PUBCHEM_OPENEYE_ISO_SMILES>
CCN1CCN(C(=O)C1=O)C(=O)NC(C2=CC=CC=C2)C(=O)NC3C4N(C3=O)C(C(S4)(C)C)C(=O)[O-]

> <PUBCHEM_CACTVS_TPSA>
185

> <PUBCHEM_MONOISOTOPIC_WEIGHT>
516.155294

> <PUBCHEM_TOTAL_CHARGE>
-1

> <PUBCHEM_HEAVY_ATOM_COUNT>
36

> <PUBCHEM_ATOM_DEF_STEREO_COUNT>
0

> <PUBCHEM_ATOM_UDEF_STEREO_COUNT>
4

> <PUBCHEM_BOND_DEF_STEREO_COUNT>
0

> <PUBCHEM_BOND_UDEF_STEREO_COUNT>
0

> <PUBCHEM_ISOTOPIC_ATOM_COUNT>
0

> <PUBCHEM_COMPONENT_COUNT>
1

> <PUBCHEM_CACTVS_TAUTO_COUNT>
8

> <PUBCHEM_COORDINATE_TYPE>
1
5
255

> <PUBCHEM_BONDANNOTATIONS>
14  37  3
16  38  3
17  39  3
23  47  3
24  26  8
24  27  8
26  32  8
27  33  8
32  35  8
33  35  8

$$$$

