12849
  -OEChem-06261207272D

 31 32  0     0  0  0  0  0  0999 V2000
    4.2788   -2.8375    0.0000 O   0  0  0  0  0  0  0  0  0  0  0  0
    6.3479    0.0103    0.0000 O   0  0  0  0  0  0  0  0  0  0  0  0
    4.6389    2.3768    0.0000 O   0  0  0  0  0  0  0  0  0  0  0  0
    4.5878   -0.2685    0.0000 N   0  0  0  0  0  0  0  0  0  0  0  0
    5.5388   -1.5775    0.0000 N   0  0  0  0  0  0  0  0  0  0  0  0
    4.0000   -1.0775    0.0000 C   0  0  0  0  0  0  0  0  0  0  0  0
    3.5000   -1.9435    0.0000 C   0  0  0  0  0  0  0  0  0  0  0  0
    3.5000   -0.2114    0.0000 C   0  0  0  0  0  0  0  0  0  0  0  0
    2.5000   -1.9435    0.0000 C   0  0  0  0  0  0  0  0  0  0  0  0
    2.5000   -0.2114    0.0000 C   0  0  0  0  0  0  0  0  0  0  0  0
    2.0000   -1.0775    0.0000 C   0  0  0  0  0  0  0  0  0  0  0  0
    4.5878   -1.8865    0.0000 C   0  0  0  0  0  0  0  0  0  0  0  0
    4.2788    0.6826    0.0000 C   0  0  0  0  0  0  0  0  0  0  0  0
    5.5388   -0.5775    0.0000 C   0  0  0  0  0  0  0  0  0  0  0  0
    4.9479    1.4257    0.0000 C   0  0  0  0  0  0  0  0  0  0  0  0
    3.3923   -2.5541    0.0000 H   0  0  0  0  0  0  0  0  0  0  0  0
    4.0826   -2.1556    0.0000 H   0  0  0  0  0  0  0  0  0  0  0  0
    4.0826    0.0006    0.0000 H   0  0  0  0  0  0  0  0  0  0  0  0
    3.3923    0.3991    0.0000 H   0  0  0  0  0  0  0  0  0  0  0  0
    1.9174   -2.1556    0.0000 H   0  0  0  0  0  0  0  0  0  0  0  0
    2.6077   -2.5541    0.0000 H   0  0  0  0  0  0  0  0  0  0  0  0
    2.6077    0.3991    0.0000 H   0  0  0  0  0  0  0  0  0  0  0  0
    1.9174    0.0006    0.0000 H   0  0  0  0  0  0  0  0  0  0  0  0
    1.5250   -0.6789    0.0000 H   0  0  0  0  0  0  0  0  0  0  0  0
    1.5250   -1.4760    0.0000 H   0  0  0  0  0  0  0  0  0  0  0  0
    3.8971    1.1712    0.0000 H   0  0  0  0  0  0  0  0  0  0  0  0
    3.7313    0.3915    0.0000 H   0  0  0  0  0  0  0  0  0  0  0  0
    6.0404   -1.9419    0.0000 H   0  0  0  0  0  0  0  0  0  0  0  0
    5.3296    0.9372    0.0000 H   0  0  0  0  0  0  0  0  0  0  0  0
    5.4953    1.7168    0.0000 H   0  0  0  0  0  0  0  0  0  0  0  0
    5.0537    2.8375    0.0000 H   0  0  0  0  0  0  0  0  0  0  0  0
  1 12  2  0  0  0  0
  2 14  2  0  0  0  0
  3 15  1  0  0  0  0
  3 31  1  0  0  0  0
  4  6  1  0  0  0  0
  4 13  1  0  0  0  0
  4 14  1  0  0  0  0
  5 12  1  0  0  0  0
  5 14  1  0  0  0  0
  5 28  1  0  0  0  0
  6  7  1  0  0  0  0
  6  8  1  0  0  0  0
  6 12  1  0  0  0  0
  7  9  1  0  0  0  0
  7 16  1  0  0  0  0
  7 17  1  0  0  0  0
  8 10  1  0  0  0  0
  8 18  1  0  0  0  0
  8 19  1  0  0  0  0
  9 11  1  0  0  0  0
  9 20  1  0  0  0  0
  9 21  1  0  0  0  0
 10 11  1  0  0  0  0
 10 22  1  0  0  0  0
 10 23  1  0  0  0  0
 11 24  1  0  0  0  0
 11 25  1  0  0  0  0
 13 15  1  0  0  0  0
 13 26  1  0  0  0  0
 13 27  1  0  0  0  0
 15 29  1  0  0  0  0
 15 30  1  0  0  0  0
M  END
> <PUBCHEM_COMPOUND_CID>
12849

> <PUBCHEM_COMPOUND_CANONICALIZED>
1

> <PUBCHEM_CACTVS_COMPLEXITY>
284

> <PUBCHEM_CACTVS_HBOND_ACCEPTOR>
3

> <PUBCHEM_CACTVS_HBOND_DONOR>
2

> <PUBCHEM_CACTVS_ROTATABLE_BOND>
2

> <PUBCHEM_CACTVS_SUBSKEYS>
AAADceBzMAAAAAAAAAAAAAAAAAAAAWAAAAAwAAAAAAAAAAAAAAAAHgAQCAAADIjhgAYBAAPAAgAIAAEQEAAAAAAAAAAAAAGIAACCUBIAgCAUAAAIByKQAAEYiACOAAAAAAAAAAAAAAAAAAAAAAAAAAAAAA==

> <PUBCHEM_IUPAC_OPENEYE_NAME>
1-(2-hydroxyethyl)-1,3-diazaspiro[4.5]decane-2,4-dione

> <PUBCHEM_IUPAC_CAS_NAME>
1-(2-hydroxyethyl)-1,3-diazaspiro[4.5]decane-2,4-dione

> <PUBCHEM_IUPAC_NAME>
1-(2-hydroxyethyl)-1,3-diazaspiro[4.5]decane-2,4-dione

> <PUBCHEM_IUPAC_SYSTEMATIC_NAME>
1-(2-hydroxyethyl)-1,3-diazaspiro[4.5]decane-2,4-dione

> <PUBCHEM_IUPAC_TRADITIONAL_NAME>
1-(2-hydroxyethyl)-1,3-diazaspiro[4.5]decane-2,4-quinone

> <PUBCHEM_IUPAC_INCHI>
InChI=1S/C10H16N2O3/c13-7-6-12-9(15)11-8(14)10(12)4-2-1-3-5-10/h13H,1-7H2,(H,11,14,15)

> <PUBCHEM_IUPAC_INCHIKEY>
SOQKKPVZDWWSDT-UHFFFAOYSA-N

> <PUBCHEM_XLOGP3_AA>
0.1

> <PUBCHEM_EXACT_MASS>
212.116092

> <PUBCHEM_MOLECULAR_FORMULA>
C10H16N2O3

> <PUBCHEM_MOLECULAR_WEIGHT>
212.24564

> <PUBCHEM_OPENEYE_CAN_SMILES>
C1CCC2(CC1)C(=O)NC(=O)N2CCO

> <PUBCHEM_OPENEYE_ISO_SMILES>
C1CCC2(CC1)C(=O)NC(=O)N2CCO

> <PUBCHEM_CACTVS_TPSA>
69.6

> <PUBCHEM_MONOISOTOPIC_WEIGHT>
212.116092

> <PUBCHEM_TOTAL_CHARGE>
0

> <PUBCHEM_HEAVY_ATOM_COUNT>
15

> <PUBCHEM_ATOM_DEF_STEREO_COUNT>
0

> <PUBCHEM_ATOM_UDEF_STEREO_COUNT>
0

> <PUBCHEM_BOND_DEF_STEREO_COUNT>
0

> <PUBCHEM_BOND_UDEF_STEREO_COUNT>
0

> <PUBCHEM_ISOTOPIC_ATOM_COUNT>
0

> <PUBCHEM_COMPONENT_COUNT>
1

> <PUBCHEM_CACTVS_TAUTO_COUNT>
3

> <PUBCHEM_COORDINATE_TYPE>
1
5
255

$$$$

