91446
  -OEChem-07051212553D

 37 38  0     1  0  0  0  0  0999 V2000
    1.1697    0.8653   -0.4623 O   0  0  0  0  0  0  0  0  0  0  0  0
   -0.4284   -0.6979   -1.1306 O   0  0  0  0  0  0  0  0  0  0  0  0
    4.0655   -2.0314   -0.1607 O   0  0  0  0  0  0  0  0  0  0  0  0
    4.4588    0.5330    1.1141 O   0  0  0  0  0  0  0  0  0  0  0  0
    1.2142   -2.7729   -0.1285 O   0  0  0  0  0  0  0  0  0  0  0  0
    1.4803    3.4544    0.4071 O   0  0  0  0  0  0  0  0  0  0  0  0
   -1.8438   -2.4658    0.3302 O   0  0  0  0  0  0  0  0  0  0  0  0
   -3.3642    1.1629   -0.1431 N   0  0  0  0  0  0  0  0  0  0  0  0
   -3.5596   -1.0045    0.7625 N   0  0  0  0  0  0  0  0  0  0  0  0
   -1.5297    1.9203   -1.4668 N   0  0  0  0  0  0  0  0  0  0  0  0
   -5.2190    0.6256    1.1046 N   0  0  0  0  0  0  0  0  0  0  0  0
    2.9981   -1.2093    0.3138 C   0  0  1  0  0  0  0  0  0  0  0  0
    3.4272    0.2512    0.1720 C   0  0  1  0  0  0  0  0  0  0  0  0
    1.7349   -1.4963   -0.4978 C   0  0  2  0  0  0  0  0  0  0  0  0
    2.2450    1.1911    0.4201 C   0  0  1  0  0  0  0  0  0  0  0  0
    0.6557   -0.4454   -0.2373 C   0  0  1  0  0  0  0  0  0  0  0  0
    2.6199    2.6484    0.1696 C   0  0  0  0  0  0  0  0  0  0  0  0
   -1.6111   -0.3079   -0.6008 C   0  0  0  0  0  0  0  0  0  0  0  0
   -2.1458    0.9269   -0.7502 C   0  0  0  0  0  0  0  0  0  0  0  0
   -2.3440   -1.3508    0.2010 C   0  0  0  0  0  0  0  0  0  0  0  0
   -4.0240    0.2029    0.5830 C   0  0  0  0  0  0  0  0  0  0  0  0
    2.8480   -1.4746    1.3676 H   0  0  0  0  0  0  0  0  0  0  0  0
    3.8446    0.4127   -0.8295 H   0  0  0  0  0  0  0  0  0  0  0  0
    1.9740   -1.5485   -1.5667 H   0  0  0  0  0  0  0  0  0  0  0  0
    1.8847    1.1075    1.4545 H   0  0  0  0  0  0  0  0  0  0  0  0
    0.3160   -0.5273    0.8067 H   0  0  0  0  0  0  0  0  0  0  0  0
    2.9324    2.8092   -0.8675 H   0  0  0  0  0  0  0  0  0  0  0  0
    3.4218    2.9806    0.8351 H   0  0  0  0  0  0  0  0  0  0  0  0
    4.8549   -1.8158    0.3649 H   0  0  0  0  0  0  0  0  0  0  0  0
    4.0956    0.3991    2.0061 H   0  0  0  0  0  0  0  0  0  0  0  0
    0.9917   -2.7460    0.8178 H   0  0  0  0  0  0  0  0  0  0  0  0
    0.7732    3.1465   -0.1854 H   0  0  0  0  0  0  0  0  0  0  0  0
   -3.7549    2.0912   -0.2617 H   0  0  0  0  0  0  0  0  0  0  0  0
   -0.6357    1.7480   -1.9092 H   0  0  0  0  0  0  0  0  0  0  0  0
   -1.9760    2.8254   -1.5409 H   0  0  0  0  0  0  0  0  0  0  0  0
   -5.5598    1.5682    0.9510 H   0  0  0  0  0  0  0  0  0  0  0  0
   -5.7982    0.0051    1.6596 H   0  0  0  0  0  0  0  0  0  0  0  0
  1 15  1  0  0  0  0
  1 16  1  0  0  0  0
  2 16  1  0  0  0  0
  2 18  1  0  0  0  0
  3 12  1  0  0  0  0
  3 29  1  0  0  0  0
  4 13  1  0  0  0  0
  4 30  1  0  0  0  0
  5 14  1  0  0  0  0
  5 31  1  0  0  0  0
  6 17  1  0  0  0  0
  6 32  1  0  0  0  0
  7 20  2  0  0  0  0
  8 19  1  0  0  0  0
  8 21  1  0  0  0  0
  8 33  1  0  0  0  0
  9 20  1  0  0  0  0
  9 21  2  0  0  0  0
 10 19  1  0  0  0  0
 10 34  1  0  0  0  0
 10 35  1  0  0  0  0
 11 21  1  0  0  0  0
 11 36  1  0  0  0  0
 11 37  1  0  0  0  0
 12 13  1  0  0  0  0
 12 14  1  0  0  0  0
 12 22  1  0  0  0  0
 13 15  1  0  0  0  0
 13 23  1  0  0  0  0
 14 16  1  0  0  0  0
 14 24  1  0  0  0  0
 15 17  1  0  0  0  0
 15 25  1  0  0  0  0
 16 26  1  0  0  0  0
 17 27  1  0  0  0  0
 17 28  1  0  0  0  0
 18 19  2  0  0  0  0
 18 20  1  0  0  0  0
M  END
> <PUBCHEM_COMPOUND_CID>
91446

> <PUBCHEM_CONFORMER_RMSD>
0.6

> <PUBCHEM_CONFORMER_DIVERSEORDER>
1
97
45
40
59
84
12
49
80
69
81
78
29
28
86
67
39
88
94
64
70
5
91
37
92
61
21
25
77
41
15
95
79
11
3
7
53
51
90
26
85
42
56
33
34
96
63
10
47
4
89
48
8
20
55
9
50
72
2
62
6
46
57
43
35
74
32
23
17
54
44
76
14
24
31
58
18
19
82
73
30
75
13
68
27
36
83
22
16
66
71
93
38
52
60
65
87

> <PUBCHEM_MMFF94_PARTIAL_CHARGES>
30
1 -0.56
10 -0.9
11 -0.85
12 0.28
13 0.28
14 0.28
15 0.28
16 0.56
17 0.28
18 0.09
19 0.2
2 -0.36
20 0.77
21 0.55
29 0.4
3 -0.68
30 0.4
31 0.4
32 0.4
33 0.4
34 0.4
35 0.4
36 0.4
37 0.4
4 -0.68
5 -0.68
6 -0.68
7 -0.57
8 -0.55
9 -0.66

> <PUBCHEM_EFFECTIVE_ROTOR_COUNT>
4.2

> <PUBCHEM_PHARMACOPHORE_FEATURES>
18
1 1 acceptor
1 10 cation
1 10 donor
1 11 donor
1 2 acceptor
1 3 acceptor
1 3 donor
1 4 acceptor
1 4 donor
1 5 acceptor
1 5 donor
1 6 acceptor
1 6 donor
1 7 acceptor
1 8 donor
1 9 donor
6 1 12 13 14 15 16 rings
6 8 9 18 19 20 21 rings

> <PUBCHEM_HEAVY_ATOM_COUNT>
21

> <PUBCHEM_ATOM_DEF_STEREO_COUNT>
5

> <PUBCHEM_ATOM_UDEF_STEREO_COUNT>
0

> <PUBCHEM_BOND_DEF_STEREO_COUNT>
0

> <PUBCHEM_BOND_UDEF_STEREO_COUNT>
0

> <PUBCHEM_ISOTOPIC_ATOM_COUNT>
0

> <PUBCHEM_COMPONENT_COUNT>
1

> <PUBCHEM_CACTVS_TAUTO_COUNT>
17

> <PUBCHEM_CONFORMER_ID>
0001653600000001

> <PUBCHEM_MMFF94_ENERGY>
70.1814

> <PUBCHEM_FEATURE_SELFOVERLAP>
91.572

> <PUBCHEM_SHAPE_FINGERPRINT>
10366900 7 18201997703204628691
10608611 8 18412267233174387845
12251169 10 18411135822961550429
12633257 1 18341619195768356881
13140716 1 18268430144135930913
14223421 5 18341334375006847518
14341114 176 18409721885130650737
14790565 3 18123744254261429636
14866123 147 16320903006491215627
15219456 202 18411704308880052415
15653759 3 18131353037416379613
1601671 61 18409728440042197308
16945 1 18411708698362905486
17804303 29 18342733061235124543
1813 80 16774072964597697263
18219364 16 18341346551255345925
18785283 64 18270394980342882872
19049666 15 18054514878558739735
20681677 76 18341343235883140525
21041028 32 18263361563320827860
21501502 16 18335704875768312887
22854114 111 18334576832414047236
23559900 14 18408887347278764835
2748010 2 18264224641757728070
31174 14 18412259571232313133
3472631 163 14779561083799260137
474 4 18334577914814384307
49207404 50 18268423529917937403
5104073 3 18411135822961973539
7097593 13 18341622516079211434
7364860 26 18409445869305299532
8809292 202 18271243927778346154
9709674 26 18410853226977965055

> <PUBCHEM_SHAPE_MULTIPOLES>
371.16
8.2
2.92
0.96
3.36
0.81
0.08
0.46
-2.98
-1.98
-0.03
0.4
0.2
0.64

> <PUBCHEM_SHAPE_SELFOVERLAP>
779.89

> <PUBCHEM_SHAPE_VOLUME>
205.3

> <PUBCHEM_COORDINATE_TYPE>
2
5
10

$$$$

