172502
  -OEChem-07051212493D

 73 75  0     1  0  0  0  0  0999 V2000
   -0.1015   -2.8578   -1.7449 P   0  0  1  0  0  0  0  0  0  0  0  0
   -1.7186   -3.6720    0.5745 P   0  0  2  0  0  0  0  0  0  0  0  0
    0.8729   -0.9682    1.1824 O   0  0  0  0  0  0  0  0  0  0  0  0
   -4.1262    0.5046    1.6914 O   0  0  0  0  0  0  0  0  0  0  0  0
    4.1330    0.8536   -0.5766 O   0  0  0  0  0  0  0  0  0  0  0  0
    1.0527   -2.1823   -0.8418 O   0  0  0  0  0  0  0  0  0  0  0  0
    4.5278   -0.9388    1.6435 O   0  0  0  0  0  0  0  0  0  0  0  0
   -6.1340   -0.7330   -0.1598 O   0  0  0  0  0  0  0  0  0  0  0  0
   -4.6725    0.8455   -1.8363 O   0  0  0  0  0  0  0  0  0  0  0  0
   -3.0400   -2.9299    1.1400 O   0  0  0  0  0  0  0  0  0  0  0  0
    1.7131   -0.1696    3.7026 O   0  0  0  0  0  0  0  0  0  0  0  0
   -1.4099   -2.8714   -0.7954 O   0  0  0  0  0  0  0  0  0  0  0  0
   -0.4603   -1.7362   -2.8543 O   0  0  0  0  0  0  0  0  0  0  0  0
    0.2595   -4.1990   -2.3147 O   0  0  0  0  0  0  0  0  0  0  0  0
    0.1781    1.8560   -2.3654 O   0  0  0  0  0  0  0  0  0  0  0  0
   -2.2696   -5.0982    0.0460 O   0  0  0  0  0  0  0  0  0  0  0  0
   -4.2426    3.9023   -0.6175 O   0  0  0  0  0  0  0  0  0  0  0  0
   -0.5601   -3.7530    1.5251 O   0  0  0  0  0  0  0  0  0  0  0  0
    0.0599    4.8358    0.7466 O   0  0  0  0  0  0  0  0  0  0  0  0
    5.6426    2.1101    1.1199 O   0  0  0  0  0  0  0  0  0  0  0  0
    7.4947    0.9344    0.5282 O   0  0  0  0  0  0  0  0  0  0  0  0
    1.8153    0.2094   -2.1978 N   0  0  0  0  0  0  0  0  0  0  0  0
   -3.0723    2.2520    0.5510 N   0  0  0  0  0  0  0  0  0  0  0  0
   -2.0996    4.3650    0.0620 N   0  0  0  0  0  0  0  0  0  0  0  0
    3.2578   -0.2302   -0.2575 C   0  0  2  0  0  0  0  0  0  0  0  0
    1.8517    0.1116   -0.7567 C   0  0  2  0  0  0  0  0  0  0  0  0
    3.2532   -0.4275    1.2617 C   0  0  1  0  0  0  0  0  0  0  0  0
    2.1415   -1.3907    1.6946 C   0  0  1  0  0  0  0  0  0  0  0  0
    0.8277   -0.9065   -0.2452 C   0  0  2  0  0  0  0  0  0  0  0  0
   -4.7153   -0.8883   -0.1319 C   0  0  1  0  0  0  0  0  0  0  0  0
   -4.0404    0.3548   -0.6719 C   0  0  2  0  0  0  0  0  0  0  0  0
   -4.2716   -0.8850    1.3246 C   0  0  1  0  0  0  0  0  0  0  0  0
   -4.1549    1.3111    0.5025 C   0  0  1  0  0  0  0  0  0  0  0  0
   -2.9336   -1.5771    1.5478 C   0  0  0  0  0  0  0  0  0  0  0  0
    2.0074   -1.4649    3.2131 C   0  0  0  0  0  0  0  0  0  0  0  0
    0.9774    1.0772   -2.8784 C   0  0  0  0  0  0  0  0  0  0  0  0
   -3.2181    3.5275   -0.0434 C   0  0  0  0  0  0  0  0  0  0  0  0
   -1.8822    1.9085    1.1820 C   0  0  0  0  0  0  0  0  0  0  0  0
    5.4289    0.4656   -0.5622 C   0  0  0  0  0  0  0  0  0  0  0  0
   -0.8249    2.7177    1.2744 C   0  0  0  0  0  0  0  0  0  0  0  0
    1.1598    0.9945   -4.3703 C   0  0  0  0  0  0  0  0  0  0  0  0
   -0.8947    4.0674    0.6794 C   0  0  0  0  0  0  0  0  0  0  0  0
    6.3024    1.1744    0.4012 C   0  0  0  0  0  0  0  0  0  0  0  0
    5.8854   -0.4993   -1.3725 C   0  0  0  0  0  0  0  0  0  0  0  0
    3.5670   -1.1634   -0.7474 H   0  0  0  0  0  0  0  0  0  0  0  0
    1.5859    1.0987   -0.3538 H   0  0  0  0  0  0  0  0  0  0  0  0
    3.1358    0.5506    1.7431 H   0  0  0  0  0  0  0  0  0  0  0  0
    2.3549   -2.4062    1.3369 H   0  0  0  0  0  0  0  0  0  0  0  0
   -0.1772   -0.5573   -0.5058 H   0  0  0  0  0  0  0  0  0  0  0  0
   -4.4690   -1.7913   -0.6970 H   0  0  0  0  0  0  0  0  0  0  0  0
   -2.9914    0.1411   -0.9115 H   0  0  0  0  0  0  0  0  0  0  0  0
   -5.0316   -1.3318    1.9756 H   0  0  0  0  0  0  0  0  0  0  0  0
   -5.1092    1.8512    0.4825 H   0  0  0  0  0  0  0  0  0  0  0  0
   -2.6541   -1.5428    2.6061 H   0  0  0  0  0  0  0  0  0  0  0  0
   -2.1322   -1.0887    0.9890 H   0  0  0  0  0  0  0  0  0  0  0  0
    1.1805   -2.1257    3.4931 H   0  0  0  0  0  0  0  0  0  0  0  0
    2.9295   -1.8238    3.6801 H   0  0  0  0  0  0  0  0  0  0  0  0
    2.4009   -0.4271   -2.7311 H   0  0  0  0  0  0  0  0  0  0  0  0
    4.6232   -1.8268    1.2586 H   0  0  0  0  0  0  0  0  0  0  0  0
   -6.5221   -1.5386    0.2225 H   0  0  0  0  0  0  0  0  0  0  0  0
   -4.6510    0.1363   -2.5012 H   0  0  0  0  0  0  0  0  0  0  0  0
   -1.8101    0.9277    1.6280 H   0  0  0  0  0  0  0  0  0  0  0  0
    1.6264   -0.2407    4.6685 H   0  0  0  0  0  0  0  0  0  0  0  0
   -2.1820    5.2866   -0.3582 H   0  0  0  0  0  0  0  0  0  0  0  0
    0.0874    2.4145    1.7738 H   0  0  0  0  0  0  0  0  0  0  0  0
    2.0600    1.5455   -4.6555 H   0  0  0  0  0  0  0  0  0  0  0  0
    0.2923    1.4344   -4.8700 H   0  0  0  0  0  0  0  0  0  0  0  0
    1.2539   -0.0468   -4.6915 H   0  0  0  0  0  0  0  0  0  0  0  0
   -1.0460   -1.9788   -3.6027 H   0  0  0  0  0  0  0  0  0  0  0  0
    5.2500   -0.9894   -2.1025 H   0  0  0  0  0  0  0  0  0  0  0  0
    6.9257   -0.8078   -1.3527 H   0  0  0  0  0  0  0  0  0  0  0  0
   -3.0074   -5.1107   -0.6001 H   0  0  0  0  0  0  0  0  0  0  0  0
    6.2325    2.5709    1.7538 H   0  0  0  0  0  0  0  0  0  0  0  0
  1  6  1  0  0  0  0
  1 12  1  0  0  0  0
  1 13  1  0  0  0  0
  1 14  2  0  0  0  0
  2 10  1  0  0  0  0
  2 12  1  0  0  0  0
  2 16  1  0  0  0  0
  2 18  2  0  0  0  0
  3 28  1  0  0  0  0
  3 29  1  0  0  0  0
  4 32  1  0  0  0  0
  4 33  1  0  0  0  0
  5 25  1  0  0  0  0
  5 39  1  0  0  0  0
  6 29  1  0  0  0  0
  7 27  1  0  0  0  0
  7 59  1  0  0  0  0
  8 30  1  0  0  0  0
  8 60  1  0  0  0  0
  9 31  1  0  0  0  0
  9 61  1  0  0  0  0
 10 34  1  0  0  0  0
 11 35  1  0  0  0  0
 11 63  1  0  0  0  0
 13 69  1  0  0  0  0
 15 36  2  0  0  0  0
 16 72  1  0  0  0  0
 17 37  2  0  0  0  0
 19 42  2  0  0  0  0
 20 43  1  0  0  0  0
 20 73  1  0  0  0  0
 21 43  2  0  0  0  0
 22 26  1  0  0  0  0
 22 36  1  0  0  0  0
 22 58  1  0  0  0  0
 23 33  1  0  0  0  0
 23 37  1  0  0  0  0
 23 38  1  0  0  0  0
 24 37  1  0  0  0  0
 24 42  1  0  0  0  0
 24 64  1  0  0  0  0
 25 26  1  0  0  0  0
 25 27  1  0  0  0  0
 25 45  1  0  0  0  0
 26 29  1  0  0  0  0
 26 46  1  0  0  0  0
 27 28  1  0  0  0  0
 27 47  1  0  0  0  0
 28 35  1  0  0  0  0
 28 48  1  0  0  0  0
 29 49  1  0  0  0  0
 30 31  1  0  0  0  0
 30 32  1  0  0  0  0
 30 50  1  0  0  0  0
 31 33  1  0  0  0  0
 31 51  1  0  0  0  0
 32 34  1  0  0  0  0
 32 52  1  0  0  0  0
 33 53  1  0  0  0  0
 34 54  1  0  0  0  0
 34 55  1  0  0  0  0
 35 56  1  0  0  0  0
 35 57  1  0  0  0  0
 36 41  1  0  0  0  0
 38 40  2  0  0  0  0
 38 62  1  0  0  0  0
 39 43  1  0  0  0  0
 39 44  2  0  0  0  0
 40 42  1  0  0  0  0
 40 65  1  0  0  0  0
 41 66  1  0  0  0  0
 41 67  1  0  0  0  0
 41 68  1  0  0  0  0
 44 70  1  0  0  0  0
 44 71  1  0  0  0  0
M  END
> <PUBCHEM_COMPOUND_CID>
172502

> <PUBCHEM_CONFORMER_RMSD>
1.4

> <PUBCHEM_CONFORMER_DIVERSEORDER>
1
74
164
9
23
129
140
60
144
157
116
61
104
87
3
94
22
119
29
75
19
113
15
167
132
128
20
173
11
92
14
134
21
147
81
16
170
133
112
26
114
72
84
161
48
149
53
30
17
51
35
28
55
160
122
158
130
138
2
152
79
93
142
124
117
135
42
62
137
32
163
73
46
65
162
70
102
27
103
155
4
101
115
24
125
66
153
100
107
34
159
18
127
89
109
156
67
111
33
151
131
57
141
6
110
63
120
126
145
43
50
37
148
83
136
54
143
169
52
25
174
150
105
40
88
166
80
146
168
171
58
56
139
95
165
78
97
31
12
98
69
77
7
8
123
172
36
45
47
121
41
71
96
5
64
82
44
85
68
91
118
86
13
154
38
99
59
108
90
76
10
39
106
49

> <PUBCHEM_MMFF94_PARTIAL_CHARGES>
57
1 1.51
10 -0.55
11 -0.68
12 -0.54
13 -0.77
14 -0.7
15 -0.57
16 -0.77
17 -0.57
18 -0.7
19 -0.57
2 1.51
20 -0.65
21 -0.57
22 -0.73
23 -0.47
24 -0.49
25 0.28
26 0.3
27 0.28
28 0.28
29 0.56
3 -0.56
30 0.28
31 0.28
32 0.28
33 0.58
34 0.28
35 0.28
36 0.57
37 0.69
38 -0.04
39 0.09
4 -0.56
40 -0.14
41 0.06
42 0.62
43 0.71
44 -0.3
5 -0.36
58 0.37
59 0.4
6 -0.55
60 0.4
61 0.4
62 0.15
63 0.4
64 0.37
65 0.15
69 0.5
7 -0.68
70 0.15
71 0.15
72 0.5
73 0.5
8 -0.68
9 -0.68

> <PUBCHEM_EFFECTIVE_ROTOR_COUNT>
16.2

> <PUBCHEM_PHARMACOPHORE_FEATURES>
26
1 11 acceptor
1 11 donor
1 13 acceptor
1 14 acceptor
1 15 acceptor
1 16 acceptor
1 17 acceptor
1 18 acceptor
1 19 acceptor
1 20 acceptor
1 21 acceptor
1 22 donor
1 24 donor
1 3 acceptor
1 4 acceptor
1 5 acceptor
1 7 acceptor
1 7 donor
1 8 acceptor
1 8 donor
1 9 acceptor
1 9 donor
3 20 21 43 anion
5 4 30 31 32 33 rings
6 23 24 37 38 40 42 rings
6 3 25 26 27 28 29 rings

> <PUBCHEM_HEAVY_ATOM_COUNT>
44

> <PUBCHEM_ATOM_DEF_STEREO_COUNT>
9

> <PUBCHEM_ATOM_UDEF_STEREO_COUNT>
0

> <PUBCHEM_BOND_DEF_STEREO_COUNT>
0

> <PUBCHEM_BOND_UDEF_STEREO_COUNT>
0

> <PUBCHEM_ISOTOPIC_ATOM_COUNT>
0

> <PUBCHEM_COMPONENT_COUNT>
1

> <PUBCHEM_CACTVS_TAUTO_COUNT>
6

> <PUBCHEM_CONFORMER_ID>
0002A1D600000001

> <PUBCHEM_MMFF94_ENERGY>
74.2724

> <PUBCHEM_FEATURE_SELFOVERLAP>
132.05

> <PUBCHEM_SHAPE_FINGERPRINT>
10032420 55 18118149028275756873
10675989 125 17477489072259433061
10974685 15 17903890573357540652
11488393 25 16227719160282711692
11513181 2 18265331896579153199
12128747 34 18189037854807571614
12788726 201 18413671326982495723
14040221 299 18263359351417867324
15297060 5 18191577751820151393
15876981 60 18126000468784069454
20511986 3 17632027423832513097
20600515 1 17824797006523023177
20764821 26 18120364364169838347
3493558 16 18342162367988132390
404807 14 6520230367059649280
469060 322 17680466396157610757
550186 7 18337098034304938998

> <PUBCHEM_SHAPE_MULTIPOLES>
786.74
11.76
5.66
3.13
11.49
0.42
-1.64
4.29
1.98
-6
0.27
1.85
-0.61
0.12

> <PUBCHEM_SHAPE_SELFOVERLAP>
1613.754

> <PUBCHEM_SHAPE_VOLUME>
453.1

> <PUBCHEM_COORDINATE_TYPE>
2
5
10

$$$$

