5462505
  -OEChem-07051213022D

 43 47  0     1  0  0  0  0  0999 V2000
    2.2314    0.2428    0.0000 O   0  0  0  0  0  0  0  0  0  0  0  0
    2.0000   -2.2122    0.0000 O   0  0  0  0  0  0  0  0  0  0  0  0
    2.0000    2.5922    0.0000 O   0  0  0  0  0  0  0  0  0  0  0  0
    6.1607   -0.7611    0.0000 N   0  0  3  0  0  0  0  0  0  0  0  0
    3.6897   -0.2855    0.0000 C   0  0  1  0  0  0  0  0  0  0  0  0
    4.5133   -0.7611    0.0000 C   0  0  2  0  0  0  0  0  0  0  0  0
    5.3370   -0.2855    0.0000 C   0  0  1  0  0  0  0  0  0  0  0  0
    2.8660   -0.7611    0.0000 C   0  0  2  0  0  0  0  0  0  0  0  0
    4.2392    0.4119    0.0000 C   0  0  0  0  0  0  0  0  0  0  0  0
    3.6897    0.6655    0.0000 C   0  0  0  0  0  0  0  0  0  0  0  0
    5.3370    0.6655    0.0000 C   0  0  0  0  0  0  0  0  0  0  0  0
    5.5918    0.4119    0.0000 C   0  0  0  0  0  0  0  0  0  0  0  0
    2.8660   -1.7122    0.0000 C   0  0  2  0  0  0  0  0  0  0  0  0
    4.5133    1.1411    0.0000 C   0  0  0  0  0  0  0  0  0  0  0  0
    4.5133   -1.7122    0.0000 C   0  0  0  0  0  0  0  0  0  0  0  0
    2.8660    1.1411    0.0000 C   0  0  0  0  0  0  0  0  0  0  0  0
    3.6897   -2.1877    0.0000 C   0  0  0  0  0  0  0  0  0  0  0  0
    6.8418   -1.4932    0.0000 C   0  0  0  0  0  0  0  0  0  0  0  0
    4.5133    2.0922    0.0000 C   0  0  0  0  0  0  0  0  0  0  0  0
    2.8660    2.0922    0.0000 C   0  0  0  0  0  0  0  0  0  0  0  0
    3.6897    2.5677    0.0000 C   0  0  0  0  0  0  0  0  0  0  0  0
    2.0000   -3.2122    0.0000 C   0  0  0  0  0  0  0  0  0  0  0  0
    5.0597   -1.4122    0.0000 H   0  0  0  0  0  0  0  0  0  0  0  0
    5.6284   -1.0840    0.0000 H   0  0  0  0  0  0  0  0  0  0  0  0
    2.0496   -0.9975    0.0000 H   0  0  0  0  0  0  0  0  0  0  0  0
    4.3760    1.0166    0.0000 H   0  0  0  0  0  0  0  0  0  0  0  0
    3.6796    0.6787    0.0000 H   0  0  0  0  0  0  0  0  0  0  0  0
    5.9476    0.5579    0.0000 H   0  0  0  0  0  0  0  0  0  0  0  0
    5.5490    1.2481    0.0000 H   0  0  0  0  0  0  0  0  0  0  0  0
    6.1840    0.5957    0.0000 H   0  0  0  0  0  0  0  0  0  0  0  0
    5.4989    1.0249    0.0000 H   0  0  0  0  0  0  0  0  0  0  0  0
    2.8660   -2.3322    0.0000 H   0  0  0  0  0  0  0  0  0  0  0  0
    5.0503   -2.0222    0.0000 H   0  0  0  0  0  0  0  0  0  0  0  0
    3.6897   -2.8077    0.0000 H   0  0  0  0  0  0  0  0  0  0  0  0
    6.3879   -1.9155    0.0000 H   0  0  0  0  0  0  0  0  0  0  0  0
    7.2641   -1.9471    0.0000 H   0  0  0  0  0  0  0  0  0  0  0  0
    7.2957   -1.0709    0.0000 H   0  0  0  0  0  0  0  0  0  0  0  0
    5.0503    2.4021    0.0000 H   0  0  0  0  0  0  0  0  0  0  0  0
    3.6897    3.1877    0.0000 H   0  0  0  0  0  0  0  0  0  0  0  0
    1.3800   -3.2122    0.0000 H   0  0  0  0  0  0  0  0  0  0  0  0
    2.0000   -3.8322    0.0000 H   0  0  0  0  0  0  0  0  0  0  0  0
    2.6200   -3.2122    0.0000 H   0  0  0  0  0  0  0  0  0  0  0  0
    2.0000    3.2122    0.0000 H   0  0  0  0  0  0  0  0  0  0  0  0
  1  8  1  0  0  0  0
  1 16  1  0  0  0  0
 13  2  1  6  0  0  0
  2 22  1  0  0  0  0
  3 20  1  0  0  0  0
  3 43  1  0  0  0  0
  4  7  1  0  0  0  0
  4 12  1  0  0  0  0
  4 18  1  0  0  0  0
  5  6  1  0  0  0  0
  5  8  1  0  0  0  0
  5  9  1  1  0  0  0
  5 10  1  0  0  0  0
  6  7  1  0  0  0  0
  6 15  1  0  0  0  0
  6 23  1  1  0  0  0
  7 11  1  0  0  0  0
  7 24  1  6  0  0  0
  8 13  1  0  0  0  0
  8 25  1  1  0  0  0
  9 12  1  0  0  0  0
  9 26  1  0  0  0  0
  9 27  1  0  0  0  0
 10 14  2  0  0  0  0
 10 16  1  0  0  0  0
 11 14  1  0  0  0  0
 11 28  1  0  0  0  0
 11 29  1  0  0  0  0
 12 30  1  0  0  0  0
 12 31  1  0  0  0  0
 13 17  1  0  0  0  0
 13 32  1  0  0  0  0
 14 19  1  0  0  0  0
 15 17  2  0  0  0  0
 15 33  1  0  0  0  0
 16 20  2  0  0  0  0
 17 34  1  0  0  0  0
 18 35  1  0  0  0  0
 18 36  1  0  0  0  0
 18 37  1  0  0  0  0
 19 21  2  0  0  0  0
 19 38  1  0  0  0  0
 20 21  1  0  0  0  0
 21 39  1  0  0  0  0
 22 40  1  0  0  0  0
 22 41  1  0  0  0  0
 22 42  1  0  0  0  0
M  END
> <PUBCHEM_COMPOUND_CID>
5462505

> <PUBCHEM_COMPOUND_CANONICALIZED>
1

> <PUBCHEM_CACTVS_COMPLEXITY>
509

> <PUBCHEM_CACTVS_HBOND_ACCEPTOR>
4

> <PUBCHEM_CACTVS_HBOND_DONOR>
1

> <PUBCHEM_CACTVS_ROTATABLE_BOND>
1

> <PUBCHEM_CACTVS_SUBSKEYS>
AAADceB6MAAAAAAAAAAAAAAAAAAAASAAAAA8YIEAAAAWAEjBAAAAHgAACAAADzzhmAYyBoMABgCAAiBCAAACCAAgIAAIiAAOiIgNJiKGsRuGeCOkwBGLuAew8P8PoAABAAAYQADQAAaAADSAAAAAAAAAAA==

> <PUBCHEM_IUPAC_OPENEYE_NAME>
(4R,4aR,7S,7aR,12bS)-7-methoxy-3-methyl-2,4,4a,7,7a,13-hexahydro-1H-4,12-methanobenzofuro[3,2-e]isoquinoline-9-ol

> <PUBCHEM_IUPAC_CAS_NAME>
(4R,4aR,7S,7aR,12bS)-7-methoxy-3-methyl-2,4,4a,7,7a,13-hexahydro-1H-4,12-methanobenzofuro[3,2-e]isoquinoline-9-ol

> <PUBCHEM_IUPAC_NAME>
(4R,4aR,7S,7aR,12bS)-7-methoxy-3-methyl-2,4,4a,7,7a,13-hexahydro-1H-4,12-methanobenzofuro[3,2-e]isoquinoline-9-ol

> <PUBCHEM_IUPAC_SYSTEMATIC_NAME>
(4R,4aR,7S,7aR,12bS)-7-methoxy-3-methyl-2,4,4a,7,7a,13-hexahydro-1H-4,12-methanobenzofuro[3,2-e]isoquinoline-9-ol

> <PUBCHEM_IUPAC_TRADITIONAL_NAME>
(4R,4aR,7S,7aR,12bS)-7-methoxy-3-methyl-2,4,4a,7,7a,13-hexahydro-1H-4,12-methanobenzofuro[3,2-e]isoquinoline-9-ol

> <PUBCHEM_IUPAC_INCHI>
InChI=1S/C18H21NO3/c1-19-8-7-18-11-4-6-14(21-2)17(18)22-16-13(20)5-3-10(15(16)18)9-12(11)19/h3-6,11-12,14,17,20H,7-9H2,1-2H3/t11-,12+,14-,17-,18-/m0/s1

> <PUBCHEM_IUPAC_INCHIKEY>
FNAHUZTWOVOCTL-XSSYPUMDSA-N

> <PUBCHEM_XLOGP3>
1.3

> <PUBCHEM_EXACT_MASS>
299.152144

> <PUBCHEM_MOLECULAR_FORMULA>
C18H21NO3

> <PUBCHEM_MOLECULAR_WEIGHT>
299.36424

> <PUBCHEM_OPENEYE_CAN_SMILES>
CN1CCC23C4C1CC5=C2C(=C(C=C5)O)OC3C(C=C4)OC

> <PUBCHEM_OPENEYE_ISO_SMILES>
CN1CC[C@]23[C@@H]4[C@H]1CC5=C2C(=C(C=C5)O)O[C@H]3[C@H](C=C4)OC

> <PUBCHEM_CACTVS_TPSA>
41.9

> <PUBCHEM_MONOISOTOPIC_WEIGHT>
299.152144

> <PUBCHEM_TOTAL_CHARGE>
0

> <PUBCHEM_HEAVY_ATOM_COUNT>
22

> <PUBCHEM_ATOM_DEF_STEREO_COUNT>
5

> <PUBCHEM_ATOM_UDEF_STEREO_COUNT>
0

> <PUBCHEM_BOND_DEF_STEREO_COUNT>
0

> <PUBCHEM_BOND_UDEF_STEREO_COUNT>
0

> <PUBCHEM_ISOTOPIC_ATOM_COUNT>
0

> <PUBCHEM_COMPONENT_COUNT>
1

> <PUBCHEM_CACTVS_TAUTO_COUNT>
2

> <PUBCHEM_COORDINATE_TYPE>
1
5
255

> <PUBCHEM_BONDANNOTATIONS>
10  14  8
10  16  8
14  19  8
16  20  8
19  21  8
13  2  6
20  21  8
5  9  5
6  23  5
7  24  6
8  25  5

$$$$

