442701
  -OEChem-07051212593D

 38 39  0     0  0  0  0  0  0999 V2000
    3.6922    2.3867   -0.1938 O   0  0  0  0  0  0  0  0  0  0  0  0
    3.6603   -2.4024   -0.2018 O   0  0  0  0  0  0  0  0  0  0  0  0
    5.0542   -0.0176   -0.0036 O   0  0  0  0  0  0  0  0  0  0  0  0
   -6.9322   -0.0180   -0.1845 O   0  0  0  0  0  0  0  0  0  0  0  0
   -0.5347    0.0217   -0.7929 C   0  0  0  0  0  0  0  0  0  0  0  0
   -1.3349    0.0249    0.5247 C   0  0  0  0  0  0  0  0  0  0  0  0
    0.9596    0.0111   -0.5806 C   0  0  0  0  0  0  0  0  0  0  0  0
   -2.8144    0.0139    0.3374 C   0  0  0  0  0  0  0  0  0  0  0  0
    1.6243   -1.2016   -0.4887 C   0  0  0  0  0  0  0  0  0  0  0  0
    1.6403    1.2143   -0.4829 C   0  0  0  0  0  0  0  0  0  0  0  0
    3.0215    1.2045   -0.2881 C   0  0  0  0  0  0  0  0  0  0  0  0
    3.0054   -1.2113   -0.2937 C   0  0  0  0  0  0  0  0  0  0  0  0
    3.7040   -0.0082   -0.1933 C   0  0  0  0  0  0  0  0  0  0  0  0
   -3.5148    1.2164    0.2414 C   0  0  0  0  0  0  0  0  0  0  0  0
   -3.4977   -1.1995    0.2576 C   0  0  0  0  0  0  0  0  0  0  0  0
   -4.8985    1.2055    0.0658 C   0  0  0  0  0  0  0  0  0  0  0  0
   -4.8813   -1.2104    0.0818 C   0  0  0  0  0  0  0  0  0  0  0  0
   -5.5819   -0.0080   -0.0139 C   0  0  0  0  0  0  0  0  0  0  0  0
    3.8353    2.9484    1.1093 C   0  0  0  0  0  0  0  0  0  0  0  0
    3.7932   -2.9702    1.0998 C   0  0  0  0  0  0  0  0  0  0  0  0
   -0.8104    0.8959   -1.3981 H   0  0  0  0  0  0  0  0  0  0  0  0
   -0.8206   -0.8475   -1.4005 H   0  0  0  0  0  0  0  0  0  0  0  0
   -1.0504    0.9001    1.1248 H   0  0  0  0  0  0  0  0  0  0  0  0
   -1.0402   -0.8396    1.1355 H   0  0  0  0  0  0  0  0  0  0  0  0
    1.0817   -2.1401   -0.5653 H   0  0  0  0  0  0  0  0  0  0  0  0
    1.1103    2.1604   -0.5554 H   0  0  0  0  0  0  0  0  0  0  0  0
   -2.9934    2.1682    0.2999 H   0  0  0  0  0  0  0  0  0  0  0  0
   -2.9631   -2.1431    0.3286 H   0  0  0  0  0  0  0  0  0  0  0  0
   -5.4324    2.1491   -0.0079 H   0  0  0  0  0  0  0  0  0  0  0  0
   -5.4080   -2.1588    0.0199 H   0  0  0  0  0  0  0  0  0  0  0  0
    5.3615   -0.9403   -0.0045 H   0  0  0  0  0  0  0  0  0  0  0  0
    4.3981    3.8816    1.0203 H   0  0  0  0  0  0  0  0  0  0  0  0
    4.3879    2.2676    1.7644 H   0  0  0  0  0  0  0  0  0  0  0  0
    2.8541    3.1711    1.5403 H   0  0  0  0  0  0  0  0  0  0  0  0
    2.8085   -3.2115    1.5126 H   0  0  0  0  0  0  0  0  0  0  0  0
    4.3235   -2.2867    1.7704 H   0  0  0  0  0  0  0  0  0  0  0  0
    4.3718   -3.8939    1.0131 H   0  0  0  0  0  0  0  0  0  0  0  0
   -7.2509    0.8998   -0.2301 H   0  0  0  0  0  0  0  0  0  0  0  0
  1 11  1  0  0  0  0
  1 19  1  0  0  0  0
  2 12  1  0  0  0  0
  2 20  1  0  0  0  0
  3 13  1  0  0  0  0
  3 31  1  0  0  0  0
  4 18  1  0  0  0  0
  4 38  1  0  0  0  0
  5  6  1  0  0  0  0
  5  7  1  0  0  0  0
  5 21  1  0  0  0  0
  5 22  1  0  0  0  0
  6  8  1  0  0  0  0
  6 23  1  0  0  0  0
  6 24  1  0  0  0  0
  7  9  2  0  0  0  0
  7 10  1  0  0  0  0
  8 14  2  0  0  0  0
  8 15  1  0  0  0  0
  9 12  1  0  0  0  0
  9 25  1  0  0  0  0
 10 11  2  0  0  0  0
 10 26  1  0  0  0  0
 11 13  1  0  0  0  0
 12 13  2  0  0  0  0
 14 16  1  0  0  0  0
 14 27  1  0  0  0  0
 15 17  2  0  0  0  0
 15 28  1  0  0  0  0
 16 18  2  0  0  0  0
 16 29  1  0  0  0  0
 17 18  1  0  0  0  0
 17 30  1  0  0  0  0
 19 32  1  0  0  0  0
 19 33  1  0  0  0  0
 19 34  1  0  0  0  0
 20 35  1  0  0  0  0
 20 36  1  0  0  0  0
 20 37  1  0  0  0  0
M  END
> <PUBCHEM_COMPOUND_CID>
442701

> <PUBCHEM_CONFORMER_RMSD>
0.8

> <PUBCHEM_CONFORMER_DIVERSEORDER>
1
7
9
4
5
3
2
6
8
10

> <PUBCHEM_MMFF94_PARTIAL_CHARGES>
28
1 -0.36
10 -0.15
11 0.08
12 0.08
13 0.08
14 -0.15
15 -0.15
16 -0.15
17 -0.15
18 0.08
19 0.28
2 -0.36
20 0.28
25 0.15
26 0.15
27 0.15
28 0.15
29 0.15
3 -0.53
30 0.15
31 0.45
38 0.45
4 -0.53
5 0.14
6 0.14
7 -0.14
8 -0.14
9 -0.15

> <PUBCHEM_EFFECTIVE_ROTOR_COUNT>
5

> <PUBCHEM_PHARMACOPHORE_FEATURES>
6
1 1 acceptor
1 2 acceptor
1 3 donor
1 4 donor
6 7 9 10 11 12 13 rings
6 8 14 15 16 17 18 rings

> <PUBCHEM_HEAVY_ATOM_COUNT>
20

> <PUBCHEM_ATOM_DEF_STEREO_COUNT>
0

> <PUBCHEM_ATOM_UDEF_STEREO_COUNT>
0

> <PUBCHEM_BOND_DEF_STEREO_COUNT>
0

> <PUBCHEM_BOND_UDEF_STEREO_COUNT>
0

> <PUBCHEM_ISOTOPIC_ATOM_COUNT>
0

> <PUBCHEM_COMPONENT_COUNT>
1

> <PUBCHEM_CACTVS_TAUTO_COUNT>
4

> <PUBCHEM_CONFORMER_ID>
0006C14D00000001

> <PUBCHEM_MMFF94_ENERGY>
72.3929

> <PUBCHEM_FEATURE_SELFOVERLAP>
30.446

> <PUBCHEM_SHAPE_FINGERPRINT>
10366900 7 18271511044927221824
10411042 1 18121779697997751350
10595046 47 18335983082654498453
10912923 1 17967246503834946427
11405975 8 18411132580488102081
12107183 9 17834110127876999025
12236239 1 17821727242977472078
12616971 3 17967538990960137247
13073987 5 18410288113014680393
13167372 99 18189329229747176521
13167823 11 18409448094314980895
13533116 47 18341612641970328075
13583140 156 18263075531335927843
13955234 65 18410013230427615002
14528608 73 18188206507498714061
146900 427 17822844278330376481
15196674 1 18410571791077284181
15250474 111 18262250940766249103
17834072 33 18335420149574919887
17844677 252 18336538400287829233
17857418 61 18411421730555890383
1813 80 16774074085684206663
18681886 176 17822009809561814462
200 152 18187645825783565647
20157964 124 18409449168030132373
20369508 70 18341332300991687850
20645477 70 18410289254700774414
21065198 48 18335977657731099449
21065198 57 18412823603496296469
21065199 12 18341327821261313105
21065201 7 17275103955350568529
21315764 268 18341618135576625077
21344244 78 18115040717815079762
21859007 373 17630910376428261309
22224240 67 18340494379211299850
23402539 116 18408325506355165141
23557571 272 17418098736492850589
23559900 14 18343016675052534515
239999 70 18187355533133729134
29717793 49 17604139398199827861
3004659 81 18336261331541259007
33824 294 18341892974707244954
3421961 26 18342178912160309450
34797466 226 17531235124669589925
351380 180 18411135853295405333
3545911 37 18412822469672572077
4073 2 18130780110365037651
4214541 1 18411134779659232293
474 4 18268707208519358340
5104073 3 18410285931002210131
5283173 99 18271532004668813637
542803 24 17458616809892614193
7495541 125 17531251630254976867
77779 3 18410852166410459277
9709674 26 18271797987328988427
9971528 1 17917989477621061125
9981440 41 17264677024676643149
9999458 23 18340484474900872292

> <PUBCHEM_SHAPE_MULTIPOLES>
388.11
13.99
2.58
0.85
16.24
0.04
0.1
-0.01
1.13
-4.7
0.85
-0.5
0
0.02

> <PUBCHEM_SHAPE_SELFOVERLAP>
822.264

> <PUBCHEM_SHAPE_VOLUME>
218.4

> <PUBCHEM_COORDINATE_TYPE>
2
5
10

$$$$

