11953962
  -OEChem-07051213023D

 41 42  0     1  0  0  0  0  0999 V2000
    2.0051   -1.2335   -1.7750 S   0  0  0  0  0  0  0  0  0  0  0  0
   -2.9942    3.1233   -0.1573 S   0  0  0  0  0  0  0  0  0  0  0  0
   -3.1465    1.5191   -0.4123 O   0  0  0  0  0  0  0  0  0  0  0  0
   -1.9943   -2.1965    2.0143 O   0  0  0  0  0  0  0  0  0  0  0  0
    0.0033   -4.4833    0.6049 O   0  0  0  0  0  0  0  0  0  0  0  0
    1.8631   -3.1616    0.7616 O   0  0  0  0  0  0  0  0  0  0  0  0
   -4.0301    3.7832   -1.2309 O   0  0  0  0  0  0  0  0  0  0  0  0
   -3.5067    3.4006    1.1716 O   0  0  0  0  0  0  0  0  0  0  0  0
   -1.6513    3.5358   -0.5214 O   0  0  0  0  0  0  0  0  0  0  0  0
    6.1898    1.7964   -0.2933 O   0  0  0  0  0  0  0  0  0  0  0  0
   -1.4181   -2.3614   -0.2685 N   0  0  0  0  0  0  0  0  0  0  0  0
    3.9860    1.4355    0.3807 N   0  0  0  0  0  0  0  0  0  0  0  0
   -1.9855   -1.3657   -1.2041 C   0  0  1  0  0  0  0  0  0  0  0  0
   -2.7755   -0.8118    0.0127 C   0  0  1  0  0  0  0  0  0  0  0  0
   -0.7600   -0.6796   -1.8178 C   0  0  0  0  0  0  0  0  0  0  0  0
   -2.0660   -1.9055    0.8415 C   0  0  0  0  0  0  0  0  0  0  0  0
   -2.4795    0.6012    0.4544 C   0  0  2  0  0  0  0  0  0  0  0  0
   -0.0622   -2.4257   -0.4224 C   0  0  0  0  0  0  0  0  0  0  0  0
    0.3814   -1.5190   -1.3018 C   0  0  0  0  0  0  0  0  0  0  0  0
   -2.9437    0.8405    1.8866 C   0  0  0  0  0  0  0  0  0  0  0  0
    0.7242   -3.3644    0.3712 C   0  0  0  0  0  0  0  0  0  0  0  0
    2.4257   -0.0524   -0.5942 C   0  0  0  0  0  0  0  0  0  0  0  0
    3.6418    0.5013   -0.5484 C   0  0  0  0  0  0  0  0  0  0  0  0
    5.2394    2.0260    0.4513 C   0  0  0  0  0  0  0  0  0  0  0  0
    5.3537    2.9977    1.5966 C   0  0  0  0  0  0  0  0  0  0  0  0
   -2.6237   -1.8482   -1.9559 H   0  0  0  0  0  0  0  0  0  0  0  0
   -3.8547   -1.0077   -0.0567 H   0  0  0  0  0  0  0  0  0  0  0  0
   -0.8087   -0.7356   -2.9114 H   0  0  0  0  0  0  0  0  0  0  0  0
   -0.6586    0.3706   -1.5353 H   0  0  0  0  0  0  0  0  0  0  0  0
   -1.4029    0.8029    0.4245 H   0  0  0  0  0  0  0  0  0  0  0  0
   -2.6867    0.0195    2.5587 H   0  0  0  0  0  0  0  0  0  0  0  0
   -2.4558    1.7152    2.3263 H   0  0  0  0  0  0  0  0  0  0  0  0
   -4.0297    0.9749    1.9406 H   0  0  0  0  0  0  0  0  0  0  0  0
    1.6771    0.2491    0.1340 H   0  0  0  0  0  0  0  0  0  0  0  0
    0.5027   -5.1383    1.1378 H   0  0  0  0  0  0  0  0  0  0  0  0
   -3.9662    3.4304   -2.1495 H   0  0  0  0  0  0  0  0  0  0  0  0
    4.4164    0.2277   -1.2580 H   0  0  0  0  0  0  0  0  0  0  0  0
    3.2784    1.7052    1.0598 H   0  0  0  0  0  0  0  0  0  0  0  0
    6.2398    3.6240    1.4606 H   0  0  0  0  0  0  0  0  0  0  0  0
    5.4432    2.4437    2.5350 H   0  0  0  0  0  0  0  0  0  0  0  0
    4.4729    3.6448    1.6380 H   0  0  0  0  0  0  0  0  0  0  0  0
  1 19  1  0  0  0  0
  1 22  1  0  0  0  0
  2  3  1  0  0  0  0
  2  7  1  0  0  0  0
  2  8  2  0  0  0  0
  2  9  2  0  0  0  0
  3 17  1  0  0  0  0
  4 16  2  0  0  0  0
  5 21  1  0  0  0  0
  5 35  1  0  0  0  0
  6 21  2  0  0  0  0
  7 36  1  0  0  0  0
 10 24  2  0  0  0  0
 11 13  1  0  0  0  0
 11 16  1  0  0  0  0
 11 18  1  0  0  0  0
 12 23  1  0  0  0  0
 12 24  1  0  0  0  0
 12 38  1  0  0  0  0
 13 14  1  0  0  0  0
 13 15  1  0  0  0  0
 13 26  1  0  0  0  0
 14 16  1  0  0  0  0
 14 17  1  0  0  0  0
 14 27  1  0  0  0  0
 15 19  1  0  0  0  0
 15 28  1  0  0  0  0
 15 29  1  0  0  0  0
 17 20  1  0  0  0  0
 17 30  1  0  0  0  0
 18 19  2  0  0  0  0
 18 21  1  0  0  0  0
 20 31  1  0  0  0  0
 20 32  1  0  0  0  0
 20 33  1  0  0  0  0
 22 23  2  0  0  0  0
 22 34  1  0  0  0  0
 23 37  1  0  0  0  0
 24 25  1  0  0  0  0
 25 39  1  0  0  0  0
 25 40  1  0  0  0  0
 25 41  1  0  0  0  0
M  END
> <PUBCHEM_COMPOUND_CID>
11953962

> <PUBCHEM_CONFORMER_RMSD>
1

> <PUBCHEM_CONFORMER_DIVERSEORDER>
1
8
15
24
20
7
14
25
11
18
23
6
21
16
17
28
13
19
4
31
30
29
34
10
35
26
2
27
32
5
3
33
9
22
12

> <PUBCHEM_MMFF94_PARTIAL_CHARGES>
29
1 -0.2
10 -0.57
11 -0.39
12 -0.54
13 0.22
14 0.05
15 0.14
16 0.58
17 0.28
18 0.12
19 -0.04
2 1.67
21 0.71
22 -0.05
23 -0.04
24 0.57
25 0.06
3 -0.46
34 0.15
35 0.5
36 0.5
37 0.15
38 0.37
4 -0.57
5 -0.65
6 -0.57
7 -0.68
8 -0.65
9 -0.65

> <PUBCHEM_EFFECTIVE_ROTOR_COUNT>
8.4

> <PUBCHEM_PHARMACOPHORE_FEATURES>
11
1 10 acceptor
1 12 donor
1 4 acceptor
1 5 acceptor
1 6 acceptor
1 7 acceptor
1 8 acceptor
1 9 acceptor
3 5 6 21 anion
4 2 7 8 9 anion
7 11 13 14 15 16 18 19 rings

> <PUBCHEM_HEAVY_ATOM_COUNT>
25

> <PUBCHEM_ATOM_DEF_STEREO_COUNT>
3

> <PUBCHEM_ATOM_UDEF_STEREO_COUNT>
0

> <PUBCHEM_BOND_DEF_STEREO_COUNT>
1

> <PUBCHEM_BOND_UDEF_STEREO_COUNT>
0

> <PUBCHEM_ISOTOPIC_ATOM_COUNT>
0

> <PUBCHEM_COMPONENT_COUNT>
1

> <PUBCHEM_CACTVS_TAUTO_COUNT>
2

> <PUBCHEM_CONFORMER_ID>
00B6672A00000001

> <PUBCHEM_MMFF94_ENERGY>
72.7987

> <PUBCHEM_FEATURE_SELFOVERLAP>
55.931

> <PUBCHEM_SHAPE_FINGERPRINT>
10670039 82 18120357780239058860
10930396 42 17905916689497858888
11014199 57 17690561880137975392
12633257 1 15913037725279411492
13134695 92 17259341597062683999
13383661 66 9000513820924291392
14178342 30 17987780978089062935
14251764 38 18049445047892446057
21315764 268 17969505901493861696
21401589 2 18261105257796117312
21475661 188 18263362667327701494
23466295 7 6519381543624004917
3187 122 18196640805561145569
469060 322 18196633121885810971
508706 21 18117286848346332448
9981440 41 18342461443382379691

> <PUBCHEM_SHAPE_MULTIPOLES>
465.27
9.36
5.72
1.67
17
1.15
0.12
12.84
2.25
-2.85
1.02
-0.43
-0.14
1.78

> <PUBCHEM_SHAPE_SELFOVERLAP>
950.106

> <PUBCHEM_SHAPE_VOLUME>
271.5

> <PUBCHEM_COORDINATE_TYPE>
2
5
10

$$$$

