39676
  -OEChem-07051213003D

 27 28  0     1  0  0  0  0  0999 V2000
    3.9853   -2.5247   -0.6000 Cl  0  0  0  0  0  0  0  0  0  0  0  0
    3.7335    2.8038    0.2195 Cl  0  0  0  0  0  0  0  0  0  0  0  0
   -2.5389   -0.9643    0.6165 O   0  0  0  0  0  0  0  0  0  0  0  0
   -1.1783    1.9714   -0.6568 O   0  0  0  0  0  0  0  0  0  0  0  0
   -0.7697   -2.2829    1.0887 O   0  0  0  0  0  0  0  0  0  0  0  0
   -0.5051   -0.1258    0.1933 N   0  0  0  0  0  0  0  0  0  0  0  0
   -2.7742    0.3785    0.1881 C   0  0  2  0  0  0  0  0  0  0  0  0
   -1.3896    0.8793   -0.1470 C   0  0  0  0  0  0  0  0  0  0  0  0
   -3.3880    1.1732    1.3311 C   0  0  0  0  0  0  0  0  0  0  0  0
   -1.1945   -1.2198    0.6571 C   0  0  0  0  0  0  0  0  0  0  0  0
    0.9182   -0.0393    0.0683 C   0  0  0  0  0  0  0  0  0  0  0  0
   -3.6310    0.3688   -1.0326 C   0  0  0  0  0  0  0  0  0  0  0  0
    1.5603    1.1959    0.1903 C   0  0  0  0  0  0  0  0  0  0  0  0
    1.6731   -1.1896   -0.1761 C   0  0  0  0  0  0  0  0  0  0  0  0
    3.0601   -1.1052   -0.2979 C   0  0  0  0  0  0  0  0  0  0  0  0
    2.9472    1.2802    0.0684 C   0  0  0  0  0  0  0  0  0  0  0  0
   -4.2056   -0.7292   -1.5351 C   0  0  0  0  0  0  0  0  0  0  0  0
    3.6971    0.1296   -0.1758 C   0  0  0  0  0  0  0  0  0  0  0  0
   -3.5605    2.2188    1.0532 H   0  0  0  0  0  0  0  0  0  0  0  0
   -4.3415    0.7347    1.6477 H   0  0  0  0  0  0  0  0  0  0  0  0
   -2.7327    1.1645    2.2101 H   0  0  0  0  0  0  0  0  0  0  0  0
   -3.8110    1.3173   -1.5336 H   0  0  0  0  0  0  0  0  0  0  0  0
    1.0003    2.1001    0.4121 H   0  0  0  0  0  0  0  0  0  0  0  0
    1.1970   -2.1571   -0.3079 H   0  0  0  0  0  0  0  0  0  0  0  0
   -4.8233   -0.6548   -2.4244 H   0  0  0  0  0  0  0  0  0  0  0  0
   -4.0926   -1.7134   -1.0962 H   0  0  0  0  0  0  0  0  0  0  0  0
    4.7788    0.1954   -0.2709 H   0  0  0  0  0  0  0  0  0  0  0  0
  1 15  1  0  0  0  0
  2 16  1  0  0  0  0
  3  7  1  0  0  0  0
  3 10  1  0  0  0  0
  4  8  2  0  0  0  0
  5 10  2  0  0  0  0
  6  8  1  0  0  0  0
  6 10  1  0  0  0  0
  6 11  1  0  0  0  0
  7  8  1  0  0  0  0
  7  9  1  0  0  0  0
  7 12  1  0  0  0  0
  9 19  1  0  0  0  0
  9 20  1  0  0  0  0
  9 21  1  0  0  0  0
 11 13  2  0  0  0  0
 11 14  1  0  0  0  0
 12 17  2  0  0  0  0
 12 22  1  0  0  0  0
 13 16  1  0  0  0  0
 13 23  1  0  0  0  0
 14 15  2  0  0  0  0
 14 24  1  0  0  0  0
 15 18  1  0  0  0  0
 16 18  2  0  0  0  0
 17 25  1  0  0  0  0
 17 26  1  0  0  0  0
 18 27  1  0  0  0  0
M  END
> <PUBCHEM_COMPOUND_CID>
39676

> <PUBCHEM_CONFORMER_RMSD>
0.6

> <PUBCHEM_CONFORMER_DIVERSEORDER>
1
2
5
4
6
3

> <PUBCHEM_MMFF94_PARTIAL_CHARGES>
23
1 -0.18
10 0.78
11 0.12
12 -0.29
13 -0.15
14 -0.15
15 0.18
16 0.18
17 -0.3
18 -0.15
2 -0.18
22 0.15
23 0.15
24 0.15
25 0.15
26 0.15
27 0.15
3 -0.43
4 -0.57
5 -0.57
6 -0.24
7 0.48
8 0.57

> <PUBCHEM_EFFECTIVE_ROTOR_COUNT>
2.6

> <PUBCHEM_PHARMACOPHORE_FEATURES>
5
1 17 hydrophobe
1 4 acceptor
1 5 acceptor
5 3 6 7 8 10 rings
6 11 13 14 15 16 18 rings

> <PUBCHEM_HEAVY_ATOM_COUNT>
18

> <PUBCHEM_ATOM_DEF_STEREO_COUNT>
0

> <PUBCHEM_ATOM_UDEF_STEREO_COUNT>
1

> <PUBCHEM_BOND_DEF_STEREO_COUNT>
0

> <PUBCHEM_BOND_UDEF_STEREO_COUNT>
0

> <PUBCHEM_ISOTOPIC_ATOM_COUNT>
0

> <PUBCHEM_COMPONENT_COUNT>
1

> <PUBCHEM_CACTVS_TAUTO_COUNT>
1

> <PUBCHEM_CONFORMER_ID>
00009AFC00000001

> <PUBCHEM_MMFF94_ENERGY>
45.2089

> <PUBCHEM_FEATURE_SELFOVERLAP>
25.371

> <PUBCHEM_SHAPE_FINGERPRINT>
10062212 137 17895196666091509247
10366900 7 18262520286744330680
10608611 8 18412825768107397400
11132069 177 18058454209788901388
11471102 20 18409730668945380348
11543360 7 17240765034246044597
12403259 415 18060420235611155973
12916754 54 18334017215587388967
13140716 1 18342449335722022274
13296908 3 17704066287570530969
13380535 76 18340211791104946722
13583140 156 16128382527835207193
14250199 8 18409449210547217173
14289901 80 17968097499310797168
15219456 202 18340482275270838000
15375358 24 18271814458296264916
15442244 35 18190734431044676208
15848702 151 18042403693501660167
16945 1 18271809089460434171
18186145 218 18201716288299320955
19026448 5 17676486159500854177
19422 9 17967816067505324989
200 152 17967821552194360255
20279233 1 18272935994521447160
20281475 54 18186241744575581991
20528008 55 18343024363023005796
20645477 56 18131350769658037413
20645477 70 18410015437877456390
21069387 34 18113616828381748926
21486144 27 18342739602586198404
21501502 16 18259981587003655225
22096605 113 18261679168801457224
221490 88 18410848850659231670
22182313 1 18201148841652570251
23402539 116 18339648943982781844
23402655 69 18334580178304691645
23493267 7 16271639104888263465
23557571 272 17774716450853407454
23559900 14 18411703184331765930
2748010 2 18199738168091695810
312423 11 18113610196735576053
3286 77 17386301951001825393
4028521 119 18201728344509806965
5104073 3 18412257333253626904
633830 44 18340209682413076493
69090 78 18410298003559569223
7364860 26 18408038516450450984
81228 2 17700397092915506243
8809292 202 18270950341167973298
9709674 26 18410290307152293582
9971528 1 18188493600867563130
9981440 41 17901119529151154048

> <PUBCHEM_SHAPE_MULTIPOLES>
351.58
8.19
2.53
1.05
0.36
0.18
0.04
0.03
1.75
-3.03
-0.11
1.19
-0.16
0.13

> <PUBCHEM_SHAPE_SELFOVERLAP>
739.407

> <PUBCHEM_SHAPE_VOLUME>
202

> <PUBCHEM_COORDINATE_TYPE>
2
5
10

$$$$

