12160163
  -OEChem-07051213123D

 52 56  0     1  0  0  0  0  0999 V2000
   -2.8879   -1.6583   -0.9085 O   0  0  0  0  0  0  0  0  0  0  0  0
   -2.7414   -3.8597   -0.3004 O   0  0  0  0  0  0  0  0  0  0  0  0
    2.0103   -1.8097   -1.0824 O   0  0  0  0  0  0  0  0  0  0  0  0
   -0.7412    3.6096    1.0940 O   0  0  0  0  0  0  0  0  0  0  0  0
    1.1763    3.3046   -0.4619 O   0  0  0  0  0  0  0  0  0  0  0  0
    4.4647   -1.6368   -0.2413 O   0  0  0  0  0  0  0  0  0  0  0  0
   -0.6618   -1.0690   -0.6911 N   0  0  3  0  0  0  0  0  0  0  0  0
   -0.7365   -2.4752   -0.3488 C   0  0  1  0  0  0  0  0  0  0  0  0
   -1.9490   -0.6218   -1.1858 C   0  0  2  0  0  0  0  0  0  0  0  0
   -0.3316   -2.7414    1.0932 C   0  0  2  0  0  0  0  0  0  0  0  0
    0.3860   -0.1704   -0.5235 C   0  0  0  0  0  0  0  0  0  0  0  0
   -2.3137    0.7003   -0.5521 C   0  0  0  0  0  0  0  0  0  0  0  0
   -2.2121   -2.7787   -0.5122 C   0  0  0  0  0  0  0  0  0  0  0  0
    0.1519    1.1433   -0.3026 C   0  0  0  0  0  0  0  0  0  0  0  0
   -1.2747    1.5681   -0.1299 C   0  0  0  0  0  0  0  0  0  0  0  0
   -0.5530   -4.2268    1.4422 C   0  0  0  0  0  0  0  0  0  0  0  0
   -1.1004   -1.8099    2.0364 C   0  0  0  0  0  0  0  0  0  0  0  0
    1.7815   -0.6900   -0.6399 C   0  0  0  0  0  0  0  0  0  0  0  0
   -3.6561    1.0874   -0.4259 C   0  0  0  0  0  0  0  0  0  0  0  0
    1.2935    2.1053   -0.2404 C   0  0  0  0  0  0  0  0  0  0  0  0
   -1.6335    2.7798    0.4800 C   0  0  0  0  0  0  0  0  0  0  0  0
    2.8819    0.2004   -0.2397 C   0  0  0  0  0  0  0  0  0  0  0  0
    2.6450    1.5570   -0.0465 C   0  0  0  0  0  0  0  0  0  0  0  0
    0.2956   -5.1865    0.6204 C   0  0  0  0  0  0  0  0  0  0  0  0
   -3.9837    2.3069    0.1591 C   0  0  0  0  0  0  0  0  0  0  0  0
   -2.9750    3.1463    0.6194 C   0  0  0  0  0  0  0  0  0  0  0  0
    4.1735   -0.3148   -0.0787 C   0  0  0  0  0  0  0  0  0  0  0  0
    3.6986    2.4080    0.3079 C   0  0  0  0  0  0  0  0  0  0  0  0
   -5.4130    2.7063    0.3042 C   0  0  0  0  0  0  0  0  0  0  0  0
    5.2214    0.5330    0.2810 C   0  0  0  0  0  0  0  0  0  0  0  0
    4.9843    1.8925    0.4739 C   0  0  0  0  0  0  0  0  0  0  0  0
   -0.1834   -3.0672   -1.0836 H   0  0  0  0  0  0  0  0  0  0  0  0
   -1.9091   -0.4878   -2.2745 H   0  0  0  0  0  0  0  0  0  0  0  0
    0.7355   -2.5246    1.2253 H   0  0  0  0  0  0  0  0  0  0  0  0
   -1.5986   -4.5377    1.4610 H   0  0  0  0  0  0  0  0  0  0  0  0
   -0.2294   -4.3524    2.4858 H   0  0  0  0  0  0  0  0  0  0  0  0
   -2.1857   -1.9226    1.9513 H   0  0  0  0  0  0  0  0  0  0  0  0
   -0.8472   -0.7570    1.8975 H   0  0  0  0  0  0  0  0  0  0  0  0
   -0.8417   -2.0474    3.0754 H   0  0  0  0  0  0  0  0  0  0  0  0
   -4.4464    0.4299   -0.7804 H   0  0  0  0  0  0  0  0  0  0  0  0
    0.2364   -6.1946    1.0434 H   0  0  0  0  0  0  0  0  0  0  0  0
    1.3475   -4.8836    0.6193 H   0  0  0  0  0  0  0  0  0  0  0  0
   -0.0516   -5.2449   -0.4150 H   0  0  0  0  0  0  0  0  0  0  0  0
   -3.2415    4.0816    1.1073 H   0  0  0  0  0  0  0  0  0  0  0  0
    3.5367    3.4712    0.4638 H   0  0  0  0  0  0  0  0  0  0  0  0
   -5.8041    2.3603    1.2661 H   0  0  0  0  0  0  0  0  0  0  0  0
   -5.5265    3.7944    0.2496 H   0  0  0  0  0  0  0  0  0  0  0  0
   -6.0262    2.2805   -0.4973 H   0  0  0  0  0  0  0  0  0  0  0  0
   -1.2005    4.3819    1.4653 H   0  0  0  0  0  0  0  0  0  0  0  0
    6.2294    0.1497    0.4156 H   0  0  0  0  0  0  0  0  0  0  0  0
    5.8011    2.5519    0.7529 H   0  0  0  0  0  0  0  0  0  0  0  0
    5.4125   -1.7832   -0.0806 H   0  0  0  0  0  0  0  0  0  0  0  0
  1  9  1  0  0  0  0
  1 13  1  0  0  0  0
  2 13  2  0  0  0  0
  3 18  2  0  0  0  0
  4 21  1  0  0  0  0
  4 49  1  0  0  0  0
  5 20  2  0  0  0  0
  6 27  1  0  0  0  0
  6 52  1  0  0  0  0
  7  8  1  0  0  0  0
  7  9  1  0  0  0  0
  7 11  1  0  0  0  0
  8 10  1  0  0  0  0
  8 13  1  0  0  0  0
  8 32  1  0  0  0  0
  9 12  1  0  0  0  0
  9 33  1  0  0  0  0
 10 16  1  0  0  0  0
 10 17  1  0  0  0  0
 10 34  1  0  0  0  0
 11 14  2  0  0  0  0
 11 18  1  0  0  0  0
 12 15  2  0  0  0  0
 12 19  1  0  0  0  0
 14 15  1  0  0  0  0
 14 20  1  0  0  0  0
 15 21  1  0  0  0  0
 16 24  1  0  0  0  0
 16 35  1  0  0  0  0
 16 36  1  0  0  0  0
 17 37  1  0  0  0  0
 17 38  1  0  0  0  0
 17 39  1  0  0  0  0
 18 22  1  0  0  0  0
 19 25  2  0  0  0  0
 19 40  1  0  0  0  0
 20 23  1  0  0  0  0
 21 26  2  0  0  0  0
 22 23  2  0  0  0  0
 22 27  1  0  0  0  0
 23 28  1  0  0  0  0
 24 41  1  0  0  0  0
 24 42  1  0  0  0  0
 24 43  1  0  0  0  0
 25 26  1  0  0  0  0
 25 29  1  0  0  0  0
 26 44  1  0  0  0  0
 27 30  2  0  0  0  0
 28 31  2  0  0  0  0
 28 45  1  0  0  0  0
 29 46  1  0  0  0  0
 29 47  1  0  0  0  0
 29 48  1  0  0  0  0
 30 31  1  0  0  0  0
 30 50  1  0  0  0  0
 31 51  1  0  0  0  0
M  END
> <PUBCHEM_COMPOUND_CID>
12160163

> <PUBCHEM_CONFORMER_RMSD>
0.8

> <PUBCHEM_CONFORMER_DIVERSEORDER>
1

> <PUBCHEM_MMFF94_PARTIAL_CHARGES>
34
1 -0.43
11 0.11
12 -0.14
13 0.66
14 -0.01
15 0.03
18 0.47
19 -0.15
2 -0.57
20 0.47
21 0.08
22 0.09
23 0.09
25 -0.14
26 -0.15
27 0.08
28 -0.15
29 0.14
3 -0.57
30 -0.15
31 -0.15
4 -0.53
40 0.15
44 0.15
45 0.15
49 0.45
5 -0.57
50 0.15
51 0.15
52 0.45
6 -0.53
7 -0.84
8 0.43
9 0.79

> <PUBCHEM_EFFECTIVE_ROTOR_COUNT>
2.4

> <PUBCHEM_PHARMACOPHORE_FEATURES>
13
1 17 hydrophobe
1 2 acceptor
1 24 hydrophobe
1 3 acceptor
1 4 donor
1 5 acceptor
1 6 donor
1 7 cation
5 1 7 8 9 13 rings
6 11 14 18 20 22 23 rings
6 12 15 19 21 25 26 rings
6 22 23 27 28 30 31 rings
6 7 9 11 12 14 15 rings

> <PUBCHEM_HEAVY_ATOM_COUNT>
31

> <PUBCHEM_ATOM_DEF_STEREO_COUNT>
3

> <PUBCHEM_ATOM_UDEF_STEREO_COUNT>
0

> <PUBCHEM_BOND_DEF_STEREO_COUNT>
0

> <PUBCHEM_BOND_UDEF_STEREO_COUNT>
0

> <PUBCHEM_ISOTOPIC_ATOM_COUNT>
0

> <PUBCHEM_COMPONENT_COUNT>
1

> <PUBCHEM_CACTVS_TAUTO_COUNT>
72

> <PUBCHEM_CONFORMER_ID>
00B98CA300000001

> <PUBCHEM_MMFF94_ENERGY>
100.5525

> <PUBCHEM_FEATURE_SELFOVERLAP>
66.143

> <PUBCHEM_SHAPE_FINGERPRINT>
10319926 262 18189074048871202968
10411042 1 17831866741698992311
10616163 171 18335422305791252236
1100329 8 18409451426829664420
11534866 41 17630582705342666521
12156800 1 15549889976748690338
12293681 4 18052259492373821011
12633257 1 18270132317733722928
12788726 201 18196383510939296034
13140716 1 18411138081882259021
138480 1 17256807226833529231
140371 6 18052260583237349140
14790565 3 18264202698206355969
14866123 147 18411140229350518250
14955137 171 17257933126867758339
15927050 60 18337391655449539791
16728300 4 16981825910437048762
19591789 44 17688305012041036260
20642791 13 18336552603306684686
20775438 99 16095212242380020783
21133410 171 17256025096870019234
23558518 356 18340485547814378117
23559900 14 17693952790866702100
23845131 108 18272087258072157651
283562 15 18340216172278167479
3178227 256 18123452041427908289
335352 9 18263082270540802188
3380486 145 17478318739248893603
3383291 50 18340211799526648402
350125 39 18337390435979183205
392239 28 18337377345039996265
4073 2 18410857617420641112
4340502 62 17845078749045114545
5104073 3 18337123267855014640
5309563 4 17258211870297535586
6004065 56 15673528191098241996
6287921 2 17615708652884580099
9709674 26 18333730200398265740
9981440 41 18262246534208190354

> <PUBCHEM_SHAPE_MULTIPOLES>
597.77
8.23
6.02
1.11
4.48
5.86
-0.3
-6.94
-0.24
-3.11
-1.94
-0.35
0.64
-0.31

> <PUBCHEM_SHAPE_SELFOVERLAP>
1348.461

> <PUBCHEM_SHAPE_VOLUME>
312.8

> <PUBCHEM_COORDINATE_TYPE>
2
5
10

$$$$

