11643509
  -OEChem-07051213042D

108113  0     1  0  0  0  0  0999 V2000
   11.7815    2.4197    0.0000 O   0  0  0  0  0  0  0  0  0  0  0  0
    9.9892   -0.6431    0.0000 O   0  0  0  0  0  0  0  0  0  0  0  0
    7.3912    1.8568    0.0000 O   0  0  0  0  0  0  0  0  0  0  0  0
    9.1232    2.8568    0.0000 O   0  0  0  0  0  0  0  0  0  0  0  0
    6.4396    1.4139    0.0000 O   0  0  0  0  0  0  0  0  0  0  0  0
    5.1413    0.8297    0.0000 O   0  0  0  0  0  0  0  0  0  0  0  0
   11.7376    3.3982    0.0000 O   0  0  0  0  0  0  0  0  0  0  0  0
    4.1666   -2.6124    0.0000 O   0  0  0  0  0  0  0  0  0  0  0  0
    3.7320   -1.1988    0.0000 O   0  0  0  0  0  0  0  0  0  0  0  0
   10.0057    3.3848    0.0000 O   0  0  0  0  0  0  0  0  0  0  0  0
    7.0904    3.5626    0.0000 O   0  0  0  0  0  0  0  0  0  0  0  0
    7.3912    2.8568    0.0000 O   0  0  0  0  0  0  0  0  0  0  0  0
    4.7079    1.4473    0.0000 O   0  0  0  0  0  0  0  0  0  0  0  0
    4.2672   -4.3568    0.0000 O   0  0  0  0  0  0  0  0  0  0  0  0
    3.5070    0.2562    0.0000 O   0  0  0  0  0  0  0  0  0  0  0  0
    2.8660    0.3012    0.0000 O   0  0  0  0  0  0  0  0  0  0  0  0
    8.2572    0.3569    0.0000 C   0  0  1  0  0  0  0  0  0  0  0  0
    9.1232   -0.1431    0.0000 C   0  0  2  0  0  0  0  0  0  0  0  0
    9.9892    1.3568    0.0000 C   0  0  2  0  0  0  0  0  0  0  0  0
    9.9892    0.3569    0.0000 C   0  0  2  0  0  0  0  0  0  0  0  0
    7.3472   -0.1500    0.0000 C   0  0  2  0  0  0  0  0  0  0  0  0
    7.3392   -1.1916    0.0000 C   0  0  1  0  0  0  0  0  0  0  0  0
   10.8832    1.8915    0.0000 C   0  0  1  0  0  0  0  0  0  0  0  0
    8.2572    1.3568    0.0000 C   0  0  1  0  0  0  0  0  0  0  0  0
    9.1232    1.8568    0.0000 C   0  0  2  0  0  0  0  0  0  0  0  0
    9.1393   -1.1846    0.0000 C   0  0  0  0  0  0  0  0  0  0  0  0
    8.2412   -1.7124    0.0000 C   0  0  0  0  0  0  0  0  0  0  0  0
   11.7892    1.3777    0.0000 C   0  0  1  0  0  0  0  0  0  0  0  0
    6.4037   -1.7413    0.0000 C   0  0  1  0  0  0  0  0  0  0  0  0
    6.4204    0.4141    0.0000 C   0  0  1  0  0  0  0  0  0  0  0  0
   10.8832   -0.1778    0.0000 C   0  0  0  0  0  0  0  0  0  0  0  0
    5.4641   -1.1988    0.0000 C   0  0  2  0  0  0  0  0  0  0  0  0
    5.4725   -0.1139    0.0000 C   0  0  1  0  0  0  0  0  0  0  0  0
    7.3912    0.8569    0.0000 C   0  0  0  0  0  0  0  0  0  0  0  0
    9.9892    2.3568    0.0000 C   0  0  0  0  0  0  0  0  0  0  0  0
   11.7892    0.3360    0.0000 C   0  0  0  0  0  0  0  0  0  0  0  0
    7.3314   -2.1916    0.0000 C   0  0  0  0  0  0  0  0  0  0  0  0
   10.8755    2.8915    0.0000 C   0  0  0  0  0  0  0  0  0  0  0  0
    4.5981   -0.6988    0.0000 C   0  0  3  0  0  0  0  0  0  0  0  0
    4.4761   -1.5942    0.0000 C   0  0  0  0  0  0  0  0  0  0  0  0
    6.5553   -2.7946    0.0000 C   0  0  0  0  0  0  0  0  0  0  0  0
   12.6533   -0.1673    0.0000 C   0  0  0  0  0  0  0  0  0  0  0  0
    4.5981    0.3012    0.0000 C   0  0  0  0  0  0  0  0  0  0  0  0
    5.8283   -3.5718    0.0000 C   0  0  0  0  0  0  0  0  0  0  0  0
    6.7484    2.6229    0.0000 C   0  0  0  0  0  0  0  0  0  0  0  0
    8.2572    3.3568    0.0000 C   0  0  0  0  0  0  0  0  0  0  0  0
    5.5834    1.9305    0.0000 C   0  0  0  0  0  0  0  0  0  0  0  0
    4.7672   -3.4908    0.0000 C   0  0  0  0  0  0  0  0  0  0  0  0
    4.1586    1.0148    0.0000 C   0  0  0  0  0  0  0  0  0  0  0  0
   12.6075    2.9048    0.0000 C   0  0  0  0  0  0  0  0  0  0  0  0
    5.8086    2.9649    0.0000 C   0  0  0  0  0  0  0  0  0  0  0  0
    8.2572    4.3568    0.0000 C   0  0  0  0  0  0  0  0  0  0  0  0
    2.8660   -0.6988    0.0000 C   0  0  0  0  0  0  0  0  0  0  0  0
    5.1002    2.8060    0.0000 C   0  0  0  0  0  0  0  0  0  0  0  0
    3.8275    1.9583    0.0000 C   0  0  0  0  0  0  0  0  0  0  0  0
    2.0000   -1.1988    0.0000 C   0  0  0  0  0  0  0  0  0  0  0  0
    9.8626   -0.5625    0.0000 H   0  0  0  0  0  0  0  0  0  0  0  0
    7.3636    0.6999    0.0000 H   0  0  0  0  0  0  0  0  0  0  0  0
    7.7202    1.0468    0.0000 H   0  0  0  0  0  0  0  0  0  0  0  0
    8.5863    2.1668    0.0000 H   0  0  0  0  0  0  0  0  0  0  0  0
    9.3573   -1.7650    0.0000 H   0  0  0  0  0  0  0  0  0  0  0  0
    9.7484   -1.0692    0.0000 H   0  0  0  0  0  0  0  0  0  0  0  0
    7.8439   -2.1884    0.0000 H   0  0  0  0  0  0  0  0  0  0  0  0
    8.6422   -2.1853    0.0000 H   0  0  0  0  0  0  0  0  0  0  0  0
   12.6392    1.3808    0.0000 H   0  0  0  0  0  0  0  0  0  0  0  0
    7.1697   -2.1097    0.0000 H   0  0  0  0  0  0  0  0  0  0  0  0
    5.8889    0.7334    0.0000 H   0  0  0  0  0  0  0  0  0  0  0  0
   10.4786   -0.6476    0.0000 H   0  0  0  0  0  0  0  0  0  0  0  0
   11.2768   -0.6568    0.0000 H   0  0  0  0  0  0  0  0  0  0  0  0
    4.8609   -0.2156    0.0000 H   0  0  0  0  0  0  0  0  0  0  0  0
    7.7012    1.3938    0.0000 H   0  0  0  0  0  0  0  0  0  0  0  0
    6.8542    1.1668    0.0000 H   0  0  0  0  0  0  0  0  0  0  0  0
    7.0812    0.3199    0.0000 H   0  0  0  0  0  0  0  0  0  0  0  0
   10.6092    2.3568    0.0000 H   0  0  0  0  0  0  0  0  0  0  0  0
    9.9892    2.9769    0.0000 H   0  0  0  0  0  0  0  0  0  0  0  0
    9.3692    2.3568    0.0000 H   0  0  0  0  0  0  0  0  0  0  0  0
    6.7115   -2.1868    0.0000 H   0  0  0  0  0  0  0  0  0  0  0  0
    7.3267   -2.8115    0.0000 H   0  0  0  0  0  0  0  0  0  0  0  0
    7.9514   -2.1963    0.0000 H   0  0  0  0  0  0  0  0  0  0  0  0
   10.5262   -0.9531    0.0000 H   0  0  0  0  0  0  0  0  0  0  0  0
    4.5981   -1.3188    0.0000 H   0  0  0  0  0  0  0  0  0  0  0  0
    4.3802   -0.9817    0.0000 H   0  0  0  0  0  0  0  0  0  0  0  0
    3.8577   -1.5510    0.0000 H   0  0  0  0  0  0  0  0  0  0  0  0
    7.1467   -2.9806    0.0000 H   0  0  0  0  0  0  0  0  0  0  0  0
   12.6510   -0.7873    0.0000 H   0  0  0  0  0  0  0  0  0  0  0  0
   13.1915    0.1406    0.0000 H   0  0  0  0  0  0  0  0  0  0  0  0
    5.2181    0.3012    0.0000 H   0  0  0  0  0  0  0  0  0  0  0  0
    4.5981    0.9212    0.0000 H   0  0  0  0  0  0  0  0  0  0  0  0
    3.9781    0.3012    0.0000 H   0  0  0  0  0  0  0  0  0  0  0  0
    6.0533   -4.1495    0.0000 H   0  0  0  0  0  0  0  0  0  0  0  0
   12.3016    2.3655    0.0000 H   0  0  0  0  0  0  0  0  0  0  0  0
   13.1468    2.5990    0.0000 H   0  0  0  0  0  0  0  0  0  0  0  0
   12.9133    3.4442    0.0000 H   0  0  0  0  0  0  0  0  0  0  0  0
    6.0207    3.5475    0.0000 H   0  0  0  0  0  0  0  0  0  0  0  0
    5.2260    3.1770    0.0000 H   0  0  0  0  0  0  0  0  0  0  0  0
    5.5966    2.3823    0.0000 H   0  0  0  0  0  0  0  0  0  0  0  0
    8.8772    4.3568    0.0000 H   0  0  0  0  0  0  0  0  0  0  0  0
    8.2572    4.9768    0.0000 H   0  0  0  0  0  0  0  0  0  0  0  0
    7.6372    4.3568    0.0000 H   0  0  0  0  0  0  0  0  0  0  0  0
    5.6430    3.1056    0.0000 H   0  0  0  0  0  0  0  0  0  0  0  0
    4.8006    3.3488    0.0000 H   0  0  0  0  0  0  0  0  0  0  0  0
    4.5574    2.5064    0.0000 H   0  0  0  0  0  0  0  0  0  0  0  0
    4.4125    2.1636    0.0000 H   0  0  0  0  0  0  0  0  0  0  0  0
    3.6222    2.5434    0.0000 H   0  0  0  0  0  0  0  0  0  0  0  0
    3.2424    1.7530    0.0000 H   0  0  0  0  0  0  0  0  0  0  0  0
    1.6900   -0.6619    0.0000 H   0  0  0  0  0  0  0  0  0  0  0  0
    1.4631   -1.5088    0.0000 H   0  0  0  0  0  0  0  0  0  0  0  0
    2.3100   -1.7358    0.0000 H   0  0  0  0  0  0  0  0  0  0  0  0
  1 23  1  0  0  0  0
  1 28  1  0  0  0  0
 20  2  1  6  0  0  0
  2 80  1  0  0  0  0
 24  3  1  6  0  0  0
  3 45  1  0  0  0  0
 25  4  1  6  0  0  0
  4 46  1  0  0  0  0
 30  5  1  1  0  0  0
  5 47  1  0  0  0  0
 33  6  1  1  0  0  0
  6 49  1  0  0  0  0
  7 38  1  0  0  0  0
  7 50  1  0  0  0  0
  8 40  1  0  0  0  0
  8 48  1  0  0  0  0
  9 39  1  0  0  0  0
  9 53  1  0  0  0  0
 10 38  2  0  0  0  0
 11 45  2  0  0  0  0
 12 46  2  0  0  0  0
 13 47  2  0  0  0  0
 14 48  2  0  0  0  0
 15 49  2  0  0  0  0
 16 53  2  0  0  0  0
 17 18  1  0  0  0  0
 17 21  1  0  0  0  0
 17 24  1  0  0  0  0
 17 34  1  6  0  0  0
 18 20  1  0  0  0  0
 18 26  1  0  0  0  0
 18 57  1  1  0  0  0
 19 20  1  0  0  0  0
 19 23  1  0  0  0  0
 19 25  1  0  0  0  0
 19 35  1  6  0  0  0
 20 31  1  0  0  0  0
 21 22  1  0  0  0  0
 21 30  1  0  0  0  0
 21 58  1  1  0  0  0
 22 27  1  0  0  0  0
 22 29  1  0  0  0  0
 22 37  1  6  0  0  0
 23 28  1  0  0  0  0
 23 38  1  1  0  0  0
 24 25  1  0  0  0  0
 24 59  1  0  0  0  0
 25 60  1  0  0  0  0
 26 27  1  0  0  0  0
 26 61  1  0  0  0  0
 26 62  1  0  0  0  0
 27 63  1  0  0  0  0
 27 64  1  0  0  0  0
 28 36  1  0  0  0  0
 28 65  1  1  0  0  0
 29 32  1  0  0  0  0
 29 41  1  0  0  0  0
 29 66  1  1  0  0  0
 30 33  1  0  0  0  0
 30 67  1  0  0  0  0
 31 36  1  0  0  0  0
 31 68  1  0  0  0  0
 31 69  1  0  0  0  0
 32 33  1  0  0  0  0
 32 39  1  1  0  0  0
 32 40  1  0  0  0  0
 33 70  1  0  0  0  0
 34 71  1  0  0  0  0
 34 72  1  0  0  0  0
 34 73  1  0  0  0  0
 35 74  1  0  0  0  0
 35 75  1  0  0  0  0
 35 76  1  0  0  0  0
 36 42  2  0  0  0  0
 37 77  1  0  0  0  0
 37 78  1  0  0  0  0
 37 79  1  0  0  0  0
 39 43  1  0  0  0  0
 39 81  1  0  0  0  0
 40 82  1  0  0  0  0
 40 83  1  0  0  0  0
 41 44  2  0  0  0  0
 41 84  1  0  0  0  0
 42 85  1  0  0  0  0
 42 86  1  0  0  0  0
 43 87  1  0  0  0  0
 43 88  1  0  0  0  0
 43 89  1  0  0  0  0
 44 48  1  0  0  0  0
 44 90  1  0  0  0  0
 45 51  1  0  0  0  0
 46 52  1  0  0  0  0
 47 54  1  0  0  0  0
 49 55  1  0  0  0  0
 50 91  1  0  0  0  0
 50 92  1  0  0  0  0
 50 93  1  0  0  0  0
 51 94  1  0  0  0  0
 51 95  1  0  0  0  0
 51 96  1  0  0  0  0
 52 97  1  0  0  0  0
 52 98  1  0  0  0  0
 52 99  1  0  0  0  0
 53 56  1  0  0  0  0
 54100  1  0  0  0  0
 54101  1  0  0  0  0
 54102  1  0  0  0  0
 55103  1  0  0  0  0
 55104  1  0  0  0  0
 55105  1  0  0  0  0
 56106  1  0  0  0  0
 56107  1  0  0  0  0
 56108  1  0  0  0  0
M  END
> <PUBCHEM_COMPOUND_CID>
11643509

> <PUBCHEM_COMPOUND_CANONICALIZED>
1

> <PUBCHEM_CACTVS_COMPLEXITY>
1800

> <PUBCHEM_CACTVS_HBOND_ACCEPTOR>
16

> <PUBCHEM_CACTVS_HBOND_DONOR>
1

> <PUBCHEM_CACTVS_ROTATABLE_BOND>
13

> <PUBCHEM_CACTVS_SUBSKEYS>
AAADcfB8PgAAAAAAAAAAAAAAEgAAAAAAAAAwYMGABIgAAADAAAAAGgAACAAAD1SggAICCAAABgCIAiDSCAIAAAAgAAAICAFAAEgBBBYAIQQCUAAF4AAKIYPK7PzPgAAAAAAAAADCAAYQADCAAAAAAAAAAA==

> <PUBCHEM_IUPAC_INCHI>
InChI=1S/C40H52O16/c1-18-16-39(48)26-14-15-35(8)25-12-13-27(46)50-17-38(25,19(2)51-20(3)41)31(53-22(5)43)28(52-21(4)42)29(35)36(26,9)32(54-23(6)44)33(55-24(7)45)37(39,10)40(30(18)56-40)34(47)49-11/h12-13,19,25-26,28-33,48H,1,14-17H2,2-11H3/t19?,25-,26+,28-,29-,30+,31-,32+,33-,35-,36-,37+,38+,39+,40-/m0/s1

> <PUBCHEM_IUPAC_INCHIKEY>
VKDXHXWBOARFPD-IHWRNOMOSA-N

> <PUBCHEM_XLOGP3_AA>
2.4

> <PUBCHEM_EXACT_MASS>
788.325536

> <PUBCHEM_MOLECULAR_FORMULA>
C40H52O16

> <PUBCHEM_MOLECULAR_WEIGHT>
788.83128

> <PUBCHEM_OPENEYE_CAN_SMILES>
CC(C12COC(=O)C=CC1C3(CCC4C(C3C(C2OC(=O)C)OC(=O)C)(C(C(C5(C4(CC(=C)C6C5(O6)C(=O)OC)O)C)OC(=O)C)OC(=O)C)C)C)OC(=O)C

> <PUBCHEM_OPENEYE_ISO_SMILES>
CC([C@]12COC(=O)C=C[C@H]1[C@@]3(CC[C@@H]4[C@@]([C@H]3[C@@H]([C@@H]2OC(=O)C)OC(=O)C)([C@@H]([C@@H]([C@@]5([C@]4(CC(=C)[C@@H]6[C@]5(O6)C(=O)OC)O)C)OC(=O)C)OC(=O)C)C)C)OC(=O)C

> <PUBCHEM_CACTVS_TPSA>
217

> <PUBCHEM_MONOISOTOPIC_WEIGHT>
788.325536

> <PUBCHEM_TOTAL_CHARGE>
0

> <PUBCHEM_HEAVY_ATOM_COUNT>
56

> <PUBCHEM_ATOM_DEF_STEREO_COUNT>
14

> <PUBCHEM_ATOM_UDEF_STEREO_COUNT>
1

> <PUBCHEM_BOND_DEF_STEREO_COUNT>
0

> <PUBCHEM_BOND_UDEF_STEREO_COUNT>
0

> <PUBCHEM_ISOTOPIC_ATOM_COUNT>
0

> <PUBCHEM_COMPONENT_COUNT>
1

> <PUBCHEM_CACTVS_TAUTO_COUNT>
1

> <PUBCHEM_COORDINATE_TYPE>
1
5
255

> <PUBCHEM_BONDANNOTATIONS>
17  34  6
18  57  5
19  35  6
20  2  6
21  58  5
22  37  6
23  38  5
28  65  5
29  66  5
24  3  6
32  39  5
39  43  3
25  4  6
30  5  5
33  6  5

$$$$

