656579
  -OEChem-07051213012D

 63 67  0     1  0  0  0  0  0999 V2000
    6.2560    4.5987    0.0000 I  -2  0  0  0  0  0  0  0  0  0  0  0
    6.2800   -3.4257    0.0000 O   0  0  0  0  0  0  0  0  0  0  0  0
    8.8943    1.1289    0.0000 O   0  0  0  0  0  0  0  0  0  0  0  0
    9.7430    2.6389    0.0000 O   0  0  0  0  0  0  0  0  0  0  0  0
    4.0731   -5.4315    0.0000 N   0  0  3  0  0  0  0  0  0  0  0  0
    5.4140    0.0743    0.0000 N   0  0  0  0  0  0  0  0  0  0  0  0
    7.1624    1.1089    0.0000 N   0  0  0  0  0  0  0  0  0  0  0  0
    7.9763    5.6186    0.0000 N   0  0  0  0  0  0  0  0  0  0  0  0
    8.8365    6.1286    0.0000 N   0  3  0  0  0  0  0  0  0  0  0  0
    9.6967    6.6386    0.0000 N   0  5  0  0  0  0  0  0  0  0  0  0
    3.5731   -4.5655    0.0000 C   0  0  3  0  0  0  0  0  0  0  0  0
    6.2638   -4.9832    0.0000 C   0  0  2  0  0  0  0  0  0  0  0  0
    4.5480   -3.4257    0.0000 C   0  0  1  0  0  0  0  0  0  0  0  0
    3.5820   -3.1669    0.0000 C   0  0  0  0  0  0  0  0  0  0  0  0
    6.0050   -5.9491    0.0000 C   0  0  0  0  0  0  0  0  0  0  0  0
    2.0000   -5.7726    0.0000 C   0  0  0  0  0  0  0  0  0  0  0  0
    2.5000   -6.6386    0.0000 C   0  0  0  0  0  0  0  0  0  0  0  0
    7.1298   -4.4832    0.0000 C   0  0  0  0  0  0  0  0  0  0  0  0
    5.4140   -2.9257    0.0000 C   0  0  1  0  0  0  0  0  0  0  0  0
    5.4140   -1.9257    0.0000 C   0  0  0  0  0  0  0  0  0  0  0  0
    7.9958   -4.9832    0.0000 C   0  0  0  0  0  0  0  0  0  0  0  0
    6.2800   -1.4257    0.0000 C   0  0  0  0  0  0  0  0  0  0  0  0
    4.5480   -1.4257    0.0000 C   0  0  0  0  0  0  0  0  0  0  0  0
    6.2800   -0.4257    0.0000 C   0  0  0  0  0  0  0  0  0  0  0  0
    7.1740   -1.9603    0.0000 C   0  0  0  0  0  0  0  0  0  0  0  0
    4.5480   -0.4257    0.0000 C   0  0  0  0  0  0  0  0  0  0  0  0
    7.1740    0.1090    0.0000 C   0  0  0  0  0  0  0  0  0  0  0  0
    8.0800   -1.4465    0.0000 C   0  0  0  0  0  0  0  0  0  0  0  0
    8.0800   -0.4049    0.0000 C   0  0  0  0  0  0  0  0  0  0  0  0
    8.0226    1.6189    0.0000 C   0  0  0  0  0  0  0  0  0  0  0  0
    8.0110    2.6188    0.0000 C   0  0  0  0  0  0  0  0  0  0  0  0
    8.8712    3.1288    0.0000 C   0  0  0  0  0  0  0  0  0  0  0  0
    7.1393    3.1088    0.0000 C   0  0  0  0  0  0  0  0  0  0  0  0
    8.8596    4.1287    0.0000 C   0  0  0  0  0  0  0  0  0  0  0  0
    7.1277    4.1087    0.0000 C   0  0  0  0  0  0  0  0  0  0  0  0
    7.9879    4.6187    0.0000 C   0  0  0  0  0  0  0  0  0  0  0  0
    3.7267   -5.1662    0.0000 H   0  0  0  0  0  0  0  0  0  0  0  0
    6.1499   -4.3738    0.0000 H   0  0  0  0  0  0  0  0  0  0  0  0
    5.2298   -3.9332    0.0000 H   0  0  0  0  0  0  0  0  0  0  0  0
    3.6910   -2.5565    0.0000 H   0  0  0  0  0  0  0  0  0  0  0  0
    2.9646   -3.1102    0.0000 H   0  0  0  0  0  0  0  0  0  0  0  0
    5.8445   -6.5480    0.0000 H   0  0  0  0  0  0  0  0  0  0  0  0
    6.6039   -6.1096    0.0000 H   0  0  0  0  0  0  0  0  0  0  0  0
    1.6444   -5.2647    0.0000 H   0  0  0  0  0  0  0  0  0  0  0  0
    1.4771   -6.1057    0.0000 H   0  0  0  0  0  0  0  0  0  0  0  0
    1.9771   -6.9717    0.0000 H   0  0  0  0  0  0  0  0  0  0  0  0
    2.8556   -7.1465    0.0000 H   0  0  0  0  0  0  0  0  0  0  0  0
    7.5284   -4.0082    0.0000 H   0  0  0  0  0  0  0  0  0  0  0  0
    6.7313   -4.0082    0.0000 H   0  0  0  0  0  0  0  0  0  0  0  0
    5.4140   -3.5457    0.0000 H   0  0  0  0  0  0  0  0  0  0  0  0
    7.6858   -5.5201    0.0000 H   0  0  0  0  0  0  0  0  0  0  0  0
    8.5328   -5.2932    0.0000 H   0  0  0  0  0  0  0  0  0  0  0  0
    8.3058   -4.4463    0.0000 H   0  0  0  0  0  0  0  0  0  0  0  0
    6.8170   -3.1157    0.0000 H   0  0  0  0  0  0  0  0  0  0  0  0
    4.0110   -1.7357    0.0000 H   0  0  0  0  0  0  0  0  0  0  0  0
    7.1668   -2.5803    0.0000 H   0  0  0  0  0  0  0  0  0  0  0  0
    4.0110   -0.1157    0.0000 H   0  0  0  0  0  0  0  0  0  0  0  0
    8.6158   -1.7586    0.0000 H   0  0  0  0  0  0  0  0  0  0  0  0
    8.6158   -0.0928    0.0000 H   0  0  0  0  0  0  0  0  0  0  0  0
    6.6219    1.4127    0.0000 H   0  0  0  0  0  0  0  0  0  0  0  0
    6.6060    2.7926    0.0000 H   0  0  0  0  0  0  0  0  0  0  0  0
    9.3930    4.4449    0.0000 H   0  0  0  0  0  0  0  0  0  0  0  0
   10.2763    2.9550    0.0000 H   0  0  0  0  0  0  0  0  0  0  0  0
  1 35  1  0  0  0  0
 19  2  1  1  0  0  0
  2 54  1  0  0  0  0
  3 30  2  0  0  0  0
  4 32  1  0  0  0  0
  4 63  1  0  0  0  0
  5 13  1  0  0  0  0
  5 15  1  0  0  0  0
  5 17  1  0  0  0  0
  6 24  2  0  0  0  0
  6 26  1  0  0  0  0
  7 27  1  0  0  0  0
  7 30  1  0  0  0  0
  7 60  1  0  0  0  0
  8  9  2  0  0  0  0
  8 36  1  0  0  0  0
  9 10  2  0  0  0  0
 11 12  1  0  0  0  0
 11 14  1  0  0  0  0
 11 16  1  0  0  0  0
 11 37  1  0  0  0  0
 12 15  1  0  0  0  0
 12 18  1  1  0  0  0
 12 38  1  0  0  0  0
 13 14  1  0  0  0  0
 13 19  1  0  0  0  0
 13 39  1  6  0  0  0
 14 40  1  0  0  0  0
 14 41  1  0  0  0  0
 15 42  1  0  0  0  0
 15 43  1  0  0  0  0
 16 17  1  0  0  0  0
 16 44  1  0  0  0  0
 16 45  1  0  0  0  0
 17 46  1  0  0  0  0
 17 47  1  0  0  0  0
 18 21  1  0  0  0  0
 18 48  1  0  0  0  0
 18 49  1  0  0  0  0
 19 20  1  0  0  0  0
 19 50  1  0  0  0  0
 20 22  2  0  0  0  0
 20 23  1  0  0  0  0
 21 51  1  0  0  0  0
 21 52  1  0  0  0  0
 21 53  1  0  0  0  0
 22 24  1  0  0  0  0
 22 25  1  0  0  0  0
 23 26  2  0  0  0  0
 23 55  1  0  0  0  0
 24 27  1  0  0  0  0
 25 28  2  0  0  0  0
 25 56  1  0  0  0  0
 26 57  1  0  0  0  0
 27 29  2  0  0  0  0
 28 29  1  0  0  0  0
 28 58  1  0  0  0  0
 29 59  1  0  0  0  0
 30 31  1  0  0  0  0
 31 32  1  0  0  0  0
 31 33  2  0  0  0  0
 32 34  2  0  0  0  0
 33 35  1  0  0  0  0
 33 61  1  0  0  0  0
 34 36  1  0  0  0  0
 34 62  1  0  0  0  0
 35 36  2  0  0  0  0
M  CHG  2   9   1  10  -1
M  ISO  1   1 125
M  END
> <PUBCHEM_COMPOUND_CID>
656579

> <PUBCHEM_COMPOUND_CANONICALIZED>
1

> <PUBCHEM_CACTVS_COMPLEXITY>
843

> <PUBCHEM_CACTVS_HBOND_ACCEPTOR>
7

> <PUBCHEM_CACTVS_HBOND_DONOR>
3

> <PUBCHEM_CACTVS_ROTATABLE_BOND>
6

> <PUBCHEM_CACTVS_SUBSKEYS>
AAADceB7sAAAAgAAAAAAAAAAAAAAAAAAAAA8eLFiAAAAAACx9AAAHgA4CAAADTzjngY+xvPIEgCqAzV3VACCgCA1MiAI2CE+fNgKdvbClZOUcUhm9BnY2Ye42fOeiAAAQgAKACAQAACEABQAQAAAAAAAAA==

> <PUBCHEM_IUPAC_OPENEYE_NAME>
4-azido-N-[4-[(R)-[(2S,5R)-5-ethylquinuclidin-2-yl]-hydroxy-methyl]-8-quinolyl]-2-hydroxy-5-iodanyl-benzamide

> <PUBCHEM_IUPAC_CAS_NAME>
4-azido-N-[4-[(R)-[(2S,5R)-5-ethyl-1-azabicyclo[2.2.2]octan-2-yl]-hydroxymethyl]-8-quinolinyl]-2-hydroxy-5-iodanylbenzamide

> <PUBCHEM_IUPAC_NAME>
4-azido-N-[4-[(R)-[(2S,5R)-5-ethyl-1-azabicyclo[2.2.2]octan-2-yl]-hydroxymethyl]quinolin-8-yl]-2-hydroxy-5-iodanylbenzamide

> <PUBCHEM_IUPAC_SYSTEMATIC_NAME>
4-azido-N-[4-[(R)-[(2S,5R)-5-ethyl-1-azabicyclo[2.2.2]octan-2-yl]-oxidanyl-methyl]quinolin-8-yl]-5-iodanyl-2-oxidanyl-benzamide

> <PUBCHEM_IUPAC_TRADITIONAL_NAME>
4-azido-N-[4-[(R)-[(2S,5R)-5-ethylquinuclidin-2-yl]-hydroxy-methyl]-8-quinolyl]-2-hydroxy-5-iodanyl-benzamide

> <PUBCHEM_IUPAC_INCHI>
InChI=1S/C26H27IN6O3/c1-2-14-13-33-9-7-15(14)10-22(33)25(35)17-6-8-29-24-16(17)4-3-5-20(24)30-26(36)18-11-19(27)21(31-32-28)12-23(18)34/h3-6,8,11-12,14-15,22,25,34-35H,2,7,9-10,13H2,1H3,(H,30,36)/t14-,15?,22-,25+/m0/s1/i27-2

> <PUBCHEM_IUPAC_INCHIKEY>
VWFWJPJMAFRNET-MQWMPURMSA-N

> <PUBCHEM_XLOGP3_AA>
5.7

> <PUBCHEM_EXACT_MASS>
596.119094

> <PUBCHEM_MOLECULAR_FORMULA>
C26H27IN6O3

> <PUBCHEM_MOLECULAR_WEIGHT>
596.43561

> <PUBCHEM_OPENEYE_CAN_SMILES>
CCC1CN2CCC1CC2C(C3=C4C=CC=C(C4=NC=C3)NC(=O)C5=CC(=C(C=C5O)N=[N+]=[N-])I)O

> <PUBCHEM_OPENEYE_ISO_SMILES>
CC[C@H]1CN2CCC1C[C@H]2[C@@H](C3=C4C=CC=C(C4=NC=C3)NC(=O)C5=CC(=C(C=C5O)N=[N+]=[N-])[125I])O

> <PUBCHEM_CACTVS_TPSA>
100

> <PUBCHEM_MONOISOTOPIC_WEIGHT>
596.119094

> <PUBCHEM_TOTAL_CHARGE>
0

> <PUBCHEM_HEAVY_ATOM_COUNT>
36

> <PUBCHEM_ATOM_DEF_STEREO_COUNT>
3

> <PUBCHEM_ATOM_UDEF_STEREO_COUNT>
1

> <PUBCHEM_BOND_DEF_STEREO_COUNT>
0

> <PUBCHEM_BOND_UDEF_STEREO_COUNT>
0

> <PUBCHEM_ISOTOPIC_ATOM_COUNT>
1

> <PUBCHEM_COMPONENT_COUNT>
1

> <PUBCHEM_CACTVS_TAUTO_COUNT>
7

> <PUBCHEM_COORDINATE_TYPE>
1
5
255

> <PUBCHEM_BONDANNOTATIONS>
11  16  3
12  18  5
13  39  6
19  2  5
20  22  8
20  23  8
22  24  8
22  25  8
23  26  8
24  27  8
25  28  8
27  29  8
28  29  8
31  32  8
31  33  8
32  34  8
33  35  8
34  36  8
35  36  8
6  24  8
6  26  8

$$$$

