5281573
  -OEChem-07051212583D

 60 62  0     1  0  0  0  0  0999 V2000
   -6.4786    1.5968    1.2341 O   0  0  0  0  0  0  0  0  0  0  0  0
   -6.0624   -1.4679   -1.2186 O   0  0  0  0  0  0  0  0  0  0  0  0
   -3.9261   -2.5420   -0.5895 O   0  0  0  0  0  0  0  0  0  0  0  0
    1.8033   -0.7304    1.5347 O   0  0  0  0  0  0  0  0  0  0  0  0
   -1.6684   -3.5619    0.0261 O   0  0  0  0  0  0  0  0  0  0  0  0
   -6.1510    2.0035   -0.0987 C   0  0  1  0  0  0  0  0  0  0  0  0
   -4.6540    2.3208   -0.1855 C   0  0  0  0  0  0  0  0  0  0  0  0
   -6.5283    0.8712   -1.0523 C   0  0  0  0  0  0  0  0  0  0  0  0
   -3.7971    1.0888   -0.0497 C   0  0  0  0  0  0  0  0  0  0  0  0
   -4.2705   -0.1823   -0.3890 C   0  0  0  0  0  0  0  0  0  0  0  0
   -5.6554   -0.3558   -0.8924 C   0  0  0  0  0  0  0  0  0  0  0  0
   -6.9801    3.2529   -0.4106 C   0  0  0  0  0  0  0  0  0  0  0  0
   -2.4714    1.2235    0.3910 C   0  0  0  0  0  0  0  0  0  0  0  0
   -3.4409   -1.3048   -0.2645 C   0  0  0  0  0  0  0  0  0  0  0  0
   -1.6264    0.1090    0.5210 C   0  0  0  0  0  0  0  0  0  0  0  0
   -2.1191   -1.1730    0.1909 C   0  0  0  0  0  0  0  0  0  0  0  0
   -0.3025    0.2415    0.9717 C   0  0  0  0  0  0  0  0  0  0  0  0
   -1.2743   -2.2878    0.3218 C   0  0  0  0  0  0  0  0  0  0  0  0
    0.5230   -0.8762    1.0967 C   0  0  0  0  0  0  0  0  0  0  0  0
    0.0377   -2.1391    0.7722 C   0  0  0  0  0  0  0  0  0  0  0  0
    2.4556    0.5026    1.2350 C   0  0  0  0  0  0  0  0  0  0  0  0
    6.0627   -0.3950   -0.1297 C   0  0  0  0  0  0  0  0  0  0  0  0
    4.5769   -0.1128   -0.0507 C   0  0  0  0  0  0  0  0  0  0  0  0
    3.9189    0.2403    1.0707 C   0  0  0  0  0  0  0  0  0  0  0  0
    6.8198    0.5406   -1.0814 C   0  0  0  0  0  0  0  0  0  0  0  0
    3.8225   -0.2870   -1.3441 C   0  0  0  0  0  0  0  0  0  0  0  0
    8.2938    0.2468   -1.1297 C   0  0  0  0  0  0  0  0  0  0  0  0
    9.2824    0.8386   -0.4332 C   0  0  0  0  0  0  0  0  0  0  0  0
   10.7120    0.4076   -0.6269 C   0  0  0  0  0  0  0  0  0  0  0  0
    9.0978    1.9314    0.5808 C   0  0  0  0  0  0  0  0  0  0  0  0
   -4.4165    2.7937   -1.1467 H   0  0  0  0  0  0  0  0  0  0  0  0
   -4.3915    3.0244    0.6151 H   0  0  0  0  0  0  0  0  0  0  0  0
   -7.5622    0.5559   -0.8646 H   0  0  0  0  0  0  0  0  0  0  0  0
   -6.4481    1.1931   -2.0974 H   0  0  0  0  0  0  0  0  0  0  0  0
   -6.7824    3.6282   -1.4200 H   0  0  0  0  0  0  0  0  0  0  0  0
   -8.0527    3.0444   -0.3238 H   0  0  0  0  0  0  0  0  0  0  0  0
   -6.7607    4.0524    0.3062 H   0  0  0  0  0  0  0  0  0  0  0  0
   -2.0956    2.2154    0.6394 H   0  0  0  0  0  0  0  0  0  0  0  0
   -7.4327    1.4124    1.2690 H   0  0  0  0  0  0  0  0  0  0  0  0
    0.0466    1.2328    1.2523 H   0  0  0  0  0  0  0  0  0  0  0  0
    0.6923   -3.0017    0.8734 H   0  0  0  0  0  0  0  0  0  0  0  0
   -3.2031   -3.1613   -0.7710 H   0  0  0  0  0  0  0  0  0  0  0  0
   -0.9347   -4.1799    0.1854 H   0  0  0  0  0  0  0  0  0  0  0  0
    2.0711    0.9846    0.3278 H   0  0  0  0  0  0  0  0  0  0  0  0
    2.3088    1.1964    2.0713 H   0  0  0  0  0  0  0  0  0  0  0  0
    6.2050   -1.4374   -0.4436 H   0  0  0  0  0  0  0  0  0  0  0  0
    6.5043   -0.3191    0.8729 H   0  0  0  0  0  0  0  0  0  0  0  0
    4.5005    0.3287    1.9872 H   0  0  0  0  0  0  0  0  0  0  0  0
    6.6397    1.5849   -0.8018 H   0  0  0  0  0  0  0  0  0  0  0  0
    6.4303    0.4396   -2.1022 H   0  0  0  0  0  0  0  0  0  0  0  0
    3.9790    0.5789   -1.9952 H   0  0  0  0  0  0  0  0  0  0  0  0
    4.1785   -1.1802   -1.8698 H   0  0  0  0  0  0  0  0  0  0  0  0
    2.7462   -0.4239   -1.2131 H   0  0  0  0  0  0  0  0  0  0  0  0
    8.5623   -0.5512   -1.8210 H   0  0  0  0  0  0  0  0  0  0  0  0
   11.3204    1.2546   -0.9608 H   0  0  0  0  0  0  0  0  0  0  0  0
   10.8118   -0.3869   -1.3740 H   0  0  0  0  0  0  0  0  0  0  0  0
   11.1258    0.0316    0.3146 H   0  0  0  0  0  0  0  0  0  0  0  0
    9.5419    1.6370    1.5377 H   0  0  0  0  0  0  0  0  0  0  0  0
    8.0477    2.1647    0.7737 H   0  0  0  0  0  0  0  0  0  0  0  0
    9.5882    2.8491    0.2402 H   0  0  0  0  0  0  0  0  0  0  0  0
  1  6  1  0  0  0  0
  1 39  1  0  0  0  0
  2 11  2  0  0  0  0
  3 14  1  0  0  0  0
  3 42  1  0  0  0  0
  4 19  1  0  0  0  0
  4 21  1  0  0  0  0
  5 18  1  0  0  0  0
  5 43  1  0  0  0  0
  6  7  1  0  0  0  0
  6  8  1  0  0  0  0
  6 12  1  0  0  0  0
  7  9  1  0  0  0  0
  7 31  1  0  0  0  0
  7 32  1  0  0  0  0
  8 11  1  0  0  0  0
  8 33  1  0  0  0  0
  8 34  1  0  0  0  0
  9 10  1  0  0  0  0
  9 13  2  0  0  0  0
 10 11  1  0  0  0  0
 10 14  2  0  0  0  0
 12 35  1  0  0  0  0
 12 36  1  0  0  0  0
 12 37  1  0  0  0  0
 13 15  1  0  0  0  0
 13 38  1  0  0  0  0
 14 16  1  0  0  0  0
 15 16  1  0  0  0  0
 15 17  2  0  0  0  0
 16 18  2  0  0  0  0
 17 19  1  0  0  0  0
 17 40  1  0  0  0  0
 18 20  1  0  0  0  0
 19 20  2  0  0  0  0
 20 41  1  0  0  0  0
 21 24  1  0  0  0  0
 21 44  1  0  0  0  0
 21 45  1  0  0  0  0
 22 23  1  0  0  0  0
 22 25  1  0  0  0  0
 22 46  1  0  0  0  0
 22 47  1  0  0  0  0
 23 24  2  0  0  0  0
 23 26  1  0  0  0  0
 24 48  1  0  0  0  0
 25 27  1  0  0  0  0
 25 49  1  0  0  0  0
 25 50  1  0  0  0  0
 26 51  1  0  0  0  0
 26 52  1  0  0  0  0
 26 53  1  0  0  0  0
 27 28  2  0  0  0  0
 27 54  1  0  0  0  0
 28 29  1  0  0  0  0
 28 30  1  0  0  0  0
 29 55  1  0  0  0  0
 29 56  1  0  0  0  0
 29 57  1  0  0  0  0
 30 58  1  0  0  0  0
 30 59  1  0  0  0  0
 30 60  1  0  0  0  0
M  END
> <PUBCHEM_COMPOUND_CID>
5281573

> <PUBCHEM_CONFORMER_RMSD>
1

> <PUBCHEM_CONFORMER_DIVERSEORDER>
14
36
136
193
77
180
310
295
304
12
274
57
145
99
24
286
129
228
83
148
227
198
152
170
69
188
239
240
171
142
217
167
68
26
280
45
126
278
119
298
210
80
27
281
220
103
299
109
13
207
190
147
202
123
258
311
257
203
267
55
87
82
29
175
33
75
81
169
30
73
199
155
192
162
244
303
305
230
225
157
101
296
234
16
37
242
70
185
273
42
65
20
250
214
309
158
308
181
248
49
90
52
8
107
223
245
233
125
135
213
191
114
156
76
279
229
277
168
74
38
206
247
226
249
176
39
112
163
53
260
289
173
266
186
238
151
17
31
218
256
89
35
141
276
64
189
7
246
154
120
164
84
146
259
265
194
268
300
44
243
301
179
2
134
110
254
241
137
235
284
22
216
46
209
312
283
41
292
32
232
111
236
1
54
139
302
143
270
177
178
166
21
4
66
253
172
187
159
261
282
183
252
23
149
121
201
200
28
6
211
72
287
97
25
219
262
294
19
306
15
78
150
222
307
138
215
51
118
104
117
127
18
61
291
251
197
130
272
195
184
62
60
132
160
10
58
204
275
56
224
11
122
153
86
94
95
48
263
161
108
196
105
237
85
50
124
290
88
67
293
133
131
297
174
43
9
288
140
212
71
144
34
271
91
5
165
221
106
79
47
93
264
285
128
40
3
115
63
208
92
113
116
255
96
182
205
269
102
231
100
98
59

> <PUBCHEM_MMFF94_PARTIAL_CHARGES>
35
1 -0.68
10 0.09
11 0.42
13 -0.15
14 0.08
17 -0.15
18 0.08
19 0.08
2 -0.57
20 -0.15
21 0.42
22 0.14
23 -0.28
24 -0.29
25 0.14
26 0.14
27 -0.29
28 -0.28
29 0.14
3 -0.53
30 0.14
38 0.15
39 0.4
4 -0.36
40 0.15
41 0.15
42 0.45
43 0.45
48 0.15
5 -0.53
54 0.15
6 0.28
7 0.14
8 0.06
9 -0.14

> <PUBCHEM_EFFECTIVE_ROTOR_COUNT>
6.6

> <PUBCHEM_PHARMACOPHORE_FEATURES>
12
1 1 acceptor
1 1 donor
1 2 acceptor
1 26 hydrophobe
1 3 donor
1 4 acceptor
1 5 donor
3 28 29 30 hydrophobe
4 22 23 25 27 hydrophobe
6 15 16 17 18 19 20 rings
6 6 7 8 9 10 11 rings
6 9 10 13 14 15 16 rings

> <PUBCHEM_HEAVY_ATOM_COUNT>
30

> <PUBCHEM_ATOM_DEF_STEREO_COUNT>
0

> <PUBCHEM_ATOM_UDEF_STEREO_COUNT>
1

> <PUBCHEM_BOND_DEF_STEREO_COUNT>
1

> <PUBCHEM_BOND_UDEF_STEREO_COUNT>
0

> <PUBCHEM_ISOTOPIC_ATOM_COUNT>
0

> <PUBCHEM_COMPONENT_COUNT>
1

> <PUBCHEM_CACTVS_TAUTO_COUNT>
100

> <PUBCHEM_CONFORMER_ID>
005097250000000E

> <PUBCHEM_MMFF94_ENERGY>
83.7546

> <PUBCHEM_FEATURE_SELFOVERLAP>
60.959

> <PUBCHEM_SHAPE_FINGERPRINT>
10 15 12535343489999665854
10190206 1 17895190064716590425
10369192 42 18341332275253208469
10411042 1 17907578026700418523
10670039 82 18413674612421714021
10835480 77 18187361031192897560
11135609 187 18409728503717796194
11315181 36 17603579708384865106
12082328 90 18410575072195363614
12390115 104 18260269690175031683
12758862 11 18260267422269035848
13383668 90 17676494921687657567
14840074 17 17632859741639903085
150020 25 17968094202000013480
15183329 4 17968095369165280538
15276724 80 17703516566807692788
15461852 350 18186520969522329262
15575132 122 17916594266417511309
15604295 49 18340489946895779892
1577012 14 18201725072003333218
20505436 4 17988927790524064498
21133410 127 17912368924873699165
21298829 104 18273494585594603852
21360443 89 8502363409224018900
21756936 100 17775280551942571163
23559900 14 18040442074505229520
23576562 1 18198906915921226060
3633792 109 18412258472617848002
44280117 145 18267583495167614086
445580 204 18201719557233760716
4516262 110 17846508066177942055
5028188 123 17822012000417037813
5470011 282 17095239221120298100
5937810 71 18040991886122836576
6201320 82 17631179773635598685

> <PUBCHEM_SHAPE_MULTIPOLES>
588.04
28.81
2.71
1.22
69.61
0.56
-0.05
-19.35
9.42
-5.62
0.01
0.49
0.03
-0.37

> <PUBCHEM_SHAPE_SELFOVERLAP>
1253.831

> <PUBCHEM_SHAPE_VOLUME>
326.4

> <PUBCHEM_COORDINATE_TYPE>
2
5
10

$$$$

