344200
  -OEChem-07051212583D

 39 41  0     1  0  0  0  0  0999 V2000
    3.1578    1.6729   -0.1274 O   0  0  0  0  0  0  0  0  0  0  0  0
   -1.7752   -1.7923    1.6022 O   0  0  0  0  0  0  0  0  0  0  0  0
    0.7283    2.7823    0.1671 O   0  0  0  0  0  0  0  0  0  0  0  0
   -3.9254    1.1345   -1.5642 O   0  0  0  0  0  0  0  0  0  0  0  0
    2.1246   -0.5347   -0.3486 C   0  0  0  0  0  0  0  0  0  0  0  0
    2.6660   -0.5891   -1.7736 C   0  0  0  0  0  0  0  0  0  0  0  0
    3.4518   -1.2041   -0.6557 C   0  0  0  0  0  0  0  0  0  0  0  0
    2.1424    0.8170    0.3948 C   0  0  2  0  0  0  0  0  0  0  0  0
    0.8777   -1.3564   -0.1223 C   0  0  0  0  0  0  0  0  0  0  0  0
   -0.3012   -0.7355    0.0811 C   0  0  0  0  0  0  0  0  0  0  0  0
    0.8101    1.5580    0.2163 C   0  0  0  0  0  0  0  0  0  0  0  0
   -0.3976    0.7017    0.1410 C   0  0  0  0  0  0  0  0  0  0  0  0
   -1.6916   -1.2817    0.2760 C   0  0  2  0  0  0  0  0  0  0  0  0
   -2.6275   -0.0496    0.0546 C   0  0  1  0  0  0  0  0  0  0  0  0
    2.4177    0.6169    1.8893 C   0  0  0  0  0  0  0  0  0  0  0  0
   -1.6659    1.1156    0.1479 C   0  0  0  0  0  0  0  0  0  0  0  0
    0.9869   -2.8579   -0.1174 C   0  0  0  0  0  0  0  0  0  0  0  0
   -3.2356   -0.0802   -1.3571 C   0  0  0  0  0  0  0  0  0  0  0  0
   -3.7432    0.0826    1.0960 C   0  0  0  0  0  0  0  0  0  0  0  0
    3.0744    0.2950   -2.2453 H   0  0  0  0  0  0  0  0  0  0  0  0
    2.2036   -1.2634   -2.4872 H   0  0  0  0  0  0  0  0  0  0  0  0
    3.5407   -2.2829   -0.6386 H   0  0  0  0  0  0  0  0  0  0  0  0
    4.3670   -0.7063   -0.3538 H   0  0  0  0  0  0  0  0  0  0  0  0
   -1.9266   -2.0906   -0.4246 H   0  0  0  0  0  0  0  0  0  0  0  0
    3.3963    0.1491    2.0455 H   0  0  0  0  0  0  0  0  0  0  0  0
    2.4423    1.5808    2.4111 H   0  0  0  0  0  0  0  0  0  0  0  0
    1.6602   -0.0080    2.3732 H   0  0  0  0  0  0  0  0  0  0  0  0
   -1.9770    2.1509    0.1883 H   0  0  0  0  0  0  0  0  0  0  0  0
    1.6607   -3.1844    0.6814 H   0  0  0  0  0  0  0  0  0  0  0  0
    1.3749   -3.2196   -1.0751 H   0  0  0  0  0  0  0  0  0  0  0  0
    0.0289   -3.3601    0.0401 H   0  0  0  0  0  0  0  0  0  0  0  0
    2.8857    1.9711   -1.0115 H   0  0  0  0  0  0  0  0  0  0  0  0
   -3.9414   -0.9116   -1.4619 H   0  0  0  0  0  0  0  0  0  0  0  0
   -2.4667   -0.1801   -2.1318 H   0  0  0  0  0  0  0  0  0  0  0  0
   -3.3399    0.1640    2.1122 H   0  0  0  0  0  0  0  0  0  0  0  0
   -4.3567    0.9757    0.9315 H   0  0  0  0  0  0  0  0  0  0  0  0
   -4.4070   -0.7887    1.0685 H   0  0  0  0  0  0  0  0  0  0  0  0
   -1.2234   -2.5902    1.6564 H   0  0  0  0  0  0  0  0  0  0  0  0
   -4.3100    1.0988   -2.4565 H   0  0  0  0  0  0  0  0  0  0  0  0
  1  8  1  0  0  0  0
  1 32  1  0  0  0  0
  2 13  1  0  0  0  0
  2 38  1  0  0  0  0
  3 11  2  0  0  0  0
  4 18  1  0  0  0  0
  4 39  1  0  0  0  0
  5  6  1  0  0  0  0
  5  7  1  0  0  0  0
  5  8  1  0  0  0  0
  5  9  1  0  0  0  0
  6  7  1  0  0  0  0
  6 20  1  0  0  0  0
  6 21  1  0  0  0  0
  7 22  1  0  0  0  0
  7 23  1  0  0  0  0
  8 11  1  0  0  0  0
  8 15  1  0  0  0  0
  9 10  2  0  0  0  0
  9 17  1  0  0  0  0
 10 12  1  0  0  0  0
 10 13  1  0  0  0  0
 11 12  1  0  0  0  0
 12 16  2  0  0  0  0
 13 14  1  0  0  0  0
 13 24  1  0  0  0  0
 14 16  1  0  0  0  0
 14 18  1  0  0  0  0
 14 19  1  0  0  0  0
 15 25  1  0  0  0  0
 15 26  1  0  0  0  0
 15 27  1  0  0  0  0
 16 28  1  0  0  0  0
 17 29  1  0  0  0  0
 17 30  1  0  0  0  0
 17 31  1  0  0  0  0
 18 33  1  0  0  0  0
 18 34  1  0  0  0  0
 19 35  1  0  0  0  0
 19 36  1  0  0  0  0
 19 37  1  0  0  0  0
M  END
> <PUBCHEM_COMPOUND_CID>
344200

> <PUBCHEM_CONFORMER_RMSD>
0.6

> <PUBCHEM_CONFORMER_DIVERSEORDER>
2
1

> <PUBCHEM_MMFF94_PARTIAL_CHARGES>
25
1 -0.68
10 -0.14
11 0.49
12 0.01
13 0.42
14 0.14
16 -0.29
17 0.14
18 0.28
2 -0.68
20 0.1
21 0.1
22 0.1
23 0.1
28 0.15
3 -0.57
32 0.4
38 0.4
39 0.4
4 -0.68
5 -0.05
6 -0.2
7 -0.2
8 0.44
9 -0.18

> <PUBCHEM_EFFECTIVE_ROTOR_COUNT>
2

> <PUBCHEM_PHARMACOPHORE_FEATURES>
9
1 1 acceptor
1 1 donor
1 2 acceptor
1 2 donor
1 3 acceptor
1 4 acceptor
1 4 donor
5 10 12 13 14 16 rings
6 5 8 9 10 11 12 rings

> <PUBCHEM_HEAVY_ATOM_COUNT>
19

> <PUBCHEM_ATOM_DEF_STEREO_COUNT>
3

> <PUBCHEM_ATOM_UDEF_STEREO_COUNT>
0

> <PUBCHEM_BOND_DEF_STEREO_COUNT>
0

> <PUBCHEM_BOND_UDEF_STEREO_COUNT>
0

> <PUBCHEM_ISOTOPIC_ATOM_COUNT>
0

> <PUBCHEM_COMPONENT_COUNT>
1

> <PUBCHEM_CACTVS_TAUTO_COUNT>
1

> <PUBCHEM_CONFORMER_ID>
0005408800000002

> <PUBCHEM_MMFF94_ENERGY>
55.8955

> <PUBCHEM_FEATURE_SELFOVERLAP>
45.75

> <PUBCHEM_SHAPE_FINGERPRINT>
104564 63 17900805352087495040
10967382 1 18409160009124852946
11471102 20 18408601466013553641
11578080 2 13612011513409478743
12553582 1 18264198295895869958
12654215 9 18341342174752002572
12730499 353 18271529780038699815
13134695 92 17749105621545443288
13140716 1 18408881811197873898
13296908 3 18336260167689478779
13583140 156 16773249391812940585
14178342 30 18261117322612589339
15210252 30 17987796448529946836
15219456 202 18339069398296931699
15490181 8 17901389991535927888
15852999 172 18200329774267311075
16945 1 18410857685174480755
18186145 218 18408042935602553015
18219364 16 18341609291964188169
19049666 15 18271805791278809739
200 152 17240769501059414343
20233049 118 18059860592576830716
20645476 183 17060335219083132827
20645477 70 18113903792405343679
21069387 34 17458346334021018615
22182313 1 18338507530965347654
22721475 48 18337377314262847224
2334 1 18265046938489044426
23402539 116 18115305717191987798
23419403 2 15685821285336644184
23493267 7 17274812597258574979
23559900 14 18336814356890896102
25 1 18199190762152010725
2748010 2 18337946779834806254
3060560 45 18114190781914834351
3286 77 16950577600754058122
77492 1 16950559987014081779
7832392 63 18042121136546787625
81228 2 18120647196003293464

> <PUBCHEM_SHAPE_MULTIPOLES>
367.53
5.89
2.29
1.39
2.82
0.1
0.01
-0.31
-1.27
-1.13
0.21
0.27
0.06
0.89

> <PUBCHEM_SHAPE_SELFOVERLAP>
795.491

> <PUBCHEM_SHAPE_VOLUME>
204.6

> <PUBCHEM_COORDINATE_TYPE>
2
5
10

$$$$

