13666
  -OEChem-06241222392D

 32 31  0     1  0  0  0  0  0999 V2000
    5.8890    3.1200    0.0000 Cl  0  5  0  0  0  0  0  0  0  0  0  0
    0.5369    4.1200    0.0000 O   0  0  0  0  0  0  0  0  0  0  0  0
    2.2690    5.1200    0.0000 N   0  3  0  0  0  0  0  0  0  0  0  0
    2.2690    4.1200    0.0000 C   0  0  3  0  0  0  0  0  0  0  0  0
    1.4030    3.6200    0.0000 C   0  0  3  0  0  0  0  0  0  0  0  0
    3.1350    3.6200    0.0000 C   0  0  0  0  0  0  0  0  0  0  0  0
    2.2690    6.1200    0.0000 C   0  0  0  0  0  0  0  0  0  0  0  0
    3.2690    5.1200    0.0000 C   0  0  0  0  0  0  0  0  0  0  0  0
    1.4030    2.6200    0.0000 C   0  0  0  0  0  0  0  0  0  0  0  0
    0.5369    2.1200    0.0000 C   0  0  0  0  0  0  0  0  0  0  0  0
    2.2690    2.1200    0.0000 C   0  0  0  0  0  0  0  0  0  0  0  0
    0.5369    1.1200    0.0000 C   0  0  0  0  0  0  0  0  0  0  0  0
    2.2690    1.1200    0.0000 C   0  0  0  0  0  0  0  0  0  0  0  0
    1.4030    0.6200    0.0000 C   0  0  0  0  0  0  0  0  0  0  0  0
    2.8059    4.4300    0.0000 H   0  0  0  0  0  0  0  0  0  0  0  0
    1.6490    5.1200    0.0000 H   0  0  0  0  0  0  0  0  0  0  0  0
    1.4030    4.2400    0.0000 H   0  0  0  0  0  0  0  0  0  0  0  0
    2.8250    3.0831    0.0000 H   0  0  0  0  0  0  0  0  0  0  0  0
    3.6720    3.3100    0.0000 H   0  0  0  0  0  0  0  0  0  0  0  0
    3.4450    4.1569    0.0000 H   0  0  0  0  0  0  0  0  0  0  0  0
    2.8890    6.1200    0.0000 H   0  0  0  0  0  0  0  0  0  0  0  0
    2.2690    6.7400    0.0000 H   0  0  0  0  0  0  0  0  0  0  0  0
    1.6490    6.1200    0.0000 H   0  0  0  0  0  0  0  0  0  0  0  0
    3.2690    4.5000    0.0000 H   0  0  0  0  0  0  0  0  0  0  0  0
    3.8890    5.1200    0.0000 H   0  0  0  0  0  0  0  0  0  0  0  0
    3.2690    5.7400    0.0000 H   0  0  0  0  0  0  0  0  0  0  0  0
    0.5369    4.7400    0.0000 H   0  0  0  0  0  0  0  0  0  0  0  0
    0.0000    2.4300    0.0000 H   0  0  0  0  0  0  0  0  0  0  0  0
    2.8059    2.4300    0.0000 H   0  0  0  0  0  0  0  0  0  0  0  0
    0.0000    0.8100    0.0000 H   0  0  0  0  0  0  0  0  0  0  0  0
    2.8059    0.8100    0.0000 H   0  0  0  0  0  0  0  0  0  0  0  0
    1.4030    0.0000    0.0000 H   0  0  0  0  0  0  0  0  0  0  0  0
  2  5  1  0  0  0  0
  2 27  1  0  0  0  0
  3  4  1  0  0  0  0
  3  7  1  0  0  0  0
  3  8  1  0  0  0  0
  3 16  1  0  0  0  0
  4  5  1  0  0  0  0
  4  6  1  0  0  0  0
  4 15  1  0  0  0  0
  5  9  1  0  0  0  0
  5 17  1  0  0  0  0
  6 18  1  0  0  0  0
  6 19  1  0  0  0  0
  6 20  1  0  0  0  0
  7 21  1  0  0  0  0
  7 22  1  0  0  0  0
  7 23  1  0  0  0  0
  8 24  1  0  0  0  0
  8 25  1  0  0  0  0
  8 26  1  0  0  0  0
  9 10  2  0  0  0  0
  9 11  1  0  0  0  0
 10 12  1  0  0  0  0
 10 28  1  0  0  0  0
 11 13  2  0  0  0  0
 11 29  1  0  0  0  0
 12 14  2  0  0  0  0
 12 30  1  0  0  0  0
 13 14  1  0  0  0  0
 13 31  1  0  0  0  0
 14 32  1  0  0  0  0
M  CHG  2   1  -1   3   1
M  END
> <PUBCHEM_COMPOUND_CID>
13666

> <PUBCHEM_COMPOUND_CANONICALIZED>
1

> <PUBCHEM_CACTVS_COMPLEXITY>
141

> <PUBCHEM_CACTVS_HBOND_ACCEPTOR>
2

> <PUBCHEM_CACTVS_HBOND_DONOR>
2

> <PUBCHEM_CACTVS_ROTATABLE_BOND>
3

> <PUBCHEM_CACTVS_SUBSKEYS>
AAADceByIAAEAAAAAAAAAAAAAAAAAAAAAAAwAAAAAAAAAAABAAAAHgAQCAAADDzhmAYyAIPAAgCAAiBCAAACAAAgAAAIiIAICIgKNiKAkRGEcAAk0AEYmAeQwKAOAAAAAAAAAAAAAAAAAAAAAAAAAAAAAA==

> <PUBCHEM_IUPAC_OPENEYE_NAME>
(2-hydroxy-1-methyl-2-phenyl-ethyl)-dimethyl-ammonium chloride

> <PUBCHEM_IUPAC_CAS_NAME>
(1-hydroxy-1-phenylpropan-2-yl)-dimethylammonium chloride

> <PUBCHEM_IUPAC_NAME>
(1-hydroxy-1-phenylpropan-2-yl)-dimethylazanium chloride

> <PUBCHEM_IUPAC_SYSTEMATIC_NAME>
dimethyl-(1-oxidanyl-1-phenyl-propan-2-yl)azanium chloride

> <PUBCHEM_IUPAC_TRADITIONAL_NAME>
(2-hydroxy-1-methyl-2-phenyl-ethyl)-dimethyl-ammonium chloride

> <PUBCHEM_IUPAC_INCHI>
InChI=1S/C11H17NO.ClH/c1-9(12(2)3)11(13)10-7-5-4-6-8-10;/h4-9,11,13H,1-3H3;1H

> <PUBCHEM_IUPAC_INCHIKEY>
NTCYWJCEOILKNG-UHFFFAOYSA-N

> <PUBCHEM_EXACT_MASS>
215.107692

> <PUBCHEM_MOLECULAR_FORMULA>
C11H18ClNO

> <PUBCHEM_MOLECULAR_WEIGHT>
215.71972

> <PUBCHEM_OPENEYE_CAN_SMILES>
CC(C(C1=CC=CC=C1)O)[NH+](C)C.[Cl-]

> <PUBCHEM_OPENEYE_ISO_SMILES>
CC(C(C1=CC=CC=C1)O)[NH+](C)C.[Cl-]

> <PUBCHEM_CACTVS_TPSA>
24.7

> <PUBCHEM_MONOISOTOPIC_WEIGHT>
215.107692

> <PUBCHEM_TOTAL_CHARGE>
0

> <PUBCHEM_HEAVY_ATOM_COUNT>
14

> <PUBCHEM_ATOM_DEF_STEREO_COUNT>
0

> <PUBCHEM_ATOM_UDEF_STEREO_COUNT>
2

> <PUBCHEM_BOND_DEF_STEREO_COUNT>
0

> <PUBCHEM_BOND_UDEF_STEREO_COUNT>
0

> <PUBCHEM_ISOTOPIC_ATOM_COUNT>
0

> <PUBCHEM_COMPONENT_COUNT>
2

> <PUBCHEM_CACTVS_TAUTO_COUNT>
1

> <PUBCHEM_COORDINATE_TYPE>
1
5
255

> <PUBCHEM_BONDANNOTATIONS>
10  12  8
11  13  8
12  14  8
13  14  8
5  2  3
4  6  3
9  10  8
9  11  8

$$$$

