51090924
  -OEChem-06241223002D

 46 47  0     1  0  0  0  0  0999 V2000
    8.2105    3.7175    0.0000 F   0  0  0  0  0  0  0  0  0  0  0  0
    7.1115    4.6075    0.0000 F   0  0  0  0  0  0  0  0  0  0  0  0
    7.3205    2.6185    0.0000 F   0  0  0  0  0  0  0  0  0  0  0  0
    2.1340   -0.1075    0.0000 O   0  0  0  0  0  0  0  0  0  0  0  0
    5.8147    2.5949    0.0000 N   0  0  3  0  0  0  0  0  0  0  0  0
    3.8660   -0.1075    0.0000 N   0  0  0  0  0  0  0  0  0  0  0  0
    4.7320    1.3925    0.0000 C   0  0  3  0  0  0  0  0  0  0  0  0
    5.6456    0.9857    0.0000 C   0  0  0  0  0  0  0  0  0  0  0  0
    4.8366    2.3870    0.0000 C   0  0  0  0  0  0  0  0  0  0  0  0
    6.3147    1.7289    0.0000 C   0  0  0  0  0  0  0  0  0  0  0  0
    3.8660    0.8925    0.0000 C   0  0  0  0  0  0  0  0  0  0  0  0
    6.2215    3.5085    0.0000 C   0  0  0  0  0  0  0  0  0  0  0  0
    3.0000   -1.6075    0.0000 C   0  0  0  0  0  0  0  0  0  0  0  0
    3.0000   -0.6075    0.0000 C   0  0  0  0  0  0  0  0  0  0  0  0
    7.2160    3.6130    0.0000 C   0  0  0  0  0  0  0  0  0  0  0  0
    3.0000   -2.6075    0.0000 C   0  0  0  0  0  0  0  0  0  0  0  0
    4.0000   -1.6075    0.0000 C   0  0  0  0  0  0  0  0  0  0  0  0
    2.0000   -1.6075    0.0000 C   0  0  0  0  0  0  0  0  0  0  0  0
    2.1340   -3.1075    0.0000 C   0  0  0  0  0  0  0  0  0  0  0  0
    3.8660   -3.1075    0.0000 C   0  0  0  0  0  0  0  0  0  0  0  0
    2.1340   -4.1075    0.0000 C   0  0  0  0  0  0  0  0  0  0  0  0
    3.8660   -4.1075    0.0000 C   0  0  0  0  0  0  0  0  0  0  0  0
    3.0000   -4.6075    0.0000 C   0  0  0  0  0  0  0  0  0  0  0  0
    4.7645    0.7733    0.0000 H   0  0  0  0  0  0  0  0  0  0  0  0
    5.3356    0.4488    0.0000 H   0  0  0  0  0  0  0  0  0  0  0  0
    6.1472    0.6213    0.0000 H   0  0  0  0  0  0  0  0  0  0  0  0
    4.7718    3.0036    0.0000 H   0  0  0  0  0  0  0  0  0  0  0  0
    4.2166    2.3870    0.0000 H   0  0  0  0  0  0  0  0  0  0  0  0
    6.7296    1.2681    0.0000 H   0  0  0  0  0  0  0  0  0  0  0  0
    6.8163    2.0933    0.0000 H   0  0  0  0  0  0  0  0  0  0  0  0
    3.6540    1.4751    0.0000 H   0  0  0  0  0  0  0  0  0  0  0  0
    3.2554    0.7848    0.0000 H   0  0  0  0  0  0  0  0  0  0  0  0
    6.2647    4.1270    0.0000 H   0  0  0  0  0  0  0  0  0  0  0  0
    5.6199    3.6585    0.0000 H   0  0  0  0  0  0  0  0  0  0  0  0
    4.4030   -0.4175    0.0000 H   0  0  0  0  0  0  0  0  0  0  0  0
    2.0000   -0.9875    0.0000 H   0  0  0  0  0  0  0  0  0  0  0  0
    1.3800   -1.6075    0.0000 H   0  0  0  0  0  0  0  0  0  0  0  0
    2.0000   -2.2275    0.0000 H   0  0  0  0  0  0  0  0  0  0  0  0
    4.0000   -2.2275    0.0000 H   0  0  0  0  0  0  0  0  0  0  0  0
    4.6200   -1.6075    0.0000 H   0  0  0  0  0  0  0  0  0  0  0  0
    4.0000   -0.9875    0.0000 H   0  0  0  0  0  0  0  0  0  0  0  0
    1.5970   -2.7975    0.0000 H   0  0  0  0  0  0  0  0  0  0  0  0
    4.4030   -2.7975    0.0000 H   0  0  0  0  0  0  0  0  0  0  0  0
    1.5970   -4.4175    0.0000 H   0  0  0  0  0  0  0  0  0  0  0  0
    4.4030   -4.4175    0.0000 H   0  0  0  0  0  0  0  0  0  0  0  0
    3.0000   -5.2275    0.0000 H   0  0  0  0  0  0  0  0  0  0  0  0
  1 15  1  0  0  0  0
  2 15  1  0  0  0  0
  3 15  1  0  0  0  0
  4 14  2  0  0  0  0
  5  9  1  0  0  0  0
  5 10  1  0  0  0  0
  5 12  1  0  0  0  0
  6 11  1  0  0  0  0
  6 14  1  0  0  0  0
  6 35  1  0  0  0  0
  7  8  1  0  0  0  0
  7  9  1  0  0  0  0
  7 11  1  0  0  0  0
  7 24  1  0  0  0  0
  8 10  1  0  0  0  0
  8 25  1  0  0  0  0
  8 26  1  0  0  0  0
  9 27  1  0  0  0  0
  9 28  1  0  0  0  0
 10 29  1  0  0  0  0
 10 30  1  0  0  0  0
 11 31  1  0  0  0  0
 11 32  1  0  0  0  0
 12 15  1  0  0  0  0
 12 33  1  0  0  0  0
 12 34  1  0  0  0  0
 13 14  1  0  0  0  0
 13 16  1  0  0  0  0
 13 17  1  0  0  0  0
 13 18  1  0  0  0  0
 16 19  2  0  0  0  0
 16 20  1  0  0  0  0
 17 39  1  0  0  0  0
 17 40  1  0  0  0  0
 17 41  1  0  0  0  0
 18 36  1  0  0  0  0
 18 37  1  0  0  0  0
 18 38  1  0  0  0  0
 19 21  1  0  0  0  0
 19 42  1  0  0  0  0
 20 22  2  0  0  0  0
 20 43  1  0  0  0  0
 21 23  2  0  0  0  0
 21 44  1  0  0  0  0
 22 23  1  0  0  0  0
 22 45  1  0  0  0  0
 23 46  1  0  0  0  0
M  END
> <PUBCHEM_COMPOUND_CID>
51090924

> <PUBCHEM_COMPOUND_CANONICALIZED>
1

> <PUBCHEM_CACTVS_COMPLEXITY>
403

> <PUBCHEM_CACTVS_HBOND_ACCEPTOR>
5

> <PUBCHEM_CACTVS_HBOND_DONOR>
1

> <PUBCHEM_CACTVS_ROTATABLE_BOND>
5

> <PUBCHEM_CACTVS_SUBSKEYS>
AAADceB7IYAAAAAAAAAAAAAAAAAAAWAAAAAwAAAAAAAAAAABAAAAHwAQAAAADwDBmBQyAIPAAACIAiFSEAACAAAgAAAIiIEIAIgIIDKA1RGEIAAglgCIiAcYiMCPgAAAAAAAAAAAAAAAAAAAAAAAAAAAAA==

> <PUBCHEM_IUPAC_OPENEYE_NAME>
2-methyl-2-phenyl-N-[[1-(2,2,2-trifluoroethyl)pyrrolidin-3-yl]methyl]propanamide

> <PUBCHEM_IUPAC_CAS_NAME>
2-methyl-2-phenyl-N-[[1-(2,2,2-trifluoroethyl)-3-pyrrolidinyl]methyl]propanamide

> <PUBCHEM_IUPAC_NAME>
2-methyl-2-phenyl-N-[[1-(2,2,2-trifluoroethyl)pyrrolidin-3-yl]methyl]propanamide

> <PUBCHEM_IUPAC_SYSTEMATIC_NAME>
2-methyl-2-phenyl-N-[[1-[2,2,2-tris(fluoranyl)ethyl]pyrrolidin-3-yl]methyl]propanamide

> <PUBCHEM_IUPAC_TRADITIONAL_NAME>
2-methyl-2-phenyl-N-[[1-(2,2,2-trifluoroethyl)pyrrolidin-3-yl]methyl]propionamide

> <PUBCHEM_IUPAC_INCHI>
InChI=1S/C17H23F3N2O/c1-16(2,14-6-4-3-5-7-14)15(23)21-10-13-8-9-22(11-13)12-17(18,19)20/h3-7,13H,8-12H2,1-2H3,(H,21,23)

> <PUBCHEM_IUPAC_INCHIKEY>
WSHBYVRIXGERCX-UHFFFAOYSA-N

> <PUBCHEM_XLOGP3_AA>
3.6

> <PUBCHEM_EXACT_MASS>
328.176248

> <PUBCHEM_MOLECULAR_FORMULA>
C17H23F3N2O

> <PUBCHEM_MOLECULAR_WEIGHT>
328.37253

> <PUBCHEM_OPENEYE_CAN_SMILES>
CC(C)(C1=CC=CC=C1)C(=O)NCC2CCN(C2)CC(F)(F)F

> <PUBCHEM_OPENEYE_ISO_SMILES>
CC(C)(C1=CC=CC=C1)C(=O)NCC2CCN(C2)CC(F)(F)F

> <PUBCHEM_CACTVS_TPSA>
32.3

> <PUBCHEM_MONOISOTOPIC_WEIGHT>
328.176248

> <PUBCHEM_TOTAL_CHARGE>
0

> <PUBCHEM_HEAVY_ATOM_COUNT>
23

> <PUBCHEM_ATOM_DEF_STEREO_COUNT>
0

> <PUBCHEM_ATOM_UDEF_STEREO_COUNT>
1

> <PUBCHEM_BOND_DEF_STEREO_COUNT>
0

> <PUBCHEM_BOND_UDEF_STEREO_COUNT>
0

> <PUBCHEM_ISOTOPIC_ATOM_COUNT>
0

> <PUBCHEM_COMPONENT_COUNT>
1

> <PUBCHEM_CACTVS_TAUTO_COUNT>
2

> <PUBCHEM_COORDINATE_TYPE>
1
5
255

> <PUBCHEM_BONDANNOTATIONS>
16  19  8
16  20  8
19  21  8
20  22  8
21  23  8
22  23  8
7  11  3

$$$$

