5281431
  -OEChem-07051212572D

 45 47  0     1  0  0  0  0  0999 V2000
    7.1949    1.6854    0.0000 O   0  0  0  0  0  0  0  0  0  0  0  0
    6.6576   -2.1436    0.0000 O   0  0  0  0  0  0  0  0  0  0  0  0
    4.2704   -0.1158    0.0000 O   0  0  0  0  0  0  0  0  0  0  0  0
    6.7084    3.3565    0.0000 O   0  0  0  0  0  0  0  0  0  0  0  0
    5.3598   -3.3565    0.0000 O   0  0  0  0  0  0  0  0  0  0  0  0
    3.9696    1.5899    0.0000 O   0  0  0  0  0  0  0  0  0  0  0  0
    5.7552   -0.8082    0.0000 C   0  0  2  0  0  0  0  0  0  0  0  0
    5.2552    0.0578    0.0000 C   0  0  1  0  0  0  0  0  0  0  0  0
    5.4288    1.0426    0.0000 C   0  0  0  0  0  0  0  0  0  0  0  0
    6.1949    1.6854    0.0000 C   0  0  2  0  0  0  0  0  0  0  0  0
    6.6949   -1.1502    0.0000 C   0  0  1  0  0  0  0  0  0  0  0  0
    5.1452   -1.5932    0.0000 C   0  0  0  0  0  0  0  0  0  0  0  0
    6.9152    2.3781    0.0000 C   0  0  0  0  0  0  0  0  0  0  0  0
    7.6346   -0.8082    0.0000 C   0  0  0  0  0  0  0  0  0  0  0  0
    5.5265    2.4292    0.0000 C   0  0  0  0  0  0  0  0  0  0  0  0
    7.9609    1.0426    0.0000 C   0  0  0  0  0  0  0  0  0  0  0  0
    8.1346    0.0578    0.0000 C   0  0  0  0  0  0  0  0  0  0  0  0
    5.7018   -2.4168    0.0000 C   0  0  0  0  0  0  0  0  0  0  0  0
    7.8544    2.0363    0.0000 C   0  0  0  0  0  0  0  0  0  0  0  0
    4.1458   -1.5600    0.0000 C   0  0  0  0  0  0  0  0  0  0  0  0
    9.1194   -0.1158    0.0000 C   0  0  0  0  0  0  0  0  0  0  0  0
    3.6276    0.6502    0.0000 C   0  0  0  0  0  0  0  0  0  0  0  0
    2.6428    0.4766    0.0000 C   0  0  0  0  0  0  0  0  0  0  0  0
    2.0000    1.2426    0.0000 C   0  0  0  0  0  0  0  0  0  0  0  0
    2.3008   -0.4631    0.0000 C   0  0  0  0  0  0  0  0  0  0  0  0
    4.9564   -0.5175    0.0000 H   0  0  0  0  0  0  0  0  0  0  0  0
    4.9932   -0.5041    0.0000 H   0  0  0  0  0  0  0  0  0  0  0  0
    5.1833    1.6119    0.0000 H   0  0  0  0  0  0  0  0  0  0  0  0
    4.8130    0.9706    0.0000 H   0  0  0  0  0  0  0  0  0  0  0  0
    7.4936   -1.4410    0.0000 H   0  0  0  0  0  0  0  0  0  0  0  0
    8.0331   -1.2832    0.0000 H   0  0  0  0  0  0  0  0  0  0  0  0
    5.9877    2.8436    0.0000 H   0  0  0  0  0  0  0  0  0  0  0  0
    5.1122    2.8904    0.0000 H   0  0  0  0  0  0  0  0  0  0  0  0
    5.0653    2.0149    0.0000 H   0  0  0  0  0  0  0  0  0  0  0  0
    8.3425    2.4185    0.0000 H   0  0  0  0  0  0  0  0  0  0  0  0
    3.8537   -1.0131    0.0000 H   0  0  0  0  0  0  0  0  0  0  0  0
    3.8181   -2.0863    0.0000 H   0  0  0  0  0  0  0  0  0  0  0  0
    9.0117   -0.7264    0.0000 H   0  0  0  0  0  0  0  0  0  0  0  0
    9.7300   -0.2235    0.0000 H   0  0  0  0  0  0  0  0  0  0  0  0
    9.2270    0.4947    0.0000 H   0  0  0  0  0  0  0  0  0  0  0  0
    2.4750    1.6411    0.0000 H   0  0  0  0  0  0  0  0  0  0  0  0
    1.6015    1.7176    0.0000 H   0  0  0  0  0  0  0  0  0  0  0  0
    1.5250    0.8441    0.0000 H   0  0  0  0  0  0  0  0  0  0  0  0
    1.6902   -0.5708    0.0000 H   0  0  0  0  0  0  0  0  0  0  0  0
    2.6993   -0.9381    0.0000 H   0  0  0  0  0  0  0  0  0  0  0  0
  1 10  1  0  0  0  0
  1 16  1  0  0  0  0
  2 11  1  0  0  0  0
  2 18  1  0  0  0  0
  8  3  1  6  0  0  0
  3 22  1  0  0  0  0
  4 13  2  0  0  0  0
  5 18  2  0  0  0  0
  6 22  2  0  0  0  0
  7  8  1  0  0  0  0
  7 11  1  0  0  0  0
  7 12  1  0  0  0  0
  7 26  1  1  0  0  0
  8  9  1  0  0  0  0
  8 27  1  0  0  0  0
  9 10  1  0  0  0  0
  9 28  1  0  0  0  0
  9 29  1  0  0  0  0
 10 13  1  0  0  0  0
 10 15  1  1  0  0  0
 11 14  1  0  0  0  0
 11 30  1  6  0  0  0
 12 18  1  0  0  0  0
 12 20  2  0  0  0  0
 13 19  1  0  0  0  0
 14 17  2  0  0  0  0
 14 31  1  0  0  0  0
 15 32  1  0  0  0  0
 15 33  1  0  0  0  0
 15 34  1  0  0  0  0
 16 17  1  0  0  0  0
 16 19  2  0  0  0  0
 17 21  1  0  0  0  0
 19 35  1  0  0  0  0
 20 36  1  0  0  0  0
 20 37  1  0  0  0  0
 21 38  1  0  0  0  0
 21 39  1  0  0  0  0
 21 40  1  0  0  0  0
 22 23  1  0  0  0  0
 23 24  1  0  0  0  0
 23 25  2  0  0  0  0
 24 41  1  0  0  0  0
 24 42  1  0  0  0  0
 24 43  1  0  0  0  0
 25 44  1  0  0  0  0
 25 45  1  0  0  0  0
M  END
> <PUBCHEM_COMPOUND_CID>
5281431

> <PUBCHEM_COMPOUND_CANONICALIZED>
1

> <PUBCHEM_CACTVS_COMPLEXITY>
771

> <PUBCHEM_CACTVS_HBOND_ACCEPTOR>
6

> <PUBCHEM_CACTVS_HBOND_DONOR>
0

> <PUBCHEM_CACTVS_ROTATABLE_BOND>
3

> <PUBCHEM_CACTVS_SUBSKEYS>
AAADceB4OAAAAAAAAAAAAAAAAAAAASIAAAAAAAAAAAAAAECAAAAAGgAAAAAADVSggAICCAAABACIAqDSCAIACAAgIAAACAFAAEgIBBIAIQQCEAAFwAAIoYPK6PyOAAAAAAAAAAAAAAAAAAAAAAAAAAAAAA==

> <PUBCHEM_IUPAC_INCHI>
InChI=1S/C19H20O6/c1-9(2)17(21)24-14-8-19(5)15(20)7-12(25-19)10(3)6-13-16(14)11(4)18(22)23-13/h6-7,13-14,16H,1,4,8H2,2-3,5H3/b10-6-/t13-,14-,16+,19-/m1/s1

> <PUBCHEM_IUPAC_INCHIKEY>
RYBHZNMPMHOBAR-IRNKKCRZSA-N

> <PUBCHEM_XLOGP3_AA>
2.2

> <PUBCHEM_EXACT_MASS>
344.125988

> <PUBCHEM_MOLECULAR_FORMULA>
C19H20O6

> <PUBCHEM_MOLECULAR_WEIGHT>
344.3585

> <PUBCHEM_OPENEYE_CAN_SMILES>
CC1=CC2C(C(CC3(C(=O)C=C1O3)C)OC(=O)C(=C)C)C(=C)C(=O)O2

> <PUBCHEM_OPENEYE_ISO_SMILES>
C/C/1=C/[C@@H]2[C@@H]([C@@H](C[C@@]3(C(=O)C=C1O3)C)OC(=O)C(=C)C)C(=C)C(=O)O2

> <PUBCHEM_CACTVS_TPSA>
78.9

> <PUBCHEM_MONOISOTOPIC_WEIGHT>
344.125988

> <PUBCHEM_TOTAL_CHARGE>
0

> <PUBCHEM_HEAVY_ATOM_COUNT>
25

> <PUBCHEM_ATOM_DEF_STEREO_COUNT>
4

> <PUBCHEM_ATOM_UDEF_STEREO_COUNT>
0

> <PUBCHEM_BOND_DEF_STEREO_COUNT>
1

> <PUBCHEM_BOND_UDEF_STEREO_COUNT>
0

> <PUBCHEM_ISOTOPIC_ATOM_COUNT>
0

> <PUBCHEM_COMPONENT_COUNT>
1

> <PUBCHEM_CACTVS_TAUTO_COUNT>
1

> <PUBCHEM_COORDINATE_TYPE>
1
5
255

> <PUBCHEM_BONDANNOTATIONS>
10  15  5
11  30  6
8  3  6
7  26  5

$$$$

