440038
  -OEChem-07051212483D

 40 40  0     1  0  0  0  0  0999 V2000
   -1.0734   -0.4903   -0.2056 O   0  0  0  0  0  0  0  0  0  0  0  0
   -4.2674    2.1404   -0.2895 O   0  0  0  0  0  0  0  0  0  0  0  0
    0.5299    1.2967   -1.6345 O   0  0  0  0  0  0  0  0  0  0  0  0
   -2.3649   -1.2297    1.6412 O   0  0  0  0  0  0  0  0  0  0  0  0
    1.6696    0.0238    1.6030 O   0  0  0  0  0  0  0  0  0  0  0  0
    3.9961   -0.4798    0.2169 O   0  0  0  0  0  0  0  0  0  0  0  0
   -3.6563   -2.9196   -0.0805 O   0  0  0  0  0  0  0  0  0  0  0  0
   -1.6673   -2.8507   -1.1917 O   0  0  0  0  0  0  0  0  0  0  0  0
    5.7832    0.6813   -0.6746 O   0  0  0  0  0  0  0  0  0  0  0  0
   -1.6348    3.1560    0.4276 N   0  0  0  0  0  0  0  0  0  0  0  0
   -0.7773    0.8179    0.3033 C   0  0  2  0  0  0  0  0  0  0  0  0
   -1.8601    1.8230   -0.1351 C   0  0  1  0  0  0  0  0  0  0  0  0
   -3.2506    1.3264    0.2897 C   0  0  2  0  0  0  0  0  0  0  0  0
   -3.4698   -0.1085   -0.1876 C   0  0  0  0  0  0  0  0  0  0  0  0
    0.6119    1.1795   -0.2165 C   0  0  1  0  0  0  0  0  0  0  0  0
   -2.3189   -1.0136    0.2402 C   0  0  1  0  0  0  0  0  0  0  0  0
    1.6807    0.1519    0.1765 C   0  0  1  0  0  0  0  0  0  0  0  0
   -2.4794   -2.3459   -0.4308 C   0  0  0  0  0  0  0  0  0  0  0  0
    3.1016    0.5355   -0.2303 C   0  0  0  0  0  0  0  0  0  0  0  0
    5.3151   -0.2770   -0.0750 C   0  0  0  0  0  0  0  0  0  0  0  0
    6.1320   -1.4171    0.4533 C   0  0  0  0  0  0  0  0  0  0  0  0
   -0.7485    0.7634    1.3997 H   0  0  0  0  0  0  0  0  0  0  0  0
   -1.8695    1.9219   -1.2280 H   0  0  0  0  0  0  0  0  0  0  0  0
   -3.3666    1.3756    1.3795 H   0  0  0  0  0  0  0  0  0  0  0  0
   -4.4365   -0.4629    0.1934 H   0  0  0  0  0  0  0  0  0  0  0  0
   -3.5608   -0.1025   -1.2831 H   0  0  0  0  0  0  0  0  0  0  0  0
    0.9079    2.1568    0.1805 H   0  0  0  0  0  0  0  0  0  0  0  0
    1.4508   -0.8344   -0.2440 H   0  0  0  0  0  0  0  0  0  0  0  0
   -0.7551    3.5373    0.0846 H   0  0  0  0  0  0  0  0  0  0  0  0
   -1.5434    3.0925    1.4408 H   0  0  0  0  0  0  0  0  0  0  0  0
   -4.0989    3.0564   -0.0097 H   0  0  0  0  0  0  0  0  0  0  0  0
    3.3841    1.4831    0.2441 H   0  0  0  0  0  0  0  0  0  0  0  0
    3.1727    0.6348   -1.3192 H   0  0  0  0  0  0  0  0  0  0  0  0
    0.2819    0.4258   -1.9895 H   0  0  0  0  0  0  0  0  0  0  0  0
   -3.1306   -0.7693    2.0212 H   0  0  0  0  0  0  0  0  0  0  0  0
    2.3380   -0.6415    1.8410 H   0  0  0  0  0  0  0  0  0  0  0  0
   -3.7813   -3.7921   -0.5111 H   0  0  0  0  0  0  0  0  0  0  0  0
    5.8147   -2.3502   -0.0188 H   0  0  0  0  0  0  0  0  0  0  0  0
    6.0240   -1.4783    1.5391 H   0  0  0  0  0  0  0  0  0  0  0  0
    7.1865   -1.2478    0.2170 H   0  0  0  0  0  0  0  0  0  0  0  0
  1 11  1  0  0  0  0
  1 16  1  0  0  0  0
  2 13  1  0  0  0  0
  2 31  1  0  0  0  0
  3 15  1  0  0  0  0
  3 34  1  0  0  0  0
  4 16  1  0  0  0  0
  4 35  1  0  0  0  0
  5 17  1  0  0  0  0
  5 36  1  0  0  0  0
  6 19  1  0  0  0  0
  6 20  1  0  0  0  0
  7 18  1  0  0  0  0
  7 37  1  0  0  0  0
  8 18  2  0  0  0  0
  9 20  2  0  0  0  0
 10 12  1  0  0  0  0
 10 29  1  0  0  0  0
 10 30  1  0  0  0  0
 11 12  1  0  0  0  0
 11 15  1  0  0  0  0
 11 22  1  0  0  0  0
 12 13  1  0  0  0  0
 12 23  1  0  0  0  0
 13 14  1  0  0  0  0
 13 24  1  0  0  0  0
 14 16  1  0  0  0  0
 14 25  1  0  0  0  0
 14 26  1  0  0  0  0
 15 17  1  0  0  0  0
 15 27  1  0  0  0  0
 16 18  1  0  0  0  0
 17 19  1  0  0  0  0
 17 28  1  0  0  0  0
 19 32  1  0  0  0  0
 19 33  1  0  0  0  0
 20 21  1  0  0  0  0
 21 38  1  0  0  0  0
 21 39  1  0  0  0  0
 21 40  1  0  0  0  0
M  END
> <PUBCHEM_COMPOUND_CID>
440038

> <PUBCHEM_CONFORMER_RMSD>
0.8

> <PUBCHEM_CONFORMER_DIVERSEORDER>
1
110
66
83
50
81
112
94
89
72
102
22
26
126
124
116
57
40
129
68
14
117
78
75
4
85
100
60
93
67
74
96
71
62
113
87
118
44
92
64
77
128
84
10
111
20
106
69
24
109
3
63
76
86
55
123
101
120
53
105
125
97
11
99
65
37
121
54
82
48
43
18
70
119
98
51
104
79
56
90
35
42
47
108
122
38
114
115
95
41
31
80
91
88
13
46
6
73
30
17
107
58
7
59
103
34
36
25
2
127
5
33
49
12
23
8
39
29
45
27
52
61
21
32
19
16
28
15
9

> <PUBCHEM_MMFF94_PARTIAL_CHARGES>
27
1 -0.56
10 -0.99
11 0.28
12 0.27
13 0.28
15 0.28
16 0.62
17 0.28
18 0.66
19 0.28
2 -0.68
20 0.66
21 0.06
29 0.36
3 -0.68
30 0.36
31 0.4
34 0.4
35 0.4
36 0.4
37 0.5
4 -0.68
5 -0.68
6 -0.43
7 -0.65
8 -0.57
9 -0.57

> <PUBCHEM_EFFECTIVE_ROTOR_COUNT>
7.2

> <PUBCHEM_PHARMACOPHORE_FEATURES>
16
1 1 acceptor
1 10 cation
1 10 donor
1 2 acceptor
1 2 donor
1 3 acceptor
1 3 donor
1 4 acceptor
1 4 donor
1 5 acceptor
1 5 donor
1 7 acceptor
1 8 acceptor
1 9 acceptor
3 7 8 18 anion
6 1 11 12 13 14 16 rings

> <PUBCHEM_HEAVY_ATOM_COUNT>
21

> <PUBCHEM_ATOM_DEF_STEREO_COUNT>
5

> <PUBCHEM_ATOM_UDEF_STEREO_COUNT>
1

> <PUBCHEM_BOND_DEF_STEREO_COUNT>
0

> <PUBCHEM_BOND_UDEF_STEREO_COUNT>
0

> <PUBCHEM_ISOTOPIC_ATOM_COUNT>
0

> <PUBCHEM_COMPONENT_COUNT>
1

> <PUBCHEM_CACTVS_TAUTO_COUNT>
1

> <PUBCHEM_CONFORMER_ID>
0006B6E600000001

> <PUBCHEM_MMFF94_ENERGY>
39.1828

> <PUBCHEM_FEATURE_SELFOVERLAP>
81.305

> <PUBCHEM_SHAPE_FINGERPRINT>
10366900 7 17676497184618788064
10595046 47 18341891867090946892
10616163 171 18410011044152487534
11046707 91 18335139748234810890
11315181 36 18413672405309508260
11405975 8 18335140891065487640
11524674 6 17531253906572229302
12236239 1 17989202676741061928
12500047 106 18334581273484194733
12616971 3 17203326724277950060
12633257 1 17386551480001492674
12757275 245 18409448068138657382
13167823 11 18342739646232326986
13257819 101 16628570326793700829
13583140 156 17530694199529579602
14251751 93 18410015459589857842
15042514 8 18410852145057013595
15415430 112 18341897393843256482
17804303 29 18333732394730992656
17844677 252 18335414652523618400
18186145 218 15841271450605035444
19141452 34 18341331188521000060
20600515 1 17968922167661191969
20681677 155 18272372005075313728
21267235 1 18343013372623688595
2306618 200 18113891667770708849
23402539 116 18261401086933735549
23419403 2 16807031835585188995
23557571 272 18261105253490405268
23559900 14 18335148574625063864
23598288 3 18270949160088500213
23598291 2 17917142802117607533
23728640 28 18409729569249409091
34934 24 18060140997816625129
4214541 1 18410856585974258156
5104073 3 18333453119278717768
5364581 5 18117017506910755008
559249 180 18270966855237910154
573450 72 18342182189325546194
633830 44 17275098428007304992
7970288 3 18050568443459464874
9709674 26 18188767365961226966

> <PUBCHEM_SHAPE_MULTIPOLES>
374.37
10.78
2.86
1.01
20.14
0.82
-0.09
2.41
-0.03
-4.09
0.39
-0.01
0.13
-0.6

> <PUBCHEM_SHAPE_SELFOVERLAP>
758.846

> <PUBCHEM_SHAPE_VOLUME>
214.7

> <PUBCHEM_COORDINATE_TYPE>
2
5
10

$$$$

