13111
  -OEChem-06261207463D

 67 68  0     1  0  0  0  0  0999 V2000
   -3.0308    0.0954    0.1325 N   0  3  1  0  0  0  0  0  0  0  0  0
   -1.5066   -1.7981    0.5671 C   0  0  0  0  0  0  0  0  0  0  0  0
   -1.7684   -0.6279   -0.3992 C   0  0  0  0  0  0  0  0  0  0  0  0
   -2.0820   -1.2610    1.8822 C   0  0  0  0  0  0  0  0  0  0  0  0
   -3.3671   -0.5683    1.4752 C   0  0  0  0  0  0  0  0  0  0  0  0
   -2.2299   -3.0967    0.1318 C   0  0  0  0  0  0  0  0  0  0  0  0
    0.0012   -2.0843    0.7165 C   0  0  0  0  0  0  0  0  0  0  0  0
   -2.7338    1.5769    0.3403 C   0  0  0  0  0  0  0  0  0  0  0  0
   -1.6109   -3.7487   -1.1060 C   0  0  0  0  0  0  0  0  0  0  0  0
    0.6121   -2.7021   -0.5395 C   0  0  0  0  0  0  0  0  0  0  0  0
   -4.1911   -0.0379   -0.8405 C   0  0  0  0  0  0  0  0  0  0  0  0
   -0.1141   -3.9808   -0.9390 C   0  0  0  0  0  0  0  0  0  0  0  0
   -2.4050    2.2507   -0.9861 C   0  0  0  0  0  0  0  0  0  0  0  0
   -2.0350    3.7364   -0.9059 C   0  0  0  0  0  0  0  0  0  0  0  0
   -0.8460    4.0791   -0.0033 C   0  0  0  0  0  0  0  0  0  0  0  0
    0.4382    3.3356   -0.3797 C   0  0  0  0  0  0  0  0  0  0  0  0
    1.6117    3.7837    0.4957 C   0  0  0  0  0  0  0  0  0  0  0  0
    2.9319    3.0913    0.1451 C   0  0  0  0  0  0  0  0  0  0  0  0
    2.8708    1.5672    0.2686 C   0  0  0  0  0  0  0  0  0  0  0  0
    4.2332    0.9330   -0.0211 C   0  0  0  0  0  0  0  0  0  0  0  0
    4.1844   -0.5874    0.1393 C   0  0  0  0  0  0  0  0  0  0  0  0
    5.5362   -1.2242   -0.1823 C   0  0  0  0  0  0  0  0  0  0  0  0
    5.5008   -2.7321    0.0085 C   0  0  0  0  0  0  0  0  0  0  0  0
   -0.9321    0.0773   -0.3606 H   0  0  0  0  0  0  0  0  0  0  0  0
   -1.9373   -0.9251   -1.4377 H   0  0  0  0  0  0  0  0  0  0  0  0
   -2.2636   -2.0465    2.6229 H   0  0  0  0  0  0  0  0  0  0  0  0
   -1.3999   -0.5318    2.3380 H   0  0  0  0  0  0  0  0  0  0  0  0
   -3.6954    0.1908    2.1920 H   0  0  0  0  0  0  0  0  0  0  0  0
   -4.1780   -1.2868    1.3175 H   0  0  0  0  0  0  0  0  0  0  0  0
   -3.2917   -2.9177   -0.0654 H   0  0  0  0  0  0  0  0  0  0  0  0
   -2.1913   -3.8209    0.9567 H   0  0  0  0  0  0  0  0  0  0  0  0
    0.1591   -2.7694    1.5602 H   0  0  0  0  0  0  0  0  0  0  0  0
    0.5463   -1.1643    0.9633 H   0  0  0  0  0  0  0  0  0  0  0  0
   -3.6200    2.0331    0.7971 H   0  0  0  0  0  0  0  0  0  0  0  0
   -1.9021    1.6428    1.0501 H   0  0  0  0  0  0  0  0  0  0  0  0
   -2.1083   -4.7063   -1.2991 H   0  0  0  0  0  0  0  0  0  0  0  0
   -1.7884   -3.1232   -1.9881 H   0  0  0  0  0  0  0  0  0  0  0  0
    0.5769   -1.9820   -1.3657 H   0  0  0  0  0  0  0  0  0  0  0  0
    1.6696   -2.9259   -0.3589 H   0  0  0  0  0  0  0  0  0  0  0  0
   -3.8703    0.2417   -1.8468 H   0  0  0  0  0  0  0  0  0  0  0  0
   -4.5054   -1.0855   -0.8627 H   0  0  0  0  0  0  0  0  0  0  0  0
   -5.0161    0.5895   -0.4907 H   0  0  0  0  0  0  0  0  0  0  0  0
    0.0517   -4.7481   -0.1726 H   0  0  0  0  0  0  0  0  0  0  0  0
    0.3064   -4.3688   -1.8735 H   0  0  0  0  0  0  0  0  0  0  0  0
   -3.2793    2.2181   -1.6459 H   0  0  0  0  0  0  0  0  0  0  0  0
   -1.6081    1.7298   -1.5258 H   0  0  0  0  0  0  0  0  0  0  0  0
   -1.8264    4.0982   -1.9207 H   0  0  0  0  0  0  0  0  0  0  0  0
   -2.9082    4.2989   -0.5522 H   0  0  0  0  0  0  0  0  0  0  0  0
   -0.6706    5.1604   -0.0650 H   0  0  0  0  0  0  0  0  0  0  0  0
   -1.1020    3.8677    1.0416 H   0  0  0  0  0  0  0  0  0  0  0  0
    0.2754    2.2618   -0.2545 H   0  0  0  0  0  0  0  0  0  0  0  0
    0.6754    3.5143   -1.4350 H   0  0  0  0  0  0  0  0  0  0  0  0
    1.3746    3.5917    1.5495 H   0  0  0  0  0  0  0  0  0  0  0  0
    1.7498    4.8672    0.3950 H   0  0  0  0  0  0  0  0  0  0  0  0
    3.7140    3.4807    0.8083 H   0  0  0  0  0  0  0  0  0  0  0  0
    3.2207    3.3629   -0.8778 H   0  0  0  0  0  0  0  0  0  0  0  0
    2.1412    1.1546   -0.4365 H   0  0  0  0  0  0  0  0  0  0  0  0
    2.5421    1.2933    1.2783 H   0  0  0  0  0  0  0  0  0  0  0  0
    4.9856    1.3480    0.6606 H   0  0  0  0  0  0  0  0  0  0  0  0
    4.5457    1.1869   -1.0413 H   0  0  0  0  0  0  0  0  0  0  0  0
    3.4180   -1.0021   -0.5265 H   0  0  0  0  0  0  0  0  0  0  0  0
    3.8915   -0.8392    1.1659 H   0  0  0  0  0  0  0  0  0  0  0  0
    5.8176   -0.9979   -1.2174 H   0  0  0  0  0  0  0  0  0  0  0  0
    6.3118   -0.7992    0.4653 H   0  0  0  0  0  0  0  0  0  0  0  0
    4.7542   -3.1927   -0.6464 H   0  0  0  0  0  0  0  0  0  0  0  0
    6.4764   -3.1675   -0.2291 H   0  0  0  0  0  0  0  0  0  0  0  0
    5.2561   -2.9910    1.0435 H   0  0  0  0  0  0  0  0  0  0  0  0
  1  3  1  0  0  0  0
  1  5  1  0  0  0  0
  1  8  1  0  0  0  0
  1 11  1  0  0  0  0
  2  3  1  0  0  0  0
  2  4  1  0  0  0  0
  2  6  1  0  0  0  0
  2  7  1  0  0  0  0
  3 24  1  0  0  0  0
  3 25  1  0  0  0  0
  4  5  1  0  0  0  0
  4 26  1  0  0  0  0
  4 27  1  0  0  0  0
  5 28  1  0  0  0  0
  5 29  1  0  0  0  0
  6  9  1  0  0  0  0
  6 30  1  0  0  0  0
  6 31  1  0  0  0  0
  7 10  1  0  0  0  0
  7 32  1  0  0  0  0
  7 33  1  0  0  0  0
  8 13  1  0  0  0  0
  8 34  1  0  0  0  0
  8 35  1  0  0  0  0
  9 12  1  0  0  0  0
  9 36  1  0  0  0  0
  9 37  1  0  0  0  0
 10 12  1  0  0  0  0
 10 38  1  0  0  0  0
 10 39  1  0  0  0  0
 11 40  1  0  0  0  0
 11 41  1  0  0  0  0
 11 42  1  0  0  0  0
 12 43  1  0  0  0  0
 12 44  1  0  0  0  0
 13 14  1  0  0  0  0
 13 45  1  0  0  0  0
 13 46  1  0  0  0  0
 14 15  1  0  0  0  0
 14 47  1  0  0  0  0
 14 48  1  0  0  0  0
 15 16  1  0  0  0  0
 15 49  1  0  0  0  0
 15 50  1  0  0  0  0
 16 17  1  0  0  0  0
 16 51  1  0  0  0  0
 16 52  1  0  0  0  0
 17 18  1  0  0  0  0
 17 53  1  0  0  0  0
 17 54  1  0  0  0  0
 18 19  1  0  0  0  0
 18 55  1  0  0  0  0
 18 56  1  0  0  0  0
 19 20  1  0  0  0  0
 19 57  1  0  0  0  0
 19 58  1  0  0  0  0
 20 21  1  0  0  0  0
 20 59  1  0  0  0  0
 20 60  1  0  0  0  0
 21 22  1  0  0  0  0
 21 61  1  0  0  0  0
 21 62  1  0  0  0  0
 22 23  1  0  0  0  0
 22 63  1  0  0  0  0
 22 64  1  0  0  0  0
 23 65  1  0  0  0  0
 23 66  1  0  0  0  0
 23 67  1  0  0  0  0
M  CHG  1   1   1
M  END
> <PUBCHEM_COMPOUND_CID>
13111

> <PUBCHEM_CONFORMER_RMSD>
1.4

> <PUBCHEM_CONFORMER_DIVERSEORDER>
5
77
6
99
42
31
45
39
57
86
96
21
46
100
22
62
78
18
9
26
74
76
56
4
19
97
87
95
13
11
81
10
53
17
23
3
69
67
75
101
16
94
98
68
49
73
40
25
90
15
44
66
58
33
24
88
65
35
7
80
47
41
50
71
59
30
91
34
83
72
79
43
63
1
12
55
48
61
20
60
8
85
103
27
92
82
93
32
52
89
37
102
29
70
36
28
14
38
84
2
54
64
51

> <PUBCHEM_MMFF94_PARTIAL_CHARGES>
5
1 -1.01
11 0.5
3 0.5
5 0.5
8 0.5

> <PUBCHEM_EFFECTIVE_ROTOR_COUNT>
12.8

> <PUBCHEM_PHARMACOPHORE_FEATURES>
4
1 1 cation
1 23 hydrophobe
5 1 2 3 4 5 rings
6 2 6 7 9 10 12 rings

> <PUBCHEM_HEAVY_ATOM_COUNT>
23

> <PUBCHEM_ATOM_DEF_STEREO_COUNT>
0

> <PUBCHEM_ATOM_UDEF_STEREO_COUNT>
1

> <PUBCHEM_BOND_DEF_STEREO_COUNT>
0

> <PUBCHEM_BOND_UDEF_STEREO_COUNT>
0

> <PUBCHEM_ISOTOPIC_ATOM_COUNT>
0

> <PUBCHEM_COMPONENT_COUNT>
1

> <PUBCHEM_CACTVS_TAUTO_COUNT>
1

> <PUBCHEM_CONFORMER_ID>
0000333700000005

> <PUBCHEM_MMFF94_ENERGY>
36.4214

> <PUBCHEM_FEATURE_SELFOVERLAP>
20.302

> <PUBCHEM_SHAPE_FINGERPRINT>
10693767 8 17972344849169622015
11200772 71 18199161015852071734
12038231 1 17402331967563241184
12422481 6 17839160937136179595
12553582 1 17119162127938211409
12633257 1 18188756276223734492
12645989 146 18334859445969334606
12712778 12 18270129040821421176
13122387 1 17185876632346304168
13402501 40 18339080509551639988
14251757 5 18339628036883890348
14725015 67 18341338884754397353
152267 14 18336834074637189798
15322534 239 17688871256419210958
15927050 60 17760374687918017789
16719943 64 18051697938943893898
17627616 140 17117756398343240986
19930381 70 17547015126245672650
20531524 4 17974828869053566550
20764821 26 17905600361261973454
20775438 99 17251790834044559319
23559900 14 16895966739588627449
238918 7 17901118726382743286
325973 47 18266176317788674572
463206 1 14876651928833807054
56633871 153 18266169539992846987
6433294 58 18338796711499113308
7097593 13 17977377235921287428

> <PUBCHEM_SHAPE_MULTIPOLES>
468.35
8.86
6.87
1.15
13.68
2.48
0.26
-2.86
0.14
0.03
-1.62
-1.05
-0.41
0.87

> <PUBCHEM_SHAPE_SELFOVERLAP>
902.317

> <PUBCHEM_SHAPE_VOLUME>
284.9

> <PUBCHEM_COORDINATE_TYPE>
2
5
10

$$$$

