443851
  -OEChem-07051213033D

 33 33  0     1  0  0  0  0  0999 V2000
    2.7484    1.3518    1.6433 O   0  0  0  0  0  0  0  0  0  0  0  0
   -2.0059   -2.2661   -0.2838 O   0  0  0  0  0  0  0  0  0  0  0  0
    3.9253   -0.2559   -1.3746 O   0  0  0  0  0  0  0  0  0  0  0  0
    3.9138    1.9161   -0.7285 O   0  0  0  0  0  0  0  0  0  0  0  0
   -0.6029   -0.3266   -0.4053 C   0  0  0  0  0  0  0  0  0  0  0  0
   -1.6943    0.4558   -1.0922 C   0  0  0  0  0  0  0  0  0  0  0  0
    1.6291   -0.4107    0.4806 C   0  0  0  0  0  0  0  0  0  0  0  0
    0.6090    0.2997   -0.1523 C   0  0  0  0  0  0  0  0  0  0  0  0
   -0.8170   -1.6474   -0.0393 C   0  0  0  0  0  0  0  0  0  0  0  0
    2.9370    0.2494    0.7595 C   0  0  1  0  0  0  0  0  0  0  0  0
    1.4262   -1.7393    0.8536 C   0  0  0  0  0  0  0  0  0  0  0  0
   -2.5839    1.1738   -0.1167 C   0  0  0  0  0  0  0  0  0  0  0  0
    0.2033   -2.3577    0.5935 C   0  0  0  0  0  0  0  0  0  0  0  0
   -3.9087    1.0156    0.0664 C   0  0  0  0  0  0  0  0  0  0  0  0
    3.6439    0.7443   -0.4992 C   0  0  0  0  0  0  0  0  0  0  0  0
   -4.7429    1.7686    1.0636 C   0  0  0  0  0  0  0  0  0  0  0  0
   -4.6804    0.0284   -0.7685 C   0  0  0  0  0  0  0  0  0  0  0  0
   -1.2320    1.2187   -1.7344 H   0  0  0  0  0  0  0  0  0  0  0  0
   -2.2218   -0.1867   -1.8010 H   0  0  0  0  0  0  0  0  0  0  0  0
    0.7612    1.3346   -0.4478 H   0  0  0  0  0  0  0  0  0  0  0  0
    3.6317   -0.4314    1.2646 H   0  0  0  0  0  0  0  0  0  0  0  0
    2.2114   -2.3057    1.3473 H   0  0  0  0  0  0  0  0  0  0  0  0
   -2.0809    1.9139    0.5056 H   0  0  0  0  0  0  0  0  0  0  0  0
    0.0588   -3.3933    0.8898 H   0  0  0  0  0  0  0  0  0  0  0  0
   -4.1418    2.4880    1.6294 H   0  0  0  0  0  0  0  0  0  0  0  0
   -5.5374    2.3236    0.5547 H   0  0  0  0  0  0  0  0  0  0  0  0
   -5.1996    1.0782    1.7797 H   0  0  0  0  0  0  0  0  0  0  0  0
   -4.0786   -0.7003   -1.3106 H   0  0  0  0  0  0  0  0  0  0  0  0
   -5.3462   -0.5573   -0.1239 H   0  0  0  0  0  0  0  0  0  0  0  0
   -5.3023    0.5628   -1.4946 H   0  0  0  0  0  0  0  0  0  0  0  0
    2.1410    1.9867    1.2277 H   0  0  0  0  0  0  0  0  0  0  0  0
   -1.9619   -3.1801    0.0452 H   0  0  0  0  0  0  0  0  0  0  0  0
    4.3659    0.0802   -2.1840 H   0  0  0  0  0  0  0  0  0  0  0  0
  1 10  1  0  0  0  0
  1 31  1  0  0  0  0
  2  9  1  0  0  0  0
  2 32  1  0  0  0  0
  3 15  1  0  0  0  0
  3 33  1  0  0  0  0
  4 15  2  0  0  0  0
  5  6  1  0  0  0  0
  5  8  1  0  0  0  0
  5  9  2  0  0  0  0
  6 12  1  0  0  0  0
  6 18  1  0  0  0  0
  6 19  1  0  0  0  0
  7  8  2  0  0  0  0
  7 10  1  0  0  0  0
  7 11  1  0  0  0  0
  8 20  1  0  0  0  0
  9 13  1  0  0  0  0
 10 15  1  0  0  0  0
 10 21  1  0  0  0  0
 11 13  2  0  0  0  0
 11 22  1  0  0  0  0
 12 14  2  0  0  0  0
 12 23  1  0  0  0  0
 13 24  1  0  0  0  0
 14 16  1  0  0  0  0
 14 17  1  0  0  0  0
 16 25  1  0  0  0  0
 16 26  1  0  0  0  0
 16 27  1  0  0  0  0
 17 28  1  0  0  0  0
 17 29  1  0  0  0  0
 17 30  1  0  0  0  0
M  END
> <PUBCHEM_COMPOUND_CID>
443851

> <PUBCHEM_CONFORMER_RMSD>
0.6

> <PUBCHEM_CONFORMER_DIVERSEORDER>
1
160
48
90
97
166
54
185
147
159
64
152
191
190
87
129
168
142
65
41
121
183
124
84
138
4
136
169
113
163
58
179
83
186
82
158
151
149
125
86
27
14
112
153
78
57
76
130
28
193
174
161
177
62
52
73
79
66
188
59
105
63
184
118
117
94
61
116
165
5
131
108
170
32
44
192
133
88
25
145
172
127
20
157
49
176
155
187
43
119
132
80
103
182
180
85
15
140
115
164
156
143
29
92
99
120
8
11
148
139
51
134
55
189
167
21
123
146
110
69
19
135
7
106
144
68
175
35
72
162
98
38
128
45
102
6
34
101
109
100
150
70
26
181
30
171
141
93
56
111
39
36
178
3
53
81
77
75
122
13
89
50
46
47
18
74
23
12
22
24
10
96
71
16
67
173
154
95
17
126
60
137
2
107
37
114
42
31
9
33
91
40
104

> <PUBCHEM_MMFF94_PARTIAL_CHARGES>
24
1 -0.68
10 0.48
11 -0.15
12 -0.29
13 -0.15
14 -0.28
15 0.66
16 0.14
17 0.14
2 -0.53
20 0.15
22 0.15
23 0.15
24 0.15
3 -0.65
31 0.4
32 0.45
33 0.5
4 -0.57
5 -0.14
6 0.28
7 -0.14
8 -0.15
9 0.08

> <PUBCHEM_EFFECTIVE_ROTOR_COUNT>
4

> <PUBCHEM_PHARMACOPHORE_FEATURES>
8
1 1 acceptor
1 1 donor
1 2 donor
1 3 acceptor
1 4 acceptor
3 14 16 17 hydrophobe
3 3 4 15 anion
6 5 7 8 9 11 13 rings

> <PUBCHEM_HEAVY_ATOM_COUNT>
17

> <PUBCHEM_ATOM_DEF_STEREO_COUNT>
0

> <PUBCHEM_ATOM_UDEF_STEREO_COUNT>
1

> <PUBCHEM_BOND_DEF_STEREO_COUNT>
0

> <PUBCHEM_BOND_UDEF_STEREO_COUNT>
0

> <PUBCHEM_ISOTOPIC_ATOM_COUNT>
0

> <PUBCHEM_COMPONENT_COUNT>
1

> <PUBCHEM_CACTVS_TAUTO_COUNT>
3

> <PUBCHEM_CONFORMER_ID>
0006C5CB00000001

> <PUBCHEM_MMFF94_ENERGY>
32.1953

> <PUBCHEM_FEATURE_SELFOVERLAP>
40.661

> <PUBCHEM_SHAPE_FINGERPRINT>
10498660 4 18343026562167730293
10922049 32 18335977640466873327
10980938 120 18341902947299319139
11543360 7 16515981258836023973
12390115 104 18268975514994236748
12644460 14 17988362697138862250
13380535 21 18413109476161302755
13583140 156 15984841344916115301
14123255 52 18343302573872245813
14289901 80 14836125463547890364
15309172 13 18202285822669631189
15342168 16 18341893030563042485
18186145 218 18187655742378099669
20369508 70 6555116216923865348
204376 136 18343302574346667935
20510252 161 18195525878974003786
20671657 1 18337120080150646858
20671657 53 7565339838545573099
21501502 16 18341344330905213090
21501925 9 8934994867601166702
21524375 3 18410866481046294691
22620623 9 17604995801883783311
23558518 356 17625818262912056956
23559900 14 18408042889238861288
25 1 18334576871279794922
251288 83 11671774962605435572
25147074 1 18270702899359499194
2637199 183 18335693992141622248
2748010 2 17118050521740435346
276578 36 18340769337709960802
44154327 71 18201719565486143956
458136 41 18340480196496480971
474 4 18341611538237637841
4990 188 17894346708953103222
6333272 397 18343584036048378981
633830 44 18261113001896510557
6442390 28 18271514330187248675
7808743 9 18270398283267724620
81228 2 17983309122459261322
8988823 20 13470400033573881517
9882013 296 17703791444371543269
9999458 23 17988358294924230758

> <PUBCHEM_SHAPE_MULTIPOLES>
326.37
8.62
2.2
1.16
4.44
1
0.11
-5.56
-0.34
-0.09
0.36
-0.35
-0.27
-0.79

> <PUBCHEM_SHAPE_SELFOVERLAP>
672.279

> <PUBCHEM_SHAPE_VOLUME>
187.3

> <PUBCHEM_COORDINATE_TYPE>
2
5
10

$$$$

