223527
  -OEChem-07051213073D

 61 64  0     1  0  0  0  0  0999 V2000
   -5.0184   -0.1647   -0.6688 O   0  0  0  0  0  0  0  0  0  0  0  0
    4.8482    0.4246   -1.2518 O   0  0  0  0  0  0  0  0  0  0  0  0
   -6.1952    1.8209   -0.7665 O   0  0  0  0  0  0  0  0  0  0  0  0
    5.8956    1.7936    0.2862 O   0  0  0  0  0  0  0  0  0  0  0  0
   -1.7001    0.5932    0.6367 C   0  0  2  0  0  0  0  0  0  0  0  0
   -2.6343   -0.3967   -0.0855 C   0  0  2  0  0  0  0  0  0  0  0  0
   -0.3952   -0.0596    1.1032 C   0  0  1  0  0  0  0  0  0  0  0  0
    0.3565   -0.6235   -0.1452 C   0  0  1  0  0  0  0  0  0  0  0  0
    1.7417   -1.2784    0.2220 C   0  0  2  0  0  0  0  0  0  0  0  0
   -1.9180   -0.8919   -1.3483 C   0  0  0  0  0  0  0  0  0  0  0  0
   -0.5584   -1.5314   -1.0127 C   0  0  0  0  0  0  0  0  0  0  0  0
   -3.8323    0.5360   -0.3479 C   0  0  2  0  0  0  0  0  0  0  0  0
   -2.6110    1.2555    1.6674 C   0  0  0  0  0  0  0  0  0  0  0  0
    0.4951    0.9393    1.8547 C   0  0  0  0  0  0  0  0  0  0  0  0
   -3.9769    1.3352    0.9618 C   0  0  0  0  0  0  0  0  0  0  0  0
    2.5395   -0.3043    1.0988 C   0  0  0  0  0  0  0  0  0  0  0  0
    1.8141    0.3017    2.2751 C   0  0  0  0  0  0  0  0  0  0  0  0
   -3.0748   -1.6119    0.7699 C   0  0  0  0  0  0  0  0  0  0  0  0
    2.5130   -1.5874   -1.0992 C   0  0  0  0  0  0  0  0  0  0  0  0
    1.5655   -2.5991    1.0079 C   0  0  0  0  0  0  0  0  0  0  0  0
    4.0114   -1.7990   -0.8839 C   0  0  0  0  0  0  0  0  0  0  0  0
    3.8236    0.0172    0.8556 C   0  0  0  0  0  0  0  0  0  0  0  0
    4.6511   -0.5683   -0.2471 C   0  0  2  0  0  0  0  0  0  0  0  0
   -6.1394    0.6018   -0.8545 C   0  0  0  0  0  0  0  0  0  0  0  0
   -7.3121   -0.2701   -1.1872 C   0  0  0  0  0  0  0  0  0  0  0  0
    5.4871    1.5605   -0.8434 C   0  0  0  0  0  0  0  0  0  0  0  0
    5.6236    2.5071   -1.9972 C   0  0  0  0  0  0  0  0  0  0  0  0
   -1.4195    1.3886   -0.0743 H   0  0  0  0  0  0  0  0  0  0  0  0
   -0.6300   -0.8768    1.7939 H   0  0  0  0  0  0  0  0  0  0  0  0
    0.5857    0.2503   -0.7772 H   0  0  0  0  0  0  0  0  0  0  0  0
   -1.7474   -0.0546   -2.0376 H   0  0  0  0  0  0  0  0  0  0  0  0
   -2.5418   -1.6138   -1.8891 H   0  0  0  0  0  0  0  0  0  0  0  0
   -0.7296   -2.4883   -0.5101 H   0  0  0  0  0  0  0  0  0  0  0  0
   -0.0603   -1.7672   -1.9597 H   0  0  0  0  0  0  0  0  0  0  0  0
   -3.5932    1.2214   -1.1733 H   0  0  0  0  0  0  0  0  0  0  0  0
   -2.2518    2.2492    1.9538 H   0  0  0  0  0  0  0  0  0  0  0  0
   -2.6872    0.6545    2.5804 H   0  0  0  0  0  0  0  0  0  0  0  0
   -0.0204    1.3044    2.7508 H   0  0  0  0  0  0  0  0  0  0  0  0
    0.6940    1.8154    1.2237 H   0  0  0  0  0  0  0  0  0  0  0  0
   -4.7663    0.9413    1.6121 H   0  0  0  0  0  0  0  0  0  0  0  0
   -4.2233    2.3816    0.7495 H   0  0  0  0  0  0  0  0  0  0  0  0
    1.6256   -0.4790    3.0219 H   0  0  0  0  0  0  0  0  0  0  0  0
    2.4267    1.0618    2.7751 H   0  0  0  0  0  0  0  0  0  0  0  0
   -2.2312   -2.2153    1.1150 H   0  0  0  0  0  0  0  0  0  0  0  0
   -3.6369   -1.3143    1.6608 H   0  0  0  0  0  0  0  0  0  0  0  0
   -3.7241   -2.2770    0.1884 H   0  0  0  0  0  0  0  0  0  0  0  0
    2.3818   -0.7618   -1.8119 H   0  0  0  0  0  0  0  0  0  0  0  0
    2.1007   -2.4805   -1.5847 H   0  0  0  0  0  0  0  0  0  0  0  0
    2.5254   -2.9768    1.3791 H   0  0  0  0  0  0  0  0  0  0  0  0
    0.9144   -2.4825    1.8796 H   0  0  0  0  0  0  0  0  0  0  0  0
    1.1341   -3.3871    0.3818 H   0  0  0  0  0  0  0  0  0  0  0  0
    4.1714   -2.6761   -0.2459 H   0  0  0  0  0  0  0  0  0  0  0  0
    4.4833   -2.0114   -1.8507 H   0  0  0  0  0  0  0  0  0  0  0  0
    4.3110    0.6902    1.5549 H   0  0  0  0  0  0  0  0  0  0  0  0
    5.6328   -0.8659    0.1433 H   0  0  0  0  0  0  0  0  0  0  0  0
   -7.5018   -0.9639   -0.3645 H   0  0  0  0  0  0  0  0  0  0  0  0
   -7.1164   -0.8154   -2.1138 H   0  0  0  0  0  0  0  0  0  0  0  0
   -8.1993    0.3534   -1.3295 H   0  0  0  0  0  0  0  0  0  0  0  0
    4.6336    2.7810   -2.3706 H   0  0  0  0  0  0  0  0  0  0  0  0
    6.2194    2.0441   -2.7878 H   0  0  0  0  0  0  0  0  0  0  0  0
    6.1334    3.4154   -1.6630 H   0  0  0  0  0  0  0  0  0  0  0  0
  1 12  1  0  0  0  0
  1 24  1  0  0  0  0
  2 23  1  0  0  0  0
  2 26  1  0  0  0  0
  3 24  2  0  0  0  0
  4 26  2  0  0  0  0
  5  6  1  0  0  0  0
  5  7  1  0  0  0  0
  5 13  1  0  0  0  0
  5 28  1  0  0  0  0
  6 10  1  0  0  0  0
  6 12  1  0  0  0  0
  6 18  1  0  0  0  0
  7  8  1  0  0  0  0
  7 14  1  0  0  0  0
  7 29  1  0  0  0  0
  8  9  1  0  0  0  0
  8 11  1  0  0  0  0
  8 30  1  0  0  0  0
  9 16  1  0  0  0  0
  9 19  1  0  0  0  0
  9 20  1  0  0  0  0
 10 11  1  0  0  0  0
 10 31  1  0  0  0  0
 10 32  1  0  0  0  0
 11 33  1  0  0  0  0
 11 34  1  0  0  0  0
 12 15  1  0  0  0  0
 12 35  1  0  0  0  0
 13 15  1  0  0  0  0
 13 36  1  0  0  0  0
 13 37  1  0  0  0  0
 14 17  1  0  0  0  0
 14 38  1  0  0  0  0
 14 39  1  0  0  0  0
 15 40  1  0  0  0  0
 15 41  1  0  0  0  0
 16 17  1  0  0  0  0
 16 22  2  0  0  0  0
 17 42  1  0  0  0  0
 17 43  1  0  0  0  0
 18 44  1  0  0  0  0
 18 45  1  0  0  0  0
 18 46  1  0  0  0  0
 19 21  1  0  0  0  0
 19 47  1  0  0  0  0
 19 48  1  0  0  0  0
 20 49  1  0  0  0  0
 20 50  1  0  0  0  0
 20 51  1  0  0  0  0
 21 23  1  0  0  0  0
 21 52  1  0  0  0  0
 21 53  1  0  0  0  0
 22 23  1  0  0  0  0
 22 54  1  0  0  0  0
 23 55  1  0  0  0  0
 24 25  1  0  0  0  0
 25 56  1  0  0  0  0
 25 57  1  0  0  0  0
 25 58  1  0  0  0  0
 26 27  1  0  0  0  0
 27 59  1  0  0  0  0
 27 60  1  0  0  0  0
 27 61  1  0  0  0  0
M  END
> <PUBCHEM_COMPOUND_CID>
223527

> <PUBCHEM_CONFORMER_RMSD>
0.8

> <PUBCHEM_CONFORMER_DIVERSEORDER>
1
6
2
4
5
3

> <PUBCHEM_MMFF94_PARTIAL_CHARGES>
15
1 -0.43
12 0.28
16 -0.28
17 0.14
2 -0.43
22 -0.29
23 0.42
24 0.66
25 0.06
26 0.66
27 0.06
3 -0.57
4 -0.57
54 0.15
9 0.14

> <PUBCHEM_EFFECTIVE_ROTOR_COUNT>
6

> <PUBCHEM_PHARMACOPHORE_FEATURES>
6
1 3 acceptor
1 4 acceptor
5 5 6 12 13 15 rings
6 5 6 7 8 10 11 rings
6 7 8 9 14 16 17 rings
6 9 16 19 21 22 23 rings

> <PUBCHEM_HEAVY_ATOM_COUNT>
27

> <PUBCHEM_ATOM_DEF_STEREO_COUNT>
7

> <PUBCHEM_ATOM_UDEF_STEREO_COUNT>
0

> <PUBCHEM_BOND_DEF_STEREO_COUNT>
0

> <PUBCHEM_BOND_UDEF_STEREO_COUNT>
0

> <PUBCHEM_ISOTOPIC_ATOM_COUNT>
0

> <PUBCHEM_COMPONENT_COUNT>
1

> <PUBCHEM_CACTVS_TAUTO_COUNT>
1

> <PUBCHEM_CONFORMER_ID>
0003692700000001

> <PUBCHEM_MMFF94_ENERGY>
77.5536

> <PUBCHEM_FEATURE_SELFOVERLAP>
30.542

> <PUBCHEM_SHAPE_FINGERPRINT>
10 15 12391507594381966351
10366900 7 18040436598865227187
10591671 39 18260266322466971381
10670039 82 18040707104580125760
10906281 52 18042110094612721651
11961588 58 18411981347166154346
12011746 2 17749113296446246931
12236239 1 18336549399688258663
12633257 1 13758068572263855086
12839892 36 13326570727169542528
13533116 47 18266468787845571323
13540713 4 17025734558846212698
13617811 41 18260838072371396297
13685833 64 6338961053335668108
13782708 43 5328734176340214445
14178342 30 12966590706182602422
14251757 52 17988649635868186157
14251764 30 5545203809170781804
14528608 73 18187082862470683628
14739800 52 16916799507958306661
14767858 380 18040434386503284853
14790565 3 17171215602383191488
14931854 50 17749100102481163860
15131766 46 17843965845593402028
15183329 4 17022900159560989352
15196674 1 17458631176399834211
15475509 35 7493012830358453364
15510800 12 5184081310215200620
17349148 13 14634874141340181155
17492 54 18113610167277414424
17980427 23 16128088932434576150
18222031 100 15430039867788861810
18335252 114 18272370872005840060
19319366 153 18334019418969818374
19784866 240 6122507920962089581
1979834 28 14692571060914757218
200 152 16153437164370324715
2026 5 14635692247164873116
20715895 44 18202843236795563804
21150785 3 17894914001292754813
21267235 1 17167864187983586423
21344244 181 14851602154929182884
21637258 2 5400810436490224076
21641784 216 17968084361106903832
21792961 116 18040987450080586438
221357 26 17022907864953942825
23522609 53 17604967334977747633
23559900 14 17095821927210663483
23569914 2 17126536814287303997
23569943 247 14346611934874649279
27425 322 17703790267603401322
3004659 81 18041558169751224110
33382 64 6194848059856406988
3472631 163 17917710175939779052
34797466 226 18343860039521455055
34934 24 14117511069720056843
350125 39 17458064902490034961
3680242 22 12391510901512240796
392239 28 14908179724902232324
4058900 60 18189329238305377823
4072396 5 12967129423497723955
4093350 32 16773244005823686331
4258327 124 18129653098309306061
4340502 62 15339119060986449931
46194498 28 15574720175161947032
465052 167 16443071590657700071
474 4 18343013368660900654
5104073 3 12103262907621121237
633830 44 18341044194780767922
86090 222 5833723382978133084
960060 61 17822009830725284528

> <PUBCHEM_SHAPE_MULTIPOLES>
532.17
15.1
2.14
1.81
9.45
0.07
0.27
-7.48
-8.59
-2.09
-0.36
-0.82
-0.53
-1.23

> <PUBCHEM_SHAPE_SELFOVERLAP>
1128.085

> <PUBCHEM_SHAPE_VOLUME>
293.9

> <PUBCHEM_COORDINATE_TYPE>
2
5
10

$$$$

