5461147
  -OEChem-07051213073D

 26 26  0     1  0  0  0  0  0999 V2000
   -3.0914    2.0058    0.1996 O   0  0  0  0  0  0  0  0  0  0  0  0
   -3.8777    0.0818   -0.8759 O   0  0  0  0  0  0  0  0  0  0  0  0
   -0.7615   -1.7743   -1.1131 O   0  0  0  0  0  0  0  0  0  0  0  0
   -2.2330   -2.0345    0.5935 O   0  0  0  0  0  0  0  0  0  0  0  0
    4.6796   -0.2759   -0.4645 O   0  0  0  0  0  0  0  0  0  0  0  0
   -3.0592    0.5562    0.2231 N   0  0  0  0  0  0  0  0  0  0  0  0
   -0.6977    0.8585    0.8123 C   0  0  0  0  0  0  0  0  0  0  0  0
   -1.6927    0.2157   -0.1665 C   0  0  1  0  0  0  0  0  0  0  0  0
    0.7427    0.5544    0.4699 C   0  0  0  0  0  0  0  0  0  0  0  0
    1.3447   -0.5693    1.0106 C   0  0  0  0  0  0  0  0  0  0  0  0
    1.4316    1.4065   -0.3771 C   0  0  0  0  0  0  0  0  0  0  0  0
   -1.6036   -1.3008   -0.1581 C   0  0  0  0  0  0  0  0  0  0  0  0
    2.6743   -0.8493    0.6951 C   0  0  0  0  0  0  0  0  0  0  0  0
    2.7612    1.1265   -0.6926 C   0  0  0  0  0  0  0  0  0  0  0  0
    3.3826   -0.0013   -0.1564 C   0  0  0  0  0  0  0  0  0  0  0  0
   -0.8958    0.5117    1.8366 H   0  0  0  0  0  0  0  0  0  0  0  0
   -0.8088    1.9500    0.8478 H   0  0  0  0  0  0  0  0  0  0  0  0
   -1.4943    0.5678   -1.1890 H   0  0  0  0  0  0  0  0  0  0  0  0
    0.8045   -1.2345    1.6780 H   0  0  0  0  0  0  0  0  0  0  0  0
    0.9552    2.2856   -0.8011 H   0  0  0  0  0  0  0  0  0  0  0  0
    3.1471   -1.7308    1.1198 H   0  0  0  0  0  0  0  0  0  0  0  0
    3.3075    1.7902   -1.3572 H   0  0  0  0  0  0  0  0  0  0  0  0
   -3.4860    2.1709    1.0726 H   0  0  0  0  0  0  0  0  0  0  0  0
   -4.5448   -0.4169   -0.3746 H   0  0  0  0  0  0  0  0  0  0  0  0
   -0.7184   -2.7543   -1.1090 H   0  0  0  0  0  0  0  0  0  0  0  0
    4.9463   -1.0918   -0.0071 H   0  0  0  0  0  0  0  0  0  0  0  0
  1  6  1  0  0  0  0
  1 23  1  0  0  0  0
  2  6  1  0  0  0  0
  2 24  1  0  0  0  0
  3 12  1  0  0  0  0
  3 25  1  0  0  0  0
  4 12  2  0  0  0  0
  5 15  1  0  0  0  0
  5 26  1  0  0  0  0
  6  8  1  0  0  0  0
  7  8  1  0  0  0  0
  7  9  1  0  0  0  0
  7 16  1  0  0  0  0
  7 17  1  0  0  0  0
  8 12  1  0  0  0  0
  8 18  1  0  0  0  0
  9 10  2  0  0  0  0
  9 11  1  0  0  0  0
 10 13  1  0  0  0  0
 10 19  1  0  0  0  0
 11 14  2  0  0  0  0
 11 20  1  0  0  0  0
 13 15  2  0  0  0  0
 13 21  1  0  0  0  0
 14 15  1  0  0  0  0
 14 22  1  0  0  0  0
M  END
> <PUBCHEM_COMPOUND_CID>
5461147

> <PUBCHEM_CONFORMER_RMSD>
0.6

> <PUBCHEM_CONFORMER_DIVERSEORDER>
1
2
18
17
7
23
4
19
11
24
21
22
16
10
9
20
13
3
14
8
6
5
12
15

> <PUBCHEM_MMFF94_PARTIAL_CHARGES>
23
1 -0.3
10 -0.15
11 -0.15
12 0.66
13 -0.15
14 -0.15
15 0.08
19 0.15
2 -0.3
20 0.15
21 0.15
22 0.15
23 0.4
24 0.4
25 0.5
26 0.45
3 -0.65
4 -0.57
5 -0.53
6 -0.47
7 0.14
8 0.33
9 -0.14

> <PUBCHEM_EFFECTIVE_ROTOR_COUNT>
4

> <PUBCHEM_PHARMACOPHORE_FEATURES>
9
1 1 acceptor
1 1 anion
1 2 acceptor
1 2 anion
1 3 acceptor
1 4 acceptor
1 5 donor
3 3 4 12 anion
6 9 10 11 13 14 15 rings

> <PUBCHEM_HEAVY_ATOM_COUNT>
15

> <PUBCHEM_ATOM_DEF_STEREO_COUNT>
1

> <PUBCHEM_ATOM_UDEF_STEREO_COUNT>
0

> <PUBCHEM_BOND_DEF_STEREO_COUNT>
0

> <PUBCHEM_BOND_UDEF_STEREO_COUNT>
0

> <PUBCHEM_ISOTOPIC_ATOM_COUNT>
0

> <PUBCHEM_COMPONENT_COUNT>
1

> <PUBCHEM_CACTVS_TAUTO_COUNT>
2

> <PUBCHEM_CONFORMER_ID>
0053549B00000001

> <PUBCHEM_MMFF94_ENERGY>
27.069

> <PUBCHEM_FEATURE_SELFOVERLAP>
45.815

> <PUBCHEM_SHAPE_FINGERPRINT>
10751810 167 18341885277867173470
11031198 65 17131827698825537658
11401426 45 18202003218696906816
12932764 1 17897158022957479736
13214271 11 13039183710737764691
13221675 6 18273496788401149512
13296908 3 18261110708462835672
13538477 17 18271534121385498739
14115302 16 18335983094975092772
14144814 61 18412829109354466609
14993402 34 18411422838256370309
15207287 21 16226046699706321380
15279307 12 18272373078790906874
15375358 24 17676212381363903360
15775835 57 18131348613779386862
16752209 62 18260841392649543503
16945 1 18271534177114533065
18186145 218 17774726377018603284
19422 9 18272082752055066110
20279233 1 17167864149597659206
20523700 14 18413392025095835942
20645476 183 18342459244222207495
21119208 17 18342457049751972940
23402539 116 18041002889849764045
23402655 69 17988924487583021108
23559900 14 17967816068354462728
23598291 2 18058460961450824930
25 1 17632858659149823656
2748010 2 18046639905887507409
4175511 318 18272654566678548893
465052 167 18046897183404386599
528886 8 18060142028983140832
74978 22 18410577245042444729
7832392 63 18342739611260866652
90525 40 18409165536626398215
93112 12 18342457010838953804
9939556 21 18342174436456103924

> <PUBCHEM_SHAPE_MULTIPOLES>
274.37
6.61
1.74
0.95
1.32
0.19
0
-0.43
1.18
-1.03
0.05
0.04
0.12
-0.44

> <PUBCHEM_SHAPE_SELFOVERLAP>
565.924

> <PUBCHEM_SHAPE_VOLUME>
156.8

> <PUBCHEM_COORDINATE_TYPE>
2
5
10

$$$$

