91693
  -OEChem-07051213122D

 33 34  0     1  0  0  0  0  0999 V2000
    2.0000   -0.5194    0.0000 Cl  0  0  0  0  0  0  0  0  0  0  0  0
    3.7320   -3.5194    0.0000 Cl  0  0  0  0  0  0  0  0  0  0  0  0
    4.5981    1.9806    0.0000 N   0  0  0  0  0  0  0  0  0  0  0  0
    5.4071    2.5684    0.0000 N   0  0  0  0  0  0  0  0  0  0  0  0
    4.0981    3.5194    0.0000 N   0  0  0  0  0  0  0  0  0  0  0  0
    3.7320    0.4806    0.0000 C   0  0  3  0  0  0  0  0  0  0  0  0
    2.8660    0.9806    0.0000 C   0  0  0  0  0  0  0  0  0  0  0  0
    4.5981    0.9806    0.0000 C   0  0  0  0  0  0  0  0  0  0  0  0
    3.7320   -0.5194    0.0000 C   0  0  0  0  0  0  0  0  0  0  0  0
    2.8660    1.9806    0.0000 C   0  0  0  0  0  0  0  0  0  0  0  0
    2.8660   -1.0194    0.0000 C   0  0  0  0  0  0  0  0  0  0  0  0
    4.5981   -1.0194    0.0000 C   0  0  0  0  0  0  0  0  0  0  0  0
    2.0000    2.4806    0.0000 C   0  0  0  0  0  0  0  0  0  0  0  0
    2.8660   -2.0194    0.0000 C   0  0  0  0  0  0  0  0  0  0  0  0
    4.5981   -2.0194    0.0000 C   0  0  0  0  0  0  0  0  0  0  0  0
    3.7891    2.5684    0.0000 C   0  0  0  0  0  0  0  0  0  0  0  0
    3.7320   -2.5194    0.0000 C   0  0  0  0  0  0  0  0  0  0  0  0
    5.0981    3.5194    0.0000 C   0  0  0  0  0  0  0  0  0  0  0  0
    3.7320    1.3306    0.0000 H   0  0  0  0  0  0  0  0  0  0  0  0
    2.2554    1.0882    0.0000 H   0  0  0  0  0  0  0  0  0  0  0  0
    2.6540    0.3980    0.0000 H   0  0  0  0  0  0  0  0  0  0  0  0
    4.8101    0.3980    0.0000 H   0  0  0  0  0  0  0  0  0  0  0  0
    5.2087    1.0882    0.0000 H   0  0  0  0  0  0  0  0  0  0  0  0
    3.4766    1.8729    0.0000 H   0  0  0  0  0  0  0  0  0  0  0  0
    3.0781    2.5632    0.0000 H   0  0  0  0  0  0  0  0  0  0  0  0
    5.1350   -0.7094    0.0000 H   0  0  0  0  0  0  0  0  0  0  0  0
    2.3100    3.0175    0.0000 H   0  0  0  0  0  0  0  0  0  0  0  0
    1.4631    2.7906    0.0000 H   0  0  0  0  0  0  0  0  0  0  0  0
    1.6900    1.9436    0.0000 H   0  0  0  0  0  0  0  0  0  0  0  0
    2.3291   -2.3294    0.0000 H   0  0  0  0  0  0  0  0  0  0  0  0
    5.1350   -2.3294    0.0000 H   0  0  0  0  0  0  0  0  0  0  0  0
    3.1994    2.3768    0.0000 H   0  0  0  0  0  0  0  0  0  0  0  0
    5.4625    4.0210    0.0000 H   0  0  0  0  0  0  0  0  0  0  0  0
  1 11  1  0  0  0  0
  2 17  1  0  0  0  0
  3  4  1  0  0  0  0
  3  8  1  0  0  0  0
  3 16  1  0  0  0  0
  4 18  2  0  0  0  0
  5 16  2  0  0  0  0
  5 18  1  0  0  0  0
  6  7  1  0  0  0  0
  6  8  1  0  0  0  0
  6  9  1  0  0  0  0
  6 19  1  0  0  0  0
  7 10  1  0  0  0  0
  7 20  1  0  0  0  0
  7 21  1  0  0  0  0
  8 22  1  0  0  0  0
  8 23  1  0  0  0  0
  9 11  2  0  0  0  0
  9 12  1  0  0  0  0
 10 13  1  0  0  0  0
 10 24  1  0  0  0  0
 10 25  1  0  0  0  0
 11 14  1  0  0  0  0
 12 15  2  0  0  0  0
 12 26  1  0  0  0  0
 13 27  1  0  0  0  0
 13 28  1  0  0  0  0
 13 29  1  0  0  0  0
 14 17  2  0  0  0  0
 14 30  1  0  0  0  0
 15 17  1  0  0  0  0
 15 31  1  0  0  0  0
 16 32  1  0  0  0  0
 18 33  1  0  0  0  0
M  END
> <PUBCHEM_COMPOUND_CID>
91693

> <PUBCHEM_COMPOUND_CANONICALIZED>
1

> <PUBCHEM_CACTVS_COMPLEXITY>
252

> <PUBCHEM_CACTVS_HBOND_ACCEPTOR>
2

> <PUBCHEM_CACTVS_HBOND_DONOR>
0

> <PUBCHEM_CACTVS_ROTATABLE_BOND>
5

> <PUBCHEM_CACTVS_SUBSKEYS>
AAADccBzAAAGAAAAAAAAAAAAAAAAAWAAAAAwAAAAAAAAAAABwAAAHAIIAAAADQLBGCQ3EIYIEACiAiBDJAASAAswhYAdyAAIAoiIKCKBmxGEIAAogAIIiAcQgMAOhAAAAACBAAAIAAAAAQIAAAAAAAAAAA==

> <PUBCHEM_IUPAC_OPENEYE_NAME>
1-[2-(2,4-dichlorophenyl)pentyl]-1,2,4-triazole

> <PUBCHEM_IUPAC_CAS_NAME>
1-[2-(2,4-dichlorophenyl)pentyl]-1,2,4-triazole

> <PUBCHEM_IUPAC_NAME>
1-[2-(2,4-dichlorophenyl)pentyl]-1,2,4-triazole

> <PUBCHEM_IUPAC_SYSTEMATIC_NAME>
1-[2-(2,4-dichlorophenyl)pentyl]-1,2,4-triazole

> <PUBCHEM_IUPAC_TRADITIONAL_NAME>
1-[2-(2,4-dichlorophenyl)pentyl]-1,2,4-triazole

> <PUBCHEM_IUPAC_INCHI>
InChI=1S/C13H15Cl2N3/c1-2-3-10(7-18-9-16-8-17-18)12-5-4-11(14)6-13(12)15/h4-6,8-10H,2-3,7H2,1H3

> <PUBCHEM_IUPAC_INCHIKEY>
WKBPZYKAUNRMKP-UHFFFAOYSA-N

> <PUBCHEM_XLOGP3_AA>
4.4

> <PUBCHEM_EXACT_MASS>
283.064303

> <PUBCHEM_MOLECULAR_FORMULA>
C13H15Cl2N3

> <PUBCHEM_MOLECULAR_WEIGHT>
284.1843

> <PUBCHEM_OPENEYE_CAN_SMILES>
CCCC(CN1C=NC=N1)C2=C(C=C(C=C2)Cl)Cl

> <PUBCHEM_OPENEYE_ISO_SMILES>
CCCC(CN1C=NC=N1)C2=C(C=C(C=C2)Cl)Cl

> <PUBCHEM_CACTVS_TPSA>
30.7

> <PUBCHEM_MONOISOTOPIC_WEIGHT>
283.064303

> <PUBCHEM_TOTAL_CHARGE>
0

> <PUBCHEM_HEAVY_ATOM_COUNT>
18

> <PUBCHEM_ATOM_DEF_STEREO_COUNT>
0

> <PUBCHEM_ATOM_UDEF_STEREO_COUNT>
1

> <PUBCHEM_BOND_DEF_STEREO_COUNT>
0

> <PUBCHEM_BOND_UDEF_STEREO_COUNT>
0

> <PUBCHEM_ISOTOPIC_ATOM_COUNT>
0

> <PUBCHEM_COMPONENT_COUNT>
1

> <PUBCHEM_CACTVS_TAUTO_COUNT>
1

> <PUBCHEM_COORDINATE_TYPE>
1
5
255

> <PUBCHEM_BONDANNOTATIONS>
11  14  8
12  15  8
14  17  8
15  17  8
3  16  8
3  4  8
4  18  8
5  16  8
5  18  8
6  19  3
9  11  8
9  12  8

$$$$

