441597
  -OEChem-07051212553D

 38 41  0     1  0  0  0  0  0999 V2000
    1.5012   -2.0123   -1.1649 O   0  0  0  0  0  0  0  0  0  0  0  0
    3.8316    1.8839   -0.7062 O   0  0  0  0  0  0  0  0  0  0  0  0
    3.4128   -1.5355    1.9036 O   0  0  0  0  0  0  0  0  0  0  0  0
    3.9720   -0.6914   -1.6074 O   0  0  0  0  0  0  0  0  0  0  0  0
   -0.8692    3.3078    0.4310 O   0  0  0  0  0  0  0  0  0  0  0  0
   -3.5489   -2.3219   -0.0448 O   0  0  0  0  0  0  0  0  0  0  0  0
   -4.5835   -0.1601   -0.2847 O   0  0  0  0  0  0  0  0  0  0  0  0
   -3.1451    2.2797   -0.1864 O   0  0  0  0  0  0  0  0  0  0  0  0
    1.0503    2.0769    0.1753 N   0  0  0  0  0  0  0  0  0  0  0  0
    1.0147   -0.3460    0.5358 C   0  0  2  0  0  0  0  0  0  0  0  0
    1.6941    0.8246   -0.2090 C   0  0  2  0  0  0  0  0  0  0  0  0
    1.7117   -1.6876    0.2081 C   0  0  2  0  0  0  0  0  0  0  0  0
    3.2026    0.8779    0.0879 C   0  0  1  0  0  0  0  0  0  0  0  0
    3.2223   -1.6326    0.4944 C   0  0  1  0  0  0  0  0  0  0  0  0
    3.9102   -0.4528   -0.2008 C   0  0  1  0  0  0  0  0  0  0  0  0
   -0.4884   -0.2902    0.2798 C   0  0  0  0  0  0  0  0  0  0  0  0
   -1.1190    0.9774    0.1542 C   0  0  0  0  0  0  0  0  0  0  0  0
   -0.3195    2.2236    0.2616 C   0  0  0  0  0  0  0  0  0  0  0  0
   -1.2872   -1.4458    0.2326 C   0  0  0  0  0  0  0  0  0  0  0  0
   -2.5040    1.0909   -0.0412 C   0  0  0  0  0  0  0  0  0  0  0  0
   -2.6472   -1.3046    0.0334 C   0  0  0  0  0  0  0  0  0  0  0  0
   -3.2379   -0.0729   -0.1020 C   0  0  0  0  0  0  0  0  0  0  0  0
   -4.7735   -1.5890   -0.2503 C   0  0  0  0  0  0  0  0  0  0  0  0
    1.1159   -0.1738    1.6175 H   0  0  0  0  0  0  0  0  0  0  0  0
    1.5327    0.7373   -1.2923 H   0  0  0  0  0  0  0  0  0  0  0  0
    1.2725   -2.4866    0.8169 H   0  0  0  0  0  0  0  0  0  0  0  0
    3.3596    1.1632    1.1346 H   0  0  0  0  0  0  0  0  0  0  0  0
    3.6841   -2.5688    0.1595 H   0  0  0  0  0  0  0  0  0  0  0  0
    4.9477   -0.3668    0.1453 H   0  0  0  0  0  0  0  0  0  0  0  0
    1.6176    2.9184    0.2152 H   0  0  0  0  0  0  0  0  0  0  0  0
   -0.8713   -2.4397    0.3506 H   0  0  0  0  0  0  0  0  0  0  0  0
    1.9290   -2.8693   -1.3324 H   0  0  0  0  0  0  0  0  0  0  0  0
    3.7032    1.6463   -1.6405 H   0  0  0  0  0  0  0  0  0  0  0  0
    3.0866   -0.6766    2.2151 H   0  0  0  0  0  0  0  0  0  0  0  0
    4.4564   -1.5235   -1.7430 H   0  0  0  0  0  0  0  0  0  0  0  0
   -5.2182   -1.9071   -1.2002 H   0  0  0  0  0  0  0  0  0  0  0  0
   -5.4682   -1.8312    0.5622 H   0  0  0  0  0  0  0  0  0  0  0  0
   -4.0949    2.1101   -0.3128 H   0  0  0  0  0  0  0  0  0  0  0  0
  1 12  1  0  0  0  0
  1 32  1  0  0  0  0
  2 13  1  0  0  0  0
  2 33  1  0  0  0  0
  3 14  1  0  0  0  0
  3 34  1  0  0  0  0
  4 15  1  0  0  0  0
  4 35  1  0  0  0  0
  5 18  2  0  0  0  0
  6 21  1  0  0  0  0
  6 23  1  0  0  0  0
  7 22  1  0  0  0  0
  7 23  1  0  0  0  0
  8 20  1  0  0  0  0
  8 38  1  0  0  0  0
  9 11  1  0  0  0  0
  9 18  1  0  0  0  0
  9 30  1  0  0  0  0
 10 11  1  0  0  0  0
 10 12  1  0  0  0  0
 10 16  1  0  0  0  0
 10 24  1  0  0  0  0
 11 13  1  0  0  0  0
 11 25  1  0  0  0  0
 12 14  1  0  0  0  0
 12 26  1  0  0  0  0
 13 15  1  0  0  0  0
 13 27  1  0  0  0  0
 14 15  1  0  0  0  0
 14 28  1  0  0  0  0
 15 29  1  0  0  0  0
 16 17  1  0  0  0  0
 16 19  2  0  0  0  0
 17 18  1  0  0  0  0
 17 20  2  0  0  0  0
 19 21  1  0  0  0  0
 19 31  1  0  0  0  0
 20 22  1  0  0  0  0
 21 22  2  0  0  0  0
 23 36  1  0  0  0  0
 23 37  1  0  0  0  0
M  END
> <PUBCHEM_COMPOUND_CID>
441597

> <PUBCHEM_CONFORMER_RMSD>
0.6

> <PUBCHEM_CONFORMER_DIVERSEORDER>
1
2

> <PUBCHEM_MMFF94_PARTIAL_CHARGES>
30
1 -0.68
10 0.14
11 0.3
12 0.28
13 0.28
14 0.28
15 0.28
16 -0.14
17 0.09
18 0.54
19 -0.15
2 -0.68
20 0.08
21 0.08
22 0.08
23 0.56
3 -0.68
30 0.37
31 0.15
32 0.4
33 0.4
34 0.4
35 0.4
38 0.45
4 -0.68
5 -0.57
6 -0.36
7 -0.36
8 -0.53
9 -0.73

> <PUBCHEM_EFFECTIVE_ROTOR_COUNT>
1.6

> <PUBCHEM_PHARMACOPHORE_FEATURES>
17
1 1 acceptor
1 1 donor
1 2 acceptor
1 2 donor
1 3 acceptor
1 3 donor
1 4 acceptor
1 4 donor
1 5 acceptor
1 6 acceptor
1 7 acceptor
1 8 donor
1 9 donor
5 6 7 21 22 23 rings
6 10 11 12 13 14 15 rings
6 16 17 19 20 21 22 rings
6 9 10 11 16 17 18 rings

> <PUBCHEM_HEAVY_ATOM_COUNT>
23

> <PUBCHEM_ATOM_DEF_STEREO_COUNT>
6

> <PUBCHEM_ATOM_UDEF_STEREO_COUNT>
0

> <PUBCHEM_BOND_DEF_STEREO_COUNT>
0

> <PUBCHEM_BOND_UDEF_STEREO_COUNT>
0

> <PUBCHEM_ISOTOPIC_ATOM_COUNT>
0

> <PUBCHEM_COMPONENT_COUNT>
1

> <PUBCHEM_CACTVS_TAUTO_COUNT>
22

> <PUBCHEM_CONFORMER_ID>
0006BCFD00000001

> <PUBCHEM_MMFF94_ENERGY>
70.9626

> <PUBCHEM_FEATURE_SELFOVERLAP>
86.482

> <PUBCHEM_SHAPE_FINGERPRINT>
10062212 137 18339931501502267027
10319926 262 17975443462010604266
10498660 4 18410571820714910916
10616163 171 18408601495724929486
10759866 29 18202278104924740670
10967382 1 18194120720256554353
1100329 8 18122629611252301745
11578080 2 17416432993725613132
116883 192 18263359351116888183
12553582 1 18408325458535784391
12788726 201 18339919428175170569
13140716 1 18337398235096246657
13224815 77 18334860515098971682
138480 1 15311534904396361081
14178342 30 18121511416606160274
14787075 74 18195524788363709228
14790565 3 17904194086012510577
15196674 1 18410856559697954757
15442244 35 18197219354756677562
15536298 74 18335422331075492768
16945 1 18193273224403628800
17492 89 18340488970914739466
18222031 100 18114187397870864831
18681886 176 18408606946845523554
19591789 44 18336544919573327007
20645477 70 18336264522786278167
20691752 17 17561364002006601504
20715895 44 17911534399711120333
20905425 154 18409165502330125812
21029758 11 18408609137046813889
21267235 1 18411410717869418314
21501502 16 18412825810766725224
21634736 98 18413103957465593308
221490 88 18124873461113014555
22393880 68 18412539951139985236
23184049 29 18267025135948143274
2334 1 18410857642208964137
23402539 116 18339089288401372518
23557571 272 18187078511447214854
23559900 14 18118123804180513510
25147074 1 18058443374108087978
2748010 2 18336554793713787496
2871803 45 18412263904469192894
3004659 81 18273501186358204174
314173 41 18338511933185396325
335352 9 18122908891178516021
34934 24 18191873323158731368
474 4 17345745288275675964
5104073 3 18410857663715527897
7097593 13 17697329773312231530
7164475 11 18340773761816341474
7364860 26 18191027790027122305
9709674 26 18263077880488217286

> <PUBCHEM_SHAPE_MULTIPOLES>
421.39
8.23
2.87
0.92
2.1
1.4
-0.03
-2.95
1.12
0.61
-0.16
-0.95
-0.32
-0.46

> <PUBCHEM_SHAPE_SELFOVERLAP>
941.202

> <PUBCHEM_SHAPE_VOLUME>
219.8

> <PUBCHEM_COORDINATE_TYPE>
2
5
10

$$$$

