17396284
  -OEChem-06241222553D

 34 36  0     0  0  0  0  0  0999 V2000
   -3.0446   -1.3416   -0.7221 S   0  0  0  0  0  0  0  0  0  0  0  0
    3.0461    2.4531   -1.3992 F   0  0  0  0  0  0  0  0  0  0  0  0
   -2.9856   -1.2899   -2.1686 O   0  0  0  0  0  0  0  0  0  0  0  0
   -4.1262   -1.9985   -0.0173 O   0  0  0  0  0  0  0  0  0  0  0  0
    0.2129   -0.8769    1.1588 N   0  0  0  0  0  0  0  0  0  0  0  0
   -1.5852   -1.7863   -0.0949 N   0  0  0  0  0  0  0  0  0  0  0  0
   -1.7739    0.4643    0.5472 C   0  0  0  0  0  0  0  0  0  0  0  0
   -2.9632    0.2918   -0.1412 C   0  0  0  0  0  0  0  0  0  0  0  0
   -1.0039   -0.7982    0.5393 C   0  0  0  0  0  0  0  0  0  0  0  0
    1.0235   -2.0647    1.1576 C   0  0  0  0  0  0  0  0  0  0  0  0
    1.9395   -2.1055   -0.0681 C   0  0  0  0  0  0  0  0  0  0  0  0
   -1.4657    1.6862    1.1142 C   0  0  0  0  0  0  0  0  0  0  0  0
    2.8878   -0.9434   -0.1045 C   0  0  0  0  0  0  0  0  0  0  0  0
   -3.8971    1.2891   -0.3076 C   0  0  0  0  0  0  0  0  0  0  0  0
   -2.3928    2.7247    0.9649 C   0  0  0  0  0  0  0  0  0  0  0  0
   -3.5970    2.5275    0.2604 C   0  0  0  0  0  0  0  0  0  0  0  0
    2.5187    0.2380   -0.7479 C   0  0  0  0  0  0  0  0  0  0  0  0
    4.1378   -1.0438    0.5063 C   0  0  0  0  0  0  0  0  0  0  0  0
    3.3999    1.3189   -0.7807 C   0  0  0  0  0  0  0  0  0  0  0  0
    5.0188    0.0369    0.4735 C   0  0  0  0  0  0  0  0  0  0  0  0
    4.6500    1.2183   -0.1699 C   0  0  0  0  0  0  0  0  0  0  0  0
    1.6284   -2.0744    2.0723 H   0  0  0  0  0  0  0  0  0  0  0  0
    0.4020   -2.9671    1.1908 H   0  0  0  0  0  0  0  0  0  0  0  0
    1.3426   -2.1220   -0.9892 H   0  0  0  0  0  0  0  0  0  0  0  0
    2.5076   -3.0444   -0.0652 H   0  0  0  0  0  0  0  0  0  0  0  0
    0.6002   -0.0646    1.6304 H   0  0  0  0  0  0  0  0  0  0  0  0
   -0.5438    1.8547    1.6584 H   0  0  0  0  0  0  0  0  0  0  0  0
   -4.8206    1.1292   -0.8504 H   0  0  0  0  0  0  0  0  0  0  0  0
   -2.1818    3.6990    1.3982 H   0  0  0  0  0  0  0  0  0  0  0  0
   -4.2984    3.3514    0.1599 H   0  0  0  0  0  0  0  0  0  0  0  0
    1.5500    0.3301   -1.2318 H   0  0  0  0  0  0  0  0  0  0  0  0
    4.4361   -1.9580    1.0126 H   0  0  0  0  0  0  0  0  0  0  0  0
    5.9920   -0.0409    0.9495 H   0  0  0  0  0  0  0  0  0  0  0  0
    5.3357    2.0600   -0.1955 H   0  0  0  0  0  0  0  0  0  0  0  0
  1  3  2  0  0  0  0
  1  4  2  0  0  0  0
  1  6  1  0  0  0  0
  1  8  1  0  0  0  0
  2 19  1  0  0  0  0
  5  9  1  0  0  0  0
  5 10  1  0  0  0  0
  5 26  1  0  0  0  0
  6  9  2  0  0  0  0
  7  8  1  0  0  0  0
  7  9  1  0  0  0  0
  7 12  2  0  0  0  0
  8 14  2  0  0  0  0
 10 11  1  0  0  0  0
 10 22  1  0  0  0  0
 10 23  1  0  0  0  0
 11 13  1  0  0  0  0
 11 24  1  0  0  0  0
 11 25  1  0  0  0  0
 12 15  1  0  0  0  0
 12 27  1  0  0  0  0
 13 17  2  0  0  0  0
 13 18  1  0  0  0  0
 14 16  1  0  0  0  0
 14 28  1  0  0  0  0
 15 16  2  0  0  0  0
 15 29  1  0  0  0  0
 16 30  1  0  0  0  0
 17 19  1  0  0  0  0
 17 31  1  0  0  0  0
 18 20  2  0  0  0  0
 18 32  1  0  0  0  0
 19 21  2  0  0  0  0
 20 21  1  0  0  0  0
 20 33  1  0  0  0  0
 21 34  1  0  0  0  0
M  END
> <PUBCHEM_COMPOUND_CID>
17396284

> <PUBCHEM_CONFORMER_RMSD>
0.6

> <PUBCHEM_CONFORMER_DIVERSEORDER>
3
130
82
195
139
35
113
101
197
185
110
21
99
19
170
201
9
134
194
133
57
165
36
109
60
67
102
13
209
33
124
119
108
125
26
126
186
77
144
210
47
219
105
190
92
188
213
89
85
187
1
112
153
52
167
79
61
183
127
20
111
156
177
189
178
76
171
152
43
128
217
30
215
40
8
44
5
203
132
172
2
154
87
166
181
161
37
10
59
179
65
38
15
54
202
182
93
160
180
164
103
25
155
145
140
162
175
55
83
131
45
63
205
176
29
198
62
68
163
16
142
7
74
158
51
117
169
91
27
49
6
48
115
50
73
106
159
204
98
14
41
123
66
97
56
104
196
78
191
53
24
206
147
173
146
148
116
100
96
107
141
129
192
71
216
208
168
86
199
28
95
122
193
135
80
31
214
200
18
120
12
218
64
42
81
39
34
143
11
75
212
58
138
118
121
137
174
136
184
114
22
69
157
17
94
46
23
207
84
70
32
151
88
4
72
211
90
149
150

> <PUBCHEM_MMFF94_PARTIAL_CHARGES>
30
1 1.5
10 0.37
11 0.14
12 -0.15
13 -0.14
14 -0.15
15 -0.15
16 -0.15
17 -0.15
18 -0.15
19 0.19
2 -0.19
20 -0.15
21 -0.15
26 0.4
27 0.15
28 0.15
29 0.15
3 -0.65
30 0.15
31 0.15
32 0.15
33 0.15
34 0.15
4 -0.65
5 -0.82
6 -0.64
7 0.09
8 -0.01
9 0.41

> <PUBCHEM_EFFECTIVE_ROTOR_COUNT>
4

> <PUBCHEM_PHARMACOPHORE_FEATURES>
7
1 3 acceptor
1 4 acceptor
1 5 donor
1 6 donor
5 1 6 7 8 9 rings
6 13 17 18 19 20 21 rings
6 7 8 12 14 15 16 rings

> <PUBCHEM_HEAVY_ATOM_COUNT>
21

> <PUBCHEM_ATOM_DEF_STEREO_COUNT>
0

> <PUBCHEM_ATOM_UDEF_STEREO_COUNT>
0

> <PUBCHEM_BOND_DEF_STEREO_COUNT>
0

> <PUBCHEM_BOND_UDEF_STEREO_COUNT>
0

> <PUBCHEM_ISOTOPIC_ATOM_COUNT>
0

> <PUBCHEM_COMPONENT_COUNT>
1

> <PUBCHEM_CACTVS_TAUTO_COUNT>
2

> <PUBCHEM_CONFORMER_ID>
0109723C00000003

> <PUBCHEM_MMFF94_ENERGY>
42.1454

> <PUBCHEM_FEATURE_SELFOVERLAP>
35.637

> <PUBCHEM_SHAPE_FINGERPRINT>
10062212 137 18410016541383091675
10498660 4 18333732441933447992
11640471 11 18339635758396220664
12173636 292 18261961855080258335
12403260 363 18342461392174996738
12467345 10 18412263952199208005
12596599 1 18188756375161002324
12633257 1 17775571948916051896
13583140 156 17487889223870193217
14251764 38 18341891840836067156
14787075 74 17984701121776990243
14790565 3 17899407873305289697
15196674 1 18412262844134412712
17349148 13 18343308046103536698
17492 89 18409164445779493446
17980427 23 18120964886439571954
192875 21 18340773637457624652
20715895 44 18051418662637537133
21033648 29 15698008443932767590
21421566 26 17531539659225116047
21709351 56 18412265060416782454
21864079 5 18342443842801520596
22393880 68 18260823805006496852
22749437 52 18343297033781132668
23227448 37 18341049717897376493
23352939 185 18041555820340439795
23402539 116 18410299112082910378
235170 7 16732976518781933492
23557571 272 17894912927566735546
23558518 356 18340762745189122859
23559900 14 17896886667277724410
23598288 3 18187374263349275039
3472631 163 18263363753785940493
4340502 62 17417233468798516241
474 4 18202560709229754994
6328613 192 18201709628060760996
633830 44 18272928362649730086
7832392 63 18194959866898765258
9709674 26 18410283718751732158
9981440 41 18341896243188160962

> <PUBCHEM_SHAPE_MULTIPOLES>
407.05
9.78
2.93
1.22
5.94
0.73
-0.28
2.58
-1.21
-1.66
0.06
-0.24
-0.05
-1.81

> <PUBCHEM_SHAPE_SELFOVERLAP>
876.19

> <PUBCHEM_SHAPE_VOLUME>
226.2

> <PUBCHEM_COORDINATE_TYPE>
2
5
10

$$$$

