586277
  -OEChem-06241222462D

 29 30  0     0  0  0  0  0  0999 V2000
    2.6200    0.6417    0.0000 O   0  0  0  0  0  0  0  0  0  0  0  0
    3.9564    2.2244    0.0000 O   0  0  0  0  0  0  0  0  0  0  0  0
    3.1200   -0.2244    0.0000 C   0  0  0  0  0  0  0  0  0  0  0  0
    2.2540   -0.7244    0.0000 C   0  0  0  0  0  0  0  0  0  0  0  0
    3.9860   -0.7244    0.0000 C   0  0  0  0  0  0  0  0  0  0  0  0
    2.2540   -1.7244    0.0000 C   0  0  0  0  0  0  0  0  0  0  0  0
    3.9860   -1.7244    0.0000 C   0  0  0  0  0  0  0  0  0  0  0  0
    3.1200   -2.2244    0.0000 C   0  0  0  0  0  0  0  0  0  0  0  0
    3.6200    0.6417    0.0000 C   0  0  0  0  0  0  0  0  0  0  0  0
    3.2133    1.5552    0.0000 C   0  0  0  0  0  0  0  0  0  0  0  0
    4.6145    0.7462    0.0000 C   0  0  0  0  0  0  0  0  0  0  0  0
    4.8224    1.7244    0.0000 C   0  0  0  0  0  0  0  0  0  0  0  0
    2.2351    1.7631    0.0000 C   0  0  0  0  0  0  0  0  0  0  0  0
    2.0419   -0.1417    0.0000 H   0  0  0  0  0  0  0  0  0  0  0  0
    1.6434   -0.8320    0.0000 H   0  0  0  0  0  0  0  0  0  0  0  0
    4.5966   -0.8320    0.0000 H   0  0  0  0  0  0  0  0  0  0  0  0
    4.1981   -0.1417    0.0000 H   0  0  0  0  0  0  0  0  0  0  0  0
    1.6434   -1.6167    0.0000 H   0  0  0  0  0  0  0  0  0  0  0  0
    2.0419   -2.3070    0.0000 H   0  0  0  0  0  0  0  0  0  0  0  0
    4.1981   -2.3070    0.0000 H   0  0  0  0  0  0  0  0  0  0  0  0
    4.5966   -1.6167    0.0000 H   0  0  0  0  0  0  0  0  0  0  0  0
    2.7215   -2.6993    0.0000 H   0  0  0  0  0  0  0  0  0  0  0  0
    3.5185   -2.6993    0.0000 H   0  0  0  0  0  0  0  0  0  0  0  0
    2.0000    0.6417    0.0000 H   0  0  0  0  0  0  0  0  0  0  0  0
    5.0294    0.2855    0.0000 H   0  0  0  0  0  0  0  0  0  0  0  0
    5.3888    1.9765    0.0000 H   0  0  0  0  0  0  0  0  0  0  0  0
    2.3640    2.3696    0.0000 H   0  0  0  0  0  0  0  0  0  0  0  0
    1.6287    1.8920    0.0000 H   0  0  0  0  0  0  0  0  0  0  0  0
    2.1062    1.1567    0.0000 H   0  0  0  0  0  0  0  0  0  0  0  0
  1  3  1  0  0  0  0
  1 24  1  0  0  0  0
  2 10  1  0  0  0  0
  2 12  1  0  0  0  0
  3  4  1  0  0  0  0
  3  5  1  0  0  0  0
  3  9  1  0  0  0  0
  4  6  1  0  0  0  0
  4 14  1  0  0  0  0
  4 15  1  0  0  0  0
  5  7  1  0  0  0  0
  5 16  1  0  0  0  0
  5 17  1  0  0  0  0
  6  8  1  0  0  0  0
  6 18  1  0  0  0  0
  6 19  1  0  0  0  0
  7  8  1  0  0  0  0
  7 20  1  0  0  0  0
  7 21  1  0  0  0  0
  8 22  1  0  0  0  0
  8 23  1  0  0  0  0
  9 10  2  0  0  0  0
  9 11  1  0  0  0  0
 10 13  1  0  0  0  0
 11 12  2  0  0  0  0
 11 25  1  0  0  0  0
 12 26  1  0  0  0  0
 13 27  1  0  0  0  0
 13 28  1  0  0  0  0
 13 29  1  0  0  0  0
M  END
> <PUBCHEM_COMPOUND_CID>
586277

> <PUBCHEM_COMPOUND_CANONICALIZED>
1

> <PUBCHEM_CACTVS_COMPLEXITY>
173

> <PUBCHEM_CACTVS_HBOND_ACCEPTOR>
2

> <PUBCHEM_CACTVS_HBOND_DONOR>
1

> <PUBCHEM_CACTVS_ROTATABLE_BOND>
1

> <PUBCHEM_CACTVS_SUBSKEYS>
AAADceBwMAAAAAAAAAAAAAAAAAAAASAAAAAwAAAAAAAAAAABgAAAGgAACAAADESgmAIyBIAABkCIAqhSgAACCAAkIAAIiAEGCMgMJzaENBqCWSCl4BEIuYfKyOCOgAAAAAAAAAAAAAAAAAAAAAAAAAAAAA==

> <PUBCHEM_IUPAC_OPENEYE_NAME>
1-(2-methyl-3-furyl)cyclohexanol

> <PUBCHEM_IUPAC_CAS_NAME>
1-(2-methyl-3-furanyl)-1-cyclohexanol

> <PUBCHEM_IUPAC_NAME>
1-(2-methylfuran-3-yl)cyclohexan-1-ol

> <PUBCHEM_IUPAC_SYSTEMATIC_NAME>
1-(2-methylfuran-3-yl)cyclohexan-1-ol

> <PUBCHEM_IUPAC_TRADITIONAL_NAME>
1-(2-methyl-3-furyl)cyclohexanol

> <PUBCHEM_IUPAC_INCHI>
InChI=1S/C11H16O2/c1-9-10(5-8-13-9)11(12)6-3-2-4-7-11/h5,8,12H,2-4,6-7H2,1H3

> <PUBCHEM_IUPAC_INCHIKEY>
CUBKUYLRXGDPFP-UHFFFAOYSA-N

> <PUBCHEM_XLOGP3_AA>
2.1

> <PUBCHEM_EXACT_MASS>
180.11503

> <PUBCHEM_MOLECULAR_FORMULA>
C11H16O2

> <PUBCHEM_MOLECULAR_WEIGHT>
180.24354

> <PUBCHEM_OPENEYE_CAN_SMILES>
CC1=C(C=CO1)C2(CCCCC2)O

> <PUBCHEM_OPENEYE_ISO_SMILES>
CC1=C(C=CO1)C2(CCCCC2)O

> <PUBCHEM_CACTVS_TPSA>
33.4

> <PUBCHEM_MONOISOTOPIC_WEIGHT>
180.11503

> <PUBCHEM_TOTAL_CHARGE>
0

> <PUBCHEM_HEAVY_ATOM_COUNT>
13

> <PUBCHEM_ATOM_DEF_STEREO_COUNT>
0

> <PUBCHEM_ATOM_UDEF_STEREO_COUNT>
0

> <PUBCHEM_BOND_DEF_STEREO_COUNT>
0

> <PUBCHEM_BOND_UDEF_STEREO_COUNT>
0

> <PUBCHEM_ISOTOPIC_ATOM_COUNT>
0

> <PUBCHEM_COMPONENT_COUNT>
1

> <PUBCHEM_CACTVS_TAUTO_COUNT>
1

> <PUBCHEM_COORDINATE_TYPE>
1
5
255

> <PUBCHEM_BONDANNOTATIONS>
11  12  8
2  10  8
2  12  8
9  10  8
9  11  8

$$$$

