65305
  -OEChem-07051212593D

 44 48  0     1  0  0  0  0  0999 V2000
   -0.5755    2.5604   -0.2317 O   0  0  0  0  0  0  0  0  0  0  0  0
   -3.4929    2.4014   -0.1881 O   0  0  0  0  0  0  0  0  0  0  0  0
    4.3005    0.1838   -1.4337 O   0  0  0  0  0  0  0  0  0  0  0  0
    4.6609   -0.0033    0.9405 O   0  0  0  0  0  0  0  0  0  0  0  0
   -1.2699   -1.7717    0.5257 N   0  0  2  0  0  0  0  0  0  0  0  0
   -1.7130   -0.8124   -0.4894 C   0  0  1  0  0  0  0  0  0  0  0  0
   -0.6352    0.2045   -1.0199 C   0  0  1  0  0  0  0  0  0  0  0  0
   -2.1206   -1.7892   -1.6098 C   0  0  0  0  0  0  0  0  0  0  0  0
   -1.3013    1.6104   -0.9934 C   0  0  1  0  0  0  0  0  0  0  0  0
   -2.1917   -2.9116    0.5223 C   0  0  0  0  0  0  0  0  0  0  0  0
   -2.7501   -2.9728   -0.8912 C   0  0  0  0  0  0  0  0  0  0  0  0
   -2.8757    0.0707   -0.1123 C   0  0  0  0  0  0  0  0  0  0  0  0
    0.7561    0.1378   -0.4039 C   0  0  0  0  0  0  0  0  0  0  0  0
   -1.0043   -1.2832    1.8755 C   0  0  0  0  0  0  0  0  0  0  0  0
   -2.6388    1.3552   -0.3901 C   0  0  0  0  0  0  0  0  0  0  0  0
   -0.1787    0.0014    1.9649 C   0  0  0  0  0  0  0  0  0  0  0  0
    0.9767    0.0400    0.9984 C   0  0  0  0  0  0  0  0  0  0  0  0
    1.8653    0.1980   -1.2718 C   0  0  0  0  0  0  0  0  0  0  0  0
    2.2874   -0.0155    1.5067 C   0  0  0  0  0  0  0  0  0  0  0  0
    3.1342    0.1426   -0.7337 C   0  0  0  0  0  0  0  0  0  0  0  0
    3.3395    0.0367    0.6180 C   0  0  0  0  0  0  0  0  0  0  0  0
   -3.8378    2.5282    1.1828 C   0  0  0  0  0  0  0  0  0  0  0  0
    5.2649    0.0886   -0.3658 C   0  0  0  0  0  0  0  0  0  0  0  0
   -0.4959   -0.0278   -2.0872 H   0  0  0  0  0  0  0  0  0  0  0  0
   -1.2378   -2.1448   -2.1589 H   0  0  0  0  0  0  0  0  0  0  0  0
   -2.8100   -1.3539   -2.3422 H   0  0  0  0  0  0  0  0  0  0  0  0
   -1.4084    1.9965   -2.0137 H   0  0  0  0  0  0  0  0  0  0  0  0
   -3.0183   -2.7818    1.2317 H   0  0  0  0  0  0  0  0  0  0  0  0
   -1.6651   -3.8363    0.7805 H   0  0  0  0  0  0  0  0  0  0  0  0
   -3.8415   -2.8735   -0.8739 H   0  0  0  0  0  0  0  0  0  0  0  0
   -2.5038   -3.9145   -1.3923 H   0  0  0  0  0  0  0  0  0  0  0  0
   -3.7989   -0.3020    0.3105 H   0  0  0  0  0  0  0  0  0  0  0  0
   -0.4599   -2.0721    2.4111 H   0  0  0  0  0  0  0  0  0  0  0  0
   -1.9378   -1.1212    2.4304 H   0  0  0  0  0  0  0  0  0  0  0  0
    0.1874    0.1043    2.9948 H   0  0  0  0  0  0  0  0  0  0  0  0
   -0.8095    0.8819    1.8084 H   0  0  0  0  0  0  0  0  0  0  0  0
    1.7339    0.2849   -2.3461 H   0  0  0  0  0  0  0  0  0  0  0  0
   -1.0866    3.3878   -0.2258 H   0  0  0  0  0  0  0  0  0  0  0  0
    2.4735   -0.0947    2.5731 H   0  0  0  0  0  0  0  0  0  0  0  0
   -4.4905    1.7106    1.5062 H   0  0  0  0  0  0  0  0  0  0  0  0
   -4.3914    3.4640    1.3056 H   0  0  0  0  0  0  0  0  0  0  0  0
   -2.9460    2.5794    1.8180 H   0  0  0  0  0  0  0  0  0  0  0  0
    5.9082    0.9756   -0.3935 H   0  0  0  0  0  0  0  0  0  0  0  0
    5.8841   -0.8009   -0.5298 H   0  0  0  0  0  0  0  0  0  0  0  0
  1  9  1  0  0  0  0
  1 38  1  0  0  0  0
  2 15  1  0  0  0  0
  2 22  1  0  0  0  0
  3 20  1  0  0  0  0
  3 23  1  0  0  0  0
  4 21  1  0  0  0  0
  4 23  1  0  0  0  0
  5  6  1  0  0  0  0
  5 10  1  0  0  0  0
  5 14  1  0  0  0  0
  6  7  1  0  0  0  0
  6  8  1  0  0  0  0
  6 12  1  0  0  0  0
  7  9  1  0  0  0  0
  7 13  1  0  0  0  0
  7 24  1  0  0  0  0
  8 11  1  0  0  0  0
  8 25  1  0  0  0  0
  8 26  1  0  0  0  0
  9 15  1  0  0  0  0
  9 27  1  0  0  0  0
 10 11  1  0  0  0  0
 10 28  1  0  0  0  0
 10 29  1  0  0  0  0
 11 30  1  0  0  0  0
 11 31  1  0  0  0  0
 12 15  2  0  0  0  0
 12 32  1  0  0  0  0
 13 17  1  0  0  0  0
 13 18  2  0  0  0  0
 14 16  1  0  0  0  0
 14 33  1  0  0  0  0
 14 34  1  0  0  0  0
 16 17  1  0  0  0  0
 16 35  1  0  0  0  0
 16 36  1  0  0  0  0
 17 19  2  0  0  0  0
 18 20  1  0  0  0  0
 18 37  1  0  0  0  0
 19 21  1  0  0  0  0
 19 39  1  0  0  0  0
 20 21  2  0  0  0  0
 22 40  1  0  0  0  0
 22 41  1  0  0  0  0
 22 42  1  0  0  0  0
 23 43  1  0  0  0  0
 23 44  1  0  0  0  0
M  END
> <PUBCHEM_COMPOUND_CID>
65305

> <PUBCHEM_CONFORMER_RMSD>
0.6

> <PUBCHEM_CONFORMER_DIVERSEORDER>
1
7
2
6
5
3
4

> <PUBCHEM_MMFF94_PARTIAL_CHARGES>
25
1 -0.68
10 0.27
12 -0.29
13 -0.14
14 0.27
15 -0.06
16 0.14
17 -0.14
18 -0.15
19 -0.15
2 -0.36
20 0.08
21 0.08
22 0.28
23 0.56
3 -0.36
32 0.15
37 0.15
38 0.4
39 0.15
4 -0.36
5 -0.81
6 0.41
7 0.14
9 0.42

> <PUBCHEM_EFFECTIVE_ROTOR_COUNT>
2.8

> <PUBCHEM_PHARMACOPHORE_FEATURES>
11
1 1 acceptor
1 1 donor
1 2 acceptor
1 3 acceptor
1 4 acceptor
1 5 cation
5 3 4 20 21 23 rings
5 5 6 8 10 11 rings
5 6 7 9 12 15 rings
6 13 17 18 19 20 21 rings
7 5 6 7 13 14 16 17 rings

> <PUBCHEM_HEAVY_ATOM_COUNT>
23

> <PUBCHEM_ATOM_DEF_STEREO_COUNT>
3

> <PUBCHEM_ATOM_UDEF_STEREO_COUNT>
0

> <PUBCHEM_BOND_DEF_STEREO_COUNT>
0

> <PUBCHEM_BOND_UDEF_STEREO_COUNT>
0

> <PUBCHEM_ISOTOPIC_ATOM_COUNT>
0

> <PUBCHEM_COMPONENT_COUNT>
1

> <PUBCHEM_CACTVS_TAUTO_COUNT>
1

> <PUBCHEM_CONFORMER_ID>
0000FF1900000001

> <PUBCHEM_MMFF94_ENERGY>
80.9125

> <PUBCHEM_FEATURE_SELFOVERLAP>
56.201

> <PUBCHEM_SHAPE_FINGERPRINT>
10291535 26 17676489471010596856
10863032 1 18115591585719632407
10948715 1 18193273224799397593
11315181 36 17917153798035439276
11405975 8 18335424582392671512
11578080 2 17678711540918266164
11796584 16 18188205511931802670
11823591 26 18192719058223324065
12236239 1 17775573047668017965
12293681 4 17967253138953355488
12553582 1 18126851490884363547
12714826 92 18113897100625120238
12788726 201 18268699516348728879
133893 2 17474977770584001143
13583140 156 17822587040371178722
15309172 13 16271924956215122216
15534591 1 18272934959492227867
16752209 62 18127720200081378535
16945 1 18409172082636546767
17349148 13 16988298495113923656
1813 80 17901098629750847527
19862831 5 17131287752659386230
200 152 17846223185761644622
20600515 1 17618824304007816619
20775438 99 16109812571070108434
21339142 149 18201722833961238536
21452121 199 17615421263695516191
21756936 100 17561072636126396548
22224240 67 18262789787964143753
22620623 9 18261394416601286599
23175994 123 16732980903632085304
23402539 116 18059863848557511006
23419403 2 17096661902317352035
23493267 7 18041284347846597946
23557571 272 18188782647454943984
23559900 14 18187927335389150734
23728640 28 18342171163701703755
298252 57 18340205314478958809
3729539 64 17541358568412708086
427121 178 18046048609551067137
4921388 177 18408322181269794990
633830 44 17418081127765110126
6438718 38 18342164566652834979
77492 1 17703802417854547190
81228 2 18339373963492403765

> <PUBCHEM_SHAPE_MULTIPOLES>
444.87
7.57
2.67
1.68
9.54
0.35
-0.45
-1.27
0.64
-4.86
0.08
0.13
0.24
-0.58

> <PUBCHEM_SHAPE_SELFOVERLAP>
993.783

> <PUBCHEM_SHAPE_VOLUME>
238

> <PUBCHEM_COORDINATE_TYPE>
2
5
10

$$$$

