442870
  -OEChem-07051213002D

 73 73  0     1  0  0  0  0  0999 V2000
    5.4109    0.6059    0.0000 O   0  0  0  0  0  0  0  0  0  0  0  0
    8.7418   -0.4566    0.0000 N   0  0  0  0  0  0  0  0  0  0  0  0
   11.4513    2.0135    0.0000 N   0  0  0  0  0  0  0  0  0  0  0  0
    6.0324    2.0135    0.0000 N   0  0  0  0  0  0  0  0  0  0  0  0
    8.2418    4.9393    0.0000 N   0  0  0  0  0  0  0  0  0  0  0  0
    7.7589   -0.2728    0.0000 C   0  0  3  0  0  0  0  0  0  0  0  0
    7.3976   -1.2053    0.0000 C   0  0  0  0  0  0  0  0  0  0  0  0
    6.4095   -1.3587    0.0000 C   0  0  0  0  0  0  0  0  0  0  0  0
    6.0482   -2.2912    0.0000 C   0  0  0  0  0  0  0  0  0  0  0  0
    6.9086    0.2536    0.0000 C   0  0  0  0  0  0  0  0  0  0  0  0
    5.0601   -2.4445    0.0000 C   0  0  0  0  0  0  0  0  0  0  0  0
    4.6988   -3.3770    0.0000 C   0  0  0  0  0  0  0  0  0  0  0  0
    9.7248   -0.2728    0.0000 C   0  0  0  0  0  0  0  0  0  0  0  0
   10.5750    0.2536    0.0000 C   0  0  0  0  0  0  0  0  0  0  0  0
    3.7106   -3.5304    0.0000 C   0  0  0  0  0  0  0  0  0  0  0  0
    6.3060    1.0516    0.0000 C   0  0  0  0  0  0  0  0  0  0  0  0
   11.1777    1.0516    0.0000 C   0  0  0  0  0  0  0  0  0  0  0  0
    3.3494   -4.4629    0.0000 C   0  0  0  0  0  0  0  0  0  0  0  0
   11.3591    3.0092    0.0000 C   0  0  0  0  0  0  0  0  0  0  0  0
   10.9133    3.9044    0.0000 C   0  0  0  0  0  0  0  0  0  0  0  0
   10.1743    4.5781    0.0000 C   0  0  0  0  0  0  0  0  0  0  0  0
    6.1246    3.0092    0.0000 C   0  0  0  0  0  0  0  0  0  0  0  0
    6.5704    3.9044    0.0000 C   0  0  0  0  0  0  0  0  0  0  0  0
    2.3612   -4.6163    0.0000 C   0  0  0  0  0  0  0  0  0  0  0  0
    9.2418    4.9393    0.0000 C   0  0  0  0  0  0  0  0  0  0  0  0
    7.3094    4.5781    0.0000 C   0  0  0  0  0  0  0  0  0  0  0  0
    2.0000   -5.5487    0.0000 C   0  0  0  0  0  0  0  0  0  0  0  0
    8.0606   -0.8145    0.0000 H   0  0  0  0  0  0  0  0  0  0  0  0
    7.3849   -1.8252    0.0000 H   0  0  0  0  0  0  0  0  0  0  0  0
    8.0059   -1.3255    0.0000 H   0  0  0  0  0  0  0  0  0  0  0  0
    6.4222   -0.7388    0.0000 H   0  0  0  0  0  0  0  0  0  0  0  0
    5.8012   -1.2385    0.0000 H   0  0  0  0  0  0  0  0  0  0  0  0
    6.0355   -2.9110    0.0000 H   0  0  0  0  0  0  0  0  0  0  0  0
    6.6565   -2.4113    0.0000 H   0  0  0  0  0  0  0  0  0  0  0  0
    6.3074    0.1024    0.0000 H   0  0  0  0  0  0  0  0  0  0  0  0
    7.3263    0.7118    0.0000 H   0  0  0  0  0  0  0  0  0  0  0  0
    5.0728   -1.8247    0.0000 H   0  0  0  0  0  0  0  0  0  0  0  0
    4.4518   -2.3244    0.0000 H   0  0  0  0  0  0  0  0  0  0  0  0
    8.7418   -1.0766    0.0000 H   0  0  0  0  0  0  0  0  0  0  0  0
    4.6861   -3.9969    0.0000 H   0  0  0  0  0  0  0  0  0  0  0  0
    5.3071   -3.4972    0.0000 H   0  0  0  0  0  0  0  0  0  0  0  0
    9.5922   -0.8785    0.0000 H   0  0  0  0  0  0  0  0  0  0  0  0
    9.5008    0.3053    0.0000 H   0  0  0  0  0  0  0  0  0  0  0  0
   10.6701   -0.3590    0.0000 H   0  0  0  0  0  0  0  0  0  0  0  0
   10.1573    0.7118    0.0000 H   0  0  0  0  0  0  0  0  0  0  0  0
    3.7234   -2.9105    0.0000 H   0  0  0  0  0  0  0  0  0  0  0  0
    3.1024   -3.4102    0.0000 H   0  0  0  0  0  0  0  0  0  0  0  0
   11.4877    0.5147    0.0000 H   0  0  0  0  0  0  0  0  0  0  0  0
   10.6227    1.3280    0.0000 H   0  0  0  0  0  0  0  0  0  0  0  0
    3.3367   -5.0828    0.0000 H   0  0  0  0  0  0  0  0  0  0  0  0
    3.9576   -4.5830    0.0000 H   0  0  0  0  0  0  0  0  0  0  0  0
   11.9499    2.8212    0.0000 H   0  0  0  0  0  0  0  0  0  0  0  0
   10.7627    2.8395    0.0000 H   0  0  0  0  0  0  0  0  0  0  0  0
   11.5321    3.9425    0.0000 H   0  0  0  0  0  0  0  0  0  0  0  0
   10.4186    3.5307    0.0000 H   0  0  0  0  0  0  0  0  0  0  0  0
   12.0687    1.9563    0.0000 H   0  0  0  0  0  0  0  0  0  0  0  0
   10.7376    4.8372    0.0000 H   0  0  0  0  0  0  0  0  0  0  0  0
    9.8479    4.0509    0.0000 H   0  0  0  0  0  0  0  0  0  0  0  0
    5.4150    1.9563    0.0000 H   0  0  0  0  0  0  0  0  0  0  0  0
    5.7212    3.4800    0.0000 H   0  0  0  0  0  0  0  0  0  0  0  0
    6.7210    2.8395    0.0000 H   0  0  0  0  0  0  0  0  0  0  0  0
    6.3643    4.4891    0.0000 H   0  0  0  0  0  0  0  0  0  0  0  0
    7.0651    3.5307    0.0000 H   0  0  0  0  0  0  0  0  0  0  0  0
    9.6735    5.3844    0.0000 H   0  0  0  0  0  0  0  0  0  0  0  0
    9.1279    4.3299    0.0000 H   0  0  0  0  0  0  0  0  0  0  0  0
    2.3740   -3.9964    0.0000 H   0  0  0  0  0  0  0  0  0  0  0  0
    1.7530   -4.4961    0.0000 H   0  0  0  0  0  0  0  0  0  0  0  0
    7.3285    5.1978    0.0000 H   0  0  0  0  0  0  0  0  0  0  0  0
    7.6358    4.0509    0.0000 H   0  0  0  0  0  0  0  0  0  0  0  0
    8.1279    5.5487    0.0000 H   0  0  0  0  0  0  0  0  0  0  0  0
    1.4219   -5.3248    0.0000 H   0  0  0  0  0  0  0  0  0  0  0  0
    1.7760   -6.1269    0.0000 H   0  0  0  0  0  0  0  0  0  0  0  0
    2.5781   -5.7727    0.0000 H   0  0  0  0  0  0  0  0  0  0  0  0
  1 16  2  0  0  0  0
  2  6  1  0  0  0  0
  2 13  1  0  0  0  0
  2 39  1  0  0  0  0
  3 17  1  0  0  0  0
  3 19  1  0  0  0  0
  3 56  1  0  0  0  0
  4 16  1  0  0  0  0
  4 22  1  0  0  0  0
  4 59  1  0  0  0  0
  5 25  1  0  0  0  0
  5 26  1  0  0  0  0
  5 70  1  0  0  0  0
  6  7  1  0  0  0  0
  6 10  1  0  0  0  0
  6 28  1  0  0  0  0
  7  8  1  0  0  0  0
  7 29  1  0  0  0  0
  7 30  1  0  0  0  0
  8  9  1  0  0  0  0
  8 31  1  0  0  0  0
  8 32  1  0  0  0  0
  9 11  1  0  0  0  0
  9 33  1  0  0  0  0
  9 34  1  0  0  0  0
 10 16  1  0  0  0  0
 10 35  1  0  0  0  0
 10 36  1  0  0  0  0
 11 12  1  0  0  0  0
 11 37  1  0  0  0  0
 11 38  1  0  0  0  0
 12 15  1  0  0  0  0
 12 40  1  0  0  0  0
 12 41  1  0  0  0  0
 13 14  1  0  0  0  0
 13 42  1  0  0  0  0
 13 43  1  0  0  0  0
 14 17  1  0  0  0  0
 14 44  1  0  0  0  0
 14 45  1  0  0  0  0
 15 18  1  0  0  0  0
 15 46  1  0  0  0  0
 15 47  1  0  0  0  0
 17 48  1  0  0  0  0
 17 49  1  0  0  0  0
 18 24  1  0  0  0  0
 18 50  1  0  0  0  0
 18 51  1  0  0  0  0
 19 20  1  0  0  0  0
 19 52  1  0  0  0  0
 19 53  1  0  0  0  0
 20 21  1  0  0  0  0
 20 54  1  0  0  0  0
 20 55  1  0  0  0  0
 21 25  1  0  0  0  0
 21 57  1  0  0  0  0
 21 58  1  0  0  0  0
 22 23  1  0  0  0  0
 22 60  1  0  0  0  0
 22 61  1  0  0  0  0
 23 26  1  0  0  0  0
 23 62  1  0  0  0  0
 23 63  1  0  0  0  0
 24 27  1  0  0  0  0
 24 66  1  0  0  0  0
 24 67  1  0  0  0  0
 25 64  1  0  0  0  0
 25 65  1  0  0  0  0
 26 68  1  0  0  0  0
 26 69  1  0  0  0  0
 27 71  1  0  0  0  0
 27 72  1  0  0  0  0
 27 73  1  0  0  0  0
M  END
> <PUBCHEM_COMPOUND_CID>
442870

> <PUBCHEM_COMPOUND_CANONICALIZED>
1

> <PUBCHEM_CACTVS_COMPLEXITY>
338

> <PUBCHEM_CACTVS_HBOND_ACCEPTOR>
4

> <PUBCHEM_CACTVS_HBOND_DONOR>
4

> <PUBCHEM_CACTVS_ROTATABLE_BOND>
8

> <PUBCHEM_CACTVS_SUBSKEYS>
AAADcfB7oAAAAAAAAAAAAAAAAAAAAAAAAAAAAAAAAAAAAAAAAAAAHgAQAAAACCjBgAQCAALAAAAIAAEQEAAAAAAAAAAAAIEIAAAAABoAwAAEAAAAFgCAAAEYiICAAAAAAAAAAAAAAAAAAAAAAAAAAAAAAA==

> <PUBCHEM_IUPAC_OPENEYE_NAME>
8-nonyl-1,5,9,13-tetrazacycloheptadecan-6-one

> <PUBCHEM_IUPAC_CAS_NAME>
8-nonyl-1,5,9,13-tetrazacycloheptadecan-6-one

> <PUBCHEM_IUPAC_NAME>
8-nonyl-1,5,9,13-tetrazacycloheptadecan-6-one

> <PUBCHEM_IUPAC_SYSTEMATIC_NAME>
8-nonyl-1,5,9,13-tetrazacycloheptadecan-6-one

> <PUBCHEM_IUPAC_TRADITIONAL_NAME>
8-nonyl-1,5,9,13-tetrazacycloheptadecan-6-one

> <PUBCHEM_IUPAC_INCHI>
InChI=1S/C22H46N4O/c1-2-3-4-5-6-7-8-13-21-20-22(27)26-19-12-17-24-15-10-9-14-23-16-11-18-25-21/h21,23-25H,2-20H2,1H3,(H,26,27)

> <PUBCHEM_IUPAC_INCHIKEY>
QEGMJRQKNQFEEZ-UHFFFAOYSA-N

> <PUBCHEM_XLOGP3_AA>
4

> <PUBCHEM_EXACT_MASS>
382.367162

> <PUBCHEM_MOLECULAR_FORMULA>
C22H46N4O

> <PUBCHEM_MOLECULAR_WEIGHT>
382.62684

> <PUBCHEM_OPENEYE_CAN_SMILES>
CCCCCCCCCC1CC(=O)NCCCNCCCCNCCCN1

> <PUBCHEM_OPENEYE_ISO_SMILES>
CCCCCCCCCC1CC(=O)NCCCNCCCCNCCCN1

> <PUBCHEM_CACTVS_TPSA>
65.2

> <PUBCHEM_MONOISOTOPIC_WEIGHT>
382.367162

> <PUBCHEM_TOTAL_CHARGE>
0

> <PUBCHEM_HEAVY_ATOM_COUNT>
27

> <PUBCHEM_ATOM_DEF_STEREO_COUNT>
0

> <PUBCHEM_ATOM_UDEF_STEREO_COUNT>
1

> <PUBCHEM_BOND_DEF_STEREO_COUNT>
0

> <PUBCHEM_BOND_UDEF_STEREO_COUNT>
0

> <PUBCHEM_ISOTOPIC_ATOM_COUNT>
0

> <PUBCHEM_COMPONENT_COUNT>
1

> <PUBCHEM_CACTVS_TAUTO_COUNT>
3

> <PUBCHEM_COORDINATE_TYPE>
1
5
255

> <PUBCHEM_BONDANNOTATIONS>
6  7  3

$$$$

