13967
  -OEChem-06241222413D

 45 46  0     0  0  0  0  0  0999 V2000
   -2.2406    1.7564   -0.9166 O   0  0  0  0  0  0  0  0  0  0  0  0
    2.2407    1.7564    0.9166 O   0  0  0  0  0  0  0  0  0  0  0  0
    0.0000    3.1980    0.0000 N   0  3  0  0  0  0  0  0  0  0  0  0
   -1.9897    0.2412    0.8616 N   0  0  0  0  0  0  0  0  0  0  0  0
    1.9896    0.2411   -0.8616 N   0  0  0  0  0  0  0  0  0  0  0  0
   -0.8205    2.3195    0.9333 C   0  0  0  0  0  0  0  0  0  0  0  0
    0.8205    2.3194   -0.9333 C   0  0  0  0  0  0  0  0  0  0  0  0
    0.9333    4.0767    0.8206 C   0  0  0  0  0  0  0  0  0  0  0  0
   -0.9332    4.0767   -0.8206 C   0  0  0  0  0  0  0  0  0  0  0  0
   -1.7664    1.4248    0.1648 C   0  0  0  0  0  0  0  0  0  0  0  0
    1.7664    1.4248   -0.1648 C   0  0  0  0  0  0  0  0  0  0  0  0
   -2.8102   -0.8454    0.4754 C   0  0  0  0  0  0  0  0  0  0  0  0
    2.8101   -0.8454   -0.4754 C   0  0  0  0  0  0  0  0  0  0  0  0
   -2.9097   -1.9485    1.3069 C   0  0  0  0  0  0  0  0  0  0  0  0
    2.9095   -1.9485   -1.3068 C   0  0  0  0  0  0  0  0  0  0  0  0
   -3.4969   -0.7819   -0.7255 C   0  0  0  0  0  0  0  0  0  0  0  0
    3.4970   -0.7819    0.7255 C   0  0  0  0  0  0  0  0  0  0  0  0
   -3.7192   -3.0188    0.9265 C   0  0  0  0  0  0  0  0  0  0  0  0
    3.7191   -3.0190   -0.9265 C   0  0  0  0  0  0  0  0  0  0  0  0
   -4.3066   -1.8522   -1.1059 C   0  0  0  0  0  0  0  0  0  0  0  0
    4.3066   -1.8522    1.1058 C   0  0  0  0  0  0  0  0  0  0  0  0
   -4.4176   -2.9707   -0.2799 C   0  0  0  0  0  0  0  0  0  0  0  0
    4.4176   -2.9707    0.2799 C   0  0  0  0  0  0  0  0  0  0  0  0
   -1.4100    2.9819    1.5788 H   0  0  0  0  0  0  0  0  0  0  0  0
   -0.1435    1.7416    1.5692 H   0  0  0  0  0  0  0  0  0  0  0  0
    0.1434    1.7416   -1.5692 H   0  0  0  0  0  0  0  0  0  0  0  0
    1.4099    2.9817   -1.5790 H   0  0  0  0  0  0  0  0  0  0  0  0
    1.2625    3.5639    1.7265 H   0  0  0  0  0  0  0  0  0  0  0  0
    0.3620    4.9544    1.1443 H   0  0  0  0  0  0  0  0  0  0  0  0
    1.7715    4.4033    0.1981 H   0  0  0  0  0  0  0  0  0  0  0  0
   -1.2624    3.5638   -1.7264 H   0  0  0  0  0  0  0  0  0  0  0  0
   -0.3618    4.9542   -1.1443 H   0  0  0  0  0  0  0  0  0  0  0  0
   -1.7713    4.4032   -0.1981 H   0  0  0  0  0  0  0  0  0  0  0  0
   -1.5217    0.1251    1.7579 H   0  0  0  0  0  0  0  0  0  0  0  0
    1.5215    0.1250   -1.7578 H   0  0  0  0  0  0  0  0  0  0  0  0
   -2.3699   -1.9962    2.2486 H   0  0  0  0  0  0  0  0  0  0  0  0
    2.3697   -1.9963   -2.2484 H   0  0  0  0  0  0  0  0  0  0  0  0
   -3.4624    0.0461   -1.4179 H   0  0  0  0  0  0  0  0  0  0  0  0
    3.4627    0.0460    1.4179 H   0  0  0  0  0  0  0  0  0  0  0  0
   -3.8057   -3.8898    1.5696 H   0  0  0  0  0  0  0  0  0  0  0  0
    3.8055   -3.8900   -1.5695 H   0  0  0  0  0  0  0  0  0  0  0  0
   -4.8509   -1.8161   -2.0452 H   0  0  0  0  0  0  0  0  0  0  0  0
    4.8511   -1.8161    2.0451 H   0  0  0  0  0  0  0  0  0  0  0  0
   -5.0479   -3.8040   -0.5761 H   0  0  0  0  0  0  0  0  0  0  0  0
    5.0479   -3.8041    0.5762 H   0  0  0  0  0  0  0  0  0  0  0  0
  1 10  2  0  0  0  0
  2 11  2  0  0  0  0
  3  6  1  0  0  0  0
  3  7  1  0  0  0  0
  3  8  1  0  0  0  0
  3  9  1  0  0  0  0
  4 10  1  0  0  0  0
  4 12  1  0  0  0  0
  4 34  1  0  0  0  0
  5 11  1  0  0  0  0
  5 13  1  0  0  0  0
  5 35  1  0  0  0  0
  6 10  1  0  0  0  0
  6 24  1  0  0  0  0
  6 25  1  0  0  0  0
  7 11  1  0  0  0  0
  7 26  1  0  0  0  0
  7 27  1  0  0  0  0
  8 28  1  0  0  0  0
  8 29  1  0  0  0  0
  8 30  1  0  0  0  0
  9 31  1  0  0  0  0
  9 32  1  0  0  0  0
  9 33  1  0  0  0  0
 12 14  2  0  0  0  0
 12 16  1  0  0  0  0
 13 15  2  0  0  0  0
 13 17  1  0  0  0  0
 14 18  1  0  0  0  0
 14 36  1  0  0  0  0
 15 19  1  0  0  0  0
 15 37  1  0  0  0  0
 16 20  2  0  0  0  0
 16 38  1  0  0  0  0
 17 21  2  0  0  0  0
 17 39  1  0  0  0  0
 18 22  2  0  0  0  0
 18 40  1  0  0  0  0
 19 23  2  0  0  0  0
 19 41  1  0  0  0  0
 20 22  1  0  0  0  0
 20 42  1  0  0  0  0
 21 23  1  0  0  0  0
 21 43  1  0  0  0  0
 22 44  1  0  0  0  0
 23 45  1  0  0  0  0
M  CHG  1   3   1
M  END
> <PUBCHEM_COMPOUND_CID>
13967

> <PUBCHEM_CONFORMER_RMSD>
0.8

> <PUBCHEM_CONFORMER_DIVERSEORDER>
4
3
11
12
14
1
5
8
10
7
13
9
2
6

> <PUBCHEM_MMFF94_PARTIAL_CHARGES>
35
1 -0.57
10 0.57
11 0.57
12 0.12
13 0.12
14 -0.15
15 -0.15
16 -0.15
17 -0.15
18 -0.15
19 -0.15
2 -0.57
20 -0.15
21 -0.15
22 -0.15
23 -0.15
3 -1.01
34 0.37
35 0.37
36 0.15
37 0.15
38 0.15
39 0.15
4 -0.55
40 0.15
41 0.15
42 0.15
43 0.15
44 0.15
45 0.15
5 -0.55
6 0.56
7 0.56
8 0.5
9 0.5

> <PUBCHEM_EFFECTIVE_ROTOR_COUNT>
8

> <PUBCHEM_PHARMACOPHORE_FEATURES>
7
1 1 acceptor
1 2 acceptor
1 3 cation
1 4 donor
1 5 donor
6 12 14 16 18 20 22 rings
6 13 15 17 19 21 23 rings

> <PUBCHEM_HEAVY_ATOM_COUNT>
23

> <PUBCHEM_ATOM_DEF_STEREO_COUNT>
0

> <PUBCHEM_ATOM_UDEF_STEREO_COUNT>
0

> <PUBCHEM_BOND_DEF_STEREO_COUNT>
0

> <PUBCHEM_BOND_UDEF_STEREO_COUNT>
0

> <PUBCHEM_ISOTOPIC_ATOM_COUNT>
0

> <PUBCHEM_COMPONENT_COUNT>
1

> <PUBCHEM_CACTVS_TAUTO_COUNT>
3

> <PUBCHEM_CONFORMER_ID>
0000368F00000004

> <PUBCHEM_MMFF94_ENERGY>
87.8944

> <PUBCHEM_FEATURE_SELFOVERLAP>
35.52

> <PUBCHEM_SHAPE_FINGERPRINT>
114674 6 18126564505306071018
11552529 35 18119247518096273346
12107183 9 18263061311511594739
12293681 25 18122941743521052501
12363563 72 18411694387505994806
12553582 1 18338497703711279527
12990986 174 18339642364457270858
13140716 1 18336823190514945528
13533116 47 18121769531767866523
13631057 29 18410846690701710046
138480 1 14880314161531799427
14251757 5 18051394451864139670
14659021 117 18124049063557133968
14844126 61 18053662765821693282
14848160 33 18266457612008032727
14863182 85 17979912718520325132
14866123 147 18194119840600733017
15352361 1 18410857663473278086
15422964 175 18338524032029687181
19611394 137 18118420664394899370
20645477 70 17836370350480117377
20775530 9 18411689980874674490
21133410 58 18266195937406427767
21285901 2 17628376878478465717
21452121 199 18412826867719252024
23559900 14 18267874895443954195
23572383 38 18338817657315806323
23728640 28 17908696585499765409
257057 1 18410571790428963812
345986 75 17750778979543314243
463206 1 18342737429481076547
5265222 85 16608537400770798830
5309563 4 18337389314428125479
56633871 153 18190446333365941595
602551 16 17907576179694961554
613672 6 18410584984563495206
6433294 58 17835235649816942627

> <PUBCHEM_SHAPE_MULTIPOLES>
446.65
9.05
5.81
1.28
0
4.12
0
-13.14
0
0
0
0
-0.25
0.68

> <PUBCHEM_SHAPE_SELFOVERLAP>
936.031

> <PUBCHEM_SHAPE_VOLUME>
251.5

> <PUBCHEM_COORDINATE_TYPE>
2
5
10

$$$$

