854056
  -OEChem-06241222473D

 16 16  0     0  0  0  0  0  0999 V2000
    1.2397   -1.3204    0.6186 S   0  0  0  0  0  0  0  0  0  0  0  0
    1.2417    1.3214   -0.6197 S   0  0  0  0  0  0  0  0  0  0  0  0
   -1.7441   -1.5253    0.6984 S   0  0  0  0  0  0  0  0  0  0  0  0
   -1.7453    1.5228   -0.6980 S   0  0  0  0  0  0  0  0  0  0  0  0
    3.4306   -0.0001    0.0016 O   0  0  0  0  0  0  0  0  0  0  0  0
   -0.3254   -0.6113    0.2791 C   0  0  0  0  0  0  0  0  0  0  0  0
   -0.3245    0.6150   -0.2807 C   0  0  0  0  0  0  0  0  0  0  0  0
    2.2088    0.0003    0.0005 C   0  0  0  0  0  0  0  0  0  0  0  0
   -1.9885   -2.4203   -0.8488 C   0  0  0  0  0  0  0  0  0  0  0  0
   -1.9930    2.4179    0.8490 C   0  0  0  0  0  0  0  0  0  0  0  0
   -2.1460   -1.7274   -1.6799 H   0  0  0  0  0  0  0  0  0  0  0  0
   -2.8725   -3.0575   -0.7595 H   0  0  0  0  0  0  0  0  0  0  0  0
   -1.1265   -3.0561   -1.0690 H   0  0  0  0  0  0  0  0  0  0  0  0
   -2.1481    1.7249    1.6804 H   0  0  0  0  0  0  0  0  0  0  0  0
   -2.8791    3.0520    0.7593 H   0  0  0  0  0  0  0  0  0  0  0  0
   -1.1331    3.0566    1.0688 H   0  0  0  0  0  0  0  0  0  0  0  0
  1  6  1  0  0  0  0
  1  8  1  0  0  0  0
  2  7  1  0  0  0  0
  2  8  1  0  0  0  0
  3  6  1  0  0  0  0
  3  9  1  0  0  0  0
  4  7  1  0  0  0  0
  4 10  1  0  0  0  0
  5  8  2  0  0  0  0
  6  7  2  0  0  0  0
  9 11  1  0  0  0  0
  9 12  1  0  0  0  0
  9 13  1  0  0  0  0
 10 14  1  0  0  0  0
 10 15  1  0  0  0  0
 10 16  1  0  0  0  0
M  END
> <PUBCHEM_COMPOUND_CID>
854056

> <PUBCHEM_CONFORMER_RMSD>
0.4

> <PUBCHEM_CONFORMER_DIVERSEORDER>
1
9
2
7
3
8
4
6
5

> <PUBCHEM_MMFF94_PARTIAL_CHARGES>
10
1 -0.24
10 0.23
2 -0.24
3 -0.33
4 -0.33
5 -0.57
6 0.2
7 0.2
8 0.85
9 0.23

> <PUBCHEM_EFFECTIVE_ROTOR_COUNT>
2

> <PUBCHEM_PHARMACOPHORE_FEATURES>
3
1 10 hydrophobe
1 9 hydrophobe
5 1 2 6 7 8 rings

> <PUBCHEM_HEAVY_ATOM_COUNT>
10

> <PUBCHEM_ATOM_DEF_STEREO_COUNT>
0

> <PUBCHEM_ATOM_UDEF_STEREO_COUNT>
0

> <PUBCHEM_BOND_DEF_STEREO_COUNT>
0

> <PUBCHEM_BOND_UDEF_STEREO_COUNT>
0

> <PUBCHEM_ISOTOPIC_ATOM_COUNT>
0

> <PUBCHEM_COMPONENT_COUNT>
1

> <PUBCHEM_CACTVS_TAUTO_COUNT>
1

> <PUBCHEM_CONFORMER_ID>
000D082800000001

> <PUBCHEM_MMFF94_ENERGY>
11.5178

> <PUBCHEM_FEATURE_SELFOVERLAP>
15.223

> <PUBCHEM_SHAPE_FINGERPRINT>
1 1 17763745794609466607
100427 49 17834109749940761113
11206711 2 18201720604989419134
13380535 21 18198328749167556954
14617773 55 18267850701518915189
16945 1 18410292510174740486
18410436 195 17901109620745763375
20871998 184 18409439293668275175
21040471 1 18198625625728082052
23419403 2 16683234470611754837
23552423 10 17987799592476719678
2748010 2 17192926679634229636
5084963 1 18263921051619993738
6333449 129 18411139172830397384
81228 2 18341331110984709467

> <PUBCHEM_SHAPE_MULTIPOLES>
215.32
3.72
2.76
0.99
2.43
0
0
0
0
-2.43
0
-0.41
0
-0.67

> <PUBCHEM_SHAPE_SELFOVERLAP>
376.918

> <PUBCHEM_SHAPE_VOLUME>
142.5

> <PUBCHEM_COORDINATE_TYPE>
2
5
10

$$$$

