22226
  -OEChem-07051212572D

 33 35  0     1  0  0  0  0  0999 V2000
    2.0000   -0.8010    0.0000 O   0  0  0  0  0  0  0  0  0  0  0  0
    6.4749    0.6964    0.0000 O   0  0  0  0  0  0  0  0  0  0  0  0
    2.0379   -2.5770    0.0000 O   0  0  0  0  0  0  0  0  0  0  0  0
    4.0861    1.6760    0.0000 C   0  0  2  0  0  0  0  0  0  0  0  0
    4.7096    0.8942    0.0000 C   0  0  1  0  0  0  0  0  0  0  0  0
    3.0861    1.6760    0.0000 C   0  0  1  0  0  0  0  0  0  0  0  0
    3.5861   -0.5146    0.0000 C   0  0  2  0  0  0  0  0  0  0  0  0
    2.6851   -0.0807    0.0000 C   0  0  1  0  0  0  0  0  0  0  0  0
    4.4870   -0.0807    0.0000 C   0  0  0  0  0  0  0  0  0  0  0  0
    2.4626    0.8942    0.0000 C   0  0  0  0  0  0  0  0  0  0  0  0
    4.6359    2.5042    0.0000 C   0  0  0  0  0  0  0  0  0  0  0  0
    5.6393    1.2459    0.0000 C   0  0  0  0  0  0  0  0  0  0  0  0
    3.4501   -1.4994    0.0000 C   0  0  0  0  0  0  0  0  0  0  0  0
    2.6522    2.5770    0.0000 C   0  0  0  0  0  0  0  0  0  0  0  0
    5.5939    2.2389    0.0000 C   0  0  0  0  0  0  0  0  0  0  0  0
    2.4718   -1.6760    0.0000 C   0  0  0  0  0  0  0  0  0  0  0  0
    4.1717   -2.1917    0.0000 C   0  0  0  0  0  0  0  0  0  0  0  0
    3.6843    2.4250    0.0000 H   0  0  0  0  0  0  0  0  0  0  0  0
    5.3504    0.3358    0.0000 H   0  0  0  0  0  0  0  0  0  0  0  0
    3.4159    2.2010    0.0000 H   0  0  0  0  0  0  0  0  0  0  0  0
    4.2731   -1.0151    0.0000 H   0  0  0  0  0  0  0  0  0  0  0  0
    1.8654    0.1443    0.0000 H   0  0  0  0  0  0  0  0  0  0  0  0
    4.6250   -0.6852    0.0000 H   0  0  0  0  0  0  0  0  0  0  0  0
    5.1070   -0.0807    0.0000 H   0  0  0  0  0  0  0  0  0  0  0  0
    2.0760    1.3789    0.0000 H   0  0  0  0  0  0  0  0  0  0  0  0
    1.9040    0.6252    0.0000 H   0  0  0  0  0  0  0  0  0  0  0  0
    4.4190    3.0851    0.0000 H   0  0  0  0  0  0  0  0  0  0  0  0
    3.2108    2.8460    0.0000 H   0  0  0  0  0  0  0  0  0  0  0  0
    2.3832    3.1356    0.0000 H   0  0  0  0  0  0  0  0  0  0  0  0
    2.0936    2.3080    0.0000 H   0  0  0  0  0  0  0  0  0  0  0  0
    6.0786    2.6255    0.0000 H   0  0  0  0  0  0  0  0  0  0  0  0
    4.0236   -2.7937    0.0000 H   0  0  0  0  0  0  0  0  0  0  0  0
    4.7671   -2.0188    0.0000 H   0  0  0  0  0  0  0  0  0  0  0  0
  1  8  1  0  0  0  0
  1 16  1  0  0  0  0
  2 12  2  0  0  0  0
  3 16  2  0  0  0  0
  4  5  1  0  0  0  0
  4  6  1  0  0  0  0
  4 11  1  0  0  0  0
  4 18  1  1  0  0  0
  5  9  1  0  0  0  0
  5 12  1  0  0  0  0
  5 19  1  1  0  0  0
  6 10  1  0  0  0  0
  6 14  1  1  0  0  0
  6 20  1  0  0  0  0
  7  8  1  0  0  0  0
  7  9  1  0  0  0  0
  7 13  1  0  0  0  0
  7 21  1  1  0  0  0
  8 10  1  0  0  0  0
  8 22  1  1  0  0  0
  9 23  1  0  0  0  0
  9 24  1  0  0  0  0
 10 25  1  0  0  0  0
 10 26  1  0  0  0  0
 11 15  2  0  0  0  0
 11 27  1  0  0  0  0
 12 15  1  0  0  0  0
 13 16  1  0  0  0  0
 13 17  2  0  0  0  0
 14 28  1  0  0  0  0
 14 29  1  0  0  0  0
 14 30  1  0  0  0  0
 15 31  1  0  0  0  0
 17 32  1  0  0  0  0
 17 33  1  0  0  0  0
M  END
> <PUBCHEM_COMPOUND_CID>
22226

> <PUBCHEM_COMPOUND_CANONICALIZED>
1

> <PUBCHEM_CACTVS_COMPLEXITY>
435

> <PUBCHEM_CACTVS_HBOND_ACCEPTOR>
3

> <PUBCHEM_CACTVS_HBOND_DONOR>
0

> <PUBCHEM_CACTVS_ROTATABLE_BOND>
0

> <PUBCHEM_CACTVS_SUBSKEYS>
AAADceBwMAAAAAAAAAAAAAAAAAAAASIAAAAAAAAABgAAAACQAAAAGgAAAAAADRSggAICCAAABACIAqDSCAAAAAAgAAAICAEAAEgABBIAIQACAAAEwAAIIYOKzPDOgAAAAAAAAAAAAAAAAAAAAAAAAAAAAA==

> <PUBCHEM_IUPAC_OPENEYE_NAME>
(3aR,5R,5aR,8aR,9aR)-5-methyl-1-methylene-4,5,5a,8a,9,9a-hexahydro-3aH-azuleno[6,7-b]furan-2,8-dione

> <PUBCHEM_IUPAC_CAS_NAME>
(3aR,5R,5aR,8aR,9aR)-5-methyl-1-methylene-4,5,5a,8a,9,9a-hexahydro-3aH-azuleno[6,7-b]furan-2,8-dione

> <PUBCHEM_IUPAC_NAME>
(3aR,5R,5aR,8aR,9aR)-5-methyl-1-methylidene-4,5,5a,8a,9,9a-hexahydro-3aH-azuleno[6,7-b]furan-2,8-dione

> <PUBCHEM_IUPAC_SYSTEMATIC_NAME>
(3aR,5R,5aR,8aR,9aR)-5-methyl-1-methylidene-4,5,5a,8a,9,9a-hexahydro-3aH-azuleno[6,7-b]furan-2,8-dione

> <PUBCHEM_IUPAC_TRADITIONAL_NAME>
(3aR,5R,5aR,8aR,9aR)-5-methyl-1-methylene-4,5,5a,8a,9,9a-hexahydro-3aH-azuleno[6,7-b]furan-2,8-quinone

> <PUBCHEM_IUPAC_INCHI>
InChI=1S/C14H16O3/c1-7-5-13-10(8(2)14(16)17-13)6-11-9(7)3-4-12(11)15/h3-4,7,9-11,13H,2,5-6H2,1H3/t7-,9+,10-,11-,13-/m1/s1

> <PUBCHEM_IUPAC_INCHIKEY>
GQOWVFHMXITOCQ-QWRHMFJTSA-N

> <PUBCHEM_XLOGP3_AA>
2

> <PUBCHEM_EXACT_MASS>
232.109944

> <PUBCHEM_MOLECULAR_FORMULA>
C14H16O3

> <PUBCHEM_MOLECULAR_WEIGHT>
232.27504

> <PUBCHEM_OPENEYE_CAN_SMILES>
CC1CC2C(CC3C1C=CC3=O)C(=C)C(=O)O2

> <PUBCHEM_OPENEYE_ISO_SMILES>
C[C@@H]1C[C@@H]2[C@H](C[C@@H]3[C@H]1C=CC3=O)C(=C)C(=O)O2

> <PUBCHEM_CACTVS_TPSA>
43.4

> <PUBCHEM_MONOISOTOPIC_WEIGHT>
232.109944

> <PUBCHEM_TOTAL_CHARGE>
0

> <PUBCHEM_HEAVY_ATOM_COUNT>
17

> <PUBCHEM_ATOM_DEF_STEREO_COUNT>
5

> <PUBCHEM_ATOM_UDEF_STEREO_COUNT>
0

> <PUBCHEM_BOND_DEF_STEREO_COUNT>
0

> <PUBCHEM_BOND_UDEF_STEREO_COUNT>
0

> <PUBCHEM_ISOTOPIC_ATOM_COUNT>
0

> <PUBCHEM_COMPONENT_COUNT>
1

> <PUBCHEM_CACTVS_TAUTO_COUNT>
10

> <PUBCHEM_COORDINATE_TYPE>
1
5
255

> <PUBCHEM_BONDANNOTATIONS>
4  18  5
5  19  5
6  14  5
7  21  5
8  22  5

$$$$

