71447
  -OEChem-07051213022D

 57 61  0     1  0  0  0  0  0999 V2000
    6.2809    2.0165    0.0000 S   0  0  0  0  0  0  0  0  0  0  0  0
    8.9424   -0.0098    0.0000 O   0  0  0  0  0  0  0  0  0  0  0  0
    4.9889   -0.7583    0.0000 O   0  0  0  0  0  0  0  0  0  0  0  0
    6.6353   -1.2964    0.0000 O   0  0  0  0  0  0  0  0  0  0  0  0
   10.1717    1.1912    0.0000 O   0  0  0  0  0  0  0  0  0  0  0  0
    5.2619   -2.5135    0.0000 O   0  0  0  0  0  0  0  0  0  0  0  0
    4.9889   -4.2688    0.0000 O   0  0  0  0  0  0  0  0  0  0  0  0
    7.2297    0.7058    0.0000 N   0  0  0  0  0  0  0  0  0  0  0  0
    8.9466    2.4156    0.0000 N   0  0  0  0  0  0  0  0  0  0  0  0
   10.3603    3.8302    0.0000 N   0  0  0  0  0  0  0  0  0  0  0  0
    7.2314    1.7058    0.0000 C   0  0  1  0  0  0  0  0  0  0  0  0
    6.2781    0.3985    0.0000 C   0  0  2  0  0  0  0  0  0  0  0  0
    5.6917    1.2085    0.0000 C   0  0  0  0  0  0  0  0  0  0  0  0
    8.2397    1.7082    0.0000 C   0  0  1  0  0  0  0  0  0  0  0  0
    8.2380    0.6999    0.0000 C   0  0  0  0  0  0  0  0  0  0  0  0
    4.8837    1.7977    0.0000 C   0  0  0  0  0  0  0  0  0  0  0  0
    4.8817    0.6221    0.0000 C   0  0  0  0  0  0  0  0  0  0  0  0
    5.9674   -0.5521    0.0000 C   0  0  0  0  0  0  0  0  0  0  0  0
    9.9126    2.1571    0.0000 C   0  0  0  0  0  0  0  0  0  0  0  0
   10.6195    2.8644    0.0000 C   0  0  1  0  0  0  0  0  0  0  0  0
    4.6783   -1.7088    0.0000 C   0  0  3  0  0  0  0  0  0  0  0  0
    3.7320   -2.0135    0.0000 C   0  0  0  0  0  0  0  0  0  0  0  0
   11.5855    2.6059    0.0000 C   0  0  0  0  0  0  0  0  0  0  0  0
    3.7320   -3.0135    0.0000 C   0  0  0  0  0  0  0  0  0  0  0  0
    4.6783   -3.3183    0.0000 C   0  0  0  0  0  0  0  0  0  0  0  0
    2.8660   -1.5135    0.0000 C   0  0  0  0  0  0  0  0  0  0  0  0
   12.2924    3.3132    0.0000 C   0  0  0  0  0  0  0  0  0  0  0  0
   11.8446    1.6400    0.0000 C   0  0  0  0  0  0  0  0  0  0  0  0
    2.8660   -3.5135    0.0000 C   0  0  0  0  0  0  0  0  0  0  0  0
    2.0000   -2.0135    0.0000 C   0  0  0  0  0  0  0  0  0  0  0  0
    2.0000   -3.0135    0.0000 C   0  0  0  0  0  0  0  0  0  0  0  0
   13.2584    3.0547    0.0000 C   0  0  0  0  0  0  0  0  0  0  0  0
   12.8106    1.3815    0.0000 C   0  0  0  0  0  0  0  0  0  0  0  0
   13.5175    2.0889    0.0000 C   0  0  0  0  0  0  0  0  0  0  0  0
    7.3641    2.5454    0.0000 H   0  0  0  0  0  0  0  0  0  0  0  0
    6.7158   -0.0407    0.0000 H   0  0  0  0  0  0  0  0  0  0  0  0
    8.0017    2.2807    0.0000 H   0  0  0  0  0  0  0  0  0  0  0  0
    5.2490    2.2986    0.0000 H   0  0  0  0  0  0  0  0  0  0  0  0
    4.3828    2.1630    0.0000 H   0  0  0  0  0  0  0  0  0  0  0  0
    4.5184    1.2967    0.0000 H   0  0  0  0  0  0  0  0  0  0  0  0
    4.5181    1.1243    0.0000 H   0  0  0  0  0  0  0  0  0  0  0  0
    4.3795    0.2585    0.0000 H   0  0  0  0  0  0  0  0  0  0  0  0
    5.2452    0.1199    0.0000 H   0  0  0  0  0  0  0  0  0  0  0  0
    8.7859    3.0144    0.0000 H   0  0  0  0  0  0  0  0  0  0  0  0
   11.0577    3.3029    0.0000 H   0  0  0  0  0  0  0  0  0  0  0  0
    4.2408   -1.2694    0.0000 H   0  0  0  0  0  0  0  0  0  0  0  0
   10.7986    4.2688    0.0000 H   0  0  0  0  0  0  0  0  0  0  0  0
    9.7614    3.9905    0.0000 H   0  0  0  0  0  0  0  0  0  0  0  0
    2.8660   -0.8935    0.0000 H   0  0  0  0  0  0  0  0  0  0  0  0
   12.1317    3.9120    0.0000 H   0  0  0  0  0  0  0  0  0  0  0  0
   11.4064    1.2015    0.0000 H   0  0  0  0  0  0  0  0  0  0  0  0
    2.8660   -4.1335    0.0000 H   0  0  0  0  0  0  0  0  0  0  0  0
    1.4631   -1.7035    0.0000 H   0  0  0  0  0  0  0  0  0  0  0  0
    1.4631   -3.3235    0.0000 H   0  0  0  0  0  0  0  0  0  0  0  0
   13.6966    3.4933    0.0000 H   0  0  0  0  0  0  0  0  0  0  0  0
   12.9713    0.7827    0.0000 H   0  0  0  0  0  0  0  0  0  0  0  0
   14.1164    1.9286    0.0000 H   0  0  0  0  0  0  0  0  0  0  0  0
  1 11  1  0  0  0  0
  1 13  1  0  0  0  0
  2 15  2  0  0  0  0
  3 18  1  0  0  0  0
  3 21  1  0  0  0  0
  4 18  2  0  0  0  0
  5 19  2  0  0  0  0
  6 21  1  0  0  0  0
  6 25  1  0  0  0  0
  7 25  2  0  0  0  0
  8 11  1  0  0  0  0
  8 12  1  0  0  0  0
  8 15  1  0  0  0  0
 14  9  1  6  0  0  0
  9 19  1  0  0  0  0
  9 44  1  0  0  0  0
 20 10  1  6  0  0  0
 10 47  1  0  0  0  0
 10 48  1  0  0  0  0
 11 14  1  0  0  0  0
 11 35  1  1  0  0  0
 12 13  1  0  0  0  0
 12 18  1  1  0  0  0
 12 36  1  0  0  0  0
 13 16  1  0  0  0  0
 13 17  1  0  0  0  0
 14 15  1  0  0  0  0
 14 37  1  0  0  0  0
 16 38  1  0  0  0  0
 16 39  1  0  0  0  0
 16 40  1  0  0  0  0
 17 41  1  0  0  0  0
 17 42  1  0  0  0  0
 17 43  1  0  0  0  0
 19 20  1  0  0  0  0
 20 23  1  0  0  0  0
 20 45  1  0  0  0  0
 21 22  1  0  0  0  0
 21 46  1  0  0  0  0
 22 24  1  0  0  0  0
 22 26  2  0  0  0  0
 23 27  2  0  0  0  0
 23 28  1  0  0  0  0
 24 25  1  0  0  0  0
 24 29  2  0  0  0  0
 26 30  1  0  0  0  0
 26 49  1  0  0  0  0
 27 32  1  0  0  0  0
 27 50  1  0  0  0  0
 28 33  2  0  0  0  0
 28 51  1  0  0  0  0
 29 31  1  0  0  0  0
 29 52  1  0  0  0  0
 30 31  2  0  0  0  0
 30 53  1  0  0  0  0
 31 54  1  0  0  0  0
 32 34  2  0  0  0  0
 32 55  1  0  0  0  0
 33 34  1  0  0  0  0
 33 56  1  0  0  0  0
 34 57  1  0  0  0  0
M  END
> <PUBCHEM_COMPOUND_CID>
71447

> <PUBCHEM_COMPOUND_CANONICALIZED>
1

> <PUBCHEM_CACTVS_COMPLEXITY>
875

> <PUBCHEM_CACTVS_HBOND_ACCEPTOR>
8

> <PUBCHEM_CACTVS_HBOND_DONOR>
2

> <PUBCHEM_CACTVS_ROTATABLE_BOND>
6

> <PUBCHEM_CACTVS_SUBSKEYS>
AAADceB7OABAAAAAAAAAAAAAAABYAWJAAAAwYAAABYAAAEgBQAAAHgQQAAAADCj12AeyCIPABAiIAiHSGACCAABkABAIiIGIDMgaZjqgtTm3MQBk1gG8qYfayKCOgAAAAAAQAAAAAAAAACAAAAAAAAAAAA==

> <PUBCHEM_IUPAC_OPENEYE_NAME>
(3-oxo-1H-isobenzofuran-1-yl) (2S,5R,6R)-6-[[(2R)-2-amino-2-phenyl-acetyl]amino]-3,3-dimethyl-7-oxo-4-thia-1-azabicyclo[3.2.0]heptane-2-carboxylate

> <PUBCHEM_IUPAC_CAS_NAME>
(2S,5R,6R)-6-[[(2R)-2-amino-1-oxo-2-phenylethyl]amino]-3,3-dimethyl-7-oxo-4-thia-1-azabicyclo[3.2.0]heptane-2-carboxylic acid (3-oxo-1H-isobenzofuran-1-yl) ester

> <PUBCHEM_IUPAC_NAME>
(3-oxo-1H-2-benzofuran-1-yl) (2S,5R,6R)-6-[[(2R)-2-amino-2-phenylacetyl]amino]-3,3-dimethyl-7-oxo-4-thia-1-azabicyclo[3.2.0]heptane-2-carboxylate

> <PUBCHEM_IUPAC_SYSTEMATIC_NAME>
(3-oxidanylidene-1H-2-benzofuran-1-yl) (2S,5R,6R)-6-[[(2R)-2-azanyl-2-phenyl-ethanoyl]amino]-3,3-dimethyl-7-oxidanylidene-4-thia-1-azabicyclo[3.2.0]heptane-2-carboxylate

> <PUBCHEM_IUPAC_TRADITIONAL_NAME>
(2S,5R,6R)-6-[[(2R)-2-amino-2-phenyl-acetyl]amino]-7-keto-3,3-dimethyl-4-thia-1-azabicyclo[3.2.0]heptane-2-carboxylic acid phthalidyl ester

> <PUBCHEM_IUPAC_INCHI>
InChI=1S/C24H23N3O6S/c1-24(2)17(22(31)33-23-14-11-7-6-10-13(14)21(30)32-23)27-19(29)16(20(27)34-24)26-18(28)15(25)12-8-4-3-5-9-12/h3-11,15-17,20,23H,25H2,1-2H3,(H,26,28)/t15-,16-,17+,20-,23?/m1/s1

> <PUBCHEM_IUPAC_INCHIKEY>
SOROUYSPFADXSN-SUWVAFIASA-N

> <PUBCHEM_XLOGP3>
2.7

> <PUBCHEM_EXACT_MASS>
481.130756

> <PUBCHEM_MOLECULAR_FORMULA>
C24H23N3O6S

> <PUBCHEM_MOLECULAR_WEIGHT>
481.52092

> <PUBCHEM_OPENEYE_CAN_SMILES>
CC1(C(N2C(S1)C(C2=O)NC(=O)C(C3=CC=CC=C3)N)C(=O)OC4C5=CC=CC=C5C(=O)O4)C

> <PUBCHEM_OPENEYE_ISO_SMILES>
CC1([C@@H](N2[C@H](S1)[C@@H](C2=O)NC(=O)[C@@H](C3=CC=CC=C3)N)C(=O)OC4C5=CC=CC=C5C(=O)O4)C

> <PUBCHEM_CACTVS_TPSA>
153

> <PUBCHEM_MONOISOTOPIC_WEIGHT>
481.130756

> <PUBCHEM_TOTAL_CHARGE>
0

> <PUBCHEM_HEAVY_ATOM_COUNT>
34

> <PUBCHEM_ATOM_DEF_STEREO_COUNT>
4

> <PUBCHEM_ATOM_UDEF_STEREO_COUNT>
1

> <PUBCHEM_BOND_DEF_STEREO_COUNT>
0

> <PUBCHEM_BOND_UDEF_STEREO_COUNT>
0

> <PUBCHEM_ISOTOPIC_ATOM_COUNT>
0

> <PUBCHEM_COMPONENT_COUNT>
1

> <PUBCHEM_CACTVS_TAUTO_COUNT>
4

> <PUBCHEM_COORDINATE_TYPE>
1
5
255

> <PUBCHEM_BONDANNOTATIONS>
20  10  6
11  35  5
12  18  5
22  24  8
22  26  8
23  27  8
23  28  8
24  29  8
26  30  8
27  32  8
28  33  8
29  31  8
21  3  3
30  31  8
32  34  8
33  34  8
14  9  6

$$$$

