226009
  -OEChem-07051213053D

 52 55  0     1  0  0  0  0  0999 V2000
    0.9666    0.2054    2.2432 Br  0  0  0  0  0  0  0  0  0  0  0  0
    0.1853    2.6065   -0.2564 O   0  0  0  0  0  0  0  0  0  0  0  0
   -5.4913    0.1324   -0.9242 O   0  0  0  0  0  0  0  0  0  0  0  0
    6.0994    0.0932    0.7192 O   0  0  0  0  0  0  0  0  0  0  0  0
   -1.5212   -1.0851    0.3905 C   0  0  2  0  0  0  0  0  0  0  0  0
   -2.3556    0.1394   -0.0484 C   0  0  1  0  0  0  0  0  0  0  0  0
   -0.0992   -1.0476   -0.1803 C   0  0  1  0  0  0  0  0  0  0  0  0
    0.6663    0.2565    0.2363 C   0  0  2  0  0  0  0  0  0  0  0  0
   -3.7098   -0.2421    0.5898 C   0  0  2  0  0  0  0  0  0  0  0  0
    2.0838    0.3471   -0.4829 C   0  0  2  0  0  0  0  0  0  0  0  0
   -2.4191   -2.2671    0.0324 C   0  0  0  0  0  0  0  0  0  0  0  0
   -1.7092    1.3960    0.5324 C   0  0  0  0  0  0  0  0  0  0  0  0
   -3.8383   -1.7574    0.3354 C   0  0  0  0  0  0  0  0  0  0  0  0
    0.7088   -2.3154    0.1299 C   0  0  0  0  0  0  0  0  0  0  0  0
   -0.2441    1.5090    0.1029 C   0  0  0  0  0  0  0  0  0  0  0  0
    2.8453   -0.9742   -0.2533 C   0  0  0  0  0  0  0  0  0  0  0  0
   -2.4856    0.3063   -1.5860 C   0  0  0  0  0  0  0  0  0  0  0  0
    2.0917   -2.2625   -0.5142 C   0  0  0  0  0  0  0  0  0  0  0  0
    2.9336    1.5724   -0.0022 C   0  0  0  0  0  0  0  0  0  0  0  0
    1.9030    0.5126   -2.0191 C   0  0  0  0  0  0  0  0  0  0  0  0
   -4.8832    0.5246    0.0641 C   0  0  0  0  0  0  0  0  0  0  0  0
    4.4196    1.4533   -0.3105 C   0  0  0  0  0  0  0  0  0  0  0  0
    4.1301   -1.0447    0.1332 C   0  0  0  0  0  0  0  0  0  0  0  0
    4.9658    0.1698    0.2510 C   0  0  0  0  0  0  0  0  0  0  0  0
   -5.2428    1.7717    0.8171 C   0  0  0  0  0  0  0  0  0  0  0  0
   -1.4493   -1.0931    1.4879 H   0  0  0  0  0  0  0  0  0  0  0  0
   -0.2147   -1.0401   -1.2695 H   0  0  0  0  0  0  0  0  0  0  0  0
   -3.6701   -0.0960    1.6783 H   0  0  0  0  0  0  0  0  0  0  0  0
   -2.1818   -3.1573    0.6238 H   0  0  0  0  0  0  0  0  0  0  0  0
   -2.3262   -2.5382   -1.0250 H   0  0  0  0  0  0  0  0  0  0  0  0
   -1.7507    1.4053    1.6269 H   0  0  0  0  0  0  0  0  0  0  0  0
   -2.2318    2.2938    0.1842 H   0  0  0  0  0  0  0  0  0  0  0  0
   -4.5088   -2.0205   -0.4892 H   0  0  0  0  0  0  0  0  0  0  0  0
   -4.2354   -2.2498    1.2311 H   0  0  0  0  0  0  0  0  0  0  0  0
    0.1848   -3.1971   -0.2585 H   0  0  0  0  0  0  0  0  0  0  0  0
    0.8027   -2.4752    1.2096 H   0  0  0  0  0  0  0  0  0  0  0  0
   -3.1029    1.1777   -1.8334 H   0  0  0  0  0  0  0  0  0  0  0  0
   -1.5192    0.4749   -2.0708 H   0  0  0  0  0  0  0  0  0  0  0  0
   -2.9418   -0.5645   -2.0667 H   0  0  0  0  0  0  0  0  0  0  0  0
    1.9833   -2.3844   -1.5994 H   0  0  0  0  0  0  0  0  0  0  0  0
    2.6647   -3.1336   -0.1721 H   0  0  0  0  0  0  0  0  0  0  0  0
    2.8478    1.7239    1.0771 H   0  0  0  0  0  0  0  0  0  0  0  0
    2.5731    2.4991   -0.4623 H   0  0  0  0  0  0  0  0  0  0  0  0
    1.3777    1.4416   -2.2636 H   0  0  0  0  0  0  0  0  0  0  0  0
    2.8693    0.5431   -2.5357 H   0  0  0  0  0  0  0  0  0  0  0  0
    1.3405   -0.3050   -2.4777 H   0  0  0  0  0  0  0  0  0  0  0  0
    4.9513    2.2918    0.1534 H   0  0  0  0  0  0  0  0  0  0  0  0
    4.6210    1.4824   -1.3858 H   0  0  0  0  0  0  0  0  0  0  0  0
    4.6261   -1.9937    0.3073 H   0  0  0  0  0  0  0  0  0  0  0  0
   -5.4211    1.5338    1.8687 H   0  0  0  0  0  0  0  0  0  0  0  0
   -4.4486    2.5139    0.7266 H   0  0  0  0  0  0  0  0  0  0  0  0
   -6.1619    2.1929    0.3994 H   0  0  0  0  0  0  0  0  0  0  0  0
  1  8  1  0  0  0  0
  2 15  2  0  0  0  0
  3 21  2  0  0  0  0
  4 24  2  0  0  0  0
  5  6  1  0  0  0  0
  5  7  1  0  0  0  0
  5 11  1  0  0  0  0
  5 26  1  0  0  0  0
  6  9  1  0  0  0  0
  6 12  1  0  0  0  0
  6 17  1  0  0  0  0
  7  8  1  0  0  0  0
  7 14  1  0  0  0  0
  7 27  1  0  0  0  0
  8 10  1  0  0  0  0
  8 15  1  0  0  0  0
  9 13  1  0  0  0  0
  9 21  1  0  0  0  0
  9 28  1  0  0  0  0
 10 16  1  0  0  0  0
 10 19  1  0  0  0  0
 10 20  1  0  0  0  0
 11 13  1  0  0  0  0
 11 29  1  0  0  0  0
 11 30  1  0  0  0  0
 12 15  1  0  0  0  0
 12 31  1  0  0  0  0
 12 32  1  0  0  0  0
 13 33  1  0  0  0  0
 13 34  1  0  0  0  0
 14 18  1  0  0  0  0
 14 35  1  0  0  0  0
 14 36  1  0  0  0  0
 16 18  1  0  0  0  0
 16 23  2  0  0  0  0
 17 37  1  0  0  0  0
 17 38  1  0  0  0  0
 17 39  1  0  0  0  0
 18 40  1  0  0  0  0
 18 41  1  0  0  0  0
 19 22  1  0  0  0  0
 19 42  1  0  0  0  0
 19 43  1  0  0  0  0
 20 44  1  0  0  0  0
 20 45  1  0  0  0  0
 20 46  1  0  0  0  0
 21 25  1  0  0  0  0
 22 24  1  0  0  0  0
 22 47  1  0  0  0  0
 22 48  1  0  0  0  0
 23 24  1  0  0  0  0
 23 49  1  0  0  0  0
 25 50  1  0  0  0  0
 25 51  1  0  0  0  0
 25 52  1  0  0  0  0
M  END
> <PUBCHEM_COMPOUND_CID>
226009

> <PUBCHEM_CONFORMER_RMSD>
0.6

> <PUBCHEM_CONFORMER_DIVERSEORDER>
1
2

> <PUBCHEM_MMFF94_PARTIAL_CHARGES>
17
1 -0.23
10 0.14
12 0.06
15 0.45
16 -0.28
18 0.14
2 -0.57
21 0.45
22 0.06
23 -0.14
24 0.49
25 0.06
3 -0.57
4 -0.57
49 0.15
8 0.29
9 0.06

> <PUBCHEM_EFFECTIVE_ROTOR_COUNT>
2.6

> <PUBCHEM_PHARMACOPHORE_FEATURES>
8
1 1 hydrophobe
1 2 acceptor
1 3 acceptor
1 4 acceptor
5 5 6 9 11 13 rings
6 10 16 19 22 23 24 rings
6 5 6 7 8 12 15 rings
6 7 8 10 14 16 18 rings

> <PUBCHEM_HEAVY_ATOM_COUNT>
25

> <PUBCHEM_ATOM_DEF_STEREO_COUNT>
6

> <PUBCHEM_ATOM_UDEF_STEREO_COUNT>
0

> <PUBCHEM_BOND_DEF_STEREO_COUNT>
0

> <PUBCHEM_BOND_UDEF_STEREO_COUNT>
0

> <PUBCHEM_ISOTOPIC_ATOM_COUNT>
0

> <PUBCHEM_COMPONENT_COUNT>
1

> <PUBCHEM_CACTVS_TAUTO_COUNT>
30

> <PUBCHEM_CONFORMER_ID>
000372D900000001

> <PUBCHEM_MMFF94_ENERGY>
85.8879

> <PUBCHEM_FEATURE_SELFOVERLAP>
40.686

> <PUBCHEM_SHAPE_FINGERPRINT>
10062212 137 18342177713426674811
10366900 7 17603305942716253723
10863032 1 18410289177311929710
10906281 52 18270099276244554372
10967382 1 18410570712518480766
11370993 70 18411136939468846830
11578080 2 5110633890186673017
12236239 1 17846500309888699880
12403814 3 17775286054254398567
12592029 89 18272652368167236786
12788726 201 17168980252578800497
13140716 1 18339078177252302224
13224815 77 18335415755491293886
13583140 156 17313389985322472735
14790565 3 18410285943413046217
15196674 1 18411134701780134682
15375358 24 18260823795946881911
15788980 27 16917067746124762117
1601671 61 18408603668936222297
16945 1 18267583700998658486
17349148 13 18060416898495270276
17980427 23 17845369947516307036
1813 80 17275098457829385958
18608769 82 18337669721129195515
19784866 9 18410011048273121922
200 152 18040720264216976175
20511986 3 18337968834322890771
20715895 44 18271528722954765501
21267235 1 18411127022384092098
21421861 104 18058171807199358850
23402539 116 18335425638406071590
23557571 272 18261946354316706462
23559900 14 18335417989549586030
26918003 58 18412827975583125704
296302 2 17240199928403657014
335352 9 18411135857078696022
34797466 226 15864351298656368720
34934 24 18409450306027965915
350125 39 18411418398072816268
3680242 22 18270398411947503706
4340502 62 18410285926369891771
474 4 17703500017596729918
5104073 3 18342737377629498994
9709674 26 18263073465246110190

> <PUBCHEM_SHAPE_MULTIPOLES>
502.82
10.57
2.28
1.29
0.93
0.44
0.09
-2
0.49
0.34
0.01
-0.14
-0.22
-0.17

> <PUBCHEM_SHAPE_SELFOVERLAP>
1068.397

> <PUBCHEM_SHAPE_VOLUME>
286.2

> <PUBCHEM_COORDINATE_TYPE>
2
5
10

$$$$

