162135
  -OEChem-07051213023D

 66 68  0     1  0  0  0  0  0999 V2000
   -1.8690    2.0331   -0.2595 O   0  0  0  0  0  0  0  0  0  0  0  0
   -1.1731   -3.4188    0.3415 O   0  0  0  0  0  0  0  0  0  0  0  0
   -3.9592    1.0151   -0.5010 O   0  0  0  0  0  0  0  0  0  0  0  0
   -4.2517   -3.5030   -0.0263 O   0  0  0  0  0  0  0  0  0  0  0  0
    2.2686   -0.0158   -0.1015 O   0  0  0  0  0  0  0  0  0  0  0  0
    4.2936    1.1402   -0.1836 O   0  0  0  0  0  0  0  0  0  0  0  0
    3.6931   -2.4526    0.1002 O   0  0  0  0  0  0  0  0  0  0  0  0
    6.3544   -2.2776   -1.1518 O   0  0  0  0  0  0  0  0  0  0  0  0
    7.7849    0.0342   -0.1697 O   0  0  0  0  0  0  0  0  0  0  0  0
   -4.5966    2.6153    1.0329 O   0  0  0  0  0  0  0  0  0  0  0  0
    5.4866    3.5295    0.4679 O   0  0  0  0  0  0  0  0  0  0  0  0
   -2.0543   -0.4284   -0.2654 C   0  0  1  0  0  0  0  0  0  0  0  0
   -0.6093   -0.5475    0.2601 C   0  0  2  0  0  0  0  0  0  0  0  0
   -2.8301   -1.6216    0.3593 C   0  0  2  0  0  0  0  0  0  0  0  0
   -1.7828   -2.4210    1.1522 C   0  0  2  0  0  0  0  0  0  0  0  0
   -0.7474   -1.3710    1.5433 C   0  0  0  0  0  0  0  0  0  0  0  0
   -2.6816    0.9202    0.1272 C   0  0  1  0  0  0  0  0  0  0  0  0
    0.0820    0.7771    0.4151 C   0  0  0  0  0  0  0  0  0  0  0  0
   -3.5877   -2.4371   -0.6817 C   0  0  0  0  0  0  0  0  0  0  0  0
   -0.5581    1.9176    0.1175 C   0  0  0  0  0  0  0  0  0  0  0  0
    1.5258    0.7617    0.8180 C   0  0  0  0  0  0  0  0  0  0  0  0
    3.6535   -0.0610    0.2406 C   0  0  2  0  0  0  0  0  0  0  0  0
    4.2713   -1.2726   -0.4572 C   0  0  1  0  0  0  0  0  0  0  0  0
    5.7876   -1.3114   -0.2656 C   0  0  2  0  0  0  0  0  0  0  0  0
    6.4196    0.0451   -0.5782 C   0  0  1  0  0  0  0  0  0  0  0  0
    5.6818    1.1694    0.1525 C   0  0  1  0  0  0  0  0  0  0  0  0
   -4.8260    1.9096    0.0602 C   0  0  0  0  0  0  0  0  0  0  0  0
   -6.1388    1.8625   -0.6922 C   0  0  0  0  0  0  0  0  0  0  0  0
    6.2200    2.5432   -0.2350 C   0  0  0  0  0  0  0  0  0  0  0  0
   -6.7592    0.4574   -0.7369 C   0  0  0  0  0  0  0  0  0  0  0  0
   -8.0530    0.4816   -1.5530 C   0  0  0  0  0  0  0  0  0  0  0  0
   -7.0449   -0.0734    0.6702 C   0  0  0  0  0  0  0  0  0  0  0  0
   -2.0415   -0.5019   -1.3615 H   0  0  0  0  0  0  0  0  0  0  0  0
   -0.0458   -1.1428   -0.4727 H   0  0  0  0  0  0  0  0  0  0  0  0
   -3.5568   -1.2431    1.0918 H   0  0  0  0  0  0  0  0  0  0  0  0
   -2.2220   -2.9124    2.0261 H   0  0  0  0  0  0  0  0  0  0  0  0
   -1.1156   -0.7536    2.3715 H   0  0  0  0  0  0  0  0  0  0  0  0
    0.2089   -1.8184    1.8336 H   0  0  0  0  0  0  0  0  0  0  0  0
   -2.8082    0.9546    1.2196 H   0  0  0  0  0  0  0  0  0  0  0  0
   -4.3361   -1.8189   -1.1852 H   0  0  0  0  0  0  0  0  0  0  0  0
   -2.9186   -2.8507   -1.4434 H   0  0  0  0  0  0  0  0  0  0  0  0
   -0.0831    2.8894    0.1125 H   0  0  0  0  0  0  0  0  0  0  0  0
    1.6118    0.3361    1.8251 H   0  0  0  0  0  0  0  0  0  0  0  0
    1.9326    1.7799    0.8499 H   0  0  0  0  0  0  0  0  0  0  0  0
   -0.4884   -3.8528    0.8785 H   0  0  0  0  0  0  0  0  0  0  0  0
    3.7518   -0.1701    1.3299 H   0  0  0  0  0  0  0  0  0  0  0  0
   -4.7357   -4.0008   -0.7071 H   0  0  0  0  0  0  0  0  0  0  0  0
    4.0189   -1.2706   -1.5241 H   0  0  0  0  0  0  0  0  0  0  0  0
    6.0461   -1.6386    0.7483 H   0  0  0  0  0  0  0  0  0  0  0  0
    6.4038    0.2181   -1.6612 H   0  0  0  0  0  0  0  0  0  0  0  0
    5.7790    1.0623    1.2415 H   0  0  0  0  0  0  0  0  0  0  0  0
   -5.9565    2.2429   -1.7043 H   0  0  0  0  0  0  0  0  0  0  0  0
   -6.8269    2.5654   -0.2066 H   0  0  0  0  0  0  0  0  0  0  0  0
    7.2794    2.6458    0.0186 H   0  0  0  0  0  0  0  0  0  0  0  0
    6.0844    2.7273   -1.3060 H   0  0  0  0  0  0  0  0  0  0  0  0
   -6.0665   -0.2337   -1.2298 H   0  0  0  0  0  0  0  0  0  0  0  0
    3.9030   -2.4721    1.0495 H   0  0  0  0  0  0  0  0  0  0  0  0
    6.1264   -2.0236   -2.0624 H   0  0  0  0  0  0  0  0  0  0  0  0
    7.8096   -0.1052    0.7924 H   0  0  0  0  0  0  0  0  0  0  0  0
   -8.7966    1.1475   -1.1018 H   0  0  0  0  0  0  0  0  0  0  0  0
   -7.8612    0.8293   -2.5736 H   0  0  0  0  0  0  0  0  0  0  0  0
   -8.4906   -0.5202   -1.6185 H   0  0  0  0  0  0  0  0  0  0  0  0
   -7.7165    0.5956    1.2188 H   0  0  0  0  0  0  0  0  0  0  0  0
   -7.5168   -1.0607    0.6225 H   0  0  0  0  0  0  0  0  0  0  0  0
   -6.1229   -0.1806    1.2504 H   0  0  0  0  0  0  0  0  0  0  0  0
    5.8425    4.3948    0.2035 H   0  0  0  0  0  0  0  0  0  0  0  0
  1 17  1  0  0  0  0
  1 20  1  0  0  0  0
  2 15  1  0  0  0  0
  2 45  1  0  0  0  0
  3 17  1  0  0  0  0
  3 27  1  0  0  0  0
  4 19  1  0  0  0  0
  4 47  1  0  0  0  0
  5 21  1  0  0  0  0
  5 22  1  0  0  0  0
  6 22  1  0  0  0  0
  6 26  1  0  0  0  0
  7 23  1  0  0  0  0
  7 57  1  0  0  0  0
  8 24  1  0  0  0  0
  8 58  1  0  0  0  0
  9 25  1  0  0  0  0
  9 59  1  0  0  0  0
 10 27  2  0  0  0  0
 11 29  1  0  0  0  0
 11 66  1  0  0  0  0
 12 13  1  0  0  0  0
 12 14  1  0  0  0  0
 12 17  1  0  0  0  0
 12 33  1  0  0  0  0
 13 16  1  0  0  0  0
 13 18  1  0  0  0  0
 13 34  1  0  0  0  0
 14 15  1  0  0  0  0
 14 19  1  0  0  0  0
 14 35  1  0  0  0  0
 15 16  1  0  0  0  0
 15 36  1  0  0  0  0
 16 37  1  0  0  0  0
 16 38  1  0  0  0  0
 17 39  1  0  0  0  0
 18 20  2  0  0  0  0
 18 21  1  0  0  0  0
 19 40  1  0  0  0  0
 19 41  1  0  0  0  0
 20 42  1  0  0  0  0
 21 43  1  0  0  0  0
 21 44  1  0  0  0  0
 22 23  1  0  0  0  0
 22 46  1  0  0  0  0
 23 24  1  0  0  0  0
 23 48  1  0  0  0  0
 24 25  1  0  0  0  0
 24 49  1  0  0  0  0
 25 26  1  0  0  0  0
 25 50  1  0  0  0  0
 26 29  1  0  0  0  0
 26 51  1  0  0  0  0
 27 28  1  0  0  0  0
 28 30  1  0  0  0  0
 28 52  1  0  0  0  0
 28 53  1  0  0  0  0
 29 54  1  0  0  0  0
 29 55  1  0  0  0  0
 30 31  1  0  0  0  0
 30 32  1  0  0  0  0
 30 56  1  0  0  0  0
 31 60  1  0  0  0  0
 31 61  1  0  0  0  0
 31 62  1  0  0  0  0
 32 63  1  0  0  0  0
 32 64  1  0  0  0  0
 32 65  1  0  0  0  0
M  END
> <PUBCHEM_COMPOUND_CID>
162135

> <PUBCHEM_CONFORMER_RMSD>
1

> <PUBCHEM_CONFORMER_DIVERSEORDER>
2
56
35
9
16
15
76
73
14
61
50
81
42
39
23
74
41
57
6
12
21
79
31
68
64
65
20
75
63
29
59
78
58
45
44
4
17
51
36
62
24
28
5
80
8
71
67
66
77
34
10
22
46
18
43
3
47
54
7
69
55
32
30
72
37
13
60
19
52
38
11
48
53
27
70
33
40
26
49
1
25

> <PUBCHEM_MMFF94_PARTIAL_CHARGES>
33
1 -0.36
10 -0.57
11 -0.68
13 0.14
15 0.28
17 0.56
18 -0.28
19 0.28
2 -0.68
20 -0.07
21 0.42
22 0.56
23 0.28
24 0.28
25 0.28
26 0.28
27 0.66
28 0.06
29 0.28
3 -0.43
4 -0.68
42 0.15
45 0.4
47 0.4
5 -0.56
57 0.4
58 0.4
59 0.4
6 -0.56
66 0.4
7 -0.68
8 -0.68
9 -0.68

> <PUBCHEM_EFFECTIVE_ROTOR_COUNT>
11.2

> <PUBCHEM_PHARMACOPHORE_FEATURES>
20
1 1 acceptor
1 10 acceptor
1 11 acceptor
1 11 donor
1 2 acceptor
1 2 donor
1 4 acceptor
1 4 donor
1 5 acceptor
1 6 acceptor
1 7 acceptor
1 7 donor
1 8 acceptor
1 8 donor
1 9 acceptor
1 9 donor
3 30 31 32 hydrophobe
5 12 13 14 15 16 rings
6 1 12 13 17 18 20 rings
6 6 22 23 24 25 26 rings

> <PUBCHEM_HEAVY_ATOM_COUNT>
32

> <PUBCHEM_ATOM_DEF_STEREO_COUNT>
10

> <PUBCHEM_ATOM_UDEF_STEREO_COUNT>
0

> <PUBCHEM_BOND_DEF_STEREO_COUNT>
0

> <PUBCHEM_BOND_UDEF_STEREO_COUNT>
0

> <PUBCHEM_ISOTOPIC_ATOM_COUNT>
0

> <PUBCHEM_COMPONENT_COUNT>
1

> <PUBCHEM_CACTVS_TAUTO_COUNT>
1

> <PUBCHEM_CONFORMER_ID>
0002795700000002

> <PUBCHEM_MMFF94_ENERGY>
78.6738

> <PUBCHEM_FEATURE_SELFOVERLAP>
101.65

> <PUBCHEM_SHAPE_FINGERPRINT>
10835480 77 18337111173032098536
11007060 377 18411416228934971329
11578080 2 16879655682068915395
12788726 201 17531806999259136784
14790565 3 18122341547890736985
15064986 266 18200020751491852186
15131766 46 14474955586686611382
15183329 4 18334580170073420463
15849732 13 17775283872405861061
18608769 82 18341046325290230019
21236236 1 18410854335363941907
21521721 280 18410570708761571153
23198884 109 18261392273776660969
23559900 14 18408889534129288224
23576562 1 17988648433493537189
244849 19 17460051603483402251
249057 3 18343862212954527644
27425 322 17275095090865013322
3004659 81 18340768230309862480
354706 109 18337125462509345674
3633792 109 18340491157564627061
4073 2 18272366426645830818
4098825 35 18409166580219172066
5104073 3 18342457024414803552
6036956 94 17624125002220620372

> <PUBCHEM_SHAPE_MULTIPOLES>
593.98
21.37
3.52
1
6.69
1.01
-0.03
-6.7
6.58
0.06
-0.3
-0.85
0.16
1.06

> <PUBCHEM_SHAPE_SELFOVERLAP>
1225.18

> <PUBCHEM_SHAPE_VOLUME>
334.8

> <PUBCHEM_COORDINATE_TYPE>
2
5
10

$$$$

