5281582
  -OEChem-07051212583D

 96100  0     1  0  0  0  0  0999 V2000
   -0.0836    3.4373    2.4817 O   0  0  0  0  0  0  0  0  0  0  0  0
   -1.0416   -0.9580    0.0980 O   0  0  0  0  0  0  0  0  0  0  0  0
    2.1322   -0.2851    2.3010 O   0  0  0  0  0  0  0  0  0  0  0  0
   -4.3626    0.8970    0.5325 O   0  0  0  0  0  0  0  0  0  0  0  0
    3.9377   -0.8105   -2.6874 O   0  0  0  0  0  0  0  0  0  0  0  0
   -0.8159    0.2670    2.0528 N   0  0  0  0  0  0  0  0  0  0  0  0
   -3.6272   -1.3032    0.5689 N   0  0  0  0  0  0  0  0  0  0  0  0
    1.9002    0.1542    0.0275 N   0  0  0  0  0  0  0  0  0  0  0  0
   -6.5852   -0.4107   -0.8368 N   0  0  0  0  0  0  0  0  0  0  0  0
    3.6656    1.3704   -2.1230 N   0  0  0  0  0  0  0  0  0  0  0  0
    0.2835    1.1137    1.5950 C   0  0  1  0  0  0  0  0  0  0  0  0
    0.5120    2.1402    2.7432 C   0  0  2  0  0  0  0  0  0  0  0  0
   -0.1785    1.5084    3.9549 C   0  0  0  0  0  0  0  0  0  0  0  0
   -1.3035    0.6855    3.3595 C   0  0  0  0  0  0  0  0  0  0  0  0
   -2.7744   -1.1699    1.7141 C   0  0  2  0  0  0  0  0  0  0  0  0
   -1.4694   -0.6146    1.2014 C   0  0  0  0  0  0  0  0  0  0  0  0
   -2.5630   -2.4729    2.5045 C   0  0  2  0  0  0  0  0  0  0  0  0
    1.5382    0.2596    1.3719 C   0  0  0  0  0  0  0  0  0  0  0  0
   -1.8847   -3.5800    1.6668 C   0  0  0  0  0  0  0  0  0  0  0  0
   -3.9042   -2.9460    3.0808 C   0  0  0  0  0  0  0  0  0  0  0  0
    3.1598   -0.4530   -0.4169 C   0  0  1  0  0  0  0  0  0  0  0  0
    0.6510    4.0998    1.5211 C   0  0  0  0  0  0  0  0  0  0  0  0
   -4.3668   -0.2389    0.0604 C   0  0  0  0  0  0  0  0  0  0  0  0
   -5.1767   -0.6157   -1.1764 C   0  0  2  0  0  0  0  0  0  0  0  0
   -1.5861   -4.8458    2.4606 C   0  0  0  0  0  0  0  0  0  0  0  0
    3.0512   -1.9770   -0.3579 C   0  0  0  0  0  0  0  0  0  0  0  0
   -4.7921    0.2712   -2.3695 C   0  0  0  0  0  0  0  0  0  0  0  0
    3.5833    0.0140   -1.8363 C   0  0  0  0  0  0  0  0  0  0  0  0
    1.9859    4.4477    1.7454 C   0  0  0  0  0  0  0  0  0  0  0  0
    0.0811    4.2167    0.2552 C   0  0  0  0  0  0  0  0  0  0  0  0
    4.4049   -2.6238   -0.2644 C   0  0  0  0  0  0  0  0  0  0  0  0
    2.8324    4.6012    0.6527 C   0  0  0  0  0  0  0  0  0  0  0  0
    0.9261    4.3556   -0.8383 C   0  0  0  0  0  0  0  0  0  0  0  0
    2.3163    4.3891   -0.6333 C   0  0  0  0  0  0  0  0  0  0  0  0
   -3.3493    0.1022   -2.7843 C   0  0  0  0  0  0  0  0  0  0  0  0
   -7.4352   -0.6935   -1.9924 C   0  0  0  0  0  0  0  0  0  0  0  0
   -6.9648   -1.2531    0.2963 C   0  0  0  0  0  0  0  0  0  0  0  0
    3.1238    3.6682   -1.6367 C   0  0  0  0  0  0  0  0  0  0  0  0
    5.0923   -2.9744   -1.4265 C   0  0  0  0  0  0  0  0  0  0  0  0
    4.9741   -2.8732    0.9846 C   0  0  0  0  0  0  0  0  0  0  0  0
    3.3694    2.3972   -1.2742 C   0  0  0  0  0  0  0  0  0  0  0  0
   -2.3614    0.9063   -2.2156 C   0  0  0  0  0  0  0  0  0  0  0  0
   -3.0048   -0.8583   -3.7354 C   0  0  0  0  0  0  0  0  0  0  0  0
    6.3485   -3.5744   -1.3398 C   0  0  0  0  0  0  0  0  0  0  0  0
    6.2304   -3.4731    1.0711 C   0  0  0  0  0  0  0  0  0  0  0  0
   -1.0292    0.7503   -2.5983 C   0  0  0  0  0  0  0  0  0  0  0  0
   -1.6724   -1.0144   -4.1179 C   0  0  0  0  0  0  0  0  0  0  0  0
    6.9175   -3.8236   -0.0911 C   0  0  0  0  0  0  0  0  0  0  0  0
   -0.6847   -0.2100   -3.5493 C   0  0  0  0  0  0  0  0  0  0  0  0
   -0.0285    1.5770    0.6563 H   0  0  0  0  0  0  0  0  0  0  0  0
    1.5733    2.2638    2.9917 H   0  0  0  0  0  0  0  0  0  0  0  0
   -0.5478    2.2405    4.6790 H   0  0  0  0  0  0  0  0  0  0  0  0
    0.5230    0.8371    4.4650 H   0  0  0  0  0  0  0  0  0  0  0  0
   -1.5692   -0.1661    3.9886 H   0  0  0  0  0  0  0  0  0  0  0  0
   -2.1908    1.3098    3.2049 H   0  0  0  0  0  0  0  0  0  0  0  0
   -3.2632   -0.4401    2.3664 H   0  0  0  0  0  0  0  0  0  0  0  0
   -1.9000   -2.2616    3.3525 H   0  0  0  0  0  0  0  0  0  0  0  0
   -2.5039   -3.8515    0.8048 H   0  0  0  0  0  0  0  0  0  0  0  0
   -0.9295   -3.2165    1.2732 H   0  0  0  0  0  0  0  0  0  0  0  0
   -3.6402   -2.1894    0.0745 H   0  0  0  0  0  0  0  0  0  0  0  0
    1.2960    0.5580   -0.6811 H   0  0  0  0  0  0  0  0  0  0  0  0
   -4.5754   -3.3081    2.2948 H   0  0  0  0  0  0  0  0  0  0  0  0
   -3.7614   -3.7556    3.8031 H   0  0  0  0  0  0  0  0  0  0  0  0
   -4.4099   -2.1319    3.6114 H   0  0  0  0  0  0  0  0  0  0  0  0
    3.9361   -0.1079    0.2794 H   0  0  0  0  0  0  0  0  0  0  0  0
   -4.9931   -1.6666   -1.4395 H   0  0  0  0  0  0  0  0  0  0  0  0
   -1.0001   -5.5405    1.8499 H   0  0  0  0  0  0  0  0  0  0  0  0
   -2.5039   -5.3631    2.7546 H   0  0  0  0  0  0  0  0  0  0  0  0
   -1.0084   -4.6184    3.3619 H   0  0  0  0  0  0  0  0  0  0  0  0
    2.4596   -2.2959    0.5105 H   0  0  0  0  0  0  0  0  0  0  0  0
    2.5027   -2.3704   -1.2244 H   0  0  0  0  0  0  0  0  0  0  0  0
   -4.9741    1.3312   -2.1438 H   0  0  0  0  0  0  0  0  0  0  0  0
   -5.3898    0.0497   -3.2608 H   0  0  0  0  0  0  0  0  0  0  0  0
    2.4080    4.4237    2.7462 H   0  0  0  0  0  0  0  0  0  0  0  0
   -0.9707    3.9962    0.0953 H   0  0  0  0  0  0  0  0  0  0  0  0
    3.9052    4.6532    0.8232 H   0  0  0  0  0  0  0  0  0  0  0  0
    0.5128    4.2145   -1.8351 H   0  0  0  0  0  0  0  0  0  0  0  0
    3.8933    1.6212   -3.0817 H   0  0  0  0  0  0  0  0  0  0  0  0
   -7.2043   -1.6572   -2.4609 H   0  0  0  0  0  0  0  0  0  0  0  0
   -8.4907   -0.7190   -1.6940 H   0  0  0  0  0  0  0  0  0  0  0  0
   -7.3842    0.1010   -2.7431 H   0  0  0  0  0  0  0  0  0  0  0  0
   -6.4569   -0.9634    1.2220 H   0  0  0  0  0  0  0  0  0  0  0  0
   -6.7720   -2.3157    0.1069 H   0  0  0  0  0  0  0  0  0  0  0  0
   -8.0344   -1.1418    0.5121 H   0  0  0  0  0  0  0  0  0  0  0  0
    3.1892    4.0375   -2.6516 H   0  0  0  0  0  0  0  0  0  0  0  0
    4.6478   -2.8877   -2.4107 H   0  0  0  0  0  0  0  0  0  0  0  0
    4.4497   -2.6027    1.8972 H   0  0  0  0  0  0  0  0  0  0  0  0
    3.2179    2.1039   -0.2440 H   0  0  0  0  0  0  0  0  0  0  0  0
   -2.6127    1.6662   -1.4810 H   0  0  0  0  0  0  0  0  0  0  0  0
   -3.7645   -1.4931   -4.1834 H   0  0  0  0  0  0  0  0  0  0  0  0
    6.8744   -3.8677   -2.2437 H   0  0  0  0  0  0  0  0  0  0  0  0
    6.6734   -3.6679    2.0434 H   0  0  0  0  0  0  0  0  0  0  0  0
   -0.2622    1.3824   -2.1615 H   0  0  0  0  0  0  0  0  0  0  0  0
   -1.4037   -1.7627   -4.8577 H   0  0  0  0  0  0  0  0  0  0  0  0
    7.8935   -4.2953   -0.0235 H   0  0  0  0  0  0  0  0  0  0  0  0
    0.3530   -0.3308   -3.8467 H   0  0  0  0  0  0  0  0  0  0  0  0
  1 12  1  0  0  0  0
  1 22  1  0  0  0  0
  2 16  2  0  0  0  0
  3 18  2  0  0  0  0
  4 23  2  0  0  0  0
  5 28  2  0  0  0  0
  6 11  1  0  0  0  0
  6 14  1  0  0  0  0
  6 16  1  0  0  0  0
  7 15  1  0  0  0  0
  7 23  1  0  0  0  0
  7 60  1  0  0  0  0
  8 18  1  0  0  0  0
  8 21  1  0  0  0  0
  8 61  1  0  0  0  0
  9 24  1  0  0  0  0
  9 36  1  0  0  0  0
  9 37  1  0  0  0  0
 10 28  1  0  0  0  0
 10 41  1  0  0  0  0
 10 78  1  0  0  0  0
 11 12  1  0  0  0  0
 11 18  1  0  0  0  0
 11 50  1  0  0  0  0
 12 13  1  0  0  0  0
 12 51  1  0  0  0  0
 13 14  1  0  0  0  0
 13 52  1  0  0  0  0
 13 53  1  0  0  0  0
 14 54  1  0  0  0  0
 14 55  1  0  0  0  0
 15 16  1  0  0  0  0
 15 17  1  0  0  0  0
 15 56  1  0  0  0  0
 17 19  1  0  0  0  0
 17 20  1  0  0  0  0
 17 57  1  0  0  0  0
 19 25  1  0  0  0  0
 19 58  1  0  0  0  0
 19 59  1  0  0  0  0
 20 62  1  0  0  0  0
 20 63  1  0  0  0  0
 20 64  1  0  0  0  0
 21 26  1  0  0  0  0
 21 28  1  0  0  0  0
 21 65  1  0  0  0  0
 22 29  2  0  0  0  0
 22 30  1  0  0  0  0
 23 24  1  0  0  0  0
 24 27  1  0  0  0  0
 24 66  1  0  0  0  0
 25 67  1  0  0  0  0
 25 68  1  0  0  0  0
 25 69  1  0  0  0  0
 26 31  1  0  0  0  0
 26 70  1  0  0  0  0
 26 71  1  0  0  0  0
 27 35  1  0  0  0  0
 27 72  1  0  0  0  0
 27 73  1  0  0  0  0
 29 32  1  0  0  0  0
 29 74  1  0  0  0  0
 30 33  2  0  0  0  0
 30 75  1  0  0  0  0
 31 39  2  0  0  0  0
 31 40  1  0  0  0  0
 32 34  2  0  0  0  0
 32 76  1  0  0  0  0
 33 34  1  0  0  0  0
 33 77  1  0  0  0  0
 34 38  1  0  0  0  0
 35 42  2  0  0  0  0
 35 43  1  0  0  0  0
 36 79  1  0  0  0  0
 36 80  1  0  0  0  0
 36 81  1  0  0  0  0
 37 82  1  0  0  0  0
 37 83  1  0  0  0  0
 37 84  1  0  0  0  0
 38 41  2  0  0  0  0
 38 85  1  0  0  0  0
 39 44  1  0  0  0  0
 39 86  1  0  0  0  0
 40 45  2  0  0  0  0
 40 87  1  0  0  0  0
 41 88  1  0  0  0  0
 42 46  1  0  0  0  0
 42 89  1  0  0  0  0
 43 47  2  0  0  0  0
 43 90  1  0  0  0  0
 44 48  2  0  0  0  0
 44 91  1  0  0  0  0
 45 48  1  0  0  0  0
 45 92  1  0  0  0  0
 46 49  2  0  0  0  0
 46 93  1  0  0  0  0
 47 49  1  0  0  0  0
 47 94  1  0  0  0  0
 48 95  1  0  0  0  0
 49 96  1  0  0  0  0
M  END
> <PUBCHEM_COMPOUND_CID>
5281582

> <PUBCHEM_CONFORMER_RMSD>
1.4

> <PUBCHEM_CONFORMER_DIVERSEORDER>
1
24
41
47
16
45
25
30
39
36
33
37
17
22
58
56
18
38
46
12
31
13
5
35
2
29
53
11
51
15
10
23
40
43
52
44
32
19
57
28
14
55
54
7
50
26
34
9
21
49
6
27
20
48
8
42
3
4

> <PUBCHEM_MMFF94_PARTIAL_CHARGES>
63
1 -0.36
10 -0.54
11 0.36
12 0.28
14 0.3
15 0.36
16 0.57
18 0.57
2 -0.57
21 0.36
22 0.08
23 0.57
24 0.33
26 0.14
27 0.14
28 0.57
29 -0.15
3 -0.57
30 -0.15
31 -0.14
32 -0.15
33 -0.15
34 0.03
35 -0.14
36 0.27
37 0.27
38 -0.18
39 -0.15
4 -0.57
40 -0.15
41 -0.04
42 -0.15
43 -0.15
44 -0.15
45 -0.15
46 -0.15
47 -0.15
48 -0.15
49 -0.15
5 -0.57
6 -0.66
60 0.37
61 0.37
7 -0.73
74 0.15
75 0.15
76 0.15
77 0.15
78 0.37
8 -0.73
85 0.15
86 0.15
87 0.15
88 0.15
89 0.15
9 -0.81
90 0.15
91 0.15
92 0.15
93 0.15
94 0.15
95 0.15
96 0.15

> <PUBCHEM_EFFECTIVE_ROTOR_COUNT>
13.4

> <PUBCHEM_PHARMACOPHORE_FEATURES>
15
1 1 acceptor
1 10 donor
1 2 acceptor
1 20 hydrophobe
1 25 hydrophobe
1 3 acceptor
1 4 acceptor
1 5 acceptor
1 7 donor
1 8 donor
1 9 cation
5 6 11 12 13 14 rings
6 22 29 30 32 33 34 rings
6 31 39 40 44 45 48 rings
6 35 42 43 46 47 49 rings

> <PUBCHEM_HEAVY_ATOM_COUNT>
49

> <PUBCHEM_ATOM_DEF_STEREO_COUNT>
6

> <PUBCHEM_ATOM_UDEF_STEREO_COUNT>
0

> <PUBCHEM_BOND_DEF_STEREO_COUNT>
1

> <PUBCHEM_BOND_UDEF_STEREO_COUNT>
0

> <PUBCHEM_ISOTOPIC_ATOM_COUNT>
0

> <PUBCHEM_COMPONENT_COUNT>
1

> <PUBCHEM_CACTVS_TAUTO_COUNT>
8

> <PUBCHEM_CONFORMER_ID>
0050972E00000001

> <PUBCHEM_MMFF94_ENERGY>
188.8526

> <PUBCHEM_FEATURE_SELFOVERLAP>
76.117

> <PUBCHEM_SHAPE_FINGERPRINT>
10985338 15 17845109385088560307
11285246 1 18123483923128141764
11578080 2 18055065459381018105
12633046 712 18341037541401510363
13383668 262 17393067049023050383
13636023 51 18200866262800829550
14017578 170 16826728885822495146
14068700 675 18264490753430939354
15200665 1 10950891180149809928
15297060 5 17417255493411830935
19319366 153 17537980495250791488
20775438 99 18122925143730643271
24941158 1 18268161863736967596
3882209 13 18337388344466987232

> <PUBCHEM_SHAPE_MULTIPOLES>
954.15
13.51
6.66
4.56
3.27
3.95
0.7
-16.07
7.09
-10.08
-3.64
3.59
-0.26
2.11

> <PUBCHEM_SHAPE_SELFOVERLAP>
2030.596

> <PUBCHEM_SHAPE_VOLUME>
526.4

> <PUBCHEM_COORDINATE_TYPE>
2
5
10

$$$$

