442039
  -OEChem-07051212562D

 57 60  0     1  0  0  0  0  0999 V2000
    3.0000    3.1744    0.0000 S   0  0  0  0  0  0  0  0  0  0  0  0
    8.3592   -2.4168    0.0000 O   0  0  0  0  0  0  0  0  0  0  0  0
    5.0244   -0.8121    0.0000 O   0  0  0  0  0  0  0  0  0  0  0  0
    8.3406   -4.1744    0.0000 O   0  0  0  0  0  0  0  0  0  0  0  0
    4.0000    3.1705    0.0000 O   0  0  0  0  0  0  0  0  0  0  0  0
    2.0000    3.1782    0.0000 O   0  5  0  0  0  0  0  0  0  0  0  0
    3.0038    4.1744    0.0000 O   0  0  0  0  0  0  0  0  0  0  0  0
    2.9961    2.1744    0.0000 O   0  0  0  0  0  0  0  0  0  0  0  0
    6.0092   -1.6385    0.0000 C   0  0  1  0  0  0  0  0  0  0  0  0
    6.8753   -2.1385    0.0000 C   0  0  2  0  0  0  0  0  0  0  0  0
    6.0092   -0.6385    0.0000 C   0  0  1  0  0  0  0  0  0  0  0  0
    6.8913   -3.1800    0.0000 C   0  0  2  0  0  0  0  0  0  0  0  0
    7.7413   -1.6385    0.0000 C   0  0  1  0  0  0  0  0  0  0  0  0
    5.0992   -2.1453    0.0000 C   0  0  0  0  0  0  0  0  0  0  0  0
    6.8753   -0.1385    0.0000 C   0  0  0  0  0  0  0  0  0  0  0  0
    5.9933   -3.7077    0.0000 C   0  0  0  0  0  0  0  0  0  0  0  0
    5.0992   -0.1316    0.0000 C   0  0  0  0  0  0  0  0  0  0  0  0
    5.0912   -3.1869    0.0000 C   0  0  0  0  0  0  0  0  0  0  0  0
    5.0244   -1.4648    0.0000 C   0  0  0  0  0  0  0  0  0  0  0  0
    5.9933    1.4308    0.0000 C   0  0  2  0  0  0  0  0  0  0  0  0
    7.7413   -0.6385    0.0000 C   0  0  0  0  0  0  0  0  0  0  0  0
    6.8913    0.9030    0.0000 C   0  0  0  0  0  0  0  0  0  0  0  0
    5.0912    0.9100    0.0000 C   0  0  0  0  0  0  0  0  0  0  0  0
    7.8794   -3.2871    0.0000 C   0  0  0  0  0  0  0  0  0  0  0  0
    7.4013   -4.0402    0.0000 C   0  0  0  0  0  0  0  0  0  0  0  0
    5.4966    2.2987    0.0000 C   0  0  0  0  0  0  0  0  0  0  0  0
    6.4966    2.2949    0.0000 C   0  0  0  0  0  0  0  0  0  0  0  0
    4.4966    2.3026    0.0000 C   0  0  0  0  0  0  0  0  0  0  0  0
    6.1392   -2.5635    0.0000 H   0  0  0  0  0  0  0  0  0  0  0  0
    8.5439   -1.3586    0.0000 H   0  0  0  0  0  0  0  0  0  0  0  0
    4.8947   -1.5600    0.0000 H   0  0  0  0  0  0  0  0  0  0  0  0
    4.4876   -2.2467    0.0000 H   0  0  0  0  0  0  0  0  0  0  0  0
    5.5960   -4.1837    0.0000 H   0  0  0  0  0  0  0  0  0  0  0  0
    6.3943   -4.1806    0.0000 H   0  0  0  0  0  0  0  0  0  0  0  0
    4.4876   -0.0302    0.0000 H   0  0  0  0  0  0  0  0  0  0  0  0
    4.8947   -0.7169    0.0000 H   0  0  0  0  0  0  0  0  0  0  0  0
    4.4812   -3.0761    0.0000 H   0  0  0  0  0  0  0  0  0  0  0  0
    4.8777   -3.7690    0.0000 H   0  0  0  0  0  0  0  0  0  0  0  0
    5.1321   -0.8542    0.0000 H   0  0  0  0  0  0  0  0  0  0  0  0
    4.4139   -1.3572    0.0000 H   0  0  0  0  0  0  0  0  0  0  0  0
    4.9168   -2.0754    0.0000 H   0  0  0  0  0  0  0  0  0  0  0  0
    8.2782   -0.3285    0.0000 H   0  0  0  0  0  0  0  0  0  0  0  0
    7.5005    0.7875    0.0000 H   0  0  0  0  0  0  0  0  0  0  0  0
    7.1094    1.4834    0.0000 H   0  0  0  0  0  0  0  0  0  0  0  0
    4.8777    1.4920    0.0000 H   0  0  0  0  0  0  0  0  0  0  0  0
    4.4812    0.7992    0.0000 H   0  0  0  0  0  0  0  0  0  0  0  0
    6.8680   -4.3564    0.0000 H   0  0  0  0  0  0  0  0  0  0  0  0
    7.7175   -4.5735    0.0000 H   0  0  0  0  0  0  0  0  0  0  0  0
    7.9346   -3.7240    0.0000 H   0  0  0  0  0  0  0  0  0  0  0  0
    4.4418   -0.6000    0.0000 H   0  0  0  0  0  0  0  0  0  0  0  0
    6.0801    2.5085    0.0000 H   0  0  0  0  0  0  0  0  0  0  0  0
    5.3913    2.9097    0.0000 H   0  0  0  0  0  0  0  0  0  0  0  0
    7.0324    1.9828    0.0000 H   0  0  0  0  0  0  0  0  0  0  0  0
    6.8087    2.8306    0.0000 H   0  0  0  0  0  0  0  0  0  0  0  0
    5.9609    2.6069    0.0000 H   0  0  0  0  0  0  0  0  0  0  0  0
    3.9132    2.0928    0.0000 H   0  0  0  0  0  0  0  0  0  0  0  0
    4.6020    1.6916    0.0000 H   0  0  0  0  0  0  0  0  0  0  0  0
  1  5  1  0  0  0  0
  1  6  1  0  0  0  0
  1  7  2  0  0  0  0
  1  8  2  0  0  0  0
  2 13  1  0  0  0  0
  2 24  1  0  0  0  0
 11  3  1  6  0  0  0
  3 50  1  0  0  0  0
  4 24  2  0  0  0  0
  5 28  1  0  0  0  0
  9 10  1  0  0  0  0
  9 11  1  0  0  0  0
  9 14  1  0  0  0  0
  9 19  1  1  0  0  0
 10 12  1  0  0  0  0
 10 13  1  0  0  0  0
 10 29  1  6  0  0  0
 11 15  1  0  0  0  0
 11 17  1  0  0  0  0
 12 16  1  0  0  0  0
 12 24  1  0  0  0  0
 12 25  1  6  0  0  0
 13 21  1  0  0  0  0
 13 30  1  6  0  0  0
 14 18  1  0  0  0  0
 14 31  1  0  0  0  0
 14 32  1  0  0  0  0
 15 21  2  0  0  0  0
 15 22  1  0  0  0  0
 16 18  1  0  0  0  0
 16 33  1  0  0  0  0
 16 34  1  0  0  0  0
 17 23  1  0  0  0  0
 17 35  1  0  0  0  0
 17 36  1  0  0  0  0
 18 37  1  0  0  0  0
 18 38  1  0  0  0  0
 19 39  1  0  0  0  0
 19 40  1  0  0  0  0
 19 41  1  0  0  0  0
 20 22  1  0  0  0  0
 20 23  1  0  0  0  0
 20 26  1  0  0  0  0
 20 27  1  1  0  0  0
 21 42  1  0  0  0  0
 22 43  1  0  0  0  0
 22 44  1  0  0  0  0
 23 45  1  0  0  0  0
 23 46  1  0  0  0  0
 25 47  1  0  0  0  0
 25 48  1  0  0  0  0
 25 49  1  0  0  0  0
 26 28  1  0  0  0  0
 26 51  1  0  0  0  0
 26 52  1  0  0  0  0
 27 53  1  0  0  0  0
 27 54  1  0  0  0  0
 27 55  1  0  0  0  0
 28 56  1  0  0  0  0
 28 57  1  0  0  0  0
M  CHG  1   6  -1
M  END
> <PUBCHEM_COMPOUND_CID>
442039

> <PUBCHEM_COMPOUND_CANONICALIZED>
1

> <PUBCHEM_CACTVS_COMPLEXITY>
817

> <PUBCHEM_CACTVS_HBOND_ACCEPTOR>
7

> <PUBCHEM_CACTVS_HBOND_DONOR>
1

> <PUBCHEM_CACTVS_ROTATABLE_BOND>
3

> <PUBCHEM_CACTVS_SUBSKEYS>
AAADceB4OABAAAAAAAAAAAAAAAAAASAAAAAwYIAAAAAAAEiAAAAAGgAACAAAD1SggAICCAAABgCIAiDSCDAAAAAgAAAACAEAAAgABBIAIQACUAAEgAAIMAPK7PzPgAAAAAAAAADAAAQAACAAAAAAAAAAAA==

> <PUBCHEM_IUPAC_INCHI>
InChI=1S/C20H30O7S/c1-17(9-10-26-28(23,24)25)7-8-20(22)13(12-17)11-14-15-18(2,16(21)27-14)5-4-6-19(15,20)3/h11,14-15,22H,4-10,12H2,1-3H3,(H,23,24,25)/p-1/t14-,15+,17-,18+,19+,20-/m1/s1

> <PUBCHEM_IUPAC_INCHIKEY>
ITEVFNFZADKMQH-QBUATURESA-M

> <PUBCHEM_XLOGP3_AA>
1.8

> <PUBCHEM_EXACT_MASS>
413.163399

> <PUBCHEM_MOLECULAR_FORMULA>
C20H29O7S-

> <PUBCHEM_MOLECULAR_WEIGHT>
413.50506

> <PUBCHEM_OPENEYE_CAN_SMILES>
CC1(CCC2(C(=CC3C4C2(CCCC4(C(=O)O3)C)C)C1)O)CCOS(=O)(=O)[O-]

> <PUBCHEM_OPENEYE_ISO_SMILES>
C[C@@]1(CC[C@]2(C(=C[C@@H]3[C@@H]4[C@@]2(CCC[C@@]4(C(=O)O3)C)C)C1)O)CCOS(=O)(=O)[O-]

> <PUBCHEM_CACTVS_TPSA>
121

> <PUBCHEM_MONOISOTOPIC_WEIGHT>
413.163399

> <PUBCHEM_TOTAL_CHARGE>
-1

> <PUBCHEM_HEAVY_ATOM_COUNT>
28

> <PUBCHEM_ATOM_DEF_STEREO_COUNT>
6

> <PUBCHEM_ATOM_UDEF_STEREO_COUNT>
0

> <PUBCHEM_BOND_DEF_STEREO_COUNT>
0

> <PUBCHEM_BOND_UDEF_STEREO_COUNT>
0

> <PUBCHEM_ISOTOPIC_ATOM_COUNT>
0

> <PUBCHEM_COMPONENT_COUNT>
1

> <PUBCHEM_CACTVS_TAUTO_COUNT>
1

> <PUBCHEM_COORDINATE_TYPE>
1
5
255

> <PUBCHEM_BONDANNOTATIONS>
10  29  6
12  25  6
13  30  6
20  27  5
11  3  6
9  19  5

$$$$

