243758
  -OEChem-07051213073D

 50 51  0     1  0  0  0  0  0999 V2000
    7.8853    1.5563    0.1973 O   0  0  0  0  0  0  0  0  0  0  0  0
   -8.9074    0.7313   -0.1403 O   0  0  0  0  0  0  0  0  0  0  0  0
   -7.9272   -1.1001    0.8626 O   0  0  0  0  0  0  0  0  0  0  0  0
    6.5542    1.0414    0.3455 C   0  0  2  0  0  0  0  0  0  0  0  0
    7.6725    0.5407    1.1847 C   0  0  1  0  0  0  0  0  0  0  0  0
    6.1526   -0.0381   -0.6250 C   0  0  1  0  0  0  0  0  0  0  0  0
    7.9927   -0.8615    0.7702 C   0  0  0  0  0  0  0  0  0  0  0  0
    7.3495   -1.0160   -0.6184 C   0  0  0  0  0  0  0  0  0  0  0  0
    4.8653   -0.7240   -0.1792 C   0  0  0  0  0  0  0  0  0  0  0  0
    3.5973    0.0535   -0.5428 C   0  0  0  0  0  0  0  0  0  0  0  0
    2.3096   -0.6561   -0.1171 C   0  0  0  0  0  0  0  0  0  0  0  0
    1.0367    0.0750   -0.5585 C   0  0  0  0  0  0  0  0  0  0  0  0
   -0.2877   -0.5521   -0.1123 C   0  0  0  0  0  0  0  0  0  0  0  0
   -1.5160    0.2700   -0.5072 C   0  0  0  0  0  0  0  0  0  0  0  0
   -2.8004   -0.3539    0.0435 C   0  0  0  0  0  0  0  0  0  0  0  0
   -4.0336    0.4481   -0.3775 C   0  0  0  0  0  0  0  0  0  0  0  0
   -5.3202   -0.1977    0.1462 C   0  0  0  0  0  0  0  0  0  0  0  0
   -6.5733    0.5661   -0.2819 C   0  0  0  0  0  0  0  0  0  0  0  0
   -7.8550   -0.0625    0.2186 C   0  0  0  0  0  0  0  0  0  0  0  0
  -10.1950    0.2797    0.2917 C   0  0  0  0  0  0  0  0  0  0  0  0
    5.7867    1.6823    0.7440 H   0  0  0  0  0  0  0  0  0  0  0  0
    7.7451    0.7785    2.2319 H   0  0  0  0  0  0  0  0  0  0  0  0
    6.0278    0.3745   -1.6328 H   0  0  0  0  0  0  0  0  0  0  0  0
    9.0707   -1.0436    0.7365 H   0  0  0  0  0  0  0  0  0  0  0  0
    7.5408   -1.5662    1.4766 H   0  0  0  0  0  0  0  0  0  0  0  0
    7.0814   -2.0528   -0.8423 H   0  0  0  0  0  0  0  0  0  0  0  0
    8.0738   -0.6953   -1.3786 H   0  0  0  0  0  0  0  0  0  0  0  0
    4.7963   -1.7071   -0.6623 H   0  0  0  0  0  0  0  0  0  0  0  0
    4.8805   -0.9078    0.9027 H   0  0  0  0  0  0  0  0  0  0  0  0
    3.5748    0.2124   -1.6282 H   0  0  0  0  0  0  0  0  0  0  0  0
    3.6256    1.0465   -0.0793 H   0  0  0  0  0  0  0  0  0  0  0  0
    2.2967   -1.6701   -0.5352 H   0  0  0  0  0  0  0  0  0  0  0  0
    2.3030   -0.7637    0.9743 H   0  0  0  0  0  0  0  0  0  0  0  0
    1.0800    1.1030   -0.1760 H   0  0  0  0  0  0  0  0  0  0  0  0
    1.0364    0.1539   -1.6530 H   0  0  0  0  0  0  0  0  0  0  0  0
   -0.3685   -1.5597   -0.5380 H   0  0  0  0  0  0  0  0  0  0  0  0
   -0.2693   -0.6707    0.9783 H   0  0  0  0  0  0  0  0  0  0  0  0
   -1.5727    0.3381   -1.6002 H   0  0  0  0  0  0  0  0  0  0  0  0
   -1.4134    1.2923   -0.1238 H   0  0  0  0  0  0  0  0  0  0  0  0
   -2.7482   -0.4011    1.1379 H   0  0  0  0  0  0  0  0  0  0  0  0
   -2.8914   -1.3845   -0.3209 H   0  0  0  0  0  0  0  0  0  0  0  0
   -3.9556    1.4735    0.0032 H   0  0  0  0  0  0  0  0  0  0  0  0
   -4.0761    0.5105   -1.4717 H   0  0  0  0  0  0  0  0  0  0  0  0
   -5.2835   -0.2535    1.2415 H   0  0  0  0  0  0  0  0  0  0  0  0
   -5.3845   -1.2315   -0.2158 H   0  0  0  0  0  0  0  0  0  0  0  0
   -6.6229    0.6058   -1.3760 H   0  0  0  0  0  0  0  0  0  0  0  0
   -6.5227    1.5897    0.1069 H   0  0  0  0  0  0  0  0  0  0  0  0
  -10.9418    0.9977   -0.0576 H   0  0  0  0  0  0  0  0  0  0  0  0
  -10.2341    0.2361    1.3843 H   0  0  0  0  0  0  0  0  0  0  0  0
  -10.4186   -0.6991   -0.1431 H   0  0  0  0  0  0  0  0  0  0  0  0
  1  4  1  0  0  0  0
  1  5  1  0  0  0  0
  2 19  1  0  0  0  0
  2 20  1  0  0  0  0
  3 19  2  0  0  0  0
  4  5  1  0  0  0  0
  4  6  1  0  0  0  0
  4 21  1  0  0  0  0
  5  7  1  0  0  0  0
  5 22  1  0  0  0  0
  6  8  1  0  0  0  0
  6  9  1  0  0  0  0
  6 23  1  0  0  0  0
  7  8  1  0  0  0  0
  7 24  1  0  0  0  0
  7 25  1  0  0  0  0
  8 26  1  0  0  0  0
  8 27  1  0  0  0  0
  9 10  1  0  0  0  0
  9 28  1  0  0  0  0
  9 29  1  0  0  0  0
 10 11  1  0  0  0  0
 10 30  1  0  0  0  0
 10 31  1  0  0  0  0
 11 12  1  0  0  0  0
 11 32  1  0  0  0  0
 11 33  1  0  0  0  0
 12 13  1  0  0  0  0
 12 34  1  0  0  0  0
 12 35  1  0  0  0  0
 13 14  1  0  0  0  0
 13 36  1  0  0  0  0
 13 37  1  0  0  0  0
 14 15  1  0  0  0  0
 14 38  1  0  0  0  0
 14 39  1  0  0  0  0
 15 16  1  0  0  0  0
 15 40  1  0  0  0  0
 15 41  1  0  0  0  0
 16 17  1  0  0  0  0
 16 42  1  0  0  0  0
 16 43  1  0  0  0  0
 17 18  1  0  0  0  0
 17 44  1  0  0  0  0
 17 45  1  0  0  0  0
 18 19  1  0  0  0  0
 18 46  1  0  0  0  0
 18 47  1  0  0  0  0
 20 48  1  0  0  0  0
 20 49  1  0  0  0  0
 20 50  1  0  0  0  0
M  END
> <PUBCHEM_COMPOUND_CID>
243758

> <PUBCHEM_CONFORMER_RMSD>
1.4

> <PUBCHEM_CONFORMER_DIVERSEORDER>
1
69
81
13
84
34
23
57
6
43
26
65
2
55
91
47
52
58
4
5
83
9
50
25
15
61
8
90
42
46
36
73
16
62
71
28
18
67
22
35
89
86
41
45
72
82
32
27
40
29
14
87
66
70
80
44
21
39
51
20
38
79
3
56
78
24
54
12
74
77
11
75
48
37
63
30
17
7
64
85
19
49
31
10
76
59
88
53
33
68
60

> <PUBCHEM_MMFF94_PARTIAL_CHARGES>
12
1 -0.3
18 0.06
19 0.66
2 -0.43
20 0.28
21 0.1
22 0.1
3 -0.57
4 -0.05
5 -0.05
6 0.09
7 0.09

> <PUBCHEM_EFFECTIVE_ROTOR_COUNT>
12.8

> <PUBCHEM_PHARMACOPHORE_FEATURES>
3
1 1 acceptor
1 3 acceptor
6 1 4 5 6 7 8 rings

> <PUBCHEM_HEAVY_ATOM_COUNT>
20

> <PUBCHEM_ATOM_DEF_STEREO_COUNT>
0

> <PUBCHEM_ATOM_UDEF_STEREO_COUNT>
3

> <PUBCHEM_BOND_DEF_STEREO_COUNT>
0

> <PUBCHEM_BOND_UDEF_STEREO_COUNT>
0

> <PUBCHEM_ISOTOPIC_ATOM_COUNT>
0

> <PUBCHEM_COMPONENT_COUNT>
1

> <PUBCHEM_CACTVS_TAUTO_COUNT>
1

> <PUBCHEM_CONFORMER_ID>
0003B82E00000001

> <PUBCHEM_MMFF94_ENERGY>
24.0406

> <PUBCHEM_FEATURE_SELFOVERLAP>
15.223

> <PUBCHEM_SHAPE_FINGERPRINT>
10066227 49 11383846973431611424
10299344 5 13686297976113705928
11315181 36 16950279599561090763
11638347 137 17988927799414341058
14216079 64 11312062054335117480
14251764 18 16443342083176227043
14251764 46 18411136939405127511
14428016 248 16153422836164142881
14617042 71 18114745915835353136
15510794 2 18113894962296137023
155225 1 17167867431723112640
15690457 1 15051734174906242577
16120349 18 17967537852488251104
21095086 128 11815895648429321385
21150785 3 15719111361819565151
21360442 33 4750334942726030004
21360442 67 5761652594990575772
21360443 126 4967605101240991772
21362267 2 16371307583315192169
21362267 313 18116994579900171883
22224240 67 18343301465733961322
232437 2 12247676072628920865
23521765 1 18335420179766343463
246663 6 11815896764804157797
249057 3 4823206230463756385
28498 318 10447931671913800498
33684 2 17203327819399554471
5283156 175 13542465371142529398
5758199 1 16153706531269992127
67123 10 18410573980867033359
8209 1 18412543219420212567

> <PUBCHEM_SHAPE_MULTIPOLES>
393.98
37.69
1.03
0.85
42.51
0.1
-0.08
3.81
-7.25
-1.45
-0.07
-0.72
-0.02
0.86

> <PUBCHEM_SHAPE_SELFOVERLAP>
764.173

> <PUBCHEM_SHAPE_VOLUME>
241.1

> <PUBCHEM_COORDINATE_TYPE>
2
5
10

$$$$

