119444
  -OEChem-07051212563D

 81 85  0     1  0  0  0  0  0999 V2000
    0.6438    0.6705    1.2487 O   0  0  0  0  0  0  0  0  0  0  0  0
   -2.0301   -2.0609   -2.0117 O   0  0  0  0  0  0  0  0  0  0  0  0
   -4.6536   -0.9826   -2.1294 O   0  0  0  0  0  0  0  0  0  0  0  0
    6.3436    3.2921   -0.6783 O   0  0  0  0  0  0  0  0  0  0  0  0
    5.0456   -2.5896    1.9993 O   0  0  0  0  0  0  0  0  0  0  0  0
    7.5263    1.3600    0.9121 O   0  0  0  0  0  0  0  0  0  0  0  0
   -7.1683    1.7529    1.3620 O   0  0  0  0  0  0  0  0  0  0  0  0
   -7.9966   -0.1439    2.3454 O   0  0  0  0  0  0  0  0  0  0  0  0
    0.2154   -0.5849   -0.8066 C   0  0  1  0  0  0  0  0  0  0  0  0
    0.8573   -0.6067    0.6056 C   0  0  1  0  0  0  0  0  0  0  0  0
   -1.2834   -0.4293   -0.4397 C   0  0  2  0  0  0  0  0  0  0  0  0
    3.0761    0.2318   -0.3736 C   0  0  2  0  0  0  0  0  0  0  0  0
    4.6024   -0.1077   -0.6013 C   0  0  2  0  0  0  0  0  0  0  0  0
    0.7923    0.6065   -1.5896 C   0  0  0  0  0  0  0  0  0  0  0  0
    2.3592   -0.7809    0.5332 C   0  0  0  0  0  0  0  0  0  0  0  0
   -0.0413   -1.6012    1.3559 C   0  0  0  0  0  0  0  0  0  0  0  0
   -1.4566   -1.3428    0.7955 C   0  0  0  0  0  0  0  0  0  0  0  0
    2.3205    0.4975   -1.7128 C   0  0  0  0  0  0  0  0  0  0  0  0
   -2.2892   -0.7309   -1.5430 C   0  0  2  0  0  0  0  0  0  0  0  0
    5.2536   -0.5556    0.7362 C   0  0  1  0  0  0  0  0  0  0  0  0
    0.4553   -1.8984   -1.6006 C   0  0  0  0  0  0  0  0  0  0  0  0
    5.3867    1.1214   -1.1446 C   0  0  0  0  0  0  0  0  0  0  0  0
    3.0026   -1.6867    1.2845 C   0  0  0  0  0  0  0  0  0  0  0  0
    5.4063    0.5854    1.7585 C   0  0  0  0  0  0  0  0  0  0  0  0
    4.7850   -1.2539   -1.6334 C   0  0  0  0  0  0  0  0  0  0  0  0
    4.4802   -1.6987    1.3668 C   0  0  0  0  0  0  0  0  0  0  0  0
    5.5392    2.2535   -0.1236 C   0  0  1  0  0  0  0  0  0  0  0  0
   -3.7648   -0.6524   -1.0635 C   0  0  1  0  0  0  0  0  0  0  0  0
    6.1818    1.7661    1.1751 C   0  0  2  0  0  0  0  0  0  0  0  0
   -2.0459    0.2193   -2.7270 C   0  0  0  0  0  0  0  0  0  0  0  0
   -4.1611    0.7306   -0.5206 C   0  0  0  0  0  0  0  0  0  0  0  0
   -5.6171    0.7771   -0.0830 C   0  0  1  0  0  0  0  0  0  0  0  0
   -5.9660   -0.2376    1.0000 C   0  0  1  0  0  0  0  0  0  0  0  0
   -6.0024    2.0843    0.5925 C   0  0  1  0  0  0  0  0  0  0  0  0
   -7.1633    0.4139    1.6482 C   0  0  0  0  0  0  0  0  0  0  0  0
   -6.2886   -1.6147    0.4462 C   0  0  0  0  0  0  0  0  0  0  0  0
   -6.3448    3.1967   -0.3832 C   0  0  0  0  0  0  0  0  0  0  0  0
   -1.4380    0.6056   -0.1052 H   0  0  0  0  0  0  0  0  0  0  0  0
    3.0194    1.1769    0.1822 H   0  0  0  0  0  0  0  0  0  0  0  0
    0.5399    1.5560   -1.1018 H   0  0  0  0  0  0  0  0  0  0  0  0
    0.4146    0.6784   -2.6083 H   0  0  0  0  0  0  0  0  0  0  0  0
   -0.0299   -1.4488    2.4408 H   0  0  0  0  0  0  0  0  0  0  0  0
    0.2432   -2.6410    1.1588 H   0  0  0  0  0  0  0  0  0  0  0  0
   -1.9265   -2.3041    0.5614 H   0  0  0  0  0  0  0  0  0  0  0  0
   -2.0831   -0.8492    1.5472 H   0  0  0  0  0  0  0  0  0  0  0  0
    2.5343   -0.2891   -2.4420 H   0  0  0  0  0  0  0  0  0  0  0  0
    2.6900    1.4286   -2.1583 H   0  0  0  0  0  0  0  0  0  0  0  0
    6.2560   -0.9506    0.5161 H   0  0  0  0  0  0  0  0  0  0  0  0
    1.5215   -2.1512   -1.6244 H   0  0  0  0  0  0  0  0  0  0  0  0
   -0.0197   -2.7749   -1.1494 H   0  0  0  0  0  0  0  0  0  0  0  0
    0.1689   -1.8123   -2.6532 H   0  0  0  0  0  0  0  0  0  0  0  0
    4.9221    1.5138   -2.0570 H   0  0  0  0  0  0  0  0  0  0  0  0
    6.3898    0.8058   -1.4658 H   0  0  0  0  0  0  0  0  0  0  0  0
    2.4818   -2.3867    1.9273 H   0  0  0  0  0  0  0  0  0  0  0  0
    4.4253    0.9268    2.1097 H   0  0  0  0  0  0  0  0  0  0  0  0
    5.9336    0.1990    2.6403 H   0  0  0  0  0  0  0  0  0  0  0  0
    5.8216   -1.6112   -1.6451 H   0  0  0  0  0  0  0  0  0  0  0  0
    4.1450   -2.1143   -1.4149 H   0  0  0  0  0  0  0  0  0  0  0  0
    4.5651   -0.9209   -2.6531 H   0  0  0  0  0  0  0  0  0  0  0  0
   -3.8754   -1.4213   -0.3049 H   0  0  0  0  0  0  0  0  0  0  0  0
    4.5633    2.6968    0.0999 H   0  0  0  0  0  0  0  0  0  0  0  0
    0.9936    0.6100    2.1544 H   0  0  0  0  0  0  0  0  0  0  0  0
    6.2348    2.5889    1.8967 H   0  0  0  0  0  0  0  0  0  0  0  0
   -1.8790    1.2536   -2.4111 H   0  0  0  0  0  0  0  0  0  0  0  0
   -2.9009    0.2340   -3.4114 H   0  0  0  0  0  0  0  0  0  0  0  0
   -1.2306   -0.1248   -3.3680 H   0  0  0  0  0  0  0  0  0  0  0  0
   -4.0119    1.4955   -1.2915 H   0  0  0  0  0  0  0  0  0  0  0  0
   -3.5234    1.0007    0.3277 H   0  0  0  0  0  0  0  0  0  0  0  0
   -2.6744   -2.2568   -2.7134 H   0  0  0  0  0  0  0  0  0  0  0  0
   -6.2745    0.6274   -0.9510 H   0  0  0  0  0  0  0  0  0  0  0  0
   -4.7898   -0.1951   -2.6818 H   0  0  0  0  0  0  0  0  0  0  0  0
    5.9095    3.5943   -1.4943 H   0  0  0  0  0  0  0  0  0  0  0  0
    7.9132    1.0659    1.7543 H   0  0  0  0  0  0  0  0  0  0  0  0
   -5.1847   -0.3032    1.7671 H   0  0  0  0  0  0  0  0  0  0  0  0
   -5.2314    2.4320    1.2913 H   0  0  0  0  0  0  0  0  0  0  0  0
   -7.0422   -2.1159    1.0655 H   0  0  0  0  0  0  0  0  0  0  0  0
   -6.7046   -1.5752   -0.5653 H   0  0  0  0  0  0  0  0  0  0  0  0
   -5.4316   -2.2896    0.4533 H   0  0  0  0  0  0  0  0  0  0  0  0
   -7.1680    2.9032   -1.0439 H   0  0  0  0  0  0  0  0  0  0  0  0
   -6.6846    4.0850    0.1601 H   0  0  0  0  0  0  0  0  0  0  0  0
   -5.4821    3.4724   -0.9960 H   0  0  0  0  0  0  0  0  0  0  0  0
  1 10  1  0  0  0  0
  1 62  1  0  0  0  0
  2 19  1  0  0  0  0
  2 69  1  0  0  0  0
  3 28  1  0  0  0  0
  3 71  1  0  0  0  0
  4 27  1  0  0  0  0
  4 72  1  0  0  0  0
  5 26  2  0  0  0  0
  6 29  1  0  0  0  0
  6 73  1  0  0  0  0
  7 34  1  0  0  0  0
  7 35  1  0  0  0  0
  8 35  2  0  0  0  0
  9 10  1  0  0  0  0
  9 11  1  0  0  0  0
  9 14  1  0  0  0  0
  9 21  1  0  0  0  0
 10 15  1  0  0  0  0
 10 16  1  0  0  0  0
 11 17  1  0  0  0  0
 11 19  1  0  0  0  0
 11 38  1  0  0  0  0
 12 13  1  0  0  0  0
 12 15  1  0  0  0  0
 12 18  1  0  0  0  0
 12 39  1  0  0  0  0
 13 20  1  0  0  0  0
 13 22  1  0  0  0  0
 13 25  1  0  0  0  0
 14 18  1  0  0  0  0
 14 40  1  0  0  0  0
 14 41  1  0  0  0  0
 15 23  2  0  0  0  0
 16 17  1  0  0  0  0
 16 42  1  0  0  0  0
 16 43  1  0  0  0  0
 17 44  1  0  0  0  0
 17 45  1  0  0  0  0
 18 46  1  0  0  0  0
 18 47  1  0  0  0  0
 19 28  1  0  0  0  0
 19 30  1  0  0  0  0
 20 24  1  0  0  0  0
 20 26  1  0  0  0  0
 20 48  1  0  0  0  0
 21 49  1  0  0  0  0
 21 50  1  0  0  0  0
 21 51  1  0  0  0  0
 22 27  1  0  0  0  0
 22 52  1  0  0  0  0
 22 53  1  0  0  0  0
 23 26  1  0  0  0  0
 23 54  1  0  0  0  0
 24 29  1  0  0  0  0
 24 55  1  0  0  0  0
 24 56  1  0  0  0  0
 25 57  1  0  0  0  0
 25 58  1  0  0  0  0
 25 59  1  0  0  0  0
 27 29  1  0  0  0  0
 27 61  1  0  0  0  0
 28 31  1  0  0  0  0
 28 60  1  0  0  0  0
 29 63  1  0  0  0  0
 30 64  1  0  0  0  0
 30 65  1  0  0  0  0
 30 66  1  0  0  0  0
 31 32  1  0  0  0  0
 31 67  1  0  0  0  0
 31 68  1  0  0  0  0
 32 33  1  0  0  0  0
 32 34  1  0  0  0  0
 32 70  1  0  0  0  0
 33 35  1  0  0  0  0
 33 36  1  0  0  0  0
 33 74  1  0  0  0  0
 34 37  1  0  0  0  0
 34 75  1  0  0  0  0
 36 76  1  0  0  0  0
 36 77  1  0  0  0  0
 36 78  1  0  0  0  0
 37 79  1  0  0  0  0
 37 80  1  0  0  0  0
 37 81  1  0  0  0  0
M  END
> <PUBCHEM_COMPOUND_CID>
119444

> <PUBCHEM_CONFORMER_RMSD>
1

> <PUBCHEM_CONFORMER_DIVERSEORDER>
1
2
3

> <PUBCHEM_MMFF94_PARTIAL_CHARGES>
27
1 -0.68
10 0.42
12 0.14
15 -0.28
19 0.28
2 -0.68
20 0.06
23 -0.14
26 0.49
27 0.28
28 0.28
29 0.28
3 -0.68
33 0.06
34 0.28
35 0.66
4 -0.68
5 -0.57
54 0.15
6 -0.68
62 0.4
69 0.4
7 -0.43
71 0.4
72 0.4
73 0.4
8 -0.57

> <PUBCHEM_EFFECTIVE_ROTOR_COUNT>
6.6

> <PUBCHEM_PHARMACOPHORE_FEATURES>
17
1 1 acceptor
1 1 donor
1 2 acceptor
1 2 donor
1 3 acceptor
1 3 donor
1 4 acceptor
1 4 donor
1 5 acceptor
1 6 acceptor
1 6 donor
1 8 acceptor
5 7 32 33 34 35 rings
5 9 10 11 16 17 rings
6 12 13 15 20 23 26 rings
6 13 20 22 24 27 29 rings
6 9 10 12 14 15 18 rings

> <PUBCHEM_HEAVY_ATOM_COUNT>
37

> <PUBCHEM_ATOM_DEF_STEREO_COUNT>
13

> <PUBCHEM_ATOM_UDEF_STEREO_COUNT>
0

> <PUBCHEM_BOND_DEF_STEREO_COUNT>
0

> <PUBCHEM_BOND_UDEF_STEREO_COUNT>
0

> <PUBCHEM_ISOTOPIC_ATOM_COUNT>
0

> <PUBCHEM_COMPONENT_COUNT>
1

> <PUBCHEM_CACTVS_TAUTO_COUNT>
10

> <PUBCHEM_CONFORMER_ID>
0001D29400000001

> <PUBCHEM_MMFF94_ENERGY>
139.311

> <PUBCHEM_FEATURE_SELFOVERLAP>
86.412

> <PUBCHEM_SHAPE_FINGERPRINT>
10 15 18259982674431974659
10076449 9 16701451416243981186
10554248 39 16732984283618594589
10693767 8 7204505394356599972
10816530 90 17313106332739445088
10906281 52 18040429975693359919
11456790 92 18272381884349706968
11475781 23 15502386629327447578
11578080 2 18126561224436113240
11646440 116 17561086895428479476
12035758 1 16845578595398288176
12120059 9 15625961810878655123
12236239 1 18411982481385550119
12422481 6 18338801242367273247
12596602 18 18272088322912505617
13726171 33 18043249042450952266
13782708 43 14692574329432335345
14068700 675 12895352192609949527
14340393 91 7420954136629887299
14849402 71 18271238301524708501
14856354 85 18187370870625798551
15064981 113 9222683120902712187
15082195 135 15285635470159423088
15183329 4 5833992733129322913
15188451 53 12391518567854673697
15392192 104 16916486078498130363
1577012 14 18113340803681178357
15840311 113 18341053024816661133
16994733 274 18113902628269019176
1979834 28 17561083614326614078
20105231 36 16415484879136382306
2026 5 11239996742468845649
21033648 29 15864364514513403134
21130935 74 17917429856431162603
21279426 13 14129060300829223495
21424621 283 18335137592023850947
21756936 100 18409451363106697143
21987483 16 14906752490448897409
22149856 69 17203038694885837469
23081809 10 18187940468576546895
23522609 53 18334008359233267309
23559900 14 17275109436483569678
23569914 152 5686820799243677921
23576562 1 14707790411068381897
24771293 8 18059010584353004428
3383291 50 15195284209948247737
3663271 9 18343865519968368027
392239 28 16845569812491043541
394071 54 18060706065953951068
397830 11 17632579357489809609
4093350 32 18333446560979934534
4340502 62 17917714591477701050
439807 62 9511164267284255757
504579 68 5761656979523533745
5104073 3 17274273866552103548
6328613 192 17022618672042320361
9689198 14 18336818762778170541

> <PUBCHEM_SHAPE_MULTIPOLES>
714.49
21.26
2.53
2.23
16.09
1.23
0.57
10.88
-10.93
-1.16
-0.38
0.88
-0.52
-1.12

> <PUBCHEM_SHAPE_SELFOVERLAP>
1535.307

> <PUBCHEM_SHAPE_VOLUME>
392.7

> <PUBCHEM_COORDINATE_TYPE>
2
5
10

$$$$

