442044
  -OEChem-07051212562D

 67 73  0     1  0  0  0  0  0999 V2000
    6.0374    0.3794    0.0000 O   0  0  0  0  0  0  0  0  0  0  0  0
    9.5864    3.4006    0.0000 O   0  0  0  0  0  0  0  0  0  0  0  0
    5.4198    3.1582    0.0000 O   0  0  0  0  0  0  0  0  0  0  0  0
    7.7818    5.4491    0.0000 O   0  0  0  0  0  0  0  0  0  0  0  0
    7.7857   -0.6894    0.0000 O   0  0  0  0  0  0  0  0  0  0  0  0
    5.4384    4.9158    0.0000 O   0  0  0  0  0  0  0  0  0  0  0  0
    6.0043   -1.6515    0.0000 O   0  0  0  0  0  0  0  0  0  0  0  0
    9.5557   -0.6652    0.0000 O   0  0  0  0  0  0  0  0  0  0  0  0
    5.1210   -3.1414    0.0000 O   0  0  0  0  0  0  0  0  0  0  0  0
    4.2840   -0.6315    0.0000 O   0  0  0  0  0  0  0  0  0  0  0  0
    2.5405   -1.6114    0.0000 O   0  0  0  0  0  0  0  0  0  0  0  0
    2.5174   -3.6113    0.0000 O   0  0  0  0  0  0  0  0  0  0  0  0
    5.0979   -5.1412    0.0000 O   0  0  0  0  0  0  0  0  0  0  0  0
    7.7698    2.3799    0.0000 C   0  0  2  0  0  0  0  0  0  0  0  0
    6.9037    2.8799    0.0000 C   0  0  2  0  0  0  0  0  0  0  0  0
    6.9037    0.8799    0.0000 C   0  0  2  0  0  0  0  0  0  0  0  0
    8.6798    2.8867    0.0000 C   0  0  1  0  0  0  0  0  0  0  0  0
    6.0377    1.3799    0.0000 C   0  0  1  0  0  0  0  0  0  0  0  0
    6.8877    3.9214    0.0000 C   0  0  2  0  0  0  0  0  0  0  0  0
    6.0377    2.3799    0.0000 C   0  0  1  0  0  0  0  0  0  0  0  0
    8.6878    3.9283    0.0000 C   0  0  1  0  0  0  0  0  0  0  0  0
    7.7698    1.3799    0.0000 C   0  0  0  0  0  0  0  0  0  0  0  0
    7.7857    4.4492    0.0000 C   0  0  2  0  0  0  0  0  0  0  0  0
    6.8877   -0.1616    0.0000 C   0  0  1  0  0  0  0  0  0  0  0  0
    8.6358    1.8799    0.0000 C   0  0  0  0  0  0  0  0  0  0  0  0
    5.8996    4.0285    0.0000 C   0  0  0  0  0  0  0  0  0  0  0  0
    6.3777    4.7816    0.0000 C   0  0  0  0  0  0  0  0  0  0  0  0
    8.6798    0.8730    0.0000 C   0  0  0  0  0  0  0  0  0  0  0  0
    6.0159   -0.6516    0.0000 C   0  0  2  0  0  0  0  0  0  0  0  0
    8.6878   -0.1686    0.0000 C   0  0  0  0  0  0  0  0  0  0  0  0
    5.1557   -0.1416    0.0000 C   0  0  0  0  0  0  0  0  0  0  0  0
    5.1326   -2.1414    0.0000 C   0  0  2  0  0  0  0  0  0  0  0  0
    4.2724   -1.6315    0.0000 C   0  0  1  0  0  0  0  0  0  0  0  0
    3.4007   -2.1214    0.0000 C   0  0  2  0  0  0  0  0  0  0  0  0
    4.2493   -3.6313    0.0000 C   0  0  1  0  0  0  0  0  0  0  0  0
    3.3891   -3.1214    0.0000 C   0  0  1  0  0  0  0  0  0  0  0  0
    4.2377   -4.6313    0.0000 C   0  0  0  0  0  0  0  0  0  0  0  0
    7.6398    3.3049    0.0000 H   0  0  0  0  0  0  0  0  0  0  0  0
    8.9834    2.3462    0.0000 H   0  0  0  0  0  0  0  0  0  0  0  0
    5.1877    1.3800    0.0000 H   0  0  0  0  0  0  0  0  0  0  0  0
    5.2351    2.1000    0.0000 H   0  0  0  0  0  0  0  0  0  0  0  0
    8.9998    4.4641    0.0000 H   0  0  0  0  0  0  0  0  0  0  0  0
    8.3220    4.7602    0.0000 H   0  0  0  0  0  0  0  0  0  0  0  0
    6.8795   -1.0116    0.0000 H   0  0  0  0  0  0  0  0  0  0  0  0
    8.3258    1.3430    0.0000 H   0  0  0  0  0  0  0  0  0  0  0  0
    9.1727    1.5699    0.0000 H   0  0  0  0  0  0  0  0  0  0  0  0
    8.9458    2.4168    0.0000 H   0  0  0  0  0  0  0  0  0  0  0  0
    6.9110    5.0978    0.0000 H   0  0  0  0  0  0  0  0  0  0  0  0
    6.0615    5.3149    0.0000 H   0  0  0  0  0  0  0  0  0  0  0  0
    5.8444    4.4654    0.0000 H   0  0  0  0  0  0  0  0  0  0  0  0
    9.2131    1.1892    0.0000 H   0  0  0  0  0  0  0  0  0  0  0  0
    5.4754   -0.9553    0.0000 H   0  0  0  0  0  0  0  0  0  0  0  0
    8.3176    5.7612    0.0000 H   0  0  0  0  0  0  0  0  0  0  0  0
    5.4719    0.3917    0.0000 H   0  0  0  0  0  0  0  0  0  0  0  0
    4.6224    0.1746    0.0000 H   0  0  0  0  0  0  0  0  0  0  0  0
    4.8395   -0.6749    0.0000 H   0  0  0  0  0  0  0  0  0  0  0  0
    5.1398   -1.5215    0.0000 H   0  0  0  0  0  0  0  0  0  0  0  0
    3.7391   -1.3153    0.0000 H   0  0  0  0  0  0  0  0  0  0  0  0
    3.4078   -1.5015    0.0000 H   0  0  0  0  0  0  0  0  0  0  0  0
    4.7826   -3.9475    0.0000 H   0  0  0  0  0  0  0  0  0  0  0  0
    2.8558   -2.8052    0.0000 H   0  0  0  0  0  0  0  0  0  0  0  0
    3.7507   -0.3154    0.0000 H   0  0  0  0  0  0  0  0  0  0  0  0
    3.6284   -4.5166    0.0000 H   0  0  0  0  0  0  0  0  0  0  0  0
    4.0190   -5.2114    0.0000 H   0  0  0  0  0  0  0  0  0  0  0  0
    2.0000   -1.9152    0.0000 H   0  0  0  0  0  0  0  0  0  0  0  0
    2.5102   -4.2313    0.0000 H   0  0  0  0  0  0  0  0  0  0  0  0
    5.0908   -5.7612    0.0000 H   0  0  0  0  0  0  0  0  0  0  0  0
 16  1  1  6  0  0  0
  1 18  1  0  0  0  0
 17  2  1  1  0  0  0
 21  2  1  1  0  0  0
  3 20  1  0  0  0  0
  3 26  1  0  0  0  0
 23  4  1  1  0  0  0
  4 53  1  0  0  0  0
  5 24  1  0  0  0  0
  5 30  1  0  0  0  0
  6 26  2  0  0  0  0
 29  7  1  1  0  0  0
 32  7  1  6  0  0  0
  8 30  2  0  0  0  0
  9 32  1  0  0  0  0
  9 35  1  0  0  0  0
 33 10  1  1  0  0  0
 10 62  1  0  0  0  0
 34 11  1  6  0  0  0
 11 65  1  0  0  0  0
 36 12  1  1  0  0  0
 12 66  1  0  0  0  0
 13 37  1  0  0  0  0
 13 67  1  0  0  0  0
 14 15  1  0  0  0  0
 14 17  1  0  0  0  0
 14 22  1  0  0  0  0
 14 25  1  1  0  0  0
 15 19  1  0  0  0  0
 15 20  1  0  0  0  0
 15 38  1  6  0  0  0
 16 18  1  0  0  0  0
 16 22  1  0  0  0  0
 16 24  1  0  0  0  0
 17 21  1  0  0  0  0
 17 39  1  0  0  0  0
 18 20  1  0  0  0  0
 18 40  1  1  0  0  0
 19 23  1  0  0  0  0
 19 26  1  0  0  0  0
 19 27  1  6  0  0  0
 20 41  1  6  0  0  0
 21 23  1  0  0  0  0
 21 42  1  0  0  0  0
 22 28  2  0  0  0  0
 23 43  1  0  0  0  0
 24 29  1  0  0  0  0
 24 44  1  1  0  0  0
 25 45  1  0  0  0  0
 25 46  1  0  0  0  0
 25 47  1  0  0  0  0
 27 48  1  0  0  0  0
 27 49  1  0  0  0  0
 27 50  1  0  0  0  0
 28 30  1  0  0  0  0
 28 51  1  0  0  0  0
 29 31  1  0  0  0  0
 29 52  1  0  0  0  0
 31 54  1  0  0  0  0
 31 55  1  0  0  0  0
 31 56  1  0  0  0  0
 32 33  1  0  0  0  0
 32 57  1  0  0  0  0
 33 34  1  0  0  0  0
 33 58  1  0  0  0  0
 34 36  1  0  0  0  0
 34 59  1  0  0  0  0
 35 36  1  0  0  0  0
 35 37  1  6  0  0  0
 35 60  1  0  0  0  0
 36 61  1  0  0  0  0
 37 63  1  0  0  0  0
 37 64  1  0  0  0  0
M  END
> <PUBCHEM_COMPOUND_CID>
442044

> <PUBCHEM_COMPOUND_CANONICALIZED>
1

> <PUBCHEM_CACTVS_COMPLEXITY>
1090

> <PUBCHEM_CACTVS_HBOND_ACCEPTOR>
13

> <PUBCHEM_CACTVS_HBOND_DONOR>
5

> <PUBCHEM_CACTVS_ROTATABLE_BOND>
4

> <PUBCHEM_CACTVS_SUBSKEYS>
AAADceB4PAAAAAAAAAAAAAAAEiQAASAAAAA0YIEABIkAAEjAAAAAGgAACAAAD1SwgAMCCAAABgCIAiDSCAAAAAAgAAAACAEAAEgRFBYAIAAiUAAF4AAPIQPK7PzPgAAAAAAAAADAAAYQADCAAAAAAAAAAA==

> <PUBCHEM_IUPAC_INCHI>
InChI=1S/C24H30O13/c1-6(32-20-12(29)11(28)10(27)7(5-25)33-20)17-24-8(4-9(26)34-17)22(2)15-13(19(24)37-24)36-21(31)23(15,3)16(30)14-18(22)35-14/h4,6-7,10-20,25,27-30H,5H2,1-3H3/t6-,7+,10+,11-,12+,13-,14+,15+,16-,17+,18+,19+,20+,22+,23+,24+/m0/s1

> <PUBCHEM_IUPAC_INCHIKEY>
QGWDZDZECYBAPW-KPCMHIKZSA-N

> <PUBCHEM_XLOGP3_AA>
-2.9

> <PUBCHEM_EXACT_MASS>
526.168641

> <PUBCHEM_MOLECULAR_FORMULA>
C24H30O13

> <PUBCHEM_MOLECULAR_WEIGHT>
526.4872

> <PUBCHEM_OPENEYE_CAN_SMILES>
CC(C1C23C(O2)C4C5C(C(C6C(C5(C3=CC(=O)O1)C)O6)O)(C(=O)O4)C)OC7C(C(C(C(O7)CO)O)O)O

> <PUBCHEM_OPENEYE_ISO_SMILES>
C[C@@H]([C@@H]1[C@]23[C@H](O2)[C@@H]4[C@H]5[C@]([C@H]([C@@H]6[C@H]([C@@]5(C3=CC(=O)O1)C)O6)O)(C(=O)O4)C)O[C@H]7[C@@H]([C@H]([C@@H]([C@H](O7)CO)O)O)O

> <PUBCHEM_CACTVS_TPSA>
197

> <PUBCHEM_MONOISOTOPIC_WEIGHT>
526.168641

> <PUBCHEM_TOTAL_CHARGE>
0

> <PUBCHEM_HEAVY_ATOM_COUNT>
37

> <PUBCHEM_ATOM_DEF_STEREO_COUNT>
16

> <PUBCHEM_ATOM_UDEF_STEREO_COUNT>
0

> <PUBCHEM_BOND_DEF_STEREO_COUNT>
0

> <PUBCHEM_BOND_UDEF_STEREO_COUNT>
0

> <PUBCHEM_ISOTOPIC_ATOM_COUNT>
0

> <PUBCHEM_COMPONENT_COUNT>
1

> <PUBCHEM_CACTVS_TAUTO_COUNT>
1

> <PUBCHEM_COORDINATE_TYPE>
1
5
255

> <PUBCHEM_BONDANNOTATIONS>
16  1  6
33  10  5
34  11  6
36  12  5
14  25  5
15  38  6
18  40  5
19  27  6
17  2  5
21  2  5
20  41  6
24  44  5
35  37  6
23  4  5
29  7  5
32  7  6

$$$$

