91763
  -OEChem-07051213122D

 43 44  0     0  0  0  0  0  0999 V2000
    2.0933    1.2705    0.0000 Cl  0  0  0  0  0  0  0  0  0  0  0  0
    4.4487   -1.3455    0.0000 S   0  0  0  0  0  0  0  0  0  0  0  0
    3.9487   -2.2115    0.0000 O   0  0  0  0  0  0  0  0  0  0  0  0
    4.9487   -0.4794    0.0000 O   0  0  0  0  0  0  0  0  0  0  0  0
    4.0134    1.7963    0.0000 O   0  0  0  0  0  0  0  0  0  0  0  0
    5.1724    0.5092    0.0000 O   0  0  0  0  0  0  0  0  0  0  0  0
    6.1808   -0.3455    0.0000 O   0  0  0  0  0  0  0  0  0  0  0  0
   10.5109   -1.8455    0.0000 O   0  0  0  0  0  0  0  0  0  0  0  0
    8.7788    1.1545    0.0000 O   0  0  0  0  0  0  0  0  0  0  0  0
    2.6691   -1.2522    0.0000 N   0  0  0  0  0  0  0  0  0  0  0  0
    5.3147   -1.8455    0.0000 N   0  0  0  0  0  0  0  0  0  0  0  0
    2.0000   -0.5091    0.0000 N   0  0  0  0  0  0  0  0  0  0  0  0
    7.0468   -1.8455    0.0000 N   0  0  0  0  0  0  0  0  0  0  0  0
    8.7788   -1.8455    0.0000 N   0  0  0  0  0  0  0  0  0  0  0  0
    7.9128   -0.3455    0.0000 N   0  0  0  0  0  0  0  0  0  0  0  0
    3.5827   -0.8455    0.0000 C   0  0  0  0  0  0  0  0  0  0  0  0
    3.4782    0.1491    0.0000 C   0  0  0  0  0  0  0  0  0  0  0  0
    2.5000    0.3570    0.0000 C   0  0  0  0  0  0  0  0  0  0  0  0
    2.4612   -2.2304    0.0000 C   0  0  0  0  0  0  0  0  0  0  0  0
    4.2213    0.8182    0.0000 C   0  0  0  0  0  0  0  0  0  0  0  0
    6.1808   -1.3455    0.0000 C   0  0  0  0  0  0  0  0  0  0  0  0
    7.9128   -1.3455    0.0000 C   0  0  0  0  0  0  0  0  0  0  0  0
    9.6448   -1.3455    0.0000 C   0  0  0  0  0  0  0  0  0  0  0  0
    8.7788    0.1545    0.0000 C   0  0  0  0  0  0  0  0  0  0  0  0
    4.7565    2.4655    0.0000 C   0  0  0  0  0  0  0  0  0  0  0  0
    9.6448   -0.3455    0.0000 C   0  0  0  0  0  0  0  0  0  0  0  0
   11.3769   -1.3455    0.0000 C   0  0  0  0  0  0  0  0  0  0  0  0
    9.6448    1.6545    0.0000 C   0  0  0  0  0  0  0  0  0  0  0  0
    5.3147   -2.4655    0.0000 H   0  0  0  0  0  0  0  0  0  0  0  0
    1.8548   -2.1014    0.0000 H   0  0  0  0  0  0  0  0  0  0  0  0
    2.3323   -2.8368    0.0000 H   0  0  0  0  0  0  0  0  0  0  0  0
    3.0677   -2.3592    0.0000 H   0  0  0  0  0  0  0  0  0  0  0  0
    7.0468   -2.4655    0.0000 H   0  0  0  0  0  0  0  0  0  0  0  0
    5.1714    2.0047    0.0000 H   0  0  0  0  0  0  0  0  0  0  0  0
    5.2173    2.8803    0.0000 H   0  0  0  0  0  0  0  0  0  0  0  0
    4.3417    2.9262    0.0000 H   0  0  0  0  0  0  0  0  0  0  0  0
   10.1818   -0.0355    0.0000 H   0  0  0  0  0  0  0  0  0  0  0  0
   11.6869   -1.8824    0.0000 H   0  0  0  0  0  0  0  0  0  0  0  0
   11.9138   -1.0355    0.0000 H   0  0  0  0  0  0  0  0  0  0  0  0
   11.0669   -0.8085    0.0000 H   0  0  0  0  0  0  0  0  0  0  0  0
    9.9548    1.1176    0.0000 H   0  0  0  0  0  0  0  0  0  0  0  0
   10.1818    1.9645    0.0000 H   0  0  0  0  0  0  0  0  0  0  0  0
    9.3348    2.1915    0.0000 H   0  0  0  0  0  0  0  0  0  0  0  0
  1 18  1  0  0  0  0
  2  3  2  0  0  0  0
  2  4  2  0  0  0  0
  2 11  1  0  0  0  0
  2 16  1  0  0  0  0
  5 20  1  0  0  0  0
  5 25  1  0  0  0  0
  6 20  2  0  0  0  0
  7 21  2  0  0  0  0
  8 23  1  0  0  0  0
  8 27  1  0  0  0  0
  9 24  1  0  0  0  0
  9 28  1  0  0  0  0
 10 12  1  0  0  0  0
 10 16  1  0  0  0  0
 10 19  1  0  0  0  0
 11 21  1  0  0  0  0
 11 29  1  0  0  0  0
 12 18  2  0  0  0  0
 13 21  1  0  0  0  0
 13 22  1  0  0  0  0
 13 33  1  0  0  0  0
 14 22  1  0  0  0  0
 14 23  2  0  0  0  0
 15 22  2  0  0  0  0
 15 24  1  0  0  0  0
 16 17  2  0  0  0  0
 17 18  1  0  0  0  0
 17 20  1  0  0  0  0
 19 30  1  0  0  0  0
 19 31  1  0  0  0  0
 19 32  1  0  0  0  0
 23 26  1  0  0  0  0
 24 26  2  0  0  0  0
 25 34  1  0  0  0  0
 25 35  1  0  0  0  0
 25 36  1  0  0  0  0
 26 37  1  0  0  0  0
 27 38  1  0  0  0  0
 27 39  1  0  0  0  0
 27 40  1  0  0  0  0
 28 41  1  0  0  0  0
 28 42  1  0  0  0  0
 28 43  1  0  0  0  0
M  END
> <PUBCHEM_COMPOUND_CID>
91763

> <PUBCHEM_COMPOUND_CANONICALIZED>
1

> <PUBCHEM_CACTVS_COMPLEXITY>
665

> <PUBCHEM_CACTVS_HBOND_ACCEPTOR>
10

> <PUBCHEM_CACTVS_HBOND_DONOR>
2

> <PUBCHEM_CACTVS_ROTATABLE_BOND>
7

> <PUBCHEM_CACTVS_SUBSKEYS>
AAADccBzuABEAAAAAAAAAAAAAAAAAWAAAAAsAAAAAAAAAAAB4AAAHgYYQAAADAKB2iYznZbIFAKqAiDyfHDYnDkFpqARUDE+blCEDQhEaEgEhKwLCQ5AJGAAAAAAAAAAAAAAAAAAAAAAAAAAAAAAAAAAAA==

> <PUBCHEM_IUPAC_OPENEYE_NAME>
methyl 3-chloro-5-[(4,6-dimethoxypyrimidin-2-yl)carbamoylsulfamoyl]-1-methyl-pyrazole-4-carboxylate

> <PUBCHEM_IUPAC_CAS_NAME>
3-chloro-5-[[[(4,6-dimethoxy-2-pyrimidinyl)amino]-oxomethyl]sulfamoyl]-1-methyl-4-pyrazolecarboxylic acid methyl ester

> <PUBCHEM_IUPAC_NAME>
methyl 3-chloro-5-[(4,6-dimethoxypyrimidin-2-yl)carbamoylsulfamoyl]-1-methylpyrazole-4-carboxylate

> <PUBCHEM_IUPAC_SYSTEMATIC_NAME>
methyl 3-chloranyl-5-[(4,6-dimethoxypyrimidin-2-yl)carbamoylsulfamoyl]-1-methyl-pyrazole-4-carboxylate

> <PUBCHEM_IUPAC_TRADITIONAL_NAME>
3-chloro-5-[(4,6-dimethoxypyrimidin-2-yl)carbamoylsulfamoyl]-1-methyl-pyrazole-4-carboxylic acid methyl ester

> <PUBCHEM_IUPAC_INCHI>
InChI=1S/C13H15ClN6O7S/c1-20-10(8(9(14)18-20)11(21)27-4)28(23,24)19-13(22)17-12-15-6(25-2)5-7(16-12)26-3/h5H,1-4H3,(H2,15,16,17,19,22)

> <PUBCHEM_IUPAC_INCHIKEY>
FMGZEUWROYGLAY-UHFFFAOYSA-N

> <PUBCHEM_XLOGP3_AA>
1.3

> <PUBCHEM_EXACT_MASS>
434.041146

> <PUBCHEM_MOLECULAR_FORMULA>
C13H15ClN6O7S

> <PUBCHEM_MOLECULAR_WEIGHT>
434.8122

> <PUBCHEM_OPENEYE_CAN_SMILES>
CN1C(=C(C(=N1)Cl)C(=O)OC)S(=O)(=O)NC(=O)NC2=NC(=CC(=N2)OC)OC

> <PUBCHEM_OPENEYE_ISO_SMILES>
CN1C(=C(C(=N1)Cl)C(=O)OC)S(=O)(=O)NC(=O)NC2=NC(=CC(=N2)OC)OC

> <PUBCHEM_CACTVS_TPSA>
172

> <PUBCHEM_MONOISOTOPIC_WEIGHT>
434.041146

> <PUBCHEM_TOTAL_CHARGE>
0

> <PUBCHEM_HEAVY_ATOM_COUNT>
28

> <PUBCHEM_ATOM_DEF_STEREO_COUNT>
0

> <PUBCHEM_ATOM_UDEF_STEREO_COUNT>
0

> <PUBCHEM_BOND_DEF_STEREO_COUNT>
0

> <PUBCHEM_BOND_UDEF_STEREO_COUNT>
0

> <PUBCHEM_ISOTOPIC_ATOM_COUNT>
0

> <PUBCHEM_COMPONENT_COUNT>
1

> <PUBCHEM_CACTVS_TAUTO_COUNT>
5

> <PUBCHEM_COORDINATE_TYPE>
1
5
255

> <PUBCHEM_BONDANNOTATIONS>
10  12  8
10  16  8
12  18  8
14  22  8
14  23  8
15  22  8
15  24  8
16  17  8
17  18  8
23  26  8
24  26  8

$$$$

