65832
  -OEChem-07051213042D

 67 68  0     1  0  0  0  0  0999 V2000
    2.8660   -2.4820    0.0000 O   0  0  0  0  0  0  0  0  0  0  0  0
    4.5981   -3.4820    0.0000 O   0  0  0  0  0  0  0  0  0  0  0  0
   12.0981    1.3840    0.0000 O   0  0  0  0  0  0  0  0  0  0  0  0
    7.5981    2.2500    0.0000 N   0  0  3  0  0  0  0  0  0  0  0  0
    2.5981    0.5179    0.0000 N   0  0  0  0  0  0  0  0  0  0  0  0
    4.5981    0.5179    0.0000 C   0  0  3  0  0  0  0  0  0  0  0  0
    4.5981    1.5180    0.0000 C   0  0  0  0  0  0  0  0  0  0  0  0
    5.5981    0.5179    0.0000 C   0  0  0  0  0  0  0  0  0  0  0  0
    6.0981    1.3840    0.0000 C   0  0  0  0  0  0  0  0  0  0  0  0
    4.5981   -0.4821    0.0000 C   0  0  0  0  0  0  0  0  0  0  0  0
    7.0981    1.3840    0.0000 C   0  0  0  0  0  0  0  0  0  0  0  0
    5.4641    2.0180    0.0000 C   0  0  0  0  0  0  0  0  0  0  0  0
    3.7320    2.0180    0.0000 C   0  0  0  0  0  0  0  0  0  0  0  0
    3.5981    0.5179    0.0000 C   0  0  0  0  0  0  0  0  0  0  0  0
    3.7320   -0.9821    0.0000 C   0  0  0  0  0  0  0  0  0  0  0  0
    5.4641   -0.9821    0.0000 C   0  0  0  0  0  0  0  0  0  0  0  0
    8.5981    2.2500    0.0000 C   0  0  0  0  0  0  0  0  0  0  0  0
    3.7320   -1.9820    0.0000 C   0  0  0  0  0  0  0  0  0  0  0  0
    5.4641   -1.9820    0.0000 C   0  0  0  0  0  0  0  0  0  0  0  0
    7.0981    3.1160    0.0000 C   0  0  0  0  0  0  0  0  0  0  0  0
    9.0981    3.1160    0.0000 C   0  0  0  0  0  0  0  0  0  0  0  0
    4.5981   -2.4820    0.0000 C   0  0  0  0  0  0  0  0  0  0  0  0
   10.0981    3.1160    0.0000 C   0  0  0  0  0  0  0  0  0  0  0  0
   10.5981    2.2500    0.0000 C   0  0  0  0  0  0  0  0  0  0  0  0
   10.5981    3.9820    0.0000 C   0  0  0  0  0  0  0  0  0  0  0  0
    2.0000   -1.9820    0.0000 C   0  0  0  0  0  0  0  0  0  0  0  0
   11.5981    2.2500    0.0000 C   0  0  0  0  0  0  0  0  0  0  0  0
   11.5981    3.9820    0.0000 C   0  0  0  0  0  0  0  0  0  0  0  0
    5.4641   -3.9820    0.0000 C   0  0  0  0  0  0  0  0  0  0  0  0
   12.0981    3.1160    0.0000 C   0  0  0  0  0  0  0  0  0  0  0  0
   13.0981    1.3840    0.0000 C   0  0  0  0  0  0  0  0  0  0  0  0
    4.5981    2.1380    0.0000 H   0  0  0  0  0  0  0  0  0  0  0  0
    5.4904   -0.0926    0.0000 H   0  0  0  0  0  0  0  0  0  0  0  0
    6.1807    0.3059    0.0000 H   0  0  0  0  0  0  0  0  0  0  0  0
    6.2057    1.9946    0.0000 H   0  0  0  0  0  0  0  0  0  0  0  0
    5.5155    1.5960    0.0000 H   0  0  0  0  0  0  0  0  0  0  0  0
    6.9904    0.7734    0.0000 H   0  0  0  0  0  0  0  0  0  0  0  0
    7.6807    1.1719    0.0000 H   0  0  0  0  0  0  0  0  0  0  0  0
    5.7741    1.4810    0.0000 H   0  0  0  0  0  0  0  0  0  0  0  0
    6.0010    2.3280    0.0000 H   0  0  0  0  0  0  0  0  0  0  0  0
    5.1541    2.5549    0.0000 H   0  0  0  0  0  0  0  0  0  0  0  0
    4.0420    2.5549    0.0000 H   0  0  0  0  0  0  0  0  0  0  0  0
    3.1951    2.3280    0.0000 H   0  0  0  0  0  0  0  0  0  0  0  0
    3.4220    1.4810    0.0000 H   0  0  0  0  0  0  0  0  0  0  0  0
    3.1951   -0.6721    0.0000 H   0  0  0  0  0  0  0  0  0  0  0  0
    6.0010   -0.6721    0.0000 H   0  0  0  0  0  0  0  0  0  0  0  0
    8.4904    1.6394    0.0000 H   0  0  0  0  0  0  0  0  0  0  0  0
    9.1807    2.0380    0.0000 H   0  0  0  0  0  0  0  0  0  0  0  0
    7.6350    3.4260    0.0000 H   0  0  0  0  0  0  0  0  0  0  0  0
    6.7881    3.6530    0.0000 H   0  0  0  0  0  0  0  0  0  0  0  0
    6.5611    2.8060    0.0000 H   0  0  0  0  0  0  0  0  0  0  0  0
    6.0010   -2.2920    0.0000 H   0  0  0  0  0  0  0  0  0  0  0  0
    9.2057    3.7266    0.0000 H   0  0  0  0  0  0  0  0  0  0  0  0
    8.5155    3.3281    0.0000 H   0  0  0  0  0  0  0  0  0  0  0  0
   10.2881    1.7131    0.0000 H   0  0  0  0  0  0  0  0  0  0  0  0
   10.2881    4.5190    0.0000 H   0  0  0  0  0  0  0  0  0  0  0  0
    2.3100   -1.4451    0.0000 H   0  0  0  0  0  0  0  0  0  0  0  0
    1.4631   -1.6720    0.0000 H   0  0  0  0  0  0  0  0  0  0  0  0
    1.6900   -2.5190    0.0000 H   0  0  0  0  0  0  0  0  0  0  0  0
   11.9081    4.5190    0.0000 H   0  0  0  0  0  0  0  0  0  0  0  0
    5.1541   -4.5190    0.0000 H   0  0  0  0  0  0  0  0  0  0  0  0
    6.0010   -4.2920    0.0000 H   0  0  0  0  0  0  0  0  0  0  0  0
    5.7741   -3.4451    0.0000 H   0  0  0  0  0  0  0  0  0  0  0  0
   12.7181    3.1160    0.0000 H   0  0  0  0  0  0  0  0  0  0  0  0
   13.0981    0.7640    0.0000 H   0  0  0  0  0  0  0  0  0  0  0  0
   13.7181    1.3840    0.0000 H   0  0  0  0  0  0  0  0  0  0  0  0
   13.0981    2.0040    0.0000 H   0  0  0  0  0  0  0  0  0  0  0  0
  1 18  1  0  0  0  0
  1 26  1  0  0  0  0
  2 22  1  0  0  0  0
  2 29  1  0  0  0  0
  3 27  1  0  0  0  0
  3 31  1  0  0  0  0
  4 11  1  0  0  0  0
  4 17  1  0  0  0  0
  4 20  1  0  0  0  0
  5 14  3  0  0  0  0
  6  7  1  0  0  0  0
  6  8  1  0  0  0  0
  6 10  1  0  0  0  0
  6 14  1  0  0  0  0
  7 12  1  0  0  0  0
  7 13  1  0  0  0  0
  7 32  1  0  0  0  0
  8  9  1  0  0  0  0
  8 33  1  0  0  0  0
  8 34  1  0  0  0  0
  9 11  1  0  0  0  0
  9 35  1  0  0  0  0
  9 36  1  0  0  0  0
 10 15  2  0  0  0  0
 10 16  1  0  0  0  0
 11 37  1  0  0  0  0
 11 38  1  0  0  0  0
 12 39  1  0  0  0  0
 12 40  1  0  0  0  0
 12 41  1  0  0  0  0
 13 42  1  0  0  0  0
 13 43  1  0  0  0  0
 13 44  1  0  0  0  0
 15 18  1  0  0  0  0
 15 45  1  0  0  0  0
 16 19  2  0  0  0  0
 16 46  1  0  0  0  0
 17 21  1  0  0  0  0
 17 47  1  0  0  0  0
 17 48  1  0  0  0  0
 18 22  2  0  0  0  0
 19 22  1  0  0  0  0
 19 52  1  0  0  0  0
 20 49  1  0  0  0  0
 20 50  1  0  0  0  0
 20 51  1  0  0  0  0
 21 23  1  0  0  0  0
 21 53  1  0  0  0  0
 21 54  1  0  0  0  0
 23 24  2  0  0  0  0
 23 25  1  0  0  0  0
 24 27  1  0  0  0  0
 24 55  1  0  0  0  0
 25 28  2  0  0  0  0
 25 56  1  0  0  0  0
 26 57  1  0  0  0  0
 26 58  1  0  0  0  0
 26 59  1  0  0  0  0
 27 30  2  0  0  0  0
 28 30  1  0  0  0  0
 28 60  1  0  0  0  0
 29 61  1  0  0  0  0
 29 62  1  0  0  0  0
 29 63  1  0  0  0  0
 30 64  1  0  0  0  0
 31 65  1  0  0  0  0
 31 66  1  0  0  0  0
 31 67  1  0  0  0  0
M  END
> <PUBCHEM_COMPOUND_CID>
65832

> <PUBCHEM_COMPOUND_CANONICALIZED>
1

> <PUBCHEM_CACTVS_COMPLEXITY>
560

> <PUBCHEM_CACTVS_HBOND_ACCEPTOR>
5

> <PUBCHEM_CACTVS_HBOND_DONOR>
0

> <PUBCHEM_CACTVS_ROTATABLE_BOND>
12

> <PUBCHEM_CACTVS_SUBSKEYS>
AAADcfB7MAAAAAAAAAAAAAAAAAAAAAAAAAAwYAAAAAAAAAABQAAAHgAAAAAADwTBmAYyBoMABACQBiBCAAACCAAgIAAIiAAOiIgNpiKEsRuEMCIkwBGKqA+Q0PIPoAABAAAAQABAAAIAAACAAAAAAAAAAA==

> <PUBCHEM_IUPAC_OPENEYE_NAME>
2-(3,4-dimethoxyphenyl)-2-isopropyl-5-[2-(3-methoxyphenyl)ethyl-methyl-amino]pentanenitrile

> <PUBCHEM_IUPAC_CAS_NAME>
2-(3,4-dimethoxyphenyl)-5-[2-(3-methoxyphenyl)ethyl-methylamino]-2-propan-2-ylpentanenitrile

> <PUBCHEM_IUPAC_NAME>
2-(3,4-dimethoxyphenyl)-5-[2-(3-methoxyphenyl)ethyl-methylamino]-2-propan-2-ylpentanenitrile

> <PUBCHEM_IUPAC_SYSTEMATIC_NAME>
2-(3,4-dimethoxyphenyl)-5-[2-(3-methoxyphenyl)ethyl-methyl-amino]-2-propan-2-yl-pentanenitrile

> <PUBCHEM_IUPAC_TRADITIONAL_NAME>
2-(3,4-dimethoxyphenyl)-2-isopropyl-5-[2-(3-methoxyphenyl)ethyl-methyl-amino]valeronitrile

> <PUBCHEM_IUPAC_INCHI>
InChI=1S/C26H36N2O3/c1-20(2)26(19-27,22-11-12-24(30-5)25(18-22)31-6)14-8-15-28(3)16-13-21-9-7-10-23(17-21)29-4/h7,9-12,17-18,20H,8,13-16H2,1-6H3

> <PUBCHEM_IUPAC_INCHIKEY>
VMVKIDPOEOLUFS-UHFFFAOYSA-N

> <PUBCHEM_XLOGP3>
3.8

> <PUBCHEM_EXACT_MASS>
424.272593

> <PUBCHEM_MOLECULAR_FORMULA>
C26H36N2O3

> <PUBCHEM_MOLECULAR_WEIGHT>
424.57564

> <PUBCHEM_OPENEYE_CAN_SMILES>
CC(C)C(CCCN(C)CCC1=CC(=CC=C1)OC)(C#N)C2=CC(=C(C=C2)OC)OC

> <PUBCHEM_OPENEYE_ISO_SMILES>
CC(C)C(CCCN(C)CCC1=CC(=CC=C1)OC)(C#N)C2=CC(=C(C=C2)OC)OC

> <PUBCHEM_CACTVS_TPSA>
54.7

> <PUBCHEM_MONOISOTOPIC_WEIGHT>
424.272593

> <PUBCHEM_TOTAL_CHARGE>
0

> <PUBCHEM_HEAVY_ATOM_COUNT>
31

> <PUBCHEM_ATOM_DEF_STEREO_COUNT>
0

> <PUBCHEM_ATOM_UDEF_STEREO_COUNT>
1

> <PUBCHEM_BOND_DEF_STEREO_COUNT>
0

> <PUBCHEM_BOND_UDEF_STEREO_COUNT>
0

> <PUBCHEM_ISOTOPIC_ATOM_COUNT>
0

> <PUBCHEM_COMPONENT_COUNT>
1

> <PUBCHEM_CACTVS_TAUTO_COUNT>
1

> <PUBCHEM_COORDINATE_TYPE>
1
5
255

> <PUBCHEM_BONDANNOTATIONS>
10  15  8
10  16  8
15  18  8
16  19  8
18  22  8
19  22  8
23  24  8
23  25  8
24  27  8
25  28  8
27  30  8
28  30  8
6  14  3

$$$$

