17396260
  -OEChem-06241222552D

 38 40  0     0  0  0  0  0  0999 V2000
    2.0000    1.3770    0.0000 F   0  0  0  0  0  0  0  0  0  0  0  0
    2.3660    0.0110    0.0000 F   0  0  0  0  0  0  0  0  0  0  0  0
    3.3660    1.7430    0.0000 F   0  0  0  0  0  0  0  0  0  0  0  0
   11.5542   -1.1577    0.0000 O   0  0  0  0  0  0  0  0  0  0  0  0
   11.5542    0.9116    0.0000 O   0  0  0  0  0  0  0  0  0  0  0  0
    7.1962    0.3770    0.0000 O   0  0  0  0  0  0  0  0  0  0  0  0
    8.0622   -1.1230    0.0000 N   0  0  0  0  0  0  0  0  0  0  0  0
   10.6603   -0.6230    0.0000 C   0  0  0  0  0  0  0  0  0  0  0  0
   10.6603    0.3770    0.0000 C   0  0  0  0  0  0  0  0  0  0  0  0
    8.9282   -0.6230    0.0000 C   0  0  0  0  0  0  0  0  0  0  0  0
    6.3301   -1.1230    0.0000 C   0  0  0  0  0  0  0  0  0  0  0  0
    5.4641   -0.6230    0.0000 C   0  0  0  0  0  0  0  0  0  0  0  0
   12.4603   -0.6438    0.0000 C   0  0  0  0  0  0  0  0  0  0  0  0
    9.7942   -1.1230    0.0000 C   0  0  0  0  0  0  0  0  0  0  0  0
   12.4603    0.3978    0.0000 C   0  0  0  0  0  0  0  0  0  0  0  0
    9.7942    0.8770    0.0000 C   0  0  0  0  0  0  0  0  0  0  0  0
    8.9282    0.3770    0.0000 C   0  0  0  0  0  0  0  0  0  0  0  0
    7.1962   -0.6230    0.0000 C   0  0  0  0  0  0  0  0  0  0  0  0
    5.4641    0.3770    0.0000 C   0  0  0  0  0  0  0  0  0  0  0  0
    4.5981   -1.1230    0.0000 C   0  0  0  0  0  0  0  0  0  0  0  0
    3.7320    0.3770    0.0000 C   0  0  0  0  0  0  0  0  0  0  0  0
    4.5981    0.8770    0.0000 C   0  0  0  0  0  0  0  0  0  0  0  0
    3.7320   -0.6230    0.0000 C   0  0  0  0  0  0  0  0  0  0  0  0
    2.8660    0.8770    0.0000 C   0  0  0  0  0  0  0  0  0  0  0  0
    5.9316   -1.5980    0.0000 H   0  0  0  0  0  0  0  0  0  0  0  0
    6.7287   -1.5980    0.0000 H   0  0  0  0  0  0  0  0  0  0  0  0
   12.6693   -1.2275    0.0000 H   0  0  0  0  0  0  0  0  0  0  0  0
   13.0711   -0.5377    0.0000 H   0  0  0  0  0  0  0  0  0  0  0  0
    9.7942   -1.7430    0.0000 H   0  0  0  0  0  0  0  0  0  0  0  0
   13.0711    0.2917    0.0000 H   0  0  0  0  0  0  0  0  0  0  0  0
   12.6693    0.9815    0.0000 H   0  0  0  0  0  0  0  0  0  0  0  0
    9.7942    1.4970    0.0000 H   0  0  0  0  0  0  0  0  0  0  0  0
    8.3913    0.6870    0.0000 H   0  0  0  0  0  0  0  0  0  0  0  0
    8.0622   -1.7430    0.0000 H   0  0  0  0  0  0  0  0  0  0  0  0
    6.0010    0.6870    0.0000 H   0  0  0  0  0  0  0  0  0  0  0  0
    4.5981   -1.7430    0.0000 H   0  0  0  0  0  0  0  0  0  0  0  0
    4.5981    1.4970    0.0000 H   0  0  0  0  0  0  0  0  0  0  0  0
    3.1951   -0.9330    0.0000 H   0  0  0  0  0  0  0  0  0  0  0  0
  1 24  1  0  0  0  0
  2 24  1  0  0  0  0
  3 24  1  0  0  0  0
  4  8  1  0  0  0  0
  4 13  1  0  0  0  0
  5  9  1  0  0  0  0
  5 15  1  0  0  0  0
  6 18  2  0  0  0  0
  7 10  1  0  0  0  0
  7 18  1  0  0  0  0
  7 34  1  0  0  0  0
  8  9  2  0  0  0  0
  8 14  1  0  0  0  0
  9 16  1  0  0  0  0
 10 14  2  0  0  0  0
 10 17  1  0  0  0  0
 11 12  1  0  0  0  0
 11 18  1  0  0  0  0
 11 25  1  0  0  0  0
 11 26  1  0  0  0  0
 12 19  2  0  0  0  0
 12 20  1  0  0  0  0
 13 15  1  0  0  0  0
 13 27  1  0  0  0  0
 13 28  1  0  0  0  0
 14 29  1  0  0  0  0
 15 30  1  0  0  0  0
 15 31  1  0  0  0  0
 16 17  2  0  0  0  0
 16 32  1  0  0  0  0
 17 33  1  0  0  0  0
 19 22  1  0  0  0  0
 19 35  1  0  0  0  0
 20 23  2  0  0  0  0
 20 36  1  0  0  0  0
 21 22  2  0  0  0  0
 21 23  1  0  0  0  0
 21 24  1  0  0  0  0
 22 37  1  0  0  0  0
 23 38  1  0  0  0  0
M  END
> <PUBCHEM_COMPOUND_CID>
17396260

> <PUBCHEM_COMPOUND_CANONICALIZED>
1

> <PUBCHEM_CACTVS_COMPLEXITY>
435

> <PUBCHEM_CACTVS_HBOND_ACCEPTOR>
6

> <PUBCHEM_CACTVS_HBOND_DONOR>
1

> <PUBCHEM_CACTVS_ROTATABLE_BOND>
3

> <PUBCHEM_CACTVS_SUBSKEYS>
AAADccB6MYAAAAAAAAAAAAAAAAAAAAAAAAA0YIAAAAAAAACRQAAAHwAQAAAADAyhmBIwxoLABACIAiVSUACCCAAhIgAIiAEG7IgNJjLEtZuGOCrm1BnK6Ae42MOOQEAAAgAAQACAgAAEAACAAAAAAAAAAA==

> <PUBCHEM_IUPAC_OPENEYE_NAME>
N-(2,3-dihydro-1,4-benzodioxin-6-yl)-2-[4-(trifluoromethyl)phenyl]acetamide

> <PUBCHEM_IUPAC_CAS_NAME>
N-(2,3-dihydro-1,4-benzodioxin-6-yl)-2-[4-(trifluoromethyl)phenyl]acetamide

> <PUBCHEM_IUPAC_NAME>
N-(2,3-dihydro-1,4-benzodioxin-6-yl)-2-[4-(trifluoromethyl)phenyl]acetamide

> <PUBCHEM_IUPAC_SYSTEMATIC_NAME>
N-(2,3-dihydro-1,4-benzodioxin-6-yl)-2-[4-(trifluoromethyl)phenyl]ethanamide

> <PUBCHEM_IUPAC_TRADITIONAL_NAME>
N-(2,3-dihydro-1,4-benzodioxin-6-yl)-2-[4-(trifluoromethyl)phenyl]acetamide

> <PUBCHEM_IUPAC_INCHI>
InChI=1S/C17H14F3NO3/c18-17(19,20)12-3-1-11(2-4-12)9-16(22)21-13-5-6-14-15(10-13)24-8-7-23-14/h1-6,10H,7-9H2,(H,21,22)

> <PUBCHEM_IUPAC_INCHIKEY>
RANSGODKCSIUIU-UHFFFAOYSA-N

> <PUBCHEM_XLOGP3_AA>
3.3

> <PUBCHEM_EXACT_MASS>
337.092578

> <PUBCHEM_MOLECULAR_FORMULA>
C17H14F3NO3

> <PUBCHEM_MOLECULAR_WEIGHT>
337.29317

> <PUBCHEM_OPENEYE_CAN_SMILES>
C1COC2=C(O1)C=CC(=C2)NC(=O)CC3=CC=C(C=C3)C(F)(F)F

> <PUBCHEM_OPENEYE_ISO_SMILES>
C1COC2=C(O1)C=CC(=C2)NC(=O)CC3=CC=C(C=C3)C(F)(F)F

> <PUBCHEM_CACTVS_TPSA>
47.6

> <PUBCHEM_MONOISOTOPIC_WEIGHT>
337.092578

> <PUBCHEM_TOTAL_CHARGE>
0

> <PUBCHEM_HEAVY_ATOM_COUNT>
24

> <PUBCHEM_ATOM_DEF_STEREO_COUNT>
0

> <PUBCHEM_ATOM_UDEF_STEREO_COUNT>
0

> <PUBCHEM_BOND_DEF_STEREO_COUNT>
0

> <PUBCHEM_BOND_UDEF_STEREO_COUNT>
0

> <PUBCHEM_ISOTOPIC_ATOM_COUNT>
0

> <PUBCHEM_COMPONENT_COUNT>
1

> <PUBCHEM_CACTVS_TAUTO_COUNT>
3

> <PUBCHEM_COORDINATE_TYPE>
1
5
255

> <PUBCHEM_BONDANNOTATIONS>
10  14  8
10  17  8
12  19  8
12  20  8
16  17  8
19  22  8
20  23  8
21  22  8
21  23  8
8  14  8
8  9  8
9  16  8

$$$$

