29216
  -OEChem-07051213002D

 26 27  0     0  0  0  0  0  0999 V2000
    4.6783    1.1708    0.0000 S   0  0  0  0  0  0  0  0  0  0  0  0
    6.2619   -1.3660    0.0000 O   0  0  0  0  0  0  0  0  0  0  0  0
    6.2619    0.3660    0.0000 N   0  0  0  0  0  0  0  0  0  0  0  0
    4.6783   -0.4387    0.0000 N   0  0  0  0  0  0  0  0  0  0  0  0
    7.7619   -0.5000    0.0000 N   0  0  0  0  0  0  0  0  0  0  0  0
    3.7320    0.8660    0.0000 C   0  0  0  0  0  0  0  0  0  0  0  0
    3.7320   -0.1340    0.0000 C   0  0  0  0  0  0  0  0  0  0  0  0
    5.2619    0.3660    0.0000 C   0  0  0  0  0  0  0  0  0  0  0  0
    2.8660    1.3660    0.0000 C   0  0  0  0  0  0  0  0  0  0  0  0
    2.8660   -0.6340    0.0000 C   0  0  0  0  0  0  0  0  0  0  0  0
    6.7619    1.2320    0.0000 C   0  0  0  0  0  0  0  0  0  0  0  0
    6.7619   -0.5000    0.0000 C   0  0  0  0  0  0  0  0  0  0  0  0
    2.0000    0.8660    0.0000 C   0  0  0  0  0  0  0  0  0  0  0  0
    2.0000   -0.1340    0.0000 C   0  0  0  0  0  0  0  0  0  0  0  0
    8.2619   -1.3660    0.0000 C   0  0  0  0  0  0  0  0  0  0  0  0
    2.8660    1.9860    0.0000 H   0  0  0  0  0  0  0  0  0  0  0  0
    2.8660   -1.2540    0.0000 H   0  0  0  0  0  0  0  0  0  0  0  0
    7.2988    0.9221    0.0000 H   0  0  0  0  0  0  0  0  0  0  0  0
    7.0719    1.7690    0.0000 H   0  0  0  0  0  0  0  0  0  0  0  0
    6.2249    1.5420    0.0000 H   0  0  0  0  0  0  0  0  0  0  0  0
    1.4631    1.1760    0.0000 H   0  0  0  0  0  0  0  0  0  0  0  0
    1.4631   -0.4440    0.0000 H   0  0  0  0  0  0  0  0  0  0  0  0
    8.0719    0.0369    0.0000 H   0  0  0  0  0  0  0  0  0  0  0  0
    7.7249   -1.6760    0.0000 H   0  0  0  0  0  0  0  0  0  0  0  0
    8.5719   -1.9030    0.0000 H   0  0  0  0  0  0  0  0  0  0  0  0
    8.7988   -1.0560    0.0000 H   0  0  0  0  0  0  0  0  0  0  0  0
  1  6  1  0  0  0  0
  1  8  1  0  0  0  0
  2 12  2  0  0  0  0
  3  8  1  0  0  0  0
  3 11  1  0  0  0  0
  3 12  1  0  0  0  0
  4  7  1  0  0  0  0
  4  8  2  0  0  0  0
  5 12  1  0  0  0  0
  5 15  1  0  0  0  0
  5 23  1  0  0  0  0
  6  7  1  0  0  0  0
  6  9  2  0  0  0  0
  7 10  2  0  0  0  0
  9 13  1  0  0  0  0
  9 16  1  0  0  0  0
 10 14  1  0  0  0  0
 10 17  1  0  0  0  0
 11 18  1  0  0  0  0
 11 19  1  0  0  0  0
 11 20  1  0  0  0  0
 13 14  2  0  0  0  0
 13 21  1  0  0  0  0
 14 22  1  0  0  0  0
 15 24  1  0  0  0  0
 15 25  1  0  0  0  0
 15 26  1  0  0  0  0
M  END
> <PUBCHEM_COMPOUND_CID>
29216

> <PUBCHEM_COMPOUND_CANONICALIZED>
1

> <PUBCHEM_CACTVS_COMPLEXITY>
249

> <PUBCHEM_CACTVS_HBOND_ACCEPTOR>
3

> <PUBCHEM_CACTVS_HBOND_DONOR>
1

> <PUBCHEM_CACTVS_ROTATABLE_BOND>
1

> <PUBCHEM_CACTVS_SUBSKEYS>
AAADccBzIABAAAAAAAAAAAAAAAAAAWAAAAAwAAAAAAAAAFgB8AAAHgQQAAAACAiBVgQz0bPIEAisASRidACD8KlhCjhJmLw4ZJiIIKLgkZGEIAhogwJIyCcQAAAAAAAAAAAAAQAAAAAAAAACAAAAAAAAAA==

> <PUBCHEM_IUPAC_OPENEYE_NAME>
1-(1,3-benzothiazol-2-yl)-1,3-dimethyl-urea

> <PUBCHEM_IUPAC_CAS_NAME>
1-(1,3-benzothiazol-2-yl)-1,3-dimethylurea

> <PUBCHEM_IUPAC_NAME>
1-(1,3-benzothiazol-2-yl)-1,3-dimethylurea

> <PUBCHEM_IUPAC_SYSTEMATIC_NAME>
1-(1,3-benzothiazol-2-yl)-1,3-dimethyl-urea

> <PUBCHEM_IUPAC_TRADITIONAL_NAME>
1-(1,3-benzothiazol-2-yl)-1,3-dimethyl-urea

> <PUBCHEM_IUPAC_INCHI>
InChI=1S/C10H11N3OS/c1-11-9(14)13(2)10-12-7-5-3-4-6-8(7)15-10/h3-6H,1-2H3,(H,11,14)

> <PUBCHEM_IUPAC_INCHIKEY>
RRVIAQKBTUQODI-UHFFFAOYSA-N

> <PUBCHEM_XLOGP3_AA>
1.9

> <PUBCHEM_EXACT_MASS>
221.062283

> <PUBCHEM_MOLECULAR_FORMULA>
C10H11N3OS

> <PUBCHEM_MOLECULAR_WEIGHT>
221.27884

> <PUBCHEM_OPENEYE_CAN_SMILES>
CNC(=O)N(C)C1=NC2=CC=CC=C2S1

> <PUBCHEM_OPENEYE_ISO_SMILES>
CNC(=O)N(C)C1=NC2=CC=CC=C2S1

> <PUBCHEM_CACTVS_TPSA>
73.5

> <PUBCHEM_MONOISOTOPIC_WEIGHT>
221.062283

> <PUBCHEM_TOTAL_CHARGE>
0

> <PUBCHEM_HEAVY_ATOM_COUNT>
15

> <PUBCHEM_ATOM_DEF_STEREO_COUNT>
0

> <PUBCHEM_ATOM_UDEF_STEREO_COUNT>
0

> <PUBCHEM_BOND_DEF_STEREO_COUNT>
0

> <PUBCHEM_BOND_UDEF_STEREO_COUNT>
0

> <PUBCHEM_ISOTOPIC_ATOM_COUNT>
0

> <PUBCHEM_COMPONENT_COUNT>
1

> <PUBCHEM_CACTVS_TAUTO_COUNT>
2

> <PUBCHEM_COORDINATE_TYPE>
1
5
255

> <PUBCHEM_BONDANNOTATIONS>
1  6  8
1  8  8
10  14  8
13  14  8
4  7  8
4  8  8
6  7  8
6  9  8
7  10  8
9  13  8

$$$$

