10250053
  -OEChem-07051213023D

 66 66  0     1  0  0  0  0  0999 V2000
   -3.7699    2.5621    0.7793 O   0  0  0  0  0  0  0  0  0  0  0  0
   -0.7689    3.2997    1.1828 O   0  0  0  0  0  0  0  0  0  0  0  0
    2.7580    1.1205   -0.2738 O   0  0  0  0  0  0  0  0  0  0  0  0
   -1.8232   -3.9428    0.4649 O   0  0  0  0  0  0  0  0  0  0  0  0
    2.2093    2.5193    1.4791 O   0  0  0  0  0  0  0  0  0  0  0  0
   -3.9232    0.2994   -0.0734 C   0  0  2  0  0  0  0  0  0  0  0  0
   -2.9783    1.4141    0.4616 C   0  0  1  0  0  0  0  0  0  0  0  0
   -1.7798    1.8058   -0.4570 C   0  0  2  0  0  0  0  0  0  0  0  0
   -3.2329   -1.0680   -0.2941 C   0  0  0  0  0  0  0  0  0  0  0  0
   -0.5247    2.1285    0.4054 C   0  0  1  0  0  0  0  0  0  0  0  0
   -4.6552    0.7027   -1.3593 C   0  0  0  0  0  0  0  0  0  0  0  0
   -2.6327   -1.7126    0.9697 C   0  0  1  0  0  0  0  0  0  0  0  0
   -2.1019    2.9685   -1.4101 C   0  0  0  0  0  0  0  0  0  0  0  0
    0.7420    2.3271   -0.4381 C   0  0  0  0  0  0  0  0  0  0  0  0
   -5.7278   -0.3044   -1.7165 C   0  0  0  0  0  0  0  0  0  0  0  0
   -3.7053   -2.3547    1.8482 C   0  0  0  0  0  0  0  0  0  0  0  0
   -1.5801   -2.7426    0.5574 C   0  0  0  0  0  0  0  0  0  0  0  0
    1.9775    2.0256    0.3834 C   0  0  0  0  0  0  0  0  0  0  0  0
    3.8996    0.5712    0.4327 C   0  0  1  0  0  0  0  0  0  0  0  0
    4.0581   -0.9031   -0.0201 C   0  0  2  0  0  0  0  0  0  0  0  0
   -0.2302   -2.1881    0.2441 C   0  0  0  0  0  0  0  0  0  0  0  0
    5.1125    1.4336    0.0954 C   0  0  0  0  0  0  0  0  0  0  0  0
    2.7684   -1.6516    0.2575 C   0  0  0  0  0  0  0  0  0  0  0  0
    5.2153   -1.6101    0.6854 C   0  0  0  0  0  0  0  0  0  0  0  0
    2.0658   -2.4209   -0.5985 C   0  0  0  0  0  0  0  0  0  0  0  0
    0.7612   -2.9574   -0.2267 C   0  0  0  0  0  0  0  0  0  0  0  0
    5.3521    1.4919   -1.4013 C   0  0  0  0  0  0  0  0  0  0  0  0
    2.5143   -2.8138   -1.9780 C   0  0  0  0  0  0  0  0  0  0  0  0
   -4.6991    0.1609    0.6926 H   0  0  0  0  0  0  0  0  0  0  0  0
   -2.5835    1.0685    1.4221 H   0  0  0  0  0  0  0  0  0  0  0  0
   -1.5106    0.9389   -1.0690 H   0  0  0  0  0  0  0  0  0  0  0  0
   -2.4634   -0.9629   -1.0677 H   0  0  0  0  0  0  0  0  0  0  0  0
   -3.9378   -1.7985   -0.7046 H   0  0  0  0  0  0  0  0  0  0  0  0
   -0.3553    1.3031    1.1085 H   0  0  0  0  0  0  0  0  0  0  0  0
   -3.9585    0.7851   -2.2001 H   0  0  0  0  0  0  0  0  0  0  0  0
   -5.1307    1.6812   -1.2270 H   0  0  0  0  0  0  0  0  0  0  0  0
   -2.1132   -0.9712    1.5849 H   0  0  0  0  0  0  0  0  0  0  0  0
   -1.2804    3.1327   -2.1150 H   0  0  0  0  0  0  0  0  0  0  0  0
   -2.9949    2.7726   -2.0069 H   0  0  0  0  0  0  0  0  0  0  0  0
   -2.2646    3.9065   -0.8693 H   0  0  0  0  0  0  0  0  0  0  0  0
    0.8355    3.3536   -0.8083 H   0  0  0  0  0  0  0  0  0  0  0  0
    0.7290    1.6489   -1.2995 H   0  0  0  0  0  0  0  0  0  0  0  0
   -5.3148   -1.2166   -2.1560 H   0  0  0  0  0  0  0  0  0  0  0  0
   -6.3439   -0.5721   -0.8524 H   0  0  0  0  0  0  0  0  0  0  0  0
   -6.3936    0.1249   -2.4737 H   0  0  0  0  0  0  0  0  0  0  0  0
   -4.4508    2.2858    1.4161 H   0  0  0  0  0  0  0  0  0  0  0  0
   -4.4029   -1.6039    2.2316 H   0  0  0  0  0  0  0  0  0  0  0  0
   -4.2817   -3.1051    1.2962 H   0  0  0  0  0  0  0  0  0  0  0  0
   -3.2501   -2.8586    2.7080 H   0  0  0  0  0  0  0  0  0  0  0  0
   -1.5191    3.1180    1.7732 H   0  0  0  0  0  0  0  0  0  0  0  0
    3.7212    0.6006    1.5160 H   0  0  0  0  0  0  0  0  0  0  0  0
    4.2394   -0.9210   -1.0978 H   0  0  0  0  0  0  0  0  0  0  0  0
   -0.0965   -1.1204    0.3865 H   0  0  0  0  0  0  0  0  0  0  0  0
    6.0112    1.0814    0.6112 H   0  0  0  0  0  0  0  0  0  0  0  0
    4.9299    2.4575    0.4441 H   0  0  0  0  0  0  0  0  0  0  0  0
    2.3602   -1.4842    1.2552 H   0  0  0  0  0  0  0  0  0  0  0  0
    6.1792   -1.1793    0.3981 H   0  0  0  0  0  0  0  0  0  0  0  0
    5.1229   -1.5405    1.7751 H   0  0  0  0  0  0  0  0  0  0  0  0
    5.2467   -2.6729    0.4193 H   0  0  0  0  0  0  0  0  0  0  0  0
    0.6090   -4.0182   -0.4061 H   0  0  0  0  0  0  0  0  0  0  0  0
    5.6911    0.5323   -1.8014 H   0  0  0  0  0  0  0  0  0  0  0  0
    4.4654    1.8110   -1.9570 H   0  0  0  0  0  0  0  0  0  0  0  0
    6.1448    2.2179   -1.6144 H   0  0  0  0  0  0  0  0  0  0  0  0
    1.9324   -2.2761   -2.7342 H   0  0  0  0  0  0  0  0  0  0  0  0
    2.3760   -3.8892   -2.1399 H   0  0  0  0  0  0  0  0  0  0  0  0
    3.5733   -2.6128   -2.1586 H   0  0  0  0  0  0  0  0  0  0  0  0
  1  7  1  0  0  0  0
  1 46  1  0  0  0  0
  2 10  1  0  0  0  0
  2 50  1  0  0  0  0
  3 18  1  0  0  0  0
  3 19  1  0  0  0  0
  4 17  2  0  0  0  0
  5 18  2  0  0  0  0
  6  7  1  0  0  0  0
  6  9  1  0  0  0  0
  6 11  1  0  0  0  0
  6 29  1  0  0  0  0
  7  8  1  0  0  0  0
  7 30  1  0  0  0  0
  8 10  1  0  0  0  0
  8 13  1  0  0  0  0
  8 31  1  0  0  0  0
  9 12  1  0  0  0  0
  9 32  1  0  0  0  0
  9 33  1  0  0  0  0
 10 14  1  0  0  0  0
 10 34  1  0  0  0  0
 11 15  1  0  0  0  0
 11 35  1  0  0  0  0
 11 36  1  0  0  0  0
 12 16  1  0  0  0  0
 12 17  1  0  0  0  0
 12 37  1  0  0  0  0
 13 38  1  0  0  0  0
 13 39  1  0  0  0  0
 13 40  1  0  0  0  0
 14 18  1  0  0  0  0
 14 41  1  0  0  0  0
 14 42  1  0  0  0  0
 15 43  1  0  0  0  0
 15 44  1  0  0  0  0
 15 45  1  0  0  0  0
 16 47  1  0  0  0  0
 16 48  1  0  0  0  0
 16 49  1  0  0  0  0
 17 21  1  0  0  0  0
 19 20  1  0  0  0  0
 19 22  1  0  0  0  0
 19 51  1  0  0  0  0
 20 23  1  0  0  0  0
 20 24  1  0  0  0  0
 20 52  1  0  0  0  0
 21 26  2  0  0  0  0
 21 53  1  0  0  0  0
 22 27  1  0  0  0  0
 22 54  1  0  0  0  0
 22 55  1  0  0  0  0
 23 25  2  0  0  0  0
 23 56  1  0  0  0  0
 24 57  1  0  0  0  0
 24 58  1  0  0  0  0
 24 59  1  0  0  0  0
 25 26  1  0  0  0  0
 25 28  1  0  0  0  0
 26 60  1  0  0  0  0
 27 61  1  0  0  0  0
 27 62  1  0  0  0  0
 27 63  1  0  0  0  0
 28 64  1  0  0  0  0
 28 65  1  0  0  0  0
 28 66  1  0  0  0  0
M  END
> <PUBCHEM_COMPOUND_CID>
10250053

> <PUBCHEM_CONFORMER_RMSD>
0.8

> <PUBCHEM_CONFORMER_DIVERSEORDER>
1

> <PUBCHEM_MMFF94_PARTIAL_CHARGES>
23
1 -0.68
10 0.28
12 0.06
14 0.06
17 0.49
18 0.66
19 0.28
2 -0.68
20 0.14
21 -0.14
23 -0.29
25 -0.14
26 -0.15
28 0.14
3 -0.43
4 -0.57
46 0.4
5 -0.57
50 0.4
53 0.15
56 0.15
60 0.15
7 0.28

> <PUBCHEM_EFFECTIVE_ROTOR_COUNT>
4

> <PUBCHEM_PHARMACOPHORE_FEATURES>
8
1 1 acceptor
1 1 donor
1 15 hydrophobe
1 2 acceptor
1 2 donor
1 27 hydrophobe
1 4 acceptor
1 5 acceptor

> <PUBCHEM_HEAVY_ATOM_COUNT>
28

> <PUBCHEM_ATOM_DEF_STEREO_COUNT>
7

> <PUBCHEM_ATOM_UDEF_STEREO_COUNT>
0

> <PUBCHEM_BOND_DEF_STEREO_COUNT>
2

> <PUBCHEM_BOND_UDEF_STEREO_COUNT>
0

> <PUBCHEM_ISOTOPIC_ATOM_COUNT>
0

> <PUBCHEM_COMPONENT_COUNT>
1

> <PUBCHEM_CACTVS_TAUTO_COUNT>
2

> <PUBCHEM_CONFORMER_ID>
009C674500000001

> <PUBCHEM_MMFF94_ENERGY>
67.1126

> <PUBCHEM_FEATURE_SELFOVERLAP>
40.596

> <PUBCHEM_SHAPE_FINGERPRINT>
10366900 7 18260832578912701437
10616163 171 18339636737954875128
10670039 82 18269539599462336806
10675989 125 17549839118756799909
10759866 29 18130500856624578606
107951 10 17274831229512436371
108634 29 18338513161731276678
1100329 8 17689434205808012609
11014199 57 17184749087899698734
11135609 187 18340496642427690173
11513181 2 17896031208064686199
12596599 1 17389660010016438567
12633257 1 18268431402835785314
12645989 146 18189339137746793902
12788726 201 18261110806999735480
12838863 1 18266484128819970834
13122387 1 17762055844973947714
13402501 40 18411705386980101743
1361 2 18114190748072151735
14251764 38 18337953501500978494
14363568 33 17692511339480520536
14617045 38 18410566267264311109
14725015 67 18268166407611672667
14787075 74 18336272326609895445
14790565 3 17182782607127513049
14931854 50 18409452500629472477
17093844 170 18410581690734392936
19930381 70 18050567649248074579
20764821 26 18412257324579542183
21623110 236 18337668719620892113
23559900 14 18266747874177062489
238918 7 18188491272868844062
27425 322 16988557992078855357
3052486 1 18200300023492750964
3680242 22 18125157396863282706
437795 51 18342741845661530623
445580 102 18337383846998126058
463206 1 18262247629435160167
5081480 168 17244385859555253462
508706 21 18269832171880334599
5309563 4 17906444438194928603
9709674 26 18264202680999294630

> <PUBCHEM_SHAPE_MULTIPOLES>
546.88
11.1
4.85
1.45
2.96
0.98
0.29
-1.05
2.3
-0.61
-0.46
-0.72
0.13
1.24

> <PUBCHEM_SHAPE_SELFOVERLAP>
1078.531

> <PUBCHEM_SHAPE_VOLUME>
325.1

> <PUBCHEM_COORDINATE_TYPE>
2
5
10

$$$$

