443366
  -OEChem-07051213023D

 27 29  0     1  0  0  0  0  0999 V2000
    4.7885    0.1014    0.5824 Cl  0  0  0  0  0  0  0  0  0  0  0  0
   -3.2400    0.2628   -0.7462 N   0  0  0  0  0  0  0  0  0  0  0  0
    2.5544   -1.1625    0.2221 N   0  0  0  0  0  0  0  0  0  0  0  0
   -1.9198    0.9064   -0.5731 C   0  0  2  0  0  0  0  0  0  0  0  0
   -3.0581   -0.7711    0.2863 C   0  0  1  0  0  0  0  0  0  0  0  0
   -0.9792   -0.2916   -0.8457 C   0  0  2  0  0  0  0  0  0  0  0  0
   -1.7468   -1.4405   -0.1457 C   0  0  0  0  0  0  0  0  0  0  0  0
   -2.0074    1.2741    0.9140 C   0  0  0  0  0  0  0  0  0  0  0  0
   -2.8098    0.1130    1.5076 C   0  0  0  0  0  0  0  0  0  0  0  0
    0.4844   -0.1384   -0.4925 C   0  0  0  0  0  0  0  0  0  0  0  0
    1.1081    1.1030   -0.5459 C   0  0  0  0  0  0  0  0  0  0  0  0
    1.2445   -1.2303   -0.1059 C   0  0  0  0  0  0  0  0  0  0  0  0
    2.4544    1.2130   -0.2159 C   0  0  0  0  0  0  0  0  0  0  0  0
    3.1266    0.0607    0.1584 C   0  0  0  0  0  0  0  0  0  0  0  0
   -1.7596    1.7645   -1.2307 H   0  0  0  0  0  0  0  0  0  0  0  0
   -3.8954   -1.4624    0.4045 H   0  0  0  0  0  0  0  0  0  0  0  0
   -0.9969   -0.4963   -1.9276 H   0  0  0  0  0  0  0  0  0  0  0  0
   -1.9392   -2.2452   -0.8655 H   0  0  0  0  0  0  0  0  0  0  0  0
   -1.2335   -1.8692    0.7205 H   0  0  0  0  0  0  0  0  0  0  0  0
   -2.5554    2.2138    1.0532 H   0  0  0  0  0  0  0  0  0  0  0  0
   -1.0316    1.3790    1.3961 H   0  0  0  0  0  0  0  0  0  0  0  0
   -2.2572   -0.4032    2.2991 H   0  0  0  0  0  0  0  0  0  0  0  0
   -3.7514    0.4830    1.9299 H   0  0  0  0  0  0  0  0  0  0  0  0
   -3.3056   -0.1672   -1.6688 H   0  0  0  0  0  0  0  0  0  0  0  0
    0.5710    1.9957   -0.8512 H   0  0  0  0  0  0  0  0  0  0  0  0
    0.8366   -2.2346   -0.0642 H   0  0  0  0  0  0  0  0  0  0  0  0
    2.9509    2.1767   -0.2567 H   0  0  0  0  0  0  0  0  0  0  0  0
  1 14  1  0  0  0  0
  2  4  1  0  0  0  0
  2  5  1  0  0  0  0
  2 24  1  0  0  0  0
  3 12  1  0  0  0  0
  3 14  2  0  0  0  0
  4  6  1  0  0  0  0
  4  8  1  0  0  0  0
  4 15  1  0  0  0  0
  5  7  1  0  0  0  0
  5  9  1  0  0  0  0
  5 16  1  0  0  0  0
  6  7  1  0  0  0  0
  6 10  1  0  0  0  0
  6 17  1  0  0  0  0
  7 18  1  0  0  0  0
  7 19  1  0  0  0  0
  8  9  1  0  0  0  0
  8 20  1  0  0  0  0
  8 21  1  0  0  0  0
  9 22  1  0  0  0  0
  9 23  1  0  0  0  0
 10 11  1  0  0  0  0
 10 12  2  0  0  0  0
 11 13  2  0  0  0  0
 11 25  1  0  0  0  0
 12 26  1  0  0  0  0
 13 14  1  0  0  0  0
 13 27  1  0  0  0  0
M  END
> <PUBCHEM_COMPOUND_CID>
443366

> <PUBCHEM_CONFORMER_RMSD>
0.6

> <PUBCHEM_CONFORMER_DIVERSEORDER>
1
4
2
3

> <PUBCHEM_MMFF94_PARTIAL_CHARGES>
15
1 -0.18
10 -0.14
11 -0.15
12 0.16
13 -0.15
14 0.49
2 -0.9
24 0.36
25 0.15
26 0.15
27 0.15
3 -0.62
4 0.27
5 0.27
6 0.14

> <PUBCHEM_EFFECTIVE_ROTOR_COUNT>
2

> <PUBCHEM_PHARMACOPHORE_FEATURES>
5
1 2 cation
1 2 donor
1 3 acceptor
6 3 10 11 12 13 14 rings
7 2 4 5 6 7 8 9 rings

> <PUBCHEM_HEAVY_ATOM_COUNT>
14

> <PUBCHEM_ATOM_DEF_STEREO_COUNT>
2

> <PUBCHEM_ATOM_UDEF_STEREO_COUNT>
1

> <PUBCHEM_BOND_DEF_STEREO_COUNT>
0

> <PUBCHEM_BOND_UDEF_STEREO_COUNT>
0

> <PUBCHEM_ISOTOPIC_ATOM_COUNT>
0

> <PUBCHEM_COMPONENT_COUNT>
1

> <PUBCHEM_CACTVS_TAUTO_COUNT>
1

> <PUBCHEM_CONFORMER_ID>
0006C3E600000001

> <PUBCHEM_MMFF94_ENERGY>
37.4988

> <PUBCHEM_FEATURE_SELFOVERLAP>
25.371

> <PUBCHEM_SHAPE_FINGERPRINT>
11132069 177 18411706478365901582
11471102 22 18201993331091204880
12251169 10 18410851053497003846
12382932 28 18409167744334442912
124424 183 17560812042863707348
12500047 106 15984835851716078175
12696612 119 18341321228191277292
12932764 1 18272080595796763438
13024252 1 15267345128543575621
13296908 3 17775564260291608622
13693222 15 18059852831322837939
13764800 53 16298928953525035475
14144814 61 18408603681963457806
14943859 89 15502367941855891151
15309172 13 18411416206890292142
15653759 3 17418094321192460668
15775835 57 17603580863388260785
16945 1 18409720772760449317
17802600 8 18260274027100606832
17844478 74 17846492647160791165
18186145 218 18186796964068015732
18522853 276 18333733502785127784
200 152 18261405416386941791
20201158 50 18131634499445001811
20279233 1 17632296795585874483
20281407 28 17060337452766566434
20361792 2 14548732872475766975
20528008 55 18411706469554440471
20645464 45 18335697256385475615
20645476 183 10303815354462493553
22445834 79 18412544331495183706
22485316 2 15410900660668646856
2306618 200 18410578405084716649
23402539 116 17313115128879491389
23557571 272 14851606561750204785
26918003 58 18201998798880127915
2748010 2 18052257589813637286
305870 269 16950834933387438295
3248919 1 18040149621565664839
369184 2 18413668007130901055
465052 167 11958570502243698209
568465 68 17631995508051518128
81228 2 16414362345302647589

> <PUBCHEM_SHAPE_MULTIPOLES>
280.02
6.91
1.38
1.03
5.31
0.06
-0.2
-0.14
-1.71
-0.11
0
-0.59
-0.14
-0.22

> <PUBCHEM_SHAPE_SELFOVERLAP>
600.948

> <PUBCHEM_SHAPE_VOLUME>
158.5

> <PUBCHEM_COORDINATE_TYPE>
2
5
10

$$$$

