39681
  -OEChem-07051213013D

 36 36  0     0  0  0  0  0  0999 V2000
   -2.7197    0.7610   -0.1658 S   0  0  0  0  0  0  0  0  0  0  0  0
   -0.6755    2.8935   -0.2551 S   0  0  0  0  0  0  0  0  0  0  0  0
    1.9221    0.7587   -0.4535 O   0  0  0  0  0  0  0  0  0  0  0  0
   -0.4176   -1.7701   -0.3274 O   0  0  0  0  0  0  0  0  0  0  0  0
    1.6574    1.3787    1.7506 O   0  0  0  0  0  0  0  0  0  0  0  0
   -1.0231   -1.4169    1.8684 O   0  0  0  0  0  0  0  0  0  0  0  0
   -0.1449    0.3701    0.5312 C   0  0  0  0  0  0  0  0  0  0  0  0
   -1.0661    1.2347    0.0911 C   0  0  0  0  0  0  0  0  0  0  0  0
   -3.1931    2.2861   -1.0387 C   0  0  0  0  0  0  0  0  0  0  0  0
   -2.4038    3.4350   -0.4325 C   0  0  0  0  0  0  0  0  0  0  0  0
    3.3387    0.5996   -0.3237 C   0  0  0  0  0  0  0  0  0  0  0  0
   -0.7749   -3.1514   -0.2117 C   0  0  0  0  0  0  0  0  0  0  0  0
    1.2356    0.8876    0.7135 C   0  0  0  0  0  0  0  0  0  0  0  0
   -0.5945   -1.0211    0.7939 C   0  0  0  0  0  0  0  0  0  0  0  0
    3.6289   -0.6352    0.5159 C   0  0  0  0  0  0  0  0  0  0  0  0
    3.9607    0.5022   -1.7085 C   0  0  0  0  0  0  0  0  0  0  0  0
   -2.2401   -3.2581    0.1824 C   0  0  0  0  0  0  0  0  0  0  0  0
   -0.4900   -3.8545   -1.5301 C   0  0  0  0  0  0  0  0  0  0  0  0
   -4.2700    2.4536   -0.9430 H   0  0  0  0  0  0  0  0  0  0  0  0
   -2.9627    2.1708   -2.1038 H   0  0  0  0  0  0  0  0  0  0  0  0
   -2.4542    4.3255   -1.0658 H   0  0  0  0  0  0  0  0  0  0  0  0
   -2.7950    3.7012    0.5560 H   0  0  0  0  0  0  0  0  0  0  0  0
    3.7495    1.4893    0.1696 H   0  0  0  0  0  0  0  0  0  0  0  0
   -0.1467   -3.6144    0.5597 H   0  0  0  0  0  0  0  0  0  0  0  0
    4.7027   -0.8489    0.5368 H   0  0  0  0  0  0  0  0  0  0  0  0
    3.3014   -0.5221    1.5536 H   0  0  0  0  0  0  0  0  0  0  0  0
    3.1096   -1.5123    0.1132 H   0  0  0  0  0  0  0  0  0  0  0  0
    5.0487    0.4011   -1.6519 H   0  0  0  0  0  0  0  0  0  0  0  0
    3.7219    1.3949   -2.2966 H   0  0  0  0  0  0  0  0  0  0  0  0
    3.5555   -0.3541   -2.2587 H   0  0  0  0  0  0  0  0  0  0  0  0
   -2.6102   -4.2743    0.0045 H   0  0  0  0  0  0  0  0  0  0  0  0
   -2.4248   -3.0606    1.2405 H   0  0  0  0  0  0  0  0  0  0  0  0
   -2.8608   -2.5670   -0.3976 H   0  0  0  0  0  0  0  0  0  0  0  0
   -0.7220   -4.9223   -1.4732 H   0  0  0  0  0  0  0  0  0  0  0  0
    0.5647   -3.7396   -1.8026 H   0  0  0  0  0  0  0  0  0  0  0  0
   -1.0746   -3.4099   -2.3430 H   0  0  0  0  0  0  0  0  0  0  0  0
  1  8  1  0  0  0  0
  1  9  1  0  0  0  0
  2  8  1  0  0  0  0
  2 10  1  0  0  0  0
  3 11  1  0  0  0  0
  3 13  1  0  0  0  0
  4 12  1  0  0  0  0
  4 14  1  0  0  0  0
  5 13  2  0  0  0  0
  6 14  2  0  0  0  0
  7  8  2  0  0  0  0
  7 13  1  0  0  0  0
  7 14  1  0  0  0  0
  9 10  1  0  0  0  0
  9 19  1  0  0  0  0
  9 20  1  0  0  0  0
 10 21  1  0  0  0  0
 10 22  1  0  0  0  0
 11 15  1  0  0  0  0
 11 16  1  0  0  0  0
 11 23  1  0  0  0  0
 12 17  1  0  0  0  0
 12 18  1  0  0  0  0
 12 24  1  0  0  0  0
 15 25  1  0  0  0  0
 15 26  1  0  0  0  0
 15 27  1  0  0  0  0
 16 28  1  0  0  0  0
 16 29  1  0  0  0  0
 16 30  1  0  0  0  0
 17 31  1  0  0  0  0
 17 32  1  0  0  0  0
 17 33  1  0  0  0  0
 18 34  1  0  0  0  0
 18 35  1  0  0  0  0
 18 36  1  0  0  0  0
M  END
> <PUBCHEM_COMPOUND_CID>
39681

> <PUBCHEM_CONFORMER_RMSD>
0.8

> <PUBCHEM_CONFORMER_DIVERSEORDER>
3
34
7
5
25
12
24
8
13
1
22
9
33
10
36
26
20
18
2
31
35
16
27
14
28
6
23
21
19
15
37
30
4
32
17
29
11

> <PUBCHEM_MMFF94_PARTIAL_CHARGES>
14
1 -0.33
10 0.23
11 0.28
12 0.28
13 0.71
14 0.71
2 -0.33
3 -0.43
4 -0.43
5 -0.57
6 -0.57
7 0.03
8 0.2
9 0.23

> <PUBCHEM_EFFECTIVE_ROTOR_COUNT>
6.8

> <PUBCHEM_PHARMACOPHORE_FEATURES>
6
1 5 acceptor
1 6 acceptor
1 7 anion
3 11 15 16 hydrophobe
3 12 17 18 hydrophobe
5 1 2 8 9 10 rings

> <PUBCHEM_HEAVY_ATOM_COUNT>
18

> <PUBCHEM_ATOM_DEF_STEREO_COUNT>
0

> <PUBCHEM_ATOM_UDEF_STEREO_COUNT>
0

> <PUBCHEM_BOND_DEF_STEREO_COUNT>
0

> <PUBCHEM_BOND_UDEF_STEREO_COUNT>
0

> <PUBCHEM_ISOTOPIC_ATOM_COUNT>
0

> <PUBCHEM_COMPONENT_COUNT>
1

> <PUBCHEM_CACTVS_TAUTO_COUNT>
1

> <PUBCHEM_CONFORMER_ID>
00009B0100000003

> <PUBCHEM_MMFF94_ENERGY>
49.1615

> <PUBCHEM_FEATURE_SELFOVERLAP>
30.446

> <PUBCHEM_SHAPE_FINGERPRINT>
107951 10 17630018650870537978
11578080 2 17679861501200344233
116883 192 17903648384393607031
12553582 1 17908138781312998282
12788726 201 18129379311139705026
13681431 1 17116075790155686609
13931106 250 18262245421621840934
14181834 199 17407118132809161356
14817 1 10247912833047020817
14955137 171 15666172441096383193
15502722 9 17834678579715349965
15906896 17 18202279199640228459
16945 1 18339939120705938257
20602899 9 18188197823137930440
20645476 183 18201150048738665116
20645477 70 17621052279986538413
20711985 344 18199475359147998010
21421566 26 17905293301070414948
21524375 3 18057890331911437136
22907989 373 18269540676649983989
23114952 82 17264143138619013701
23419403 2 16807880653560262419
23526113 38 17749391498800393944
23557571 272 18193274088330904424
23559900 14 18334017229337525576
23598288 3 18059564776851881946
23598291 2 17846498145462702326
23728640 28 18338811103707519970
2748010 2 18267289005769544115
298252 57 18130503149567948496
3250762 1 18045799904768961488
352729 6 18268144434400724184
458136 41 18049713320187187769
6138700 20 17475235082086162898
7364860 26 17544207424599059073
81228 2 18051140198426892667
81539 233 17912087458148844565

> <PUBCHEM_SHAPE_MULTIPOLES>
354.65
5.27
4.8
1.38
1.29
6.04
-0.05
-5.3
2
-0.8
1.26
0.63
0.14
0.44

> <PUBCHEM_SHAPE_SELFOVERLAP>
685.701

> <PUBCHEM_SHAPE_VOLUME>
218.1

> <PUBCHEM_COORDINATE_TYPE>
2
5
10

$$$$

