233494
  -OEChem-07051213062D

 46 49  0     1  0  0  0  0  0999 V2000
    9.1857    2.8644    0.0000 O   0  0  0  0  0  0  0  0  0  0  0  0
    2.5357   -1.4431    0.0000 O   0  0  0  0  0  0  0  0  0  0  0  0
    3.4831   -2.9923    0.0000 O   0  5  0  0  0  0  0  0  0  0  0  0
    5.2151   -2.9856    0.0000 O   0  0  0  0  0  0  0  0  0  0  0  0
    4.3472   -2.4890    0.0000 N   0  3  0  0  0  0  0  0  0  0  0  0
    7.9288    1.6092    0.0000 C   0  0  1  0  0  0  0  0  0  0  0  0
    7.9288    0.6092    0.0000 C   0  0  2  0  0  0  0  0  0  0  0  0
    7.0628    0.1092    0.0000 C   0  0  1  0  0  0  0  0  0  0  0  0
    6.1968    0.6092    0.0000 C   0  0  2  0  0  0  0  0  0  0  0  0
    8.8750    1.9139    0.0000 C   0  0  2  0  0  0  0  0  0  0  0  0
    7.0628    2.1092    0.0000 C   0  0  0  0  0  0  0  0  0  0  0  0
    8.8750    0.3045    0.0000 C   0  0  0  0  0  0  0  0  0  0  0  0
    6.1968    1.6092    0.0000 C   0  0  0  0  0  0  0  0  0  0  0  0
    9.4586    1.1092    0.0000 C   0  0  0  0  0  0  0  0  0  0  0  0
    7.0789   -0.9323    0.0000 C   0  0  0  0  0  0  0  0  0  0  0  0
    7.9288    2.6092    0.0000 C   0  0  0  0  0  0  0  0  0  0  0  0
    5.2868    0.1023    0.0000 C   0  0  0  0  0  0  0  0  0  0  0  0
    6.1808   -1.4601    0.0000 C   0  0  0  0  0  0  0  0  0  0  0  0
    5.2787   -0.9393    0.0000 C   0  0  0  0  0  0  0  0  0  0  0  0
    4.3599    0.6664    0.0000 C   0  0  0  0  0  0  0  0  0  0  0  0
    4.3433   -1.4890    0.0000 C   0  0  0  0  0  0  0  0  0  0  0  0
    3.4120    0.1385    0.0000 C   0  0  0  0  0  0  0  0  0  0  0  0
    3.4037   -0.9465    0.0000 C   0  0  0  0  0  0  0  0  0  0  0  0
    8.0188   -0.2360    0.0000 H   0  0  0  0  0  0  0  0  0  0  0  0
    7.8022   -0.3101    0.0000 H   0  0  0  0  0  0  0  0  0  0  0  0
    6.9329    1.0342    0.0000 H   0  0  0  0  0  0  0  0  0  0  0  0
    9.4875    2.0101    0.0000 H   0  0  0  0  0  0  0  0  0  0  0  0
    7.4613    2.5841    0.0000 H   0  0  0  0  0  0  0  0  0  0  0  0
    6.6643    2.5841    0.0000 H   0  0  0  0  0  0  0  0  0  0  0  0
    8.6240   -0.2624    0.0000 H   0  0  0  0  0  0  0  0  0  0  0  0
    9.4124   -0.0048    0.0000 H   0  0  0  0  0  0  0  0  0  0  0  0
    5.9847    2.1918    0.0000 H   0  0  0  0  0  0  0  0  0  0  0  0
    5.5862    1.5015    0.0000 H   0  0  0  0  0  0  0  0  0  0  0  0
    9.9195    0.6945    0.0000 H   0  0  0  0  0  0  0  0  0  0  0  0
    9.9195    1.5239    0.0000 H   0  0  0  0  0  0  0  0  0  0  0  0
    7.2969   -1.5127    0.0000 H   0  0  0  0  0  0  0  0  0  0  0  0
    7.6880   -0.8168    0.0000 H   0  0  0  0  0  0  0  0  0  0  0  0
    8.5488    2.6092    0.0000 H   0  0  0  0  0  0  0  0  0  0  0  0
    7.9288    3.2292    0.0000 H   0  0  0  0  0  0  0  0  0  0  0  0
    7.3088    2.6092    0.0000 H   0  0  0  0  0  0  0  0  0  0  0  0
    5.7835   -1.9360    0.0000 H   0  0  0  0  0  0  0  0  0  0  0  0
    6.5818   -1.9330    0.0000 H   0  0  0  0  0  0  0  0  0  0  0  0
    9.7924    2.9923    0.0000 H   0  0  0  0  0  0  0  0  0  0  0  0
    4.3719    1.2863    0.0000 H   0  0  0  0  0  0  0  0  0  0  0  0
    2.8787    0.4547    0.0000 H   0  0  0  0  0  0  0  0  0  0  0  0
    2.0000   -1.1311    0.0000 H   0  0  0  0  0  0  0  0  0  0  0  0
 10  1  1  1  0  0  0
  1 43  1  0  0  0  0
  2 23  1  0  0  0  0
  2 46  1  0  0  0  0
  3  5  1  0  0  0  0
  4  5  2  0  0  0  0
  5 21  1  0  0  0  0
  6  7  1  0  0  0  0
  6 10  1  0  0  0  0
  6 11  1  0  0  0  0
  6 16  1  1  0  0  0
  7  8  1  0  0  0  0
  7 12  1  0  0  0  0
  7 24  1  6  0  0  0
  8  9  1  0  0  0  0
  8 15  1  0  0  0  0
  8 25  1  1  0  0  0
  9 13  1  0  0  0  0
  9 17  1  0  0  0  0
  9 26  1  6  0  0  0
 10 14  1  0  0  0  0
 10 27  1  0  0  0  0
 11 13  1  0  0  0  0
 11 28  1  0  0  0  0
 11 29  1  0  0  0  0
 12 14  1  0  0  0  0
 12 30  1  0  0  0  0
 12 31  1  0  0  0  0
 13 32  1  0  0  0  0
 13 33  1  0  0  0  0
 14 34  1  0  0  0  0
 14 35  1  0  0  0  0
 15 18  1  0  0  0  0
 15 36  1  0  0  0  0
 15 37  1  0  0  0  0
 16 38  1  0  0  0  0
 16 39  1  0  0  0  0
 16 40  1  0  0  0  0
 17 19  2  0  0  0  0
 17 20  1  0  0  0  0
 18 19  1  0  0  0  0
 18 41  1  0  0  0  0
 18 42  1  0  0  0  0
 19 21  1  0  0  0  0
 20 22  2  0  0  0  0
 20 44  1  0  0  0  0
 21 23  2  0  0  0  0
 22 23  1  0  0  0  0
 22 45  1  0  0  0  0
M  CHG  2   3  -1   5   1
M  END
> <PUBCHEM_COMPOUND_CID>
233494

> <PUBCHEM_COMPOUND_CANONICALIZED>
1

> <PUBCHEM_CACTVS_COMPLEXITY>
492

> <PUBCHEM_CACTVS_HBOND_ACCEPTOR>
4

> <PUBCHEM_CACTVS_HBOND_DONOR>
2

> <PUBCHEM_CACTVS_ROTATABLE_BOND>
0

> <PUBCHEM_CACTVS_SUBSKEYS>
AAADceB6OAAAAAAAAAAAAAAAAAAAAYAAAAAwYMAAAAAAAGDBAAAAHgAECAAADxyhmAIyxoAQQgCBAiRCQwCCAAAgIAAoiAAHTIoKNiKSkZOAcABkwFEI2AeQwPAPoAABQAASEADAAAaAACQgAIAADAAAAA==

> <PUBCHEM_IUPAC_OPENEYE_NAME>
(8R,9S,13S,14S,17S)-13-methyl-4-nitro-6,7,8,9,11,12,14,15,16,17-decahydrocyclopenta[a]phenanthrene-3,17-diol

> <PUBCHEM_IUPAC_CAS_NAME>
(8R,9S,13S,14S,17S)-13-methyl-4-nitro-6,7,8,9,11,12,14,15,16,17-decahydrocyclopenta[a]phenanthrene-3,17-diol

> <PUBCHEM_IUPAC_NAME>
(8R,9S,13S,14S,17S)-13-methyl-4-nitro-6,7,8,9,11,12,14,15,16,17-decahydrocyclopenta[a]phenanthrene-3,17-diol

> <PUBCHEM_IUPAC_SYSTEMATIC_NAME>
(8R,9S,13S,14S,17S)-13-methyl-4-nitro-6,7,8,9,11,12,14,15,16,17-decahydrocyclopenta[a]phenanthrene-3,17-diol

> <PUBCHEM_IUPAC_TRADITIONAL_NAME>
(8R,9S,13S,14S,17S)-13-methyl-4-nitro-6,7,8,9,11,12,14,15,16,17-decahydrocyclopenta[a]phenanthrene-3,17-diol

> <PUBCHEM_IUPAC_INCHI>
InChI=1S/C18H23NO4/c1-18-9-8-11-10-4-6-15(20)17(19(22)23)13(10)3-2-12(11)14(18)5-7-16(18)21/h4,6,11-12,14,16,20-21H,2-3,5,7-9H2,1H3/t11-,12-,14+,16+,18+/m1/s1

> <PUBCHEM_IUPAC_INCHIKEY>
OMZSNIQSXZEIKB-ZHIYBZGJSA-N

> <PUBCHEM_XLOGP3>
4.4

> <PUBCHEM_EXACT_MASS>
317.162708

> <PUBCHEM_MOLECULAR_FORMULA>
C18H23NO4

> <PUBCHEM_MOLECULAR_WEIGHT>
317.37952

> <PUBCHEM_OPENEYE_CAN_SMILES>
CC12CCC3C(C1CCC2O)CCC4=C3C=CC(=C4[N+](=O)[O-])O

> <PUBCHEM_OPENEYE_ISO_SMILES>
C[C@]12CC[C@H]3[C@H]([C@@H]1CC[C@@H]2O)CCC4=C3C=CC(=C4[N+](=O)[O-])O

> <PUBCHEM_CACTVS_TPSA>
86.3

> <PUBCHEM_MONOISOTOPIC_WEIGHT>
317.162708

> <PUBCHEM_TOTAL_CHARGE>
0

> <PUBCHEM_HEAVY_ATOM_COUNT>
23

> <PUBCHEM_ATOM_DEF_STEREO_COUNT>
5

> <PUBCHEM_ATOM_UDEF_STEREO_COUNT>
0

> <PUBCHEM_BOND_DEF_STEREO_COUNT>
0

> <PUBCHEM_BOND_UDEF_STEREO_COUNT>
0

> <PUBCHEM_ISOTOPIC_ATOM_COUNT>
0

> <PUBCHEM_COMPONENT_COUNT>
1

> <PUBCHEM_CACTVS_TAUTO_COUNT>
13

> <PUBCHEM_COORDINATE_TYPE>
1
5
255

> <PUBCHEM_BONDANNOTATIONS>
10  1  5
17  19  8
17  20  8
19  21  8
20  22  8
21  23  8
22  23  8
6  16  5
7  24  6
8  25  5
9  26  6

$$$$

