5275508
  -OEChem-07051213082D

 44 43  0     0  0  0  0  0  0999 V2000
    2.8660   -0.4400    0.0000 O   0  0  0  0  0  0  0  0  0  0  0  0
    3.7320    1.0600    0.0000 O   0  0  0  0  0  0  0  0  0  0  0  0
    9.7942   -0.4400    0.0000 C   0  0  0  0  0  0  0  0  0  0  0  0
    8.9282    0.0600    0.0000 C   0  0  0  0  0  0  0  0  0  0  0  0
    7.1962    0.0600    0.0000 C   0  0  0  0  0  0  0  0  0  0  0  0
   10.6603    0.0600    0.0000 C   0  0  0  0  0  0  0  0  0  0  0  0
    6.3301   -0.4400    0.0000 C   0  0  0  0  0  0  0  0  0  0  0  0
    8.0622   -0.4400    0.0000 C   0  0  0  0  0  0  0  0  0  0  0  0
    5.4641    0.0600    0.0000 C   0  0  0  0  0  0  0  0  0  0  0  0
    8.9282    1.0600    0.0000 C   0  0  0  0  0  0  0  0  0  0  0  0
   11.5263   -0.4400    0.0000 C   0  0  0  0  0  0  0  0  0  0  0  0
   12.3923    0.0600    0.0000 C   0  0  0  0  0  0  0  0  0  0  0  0
    5.4641    1.0600    0.0000 C   0  0  0  0  0  0  0  0  0  0  0  0
    4.5981   -0.4400    0.0000 C   0  0  0  0  0  0  0  0  0  0  0  0
   13.2583   -0.4400    0.0000 C   0  0  0  0  0  0  0  0  0  0  0  0
   12.3923    1.0600    0.0000 C   0  0  0  0  0  0  0  0  0  0  0  0
    3.7320    0.0600    0.0000 C   0  0  0  0  0  0  0  0  0  0  0  0
    2.0000    0.0600    0.0000 C   0  0  0  0  0  0  0  0  0  0  0  0
    9.3957   -0.9149    0.0000 H   0  0  0  0  0  0  0  0  0  0  0  0
   10.1928   -0.9149    0.0000 H   0  0  0  0  0  0  0  0  0  0  0  0
    7.5947    0.5349    0.0000 H   0  0  0  0  0  0  0  0  0  0  0  0
    6.7976    0.5349    0.0000 H   0  0  0  0  0  0  0  0  0  0  0  0
   11.0588    0.5349    0.0000 H   0  0  0  0  0  0  0  0  0  0  0  0
   10.2617    0.5349    0.0000 H   0  0  0  0  0  0  0  0  0  0  0  0
    5.9316   -0.9149    0.0000 H   0  0  0  0  0  0  0  0  0  0  0  0
    6.7287   -0.9149    0.0000 H   0  0  0  0  0  0  0  0  0  0  0  0
    8.0622   -1.0600    0.0000 H   0  0  0  0  0  0  0  0  0  0  0  0
    9.5482    1.0600    0.0000 H   0  0  0  0  0  0  0  0  0  0  0  0
    8.9282    1.6800    0.0000 H   0  0  0  0  0  0  0  0  0  0  0  0
    8.3082    1.0600    0.0000 H   0  0  0  0  0  0  0  0  0  0  0  0
   11.5263   -1.0600    0.0000 H   0  0  0  0  0  0  0  0  0  0  0  0
    6.0841    1.0600    0.0000 H   0  0  0  0  0  0  0  0  0  0  0  0
    5.4641    1.6800    0.0000 H   0  0  0  0  0  0  0  0  0  0  0  0
    4.8441    1.0600    0.0000 H   0  0  0  0  0  0  0  0  0  0  0  0
    4.5981   -1.0600    0.0000 H   0  0  0  0  0  0  0  0  0  0  0  0
   12.9483   -0.9769    0.0000 H   0  0  0  0  0  0  0  0  0  0  0  0
   13.7953   -0.7500    0.0000 H   0  0  0  0  0  0  0  0  0  0  0  0
   13.5683    0.0969    0.0000 H   0  0  0  0  0  0  0  0  0  0  0  0
   13.0123    1.0600    0.0000 H   0  0  0  0  0  0  0  0  0  0  0  0
   12.3923    1.6800    0.0000 H   0  0  0  0  0  0  0  0  0  0  0  0
   11.7723    1.0600    0.0000 H   0  0  0  0  0  0  0  0  0  0  0  0
    2.3100    0.5969    0.0000 H   0  0  0  0  0  0  0  0  0  0  0  0
    1.4631    0.3700    0.0000 H   0  0  0  0  0  0  0  0  0  0  0  0
    1.6900   -0.4769    0.0000 H   0  0  0  0  0  0  0  0  0  0  0  0
  1 17  1  0  0  0  0
  1 18  1  0  0  0  0
  2 17  2  0  0  0  0
  3  4  1  0  0  0  0
  3  6  1  0  0  0  0
  3 19  1  0  0  0  0
  3 20  1  0  0  0  0
  4  8  2  0  0  0  0
  4 10  1  0  0  0  0
  5  7  1  0  0  0  0
  5  8  1  0  0  0  0
  5 21  1  0  0  0  0
  5 22  1  0  0  0  0
  6 11  1  0  0  0  0
  6 23  1  0  0  0  0
  6 24  1  0  0  0  0
  7  9  1  0  0  0  0
  7 25  1  0  0  0  0
  7 26  1  0  0  0  0
  8 27  1  0  0  0  0
  9 13  1  0  0  0  0
  9 14  2  0  0  0  0
 10 28  1  0  0  0  0
 10 29  1  0  0  0  0
 10 30  1  0  0  0  0
 11 12  2  0  0  0  0
 11 31  1  0  0  0  0
 12 15  1  0  0  0  0
 12 16  1  0  0  0  0
 13 32  1  0  0  0  0
 13 33  1  0  0  0  0
 13 34  1  0  0  0  0
 14 17  1  0  0  0  0
 14 35  1  0  0  0  0
 15 36  1  0  0  0  0
 15 37  1  0  0  0  0
 15 38  1  0  0  0  0
 16 39  1  0  0  0  0
 16 40  1  0  0  0  0
 16 41  1  0  0  0  0
 18 42  1  0  0  0  0
 18 43  1  0  0  0  0
 18 44  1  0  0  0  0
M  END
> <PUBCHEM_COMPOUND_CID>
5275508

> <PUBCHEM_COMPOUND_CANONICALIZED>
1

> <PUBCHEM_CACTVS_COMPLEXITY>
342

> <PUBCHEM_CACTVS_HBOND_ACCEPTOR>
2

> <PUBCHEM_CACTVS_HBOND_DONOR>
0

> <PUBCHEM_CACTVS_ROTATABLE_BOND>
8

> <PUBCHEM_CACTVS_SUBSKEYS>
AAADceB4MAAAAAAAAAAAAAAAAAAAAAAAAAAAAAAAAAAAAAAAAAAAGgAAAAAADACAgAICCAAABACIAiDSCAAAAAAgAAAACAAAAEgABAIAIQAAEAAAgAAIIQIAAAAAAAAAAAAAAAAAAAAAAAAAAAAAAAAAAA==

> <PUBCHEM_IUPAC_OPENEYE_NAME>
methyl (2E,6E)-3,7,11-trimethyldodeca-2,6,10-trienoate

> <PUBCHEM_IUPAC_CAS_NAME>
(2E,6E)-3,7,11-trimethyldodeca-2,6,10-trienoic acid methyl ester

> <PUBCHEM_IUPAC_NAME>
methyl (2E,6E)-3,7,11-trimethyldodeca-2,6,10-trienoate

> <PUBCHEM_IUPAC_SYSTEMATIC_NAME>
methyl (2E,6E)-3,7,11-trimethyldodeca-2,6,10-trienoate

> <PUBCHEM_IUPAC_TRADITIONAL_NAME>
(2E,6E)-3,7,11-trimethyldodeca-2,6,10-trienoic acid methyl ester

> <PUBCHEM_IUPAC_INCHI>
InChI=1S/C16H26O2/c1-13(2)8-6-9-14(3)10-7-11-15(4)12-16(17)18-5/h8,10,12H,6-7,9,11H2,1-5H3/b14-10+,15-12+

> <PUBCHEM_IUPAC_INCHIKEY>
NWKXNIPBVLQYAB-VDQVFBMKSA-N

> <PUBCHEM_XLOGP3_AA>
5.3

> <PUBCHEM_EXACT_MASS>
250.19328

> <PUBCHEM_MOLECULAR_FORMULA>
C16H26O2

> <PUBCHEM_MOLECULAR_WEIGHT>
250.37644

> <PUBCHEM_OPENEYE_CAN_SMILES>
CC(=CCCC(=CCCC(=CC(=O)OC)C)C)C

> <PUBCHEM_OPENEYE_ISO_SMILES>
CC(=CCC/C(=C/CC/C(=C/C(=O)OC)/C)/C)C

> <PUBCHEM_CACTVS_TPSA>
26.3

> <PUBCHEM_MONOISOTOPIC_WEIGHT>
250.19328

> <PUBCHEM_TOTAL_CHARGE>
0

> <PUBCHEM_HEAVY_ATOM_COUNT>
18

> <PUBCHEM_ATOM_DEF_STEREO_COUNT>
0

> <PUBCHEM_ATOM_UDEF_STEREO_COUNT>
0

> <PUBCHEM_BOND_DEF_STEREO_COUNT>
2

> <PUBCHEM_BOND_UDEF_STEREO_COUNT>
0

> <PUBCHEM_ISOTOPIC_ATOM_COUNT>
0

> <PUBCHEM_COMPONENT_COUNT>
1

> <PUBCHEM_CACTVS_TAUTO_COUNT>
1

> <PUBCHEM_COORDINATE_TYPE>
1
5
255

$$$$

