14105084
  -OEChem-07051213153D

 72 73  0     1  0  0  0  0  0999 V2000
    2.7444   -1.5087    0.4307 O   0  0  0  0  0  0  0  0  0  0  0  0
    4.9631    0.3074    0.8949 O   0  0  0  0  0  0  0  0  0  0  0  0
    3.3262    0.5779   -2.3510 O   0  0  0  0  0  0  0  0  0  0  0  0
    4.4987   -3.8334   -0.0101 O   0  0  0  0  0  0  0  0  0  0  0  0
   -2.2237   -4.0812    0.8977 O   0  0  0  0  0  0  0  0  0  0  0  0
    0.0860    2.1804    1.1569 O   0  0  0  0  0  0  0  0  0  0  0  0
   -4.3143   -1.4990   -2.0644 O   0  0  0  0  0  0  0  0  0  0  0  0
   -2.4486   -0.3162   -2.6271 O   0  0  0  0  0  0  0  0  0  0  0  0
    6.6753    1.5394   -0.0269 O   0  0  0  0  0  0  0  0  0  0  0  0
    0.5389   -0.7622    0.6710 N   0  0  0  0  0  0  0  0  0  0  0  0
    1.2191    1.6472   -0.7995 N   0  0  0  0  0  0  0  0  0  0  0  0
   -1.6785   -1.2595    1.0809 N   0  0  0  0  0  0  0  0  0  0  0  0
   -0.8755   -1.6787   -1.0012 N   0  0  0  0  0  0  0  0  0  0  0  0
   -2.3576    4.8968   -0.9457 N   0  0  0  0  0  0  0  0  0  0  0  0
   -5.6709   -2.7220    0.8701 N   0  0  0  0  0  0  0  0  0  0  0  0
    6.3322    1.4813    2.2459 N   0  0  0  0  0  0  0  0  0  0  0  0
   -6.3600    2.8026    1.9109 N   0  0  0  0  0  0  0  0  0  0  0  0
    2.2133    0.7778   -0.2114 C   0  0  2  0  0  0  0  0  0  0  0  0
    3.5458    0.8775   -0.9719 C   0  0  1  0  0  0  0  0  0  0  0  0
    1.7312   -0.6803   -0.1454 C   0  0  1  0  0  0  0  0  0  0  0  0
    4.5640   -0.1170   -0.4065 C   0  0  2  0  0  0  0  0  0  0  0  0
    3.9591   -1.5277   -0.3264 C   0  0  1  0  0  0  0  0  0  0  0  0
    4.8982   -2.5224    0.3469 C   0  0  0  0  0  0  0  0  0  0  0  0
   -2.8446   -1.8242    0.4573 C   0  0  1  0  0  0  0  0  0  0  0  0
   -0.6309   -1.2345    0.2088 C   0  0  0  0  0  0  0  0  0  0  0  0
   -2.3175   -2.0689   -0.9721 C   0  0  1  0  0  0  0  0  0  0  0  0
   -3.2406   -3.1133    1.1602 C   0  0  1  0  0  0  0  0  0  0  0  0
    0.2315    2.2800   -0.0585 C   0  0  0  0  0  0  0  0  0  0  0  0
   -0.6952    3.1008   -0.9439 C   0  0  0  0  0  0  0  0  0  0  0  0
   -1.8604    3.7508   -0.1783 C   0  0  2  0  0  0  0  0  0  0  0  0
   -4.5838   -3.6728    0.6818 C   0  0  0  0  0  0  0  0  0  0  0  0
   -2.9970   -1.1924   -1.9750 C   0  0  0  0  0  0  0  0  0  0  0  0
    6.0442    1.1426    0.9469 C   0  0  0  0  0  0  0  0  0  0  0  0
   -3.0065    2.7452    0.0559 C   0  0  0  0  0  0  0  0  0  0  0  0
   -4.1972    3.2815    0.8647 C   0  0  0  0  0  0  0  0  0  0  0  0
   -5.2683    2.2251    1.1339 C   0  0  0  0  0  0  0  0  0  0  0  0
    2.3932    1.1262    0.8154 H   0  0  0  0  0  0  0  0  0  0  0  0
    3.9207    1.9060   -0.9113 H   0  0  0  0  0  0  0  0  0  0  0  0
    1.5289   -1.0502   -1.1585 H   0  0  0  0  0  0  0  0  0  0  0  0
    5.4331   -0.1839   -1.0749 H   0  0  0  0  0  0  0  0  0  0  0  0
    3.7202   -1.8905   -1.3350 H   0  0  0  0  0  0  0  0  0  0  0  0
    0.6177   -0.4659    1.6393 H   0  0  0  0  0  0  0  0  0  0  0  0
    1.2151    1.7465   -1.8107 H   0  0  0  0  0  0  0  0  0  0  0  0
   -3.6488   -1.0819    0.4929 H   0  0  0  0  0  0  0  0  0  0  0  0
    4.8636   -2.4375    1.4380 H   0  0  0  0  0  0  0  0  0  0  0  0
    5.9279   -2.3858    0.0018 H   0  0  0  0  0  0  0  0  0  0  0  0
   -2.4077   -3.1027   -1.3224 H   0  0  0  0  0  0  0  0  0  0  0  0
   -1.6481   -0.9603    2.0479 H   0  0  0  0  0  0  0  0  0  0  0  0
    4.1769    0.6783   -2.8111 H   0  0  0  0  0  0  0  0  0  0  0  0
   -3.2731   -2.9546    2.2455 H   0  0  0  0  0  0  0  0  0  0  0  0
   -0.0632    3.8778   -1.3958 H   0  0  0  0  0  0  0  0  0  0  0  0
   -1.0673    2.4691   -1.7600 H   0  0  0  0  0  0  0  0  0  0  0  0
   -1.5086    4.1250    0.7906 H   0  0  0  0  0  0  0  0  0  0  0  0
   -4.5253   -3.9568   -0.3750 H   0  0  0  0  0  0  0  0  0  0  0  0
   -4.8079   -4.5973    1.2272 H   0  0  0  0  0  0  0  0  0  0  0  0
    5.1121   -4.4493    0.4258 H   0  0  0  0  0  0  0  0  0  0  0  0
   -3.3768    2.3781   -0.9109 H   0  0  0  0  0  0  0  0  0  0  0  0
   -2.6050    1.8681    0.5793 H   0  0  0  0  0  0  0  0  0  0  0  0
   -2.4657   -4.8960    1.3700 H   0  0  0  0  0  0  0  0  0  0  0  0
   -3.8266    3.6778    1.8188 H   0  0  0  0  0  0  0  0  0  0  0  0
   -4.6576    4.1199    0.3284 H   0  0  0  0  0  0  0  0  0  0  0  0
   -3.0491    5.4070   -0.3986 H   0  0  0  0  0  0  0  0  0  0  0  0
   -1.5961    5.5535   -1.1131 H   0  0  0  0  0  0  0  0  0  0  0  0
   -5.7527   -2.4856    1.8581 H   0  0  0  0  0  0  0  0  0  0  0  0
   -6.5529   -3.1587    0.6058 H   0  0  0  0  0  0  0  0  0  0  0  0
    5.7795    1.1267    3.0190 H   0  0  0  0  0  0  0  0  0  0  0  0
    7.1064    2.0965    2.4724 H   0  0  0  0  0  0  0  0  0  0  0  0
   -4.8369    1.3858    1.6898 H   0  0  0  0  0  0  0  0  0  0  0  0
   -5.6593    1.8337    0.1884 H   0  0  0  0  0  0  0  0  0  0  0  0
   -4.7792   -0.9319   -2.7158 H   0  0  0  0  0  0  0  0  0  0  0  0
   -6.7875    3.5658    1.3877 H   0  0  0  0  0  0  0  0  0  0  0  0
   -7.0889    2.1022    2.0407 H   0  0  0  0  0  0  0  0  0  0  0  0
  1 20  1  0  0  0  0
  1 22  1  0  0  0  0
  2 21  1  0  0  0  0
  2 33  1  0  0  0  0
  3 19  1  0  0  0  0
  3 49  1  0  0  0  0
  4 23  1  0  0  0  0
  4 56  1  0  0  0  0
  5 27  1  0  0  0  0
  5 59  1  0  0  0  0
  6 28  2  0  0  0  0
  7 32  1  0  0  0  0
  7 70  1  0  0  0  0
  8 32  2  0  0  0  0
  9 33  2  0  0  0  0
 10 20  1  0  0  0  0
 10 25  1  0  0  0  0
 10 42  1  0  0  0  0
 11 18  1  0  0  0  0
 11 28  1  0  0  0  0
 11 43  1  0  0  0  0
 12 24  1  0  0  0  0
 12 25  1  0  0  0  0
 12 48  1  0  0  0  0
 13 25  2  0  0  0  0
 13 26  1  0  0  0  0
 14 30  1  0  0  0  0
 14 62  1  0  0  0  0
 14 63  1  0  0  0  0
 15 31  1  0  0  0  0
 15 64  1  0  0  0  0
 15 65  1  0  0  0  0
 16 33  1  0  0  0  0
 16 66  1  0  0  0  0
 16 67  1  0  0  0  0
 17 36  1  0  0  0  0
 17 71  1  0  0  0  0
 17 72  1  0  0  0  0
 18 19  1  0  0  0  0
 18 20  1  0  0  0  0
 18 37  1  0  0  0  0
 19 21  1  0  0  0  0
 19 38  1  0  0  0  0
 20 39  1  0  0  0  0
 21 22  1  0  0  0  0
 21 40  1  0  0  0  0
 22 23  1  0  0  0  0
 22 41  1  0  0  0  0
 23 45  1  0  0  0  0
 23 46  1  0  0  0  0
 24 26  1  0  0  0  0
 24 27  1  0  0  0  0
 24 44  1  0  0  0  0
 26 32  1  0  0  0  0
 26 47  1  0  0  0  0
 27 31  1  0  0  0  0
 27 50  1  0  0  0  0
 28 29  1  0  0  0  0
 29 30  1  0  0  0  0
 29 51  1  0  0  0  0
 29 52  1  0  0  0  0
 30 34  1  0  0  0  0
 30 53  1  0  0  0  0
 31 54  1  0  0  0  0
 31 55  1  0  0  0  0
 34 35  1  0  0  0  0
 34 57  1  0  0  0  0
 34 58  1  0  0  0  0
 35 36  1  0  0  0  0
 35 60  1  0  0  0  0
 35 61  1  0  0  0  0
 36 68  1  0  0  0  0
 36 69  1  0  0  0  0
M  END
> <PUBCHEM_COMPOUND_CID>
14105084

> <PUBCHEM_CONFORMER_RMSD>
1.4

> <PUBCHEM_CONFORMER_DIVERSEORDER>
1
4
13
20
24
21
15
18
14
8
9
19
6
17
11
16
12
23
7
5
2
25
22
10
3

> <PUBCHEM_MMFF94_PARTIAL_CHARGES>
49
1 -0.56
10 -0.82
11 -0.73
12 -0.82
13 -0.7
14 -0.99
15 -0.99
16 -0.8
17 -0.99
18 0.3
19 0.28
2 -0.43
20 0.65
21 0.28
22 0.28
23 0.28
24 0.37
25 0.55
26 0.31
27 0.28
28 0.57
29 0.06
3 -0.68
30 0.27
31 0.27
32 0.66
33 0.78
36 0.27
4 -0.68
42 0.4
43 0.37
48 0.4
49 0.4
5 -0.68
56 0.4
59 0.4
6 -0.57
62 0.36
63 0.36
64 0.36
65 0.36
66 0.37
67 0.37
7 -0.65
70 0.5
71 0.36
72 0.36
8 -0.57
9 -0.57

> <PUBCHEM_EFFECTIVE_ROTOR_COUNT>
16.8

> <PUBCHEM_PHARMACOPHORE_FEATURES>
25
1 1 acceptor
1 10 donor
1 11 donor
1 12 donor
1 14 cation
1 14 donor
1 15 cation
1 15 donor
1 16 donor
1 17 cation
1 17 donor
1 3 acceptor
1 3 donor
1 4 acceptor
1 4 donor
1 5 acceptor
1 5 donor
1 6 acceptor
1 7 acceptor
1 8 acceptor
1 9 acceptor
3 7 8 32 anion
4 10 12 13 25 cation
5 12 13 24 25 26 rings
6 1 18 19 20 21 22 rings

> <PUBCHEM_HEAVY_ATOM_COUNT>
36

> <PUBCHEM_ATOM_DEF_STEREO_COUNT>
9

> <PUBCHEM_ATOM_UDEF_STEREO_COUNT>
0

> <PUBCHEM_BOND_DEF_STEREO_COUNT>
0

> <PUBCHEM_BOND_UDEF_STEREO_COUNT>
0

> <PUBCHEM_ISOTOPIC_ATOM_COUNT>
0

> <PUBCHEM_COMPONENT_COUNT>
1

> <PUBCHEM_CACTVS_TAUTO_COUNT>
12

> <PUBCHEM_CONFORMER_ID>
00D739FC00000001

> <PUBCHEM_MMFF94_ENERGY>
62.345

> <PUBCHEM_FEATURE_SELFOVERLAP>
126.976

> <PUBCHEM_SHAPE_FINGERPRINT>
10050765 1 18340767144100127778
11115154 58 17825699698013078613
11578080 2 17822305577947074384
12156800 1 17905000925936315933
12788726 201 18267608903418124663
13911987 19 17481682193079605772
14028597 1 17632027376645635840
140371 6 18271526382371220534
14068700 686 18336547128009332970
14866123 147 18196374946996241851
15968369 153 18041842801170337469
16112460 7 18188206631842133144
19930381 70 17042316148456029403
23559900 14 16984349994034737127
469060 322 18268977722660142616
5104073 3 18411428332184388578
5171179 24 17678755439958814912
6438718 38 18113623417167322013
653340 110 18411702084672432288

> <PUBCHEM_SHAPE_MULTIPOLES>
648.19
13.98
5.84
1.73
11.01
1.04
-0.6
0.63
5.67
-8.08
0.96
-0.85
0.16
-0.22

> <PUBCHEM_SHAPE_SELFOVERLAP>
1318.078

> <PUBCHEM_SHAPE_VOLUME>
372.3

> <PUBCHEM_COORDINATE_TYPE>
2
5
10

$$$$

