12195
  -OEChem-06261206393D

 19 18  0     0  0  0  0  0  0999 V2000
    1.1354    0.4764    0.0000 O   0  0  0  0  0  0  0  0  0  0  0  0
   -0.3852   -1.2450    0.0000 O   0  0  0  0  0  0  0  0  0  0  0  0
   -1.0527    0.9769    0.0000 N   0  0  0  0  0  0  0  0  0  0  0  0
   -2.4819    0.7654    0.0000 C   0  0  0  0  0  0  0  0  0  0  0  0
    2.2047   -0.4762    0.0000 C   0  0  0  0  0  0  0  0  0  0  0  0
   -2.8175   -0.7164    0.0000 C   0  0  0  0  0  0  0  0  0  0  0  0
   -0.1275   -0.0457    0.0000 C   0  0  0  0  0  0  0  0  0  0  0  0
    3.5249    0.2647    0.0000 C   0  0  0  0  0  0  0  0  0  0  0  0
   -2.8907    1.2586    0.8871 H   0  0  0  0  0  0  0  0  0  0  0  0
   -2.8907    1.2586   -0.8871 H   0  0  0  0  0  0  0  0  0  0  0  0
   -0.7103    1.9328   -0.0001 H   0  0  0  0  0  0  0  0  0  0  0  0
    2.1331   -1.1051    0.8943 H   0  0  0  0  0  0  0  0  0  0  0  0
    2.1330   -1.1050   -0.8945 H   0  0  0  0  0  0  0  0  0  0  0  0
   -2.4805   -1.2296   -0.9065 H   0  0  0  0  0  0  0  0  0  0  0  0
   -2.4805   -1.2298    0.9064 H   0  0  0  0  0  0  0  0  0  0  0  0
   -3.9104   -0.8163    0.0000 H   0  0  0  0  0  0  0  0  0  0  0  0
    4.3657   -0.4345    0.0000 H   0  0  0  0  0  0  0  0  0  0  0  0
    3.6034    0.9123   -0.8794 H   0  0  0  0  0  0  0  0  0  0  0  0
    3.6034    0.9121    0.8796 H   0  0  0  0  0  0  0  0  0  0  0  0
  1  5  1  0  0  0  0
  1  7  1  0  0  0  0
  2  7  2  0  0  0  0
  3  4  1  0  0  0  0
  3  7  1  0  0  0  0
  3 11  1  0  0  0  0
  4  6  1  0  0  0  0
  4  9  1  0  0  0  0
  4 10  1  0  0  0  0
  5  8  1  0  0  0  0
  5 12  1  0  0  0  0
  5 13  1  0  0  0  0
  6 14  1  0  0  0  0
  6 15  1  0  0  0  0
  6 16  1  0  0  0  0
  8 17  1  0  0  0  0
  8 18  1  0  0  0  0
  8 19  1  0  0  0  0
M  END
> <PUBCHEM_COMPOUND_CID>
12195

> <PUBCHEM_CONFORMER_RMSD>
0.6

> <PUBCHEM_CONFORMER_DIVERSEORDER>
1
2
3

> <PUBCHEM_MMFF94_PARTIAL_CHARGES>
7
1 -0.43
11 0.37
2 -0.57
3 -0.73
4 0.3
5 0.28
7 0.78

> <PUBCHEM_EFFECTIVE_ROTOR_COUNT>
4

> <PUBCHEM_PHARMACOPHORE_FEATURES>
2
1 2 acceptor
1 3 donor

> <PUBCHEM_HEAVY_ATOM_COUNT>
8

> <PUBCHEM_ATOM_DEF_STEREO_COUNT>
0

> <PUBCHEM_ATOM_UDEF_STEREO_COUNT>
0

> <PUBCHEM_BOND_DEF_STEREO_COUNT>
0

> <PUBCHEM_BOND_UDEF_STEREO_COUNT>
0

> <PUBCHEM_ISOTOPIC_ATOM_COUNT>
0

> <PUBCHEM_COMPONENT_COUNT>
1

> <PUBCHEM_CACTVS_TAUTO_COUNT>
2

> <PUBCHEM_CONFORMER_ID>
00002FA300000001

> <PUBCHEM_MMFF94_ENERGY>
10.2326

> <PUBCHEM_FEATURE_SELFOVERLAP>
10.148

> <PUBCHEM_SHAPE_FINGERPRINT>
11062470 55 9367345933402070674
12932764 1 15719401667307045620
14325111 11 9295286140583519268
14390081 3 10519983751213856895
16714656 1 9367347033071934555
23552423 10 7565048467884922120
29004967 10 9367337158831448797
5460574 1 18410856581119978756

> <PUBCHEM_SHAPE_MULTIPOLES>
147.92
5.21
1.05
0.58
2.29
0.09
0
-0.17
0
-0.44
0
0
0
0

> <PUBCHEM_SHAPE_SELFOVERLAP>
268.635

> <PUBCHEM_SHAPE_VOLUME>
94.4

> <PUBCHEM_COORDINATE_TYPE>
2
5
10

$$$$

