17395376
  -OEChem-06241222492D

 41 43  0     1  0  0  0  0  0999 V2000
    5.9674    0.0646    0.0000 O   0  0  0  0  0  0  0  0  0  0  0  0
    7.9244    0.4770    0.0000 O   0  0  0  0  0  0  0  0  0  0  0  0
    4.3211    0.6027    0.0000 O   0  0  0  0  0  0  0  0  0  0  0  0
    9.9484    3.1847    0.0000 O   0  0  0  0  0  0  0  0  0  0  0  0
    4.6783   -2.7016    0.0000 N   0  0  0  0  0  0  0  0  0  0  0  0
    7.5673    2.1719    0.0000 N   0  0  0  0  0  0  0  0  0  0  0  0
    8.9541    3.2909    0.0000 N   0  0  0  0  0  0  0  0  0  0  0  0
    6.2781    1.0151    0.0000 C   0  0  3  0  0  0  0  0  0  0  0  0
    5.6103    1.7594    0.0000 C   0  0  0  0  0  0  0  0  0  0  0  0
    3.7320   -1.3969    0.0000 C   0  0  0  0  0  0  0  0  0  0  0  0
    4.6783   -1.0921    0.0000 C   0  0  0  0  0  0  0  0  0  0  0  0
    3.7320   -2.3969    0.0000 C   0  0  0  0  0  0  0  0  0  0  0  0
    7.2566    1.2213    0.0000 C   0  0  0  0  0  0  0  0  0  0  0  0
    5.2619   -1.8969    0.0000 C   0  0  0  0  0  0  0  0  0  0  0  0
    4.9889   -0.1416    0.0000 C   0  0  0  0  0  0  0  0  0  0  0  0
    5.9209    2.7100    0.0000 C   0  0  0  0  0  0  0  0  0  0  0  0
    2.8660   -0.8969    0.0000 C   0  0  0  0  0  0  0  0  0  0  0  0
    2.8660   -2.8969    0.0000 C   0  0  0  0  0  0  0  0  0  0  0  0
    2.0000   -1.3969    0.0000 C   0  0  0  0  0  0  0  0  0  0  0  0
    2.0000   -2.3969    0.0000 C   0  0  0  0  0  0  0  0  0  0  0  0
    8.5458    2.3781    0.0000 C   0  0  0  0  0  0  0  0  0  0  0  0
    9.2878    1.7077    0.0000 C   0  0  0  0  0  0  0  0  0  0  0  0
   10.1547    2.2062    0.0000 C   0  0  0  0  0  0  0  0  0  0  0  0
   11.0675    1.7978    0.0000 C   0  0  0  0  0  0  0  0  0  0  0  0
    5.6714    0.8873    0.0000 H   0  0  0  0  0  0  0  0  0  0  0  0
    5.0633    2.0514    0.0000 H   0  0  0  0  0  0  0  0  0  0  0  0
    5.2277    1.2715    0.0000 H   0  0  0  0  0  0  0  0  0  0  0  0
    5.8819   -1.8969    0.0000 H   0  0  0  0  0  0  0  0  0  0  0  0
    4.8709   -3.2909    0.0000 H   0  0  0  0  0  0  0  0  0  0  0  0
    6.5102    2.5173    0.0000 H   0  0  0  0  0  0  0  0  0  0  0  0
    6.1135    3.2993    0.0000 H   0  0  0  0  0  0  0  0  0  0  0  0
    5.3316    2.9026    0.0000 H   0  0  0  0  0  0  0  0  0  0  0  0
    2.8660   -0.2769    0.0000 H   0  0  0  0  0  0  0  0  0  0  0  0
    2.8660   -3.5169    0.0000 H   0  0  0  0  0  0  0  0  0  0  0  0
    7.1532    2.6333    0.0000 H   0  0  0  0  0  0  0  0  0  0  0  0
    1.4631   -1.0869    0.0000 H   0  0  0  0  0  0  0  0  0  0  0  0
    1.4631   -2.7069    0.0000 H   0  0  0  0  0  0  0  0  0  0  0  0
    9.2219    1.0912    0.0000 H   0  0  0  0  0  0  0  0  0  0  0  0
   10.8143    1.2319    0.0000 H   0  0  0  0  0  0  0  0  0  0  0  0
   11.6335    1.5447    0.0000 H   0  0  0  0  0  0  0  0  0  0  0  0
   11.3206    2.3638    0.0000 H   0  0  0  0  0  0  0  0  0  0  0  0
  1  8  1  0  0  0  0
  1 15  1  0  0  0  0
  2 13  2  0  0  0  0
  3 15  2  0  0  0  0
  4  7  1  0  0  0  0
  4 23  1  0  0  0  0
  5 12  1  0  0  0  0
  5 14  1  0  0  0  0
  5 29  1  0  0  0  0
  6 13  1  0  0  0  0
  6 21  1  0  0  0  0
  6 35  1  0  0  0  0
  7 21  2  0  0  0  0
  8  9  1  0  0  0  0
  8 13  1  0  0  0  0
  8 25  1  0  0  0  0
  9 16  1  0  0  0  0
  9 26  1  0  0  0  0
  9 27  1  0  0  0  0
 10 11  1  0  0  0  0
 10 12  1  0  0  0  0
 10 17  2  0  0  0  0
 11 14  2  0  0  0  0
 11 15  1  0  0  0  0
 12 18  2  0  0  0  0
 14 28  1  0  0  0  0
 16 30  1  0  0  0  0
 16 31  1  0  0  0  0
 16 32  1  0  0  0  0
 17 19  1  0  0  0  0
 17 33  1  0  0  0  0
 18 20  1  0  0  0  0
 18 34  1  0  0  0  0
 19 20  2  0  0  0  0
 19 36  1  0  0  0  0
 20 37  1  0  0  0  0
 21 22  1  0  0  0  0
 22 23  2  0  0  0  0
 22 38  1  0  0  0  0
 23 24  1  0  0  0  0
 24 39  1  0  0  0  0
 24 40  1  0  0  0  0
 24 41  1  0  0  0  0
M  END
> <PUBCHEM_COMPOUND_CID>
17395376

> <PUBCHEM_COMPOUND_CANONICALIZED>
1

> <PUBCHEM_CACTVS_COMPLEXITY>
473

> <PUBCHEM_CACTVS_HBOND_ACCEPTOR>
5

> <PUBCHEM_CACTVS_HBOND_DONOR>
2

> <PUBCHEM_CACTVS_ROTATABLE_BOND>
6

> <PUBCHEM_CACTVS_SUBSKEYS>
AAADceB7OAAAAAAAAAAAAAAAAAAAAWLAAAAwAAAAAAAAAFgB/AAAHgAUAAAADBzhngY//PLZlACpA7f3fgKCgCA1IiAp2aF+bNqKJvrAvZ2HMYhm1QvY6ce8yOCOgAAAAAACAAAAAAAAAAQAAAAAAAAAAA==

> <PUBCHEM_IUPAC_OPENEYE_NAME>
1-[(5-methylisoxazol-3-yl)carbamoyl]propyl 1H-indole-3-carboxylate

> <PUBCHEM_IUPAC_CAS_NAME>
1H-indole-3-carboxylic acid [1-[(5-methyl-3-isoxazolyl)amino]-1-oxobutan-2-yl] ester

> <PUBCHEM_IUPAC_NAME>
[1-[(5-methyl-1,2-oxazol-3-yl)amino]-1-oxobutan-2-yl] 1H-indole-3-carboxylate

> <PUBCHEM_IUPAC_SYSTEMATIC_NAME>
[1-[(5-methyl-1,2-oxazol-3-yl)amino]-1-oxidanylidene-butan-2-yl] 1H-indole-3-carboxylate

> <PUBCHEM_IUPAC_TRADITIONAL_NAME>
1H-indole-3-carboxylic acid 1-[(5-methylisoxazol-3-yl)carbamoyl]propyl ester

> <PUBCHEM_IUPAC_INCHI>
InChI=1S/C17H17N3O4/c1-3-14(16(21)19-15-8-10(2)24-20-15)23-17(22)12-9-18-13-7-5-4-6-11(12)13/h4-9,14,18H,3H2,1-2H3,(H,19,20,21)

> <PUBCHEM_IUPAC_INCHIKEY>
SDBBWYKBNJTUJH-UHFFFAOYSA-N

> <PUBCHEM_XLOGP3_AA>
2.9

> <PUBCHEM_EXACT_MASS>
327.121906

> <PUBCHEM_MOLECULAR_FORMULA>
C17H17N3O4

> <PUBCHEM_MOLECULAR_WEIGHT>
327.33458

> <PUBCHEM_OPENEYE_CAN_SMILES>
CCC(C(=O)NC1=NOC(=C1)C)OC(=O)C2=CNC3=CC=CC=C32

> <PUBCHEM_OPENEYE_ISO_SMILES>
CCC(C(=O)NC1=NOC(=C1)C)OC(=O)C2=CNC3=CC=CC=C32

> <PUBCHEM_CACTVS_TPSA>
97.2

> <PUBCHEM_MONOISOTOPIC_WEIGHT>
327.121906

> <PUBCHEM_TOTAL_CHARGE>
0

> <PUBCHEM_HEAVY_ATOM_COUNT>
24

> <PUBCHEM_ATOM_DEF_STEREO_COUNT>
0

> <PUBCHEM_ATOM_UDEF_STEREO_COUNT>
1

> <PUBCHEM_BOND_DEF_STEREO_COUNT>
0

> <PUBCHEM_BOND_UDEF_STEREO_COUNT>
0

> <PUBCHEM_ISOTOPIC_ATOM_COUNT>
0

> <PUBCHEM_COMPONENT_COUNT>
1

> <PUBCHEM_CACTVS_TAUTO_COUNT>
30

> <PUBCHEM_COORDINATE_TYPE>
1
5
255

> <PUBCHEM_BONDANNOTATIONS>
10  11  8
10  12  8
10  17  8
11  14  8
12  18  8
17  19  8
18  20  8
19  20  8
21  22  8
22  23  8
4  23  8
4  7  8
5  12  8
5  14  8
7  21  8
8  9  3

$$$$

