73674
  -OEChem-07051213002D

 38 39  0     0  0  0  0  0  0999 V2000
    4.4487   -1.3455    0.0000 S   0  0  0  0  0  0  0  0  0  0  0  0
    2.5000    0.3570    0.0000 S   0  0  0  0  0  0  0  0  0  0  0  0
    3.9487   -2.2115    0.0000 O   0  0  0  0  0  0  0  0  0  0  0  0
    4.9487   -0.4794    0.0000 O   0  0  0  0  0  0  0  0  0  0  0  0
    4.0134    1.7963    0.0000 O   0  0  0  0  0  0  0  0  0  0  0  0
    6.1808   -0.3455    0.0000 O   0  0  0  0  0  0  0  0  0  0  0  0
    5.1724    0.5092    0.0000 O   0  0  0  0  0  0  0  0  0  0  0  0
   10.5109   -1.8455    0.0000 O   0  0  0  0  0  0  0  0  0  0  0  0
    5.3147   -1.8455    0.0000 N   0  0  0  0  0  0  0  0  0  0  0  0
    7.0468   -1.8455    0.0000 N   0  0  0  0  0  0  0  0  0  0  0  0
    7.9128   -0.3455    0.0000 N   0  0  0  0  0  0  0  0  0  0  0  0
    8.7788   -1.8455    0.0000 N   0  0  0  0  0  0  0  0  0  0  0  0
    9.6448   -0.3455    0.0000 N   0  0  0  0  0  0  0  0  0  0  0  0
    3.5827   -0.8455    0.0000 C   0  0  0  0  0  0  0  0  0  0  0  0
    3.4782    0.1491    0.0000 C   0  0  0  0  0  0  0  0  0  0  0  0
    2.6691   -1.2522    0.0000 C   0  0  0  0  0  0  0  0  0  0  0  0
    2.0000   -0.5091    0.0000 C   0  0  0  0  0  0  0  0  0  0  0  0
    6.1808   -1.3455    0.0000 C   0  0  0  0  0  0  0  0  0  0  0  0
    4.2213    0.8182    0.0000 C   0  0  0  0  0  0  0  0  0  0  0  0
    7.9128   -1.3455    0.0000 C   0  0  0  0  0  0  0  0  0  0  0  0
    8.7788    0.1545    0.0000 C   0  0  0  0  0  0  0  0  0  0  0  0
    9.6448   -1.3455    0.0000 C   0  0  0  0  0  0  0  0  0  0  0  0
    8.7788    1.1545    0.0000 C   0  0  0  0  0  0  0  0  0  0  0  0
    4.7565    2.4655    0.0000 C   0  0  0  0  0  0  0  0  0  0  0  0
   11.3769   -1.3455    0.0000 C   0  0  0  0  0  0  0  0  0  0  0  0
    2.5402   -1.8586    0.0000 H   0  0  0  0  0  0  0  0  0  0  0  0
    5.3147   -2.4655    0.0000 H   0  0  0  0  0  0  0  0  0  0  0  0
    1.3834   -0.5739    0.0000 H   0  0  0  0  0  0  0  0  0  0  0  0
    7.0468   -2.4655    0.0000 H   0  0  0  0  0  0  0  0  0  0  0  0
    9.3988    1.1545    0.0000 H   0  0  0  0  0  0  0  0  0  0  0  0
    8.7788    1.7745    0.0000 H   0  0  0  0  0  0  0  0  0  0  0  0
    8.1588    1.1545    0.0000 H   0  0  0  0  0  0  0  0  0  0  0  0
    5.1714    2.0047    0.0000 H   0  0  0  0  0  0  0  0  0  0  0  0
    5.2173    2.8803    0.0000 H   0  0  0  0  0  0  0  0  0  0  0  0
    4.3417    2.9262    0.0000 H   0  0  0  0  0  0  0  0  0  0  0  0
   11.6869   -1.8824    0.0000 H   0  0  0  0  0  0  0  0  0  0  0  0
   11.9138   -1.0355    0.0000 H   0  0  0  0  0  0  0  0  0  0  0  0
   11.0669   -0.8085    0.0000 H   0  0  0  0  0  0  0  0  0  0  0  0
  1  3  2  0  0  0  0
  1  4  2  0  0  0  0
  1  9  1  0  0  0  0
  1 14  1  0  0  0  0
  2 15  1  0  0  0  0
  2 17  1  0  0  0  0
  5 19  1  0  0  0  0
  5 24  1  0  0  0  0
  6 18  2  0  0  0  0
  7 19  2  0  0  0  0
  8 22  1  0  0  0  0
  8 25  1  0  0  0  0
  9 18  1  0  0  0  0
  9 27  1  0  0  0  0
 10 18  1  0  0  0  0
 10 20  1  0  0  0  0
 10 29  1  0  0  0  0
 11 20  1  0  0  0  0
 11 21  2  0  0  0  0
 12 20  2  0  0  0  0
 12 22  1  0  0  0  0
 13 21  1  0  0  0  0
 13 22  2  0  0  0  0
 14 15  2  0  0  0  0
 14 16  1  0  0  0  0
 15 19  1  0  0  0  0
 16 17  2  0  0  0  0
 16 26  1  0  0  0  0
 17 28  1  0  0  0  0
 21 23  1  0  0  0  0
 23 30  1  0  0  0  0
 23 31  1  0  0  0  0
 23 32  1  0  0  0  0
 24 33  1  0  0  0  0
 24 34  1  0  0  0  0
 24 35  1  0  0  0  0
 25 36  1  0  0  0  0
 25 37  1  0  0  0  0
 25 38  1  0  0  0  0
M  END
> <PUBCHEM_COMPOUND_CID>
73674

> <PUBCHEM_COMPOUND_CANONICALIZED>
1

> <PUBCHEM_CACTVS_COMPLEXITY>
597

> <PUBCHEM_CACTVS_HBOND_ACCEPTOR>
10

> <PUBCHEM_CACTVS_HBOND_DONOR>
2

> <PUBCHEM_CACTVS_ROTATABLE_BOND>
6

> <PUBCHEM_CACTVS_SUBSKEYS>
AAADccBzuABgAAAAAAAAAAAAAAAAASAAAAAsAAAAAAAAAAAB4AAAHgQQQAAACACF0wKzGYbIFAqsACLyPHBDgJkkCLBJiBkQCMiILjKgPBiAEQAswQMoqQaIAAAAAAAAAAAAAAAAAAAAAAAAAAAAAAAAAA==

> <PUBCHEM_IUPAC_OPENEYE_NAME>
methyl 3-[(4-methoxy-6-methyl-1,3,5-triazin-2-yl)carbamoylsulfamoyl]thiophene-2-carboxylate

> <PUBCHEM_IUPAC_CAS_NAME>
3-[[[(4-methoxy-6-methyl-1,3,5-triazin-2-yl)amino]-oxomethyl]sulfamoyl]-2-thiophenecarboxylic acid methyl ester

> <PUBCHEM_IUPAC_NAME>
methyl 3-[(4-methoxy-6-methyl-1,3,5-triazin-2-yl)carbamoylsulfamoyl]thiophene-2-carboxylate

> <PUBCHEM_IUPAC_SYSTEMATIC_NAME>
methyl 3-[(4-methoxy-6-methyl-1,3,5-triazin-2-yl)carbamoylsulfamoyl]thiophene-2-carboxylate

> <PUBCHEM_IUPAC_TRADITIONAL_NAME>
3-[(4-methoxy-6-methyl-s-triazin-2-yl)carbamoylsulfamoyl]thiophene-2-carboxylic acid methyl ester

> <PUBCHEM_IUPAC_INCHI>
InChI=1S/C12H13N5O6S2/c1-6-13-10(16-12(14-6)23-3)15-11(19)17-25(20,21)7-4-5-24-8(7)9(18)22-2/h4-5H,1-3H3,(H2,13,14,15,16,17,19)

> <PUBCHEM_IUPAC_INCHIKEY>
AHTPATJNIAFOLR-UHFFFAOYSA-N

> <PUBCHEM_XLOGP3_AA>
1.6

> <PUBCHEM_EXACT_MASS>
387.030725

> <PUBCHEM_MOLECULAR_FORMULA>
C12H13N5O6S2

> <PUBCHEM_MOLECULAR_WEIGHT>
387.39152

> <PUBCHEM_OPENEYE_CAN_SMILES>
CC1=NC(=NC(=N1)OC)NC(=O)NS(=O)(=O)C2=C(SC=C2)C(=O)OC

> <PUBCHEM_OPENEYE_ISO_SMILES>
CC1=NC(=NC(=N1)OC)NC(=O)NS(=O)(=O)C2=C(SC=C2)C(=O)OC

> <PUBCHEM_CACTVS_TPSA>
186

> <PUBCHEM_MONOISOTOPIC_WEIGHT>
387.030725

> <PUBCHEM_TOTAL_CHARGE>
0

> <PUBCHEM_HEAVY_ATOM_COUNT>
25

> <PUBCHEM_ATOM_DEF_STEREO_COUNT>
0

> <PUBCHEM_ATOM_UDEF_STEREO_COUNT>
0

> <PUBCHEM_BOND_DEF_STEREO_COUNT>
0

> <PUBCHEM_BOND_UDEF_STEREO_COUNT>
0

> <PUBCHEM_ISOTOPIC_ATOM_COUNT>
0

> <PUBCHEM_COMPONENT_COUNT>
1

> <PUBCHEM_CACTVS_TAUTO_COUNT>
9

> <PUBCHEM_COORDINATE_TYPE>
1
5
255

> <PUBCHEM_BONDANNOTATIONS>
11  20  8
11  21  8
12  20  8
12  22  8
13  21  8
13  22  8
14  15  8
14  16  8
16  17  8
2  15  8
2  17  8

$$$$

