11225
  -OEChem-06261205253D

 60 65  0     1  0  0  0  0  0999 V2000
    0.8267    2.6864   -0.4833 O   0  0  0  0  0  0  0  0  0  0  0  0
   -5.2796    0.5419   -0.4569 O   0  0  0  0  0  0  0  0  0  0  0  0
   -5.9485   -1.3629    1.4857 O   0  0  0  0  0  0  0  0  0  0  0  0
   -3.6153   -1.1413   -2.8669 O   0  0  0  0  0  0  0  0  0  0  0  0
    6.1045    0.2511   -0.3205 O   0  0  0  0  0  0  0  0  0  0  0  0
    7.5780   -1.4767   -0.2149 O   0  0  0  0  0  0  0  0  0  0  0  0
    0.3926    1.3581   -0.0773 C   0  0  2  0  0  0  0  0  0  0  0  0
    1.4120    0.2610   -0.3763 C   0  0  1  0  0  0  0  0  0  0  0  0
   -1.0762    1.1798   -0.4086 C   0  0  1  0  0  0  0  0  0  0  0  0
    1.0149    2.3393    0.8779 C   0  0  1  0  0  0  0  0  0  0  0  0
   -1.5603   -0.2787   -0.1934 C   0  0  1  0  0  0  0  0  0  0  0  0
    2.4684    0.4381    0.7878 C   0  0  2  0  0  0  0  0  0  0  0  0
    2.4187    1.9278    1.1885 C   0  0  0  0  0  0  0  0  0  0  0  0
    0.7956   -1.1488   -0.2725 C   0  0  0  0  0  0  0  0  0  0  0  0
   -3.0635   -0.4656   -0.6081 C   0  0  2  0  0  0  0  0  0  0  0  0
   -0.5914   -1.2493   -0.8991 C   0  0  0  0  0  0  0  0  0  0  0  0
   -1.9741    2.1642    0.3565 C   0  0  0  0  0  0  0  0  0  0  0  0
   -3.9695    0.5723    0.1323 C   0  0  1  0  0  0  0  0  0  0  0  0
    2.0110    0.4665   -1.7830 C   0  0  0  0  0  0  0  0  0  0  0  0
   -3.4437    2.0122   -0.0130 C   0  0  0  0  0  0  0  0  0  0  0  0
   -3.6027   -1.8970   -0.3343 C   0  0  0  0  0  0  0  0  0  0  0  0
    3.8530   -0.0467    0.5040 C   0  0  0  0  0  0  0  0  0  0  0  0
   -4.1316    0.2180    1.6367 C   0  0  0  0  0  0  0  0  0  0  0  0
   -3.1765   -0.2808   -2.1110 C   0  0  0  0  0  0  0  0  0  0  0  0
   -3.7178   -2.2305    1.1513 C   0  0  0  0  0  0  0  0  0  0  0  0
   -4.5890   -1.2207    1.8909 C   0  0  2  0  0  0  0  0  0  0  0  0
    4.1906   -1.4033    0.8484 C   0  0  0  0  0  0  0  0  0  0  0  0
    4.8054    0.7069   -0.0548 C   0  0  0  0  0  0  0  0  0  0  0  0
    5.4149   -1.8862    0.6157 C   0  0  0  0  0  0  0  0  0  0  0  0
    6.4535   -1.0351   -0.0017 C   0  0  0  0  0  0  0  0  0  0  0  0
   -1.1582    1.4185   -1.4765 H   0  0  0  0  0  0  0  0  0  0  0  0
    0.4588    2.8310    1.6559 H   0  0  0  0  0  0  0  0  0  0  0  0
   -1.4806   -0.4864    0.8823 H   0  0  0  0  0  0  0  0  0  0  0  0
    2.0922   -0.0898    1.6782 H   0  0  0  0  0  0  0  0  0  0  0  0
    2.6335    2.0466    2.2564 H   0  0  0  0  0  0  0  0  0  0  0  0
    3.1029    2.5800    0.6399 H   0  0  0  0  0  0  0  0  0  0  0  0
    0.6976   -1.4483    0.7793 H   0  0  0  0  0  0  0  0  0  0  0  0
    1.4593   -1.8911   -0.7329 H   0  0  0  0  0  0  0  0  0  0  0  0
   -0.5405   -1.0445   -1.9741 H   0  0  0  0  0  0  0  0  0  0  0  0
   -0.9234   -2.2849   -0.7856 H   0  0  0  0  0  0  0  0  0  0  0  0
   -1.6721    3.1968    0.1429 H   0  0  0  0  0  0  0  0  0  0  0  0
   -1.8449    2.0287    1.4367 H   0  0  0  0  0  0  0  0  0  0  0  0
    2.5561    1.4129   -1.8643 H   0  0  0  0  0  0  0  0  0  0  0  0
    2.6990   -0.3414   -2.0540 H   0  0  0  0  0  0  0  0  0  0  0  0
    1.2219    0.4919   -2.5430 H   0  0  0  0  0  0  0  0  0  0  0  0
   -4.0490    2.6941    0.5983 H   0  0  0  0  0  0  0  0  0  0  0  0
   -3.5948    2.3580   -1.0440 H   0  0  0  0  0  0  0  0  0  0  0  0
   -2.9807   -2.6588   -0.8172 H   0  0  0  0  0  0  0  0  0  0  0  0
   -4.5955   -2.0299   -0.7860 H   0  0  0  0  0  0  0  0  0  0  0  0
   -4.8760    0.8947    2.0768 H   0  0  0  0  0  0  0  0  0  0  0  0
   -3.1897    0.3762    2.1724 H   0  0  0  0  0  0  0  0  0  0  0  0
   -2.8678    0.6928   -2.5220 H   0  0  0  0  0  0  0  0  0  0  0  0
   -4.1478   -3.2346    1.2496 H   0  0  0  0  0  0  0  0  0  0  0  0
   -2.7210   -2.2645    1.6047 H   0  0  0  0  0  0  0  0  0  0  0  0
   -4.5553   -1.4229    2.9674 H   0  0  0  0  0  0  0  0  0  0  0  0
   -5.7076   -0.3020   -0.2414 H   0  0  0  0  0  0  0  0  0  0  0  0
    3.4358   -2.0373    1.3014 H   0  0  0  0  0  0  0  0  0  0  0  0
    4.7203    1.7291   -0.3905 H   0  0  0  0  0  0  0  0  0  0  0  0
   -6.2182   -2.2771    1.6775 H   0  0  0  0  0  0  0  0  0  0  0  0
    5.6766   -2.9064    0.8715 H   0  0  0  0  0  0  0  0  0  0  0  0
  1  7  1  0  0  0  0
  1 10  1  0  0  0  0
  2 18  1  0  0  0  0
  2 56  1  0  0  0  0
  3 26  1  0  0  0  0
  3 59  1  0  0  0  0
  4 24  2  0  0  0  0
  5 28  1  0  0  0  0
  5 30  1  0  0  0  0
  6 30  2  0  0  0  0
  7  8  1  0  0  0  0
  7  9  1  0  0  0  0
  7 10  1  0  0  0  0
  8 12  1  0  0  0  0
  8 14  1  0  0  0  0
  8 19  1  0  0  0  0
  9 11  1  0  0  0  0
  9 17  1  0  0  0  0
  9 31  1  0  0  0  0
 10 13  1  0  0  0  0
 10 32  1  0  0  0  0
 11 15  1  0  0  0  0
 11 16  1  0  0  0  0
 11 33  1  0  0  0  0
 12 13  1  0  0  0  0
 12 22  1  0  0  0  0
 12 34  1  0  0  0  0
 13 35  1  0  0  0  0
 13 36  1  0  0  0  0
 14 16  1  0  0  0  0
 14 37  1  0  0  0  0
 14 38  1  0  0  0  0
 15 18  1  0  0  0  0
 15 21  1  0  0  0  0
 15 24  1  0  0  0  0
 16 39  1  0  0  0  0
 16 40  1  0  0  0  0
 17 20  1  0  0  0  0
 17 41  1  0  0  0  0
 17 42  1  0  0  0  0
 18 20  1  0  0  0  0
 18 23  1  0  0  0  0
 19 43  1  0  0  0  0
 19 44  1  0  0  0  0
 19 45  1  0  0  0  0
 20 46  1  0  0  0  0
 20 47  1  0  0  0  0
 21 25  1  0  0  0  0
 21 48  1  0  0  0  0
 21 49  1  0  0  0  0
 22 27  1  0  0  0  0
 22 28  2  0  0  0  0
 23 26  1  0  0  0  0
 23 50  1  0  0  0  0
 23 51  1  0  0  0  0
 24 52  1  0  0  0  0
 25 26  1  0  0  0  0
 25 53  1  0  0  0  0
 25 54  1  0  0  0  0
 26 55  1  0  0  0  0
 27 29  2  0  0  0  0
 27 57  1  0  0  0  0
 28 58  1  0  0  0  0
 29 30  1  0  0  0  0
 29 60  1  0  0  0  0
M  END
> <PUBCHEM_COMPOUND_CID>
11225

> <PUBCHEM_CONFORMER_RMSD>
0.8

> <PUBCHEM_CONFORMER_DIVERSEORDER>
6
13
2
3
16
14
9
8
7
15
5
18
12
17
4
10
11
1

> <PUBCHEM_MMFF94_PARTIAL_CHARGES>
28
1 -0.3
10 -0.05
12 0.14
13 0.09
15 0.06
18 0.28
2 -0.68
22 -0.14
24 0.45
26 0.28
27 -0.15
28 -0.07
29 -0.14
3 -0.68
30 0.71
32 0.1
4 -0.57
5 -0.23
52 0.06
56 0.4
57 0.15
58 0.15
59 0.4
6 -0.57
60 0.15
7 -0.04
8 0.09
9 0.09

> <PUBCHEM_EFFECTIVE_ROTOR_COUNT>
4.2

> <PUBCHEM_PHARMACOPHORE_FEATURES>
12
1 1 acceptor
1 2 acceptor
1 2 donor
1 3 acceptor
1 3 donor
1 4 acceptor
1 6 acceptor
6 1 7 8 10 12 13 rings
6 15 18 21 23 25 26 rings
6 5 22 27 28 29 30 rings
6 7 8 9 11 14 16 rings
6 9 11 15 17 18 20 rings

> <PUBCHEM_HEAVY_ATOM_COUNT>
30

> <PUBCHEM_ATOM_DEF_STEREO_COUNT>
7

> <PUBCHEM_ATOM_UDEF_STEREO_COUNT>
2

> <PUBCHEM_BOND_DEF_STEREO_COUNT>
0

> <PUBCHEM_BOND_UDEF_STEREO_COUNT>
0

> <PUBCHEM_ISOTOPIC_ATOM_COUNT>
0

> <PUBCHEM_COMPONENT_COUNT>
1

> <PUBCHEM_CACTVS_TAUTO_COUNT>
1

> <PUBCHEM_CONFORMER_ID>
00002BD900000006

> <PUBCHEM_MMFF94_ENERGY>
110.2368

> <PUBCHEM_FEATURE_SELFOVERLAP>
61.035

> <PUBCHEM_SHAPE_FINGERPRINT>
10622 236 17172113650164442087
10675989 125 16460510179966950848
11135609 12 18202556285318494577
11456790 92 17968361396131039635
11578080 2 16700349739651617983
11796584 16 18059859510229234978
12236239 1 18060132163770445908
12422481 6 17385438860618624604
12633257 1 17095520660713611217
12760667 363 18334864969608051774
13009979 54 18201709656891435020
13103583 49 18187353316455837715
13140716 1 18117272563094701355
13224815 77 18042402439882840829
13673619 4 17418084387407696547
13690498 29 16702023058767785715
14251764 30 18202280299489667730
14341114 176 18411979126673330745
14739800 52 15359689674028598560
14856354 85 18341879780193418751
14950920 106 18043514037564666451
14955137 171 18408878534364764536
15183329 4 18040152929502859446
15788980 27 18408606958870471942
17349148 13 17458911435494605054
17492 89 18046075856138161023
17980427 23 15213304097114671400
1813 80 18340475747168916564
18927931 339 18409445903565012647
19489759 90 14706931743704377447
21267235 1 18409727365493037432
22182313 1 17823405175015240685
22393880 68 16343714213570631524
22950370 63 18412543215373145640
23402539 116 18041007249631440260
23522609 53 17970041419291073976
23559900 14 18343026545003971057
2838139 119 8358246030793814218
3004659 81 18341053004195996274
314194 84 18335427863584369510
335352 9 18335989743990870173
3737641 26 18265049314012745354
4058900 60 17332536077318202157
46194498 28 16702016414384411318
465052 167 18335134302732951878
484985 159 18272373070976438771
5104073 3 17313952900541479858
6009941 240 18060136599986359361
6086070 43 17459493158819116601
6669772 16 17696458595447882220
999808 66 18271796934692599834

> <PUBCHEM_SHAPE_MULTIPOLES>
582.17
14.34
2.42
1.63
15.92
0.61
-0.57
-7.79
2.52
-0.32
0.5
-2.17
-0.46
0.31

> <PUBCHEM_SHAPE_SELFOVERLAP>
1281.899

> <PUBCHEM_SHAPE_VOLUME>
309.1

> <PUBCHEM_COORDINATE_TYPE>
2
5
10

$$$$

