51091003
  -OEChem-06241223013D

 43 45  0     0  0  0  0  0  0999 V2000
   -0.5329    3.5626    0.5065 S   0  0  0  0  0  0  0  0  0  0  0  0
   -3.0194   -2.7804    1.1547 O   0  0  0  0  0  0  0  0  0  0  0  0
    2.0156    0.9620   -0.5355 N   0  0  0  0  0  0  0  0  0  0  0  0
    1.1319    1.9418   -0.8549 N   0  0  0  0  0  0  0  0  0  0  0  0
    2.8332   -0.1368    1.4399 N   0  0  0  0  0  0  0  0  0  0  0  0
    1.1768    1.6351    1.4013 N   0  0  0  0  0  0  0  0  0  0  0  0
   -1.0808   -2.7642   -0.1514 N   0  0  0  0  0  0  0  0  0  0  0  0
    2.8249    0.1953   -1.3800 C   0  0  0  0  0  0  0  0  0  0  0  0
   -2.4334    1.5528    0.4731 C   0  0  0  0  0  0  0  0  0  0  0  0
   -1.9212    2.6945    1.3073 C   0  0  0  0  0  0  0  0  0  0  0  0
    2.0268    0.7911    0.8518 C   0  0  0  0  0  0  0  0  0  0  0  0
   -2.5834   -0.8192    0.0386 C   0  0  0  0  0  0  0  0  0  0  0  0
   -2.1073    0.2396    0.8120 C   0  0  0  0  0  0  0  0  0  0  0  0
    3.6326   -0.7289   -0.8377 C   0  0  0  0  0  0  0  0  0  0  0  0
    3.5840   -0.8476    0.6506 C   0  0  0  0  0  0  0  0  0  0  0  0
    0.6651    2.3034    0.3365 C   0  0  0  0  0  0  0  0  0  0  0  0
   -3.2359    1.8072   -0.6392 C   0  0  0  0  0  0  0  0  0  0  0  0
   -3.3858   -0.5647   -1.0737 C   0  0  0  0  0  0  0  0  0  0  0  0
    2.7578    0.4364   -2.8571 C   0  0  0  0  0  0  0  0  0  0  0  0
   -2.2439   -2.1884    0.3922 C   0  0  0  0  0  0  0  0  0  0  0  0
   -3.7123    0.7485   -1.4125 C   0  0  0  0  0  0  0  0  0  0  0  0
    4.4841   -1.8800    1.2826 C   0  0  0  0  0  0  0  0  0  0  0  0
   -0.1936   -2.0267   -1.0484 C   0  0  0  0  0  0  0  0  0  0  0  0
   -0.6830   -4.1336    0.1433 C   0  0  0  0  0  0  0  0  0  0  0  0
   -2.7286    3.4150    1.4808 H   0  0  0  0  0  0  0  0  0  0  0  0
   -1.6009    2.3461    2.2958 H   0  0  0  0  0  0  0  0  0  0  0  0
   -1.4825    0.0372    1.6789 H   0  0  0  0  0  0  0  0  0  0  0  0
    4.2902   -1.3654   -1.4146 H   0  0  0  0  0  0  0  0  0  0  0  0
   -3.4997    2.8254   -0.9128 H   0  0  0  0  0  0  0  0  0  0  0  0
   -3.7621   -1.3820   -1.6836 H   0  0  0  0  0  0  0  0  0  0  0  0
    3.0367    1.4691   -3.0918 H   0  0  0  0  0  0  0  0  0  0  0  0
    3.4361   -0.2232   -3.4091 H   0  0  0  0  0  0  0  0  0  0  0  0
    1.7442    0.2551   -3.2301 H   0  0  0  0  0  0  0  0  0  0  0  0
   -4.3374    0.9466   -2.2782 H   0  0  0  0  0  0  0  0  0  0  0  0
    5.1639   -1.3855    1.9826 H   0  0  0  0  0  0  0  0  0  0  0  0
    5.0752   -2.4130    0.5337 H   0  0  0  0  0  0  0  0  0  0  0  0
    3.8727   -2.6033    1.8302 H   0  0  0  0  0  0  0  0  0  0  0  0
   -0.2003   -2.5245   -2.0228 H   0  0  0  0  0  0  0  0  0  0  0  0
   -0.4704   -0.9827   -1.1901 H   0  0  0  0  0  0  0  0  0  0  0  0
    0.8173   -2.0667   -0.6347 H   0  0  0  0  0  0  0  0  0  0  0  0
    0.2984   -4.1210    0.6259 H   0  0  0  0  0  0  0  0  0  0  0  0
   -1.4026   -4.6168    0.8090 H   0  0  0  0  0  0  0  0  0  0  0  0
   -0.6275   -4.6954   -0.7934 H   0  0  0  0  0  0  0  0  0  0  0  0
  1 10  1  0  0  0  0
  1 16  1  0  0  0  0
  2 20  2  0  0  0  0
  3  4  1  0  0  0  0
  3  8  1  0  0  0  0
  3 11  1  0  0  0  0
  4 16  2  0  0  0  0
  5 11  1  0  0  0  0
  5 15  2  0  0  0  0
  6 11  2  0  0  0  0
  6 16  1  0  0  0  0
  7 20  1  0  0  0  0
  7 23  1  0  0  0  0
  7 24  1  0  0  0  0
  8 14  2  0  0  0  0
  8 19  1  0  0  0  0
  9 10  1  0  0  0  0
  9 13  2  0  0  0  0
  9 17  1  0  0  0  0
 10 25  1  0  0  0  0
 10 26  1  0  0  0  0
 12 13  1  0  0  0  0
 12 18  2  0  0  0  0
 12 20  1  0  0  0  0
 13 27  1  0  0  0  0
 14 15  1  0  0  0  0
 14 28  1  0  0  0  0
 15 22  1  0  0  0  0
 17 21  2  0  0  0  0
 17 29  1  0  0  0  0
 18 21  1  0  0  0  0
 18 30  1  0  0  0  0
 19 31  1  0  0  0  0
 19 32  1  0  0  0  0
 19 33  1  0  0  0  0
 21 34  1  0  0  0  0
 22 35  1  0  0  0  0
 22 36  1  0  0  0  0
 22 37  1  0  0  0  0
 23 38  1  0  0  0  0
 23 39  1  0  0  0  0
 23 40  1  0  0  0  0
 24 41  1  0  0  0  0
 24 42  1  0  0  0  0
 24 43  1  0  0  0  0
M  END
> <PUBCHEM_COMPOUND_CID>
51091003

> <PUBCHEM_CONFORMER_RMSD>
0.8

> <PUBCHEM_CONFORMER_DIVERSEORDER>
1
26
288
142
110
248
79
67
148
209
112
262
139
295
18
23
285
51
98
309
265
169
152
64
261
300
125
27
268
175
78
164
160
178
303
247
115
266
30
97
129
278
91
121
14
211
163
86
283
140
246
239
279
24
44
273
187
275
146
104
202
226
186
138
100
281
311
144
252
224
155
277
177
38
212
56
217
192
93
135
136
167
230
158
106
81
109
236
287
162
286
203
198
314
123
20
134
72
290
65
43
128
313
208
90
191
41
82
2
126
269
8
33
307
80
263
76
260
243
168
5
214
180
292
28
244
289
31
190
228
114
47
154
172
264
70
245
3
12
310
108
253
254
149
117
242
210
294
25
193
85
120
42
60
127
40
200
306
22
119
308
166
4
170
183
107
54
133
270
221
83
179
147
184
276
7
272
89
231
216
165
16
258
235
102
223
315
61
282
181
116
87
73
52
118
157
159
234
49
153
251
299
95
240
10
37
96
204
267
220
259
99
206
13
238
39
201
257
249
161
53
215
284
222
182
237
75
35
68
298
199
312
19
189
113
195
143
45
9
174
250
34
101
156
194
173
74
185
92
151
46
36
57
197
232
29
88
137
32
188
131
256
280
301
58
225
171
293
227
6
207
105
69
291
305
11
111
274
84
94
77
141
304
21
176
66
213
59
205
241
63
145
196
62
71
132
50
103
48
271
255
55
150
124
229
219
17
15
122
130
297
296
218
233
302

> <PUBCHEM_MMFF94_PARTIAL_CHARGES>
29
1 -0.28
10 0.37
11 0.31
12 0.09
13 -0.15
14 -0.14
15 0.37
16 0.57
17 -0.15
18 -0.15
19 0.14
2 -0.57
20 0.54
21 -0.15
22 0.06
23 0.3
24 0.3
27 0.15
28 0.15
29 0.15
3 0.6
30 0.15
34 0.15
4 -0.71
5 -0.58
6 -0.57
7 -0.66
8 -0.17
9 -0.14

> <PUBCHEM_EFFECTIVE_ROTOR_COUNT>
5

> <PUBCHEM_PHARMACOPHORE_FEATURES>
6
1 2 acceptor
1 5 acceptor
4 3 5 6 11 cation
5 3 4 6 11 16 rings
6 3 5 8 11 14 15 rings
6 9 12 13 17 18 21 rings

> <PUBCHEM_HEAVY_ATOM_COUNT>
24

> <PUBCHEM_ATOM_DEF_STEREO_COUNT>
0

> <PUBCHEM_ATOM_UDEF_STEREO_COUNT>
0

> <PUBCHEM_BOND_DEF_STEREO_COUNT>
0

> <PUBCHEM_BOND_UDEF_STEREO_COUNT>
0

> <PUBCHEM_ISOTOPIC_ATOM_COUNT>
0

> <PUBCHEM_COMPONENT_COUNT>
1

> <PUBCHEM_CACTVS_TAUTO_COUNT>
1

> <PUBCHEM_CONFORMER_ID>
030B963B00000001

> <PUBCHEM_MMFF94_ENERGY>
58.5484

> <PUBCHEM_FEATURE_SELFOVERLAP>
30.589

> <PUBCHEM_SHAPE_FINGERPRINT>
10759866 29 18130777915926522996
11513181 2 17393341209101087838
11578080 2 17916608512893143212
12156800 1 14873733120588542355
12363563 72 18113623373843310149
12553582 1 18335125523113384872
12633257 1 18263907904841353235
12788726 201 18187077394972704025
13122387 1 18408318886882348154
13140716 1 18334856121579920081
13726171 33 18120619549267530756
14178342 30 17899697044251172128
14251757 5 18338782465060678070
14955137 171 15806625126296923497
15664445 248 17048229338980135181
16752209 62 18196381526754335529
192875 21 18335715939556321989
20600515 1 18334577988203991784
20775438 99 16890939858336663375
22907989 373 18201145547860638397
23184049 29 18265337196436290832
23559900 14 18335717039485324600
3027735 51 17979091688340312741
35225 105 18411983524994278919
602551 16 18191309480221345472
6287921 2 16103012100003948754

> <PUBCHEM_SHAPE_MULTIPOLES>
466.98
7.1
4.26
1.75
3.49
1.97
0.88
1.38
0.44
-2.52
-1.25
1.2
-0.28
-0.47

> <PUBCHEM_SHAPE_SELFOVERLAP>
983.38

> <PUBCHEM_SHAPE_VOLUME>
266.8

> <PUBCHEM_COORDINATE_TYPE>
2
5
10

$$$$

