13089
  -OEChem-07051213043D

 28 29  0     1  0  0  0  0  0999 V2000
    0.3068   -2.5401   -1.7488 Cl  0  0  0  0  0  0  0  0  0  0  0  0
   -0.6106   -3.2946    0.8827 Cl  0  0  0  0  0  0  0  0  0  0  0  0
    2.2087   -2.8493    0.4401 Cl  0  0  0  0  0  0  0  0  0  0  0  0
    1.1691    1.3795    2.5370 Cl  0  0  0  0  0  0  0  0  0  0  0  0
   -5.1264    1.5069   -0.5581 Cl  0  0  0  0  0  0  0  0  0  0  0  0
    0.3539   -0.7284    0.4398 C   0  0  2  0  0  0  0  0  0  0  0  0
   -1.0075   -0.1721    0.1921 C   0  0  0  0  0  0  0  0  0  0  0  0
    1.4837    0.2650    0.0681 C   0  0  0  0  0  0  0  0  0  0  0  0
    0.5695   -2.2367   -0.0013 C   0  0  0  0  0  0  0  0  0  0  0  0
   -1.2941    0.4577   -1.0191 C   0  0  0  0  0  0  0  0  0  0  0  0
   -1.9948   -0.2824    1.1714 C   0  0  0  0  0  0  0  0  0  0  0  0
    1.8744    1.2146    0.9703 C   0  0  0  0  0  0  0  0  0  0  0  0
    2.0321    0.1220   -1.1789 C   0  0  0  0  0  0  0  0  0  0  0  0
   -2.5675    0.9775   -1.2509 C   0  0  0  0  0  0  0  0  0  0  0  0
   -3.2683    0.2372    0.9395 C   0  0  0  0  0  0  0  0  0  0  0  0
    2.8932    2.0921    0.5990 C   0  0  0  0  0  0  0  0  0  0  0  0
    3.0510    0.9994   -1.5501 C   0  0  0  0  0  0  0  0  0  0  0  0
   -3.5546    0.8673   -0.2716 C   0  0  0  0  0  0  0  0  0  0  0  0
    3.4814    1.9844   -0.6613 C   0  0  0  0  0  0  0  0  0  0  0  0
    0.4422   -0.8297    1.5310 H   0  0  0  0  0  0  0  0  0  0  0  0
   -0.5600    0.5506   -1.8121 H   0  0  0  0  0  0  0  0  0  0  0  0
   -1.7900   -0.7591    2.1261 H   0  0  0  0  0  0  0  0  0  0  0  0
    1.7306   -0.5827   -1.9307 H   0  0  0  0  0  0  0  0  0  0  0  0
   -2.7779    1.4627   -2.2006 H   0  0  0  0  0  0  0  0  0  0  0  0
   -4.0270    0.1459    1.7125 H   0  0  0  0  0  0  0  0  0  0  0  0
    3.2398    2.8657    1.2797 H   0  0  0  0  0  0  0  0  0  0  0  0
    3.5039    0.9223   -2.5344 H   0  0  0  0  0  0  0  0  0  0  0  0
    4.2732    2.6689   -0.9513 H   0  0  0  0  0  0  0  0  0  0  0  0
  1  9  1  0  0  0  0
  2  9  1  0  0  0  0
  3  9  1  0  0  0  0
  4 12  1  0  0  0  0
  5 18  1  0  0  0  0
  6  7  1  0  0  0  0
  6  8  1  0  0  0  0
  6  9  1  0  0  0  0
  6 20  1  0  0  0  0
  7 10  2  0  0  0  0
  7 11  1  0  0  0  0
  8 12  1  0  0  0  0
  8 13  2  0  0  0  0
 10 14  1  0  0  0  0
 10 21  1  0  0  0  0
 11 15  2  0  0  0  0
 11 22  1  0  0  0  0
 12 16  2  0  0  0  0
 13 17  1  0  0  0  0
 13 23  1  0  0  0  0
 14 18  2  0  0  0  0
 14 24  1  0  0  0  0
 15 18  1  0  0  0  0
 15 25  1  0  0  0  0
 16 19  1  0  0  0  0
 16 26  1  0  0  0  0
 17 19  2  0  0  0  0
 17 27  1  0  0  0  0
 19 28  1  0  0  0  0
M  END
> <PUBCHEM_COMPOUND_CID>
13089

> <PUBCHEM_CONFORMER_RMSD>
0.6

> <PUBCHEM_CONFORMER_DIVERSEORDER>
1
2
4
3

> <PUBCHEM_MMFF94_PARTIAL_CHARGES>
27
1 -0.29
10 -0.15
11 -0.15
12 0.18
13 -0.15
14 -0.15
15 -0.15
16 -0.15
17 -0.15
18 0.18
19 -0.15
2 -0.29
21 0.15
22 0.15
23 0.15
24 0.15
25 0.15
26 0.15
27 0.15
28 0.15
3 -0.29
4 -0.18
5 -0.18
6 0.29
7 -0.14
8 -0.14
9 0.87

> <PUBCHEM_EFFECTIVE_ROTOR_COUNT>
3

> <PUBCHEM_PHARMACOPHORE_FEATURES>
2
6 7 10 11 14 15 18 rings
6 8 12 13 16 17 19 rings

> <PUBCHEM_HEAVY_ATOM_COUNT>
19

> <PUBCHEM_ATOM_DEF_STEREO_COUNT>
0

> <PUBCHEM_ATOM_UDEF_STEREO_COUNT>
1

> <PUBCHEM_BOND_DEF_STEREO_COUNT>
0

> <PUBCHEM_BOND_UDEF_STEREO_COUNT>
0

> <PUBCHEM_ISOTOPIC_ATOM_COUNT>
0

> <PUBCHEM_COMPONENT_COUNT>
1

> <PUBCHEM_CACTVS_TAUTO_COUNT>
1

> <PUBCHEM_CONFORMER_ID>
0000332100000001

> <PUBCHEM_MMFF94_ENERGY>
62.5863

> <PUBCHEM_FEATURE_SELFOVERLAP>
10.149

> <PUBCHEM_SHAPE_FINGERPRINT>
10165383 225 18196063621717028425
10498660 4 18411420579515535949
11101153 10 17470987638925476438
12532896 13 18265900163865136382
12716301 132 18048043969477863418
12730499 353 18340195367640597857
12788726 201 17690013231792582255
13132413 78 17759528063794818072
13134695 92 18121798380334803382
13294875 104 18115040636142063912
13681431 1 17903635524966344486
14955137 171 18042412506959661302
15309172 13 18341889650101890441
15490181 7 18190182282607112474
16945 1 18341046423641765842
17134986 127 18410856521201634772
1813 80 17609490888812334286
18186145 218 18114730564835609948
20559304 39 17751089217593927345
20600515 1 17041774651099483783
20645477 70 18263083370010017391
21524375 3 18336267855554383646
21756936 100 16197881468727740332
22149856 69 17844506977909563801
2255824 54 18267307727843600423
23419403 2 16766704128231862386
23526113 38 17823964663694265944
23559900 14 17774437325735452327
238 59 18260265261267287623
25 1 18041544884815633344
2748010 2 17825655660964337792
298252 57 18058719205218540896
3060560 45 17894354401287204637
350125 39 18341608179315061522
3729539 64 18053635205586786918
495365 180 18269003131971313285
5845 1 9038044936782854326
633830 44 17823396297655657425
6442390 28 18339633426651323043
7364860 26 18268715085167184062
7471813 234 17826527839788526609
7808743 9 17984415248622016724
81228 2 17543636331234754818
8272917 22 18263641934786056917
84936 182 18335984289145040273
9981440 41 15941511593357763208
9999458 23 17417813997335804202

> <PUBCHEM_SHAPE_MULTIPOLES>
400.36
6.42
3.24
1.78
6.73
3.1
0.36
-5.28
-1.44
-1.99
0.26
-0.56
-0.3
0.46

> <PUBCHEM_SHAPE_SELFOVERLAP>
808.014

> <PUBCHEM_SHAPE_VOLUME>
226

> <PUBCHEM_COORDINATE_TYPE>
2
5
10

$$$$

