9166
  -OEChem-06261203283D

 34 38  0     0  0  0  0  0  0999 V2000
   -1.4237   -1.3597    0.0004 N   0  0  0  0  0  0  0  0  0  0  0  0
   -1.4237    1.3598    0.0004 N   0  0  0  0  0  0  0  0  0  0  0  0
    2.2100   -0.7146    0.0002 C   0  0  0  0  0  0  0  0  0  0  0  0
    2.2101    0.7146    0.0003 C   0  0  0  0  0  0  0  0  0  0  0  0
    0.9705   -1.4033    0.0004 C   0  0  0  0  0  0  0  0  0  0  0  0
    0.9704    1.4033    0.0003 C   0  0  0  0  0  0  0  0  0  0  0  0
   -0.2467   -0.6989    0.0005 C   0  0  0  0  0  0  0  0  0  0  0  0
   -0.2468    0.6989    0.0004 C   0  0  0  0  0  0  0  0  0  0  0  0
    3.3941   -1.4994   -0.0001 C   0  0  0  0  0  0  0  0  0  0  0  0
    3.3942    1.4994    0.0003 C   0  0  0  0  0  0  0  0  0  0  0  0
    0.9750   -2.8182    0.0001 C   0  0  0  0  0  0  0  0  0  0  0  0
    0.9749    2.8181   -0.0003 C   0  0  0  0  0  0  0  0  0  0  0  0
   -2.5867   -0.6949    0.0002 C   0  0  0  0  0  0  0  0  0  0  0  0
   -2.5867    0.6948    0.0002 C   0  0  0  0  0  0  0  0  0  0  0  0
    3.3692   -2.8943   -0.0006 C   0  0  0  0  0  0  0  0  0  0  0  0
    3.3692    2.8944   -0.0001 C   0  0  0  0  0  0  0  0  0  0  0  0
    2.1560   -3.5557   -0.0005 C   0  0  0  0  0  0  0  0  0  0  0  0
    2.1561    3.5557   -0.0008 C   0  0  0  0  0  0  0  0  0  0  0  0
   -3.8020   -1.3778   -0.0001 C   0  0  0  0  0  0  0  0  0  0  0  0
   -3.8019    1.3779   -0.0001 C   0  0  0  0  0  0  0  0  0  0  0  0
   -5.0157   -0.6933   -0.0005 C   0  0  0  0  0  0  0  0  0  0  0  0
   -5.0157    0.6934   -0.0005 C   0  0  0  0  0  0  0  0  0  0  0  0
    4.3776   -1.0369   -0.0002 H   0  0  0  0  0  0  0  0  0  0  0  0
    4.3777    1.0369    0.0005 H   0  0  0  0  0  0  0  0  0  0  0  0
    0.0411   -3.3787    0.0002 H   0  0  0  0  0  0  0  0  0  0  0  0
    0.0411    3.3786   -0.0005 H   0  0  0  0  0  0  0  0  0  0  0  0
    4.2989   -3.4552   -0.0011 H   0  0  0  0  0  0  0  0  0  0  0  0
    4.2989    3.4553   -0.0003 H   0  0  0  0  0  0  0  0  0  0  0  0
    2.1223   -4.6407   -0.0009 H   0  0  0  0  0  0  0  0  0  0  0  0
    2.1222    4.6407   -0.0013 H   0  0  0  0  0  0  0  0  0  0  0  0
   -3.8121   -2.4659   -0.0001 H   0  0  0  0  0  0  0  0  0  0  0  0
   -3.8119    2.4660   -0.0001 H   0  0  0  0  0  0  0  0  0  0  0  0
   -5.9523   -1.2420   -0.0008 H   0  0  0  0  0  0  0  0  0  0  0  0
   -5.9524    1.2421   -0.0007 H   0  0  0  0  0  0  0  0  0  0  0  0
  1  7  2  0  0  0  0
  1 13  1  0  0  0  0
  2  8  2  0  0  0  0
  2 14  1  0  0  0  0
  3  4  1  0  0  0  0
  3  5  1  0  0  0  0
  3  9  2  0  0  0  0
  4  6  1  0  0  0  0
  4 10  2  0  0  0  0
  5  7  1  0  0  0  0
  5 11  2  0  0  0  0
  6  8  1  0  0  0  0
  6 12  2  0  0  0  0
  7  8  1  0  0  0  0
  9 15  1  0  0  0  0
  9 23  1  0  0  0  0
 10 16  1  0  0  0  0
 10 24  1  0  0  0  0
 11 17  1  0  0  0  0
 11 25  1  0  0  0  0
 12 18  1  0  0  0  0
 12 26  1  0  0  0  0
 13 14  1  0  0  0  0
 13 19  2  0  0  0  0
 14 20  2  0  0  0  0
 15 17  2  0  0  0  0
 15 27  1  0  0  0  0
 16 18  2  0  0  0  0
 16 28  1  0  0  0  0
 17 29  1  0  0  0  0
 18 30  1  0  0  0  0
 19 21  1  0  0  0  0
 19 31  1  0  0  0  0
 20 22  1  0  0  0  0
 20 32  1  0  0  0  0
 21 22  2  0  0  0  0
 21 33  1  0  0  0  0
 22 34  1  0  0  0  0
M  END
> <PUBCHEM_COMPOUND_CID>
9166

> <PUBCHEM_CONFORMER_RMSD>
0.6

> <PUBCHEM_CONFORMER_DIVERSEORDER>
1

> <PUBCHEM_MMFF94_PARTIAL_CHARGES>
30
1 -0.62
10 -0.15
11 -0.15
12 -0.15
13 0.31
14 0.31
15 -0.15
16 -0.15
17 -0.15
18 -0.15
19 -0.15
2 -0.62
20 -0.15
21 -0.15
22 -0.15
23 0.15
24 0.15
25 0.15
26 0.15
27 0.15
28 0.15
29 0.15
30 0.15
31 0.15
32 0.15
33 0.15
34 0.15
7 0.31
8 0.31
9 -0.15

> <PUBCHEM_EFFECTIVE_ROTOR_COUNT>
0

> <PUBCHEM_PHARMACOPHORE_FEATURES>
7
1 1 acceptor
1 2 acceptor
6 1 2 7 8 13 14 rings
6 13 14 19 20 21 22 rings
6 3 4 5 6 7 8 rings
6 3 5 9 11 15 17 rings
6 4 6 10 12 16 18 rings

> <PUBCHEM_HEAVY_ATOM_COUNT>
22

> <PUBCHEM_ATOM_DEF_STEREO_COUNT>
0

> <PUBCHEM_ATOM_UDEF_STEREO_COUNT>
0

> <PUBCHEM_BOND_DEF_STEREO_COUNT>
0

> <PUBCHEM_BOND_UDEF_STEREO_COUNT>
0

> <PUBCHEM_ISOTOPIC_ATOM_COUNT>
0

> <PUBCHEM_COMPONENT_COUNT>
1

> <PUBCHEM_CACTVS_TAUTO_COUNT>
1

> <PUBCHEM_CONFORMER_ID>
000023CE00000001

> <PUBCHEM_MMFF94_ENERGY>
83.3003

> <PUBCHEM_FEATURE_SELFOVERLAP>
35.641

> <PUBCHEM_SHAPE_FINGERPRINT>
10319926 262 17035584955705233104
10411042 1 18050286161170950534
10616163 171 18194681467277121423
10693767 8 18114176458721200454
10967382 1 18410573963966752006
1100329 8 17832985327413848633
11370993 70 18194405489489291129
11578080 2 17202220683487410726
11963148 33 17981050708961300347
12107183 9 17974842076220699241
12173636 292 17761778364438421236
12403259 226 18271248351663135693
12553582 1 18050001387727395658
12592029 89 18338514123397275552
12730499 353 18268419158079125275
12788726 201 17550661553659780034
13009979 54 17678447778206979395
13140716 1 18194972846437458242
13533116 47 18334298656858397785
138480 1 18338517559698042592
14223421 5 18341612581982944203
14790565 3 18124307216830662548
14844126 61 16974212960319055602
15196674 1 18410856564594100871
15230672 131 15240878087841008407
15442244 35 18264767834429285313
15475509 35 16988560251526507691
15475509 8 17319548555817724981
15536298 74 18334858316012308481
15927050 60 18120655730778387966
16087824 20 17546162365032770501
16945 1 18410855464512799872
17492 89 18410293601761844995
18681886 176 18335145323287575186
18785283 64 18343017761784904824
19591789 44 17977944588189533930
19930381 70 18411703149513344929
20645477 70 18342182154686284691
20739085 24 18272655614983404484
21065198 57 18411418440879551251
21197605 99 17980190890862793115
21267235 1 18265606757359014147
21478907 32 17690843784010340826
221490 88 18413100667515571275
22393880 68 18335412426923041741
2255824 54 18409728448057041102
2334 1 18410575055109978272
23366157 5 18202001027419411054
23559900 14 18410017662501418299
25147074 1 18040434396147974721
2748010 2 17908971124457623082
3091708 16 9216277438477497450
314173 41 18265326390336010614
335352 9 18194401332530479229
33824 294 18339643339002948632
3421961 26 18337956791466753506
350125 39 18411982451458227860
352729 6 17763180237637237772
3886686 26 16109265697674687658
394222 165 17986120608541886024
4409770 3 17119171460769750988
474 4 18338800009463673961
5104073 3 18412541016487001905
54173680 148 17329992907286067854
543358 83 18336822078329386321
6138700 20 18410287022219334356
6443956 14 18340203119481489188
7364860 26 18410292510391011812
7808743 9 17474672750323338656
8272917 22 18409163294795816557
84936 182 18188209792990648072
9709674 26 18341610400240239555
9981440 41 18051136895254404257

> <PUBCHEM_SHAPE_MULTIPOLES>
442.79
8.25
4.18
0.61
10.06
0
0
0
0
-5.56
0
-0.01
0
0

> <PUBCHEM_SHAPE_SELFOVERLAP>
1034.161

> <PUBCHEM_SHAPE_VOLUME>
221.8

> <PUBCHEM_COORDINATE_TYPE>
2
5
10

$$$$

