442184
  -OEChem-07051212573D

 87 93  0     1  0  0  0  0  0999 V2000
    0.6556    0.3468    0.0389 O   0  0  0  0  0  0  0  0  0  0  0  0
    1.0501    2.7318   -1.3712 O   0  0  0  0  0  0  0  0  0  0  0  0
    3.5936    3.4523   -2.1619 O   0  0  0  0  0  0  0  0  0  0  0  0
    0.0011   -1.9916   -1.8059 O   0  0  0  0  0  0  0  0  0  0  0  0
   -2.5739   -3.1376   -1.2779 O   0  0  0  0  0  0  0  0  0  0  0  0
   -2.8975   -4.6728    0.9730 O   0  0  0  0  0  0  0  0  0  0  0  0
    1.0667    1.0850    2.7888 O   0  0  0  0  0  0  0  0  0  0  0  0
    4.0723   -1.7774    1.4353 N   0  0  2  0  0  0  0  0  0  0  0  0
   -4.1645    3.9839    0.5248 N   0  0  0  0  0  0  0  0  0  0  0  0
    2.8091   -1.4125    0.7453 C   0  0  1  0  0  0  0  0  0  0  0  0
    3.0024   -0.0919   -0.0178 C   0  0  0  0  0  0  0  0  0  0  0  0
    5.1921   -1.8919    0.5014 C   0  0  0  0  0  0  0  0  0  0  0  0
    5.5123   -0.5172   -0.0792 C   0  0  0  0  0  0  0  0  0  0  0  0
    4.2932    0.2915   -0.4424 C   0  0  0  0  0  0  0  0  0  0  0  0
    2.2380   -2.5101   -0.2110 C   0  0  0  0  0  0  0  0  0  0  0  0
    1.9198    0.7554   -0.3225 C   0  0  0  0  0  0  0  0  0  0  0  0
    3.9725   -2.9397    2.3058 C   0  0  0  0  0  0  0  0  0  0  0  0
    4.4760    1.4864   -1.1560 C   0  0  0  0  0  0  0  0  0  0  0  0
    0.8474   -3.0143    0.1321 C   0  0  0  0  0  0  0  0  0  0  0  0
    2.1135    1.9348   -1.0547 C   0  0  0  0  0  0  0  0  0  0  0  0
    3.3910    2.2995   -1.4653 C   0  0  0  0  0  0  0  0  0  0  0  0
   -0.2392   -2.7783   -0.7240 C   0  0  0  0  0  0  0  0  0  0  0  0
    0.6357   -3.7982    1.2769 C   0  0  0  0  0  0  0  0  0  0  0  0
   -0.1338    1.2793    0.6706 C   0  0  0  0  0  0  0  0  0  0  0  0
   -1.5005   -3.3180   -0.4286 C   0  0  0  0  0  0  0  0  0  0  0  0
   -0.6203   -4.3412    1.5596 C   0  0  0  0  0  0  0  0  0  0  0  0
   -2.1661    2.5768    0.6436 C   0  0  0  0  0  0  0  0  0  0  0  0
   -1.9620    2.9105    1.9902 C   0  0  0  0  0  0  0  0  0  0  0  0
   -1.2233    1.8009   -0.0286 C   0  0  0  0  0  0  0  0  0  0  0  0
   -1.6892   -4.1133    0.7002 C   0  0  0  0  0  0  0  0  0  0  0  0
    0.0614    1.5763    2.0186 C   0  0  0  0  0  0  0  0  0  0  0  0
   -2.9937    3.7443    2.6914 C   0  0  0  0  0  0  0  0  0  0  0  0
   -3.4616    3.0144    0.0344 C   0  0  0  0  0  0  0  0  0  0  0  0
   -0.8464    2.4087    2.6727 C   0  0  0  0  0  0  0  0  0  0  0  0
   -3.6308    4.6971    1.6889 C   0  0  0  0  0  0  0  0  0  0  0  0
   -4.0372    2.3195   -1.2025 C   0  0  0  0  0  0  0  0  0  0  0  0
    0.7967    2.9532   -2.7567 C   0  0  0  0  0  0  0  0  0  0  0  0
    3.8609    4.6298   -1.4029 C   0  0  0  0  0  0  0  0  0  0  0  0
   -3.8444    0.8240   -1.2686 C   0  0  0  0  0  0  0  0  0  0  0  0
   -3.0699   -1.8536   -1.2830 C   0  0  0  0  0  0  0  0  0  0  0  0
    0.4265   -2.6458   -2.9986 C   0  0  0  0  0  0  0  0  0  0  0  0
   -3.3034    0.2465   -2.4295 C   0  0  0  0  0  0  0  0  0  0  0  0
   -4.1205    0.0062   -0.1636 C   0  0  0  0  0  0  0  0  0  0  0  0
   -2.9148   -1.0911   -2.4382 C   0  0  0  0  0  0  0  0  0  0  0  0
   -3.7241   -1.3300   -0.1654 C   0  0  0  0  0  0  0  0  0  0  0  0
   -3.1468   -5.9682    0.4318 C   0  0  0  0  0  0  0  0  0  0  0  0
    2.2760    1.8398    2.8317 C   0  0  0  0  0  0  0  0  0  0  0  0
    2.0843   -1.2050    1.5430 H   0  0  0  0  0  0  0  0  0  0  0  0
    4.9783   -2.6054   -0.3034 H   0  0  0  0  0  0  0  0  0  0  0  0
    6.0928   -2.2583    1.0102 H   0  0  0  0  0  0  0  0  0  0  0  0
    6.1498   -0.6448   -0.9625 H   0  0  0  0  0  0  0  0  0  0  0  0
    6.0828    0.0581    0.6620 H   0  0  0  0  0  0  0  0  0  0  0  0
    2.8747   -3.4043   -0.2046 H   0  0  0  0  0  0  0  0  0  0  0  0
    2.3097   -2.1637   -1.2463 H   0  0  0  0  0  0  0  0  0  0  0  0
    3.1539   -2.8168    3.0226 H   0  0  0  0  0  0  0  0  0  0  0  0
    4.8851   -3.0421    2.9042 H   0  0  0  0  0  0  0  0  0  0  0  0
    3.8315   -3.8760    1.7576 H   0  0  0  0  0  0  0  0  0  0  0  0
    5.4756    1.7829   -1.4668 H   0  0  0  0  0  0  0  0  0  0  0  0
    1.4537   -4.0230    1.9527 H   0  0  0  0  0  0  0  0  0  0  0  0
   -0.7492   -4.9556    2.4468 H   0  0  0  0  0  0  0  0  0  0  0  0
   -1.3368    1.5503   -1.0758 H   0  0  0  0  0  0  0  0  0  0  0  0
   -3.7506    3.0796    3.1249 H   0  0  0  0  0  0  0  0  0  0  0  0
   -2.5401    4.3227    3.5040 H   0  0  0  0  0  0  0  0  0  0  0  0
   -0.7080    2.6438    3.7258 H   0  0  0  0  0  0  0  0  0  0  0  0
   -4.4519    5.2343    2.1762 H   0  0  0  0  0  0  0  0  0  0  0  0
   -2.9114    5.4528    1.3491 H   0  0  0  0  0  0  0  0  0  0  0  0
   -3.5843    2.8082   -2.0744 H   0  0  0  0  0  0  0  0  0  0  0  0
   -5.1152    2.5194   -1.2520 H   0  0  0  0  0  0  0  0  0  0  0  0
   -0.2839    3.0597   -2.8908 H   0  0  0  0  0  0  0  0  0  0  0  0
    1.2670    3.8850   -3.0822 H   0  0  0  0  0  0  0  0  0  0  0  0
    1.1356    2.1160   -3.3768 H   0  0  0  0  0  0  0  0  0  0  0  0
    3.0285    4.8508   -0.7271 H   0  0  0  0  0  0  0  0  0  0  0  0
    3.9784    5.4658   -2.0978 H   0  0  0  0  0  0  0  0  0  0  0  0
    4.7879    4.5153   -0.8322 H   0  0  0  0  0  0  0  0  0  0  0  0
    1.1711   -3.4239   -2.8007 H   0  0  0  0  0  0  0  0  0  0  0  0
    0.8680   -1.8967   -3.6615 H   0  0  0  0  0  0  0  0  0  0  0  0
   -0.4366   -3.0923   -3.5018 H   0  0  0  0  0  0  0  0  0  0  0  0
   -3.1151    0.8552   -3.3106 H   0  0  0  0  0  0  0  0  0  0  0  0
   -4.5783    0.4216    0.7304 H   0  0  0  0  0  0  0  0  0  0  0  0
   -2.4520   -1.5112   -3.3259 H   0  0  0  0  0  0  0  0  0  0  0  0
   -3.8941   -1.9368    0.7189 H   0  0  0  0  0  0  0  0  0  0  0  0
   -2.4322   -6.6947    0.8313 H   0  0  0  0  0  0  0  0  0  0  0  0
   -3.0909   -5.9479   -0.6612 H   0  0  0  0  0  0  0  0  0  0  0  0
   -4.1555   -6.2730    0.7241 H   0  0  0  0  0  0  0  0  0  0  0  0
    2.4007    2.4902    1.9603 H   0  0  0  0  0  0  0  0  0  0  0  0
    2.2752    2.4554    3.7363 H   0  0  0  0  0  0  0  0  0  0  0  0
    3.1187    1.1455    2.8859 H   0  0  0  0  0  0  0  0  0  0  0  0
  1 16  1  0  0  0  0
  1 24  1  0  0  0  0
  2 20  1  0  0  0  0
  2 37  1  0  0  0  0
  3 21  1  0  0  0  0
  3 38  1  0  0  0  0
  4 22  1  0  0  0  0
  4 41  1  0  0  0  0
  5 25  1  0  0  0  0
  5 40  1  0  0  0  0
  6 30  1  0  0  0  0
  6 46  1  0  0  0  0
  7 31  1  0  0  0  0
  7 47  1  0  0  0  0
  8 10  1  0  0  0  0
  8 12  1  0  0  0  0
  8 17  1  0  0  0  0
  9 33  2  0  0  0  0
  9 35  1  0  0  0  0
 10 11  1  0  0  0  0
 10 15  1  0  0  0  0
 10 48  1  0  0  0  0
 11 14  1  0  0  0  0
 11 16  2  0  0  0  0
 12 13  1  0  0  0  0
 12 49  1  0  0  0  0
 12 50  1  0  0  0  0
 13 14  1  0  0  0  0
 13 51  1  0  0  0  0
 13 52  1  0  0  0  0
 14 18  2  0  0  0  0
 15 19  1  0  0  0  0
 15 53  1  0  0  0  0
 15 54  1  0  0  0  0
 16 20  1  0  0  0  0
 17 55  1  0  0  0  0
 17 56  1  0  0  0  0
 17 57  1  0  0  0  0
 18 21  1  0  0  0  0
 18 58  1  0  0  0  0
 19 22  2  0  0  0  0
 19 23  1  0  0  0  0
 20 21  2  0  0  0  0
 22 25  1  0  0  0  0
 23 26  2  0  0  0  0
 23 59  1  0  0  0  0
 24 29  1  0  0  0  0
 24 31  2  0  0  0  0
 25 30  2  0  0  0  0
 26 30  1  0  0  0  0
 26 60  1  0  0  0  0
 27 28  1  0  0  0  0
 27 29  2  0  0  0  0
 27 33  1  0  0  0  0
 28 32  1  0  0  0  0
 28 34  2  0  0  0  0
 29 61  1  0  0  0  0
 31 34  1  0  0  0  0
 32 35  1  0  0  0  0
 32 62  1  0  0  0  0
 32 63  1  0  0  0  0
 33 36  1  0  0  0  0
 34 64  1  0  0  0  0
 35 65  1  0  0  0  0
 35 66  1  0  0  0  0
 36 39  1  0  0  0  0
 36 67  1  0  0  0  0
 36 68  1  0  0  0  0
 37 69  1  0  0  0  0
 37 70  1  0  0  0  0
 37 71  1  0  0  0  0
 38 72  1  0  0  0  0
 38 73  1  0  0  0  0
 38 74  1  0  0  0  0
 39 42  2  0  0  0  0
 39 43  1  0  0  0  0
 40 44  2  0  0  0  0
 40 45  1  0  0  0  0
 41 75  1  0  0  0  0
 41 76  1  0  0  0  0
 41 77  1  0  0  0  0
 42 44  1  0  0  0  0
 42 78  1  0  0  0  0
 43 45  2  0  0  0  0
 43 79  1  0  0  0  0
 44 80  1  0  0  0  0
 45 81  1  0  0  0  0
 46 82  1  0  0  0  0
 46 83  1  0  0  0  0
 46 84  1  0  0  0  0
 47 85  1  0  0  0  0
 47 86  1  0  0  0  0
 47 87  1  0  0  0  0
M  END
> <PUBCHEM_COMPOUND_CID>
442184

> <PUBCHEM_CONFORMER_RMSD>
1

> <PUBCHEM_CONFORMER_DIVERSEORDER>
1
7
2
6
3
5
4

> <PUBCHEM_MMFF94_PARTIAL_CHARGES>
56
1 -0.17
10 0.41
11 -0.14
12 0.27
13 0.14
14 -0.14
15 0.14
16 0.08
17 0.27
18 -0.15
19 -0.14
2 -0.36
20 0.08
21 0.08
22 0.08
23 -0.15
24 0.08
25 0.08
26 -0.15
27 0.09
28 -0.14
29 -0.15
3 -0.36
30 0.08
31 0.08
32 0.14
33 0.3
34 -0.15
35 0.25
36 0.2
37 0.28
38 0.28
39 -0.14
4 -0.36
40 0.08
41 0.28
42 -0.15
43 -0.15
44 -0.15
45 -0.15
46 0.28
47 0.28
5 -0.17
58 0.15
59 0.15
6 -0.36
60 0.15
61 0.15
64 0.15
7 -0.36
78 0.15
79 0.15
8 -0.81
80 0.15
81 0.15
9 -0.7

> <PUBCHEM_EFFECTIVE_ROTOR_COUNT>
6.8

> <PUBCHEM_PHARMACOPHORE_FEATURES>
15
1 1 acceptor
1 2 acceptor
1 3 acceptor
1 4 acceptor
1 5 acceptor
1 6 acceptor
1 7 acceptor
1 8 cation
1 9 acceptor
6 11 14 16 18 20 21 rings
6 19 22 23 25 26 30 rings
6 24 27 28 29 31 34 rings
6 39 40 42 43 44 45 rings
6 8 10 11 12 13 14 rings
6 9 27 28 32 33 35 rings

> <PUBCHEM_HEAVY_ATOM_COUNT>
47

> <PUBCHEM_ATOM_DEF_STEREO_COUNT>
1

> <PUBCHEM_ATOM_UDEF_STEREO_COUNT>
0

> <PUBCHEM_BOND_DEF_STEREO_COUNT>
0

> <PUBCHEM_BOND_UDEF_STEREO_COUNT>
0

> <PUBCHEM_ISOTOPIC_ATOM_COUNT>
0

> <PUBCHEM_COMPONENT_COUNT>
1

> <PUBCHEM_CACTVS_TAUTO_COUNT>
1

> <PUBCHEM_CONFORMER_ID>
0006BF4800000001

> <PUBCHEM_MMFF94_ENERGY>
232.2054

> <PUBCHEM_FEATURE_SELFOVERLAP>
76.183

> <PUBCHEM_SHAPE_FINGERPRINT>
10653451 467 16749027992330385240
11421498 54 17836641929604186752
11513181 2 16881901151058829567
12608794 3 18128542767600979484
12788726 201 18261104132503966989
14117953 113 17835814362288940358
14400156 96 5145263516222219050
14918310 93 16966310769996475677
15001296 14 18198906903099211748
15297060 5 17315362680707224962
15351339 4 17839186203995900890
15406563 228 18272087197874004628
16112460 7 17975416037921510762
161222 10 17898562335597896868
17138139 8 17970093181893104917
19309040 13 17484758810739509045
19319366 153 18046344412380175033
20764821 26 18117293457825766651
3493558 16 17986108500844293158
469060 322 17839763778181200066
50150288 127 18042946727707722853
53814476 47 17404520820626056947

> <PUBCHEM_SHAPE_MULTIPOLES>
916.19
9.01
7.94
2.89
3.87
5.6
-0.23
-4.23
0.15
-4.28
-1.35
-0.26
-1.64
-4.12

> <PUBCHEM_SHAPE_SELFOVERLAP>
2024

> <PUBCHEM_SHAPE_VOLUME>
489.7

> <PUBCHEM_COORDINATE_TYPE>
2
5
10

$$$$

