17396165
  -OEChem-06241222553D

 47 49  0     0  0  0  0  0  0999 V2000
    3.7811    1.6779    0.0398 O   0  0  0  0  0  0  0  0  0  0  0  0
   -5.0104    1.8151    0.1513 O   0  0  0  0  0  0  0  0  0  0  0  0
   -4.2797   -2.9100   -0.1185 O   0  0  0  0  0  0  0  0  0  0  0  0
   -6.0199   -0.7610    0.0360 O   0  0  0  0  0  0  0  0  0  0  0  0
   -0.3745    2.4199    0.0797 O   0  0  0  0  0  0  0  0  0  0  0  0
   -0.5156    0.0945   -0.0414 N   0  0  0  0  0  0  0  0  0  0  0  0
    2.2750   -0.0078   -0.0308 N   0  0  0  0  0  0  0  0  0  0  0  0
   -1.9161   -0.1232   -0.0223 C   0  0  0  0  0  0  0  0  0  0  0  0
    1.6226    1.1977    0.0108 C   0  0  0  0  0  0  0  0  0  0  0  0
    2.5332    2.2238    0.0540 C   0  0  0  0  0  0  0  0  0  0  0  0
   -2.4209   -1.4222   -0.0805 C   0  0  0  0  0  0  0  0  0  0  0  0
   -2.7895    0.9616    0.0548 C   0  0  0  0  0  0  0  0  0  0  0  0
   -4.1677    0.7474    0.0738 C   0  0  0  0  0  0  0  0  0  0  0  0
   -3.7992   -1.6365   -0.0615 C   0  0  0  0  0  0  0  0  0  0  0  0
   -4.6727   -0.5516    0.0157 C   0  0  0  0  0  0  0  0  0  0  0  0
    3.5421    0.3388   -0.0115 C   0  0  0  0  0  0  0  0  0  0  0  0
    0.1968    1.3112    0.0079 C   0  0  0  0  0  0  0  0  0  0  0  0
    4.7194   -0.4945   -0.0368 C   0  0  0  0  0  0  0  0  0  0  0  0
    2.4474    3.6876    0.1085 C   0  0  0  0  0  0  0  0  0  0  0  0
    5.9864    0.0883   -0.0087 C   0  0  0  0  0  0  0  0  0  0  0  0
    4.5913   -1.8825   -0.0901 C   0  0  0  0  0  0  0  0  0  0  0  0
    7.1253   -0.7166   -0.0342 C   0  0  0  0  0  0  0  0  0  0  0  0
    5.7303   -2.6874   -0.1155 C   0  0  0  0  0  0  0  0  0  0  0  0
    6.9972   -2.1044   -0.0876 C   0  0  0  0  0  0  0  0  0  0  0  0
   -4.4134    3.1091    0.2070 C   0  0  0  0  0  0  0  0  0  0  0  0
   -4.4801   -3.5832    1.1228 C   0  0  0  0  0  0  0  0  0  0  0  0
   -6.6887   -0.7921   -1.2227 C   0  0  0  0  0  0  0  0  0  0  0  0
   -1.7450   -2.2721   -0.1416 H   0  0  0  0  0  0  0  0  0  0  0  0
   -2.4074    1.9633    0.1000 H   0  0  0  0  0  0  0  0  0  0  0  0
    0.0438   -0.7548   -0.0932 H   0  0  0  0  0  0  0  0  0  0  0  0
    3.4410    4.1469    0.1173 H   0  0  0  0  0  0  0  0  0  0  0  0
    1.9070    4.0747   -0.7607 H   0  0  0  0  0  0  0  0  0  0  0  0
    1.9214    4.0092    1.0127 H   0  0  0  0  0  0  0  0  0  0  0  0
    6.1278    1.1653    0.0328 H   0  0  0  0  0  0  0  0  0  0  0  0
    3.6141   -2.3587   -0.1129 H   0  0  0  0  0  0  0  0  0  0  0  0
    8.1120   -0.2632   -0.0125 H   0  0  0  0  0  0  0  0  0  0  0  0
    5.6309   -3.7682   -0.1571 H   0  0  0  0  0  0  0  0  0  0  0  0
    7.8840   -2.7312   -0.1074 H   0  0  0  0  0  0  0  0  0  0  0  0
   -3.8131    3.2409    1.1139 H   0  0  0  0  0  0  0  0  0  0  0  0
   -3.8548    3.3385   -0.7070 H   0  0  0  0  0  0  0  0  0  0  0  0
   -5.2309    3.8356    0.2647 H   0  0  0  0  0  0  0  0  0  0  0  0
   -3.5321   -3.6860    1.6604 H   0  0  0  0  0  0  0  0  0  0  0  0
   -5.2063   -3.0455    1.7405 H   0  0  0  0  0  0  0  0  0  0  0  0
   -4.8725   -4.5817    0.9114 H   0  0  0  0  0  0  0  0  0  0  0  0
   -6.5747    0.1638   -1.7436 H   0  0  0  0  0  0  0  0  0  0  0  0
   -6.3028   -1.6064   -1.8441 H   0  0  0  0  0  0  0  0  0  0  0  0
   -7.7528   -0.9660   -1.0409 H   0  0  0  0  0  0  0  0  0  0  0  0
  1 10  1  0  0  0  0
  1 16  1  0  0  0  0
  2 13  1  0  0  0  0
  2 25  1  0  0  0  0
  3 14  1  0  0  0  0
  3 26  1  0  0  0  0
  4 15  1  0  0  0  0
  4 27  1  0  0  0  0
  5 17  2  0  0  0  0
  6  8  1  0  0  0  0
  6 17  1  0  0  0  0
  6 30  1  0  0  0  0
  7  9  1  0  0  0  0
  7 16  2  0  0  0  0
  8 11  2  0  0  0  0
  8 12  1  0  0  0  0
  9 10  2  0  0  0  0
  9 17  1  0  0  0  0
 10 19  1  0  0  0  0
 11 14  1  0  0  0  0
 11 28  1  0  0  0  0
 12 13  2  0  0  0  0
 12 29  1  0  0  0  0
 13 15  1  0  0  0  0
 14 15  2  0  0  0  0
 16 18  1  0  0  0  0
 18 20  2  0  0  0  0
 18 21  1  0  0  0  0
 19 31  1  0  0  0  0
 19 32  1  0  0  0  0
 19 33  1  0  0  0  0
 20 22  1  0  0  0  0
 20 34  1  0  0  0  0
 21 23  2  0  0  0  0
 21 35  1  0  0  0  0
 22 24  2  0  0  0  0
 22 36  1  0  0  0  0
 23 24  1  0  0  0  0
 23 37  1  0  0  0  0
 24 38  1  0  0  0  0
 25 39  1  0  0  0  0
 25 40  1  0  0  0  0
 25 41  1  0  0  0  0
 26 42  1  0  0  0  0
 26 43  1  0  0  0  0
 26 44  1  0  0  0  0
 27 45  1  0  0  0  0
 27 46  1  0  0  0  0
 27 47  1  0  0  0  0
M  END
> <PUBCHEM_COMPOUND_CID>
17396165

> <PUBCHEM_CONFORMER_RMSD>
0.8

> <PUBCHEM_CONFORMER_DIVERSEORDER>
1
8
7
2
3
15
11
10
5
16
9
14
13
4
12
6

> <PUBCHEM_MMFF94_PARTIAL_CHARGES>
35
1 -0.28
10 -0.04
11 -0.15
12 -0.15
13 0.08
14 0.08
15 0.08
16 0.43
17 0.72
18 0.05
19 0.18
2 -0.36
20 -0.15
21 -0.15
22 -0.15
23 -0.15
24 -0.15
25 0.28
26 0.28
27 0.28
28 0.15
29 0.15
3 -0.36
30 0.37
34 0.15
35 0.15
36 0.15
37 0.15
38 0.15
4 -0.36
5 -0.57
6 -0.55
7 -0.57
8 0.12
9 0.14

> <PUBCHEM_EFFECTIVE_ROTOR_COUNT>
7

> <PUBCHEM_PHARMACOPHORE_FEATURES>
8
1 2 acceptor
1 3 acceptor
1 4 acceptor
1 5 acceptor
1 6 donor
5 1 7 9 10 16 rings
6 18 20 21 22 23 24 rings
6 8 11 12 13 14 15 rings

> <PUBCHEM_HEAVY_ATOM_COUNT>
27

> <PUBCHEM_ATOM_DEF_STEREO_COUNT>
0

> <PUBCHEM_ATOM_UDEF_STEREO_COUNT>
0

> <PUBCHEM_BOND_DEF_STEREO_COUNT>
0

> <PUBCHEM_BOND_UDEF_STEREO_COUNT>
0

> <PUBCHEM_ISOTOPIC_ATOM_COUNT>
0

> <PUBCHEM_COMPONENT_COUNT>
1

> <PUBCHEM_CACTVS_TAUTO_COUNT>
2

> <PUBCHEM_CONFORMER_ID>
010971C500000001

> <PUBCHEM_MMFF94_ENERGY>
96.5629

> <PUBCHEM_FEATURE_SELFOVERLAP>
40.604

> <PUBCHEM_SHAPE_FINGERPRINT>
10050765 1 18410292506413621008
10319926 262 18335431170149921416
10391435 84 18340778039762271050
10622 236 17389687192881021007
11405975 8 18408318869855544521
11456790 92 17895180101183124747
11524674 6 17167867477933895295
117089 54 18126837192943958539
11796584 16 18337107973175584602
12107183 9 18263917903340920561
12166972 35 18186241718795709888
12516196 113 18335423491502698136
12645989 146 18334580110091416045
12760667 363 18334577953664346631
13402501 40 18411417324020028766
13533116 47 18335986363382076961
13685833 64 18411135840167955810
13955234 65 17973443200914037312
14420673 8 18410852204559230422
15021287 119 17631999949027350077
15183329 4 18202005460121365186
15352361 1 18410292532367073158
15361156 5 18060128800151514310
15890870 6 18050287270085428945
17492 89 18267583499050715203
17844677 252 18409442562059545481
17857418 61 18408604751347232006
18393751 57 16817728812050055913
20028762 73 18187367632025648558
20567600 70 18410575098344702370
21065198 57 18410012091929153481
21267235 1 18412540999154138129
23522609 53 18123719133039978332
23559900 14 18338804399147253281
249057 3 18411981407881551069
3004659 81 18201721752151686720
335352 9 18338236071937293845
3421961 26 18336267856308881112
4073 2 18201716194211097402
4214541 1 18410292510634144121
44062 13 18410854373712555959
46194498 28 17632577115991960396
465052 167 18333445431366404742
5104073 3 18187358796770927601
559249 180 18336266838042532965
6695519 79 17183882693842655336
7970288 3 18339927142696777610
9709674 26 18198338459793019491
999808 66 17988628706370837467

> <PUBCHEM_SHAPE_MULTIPOLES>
516.34
19.15
3.88
0.71
9.29
0.45
-0.02
-11.73
-1.5
-1.29
0.64
-0.6
-0.23
0.43

> <PUBCHEM_SHAPE_SELFOVERLAP>
1117.523

> <PUBCHEM_SHAPE_VOLUME>
285.7

> <PUBCHEM_COORDINATE_TYPE>
2
5
10

$$$$

