56928117
  -OEChem-07051213153D

 42 44  0     1  0  0  0  0  0999 V2000
    1.3706    0.4469   -2.0381 O   0  0  0  0  0  0  0  0  0  0  0  0
   -0.1260   -0.9967   -0.7022 C   0  0  2  0  0  0  0  0  0  0  0  0
    0.5247    0.4300   -0.8750 C   0  0  1  0  0  0  0  0  0  0  0  0
   -1.1977   -0.8491    0.4269 C   0  0  1  0  0  0  0  0  0  0  0  0
    1.3984    0.7615    0.4225 C   0  0  0  0  0  0  0  0  0  0  0  0
    1.0260   -0.2795    1.5409 C   0  0  1  0  0  0  0  0  0  0  0  0
   -0.5024   -0.3650    1.7296 C   0  0  0  0  0  0  0  0  0  0  0  0
    0.9241   -2.0432   -0.2238 C   0  0  0  0  0  0  0  0  0  0  0  0
    1.4861   -1.6895    1.1499 C   0  0  0  0  0  0  0  0  0  0  0  0
   -2.3520    0.0827   -0.0045 C   0  0  2  0  0  0  0  0  0  0  0  0
   -0.5813    1.4673   -1.2306 C   0  0  0  0  0  0  0  0  0  0  0  0
   -1.8391    1.4812   -0.3603 C   0  0  0  0  0  0  0  0  0  0  0  0
   -0.7221   -1.5484   -2.0152 C   0  0  0  0  0  0  0  0  0  0  0  0
    2.9284    0.7397    0.1925 C   0  0  0  0  0  0  0  0  0  0  0  0
    1.1321    2.2035    0.9473 C   0  0  0  0  0  0  0  0  0  0  0  0
   -3.4698    0.1587    1.0401 C   0  0  0  0  0  0  0  0  0  0  0  0
   -1.6295   -1.8407    0.6249 H   0  0  0  0  0  0  0  0  0  0  0  0
    1.4921    0.0008    2.4936 H   0  0  0  0  0  0  0  0  0  0  0  0
   -0.7310   -1.0800    2.5315 H   0  0  0  0  0  0  0  0  0  0  0  0
   -0.8896    0.5917    2.0878 H   0  0  0  0  0  0  0  0  0  0  0  0
    1.7455   -2.1039   -0.9489 H   0  0  0  0  0  0  0  0  0  0  0  0
    0.4804   -3.0462   -0.1805 H   0  0  0  0  0  0  0  0  0  0  0  0
    1.1357   -2.4185    1.8918 H   0  0  0  0  0  0  0  0  0  0  0  0
    2.5780   -1.7745    1.1501 H   0  0  0  0  0  0  0  0  0  0  0  0
   -2.8180   -0.3414   -0.9022 H   0  0  0  0  0  0  0  0  0  0  0  0
   -0.9078    1.2764   -2.2633 H   0  0  0  0  0  0  0  0  0  0  0  0
   -0.1676    2.4803   -1.2979 H   0  0  0  0  0  0  0  0  0  0  0  0
   -1.6822    2.0683    0.5464 H   0  0  0  0  0  0  0  0  0  0  0  0
   -2.6275    2.0210   -0.9017 H   0  0  0  0  0  0  0  0  0  0  0  0
   -1.4223   -0.8609   -2.4952 H   0  0  0  0  0  0  0  0  0  0  0  0
   -1.2599   -2.4859   -1.8327 H   0  0  0  0  0  0  0  0  0  0  0  0
    0.0668   -1.7611   -2.7458 H   0  0  0  0  0  0  0  0  0  0  0  0
    3.4757    0.8209    1.1388 H   0  0  0  0  0  0  0  0  0  0  0  0
    3.2579   -0.1788   -0.3028 H   0  0  0  0  0  0  0  0  0  0  0  0
    3.2478    1.5737   -0.4433 H   0  0  0  0  0  0  0  0  0  0  0  0
    0.1245    2.3665    1.3198 H   0  0  0  0  0  0  0  0  0  0  0  0
    1.7905    2.4196    1.7991 H   0  0  0  0  0  0  0  0  0  0  0  0
    1.3551    2.9577    0.1852 H   0  0  0  0  0  0  0  0  0  0  0  0
    1.7091    1.3517   -2.1498 H   0  0  0  0  0  0  0  0  0  0  0  0
   -3.1410    0.6351    1.9685 H   0  0  0  0  0  0  0  0  0  0  0  0
   -3.8391   -0.8428    1.2846 H   0  0  0  0  0  0  0  0  0  0  0  0
   -4.3142    0.7396    0.6532 H   0  0  0  0  0  0  0  0  0  0  0  0
  1  3  1  0  0  0  0
  1 39  1  0  0  0  0
  2  3  1  0  0  0  0
  2  4  1  0  0  0  0
  2  8  1  0  0  0  0
  2 13  1  0  0  0  0
  3  5  1  0  0  0  0
  3 11  1  0  0  0  0
  4  7  1  0  0  0  0
  4 10  1  0  0  0  0
  4 17  1  0  0  0  0
  5  6  1  0  0  0  0
  5 14  1  0  0  0  0
  5 15  1  0  0  0  0
  6  7  1  0  0  0  0
  6  9  1  0  0  0  0
  6 18  1  0  0  0  0
  7 19  1  0  0  0  0
  7 20  1  0  0  0  0
  8  9  1  0  0  0  0
  8 21  1  0  0  0  0
  8 22  1  0  0  0  0
  9 23  1  0  0  0  0
  9 24  1  0  0  0  0
 10 12  1  0  0  0  0
 10 16  1  0  0  0  0
 10 25  1  0  0  0  0
 11 12  1  0  0  0  0
 11 26  1  0  0  0  0
 11 27  1  0  0  0  0
 12 28  1  0  0  0  0
 12 29  1  0  0  0  0
 13 30  1  0  0  0  0
 13 31  1  0  0  0  0
 13 32  1  0  0  0  0
 14 33  1  0  0  0  0
 14 34  1  0  0  0  0
 14 35  1  0  0  0  0
 15 36  1  0  0  0  0
 15 37  1  0  0  0  0
 15 38  1  0  0  0  0
 16 40  1  0  0  0  0
 16 41  1  0  0  0  0
 16 42  1  0  0  0  0
M  END
> <PUBCHEM_COMPOUND_CID>
56928117

> <PUBCHEM_CONFORMER_RMSD>
0.6

> <PUBCHEM_CONFORMER_DIVERSEORDER>
1

> <PUBCHEM_MMFF94_PARTIAL_CHARGES>
3
1 -0.68
3 0.28
39 0.4

> <PUBCHEM_EFFECTIVE_ROTOR_COUNT>
1.4

> <PUBCHEM_PHARMACOPHORE_FEATURES>
5
1 1 acceptor
1 1 donor
3 5 14 15 hydrophobe
6 2 3 4 10 11 12 rings
8 2 3 4 5 6 7 8 9 rings

> <PUBCHEM_HEAVY_ATOM_COUNT>
16

> <PUBCHEM_ATOM_DEF_STEREO_COUNT>
4

> <PUBCHEM_ATOM_UDEF_STEREO_COUNT>
1

> <PUBCHEM_BOND_DEF_STEREO_COUNT>
0

> <PUBCHEM_BOND_UDEF_STEREO_COUNT>
0

> <PUBCHEM_ISOTOPIC_ATOM_COUNT>
0

> <PUBCHEM_COMPONENT_COUNT>
1

> <PUBCHEM_CACTVS_TAUTO_COUNT>
1

> <PUBCHEM_CONFORMER_ID>
0364A77500000001

> <PUBCHEM_MMFF94_ENERGY>
80.2918

> <PUBCHEM_FEATURE_SELFOVERLAP>
25.685

> <PUBCHEM_SHAPE_FINGERPRINT>
10702982 57 18114751408353933090
10863032 1 17773034369861608488
10948715 1 17895470323905975128
12138202 97 17096637708666307588
12326174 3 17604422028316954095
12423570 1 10359630206593595722
12491281 212 17972880258991049496
12808571 1 17822576010240995961
13024252 1 15478501848063944656
141345 1 13208304387004365302
14142880 1 16961845112332504481
144361 1 18053353742639817918
14817 1 12316413076076676295
15557651 10 18336259046534267952
15775835 57 18336825295001376313
15881359 60 16554846713975880113
16945 1 18271539640344556088
20511035 2 18055651747880797093
21922407 69 17831622761701736267
22344851 341 17772473636216755368
23419403 2 17981330306709046774
23559900 14 16977604932685835282
241688 4 17129303340070938521
2748010 2 17559689518880228495
430814 3 17895764993095877257
5084963 1 17687421764622174463
54276843 12 17488753250709271244

> <PUBCHEM_SHAPE_MULTIPOLES>
323.4
3.23
2.01
1.82
1.46
0.05
-0.32
-0.79
0.9
-0.54
-0.2
0
0.28
-0.13

> <PUBCHEM_SHAPE_SELFOVERLAP>
685.787

> <PUBCHEM_SHAPE_VOLUME>
178.6

> <PUBCHEM_COORDINATE_TYPE>
2
5
10

$$$$

