12339
  -OEChem-06261206503D

 18 17  0     0  0  0  0  0  0999 V2000
   -2.2451    0.5120   -0.4340 S   0  0  0  0  0  0  0  0  0  0  0  0
    0.4881   -0.0238   -0.2072 C   0  0  0  0  0  0  0  0  0  0  0  0
    1.8709    0.3225    0.3512 C   0  0  0  0  0  0  0  0  0  0  0  0
   -0.6224    0.9054    0.2827 C   0  0  0  0  0  0  0  0  0  0  0  0
    2.9482   -0.5690   -0.2480 C   0  0  0  0  0  0  0  0  0  0  0  0
   -2.4397   -1.1471    0.2554 C   0  0  0  0  0  0  0  0  0  0  0  0
    0.2693   -1.0610    0.0701 H   0  0  0  0  0  0  0  0  0  0  0  0
    0.5307    0.0123   -1.3036 H   0  0  0  0  0  0  0  0  0  0  0  0
    2.1083    1.3695    0.1300 H   0  0  0  0  0  0  0  0  0  0  0  0
    1.8685    0.2124    1.4416 H   0  0  0  0  0  0  0  0  0  0  0  0
   -0.6979    0.8744    1.3749 H   0  0  0  0  0  0  0  0  0  0  0  0
   -0.3845    1.9382    0.0066 H   0  0  0  0  0  0  0  0  0  0  0  0
    3.9278   -0.3083    0.1647 H   0  0  0  0  0  0  0  0  0  0  0  0
    2.9958   -0.4514   -1.3353 H   0  0  0  0  0  0  0  0  0  0  0  0
    2.7546   -1.6229   -0.0239 H   0  0  0  0  0  0  0  0  0  0  0  0
   -1.8052   -1.8650   -0.2695 H   0  0  0  0  0  0  0  0  0  0  0  0
   -3.4787   -1.4625    0.1240 H   0  0  0  0  0  0  0  0  0  0  0  0
   -2.2135   -1.1571    1.3249 H   0  0  0  0  0  0  0  0  0  0  0  0
  1  4  1  0  0  0  0
  1  6  1  0  0  0  0
  2  3  1  0  0  0  0
  2  4  1  0  0  0  0
  2  7  1  0  0  0  0
  2  8  1  0  0  0  0
  3  5  1  0  0  0  0
  3  9  1  0  0  0  0
  3 10  1  0  0  0  0
  4 11  1  0  0  0  0
  4 12  1  0  0  0  0
  5 13  1  0  0  0  0
  5 14  1  0  0  0  0
  5 15  1  0  0  0  0
  6 16  1  0  0  0  0
  6 17  1  0  0  0  0
  6 18  1  0  0  0  0
M  END
> <PUBCHEM_COMPOUND_CID>
12339

> <PUBCHEM_CONFORMER_RMSD>
0.4

> <PUBCHEM_CONFORMER_DIVERSEORDER>
7
19
2
14
18
16
13
4
15
1
3
17
8
5
12
11
10
9
6

> <PUBCHEM_MMFF94_PARTIAL_CHARGES>
3
1 -0.46
4 0.23
6 0.23

> <PUBCHEM_EFFECTIVE_ROTOR_COUNT>
3

> <PUBCHEM_PHARMACOPHORE_FEATURES>
3
1 5 hydrophobe
1 6 hydrophobe
4 1 2 3 4 hydrophobe

> <PUBCHEM_HEAVY_ATOM_COUNT>
6

> <PUBCHEM_ATOM_DEF_STEREO_COUNT>
0

> <PUBCHEM_ATOM_UDEF_STEREO_COUNT>
0

> <PUBCHEM_BOND_DEF_STEREO_COUNT>
0

> <PUBCHEM_BOND_UDEF_STEREO_COUNT>
0

> <PUBCHEM_ISOTOPIC_ATOM_COUNT>
0

> <PUBCHEM_COMPONENT_COUNT>
1

> <PUBCHEM_CACTVS_TAUTO_COUNT>
1

> <PUBCHEM_CONFORMER_ID>
0000303300000007

> <PUBCHEM_MMFF94_ENERGY>
2.2705

> <PUBCHEM_FEATURE_SELFOVERLAP>
15.227

> <PUBCHEM_SHAPE_FINGERPRINT>
12932741 1 18336839635907811396
12932764 1 17489874859701308884
14390081 3 9727638297438323159
16714656 1 18273498991840743653
29004967 10 17894630344250955673
5460574 1 10087636013906891204

> <PUBCHEM_SHAPE_MULTIPOLES>
127.33
4.63
1.09
0.73
1.41
0.14
0.02
1.2
0.3
-0.56
-0.07
-0.06
-0.02
0.28

> <PUBCHEM_SHAPE_SELFOVERLAP>
202.251

> <PUBCHEM_SHAPE_VOLUME>
90.4

> <PUBCHEM_COORDINATE_TYPE>
2
5
10

$$$$

