11954093
  -OEChem-07051213062D

 58 61  0     1  0  0  0  0  0999 V2000
    7.4149   -0.9624    0.0000 S   0  0  0  0  0  0  0  0  0  0  0  0
    8.6500    3.3243    0.0000 O   0  0  0  0  0  0  0  0  0  0  0  0
    2.0000   -0.9832    0.0000 O   0  0  0  0  0  0  0  0  0  0  0  0
    6.5662   -2.4723    0.0000 O   0  0  0  0  0  0  0  0  0  0  0  0
    7.3931    1.0691    0.0000 C   0  0  1  0  0  0  0  0  0  0  0  0
    6.5271    0.5691    0.0000 C   0  0  1  0  0  0  0  0  0  0  0  0
    7.3931    2.0691    0.0000 C   0  0  2  0  0  0  0  0  0  0  0  0
    5.6610    1.0691    0.0000 C   0  0  1  0  0  0  0  0  0  0  0  0
    4.7510    0.5622    0.0000 C   0  0  2  0  0  0  0  0  0  0  0  0
    6.5271    2.5691    0.0000 C   0  0  0  0  0  0  0  0  0  0  0  0
    5.6610    2.0691    0.0000 C   0  0  0  0  0  0  0  0  0  0  0  0
    8.3393    2.3738    0.0000 C   0  0  2  0  0  0  0  0  0  0  0  0
    8.3393    0.7644    0.0000 C   0  0  0  0  0  0  0  0  0  0  0  0
    6.5431   -0.4724    0.0000 C   0  0  1  0  0  0  0  0  0  0  0  0
    8.9229    1.5691    0.0000 C   0  0  0  0  0  0  0  0  0  0  0  0
    4.7430   -0.4794    0.0000 C   0  0  0  0  0  0  0  0  0  0  0  0
    5.6451   -1.0002    0.0000 C   0  0  0  0  0  0  0  0  0  0  0  0
    7.3931    3.0691    0.0000 C   0  0  0  0  0  0  0  0  0  0  0  0
    3.8242    1.1263    0.0000 C   0  0  0  0  0  0  0  0  0  0  0  0
    4.7587    1.5622    0.0000 C   0  0  0  0  0  0  0  0  0  0  0  0
    2.8763    0.5984    0.0000 C   0  0  0  0  0  0  0  0  0  0  0  0
    3.8076   -1.0291    0.0000 C   0  0  0  0  0  0  0  0  0  0  0  0
    2.8680   -0.4866    0.0000 C   0  0  0  0  0  0  0  0  0  0  0  0
    7.4264   -1.9623    0.0000 C   0  0  0  0  0  0  0  0  0  0  0  0
    8.2982   -2.4523    0.0000 C   0  0  0  0  0  0  0  0  0  0  0  0
    8.3097   -3.4522    0.0000 C   0  0  0  0  0  0  0  0  0  0  0  0
    7.4830    0.2239    0.0000 H   0  0  0  0  0  0  0  0  0  0  0  0
    7.2664    0.1498    0.0000 H   0  0  0  0  0  0  0  0  0  0  0  0
    6.3972    1.4941    0.0000 H   0  0  0  0  0  0  0  0  0  0  0  0
    6.9256    3.0440    0.0000 H   0  0  0  0  0  0  0  0  0  0  0  0
    6.1285    3.0440    0.0000 H   0  0  0  0  0  0  0  0  0  0  0  0
    5.4490    2.6517    0.0000 H   0  0  0  0  0  0  0  0  0  0  0  0
    5.0504    1.9614    0.0000 H   0  0  0  0  0  0  0  0  0  0  0  0
    7.9018    2.8132    0.0000 H   0  0  0  0  0  0  0  0  0  0  0  0
    8.0883    0.1974    0.0000 H   0  0  0  0  0  0  0  0  0  0  0  0
    8.8767    0.4551    0.0000 H   0  0  0  0  0  0  0  0  0  0  0  0
    6.5491   -1.0924    0.0000 H   0  0  0  0  0  0  0  0  0  0  0  0
    9.3838    1.1544    0.0000 H   0  0  0  0  0  0  0  0  0  0  0  0
    9.3838    1.9838    0.0000 H   0  0  0  0  0  0  0  0  0  0  0  0
    5.2478   -1.4762    0.0000 H   0  0  0  0  0  0  0  0  0  0  0  0
    6.0460   -1.4731    0.0000 H   0  0  0  0  0  0  0  0  0  0  0  0
    8.0131    3.0691    0.0000 H   0  0  0  0  0  0  0  0  0  0  0  0
    7.3931    3.6891    0.0000 H   0  0  0  0  0  0  0  0  0  0  0  0
    6.7731    3.0691    0.0000 H   0  0  0  0  0  0  0  0  0  0  0  0
    4.2324    1.5930    0.0000 H   0  0  0  0  0  0  0  0  0  0  0  0
    3.4343    1.6084    0.0000 H   0  0  0  0  0  0  0  0  0  0  0  0
    5.3787    1.5574    0.0000 H   0  0  0  0  0  0  0  0  0  0  0  0
    4.7635    2.1822    0.0000 H   0  0  0  0  0  0  0  0  0  0  0  0
    4.1388    1.5670    0.0000 H   0  0  0  0  0  0  0  0  0  0  0  0
    2.6718    1.1837    0.0000 H   0  0  0  0  0  0  0  0  0  0  0  0
    2.2647    0.4970    0.0000 H   0  0  0  0  0  0  0  0  0  0  0  0
    3.8100   -1.6491    0.0000 H   0  0  0  0  0  0  0  0  0  0  0  0
    9.2566    3.4522    0.0000 H   0  0  0  0  0  0  0  0  0  0  0  0
    8.9100   -2.5528    0.0000 H   0  0  0  0  0  0  0  0  0  0  0  0
    8.5035   -1.8672    0.0000 H   0  0  0  0  0  0  0  0  0  0  0  0
    7.6898   -3.4594    0.0000 H   0  0  0  0  0  0  0  0  0  0  0  0
    8.3169   -4.0722    0.0000 H   0  0  0  0  0  0  0  0  0  0  0  0
    8.9297   -3.4450    0.0000 H   0  0  0  0  0  0  0  0  0  0  0  0
 14  1  1  6  0  0  0
  1 24  1  0  0  0  0
 12  2  1  1  0  0  0
  2 53  1  0  0  0  0
  3 23  2  0  0  0  0
  4 24  2  0  0  0  0
  5  6  1  0  0  0  0
  5  7  1  0  0  0  0
  5 13  1  0  0  0  0
  5 27  1  6  0  0  0
  6  8  1  0  0  0  0
  6 14  1  0  0  0  0
  6 28  1  1  0  0  0
  7 10  1  0  0  0  0
  7 12  1  0  0  0  0
  7 18  1  1  0  0  0
  8  9  1  0  0  0  0
  8 11  1  0  0  0  0
  8 29  1  6  0  0  0
  9 16  1  0  0  0  0
  9 19  1  0  0  0  0
  9 20  1  1  0  0  0
 10 11  1  0  0  0  0
 10 30  1  0  0  0  0
 10 31  1  0  0  0  0
 11 32  1  0  0  0  0
 11 33  1  0  0  0  0
 12 15  1  0  0  0  0
 12 34  1  0  0  0  0
 13 15  1  0  0  0  0
 13 35  1  0  0  0  0
 13 36  1  0  0  0  0
 14 17  1  0  0  0  0
 14 37  1  0  0  0  0
 15 38  1  0  0  0  0
 15 39  1  0  0  0  0
 16 17  1  0  0  0  0
 16 22  2  0  0  0  0
 17 40  1  0  0  0  0
 17 41  1  0  0  0  0
 18 42  1  0  0  0  0
 18 43  1  0  0  0  0
 18 44  1  0  0  0  0
 19 21  1  0  0  0  0
 19 45  1  0  0  0  0
 19 46  1  0  0  0  0
 20 47  1  0  0  0  0
 20 48  1  0  0  0  0
 20 49  1  0  0  0  0
 21 23  1  0  0  0  0
 21 50  1  0  0  0  0
 21 51  1  0  0  0  0
 22 23  1  0  0  0  0
 22 52  1  0  0  0  0
 24 25  1  0  0  0  0
 25 26  1  0  0  0  0
 25 54  1  0  0  0  0
 25 55  1  0  0  0  0
 26 56  1  0  0  0  0
 26 57  1  0  0  0  0
 26 58  1  0  0  0  0
M  END
> <PUBCHEM_COMPOUND_CID>
11954093

> <PUBCHEM_COMPOUND_CANONICALIZED>
1

> <PUBCHEM_CACTVS_COMPLEXITY>
656

> <PUBCHEM_CACTVS_HBOND_ACCEPTOR>
4

> <PUBCHEM_CACTVS_HBOND_DONOR>
1

> <PUBCHEM_CACTVS_ROTATABLE_BOND>
3

> <PUBCHEM_CACTVS_SUBSKEYS>
AAADcfB4MABAAAAAAAAAAAAAAAAAAYAAAAAwYIAAAAAAAGDAAAAAGgQACAAADxSkwAKCAAAAAgiIAqBSAAAAAAAgABAACAEAAEgAEBIgAQAAQAAEgAAoAQOIyPCPgAAAAAAAAACgAAUAACgAAIAADAAAAA==

> <PUBCHEM_IUPAC_OPENEYE_NAME>
S-[(7R,8R,9S,10R,13S,14S,17S)-17-hydroxy-10,13-dimethyl-3-oxo-1,2,6,7,8,9,11,12,14,15,16,17-dodecahydrocyclopenta[a]phenanthren-7-yl] propanethioate

> <PUBCHEM_IUPAC_CAS_NAME>
propanethioic acid S-[(7R,8R,9S,10R,13S,14S,17S)-17-hydroxy-10,13-dimethyl-3-oxo-1,2,6,7,8,9,11,12,14,15,16,17-dodecahydrocyclopenta[a]phenanthren-7-yl] ester

> <PUBCHEM_IUPAC_NAME>
S-[(7R,8R,9S,10R,13S,14S,17S)-17-hydroxy-10,13-dimethyl-3-oxo-1,2,6,7,8,9,11,12,14,15,16,17-dodecahydrocyclopenta[a]phenanthren-7-yl] propanethioate

> <PUBCHEM_IUPAC_SYSTEMATIC_NAME>
S-[(7R,8R,9S,10R,13S,14S,17S)-10,13-dimethyl-17-oxidanyl-3-oxidanylidene-1,2,6,7,8,9,11,12,14,15,16,17-dodecahydrocyclopenta[a]phenanthren-7-yl] propanethioate

> <PUBCHEM_IUPAC_TRADITIONAL_NAME>
propanethioic acid S-[(7R,8R,9S,10R,13S,14S,17S)-17-hydroxy-3-keto-10,13-dimethyl-1,2,6,7,8,9,11,12,14,15,16,17-dodecahydrocyclopenta[a]phenanthren-7-yl] ester

> <PUBCHEM_IUPAC_INCHI>
InChI=1S/C22H32O3S/c1-4-19(25)26-17-12-13-11-14(23)7-9-21(13,2)16-8-10-22(3)15(20(16)17)5-6-18(22)24/h11,15-18,20,24H,4-10,12H2,1-3H3/t15-,16-,17+,18-,20-,21-,22-/m0/s1

> <PUBCHEM_IUPAC_INCHIKEY>
HONIPOFOKOETAA-MUVPWNSGSA-N

> <PUBCHEM_XLOGP3>
3.7

> <PUBCHEM_EXACT_MASS>
376.207216

> <PUBCHEM_MOLECULAR_FORMULA>
C22H32O3S

> <PUBCHEM_MOLECULAR_WEIGHT>
376.55268

> <PUBCHEM_OPENEYE_CAN_SMILES>
CCC(=O)SC1CC2=CC(=O)CCC2(C3C1C4CCC(C4(CC3)C)O)C

> <PUBCHEM_OPENEYE_ISO_SMILES>
CCC(=O)S[C@@H]1CC2=CC(=O)CC[C@@]2([C@@H]3[C@@H]1[C@@H]4CC[C@@H]([C@]4(CC3)C)O)C

> <PUBCHEM_CACTVS_TPSA>
79.7

> <PUBCHEM_MONOISOTOPIC_WEIGHT>
376.207216

> <PUBCHEM_TOTAL_CHARGE>
0

> <PUBCHEM_HEAVY_ATOM_COUNT>
26

> <PUBCHEM_ATOM_DEF_STEREO_COUNT>
7

> <PUBCHEM_ATOM_UDEF_STEREO_COUNT>
0

> <PUBCHEM_BOND_DEF_STEREO_COUNT>
0

> <PUBCHEM_BOND_UDEF_STEREO_COUNT>
0

> <PUBCHEM_ISOTOPIC_ATOM_COUNT>
0

> <PUBCHEM_COMPONENT_COUNT>
1

> <PUBCHEM_CACTVS_TAUTO_COUNT>
5

> <PUBCHEM_COORDINATE_TYPE>
1
5
255

> <PUBCHEM_BONDANNOTATIONS>
14  1  6
12  2  5
5  27  6
6  28  5
7  18  5
8  29  6
9  20  5

$$$$

