14308
  -OEChem-06241222433D

 17 17  0     1  0  0  0  0  0999 V2000
   -1.2881    1.9817   -0.1463 S   0  0  0  0  0  0  0  0  0  0  0  0
    0.7377    2.0747   -0.4225 S   0  0  0  0  0  0  0  0  0  0  0  0
   -1.6587   -1.8928    0.4333 O   0  0  0  0  0  0  0  0  0  0  0  0
    2.1394   -1.4555    0.5501 O   0  0  0  0  0  0  0  0  0  0  0  0
   -1.7153   -0.5792   -1.4288 O   0  0  0  0  0  0  0  0  0  0  0  0
    1.7828   -0.3871   -1.4316 O   0  0  0  0  0  0  0  0  0  0  0  0
   -0.0072    0.2761    1.4909 C   0  0  0  0  0  0  0  0  0  0  0  0
   -1.3330    0.4099    0.7392 C   0  0  2  0  0  0  0  0  0  0  0  0
    1.2009    0.6919    0.6472 C   0  0  1  0  0  0  0  0  0  0  0  0
   -1.5867   -0.7075   -0.2204 C   0  0  0  0  0  0  0  0  0  0  0  0
    1.7282   -0.4121   -0.2110 C   0  0  0  0  0  0  0  0  0  0  0  0
   -0.0476    0.9330    2.3724 H   0  0  0  0  0  0  0  0  0  0  0  0
    0.1159   -0.7371    1.8913 H   0  0  0  0  0  0  0  0  0  0  0  0
   -2.1744    0.4375    1.4403 H   0  0  0  0  0  0  0  0  0  0  0  0
    2.0236    1.0220    1.2914 H   0  0  0  0  0  0  0  0  0  0  0  0
   -1.8247   -2.6401   -0.1801 H   0  0  0  0  0  0  0  0  0  0  0  0
    2.4871   -2.1927    0.0042 H   0  0  0  0  0  0  0  0  0  0  0  0
  1  2  1  0  0  0  0
  1  8  1  0  0  0  0
  2  9  1  0  0  0  0
  3 10  1  0  0  0  0
  3 16  1  0  0  0  0
  4 11  1  0  0  0  0
  4 17  1  0  0  0  0
  5 10  2  0  0  0  0
  6 11  2  0  0  0  0
  7  8  1  0  0  0  0
  7  9  1  0  0  0  0
  7 12  1  0  0  0  0
  7 13  1  0  0  0  0
  8 10  1  0  0  0  0
  8 14  1  0  0  0  0
  9 11  1  0  0  0  0
  9 15  1  0  0  0  0
M  END
> <PUBCHEM_COMPOUND_CID>
14308

> <PUBCHEM_CONFORMER_RMSD>
0.6

> <PUBCHEM_CONFORMER_DIVERSEORDER>
1
12
9
11
6
8
15
10
7
5
14
13
4
3
2

> <PUBCHEM_MMFF94_PARTIAL_CHARGES>
12
1 -0.23
10 0.66
11 0.66
16 0.5
17 0.5
2 -0.23
3 -0.65
4 -0.65
5 -0.57
6 -0.57
8 0.29
9 0.29

> <PUBCHEM_EFFECTIVE_ROTOR_COUNT>
3

> <PUBCHEM_PHARMACOPHORE_FEATURES>
7
1 3 acceptor
1 4 acceptor
1 5 acceptor
1 6 acceptor
3 3 5 10 anion
3 4 6 11 anion
5 1 2 7 8 9 rings

> <PUBCHEM_HEAVY_ATOM_COUNT>
11

> <PUBCHEM_ATOM_DEF_STEREO_COUNT>
0

> <PUBCHEM_ATOM_UDEF_STEREO_COUNT>
2

> <PUBCHEM_BOND_DEF_STEREO_COUNT>
0

> <PUBCHEM_BOND_UDEF_STEREO_COUNT>
0

> <PUBCHEM_ISOTOPIC_ATOM_COUNT>
0

> <PUBCHEM_COMPONENT_COUNT>
1

> <PUBCHEM_CACTVS_TAUTO_COUNT>
1

> <PUBCHEM_CONFORMER_ID>
000037E400000001

> <PUBCHEM_MMFF94_ENERGY>
15.0864

> <PUBCHEM_FEATURE_SELFOVERLAP>
35.632

> <PUBCHEM_SHAPE_FINGERPRINT>
12423570 1 6651500291083701665
13024252 1 16771513383137894128
15310529 11 17843375583414962736
16945 1 18412821382692535217
18185500 45 18411691102024344290
23552423 10 18267579109462107465
241688 4 18411143566603144481
29004967 10 18049163272067032217
535629 181 18059569269008085996

> <PUBCHEM_SHAPE_MULTIPOLES>
210.6
2.65
2.08
1.26
0.51
0.55
-0.07
-0.91
-0.39
-0.41
-0.13
0.02
-0.1
-0.11

> <PUBCHEM_SHAPE_SELFOVERLAP>
403.53

> <PUBCHEM_SHAPE_VOLUME>
129.6

> <PUBCHEM_COORDINATE_TYPE>
2
5
10

$$$$

