5281160
  -OEChem-07051212553D

 42 43  0     1  0  0  0  0  0999 V2000
    0.6556    3.1013   -0.7682 O   0  0  0  0  0  0  0  0  0  0  0  0
    1.0390   -2.6902   -0.8425 O   0  0  0  0  0  0  0  0  0  0  0  0
   -1.4064    2.0386    1.6974 O   0  0  0  0  0  0  0  0  0  0  0  0
   -1.0454    0.4713   -2.2937 O   0  0  0  0  0  0  0  0  0  0  0  0
    2.5100   -1.1902   -1.7581 O   0  0  0  0  0  0  0  0  0  0  0  0
   -0.6670   -3.5631    0.4201 O   0  0  0  0  0  0  0  0  0  0  0  0
    1.2204    0.9060    0.0703 C   0  0  2  0  0  0  0  0  0  0  0  0
    0.6066    1.7199   -1.0837 C   0  0  1  0  0  0  0  0  0  0  0  0
    2.7194    1.1982    0.2245 C   0  0  0  0  0  0  0  0  0  0  0  0
    0.9291   -0.5586   -0.0626 C   0  0  0  0  0  0  0  0  0  0  0  0
   -0.0306   -1.2543    0.5511 C   0  0  0  0  0  0  0  0  0  0  0  0
   -1.0407   -0.7992    1.5502 C   0  0  0  0  0  0  0  0  0  0  0  0
   -0.8309    1.3157   -1.4179 C   0  0  0  0  0  0  0  0  0  0  0  0
   -1.9957    1.9296   -0.6587 C   0  0  0  0  0  0  0  0  0  0  0  0
   -2.2614    1.3982    0.7548 C   0  0  1  0  0  0  0  0  0  0  0  0
    3.2887    0.4853    1.4417 C   0  0  0  0  0  0  0  0  0  0  0  0
   -2.2384   -0.1128    0.9219 C   0  0  0  0  0  0  0  0  0  0  0  0
    1.6095   -1.4684   -0.9879 C   0  0  0  0  0  0  0  0  0  0  0  0
    0.0404   -2.6354    0.0716 C   0  0  0  0  0  0  0  0  0  0  0  0
    4.7681    0.7937    1.6079 C   0  0  0  0  0  0  0  0  0  0  0  0
   -3.3246   -0.8336    0.5906 C   0  0  0  0  0  0  0  0  0  0  0  0
   -4.5454   -0.2521   -0.0289 C   0  0  0  0  0  0  0  0  0  0  0  0
    0.7700    1.2675    1.0005 H   0  0  0  0  0  0  0  0  0  0  0  0
    1.2013    1.5777   -1.9954 H   0  0  0  0  0  0  0  0  0  0  0  0
    2.8681    2.2786    0.3490 H   0  0  0  0  0  0  0  0  0  0  0  0
    3.2758    0.9193   -0.6773 H   0  0  0  0  0  0  0  0  0  0  0  0
   -1.3812   -1.6647    2.1352 H   0  0  0  0  0  0  0  0  0  0  0  0
   -0.5693   -0.1539    2.3000 H   0  0  0  0  0  0  0  0  0  0  0  0
   -1.8511    3.0158   -0.6403 H   0  0  0  0  0  0  0  0  0  0  0  0
   -2.8796    1.7659   -1.2874 H   0  0  0  0  0  0  0  0  0  0  0  0
   -3.2482    1.7655    1.0598 H   0  0  0  0  0  0  0  0  0  0  0  0
    3.1782   -0.6009    1.3577 H   0  0  0  0  0  0  0  0  0  0  0  0
    2.7548    0.7975    2.3470 H   0  0  0  0  0  0  0  0  0  0  0  0
    0.4083    3.5943   -1.5692 H   0  0  0  0  0  0  0  0  0  0  0  0
    5.3393    0.4617    0.7350 H   0  0  0  0  0  0  0  0  0  0  0  0
    4.9338    1.8678    1.7398 H   0  0  0  0  0  0  0  0  0  0  0  0
    5.1655    0.2794    2.4886 H   0  0  0  0  0  0  0  0  0  0  0  0
   -3.3255   -1.9098    0.7432 H   0  0  0  0  0  0  0  0  0  0  0  0
   -1.5094    2.9996    1.5911 H   0  0  0  0  0  0  0  0  0  0  0  0
   -4.6994   -0.7092   -1.0124 H   0  0  0  0  0  0  0  0  0  0  0  0
   -4.5680    0.8269   -0.1711 H   0  0  0  0  0  0  0  0  0  0  0  0
   -5.4132   -0.5077    0.5889 H   0  0  0  0  0  0  0  0  0  0  0  0
  1  8  1  0  0  0  0
  1 34  1  0  0  0  0
  2 18  1  0  0  0  0
  2 19  1  0  0  0  0
  3 15  1  0  0  0  0
  3 39  1  0  0  0  0
  4 13  2  0  0  0  0
  5 18  2  0  0  0  0
  6 19  2  0  0  0  0
  7  8  1  0  0  0  0
  7  9  1  0  0  0  0
  7 10  1  0  0  0  0
  7 23  1  0  0  0  0
  8 13  1  0  0  0  0
  8 24  1  0  0  0  0
  9 16  1  0  0  0  0
  9 25  1  0  0  0  0
  9 26  1  0  0  0  0
 10 11  2  0  0  0  0
 10 18  1  0  0  0  0
 11 12  1  0  0  0  0
 11 19  1  0  0  0  0
 12 17  1  0  0  0  0
 12 27  1  0  0  0  0
 12 28  1  0  0  0  0
 13 14  1  0  0  0  0
 14 15  1  0  0  0  0
 14 29  1  0  0  0  0
 14 30  1  0  0  0  0
 15 17  1  0  0  0  0
 15 31  1  0  0  0  0
 16 20  1  0  0  0  0
 16 32  1  0  0  0  0
 16 33  1  0  0  0  0
 17 21  2  0  0  0  0
 20 35  1  0  0  0  0
 20 36  1  0  0  0  0
 20 37  1  0  0  0  0
 21 22  1  0  0  0  0
 21 38  1  0  0  0  0
 22 40  1  0  0  0  0
 22 41  1  0  0  0  0
 22 42  1  0  0  0  0
M  END
> <PUBCHEM_COMPOUND_CID>
5281160

> <PUBCHEM_CONFORMER_RMSD>
0.6

> <PUBCHEM_CONFORMER_DIVERSEORDER>
1
12
24
16
5
9
20
29
31
26
10
27
19
30
3
25
11
32
28
23
14
2
17
33
15
34
22
4
13
7
6
21
18
8

> <PUBCHEM_MMFF94_PARTIAL_CHARGES>
22
1 -0.68
10 -0.12
11 -0.12
12 0.28
13 0.45
14 0.06
15 0.42
17 -0.28
18 0.71
19 0.71
2 -0.3
21 -0.29
22 0.14
3 -0.68
34 0.4
38 0.15
39 0.4
4 -0.57
5 -0.57
6 -0.57
7 0.14
8 0.34

> <PUBCHEM_EFFECTIVE_ROTOR_COUNT>
3.2

> <PUBCHEM_PHARMACOPHORE_FEATURES>
10
1 1 acceptor
1 1 donor
1 20 hydrophobe
1 22 hydrophobe
1 3 acceptor
1 3 donor
1 4 acceptor
1 5 acceptor
1 6 acceptor
5 2 10 11 18 19 rings

> <PUBCHEM_HEAVY_ATOM_COUNT>
22

> <PUBCHEM_ATOM_DEF_STEREO_COUNT>
3

> <PUBCHEM_ATOM_UDEF_STEREO_COUNT>
0

> <PUBCHEM_BOND_DEF_STEREO_COUNT>
1

> <PUBCHEM_BOND_UDEF_STEREO_COUNT>
0

> <PUBCHEM_ISOTOPIC_ATOM_COUNT>
0

> <PUBCHEM_COMPONENT_COUNT>
1

> <PUBCHEM_CACTVS_TAUTO_COUNT>
65

> <PUBCHEM_CONFORMER_ID>
0050958800000001

> <PUBCHEM_MMFF94_ENERGY>
30.8472

> <PUBCHEM_FEATURE_SELFOVERLAP>
50.743

> <PUBCHEM_SHAPE_FINGERPRINT>
104564 63 17259326779272038319
10863032 1 17896032303613525281
10948715 1 16298381331887926017
11370993 70 18334017172474140363
12011746 2 18342453712430677700
13140716 1 17978508637501615642
13994607 96 16445598113934087256
14178342 30 18339072821565637065
14181834 199 17842550739467443853
14251745 187 18126540509307690886
144361 1 17558516211150837533
14787075 74 17823429205600004001
15881359 60 18270134400212638847
16728300 4 17271762590774232906
16945 1 18195223573437380475
19930374 2 18272942621502867698
20600515 1 17132108061332287837
20691752 17 17845076532124123393
22182313 1 18340769355021653447
2334 1 18268976721753199579
23402539 116 18265911184614217211
23419403 2 18190179186304749606
24859131 72 18201167610638236680
2748010 2 18268980046005171579
3286 77 18189045563714561662
4340502 62 18040714732468177059
484985 159 15982334493160073354
5845 1 17843948459159533733

> <PUBCHEM_SHAPE_MULTIPOLES>
417.53
5.62
3.11
1.71
1.32
1.32
0.25
-1.06
-2.57
-0.13
0.57
0.52
-0.31
0.75

> <PUBCHEM_SHAPE_SELFOVERLAP>
875.156

> <PUBCHEM_SHAPE_VOLUME>
235.2

> <PUBCHEM_COORDINATE_TYPE>
2
5
10

$$$$

