1483
  -OEChem-07051213053D

 13 13  0     0  0  0  0  0  0999 V2000
    1.3385   -2.8717    0.0000 Br  0  0  0  0  0  0  0  0  0  0  0  0
    1.3380    2.8718   -0.0003 Br  0  0  0  0  0  0  0  0  0  0  0  0
   -3.5540   -0.0002   -0.0005 Br  0  0  0  0  0  0  0  0  0  0  0  0
    2.4913    0.0001   -0.0001 O   0  0  0  0  0  0  0  0  0  0  0  0
    1.1259    0.0001    0.0000 C   0  0  0  0  0  0  0  0  0  0  0  0
    0.4285   -1.2080   -0.0001 C   0  0  0  0  0  0  0  0  0  0  0  0
    0.4284    1.2080    0.0002 C   0  0  0  0  0  0  0  0  0  0  0  0
   -0.9664   -1.2080    0.0001 C   0  0  0  0  0  0  0  0  0  0  0  0
   -0.9664    1.2079    0.0003 C   0  0  0  0  0  0  0  0  0  0  0  0
   -1.6639   -0.0001    0.0004 C   0  0  0  0  0  0  0  0  0  0  0  0
   -1.5122   -2.1491   -0.0001 H   0  0  0  0  0  0  0  0  0  0  0  0
   -1.5123    2.1490    0.0003 H   0  0  0  0  0  0  0  0  0  0  0  0
    2.7995    0.9228    0.0000 H   0  0  0  0  0  0  0  0  0  0  0  0
  1  6  1  0  0  0  0
  2  7  1  0  0  0  0
  3 10  1  0  0  0  0
  4  5  1  0  0  0  0
  4 13  1  0  0  0  0
  5  6  2  0  0  0  0
  5  7  1  0  0  0  0
  6  8  1  0  0  0  0
  7  9  2  0  0  0  0
  8 10  2  0  0  0  0
  8 11  1  0  0  0  0
  9 10  1  0  0  0  0
  9 12  1  0  0  0  0
M  END
> <PUBCHEM_COMPOUND_CID>
1483

> <PUBCHEM_CONFORMER_RMSD>
0.4

> <PUBCHEM_CONFORMER_DIVERSEORDER>
1

> <PUBCHEM_MMFF94_PARTIAL_CHARGES>
13
1 -0.11
10 0.11
11 0.15
12 0.15
13 0.45
2 -0.11
3 -0.11
4 -0.53
5 0.08
6 0.11
7 0.11
8 -0.15
9 -0.15

> <PUBCHEM_EFFECTIVE_ROTOR_COUNT>
0

> <PUBCHEM_PHARMACOPHORE_FEATURES>
5
1 1 hydrophobe
1 2 hydrophobe
1 3 hydrophobe
1 4 donor
6 5 6 7 8 9 10 rings

> <PUBCHEM_HEAVY_ATOM_COUNT>
10

> <PUBCHEM_ATOM_DEF_STEREO_COUNT>
0

> <PUBCHEM_ATOM_UDEF_STEREO_COUNT>
0

> <PUBCHEM_BOND_DEF_STEREO_COUNT>
0

> <PUBCHEM_BOND_UDEF_STEREO_COUNT>
0

> <PUBCHEM_ISOTOPIC_ATOM_COUNT>
0

> <PUBCHEM_COMPONENT_COUNT>
1

> <PUBCHEM_CACTVS_TAUTO_COUNT>
2

> <PUBCHEM_CONFORMER_ID>
000005CB00000001

> <PUBCHEM_MMFF94_ENERGY>
19.8425

> <PUBCHEM_FEATURE_SELFOVERLAP>
25.371

> <PUBCHEM_SHAPE_FINGERPRINT>
1 1 18339081488787969615
12423570 1 6695807491563113155
13380535 76 17976263430505122220
13380536 305 18338509733924991389
161256 15 18192429899170033230
16945 1 18410575084905717509
193761 8 17762337315898316548
20645477 70 18411990126997367655
20871998 184 17395588636737798375
20871998 22 17974847577488391751
21040471 1 17906452125848420705
2334 1 17978510828108937987
23552423 10 18408888399877912383
23559900 14 17758098321392812860
241688 4 17906451378513269761
2748010 2 18052532179941954239
81228 2 17402333066863495827

> <PUBCHEM_SHAPE_MULTIPOLES>
217.75
3.63
3.21
0.65
3.57
0
0
0
0
-2.74
0
0.03
0
0

> <PUBCHEM_SHAPE_SELFOVERLAP>
411.123

> <PUBCHEM_SHAPE_VOLUME>
141.8

> <PUBCHEM_COORDINATE_TYPE>
2
5
10

$$$$

