162146
  -OEChem-07051213003D

 38 40  0     1  0  0  0  0  0999 V2000
   -1.3410   -2.6959    0.3883 O   0  0  0  0  0  0  0  0  0  0  0  0
   -2.0432    0.8211    0.0857 N   0  0  2  0  0  0  0  0  0  0  0  0
   -0.0382   -0.9050    0.9229 N   0  0  0  0  0  0  0  0  0  0  0  0
   -2.4456   -0.5491    0.4526 C   0  0  1  0  0  0  0  0  0  0  0  0
   -1.0517    1.3299    1.0402 C   0  0  0  0  0  0  0  0  0  0  0  0
   -3.4577   -1.1064   -0.5608 C   0  0  0  0  0  0  0  0  0  0  0  0
    0.2346    0.5225    0.8869 C   0  0  2  0  0  0  0  0  0  0  0  0
   -3.2061    1.7191    0.0333 C   0  0  0  0  0  0  0  0  0  0  0  0
   -4.6685   -0.1914   -0.7060 C   0  0  0  0  0  0  0  0  0  0  0  0
   -4.2276    1.2369   -0.9958 C   0  0  0  0  0  0  0  0  0  0  0  0
   -1.2328   -1.4773    0.5426 C   0  0  0  0  0  0  0  0  0  0  0  0
    0.9772    0.8698   -0.4048 C   0  0  0  0  0  0  0  0  0  0  0  0
    2.4200    0.4541   -0.3401 C   0  0  0  0  0  0  0  0  0  0  0  0
    3.3693    1.3440    0.1464 C   0  0  0  0  0  0  0  0  0  0  0  0
    2.7881   -0.8153   -0.7679 C   0  0  0  0  0  0  0  0  0  0  0  0
    4.7086    0.9584    0.2060 C   0  0  0  0  0  0  0  0  0  0  0  0
    4.1273   -1.2010   -0.7082 C   0  0  0  0  0  0  0  0  0  0  0  0
    5.0875   -0.3142   -0.2213 C   0  0  0  0  0  0  0  0  0  0  0  0
   -2.9074   -0.5504    1.4506 H   0  0  0  0  0  0  0  0  0  0  0  0
   -1.4296    1.2506    2.0687 H   0  0  0  0  0  0  0  0  0  0  0  0
   -0.8381    2.3909    0.8603 H   0  0  0  0  0  0  0  0  0  0  0  0
   -3.7980   -2.1024   -0.2520 H   0  0  0  0  0  0  0  0  0  0  0  0
   -2.9756   -1.2332   -1.5396 H   0  0  0  0  0  0  0  0  0  0  0  0
    0.8726    0.7340    1.7543 H   0  0  0  0  0  0  0  0  0  0  0  0
   -2.8838    2.7266   -0.2564 H   0  0  0  0  0  0  0  0  0  0  0  0
   -3.6830    1.8003    1.0191 H   0  0  0  0  0  0  0  0  0  0  0  0
   -5.2555   -0.2128    0.2204 H   0  0  0  0  0  0  0  0  0  0  0  0
   -5.3201   -0.5544   -1.5084 H   0  0  0  0  0  0  0  0  0  0  0  0
   -3.7904    1.2888   -2.0011 H   0  0  0  0  0  0  0  0  0  0  0  0
   -5.0993    1.9010   -0.9918 H   0  0  0  0  0  0  0  0  0  0  0  0
    0.7462   -1.5290    1.0854 H   0  0  0  0  0  0  0  0  0  0  0  0
    0.9410    1.9525   -0.5849 H   0  0  0  0  0  0  0  0  0  0  0  0
    0.4983    0.4103   -1.2799 H   0  0  0  0  0  0  0  0  0  0  0  0
    3.0852    2.3368    0.4841 H   0  0  0  0  0  0  0  0  0  0  0  0
    2.0507   -1.5138   -1.1533 H   0  0  0  0  0  0  0  0  0  0  0  0
    5.4562    1.6486    0.5857 H   0  0  0  0  0  0  0  0  0  0  0  0
    4.4226   -2.1915   -1.0418 H   0  0  0  0  0  0  0  0  0  0  0  0
    6.1301   -0.6145   -0.1749 H   0  0  0  0  0  0  0  0  0  0  0  0
  1 11  2  0  0  0  0
  2  4  1  0  0  0  0
  2  5  1  0  0  0  0
  2  8  1  0  0  0  0
  3  7  1  0  0  0  0
  3 11  1  0  0  0  0
  3 31  1  0  0  0  0
  4  6  1  0  0  0  0
  4 11  1  0  0  0  0
  4 19  1  0  0  0  0
  5  7  1  0  0  0  0
  5 20  1  0  0  0  0
  5 21  1  0  0  0  0
  6  9  1  0  0  0  0
  6 22  1  0  0  0  0
  6 23  1  0  0  0  0
  7 12  1  0  0  0  0
  7 24  1  0  0  0  0
  8 10  1  0  0  0  0
  8 25  1  0  0  0  0
  8 26  1  0  0  0  0
  9 10  1  0  0  0  0
  9 27  1  0  0  0  0
  9 28  1  0  0  0  0
 10 29  1  0  0  0  0
 10 30  1  0  0  0  0
 12 13  1  0  0  0  0
 12 32  1  0  0  0  0
 12 33  1  0  0  0  0
 13 14  2  0  0  0  0
 13 15  1  0  0  0  0
 14 16  1  0  0  0  0
 14 34  1  0  0  0  0
 15 17  2  0  0  0  0
 15 35  1  0  0  0  0
 16 18  2  0  0  0  0
 16 36  1  0  0  0  0
 17 18  1  0  0  0  0
 17 37  1  0  0  0  0
 18 38  1  0  0  0  0
M  END
> <PUBCHEM_COMPOUND_CID>
162146

> <PUBCHEM_CONFORMER_RMSD>
0.6

> <PUBCHEM_CONFORMER_DIVERSEORDER>
1
4
13
16
6
14
11
9
12
10
5
3
15
17
8
7
2

> <PUBCHEM_MMFF94_PARTIAL_CHARGES>
21
1 -0.57
11 0.57
12 0.14
13 -0.14
14 -0.15
15 -0.15
16 -0.15
17 -0.15
18 -0.15
2 -0.81
3 -0.73
31 0.37
34 0.15
35 0.15
36 0.15
37 0.15
38 0.15
4 0.33
5 0.27
7 0.3
8 0.27

> <PUBCHEM_EFFECTIVE_ROTOR_COUNT>
3.4

> <PUBCHEM_PHARMACOPHORE_FEATURES>
6
1 1 acceptor
1 2 cation
1 3 donor
6 13 14 15 16 17 18 rings
6 2 3 4 5 7 11 rings
6 2 4 6 8 9 10 rings

> <PUBCHEM_HEAVY_ATOM_COUNT>
18

> <PUBCHEM_ATOM_DEF_STEREO_COUNT>
2

> <PUBCHEM_ATOM_UDEF_STEREO_COUNT>
0

> <PUBCHEM_BOND_DEF_STEREO_COUNT>
0

> <PUBCHEM_BOND_UDEF_STEREO_COUNT>
0

> <PUBCHEM_ISOTOPIC_ATOM_COUNT>
0

> <PUBCHEM_COMPONENT_COUNT>
1

> <PUBCHEM_CACTVS_TAUTO_COUNT>
2

> <PUBCHEM_CONFORMER_ID>
0002796200000001

> <PUBCHEM_MMFF94_ENERGY>
36.5699

> <PUBCHEM_FEATURE_SELFOVERLAP>
30.469

> <PUBCHEM_SHAPE_FINGERPRINT>
10014705 185 18201999902407349212
10366900 7 17676202460242670576
11315181 36 18113333116338714264
11370993 70 18410013234554017214
11615757 297 15140959548148679696
12500047 106 18412263917802448594
12555020 224 18338515347779836086
128620 24 14634867557086861484
12916748 109 18202281403274994477
14004511 7 17418094308471089064
14251751 93 18337962284951543005
15163728 17 16485590912611770743
15196674 1 18409446998881776206
15375358 24 18335419063043256382
17349148 13 18261110794420288216
17834072 14 18335137583708144990
17834072 8 18272651272617974278
17870717 6 18261379074888200942
18186145 218 18412544348733133473
187816 3 18334296474434977121
19489759 90 18334580152777383424
19784866 170 9511468839882466513
19862831 5 18341894099450444000
200 152 17458063776575574144
20279233 1 18335695036219484870
20300324 65 18259706696681268725
20645476 183 17846222137668370379
20645477 56 18343018856954280961
20645477 70 18040992977671555950
20871999 31 18334860523905424297
21029758 11 18259705583863077553
21069387 34 17822561815627134548
21637258 2 15864365597467277663
23402539 116 18334579065844923285
23402655 69 18335984246015882692
23557571 272 18198623220361851738
23559900 14 18334297531366353192
2838139 119 16055781835715087295
351380 180 18335141994555285404
4028521 119 18342460352370885517
4214541 1 18409165523789183412
4921388 177 17774997943242278131
5104073 3 18335416872636167114
5283173 99 18336551606916956856
559249 180 18272093837740515546
633830 44 16630522908687796656
69090 78 18410292518949369382
9709674 26 18261100885957402646

> <PUBCHEM_SHAPE_MULTIPOLES>
354.6
10.24
1.91
0.97
4.57
0.58
-0.02
-0.82
2.98
-0.79
-0.18
-0.32
-0.01
0.57

> <PUBCHEM_SHAPE_SELFOVERLAP>
749.996

> <PUBCHEM_SHAPE_VOLUME>
196.6

> <PUBCHEM_COORDINATE_TYPE>
2
5
10

$$$$

