5281422
  -OEChem-07051212573D

 79 81  0     1  0  0  0  0  0999 V2000
   -0.4244    3.3037   -0.9771 O   0  0  0  0  0  0  0  0  0  0  0  0
    1.2600   -2.3053   -1.0523 O   0  0  0  0  0  0  0  0  0  0  0  0
   -2.4804   -0.6745    0.4416 O   0  0  0  0  0  0  0  0  0  0  0  0
   -2.9397    2.3422    1.1259 O   0  0  0  0  0  0  0  0  0  0  0  0
    3.9264    0.2341    0.1263 O   0  0  0  0  0  0  0  0  0  0  0  0
   -1.4573    4.6641    0.5454 O   0  0  0  0  0  0  0  0  0  0  0  0
   -0.1645   -3.3295   -2.5551 O   0  0  0  0  0  0  0  0  0  0  0  0
   -1.6050   -2.7760    0.8147 O   0  0  0  0  0  0  0  0  0  0  0  0
   -3.5320    3.1620   -0.9513 O   0  0  0  0  0  0  0  0  0  0  0  0
    3.2493   -1.7890    0.9924 O   0  0  0  0  0  0  0  0  0  0  0  0
    1.6157    0.0455   -0.6838 C   0  0  1  0  0  0  0  0  0  0  0  0
    1.2319    1.5456   -0.8391 C   0  0  2  0  0  0  0  0  0  0  0  0
   -1.3400    1.2591   -0.3578 C   0  0  1  0  0  0  0  0  0  0  0  0
   -0.2225    1.8843   -1.1849 C   0  0  1  0  0  0  0  0  0  0  0  0
    0.7846   -1.0097   -1.4863 C   0  0  2  0  0  0  0  0  0  0  0  0
   -1.1912   -0.2134    0.0228 C   0  0  2  0  0  0  0  0  0  0  0  0
   -0.7363   -1.0454   -1.1783 C   0  0  0  0  0  0  0  0  0  0  0  0
   -1.5640    2.2444    0.7919 C   0  0  1  0  0  0  0  0  0  0  0  0
    3.1301    0.0192   -1.0324 C   0  0  1  0  0  0  0  0  0  0  0  0
    2.2516    2.0312   -1.8537 C   0  0  0  0  0  0  0  0  0  0  0  0
    3.2929    1.1941   -1.9333 C   0  0  0  0  0  0  0  0  0  0  0  0
    0.9798   -0.9610   -3.0108 C   0  0  0  0  0  0  0  0  0  0  0  0
   -1.1659    3.5470    0.1453 C   0  0  0  0  0  0  0  0  0  0  0  0
   -0.7779    2.0158    2.0744 C   0  0  0  0  0  0  0  0  0  0  0  0
    2.1424    3.3273   -2.5768 C   0  0  0  0  0  0  0  0  0  0  0  0
    0.6902   -3.3672   -1.6803 C   0  0  0  0  0  0  0  0  0  0  0  0
   -2.5402   -1.9858    0.8123 C   0  0  0  0  0  0  0  0  0  0  0  0
   -3.7966    2.5588    0.0800 C   0  0  0  0  0  0  0  0  0  0  0  0
    3.8969   -0.7547    1.0698 C   0  0  0  0  0  0  0  0  0  0  0  0
   -3.9666   -2.3370    1.1999 C   0  0  1  0  0  0  0  0  0  0  0  0
    1.2756   -4.6337   -1.1331 C   0  0  0  0  0  0  0  0  0  0  0  0
   -5.1315    1.9440    0.3735 C   0  0  0  0  0  0  0  0  0  0  0  0
    4.7725   -0.3844    2.2230 C   0  0  0  0  0  0  0  0  0  0  0  0
   -4.2943   -3.8010    0.8723 C   0  0  0  0  0  0  0  0  0  0  0  0
   -4.1412   -2.0610    2.6908 C   0  0  0  0  0  0  0  0  0  0  0  0
    6.2035   -0.8336    2.2030 C   0  0  0  0  0  0  0  0  0  0  0  0
   -4.1600   -4.1117   -0.6130 C   0  0  0  0  0  0  0  0  0  0  0  0
    4.1788    0.3080    3.2125 C   0  0  0  0  0  0  0  0  0  0  0  0
    2.7492    0.7429    3.2816 C   0  0  0  0  0  0  0  0  0  0  0  0
    1.4936   -0.2030    0.3742 H   0  0  0  0  0  0  0  0  0  0  0  0
    1.4957    2.0689    0.0905 H   0  0  0  0  0  0  0  0  0  0  0  0
   -2.2077    1.2650   -1.0279 H   0  0  0  0  0  0  0  0  0  0  0  0
   -0.4082    1.6948   -2.2489 H   0  0  0  0  0  0  0  0  0  0  0  0
   -0.5167   -0.3479    0.8725 H   0  0  0  0  0  0  0  0  0  0  0  0
   -1.2648   -0.6187   -2.0459 H   0  0  0  0  0  0  0  0  0  0  0  0
   -1.1660   -2.0379   -1.1507 H   0  0  0  0  0  0  0  0  0  0  0  0
    3.4474   -0.9020   -1.5326 H   0  0  0  0  0  0  0  0  0  0  0  0
    4.1676    1.3571   -2.5470 H   0  0  0  0  0  0  0  0  0  0  0  0
    0.9756    0.0726   -3.3699 H   0  0  0  0  0  0  0  0  0  0  0  0
    0.1888   -1.4390   -3.5953 H   0  0  0  0  0  0  0  0  0  0  0  0
    1.9289   -1.4162   -3.3159 H   0  0  0  0  0  0  0  0  0  0  0  0
    0.2970    1.9427    1.9033 H   0  0  0  0  0  0  0  0  0  0  0  0
   -0.9409    2.8426    2.7763 H   0  0  0  0  0  0  0  0  0  0  0  0
   -1.1170    1.1107    2.5897 H   0  0  0  0  0  0  0  0  0  0  0  0
    2.0444    4.1547   -1.8673 H   0  0  0  0  0  0  0  0  0  0  0  0
    1.2749    3.3279   -3.2434 H   0  0  0  0  0  0  0  0  0  0  0  0
    3.0286    3.5217   -3.1902 H   0  0  0  0  0  0  0  0  0  0  0  0
   -4.6507   -1.6981    0.6275 H   0  0  0  0  0  0  0  0  0  0  0  0
    0.8225   -5.4907   -1.6396 H   0  0  0  0  0  0  0  0  0  0  0  0
    1.0621   -4.7084   -0.0638 H   0  0  0  0  0  0  0  0  0  0  0  0
    2.3534   -4.6524   -1.3135 H   0  0  0  0  0  0  0  0  0  0  0  0
   -5.5678    2.4130    1.2588 H   0  0  0  0  0  0  0  0  0  0  0  0
   -5.0196    0.8679    0.5241 H   0  0  0  0  0  0  0  0  0  0  0  0
   -5.8011    2.1084   -0.4754 H   0  0  0  0  0  0  0  0  0  0  0  0
   -5.3219   -4.0213    1.1858 H   0  0  0  0  0  0  0  0  0  0  0  0
   -3.6377   -4.4761    1.4350 H   0  0  0  0  0  0  0  0  0  0  0  0
   -3.9245   -1.0119    2.9212 H   0  0  0  0  0  0  0  0  0  0  0  0
   -5.1672   -2.2714    3.0092 H   0  0  0  0  0  0  0  0  0  0  0  0
   -3.4626   -2.6762    3.2922 H   0  0  0  0  0  0  0  0  0  0  0  0
    6.7342   -0.5331    3.1121 H   0  0  0  0  0  0  0  0  0  0  0  0
    6.2578   -1.9240    2.1242 H   0  0  0  0  0  0  0  0  0  0  0  0
    6.7255   -0.3964    1.3460 H   0  0  0  0  0  0  0  0  0  0  0  0
   -4.7904   -3.4454   -1.2106 H   0  0  0  0  0  0  0  0  0  0  0  0
   -4.4776   -5.1410   -0.8089 H   0  0  0  0  0  0  0  0  0  0  0  0
   -3.1281   -4.0137   -0.9621 H   0  0  0  0  0  0  0  0  0  0  0  0
    4.7864    0.5929    4.0695 H   0  0  0  0  0  0  0  0  0  0  0  0
    2.3307    0.4581    4.2525 H   0  0  0  0  0  0  0  0  0  0  0  0
    2.1115    0.2994    2.5162 H   0  0  0  0  0  0  0  0  0  0  0  0
    2.6890    1.8321    3.1940 H   0  0  0  0  0  0  0  0  0  0  0  0
  1 14  1  0  0  0  0
  1 23  1  0  0  0  0
  2 15  1  0  0  0  0
  2 26  1  0  0  0  0
  3 16  1  0  0  0  0
  3 27  1  0  0  0  0
  4 18  1  0  0  0  0
  4 28  1  0  0  0  0
  5 19  1  0  0  0  0
  5 29  1  0  0  0  0
  6 23  2  0  0  0  0
  7 26  2  0  0  0  0
  8 27  2  0  0  0  0
  9 28  2  0  0  0  0
 10 29  2  0  0  0  0
 11 12  1  0  0  0  0
 11 15  1  0  0  0  0
 11 19  1  0  0  0  0
 11 40  1  0  0  0  0
 12 14  1  0  0  0  0
 12 20  1  0  0  0  0
 12 41  1  0  0  0  0
 13 14  1  0  0  0  0
 13 16  1  0  0  0  0
 13 18  1  0  0  0  0
 13 42  1  0  0  0  0
 14 43  1  0  0  0  0
 15 17  1  0  0  0  0
 15 22  1  0  0  0  0
 16 17  1  0  0  0  0
 16 44  1  0  0  0  0
 17 45  1  0  0  0  0
 17 46  1  0  0  0  0
 18 23  1  0  0  0  0
 18 24  1  0  0  0  0
 19 21  1  0  0  0  0
 19 47  1  0  0  0  0
 20 21  2  0  0  0  0
 20 25  1  0  0  0  0
 21 48  1  0  0  0  0
 22 49  1  0  0  0  0
 22 50  1  0  0  0  0
 22 51  1  0  0  0  0
 24 52  1  0  0  0  0
 24 53  1  0  0  0  0
 24 54  1  0  0  0  0
 25 55  1  0  0  0  0
 25 56  1  0  0  0  0
 25 57  1  0  0  0  0
 26 31  1  0  0  0  0
 27 30  1  0  0  0  0
 28 32  1  0  0  0  0
 29 33  1  0  0  0  0
 30 34  1  0  0  0  0
 30 35  1  0  0  0  0
 30 58  1  0  0  0  0
 31 59  1  0  0  0  0
 31 60  1  0  0  0  0
 31 61  1  0  0  0  0
 32 62  1  0  0  0  0
 32 63  1  0  0  0  0
 32 64  1  0  0  0  0
 33 36  1  0  0  0  0
 33 38  2  0  0  0  0
 34 37  1  0  0  0  0
 34 65  1  0  0  0  0
 34 66  1  0  0  0  0
 35 67  1  0  0  0  0
 35 68  1  0  0  0  0
 35 69  1  0  0  0  0
 36 70  1  0  0  0  0
 36 71  1  0  0  0  0
 36 72  1  0  0  0  0
 37 73  1  0  0  0  0
 37 74  1  0  0  0  0
 37 75  1  0  0  0  0
 38 39  1  0  0  0  0
 38 76  1  0  0  0  0
 39 77  1  0  0  0  0
 39 78  1  0  0  0  0
 39 79  1  0  0  0  0
M  END
> <PUBCHEM_COMPOUND_CID>
5281422

> <PUBCHEM_CONFORMER_RMSD>
1.2

> <PUBCHEM_CONFORMER_DIVERSEORDER>
1
31
12
51
45
63
52
55
21
57
4
38
53
8
49
40
36
60
28
22
24
34
41
39
44
62
29
61
56
15
50
42
59
17
26
6
2
54
43
46
58
32
37
23
35
48
30
9
47
10
11
33
16
7
3
5
25
19
18
13
20
14
27

> <PUBCHEM_MMFF94_PARTIAL_CHARGES>
33
1 -0.43
10 -0.57
12 0.14
14 0.28
15 0.28
16 0.28
18 0.34
19 0.42
2 -0.43
20 -0.28
21 -0.29
23 0.66
25 0.14
26 0.66
27 0.66
28 0.66
29 0.71
3 -0.43
30 0.06
31 0.06
32 0.06
33 -0.12
36 0.14
38 -0.29
39 0.14
4 -0.43
48 0.15
5 -0.43
6 -0.57
7 -0.57
76 0.15
8 -0.57
9 -0.57

> <PUBCHEM_EFFECTIVE_ROTOR_COUNT>
12.2

> <PUBCHEM_PHARMACOPHORE_FEATURES>
12
1 10 acceptor
1 35 hydrophobe
1 36 hydrophobe
1 37 hydrophobe
1 39 hydrophobe
1 6 acceptor
1 7 acceptor
1 8 acceptor
1 9 acceptor
5 1 13 14 18 23 rings
5 11 12 19 20 21 rings
7 11 12 13 14 15 16 17 rings

> <PUBCHEM_HEAVY_ATOM_COUNT>
39

> <PUBCHEM_ATOM_DEF_STEREO_COUNT>
8

> <PUBCHEM_ATOM_UDEF_STEREO_COUNT>
1

> <PUBCHEM_BOND_DEF_STEREO_COUNT>
1

> <PUBCHEM_BOND_UDEF_STEREO_COUNT>
0

> <PUBCHEM_ISOTOPIC_ATOM_COUNT>
0

> <PUBCHEM_COMPONENT_COUNT>
1

> <PUBCHEM_CACTVS_TAUTO_COUNT>
1

> <PUBCHEM_CONFORMER_ID>
0050968E00000001

> <PUBCHEM_MMFF94_ENERGY>
131.4892

> <PUBCHEM_FEATURE_SELFOVERLAP>
60.963

> <PUBCHEM_SHAPE_FINGERPRINT>
11387372 6 17771352152006649370
11421498 54 17697867077836261400
11578080 2 17386005117813213611
12633257 1 17917712452319996534
12788726 201 18199733770044912026
13140716 1 18337095804927113181
13692114 37 18261402157049959357
14068700 675 17916881127124968706
14705955 166 17971773300122774000
14856354 85 17845380019826805610
15219462 58 17097188744375318057
15513586 35 16018375144652680592
15775530 1 17898553522204433351
161222 619 17313955108181368920
17349148 13 18340205314210433901
18681886 176 17248330645023673903
19315092 285 17344919507366338850
20764821 26 18265327310255083935
21033648 29 17749104474382954874
21421861 104 18056732409097421699
22149856 69 17970608879550623201
23559900 14 18120073224920736615
35225 105 17760698897823507216
392239 28 17617124420767226240
4066623 53 18054248544317590119
469060 322 17968672522918571247
484985 159 16626625286149622690
56638632 33 17758115186789406123
9896288 288 18409161126502418460
9981440 41 17753074926840460066

> <PUBCHEM_SHAPE_MULTIPOLES>
743.91
9.08
5.93
3.11
1.27
0.26
-0.97
3.9
-7.27
-6.11
1.93
3.52
0.61
-0.73

> <PUBCHEM_SHAPE_SELFOVERLAP>
1564.272

> <PUBCHEM_SHAPE_VOLUME>
417.5

> <PUBCHEM_COORDINATE_TYPE>
2
5
10

$$$$

