11954106
  -OEChem-07051213063D

 60 65  0     1  0  0  0  0  0999 V2000
    6.2847   -2.0917    0.0402 O   0  0  0  0  0  0  0  0  0  0  0  0
   -4.2371    1.4960   -0.0525 N   0  0  0  0  0  0  0  0  0  0  0  0
    2.3488    0.9266   -0.1003 C   0  0  2  0  0  0  0  0  0  0  0  0
    1.2274   -0.1177    0.2012 C   0  0  1  0  0  0  0  0  0  0  0  0
    3.6675    0.4124    0.4879 C   0  0  1  0  0  0  0  0  0  0  0  0
    4.0923   -0.9478   -0.0986 C   0  0  2  0  0  0  0  0  0  0  0  0
   -0.1782    0.3481   -0.3329 C   0  0  2  0  0  0  0  0  0  0  0  0
   -0.4805    1.7745    0.2759 C   0  0  1  0  0  0  0  0  0  0  0  0
    1.6292   -1.5531   -0.2345 C   0  0  0  0  0  0  0  0  0  0  0  0
    3.0195   -1.9806    0.2695 C   0  0  0  0  0  0  0  0  0  0  0  0
    1.9853    2.3035    0.4706 C   0  0  0  0  0  0  0  0  0  0  0  0
    4.9254    1.2669    0.3530 C   0  0  0  0  0  0  0  0  0  0  0  0
    5.4364   -1.1272    0.6329 C   0  0  2  0  0  0  0  0  0  0  0  0
    0.6273    2.7923   -0.0208 C   0  0  0  0  0  0  0  0  0  0  0  0
    6.0782    0.2731    0.5840 C   0  0  0  0  0  0  0  0  0  0  0  0
   -1.2859   -0.6560    0.1512 C   0  0  0  0  0  0  0  0  0  0  0  0
   -1.8593    2.3470   -0.1396 C   0  0  0  0  0  0  0  0  0  0  0  0
    4.3094   -0.9507   -1.6332 C   0  0  0  0  0  0  0  0  0  0  0  0
   -0.2016    0.3847   -1.8836 C   0  0  0  0  0  0  0  0  0  0  0  0
   -2.6594   -0.0709    0.0844 C   0  0  0  0  0  0  0  0  0  0  0  0
   -2.8891    1.2832   -0.0284 C   0  0  0  0  0  0  0  0  0  0  0  0
   -3.9295   -0.7128    0.1383 C   0  0  0  0  0  0  0  0  0  0  0  0
   -4.8994    0.2915    0.0493 C   0  0  0  0  0  0  0  0  0  0  0  0
   -4.3522   -2.0526    0.2551 C   0  0  0  0  0  0  0  0  0  0  0  0
   -6.2719    0.0181    0.0692 C   0  0  0  0  0  0  0  0  0  0  0  0
   -5.7219   -2.3390    0.2768 C   0  0  0  0  0  0  0  0  0  0  0  0
   -6.6652   -1.3180    0.1848 C   0  0  0  0  0  0  0  0  0  0  0  0
    2.4640    1.0416   -1.1832 H   0  0  0  0  0  0  0  0  0  0  0  0
    1.1389   -0.1629    1.2986 H   0  0  0  0  0  0  0  0  0  0  0  0
    3.5022    0.2865    1.5714 H   0  0  0  0  0  0  0  0  0  0  0  0
   -0.5120    1.6486    1.3702 H   0  0  0  0  0  0  0  0  0  0  0  0
    1.6055   -1.6432   -1.3244 H   0  0  0  0  0  0  0  0  0  0  0  0
    0.8997   -2.2757    0.1483 H   0  0  0  0  0  0  0  0  0  0  0  0
    2.9722   -2.1026    1.3595 H   0  0  0  0  0  0  0  0  0  0  0  0
    3.2737   -2.9656   -0.1400 H   0  0  0  0  0  0  0  0  0  0  0  0
    2.7467    3.0407    0.1902 H   0  0  0  0  0  0  0  0  0  0  0  0
    1.9765    2.2618    1.5674 H   0  0  0  0  0  0  0  0  0  0  0  0
    4.9493    2.0805    1.0851 H   0  0  0  0  0  0  0  0  0  0  0  0
    5.0014    1.7150   -0.6440 H   0  0  0  0  0  0  0  0  0  0  0  0
    5.2709   -1.4189    1.6778 H   0  0  0  0  0  0  0  0  0  0  0  0
    0.3958    3.7442    0.4730 H   0  0  0  0  0  0  0  0  0  0  0  0
    0.6778    3.0060   -1.0948 H   0  0  0  0  0  0  0  0  0  0  0  0
    6.8288    0.3574   -0.2101 H   0  0  0  0  0  0  0  0  0  0  0  0
    6.5906    0.4838    1.5294 H   0  0  0  0  0  0  0  0  0  0  0  0
   -1.0979   -0.9368    1.1958 H   0  0  0  0  0  0  0  0  0  0  0  0
   -1.2531   -1.5780   -0.4416 H   0  0  0  0  0  0  0  0  0  0  0  0
   -1.8296    2.7211   -1.1697 H   0  0  0  0  0  0  0  0  0  0  0  0
   -2.1166    3.1943    0.5071 H   0  0  0  0  0  0  0  0  0  0  0  0
    4.5957   -1.9508   -1.9792 H   0  0  0  0  0  0  0  0  0  0  0  0
    3.4114   -0.6679   -2.1888 H   0  0  0  0  0  0  0  0  0  0  0  0
    5.1034   -0.2645   -1.9444 H   0  0  0  0  0  0  0  0  0  0  0  0
   -0.0455   -0.6112   -2.3101 H   0  0  0  0  0  0  0  0  0  0  0  0
   -1.1624    0.7347   -2.2738 H   0  0  0  0  0  0  0  0  0  0  0  0
    0.5671    1.0417   -2.2980 H   0  0  0  0  0  0  0  0  0  0  0  0
    7.1294   -2.0737    0.5215 H   0  0  0  0  0  0  0  0  0  0  0  0
   -4.6860    2.3980   -0.1353 H   0  0  0  0  0  0  0  0  0  0  0  0
   -3.6287   -2.8596    0.3275 H   0  0  0  0  0  0  0  0  0  0  0  0
   -7.0079    0.8121   -0.0016 H   0  0  0  0  0  0  0  0  0  0  0  0
   -6.0518   -3.3707    0.3664 H   0  0  0  0  0  0  0  0  0  0  0  0
   -7.7241   -1.5630    0.2036 H   0  0  0  0  0  0  0  0  0  0  0  0
  1 13  1  0  0  0  0
  1 55  1  0  0  0  0
  2 21  1  0  0  0  0
  2 23  1  0  0  0  0
  2 56  1  0  0  0  0
  3  4  1  0  0  0  0
  3  5  1  0  0  0  0
  3 11  1  0  0  0  0
  3 28  1  0  0  0  0
  4  7  1  0  0  0  0
  4  9  1  0  0  0  0
  4 29  1  0  0  0  0
  5  6  1  0  0  0  0
  5 12  1  0  0  0  0
  5 30  1  0  0  0  0
  6 10  1  0  0  0  0
  6 13  1  0  0  0  0
  6 18  1  0  0  0  0
  7  8  1  0  0  0  0
  7 16  1  0  0  0  0
  7 19  1  0  0  0  0
  8 14  1  0  0  0  0
  8 17  1  0  0  0  0
  8 31  1  0  0  0  0
  9 10  1  0  0  0  0
  9 32  1  0  0  0  0
  9 33  1  0  0  0  0
 10 34  1  0  0  0  0
 10 35  1  0  0  0  0
 11 14  1  0  0  0  0
 11 36  1  0  0  0  0
 11 37  1  0  0  0  0
 12 15  1  0  0  0  0
 12 38  1  0  0  0  0
 12 39  1  0  0  0  0
 13 15  1  0  0  0  0
 13 40  1  0  0  0  0
 14 41  1  0  0  0  0
 14 42  1  0  0  0  0
 15 43  1  0  0  0  0
 15 44  1  0  0  0  0
 16 20  1  0  0  0  0
 16 45  1  0  0  0  0
 16 46  1  0  0  0  0
 17 21  1  0  0  0  0
 17 47  1  0  0  0  0
 17 48  1  0  0  0  0
 18 49  1  0  0  0  0
 18 50  1  0  0  0  0
 18 51  1  0  0  0  0
 19 52  1  0  0  0  0
 19 53  1  0  0  0  0
 19 54  1  0  0  0  0
 20 21  2  0  0  0  0
 20 22  1  0  0  0  0
 22 23  1  0  0  0  0
 22 24  2  0  0  0  0
 23 25  2  0  0  0  0
 24 26  1  0  0  0  0
 24 57  1  0  0  0  0
 25 27  1  0  0  0  0
 25 58  1  0  0  0  0
 26 27  2  0  0  0  0
 26 59  1  0  0  0  0
 27 60  1  0  0  0  0
M  END
> <PUBCHEM_COMPOUND_CID>
11954106

> <PUBCHEM_CONFORMER_RMSD>
0.6

> <PUBCHEM_CONFORMER_DIVERSEORDER>
1

> <PUBCHEM_MMFF94_PARTIAL_CHARGES>
18
1 -0.68
13 0.28
16 0.18
17 0.18
2 0.03
20 -0.18
21 -0.33
23 -0.15
24 -0.15
25 -0.15
26 -0.15
27 -0.15
55 0.4
56 0.27
57 0.15
58 0.15
59 0.15
60 0.15

> <PUBCHEM_EFFECTIVE_ROTOR_COUNT>
1.8

> <PUBCHEM_PHARMACOPHORE_FEATURES>
10
1 1 acceptor
1 1 donor
1 2 cation
1 2 donor
5 2 20 21 22 23 rings
5 5 6 12 13 15 rings
6 22 23 24 25 26 27 rings
6 3 4 5 6 9 10 rings
6 3 4 7 8 11 14 rings
6 7 8 16 17 20 21 rings

> <PUBCHEM_HEAVY_ATOM_COUNT>
27

> <PUBCHEM_ATOM_DEF_STEREO_COUNT>
7

> <PUBCHEM_ATOM_UDEF_STEREO_COUNT>
0

> <PUBCHEM_BOND_DEF_STEREO_COUNT>
0

> <PUBCHEM_BOND_UDEF_STEREO_COUNT>
0

> <PUBCHEM_ISOTOPIC_ATOM_COUNT>
0

> <PUBCHEM_COMPONENT_COUNT>
1

> <PUBCHEM_CACTVS_TAUTO_COUNT>
1

> <PUBCHEM_CONFORMER_ID>
00B667BA00000001

> <PUBCHEM_MMFF94_ENERGY>
88.2978

> <PUBCHEM_FEATURE_SELFOVERLAP>
51.009

> <PUBCHEM_SHAPE_FINGERPRINT>
10 15 18335150748352769480
11524674 6 16805604755044061591
11578080 2 16700072658700790375
117089 54 17827065518772791790
11963148 33 17763184635785008555
12107183 9 17762056944754504067
12166972 35 17846776321777825764
12236239 1 17917710218609889973
12422481 6 17312819385789334773
12516196 113 18335139782420339657
12596602 18 17748823016449151979
12623949 98 17604135043414564510
13288520 33 18412825790035531221
13402501 40 18411419501093337059
13544653 18 18343294864627274569
13685833 64 18341891875184976979
13782708 43 17989211438347615659
13862211 1 18411699893690575883
14294032 229 15911943806522021629
14341114 176 18408037399289507729
14787075 74 18272367564311075624
14790565 3 17114942193584040901
14955137 171 17967248698210150828
15196674 1 18410575093432666984
15352361 1 18411418406229805537
15927050 60 17686059388549084772
17349148 13 17704063006115205630
17492 89 18122911090882961482
17844677 252 18409725175176176921
17857418 61 18412826872045731395
17909252 39 17898277553956142438
1813 80 17561366170859649877
18335252 98 18410009919355872066
18608769 82 18336270051084154984
1979834 28 17530962488835515502
20028762 73 18260268512568970591
21033648 29 17096103492075751963
21130935 74 18333449837338543515
21197605 99 18191023400528652846
21267235 1 18408600392477444982
21279426 13 18339927137689108301
21623969 137 17967531281135423910
21682296 61 18261104214245892039
23522609 53 18125125390657008693
23559900 14 18339930312223912377
239999 70 18260543438147146982
3004659 81 18131633383096363696
329604 57 18341609313270206388
335352 9 18411983573130221789
3383291 50 18130503021283855027
338550 245 18340767018601954399
3411729 13 18194686969462933552
34797466 226 17967807236989183070
350125 39 18409730629774060713
3886686 26 16973111237347261074
4073 2 18130503037703496803
4214541 1 18411138056808910937
4325135 7 18272367547616477284
463206 1 18267020557903974019
465052 167 18334009475876973478
5104073 3 18260552263909262904
636775 8 18263635321159563310
7495541 125 18410009914280364752
8863177 126 17986377898805861099
9709674 26 18198902509864749547

> <PUBCHEM_SHAPE_MULTIPOLES>
544.8
15.73
2.61
0.92
5.35
0.52
0.39
-8.58
-2.12
0.12
-0.19
-0.61
-0.05
0.59

> <PUBCHEM_SHAPE_SELFOVERLAP>
1208.001

> <PUBCHEM_SHAPE_VOLUME>
289.2

> <PUBCHEM_COORDINATE_TYPE>
2
5
10

$$$$

