2288503
  -OEChem-07051213062D

 39 40  0     0  0  0  0  0  0999 V2000
    3.5000    4.0000    0.0000 O   0  0  0  0  0  0  0  0  0  0  0  0
    3.5000   -4.0000    0.0000 O   0  0  0  0  0  0  0  0  0  0  0  0
    3.5000    0.0000    0.0000 C   0  0  0  0  0  0  0  0  0  0  0  0
    4.5000    0.0000    0.0000 C   0  0  0  0  0  0  0  0  0  0  0  0
    2.5000    0.0000    0.0000 C   0  0  0  0  0  0  0  0  0  0  0  0
    3.5000   -1.0000    0.0000 C   0  0  0  0  0  0  0  0  0  0  0  0
    3.5000    1.0000    0.0000 C   0  0  0  0  0  0  0  0  0  0  0  0
    5.0000    0.8660    0.0000 C   0  0  0  0  0  0  0  0  0  0  0  0
    2.0000    0.8660    0.0000 C   0  0  0  0  0  0  0  0  0  0  0  0
    4.3660    1.5000    0.0000 C   0  0  0  0  0  0  0  0  0  0  0  0
    2.6340   -1.5000    0.0000 C   0  0  0  0  0  0  0  0  0  0  0  0
    2.6340    1.5000    0.0000 C   0  0  0  0  0  0  0  0  0  0  0  0
    4.3660   -1.5000    0.0000 C   0  0  0  0  0  0  0  0  0  0  0  0
    4.3660    2.5000    0.0000 C   0  0  0  0  0  0  0  0  0  0  0  0
    2.6340   -2.5000    0.0000 C   0  0  0  0  0  0  0  0  0  0  0  0
    2.6340    2.5000    0.0000 C   0  0  0  0  0  0  0  0  0  0  0  0
    4.3660   -2.5000    0.0000 C   0  0  0  0  0  0  0  0  0  0  0  0
    3.5000    3.0000    0.0000 C   0  0  0  0  0  0  0  0  0  0  0  0
    3.5000   -3.0000    0.0000 C   0  0  0  0  0  0  0  0  0  0  0  0
    4.3923   -0.6106    0.0000 H   0  0  0  0  0  0  0  0  0  0  0  0
    5.0826   -0.2121    0.0000 H   0  0  0  0  0  0  0  0  0  0  0  0
    1.9174   -0.2121    0.0000 H   0  0  0  0  0  0  0  0  0  0  0  0
    2.6077   -0.6106    0.0000 H   0  0  0  0  0  0  0  0  0  0  0  0
    2.5369    1.1760    0.0000 H   0  0  0  0  0  0  0  0  0  0  0  0
    1.6900    1.4030    0.0000 H   0  0  0  0  0  0  0  0  0  0  0  0
    1.4631    0.5560    0.0000 H   0  0  0  0  0  0  0  0  0  0  0  0
    5.5369    0.5560    0.0000 H   0  0  0  0  0  0  0  0  0  0  0  0
    5.3100    1.4030    0.0000 H   0  0  0  0  0  0  0  0  0  0  0  0
    4.4631    1.1760    0.0000 H   0  0  0  0  0  0  0  0  0  0  0  0
    4.9030    1.1900    0.0000 H   0  0  0  0  0  0  0  0  0  0  0  0
    2.0970   -1.1900    0.0000 H   0  0  0  0  0  0  0  0  0  0  0  0
    2.0970    1.1900    0.0000 H   0  0  0  0  0  0  0  0  0  0  0  0
    4.9030   -1.1900    0.0000 H   0  0  0  0  0  0  0  0  0  0  0  0
    4.9030    2.8100    0.0000 H   0  0  0  0  0  0  0  0  0  0  0  0
    2.0970   -2.8100    0.0000 H   0  0  0  0  0  0  0  0  0  0  0  0
    2.0970    2.8100    0.0000 H   0  0  0  0  0  0  0  0  0  0  0  0
    4.9030   -2.8100    0.0000 H   0  0  0  0  0  0  0  0  0  0  0  0
    4.0369    4.3100    0.0000 H   0  0  0  0  0  0  0  0  0  0  0  0
    2.9631   -4.3100    0.0000 H   0  0  0  0  0  0  0  0  0  0  0  0
  1 18  1  0  0  0  0
  1 38  1  0  0  0  0
  2 19  1  0  0  0  0
  2 39  1  0  0  0  0
  3  4  1  0  0  0  0
  3  5  1  0  0  0  0
  3  6  1  0  0  0  0
  3  7  1  0  0  0  0
  4  8  1  0  0  0  0
  4 20  1  0  0  0  0
  4 21  1  0  0  0  0
  5  9  1  0  0  0  0
  5 22  1  0  0  0  0
  5 23  1  0  0  0  0
  6 11  2  0  0  0  0
  6 13  1  0  0  0  0
  7 10  2  0  0  0  0
  7 12  1  0  0  0  0
  8 27  1  0  0  0  0
  8 28  1  0  0  0  0
  8 29  1  0  0  0  0
  9 24  1  0  0  0  0
  9 25  1  0  0  0  0
  9 26  1  0  0  0  0
 10 14  1  0  0  0  0
 10 30  1  0  0  0  0
 11 15  1  0  0  0  0
 11 31  1  0  0  0  0
 12 16  2  0  0  0  0
 12 32  1  0  0  0  0
 13 17  2  0  0  0  0
 13 33  1  0  0  0  0
 14 18  2  0  0  0  0
 14 34  1  0  0  0  0
 15 19  2  0  0  0  0
 15 35  1  0  0  0  0
 16 18  1  0  0  0  0
 16 36  1  0  0  0  0
 17 19  1  0  0  0  0
 17 37  1  0  0  0  0
M  END
> <PUBCHEM_COMPOUND_CID>
2288503

> <PUBCHEM_COMPOUND_CANONICALIZED>
1

> <PUBCHEM_CACTVS_COMPLEXITY>
232

> <PUBCHEM_CACTVS_HBOND_ACCEPTOR>
2

> <PUBCHEM_CACTVS_HBOND_DONOR>
2

> <PUBCHEM_CACTVS_ROTATABLE_BOND>
4

> <PUBCHEM_CACTVS_SUBSKEYS>
AAADceB4MAAAAAAAAAAAAAAAAAAAAAAAAAAwYAAAAAAAAAABQAAAGgAACAAADgSAmAAyBoAAAgCAAiBCAAACAAAgIAAIiAAGCIgIJiKCERKAcAAkwBEImAeAwPAPoAAAAAAAAABAAAAAAAAAAAAAAAAAAA==

> <PUBCHEM_IUPAC_OPENEYE_NAME>
4-[1-ethyl-1-(4-hydroxyphenyl)propyl]phenol

> <PUBCHEM_IUPAC_CAS_NAME>
4-[3-(4-hydroxyphenyl)pentan-3-yl]phenol

> <PUBCHEM_IUPAC_NAME>
4-[3-(4-hydroxyphenyl)pentan-3-yl]phenol

> <PUBCHEM_IUPAC_SYSTEMATIC_NAME>
4-[3-(4-hydroxyphenyl)pentan-3-yl]phenol

> <PUBCHEM_IUPAC_TRADITIONAL_NAME>
4-[1-ethyl-1-(4-hydroxyphenyl)propyl]phenol

> <PUBCHEM_IUPAC_INCHI>
InChI=1S/C17H20O2/c1-3-17(4-2,13-5-9-15(18)10-6-13)14-7-11-16(19)12-8-14/h5-12,18-19H,3-4H2,1-2H3

> <PUBCHEM_IUPAC_INCHIKEY>
RKSBPFMNOJWYSB-UHFFFAOYSA-N

> <PUBCHEM_XLOGP3>
4.4

> <PUBCHEM_EXACT_MASS>
256.14633

> <PUBCHEM_MOLECULAR_FORMULA>
C17H20O2

> <PUBCHEM_MOLECULAR_WEIGHT>
256.3395

> <PUBCHEM_OPENEYE_CAN_SMILES>
CCC(CC)(C1=CC=C(C=C1)O)C2=CC=C(C=C2)O

> <PUBCHEM_OPENEYE_ISO_SMILES>
CCC(CC)(C1=CC=C(C=C1)O)C2=CC=C(C=C2)O

> <PUBCHEM_CACTVS_TPSA>
40.5

> <PUBCHEM_MONOISOTOPIC_WEIGHT>
256.14633

> <PUBCHEM_TOTAL_CHARGE>
0

> <PUBCHEM_HEAVY_ATOM_COUNT>
19

> <PUBCHEM_ATOM_DEF_STEREO_COUNT>
0

> <PUBCHEM_ATOM_UDEF_STEREO_COUNT>
0

> <PUBCHEM_BOND_DEF_STEREO_COUNT>
0

> <PUBCHEM_BOND_UDEF_STEREO_COUNT>
0

> <PUBCHEM_ISOTOPIC_ATOM_COUNT>
0

> <PUBCHEM_COMPONENT_COUNT>
1

> <PUBCHEM_CACTVS_TAUTO_COUNT>
3

> <PUBCHEM_COORDINATE_TYPE>
1
5
255

> <PUBCHEM_BONDANNOTATIONS>
10  14  8
11  15  8
12  16  8
13  17  8
14  18  8
15  19  8
16  18  8
17  19  8
6  11  8
6  13  8
7  10  8
7  12  8

$$$$

