5281432
  -OEChem-07051212573D

 39 40  0     1  0  0  0  0  0999 V2000
    2.5371   -1.5307    0.0838 O   0  0  0  0  0  0  0  0  0  0  0  0
    0.6261    2.8282    0.4003 O   0  0  0  0  0  0  0  0  0  0  0  0
   -3.7201    1.1158    1.3562 O   0  0  0  0  0  0  0  0  0  0  0  0
    4.6946   -0.7508    0.0384 O   0  0  0  0  0  0  0  0  0  0  0  0
    1.3392    0.4906    0.4239 C   0  0  2  0  0  0  0  0  0  0  0  0
    1.2159   -0.9591   -0.0933 C   0  0  2  0  0  0  0  0  0  0  0  0
    0.3360    1.5358   -0.1459 C   0  0  1  0  0  0  0  0  0  0  0  0
    0.2501   -1.9169    0.6451 C   0  0  0  0  0  0  0  0  0  0  0  0
    2.7838    0.7313    0.0695 C   0  0  0  0  0  0  0  0  0  0  0  0
   -1.1453   -1.9560    0.0607 C   0  0  0  0  0  0  0  0  0  0  0  0
   -1.0871    1.2551    0.2391 C   0  0  0  0  0  0  0  0  0  0  0  0
    3.4915   -0.5645    0.0546 C   0  0  0  0  0  0  0  0  0  0  0  0
   -2.1725    1.0624   -0.5415 C   0  0  0  0  0  0  0  0  0  0  0  0
   -3.4804    0.5428    0.0681 C   0  0  1  0  0  0  0  0  0  0  0  0
   -3.4952   -1.0038    0.2104 C   0  0  0  0  0  0  0  0  0  0  0  0
   -2.1838   -1.4888    0.7820 C   0  0  0  0  0  0  0  0  0  0  0  0
    3.4537    1.8412   -0.2555 C   0  0  0  0  0  0  0  0  0  0  0  0
   -1.2497   -2.4417   -1.3598 C   0  0  0  0  0  0  0  0  0  0  0  0
   -2.1937    1.2091   -2.0365 C   0  0  0  0  0  0  0  0  0  0  0  0
    1.2870    0.5002    1.5222 H   0  0  0  0  0  0  0  0  0  0  0  0
    1.0277   -0.9694   -1.1739 H   0  0  0  0  0  0  0  0  0  0  0  0
    0.4701    1.6036   -1.2291 H   0  0  0  0  0  0  0  0  0  0  0  0
    0.2329   -1.6573    1.7114 H   0  0  0  0  0  0  0  0  0  0  0  0
    0.6500   -2.9398    0.6133 H   0  0  0  0  0  0  0  0  0  0  0  0
   -1.2121    1.1314    1.3155 H   0  0  0  0  0  0  0  0  0  0  0  0
   -4.3295    0.8470   -0.5552 H   0  0  0  0  0  0  0  0  0  0  0  0
   -3.6987   -1.4487   -0.7677 H   0  0  0  0  0  0  0  0  0  0  0  0
   -4.3037   -1.3172    0.8812 H   0  0  0  0  0  0  0  0  0  0  0  0
   -2.0117   -1.2028    1.8190 H   0  0  0  0  0  0  0  0  0  0  0  0
    2.9797    2.8141   -0.2838 H   0  0  0  0  0  0  0  0  0  0  0  0
    4.5091    1.8160   -0.5083 H   0  0  0  0  0  0  0  0  0  0  0  0
    0.0638    3.4756   -0.0594 H   0  0  0  0  0  0  0  0  0  0  0  0
   -0.6075   -3.3173   -1.5054 H   0  0  0  0  0  0  0  0  0  0  0  0
   -0.9386   -1.6673   -2.0659 H   0  0  0  0  0  0  0  0  0  0  0  0
   -2.2621   -2.7606   -1.6216 H   0  0  0  0  0  0  0  0  0  0  0  0
   -2.4679    0.2613   -2.5100 H   0  0  0  0  0  0  0  0  0  0  0  0
   -1.2364    1.5234   -2.4567 H   0  0  0  0  0  0  0  0  0  0  0  0
   -2.9356    1.9615   -2.3244 H   0  0  0  0  0  0  0  0  0  0  0  0
   -3.7362    2.0823    1.2486 H   0  0  0  0  0  0  0  0  0  0  0  0
  1  6  1  0  0  0  0
  1 12  1  0  0  0  0
  2  7  1  0  0  0  0
  2 32  1  0  0  0  0
  3 14  1  0  0  0  0
  3 39  1  0  0  0  0
  4 12  2  0  0  0  0
  5  6  1  0  0  0  0
  5  7  1  0  0  0  0
  5  9  1  0  0  0  0
  5 20  1  0  0  0  0
  6  8  1  0  0  0  0
  6 21  1  0  0  0  0
  7 11  1  0  0  0  0
  7 22  1  0  0  0  0
  8 10  1  0  0  0  0
  8 23  1  0  0  0  0
  8 24  1  0  0  0  0
  9 12  1  0  0  0  0
  9 17  2  0  0  0  0
 10 16  2  0  0  0  0
 10 18  1  0  0  0  0
 11 13  2  0  0  0  0
 11 25  1  0  0  0  0
 13 14  1  0  0  0  0
 13 19  1  0  0  0  0
 14 15  1  0  0  0  0
 14 26  1  0  0  0  0
 15 16  1  0  0  0  0
 15 27  1  0  0  0  0
 15 28  1  0  0  0  0
 16 29  1  0  0  0  0
 17 30  1  0  0  0  0
 17 31  1  0  0  0  0
 18 33  1  0  0  0  0
 18 34  1  0  0  0  0
 18 35  1  0  0  0  0
 19 36  1  0  0  0  0
 19 37  1  0  0  0  0
 19 38  1  0  0  0  0
M  END
> <PUBCHEM_COMPOUND_CID>
5281432

> <PUBCHEM_CONFORMER_RMSD>
0.6

> <PUBCHEM_CONFORMER_DIVERSEORDER>
1
3
2
4

> <PUBCHEM_MMFF94_PARTIAL_CHARGES>
25
1 -0.43
10 -0.28
11 -0.29
12 0.71
13 -0.28
14 0.42
15 0.14
16 -0.29
17 -0.3
18 0.14
19 0.14
2 -0.68
25 0.15
29 0.15
3 -0.68
30 0.15
31 0.15
32 0.4
39 0.4
4 -0.57
5 0.14
6 0.28
7 0.42
8 0.14
9 -0.12

> <PUBCHEM_EFFECTIVE_ROTOR_COUNT>
1

> <PUBCHEM_PHARMACOPHORE_FEATURES>
6
1 2 acceptor
1 2 donor
1 3 acceptor
1 3 donor
1 4 acceptor
5 1 5 6 9 12 rings

> <PUBCHEM_HEAVY_ATOM_COUNT>
19

> <PUBCHEM_ATOM_DEF_STEREO_COUNT>
4

> <PUBCHEM_ATOM_UDEF_STEREO_COUNT>
0

> <PUBCHEM_BOND_DEF_STEREO_COUNT>
2

> <PUBCHEM_BOND_UDEF_STEREO_COUNT>
0

> <PUBCHEM_ISOTOPIC_ATOM_COUNT>
0

> <PUBCHEM_COMPONENT_COUNT>
1

> <PUBCHEM_CACTVS_TAUTO_COUNT>
1

> <PUBCHEM_CONFORMER_ID>
0050969800000001

> <PUBCHEM_MMFF94_ENERGY>
51.2442

> <PUBCHEM_FEATURE_SELFOVERLAP>
30.446

> <PUBCHEM_SHAPE_FINGERPRINT>
10759866 29 17917705829834061734
10967382 1 18411136969696816962
11132069 177 18411990130653778096
11578080 2 17025445382987664763
12011746 2 18341898502372262311
12403814 3 17918275333527814301
12715332 25 18261114101439890430
13132413 78 18266171734610475612
13140716 1 18410860945360613930
13221675 6 18341897342129737939
13583140 156 16844747403199540008
14251745 187 18196661695991838608
15196674 1 18411980226332488955
15309172 13 18409161138927981835
15442244 35 18409446947421231562
15775835 57 18412822491031285971
16945 1 18125445455966659962
17357779 13 18126584327060151111
18186145 218 18411701014998819508
18219364 16 18271246122696330609
19591789 44 18411698789905528058
21249577 43 18412826893066809250
21267235 1 18411127026694955210
21501502 16 18338519608402750094
22721475 48 18412822460861071761
2334 1 18339929190994439058
23402539 116 18114752628235304590
23419403 2 15953660118844520115
23559900 14 18335706057717522282
238 59 17766882585493592165
2748010 2 18410862023276026980
335352 9 18339359768092760252
3524813 1 18201446903776965565
5104073 3 18412261705714970056
69090 78 18409171008446544123
7832392 63 18335422318312150538
81228 2 17981901747702094283
8809292 202 18272366460372637866

> <PUBCHEM_SHAPE_MULTIPOLES>
367.53
6.68
2.7
1.11
3.32
0.09
0.41
-0.38
-0.48
-0.18
0.19
-1
-0.11
0

> <PUBCHEM_SHAPE_SELFOVERLAP>
759.947

> <PUBCHEM_SHAPE_VOLUME>
209.9

> <PUBCHEM_COORDINATE_TYPE>
2
5
10

$$$$

