92746
  -OEChem-07051212503D

 72 75  0     1  0  0  0  0  0999 V2000
    7.7098    0.2385   -1.1080 O   0  0  0  0  0  0  0  0  0  0  0  0
   -0.7440   -0.5901    0.5801 C   0  0  1  0  0  0  0  0  0  0  0  0
   -0.1310    0.7805    0.2099 C   0  0  2  0  0  0  0  0  0  0  0  0
   -2.2432   -0.2630    0.3889 C   0  0  2  0  0  0  0  0  0  0  0  0
    3.6183   -0.3571    0.0365 C   0  0  2  0  0  0  0  0  0  0  0  0
    1.3765    0.7953    0.2767 C   0  0  0  0  0  0  0  0  0  0  0  0
    2.0748   -0.3329   -0.0126 C   0  0  0  0  0  0  0  0  0  0  0  0
   -0.1723   -1.6086   -0.4083 C   0  0  0  0  0  0  0  0  0  0  0  0
   -0.9773    1.7574    1.0304 C   0  0  0  0  0  0  0  0  0  0  0  0
   -2.3909    1.1459    1.0079 C   0  0  0  0  0  0  0  0  0  0  0  0
    4.1614    1.0872   -0.2096 C   0  0  1  0  0  0  0  0  0  0  0  0
    1.3671   -1.6486   -0.3446 C   0  0  0  0  0  0  0  0  0  0  0  0
    2.0218    2.1207    0.6037 C   0  0  0  0  0  0  0  0  0  0  0  0
   -3.2353   -1.2679    0.9560 C   0  0  1  0  0  0  0  0  0  0  0  0
    3.5409    2.0872    0.7633 C   0  0  0  0  0  0  0  0  0  0  0  0
   -0.4452   -1.0412    2.0338 C   0  0  0  0  0  0  0  0  0  0  0  0
    4.2466   -1.2677   -1.0564 C   0  0  0  0  0  0  0  0  0  0  0  0
    5.6925    1.1628   -0.1977 C   0  0  0  0  0  0  0  0  0  0  0  0
    4.0030   -0.9073    1.4336 C   0  0  0  0  0  0  0  0  0  0  0  0
    5.7755   -1.2015   -1.0993 C   0  0  0  0  0  0  0  0  0  0  0  0
    6.2928    0.2255   -1.2439 C   0  0  2  0  0  0  0  0  0  0  0  0
   -4.7038   -0.8641    0.6982 C   0  0  0  0  0  0  0  0  0  0  0  0
   -2.9783   -2.6535    0.3503 C   0  0  0  0  0  0  0  0  0  0  0  0
   -5.1071   -0.7687   -0.7801 C   0  0  0  0  0  0  0  0  0  0  0  0
   -6.5598   -0.4286   -0.9647 C   0  0  0  0  0  0  0  0  0  0  0  0
   -7.1396    0.7867   -0.9735 C   0  0  0  0  0  0  0  0  0  0  0  0
   -8.6256    0.9169   -1.1827 C   0  0  0  0  0  0  0  0  0  0  0  0
   -6.4276    2.0963   -0.7879 C   0  0  0  0  0  0  0  0  0  0  0  0
   -0.3627    1.0051   -0.8453 H   0  0  0  0  0  0  0  0  0  0  0  0
   -2.4177   -0.1623   -0.6914 H   0  0  0  0  0  0  0  0  0  0  0  0
   -0.4721   -1.3448   -1.4315 H   0  0  0  0  0  0  0  0  0  0  0  0
   -0.5198   -2.6285   -0.2423 H   0  0  0  0  0  0  0  0  0  0  0  0
   -0.9732    2.7641    0.5992 H   0  0  0  0  0  0  0  0  0  0  0  0
   -0.6185    1.8390    2.0627 H   0  0  0  0  0  0  0  0  0  0  0  0
   -2.7933    1.1148    2.0267 H   0  0  0  0  0  0  0  0  0  0  0  0
   -3.0681    1.7603    0.4050 H   0  0  0  0  0  0  0  0  0  0  0  0
    3.8479    1.3949   -1.2206 H   0  0  0  0  0  0  0  0  0  0  0  0
    1.7170   -2.0246   -1.3123 H   0  0  0  0  0  0  0  0  0  0  0  0
    1.6585   -2.3911    0.4086 H   0  0  0  0  0  0  0  0  0  0  0  0
    1.7702    2.8232   -0.2015 H   0  0  0  0  0  0  0  0  0  0  0  0
    1.5986    2.5316    1.5270 H   0  0  0  0  0  0  0  0  0  0  0  0
   -3.1216   -1.3451    2.0445 H   0  0  0  0  0  0  0  0  0  0  0  0
    3.9392    3.0940    0.5866 H   0  0  0  0  0  0  0  0  0  0  0  0
    3.8031    1.8359    1.7976 H   0  0  0  0  0  0  0  0  0  0  0  0
    0.6234   -1.0183    2.2681 H   0  0  0  0  0  0  0  0  0  0  0  0
   -0.9383   -0.4056    2.7763 H   0  0  0  0  0  0  0  0  0  0  0  0
   -0.7808   -2.0668    2.2145 H   0  0  0  0  0  0  0  0  0  0  0  0
    3.8563   -0.9811   -2.0423 H   0  0  0  0  0  0  0  0  0  0  0  0
    3.9616   -2.3155   -0.8998 H   0  0  0  0  0  0  0  0  0  0  0  0
    6.0214    2.1880   -0.4124 H   0  0  0  0  0  0  0  0  0  0  0  0
    6.0979    0.9375    0.7960 H   0  0  0  0  0  0  0  0  0  0  0  0
    5.0767   -0.8461    1.6305 H   0  0  0  0  0  0  0  0  0  0  0  0
    3.4953   -0.3693    2.2420 H   0  0  0  0  0  0  0  0  0  0  0  0
    3.7233   -1.9630    1.5320 H   0  0  0  0  0  0  0  0  0  0  0  0
    6.2040   -1.6653   -0.2024 H   0  0  0  0  0  0  0  0  0  0  0  0
    6.1442   -1.8083   -1.9360 H   0  0  0  0  0  0  0  0  0  0  0  0
    6.0527    0.6034   -2.2451 H   0  0  0  0  0  0  0  0  0  0  0  0
   -4.9089    0.0929    1.1941 H   0  0  0  0  0  0  0  0  0  0  0  0
   -5.3569   -1.5949    1.1950 H   0  0  0  0  0  0  0  0  0  0  0  0
   -2.7891   -2.6151   -0.7270 H   0  0  0  0  0  0  0  0  0  0  0  0
   -2.1566   -3.1674    0.8530 H   0  0  0  0  0  0  0  0  0  0  0  0
   -3.8491   -3.3035    0.5004 H   0  0  0  0  0  0  0  0  0  0  0  0
   -4.9217   -1.7197   -1.2921 H   0  0  0  0  0  0  0  0  0  0  0  0
   -4.4980   -0.0237   -1.3018 H   0  0  0  0  0  0  0  0  0  0  0  0
    8.0746   -0.3556   -1.7859 H   0  0  0  0  0  0  0  0  0  0  0  0
   -7.2013   -1.2995   -1.0968 H   0  0  0  0  0  0  0  0  0  0  0  0
   -9.1159   -0.0531   -1.3173 H   0  0  0  0  0  0  0  0  0  0  0  0
   -9.0883    1.4053   -0.3188 H   0  0  0  0  0  0  0  0  0  0  0  0
   -8.8312    1.5187   -2.0741 H   0  0  0  0  0  0  0  0  0  0  0  0
   -6.8339    2.6280    0.0788 H   0  0  0  0  0  0  0  0  0  0  0  0
   -5.3541    1.9754   -0.6235 H   0  0  0  0  0  0  0  0  0  0  0  0
   -6.5575    2.7266   -1.6737 H   0  0  0  0  0  0  0  0  0  0  0  0
  1 21  1  0  0  0  0
  1 65  1  0  0  0  0
  2  3  1  0  0  0  0
  2  4  1  0  0  0  0
  2  8  1  0  0  0  0
  2 16  1  0  0  0  0
  3  6  1  0  0  0  0
  3  9  1  0  0  0  0
  3 29  1  0  0  0  0
  4 10  1  0  0  0  0
  4 14  1  0  0  0  0
  4 30  1  0  0  0  0
  5  7  1  0  0  0  0
  5 11  1  0  0  0  0
  5 17  1  0  0  0  0
  5 19  1  0  0  0  0
  6  7  2  0  0  0  0
  6 13  1  0  0  0  0
  7 12  1  0  0  0  0
  8 12  1  0  0  0  0
  8 31  1  0  0  0  0
  8 32  1  0  0  0  0
  9 10  1  0  0  0  0
  9 33  1  0  0  0  0
  9 34  1  0  0  0  0
 10 35  1  0  0  0  0
 10 36  1  0  0  0  0
 11 15  1  0  0  0  0
 11 18  1  0  0  0  0
 11 37  1  0  0  0  0
 12 38  1  0  0  0  0
 12 39  1  0  0  0  0
 13 15  1  0  0  0  0
 13 40  1  0  0  0  0
 13 41  1  0  0  0  0
 14 22  1  0  0  0  0
 14 23  1  0  0  0  0
 14 42  1  0  0  0  0
 15 43  1  0  0  0  0
 15 44  1  0  0  0  0
 16 45  1  0  0  0  0
 16 46  1  0  0  0  0
 16 47  1  0  0  0  0
 17 20  1  0  0  0  0
 17 48  1  0  0  0  0
 17 49  1  0  0  0  0
 18 21  1  0  0  0  0
 18 50  1  0  0  0  0
 18 51  1  0  0  0  0
 19 52  1  0  0  0  0
 19 53  1  0  0  0  0
 19 54  1  0  0  0  0
 20 21  1  0  0  0  0
 20 55  1  0  0  0  0
 20 56  1  0  0  0  0
 21 57  1  0  0  0  0
 22 24  1  0  0  0  0
 22 58  1  0  0  0  0
 22 59  1  0  0  0  0
 23 60  1  0  0  0  0
 23 61  1  0  0  0  0
 23 62  1  0  0  0  0
 24 25  1  0  0  0  0
 24 63  1  0  0  0  0
 24 64  1  0  0  0  0
 25 26  2  0  0  0  0
 25 66  1  0  0  0  0
 26 27  1  0  0  0  0
 26 28  1  0  0  0  0
 27 67  1  0  0  0  0
 27 68  1  0  0  0  0
 27 69  1  0  0  0  0
 28 70  1  0  0  0  0
 28 71  1  0  0  0  0
 28 72  1  0  0  0  0
M  END
> <PUBCHEM_COMPOUND_CID>
92746

> <PUBCHEM_CONFORMER_RMSD>
0.8

> <PUBCHEM_CONFORMER_DIVERSEORDER>
5
10
9
4
15
3
12
14
13
1
8
11
6
7
2

> <PUBCHEM_MMFF94_PARTIAL_CHARGES>
15
1 -0.68
12 0.14
13 0.14
21 0.28
24 0.14
25 -0.29
26 -0.28
27 0.14
28 0.14
3 0.14
5 0.14
6 -0.28
65 0.4
66 0.15
7 -0.28

> <PUBCHEM_EFFECTIVE_ROTOR_COUNT>
6.2

> <PUBCHEM_PHARMACOPHORE_FEATURES>
9
1 1 acceptor
1 1 donor
1 23 hydrophobe
3 26 27 28 hydrophobe
4 14 22 24 25 hydrophobe
5 2 3 4 9 10 rings
6 2 3 6 7 8 12 rings
6 5 11 17 18 20 21 rings
6 5 6 7 11 13 15 rings

> <PUBCHEM_HEAVY_ATOM_COUNT>
28

> <PUBCHEM_ATOM_DEF_STEREO_COUNT>
7

> <PUBCHEM_ATOM_UDEF_STEREO_COUNT>
0

> <PUBCHEM_BOND_DEF_STEREO_COUNT>
0

> <PUBCHEM_BOND_UDEF_STEREO_COUNT>
0

> <PUBCHEM_ISOTOPIC_ATOM_COUNT>
0

> <PUBCHEM_COMPONENT_COUNT>
1

> <PUBCHEM_CACTVS_TAUTO_COUNT>
1

> <PUBCHEM_CONFORMER_ID>
00016A4A00000005

> <PUBCHEM_MMFF94_ENERGY>
78.423

> <PUBCHEM_FEATURE_SELFOVERLAP>
45.773

> <PUBCHEM_SHAPE_FINGERPRINT>
10 15 9151166550129437502
106641 1 8934995971149084878
10763959 59 18342737377603748324
10835480 77 18336830775517322257
10906281 52 18334846252166826427
11456790 92 12607414252460396884
11578080 2 17488469752555304718
11796584 16 18343303626139441434
12011746 2 18410568466624923458
12670543 26 18409168818429720733
12838862 33 18187653475510826840
13533116 47 17845945125062577234
13782708 43 6627487201851484636
14251764 18 11023820669812928529
14849402 71 12463271593230825335
14931854 50 18339067264384039758
15082195 135 18338510846654694380
15183329 4 18408889559935774609
15188451 53 13912323482398679109
18222031 100 17967814946692979682
20028762 73 17458061569078877734
20715895 44 18412549803842395545
21033648 29 18059019375786867168
21267235 1 18261940861085092658
21279426 13 18409449163872282603
21424621 283 17274825800726508017
21637258 2 14779266419104498823
21792934 111 18335432279237816824
21792961 116 18412820296635573707
221357 26 18260829306379717376
2215653 11 18333730208497647914
22393880 68 18339928108362630363
23559900 14 18335700481921680976
23569914 152 17396140600549654919
23576562 1 18268712702029891989
29717793 49 17894628153833517492
3004659 81 18409451370995037721
3009799 131 18409731755355776329
335352 9 18334855008803107789
350125 39 18261380161784198904
3633792 109 18040151812062386848
474113 269 18339082722262092374
484989 97 18261108513761213419
5283173 99 18412269450053070521
6328613 192 18131627859552383981
9953998 17 10159698002508805149

> <PUBCHEM_SHAPE_MULTIPOLES>
570.36
19.61
2.2
1.37
17.27
0.13
-0.19
4.76
11.71
0.6
-0.26
-0.01
-0.14
1.33

> <PUBCHEM_SHAPE_SELFOVERLAP>
1188.84

> <PUBCHEM_SHAPE_VOLUME>
324.2

> <PUBCHEM_COORDINATE_TYPE>
2
5
10

$$$$

