87840
  -OEChem-07051213003D

 38 40  0     0  0  0  0  0  0999 V2000
   -3.1254   -0.5812    0.5231 O   0  0  0  0  0  0  0  0  0  0  0  0
   -1.3692    3.4820   -0.7078 O   0  0  0  0  0  0  0  0  0  0  0  0
    4.0588    0.3273    0.3289 O   0  0  0  0  0  0  0  0  0  0  0  0
   -0.7461   -0.4167    0.5019 N   0  0  0  0  0  0  0  0  0  0  0  0
    0.3801    0.4108    0.2594 C   0  0  0  0  0  0  0  0  0  0  0  0
   -1.9782    0.1173    0.3214 C   0  0  0  0  0  0  0  0  0  0  0  0
    0.1999    1.7641   -0.1607 C   0  0  0  0  0  0  0  0  0  0  0  0
   -2.2551    1.4040   -0.0790 C   0  0  0  0  0  0  0  0  0  0  0  0
   -0.5724   -1.7972    0.9298 C   0  0  0  0  0  0  0  0  0  0  0  0
   -1.1801    2.3279   -0.3501 C   0  0  0  0  0  0  0  0  0  0  0  0
    1.7012   -0.0427    0.4150 C   0  0  0  0  0  0  0  0  0  0  0  0
    1.2956    2.6008   -0.4066 C   0  0  0  0  0  0  0  0  0  0  0  0
   -3.6615    1.5128   -0.1297 C   0  0  0  0  0  0  0  0  0  0  0  0
   -0.4996   -2.6720   -0.2832 C   0  0  0  0  0  0  0  0  0  0  0  0
    2.7910    0.7985    0.1679 C   0  0  0  0  0  0  0  0  0  0  0  0
    2.5889    2.1136   -0.2410 C   0  0  0  0  0  0  0  0  0  0  0  0
   -4.1460    0.2779    0.2456 C   0  0  0  0  0  0  0  0  0  0  0  0
    0.1794   -3.8262   -0.4275 C   0  0  0  0  0  0  0  0  0  0  0  0
    0.2113   -4.6598   -1.6771 C   0  0  0  0  0  0  0  0  0  0  0  0
    1.0010   -4.3757    0.7081 C   0  0  0  0  0  0  0  0  0  0  0  0
    5.1264    1.2346    0.0615 C   0  0  0  0  0  0  0  0  0  0  0  0
    0.2697   -1.9055    1.6174 H   0  0  0  0  0  0  0  0  0  0  0  0
   -1.4450   -2.1169    1.5154 H   0  0  0  0  0  0  0  0  0  0  0  0
    1.9259   -1.0612    0.7176 H   0  0  0  0  0  0  0  0  0  0  0  0
    1.1592    3.6303   -0.7262 H   0  0  0  0  0  0  0  0  0  0  0  0
   -4.2535    2.3744   -0.4027 H   0  0  0  0  0  0  0  0  0  0  0  0
   -1.0892   -2.3473   -1.1407 H   0  0  0  0  0  0  0  0  0  0  0  0
    3.3914    2.8133   -0.4477 H   0  0  0  0  0  0  0  0  0  0  0  0
   -5.1397   -0.1299    0.3593 H   0  0  0  0  0  0  0  0  0  0  0  0
   -0.1980   -5.6563   -1.4830 H   0  0  0  0  0  0  0  0  0  0  0  0
   -0.3794   -4.2061   -2.4797 H   0  0  0  0  0  0  0  0  0  0  0  0
    1.2393   -4.7664   -2.0379 H   0  0  0  0  0  0  0  0  0  0  0  0
    2.0664   -4.2181    0.5104 H   0  0  0  0  0  0  0  0  0  0  0  0
    0.7636   -3.9455    1.6834 H   0  0  0  0  0  0  0  0  0  0  0  0
    0.8298   -5.4540    0.8046 H   0  0  0  0  0  0  0  0  0  0  0  0
    5.1140    2.0860    0.7505 H   0  0  0  0  0  0  0  0  0  0  0  0
    5.1353    1.5486   -0.9878 H   0  0  0  0  0  0  0  0  0  0  0  0
    6.0618    0.6939    0.2400 H   0  0  0  0  0  0  0  0  0  0  0  0
  1  6  1  0  0  0  0
  1 17  1  0  0  0  0
  2 10  2  0  0  0  0
  3 15  1  0  0  0  0
  3 21  1  0  0  0  0
  4  5  1  0  0  0  0
  4  6  1  0  0  0  0
  4  9  1  0  0  0  0
  5  7  2  0  0  0  0
  5 11  1  0  0  0  0
  6  8  2  0  0  0  0
  7 10  1  0  0  0  0
  7 12  1  0  0  0  0
  8 10  1  0  0  0  0
  8 13  1  0  0  0  0
  9 14  1  0  0  0  0
  9 22  1  0  0  0  0
  9 23  1  0  0  0  0
 11 15  2  0  0  0  0
 11 24  1  0  0  0  0
 12 16  2  0  0  0  0
 12 25  1  0  0  0  0
 13 17  2  0  0  0  0
 13 26  1  0  0  0  0
 14 18  2  0  0  0  0
 14 27  1  0  0  0  0
 15 16  1  0  0  0  0
 16 28  1  0  0  0  0
 17 29  1  0  0  0  0
 18 19  1  0  0  0  0
 18 20  1  0  0  0  0
 19 30  1  0  0  0  0
 19 31  1  0  0  0  0
 19 32  1  0  0  0  0
 20 33  1  0  0  0  0
 20 34  1  0  0  0  0
 20 35  1  0  0  0  0
 21 36  1  0  0  0  0
 21 37  1  0  0  0  0
 21 38  1  0  0  0  0
M  END
> <PUBCHEM_COMPOUND_CID>
87840

> <PUBCHEM_CONFORMER_RMSD>
0.6

> <PUBCHEM_CONFORMER_DIVERSEORDER>
3
14
7
6
11
8
10
9
13
2
12
4
1
5

> <PUBCHEM_MMFF94_PARTIAL_CHARGES>
27
1 -0.28
10 0.57
11 -0.15
12 -0.15
13 -0.15
14 -0.29
15 0.08
16 -0.15
17 -0.01
18 -0.28
19 0.14
2 -0.57
20 0.14
21 0.28
24 0.15
25 0.15
26 0.15
27 0.15
28 0.15
29 0.15
3 -0.36
4 -0.55
5 0.1
6 0.22
7 0.09
8 -0.09
9 0.51

> <PUBCHEM_EFFECTIVE_ROTOR_COUNT>
3

> <PUBCHEM_PHARMACOPHORE_FEATURES>
8
1 1 acceptor
1 2 acceptor
1 3 acceptor
1 4 cation
3 18 19 20 hydrophobe
5 1 6 8 13 17 rings
6 4 5 6 7 8 10 rings
6 5 7 11 12 15 16 rings

> <PUBCHEM_HEAVY_ATOM_COUNT>
21

> <PUBCHEM_ATOM_DEF_STEREO_COUNT>
0

> <PUBCHEM_ATOM_UDEF_STEREO_COUNT>
0

> <PUBCHEM_BOND_DEF_STEREO_COUNT>
0

> <PUBCHEM_BOND_UDEF_STEREO_COUNT>
0

> <PUBCHEM_ISOTOPIC_ATOM_COUNT>
0

> <PUBCHEM_COMPONENT_COUNT>
1

> <PUBCHEM_CACTVS_TAUTO_COUNT>
1

> <PUBCHEM_CONFORMER_ID>
0001572000000003

> <PUBCHEM_MMFF94_ENERGY>
62.3636

> <PUBCHEM_FEATURE_SELFOVERLAP>
40.723

> <PUBCHEM_SHAPE_FINGERPRINT>
10411042 1 17330834622313863018
10967382 1 18341613737055145713
11578080 2 16125003968915544311
11680986 33 17690850377032956121
116883 192 17615406965559503191
12553582 1 16971105169301928722
12715332 25 18265329521398441169
13004483 165 17469894281278335582
13140716 1 18340197501970695617
138480 1 17762619890413236682
14251757 5 18195222466042590028
14790565 3 18412252930950064668
15006816 218 18194684988981239290
15042514 8 18269553840972743602
15309172 13 18410566271675388265
16728300 4 17700721676695043602
16945 1 17845947281088745017
19591789 44 18339922602251129331
20028762 73 18116989988907699639
20510252 161 18335984254775233216
20775438 99 16384838985493090671
20905425 154 17906165509774725646
21267235 1 18272360936971153937
21478907 32 17617660955827816051
22033318 11 16752083569899891971
2334 1 18269834212359331649
23366157 5 17770209780414195090
23402539 116 18336835199343900829
23419403 2 16542369830024228344
23559900 14 17762628682675378938
23566358 2 17766570418738956821
23728640 28 18266742389803895394
257057 1 17327743894410201146
2748010 2 18342734070953527881
3084891 72 18410009927175965656
352729 6 18341323414503606777
43471831 8 18340205309709088282
532947 4 18263921206239232182
6138700 20 18194395830873142694
7364860 26 18121782995751263251
81228 2 17688045118964206483

> <PUBCHEM_SHAPE_MULTIPOLES>
409.58
6.06
5.69
0.9
3.77
8.67
0.17
-4.67
-0.63
-0.07
1.94
-0.05
0.76
-0.01

> <PUBCHEM_SHAPE_SELFOVERLAP>
891.909

> <PUBCHEM_SHAPE_VOLUME>
225.1

> <PUBCHEM_COORDINATE_TYPE>
2
5
10

$$$$

