17395972
  -OEChem-06241222533D

 49 52  0     0  0  0  0  0  0999 V2000
   -0.8273   -2.0912   -0.4974 O   0  0  0  0  0  0  0  0  0  0  0  0
   -2.3210   -3.2935   -1.7710 O   0  0  0  0  0  0  0  0  0  0  0  0
    3.3283    0.3906    0.3653 N   0  0  0  0  0  0  0  0  0  0  0  0
    1.7901   -1.2776   -0.2261 N   0  0  0  0  0  0  0  0  0  0  0  0
    3.7558   -1.8137    1.0415 N   0  0  0  0  0  0  0  0  0  0  0  0
   -2.5820   -0.3530    0.1885 N   0  0  0  0  0  0  0  0  0  0  0  0
    2.2011   -3.5431    0.4500 N   0  0  0  0  0  0  0  0  0  0  0  0
   -5.2275   -0.4419   -0.6558 N   0  0  0  0  0  0  0  0  0  0  0  0
    4.1313   -4.0370    1.6864 N   0  0  0  0  0  0  0  0  0  0  0  0
    3.5328    2.5990   -0.6436 C   0  0  0  0  0  0  0  0  0  0  0  0
    2.7426    1.5372   -0.2031 C   0  0  0  0  0  0  0  0  0  0  0  0
    5.0218    2.5545   -0.5273 C   0  0  0  0  0  0  0  0  0  0  0  0
    2.9348    3.7276   -1.2043 C   0  0  0  0  0  0  0  0  0  0  0  0
    1.3544    1.6043   -0.3233 C   0  0  0  0  0  0  0  0  0  0  0  0
    5.5154    3.1293    0.7968 C   0  0  0  0  0  0  0  0  0  0  0  0
    1.5466    3.7944   -1.3247 C   0  0  0  0  0  0  0  0  0  0  0  0
    0.7565    2.7328   -0.8843 C   0  0  0  0  0  0  0  0  0  0  0  0
    2.9389   -0.9661    0.3956 C   0  0  0  0  0  0  0  0  0  0  0  0
    1.4848   -2.5834   -0.1578 C   0  0  0  0  0  0  0  0  0  0  0  0
   -3.4588    0.5880    0.5803 C   0  0  0  0  0  0  0  0  0  0  0  0
   -4.7985    0.5431    0.1526 C   0  0  0  0  0  0  0  0  0  0  0  0
    0.2148   -3.0145   -0.8307 C   0  0  0  0  0  0  0  0  0  0  0  0
   -3.0309   -1.3297   -0.6201 C   0  0  0  0  0  0  0  0  0  0  0  0
   -3.0493    1.6230    1.4177 C   0  0  0  0  0  0  0  0  0  0  0  0
   -5.6791    1.5349    0.5783 C   0  0  0  0  0  0  0  0  0  0  0  0
    3.3231   -3.0848    1.0279 C   0  0  0  0  0  0  0  0  0  0  0  0
   -4.3349   -1.3735   -1.0363 C   0  0  0  0  0  0  0  0  0  0  0  0
   -2.0662   -2.3323   -1.0295 C   0  0  0  0  0  0  0  0  0  0  0  0
   -3.9386    2.6105    1.8380 C   0  0  0  0  0  0  0  0  0  0  0  0
   -5.2590    2.5663    1.4163 C   0  0  0  0  0  0  0  0  0  0  0  0
    5.4074    1.5384   -0.6688 H   0  0  0  0  0  0  0  0  0  0  0  0
    5.4679    3.1328   -1.3475 H   0  0  0  0  0  0  0  0  0  0  0  0
    3.5370    4.5640   -1.5494 H   0  0  0  0  0  0  0  0  0  0  0  0
    0.6955    0.8267    0.0482 H   0  0  0  0  0  0  0  0  0  0  0  0
    4.2394    0.5312    0.7880 H   0  0  0  0  0  0  0  0  0  0  0  0
    5.2074    4.1738    0.9148 H   0  0  0  0  0  0  0  0  0  0  0  0
    6.6085    3.0921    0.8395 H   0  0  0  0  0  0  0  0  0  0  0  0
    5.1232    2.5657    1.6497 H   0  0  0  0  0  0  0  0  0  0  0  0
    1.0807    4.6744   -1.7583 H   0  0  0  0  0  0  0  0  0  0  0  0
   -0.3250    2.7900   -0.9673 H   0  0  0  0  0  0  0  0  0  0  0  0
    0.3708   -3.0183   -1.9151 H   0  0  0  0  0  0  0  0  0  0  0  0
   -0.0705   -4.0185   -0.4968 H   0  0  0  0  0  0  0  0  0  0  0  0
   -2.0157    1.6703    1.7550 H   0  0  0  0  0  0  0  0  0  0  0  0
   -6.7180    1.5126    0.2553 H   0  0  0  0  0  0  0  0  0  0  0  0
   -4.7219   -2.1484   -1.6872 H   0  0  0  0  0  0  0  0  0  0  0  0
   -3.5984    3.4087    2.4905 H   0  0  0  0  0  0  0  0  0  0  0  0
   -5.9619    3.3295    1.7362 H   0  0  0  0  0  0  0  0  0  0  0  0
    4.9857   -3.7380    2.1359 H   0  0  0  0  0  0  0  0  0  0  0  0
    3.8451   -5.0062    1.7018 H   0  0  0  0  0  0  0  0  0  0  0  0
  1 22  1  0  0  0  0
  1 28  1  0  0  0  0
  2 28  2  0  0  0  0
  3 11  1  0  0  0  0
  3 18  1  0  0  0  0
  3 35  1  0  0  0  0
  4 18  2  0  0  0  0
  4 19  1  0  0  0  0
  5 18  1  0  0  0  0
  5 26  2  0  0  0  0
  6 20  1  0  0  0  0
  6 23  2  0  0  0  0
  7 19  2  0  0  0  0
  7 26  1  0  0  0  0
  8 21  1  0  0  0  0
  8 27  2  0  0  0  0
  9 26  1  0  0  0  0
  9 48  1  0  0  0  0
  9 49  1  0  0  0  0
 10 11  1  0  0  0  0
 10 12  1  0  0  0  0
 10 13  2  0  0  0  0
 11 14  2  0  0  0  0
 12 15  1  0  0  0  0
 12 31  1  0  0  0  0
 12 32  1  0  0  0  0
 13 16  1  0  0  0  0
 13 33  1  0  0  0  0
 14 17  1  0  0  0  0
 14 34  1  0  0  0  0
 15 36  1  0  0  0  0
 15 37  1  0  0  0  0
 15 38  1  0  0  0  0
 16 17  2  0  0  0  0
 16 39  1  0  0  0  0
 17 40  1  0  0  0  0
 19 22  1  0  0  0  0
 20 21  1  0  0  0  0
 20 24  2  0  0  0  0
 21 25  2  0  0  0  0
 22 41  1  0  0  0  0
 22 42  1  0  0  0  0
 23 27  1  0  0  0  0
 23 28  1  0  0  0  0
 24 29  1  0  0  0  0
 24 43  1  0  0  0  0
 25 30  1  0  0  0  0
 25 44  1  0  0  0  0
 27 45  1  0  0  0  0
 29 30  2  0  0  0  0
 29 46  1  0  0  0  0
 30 47  1  0  0  0  0
M  END
> <PUBCHEM_COMPOUND_CID>
17395972

> <PUBCHEM_CONFORMER_RMSD>
1.2

> <PUBCHEM_CONFORMER_DIVERSEORDER>
2
129
77
19
31
56
140
75
168
52
61
141
111
149
132
156
76
150
65
126
123
119
27
147
74
100
95
94
64
97
22
36
86
96
172
101
40
127
53
142
143
164
161
45
106
104
114
58
89
137
37
108
92
131
28
138
30
62
82
88
118
43
158
68
133
128
144
109
169
160
69
54
70
98
66
139
120
42
84
13
157
73
60
110
44
21
33
38
122
87
162
124
130
113
115
81
80
7
4
1
145
102
117
112
79
8
3
15
153
163
49
165
29
93
148
48
105
85
14
50
171
18
6
57
103
47
154
59
90
167
11
152
20
72
166
9
39
24
107
116
146
46
5
26
155
51
12
159
91
41
99
151
63
67
16
78
25
71
125
83
35
170
134
173
55
34
23
135
121
32
136
10
17

> <PUBCHEM_MMFF94_PARTIAL_CHARGES>
41
1 -0.43
10 -0.14
11 0.1
12 0.14
13 -0.15
14 -0.15
16 -0.15
17 -0.15
18 0.72
19 0.48
2 -0.57
20 0.31
21 0.31
22 0.42
23 0.4
24 -0.15
25 -0.15
26 0.72
27 0.16
28 0.63
29 -0.15
3 -0.6
30 -0.15
33 0.15
34 0.15
35 0.4
39 0.15
4 -0.62
40 0.15
43 0.15
44 0.15
45 0.15
46 0.15
47 0.15
48 0.4
49 0.4
5 -0.62
6 -0.62
7 -0.62
8 -0.62
9 -0.9

> <PUBCHEM_EFFECTIVE_ROTOR_COUNT>
7

> <PUBCHEM_PHARMACOPHORE_FEATURES>
12
1 15 hydrophobe
1 2 acceptor
1 3 donor
1 6 acceptor
1 8 acceptor
1 9 donor
4 3 4 5 18 cation
4 5 7 9 26 cation
6 10 11 13 14 16 17 rings
6 20 21 24 25 29 30 rings
6 4 5 7 18 19 26 rings
6 6 8 20 21 23 27 rings

> <PUBCHEM_HEAVY_ATOM_COUNT>
30

> <PUBCHEM_ATOM_DEF_STEREO_COUNT>
0

> <PUBCHEM_ATOM_UDEF_STEREO_COUNT>
0

> <PUBCHEM_BOND_DEF_STEREO_COUNT>
0

> <PUBCHEM_BOND_UDEF_STEREO_COUNT>
0

> <PUBCHEM_ISOTOPIC_ATOM_COUNT>
0

> <PUBCHEM_COMPONENT_COUNT>
1

> <PUBCHEM_CACTVS_TAUTO_COUNT>
9

> <PUBCHEM_CONFORMER_ID>
0109710400000002

> <PUBCHEM_MMFF94_ENERGY>
96.5752

> <PUBCHEM_FEATURE_SELFOVERLAP>
60.977

> <PUBCHEM_SHAPE_FINGERPRINT>
10439779 11 18263935341066332808
10483366 6 18192687117031430054
11007060 377 17975962169342819672
11513181 2 17895185606376747431
12107183 9 18122339348946817289
12788726 201 17544183887909109220
13590594 115 18055076720795967394
14117953 113 17903637732948572741
14725015 67 15314913699164595145
14739800 52 18041576727961590472
14790565 3 18126563419381179428
15420108 30 18334581222334945070
15475509 8 18189885578494282078
16067690 210 16443604874861279736
16112460 7 18339929217091621904
16120349 306 18336262353664685752
17818456 19 18042122214572860529
20511986 3 18334585620097230049
20715895 44 17901105545212378281
20739085 24 18339645654412710582
21033650 10 17760059854088029524
21796203 349 17835767027702161216
23559900 14 17242158270540443239
245318 6 18339909464252243229
3534868 343 17973188165250313711
38570 142 18269539594945992158
474 4 18342181007613810879
474144 1 18409728460788942721
5048184 11 18336256843516874893
513202 73 17477490175839285810
7064713 232 17896891056506993275
9981440 41 18268425724857365403

> <PUBCHEM_SHAPE_MULTIPOLES>
570.78
12.54
6.15
1.45
6.73
1.88
0.19
-7.58
3.2
-6.44
-0.04
0.46
-0.04
-4.98

> <PUBCHEM_SHAPE_SELFOVERLAP>
1251.007

> <PUBCHEM_SHAPE_VOLUME>
302.4

> <PUBCHEM_COORDINATE_TYPE>
2
5
10

$$$$

