252290
  -OEChem-07051213062D

 76 80  0     1  0  0  0  0  0999 V2000
    3.7320   -4.0966    0.0000 O   0  0  0  0  0  0  0  0  0  0  0  0
    2.8718   -2.5933    0.0000 O   0  0  0  0  0  0  0  0  0  0  0  0
   10.3820    0.2110    0.0000 N   0  0  0  0  0  0  0  0  0  0  0  0
   12.9603    2.5244    0.0000 N   0  0  0  0  0  0  0  0  0  0  0  0
    7.3931   -2.0443    0.0000 C   0  0  1  0  0  0  0  0  0  0  0  0
    8.2591   -2.5443    0.0000 C   0  0  2  0  0  0  0  0  0  0  0  0
    9.1251   -2.0443    0.0000 C   0  0  1  0  0  0  0  0  0  0  0  0
    9.1251   -1.0443    0.0000 C   0  0  2  0  0  0  0  0  0  0  0  0
    6.4831   -2.5511    0.0000 C   0  0  2  0  0  0  0  0  0  0  0  0
    7.3931   -1.0443    0.0000 C   0  0  0  0  0  0  0  0  0  0  0  0
    8.2591   -0.5443    0.0000 C   0  0  0  0  0  0  0  0  0  0  0  0
   10.0713   -2.3490    0.0000 C   0  0  0  0  0  0  0  0  0  0  0  0
    8.2752   -3.5858    0.0000 C   0  0  0  0  0  0  0  0  0  0  0  0
    6.4750   -3.5927    0.0000 C   0  0  0  0  0  0  0  0  0  0  0  0
   10.0713   -0.7396    0.0000 C   0  0  0  0  0  0  0  0  0  0  0  0
    5.5562   -1.9871    0.0000 C   0  0  0  0  0  0  0  0  0  0  0  0
   10.6550   -1.5443    0.0000 C   0  0  0  0  0  0  0  0  0  0  0  0
    9.1251   -0.0443    0.0000 C   0  0  0  0  0  0  0  0  0  0  0  0
    7.3771   -4.1136    0.0000 C   0  0  0  0  0  0  0  0  0  0  0  0
    6.4908   -1.5512    0.0000 C   0  0  0  0  0  0  0  0  0  0  0  0
    5.5396   -4.1425    0.0000 C   0  0  0  0  0  0  0  0  0  0  0  0
    4.6084   -2.5150    0.0000 C   0  0  0  0  0  0  0  0  0  0  0  0
    4.6000   -3.6000    0.0000 C   0  0  2  0  0  0  0  0  0  0  0  0
   11.3605    0.4172    0.0000 C   0  0  0  0  0  0  0  0  0  0  0  0
   11.6712    1.3677    0.0000 C   0  0  0  0  0  0  0  0  0  0  0  0
    2.8680   -3.5933    0.0000 C   0  0  0  0  0  0  0  0  0  0  0  0
   12.6497    1.5739    0.0000 C   0  0  0  0  0  0  0  0  0  0  0  0
    2.0000   -4.0900    0.0000 C   0  0  0  0  0  0  0  0  0  0  0  0
   13.9119    2.8318    0.0000 C   0  0  0  0  0  0  0  0  0  0  0  0
   12.3740    3.3345    0.0000 C   0  0  0  0  0  0  0  0  0  0  0  0
   12.9631    4.1425    0.0000 C   0  0  0  0  0  0  0  0  0  0  0  0
   13.9137    3.8318    0.0000 C   0  0  0  0  0  0  0  0  0  0  0  0
    8.1292   -1.6193    0.0000 H   0  0  0  0  0  0  0  0  0  0  0  0
    8.9985   -2.9636    0.0000 H   0  0  0  0  0  0  0  0  0  0  0  0
    9.2151   -2.8895    0.0000 H   0  0  0  0  0  0  0  0  0  0  0  0
    7.1810   -0.4617    0.0000 H   0  0  0  0  0  0  0  0  0  0  0  0
    6.7825   -1.1520    0.0000 H   0  0  0  0  0  0  0  0  0  0  0  0
    8.6576   -0.0693    0.0000 H   0  0  0  0  0  0  0  0  0  0  0  0
    7.8606   -0.0693    0.0000 H   0  0  0  0  0  0  0  0  0  0  0  0
    9.8203   -2.9159    0.0000 H   0  0  0  0  0  0  0  0  0  0  0  0
   10.6087   -2.6582    0.0000 H   0  0  0  0  0  0  0  0  0  0  0  0
    8.4932   -4.1662    0.0000 H   0  0  0  0  0  0  0  0  0  0  0  0
    8.8843   -3.4703    0.0000 H   0  0  0  0  0  0  0  0  0  0  0  0
    5.9644   -1.5204    0.0000 H   0  0  0  0  0  0  0  0  0  0  0  0
    5.1663   -1.5050    0.0000 H   0  0  0  0  0  0  0  0  0  0  0  0
   11.1158   -1.9590    0.0000 H   0  0  0  0  0  0  0  0  0  0  0  0
   11.1158   -1.1296    0.0000 H   0  0  0  0  0  0  0  0  0  0  0  0
    9.7451   -0.0443    0.0000 H   0  0  0  0  0  0  0  0  0  0  0  0
    9.1251    0.5757    0.0000 H   0  0  0  0  0  0  0  0  0  0  0  0
    8.5051   -0.0443    0.0000 H   0  0  0  0  0  0  0  0  0  0  0  0
    7.3795   -4.7336    0.0000 H   0  0  0  0  0  0  0  0  0  0  0  0
    7.1108   -1.5560    0.0000 H   0  0  0  0  0  0  0  0  0  0  0  0
    6.4956   -0.9312    0.0000 H   0  0  0  0  0  0  0  0  0  0  0  0
    5.8708   -1.5464    0.0000 H   0  0  0  0  0  0  0  0  0  0  0  0
    5.1423   -4.6184    0.0000 H   0  0  0  0  0  0  0  0  0  0  0  0
    5.9406   -4.6154    0.0000 H   0  0  0  0  0  0  0  0  0  0  0  0
    4.4038   -1.9297    0.0000 H   0  0  0  0  0  0  0  0  0  0  0  0
    3.9967   -2.6164    0.0000 H   0  0  0  0  0  0  0  0  0  0  0  0
    4.0648   -3.2869    0.0000 H   0  0  0  0  0  0  0  0  0  0  0  0
   11.3811   -0.2025    0.0000 H   0  0  0  0  0  0  0  0  0  0  0  0
   11.9743    0.3298    0.0000 H   0  0  0  0  0  0  0  0  0  0  0  0
   11.6506    1.9874    0.0000 H   0  0  0  0  0  0  0  0  0  0  0  0
   11.0574    1.4550    0.0000 H   0  0  0  0  0  0  0  0  0  0  0  0
   12.6702    0.9543    0.0000 H   0  0  0  0  0  0  0  0  0  0  0  0
   13.2635    1.4866    0.0000 H   0  0  0  0  0  0  0  0  0  0  0  0
    1.6921   -3.5518    0.0000 H   0  0  0  0  0  0  0  0  0  0  0  0
    1.4619   -4.3979    0.0000 H   0  0  0  0  0  0  0  0  0  0  0  0
    2.3079   -4.6281    0.0000 H   0  0  0  0  0  0  0  0  0  0  0  0
   11.9139    3.7501    0.0000 H   0  0  0  0  0  0  0  0  0  0  0  0
   11.9125    2.9204    0.0000 H   0  0  0  0  0  0  0  0  0  0  0  0
   14.0398    2.2251    0.0000 H   0  0  0  0  0  0  0  0  0  0  0  0
   14.5286    2.8956    0.0000 H   0  0  0  0  0  0  0  0  0  0  0  0
   13.2163    4.7084    0.0000 H   0  0  0  0  0  0  0  0  0  0  0  0
   12.4267    4.4534    0.0000 H   0  0  0  0  0  0  0  0  0  0  0  0
   14.5302    3.7659    0.0000 H   0  0  0  0  0  0  0  0  0  0  0  0
   14.0436    4.4380    0.0000 H   0  0  0  0  0  0  0  0  0  0  0  0
 23  1  1  1  0  0  0
  1 26  1  0  0  0  0
  2 26  2  0  0  0  0
  3 15  2  0  0  0  0
  3 24  1  0  0  0  0
  4 27  1  0  0  0  0
  4 29  1  0  0  0  0
  4 30  1  0  0  0  0
  5  6  1  0  0  0  0
  5  9  1  0  0  0  0
  5 10  1  0  0  0  0
  5 33  1  6  0  0  0
  6  7  1  0  0  0  0
  6 13  1  0  0  0  0
  6 34  1  1  0  0  0
  7  8  1  0  0  0  0
  7 12  1  0  0  0  0
  7 35  1  6  0  0  0
  8 11  1  0  0  0  0
  8 15  1  0  0  0  0
  8 18  1  1  0  0  0
  9 14  1  0  0  0  0
  9 16  1  0  0  0  0
  9 20  1  1  0  0  0
 10 11  1  0  0  0  0
 10 36  1  0  0  0  0
 10 37  1  0  0  0  0
 11 38  1  0  0  0  0
 11 39  1  0  0  0  0
 12 17  1  0  0  0  0
 12 40  1  0  0  0  0
 12 41  1  0  0  0  0
 13 19  1  0  0  0  0
 13 42  1  0  0  0  0
 13 43  1  0  0  0  0
 14 19  2  0  0  0  0
 14 21  1  0  0  0  0
 15 17  1  0  0  0  0
 16 22  1  0  0  0  0
 16 44  1  0  0  0  0
 16 45  1  0  0  0  0
 17 46  1  0  0  0  0
 17 47  1  0  0  0  0
 18 48  1  0  0  0  0
 18 49  1  0  0  0  0
 18 50  1  0  0  0  0
 19 51  1  0  0  0  0
 20 52  1  0  0  0  0
 20 53  1  0  0  0  0
 20 54  1  0  0  0  0
 21 23  1  0  0  0  0
 21 55  1  0  0  0  0
 21 56  1  0  0  0  0
 22 23  1  0  0  0  0
 22 57  1  0  0  0  0
 22 58  1  0  0  0  0
 23 59  1  0  0  0  0
 24 25  1  0  0  0  0
 24 60  1  0  0  0  0
 24 61  1  0  0  0  0
 25 27  1  0  0  0  0
 25 62  1  0  0  0  0
 25 63  1  0  0  0  0
 26 28  1  0  0  0  0
 27 64  1  0  0  0  0
 27 65  1  0  0  0  0
 28 66  1  0  0  0  0
 28 67  1  0  0  0  0
 28 68  1  0  0  0  0
 29 32  1  0  0  0  0
 29 71  1  0  0  0  0
 29 72  1  0  0  0  0
 30 31  1  0  0  0  0
 30 69  1  0  0  0  0
 30 70  1  0  0  0  0
 31 32  1  0  0  0  0
 31 73  1  0  0  0  0
 31 74  1  0  0  0  0
 32 75  1  0  0  0  0
 32 76  1  0  0  0  0
M  END
> <PUBCHEM_COMPOUND_CID>
252290

> <PUBCHEM_COMPOUND_CANONICALIZED>
1

> <PUBCHEM_CACTVS_COMPLEXITY>
782

> <PUBCHEM_CACTVS_HBOND_ACCEPTOR>
4

> <PUBCHEM_CACTVS_HBOND_DONOR>
0

> <PUBCHEM_CACTVS_ROTATABLE_BOND>
6

> <PUBCHEM_CACTVS_SUBSKEYS>
AAADcfB7MAAAAAAAAAAAAAAAAAAAAeIAAAAwYIAAAAAAAGCAAAAAHgAAAAAADxzhgAYCCAMABACoAyDyDAAAAAAgAAAACAA4AAgAAAIAwQAGAAAEwACIAAOAwPAPgAAAAAAAAADAAAQAACAAAAAACAAAAA==

> <PUBCHEM_IUPAC_OPENEYE_NAME>
[(3S,8R,9S,10R,13S,14S)-10,13-dimethyl-17-(3-pyrrolidin-1-ylpropylimino)-1,2,3,4,7,8,9,11,12,14,15,16-dodecahydrocyclopenta[a]phenanthren-3-yl] acetate

> <PUBCHEM_IUPAC_CAS_NAME>
acetic acid [(3S,8R,9S,10R,13S,14S)-10,13-dimethyl-17-[3-(1-pyrrolidinyl)propylimino]-1,2,3,4,7,8,9,11,12,14,15,16-dodecahydrocyclopenta[a]phenanthren-3-yl] ester

> <PUBCHEM_IUPAC_NAME>
[(3S,8R,9S,10R,13S,14S)-10,13-dimethyl-17-(3-pyrrolidin-1-ylpropylimino)-1,2,3,4,7,8,9,11,12,14,15,16-dodecahydrocyclopenta[a]phenanthren-3-yl] acetate

> <PUBCHEM_IUPAC_SYSTEMATIC_NAME>
[(3S,8R,9S,10R,13S,14S)-10,13-dimethyl-17-(3-pyrrolidin-1-ylpropylimino)-1,2,3,4,7,8,9,11,12,14,15,16-dodecahydrocyclopenta[a]phenanthren-3-yl] ethanoate

> <PUBCHEM_IUPAC_TRADITIONAL_NAME>
acetic acid [(3S,8R,9S,10R,13S,14S)-10,13-dimethyl-17-(3-pyrrolidinopropylimino)-1,2,3,4,7,8,9,11,12,14,15,16-dodecahydrocyclopenta[a]phenanthren-3-yl] ester

> <PUBCHEM_IUPAC_INCHI>
InChI=1S/C28H44N2O2/c1-20(31)32-22-11-13-27(2)21(19-22)7-8-23-24-9-10-26(28(24,3)14-12-25(23)27)29-15-6-18-30-16-4-5-17-30/h7,22-25H,4-6,8-19H2,1-3H3/t22-,23-,24-,25-,27-,28-/m0/s1

> <PUBCHEM_IUPAC_INCHIKEY>
GHSYWLKHFMASTM-FEZCWRLCSA-N

> <PUBCHEM_XLOGP3>
4.8

> <PUBCHEM_EXACT_MASS>
440.340279

> <PUBCHEM_MOLECULAR_FORMULA>
C28H44N2O2

> <PUBCHEM_MOLECULAR_WEIGHT>
440.66116

> <PUBCHEM_OPENEYE_CAN_SMILES>
CC(=O)OC1CCC2(C3CCC4(C(C3CC=C2C1)CCC4=NCCCN5CCCC5)C)C

> <PUBCHEM_OPENEYE_ISO_SMILES>
CC(=O)O[C@H]1CC[C@@]2([C@H]3CC[C@]4([C@H]([C@@H]3CC=C2C1)CCC4=NCCCN5CCCC5)C)C

> <PUBCHEM_CACTVS_TPSA>
41.9

> <PUBCHEM_MONOISOTOPIC_WEIGHT>
440.340279

> <PUBCHEM_TOTAL_CHARGE>
0

> <PUBCHEM_HEAVY_ATOM_COUNT>
32

> <PUBCHEM_ATOM_DEF_STEREO_COUNT>
6

> <PUBCHEM_ATOM_UDEF_STEREO_COUNT>
0

> <PUBCHEM_BOND_DEF_STEREO_COUNT>
0

> <PUBCHEM_BOND_UDEF_STEREO_COUNT>
0

> <PUBCHEM_ISOTOPIC_ATOM_COUNT>
0

> <PUBCHEM_COMPONENT_COUNT>
1

> <PUBCHEM_CACTVS_TAUTO_COUNT>
1

> <PUBCHEM_COORDINATE_TYPE>
1
5
255

> <PUBCHEM_BONDANNOTATIONS>
23  1  5
5  33  6
6  34  5
7  35  6
8  18  5
9  20  5

$$$$

