248605
  -OEChem-07051213072D

 31 34  0     0  0  0  0  0  0999 V2000
    7.1115   -0.9420    0.0000 O   0  0  0  0  0  0  0  0  0  0  0  0
    8.8435   -0.9420    0.0000 O   0  0  0  0  0  0  0  0  0  0  0  0
    4.2264   -2.6273    0.0000 O   0  0  0  0  0  0  0  0  0  0  0  0
    2.4546    0.4144    0.0000 O   0  0  0  0  0  0  0  0  0  0  0  0
    3.5814   -0.9661    0.0000 N   0  0  0  0  0  0  0  0  0  0  0  0
    6.2455    0.5580    0.0000 C   0  0  0  0  0  0  0  0  0  0  0  0
    7.1115    1.0580    0.0000 C   0  0  0  0  0  0  0  0  0  0  0  0
    6.2455   -0.4420    0.0000 C   0  0  0  0  0  0  0  0  0  0  0  0
    4.4455   -0.4628    0.0000 C   0  0  0  0  0  0  0  0  0  0  0  0
    7.9775    0.5580    0.0000 C   0  0  0  0  0  0  0  0  0  0  0  0
    5.3515   -0.9766    0.0000 C   0  0  0  0  0  0  0  0  0  0  0  0
    5.3515    1.0927    0.0000 C   0  0  0  0  0  0  0  0  0  0  0  0
    4.4455    0.5788    0.0000 C   0  0  0  0  0  0  0  0  0  0  0  0
    7.0954    2.0995    0.0000 C   0  0  0  0  0  0  0  0  0  0  0  0
    7.9775   -0.4420    0.0000 C   0  0  0  0  0  0  0  0  0  0  0  0
    8.8875    1.0649    0.0000 C   0  0  0  0  0  0  0  0  0  0  0  0
    2.6663   -0.5629    0.0000 C   0  0  0  0  0  0  0  0  0  0  0  0
    3.4807   -1.9610    0.0000 C   0  0  0  0  0  0  0  0  0  0  0  0
    7.9935    2.6273    0.0000 C   0  0  0  0  0  0  0  0  0  0  0  0
    8.8956    2.1065    0.0000 C   0  0  0  0  0  0  0  0  0  0  0  0
    2.0000   -1.3086    0.0000 C   0  0  0  0  0  0  0  0  0  0  0  0
    2.5033   -2.1727    0.0000 C   0  0  0  0  0  0  0  0  0  0  0  0
    5.3587   -1.5966    0.0000 H   0  0  0  0  0  0  0  0  0  0  0  0
    5.3587    1.7126    0.0000 H   0  0  0  0  0  0  0  0  0  0  0  0
    3.9097    0.8909    0.0000 H   0  0  0  0  0  0  0  0  0  0  0  0
    6.5550    2.4033    0.0000 H   0  0  0  0  0  0  0  0  0  0  0  0
    9.4208    0.7487    0.0000 H   0  0  0  0  0  0  0  0  0  0  0  0
    7.9911    3.2473    0.0000 H   0  0  0  0  0  0  0  0  0  0  0  0
    9.4337    2.4144    0.0000 H   0  0  0  0  0  0  0  0  0  0  0  0
    1.3832   -1.2462    0.0000 H   0  0  0  0  0  0  0  0  0  0  0  0
    2.2533   -2.7401    0.0000 H   0  0  0  0  0  0  0  0  0  0  0  0
  1  8  1  0  0  0  0
  1 15  1  0  0  0  0
  2 15  2  0  0  0  0
  3 18  2  0  0  0  0
  4 17  2  0  0  0  0
  5  9  1  0  0  0  0
  5 17  1  0  0  0  0
  5 18  1  0  0  0  0
  6  7  1  0  0  0  0
  6  8  2  0  0  0  0
  6 12  1  0  0  0  0
  7 10  1  0  0  0  0
  7 14  2  0  0  0  0
  8 11  1  0  0  0  0
  9 11  2  0  0  0  0
  9 13  1  0  0  0  0
 10 15  1  0  0  0  0
 10 16  2  0  0  0  0
 11 23  1  0  0  0  0
 12 13  2  0  0  0  0
 12 24  1  0  0  0  0
 13 25  1  0  0  0  0
 14 19  1  0  0  0  0
 14 26  1  0  0  0  0
 16 20  1  0  0  0  0
 16 27  1  0  0  0  0
 17 21  1  0  0  0  0
 18 22  1  0  0  0  0
 19 20  2  0  0  0  0
 19 28  1  0  0  0  0
 20 29  1  0  0  0  0
 21 22  2  0  0  0  0
 21 30  1  0  0  0  0
 22 31  1  0  0  0  0
M  END
> <PUBCHEM_COMPOUND_CID>
248605

> <PUBCHEM_COMPOUND_CANONICALIZED>
1

> <PUBCHEM_CACTVS_COMPLEXITY>
537

> <PUBCHEM_CACTVS_HBOND_ACCEPTOR>
4

> <PUBCHEM_CACTVS_HBOND_DONOR>
0

> <PUBCHEM_CACTVS_ROTATABLE_BOND>
1

> <PUBCHEM_CACTVS_SUBSKEYS>
AAADccB6OAAAAAAAAAAAAAAAAAAAAQAAAAA0YIAAAAAAAACRQAAAHgAAAAAADAyBmAAwzoMABACIAiXSWACCCAAlIgAIiAEGbMgMJjLEtZuGOyjmxDnI6YeY3OPOiAAAAgAYAAAQAAAEADAAAAAAAAAAAA==

> <PUBCHEM_IUPAC_OPENEYE_NAME>
1-(6-oxobenzo[c]chromen-3-yl)pyrrole-2,5-dione

> <PUBCHEM_IUPAC_CAS_NAME>
1-(6-oxo-3-benzo[c][1]benzopyranyl)pyrrole-2,5-dione

> <PUBCHEM_IUPAC_NAME>
1-(6-oxobenzo[c]chromen-3-yl)pyrrole-2,5-dione

> <PUBCHEM_IUPAC_SYSTEMATIC_NAME>
1-(6-oxidanylidenebenzo[c]chromen-3-yl)pyrrole-2,5-dione

> <PUBCHEM_IUPAC_TRADITIONAL_NAME>
1-(6-ketobenzo[c]chromen-3-yl)-3-pyrroline-2,5-quinone

> <PUBCHEM_IUPAC_INCHI>
InChI=1S/C17H9NO4/c19-15-7-8-16(20)18(15)10-5-6-12-11-3-1-2-4-13(11)17(21)22-14(12)9-10/h1-9H

> <PUBCHEM_IUPAC_INCHIKEY>
PMLCEENQQZJEMR-UHFFFAOYSA-N

> <PUBCHEM_XLOGP3_AA>
2.2

> <PUBCHEM_EXACT_MASS>
291.053158

> <PUBCHEM_MOLECULAR_FORMULA>
C17H9NO4

> <PUBCHEM_MOLECULAR_WEIGHT>
291.25766

> <PUBCHEM_OPENEYE_CAN_SMILES>
C1=CC=C2C(=C1)C3=C(C=C(C=C3)N4C(=O)C=CC4=O)OC2=O

> <PUBCHEM_OPENEYE_ISO_SMILES>
C1=CC=C2C(=C1)C3=C(C=C(C=C3)N4C(=O)C=CC4=O)OC2=O

> <PUBCHEM_CACTVS_TPSA>
63.7

> <PUBCHEM_MONOISOTOPIC_WEIGHT>
291.053158

> <PUBCHEM_TOTAL_CHARGE>
0

> <PUBCHEM_HEAVY_ATOM_COUNT>
22

> <PUBCHEM_ATOM_DEF_STEREO_COUNT>
0

> <PUBCHEM_ATOM_UDEF_STEREO_COUNT>
0

> <PUBCHEM_BOND_DEF_STEREO_COUNT>
0

> <PUBCHEM_BOND_UDEF_STEREO_COUNT>
0

> <PUBCHEM_ISOTOPIC_ATOM_COUNT>
0

> <PUBCHEM_COMPONENT_COUNT>
1

> <PUBCHEM_CACTVS_TAUTO_COUNT>
1

> <PUBCHEM_COORDINATE_TYPE>
1
5
255

> <PUBCHEM_BONDANNOTATIONS>
1  15  8
1  8  8
10  15  8
10  16  8
12  13  8
14  19  8
16  20  8
19  20  8
6  12  8
6  7  8
6  8  8
7  10  8
7  14  8
8  11  8
9  11  8
9  13  8

$$$$

