17396293
  -OEChem-06241222552D

 43 45  0     0  0  0  0  0  0999 V2000
    6.8994    1.4807    0.0000 O   0  0  0  0  0  0  0  0  0  0  0  0
    4.6783   -2.5276    0.0000 N   0  0  0  0  0  0  0  0  0  0  0  0
    7.2566   -0.2141    0.0000 N   0  0  0  0  0  0  0  0  0  0  0  0
    4.6783   -4.1370    0.0000 N   0  0  0  0  0  0  0  0  0  0  0  0
    8.5458    0.9427    0.0000 N   0  0  0  0  0  0  0  0  0  0  0  0
    4.9889   -1.5770    0.0000 C   0  0  0  0  0  0  0  0  0  0  0  0
    5.9674   -1.3708    0.0000 C   0  0  0  0  0  0  0  0  0  0  0  0
    3.7320   -2.8323    0.0000 C   0  0  0  0  0  0  0  0  0  0  0  0
    6.2781   -0.4203    0.0000 C   0  0  0  0  0  0  0  0  0  0  0  0
    3.7320   -3.8323    0.0000 C   0  0  0  0  0  0  0  0  0  0  0  0
    5.2619   -3.3323    0.0000 C   0  0  0  0  0  0  0  0  0  0  0  0
    2.8660   -2.3323    0.0000 C   0  0  0  0  0  0  0  0  0  0  0  0
    2.8660   -4.3323    0.0000 C   0  0  0  0  0  0  0  0  0  0  0  0
    2.0000   -2.8323    0.0000 C   0  0  0  0  0  0  0  0  0  0  0  0
    2.0000   -3.8323    0.0000 C   0  0  0  0  0  0  0  0  0  0  0  0
    7.5673    0.7364    0.0000 C   0  0  0  0  0  0  0  0  0  0  0  0
    8.8564    1.8932    0.0000 C   0  0  0  0  0  0  0  0  0  0  0  0
    8.1886    2.6375    0.0000 C   0  0  0  0  0  0  0  0  0  0  0  0
    8.4993    3.5880    0.0000 C   0  0  0  0  0  0  0  0  0  0  0  0
    9.8349    2.0994    0.0000 C   0  0  0  0  0  0  0  0  0  0  0  0
    9.4778    3.7942    0.0000 C   0  0  0  0  0  0  0  0  0  0  0  0
   10.1456    3.0499    0.0000 C   0  0  0  0  0  0  0  0  0  0  0  0
    7.8314    4.3323    0.0000 C   0  0  0  0  0  0  0  0  0  0  0  0
    4.9684   -0.9574    0.0000 H   0  0  0  0  0  0  0  0  0  0  0  0
    4.3751   -1.4897    0.0000 H   0  0  0  0  0  0  0  0  0  0  0  0
    5.9880   -1.9905    0.0000 H   0  0  0  0  0  0  0  0  0  0  0  0
    6.5812   -1.4582    0.0000 H   0  0  0  0  0  0  0  0  0  0  0  0
    6.2575    0.1994    0.0000 H   0  0  0  0  0  0  0  0  0  0  0  0
    5.6643   -0.3330    0.0000 H   0  0  0  0  0  0  0  0  0  0  0  0
    5.8819   -3.3323    0.0000 H   0  0  0  0  0  0  0  0  0  0  0  0
    2.8660   -1.7123    0.0000 H   0  0  0  0  0  0  0  0  0  0  0  0
    7.6707   -0.6756    0.0000 H   0  0  0  0  0  0  0  0  0  0  0  0
    2.8660   -4.9523    0.0000 H   0  0  0  0  0  0  0  0  0  0  0  0
    1.4631   -2.5223    0.0000 H   0  0  0  0  0  0  0  0  0  0  0  0
    1.4631   -4.1423    0.0000 H   0  0  0  0  0  0  0  0  0  0  0  0
    8.9598    0.4812    0.0000 H   0  0  0  0  0  0  0  0  0  0  0  0
    7.5819    2.5096    0.0000 H   0  0  0  0  0  0  0  0  0  0  0  0
   10.2490    1.6379    0.0000 H   0  0  0  0  0  0  0  0  0  0  0  0
    9.6704    4.3835    0.0000 H   0  0  0  0  0  0  0  0  0  0  0  0
   10.7523    3.1778    0.0000 H   0  0  0  0  0  0  0  0  0  0  0  0
    8.2929    4.7464    0.0000 H   0  0  0  0  0  0  0  0  0  0  0  0
    7.4174    4.7938    0.0000 H   0  0  0  0  0  0  0  0  0  0  0  0
    7.3700    3.9182    0.0000 H   0  0  0  0  0  0  0  0  0  0  0  0
  1 16  2  0  0  0  0
  2  6  1  0  0  0  0
  2  8  1  0  0  0  0
  2 11  1  0  0  0  0
  3  9  1  0  0  0  0
  3 16  1  0  0  0  0
  3 32  1  0  0  0  0
  4 10  1  0  0  0  0
  4 11  2  0  0  0  0
  5 16  1  0  0  0  0
  5 17  1  0  0  0  0
  5 36  1  0  0  0  0
  6  7  1  0  0  0  0
  6 24  1  0  0  0  0
  6 25  1  0  0  0  0
  7  9  1  0  0  0  0
  7 26  1  0  0  0  0
  7 27  1  0  0  0  0
  8 10  1  0  0  0  0
  8 12  2  0  0  0  0
  9 28  1  0  0  0  0
  9 29  1  0  0  0  0
 10 13  2  0  0  0  0
 11 30  1  0  0  0  0
 12 14  1  0  0  0  0
 12 31  1  0  0  0  0
 13 15  1  0  0  0  0
 13 33  1  0  0  0  0
 14 15  2  0  0  0  0
 14 34  1  0  0  0  0
 15 35  1  0  0  0  0
 17 18  1  0  0  0  0
 17 20  2  0  0  0  0
 18 19  2  0  0  0  0
 18 37  1  0  0  0  0
 19 21  1  0  0  0  0
 19 23  1  0  0  0  0
 20 22  1  0  0  0  0
 20 38  1  0  0  0  0
 21 22  2  0  0  0  0
 21 39  1  0  0  0  0
 22 40  1  0  0  0  0
 23 41  1  0  0  0  0
 23 42  1  0  0  0  0
 23 43  1  0  0  0  0
M  END
> <PUBCHEM_COMPOUND_CID>
17396293

> <PUBCHEM_COMPOUND_CANONICALIZED>
1

> <PUBCHEM_CACTVS_COMPLEXITY>
389

> <PUBCHEM_CACTVS_HBOND_ACCEPTOR>
2

> <PUBCHEM_CACTVS_HBOND_DONOR>
2

> <PUBCHEM_CACTVS_ROTATABLE_BOND>
5

> <PUBCHEM_CACTVS_SUBSKEYS>
AAADceB7oAAAAAAAAAAAAAAAAAAAAWAAAAAwYAAAAAAAAFgB9AAAHgAQAAAADAjBHgQ30LfMEACoAyRjdACCgC0xEqAJ2KA4dJiIaKLA2ZGUIAholgLIyCcQgAAOAAAAQAAAACAAAACAAAAAQAAAAAAAAA==

> <PUBCHEM_IUPAC_OPENEYE_NAME>
1-[3-(benzimidazol-1-yl)propyl]-3-(m-tolyl)urea

> <PUBCHEM_IUPAC_CAS_NAME>
1-[3-(1-benzimidazolyl)propyl]-3-(3-methylphenyl)urea

> <PUBCHEM_IUPAC_NAME>
1-[3-(benzimidazol-1-yl)propyl]-3-(3-methylphenyl)urea

> <PUBCHEM_IUPAC_SYSTEMATIC_NAME>
1-[3-(benzimidazol-1-yl)propyl]-3-(3-methylphenyl)urea

> <PUBCHEM_IUPAC_TRADITIONAL_NAME>
1-[3-(benzimidazol-1-yl)propyl]-3-(m-tolyl)urea

> <PUBCHEM_IUPAC_INCHI>
InChI=1S/C18H20N4O/c1-14-6-4-7-15(12-14)21-18(23)19-10-5-11-22-13-20-16-8-2-3-9-17(16)22/h2-4,6-9,12-13H,5,10-11H2,1H3,(H2,19,21,23)

> <PUBCHEM_IUPAC_INCHIKEY>
FTWYMUSFAZNACQ-UHFFFAOYSA-N

> <PUBCHEM_XLOGP3_AA>
2.8

> <PUBCHEM_EXACT_MASS>
308.163711

> <PUBCHEM_MOLECULAR_FORMULA>
C18H20N4O

> <PUBCHEM_MOLECULAR_WEIGHT>
308.3776

> <PUBCHEM_OPENEYE_CAN_SMILES>
CC1=CC(=CC=C1)NC(=O)NCCCN2C=NC3=CC=CC=C32

> <PUBCHEM_OPENEYE_ISO_SMILES>
CC1=CC(=CC=C1)NC(=O)NCCCN2C=NC3=CC=CC=C32

> <PUBCHEM_CACTVS_TPSA>
59

> <PUBCHEM_MONOISOTOPIC_WEIGHT>
308.163711

> <PUBCHEM_TOTAL_CHARGE>
0

> <PUBCHEM_HEAVY_ATOM_COUNT>
23

> <PUBCHEM_ATOM_DEF_STEREO_COUNT>
0

> <PUBCHEM_ATOM_UDEF_STEREO_COUNT>
0

> <PUBCHEM_BOND_DEF_STEREO_COUNT>
0

> <PUBCHEM_BOND_UDEF_STEREO_COUNT>
0

> <PUBCHEM_ISOTOPIC_ATOM_COUNT>
0

> <PUBCHEM_COMPONENT_COUNT>
1

> <PUBCHEM_CACTVS_TAUTO_COUNT>
3

> <PUBCHEM_COORDINATE_TYPE>
1
5
255

> <PUBCHEM_BONDANNOTATIONS>
10  13  8
12  14  8
13  15  8
14  15  8
17  18  8
17  20  8
18  19  8
19  21  8
2  11  8
2  8  8
20  22  8
21  22  8
4  10  8
4  11  8
8  10  8
8  12  8

$$$$

