6437842
  -OEChem-07051213133D

 44 45  0     1  0  0  0  0  0999 V2000
   -1.7171    1.3283    1.7860 O   0  0  0  0  0  0  0  0  0  0  0  0
   -1.9678   -1.0391    0.0220 N   0  0  0  0  0  0  0  0  0  0  0  0
   -3.1435   -0.5158    0.2645 N   0  0  0  0  0  0  0  0  0  0  0  0
   -3.2428   -2.6445   -0.5667 N   0  0  0  0  0  0  0  0  0  0  0  0
    1.8594   -0.4322    0.1199 C   0  0  0  0  0  0  0  0  0  0  0  0
    2.5650   -0.3892   -1.2431 C   0  0  0  0  0  0  0  0  0  0  0  0
    2.6586   -1.2798    1.1202 C   0  0  0  0  0  0  0  0  0  0  0  0
    4.0094    0.0912   -1.1165 C   0  0  0  0  0  0  0  0  0  0  0  0
    4.1029   -0.7980    1.2416 C   0  0  0  0  0  0  0  0  0  0  0  0
    4.7961   -0.7494   -0.1161 C   0  0  0  0  0  0  0  0  0  0  0  0
   -0.7450    2.2830   -0.2361 C   0  0  0  0  0  0  0  0  0  0  0  0
   -0.7085    1.1018    0.7991 C   0  0  2  0  0  0  0  0  0  0  0  0
    0.4598   -0.9511   -0.0206 C   0  0  0  0  0  0  0  0  0  0  0  0
   -0.7254   -0.3448    0.2545 C   0  0  0  0  0  0  0  0  0  0  0  0
    0.4552    2.2978   -1.1974 C   0  0  0  0  0  0  0  0  0  0  0  0
   -2.0370    2.2396   -1.0749 C   0  0  0  0  0  0  0  0  0  0  0  0
   -0.7238    3.6219    0.5393 C   0  0  0  0  0  0  0  0  0  0  0  0
   -1.9867   -2.2775   -0.4625 C   0  0  0  0  0  0  0  0  0  0  0  0
   -3.9087   -1.5421   -0.1131 C   0  0  0  0  0  0  0  0  0  0  0  0
    1.8715    0.5840    0.5168 H   0  0  0  0  0  0  0  0  0  0  0  0
    2.0453    0.2404   -1.9657 H   0  0  0  0  0  0  0  0  0  0  0  0
    2.5739   -1.3968   -1.6819 H   0  0  0  0  0  0  0  0  0  0  0  0
    2.6586   -2.3332    0.8097 H   0  0  0  0  0  0  0  0  0  0  0  0
    2.1834   -1.2431    2.1085 H   0  0  0  0  0  0  0  0  0  0  0  0
    4.0186    1.1418   -0.8012 H   0  0  0  0  0  0  0  0  0  0  0  0
    4.4986    0.0476   -2.0962 H   0  0  0  0  0  0  0  0  0  0  0  0
    4.6570   -1.4622    1.9145 H   0  0  0  0  0  0  0  0  0  0  0  0
    4.1177    0.2006    1.6955 H   0  0  0  0  0  0  0  0  0  0  0  0
    4.9094   -1.7688   -0.5049 H   0  0  0  0  0  0  0  0  0  0  0  0
    5.8049   -0.3374   -0.0008 H   0  0  0  0  0  0  0  0  0  0  0  0
    0.2055    1.2283    1.3874 H   0  0  0  0  0  0  0  0  0  0  0  0
    0.4839   -1.9651   -0.4065 H   0  0  0  0  0  0  0  0  0  0  0  0
    1.4084    2.3202   -0.6647 H   0  0  0  0  0  0  0  0  0  0  0  0
    0.4315    3.1906   -1.8347 H   0  0  0  0  0  0  0  0  0  0  0  0
    0.4106    1.4428   -1.8737 H   0  0  0  0  0  0  0  0  0  0  0  0
   -2.0902    1.3353   -1.6894 H   0  0  0  0  0  0  0  0  0  0  0  0
   -2.9351    2.2894   -0.4515 H   0  0  0  0  0  0  0  0  0  0  0  0
   -2.0816    3.0930   -1.7624 H   0  0  0  0  0  0  0  0  0  0  0  0
   -1.6103    3.7445    1.1711 H   0  0  0  0  0  0  0  0  0  0  0  0
   -0.7012    4.4765   -0.1473 H   0  0  0  0  0  0  0  0  0  0  0  0
    0.1616    3.6904    1.1813 H   0  0  0  0  0  0  0  0  0  0  0  0
   -2.5865    1.1910    1.3756 H   0  0  0  0  0  0  0  0  0  0  0  0
   -1.1666   -2.9224   -0.7424 H   0  0  0  0  0  0  0  0  0  0  0  0
   -4.9855   -1.4846   -0.0564 H   0  0  0  0  0  0  0  0  0  0  0  0
  1 12  1  0  0  0  0
  1 42  1  0  0  0  0
  2  3  1  0  0  0  0
  2 14  1  0  0  0  0
  2 18  1  0  0  0  0
  3 19  2  0  0  0  0
  4 18  2  0  0  0  0
  4 19  1  0  0  0  0
  5  6  1  0  0  0  0
  5  7  1  0  0  0  0
  5 13  1  0  0  0  0
  5 20  1  0  0  0  0
  6  8  1  0  0  0  0
  6 21  1  0  0  0  0
  6 22  1  0  0  0  0
  7  9  1  0  0  0  0
  7 23  1  0  0  0  0
  7 24  1  0  0  0  0
  8 10  1  0  0  0  0
  8 25  1  0  0  0  0
  8 26  1  0  0  0  0
  9 10  1  0  0  0  0
  9 27  1  0  0  0  0
  9 28  1  0  0  0  0
 10 29  1  0  0  0  0
 10 30  1  0  0  0  0
 11 12  1  0  0  0  0
 11 15  1  0  0  0  0
 11 16  1  0  0  0  0
 11 17  1  0  0  0  0
 12 14  1  0  0  0  0
 12 31  1  0  0  0  0
 13 14  2  0  0  0  0
 13 32  1  0  0  0  0
 15 33  1  0  0  0  0
 15 34  1  0  0  0  0
 15 35  1  0  0  0  0
 16 36  1  0  0  0  0
 16 37  1  0  0  0  0
 16 38  1  0  0  0  0
 17 39  1  0  0  0  0
 17 40  1  0  0  0  0
 17 41  1  0  0  0  0
 18 43  1  0  0  0  0
 19 44  1  0  0  0  0
M  END
> <PUBCHEM_COMPOUND_CID>
6437842

> <PUBCHEM_CONFORMER_RMSD>
0.8

> <PUBCHEM_CONFORMER_DIVERSEORDER>
1
28
26
17
18
14
10
12
16
22
3
7
20
19
23
25
9
15
27
4
13
8
11
6
24
21
5
2

> <PUBCHEM_MMFF94_PARTIAL_CHARGES>
14
1 -0.68
12 0.42
13 -0.29
14 -0.17
18 0.04
19 0.37
2 0.6
3 -0.71
32 0.15
4 -0.57
42 0.4
43 0.15
44 0.15
5 0.14

> <PUBCHEM_EFFECTIVE_ROTOR_COUNT>
5.2

> <PUBCHEM_PHARMACOPHORE_FEATURES>
7
1 1 acceptor
1 1 donor
3 2 4 18 cation
3 3 4 19 cation
4 11 15 16 17 hydrophobe
5 2 3 4 18 19 rings
6 5 6 7 8 9 10 rings

> <PUBCHEM_HEAVY_ATOM_COUNT>
19

> <PUBCHEM_ATOM_DEF_STEREO_COUNT>
0

> <PUBCHEM_ATOM_UDEF_STEREO_COUNT>
1

> <PUBCHEM_BOND_DEF_STEREO_COUNT>
1

> <PUBCHEM_BOND_UDEF_STEREO_COUNT>
0

> <PUBCHEM_ISOTOPIC_ATOM_COUNT>
0

> <PUBCHEM_COMPONENT_COUNT>
1

> <PUBCHEM_CACTVS_TAUTO_COUNT>
1

> <PUBCHEM_CONFORMER_ID>
00623BD200000001

> <PUBCHEM_MMFF94_ENERGY>
48.7397

> <PUBCHEM_FEATURE_SELFOVERLAP>
38.336

> <PUBCHEM_SHAPE_FINGERPRINT>
10165383 225 17250574009680189208
10871710 139 18129644375194142356
10989021 7 18339358557065190652
11045515 52 17989210317366283469
11265709 11 18410571747700408251
11578080 2 17915767325914360156
12173636 292 17902509629275659521
12403814 3 18270108140840957921
12553582 1 18411982421050792747
12788726 201 18343018925615456394
13004483 165 18341346551286883762
13296909 8 18270411606334774402
13583140 156 17680178371799093450
14081887 123 18336275634035439056
14178342 30 18054526952303074930
14181834 199 17977391529577489533
14614273 12 18264207078935087871
16752209 62 18341065102127560003
16945 1 18263361563051672745
17357779 13 18115890558414063495
1813 80 18336540508816019823
18222031 100 18189059707073730383
192875 21 17775570827818772290
200 152 17775569736654745802
20388580 30 18120375359001701767
20510252 161 18336830878759535018
20600515 1 18114456743474854979
21029758 27 18341044108738912835
21041028 32 18267846312811094153
21304303 282 17476686346622900924
21339142 36 18409738365078576885
21452121 71 18268423542887221911
21524375 3 17624694952675282720
22112679 90 18192404459983773929
22907989 373 18337394936656321996
23366157 5 17766565655477365165
23402539 116 18410015420803257702
23419403 2 17824572719167903009
23557571 272 18335421296473716606
23558518 356 18054225702584880795
23559900 14 18116431630263385006
23598288 3 18058164101800857723
350125 39 17759227884067014083
352729 6 17906465676691707811
5902787 121 18194685869265412299
6049 1 17676210199710492906
6442390 28 17611446920071916345
68521 5 18411985771198552127
7164475 11 18342744065352916798
7364860 26 17757832230349314285
7471813 234 18271534091806018166
7615 1 17988925626097306106
81228 2 18337378431049556355
90316 7 18410012160542797649

> <PUBCHEM_SHAPE_MULTIPOLES>
370.2
7.22
3.33
1.27
6.19
2.26
0.13
-4.58
-0.28
-3.62
-0.25
0.51
0.35
-0.82

> <PUBCHEM_SHAPE_SELFOVERLAP>
754.505

> <PUBCHEM_SHAPE_VOLUME>
215.5

> <PUBCHEM_COORDINATE_TYPE>
2
5
10

$$$$

