16770
  -OEChem-07051213133D

 25 26  0     0  0  0  0  0  0999 V2000
    1.8378   -2.6203   -1.3104 Cl  0  0  0  0  0  0  0  0  0  0  0  0
    4.2429    2.5569    1.2200 Cl  0  0  0  0  0  0  0  0  0  0  0  0
    5.4819    1.2996   -1.4928 Cl  0  0  0  0  0  0  0  0  0  0  0  0
   -6.0721    1.6812   -1.5068 Cl  0  0  0  0  0  0  0  0  0  0  0  0
   -1.5302   -1.4604    1.5101 S   0  0  0  0  0  0  0  0  0  0  0  0
    0.8740   -1.2448    1.2148 N   0  0  0  0  0  0  0  0  0  0  0  0
   -0.1940   -0.7724    0.7736 N   0  0  0  0  0  0  0  0  0  0  0  0
    1.9644   -0.6487    0.5672 C   0  0  0  0  0  0  0  0  0  0  0  0
    2.4974   -1.1903   -0.6026 C   0  0  0  0  0  0  0  0  0  0  0  0
    2.5172    0.5087    1.1149 C   0  0  0  0  0  0  0  0  0  0  0  0
    3.6030    1.1249    0.4929 C   0  0  0  0  0  0  0  0  0  0  0  0
    3.5833   -0.5742   -1.2247 C   0  0  0  0  0  0  0  0  0  0  0  0
    4.1362    0.5834   -0.6769 C   0  0  0  0  0  0  0  0  0  0  0  0
   -2.8189   -0.5692    0.6542 C   0  0  0  0  0  0  0  0  0  0  0  0
   -2.9260   -0.6643   -0.7317 C   0  0  0  0  0  0  0  0  0  0  0  0
   -3.7138    0.2193    1.3744 C   0  0  0  0  0  0  0  0  0  0  0  0
   -3.9326    0.0323   -1.4004 C   0  0  0  0  0  0  0  0  0  0  0  0
   -4.7204    0.9159    0.7057 C   0  0  0  0  0  0  0  0  0  0  0  0
   -4.8300    0.8223   -0.6817 C   0  0  0  0  0  0  0  0  0  0  0  0
    2.0974    0.9257    2.0282 H   0  0  0  0  0  0  0  0  0  0  0  0
    3.9980   -0.9976   -2.1372 H   0  0  0  0  0  0  0  0  0  0  0  0
   -2.2387   -1.2769   -1.3101 H   0  0  0  0  0  0  0  0  0  0  0  0
   -3.6434    0.3043    2.4560 H   0  0  0  0  0  0  0  0  0  0  0  0
   -4.0063   -0.0505   -2.4818 H   0  0  0  0  0  0  0  0  0  0  0  0
   -5.4125    1.5278    1.2786 H   0  0  0  0  0  0  0  0  0  0  0  0
  1  9  1  0  0  0  0
  2 11  1  0  0  0  0
  3 13  1  0  0  0  0
  4 19  1  0  0  0  0
  5  7  1  0  0  0  0
  5 14  1  0  0  0  0
  6  7  2  0  0  0  0
  6  8  1  0  0  0  0
  8  9  1  0  0  0  0
  8 10  2  0  0  0  0
  9 12  2  0  0  0  0
 10 11  1  0  0  0  0
 10 20  1  0  0  0  0
 11 13  2  0  0  0  0
 12 13  1  0  0  0  0
 12 21  1  0  0  0  0
 14 15  2  0  0  0  0
 14 16  1  0  0  0  0
 15 17  1  0  0  0  0
 15 22  1  0  0  0  0
 16 18  2  0  0  0  0
 16 23  1  0  0  0  0
 17 19  2  0  0  0  0
 17 24  1  0  0  0  0
 18 19  1  0  0  0  0
 18 25  1  0  0  0  0
M  END
> <PUBCHEM_COMPOUND_CID>
16770

> <PUBCHEM_CONFORMER_RMSD>
0.6

> <PUBCHEM_CONFORMER_DIVERSEORDER>
1
33
36
18
24
4
23
17
30
34
3
28
2
37
29
16
21
27
6
35
15
5
22
9
10
25
26
7
19
20
32
31
11
8
12
13
14

> <PUBCHEM_MMFF94_PARTIAL_CHARGES>
25
1 -0.18
10 -0.15
11 0.18
12 -0.15
13 0.18
14 0.1
15 -0.15
16 -0.15
17 -0.15
18 -0.15
19 0.18
2 -0.18
20 0.15
21 0.15
22 0.15
23 0.15
24 0.15
25 0.15
3 -0.18
4 -0.18
5 -0.03
6 -0.18
7 -0.07
8 0.18
9 0.18

> <PUBCHEM_EFFECTIVE_ROTOR_COUNT>
3

> <PUBCHEM_PHARMACOPHORE_FEATURES>
2
6 14 15 16 17 18 19 rings
6 8 9 10 11 12 13 rings

> <PUBCHEM_HEAVY_ATOM_COUNT>
19

> <PUBCHEM_ATOM_DEF_STEREO_COUNT>
0

> <PUBCHEM_ATOM_UDEF_STEREO_COUNT>
0

> <PUBCHEM_BOND_DEF_STEREO_COUNT>
0

> <PUBCHEM_BOND_UDEF_STEREO_COUNT>
0

> <PUBCHEM_ISOTOPIC_ATOM_COUNT>
0

> <PUBCHEM_COMPONENT_COUNT>
1

> <PUBCHEM_CACTVS_TAUTO_COUNT>
1

> <PUBCHEM_CONFORMER_ID>
0000418200000001

> <PUBCHEM_MMFF94_ENERGY>
40.7181

> <PUBCHEM_FEATURE_SELFOVERLAP>
10.149

> <PUBCHEM_SHAPE_FINGERPRINT>
10498660 4 18412829083885226369
11069576 57 16516248581674124566
11552529 35 13253644488696453289
11796584 16 6265526814952753372
12363563 72 6122502419409949819
12403259 118 15051725392210085135
12596602 18 15123506982553501324
12633257 1 17060065795879386116
12730499 353 18335689533908021266
12892183 10 13614253559357247406
13103583 49 12894812374880645244
1420 369 7492999687415388577
14251751 18 6411023028045195652
14251764 38 17982174417933018668
14341114 176 13110965344236322504
14341114 328 13973668538826218647
14528608 73 18041001717386664573
14848178 96 18410571756306518176
15188451 53 10087631577696531825
16752209 62 14851884802764604799
17870717 6 14996278146086714473
18186145 218 18342733035549827323
19377110 9 14548439307503552993
193927 3 7348891100535299497
19862831 5 16587737642274830043
20645477 56 18270387313894676003
20645477 70 18114730625123803902
20739085 24 13470416586731502162
21033648 29 17989487398565232152
22289505 5 18411418453395499996
22393880 68 17385725768349286150
23402655 69 17967521394194269186
23403322 49 5039948538278840075
23503953 91 13973958818549170291
23557571 272 18129926884983761923
23559900 14 17989201590394079946
270888 7 17775287179340982645
2838139 119 17986665970889099204
3004659 81 15864069896672743175
3060560 45 17967810544715511086
312425 54 12175624010055702725
341906 21 17632297839236527928
3472631 163 17847058861494975631
4028521 119 18412825802598731985
44062 13 13840265923021397577
5104073 3 15985104128348375353
633830 44 18263919020454079315
7064713 232 16271923857151939495
7808743 9 17489014951688108700
7970288 3 5545195030247424133
960060 61 16443350870716367641

> <PUBCHEM_SHAPE_MULTIPOLES>
392.38
13.76
2.2
1.8
7.97
0.08
-0.1
-9.44
-5.55
-1.89
-0.14
0.36
-0.06
1.7

> <PUBCHEM_SHAPE_SELFOVERLAP>
787.384

> <PUBCHEM_SHAPE_VOLUME>
235.1

> <PUBCHEM_COORDINATE_TYPE>
2
5
10

$$$$

