76543
  -OEChem-07051213093D

 21 21  0     0  0  0  0  0  0999 V2000
    3.0449    0.0005   -0.0015 O   0  0  0  0  0  0  0  0  0  0  0  0
   -2.5202   -0.0008   -0.0017 N   0  0  0  0  0  0  0  0  0  0  0  0
   -1.1062   -0.0003    0.0003 C   0  0  0  0  0  0  0  0  0  0  0  0
   -0.4092    1.2079    0.0010 C   0  0  0  0  0  0  0  0  0  0  0  0
   -0.4083   -1.2081   -0.0003 C   0  0  0  0  0  0  0  0  0  0  0  0
    0.9856    1.2084    0.0011 C   0  0  0  0  0  0  0  0  0  0  0  0
    0.9866   -1.2077   -0.0001 C   0  0  0  0  0  0  0  0  0  0  0  0
    1.6836    0.0006    0.0006 C   0  0  0  0  0  0  0  0  0  0  0  0
   -1.1291    2.5174   -0.0002 C   0  0  0  0  0  0  0  0  0  0  0  0
   -1.1276   -2.5179    0.0010 C   0  0  0  0  0  0  0  0  0  0  0  0
    1.5333    2.1478    0.0009 H   0  0  0  0  0  0  0  0  0  0  0  0
    1.5411   -2.1430   -0.0006 H   0  0  0  0  0  0  0  0  0  0  0  0
   -1.7553    2.6131    0.8930 H   0  0  0  0  0  0  0  0  0  0  0  0
   -0.4338    3.3642    0.0012 H   0  0  0  0  0  0  0  0  0  0  0  0
   -1.7519    2.6133   -0.8959 H   0  0  0  0  0  0  0  0  0  0  0  0
   -0.4316   -3.3641    0.0004 H   0  0  0  0  0  0  0  0  0  0  0  0
   -1.7509   -2.6138    0.8962 H   0  0  0  0  0  0  0  0  0  0  0  0
   -1.7530   -2.6144   -0.8927 H   0  0  0  0  0  0  0  0  0  0  0  0
   -3.0363    0.8681    0.0009 H   0  0  0  0  0  0  0  0  0  0  0  0
   -3.0357   -0.8699    0.0001 H   0  0  0  0  0  0  0  0  0  0  0  0
    3.3606    0.9205   -0.0012 H   0  0  0  0  0  0  0  0  0  0  0  0
  1  8  1  0  0  0  0
  1 21  1  0  0  0  0
  2  3  1  0  0  0  0
  2 19  1  0  0  0  0
  2 20  1  0  0  0  0
  3  4  2  0  0  0  0
  3  5  1  0  0  0  0
  4  6  1  0  0  0  0
  4  9  1  0  0  0  0
  5  7  2  0  0  0  0
  5 10  1  0  0  0  0
  6  8  2  0  0  0  0
  6 11  1  0  0  0  0
  7  8  1  0  0  0  0
  7 12  1  0  0  0  0
  9 13  1  0  0  0  0
  9 14  1  0  0  0  0
  9 15  1  0  0  0  0
 10 16  1  0  0  0  0
 10 17  1  0  0  0  0
 10 18  1  0  0  0  0
M  END
> <PUBCHEM_COMPOUND_CID>
76543

> <PUBCHEM_CONFORMER_RMSD>
0.4

> <PUBCHEM_CONFORMER_DIVERSEORDER>
1

> <PUBCHEM_MMFF94_PARTIAL_CHARGES>
15
1 -0.53
10 0.14
11 0.15
12 0.15
19 0.4
2 -0.9
20 0.4
21 0.45
3 0.1
4 -0.14
5 -0.14
6 -0.15
7 -0.15
8 0.08
9 0.14

> <PUBCHEM_EFFECTIVE_ROTOR_COUNT>
0

> <PUBCHEM_PHARMACOPHORE_FEATURES>
4
1 1 donor
1 2 cation
1 2 donor
6 3 4 5 6 7 8 rings

> <PUBCHEM_HEAVY_ATOM_COUNT>
10

> <PUBCHEM_ATOM_DEF_STEREO_COUNT>
0

> <PUBCHEM_ATOM_UDEF_STEREO_COUNT>
0

> <PUBCHEM_BOND_DEF_STEREO_COUNT>
0

> <PUBCHEM_BOND_UDEF_STEREO_COUNT>
0

> <PUBCHEM_ISOTOPIC_ATOM_COUNT>
0

> <PUBCHEM_COMPONENT_COUNT>
1

> <PUBCHEM_CACTVS_TAUTO_COUNT>
10

> <PUBCHEM_CONFORMER_ID>
00012AFF00000001

> <PUBCHEM_MMFF94_ENERGY>
36.5112

> <PUBCHEM_FEATURE_SELFOVERLAP>
20.297

> <PUBCHEM_SHAPE_FINGERPRINT>
12423570 1 8193716381606664288
16945 1 18410856559819131138
18185500 45 18267866068953890402
193761 8 17689999354985175367
20871998 184 18188206494682422918
21040471 1 18266459995666947908
23552423 10 17984422932317651454
2748010 2 18120939395349272628
5084963 1 18114183106760322336

> <PUBCHEM_SHAPE_MULTIPOLES>
194.94
2.74
2.55
0.6
1.25
0
0
0
0
-1.29
0
-0.01
0
0

> <PUBCHEM_SHAPE_SELFOVERLAP>
405.202

> <PUBCHEM_SHAPE_VOLUME>
113.4

> <PUBCHEM_COORDINATE_TYPE>
2
5
10

$$$$

