51090894
  -OEChem-06241223003D

 51 51  0     1  0  0  0  0  0999 V2000
   -1.6193   -2.3850    0.8750 F   0  0  0  0  0  0  0  0  0  0  0  0
   -2.7135   -0.9183    2.0495 F   0  0  0  0  0  0  0  0  0  0  0  0
   -3.6748   -1.8909    0.3661 F   0  0  0  0  0  0  0  0  0  0  0  0
    0.0053   -2.3452   -0.7942 O   0  0  0  0  0  0  0  0  0  0  0  0
   -2.6992    0.8736   -0.3878 N   0  0  0  0  0  0  0  0  0  0  0  0
    4.8750    0.2491   -0.0204 N   0  0  1  0  0  0  0  0  0  0  0  0
   -2.0814    1.7211   -1.2283 N   0  0  0  0  0  0  0  0  0  0  0  0
    1.5438   -0.6430   -1.1359 N   0  0  0  0  0  0  0  0  0  0  0  0
   -3.9923    1.2297    0.1489 C   0  0  0  0  0  0  0  0  0  0  0  0
   -1.9929   -0.2659   -0.1362 C   0  0  0  0  0  0  0  0  0  0  0  0
   -4.5169    2.5985   -0.3408 C   0  0  0  0  0  0  0  0  0  0  0  0
   -5.0356    0.1683   -0.2621 C   0  0  0  0  0  0  0  0  0  0  0  0
   -3.9149    1.2959    1.6895 C   0  0  0  0  0  0  0  0  0  0  0  0
    3.8919   -0.4514    0.7971 C   0  0  0  0  0  0  0  0  0  0  0  0
    4.9419    1.6634    0.3522 C   0  0  0  0  0  0  0  0  0  0  0  0
    3.3779   -1.7209    0.1118 C   0  0  0  0  0  0  0  0  0  0  0  0
   -0.8322   -0.1561   -0.8626 C   0  0  0  0  0  0  0  0  0  0  0  0
    2.7069   -1.4809   -1.2393 C   0  0  0  0  0  0  0  0  0  0  0  0
   -0.9415    1.0866   -1.5149 C   0  0  0  0  0  0  0  0  0  0  0  0
    0.2687   -1.1520   -0.9184 C   0  0  0  0  0  0  0  0  0  0  0  0
   -2.4864   -1.3293    0.7602 C   0  0  0  0  0  0  0  0  0  0  0  0
    6.1934   -0.3733    0.1122 C   0  0  0  0  0  0  0  0  0  0  0  0
    4.9148    1.8122    1.8708 C   0  0  0  0  0  0  0  0  0  0  0  0
    3.7810    2.4139   -0.2927 C   0  0  0  0  0  0  0  0  0  0  0  0
   -3.8361    3.4108   -0.0591 H   0  0  0  0  0  0  0  0  0  0  0  0
   -5.4989    2.8330    0.0873 H   0  0  0  0  0  0  0  0  0  0  0  0
   -4.6239    2.6176   -1.4321 H   0  0  0  0  0  0  0  0  0  0  0  0
   -6.0077    0.6369   -0.4648 H   0  0  0  0  0  0  0  0  0  0  0  0
   -5.2571   -0.5579    0.5239 H   0  0  0  0  0  0  0  0  0  0  0  0
   -4.7600   -0.3598   -1.1823 H   0  0  0  0  0  0  0  0  0  0  0  0
   -4.3058    0.4056    2.1881 H   0  0  0  0  0  0  0  0  0  0  0  0
   -4.5448    2.1081    2.0758 H   0  0  0  0  0  0  0  0  0  0  0  0
   -2.9019    1.5046    2.0526 H   0  0  0  0  0  0  0  0  0  0  0  0
    3.0007    0.1564    0.9901 H   0  0  0  0  0  0  0  0  0  0  0  0
    4.2934   -0.7321    1.7803 H   0  0  0  0  0  0  0  0  0  0  0  0
    5.8643    2.1126   -0.0382 H   0  0  0  0  0  0  0  0  0  0  0  0
    2.6587   -2.2039    0.7862 H   0  0  0  0  0  0  0  0  0  0  0  0
    4.1953   -2.4389   -0.0213 H   0  0  0  0  0  0  0  0  0  0  0  0
    2.4130   -2.4439   -1.6719 H   0  0  0  0  0  0  0  0  0  0  0  0
    3.3953   -1.0034   -1.9440 H   0  0  0  0  0  0  0  0  0  0  0  0
   -0.2427    1.5607   -2.1895 H   0  0  0  0  0  0  0  0  0  0  0  0
    1.6743    0.3602   -1.2239 H   0  0  0  0  0  0  0  0  0  0  0  0
    6.9330    0.1571   -0.4989 H   0  0  0  0  0  0  0  0  0  0  0  0
    6.1793   -1.4001   -0.2681 H   0  0  0  0  0  0  0  0  0  0  0  0
    6.5620   -0.4036    1.1429 H   0  0  0  0  0  0  0  0  0  0  0  0
    2.8034    2.1197    0.1014 H   0  0  0  0  0  0  0  0  0  0  0  0
    3.9438    1.5922    2.3266 H   0  0  0  0  0  0  0  0  0  0  0  0
    5.6843    1.2185    2.3739 H   0  0  0  0  0  0  0  0  0  0  0  0
    5.1276    2.8583    2.1260 H   0  0  0  0  0  0  0  0  0  0  0  0
    3.7688    2.2610   -1.3779 H   0  0  0  0  0  0  0  0  0  0  0  0
    3.8862    3.4906   -0.1170 H   0  0  0  0  0  0  0  0  0  0  0  0
  1 21  1  0  0  0  0
  2 21  1  0  0  0  0
  3 21  1  0  0  0  0
  4 20  2  0  0  0  0
  5  7  1  0  0  0  0
  5  9  1  0  0  0  0
  5 10  1  0  0  0  0
  6 14  1  0  0  0  0
  6 15  1  0  0  0  0
  6 22  1  0  0  0  0
  7 19  2  0  0  0  0
  8 18  1  0  0  0  0
  8 20  1  0  0  0  0
  8 42  1  0  0  0  0
  9 11  1  0  0  0  0
  9 12  1  0  0  0  0
  9 13  1  0  0  0  0
 10 17  2  0  0  0  0
 10 21  1  0  0  0  0
 11 25  1  0  0  0  0
 11 26  1  0  0  0  0
 11 27  1  0  0  0  0
 12 28  1  0  0  0  0
 12 29  1  0  0  0  0
 12 30  1  0  0  0  0
 13 31  1  0  0  0  0
 13 32  1  0  0  0  0
 13 33  1  0  0  0  0
 14 16  1  0  0  0  0
 14 34  1  0  0  0  0
 14 35  1  0  0  0  0
 15 23  1  0  0  0  0
 15 24  1  0  0  0  0
 15 36  1  0  0  0  0
 16 18  1  0  0  0  0
 16 37  1  0  0  0  0
 16 38  1  0  0  0  0
 17 19  1  0  0  0  0
 17 20  1  0  0  0  0
 18 39  1  0  0  0  0
 18 40  1  0  0  0  0
 19 41  1  0  0  0  0
 22 43  1  0  0  0  0
 22 44  1  0  0  0  0
 22 45  1  0  0  0  0
 23 47  1  0  0  0  0
 23 48  1  0  0  0  0
 23 49  1  0  0  0  0
 24 46  1  0  0  0  0
 24 50  1  0  0  0  0
 24 51  1  0  0  0  0
M  END
> <PUBCHEM_COMPOUND_CID>
51090894

> <PUBCHEM_CONFORMER_RMSD>
1

> <PUBCHEM_CONFORMER_DIVERSEORDER>
1
19
97
61
101
35
75
3
70
67
53
28
86
21
17
57
69
48
85
95
90
27
82
11
46
4
33
37
83
92
58
32
59
87
8
68
93
10
20
40
81
88
5
72
76
44
89
22
26
65
12
102
91
55
100
74
39
7
63
79
31
29
99
78
18
45
24
71
73
62
52
25
50
47
51
49
96
80
16
13
60
56
77
66
38
43
9
94
41
34
104
36
15
103
84
14
6
30
54
2
23
64
98
42

> <PUBCHEM_MMFF94_PARTIAL_CHARGES>
20
1 -0.34
10 -0.33
14 0.27
15 0.27
17 -0.09
18 0.3
19 0.14
2 -0.34
20 0.72
21 1.2
22 0.27
3 -0.34
4 -0.57
41 0.15
42 0.37
5 0.31
6 -0.81
7 -0.71
8 -0.73
9 0.26

> <PUBCHEM_EFFECTIVE_ROTOR_COUNT>
9

> <PUBCHEM_PHARMACOPHORE_FEATURES>
7
1 4 acceptor
1 6 cation
1 7 acceptor
1 8 donor
3 15 23 24 hydrophobe
4 9 11 12 13 hydrophobe
5 5 7 10 17 19 rings

> <PUBCHEM_HEAVY_ATOM_COUNT>
24

> <PUBCHEM_ATOM_DEF_STEREO_COUNT>
0

> <PUBCHEM_ATOM_UDEF_STEREO_COUNT>
0

> <PUBCHEM_BOND_DEF_STEREO_COUNT>
0

> <PUBCHEM_BOND_UDEF_STEREO_COUNT>
0

> <PUBCHEM_ISOTOPIC_ATOM_COUNT>
0

> <PUBCHEM_COMPONENT_COUNT>
1

> <PUBCHEM_CACTVS_TAUTO_COUNT>
2

> <PUBCHEM_CONFORMER_ID>
030B95CE00000001

> <PUBCHEM_MMFF94_ENERGY>
51.2534

> <PUBCHEM_FEATURE_SELFOVERLAP>
35.52

> <PUBCHEM_SHAPE_FINGERPRINT>
10319926 262 18343310271250186506
11045977 3 18341328972296685382
11370993 144 18341894138574803922
11595378 159 16773804731385013476
12403259 118 18339933614964001004
12553582 1 15051729815847162022
12596602 18 15410598282207646820
12633257 1 17917723370464765512
12925494 130 18263648523103339777
13402501 40 18408890663283966468
13533116 47 17845947345360332378
13583140 156 17703248290080593270
13994607 96 16950276291586908107
14251751 18 9295287240338084640
14251764 38 18335697260533152608
14251764 75 18116711816629230792
14341114 176 18201437017442614980
14341114 328 17703793587813535496
15163728 17 15358802600089229185
15183329 4 6699811969046592132
15342168 16 17967817162743091220
15537594 2 13758069702056350210
1813 80 15985104098304378588
21033648 29 18261404329987010680
22122407 14 17530955908402442569
22393880 68 8646229051315589024
23559900 14 18199170962100166814
23596394 208 8358259233438736372
2838139 119 17385726949581785625
3009799 131 17988656160081712327
312425 83 4895008768180301872
474 4 18040719211886665798
5081480 168 16953061427976677876
5104073 3 18269265923745445315
960060 61 9583227366899862864

> <PUBCHEM_SHAPE_MULTIPOLES>
446.29
12.92
2.67
1.47
9.69
0.29
0.39
6
3.34
0.15
0.1
-0.35
0.18
1.37

> <PUBCHEM_SHAPE_SELFOVERLAP>
906.369

> <PUBCHEM_SHAPE_VOLUME>
263.6

> <PUBCHEM_COORDINATE_TYPE>
2
5
10

$$$$

