46174065
  -OEChem-07051213112D

 32 31  0     1  0  0  0  0  0999 V2000
    7.7331    2.5600    0.0000 O   0  0  0  0  0  0  0  0  0  0  0  0
    6.8671    4.0600    0.0000 O   0  0  0  0  0  0  0  0  0  0  0  0
    5.1350    0.0600    0.0000 N   0  0  0  0  0  0  0  0  0  0  0  0
    5.1350    3.0600    0.0000 N   0  0  0  0  0  0  0  0  0  0  0  0
    2.5369   -3.4400    0.0000 N   0  0  0  0  0  0  0  0  0  0  0  0
    5.1350    1.0600    0.0000 C   0  0  0  0  0  0  0  0  0  0  0  0
    4.2690   -0.4400    0.0000 C   0  0  0  0  0  0  0  0  0  0  0  0
    6.0010    1.5600    0.0000 C   0  0  0  0  0  0  0  0  0  0  0  0
    4.2690   -1.4400    0.0000 C   0  0  0  0  0  0  0  0  0  0  0  0
    3.4030   -1.9400    0.0000 C   0  0  0  0  0  0  0  0  0  0  0  0
    6.0010    2.5600    0.0000 C   0  0  3  0  0  0  0  0  0  0  0  0
    3.4030   -2.9400    0.0000 C   0  0  0  0  0  0  0  0  0  0  0  0
    6.8671    3.0600    0.0000 C   0  0  0  0  0  0  0  0  0  0  0  0
    4.9230    1.6426    0.0000 H   0  0  0  0  0  0  0  0  0  0  0  0
    4.5244    0.9523    0.0000 H   0  0  0  0  0  0  0  0  0  0  0  0
    6.2131    0.9774    0.0000 H   0  0  0  0  0  0  0  0  0  0  0  0
    6.6116    1.6677    0.0000 H   0  0  0  0  0  0  0  0  0  0  0  0
    4.0569    0.1426    0.0000 H   0  0  0  0  0  0  0  0  0  0  0  0
    3.6584   -0.5477    0.0000 H   0  0  0  0  0  0  0  0  0  0  0  0
    4.4810   -2.0226    0.0000 H   0  0  0  0  0  0  0  0  0  0  0  0
    4.8796   -1.3323    0.0000 H   0  0  0  0  0  0  0  0  0  0  0  0
    5.6720   -0.2500    0.0000 H   0  0  0  0  0  0  0  0  0  0  0  0
    3.1909   -1.3574    0.0000 H   0  0  0  0  0  0  0  0  0  0  0  0
    2.7924   -2.0477    0.0000 H   0  0  0  0  0  0  0  0  0  0  0  0
    5.4641    2.2500    0.0000 H   0  0  0  0  0  0  0  0  0  0  0  0
    3.6150   -3.5226    0.0000 H   0  0  0  0  0  0  0  0  0  0  0  0
    4.0135   -2.8323    0.0000 H   0  0  0  0  0  0  0  0  0  0  0  0
    4.5981    2.7500    0.0000 H   0  0  0  0  0  0  0  0  0  0  0  0
    5.1350    3.6800    0.0000 H   0  0  0  0  0  0  0  0  0  0  0  0
    2.5369   -4.0600    0.0000 H   0  0  0  0  0  0  0  0  0  0  0  0
    2.0000   -3.1300    0.0000 H   0  0  0  0  0  0  0  0  0  0  0  0
    8.2700    2.8700    0.0000 H   0  0  0  0  0  0  0  0  0  0  0  0
  1 13  1  0  0  0  0
  1 32  1  0  0  0  0
  2 13  2  0  0  0  0
  3  6  1  0  0  0  0
  3  7  1  0  0  0  0
  3 22  1  0  0  0  0
  4 11  1  0  0  0  0
  4 28  1  0  0  0  0
  4 29  1  0  0  0  0
  5 12  1  0  0  0  0
  5 30  1  0  0  0  0
  5 31  1  0  0  0  0
  6  8  1  0  0  0  0
  6 14  1  0  0  0  0
  6 15  1  0  0  0  0
  7  9  1  0  0  0  0
  7 18  1  0  0  0  0
  7 19  1  0  0  0  0
  8 11  1  0  0  0  0
  8 16  1  0  0  0  0
  8 17  1  0  0  0  0
  9 10  1  0  0  0  0
  9 20  1  0  0  0  0
  9 21  1  0  0  0  0
 10 12  1  0  0  0  0
 10 23  1  0  0  0  0
 10 24  1  0  0  0  0
 11 13  1  0  0  0  0
 11 25  1  0  0  0  0
 12 26  1  0  0  0  0
 12 27  1  0  0  0  0
M  END
> <PUBCHEM_COMPOUND_CID>
46174065

> <PUBCHEM_COMPOUND_CANONICALIZED>
1

> <PUBCHEM_CACTVS_COMPLEXITY>
141

> <PUBCHEM_CACTVS_HBOND_ACCEPTOR>
5

> <PUBCHEM_CACTVS_HBOND_DONOR>
4

> <PUBCHEM_CACTVS_ROTATABLE_BOND>
8

> <PUBCHEM_CACTVS_SUBSKEYS>
AAADceBzMAAAAAAAAAAAAAAAAAAAAAAAAAAAAAAAAAAAAAAAAAAAHgAQCAAACCjBgAQACALAAgAIAACQCAAAAAAAAAAAAIGIAAACABAAwAAEQAAEEACAAAAkAAAAAAAAAAAAAAAAAAAAAAAAAAAAAAAAAA==

> <PUBCHEM_IUPAC_OPENEYE_NAME>
2-amino-4-(4-aminobutylamino)butanoic acid

> <PUBCHEM_IUPAC_CAS_NAME>
2-amino-4-(4-aminobutylamino)butanoic acid

> <PUBCHEM_IUPAC_NAME>
2-amino-4-(4-aminobutylamino)butanoic acid

> <PUBCHEM_IUPAC_SYSTEMATIC_NAME>
2-azanyl-4-(4-azanylbutylamino)butanoic acid

> <PUBCHEM_IUPAC_TRADITIONAL_NAME>
2-amino-4-(4-aminobutylamino)butyric acid

> <PUBCHEM_IUPAC_INCHI>
InChI=1S/C8H19N3O2/c9-4-1-2-5-11-6-3-7(10)8(12)13/h7,11H,1-6,9-10H2,(H,12,13)

> <PUBCHEM_IUPAC_INCHIKEY>
ICLFWLHIBPQMFT-UHFFFAOYSA-N

> <PUBCHEM_XLOGP3>
-4.4

> <PUBCHEM_EXACT_MASS>
189.147727

> <PUBCHEM_MOLECULAR_FORMULA>
C8H19N3O2

> <PUBCHEM_MOLECULAR_WEIGHT>
189.25536

> <PUBCHEM_OPENEYE_CAN_SMILES>
C(CCNCCC(C(=O)O)N)CN

> <PUBCHEM_OPENEYE_ISO_SMILES>
C(CCNCCC(C(=O)O)N)CN

> <PUBCHEM_CACTVS_TPSA>
101

> <PUBCHEM_MONOISOTOPIC_WEIGHT>
189.147727

> <PUBCHEM_TOTAL_CHARGE>
0

> <PUBCHEM_HEAVY_ATOM_COUNT>
13

> <PUBCHEM_ATOM_DEF_STEREO_COUNT>
0

> <PUBCHEM_ATOM_UDEF_STEREO_COUNT>
1

> <PUBCHEM_BOND_DEF_STEREO_COUNT>
0

> <PUBCHEM_BOND_UDEF_STEREO_COUNT>
0

> <PUBCHEM_ISOTOPIC_ATOM_COUNT>
0

> <PUBCHEM_COMPONENT_COUNT>
1

> <PUBCHEM_CACTVS_TAUTO_COUNT>
1

> <PUBCHEM_COORDINATE_TYPE>
1
5
255

> <PUBCHEM_BONDANNOTATIONS>
11  4  3

$$$$

