10100906
  -OEChem-07051213082D

 75 79  0     1  0  0  0  0  0999 V2000
    6.0010   -1.7197    0.0000 O   0  0  0  0  0  0  0  0  0  0  0  0
   10.3474   -1.2743    0.0000 O   0  0  0  0  0  0  0  0  0  0  0  0
    5.1350   -0.2197    0.0000 O   0  0  0  0  0  0  0  0  0  0  0  0
    8.6155   -1.2543    0.0000 O   0  0  0  0  0  0  0  0  0  0  0  0
    3.4030   -3.2197    0.0000 O   0  0  0  0  0  0  0  0  0  0  0  0
    5.1350   -4.2197    0.0000 O   0  0  0  0  0  0  0  0  0  0  0  0
   10.3127   -4.2741    0.0000 O   0  0  0  0  0  0  0  0  0  0  0  0
   12.0562   -3.2942    0.0000 O   0  0  0  0  0  0  0  0  0  0  0  0
    3.4030   -1.2197    0.0000 O   0  0  0  0  0  0  0  0  0  0  0  0
    8.5923   -3.2542    0.0000 O   0  0  0  0  0  0  0  0  0  0  0  0
    6.8671   -4.2197    0.0000 O   0  0  0  0  0  0  0  0  0  0  0  0
   12.9395   -1.8043    0.0000 O   0  0  0  0  0  0  0  0  0  0  0  0
    6.8671    1.7803    0.0000 O   0  3  0  0  0  0  0  0  0  0  0  0
   10.3972    1.8044    0.0000 O   0  0  0  0  0  0  0  0  0  0  0  0
    2.5369    1.2803    0.0000 O   0  0  0  0  0  0  0  0  0  0  0  0
    4.2690    4.2803    0.0000 O   0  0  0  0  0  0  0  0  0  0  0  0
    2.5369    3.2803    0.0000 O   0  0  0  0  0  0  0  0  0  0  0  0
    4.2690   -2.7197    0.0000 C   0  0  1  0  0  0  0  0  0  0  0  0
    5.1350   -3.2197    0.0000 C   0  0  1  0  0  0  0  0  0  0  0  0
   10.3243   -3.2742    0.0000 C   0  0  1  0  0  0  0  0  0  0  0  0
   11.1960   -2.7842    0.0000 C   0  0  1  0  0  0  0  0  0  0  0  0
    4.2690   -1.7197    0.0000 C   0  0  2  0  0  0  0  0  0  0  0  0
    9.4641   -2.7642    0.0000 C   0  0  2  0  0  0  0  0  0  0  0  0
    6.0010   -2.7197    0.0000 C   0  0  1  0  0  0  0  0  0  0  0  0
   11.2076   -1.7843    0.0000 C   0  0  1  0  0  0  0  0  0  0  0  0
    5.1350   -1.2197    0.0000 C   0  0  1  0  0  0  0  0  0  0  0  0
    9.4756   -1.7643    0.0000 C   0  0  1  0  0  0  0  0  0  0  0  0
    6.8671   -3.2197    0.0000 C   0  0  0  0  0  0  0  0  0  0  0  0
   12.0793   -1.2943    0.0000 C   0  0  0  0  0  0  0  0  0  0  0  0
    6.0010    0.2803    0.0000 C   0  0  0  0  0  0  0  0  0  0  0  0
    8.6270   -0.2544    0.0000 C   0  0  0  0  0  0  0  0  0  0  0  0
    7.7331    0.2803    0.0000 C   0  0  0  0  0  0  0  0  0  0  0  0
    6.8671   -0.2197    0.0000 C   0  0  0  0  0  0  0  0  0  0  0  0
    6.0010    1.2803    0.0000 C   0  0  0  0  0  0  0  0  0  0  0  0
    7.7331    1.2803    0.0000 C   0  0  0  0  0  0  0  0  0  0  0  0
    9.5331    0.2595    0.0000 C   0  0  0  0  0  0  0  0  0  0  0  0
    8.6270    1.8150    0.0000 C   0  0  0  0  0  0  0  0  0  0  0  0
    9.5331    1.3011    0.0000 C   0  0  0  0  0  0  0  0  0  0  0  0
    5.1350    1.7803    0.0000 C   0  0  0  0  0  0  0  0  0  0  0  0
    5.1350    2.7803    0.0000 C   0  0  0  0  0  0  0  0  0  0  0  0
    4.2690    1.2803    0.0000 C   0  0  0  0  0  0  0  0  0  0  0  0
    3.4030    1.7803    0.0000 C   0  0  0  0  0  0  0  0  0  0  0  0
    4.2690    3.2803    0.0000 C   0  0  0  0  0  0  0  0  0  0  0  0
    3.4030    2.7803    0.0000 C   0  0  0  0  0  0  0  0  0  0  0  0
    4.2690   -3.3397    0.0000 H   0  0  0  0  0  0  0  0  0  0  0  0
    5.6720   -3.5297    0.0000 H   0  0  0  0  0  0  0  0  0  0  0  0
   10.8576   -3.5904    0.0000 H   0  0  0  0  0  0  0  0  0  0  0  0
   11.1889   -3.4042    0.0000 H   0  0  0  0  0  0  0  0  0  0  0  0
    4.2690   -1.0997    0.0000 H   0  0  0  0  0  0  0  0  0  0  0  0
    8.9308   -2.4480    0.0000 H   0  0  0  0  0  0  0  0  0  0  0  0
    6.5380   -2.4097    0.0000 H   0  0  0  0  0  0  0  0  0  0  0  0
   11.2148   -1.1643    0.0000 H   0  0  0  0  0  0  0  0  0  0  0  0
    4.5981   -0.9097    0.0000 H   0  0  0  0  0  0  0  0  0  0  0  0
    8.9352   -2.0680    0.0000 H   0  0  0  0  0  0  0  0  0  0  0  0
    7.4776   -3.3274    0.0000 H   0  0  0  0  0  0  0  0  0  0  0  0
    7.0791   -2.6371    0.0000 H   0  0  0  0  0  0  0  0  0  0  0  0
   12.4833   -0.8240    0.0000 H   0  0  0  0  0  0  0  0  0  0  0  0
   11.6863   -0.8148    0.0000 H   0  0  0  0  0  0  0  0  0  0  0  0
    3.4030   -3.8397    0.0000 H   0  0  0  0  0  0  0  0  0  0  0  0
    4.5981   -4.5297    0.0000 H   0  0  0  0  0  0  0  0  0  0  0  0
   10.8460   -4.5903    0.0000 H   0  0  0  0  0  0  0  0  0  0  0  0
   12.0490   -3.9142    0.0000 H   0  0  0  0  0  0  0  0  0  0  0  0
    2.8660   -1.5297    0.0000 H   0  0  0  0  0  0  0  0  0  0  0  0
    8.5852   -3.8741    0.0000 H   0  0  0  0  0  0  0  0  0  0  0  0
    6.8671   -0.8397    0.0000 H   0  0  0  0  0  0  0  0  0  0  0  0
    7.4040   -4.5297    0.0000 H   0  0  0  0  0  0  0  0  0  0  0  0
   13.4800   -1.5006    0.0000 H   0  0  0  0  0  0  0  0  0  0  0  0
   10.0688   -0.0526    0.0000 H   0  0  0  0  0  0  0  0  0  0  0  0
    8.6199    2.4349    0.0000 H   0  0  0  0  0  0  0  0  0  0  0  0
    5.6720    3.0903    0.0000 H   0  0  0  0  0  0  0  0  0  0  0  0
    4.2690    0.6603    0.0000 H   0  0  0  0  0  0  0  0  0  0  0  0
   10.3948    2.4245    0.0000 H   0  0  0  0  0  0  0  0  0  0  0  0
    2.0000    1.5903    0.0000 H   0  0  0  0  0  0  0  0  0  0  0  0
    4.8059    4.5903    0.0000 H   0  0  0  0  0  0  0  0  0  0  0  0
    2.5369    3.9003    0.0000 H   0  0  0  0  0  0  0  0  0  0  0  0
  1 24  1  0  0  0  0
  1 26  1  0  0  0  0
  2 25  1  0  0  0  0
  2 27  1  0  0  0  0
 26  3  1  6  0  0  0
  3 30  1  0  0  0  0
 27  4  1  6  0  0  0
  4 31  1  0  0  0  0
 18  5  1  6  0  0  0
  5 59  1  0  0  0  0
 19  6  1  1  0  0  0
  6 60  1  0  0  0  0
 20  7  1  6  0  0  0
  7 61  1  0  0  0  0
 21  8  1  1  0  0  0
  8 62  1  0  0  0  0
 22  9  1  1  0  0  0
  9 63  1  0  0  0  0
 23 10  1  1  0  0  0
 10 64  1  0  0  0  0
 11 28  1  0  0  0  0
 11 66  1  0  0  0  0
 12 29  1  0  0  0  0
 12 67  1  0  0  0  0
 13 34  1  0  0  0  0
 13 35  2  0  0  0  0
 14 38  1  0  0  0  0
 14 72  1  0  0  0  0
 15 42  1  0  0  0  0
 15 73  1  0  0  0  0
 16 43  1  0  0  0  0
 16 74  1  0  0  0  0
 17 44  1  0  0  0  0
 17 75  1  0  0  0  0
 18 19  1  0  0  0  0
 18 22  1  0  0  0  0
 18 45  1  0  0  0  0
 19 24  1  0  0  0  0
 19 46  1  0  0  0  0
 20 21  1  0  0  0  0
 20 23  1  0  0  0  0
 20 47  1  0  0  0  0
 21 25  1  0  0  0  0
 21 48  1  0  0  0  0
 22 26  1  0  0  0  0
 22 49  1  0  0  0  0
 23 27  1  0  0  0  0
 23 50  1  0  0  0  0
 24 28  1  6  0  0  0
 24 51  1  0  0  0  0
 25 29  1  6  0  0  0
 25 52  1  0  0  0  0
 26 53  1  0  0  0  0
 27 54  1  0  0  0  0
 28 55  1  0  0  0  0
 28 56  1  0  0  0  0
 29 57  1  0  0  0  0
 29 58  1  0  0  0  0
 30 33  1  0  0  0  0
 30 34  2  0  0  0  0
 31 32  1  0  0  0  0
 31 36  2  0  0  0  0
 32 33  2  0  0  0  0
 32 35  1  0  0  0  0
 33 65  1  0  0  0  0
 34 39  1  0  0  0  0
 35 37  1  0  0  0  0
 36 38  1  0  0  0  0
 36 68  1  0  0  0  0
 37 38  2  0  0  0  0
 37 69  1  0  0  0  0
 39 40  2  0  0  0  0
 39 41  1  0  0  0  0
 40 43  1  0  0  0  0
 40 70  1  0  0  0  0
 41 42  2  0  0  0  0
 41 71  1  0  0  0  0
 42 44  1  0  0  0  0
 43 44  2  0  0  0  0
M  CHG  1  13   1
M  END
> <PUBCHEM_COMPOUND_CID>
10100906

> <PUBCHEM_COMPOUND_CANONICALIZED>
1

> <PUBCHEM_CACTVS_COMPLEXITY>
919

> <PUBCHEM_CACTVS_HBOND_ACCEPTOR>
16

> <PUBCHEM_CACTVS_HBOND_DONOR>
12

> <PUBCHEM_CACTVS_ROTATABLE_BOND>
7

> <PUBCHEM_CACTVS_SUBSKEYS>
AAADceB4PgAAAAAAAAAAAAAAAAAAAAAAAAA0aJECAAAAAACR9AAAGgAACAAADBSwmAMwDsAABkCIAqBSAAICCAAkIAAAiAFGiMgdNzaGNR6ieWOl4BUPuYfK7PzOIAABCAAIQABAAAIQABCAAAAAAAAAAA==

> <PUBCHEM_IUPAC_OPENEYE_NAME>
(2R,3S,4S,5R,6S)-2-(hydroxymethyl)-6-[7-hydroxy-3-[(2S,3R,4S,5S,6R)-3,4,5-trihydroxy-6-(hydroxymethyl)tetrahydropyran-2-yl]oxy-2-(3,4,5-trihydroxyphenyl)chromenylium-5-yl]oxy-tetrahydropyran-3,4,5-triol

> <PUBCHEM_IUPAC_CAS_NAME>
(2R,3S,4S,5R,6S)-2-(hydroxymethyl)-6-[[7-hydroxy-3-[[(2S,3R,4S,5S,6R)-3,4,5-trihydroxy-6-(hydroxymethyl)-2-oxanyl]oxy]-2-(3,4,5-trihydroxyphenyl)-1-benzopyrylium-5-yl]oxy]oxane-3,4,5-triol

> <PUBCHEM_IUPAC_NAME>
(2R,3S,4S,5R,6S)-2-(hydroxymethyl)-6-[7-hydroxy-3-[(2S,3R,4S,5S,6R)-3,4,5-trihydroxy-6-(hydroxymethyl)oxan-2-yl]oxy-2-(3,4,5-trihydroxyphenyl)chromenylium-5-yl]oxyoxane-3,4,5-triol

> <PUBCHEM_IUPAC_SYSTEMATIC_NAME>
(2R,3S,4S,5R,6S)-2-(hydroxymethyl)-6-[3-[(2S,3R,4S,5S,6R)-6-(hydroxymethyl)-3,4,5-tris(oxidanyl)oxan-2-yl]oxy-7-oxidanyl-2-[3,4,5-tris(oxidanyl)phenyl]chromenylium-5-yl]oxy-oxane-3,4,5-triol

> <PUBCHEM_IUPAC_TRADITIONAL_NAME>
(2S,3R,4S,5S,6R)-2-[[7-hydroxy-3-[(2S,3R,4S,5S,6R)-3,4,5-trihydroxy-6-methylol-tetrahydropyran-2-yl]oxy-2-(3,4,5-trihydroxyphenyl)-1-benzopyrylium-5-yl]oxy]-6-methylol-tetrahydropyran-3,4,5-triol

> <PUBCHEM_IUPAC_INCHI>
InChI=1S/C27H30O17/c28-6-16-19(34)21(36)23(38)26(43-16)41-14-4-9(30)3-13-10(14)5-15(25(40-13)8-1-11(31)18(33)12(32)2-8)42-27-24(39)22(37)20(35)17(7-29)44-27/h1-5,16-17,19-24,26-29,34-39H,6-7H2,(H3-,30,31,32,33)/p+1/t16-,17-,19-,20-,21+,22+,23-,24-,26-,27-/m1/s1

> <PUBCHEM_IUPAC_INCHIKEY>
XCTGXGVGJYACEI-LCENJUANSA-O

> <PUBCHEM_EXACT_MASS>
627.156125

> <PUBCHEM_MOLECULAR_FORMULA>
C27H31O17+

> <PUBCHEM_MOLECULAR_WEIGHT>
627.52484

> <PUBCHEM_OPENEYE_CAN_SMILES>
C1=C(C=C(C(=C1O)O)O)C2=C(C=C3C(=CC(=CC3=[O+]2)O)OC4C(C(C(C(O4)CO)O)O)O)OC5C(C(C(C(O5)CO)O)O)O

> <PUBCHEM_OPENEYE_ISO_SMILES>
C1=C(C=C(C(=C1O)O)O)C2=C(C=C3C(=CC(=CC3=[O+]2)O)O[C@H]4[C@@H]([C@H]([C@@H]([C@H](O4)CO)O)O)O)O[C@H]5[C@@H]([C@H]([C@@H]([C@H](O5)CO)O)O)O

> <PUBCHEM_CACTVS_TPSA>
281

> <PUBCHEM_MONOISOTOPIC_WEIGHT>
627.156125

> <PUBCHEM_TOTAL_CHARGE>
1

> <PUBCHEM_HEAVY_ATOM_COUNT>
44

> <PUBCHEM_ATOM_DEF_STEREO_COUNT>
10

> <PUBCHEM_ATOM_UDEF_STEREO_COUNT>
0

> <PUBCHEM_BOND_DEF_STEREO_COUNT>
0

> <PUBCHEM_BOND_UDEF_STEREO_COUNT>
0

> <PUBCHEM_ISOTOPIC_ATOM_COUNT>
0

> <PUBCHEM_COMPONENT_COUNT>
1

> <PUBCHEM_CACTVS_TAUTO_COUNT>
100

> <PUBCHEM_COORDINATE_TYPE>
1
5
255

> <PUBCHEM_BONDANNOTATIONS>
23  10  5
13  34  8
13  35  8
24  28  6
25  29  6
26  3  6
30  33  8
30  34  8
31  32  8
31  36  8
32  33  8
32  35  8
35  37  8
36  38  8
37  38  8
39  40  8
39  41  8
27  4  6
40  43  8
41  42  8
42  44  8
43  44  8
18  5  6
19  6  5
20  7  6
21  8  5
22  9  5

$$$$

