443829
  -OEChem-07051213033D

 65 69  0     1  0  0  0  0  0999 V2000
    2.2744    0.5292   -0.1739 O   0  0  0  0  0  0  0  0  0  0  0  0
    2.7522   -1.9444    1.0921 O   0  0  0  0  0  0  0  0  0  0  0  0
    4.5104    0.7690   -0.9287 O   0  0  0  0  0  0  0  0  0  0  0  0
    6.2461    2.6663    0.3790 O   0  0  0  0  0  0  0  0  0  0  0  0
   -0.4209    1.5474   -1.3976 O   0  0  0  0  0  0  0  0  0  0  0  0
   -1.7635   -3.3100    0.8507 O   0  0  0  0  0  0  0  0  0  0  0  0
   -2.7970    2.2754   -1.0373 O   0  0  0  0  0  0  0  0  0  0  0  0
   -4.1140   -2.4409    1.1005 O   0  0  0  0  0  0  0  0  0  0  0  0
   -5.1923    3.1542   -0.7901 O   0  0  0  0  0  0  0  0  0  0  0  0
    4.1557    3.8308    1.9415 N   0  0  0  0  0  0  0  0  0  0  0  0
    2.3357   -2.5676   -0.1254 C   0  0  2  0  0  0  0  0  0  0  0  0
    2.4825   -1.5883   -1.3005 C   0  0  0  0  0  0  0  0  0  0  0  0
    1.6281   -0.3302   -1.1140 C   0  0  1  0  0  0  0  0  0  0  0  0
    0.8683   -2.9953    0.0345 C   0  0  0  0  0  0  0  0  0  0  0  0
    0.2154   -0.6305   -0.6716 C   0  0  0  0  0  0  0  0  0  0  0  0
   -0.1292   -1.8668   -0.1005 C   0  0  0  0  0  0  0  0  0  0  0  0
    3.2238   -3.7974   -0.3343 C   0  0  0  0  0  0  0  0  0  0  0  0
    3.2221    1.3771   -0.8163 C   0  0  2  0  0  0  0  0  0  0  0  0
    3.3052    2.7118   -0.0732 C   0  0  0  0  0  0  0  0  0  0  0  0
    3.9932    2.5349    1.2852 C   0  0  1  0  0  0  0  0  0  0  0  0
    5.3456    1.8304    1.1078 C   0  0  1  0  0  0  0  0  0  0  0  0
    5.1496    0.5203    0.3306 C   0  0  2  0  0  0  0  0  0  0  0  0
   -0.7693    0.3633   -0.8089 C   0  0  0  0  0  0  0  0  0  0  0  0
   -1.4548   -2.0934    0.3071 C   0  0  0  0  0  0  0  0  0  0  0  0
   -2.0849    0.1314   -0.3919 C   0  0  0  0  0  0  0  0  0  0  0  0
   -2.4277   -1.0974    0.1663 C   0  0  0  0  0  0  0  0  0  0  0  0
    4.6812   -3.4053   -0.4621 C   0  0  0  0  0  0  0  0  0  0  0  0
    6.4705   -0.1824    0.0358 C   0  0  0  0  0  0  0  0  0  0  0  0
   -3.0994    1.1938   -0.5484 C   0  0  0  0  0  0  0  0  0  0  0  0
   -3.8126   -1.3604    0.6086 C   0  0  0  0  0  0  0  0  0  0  0  0
   -4.4847    0.9324   -0.1077 C   0  0  0  0  0  0  0  0  0  0  0  0
   -4.8290   -0.3003    0.4505 C   0  0  0  0  0  0  0  0  0  0  0  0
   -5.4569    1.9293   -0.2524 C   0  0  0  0  0  0  0  0  0  0  0  0
   -6.1454   -0.5364    0.8641 C   0  0  0  0  0  0  0  0  0  0  0  0
   -6.7675    1.6902    0.1615 C   0  0  0  0  0  0  0  0  0  0  0  0
   -7.1110    0.4600    0.7186 C   0  0  0  0  0  0  0  0  0  0  0  0
    2.1652   -2.0988   -2.2205 H   0  0  0  0  0  0  0  0  0  0  0  0
    3.5219   -1.2984   -1.4452 H   0  0  0  0  0  0  0  0  0  0  0  0
    1.5624    0.1370   -2.1065 H   0  0  0  0  0  0  0  0  0  0  0  0
    0.7564   -3.4637    1.0208 H   0  0  0  0  0  0  0  0  0  0  0  0
    0.6217   -3.7383   -0.7355 H   0  0  0  0  0  0  0  0  0  0  0  0
    2.9175   -4.3556   -1.2268 H   0  0  0  0  0  0  0  0  0  0  0  0
    3.1268   -4.4759    0.5227 H   0  0  0  0  0  0  0  0  0  0  0  0
    2.8978    1.6189   -1.8354 H   0  0  0  0  0  0  0  0  0  0  0  0
    2.2989    3.1248    0.0687 H   0  0  0  0  0  0  0  0  0  0  0  0
    3.8768    3.4226   -0.6842 H   0  0  0  0  0  0  0  0  0  0  0  0
    3.3570    1.9130    1.9273 H   0  0  0  0  0  0  0  0  0  0  0  0
    5.7940    1.6301    2.0887 H   0  0  0  0  0  0  0  0  0  0  0  0
    4.5256   -0.1602    0.9173 H   0  0  0  0  0  0  0  0  0  0  0  0
    2.6665   -2.5919    1.8125 H   0  0  0  0  0  0  0  0  0  0  0  0
    4.8955   -2.8851   -1.3989 H   0  0  0  0  0  0  0  0  0  0  0  0
    5.0182   -2.7985    0.3822 H   0  0  0  0  0  0  0  0  0  0  0  0
    5.2982   -4.3113   -0.4681 H   0  0  0  0  0  0  0  0  0  0  0  0
    7.0062   -0.4247    0.9583 H   0  0  0  0  0  0  0  0  0  0  0  0
    6.3011   -1.1045   -0.5250 H   0  0  0  0  0  0  0  0  0  0  0  0
    7.1195    0.4285   -0.6007 H   0  0  0  0  0  0  0  0  0  0  0  0
    3.2542    4.3032    1.9968 H   0  0  0  0  0  0  0  0  0  0  0  0
    4.7548    4.4306    1.3752 H   0  0  0  0  0  0  0  0  0  0  0  0
    7.1463    2.3303    0.5262 H   0  0  0  0  0  0  0  0  0  0  0  0
    0.5212    1.7300   -1.2564 H   0  0  0  0  0  0  0  0  0  0  0  0
   -1.1853   -4.0028    0.4947 H   0  0  0  0  0  0  0  0  0  0  0  0
   -6.4386   -1.4870    1.3012 H   0  0  0  0  0  0  0  0  0  0  0  0
   -7.5280    2.4590    0.0525 H   0  0  0  0  0  0  0  0  0  0  0  0
   -8.1322    0.2762    1.0398 H   0  0  0  0  0  0  0  0  0  0  0  0
   -4.2612    3.2226   -1.0483 H   0  0  0  0  0  0  0  0  0  0  0  0
  1 13  1  0  0  0  0
  1 18  1  0  0  0  0
  2 11  1  0  0  0  0
  2 50  1  0  0  0  0
  3 18  1  0  0  0  0
  3 22  1  0  0  0  0
  4 21  1  0  0  0  0
  4 59  1  0  0  0  0
  5 23  1  0  0  0  0
  5 60  1  0  0  0  0
  6 24  1  0  0  0  0
  6 61  1  0  0  0  0
  7 29  2  0  0  0  0
  8 30  2  0  0  0  0
  9 33  1  0  0  0  0
  9 65  1  0  0  0  0
 10 20  1  0  0  0  0
 10 57  1  0  0  0  0
 10 58  1  0  0  0  0
 11 12  1  0  0  0  0
 11 14  1  0  0  0  0
 11 17  1  0  0  0  0
 12 13  1  0  0  0  0
 12 37  1  0  0  0  0
 12 38  1  0  0  0  0
 13 15  1  0  0  0  0
 13 39  1  0  0  0  0
 14 16  1  0  0  0  0
 14 40  1  0  0  0  0
 14 41  1  0  0  0  0
 15 16  2  0  0  0  0
 15 23  1  0  0  0  0
 16 24  1  0  0  0  0
 17 27  1  0  0  0  0
 17 42  1  0  0  0  0
 17 43  1  0  0  0  0
 18 19  1  0  0  0  0
 18 44  1  0  0  0  0
 19 20  1  0  0  0  0
 19 45  1  0  0  0  0
 19 46  1  0  0  0  0
 20 21  1  0  0  0  0
 20 47  1  0  0  0  0
 21 22  1  0  0  0  0
 21 48  1  0  0  0  0
 22 28  1  0  0  0  0
 22 49  1  0  0  0  0
 23 25  2  0  0  0  0
 24 26  2  0  0  0  0
 25 26  1  0  0  0  0
 25 29  1  0  0  0  0
 26 30  1  0  0  0  0
 27 51  1  0  0  0  0
 27 52  1  0  0  0  0
 27 53  1  0  0  0  0
 28 54  1  0  0  0  0
 28 55  1  0  0  0  0
 28 56  1  0  0  0  0
 29 31  1  0  0  0  0
 30 32  1  0  0  0  0
 31 32  2  0  0  0  0
 31 33  1  0  0  0  0
 32 34  1  0  0  0  0
 33 35  2  0  0  0  0
 34 36  2  0  0  0  0
 34 62  1  0  0  0  0
 35 36  1  0  0  0  0
 35 63  1  0  0  0  0
 36 64  1  0  0  0  0
M  END
> <PUBCHEM_COMPOUND_CID>
443829

> <PUBCHEM_CONFORMER_RMSD>
0.8

> <PUBCHEM_CONFORMER_DIVERSEORDER>
1
9
11
12
8
7
4
3
6
5
10
2

> <PUBCHEM_MMFF94_PARTIAL_CHARGES>
41
1 -0.56
10 -0.99
11 0.28
13 0.42
14 0.14
15 -0.14
16 -0.14
18 0.56
2 -0.68
20 0.27
21 0.28
22 0.28
23 0.08
24 0.08
25 0.09
26 0.09
29 0.4
3 -0.56
30 0.4
31 0.09
32 0.09
33 0.08
34 -0.15
35 -0.15
36 -0.15
4 -0.68
5 -0.53
50 0.4
57 0.36
58 0.36
59 0.4
6 -0.53
60 0.45
61 0.45
62 0.15
63 0.15
64 0.15
65 0.45
7 -0.57
8 -0.57
9 -0.53

> <PUBCHEM_EFFECTIVE_ROTOR_COUNT>
5

> <PUBCHEM_PHARMACOPHORE_FEATURES>
19
1 1 acceptor
1 10 cation
1 10 donor
1 2 acceptor
1 2 donor
1 27 hydrophobe
1 3 acceptor
1 4 acceptor
1 4 donor
1 5 donor
1 6 donor
1 7 acceptor
1 8 acceptor
1 9 donor
6 11 12 13 14 15 16 rings
6 15 16 23 24 25 26 rings
6 25 26 29 30 31 32 rings
6 3 18 19 20 21 22 rings
6 31 32 33 34 35 36 rings

> <PUBCHEM_HEAVY_ATOM_COUNT>
36

> <PUBCHEM_ATOM_DEF_STEREO_COUNT>
6

> <PUBCHEM_ATOM_UDEF_STEREO_COUNT>
0

> <PUBCHEM_BOND_DEF_STEREO_COUNT>
0

> <PUBCHEM_BOND_UDEF_STEREO_COUNT>
0

> <PUBCHEM_ISOTOPIC_ATOM_COUNT>
0

> <PUBCHEM_COMPONENT_COUNT>
1

> <PUBCHEM_CACTVS_TAUTO_COUNT>
186

> <PUBCHEM_CONFORMER_ID>
0006C5B500000001

> <PUBCHEM_MMFF94_ENERGY>
113.8866

> <PUBCHEM_FEATURE_SELFOVERLAP>
96.52

> <PUBCHEM_SHAPE_FINGERPRINT>
10 15 18201434753304195217
10006869 2 18260548978280646053
10050765 1 18409729543358981079
10319926 262 18342741771739913752
11456790 92 17983005945107418923
11578080 2 18333448716779178403
12166972 35 18042969976365813339
12422481 6 18130506344690761292
12741549 16 17607538126587269706
12857493 111 17255681318216589303
12925494 130 18411142428457877585
131258 43 17389927179291407542
13140716 1 18200594821189468623
13402501 40 18409449159192823529
14790565 3 17910659987144975212
14849402 71 18409443726401734568
15183329 4 7493013959322908941
15927050 60 18336548218383160326
16112460 7 18264477572144854785
17913733 40 18334010575372777003
18608769 82 18343016688554699614
21033648 144 18343025536303543247
21033648 29 18116445735062871704
21130935 74 18339069493868069339
21133410 127 17988360360603846980
21452121 103 18412262852318587590
21792934 111 18201714107537544521
21859007 373 17416419868590250477
22122407 14 17313371306562463945
22149856 69 18127103434762608689
22182313 1 17845664749502282615
23559900 14 18271518792694757319
2838139 119 18260272936395133165
3298306 158 18334298630308145136
3383291 50 17560224848864828307
3411729 13 18412545410175559634
34797466 226 17822002147435071767
350125 39 18200304562893744855
392239 28 18261945259348024657
4073 2 18201148875901564859
4093350 32 17531522195550733663
4144715 1 18341321301506538155
4340502 62 18411134744692689725
5104073 3 18271235136586602577
5109719 28 18264758879169525689
5265222 85 18051684453021326620
9896288 288 17764034567495665258
9995097 60 18411417314870216902

> <PUBCHEM_SHAPE_MULTIPOLES>
683.06
16.56
4.46
1.16
9.6
0.75
0.1
-9.55
3.66
-4.96
0.86
-0.48
-0.45
2.87

> <PUBCHEM_SHAPE_SELFOVERLAP>
1513.904

> <PUBCHEM_SHAPE_VOLUME>
359.3

> <PUBCHEM_COORDINATE_TYPE>
2
5
10

$$$$

