9548884
  -OEChem-07051213063D

 55 54  0     1  0  0  0  0  0999 V2000
   -3.0976   -0.9080   -2.7202 O   0  0  0  0  0  0  0  0  0  0  0  0
    4.7886   -1.7871    1.0802 O   0  0  0  0  0  0  0  0  0  0  0  0
    5.3342    0.3610    0.5766 O   0  0  0  0  0  0  0  0  0  0  0  0
   -1.4006   -2.1458   -1.5049 C   0  0  0  0  0  0  0  0  0  0  0  0
   -0.6923   -2.4229   -0.1726 C   0  0  0  0  0  0  0  0  0  0  0  0
   -2.5121   -1.0865   -1.4311 C   0  0  2  0  0  0  0  0  0  0  0  0
    0.3832   -3.4982   -0.3369 C   0  0  0  0  0  0  0  0  0  0  0  0
   -3.6096   -1.4476   -0.4710 C   0  0  0  0  0  0  0  0  0  0  0  0
    1.1166   -3.7584    0.9691 C   0  0  0  0  0  0  0  0  0  0  0  0
   -4.0228   -0.7341    0.5885 C   0  0  0  0  0  0  0  0  0  0  0  0
    2.9306    0.8589   -0.7799 C   0  0  0  0  0  0  0  0  0  0  0  0
   -3.4790    0.5800    1.0678 C   0  0  0  0  0  0  0  0  0  0  0  0
    1.5930    0.9090   -1.5239 C   0  0  0  0  0  0  0  0  0  0  0  0
    3.2263   -0.5229   -0.2040 C   0  0  0  0  0  0  0  0  0  0  0  0
    1.3370    2.2782   -2.0845 C   0  0  0  0  0  0  0  0  0  0  0  0
   -2.8998    0.4663    2.4457 C   0  0  0  0  0  0  0  0  0  0  0  0
   -0.8209    2.8464   -0.8501 C   0  0  0  0  0  0  0  0  0  0  0  0
    0.3142    3.0988   -1.7987 C   0  0  0  0  0  0  0  0  0  0  0  0
   -0.5771    1.0279    1.7136 C   0  0  0  0  0  0  0  0  0  0  0  0
   -1.6068    0.6644    2.7422 C   0  0  0  0  0  0  0  0  0  0  0  0
   -0.4813    3.2862    0.5451 C   0  0  0  0  0  0  0  0  0  0  0  0
   -0.3770    2.5132    1.6380 C   0  0  0  0  0  0  0  0  0  0  0  0
    4.5530   -0.5789    0.5107 C   0  0  0  0  0  0  0  0  0  0  0  0
   -1.8215   -3.0809   -1.8989 H   0  0  0  0  0  0  0  0  0  0  0  0
   -0.6612   -1.8270   -2.2516 H   0  0  0  0  0  0  0  0  0  0  0  0
   -1.4141   -2.7487    0.5845 H   0  0  0  0  0  0  0  0  0  0  0  0
   -0.2265   -1.5032    0.1915 H   0  0  0  0  0  0  0  0  0  0  0  0
   -2.0516   -0.1352   -1.1718 H   0  0  0  0  0  0  0  0  0  0  0  0
   -0.0720   -4.4315   -0.6879 H   0  0  0  0  0  0  0  0  0  0  0  0
    1.1082   -3.1842   -1.0969 H   0  0  0  0  0  0  0  0  0  0  0  0
   -4.1286   -2.3833   -0.6736 H   0  0  0  0  0  0  0  0  0  0  0  0
    0.4280   -4.1280    1.7358 H   0  0  0  0  0  0  0  0  0  0  0  0
    1.8965   -4.5120    0.8221 H   0  0  0  0  0  0  0  0  0  0  0  0
    1.5904   -2.8483    1.3477 H   0  0  0  0  0  0  0  0  0  0  0  0
   -4.8479   -1.1452    1.1689 H   0  0  0  0  0  0  0  0  0  0  0  0
    3.7416    1.1513   -1.4601 H   0  0  0  0  0  0  0  0  0  0  0  0
    2.9276    1.5978    0.0325 H   0  0  0  0  0  0  0  0  0  0  0  0
   -4.3269    1.2754    1.1321 H   0  0  0  0  0  0  0  0  0  0  0  0
   -2.8125    1.0452    0.3472 H   0  0  0  0  0  0  0  0  0  0  0  0
    1.6113    0.1955   -2.3565 H   0  0  0  0  0  0  0  0  0  0  0  0
    0.7913    0.5858   -0.8581 H   0  0  0  0  0  0  0  0  0  0  0  0
   -2.3851   -0.6618   -3.3347 H   0  0  0  0  0  0  0  0  0  0  0  0
    2.4442   -0.7877    0.5149 H   0  0  0  0  0  0  0  0  0  0  0  0
    3.2405   -1.2677   -1.0071 H   0  0  0  0  0  0  0  0  0  0  0  0
    2.0703    2.6337   -2.8067 H   0  0  0  0  0  0  0  0  0  0  0  0
   -3.5816    0.2170    3.2557 H   0  0  0  0  0  0  0  0  0  0  0  0
   -1.1169    1.8015   -0.9091 H   0  0  0  0  0  0  0  0  0  0  0  0
   -1.6952    3.4139   -1.1917 H   0  0  0  0  0  0  0  0  0  0  0  0
    0.2999    4.0663   -2.2985 H   0  0  0  0  0  0  0  0  0  0  0  0
    0.3742    0.5742    2.0206 H   0  0  0  0  0  0  0  0  0  0  0  0
   -0.7995    0.5766    0.7498 H   0  0  0  0  0  0  0  0  0  0  0  0
   -1.2829    0.5759    3.7758 H   0  0  0  0  0  0  0  0  0  0  0  0
   -0.3018    4.3528    0.6738 H   0  0  0  0  0  0  0  0  0  0  0  0
   -0.1037    3.0067    2.5697 H   0  0  0  0  0  0  0  0  0  0  0  0
    5.6527   -1.8112    1.5438 H   0  0  0  0  0  0  0  0  0  0  0  0
  1  6  1  0  0  0  0
  1 42  1  0  0  0  0
  2 23  1  0  0  0  0
  2 55  1  0  0  0  0
  3 23  2  0  0  0  0
  4  5  1  0  0  0  0
  4  6  1  0  0  0  0
  4 24  1  0  0  0  0
  4 25  1  0  0  0  0
  5  7  1  0  0  0  0
  5 26  1  0  0  0  0
  5 27  1  0  0  0  0
  6  8  1  0  0  0  0
  6 28  1  0  0  0  0
  7  9  1  0  0  0  0
  7 29  1  0  0  0  0
  7 30  1  0  0  0  0
  8 10  2  0  0  0  0
  8 31  1  0  0  0  0
  9 32  1  0  0  0  0
  9 33  1  0  0  0  0
  9 34  1  0  0  0  0
 10 12  1  0  0  0  0
 10 35  1  0  0  0  0
 11 13  1  0  0  0  0
 11 14  1  0  0  0  0
 11 36  1  0  0  0  0
 11 37  1  0  0  0  0
 12 16  1  0  0  0  0
 12 38  1  0  0  0  0
 12 39  1  0  0  0  0
 13 15  1  0  0  0  0
 13 40  1  0  0  0  0
 13 41  1  0  0  0  0
 14 23  1  0  0  0  0
 14 43  1  0  0  0  0
 14 44  1  0  0  0  0
 15 18  2  0  0  0  0
 15 45  1  0  0  0  0
 16 20  2  0  0  0  0
 16 46  1  0  0  0  0
 17 18  1  0  0  0  0
 17 21  1  0  0  0  0
 17 47  1  0  0  0  0
 17 48  1  0  0  0  0
 18 49  1  0  0  0  0
 19 20  1  0  0  0  0
 19 22  1  0  0  0  0
 19 50  1  0  0  0  0
 19 51  1  0  0  0  0
 20 52  1  0  0  0  0
 21 22  2  0  0  0  0
 21 53  1  0  0  0  0
 22 54  1  0  0  0  0
M  END
> <PUBCHEM_COMPOUND_CID>
9548884

> <PUBCHEM_CONFORMER_RMSD>
1.4

> <PUBCHEM_CONFORMER_DIVERSEORDER>
1
103
158
84
126
5
98
54
131
134
144
124
140
79
154
63
41
23
143
105
121
45
119
60
91
10
93
130
148
22
73
27
145
72
8
67
83
153
4
29
24
86
155
160
77
118
82
150
88
109
56
17
113
81
151
44
132
37
25
120
104
35
71
156
61
55
128
122
97
80
107
21
65
129
76
111
50
136
142
39
115
99
11
38
95
138
133
52
16
123
68
152
161
159
157
51
43
7
2
125
36
9
100
110
58
28
13
69
127
57
135
31
101
40
90
26
33
89
139
18
137
14
49
66
34
48
106
47
53
78
114
146
42
19
149
15
147
20
94
96
102
6
87
3
116
112
46
70
64
85
62
108
12
92
117
30
141
75
32
59
74

> <PUBCHEM_MMFF94_PARTIAL_CHARGES>
28
1 -0.68
10 -0.29
12 0.28
13 0.14
14 0.06
15 -0.29
16 -0.29
17 0.28
18 -0.29
19 0.28
2 -0.65
20 -0.29
21 -0.29
22 -0.29
23 0.66
3 -0.57
31 0.15
35 0.15
42 0.4
45 0.15
46 0.15
49 0.15
52 0.15
53 0.15
54 0.15
55 0.5
6 0.42
8 -0.29

> <PUBCHEM_EFFECTIVE_ROTOR_COUNT>
14

> <PUBCHEM_PHARMACOPHORE_FEATURES>
7
1 1 acceptor
1 1 donor
1 2 acceptor
1 3 acceptor
1 9 hydrophobe
3 2 3 23 anion
4 11 13 14 15 hydrophobe

> <PUBCHEM_HEAVY_ATOM_COUNT>
23

> <PUBCHEM_ATOM_DEF_STEREO_COUNT>
1

> <PUBCHEM_ATOM_UDEF_STEREO_COUNT>
0

> <PUBCHEM_BOND_DEF_STEREO_COUNT>
4

> <PUBCHEM_BOND_UDEF_STEREO_COUNT>
0

> <PUBCHEM_ISOTOPIC_ATOM_COUNT>
0

> <PUBCHEM_COMPONENT_COUNT>
1

> <PUBCHEM_CACTVS_TAUTO_COUNT>
1

> <PUBCHEM_CONFORMER_ID>
0091B45400000001

> <PUBCHEM_MMFF94_ENERGY>
11.8215

> <PUBCHEM_FEATURE_SELFOVERLAP>
35.578

> <PUBCHEM_SHAPE_FINGERPRINT>
12156800 1 17689206469747335765
12422481 6 17907831235953542265
12633257 1 17749100115260597136
13965767 371 17611155519446207779
14251757 17 16056890095822388260
14840074 17 18340193180958834386
19777482 4 18343861113058050644
20600515 1 18336547093169469284
21315764 21 18057620767374696893
23419403 2 17243899737575960648
3027735 51 18269567202531546774
35225 105 17170982497264363629
445580 8 18264465421444607361
469060 322 18342460365303286074

> <PUBCHEM_SHAPE_MULTIPOLES>
455.72
7.45
4.57
2.6
6.97
0.83
-0.07
2.98
-1.97
0.71
0.69
-1.67
-0.94
-2.35

> <PUBCHEM_SHAPE_SELFOVERLAP>
861.883

> <PUBCHEM_SHAPE_VOLUME>
279.3

> <PUBCHEM_COORDINATE_TYPE>
2
5
10

$$$$

