854090
  -OEChem-06241222473D

 27 28  0     1  0  0  0  0  0999 V2000
    3.2836    2.6285   -0.0600 Cl  0  0  0  0  0  0  0  0  0  0  0  0
    0.2492   -2.3632    0.0232 N   0  0  0  0  0  0  0  0  0  0  0  0
   -3.9251    1.7831    0.1171 N   0  0  0  0  0  0  0  0  0  0  0  0
   -2.0567    0.3385    0.8696 C   0  0  0  0  0  0  0  0  0  0  0  0
   -0.9309   -0.5473    0.5096 C   0  0  0  0  0  0  0  0  0  0  0  0
   -2.8555    0.8908   -0.3398 C   0  0  1  0  0  0  0  0  0  0  0  0
    0.4115   -0.1503    0.2544 C   0  0  0  0  0  0  0  0  0  0  0  0
    1.1308   -1.3083   -0.0486 C   0  0  0  0  0  0  0  0  0  0  0  0
   -0.9992   -1.9132    0.3598 C   0  0  0  0  0  0  0  0  0  0  0  0
   -3.4845   -0.2228   -1.1772 C   0  0  0  0  0  0  0  0  0  0  0  0
    1.0857    1.0871    0.2520 C   0  0  0  0  0  0  0  0  0  0  0  0
    2.4961   -1.2907   -0.3554 C   0  0  0  0  0  0  0  0  0  0  0  0
    2.4513    1.1199   -0.0530 C   0  0  0  0  0  0  0  0  0  0  0  0
    3.1437   -0.0520   -0.3517 C   0  0  0  0  0  0  0  0  0  0  0  0
   -2.7413   -0.2037    1.5370 H   0  0  0  0  0  0  0  0  0  0  0  0
   -1.6777    1.1816    1.4628 H   0  0  0  0  0  0  0  0  0  0  0  0
   -2.1788    1.4677   -0.9823 H   0  0  0  0  0  0  0  0  0  0  0  0
   -1.8223   -2.6069    0.4621 H   0  0  0  0  0  0  0  0  0  0  0  0
    0.4896   -3.3297   -0.1482 H   0  0  0  0  0  0  0  0  0  0  0  0
   -4.1104    0.1927   -1.9756 H   0  0  0  0  0  0  0  0  0  0  0  0
   -4.1133   -0.8799   -0.5661 H   0  0  0  0  0  0  0  0  0  0  0  0
   -2.7205   -0.8349   -1.6664 H   0  0  0  0  0  0  0  0  0  0  0  0
    0.5474    2.0025    0.4829 H   0  0  0  0  0  0  0  0  0  0  0  0
    3.0358   -2.2025   -0.5880 H   0  0  0  0  0  0  0  0  0  0  0  0
   -4.3979    2.1930   -0.6875 H   0  0  0  0  0  0  0  0  0  0  0  0
   -3.5214    2.5598    0.6391 H   0  0  0  0  0  0  0  0  0  0  0  0
    4.2051   -0.0193   -0.5881 H   0  0  0  0  0  0  0  0  0  0  0  0
  1 13  1  0  0  0  0
  2  8  1  0  0  0  0
  2  9  1  0  0  0  0
  2 19  1  0  0  0  0
  3  6  1  0  0  0  0
  3 25  1  0  0  0  0
  3 26  1  0  0  0  0
  4  5  1  0  0  0  0
  4  6  1  0  0  0  0
  4 15  1  0  0  0  0
  4 16  1  0  0  0  0
  5  7  1  0  0  0  0
  5  9  2  0  0  0  0
  6 10  1  0  0  0  0
  6 17  1  0  0  0  0
  7  8  2  0  0  0  0
  7 11  1  0  0  0  0
  8 12  1  0  0  0  0
  9 18  1  0  0  0  0
 10 20  1  0  0  0  0
 10 21  1  0  0  0  0
 10 22  1  0  0  0  0
 11 13  2  0  0  0  0
 11 23  1  0  0  0  0
 12 14  2  0  0  0  0
 12 24  1  0  0  0  0
 13 14  1  0  0  0  0
 14 27  1  0  0  0  0
M  END
> <PUBCHEM_COMPOUND_CID>
854090

> <PUBCHEM_CONFORMER_RMSD>
0.6

> <PUBCHEM_CONFORMER_DIVERSEORDER>
1
6
9
10
8
5
7
3
4
2

> <PUBCHEM_MMFF94_PARTIAL_CHARGES>
19
1 -0.18
11 -0.15
12 -0.15
13 0.18
14 -0.15
18 0.15
19 0.27
2 0.03
23 0.15
24 0.15
25 0.36
26 0.36
27 0.15
3 -0.99
4 0.18
5 -0.18
6 0.27
8 -0.15
9 -0.3

> <PUBCHEM_EFFECTIVE_ROTOR_COUNT>
2

> <PUBCHEM_PHARMACOPHORE_FEATURES>
6
1 2 cation
1 2 donor
1 3 cation
1 3 donor
5 2 5 7 8 9 rings
6 7 8 11 12 13 14 rings

> <PUBCHEM_HEAVY_ATOM_COUNT>
14

> <PUBCHEM_ATOM_DEF_STEREO_COUNT>
1

> <PUBCHEM_ATOM_UDEF_STEREO_COUNT>
0

> <PUBCHEM_BOND_DEF_STEREO_COUNT>
0

> <PUBCHEM_BOND_UDEF_STEREO_COUNT>
0

> <PUBCHEM_ISOTOPIC_ATOM_COUNT>
0

> <PUBCHEM_COMPONENT_COUNT>
1

> <PUBCHEM_CACTVS_TAUTO_COUNT>
1

> <PUBCHEM_CONFORMER_ID>
000D084A00000001

> <PUBCHEM_MMFF94_ENERGY>
13.7918

> <PUBCHEM_FEATURE_SELFOVERLAP>
30.538

> <PUBCHEM_SHAPE_FINGERPRINT>
10149128 76 18411136905119391560
10608611 8 18339920424581319432
11206711 2 17902225611925658022
11471102 20 18267303316706134293
11769659 78 8214155040035955492
13380535 76 18337395937642027810
13380536 305 18339077198073572610
13583140 156 17131563734156608817
13897977 150 18411697673187209016
14250199 8 18334570295537321181
14614273 12 17976812091244657714
14897335 6 18337676304485501584
14911166 2 18337379556774067102
15279308 100 18340759373760322052
15775835 57 18336264638971902293
16945 1 18337096973495385802
18186145 218 18409450327354830213
20281407 28 8286202755664816499
20281475 54 8790888501161225041
20653085 51 18410571795045268859
21499 59 18411141311940401757
21501502 16 18339084778801736726
21524375 3 18342185427066255434
21639500 275 18340496658952788559
21947302 44 18410015424876204438
23382010 3 18189065217510937473
23402539 116 18189060965852303006
23402655 69 18261677081510823949
23559900 14 18261936489873651804
25 1 18341329010766858967
2748010 2 18265880385641062362
3060560 45 18263928911141341255
474 4 18411136965497139577
7832392 63 17831013898791046593
81228 2 17558532618137347027
84936 182 18187090558878460056

> <PUBCHEM_SHAPE_MULTIPOLES>
280.02
6.09
2.43
0.83
2.15
0.14
0.06
3.97
1.26
-0.96
-0.05
0.45
0
0.11

> <PUBCHEM_SHAPE_SELFOVERLAP>
588.902

> <PUBCHEM_SHAPE_VOLUME>
160.3

> <PUBCHEM_COORDINATE_TYPE>
2
5
10

$$$$

