11954129
  -OEChem-07051213073D

 23 25  0     0  0  0  0  0  0999 V2000
   -3.9196    2.1908   -0.0008 Cl  0  0  0  0  0  0  0  0  0  0  0  0
    0.2602   -1.8637    0.0001 O   0  0  0  0  0  0  0  0  0  0  0  0
   -4.4235   -0.7589    0.0001 O   0  0  0  0  0  0  0  0  0  0  0  0
    4.4004    1.6952    0.0003 O   0  0  0  0  0  0  0  0  0  0  0  0
   -0.3955    0.3007    0.0004 C   0  0  0  0  0  0  0  0  0  0  0  0
    1.0297    0.2628    0.0006 C   0  0  0  0  0  0  0  0  0  0  0  0
   -0.8141   -1.0263    0.0004 C   0  0  0  0  0  0  0  0  0  0  0  0
    1.3773   -1.0845    0.0000 C   0  0  0  0  0  0  0  0  0  0  0  0
   -1.3747    1.3110   -0.0004 C   0  0  0  0  0  0  0  0  0  0  0  0
    2.0613    1.2197    0.0007 C   0  0  0  0  0  0  0  0  0  0  0  0
   -2.1498   -1.4246    0.0000 C   0  0  0  0  0  0  0  0  0  0  0  0
    2.6900   -1.5533   -0.0006 C   0  0  0  0  0  0  0  0  0  0  0  0
   -2.7264    0.9409   -0.0001 C   0  0  0  0  0  0  0  0  0  0  0  0
   -3.1045   -0.4036    0.0003 C   0  0  0  0  0  0  0  0  0  0  0  0
    3.3914    0.7783   -0.0001 C   0  0  0  0  0  0  0  0  0  0  0  0
    3.6976   -0.5845   -0.0010 C   0  0  0  0  0  0  0  0  0  0  0  0
   -1.0802    2.3569   -0.0008 H   0  0  0  0  0  0  0  0  0  0  0  0
    1.8257    2.2801    0.0012 H   0  0  0  0  0  0  0  0  0  0  0  0
   -2.4226   -2.4738   -0.0001 H   0  0  0  0  0  0  0  0  0  0  0  0
    2.9198   -2.6122   -0.0010 H   0  0  0  0  0  0  0  0  0  0  0  0
    4.7371   -0.9049   -0.0016 H   0  0  0  0  0  0  0  0  0  0  0  0
   -4.4932   -1.7290    0.0002 H   0  0  0  0  0  0  0  0  0  0  0  0
    4.0153    2.5883    0.0010 H   0  0  0  0  0  0  0  0  0  0  0  0
  1 13  1  0  0  0  0
  2  7  1  0  0  0  0
  2  8  1  0  0  0  0
  3 14  1  0  0  0  0
  3 22  1  0  0  0  0
  4 15  1  0  0  0  0
  4 23  1  0  0  0  0
  5  6  1  0  0  0  0
  5  7  1  0  0  0  0
  5  9  2  0  0  0  0
  6  8  2  0  0  0  0
  6 10  1  0  0  0  0
  7 11  2  0  0  0  0
  8 12  1  0  0  0  0
  9 13  1  0  0  0  0
  9 17  1  0  0  0  0
 10 15  2  0  0  0  0
 10 18  1  0  0  0  0
 11 14  1  0  0  0  0
 11 19  1  0  0  0  0
 12 16  2  0  0  0  0
 12 20  1  0  0  0  0
 13 14  2  0  0  0  0
 15 16  1  0  0  0  0
 16 21  1  0  0  0  0
M  END
> <PUBCHEM_COMPOUND_CID>
11954129

> <PUBCHEM_CONFORMER_RMSD>
0.4

> <PUBCHEM_CONFORMER_DIVERSEORDER>
1

> <PUBCHEM_MMFF94_PARTIAL_CHARGES>
21
1 -0.18
10 -0.15
11 -0.15
12 -0.15
13 0.18
14 0.08
15 0.08
16 -0.15
17 0.15
18 0.15
19 0.15
2 -0.28
20 0.15
21 0.15
22 0.45
23 0.45
3 -0.53
4 -0.53
7 0.14
8 0.14
9 -0.15

> <PUBCHEM_EFFECTIVE_ROTOR_COUNT>
0

> <PUBCHEM_PHARMACOPHORE_FEATURES>
6
1 2 acceptor
1 3 donor
1 4 donor
5 2 5 6 7 8 rings
6 5 7 9 11 13 14 rings
6 6 8 10 12 15 16 rings

> <PUBCHEM_HEAVY_ATOM_COUNT>
16

> <PUBCHEM_ATOM_DEF_STEREO_COUNT>
0

> <PUBCHEM_ATOM_UDEF_STEREO_COUNT>
0

> <PUBCHEM_BOND_DEF_STEREO_COUNT>
0

> <PUBCHEM_BOND_UDEF_STEREO_COUNT>
0

> <PUBCHEM_ISOTOPIC_ATOM_COUNT>
0

> <PUBCHEM_COMPONENT_COUNT>
1

> <PUBCHEM_CACTVS_TAUTO_COUNT>
13

> <PUBCHEM_CONFORMER_ID>
00B667D100000001

> <PUBCHEM_MMFF94_ENERGY>
33.0311

> <PUBCHEM_FEATURE_SELFOVERLAP>
30.647

> <PUBCHEM_SHAPE_FINGERPRINT>
10411042 1 16248846517235360879
10608611 8 18410577300919249996
10967382 1 18410856521048426406
11132069 177 18410298042129690568
11471102 20 18410296891273627534
12390115 104 18262217980780660585
13140716 1 18340769367748280402
13380535 76 18411981326023815498
14144814 61 18411701001860599618
14325111 11 18410856576872542688
14415576 193 18410571803608764852
14897335 6 18410014350976144372
15196674 1 18410574002336653540
15219456 202 18410292535949832023
15442244 35 18194402418867047994
15536298 74 18335420179708347054
15775835 57 18410289228893761272
16945 1 18266741277127563110
18186145 218 18261103131977209468
200 152 18040158430617441711
20510252 161 18334292076457025113
20645477 70 18261675981624721542
21267235 1 18410566297244848550
21501502 16 18410859888255424179
22854114 111 18343018908746745222
23402539 116 18334022695686129300
23402655 69 18334017215355449229
23463225 33 18341333370279944726
23559900 14 18190183575745832758
2748010 2 18410852183094586326
335352 9 18122344841692322534
474 4 17488456387160482732
4990 188 18041267838393102660
5104073 3 18411981390110384425
633830 44 18335140946256126996
69090 78 18334298643172071479
7364860 26 18263925612923182990
77779 3 18410291432169597709
9709674 26 18409724071264288142

> <PUBCHEM_SHAPE_MULTIPOLES>
313.53
7.74
2.05
0.6
0.32
0.25
0
2.5
0
0.32
0
0.01
0.01
0

> <PUBCHEM_SHAPE_SELFOVERLAP>
702.929

> <PUBCHEM_SHAPE_VOLUME>
168.4

> <PUBCHEM_COORDINATE_TYPE>
2
5
10

$$$$

