5280863
  -OEChem-07051212503D

 31 33  0     0  0  0  0  0  0999 V2000
   -0.1128   -0.8909   -0.0017 O   0  0  0  0  0  0  0  0  0  0  0  0
    0.9956    2.6247   -0.0191 O   0  0  0  0  0  0  0  0  0  0  0  0
   -4.1670    1.7646    0.0025 O   0  0  0  0  0  0  0  0  0  0  0  0
   -1.7783    2.8281   -0.0053 O   0  0  0  0  0  0  0  0  0  0  0  0
   -4.3756   -2.9789   -0.0005 O   0  0  0  0  0  0  0  0  0  0  0  0
    6.1825   -0.8694   -0.0053 O   0  0  0  0  0  0  0  0  0  0  0  0
   -2.1071    0.4928    0.0012 C   0  0  0  0  0  0  0  0  0  0  0  0
   -1.4764   -0.7494    0.0002 C   0  0  0  0  0  0  0  0  0  0  0  0
    0.6707    0.2523    0.0098 C   0  0  0  0  0  0  0  0  0  0  0  0
   -1.2811    1.7099   -0.0003 C   0  0  0  0  0  0  0  0  0  0  0  0
    0.1879    1.5082    0.0025 C   0  0  0  0  0  0  0  0  0  0  0  0
    2.1150   -0.0408    0.0059 C   0  0  0  0  0  0  0  0  0  0  0  0
   -3.5018    0.5761    0.0019 C   0  0  0  0  0  0  0  0  0  0  0  0
   -2.2377   -1.9185   -0.0008 C   0  0  0  0  0  0  0  0  0  0  0  0
   -3.6304   -1.8396    0.0001 C   0  0  0  0  0  0  0  0  0  0  0  0
   -4.2610   -0.5947    0.0015 C   0  0  0  0  0  0  0  0  0  0  0  0
    2.8040   -0.1705    1.2120 C   0  0  0  0  0  0  0  0  0  0  0  0
    2.7935   -0.1896   -1.2039 C   0  0  0  0  0  0  0  0  0  0  0  0
    4.1709   -0.4487    1.2083 C   0  0  0  0  0  0  0  0  0  0  0  0
    4.1603   -0.4681   -1.2076 C   0  0  0  0  0  0  0  0  0  0  0  0
    4.8490   -0.5974   -0.0014 C   0  0  0  0  0  0  0  0  0  0  0  0
   -1.7487   -2.8895   -0.0022 H   0  0  0  0  0  0  0  0  0  0  0  0
   -5.3467   -0.5315    0.0020 H   0  0  0  0  0  0  0  0  0  0  0  0
    2.2887   -0.0578    2.1628 H   0  0  0  0  0  0  0  0  0  0  0  0
    2.2701   -0.0920   -2.1520 H   0  0  0  0  0  0  0  0  0  0  0  0
    4.6958   -0.5474    2.1548 H   0  0  0  0  0  0  0  0  0  0  0  0
    4.6831   -0.5832   -2.1531 H   0  0  0  0  0  0  0  0  0  0  0  0
    1.9285    2.3567   -0.0186 H   0  0  0  0  0  0  0  0  0  0  0  0
   -3.5413    2.5050    0.0071 H   0  0  0  0  0  0  0  0  0  0  0  0
   -5.3183   -2.7393    0.0003 H   0  0  0  0  0  0  0  0  0  0  0  0
    6.4954   -0.9249    0.9140 H   0  0  0  0  0  0  0  0  0  0  0  0
  1  8  1  0  0  0  0
  1  9  1  0  0  0  0
  2 11  1  0  0  0  0
  2 28  1  0  0  0  0
  3 13  1  0  0  0  0
  3 29  1  0  0  0  0
  4 10  2  0  0  0  0
  5 15  1  0  0  0  0
  5 30  1  0  0  0  0
  6 21  1  0  0  0  0
  6 31  1  0  0  0  0
  7  8  1  0  0  0  0
  7 10  1  0  0  0  0
  7 13  2  0  0  0  0
  8 14  2  0  0  0  0
  9 11  2  0  0  0  0
  9 12  1  0  0  0  0
 10 11  1  0  0  0  0
 12 17  2  0  0  0  0
 12 18  1  0  0  0  0
 13 16  1  0  0  0  0
 14 15  1  0  0  0  0
 14 22  1  0  0  0  0
 15 16  2  0  0  0  0
 16 23  1  0  0  0  0
 17 19  1  0  0  0  0
 17 24  1  0  0  0  0
 18 20  2  0  0  0  0
 18 25  1  0  0  0  0
 19 21  2  0  0  0  0
 19 26  1  0  0  0  0
 20 21  1  0  0  0  0
 20 27  1  0  0  0  0
M  END
> <PUBCHEM_COMPOUND_CID>
5280863

> <PUBCHEM_CONFORMER_RMSD>
0.6

> <PUBCHEM_CONFORMER_DIVERSEORDER>
1

> <PUBCHEM_MMFF94_PARTIAL_CHARGES>
31
1 -0.16
10 0.47
11 0.09
12 0.03
13 0.08
14 -0.15
15 0.08
16 -0.15
17 -0.15
18 -0.15
19 -0.15
2 -0.53
20 -0.15
21 0.08
22 0.15
23 0.15
24 0.15
25 0.15
26 0.15
27 0.15
28 0.45
29 0.45
3 -0.53
30 0.45
31 0.45
4 -0.57
5 -0.53
6 -0.53
7 0.09
8 0.08
9 0.05

> <PUBCHEM_EFFECTIVE_ROTOR_COUNT>
1

> <PUBCHEM_PHARMACOPHORE_FEATURES>
9
1 1 acceptor
1 2 donor
1 3 donor
1 4 acceptor
1 5 donor
1 6 donor
6 1 7 8 9 10 11 rings
6 12 17 18 19 20 21 rings
6 7 8 13 14 15 16 rings

> <PUBCHEM_HEAVY_ATOM_COUNT>
21

> <PUBCHEM_ATOM_DEF_STEREO_COUNT>
0

> <PUBCHEM_ATOM_UDEF_STEREO_COUNT>
0

> <PUBCHEM_BOND_DEF_STEREO_COUNT>
0

> <PUBCHEM_BOND_UDEF_STEREO_COUNT>
0

> <PUBCHEM_ISOTOPIC_ATOM_COUNT>
0

> <PUBCHEM_COMPONENT_COUNT>
1

> <PUBCHEM_CACTVS_TAUTO_COUNT>
126

> <PUBCHEM_CONFORMER_ID>
0050945F00000001

> <PUBCHEM_MMFF94_ENERGY>
63.6634

> <PUBCHEM_FEATURE_SELFOVERLAP>
45.697

> <PUBCHEM_SHAPE_FINGERPRINT>
10062212 137 18273495671868044547
10319926 262 18191045546028436786
10411042 1 18266740178328416615
10493431 412 18046054132858424113
10616163 171 18410291436444031222
11046707 91 18411699872384485915
11370993 144 16878493643922199603
11543360 7 15769776797550987435
12107183 9 17550676951428175050
12236239 1 17775001323803246974
12363563 72 18338229358591920167
12553582 1 18341897376784933995
13140716 1 18336826399356773121
13288520 33 18410573980930570791
13675066 3 17894634729433696362
13862211 1 18410294675608943167
14386348 63 17894629279605526974
14790565 3 17832698346574037457
15042514 8 18411414021310821923
15196674 1 18410855421494847460
15536298 74 18264209118986719649
16752209 62 18271536354868816859
16945 1 18410856603101412293
17492 89 17976823086667637631
17804303 29 18408042905253140305
18222031 100 18262525771275025991
19141452 34 17821728295709151167
200 152 16630526258683159844
20028762 73 17970909960468192143
21033648 29 17168157753166531506
21065201 7 18335703896747812962
21267235 1 18412538787209466691
221490 88 18197491823065499715
2297311 6 18335412478837279670
23366157 5 17986392174739186156
23402539 116 18411704300627734614
23557571 272 18187363294155560668
23559900 14 18262231248535544198
25147074 1 18268412573947397589
2748010 2 18265904553617293813
3004659 81 18131355172036452206
312423 11 18198894821598852853
335352 9 18411139126535154453
4214541 1 18410575097579655296
474 4 17058915664490110044
5104073 3 18335137553232171401
559249 180 18271811271330486482
573450 72 18272376398963935962
602551 16 18408608067489304490
7364860 26 18046062662135732008
7495541 125 18114183021726126912
77492 1 17704067443433633156
7970288 3 18338799987831712086
8863177 126 17556003703182271267
9709674 26 18124314904868705147

> <PUBCHEM_SHAPE_MULTIPOLES>
396.95
10.55
2.4
0.89
7.48
0.59
0
-4.96
0.01
-3.3
-0.01
1.05
-0.1
0.01

> <PUBCHEM_SHAPE_SELFOVERLAP>
889.871

> <PUBCHEM_SHAPE_VOLUME>
208.9

> <PUBCHEM_COORDINATE_TYPE>
2
5
10

$$$$

