442190
  -OEChem-07051212572D

 44 48  0     1  0  0  0  0  0999 V2000
    6.9742    0.6997    0.0000 O   0  0  0  0  0  0  0  0  0  0  0  0
    6.9742    2.3091    0.0000 O   0  0  0  0  0  0  0  0  0  0  0  0
    5.1619    3.5044    0.0000 O   0  0  0  0  0  0  0  0  0  0  0  0
    7.0184   -2.6326    0.0000 O   0  0  0  0  0  0  0  0  0  0  0  0
    5.2151   -3.6923    0.0000 O   0  0  0  0  0  0  0  0  0  0  0  0
    2.5466    1.0258    0.0000 N   0  0  0  0  0  0  0  0  0  0  0  0
    3.3859    0.4975    0.0000 C   0  0  2  0  0  0  0  0  0  0  0  0
    4.2959    1.0044    0.0000 C   0  0  0  0  0  0  0  0  0  0  0  0
    3.3779   -0.5441    0.0000 C   0  0  0  0  0  0  0  0  0  0  0  0
    4.2959    2.0044    0.0000 C   0  0  0  0  0  0  0  0  0  0  0  0
    5.1619    0.5044    0.0000 C   0  0  0  0  0  0  0  0  0  0  0  0
    3.4377    2.5013    0.0000 C   0  0  0  0  0  0  0  0  0  0  0  0
    2.5722    2.0172    0.0000 C   0  0  0  0  0  0  0  0  0  0  0  0
    4.2799   -1.0649    0.0000 C   0  0  0  0  0  0  0  0  0  0  0  0
    5.1780   -0.5371    0.0000 C   0  0  0  0  0  0  0  0  0  0  0  0
    6.0279    1.0044    0.0000 C   0  0  0  0  0  0  0  0  0  0  0  0
    5.1619    2.5044    0.0000 C   0  0  0  0  0  0  0  0  0  0  0  0
    6.0279    2.0044    0.0000 C   0  0  0  0  0  0  0  0  0  0  0  0
    4.2716   -2.1498    0.0000 C   0  0  0  0  0  0  0  0  0  0  0  0
    6.1299   -1.0577    0.0000 C   0  0  0  0  0  0  0  0  0  0  0  0
    6.1466   -2.1426    0.0000 C   0  0  0  0  0  0  0  0  0  0  0  0
    5.2112   -2.6923    0.0000 C   0  0  0  0  0  0  0  0  0  0  0  0
    7.5578    1.5044    0.0000 C   0  0  0  0  0  0  0  0  0  0  0  0
    6.0279    4.0044    0.0000 C   0  0  0  0  0  0  0  0  0  0  0  0
    7.0299   -3.6325    0.0000 C   0  0  0  0  0  0  0  0  0  0  0  0
    2.6402    0.0895    0.0000 H   0  0  0  0  0  0  0  0  0  0  0  0
    2.7678   -0.4333    0.0000 H   0  0  0  0  0  0  0  0  0  0  0  0
    3.1643   -1.1261    0.0000 H   0  0  0  0  0  0  0  0  0  0  0  0
    3.8387    2.9741    0.0000 H   0  0  0  0  0  0  0  0  0  0  0  0
    3.0436    2.9800    0.0000 H   0  0  0  0  0  0  0  0  0  0  0  0
    2.0000    0.7331    0.0000 H   0  0  0  0  0  0  0  0  0  0  0  0
    2.3704    2.6034    0.0000 H   0  0  0  0  0  0  0  0  0  0  0  0
    1.9594    1.9228    0.0000 H   0  0  0  0  0  0  0  0  0  0  0  0
    3.7334   -2.4578    0.0000 H   0  0  0  0  0  0  0  0  0  0  0  0
    6.6608   -0.7375    0.0000 H   0  0  0  0  0  0  0  0  0  0  0  0
    8.0186    1.0897    0.0000 H   0  0  0  0  0  0  0  0  0  0  0  0
    8.0186    1.9191    0.0000 H   0  0  0  0  0  0  0  0  0  0  0  0
    6.3379    3.4674    0.0000 H   0  0  0  0  0  0  0  0  0  0  0  0
    6.5649    4.3144    0.0000 H   0  0  0  0  0  0  0  0  0  0  0  0
    5.7179    4.5413    0.0000 H   0  0  0  0  0  0  0  0  0  0  0  0
    4.6793   -4.0044    0.0000 H   0  0  0  0  0  0  0  0  0  0  0  0
    6.4100   -3.6397    0.0000 H   0  0  0  0  0  0  0  0  0  0  0  0
    7.0371   -4.2524    0.0000 H   0  0  0  0  0  0  0  0  0  0  0  0
    7.6499   -3.6253    0.0000 H   0  0  0  0  0  0  0  0  0  0  0  0
  1 16  1  0  0  0  0
  1 23  1  0  0  0  0
  2 18  1  0  0  0  0
  2 23  1  0  0  0  0
  3 17  1  0  0  0  0
  3 24  1  0  0  0  0
  4 21  1  0  0  0  0
  4 25  1  0  0  0  0
  5 22  1  0  0  0  0
  5 41  1  0  0  0  0
  6  7  1  0  0  0  0
  6 13  1  0  0  0  0
  6 31  1  0  0  0  0
  7  8  1  0  0  0  0
  7  9  1  0  0  0  0
  7 26  1  1  0  0  0
  8 10  2  0  0  0  0
  8 11  1  0  0  0  0
  9 14  1  0  0  0  0
  9 27  1  0  0  0  0
  9 28  1  0  0  0  0
 10 12  1  0  0  0  0
 10 17  1  0  0  0  0
 11 15  1  0  0  0  0
 11 16  2  0  0  0  0
 12 13  1  0  0  0  0
 12 29  1  0  0  0  0
 12 30  1  0  0  0  0
 13 32  1  0  0  0  0
 13 33  1  0  0  0  0
 14 15  1  0  0  0  0
 14 19  2  0  0  0  0
 15 20  2  0  0  0  0
 16 18  1  0  0  0  0
 17 18  2  0  0  0  0
 19 22  1  0  0  0  0
 19 34  1  0  0  0  0
 20 21  1  0  0  0  0
 20 35  1  0  0  0  0
 21 22  2  0  0  0  0
 23 36  1  0  0  0  0
 23 37  1  0  0  0  0
 24 38  1  0  0  0  0
 24 39  1  0  0  0  0
 24 40  1  0  0  0  0
 25 42  1  0  0  0  0
 25 43  1  0  0  0  0
 25 44  1  0  0  0  0
M  END
> <PUBCHEM_COMPOUND_CID>
442190

> <PUBCHEM_COMPOUND_CANONICALIZED>
1

> <PUBCHEM_CACTVS_COMPLEXITY>
504

> <PUBCHEM_CACTVS_HBOND_ACCEPTOR>
6

> <PUBCHEM_CACTVS_HBOND_DONOR>
2

> <PUBCHEM_CACTVS_ROTATABLE_BOND>
2

> <PUBCHEM_CACTVS_SUBSKEYS>
AAADceB6OAAAAAAAAAAAAAAAAAAAASAAAAA8YMEAAAAAAEjxQAAAHgAQCAAADCzBmAcyDoLABgCAAiBCAACCCAAgIAAAiIAOjIgdJyKGsRukcCtl0BWPuAew8P8OoAADCAAYQADQAAaQADSAAAAAAAAAAA==

> <PUBCHEM_IUPAC_INCHI>
InChI=1S/C19H19NO5/c1-22-14-7-11-9(6-13(14)21)5-12-15-10(3-4-20-12)17(23-2)19-18(16(11)15)24-8-25-19/h6-7,12,20-21H,3-5,8H2,1-2H3/t12-/m0/s1

> <PUBCHEM_IUPAC_INCHIKEY>
FZXIOJQNDYKPCE-LBPRGKRZSA-N

> <PUBCHEM_XLOGP3_AA>
2.4

> <PUBCHEM_EXACT_MASS>
341.126323

> <PUBCHEM_MOLECULAR_FORMULA>
C19H19NO5

> <PUBCHEM_MOLECULAR_WEIGHT>
341.35786

> <PUBCHEM_OPENEYE_CAN_SMILES>
COC1=C(C=C2CC3C4=C(C2=C1)C5=C(C(=C4CCN3)OC)OCO5)O

> <PUBCHEM_OPENEYE_ISO_SMILES>
COC1=C(C=C2C[C@H]3C4=C(C2=C1)C5=C(C(=C4CCN3)OC)OCO5)O

> <PUBCHEM_CACTVS_TPSA>
69.2

> <PUBCHEM_MONOISOTOPIC_WEIGHT>
341.126323

> <PUBCHEM_TOTAL_CHARGE>
0

> <PUBCHEM_HEAVY_ATOM_COUNT>
25

> <PUBCHEM_ATOM_DEF_STEREO_COUNT>
1

> <PUBCHEM_ATOM_UDEF_STEREO_COUNT>
0

> <PUBCHEM_BOND_DEF_STEREO_COUNT>
0

> <PUBCHEM_BOND_UDEF_STEREO_COUNT>
0

> <PUBCHEM_ISOTOPIC_ATOM_COUNT>
0

> <PUBCHEM_COMPONENT_COUNT>
1

> <PUBCHEM_CACTVS_TAUTO_COUNT>
9

> <PUBCHEM_COORDINATE_TYPE>
1
5
255

> <PUBCHEM_BONDANNOTATIONS>
10  17  8
11  16  8
14  15  8
14  19  8
15  20  8
16  18  8
17  18  8
19  22  8
20  21  8
21  22  8
7  26  5
8  10  8
8  11  8

$$$$

