20054929
  -OEChem-07051213093D

 71 75  0     1  0  0  0  0  0999 V2000
    0.0221   -2.4157   -0.5391 O   0  0  0  0  0  0  0  0  0  0  0  0
    3.0300    1.8210   -1.0466 O   0  0  0  0  0  0  0  0  0  0  0  0
   -0.4589   -1.5670    1.5804 O   0  0  0  0  0  0  0  0  0  0  0  0
    2.3158    2.2514    1.1751 O   0  0  0  0  0  0  0  0  0  0  0  0
    0.2835   -6.2485    0.9128 O   0  0  0  0  0  0  0  0  0  0  0  0
    1.3956   -5.6138   -1.6787 O   0  0  0  0  0  0  0  0  0  0  0  0
    0.5400   -3.9489    2.7367 O   0  0  0  0  0  0  0  0  0  0  0  0
    6.5769    2.9048    0.8101 O   0  0  0  0  0  0  0  0  0  0  0  0
    6.1679    0.1971    0.0054 O   0  0  0  0  0  0  0  0  0  0  0  0
    4.6901    4.1550   -0.8091 O   0  0  0  0  0  0  0  0  0  0  0  0
    0.7343   -1.6797   -3.0900 O   0  0  0  0  0  0  0  0  0  0  0  0
   -2.9256   -1.2997    0.9439 O   0  0  0  0  0  0  0  0  0  0  0  0
   -2.2341    3.8520   -0.2971 O   0  0  0  0  0  0  0  0  0  0  0  0
   -5.4150   -1.1980    0.3499 O   0  0  0  0  0  0  0  0  0  0  0  0
    0.7836   -4.9583    0.5584 C   0  0  1  0  0  0  0  0  0  0  0  0
    0.5387   -4.7504   -0.9362 C   0  0  1  0  0  0  0  0  0  0  0  0
    0.0718   -3.8906    1.3895 C   0  0  2  0  0  0  0  0  0  0  0  0
    0.8144   -3.2987   -1.3350 C   0  0  1  0  0  0  0  0  0  0  0  0
    5.2840    2.3224    0.6604 C   0  0  2  0  0  0  0  0  0  0  0  0
    5.3335    1.2631   -0.4413 C   0  0  2  0  0  0  0  0  0  0  0  0
    0.3476   -2.4884    0.8470 C   0  0  1  0  0  0  0  0  0  0  0  0
    4.2589    3.4085    0.3300 C   0  0  2  0  0  0  0  0  0  0  0  0
    3.9198    0.7434   -0.7370 C   0  0  2  0  0  0  0  0  0  0  0  0
    2.9010    2.7934   -0.0038 C   0  0  1  0  0  0  0  0  0  0  0  0
    0.4650   -3.0386   -2.7970 C   0  0  0  0  0  0  0  0  0  0  0  0
    3.8985   -0.2088   -1.9296 C   0  0  0  0  0  0  0  0  0  0  0  0
   -0.3535   -0.2496    1.2453 C   0  0  0  0  0  0  0  0  0  0  0  0
    1.0857    1.6814    1.0502 C   0  0  0  0  0  0  0  0  0  0  0  0
   -1.4378    0.5111    0.7920 C   0  0  0  0  0  0  0  0  0  0  0  0
    0.9054    0.3380    1.3732 C   0  0  0  0  0  0  0  0  0  0  0  0
   -1.2571    1.8574    0.4681 C   0  0  0  0  0  0  0  0  0  0  0  0
    0.0078    2.4431    0.5979 C   0  0  0  0  0  0  0  0  0  0  0  0
   -2.7670   -0.1194    0.6600 C   0  0  0  0  0  0  0  0  0  0  0  0
   -2.3925    2.6715   -0.0117 C   0  0  0  0  0  0  0  0  0  0  0  0
   -3.9027    0.6949    0.1809 C   0  0  0  0  0  0  0  0  0  0  0  0
   -3.7219    2.0411   -0.1431 C   0  0  0  0  0  0  0  0  0  0  0  0
   -5.1679    0.1095    0.0523 C   0  0  0  0  0  0  0  0  0  0  0  0
   -4.8064    2.8020   -0.5960 C   0  0  0  0  0  0  0  0  0  0  0  0
   -6.0654    2.2147   -0.7227 C   0  0  0  0  0  0  0  0  0  0  0  0
   -6.2459    0.8713   -0.3994 C   0  0  0  0  0  0  0  0  0  0  0  0
   -7.2201    3.0261   -1.2061 C   0  0  0  0  0  0  0  0  0  0  0  0
    1.8572   -4.9758    0.7797 H   0  0  0  0  0  0  0  0  0  0  0  0
   -0.4946   -5.0246   -1.1819 H   0  0  0  0  0  0  0  0  0  0  0  0
   -1.0070   -4.0840    1.4208 H   0  0  0  0  0  0  0  0  0  0  0  0
    1.8730   -3.0436   -1.1892 H   0  0  0  0  0  0  0  0  0  0  0  0
    5.0363    1.8482    1.6183 H   0  0  0  0  0  0  0  0  0  0  0  0
    5.7937    1.6841   -1.3429 H   0  0  0  0  0  0  0  0  0  0  0  0
    1.4084   -2.2467    0.9917 H   0  0  0  0  0  0  0  0  0  0  0  0
    4.1843    4.1061    1.1720 H   0  0  0  0  0  0  0  0  0  0  0  0
    3.5389    0.1863    0.1261 H   0  0  0  0  0  0  0  0  0  0  0  0
    2.2592    3.5882   -0.4016 H   0  0  0  0  0  0  0  0  0  0  0  0
   -0.6002   -3.2142   -2.9806 H   0  0  0  0  0  0  0  0  0  0  0  0
    1.0569   -3.6669   -3.4694 H   0  0  0  0  0  0  0  0  0  0  0  0
    2.8765   -0.5460   -2.1220 H   0  0  0  0  0  0  0  0  0  0  0  0
    4.5271   -1.0870   -1.7555 H   0  0  0  0  0  0  0  0  0  0  0  0
    4.2411    0.2956   -2.8396 H   0  0  0  0  0  0  0  0  0  0  0  0
   -0.6741   -6.2587    0.7437 H   0  0  0  0  0  0  0  0  0  0  0  0
    2.3152   -5.3689   -1.4787 H   0  0  0  0  0  0  0  0  0  0  0  0
    1.4974   -3.7790    2.7311 H   0  0  0  0  0  0  0  0  0  0  0  0
    6.5150    3.5778    1.5092 H   0  0  0  0  0  0  0  0  0  0  0  0
    1.7514   -0.2280    1.7536 H   0  0  0  0  0  0  0  0  0  0  0  0
    5.7529   -0.2028    0.7886 H   0  0  0  0  0  0  0  0  0  0  0  0
    4.0471    4.8702   -0.9527 H   0  0  0  0  0  0  0  0  0  0  0  0
    0.1500    3.4951    0.3655 H   0  0  0  0  0  0  0  0  0  0  0  0
    0.5035   -1.5358   -4.0235 H   0  0  0  0  0  0  0  0  0  0  0  0
   -4.6789    3.8507   -0.8536 H   0  0  0  0  0  0  0  0  0  0  0  0
   -7.2263    0.4113   -0.4997 H   0  0  0  0  0  0  0  0  0  0  0  0
   -7.2635    3.0031   -2.2995 H   0  0  0  0  0  0  0  0  0  0  0  0
   -8.1673    2.6441   -0.8102 H   0  0  0  0  0  0  0  0  0  0  0  0
   -7.1337    4.0679   -0.8788 H   0  0  0  0  0  0  0  0  0  0  0  0
   -4.6077   -1.6418    0.6494 H   0  0  0  0  0  0  0  0  0  0  0  0
  1 18  1  0  0  0  0
  1 21  1  0  0  0  0
  2 23  1  0  0  0  0
  2 24  1  0  0  0  0
  3 21  1  0  0  0  0
  3 27  1  0  0  0  0
  4 24  1  0  0  0  0
  4 28  1  0  0  0  0
  5 15  1  0  0  0  0
  5 57  1  0  0  0  0
  6 16  1  0  0  0  0
  6 58  1  0  0  0  0
  7 17  1  0  0  0  0
  7 59  1  0  0  0  0
  8 19  1  0  0  0  0
  8 60  1  0  0  0  0
  9 20  1  0  0  0  0
  9 62  1  0  0  0  0
 10 22  1  0  0  0  0
 10 63  1  0  0  0  0
 11 25  1  0  0  0  0
 11 65  1  0  0  0  0
 12 33  2  0  0  0  0
 13 34  2  0  0  0  0
 14 37  1  0  0  0  0
 14 71  1  0  0  0  0
 15 16  1  0  0  0  0
 15 17  1  0  0  0  0
 15 42  1  0  0  0  0
 16 18  1  0  0  0  0
 16 43  1  0  0  0  0
 17 21  1  0  0  0  0
 17 44  1  0  0  0  0
 18 25  1  0  0  0  0
 18 45  1  0  0  0  0
 19 20  1  0  0  0  0
 19 22  1  0  0  0  0
 19 46  1  0  0  0  0
 20 23  1  0  0  0  0
 20 47  1  0  0  0  0
 21 48  1  0  0  0  0
 22 24  1  0  0  0  0
 22 49  1  0  0  0  0
 23 26  1  0  0  0  0
 23 50  1  0  0  0  0
 24 51  1  0  0  0  0
 25 52  1  0  0  0  0
 25 53  1  0  0  0  0
 26 54  1  0  0  0  0
 26 55  1  0  0  0  0
 26 56  1  0  0  0  0
 27 29  1  0  0  0  0
 27 30  2  0  0  0  0
 28 30  1  0  0  0  0
 28 32  2  0  0  0  0
 29 31  2  0  0  0  0
 29 33  1  0  0  0  0
 30 61  1  0  0  0  0
 31 32  1  0  0  0  0
 31 34  1  0  0  0  0
 32 64  1  0  0  0  0
 33 35  1  0  0  0  0
 34 36  1  0  0  0  0
 35 36  2  0  0  0  0
 35 37  1  0  0  0  0
 36 38  1  0  0  0  0
 37 40  2  0  0  0  0
 38 39  2  0  0  0  0
 38 66  1  0  0  0  0
 39 40  1  0  0  0  0
 39 41  1  0  0  0  0
 40 67  1  0  0  0  0
 41 68  1  0  0  0  0
 41 69  1  0  0  0  0
 41 70  1  0  0  0  0
M  END
> <PUBCHEM_COMPOUND_CID>
20054929

> <PUBCHEM_CONFORMER_RMSD>
1.2

> <PUBCHEM_CONFORMER_DIVERSEORDER>
1
143
44
106
134
161
101
104
162
76
37
131
49
128
114
74
11
119
53
145
18
144
141
132
103
156
80
117
87
158
139
71
91
26
30
55
15
12
151
52
66
136
149
150
51
155
90
108
152
81
38
57
25
99
113
96
47
133
102
130
109
116
107
9
159
14
50
129
78
148
67
20
138
118
5
112
4
62
68
36
13
70
8
28
54
111
75
160
92
56
63
95
6
48
163
120
157
69
127
41
77
60
146
39
98
83
10
135
73
110
137
126
85
46
121
29
42
93
2
153
154
16
64
35
165
7
3
164
94
27
97
31
72
43
84
125
88
124
142
115
61
140
79
34
123
33
122
105
58
82
147
24
65
32
89
40
21
23
59
17
45
100
86
19
22

> <PUBCHEM_MMFF94_PARTIAL_CHARGES>
52
1 -0.56
10 -0.68
11 -0.68
12 -0.57
13 -0.57
14 -0.53
15 0.28
16 0.28
17 0.28
18 0.28
19 0.28
2 -0.56
20 0.28
21 0.56
22 0.28
23 0.28
24 0.56
25 0.28
27 0.08
28 0.08
29 0.09
3 -0.36
30 -0.15
31 0.09
32 -0.15
33 0.4
34 0.4
35 0.09
36 0.09
37 0.08
38 -0.15
39 -0.14
4 -0.36
40 -0.15
41 0.14
5 -0.68
57 0.4
58 0.4
59 0.4
6 -0.68
60 0.4
61 0.15
62 0.4
63 0.4
64 0.15
65 0.4
66 0.15
67 0.15
7 -0.68
71 0.45
8 -0.68
9 -0.68

> <PUBCHEM_EFFECTIVE_ROTOR_COUNT>
7.4

> <PUBCHEM_PHARMACOPHORE_FEATURES>
26
1 1 acceptor
1 10 acceptor
1 10 donor
1 11 acceptor
1 11 donor
1 12 acceptor
1 13 acceptor
1 14 donor
1 2 acceptor
1 3 acceptor
1 4 acceptor
1 5 acceptor
1 5 donor
1 6 acceptor
1 6 donor
1 7 acceptor
1 7 donor
1 8 acceptor
1 8 donor
1 9 acceptor
1 9 donor
6 1 15 16 17 18 21 rings
6 2 19 20 22 23 24 rings
6 27 28 29 30 31 32 rings
6 29 31 33 34 35 36 rings
6 35 36 37 38 39 40 rings

> <PUBCHEM_HEAVY_ATOM_COUNT>
41

> <PUBCHEM_ATOM_DEF_STEREO_COUNT>
10

> <PUBCHEM_ATOM_UDEF_STEREO_COUNT>
0

> <PUBCHEM_BOND_DEF_STEREO_COUNT>
0

> <PUBCHEM_BOND_UDEF_STEREO_COUNT>
0

> <PUBCHEM_ISOTOPIC_ATOM_COUNT>
0

> <PUBCHEM_COMPONENT_COUNT>
1

> <PUBCHEM_CACTVS_TAUTO_COUNT>
12

> <PUBCHEM_CONFORMER_ID>
0132039100000001

> <PUBCHEM_MMFF94_ENERGY>
142.4542

> <PUBCHEM_FEATURE_SELFOVERLAP>
132.108

> <PUBCHEM_SHAPE_FINGERPRINT>
10653451 467 18048021987957114003
10675989 125 18335977687770068632
10721379 63 18121214539808199673
11135926 11 18341623641951720541
11297010 23 18269010828579868429
11488393 25 18264481969943225027
11578080 2 17272583978006028549
11991303 11 18195808470784597476
12156800 1 16735273377076630214
12202916 173 18187359987473835574
12516196 113 8358261453410002833
13757389 114 17981318993865727437
14040221 310 17541658314908639972
14068700 675 17262155242844301963
14725015 67 18265334083487237108
15274700 242 18265922205937817544
15351334 14 18199202840186091309
15439362 3 18268717276313038417
15444296 8 17471566630000472758
15484559 13 18338799030533072302
15664445 248 18121781896124058954
15968369 26 18198916979573198899
16993438 75 18047756988553727470
18681886 176 18200039425714983897
19311894 1 17397564008747428271
19315092 285 13913155911612092708
20197701 30 18410292497448360620
21133410 230 17769052866443832203
21133665 82 18410573964710868968
21344244 246 18190742140389757230
23559900 14 18051142689961637227
24180151 248 17983294017740354885
25019877 29 18340204098908652269
3298306 158 18409164419871500163
38695281 34 18409169900249893409
4017518 198 18334856135208522886
4280585 95 17401208270769114059
4461854 278 18051396389622982035
44802255 64 18194951960222676100
45266715 3 18189887786128337710
5085150 59 18409739464948751672
5265222 85 18268143171712663237
6669772 16 18334013887161820766

> <PUBCHEM_SHAPE_MULTIPOLES>
761.59
12.98
7.84
1.86
9.55
11.77
-0.75
-17.99
-3.4
-6.77
-0.2
-0.97
2.13
1.8

> <PUBCHEM_SHAPE_SELFOVERLAP>
1667.083

> <PUBCHEM_SHAPE_VOLUME>
405.8

> <PUBCHEM_COORDINATE_TYPE>
2
5
10

$$$$

