5562
  -OEChem-06261200442D

 44 44  0     1  0  0  0  0  0999 V2000
    2.0000   -0.4050    0.0000 O   0  0  0  0  0  0  0  0  0  0  0  0
    4.5981    4.0950    0.0000 O   0  0  0  0  0  0  0  0  0  0  0  0
    6.3301    5.0950    0.0000 O   0  0  0  0  0  0  0  0  0  0  0  0
    2.8660   -4.9050    0.0000 N   0  0  0  0  0  0  0  0  0  0  0  0
    6.3301    4.0950    0.0000 N   0  0  0  0  0  0  0  0  0  0  0  0
    3.7320   -0.4050    0.0000 C   0  0  3  0  0  0  0  0  0  0  0  0
    2.8660   -0.9050    0.0000 C   0  0  0  0  0  0  0  0  0  0  0  0
    2.8660   -1.9050    0.0000 C   0  0  0  0  0  0  0  0  0  0  0  0
    3.7320    0.5950    0.0000 C   0  0  0  0  0  0  0  0  0  0  0  0
    4.5981   -0.9050    0.0000 C   0  0  0  0  0  0  0  0  0  0  0  0
    2.8660   -3.9050    0.0000 C   0  0  0  0  0  0  0  0  0  0  0  0
    2.0000   -2.4050    0.0000 C   0  0  0  0  0  0  0  0  0  0  0  0
    3.7320   -2.4050    0.0000 C   0  0  0  0  0  0  0  0  0  0  0  0
    2.0000   -3.4050    0.0000 C   0  0  0  0  0  0  0  0  0  0  0  0
    3.7320   -3.4050    0.0000 C   0  0  0  0  0  0  0  0  0  0  0  0
    4.5981    1.0950    0.0000 C   0  0  0  0  0  0  0  0  0  0  0  0
    5.4641    0.5950    0.0000 C   0  0  0  0  0  0  0  0  0  0  0  0
    2.0000   -5.4050    0.0000 C   0  0  0  0  0  0  0  0  0  0  0  0
    3.7320   -5.4050    0.0000 C   0  0  0  0  0  0  0  0  0  0  0  0
    4.5981    2.0950    0.0000 C   0  0  0  0  0  0  0  0  0  0  0  0
    5.4641    2.5950    0.0000 C   0  0  0  0  0  0  0  0  0  0  0  0
    5.4641    3.5950    0.0000 C   0  0  0  0  0  0  0  0  0  0  0  0
    3.7320   -1.2550    0.0000 H   0  0  0  0  0  0  0  0  0  0  0  0
    3.1951    0.9050    0.0000 H   0  0  0  0  0  0  0  0  0  0  0  0
    4.2881   -1.4419    0.0000 H   0  0  0  0  0  0  0  0  0  0  0  0
    5.1350   -1.2150    0.0000 H   0  0  0  0  0  0  0  0  0  0  0  0
    4.9081   -0.3681    0.0000 H   0  0  0  0  0  0  0  0  0  0  0  0
    1.4631   -2.0950    0.0000 H   0  0  0  0  0  0  0  0  0  0  0  0
    4.2690   -2.0950    0.0000 H   0  0  0  0  0  0  0  0  0  0  0  0
    1.4631   -3.7150    0.0000 H   0  0  0  0  0  0  0  0  0  0  0  0
    4.2690   -3.7150    0.0000 H   0  0  0  0  0  0  0  0  0  0  0  0
    5.1541    0.0581    0.0000 H   0  0  0  0  0  0  0  0  0  0  0  0
    6.0010    0.2850    0.0000 H   0  0  0  0  0  0  0  0  0  0  0  0
    5.7741    1.1319    0.0000 H   0  0  0  0  0  0  0  0  0  0  0  0
    1.6900   -4.8681    0.0000 H   0  0  0  0  0  0  0  0  0  0  0  0
    1.4631   -5.7150    0.0000 H   0  0  0  0  0  0  0  0  0  0  0  0
    2.3100   -5.9419    0.0000 H   0  0  0  0  0  0  0  0  0  0  0  0
    3.4220   -5.9419    0.0000 H   0  0  0  0  0  0  0  0  0  0  0  0
    4.2690   -5.7150    0.0000 H   0  0  0  0  0  0  0  0  0  0  0  0
    4.0420   -4.8681    0.0000 H   0  0  0  0  0  0  0  0  0  0  0  0
    4.0611    2.4050    0.0000 H   0  0  0  0  0  0  0  0  0  0  0  0
    6.0010    2.2850    0.0000 H   0  0  0  0  0  0  0  0  0  0  0  0
    6.8671    3.7850    0.0000 H   0  0  0  0  0  0  0  0  0  0  0  0
    6.8671    5.4050    0.0000 H   0  0  0  0  0  0  0  0  0  0  0  0
  1  7  2  0  0  0  0
  2 22  2  0  0  0  0
  3  5  1  0  0  0  0
  3 44  1  0  0  0  0
  4 11  1  0  0  0  0
  4 18  1  0  0  0  0
  4 19  1  0  0  0  0
  5 22  1  0  0  0  0
  5 43  1  0  0  0  0
  6  7  1  0  0  0  0
  6  9  1  0  0  0  0
  6 10  1  0  0  0  0
  6 23  1  0  0  0  0
  7  8  1  0  0  0  0
  8 12  2  0  0  0  0
  8 13  1  0  0  0  0
  9 16  2  3  0  0  0
  9 24  1  0  0  0  0
 10 25  1  0  0  0  0
 10 26  1  0  0  0  0
 10 27  1  0  0  0  0
 11 14  2  0  0  0  0
 11 15  1  0  0  0  0
 12 14  1  0  0  0  0
 12 28  1  0  0  0  0
 13 15  2  0  0  0  0
 13 29  1  0  0  0  0
 14 30  1  0  0  0  0
 15 31  1  0  0  0  0
 16 17  1  0  0  0  0
 16 20  1  0  0  0  0
 17 32  1  0  0  0  0
 17 33  1  0  0  0  0
 17 34  1  0  0  0  0
 18 35  1  0  0  0  0
 18 36  1  0  0  0  0
 18 37  1  0  0  0  0
 19 38  1  0  0  0  0
 19 39  1  0  0  0  0
 19 40  1  0  0  0  0
 20 21  2  3  0  0  0
 20 41  1  0  0  0  0
 21 22  1  0  0  0  0
 21 42  1  0  0  0  0
M  END
> <PUBCHEM_COMPOUND_CID>
5562

> <PUBCHEM_COMPOUND_CANONICALIZED>
1

> <PUBCHEM_CACTVS_COMPLEXITY>
447

> <PUBCHEM_CACTVS_HBOND_ACCEPTOR>
4

> <PUBCHEM_CACTVS_HBOND_DONOR>
2

> <PUBCHEM_CACTVS_ROTATABLE_BOND>
6

> <PUBCHEM_CACTVS_SUBSKEYS>
AAADceB7MAAAAAAAAAAAAAAAAAAAAAAAAAAwAAAAAAAAAAABAAAAHgAUCAAADQyBmAQywINQAACIAqVSUACCAAAlAgAoiAEIZMgIIDLAlZGEIQhgkABIyYcYicCeCAAAAAAAAAAQAAAAAAAAAAAAAAAAAA==

> <PUBCHEM_IUPAC_OPENEYE_NAME>
7-[4-(dimethylamino)phenyl]-4,6-dimethyl-7-oxo-hepta-2,4-dienehydroxamic acid

> <PUBCHEM_IUPAC_CAS_NAME>
7-[4-(dimethylamino)phenyl]-N-hydroxy-4,6-dimethyl-7-oxohepta-2,4-dienamide

> <PUBCHEM_IUPAC_NAME>
7-[4-(dimethylamino)phenyl]-N-hydroxy-4,6-dimethyl-7-oxohepta-2,4-dienamide

> <PUBCHEM_IUPAC_SYSTEMATIC_NAME>
7-[4-(dimethylamino)phenyl]-4,6-dimethyl-N-oxidanyl-7-oxidanylidene-hepta-2,4-dienamide

> <PUBCHEM_IUPAC_TRADITIONAL_NAME>
7-[4-(dimethylamino)phenyl]-7-keto-4,6-dimethyl-hepta-2,4-dienehydroxamic acid

> <PUBCHEM_IUPAC_INCHI>
InChI=1S/C17H22N2O3/c1-12(5-10-16(20)18-22)11-13(2)17(21)14-6-8-15(9-7-14)19(3)4/h5-11,13,22H,1-4H3,(H,18,20)

> <PUBCHEM_IUPAC_INCHIKEY>
RTKIYFITIVXBLE-UHFFFAOYSA-N

> <PUBCHEM_XLOGP3_AA>
2.7

> <PUBCHEM_EXACT_MASS>
302.163043

> <PUBCHEM_MOLECULAR_FORMULA>
C17H22N2O3

> <PUBCHEM_MOLECULAR_WEIGHT>
302.36818

> <PUBCHEM_OPENEYE_CAN_SMILES>
CC(C=C(C)C=CC(=O)NO)C(=O)C1=CC=C(C=C1)N(C)C

> <PUBCHEM_OPENEYE_ISO_SMILES>
CC(C=C(C)C=CC(=O)NO)C(=O)C1=CC=C(C=C1)N(C)C

> <PUBCHEM_CACTVS_TPSA>
69.6

> <PUBCHEM_MONOISOTOPIC_WEIGHT>
302.163043

> <PUBCHEM_TOTAL_CHARGE>
0

> <PUBCHEM_HEAVY_ATOM_COUNT>
22

> <PUBCHEM_ATOM_DEF_STEREO_COUNT>
0

> <PUBCHEM_ATOM_UDEF_STEREO_COUNT>
1

> <PUBCHEM_BOND_DEF_STEREO_COUNT>
0

> <PUBCHEM_BOND_UDEF_STEREO_COUNT>
2

> <PUBCHEM_ISOTOPIC_ATOM_COUNT>
0

> <PUBCHEM_COMPONENT_COUNT>
1

> <PUBCHEM_CACTVS_TAUTO_COUNT>
23

> <PUBCHEM_COORDINATE_TYPE>
1
5
255

> <PUBCHEM_BONDANNOTATIONS>
11  14  8
11  15  8
12  14  8
13  15  8
20  21  1
6  23  3
8  12  8
8  13  8
9  16  1

$$$$

