65626
  -OEChem-07051213153D

 24 23  0     0  0  0  0  0  0999 V2000
   -4.0004   -0.5307    0.2068 S   0  0  0  0  0  0  0  0  0  0  0  0
    3.8601   -0.7239    0.0730 S   0  0  0  0  0  0  0  0  0  0  0  0
   -0.3481    1.4843   -1.0445 S   0  0  0  0  0  0  0  0  0  0  0  0
    0.8633    2.4194    0.3281 S   0  0  0  0  0  0  0  0  0  0  0  0
   -4.9787   -1.0522   -0.9895 O   0  0  0  0  0  0  0  0  0  0  0  0
    4.3266   -1.1515   -1.4302 O   0  0  0  0  0  0  0  0  0  0  0  0
   -4.6500    0.5690    0.8958 O   0  0  0  0  0  0  0  0  0  0  0  0
   -3.4889   -1.6824    0.9265 O   0  0  0  0  0  0  0  0  0  0  0  0
    3.1033   -1.8162    0.6558 O   0  0  0  0  0  0  0  0  0  0  0  0
    4.9915   -0.1307    0.7615 O   0  0  0  0  0  0  0  0  0  0  0  0
   -2.7138    0.1164   -0.8161 C   0  0  0  0  0  0  0  0  0  0  0  0
    2.7416    0.5618   -0.3923 C   0  0  0  0  0  0  0  0  0  0  0  0
   -1.6825    0.8591    0.0130 C   0  0  0  0  0  0  0  0  0  0  0  0
    1.9760    1.0776    0.8120 C   0  0  0  0  0  0  0  0  0  0  0  0
   -2.2703   -0.7300   -1.3511 H   0  0  0  0  0  0  0  0  0  0  0  0
   -3.1861    0.7908   -1.5390 H   0  0  0  0  0  0  0  0  0  0  0  0
    3.3367    1.3513   -0.8639 H   0  0  0  0  0  0  0  0  0  0  0  0
    2.0817    0.1136   -1.1403 H   0  0  0  0  0  0  0  0  0  0  0  0
   -1.2578    0.1888    0.7681 H   0  0  0  0  0  0  0  0  0  0  0  0
   -2.1518    1.7018    0.5318 H   0  0  0  0  0  0  0  0  0  0  0  0
    2.6699    1.4680    1.5642 H   0  0  0  0  0  0  0  0  0  0  0  0
    1.3998    0.2820    1.2963 H   0  0  0  0  0  0  0  0  0  0  0  0
   -5.4386   -0.3451   -1.5004 H   0  0  0  0  0  0  0  0  0  0  0  0
    3.6529   -1.6373   -1.9618 H   0  0  0  0  0  0  0  0  0  0  0  0
  1  5  1  0  0  0  0
  1  7  2  0  0  0  0
  1  8  2  0  0  0  0
  1 11  1  0  0  0  0
  2  6  1  0  0  0  0
  2  9  2  0  0  0  0
  2 10  2  0  0  0  0
  2 12  1  0  0  0  0
  3  4  1  0  0  0  0
  3 13  1  0  0  0  0
  4 14  1  0  0  0  0
  5 23  1  0  0  0  0
  6 24  1  0  0  0  0
 11 13  1  0  0  0  0
 11 15  1  0  0  0  0
 11 16  1  0  0  0  0
 12 14  1  0  0  0  0
 12 17  1  0  0  0  0
 12 18  1  0  0  0  0
 13 19  1  0  0  0  0
 13 20  1  0  0  0  0
 14 21  1  0  0  0  0
 14 22  1  0  0  0  0
M  END
> <PUBCHEM_COMPOUND_CID>
65626

> <PUBCHEM_CONFORMER_RMSD>
0.8

> <PUBCHEM_CONFORMER_DIVERSEORDER>
1
46
31
3
37
11
35
34
38
28
39
4
36
44
12
2
5
25
29
26
41
23
40
17
9
6
42
47
7
14
32
27
33
10
15
49
18
8
16
21
30
13
22
24
45
48
20
43
19

> <PUBCHEM_MMFF94_PARTIAL_CHARGES>
16
1 1.38
10 -0.65
11 0.11
12 0.11
13 0.23
14 0.23
2 1.38
23 0.5
24 0.5
3 -0.23
4 -0.23
5 -0.68
6 -0.68
7 -0.65
8 -0.65
9 -0.65

> <PUBCHEM_EFFECTIVE_ROTOR_COUNT>
7

> <PUBCHEM_PHARMACOPHORE_FEATURES>
9
1 10 acceptor
1 5 acceptor
1 6 acceptor
1 7 acceptor
1 8 acceptor
1 9 acceptor
4 1 5 7 8 anion
4 2 6 9 10 anion
4 3 4 13 14 hydrophobe

> <PUBCHEM_HEAVY_ATOM_COUNT>
14

> <PUBCHEM_ATOM_DEF_STEREO_COUNT>
0

> <PUBCHEM_ATOM_UDEF_STEREO_COUNT>
0

> <PUBCHEM_BOND_DEF_STEREO_COUNT>
0

> <PUBCHEM_BOND_UDEF_STEREO_COUNT>
0

> <PUBCHEM_ISOTOPIC_ATOM_COUNT>
0

> <PUBCHEM_COMPONENT_COUNT>
1

> <PUBCHEM_CACTVS_TAUTO_COUNT>
1

> <PUBCHEM_CONFORMER_ID>
0001005A00000001

> <PUBCHEM_MMFF94_ENERGY>
3.7679

> <PUBCHEM_FEATURE_SELFOVERLAP>
45.777

> <PUBCHEM_SHAPE_FINGERPRINT>
11128504 68 14692567702223899157
12006461 19 18413388709375906153
12596602 18 16515689909550346658
13533116 47 18190743025669581915
14123255 352 7276826887757641496
14123255 52 9079113354048615880
14251710 61 18411134736087034653
14251764 30 17967805094259815550
14252887 29 17967252014230585740
17834072 8 18060431222538516877
17834074 16 18342458123119380538
193927 3 18411129234233895980
19782 4 9583513201083938180
20281475 54 18343020012305875292
20374829 77 18060426810900124353
20388580 30 18202561761497346972
20403669 9 18411700993349994263
20432913 95 18040716956685956846
20645477 70 18335428919597698549
20671657 53 17489586766391284604
20724930 31 18412548708562775832
20767249 462 8934997079440732820
20871999 31 17203331147361315093
21354914 76 18335139778093892668
2215653 11 18271817808982439103
22485316 2 18413110588689597268
231179 274 8358260358577729996
23402655 69 11743838075570889328
23590187 173 11095884848051526300
328317 168 8790882973807515769
351380 180 7565343115352236882
4416823 128 18413110562877634500
5352402 22 17749104517511936894
548570 60 8574710195666692487
94968 8 18413389834905030100

> <PUBCHEM_SHAPE_MULTIPOLES>
268.3
11.29
2.05
1.14
2.75
0.45
0.19
-6.43
-0.37
-0.62
-0.19
-0.04
-0.07
0.32

> <PUBCHEM_SHAPE_SELFOVERLAP>
459.865

> <PUBCHEM_SHAPE_VOLUME>
180.5

> <PUBCHEM_COORDINATE_TYPE>
2
5
10

$$$$

