349497
  -OEChem-07051213083D

 18 18  0     0  0  0  0  0  0999 V2000
    2.6497    0.9768   -0.5212 O   0  0  0  0  0  0  0  0  0  0  0  0
   -1.2204   -2.8952   -0.1356 O   0  0  0  0  0  0  0  0  0  0  0  0
    2.3067   -1.0213    0.5064 O   0  0  0  0  0  0  0  0  0  0  0  0
   -0.2523   -1.9257   -0.0933 N   0  0  0  0  0  0  0  0  0  0  0  0
    0.4480    0.4106    0.0388 C   0  0  0  0  0  0  0  0  0  0  0  0
   -0.5624   -0.5487   -0.0292 C   0  0  0  0  0  0  0  0  0  0  0  0
    0.1206    1.7651    0.1008 C   0  0  0  0  0  0  0  0  0  0  0  0
   -1.9002   -0.1534   -0.0351 C   0  0  0  0  0  0  0  0  0  0  0  0
   -1.2172    2.1603    0.0949 C   0  0  0  0  0  0  0  0  0  0  0  0
   -2.2276    1.2011    0.0269 C   0  0  0  0  0  0  0  0  0  0  0  0
    1.8550    0.0304    0.0467 C   0  0  0  0  0  0  0  0  0  0  0  0
    0.8831    2.5367    0.1682 H   0  0  0  0  0  0  0  0  0  0  0  0
   -2.7080   -0.8784   -0.0878 H   0  0  0  0  0  0  0  0  0  0  0  0
   -1.4726    3.2146    0.1464 H   0  0  0  0  0  0  0  0  0  0  0  0
   -3.2691    1.5091    0.0229 H   0  0  0  0  0  0  0  0  0  0  0  0
    0.7084   -2.2420   -0.0971 H   0  0  0  0  0  0  0  0  0  0  0  0
    3.5947    0.7136   -0.5122 H   0  0  0  0  0  0  0  0  0  0  0  0
   -1.0784   -3.2812   -1.0166 H   0  0  0  0  0  0  0  0  0  0  0  0
  1 11  1  0  0  0  0
  1 17  1  0  0  0  0
  2  4  1  0  0  0  0
  2 18  1  0  0  0  0
  3 11  2  0  0  0  0
  4  6  1  0  0  0  0
  4 16  1  0  0  0  0
  5  6  1  0  0  0  0
  5  7  2  0  0  0  0
  5 11  1  0  0  0  0
  6  8  2  0  0  0  0
  7  9  1  0  0  0  0
  7 12  1  0  0  0  0
  8 10  1  0  0  0  0
  8 13  1  0  0  0  0
  9 10  2  0  0  0  0
  9 14  1  0  0  0  0
 10 15  1  0  0  0  0
M  END
> <PUBCHEM_COMPOUND_CID>
349497

> <PUBCHEM_CONFORMER_RMSD>
0.4

> <PUBCHEM_CONFORMER_DIVERSEORDER>
1
4
7
5
3
6
8
2
9

> <PUBCHEM_MMFF94_PARTIAL_CHARGES>
18
1 -0.65
10 -0.15
11 0.63
12 0.15
13 0.15
14 0.15
15 0.15
16 0.4
17 0.5
18 0.4
2 -0.38
3 -0.57
4 -0.52
5 0.09
6 0.1
7 -0.15
8 -0.15
9 -0.15

> <PUBCHEM_EFFECTIVE_ROTOR_COUNT>
2

> <PUBCHEM_PHARMACOPHORE_FEATURES>
5
1 1 acceptor
1 2 anion
1 3 acceptor
3 1 3 11 anion
6 5 6 7 8 9 10 rings

> <PUBCHEM_HEAVY_ATOM_COUNT>
11

> <PUBCHEM_ATOM_DEF_STEREO_COUNT>
0

> <PUBCHEM_ATOM_UDEF_STEREO_COUNT>
0

> <PUBCHEM_BOND_DEF_STEREO_COUNT>
0

> <PUBCHEM_BOND_UDEF_STEREO_COUNT>
0

> <PUBCHEM_ISOTOPIC_ATOM_COUNT>
0

> <PUBCHEM_COMPONENT_COUNT>
1

> <PUBCHEM_CACTVS_TAUTO_COUNT>
3

> <PUBCHEM_CONFORMER_ID>
0005553900000001

> <PUBCHEM_MMFF94_ENERGY>
37.5307

> <PUBCHEM_FEATURE_SELFOVERLAP>
25.429

> <PUBCHEM_SHAPE_FINGERPRINT>
12423570 1 17702956811597828261
161256 15 17472414353175083669
16945 1 18338519625229509689
18185500 45 18196652895630170484
193761 8 17833551198108093561
20871998 184 18187642436469131750
21040471 1 18409450327375935536
23552423 10 17833828652868593861
241688 4 16177350781274009097
2748010 2 18339639065610904309
5084963 1 17970351622759863688
66348 1 18265337192172991421

> <PUBCHEM_SHAPE_MULTIPOLES>
203.79
3.02
2.55
0.62
0.85
1.81
0
-1.02
-0.04
-0.41
0.15
0.05
-0.05
-0.22

> <PUBCHEM_SHAPE_SELFOVERLAP>
427.605

> <PUBCHEM_SHAPE_VOLUME>
114.7

> <PUBCHEM_COORDINATE_TYPE>
2
5
10

$$$$

