443451
  -OEChem-07051213023D

 53 56  0     1  0  0  0  0  0999 V2000
   -3.3281   -0.3146   -2.2564 O   0  0  0  0  0  0  0  0  0  0  0  0
    0.5706    3.3730    0.5619 O   0  0  0  0  0  0  0  0  0  0  0  0
   -0.1348    2.6789   -1.4915 O   0  0  0  0  0  0  0  0  0  0  0  0
   -2.0898    1.0913    2.1497 O   0  0  0  0  0  0  0  0  0  0  0  0
   -3.5069   -0.6719    1.8688 O   0  0  0  0  0  0  0  0  0  0  0  0
    1.4918    0.3175    0.1018 C   0  0  1  0  0  0  0  0  0  0  0  0
    1.0953   -1.0527   -0.5534 C   0  0  2  0  0  0  0  0  0  0  0  0
   -0.3794   -1.2816   -0.1235 C   0  0  1  0  0  0  0  0  0  0  0  0
   -0.9174    0.1611   -0.3540 C   0  0  2  0  0  0  0  0  0  0  0  0
    0.1448    1.0778    0.2979 C   0  0  2  0  0  0  0  0  0  0  0  0
    2.2589    0.1418    1.4235 C   0  0  0  0  0  0  0  0  0  0  0  0
   -2.4275    0.3341   -0.0568 C   0  0  2  0  0  0  0  0  0  0  0  0
    2.6014    0.9867   -0.7474 C   0  0  0  0  0  0  0  0  0  0  0  0
    3.5300   -0.5514    0.9462 C   0  0  1  0  0  0  0  0  0  0  0  0
    2.0945   -2.2113   -0.3909 C   0  0  0  0  0  0  0  0  0  0  0  0
   -1.1513   -2.2363   -1.0544 C   0  0  0  0  0  0  0  0  0  0  0  0
    3.1858   -2.0193    0.6697 C   0  0  0  0  0  0  0  0  0  0  0  0
    3.8338    0.2273   -0.3138 C   0  0  0  0  0  0  0  0  0  0  0  0
   -0.4817   -1.7962    1.3299 C   0  0  0  0  0  0  0  0  0  0  0  0
   -3.2336   -0.7160   -0.8853 C   0  0  2  0  0  0  0  0  0  0  0  0
   -2.6723   -2.1488   -0.8431 C   0  0  0  0  0  0  0  0  0  0  0  0
    0.1665    2.4377   -0.3320 C   0  0  0  0  0  0  0  0  0  0  0  0
   -2.9097    1.7557   -0.4059 C   0  0  0  0  0  0  0  0  0  0  0  0
   -2.7515    0.1705    1.4071 C   0  0  0  0  0  0  0  0  0  0  0  0
    5.0105    0.2469   -0.9480 C   0  0  0  0  0  0  0  0  0  0  0  0
    1.0532   -0.8815   -1.6421 H   0  0  0  0  0  0  0  0  0  0  0  0
   -0.8424    0.3413   -1.4407 H   0  0  0  0  0  0  0  0  0  0  0  0
   -0.0313    1.1969    1.3672 H   0  0  0  0  0  0  0  0  0  0  0  0
    1.7367   -0.4444    2.1816 H   0  0  0  0  0  0  0  0  0  0  0  0
    2.4883    1.1170    1.8750 H   0  0  0  0  0  0  0  0  0  0  0  0
    2.7354    2.0415   -0.4832 H   0  0  0  0  0  0  0  0  0  0  0  0
    2.4185    0.9082   -1.8236 H   0  0  0  0  0  0  0  0  0  0  0  0
    4.3277   -0.4686    1.6913 H   0  0  0  0  0  0  0  0  0  0  0  0
    2.6118   -2.3265   -1.3545 H   0  0  0  0  0  0  0  0  0  0  0  0
    1.5854   -3.1694   -0.2392 H   0  0  0  0  0  0  0  0  0  0  0  0
   -0.8218   -3.2713   -0.9034 H   0  0  0  0  0  0  0  0  0  0  0  0
   -0.9349   -1.9956   -2.1033 H   0  0  0  0  0  0  0  0  0  0  0  0
    2.8516   -2.4864    1.6051 H   0  0  0  0  0  0  0  0  0  0  0  0
    4.0857   -2.5665    0.3624 H   0  0  0  0  0  0  0  0  0  0  0  0
   -1.4702   -2.1865    1.5775 H   0  0  0  0  0  0  0  0  0  0  0  0
    0.2079   -2.6276    1.5062 H   0  0  0  0  0  0  0  0  0  0  0  0
   -0.2642   -1.0258    2.0712 H   0  0  0  0  0  0  0  0  0  0  0  0
   -4.2702   -0.7474   -0.5256 H   0  0  0  0  0  0  0  0  0  0  0  0
   -3.1547   -2.7576   -1.6184 H   0  0  0  0  0  0  0  0  0  0  0  0
   -2.9382   -2.6156    0.1106 H   0  0  0  0  0  0  0  0  0  0  0  0
   -2.4526    2.5339    0.2133 H   0  0  0  0  0  0  0  0  0  0  0  0
   -2.7062    2.0065   -1.4523 H   0  0  0  0  0  0  0  0  0  0  0  0
   -3.9936    1.8419   -0.2581 H   0  0  0  0  0  0  0  0  0  0  0  0
    5.8546   -0.3244   -0.5773 H   0  0  0  0  0  0  0  0  0  0  0  0
    5.1498    0.8341   -1.8491 H   0  0  0  0  0  0  0  0  0  0  0  0
   -3.9077   -0.9490   -2.7114 H   0  0  0  0  0  0  0  0  0  0  0  0
    0.5935    4.2707    0.1673 H   0  0  0  0  0  0  0  0  0  0  0  0
   -2.2856    0.9997    3.1064 H   0  0  0  0  0  0  0  0  0  0  0  0
  1 20  1  0  0  0  0
  1 51  1  0  0  0  0
  2 22  1  0  0  0  0
  2 52  1  0  0  0  0
  3 22  2  0  0  0  0
  4 24  1  0  0  0  0
  4 53  1  0  0  0  0
  5 24  2  0  0  0  0
  6  7  1  0  0  0  0
  6 10  1  0  0  0  0
  6 11  1  0  0  0  0
  6 13  1  0  0  0  0
  7  8  1  0  0  0  0
  7 15  1  0  0  0  0
  7 26  1  0  0  0  0
  8  9  1  0  0  0  0
  8 16  1  0  0  0  0
  8 19  1  0  0  0  0
  9 10  1  0  0  0  0
  9 12  1  0  0  0  0
  9 27  1  0  0  0  0
 10 22  1  0  0  0  0
 10 28  1  0  0  0  0
 11 14  1  0  0  0  0
 11 29  1  0  0  0  0
 11 30  1  0  0  0  0
 12 20  1  0  0  0  0
 12 23  1  0  0  0  0
 12 24  1  0  0  0  0
 13 18  1  0  0  0  0
 13 31  1  0  0  0  0
 13 32  1  0  0  0  0
 14 17  1  0  0  0  0
 14 18  1  0  0  0  0
 14 33  1  0  0  0  0
 15 17  1  0  0  0  0
 15 34  1  0  0  0  0
 15 35  1  0  0  0  0
 16 21  1  0  0  0  0
 16 36  1  0  0  0  0
 16 37  1  0  0  0  0
 17 38  1  0  0  0  0
 17 39  1  0  0  0  0
 18 25  2  0  0  0  0
 19 40  1  0  0  0  0
 19 41  1  0  0  0  0
 19 42  1  0  0  0  0
 20 21  1  0  0  0  0
 20 43  1  0  0  0  0
 21 44  1  0  0  0  0
 21 45  1  0  0  0  0
 23 46  1  0  0  0  0
 23 47  1  0  0  0  0
 23 48  1  0  0  0  0
 25 49  1  0  0  0  0
 25 50  1  0  0  0  0
M  END
> <PUBCHEM_COMPOUND_CID>
443451

> <PUBCHEM_CONFORMER_RMSD>
0.8

> <PUBCHEM_CONFORMER_DIVERSEORDER>
1

> <PUBCHEM_MMFF94_PARTIAL_CHARGES>
19
1 -0.68
10 0.06
12 0.06
13 0.14
14 0.14
18 -0.28
2 -0.65
20 0.28
22 0.66
24 0.66
25 -0.3
3 -0.57
4 -0.65
49 0.15
5 -0.57
50 0.15
51 0.4
52 0.5
53 0.5

> <PUBCHEM_EFFECTIVE_ROTOR_COUNT>
3.8

> <PUBCHEM_PHARMACOPHORE_FEATURES>
11
1 1 acceptor
1 1 donor
1 2 acceptor
1 3 acceptor
1 4 acceptor
1 5 acceptor
3 2 3 22 anion
3 4 5 24 anion
5 6 7 8 9 10 rings
6 8 9 12 16 20 21 rings
8 6 7 11 13 14 15 17 18 rings

> <PUBCHEM_HEAVY_ATOM_COUNT>
25

> <PUBCHEM_ATOM_DEF_STEREO_COUNT>
8

> <PUBCHEM_ATOM_UDEF_STEREO_COUNT>
0

> <PUBCHEM_BOND_DEF_STEREO_COUNT>
0

> <PUBCHEM_BOND_UDEF_STEREO_COUNT>
0

> <PUBCHEM_ISOTOPIC_ATOM_COUNT>
0

> <PUBCHEM_COMPONENT_COUNT>
1

> <PUBCHEM_CACTVS_TAUTO_COUNT>
1

> <PUBCHEM_CONFORMER_ID>
0006C43B00000001

> <PUBCHEM_MMFF94_ENERGY>
108.2618

> <PUBCHEM_FEATURE_SELFOVERLAP>
56.044

> <PUBCHEM_SHAPE_FINGERPRINT>
104564 63 18339639057226931900
10498660 4 18410299112067047436
10863032 1 15285633343396412159
10948715 1 18054511580414317749
10967382 1 18265339580227620654
11132069 177 18334585658946425994
11578080 2 17897477001499682929
12403814 3 18340206392040879265
12491281 212 18040711497793417739
12553582 1 18410573976925617432
12633257 1 17531248421640178474
12788726 201 18127700533030841920
13132413 78 18341605993250210228
13140716 1 17978221665040560537
13172582 1 18409163320449634289
13224815 77 18408887356084892742
13583140 156 16988564584847957654
14223421 5 17769651997274925499
14787075 74 17559375990678788698
14790565 3 17974848681200450529
14955137 171 18120623930122882768
15309172 13 18334851753318357922
16752209 62 18199484322998107988
16945 1 18263090937388971191
17349148 13 18114756966057724463
17492 54 18341629108790253157
18186145 218 17240205451726416090
19868273 325 18411145722813682020
21197605 99 17833253600368272377
2334 1 18409450314469954231
23402539 116 18411702106215846996
23419403 2 14823831849939230343
23493267 7 17846497084020308984
23557571 272 15864064330938544143
23559900 14 17313105242070458536
2748010 2 18049439541432642764
2818148 4 17695317314613473731
296302 2 16487255474057409238
3286 77 17168439189878789610
34934 24 18412826918878733032
352729 6 17761219117052744340
6992083 37 18333449863282036971
7364860 26 17902800665054948620
81228 2 18055638570826440464

> <PUBCHEM_SHAPE_MULTIPOLES>
485.14
6.71
2.77
1.59
3.43
1.01
0.31
-0.95
-0.58
-0.24
-0.39
-1.08
-0.03
-0.61

> <PUBCHEM_SHAPE_SELFOVERLAP>
1060.144

> <PUBCHEM_SHAPE_VOLUME>
261.9

> <PUBCHEM_COORDINATE_TYPE>
2
5
10

$$$$

