182645
  -OEChem-07051213112D

 40 41  0     1  0  0  0  0  0999 V2000
    2.5369    1.4947    0.0000 O   0  0  0  0  0  0  0  0  0  0  0  0
    5.1350   -0.0053    0.0000 C   0  0  2  0  0  0  0  0  0  0  0  0
    4.2690   -0.5053    0.0000 C   0  0  1  0  0  0  0  0  0  0  0  0
    6.0290   -0.5399    0.0000 C   0  0  0  0  0  0  0  0  0  0  0  0
    5.1350    0.9947    0.0000 C   0  0  0  0  0  0  0  0  0  0  0  0
    6.9350   -0.0261    0.0000 C   0  0  1  0  0  0  0  0  0  0  0  0
    3.4030   -0.0053    0.0000 C   0  0  0  0  0  0  0  0  0  0  0  0
    6.0290    1.5294    0.0000 C   0  0  0  0  0  0  0  0  0  0  0  0
    6.9350    1.0156    0.0000 C   0  0  0  0  0  0  0  0  0  0  0  0
    5.1350   -1.0053    0.0000 C   0  0  0  0  0  0  0  0  0  0  0  0
    3.4030    0.9947    0.0000 C   0  0  1  0  0  0  0  0  0  0  0  0
    4.2690    1.4947    0.0000 C   0  0  0  0  0  0  0  0  0  0  0  0
    4.2690   -1.5053    0.0000 C   0  0  0  0  0  0  0  0  0  0  0  0
    7.7991   -0.5294    0.0000 C   0  0  0  0  0  0  0  0  0  0  0  0
    8.6671   -0.0328    0.0000 C   0  0  0  0  0  0  0  0  0  0  0  0
    7.7953   -1.5294    0.0000 C   0  0  0  0  0  0  0  0  0  0  0  0
    4.8059   -0.8153    0.0000 H   0  0  0  0  0  0  0  0  0  0  0  0
    5.6244   -1.0097    0.0000 H   0  0  0  0  0  0  0  0  0  0  0  0
    6.4226   -1.0189    0.0000 H   0  0  0  0  0  0  0  0  0  0  0  0
    7.4726    0.2829    0.0000 H   0  0  0  0  0  0  0  0  0  0  0  0
    2.7924    0.1024    0.0000 H   0  0  0  0  0  0  0  0  0  0  0  0
    3.1909   -0.5879    0.0000 H   0  0  0  0  0  0  0  0  0  0  0  0
    6.4226    2.0084    0.0000 H   0  0  0  0  0  0  0  0  0  0  0  0
    5.6244    1.9992    0.0000 H   0  0  0  0  0  0  0  0  0  0  0  0
    7.5459    0.9095    0.0000 H   0  0  0  0  0  0  0  0  0  0  0  0
    7.1441    1.5992    0.0000 H   0  0  0  0  0  0  0  0  0  0  0  0
    4.5150   -1.0053    0.0000 H   0  0  0  0  0  0  0  0  0  0  0  0
    5.1350   -1.6253    0.0000 H   0  0  0  0  0  0  0  0  0  0  0  0
    5.7550   -1.0053    0.0000 H   0  0  0  0  0  0  0  0  0  0  0  0
    2.8660    0.6847    0.0000 H   0  0  0  0  0  0  0  0  0  0  0  0
    4.2690    2.1147    0.0000 H   0  0  0  0  0  0  0  0  0  0  0  0
    3.6490   -1.5053    0.0000 H   0  0  0  0  0  0  0  0  0  0  0  0
    4.2690   -2.1253    0.0000 H   0  0  0  0  0  0  0  0  0  0  0  0
    4.8890   -1.5053    0.0000 H   0  0  0  0  0  0  0  0  0  0  0  0
    2.0000    1.1847    0.0000 H   0  0  0  0  0  0  0  0  0  0  0  0
    8.9750   -0.5709    0.0000 H   0  0  0  0  0  0  0  0  0  0  0  0
    9.2052    0.2752    0.0000 H   0  0  0  0  0  0  0  0  0  0  0  0
    8.3591    0.5054    0.0000 H   0  0  0  0  0  0  0  0  0  0  0  0
    7.2571   -1.8373    0.0000 H   0  0  0  0  0  0  0  0  0  0  0  0
    8.3310   -1.8415    0.0000 H   0  0  0  0  0  0  0  0  0  0  0  0
 11  1  1  6  0  0  0
  1 35  1  0  0  0  0
  2  3  1  0  0  0  0
  2  4  1  0  0  0  0
  2  5  1  0  0  0  0
  2 10  1  6  0  0  0
  3  7  1  0  0  0  0
  3 13  1  6  0  0  0
  3 17  1  0  0  0  0
  4  6  1  0  0  0  0
  4 18  1  0  0  0  0
  4 19  1  0  0  0  0
  5  8  1  0  0  0  0
  5 12  2  0  0  0  0
  6  9  1  0  0  0  0
  6 14  1  1  0  0  0
  6 20  1  0  0  0  0
  7 11  1  0  0  0  0
  7 21  1  0  0  0  0
  7 22  1  0  0  0  0
  8  9  1  0  0  0  0
  8 23  1  0  0  0  0
  8 24  1  0  0  0  0
  9 25  1  0  0  0  0
  9 26  1  0  0  0  0
 10 27  1  0  0  0  0
 10 28  1  0  0  0  0
 10 29  1  0  0  0  0
 11 12  1  0  0  0  0
 11 30  1  0  0  0  0
 12 31  1  0  0  0  0
 13 32  1  0  0  0  0
 13 33  1  0  0  0  0
 13 34  1  0  0  0  0
 14 15  1  0  0  0  0
 14 16  2  0  0  0  0
 15 36  1  0  0  0  0
 15 37  1  0  0  0  0
 15 38  1  0  0  0  0
 16 39  1  0  0  0  0
 16 40  1  0  0  0  0
M  END
> <PUBCHEM_COMPOUND_CID>
182645

> <PUBCHEM_COMPOUND_CANONICALIZED>
1

> <PUBCHEM_CACTVS_COMPLEXITY>
328

> <PUBCHEM_CACTVS_HBOND_ACCEPTOR>
1

> <PUBCHEM_CACTVS_HBOND_DONOR>
1

> <PUBCHEM_CACTVS_ROTATABLE_BOND>
1

> <PUBCHEM_CACTVS_SUBSKEYS>
AAADceBwIAAAAAAAAAAAAAAAAAAAAAAAAAAwQAAAAAAAAACAAAAAGgAACAAADxSggAICAAAAAgCAAiBCAAAAAAAgAAAACAAAAAgAFAIAAQAAUAAEgAAIEAOAwOAPgAAAAAAAAAAAAAQAAAAAAAAAAAAAAA==

> <PUBCHEM_IUPAC_OPENEYE_NAME>
(2S,4R,4aS,6R)-6-isopropenyl-4,4a-dimethyl-3,4,5,6,7,8-hexahydro-2H-naphthalen-2-ol

> <PUBCHEM_IUPAC_CAS_NAME>
(2S,4R,4aS,6R)-4,4a-dimethyl-6-(1-methylethenyl)-3,4,5,6,7,8-hexahydro-2H-naphthalen-2-ol

> <PUBCHEM_IUPAC_NAME>
(2S,4R,4aS,6R)-4,4a-dimethyl-6-prop-1-en-2-yl-3,4,5,6,7,8-hexahydro-2H-naphthalen-2-ol

> <PUBCHEM_IUPAC_SYSTEMATIC_NAME>
(2S,4R,4aS,6R)-4,4a-dimethyl-6-prop-1-en-2-yl-3,4,5,6,7,8-hexahydro-2H-naphthalen-2-ol

> <PUBCHEM_IUPAC_TRADITIONAL_NAME>
(2S,4R,4aS,6R)-6-isopropenyl-4,4a-dimethyl-3,4,5,6,7,8-hexahydro-2H-naphthalen-2-ol

> <PUBCHEM_IUPAC_INCHI>
InChI=1S/C15H24O/c1-10(2)12-5-6-13-8-14(16)7-11(3)15(13,4)9-12/h8,11-12,14,16H,1,5-7,9H2,2-4H3/t11-,12-,14+,15+/m1/s1

> <PUBCHEM_IUPAC_INCHIKEY>
GFNWRKNVTHDNPV-UXOAXIEHSA-N

> <PUBCHEM_XLOGP3_AA>
3.9

> <PUBCHEM_EXACT_MASS>
220.182715

> <PUBCHEM_MOLECULAR_FORMULA>
C15H24O

> <PUBCHEM_MOLECULAR_WEIGHT>
220.35046

> <PUBCHEM_OPENEYE_CAN_SMILES>
CC1CC(C=C2C1(CC(CC2)C(=C)C)C)O

> <PUBCHEM_OPENEYE_ISO_SMILES>
C[C@@H]1C[C@@H](C=C2[C@]1(C[C@@H](CC2)C(=C)C)C)O

> <PUBCHEM_CACTVS_TPSA>
20.2

> <PUBCHEM_MONOISOTOPIC_WEIGHT>
220.182715

> <PUBCHEM_TOTAL_CHARGE>
0

> <PUBCHEM_HEAVY_ATOM_COUNT>
16

> <PUBCHEM_ATOM_DEF_STEREO_COUNT>
4

> <PUBCHEM_ATOM_UDEF_STEREO_COUNT>
0

> <PUBCHEM_BOND_DEF_STEREO_COUNT>
0

> <PUBCHEM_BOND_UDEF_STEREO_COUNT>
0

> <PUBCHEM_ISOTOPIC_ATOM_COUNT>
0

> <PUBCHEM_COMPONENT_COUNT>
1

> <PUBCHEM_CACTVS_TAUTO_COUNT>
1

> <PUBCHEM_COORDINATE_TYPE>
1
5
255

> <PUBCHEM_BONDANNOTATIONS>
11  1  6
2  10  6
3  13  6
6  14  5

$$$$

