6769
  -OEChem-06261201302D

 90 95  0     1  0  0  0  0  0999 V2000
   10.9540   -2.0697    0.0000 O   0  0  0  0  0  0  0  0  0  0  0  0
   12.3536   -0.5153    0.0000 O   0  0  0  0  0  0  0  0  0  0  0  0
    9.2094   -2.5737    0.0000 O   0  0  0  0  0  0  0  0  0  0  0  0
    7.9357   -1.3999    0.0000 O   0  0  0  0  0  0  0  0  0  0  0  0
   12.7071    1.1803    0.0000 O   0  0  0  0  0  0  0  0  0  0  0  0
    2.6726    1.9031    0.0000 O   0  0  0  0  0  0  0  0  0  0  0  0
   16.3102    1.3136    0.0000 O   0  0  0  0  0  0  0  0  0  0  0  0
   15.6031   -2.0776    0.0000 O   0  0  0  0  0  0  0  0  0  0  0  0
   16.9356   -0.5862    0.0000 O   0  0  0  0  0  0  0  0  0  0  0  0
   18.5808   -0.0446    0.0000 O   0  0  0  0  0  0  0  0  0  0  0  0
   17.2892    1.1094    0.0000 O   0  0  0  0  0  0  0  0  0  0  0  0
    8.6152    2.1163    0.0000 N   0  0  3  0  0  0  0  0  0  0  0  0
    6.1621    0.9988    0.0000 N   0  0  0  0  0  0  0  0  0  0  0  0
    9.2698    0.1532    0.0000 C   0  0  2  0  0  0  0  0  0  0  0  0
    9.9668    0.9273    0.0000 C   0  0  1  0  0  0  0  0  0  0  0  0
    8.2526    0.3776    0.0000 C   0  0  0  0  0  0  0  0  0  0  0  0
    9.5891   -0.8837    0.0000 C   0  0  1  0  0  0  0  0  0  0  0  0
    7.9460    1.3731    0.0000 C   0  0  2  0  0  0  0  0  0  0  0  0
    9.6372    1.9154    0.0000 C   0  0  0  0  0  0  0  0  0  0  0  0
   11.0314    0.7181    0.0000 C   0  0  0  0  0  0  0  0  0  0  0  0
   10.6486   -1.1175    0.0000 C   0  0  2  0  0  0  0  0  0  0  0  0
   11.3746   -0.3112    0.0000 C   0  0  2  0  0  0  0  0  0  0  0  0
    6.9679    1.5810    0.0000 C   0  0  0  0  0  0  0  0  0  0  0  0
    8.3061    3.0673    0.0000 C   0  0  0  0  0  0  0  0  0  0  0  0
    6.6589    2.5321    0.0000 C   0  0  0  0  0  0  0  0  0  0  0  0
    7.3280    3.2752    0.0000 C   0  0  0  0  0  0  0  0  0  0  0  0
    8.9114   -1.6191    0.0000 C   0  0  0  0  0  0  0  0  0  0  0  0
    5.6648    2.5295    0.0000 C   0  0  0  0  0  0  0  0  0  0  0  0
    5.3584    1.5838    0.0000 C   0  0  0  0  0  0  0  0  0  0  0  0
   11.9313   -2.2814    0.0000 C   0  0  0  0  0  0  0  0  0  0  0  0
    4.9832    3.3090    0.0000 C   0  0  0  0  0  0  0  0  0  0  0  0
   13.0198    0.2304    0.0000 C   0  0  0  0  0  0  0  0  0  0  0  0
    4.3492    1.3521    0.0000 C   0  0  0  0  0  0  0  0  0  0  0  0
    3.9689    3.1007    0.0000 C   0  0  0  0  0  0  0  0  0  0  0  0
    3.6498    2.1156    0.0000 C   0  0  0  0  0  0  0  0  0  0  0  0
    8.5317   -3.3090    0.0000 C   0  0  0  0  0  0  0  0  0  0  0  0
   13.9988    0.0263    0.0000 C   0  0  0  0  0  0  0  0  0  0  0  0
   14.3114   -0.9236    0.0000 C   0  0  0  0  0  0  0  0  0  0  0  0
   14.6650    0.7720    0.0000 C   0  0  0  0  0  0  0  0  0  0  0  0
   15.6440    0.5678    0.0000 C   0  0  0  0  0  0  0  0  0  0  0  0
   15.2904   -1.1277    0.0000 C   0  0  0  0  0  0  0  0  0  0  0  0
    2.0000    2.6430    0.0000 C   0  0  0  0  0  0  0  0  0  0  0  0
   15.9566   -0.3820    0.0000 C   0  0  0  0  0  0  0  0  0  0  0  0
   15.9975    2.2634    0.0000 C   0  0  0  0  0  0  0  0  0  0  0  0
   14.9368   -2.8233    0.0000 C   0  0  0  0  0  0  0  0  0  0  0  0
   17.6018    0.1596    0.0000 C   0  0  0  0  0  0  0  0  0  0  0  0
   19.2470    0.7011    0.0000 C   0  0  0  0  0  0  0  0  0  0  0  0
   20.2260    0.4970    0.0000 C   0  0  0  0  0  0  0  0  0  0  0  0
    8.6937   -0.4718    0.0000 H   0  0  0  0  0  0  0  0  0  0  0  0
   10.5282    1.5655    0.0000 H   0  0  0  0  0  0  0  0  0  0  0  0
    7.6376    0.2992    0.0000 H   0  0  0  0  0  0  0  0  0  0  0  0
    8.2246   -0.2417    0.0000 H   0  0  0  0  0  0  0  0  0  0  0  0
    9.7750   -1.4752    0.0000 H   0  0  0  0  0  0  0  0  0  0  0  0
    7.3724    0.7459    0.0000 H   0  0  0  0  0  0  0  0  0  0  0  0
   10.2503    2.0080    0.0000 H   0  0  0  0  0  0  0  0  0  0  0  0
    9.6509    2.5353    0.0000 H   0  0  0  0  0  0  0  0  0  0  0  0
   11.6444    0.8107    0.0000 H   0  0  0  0  0  0  0  0  0  0  0  0
   11.0451    1.3380    0.0000 H   0  0  0  0  0  0  0  0  0  0  0  0
   11.2548   -1.2476    0.0000 H   0  0  0  0  0  0  0  0  0  0  0  0
   11.5673   -0.9005    0.0000 H   0  0  0  0  0  0  0  0  0  0  0  0
    8.9201    3.1536    0.0000 H   0  0  0  0  0  0  0  0  0  0  0  0
    8.3278    3.6869    0.0000 H   0  0  0  0  0  0  0  0  0  0  0  0
    7.5602    3.8501    0.0000 H   0  0  0  0  0  0  0  0  0  0  0  0
    6.8022    3.6038    0.0000 H   0  0  0  0  0  0  0  0  0  0  0  0
    6.1611    0.3788    0.0000 H   0  0  0  0  0  0  0  0  0  0  0  0
   11.8001   -2.8874    0.0000 H   0  0  0  0  0  0  0  0  0  0  0  0
   12.5372   -2.4127    0.0000 H   0  0  0  0  0  0  0  0  0  0  0  0
   12.0625   -1.6755    0.0000 H   0  0  0  0  0  0  0  0  0  0  0  0
    5.1811    3.8966    0.0000 H   0  0  0  0  0  0  0  0  0  0  0  0
    4.1650    0.7601    0.0000 H   0  0  0  0  0  0  0  0  0  0  0  0
    3.5554    3.5626    0.0000 H   0  0  0  0  0  0  0  0  0  0  0  0
    8.0758   -2.8888    0.0000 H   0  0  0  0  0  0  0  0  0  0  0  0
    8.1116   -3.7649    0.0000 H   0  0  0  0  0  0  0  0  0  0  0  0
    8.9877   -3.7292    0.0000 H   0  0  0  0  0  0  0  0  0  0  0  0
   13.8984   -1.3859    0.0000 H   0  0  0  0  0  0  0  0  0  0  0  0
   14.4712    1.3609    0.0000 H   0  0  0  0  0  0  0  0  0  0  0  0
    2.4588    3.0601    0.0000 H   0  0  0  0  0  0  0  0  0  0  0  0
    1.5830    3.1018    0.0000 H   0  0  0  0  0  0  0  0  0  0  0  0
    1.5412    2.2260    0.0000 H   0  0  0  0  0  0  0  0  0  0  0  0
   16.5865    2.4573    0.0000 H   0  0  0  0  0  0  0  0  0  0  0  0
   15.8037    2.8523    0.0000 H   0  0  0  0  0  0  0  0  0  0  0  0
   15.4086    2.0696    0.0000 H   0  0  0  0  0  0  0  0  0  0  0  0
   14.4745   -2.4102    0.0000 H   0  0  0  0  0  0  0  0  0  0  0  0
   14.5237   -3.2857    0.0000 H   0  0  0  0  0  0  0  0  0  0  0  0
   15.3991   -3.2364    0.0000 H   0  0  0  0  0  0  0  0  0  0  0  0
   19.4771    1.2769    0.0000 H   0  0  0  0  0  0  0  0  0  0  0  0
   18.7200    1.0277    0.0000 H   0  0  0  0  0  0  0  0  0  0  0  0
   20.0994   -0.1099    0.0000 H   0  0  0  0  0  0  0  0  0  0  0  0
   20.8329    0.3704    0.0000 H   0  0  0  0  0  0  0  0  0  0  0  0
   20.3526    1.1039    0.0000 H   0  0  0  0  0  0  0  0  0  0  0  0
 21  1  1  6  0  0  0
  1 30  1  0  0  0  0
 22  2  1  1  0  0  0
  2 32  1  0  0  0  0
  3 27  1  0  0  0  0
  3 36  1  0  0  0  0
  4 27  2  0  0  0  0
  5 32  2  0  0  0  0
  6 35  1  0  0  0  0
  6 42  1  0  0  0  0
  7 40  1  0  0  0  0
  7 44  1  0  0  0  0
  8 41  1  0  0  0  0
  8 45  1  0  0  0  0
  9 43  1  0  0  0  0
  9 46  1  0  0  0  0
 10 46  1  0  0  0  0
 10 47  1  0  0  0  0
 11 46  2  0  0  0  0
 12 18  1  0  0  0  0
 12 19  1  0  0  0  0
 12 24  1  0  0  0  0
 13 23  1  0  0  0  0
 13 29  1  0  0  0  0
 13 65  1  0  0  0  0
 14 15  1  0  0  0  0
 14 16  1  0  0  0  0
 14 17  1  0  0  0  0
 14 49  1  6  0  0  0
 15 19  1  0  0  0  0
 15 20  1  0  0  0  0
 15 50  1  6  0  0  0
 16 18  1  0  0  0  0
 16 51  1  0  0  0  0
 16 52  1  0  0  0  0
 17 21  1  0  0  0  0
 17 27  1  1  0  0  0
 17 53  1  0  0  0  0
 18 23  1  0  0  0  0
 18 54  1  1  0  0  0
 19 55  1  0  0  0  0
 19 56  1  0  0  0  0
 20 22  1  0  0  0  0
 20 57  1  0  0  0  0
 20 58  1  0  0  0  0
 21 22  1  0  0  0  0
 21 59  1  0  0  0  0
 22 60  1  0  0  0  0
 23 25  2  0  0  0  0
 24 26  1  0  0  0  0
 24 61  1  0  0  0  0
 24 62  1  0  0  0  0
 25 26  1  0  0  0  0
 25 28  1  0  0  0  0
 26 63  1  0  0  0  0
 26 64  1  0  0  0  0
 28 29  2  0  0  0  0
 28 31  1  0  0  0  0
 29 33  1  0  0  0  0
 30 66  1  0  0  0  0
 30 67  1  0  0  0  0
 30 68  1  0  0  0  0
 31 34  2  0  0  0  0
 31 69  1  0  0  0  0
 32 37  1  0  0  0  0
 33 35  2  0  0  0  0
 33 70  1  0  0  0  0
 34 35  1  0  0  0  0
 34 71  1  0  0  0  0
 36 72  1  0  0  0  0
 36 73  1  0  0  0  0
 36 74  1  0  0  0  0
 37 38  2  0  0  0  0
 37 39  1  0  0  0  0
 38 41  1  0  0  0  0
 38 75  1  0  0  0  0
 39 40  2  0  0  0  0
 39 76  1  0  0  0  0
 40 43  1  0  0  0  0
 41 43  2  0  0  0  0
 42 77  1  0  0  0  0
 42 78  1  0  0  0  0
 42 79  1  0  0  0  0
 44 80  1  0  0  0  0
 44 81  1  0  0  0  0
 44 82  1  0  0  0  0
 45 83  1  0  0  0  0
 45 84  1  0  0  0  0
 45 85  1  0  0  0  0
 47 48  1  0  0  0  0
 47 86  1  0  0  0  0
 47 87  1  0  0  0  0
 48 88  1  0  0  0  0
 48 89  1  0  0  0  0
 48 90  1  0  0  0  0
M  END
> <PUBCHEM_COMPOUND_CID>
6769

> <PUBCHEM_COMPOUND_CANONICALIZED>
1

> <PUBCHEM_CACTVS_COMPLEXITY>
1130

> <PUBCHEM_CACTVS_HBOND_ACCEPTOR>
12

> <PUBCHEM_CACTVS_HBOND_DONOR>
1

> <PUBCHEM_CACTVS_ROTATABLE_BOND>
13

> <PUBCHEM_CACTVS_SUBSKEYS>
AAADcfB/PAAAAAAAAAAAAAAAAAAAAWAAAAA8eMECAAAAAFix9AAAHgAQAAAADTzhngYyzvPJlACoAyTyTACCiCAlIiAImSE+7NgdZ/bEtZu2Mypn8B3O6Yf6/f/eoAABCgACQABAAAYUADSAAAAAAAAAAA==

> <PUBCHEM_IUPAC_OPENEYE_NAME>
methyl (1R,15S,17R,18R,19S,20S)-17-(4-ethoxycarbonyloxy-3,5-dimethoxy-benzoyl)oxy-6,18-dimethoxy-1,3,11,12,14,15,16,17,18,19,20,21-dodecahydroyohimban-19-carboxylate

> <PUBCHEM_IUPAC_CAS_NAME>
(1R,15S,17R,18R,19S,20S)-17-[(4-ethoxycarbonyloxy-3,5-dimethoxyphenyl)-oxomethoxy]-6,18-dimethoxy-1,3,11,12,14,15,16,17,18,19,20,21-dodecahydroyohimban-19-carboxylic acid methyl ester

> <PUBCHEM_IUPAC_NAME>
methyl (1R,15S,17R,18R,19S,20S)-17-(4-ethoxycarbonyloxy-3,5-dimethoxybenzoyl)oxy-6,18-dimethoxy-1,3,11,12,14,15,16,17,18,19,20,21-dodecahydroyohimban-19-carboxylate

> <PUBCHEM_IUPAC_SYSTEMATIC_NAME>
methyl (1R,15S,17R,18R,19S,20S)-17-(4-ethoxycarbonyloxy-3,5-dimethoxy-phenyl)carbonyloxy-6,18-dimethoxy-1,3,11,12,14,15,16,17,18,19,20,21-dodecahydroyohimban-19-carboxylate

> <PUBCHEM_IUPAC_TRADITIONAL_NAME>
(1R,15S,17R,18R,19S,20S)-17-(4-carbethoxyoxy-3,5-dimethoxy-benzoyl)oxy-6,18-dimethoxy-1,3,11,12,14,15,16,17,18,19,20,21-dodecahydroyohimban-19-carboxylic acid methyl ester

> <PUBCHEM_IUPAC_INCHI>
InChI=1S/C35H42N2O11/c1-7-46-35(40)48-31-26(42-3)12-18(13-27(31)43-4)33(38)47-28-14-19-17-37-11-10-22-21-9-8-20(41-2)15-24(21)36-30(22)25(37)16-23(19)29(32(28)44-5)34(39)45-6/h8-9,12-13,15,19,23,25,28-29,32,36H,7,10-11,14,16-17H2,1-6H3/t19-,23+,25-,28-,29+,32+/m1/s1

> <PUBCHEM_IUPAC_INCHIKEY>
ZCDNRPPFBQDQHR-SSYATKPKSA-N

> <PUBCHEM_XLOGP3_AA>
4.6

> <PUBCHEM_EXACT_MASS>
666.27886

> <PUBCHEM_MOLECULAR_FORMULA>
C35H42N2O11

> <PUBCHEM_MOLECULAR_WEIGHT>
666.71478

> <PUBCHEM_OPENEYE_CAN_SMILES>
CCOC(=O)OC1=C(C=C(C=C1OC)C(=O)OC2CC3CN4CCC5=C(C4CC3C(C2OC)C(=O)OC)NC6=C5C=CC(=C6)OC)OC

> <PUBCHEM_OPENEYE_ISO_SMILES>
CCOC(=O)OC1=C(C=C(C=C1OC)C(=O)O[C@@H]2C[C@@H]3CN4CCC5=C([C@H]4C[C@@H]3[C@@H]([C@H]2OC)C(=O)OC)NC6=C5C=CC(=C6)OC)OC

> <PUBCHEM_CACTVS_TPSA>
144

> <PUBCHEM_MONOISOTOPIC_WEIGHT>
666.27886

> <PUBCHEM_TOTAL_CHARGE>
0

> <PUBCHEM_HEAVY_ATOM_COUNT>
48

> <PUBCHEM_ATOM_DEF_STEREO_COUNT>
6

> <PUBCHEM_ATOM_UDEF_STEREO_COUNT>
0

> <PUBCHEM_BOND_DEF_STEREO_COUNT>
0

> <PUBCHEM_BOND_UDEF_STEREO_COUNT>
0

> <PUBCHEM_ISOTOPIC_ATOM_COUNT>
0

> <PUBCHEM_COMPONENT_COUNT>
1

> <PUBCHEM_CACTVS_TAUTO_COUNT>
1

> <PUBCHEM_COORDINATE_TYPE>
1
5
255

> <PUBCHEM_BONDANNOTATIONS>
21  1  6
13  23  8
13  29  8
14  49  6
15  50  6
17  27  5
18  54  5
22  2  5
23  25  8
25  28  8
28  29  8
28  31  8
29  33  8
31  34  8
33  35  8
34  35  8
37  38  8
37  39  8
38  41  8
39  40  8
40  43  8
41  43  8

$$$$

