11928
  -OEChem-06261206183D

 17 18  0     0  0  0  0  0  0999 V2000
   -3.6470   -0.8380    0.0008 Cl  0  0  0  0  0  0  0  0  0  0  0  0
   -1.0650   -1.0592   -0.0003 N   0  0  0  0  0  0  0  0  0  0  0  0
    0.4922    0.7799    0.0000 C   0  0  0  0  0  0  0  0  0  0  0  0
    0.2009   -0.6003   -0.0002 C   0  0  0  0  0  0  0  0  0  0  0  0
    1.8255    1.2238    0.0002 C   0  0  0  0  0  0  0  0  0  0  0  0
   -0.5812    1.6808   -0.0001 C   0  0  0  0  0  0  0  0  0  0  0  0
    1.2676   -1.4948   -0.0001 C   0  0  0  0  0  0  0  0  0  0  0  0
    2.8730    0.3072    0.0003 C   0  0  0  0  0  0  0  0  0  0  0  0
    2.5933   -1.0537    0.0001 C   0  0  0  0  0  0  0  0  0  0  0  0
   -1.8867    1.2109   -0.0002 C   0  0  0  0  0  0  0  0  0  0  0  0
   -2.0726   -0.1566   -0.0004 C   0  0  0  0  0  0  0  0  0  0  0  0
    2.0554    2.2870    0.0004 H   0  0  0  0  0  0  0  0  0  0  0  0
   -0.4056    2.7542    0.0001 H   0  0  0  0  0  0  0  0  0  0  0  0
    1.0752   -2.5661   -0.0002 H   0  0  0  0  0  0  0  0  0  0  0  0
    3.9018    0.6538    0.0004 H   0  0  0  0  0  0  0  0  0  0  0  0
    3.4044   -1.7760    0.0001 H   0  0  0  0  0  0  0  0  0  0  0  0
   -2.7204    1.9046    0.0000 H   0  0  0  0  0  0  0  0  0  0  0  0
  1 11  1  0  0  0  0
  2  4  1  0  0  0  0
  2 11  2  0  0  0  0
  3  4  1  0  0  0  0
  3  5  2  0  0  0  0
  3  6  1  0  0  0  0
  4  7  2  0  0  0  0
  5  8  1  0  0  0  0
  5 12  1  0  0  0  0
  6 10  2  0  0  0  0
  6 13  1  0  0  0  0
  7  9  1  0  0  0  0
  7 14  1  0  0  0  0
  8  9  2  0  0  0  0
  8 15  1  0  0  0  0
  9 16  1  0  0  0  0
 10 11  1  0  0  0  0
 10 17  1  0  0  0  0
M  END
> <PUBCHEM_COMPOUND_CID>
11928

> <PUBCHEM_CONFORMER_RMSD>
0.4

> <PUBCHEM_CONFORMER_DIVERSEORDER>
1

> <PUBCHEM_MMFF94_PARTIAL_CHARGES>
16
1 -0.18
10 -0.15
11 0.49
12 0.15
13 0.15
14 0.15
15 0.15
16 0.15
17 0.15
2 -0.62
4 0.31
5 -0.15
6 -0.15
7 -0.15
8 -0.15
9 -0.15

> <PUBCHEM_EFFECTIVE_ROTOR_COUNT>
0

> <PUBCHEM_PHARMACOPHORE_FEATURES>
3
1 2 acceptor
6 2 3 4 6 10 11 rings
6 3 4 5 7 8 9 rings

> <PUBCHEM_HEAVY_ATOM_COUNT>
11

> <PUBCHEM_ATOM_DEF_STEREO_COUNT>
0

> <PUBCHEM_ATOM_UDEF_STEREO_COUNT>
0

> <PUBCHEM_BOND_DEF_STEREO_COUNT>
0

> <PUBCHEM_BOND_UDEF_STEREO_COUNT>
0

> <PUBCHEM_ISOTOPIC_ATOM_COUNT>
0

> <PUBCHEM_COMPONENT_COUNT>
1

> <PUBCHEM_CACTVS_TAUTO_COUNT>
1

> <PUBCHEM_CONFORMER_ID>
00002E9800000001

> <PUBCHEM_MMFF94_ENERGY>
28.9811

> <PUBCHEM_FEATURE_SELFOVERLAP>
15.254

> <PUBCHEM_SHAPE_FINGERPRINT>
10219947 1 18335699404011502703
10857977 72 18410303513881005088
11206711 2 18341610468400216093
11471102 20 18411142415942058757
12032990 46 18410849958401948495
12897270 3 18411702096982314548
14325111 11 18410575106154005985
16945 1 18410573959487220356
17844478 74 18131062736667029937
193761 8 17906171011791225315
19973954 147 18337952414800217620
20201158 50 18342458123341056515
20645477 70 18409735071329589703
21040471 1 18338799030395766116
21501502 16 18339076106993643368
21501925 9 18340781406863552794
23402655 69 18336839670948038789
23463225 33 18412262847923010228
23552423 10 18272085045472578638
23559900 14 17397544690295812526
241688 4 18269836578490510608
2748010 2 18338238291991728380
369184 2 18410576231435262192
5084963 1 18333731338100368752
528886 8 18337676304232365578

> <PUBCHEM_SHAPE_MULTIPOLES>
223.26
4.65
1.7
0.61
1.8
0.2
0
-1.13
0
-0.09
0
0.01
0
0

> <PUBCHEM_SHAPE_SELFOVERLAP>
481.387

> <PUBCHEM_SHAPE_VOLUME>
123.8

> <PUBCHEM_COORDINATE_TYPE>
2
5
10

$$$$

