4464
  -OEChem-06261200083D

 46 48  0     0  0  0  0  0  0999 V2000
    0.7704    1.7941    0.4325 S   0  0  0  0  0  0  0  0  0  0  0  0
   -4.4500   -2.5896   -0.4506 S   0  0  0  0  0  0  0  0  0  0  0  0
   -4.4613    2.8590    0.3819 S   0  0  0  0  0  0  0  0  0  0  0  0
    1.4257    1.6891   -1.0574 O   0  0  0  0  0  0  0  0  0  0  0  0
   -4.9685   -2.0067   -1.8839 O   0  0  0  0  0  0  0  0  0  0  0  0
    0.6123    3.2037    0.7381 O   0  0  0  0  0  0  0  0  0  0  0  0
    1.4998    0.9085    1.3197 O   0  0  0  0  0  0  0  0  0  0  0  0
   -4.7116    3.3896   -1.1440 O   0  0  0  0  0  0  0  0  0  0  0  0
   -4.3843   -4.0352   -0.5710 O   0  0  0  0  0  0  0  0  0  0  0  0
   -5.2193   -1.9589    0.6061 O   0  0  0  0  0  0  0  0  0  0  0  0
   -5.6767    2.1746    0.7982 O   0  0  0  0  0  0  0  0  0  0  0  0
   -3.9275    3.9640    1.1626 O   0  0  0  0  0  0  0  0  0  0  0  0
    2.1047   -2.9474    0.9223 O   0  0  0  0  0  0  0  0  0  0  0  0
    6.7035    1.8131   -1.2845 O   0  5  0  0  0  0  0  0  0  0  0  0
    4.6703    1.7403   -2.1202 O   0  0  0  0  0  0  0  0  0  0  0  0
    1.2348   -0.9534    0.0323 N   0  0  0  0  0  0  0  0  0  0  0  0
    5.5419    1.3412   -1.3116 N   0  3  0  0  0  0  0  0  0  0  0  0
   -1.1458   -0.2463    0.0425 C   0  0  0  0  0  0  0  0  0  0  0  0
   -2.4997   -0.6418   -0.0732 C   0  0  0  0  0  0  0  0  0  0  0  0
   -0.8423    1.1075    0.2612 C   0  0  0  0  0  0  0  0  0  0  0  0
   -2.8033   -1.9954   -0.2923 C   0  0  0  0  0  0  0  0  0  0  0  0
   -0.1355   -1.2159   -0.0636 C   0  0  0  0  0  0  0  0  0  0  0  0
   -3.5101    0.3278    0.0329 C   0  0  0  0  0  0  0  0  0  0  0  0
   -3.1905    1.6684    0.2504 C   0  0  0  0  0  0  0  0  0  0  0  0
   -1.8591    2.0573    0.3644 C   0  0  0  0  0  0  0  0  0  0  0  0
   -1.7868   -2.9454   -0.3951 C   0  0  0  0  0  0  0  0  0  0  0  0
   -0.4556   -2.5564   -0.2808 C   0  0  0  0  0  0  0  0  0  0  0  0
    2.2418   -1.8032    0.5029 C   0  0  0  0  0  0  0  0  0  0  0  0
    3.6104   -1.2232    0.5084 C   0  0  0  0  0  0  0  0  0  0  0  0
    3.9158   -0.2287   -0.3969 C   0  0  0  0  0  0  0  0  0  0  0  0
    4.5306   -1.6996    1.4185 C   0  0  0  0  0  0  0  0  0  0  0  0
    5.2004    0.3146   -0.3918 C   0  0  0  0  0  0  0  0  0  0  0  0
    5.8153   -1.1564    1.4236 C   0  0  0  0  0  0  0  0  0  0  0  0
    6.1502   -0.1492    0.5184 C   0  0  0  0  0  0  0  0  0  0  0  0
   -4.5567    0.0932   -0.1091 H   0  0  0  0  0  0  0  0  0  0  0  0
   -1.6493    3.1103    0.5171 H   0  0  0  0  0  0  0  0  0  0  0  0
   -1.9900   -3.9958   -0.5802 H   0  0  0  0  0  0  0  0  0  0  0  0
    0.2896   -3.3307   -0.4294 H   0  0  0  0  0  0  0  0  0  0  0  0
    1.5297   -0.0632   -0.3169 H   0  0  0  0  0  0  0  0  0  0  0  0
    0.9581    2.1948   -1.7630 H   0  0  0  0  0  0  0  0  0  0  0  0
   -4.4618   -2.3107   -2.6733 H   0  0  0  0  0  0  0  0  0  0  0  0
   -5.0135    2.7043   -1.7856 H   0  0  0  0  0  0  0  0  0  0  0  0
    3.2238    0.0663   -1.1745 H   0  0  0  0  0  0  0  0  0  0  0  0
    4.2855   -2.4785    2.1342 H   0  0  0  0  0  0  0  0  0  0  0  0
    6.5543   -1.5167    2.1335 H   0  0  0  0  0  0  0  0  0  0  0  0
    7.1604    0.2505    0.5523 H   0  0  0  0  0  0  0  0  0  0  0  0
  1  4  1  0  0  0  0
  1  6  2  0  0  0  0
  1  7  2  0  0  0  0
  1 20  1  0  0  0  0
  2  5  1  0  0  0  0
  2  9  2  0  0  0  0
  2 10  2  0  0  0  0
  2 21  1  0  0  0  0
  3  8  1  0  0  0  0
  3 11  2  0  0  0  0
  3 12  2  0  0  0  0
  3 24  1  0  0  0  0
  4 40  1  0  0  0  0
  5 41  1  0  0  0  0
  8 42  1  0  0  0  0
 13 28  2  0  0  0  0
 14 17  1  0  0  0  0
 15 17  2  0  0  0  0
 16 22  1  0  0  0  0
 16 28  1  0  0  0  0
 16 39  1  0  0  0  0
 17 32  1  0  0  0  0
 18 19  1  0  0  0  0
 18 20  1  0  0  0  0
 18 22  2  0  0  0  0
 19 21  2  0  0  0  0
 19 23  1  0  0  0  0
 20 25  2  0  0  0  0
 21 26  1  0  0  0  0
 22 27  1  0  0  0  0
 23 24  2  0  0  0  0
 23 35  1  0  0  0  0
 24 25  1  0  0  0  0
 25 36  1  0  0  0  0
 26 27  2  0  0  0  0
 26 37  1  0  0  0  0
 27 38  1  0  0  0  0
 28 29  1  0  0  0  0
 29 30  2  0  0  0  0
 29 31  1  0  0  0  0
 30 32  1  0  0  0  0
 30 43  1  0  0  0  0
 31 33  2  0  0  0  0
 31 44  1  0  0  0  0
 32 34  2  0  0  0  0
 33 34  1  0  0  0  0
 33 45  1  0  0  0  0
 34 46  1  0  0  0  0
M  CHG  2  14  -1  17   1
M  END
> <PUBCHEM_COMPOUND_CID>
4464

> <PUBCHEM_CONFORMER_RMSD>
1

> <PUBCHEM_CONFORMER_DIVERSEORDER>
1
4
2
3

> <PUBCHEM_MMFF94_PARTIAL_CHARGES>
44
1 1.49
10 -0.65
11 -0.65
12 -0.65
13 -0.57
14 -0.52
15 -0.52
16 -0.55
17 0.91
2 1.49
20 -0.01
21 -0.01
22 0.12
23 -0.15
24 -0.01
25 -0.15
26 -0.15
27 -0.15
28 0.54
29 0.09
3 1.49
30 -0.15
31 -0.15
32 0.13
33 -0.15
34 -0.15
35 0.15
36 0.15
37 0.15
38 0.15
39 0.37
4 -0.68
40 0.5
41 0.5
42 0.5
43 0.15
44 0.15
45 0.15
46 0.15
5 -0.68
6 -0.65
7 -0.65
8 -0.68
9 -0.65

> <PUBCHEM_EFFECTIVE_ROTOR_COUNT>
7

> <PUBCHEM_PHARMACOPHORE_FEATURES>
20
1 10 acceptor
1 11 acceptor
1 12 acceptor
1 13 acceptor
1 14 acceptor
1 14 anion
1 15 acceptor
1 16 donor
1 4 acceptor
1 5 acceptor
1 6 acceptor
1 7 acceptor
1 8 acceptor
1 9 acceptor
4 1 4 6 7 anion
4 2 5 9 10 anion
4 3 8 11 12 anion
6 18 19 20 23 24 25 rings
6 18 19 21 22 26 27 rings
6 29 30 31 32 33 34 rings

> <PUBCHEM_HEAVY_ATOM_COUNT>
34

> <PUBCHEM_ATOM_DEF_STEREO_COUNT>
0

> <PUBCHEM_ATOM_UDEF_STEREO_COUNT>
0

> <PUBCHEM_BOND_DEF_STEREO_COUNT>
0

> <PUBCHEM_BOND_UDEF_STEREO_COUNT>
0

> <PUBCHEM_ISOTOPIC_ATOM_COUNT>
0

> <PUBCHEM_COMPONENT_COUNT>
1

> <PUBCHEM_CACTVS_TAUTO_COUNT>
2

> <PUBCHEM_CONFORMER_ID>
0000117000000001

> <PUBCHEM_MMFF94_ENERGY>
119.8549

> <PUBCHEM_FEATURE_SELFOVERLAP>
101.768

> <PUBCHEM_SHAPE_FINGERPRINT>
10411042 1 18120100485880809639
10595046 47 18342740681040136690
10670039 82 18411412904904402358
10906281 52 18115581707585235881
1100329 8 18335987553546908721
11135609 187 17772755974941049428
11227688 84 17762340206776174415
11607047 403 12007914827139630344
12107183 9 17980491371011636562
12166972 35 17917999339393694710
12236239 1 18272089401207895674
12422481 6 17488739124514895300
12616971 3 17917432081434646194
12788726 201 18337388236465505426
13140716 1 18335706057337772833
13617811 41 17982175508780839629
13690498 29 18188486861362132799
13726171 33 18261940887203309664
13782708 43 17167867426711279126
14068700 675 18190195511517639751
14117953 113 18124598849773533700
14347332 77 18337675200699934245
14394314 77 18412542107393954776
14400156 188 17550088274948724883
14787075 74 18272935973205425218
14790565 3 18047465918214395889
14840074 17 17987783233305524972
14931854 50 18270391673855810588
15250474 111 18341619213259832330
15297060 5 18187080711172272722
1577012 14 18343864433900641974
16087824 20 18335143121118449325
19319366 153 18130507560198525650
20511986 3 18272661160039228580
20642791 178 18343293777758124396
20642791 35 18120093875640472986
20715895 44 17982738772509531628
21033648 29 17313689095081681602
21236236 1 18335708260408335315
21703447 108 17972886856061297112
22311459 1 18336268938103160599
22393880 68 18335133168682751004
23559900 14 18193570969175574579
249057 25 18202010915183596066
25147074 1 18343301465754566620
255183 451 17610907777481426359
329604 57 18341052913400712170
34797466 226 17241321353597934482
350125 39 18410290299005132921
5104073 3 18340782528198508674
5171179 24 17823717278010374649
550186 72 18411138000605584157
6036956 94 17623836939012562844
7237137 82 18410011013913273093

> <PUBCHEM_SHAPE_MULTIPOLES>
630.86
14.47
4.59
1.25
11.76
0.41
-0.3
2.44
-1.45
-7.12
-0.08
1.1
0.32
-3.26

> <PUBCHEM_SHAPE_SELFOVERLAP>
1355.722

> <PUBCHEM_SHAPE_VOLUME>
347.2

> <PUBCHEM_COORDINATE_TYPE>
2
5
10

$$$$

