443238
  -OEChem-07051213013D

 79 82  0     1  0  0  0  0  0999 V2000
   -6.8980    0.8681   -1.5618 O   0  0  0  0  0  0  0  0  0  0  0  0
   -6.2965   -2.5646   -0.5880 O   0  0  0  0  0  0  0  0  0  0  0  0
    1.4656    0.3725    0.9731 C   0  0  1  0  0  0  0  0  0  0  0  0
   -2.8442    0.8730   -0.0133 C   0  0  2  0  0  0  0  0  0  0  0  0
    0.7013   -0.8544    0.4337 C   0  0  2  0  0  0  0  0  0  0  0  0
   -1.2906    0.6058   -0.2206 C   0  0  2  0  0  0  0  0  0  0  0  0
    2.9212   -0.1237    0.7918 C   0  0  2  0  0  0  0  0  0  0  0  0
   -3.5810   -0.4972   -0.2248 C   0  0  2  0  0  0  0  0  0  0  0  0
   -0.7953   -0.6723    0.4709 C   0  0  0  0  0  0  0  0  0  0  0  0
    1.1028    1.5768    0.0887 C   0  0  0  0  0  0  0  0  0  0  0  0
   -0.4100    1.8484    0.1057 C   0  0  0  0  0  0  0  0  0  0  0  0
    1.3936   -2.0318    1.1274 C   0  0  0  0  0  0  0  0  0  0  0  0
    2.8681   -1.6038    1.2297 C   0  0  0  0  0  0  0  0  0  0  0  0
   -5.1333   -0.4460   -0.4501 C   0  0  2  0  0  0  0  0  0  0  0  0
   -3.3299    1.8921   -1.0737 C   0  0  0  0  0  0  0  0  0  0  0  0
   -3.1319   -1.5108    0.8522 C   0  0  0  0  0  0  0  0  0  0  0  0
    4.0014    0.6693    1.5138 C   0  0  1  0  0  0  0  0  0  0  0  0
   -1.6382   -1.5909    0.9729 C   0  0  0  0  0  0  0  0  0  0  0  0
    1.1508    0.6820    2.4579 C   0  0  0  0  0  0  0  0  0  0  0  0
   -5.4875    0.6600   -1.4801 C   0  0  2  0  0  0  0  0  0  0  0  0
   -3.1031    1.4613    1.3972 C   0  0  0  0  0  0  0  0  0  0  0  0
   -4.8463    2.0041   -1.1513 C   0  0  0  0  0  0  0  0  0  0  0  0
   -5.9965   -0.3353    0.8188 C   0  0  0  0  0  0  0  0  0  0  0  0
    5.4199    0.1205    1.2537 C   0  0  0  0  0  0  0  0  0  0  0  0
   -5.5103   -1.7692   -1.0914 C   0  0  0  0  0  0  0  0  0  0  0  0
    3.9442    2.1421    1.0889 C   0  0  0  0  0  0  0  0  0  0  0  0
    5.8544    0.0480   -0.2162 C   0  0  0  0  0  0  0  0  0  0  0  0
    7.2406   -0.5736   -0.4136 C   0  0  0  0  0  0  0  0  0  0  0  0
    7.7057   -0.5806   -1.8830 C   0  0  0  0  0  0  0  0  0  0  0  0
    7.7300    0.8195   -2.4981 C   0  0  0  0  0  0  0  0  0  0  0  0
    6.7928   -1.4895   -2.7105 C   0  0  0  0  0  0  0  0  0  0  0  0
    0.9391   -0.9656   -0.6381 H   0  0  0  0  0  0  0  0  0  0  0  0
   -1.1389    0.4102   -1.2942 H   0  0  0  0  0  0  0  0  0  0  0  0
    3.1271   -0.1105   -0.2872 H   0  0  0  0  0  0  0  0  0  0  0  0
   -3.1774   -0.8853   -1.1767 H   0  0  0  0  0  0  0  0  0  0  0  0
    1.5778    2.5047    0.4041 H   0  0  0  0  0  0  0  0  0  0  0  0
    1.4170    1.3982   -0.9476 H   0  0  0  0  0  0  0  0  0  0  0  0
   -0.6226    2.6444   -0.6177 H   0  0  0  0  0  0  0  0  0  0  0  0
   -0.6601    2.2569    1.0890 H   0  0  0  0  0  0  0  0  0  0  0  0
    0.9908   -2.2105    2.1309 H   0  0  0  0  0  0  0  0  0  0  0  0
    1.2858   -2.9609    0.5580 H   0  0  0  0  0  0  0  0  0  0  0  0
    3.2201   -1.7466    2.2577 H   0  0  0  0  0  0  0  0  0  0  0  0
    3.4981   -2.2201    0.5786 H   0  0  0  0  0  0  0  0  0  0  0  0
   -2.9556    1.6009   -2.0641 H   0  0  0  0  0  0  0  0  0  0  0  0
   -2.9161    2.8870   -0.8710 H   0  0  0  0  0  0  0  0  0  0  0  0
   -3.5021   -2.5085    0.5886 H   0  0  0  0  0  0  0  0  0  0  0  0
   -3.5430   -1.2685    1.8373 H   0  0  0  0  0  0  0  0  0  0  0  0
    3.8466    0.6260    2.5991 H   0  0  0  0  0  0  0  0  0  0  0  0
   -1.2531   -2.4884    1.4474 H   0  0  0  0  0  0  0  0  0  0  0  0
    1.5301   -0.0922    3.1329 H   0  0  0  0  0  0  0  0  0  0  0  0
    0.0751    0.7554    2.6457 H   0  0  0  0  0  0  0  0  0  0  0  0
    1.5906    1.6316    2.7764 H   0  0  0  0  0  0  0  0  0  0  0  0
   -5.1589    0.3500   -2.4811 H   0  0  0  0  0  0  0  0  0  0  0  0
   -2.6003    0.8914    2.1847 H   0  0  0  0  0  0  0  0  0  0  0  0
   -4.1596    1.5012    1.6520 H   0  0  0  0  0  0  0  0  0  0  0  0
   -2.7479    2.4951    1.4699 H   0  0  0  0  0  0  0  0  0  0  0  0
   -5.1133    2.7337   -1.9266 H   0  0  0  0  0  0  0  0  0  0  0  0
   -5.2596    2.4132   -0.2222 H   0  0  0  0  0  0  0  0  0  0  0  0
   -5.9377    0.6513    1.2797 H   0  0  0  0  0  0  0  0  0  0  0  0
   -7.0602   -0.4964    0.6011 H   0  0  0  0  0  0  0  0  0  0  0  0
   -5.7261   -1.0799    1.5740 H   0  0  0  0  0  0  0  0  0  0  0  0
    5.4951   -0.8844    1.6880 H   0  0  0  0  0  0  0  0  0  0  0  0
    6.1460    0.7317    1.8059 H   0  0  0  0  0  0  0  0  0  0  0  0
   -5.0303   -1.9988   -2.0593 H   0  0  0  0  0  0  0  0  0  0  0  0
    3.8129    2.2639    0.0092 H   0  0  0  0  0  0  0  0  0  0  0  0
    4.8802    2.6503    1.3523 H   0  0  0  0  0  0  0  0  0  0  0  0
    3.1708    2.6909    1.6292 H   0  0  0  0  0  0  0  0  0  0  0  0
   -7.0599    1.5271   -2.2581 H   0  0  0  0  0  0  0  0  0  0  0  0
    5.1289   -0.5457   -0.7770 H   0  0  0  0  0  0  0  0  0  0  0  0
    5.8364    1.0612   -0.6282 H   0  0  0  0  0  0  0  0  0  0  0  0
    7.9705   -0.0109    0.1820 H   0  0  0  0  0  0  0  0  0  0  0  0
    7.2426   -1.5983   -0.0217 H   0  0  0  0  0  0  0  0  0  0  0  0
    8.7225   -0.9916   -1.9104 H   0  0  0  0  0  0  0  0  0  0  0  0
    6.7260    1.2289   -2.6474 H   0  0  0  0  0  0  0  0  0  0  0  0
    8.2157    0.7912   -3.4798 H   0  0  0  0  0  0  0  0  0  0  0  0
    8.2968    1.5124   -1.8677 H   0  0  0  0  0  0  0  0  0  0  0  0
    6.7073   -2.4818   -2.2555 H   0  0  0  0  0  0  0  0  0  0  0  0
    7.2074   -1.6234   -3.7160 H   0  0  0  0  0  0  0  0  0  0  0  0
    5.7865   -1.0761   -2.8294 H   0  0  0  0  0  0  0  0  0  0  0  0
  1 20  1  0  0  0  0
  1 68  1  0  0  0  0
  2 25  2  0  0  0  0
  3  5  1  0  0  0  0
  3  7  1  0  0  0  0
  3 10  1  0  0  0  0
  3 19  1  0  0  0  0
  4  6  1  0  0  0  0
  4  8  1  0  0  0  0
  4 15  1  0  0  0  0
  4 21  1  0  0  0  0
  5  9  1  0  0  0  0
  5 12  1  0  0  0  0
  5 32  1  0  0  0  0
  6  9  1  0  0  0  0
  6 11  1  0  0  0  0
  6 33  1  0  0  0  0
  7 13  1  0  0  0  0
  7 17  1  0  0  0  0
  7 34  1  0  0  0  0
  8 14  1  0  0  0  0
  8 16  1  0  0  0  0
  8 35  1  0  0  0  0
  9 18  2  0  0  0  0
 10 11  1  0  0  0  0
 10 36  1  0  0  0  0
 10 37  1  0  0  0  0
 11 38  1  0  0  0  0
 11 39  1  0  0  0  0
 12 13  1  0  0  0  0
 12 40  1  0  0  0  0
 12 41  1  0  0  0  0
 13 42  1  0  0  0  0
 13 43  1  0  0  0  0
 14 20  1  0  0  0  0
 14 23  1  0  0  0  0
 14 25  1  0  0  0  0
 15 22  1  0  0  0  0
 15 44  1  0  0  0  0
 15 45  1  0  0  0  0
 16 18  1  0  0  0  0
 16 46  1  0  0  0  0
 16 47  1  0  0  0  0
 17 24  1  0  0  0  0
 17 26  1  0  0  0  0
 17 48  1  0  0  0  0
 18 49  1  0  0  0  0
 19 50  1  0  0  0  0
 19 51  1  0  0  0  0
 19 52  1  0  0  0  0
 20 22  1  0  0  0  0
 20 53  1  0  0  0  0
 21 54  1  0  0  0  0
 21 55  1  0  0  0  0
 21 56  1  0  0  0  0
 22 57  1  0  0  0  0
 22 58  1  0  0  0  0
 23 59  1  0  0  0  0
 23 60  1  0  0  0  0
 23 61  1  0  0  0  0
 24 27  1  0  0  0  0
 24 62  1  0  0  0  0
 24 63  1  0  0  0  0
 25 64  1  0  0  0  0
 26 65  1  0  0  0  0
 26 66  1  0  0  0  0
 26 67  1  0  0  0  0
 27 28  1  0  0  0  0
 27 69  1  0  0  0  0
 27 70  1  0  0  0  0
 28 29  1  0  0  0  0
 28 71  1  0  0  0  0
 28 72  1  0  0  0  0
 29 30  1  0  0  0  0
 29 31  1  0  0  0  0
 29 73  1  0  0  0  0
 30 74  1  0  0  0  0
 30 75  1  0  0  0  0
 30 76  1  0  0  0  0
 31 77  1  0  0  0  0
 31 78  1  0  0  0  0
 31 79  1  0  0  0  0
M  END
> <PUBCHEM_COMPOUND_CID>
443238

> <PUBCHEM_CONFORMER_RMSD>
1

> <PUBCHEM_CONFORMER_DIVERSEORDER>
1
5
3
4
2

> <PUBCHEM_MMFF94_PARTIAL_CHARGES>
13
1 -0.68
14 0.06
16 0.14
18 -0.29
2 -0.57
20 0.28
25 0.45
49 0.15
5 0.14
6 0.14
64 0.06
68 0.4
9 -0.28

> <PUBCHEM_EFFECTIVE_ROTOR_COUNT>
8

> <PUBCHEM_PHARMACOPHORE_FEATURES>
10
1 1 acceptor
1 1 donor
1 2 acceptor
1 26 hydrophobe
3 29 30 31 hydrophobe
5 17 24 27 28 29 hydrophobe
5 3 5 7 12 13 rings
6 3 5 6 9 10 11 rings
6 4 6 8 9 16 18 rings
6 4 8 14 15 20 22 rings

> <PUBCHEM_HEAVY_ATOM_COUNT>
31

> <PUBCHEM_ATOM_DEF_STEREO_COUNT>
8

> <PUBCHEM_ATOM_UDEF_STEREO_COUNT>
1

> <PUBCHEM_BOND_DEF_STEREO_COUNT>
0

> <PUBCHEM_BOND_UDEF_STEREO_COUNT>
0

> <PUBCHEM_ISOTOPIC_ATOM_COUNT>
0

> <PUBCHEM_COMPONENT_COUNT>
1

> <PUBCHEM_CACTVS_TAUTO_COUNT>
1

> <PUBCHEM_CONFORMER_ID>
0006C36600000001

> <PUBCHEM_MMFF94_ENERGY>
104.8342

> <PUBCHEM_FEATURE_SELFOVERLAP>
50.838

> <PUBCHEM_SHAPE_FINGERPRINT>
10554248 39 17274561913361923410
10591671 39 18131911546400230994
10670039 82 18131631214433610036
10906281 52 17632292427609260273
11007060 377 17774717567650640480
12011746 2 18410301306367989825
12166972 35 18341619178636694313
12236239 1 16630253575050823898
13668630 136 17748830691508340559
13782708 43 17313106349939938326
14840074 17 16343703231666427070
14849402 71 14907887258961780558
15021287 119 15068624851400166859
15082195 135 18131347523554136252
15131766 46 14979101455548227598
15183329 4 18201431489977811252
15196674 1 18270697440803504619
15352257 5 17458343031291849734
15361156 5 18060421331075690701
15629462 23 17313374656304496019
1577012 14 17346883363940048796
16994733 274 15769777953139965708
18335252 114 16271926018195651230
18681886 176 18269569268294934328
20105231 36 18410568479631898443
2026 5 16298661789421781262
20567600 247 16443346516184006398
21150785 3 17346597461057764622
21267235 1 18341052913796292723
21344244 181 17676485034805648238
21682296 61 17167855400896892588
21867126 195 15839270275582458555
23081809 10 17489315217257749824
23522609 53 17845363517919245980
23559900 14 18339379478352264137
23569914 152 16886393828473687292
23569943 247 15791725364771500214
23576562 1 17631163087470686646
34797466 226 18334577893994026416
4058900 60 17632576101994699538
4073 2 17275105072147795283
4169191 19 14476952394291685814
4258327 124 16128363853290997846
445580 37 18130786771706020828
474113 269 4678816095340039181
5104073 3 18200609106477250689
513202 73 15936684964934497576
5265222 85 18201433632597104390
5364581 5 10879405293693978990
6328613 192 17275101726294275180
6608658 132 17489306438102459004

> <PUBCHEM_SHAPE_MULTIPOLES>
626.23
20.38
2.19
2.11
18.53
0.13
0.69
2.54
15.49
-1.8
0.08
3.26
-0.05
1.13

> <PUBCHEM_SHAPE_SELFOVERLAP>
1302.099

> <PUBCHEM_SHAPE_VOLUME>
354.9

> <PUBCHEM_COORDINATE_TYPE>
2
5
10

$$$$

