10039
  -OEChem-07051212533D

  3  2  0     0  0  0  0  0  0999 V2000
   -1.4523    0.0000    0.0000 S   0  0  0  0  0  0  0  0  0  0  0  0
    1.3142   -0.0001    0.0000 O   0  0  0  0  0  0  0  0  0  0  0  0
    0.1381    0.0001    0.0000 C   0  0  0  0  0  0  0  0  0  0  0  0
  1  3  2  0  0  0  0
  2  3  2  0  0  0  0
M  END
> <PUBCHEM_COMPOUND_CID>
10039

> <PUBCHEM_CONFORMER_RMSD>
0.4

> <PUBCHEM_CONFORMER_DIVERSEORDER>
1

> <PUBCHEM_MMFF94_PARTIAL_CHARGES>
3
1 -0.27
2 -0.49
3 0.76

> <PUBCHEM_EFFECTIVE_ROTOR_COUNT>
0

> <PUBCHEM_PHARMACOPHORE_FEATURES>
1
1 1 acceptor

> <PUBCHEM_HEAVY_ATOM_COUNT>
3

> <PUBCHEM_ATOM_DEF_STEREO_COUNT>
0

> <PUBCHEM_ATOM_UDEF_STEREO_COUNT>
0

> <PUBCHEM_BOND_DEF_STEREO_COUNT>
0

> <PUBCHEM_BOND_UDEF_STEREO_COUNT>
0

> <PUBCHEM_ISOTOPIC_ATOM_COUNT>
0

> <PUBCHEM_COMPONENT_COUNT>
1

> <PUBCHEM_CACTVS_TAUTO_COUNT>
1

> <PUBCHEM_CONFORMER_ID>
0000273700000001

> <PUBCHEM_MMFF94_ENERGY>
0

> <PUBCHEM_FEATURE_SELFOVERLAP>
5.074

> <PUBCHEM_SHAPE_FINGERPRINT>
139733 1 8574717896748730571
20096714 4 18341046333067605565
21015797 1 8645327446736427657

> <PUBCHEM_SHAPE_MULTIPOLES>
59.72
1.86
0.62
0.62
0.1
0
0
0
0
0.08
0
0.08
0
0

> <PUBCHEM_SHAPE_SELFOVERLAP>
92.258

> <PUBCHEM_SHAPE_VOLUME>
43.1

> <PUBCHEM_COORDINATE_TYPE>
2
5
10

$$$$

