5186
  -OEChem-06261200343D

 42 44  0     0  0  0  0  0  0999 V2000
   -0.9388   -2.6050    0.4528 O   0  0  0  0  0  0  0  0  0  0  0  0
   -0.1449    1.9928    0.5456 O   0  0  0  0  0  0  0  0  0  0  0  0
    6.2541   -0.0659    1.2518 O   0  0  0  0  0  0  0  0  0  0  0  0
    7.4461    1.9476   -0.0957 O   0  0  0  0  0  0  0  0  0  0  0  0
   -0.4941   -0.3145    0.5730 N   0  0  0  0  0  0  0  0  0  0  0  0
    6.8524    0.8729   -0.7711 N   0  0  0  0  0  0  0  0  0  0  0  0
    1.8159   -0.6225   -0.2843 C   0  0  0  0  0  0  0  0  0  0  0  0
    0.8983   -0.5605    0.9328 C   0  0  0  0  0  0  0  0  0  0  0  0
    3.2811   -0.8560    0.0967 C   0  0  0  0  0  0  0  0  0  0  0  0
   -3.1923    0.1611   -0.0159 C   0  0  0  0  0  0  0  0  0  0  0  0
   -2.7438   -1.1625    0.0952 C   0  0  0  0  0  0  0  0  0  0  0  0
   -2.3287    1.2539    0.1417 C   0  0  0  0  0  0  0  0  0  0  0  0
    4.1715   -0.9261   -1.1484 C   0  0  0  0  0  0  0  0  0  0  0  0
   -1.3200   -1.4383    0.3902 C   0  0  0  0  0  0  0  0  0  0  0  0
   -0.8973    1.0268    0.4382 C   0  0  0  0  0  0  0  0  0  0  0  0
   -4.5603    0.4016   -0.2990 C   0  0  0  0  0  0  0  0  0  0  0  0
    5.6363   -1.1897   -0.8025 C   0  0  0  0  0  0  0  0  0  0  0  0
   -3.6300   -2.2345   -0.0701 C   0  0  0  0  0  0  0  0  0  0  0  0
   -2.8049    2.5656    0.0224 C   0  0  0  0  0  0  0  0  0  0  0  0
   -5.4355   -0.6828   -0.4609 C   0  0  0  0  0  0  0  0  0  0  0  0
   -5.0221    1.7214   -0.4146 C   0  0  0  0  0  0  0  0  0  0  0  0
   -4.9721   -1.9917   -0.3471 C   0  0  0  0  0  0  0  0  0  0  0  0
   -4.1492    2.7953   -0.2549 C   0  0  0  0  0  0  0  0  0  0  0  0
    6.2782   -0.0891    0.0242 C   0  0  0  0  0  0  0  0  0  0  0  0
    1.7333    0.3104   -0.8560 H   0  0  0  0  0  0  0  0  0  0  0  0
    1.4791   -1.4249   -0.9528 H   0  0  0  0  0  0  0  0  0  0  0  0
    0.9693   -1.4991    1.4950 H   0  0  0  0  0  0  0  0  0  0  0  0
    1.2365    0.2372    1.6053 H   0  0  0  0  0  0  0  0  0  0  0  0
    3.6092   -0.0417    0.7523 H   0  0  0  0  0  0  0  0  0  0  0  0
    3.3687   -1.7894    0.6655 H   0  0  0  0  0  0  0  0  0  0  0  0
    4.0902    0.0145   -1.7066 H   0  0  0  0  0  0  0  0  0  0  0  0
    3.8152   -1.7262   -1.8081 H   0  0  0  0  0  0  0  0  0  0  0  0
    6.2076   -1.3261   -1.7289 H   0  0  0  0  0  0  0  0  0  0  0  0
    5.7313   -2.1267   -0.2408 H   0  0  0  0  0  0  0  0  0  0  0  0
   -3.2948   -3.2647    0.0140 H   0  0  0  0  0  0  0  0  0  0  0  0
   -2.1452    3.4207    0.1429 H   0  0  0  0  0  0  0  0  0  0  0  0
   -6.4887   -0.5175   -0.6784 H   0  0  0  0  0  0  0  0  0  0  0  0
   -6.0687    1.9254   -0.6314 H   0  0  0  0  0  0  0  0  0  0  0  0
   -5.6592   -2.8232   -0.4747 H   0  0  0  0  0  0  0  0  0  0  0  0
   -4.5185    3.8126   -0.3469 H   0  0  0  0  0  0  0  0  0  0  0  0
    6.9429    0.8502   -1.7807 H   0  0  0  0  0  0  0  0  0  0  0  0
    8.2243    2.0983   -0.6586 H   0  0  0  0  0  0  0  0  0  0  0  0
  1 14  2  0  0  0  0
  2 15  2  0  0  0  0
  3 24  2  0  0  0  0
  4  6  1  0  0  0  0
  4 42  1  0  0  0  0
  5  8  1  0  0  0  0
  5 14  1  0  0  0  0
  5 15  1  0  0  0  0
  6 24  1  0  0  0  0
  6 41  1  0  0  0  0
  7  8  1  0  0  0  0
  7  9  1  0  0  0  0
  7 25  1  0  0  0  0
  7 26  1  0  0  0  0
  8 27  1  0  0  0  0
  8 28  1  0  0  0  0
  9 13  1  0  0  0  0
  9 29  1  0  0  0  0
  9 30  1  0  0  0  0
 10 11  1  0  0  0  0
 10 12  1  0  0  0  0
 10 16  2  0  0  0  0
 11 14  1  0  0  0  0
 11 18  2  0  0  0  0
 12 15  1  0  0  0  0
 12 19  2  0  0  0  0
 13 17  1  0  0  0  0
 13 31  1  0  0  0  0
 13 32  1  0  0  0  0
 16 20  1  0  0  0  0
 16 21  1  0  0  0  0
 17 24  1  0  0  0  0
 17 33  1  0  0  0  0
 17 34  1  0  0  0  0
 18 22  1  0  0  0  0
 18 35  1  0  0  0  0
 19 23  1  0  0  0  0
 19 36  1  0  0  0  0
 20 22  2  0  0  0  0
 20 37  1  0  0  0  0
 21 23  2  0  0  0  0
 21 38  1  0  0  0  0
 22 39  1  0  0  0  0
 23 40  1  0  0  0  0
M  END
> <PUBCHEM_COMPOUND_CID>
5186

> <PUBCHEM_CONFORMER_RMSD>
0.8

> <PUBCHEM_CONFORMER_DIVERSEORDER>
1
10
52
18
44
48
51
7
35
23
42
43
39
47
53
41
13
49
61
26
22
14
57
31
30
4
56
20
2
8
15
50
19
12
16
55
59
46
24
11
54
33
45
58
40
5
28
21
3
6
36
29
9
17
34
60
32
37
25
27
38

> <PUBCHEM_MMFF94_PARTIAL_CHARGES>
27
1 -0.57
11 0.09
12 0.09
14 0.54
15 0.54
17 0.06
18 -0.15
19 -0.15
2 -0.57
20 -0.15
21 -0.15
22 -0.15
23 -0.15
24 0.57
3 -0.57
35 0.15
36 0.15
37 0.15
38 0.15
39 0.15
4 -0.44
40 0.15
41 0.37
42 0.4
5 -0.42
6 -0.39
8 0.3

> <PUBCHEM_EFFECTIVE_ROTOR_COUNT>
7.2

> <PUBCHEM_PHARMACOPHORE_FEATURES>
8
1 1 acceptor
1 2 acceptor
1 3 acceptor
1 6 donor
4 7 9 13 17 hydrophobe
6 10 11 16 18 20 22 rings
6 10 12 16 19 21 23 rings
6 5 10 11 12 14 15 rings

> <PUBCHEM_HEAVY_ATOM_COUNT>
24

> <PUBCHEM_ATOM_DEF_STEREO_COUNT>
0

> <PUBCHEM_ATOM_UDEF_STEREO_COUNT>
0

> <PUBCHEM_BOND_DEF_STEREO_COUNT>
0

> <PUBCHEM_BOND_UDEF_STEREO_COUNT>
0

> <PUBCHEM_ISOTOPIC_ATOM_COUNT>
0

> <PUBCHEM_COMPONENT_COUNT>
1

> <PUBCHEM_CACTVS_TAUTO_COUNT>
3

> <PUBCHEM_CONFORMER_ID>
0000144200000001

> <PUBCHEM_MMFF94_ENERGY>
54.0212

> <PUBCHEM_FEATURE_SELFOVERLAP>
40.67

> <PUBCHEM_SHAPE_FINGERPRINT>
10076449 9 18411700968672038191
10087517 78 18272373078928024532
10299344 5 7204775896018201836
10411042 1 18123187901847104299
10595046 47 18413672422294426018
10835480 77 18261395580970070212
11315181 36 17846775179184831078
11578080 2 13913703459665207593
12236239 1 17846502560272500970
12821665 9 18341045216624126092
13140716 1 18338805512239732209
13911987 19 16950280707061000366
14790565 3 17325196824765820689
15183329 4 17489866034102776326
16087824 20 18339363076832197885
16126227 98 18118116095041869305
16945 1 18338814407127564345
17980427 23 18273207599557752468
19427546 20 18343022194871545607
19489759 90 18413387652861391550
20511986 3 17988654007854333462
20871999 31 18410856585752660123
21236236 1 18409165532690107491
21267235 1 18410292472717916739
23402539 116 18411420634927650158
23559900 14 18333740104023573265
2748010 2 18194700176797766961
335352 9 18409455778818075599
34797466 226 17895183382358913420
4073 2 18202557359720292882
4325135 7 18334856091968264310
44249763 50 17605006814865536750
5283173 99 18408604798887245392
7237137 82 18411982476963962949
9981440 41 18200867465513362147

> <PUBCHEM_SHAPE_MULTIPOLES>
460.47
17.16
2.72
0.87
35.12
0.75
0
3.47
-3.2
-3.24
-0.06
0.69
-0.08
0.27

> <PUBCHEM_SHAPE_SELFOVERLAP>
995

> <PUBCHEM_SHAPE_VOLUME>
251.3

> <PUBCHEM_COORDINATE_TYPE>
2
5
10

$$$$

