7919
  -OEChem-06261202272D

 15 14  0     0  0  0  0  0  0999 V2000
    2.5369    0.7500    0.0000 S   0  0  0  0  0  0  0  0  0  0  0  0
    3.4030   -0.7500    0.0000 S   0  0  0  0  0  0  0  0  0  0  0  0
    4.2690    0.7500    0.0000 O   0  0  0  0  0  0  0  0  0  0  0  0
    5.1350    0.2500    0.0000 C   0  0  0  0  0  0  0  0  0  0  0  0
    6.0010    0.7500    0.0000 C   0  0  0  0  0  0  0  0  0  0  0  0
    5.1350   -0.7500    0.0000 C   0  0  0  0  0  0  0  0  0  0  0  0
    3.4030    0.2500    0.0000 C   0  0  0  0  0  0  0  0  0  0  0  0
    5.1350    0.8700    0.0000 H   0  0  0  0  0  0  0  0  0  0  0  0
    6.3110    0.2131    0.0000 H   0  0  0  0  0  0  0  0  0  0  0  0
    6.5380    1.0600    0.0000 H   0  0  0  0  0  0  0  0  0  0  0  0
    5.6910    1.2869    0.0000 H   0  0  0  0  0  0  0  0  0  0  0  0
    4.5150   -0.7500    0.0000 H   0  0  0  0  0  0  0  0  0  0  0  0
    5.1350   -1.3700    0.0000 H   0  0  0  0  0  0  0  0  0  0  0  0
    5.7550   -0.7500    0.0000 H   0  0  0  0  0  0  0  0  0  0  0  0
    2.0000    0.4400    0.0000 H   0  0  0  0  0  0  0  0  0  0  0  0
  1  7  1  0  0  0  0
  1 15  1  0  0  0  0
  2  7  2  0  0  0  0
  3  4  1  0  0  0  0
  3  7  1  0  0  0  0
  4  5  1  0  0  0  0
  4  6  1  0  0  0  0
  4  8  1  0  0  0  0
  5  9  1  0  0  0  0
  5 10  1  0  0  0  0
  5 11  1  0  0  0  0
  6 12  1  0  0  0  0
  6 13  1  0  0  0  0
  6 14  1  0  0  0  0
M  END
> <PUBCHEM_COMPOUND_CID>
7919

> <PUBCHEM_COMPOUND_CANONICALIZED>
1

> <PUBCHEM_CACTVS_COMPLEXITY>
70.1

> <PUBCHEM_CACTVS_HBOND_ACCEPTOR>
3

> <PUBCHEM_CACTVS_HBOND_DONOR>
1

> <PUBCHEM_CACTVS_ROTATABLE_BOND>
2

> <PUBCHEM_CACTVS_SUBSKEYS>
AAADccBgIABgAAAAAAAAAAAAAAAAAAAAAAAAAAAAAAAAAAAAAAAAGgQAAAAACBSggAICAAAABAQEAAAAAAAAAAAAAAAAAAAAAAAAAAAAAAAAAAAAAAAAAAAAAAAAAAAAAAAAAAAAAAAAAAAAAAAAAAAAAA==

> <PUBCHEM_IUPAC_OPENEYE_NAME>
isopropoxymethanedithioic acid

> <PUBCHEM_IUPAC_CAS_NAME>
propan-2-yloxymethanedithioic acid

> <PUBCHEM_IUPAC_NAME>
propan-2-yloxymethanedithioic acid

> <PUBCHEM_IUPAC_SYSTEMATIC_NAME>
propan-2-yloxymethanedithioic acid

> <PUBCHEM_IUPAC_TRADITIONAL_NAME>
isopropoxymethanedithioic acid

> <PUBCHEM_IUPAC_INCHI>
InChI=1S/C4H8OS2/c1-3(2)5-4(6)7/h3H,1-2H3,(H,6,7)

> <PUBCHEM_IUPAC_INCHIKEY>
UOJYYXATTMQQNA-UHFFFAOYSA-N

> <PUBCHEM_XLOGP3_AA>
2.1

> <PUBCHEM_EXACT_MASS>
136.001657

> <PUBCHEM_MOLECULAR_FORMULA>
C4H8OS2

> <PUBCHEM_MOLECULAR_WEIGHT>
136.23572

> <PUBCHEM_OPENEYE_CAN_SMILES>
CC(C)OC(=S)S

> <PUBCHEM_OPENEYE_ISO_SMILES>
CC(C)OC(=S)S

> <PUBCHEM_CACTVS_TPSA>
42.3

> <PUBCHEM_MONOISOTOPIC_WEIGHT>
136.001657

> <PUBCHEM_TOTAL_CHARGE>
0

> <PUBCHEM_HEAVY_ATOM_COUNT>
7

> <PUBCHEM_ATOM_DEF_STEREO_COUNT>
0

> <PUBCHEM_ATOM_UDEF_STEREO_COUNT>
0

> <PUBCHEM_BOND_DEF_STEREO_COUNT>
0

> <PUBCHEM_BOND_UDEF_STEREO_COUNT>
0

> <PUBCHEM_ISOTOPIC_ATOM_COUNT>
0

> <PUBCHEM_COMPONENT_COUNT>
1

> <PUBCHEM_CACTVS_TAUTO_COUNT>
1

> <PUBCHEM_COORDINATE_TYPE>
1
5
255

$$$$

