181684
  -OEChem-07051212592D

 35 37  0     0  0  0  0  0  0999 V2000
    3.7817    1.4710    0.0000 O   0  0  0  0  0  0  0  0  0  0  0  0
    4.6423    1.9678    0.0000 O   0  0  0  0  0  0  0  0  0  0  0  0
    2.0000   -1.5878    0.0000 O   0  0  0  0  0  0  0  0  0  0  0  0
    5.5301   -1.5636    0.0000 C   0  0  0  0  0  0  0  0  0  0  0  0
    6.3961   -1.0636    0.0000 C   0  0  0  0  0  0  0  0  0  0  0  0
    4.6641   -1.0636    0.0000 C   0  0  0  0  0  0  0  0  0  0  0  0
    4.6641   -0.0636    0.0000 C   0  0  0  0  0  0  0  0  0  0  0  0
    6.3961   -0.0636    0.0000 C   0  0  0  0  0  0  0  0  0  0  0  0
    5.5301    0.4364    0.0000 C   0  0  0  0  0  0  0  0  0  0  0  0
    3.7702    0.4710    0.0000 C   0  0  0  0  0  0  0  0  0  0  0  0
    3.7702   -1.5983    0.0000 C   0  0  0  0  0  0  0  0  0  0  0  0
    5.5141    1.4779    0.0000 C   0  0  0  0  0  0  0  0  0  0  0  0
    7.3062    0.4432    0.0000 C   0  0  0  0  0  0  0  0  0  0  0  0
    2.8641   -1.0844    0.0000 C   0  0  0  0  0  0  0  0  0  0  0  0
    2.8641   -0.0428    0.0000 C   0  0  0  0  0  0  0  0  0  0  0  0
    6.4121    2.0056    0.0000 C   0  0  0  0  0  0  0  0  0  0  0  0
    7.3142    1.4848    0.0000 C   0  0  0  0  0  0  0  0  0  0  0  0
    2.9215    1.9809    0.0000 C   0  0  0  0  0  0  0  0  0  0  0  0
    2.0038   -2.5878    0.0000 C   0  0  0  0  0  0  0  0  0  0  0  0
    5.1316   -2.0386    0.0000 H   0  0  0  0  0  0  0  0  0  0  0  0
    5.9286   -2.0386    0.0000 H   0  0  0  0  0  0  0  0  0  0  0  0
    6.6082   -1.6462    0.0000 H   0  0  0  0  0  0  0  0  0  0  0  0
    7.0067   -0.9560    0.0000 H   0  0  0  0  0  0  0  0  0  0  0  0
    3.7773   -2.2183    0.0000 H   0  0  0  0  0  0  0  0  0  0  0  0
    7.8395    0.1270    0.0000 H   0  0  0  0  0  0  0  0  0  0  0  0
    2.3284    0.2692    0.0000 H   0  0  0  0  0  0  0  0  0  0  0  0
    6.4097    2.6256    0.0000 H   0  0  0  0  0  0  0  0  0  0  0  0
    7.8523    1.7927    0.0000 H   0  0  0  0  0  0  0  0  0  0  0  0
    4.6352    2.5878    0.0000 H   0  0  0  0  0  0  0  0  0  0  0  0
    3.2377    2.5142    0.0000 H   0  0  0  0  0  0  0  0  0  0  0  0
    2.3882    2.2971    0.0000 H   0  0  0  0  0  0  0  0  0  0  0  0
    2.6054    1.4476    0.0000 H   0  0  0  0  0  0  0  0  0  0  0  0
    1.3839   -2.5902    0.0000 H   0  0  0  0  0  0  0  0  0  0  0  0
    2.0062   -3.2078    0.0000 H   0  0  0  0  0  0  0  0  0  0  0  0
    2.6238   -2.5854    0.0000 H   0  0  0  0  0  0  0  0  0  0  0  0
  1 10  1  0  0  0  0
  1 18  1  0  0  0  0
  2 12  1  0  0  0  0
  2 29  1  0  0  0  0
  3 14  1  0  0  0  0
  3 19  1  0  0  0  0
  4  5  1  0  0  0  0
  4  6  1  0  0  0  0
  4 20  1  0  0  0  0
  4 21  1  0  0  0  0
  5  8  1  0  0  0  0
  5 22  1  0  0  0  0
  5 23  1  0  0  0  0
  6  7  2  0  0  0  0
  6 11  1  0  0  0  0
  7  9  1  0  0  0  0
  7 10  1  0  0  0  0
  8  9  2  0  0  0  0
  8 13  1  0  0  0  0
  9 12  1  0  0  0  0
 10 15  2  0  0  0  0
 11 14  2  0  0  0  0
 11 24  1  0  0  0  0
 12 16  2  0  0  0  0
 13 17  2  0  0  0  0
 13 25  1  0  0  0  0
 14 15  1  0  0  0  0
 15 26  1  0  0  0  0
 16 17  1  0  0  0  0
 16 27  1  0  0  0  0
 17 28  1  0  0  0  0
 18 30  1  0  0  0  0
 18 31  1  0  0  0  0
 18 32  1  0  0  0  0
 19 33  1  0  0  0  0
 19 34  1  0  0  0  0
 19 35  1  0  0  0  0
M  END
> <PUBCHEM_COMPOUND_CID>
181684

> <PUBCHEM_COMPOUND_CANONICALIZED>
1

> <PUBCHEM_CACTVS_COMPLEXITY>
306

> <PUBCHEM_CACTVS_HBOND_ACCEPTOR>
3

> <PUBCHEM_CACTVS_HBOND_DONOR>
1

> <PUBCHEM_CACTVS_ROTATABLE_BOND>
2

> <PUBCHEM_CACTVS_SUBSKEYS>
AAADceB4MAAAAAAAAAAAAAAAAAAAAAAAAAAwYMAAAAAAAADBQAAAGgAACAAADASAmAIyBoAABgCAAiBCAAACCAAgIAAIiAAGCIgMJyKGMRqAcCAlwBUIuAfA4PwOoAABCAAYAADAAAYQADAAAAAAAAAAAA==

> <PUBCHEM_IUPAC_OPENEYE_NAME>
5,7-dimethoxy-9,10-dihydrophenanthren-4-ol

> <PUBCHEM_IUPAC_CAS_NAME>
5,7-dimethoxy-9,10-dihydrophenanthren-4-ol

> <PUBCHEM_IUPAC_NAME>
5,7-dimethoxy-9,10-dihydrophenanthren-4-ol

> <PUBCHEM_IUPAC_SYSTEMATIC_NAME>
5,7-dimethoxy-9,10-dihydrophenanthren-4-ol

> <PUBCHEM_IUPAC_TRADITIONAL_NAME>
5,7-dimethoxy-9,10-dihydrophenanthren-4-ol

> <PUBCHEM_IUPAC_INCHI>
InChI=1S/C16H16O3/c1-18-12-8-11-7-6-10-4-3-5-13(17)15(10)16(11)14(9-12)19-2/h3-5,8-9,17H,6-7H2,1-2H3

> <PUBCHEM_IUPAC_INCHIKEY>
HCZUQCKKYRIEGM-UHFFFAOYSA-N

> <PUBCHEM_XLOGP3_AA>
3.4

> <PUBCHEM_EXACT_MASS>
256.109944

> <PUBCHEM_MOLECULAR_FORMULA>
C16H16O3

> <PUBCHEM_MOLECULAR_WEIGHT>
256.29644

> <PUBCHEM_OPENEYE_CAN_SMILES>
COC1=CC(=C2C(=C1)CCC3=C2C(=CC=C3)O)OC

> <PUBCHEM_OPENEYE_ISO_SMILES>
COC1=CC(=C2C(=C1)CCC3=C2C(=CC=C3)O)OC

> <PUBCHEM_CACTVS_TPSA>
38.7

> <PUBCHEM_MONOISOTOPIC_WEIGHT>
256.109944

> <PUBCHEM_TOTAL_CHARGE>
0

> <PUBCHEM_HEAVY_ATOM_COUNT>
19

> <PUBCHEM_ATOM_DEF_STEREO_COUNT>
0

> <PUBCHEM_ATOM_UDEF_STEREO_COUNT>
0

> <PUBCHEM_BOND_DEF_STEREO_COUNT>
0

> <PUBCHEM_BOND_UDEF_STEREO_COUNT>
0

> <PUBCHEM_ISOTOPIC_ATOM_COUNT>
0

> <PUBCHEM_COMPONENT_COUNT>
1

> <PUBCHEM_CACTVS_TAUTO_COUNT>
9

> <PUBCHEM_COORDINATE_TYPE>
1
5
255

> <PUBCHEM_BONDANNOTATIONS>
10  15  8
11  14  8
12  16  8
13  17  8
14  15  8
16  17  8
6  11  8
6  7  8
7  10  8
8  13  8
8  9  8
9  12  8

$$$$

