23724698
  -OEChem-07051213083D

 70 73  0     1  0  0  0  0  0999 V2000
   -0.8230    0.4261   -2.5137 O   0  0  0  0  0  0  0  0  0  0  0  0
   -1.6839   -2.3146   -0.3571 O   0  0  0  0  0  0  0  0  0  0  0  0
   -2.3836   -1.7524   -3.8725 O   0  0  0  0  0  0  0  0  0  0  0  0
    0.2027    0.0429   -0.3987 O   0  0  0  0  0  0  0  0  0  0  0  0
    0.4322   -2.1116   -3.3223 O   0  0  0  0  0  0  0  0  0  0  0  0
   -4.1313    0.4176   -0.9592 O   0  0  0  0  0  0  0  0  0  0  0  0
    3.2212    1.9968    0.4719 O   0  3  0  0  0  0  0  0  0  0  0  0
    0.0822   -3.7491    0.0139 O   0  0  0  0  0  0  0  0  0  0  0  0
   -4.2453    1.4423    1.1029 O   0  0  0  0  0  0  0  0  0  0  0  0
   -0.4209    5.1315   -0.2429 O   0  0  0  0  0  0  0  0  0  0  0  0
   -1.0333   -3.6000    4.1023 O   0  0  0  0  0  0  0  0  0  0  0  0
    0.4444   -4.4932    2.6227 O   0  0  0  0  0  0  0  0  0  0  0  0
    3.8802    6.7094    1.0386 O   0  0  0  0  0  0  0  0  0  0  0  0
    4.6074   -2.6896   -2.1407 O   0  0  0  0  0  0  0  0  0  0  0  0
    3.4837   -3.1319    2.4942 O   0  0  0  0  0  0  0  0  0  0  0  0
   -8.4046    0.6260    0.9808 O   0  0  0  0  0  0  0  0  0  0  0  0
    4.5749   -4.1980    0.1820 O   0  0  0  0  0  0  0  0  0  0  0  0
   -6.7401    1.5519    2.2229 O   0  0  0  0  0  0  0  0  0  0  0  0
   -1.3938   -2.3142   -1.7508 C   0  0  1  0  0  0  0  0  0  0  0  0
   -2.4252   -1.4452   -2.4754 C   0  0  1  0  0  0  0  0  0  0  0  0
   -2.1909    0.0632   -2.3083 C   0  0  1  0  0  0  0  0  0  0  0  0
    0.0362   -1.8162   -1.9839 C   0  0  2  0  0  0  0  0  0  0  0  0
    0.1618   -0.3040   -1.7786 C   0  0  1  0  0  0  0  0  0  0  0  0
   -2.7325    0.6337   -1.0004 C   0  0  0  0  0  0  0  0  0  0  0  0
    0.9842    1.1538   -0.1791 C   0  0  0  0  0  0  0  0  0  0  0  0
   -0.8592   -3.0823    0.4194 C   0  0  0  0  0  0  0  0  0  0  0  0
    2.4350    1.0045    0.1598 C   0  0  0  0  0  0  0  0  0  0  0  0
    0.4993    2.4019   -0.2019 C   0  0  0  0  0  0  0  0  0  0  0  0
   -1.3083   -2.9782    1.8565 C   0  0  0  0  0  0  0  0  0  0  0  0
   -4.7812    0.8749    0.1615 C   0  0  0  0  0  0  0  0  0  0  0  0
    1.3574    3.5409    0.1037 C   0  0  0  0  0  0  0  0  0  0  0  0
    2.9975   -0.3663    0.1651 C   0  0  0  0  0  0  0  0  0  0  0  0
    2.6928    3.3012    0.4441 C   0  0  0  0  0  0  0  0  0  0  0  0
   -6.2524    0.5574    0.0486 C   0  0  0  0  0  0  0  0  0  0  0  0
    0.8743    4.8524    0.0801 C   0  0  0  0  0  0  0  0  0  0  0  0
   -0.5201   -3.7817    2.8571 C   0  0  0  0  0  0  0  0  0  0  0  0
    3.5397    4.3647    0.7579 C   0  0  0  0  0  0  0  0  0  0  0  0
    2.9756   -1.1141    1.3369 C   0  0  0  0  0  0  0  0  0  0  0  0
    3.5432   -0.8909   -1.0008 C   0  0  0  0  0  0  0  0  0  0  0  0
    1.7239    5.9149    0.3937 C   0  0  0  0  0  0  0  0  0  0  0  0
    3.0547    5.6712    0.7328 C   0  0  0  0  0  0  0  0  0  0  0  0
    4.0743   -2.1808   -0.9948 C   0  0  0  0  0  0  0  0  0  0  0  0
    3.5067   -2.4038    1.3429 C   0  0  0  0  0  0  0  0  0  0  0  0
   -7.1121    0.9762    1.2121 C   0  0  0  0  0  0  0  0  0  0  0  0
    4.0561   -2.9373    0.1769 C   0  0  0  0  0  0  0  0  0  0  0  0
   -1.4875   -3.3413   -2.1297 H   0  0  0  0  0  0  0  0  0  0  0  0
   -3.4333   -1.7100   -2.1387 H   0  0  0  0  0  0  0  0  0  0  0  0
   -2.7398    0.5629   -3.1178 H   0  0  0  0  0  0  0  0  0  0  0  0
    0.7850   -2.2877   -1.3525 H   0  0  0  0  0  0  0  0  0  0  0  0
    1.1074   -0.0051   -2.2499 H   0  0  0  0  0  0  0  0  0  0  0  0
   -2.5357    1.7105   -0.9654 H   0  0  0  0  0  0  0  0  0  0  0  0
   -2.2624    0.1752   -0.1262 H   0  0  0  0  0  0  0  0  0  0  0  0
   -1.5157   -1.4760   -4.2131 H   0  0  0  0  0  0  0  0  0  0  0  0
    1.3627   -1.8479   -3.4239 H   0  0  0  0  0  0  0  0  0  0  0  0
   -0.5431    2.5565   -0.4380 H   0  0  0  0  0  0  0  0  0  0  0  0
   -1.2386   -1.9243    2.1481 H   0  0  0  0  0  0  0  0  0  0  0  0
   -2.3486   -3.3183    1.9041 H   0  0  0  0  0  0  0  0  0  0  0  0
   -6.6323    1.0642   -0.8452 H   0  0  0  0  0  0  0  0  0  0  0  0
   -6.3484   -0.5286   -0.0603 H   0  0  0  0  0  0  0  0  0  0  0  0
    4.5747    4.1609    1.0186 H   0  0  0  0  0  0  0  0  0  0  0  0
    2.5475   -0.7006    2.2468 H   0  0  0  0  0  0  0  0  0  0  0  0
    3.5611   -0.2961   -1.9107 H   0  0  0  0  0  0  0  0  0  0  0  0
    1.3478    6.9349    0.3751 H   0  0  0  0  0  0  0  0  0  0  0  0
   -0.9941    4.3768   -0.0393 H   0  0  0  0  0  0  0  0  0  0  0  0
   -0.5378   -4.1083    4.7793 H   0  0  0  0  0  0  0  0  0  0  0  0
    4.7630    6.3589    1.2483 H   0  0  0  0  0  0  0  0  0  0  0  0
    4.5284   -2.0273   -2.8486 H   0  0  0  0  0  0  0  0  0  0  0  0
    3.8892   -3.9983    2.3162 H   0  0  0  0  0  0  0  0  0  0  0  0
   -8.9924    0.8892    1.7207 H   0  0  0  0  0  0  0  0  0  0  0  0
    4.9080   -4.3966   -0.7104 H   0  0  0  0  0  0  0  0  0  0  0  0
  1 21  1  0  0  0  0
  1 23  1  0  0  0  0
  2 19  1  0  0  0  0
  2 26  1  0  0  0  0
  3 20  1  0  0  0  0
  3 53  1  0  0  0  0
  4 23  1  0  0  0  0
  4 25  1  0  0  0  0
  5 22  1  0  0  0  0
  5 54  1  0  0  0  0
  6 24  1  0  0  0  0
  6 30  1  0  0  0  0
  7 27  2  0  0  0  0
  7 33  1  0  0  0  0
  8 26  2  0  0  0  0
  9 30  2  0  0  0  0
 10 35  1  0  0  0  0
 10 64  1  0  0  0  0
 11 36  1  0  0  0  0
 11 65  1  0  0  0  0
 12 36  2  0  0  0  0
 13 41  1  0  0  0  0
 13 66  1  0  0  0  0
 14 42  1  0  0  0  0
 14 67  1  0  0  0  0
 15 43  1  0  0  0  0
 15 68  1  0  0  0  0
 16 44  1  0  0  0  0
 16 69  1  0  0  0  0
 17 45  1  0  0  0  0
 17 70  1  0  0  0  0
 18 44  2  0  0  0  0
 19 20  1  0  0  0  0
 19 22  1  0  0  0  0
 19 46  1  0  0  0  0
 20 21  1  0  0  0  0
 20 47  1  0  0  0  0
 21 24  1  0  0  0  0
 21 48  1  0  0  0  0
 22 23  1  0  0  0  0
 22 49  1  0  0  0  0
 23 50  1  0  0  0  0
 24 51  1  0  0  0  0
 24 52  1  0  0  0  0
 25 27  1  0  0  0  0
 25 28  2  0  0  0  0
 26 29  1  0  0  0  0
 27 32  1  0  0  0  0
 28 31  1  0  0  0  0
 28 55  1  0  0  0  0
 29 36  1  0  0  0  0
 29 56  1  0  0  0  0
 29 57  1  0  0  0  0
 30 34  1  0  0  0  0
 31 33  1  0  0  0  0
 31 35  2  0  0  0  0
 32 38  2  0  0  0  0
 32 39  1  0  0  0  0
 33 37  2  0  0  0  0
 34 44  1  0  0  0  0
 34 58  1  0  0  0  0
 34 59  1  0  0  0  0
 35 40  1  0  0  0  0
 37 41  1  0  0  0  0
 37 60  1  0  0  0  0
 38 43  1  0  0  0  0
 38 61  1  0  0  0  0
 39 42  2  0  0  0  0
 39 62  1  0  0  0  0
 40 41  2  0  0  0  0
 40 63  1  0  0  0  0
 42 45  1  0  0  0  0
 43 45  2  0  0  0  0
M  CHG  1   7   1
M  END
> <PUBCHEM_COMPOUND_CID>
23724698

> <PUBCHEM_CONFORMER_RMSD>
1.2

> <PUBCHEM_CONFORMER_DIVERSEORDER>
1
2
58
55
63
71
6
47
56
45
65
48
10
17
37
11
5
39
70
50
38
28
22
44
3
26
57
12
42
46
18
21
25
49
67
68
36
52
64
41
59
54
60
31
40
9
34
51
33
29
30
4
66
62
27
69
19
23
61
15
35
53
7
16
43
13
20
24
8
14
32

> <PUBCHEM_MMFF94_PARTIAL_CHARGES>
59
1 -0.56
10 -0.53
11 -0.65
12 -0.57
13 -0.53
14 -0.53
15 -0.53
16 -0.65
17 -0.53
18 -0.57
19 0.28
2 -0.43
20 0.28
21 0.28
22 0.28
23 0.56
24 0.28
25 0.09
26 0.66
27 0.85
28 -0.18
29 0.12
3 -0.68
30 0.66
31 0.03
32 0.09
33 0.92
34 0.12
35 0.08
36 0.66
37 -0.15
38 -0.15
39 -0.15
4 -0.36
40 -0.15
41 0.08
42 0.08
43 0.08
44 0.66
45 0.08
5 -0.68
53 0.4
54 0.4
55 0.15
6 -0.43
60 0.15
61 0.15
62 0.15
63 0.15
64 0.45
65 0.5
66 0.45
67 0.45
68 0.45
69 0.5
7 -0.87
70 0.45
8 -0.57
9 -0.57

> <PUBCHEM_EFFECTIVE_ROTOR_COUNT>
13.2

> <PUBCHEM_PHARMACOPHORE_FEATURES>
25
1 1 acceptor
1 10 donor
1 11 acceptor
1 12 acceptor
1 13 donor
1 14 donor
1 15 donor
1 16 acceptor
1 17 donor
1 18 acceptor
1 29 anion
1 3 acceptor
1 3 donor
1 34 anion
1 4 acceptor
1 5 acceptor
1 5 donor
1 8 acceptor
1 9 acceptor
3 11 12 36 anion
3 16 18 44 anion
6 1 19 20 21 22 23 rings
6 31 33 35 37 40 41 rings
6 32 38 39 42 43 45 rings
6 7 25 27 28 31 33 rings

> <PUBCHEM_HEAVY_ATOM_COUNT>
45

> <PUBCHEM_ATOM_DEF_STEREO_COUNT>
5

> <PUBCHEM_ATOM_UDEF_STEREO_COUNT>
0

> <PUBCHEM_BOND_DEF_STEREO_COUNT>
0

> <PUBCHEM_BOND_UDEF_STEREO_COUNT>
0

> <PUBCHEM_ISOTOPIC_ATOM_COUNT>
0

> <PUBCHEM_COMPONENT_COUNT>
1

> <PUBCHEM_CACTVS_TAUTO_COUNT>
183

> <PUBCHEM_CONFORMER_ID>
016A029A00000001

> <PUBCHEM_MMFF94_ENERGY>
124.5759

> <PUBCHEM_FEATURE_SELFOVERLAP>
127.607

> <PUBCHEM_SHAPE_FINGERPRINT>
12522641 24 18342731967062729073
14020679 6 18413387613974518850
14400156 188 18271230738472169347
15219462 58 17909248201266932527
21796203 349 18199765772236605840
22223350 30 17916000410169663011
6058803 2 17824564992510850847
86090 222 17417525921500756011
9896288 288 17329167165664524010

> <PUBCHEM_SHAPE_MULTIPOLES>
820.43
11.27
8.93
3.03
23.18
9.8
0.19
7.17
-4.73
-12.81
-4.96
2.27
-4.4
0.18

> <PUBCHEM_SHAPE_SELFOVERLAP>
1777.613

> <PUBCHEM_SHAPE_VOLUME>
440.2

> <PUBCHEM_COORDINATE_TYPE>
2
5
10

$$$$

