7229
  -OEChem-06261201552D

 31 32  0     0  0  0  0  0  0999 V2000
    6.2619    0.3660    0.0000 S   0  0  0  0  0  0  0  0  0  0  0  0
    4.6783    1.1708    0.0000 S   0  0  0  0  0  0  0  0  0  0  0  0
    6.2619   -1.3660    0.0000 S   0  0  0  0  0  0  0  0  0  0  0  0
    7.7619   -0.5000    0.0000 N   0  0  0  0  0  0  0  0  0  0  0  0
    4.6783   -0.4387    0.0000 N   0  0  0  0  0  0  0  0  0  0  0  0
    8.2619   -1.3660    0.0000 C   0  0  0  0  0  0  0  0  0  0  0  0
    8.2619    0.3660    0.0000 C   0  0  0  0  0  0  0  0  0  0  0  0
    6.7619   -0.5000    0.0000 C   0  0  0  0  0  0  0  0  0  0  0  0
    9.2619   -1.3660    0.0000 C   0  0  0  0  0  0  0  0  0  0  0  0
    9.2619    0.3660    0.0000 C   0  0  0  0  0  0  0  0  0  0  0  0
    3.7320    0.8660    0.0000 C   0  0  0  0  0  0  0  0  0  0  0  0
    3.7320   -0.1340    0.0000 C   0  0  0  0  0  0  0  0  0  0  0  0
    5.2619    0.3660    0.0000 C   0  0  0  0  0  0  0  0  0  0  0  0
    2.8660    1.3660    0.0000 C   0  0  0  0  0  0  0  0  0  0  0  0
    2.8660   -0.6340    0.0000 C   0  0  0  0  0  0  0  0  0  0  0  0
    2.0000    0.8660    0.0000 C   0  0  0  0  0  0  0  0  0  0  0  0
    2.0000   -0.1340    0.0000 C   0  0  0  0  0  0  0  0  0  0  0  0
    7.6793   -1.5781    0.0000 H   0  0  0  0  0  0  0  0  0  0  0  0
    8.3695   -1.9766    0.0000 H   0  0  0  0  0  0  0  0  0  0  0  0
    8.3695    0.9766    0.0000 H   0  0  0  0  0  0  0  0  0  0  0  0
    7.6793    0.5781    0.0000 H   0  0  0  0  0  0  0  0  0  0  0  0
    9.2619   -1.9860    0.0000 H   0  0  0  0  0  0  0  0  0  0  0  0
    9.8819   -1.3660    0.0000 H   0  0  0  0  0  0  0  0  0  0  0  0
    9.2619   -0.7460    0.0000 H   0  0  0  0  0  0  0  0  0  0  0  0
    9.2619   -0.2540    0.0000 H   0  0  0  0  0  0  0  0  0  0  0  0
    9.8819    0.3660    0.0000 H   0  0  0  0  0  0  0  0  0  0  0  0
    9.2619    0.9860    0.0000 H   0  0  0  0  0  0  0  0  0  0  0  0
    2.8660    1.9860    0.0000 H   0  0  0  0  0  0  0  0  0  0  0  0
    2.8660   -1.2540    0.0000 H   0  0  0  0  0  0  0  0  0  0  0  0
    1.4631    1.1760    0.0000 H   0  0  0  0  0  0  0  0  0  0  0  0
    1.4631   -0.4440    0.0000 H   0  0  0  0  0  0  0  0  0  0  0  0
  1  8  1  0  0  0  0
  1 13  1  0  0  0  0
  2 11  1  0  0  0  0
  2 13  1  0  0  0  0
  3  8  2  0  0  0  0
  4  6  1  0  0  0  0
  4  7  1  0  0  0  0
  4  8  1  0  0  0  0
  5 12  1  0  0  0  0
  5 13  2  0  0  0  0
  6  9  1  0  0  0  0
  6 18  1  0  0  0  0
  6 19  1  0  0  0  0
  7 10  1  0  0  0  0
  7 20  1  0  0  0  0
  7 21  1  0  0  0  0
  9 22  1  0  0  0  0
  9 23  1  0  0  0  0
  9 24  1  0  0  0  0
 10 25  1  0  0  0  0
 10 26  1  0  0  0  0
 10 27  1  0  0  0  0
 11 12  1  0  0  0  0
 11 14  2  0  0  0  0
 12 15  2  0  0  0  0
 14 16  1  0  0  0  0
 14 28  1  0  0  0  0
 15 17  1  0  0  0  0
 15 29  1  0  0  0  0
 16 17  2  0  0  0  0
 16 30  1  0  0  0  0
 17 31  1  0  0  0  0
M  END
> <PUBCHEM_COMPOUND_CID>
7229

> <PUBCHEM_COMPOUND_CANONICALIZED>
1

> <PUBCHEM_CACTVS_COMPLEXITY>
269

> <PUBCHEM_CACTVS_HBOND_ACCEPTOR>
4

> <PUBCHEM_CACTVS_HBOND_DONOR>
0

> <PUBCHEM_CACTVS_ROTATABLE_BOND>
4

> <PUBCHEM_CACTVS_SUBSKEYS>
AAADccBzAABgAAAAAAAAAAAAAAAAAWAAAAAwAAAAAAAAAFgB8AAAHAQAAAAACAjBVgQywbMIEAikASRiRACD8aBhCjhImDw4ZJgIIKLgkZGEIAhggADIyAcQAAAAAAAAAAAAAQAAAAAAAAACAAAAAAAAAA==

> <PUBCHEM_IUPAC_OPENEYE_NAME>
1,3-benzothiazol-2-yl N,N-diethylcarbamodithioate

> <PUBCHEM_IUPAC_CAS_NAME>
N,N-diethylcarbamodithioic acid 1,3-benzothiazol-2-yl ester

> <PUBCHEM_IUPAC_NAME>
1,3-benzothiazol-2-yl N,N-diethylcarbamodithioate

> <PUBCHEM_IUPAC_SYSTEMATIC_NAME>
1,3-benzothiazol-2-yl N,N-diethylcarbamodithioate

> <PUBCHEM_IUPAC_TRADITIONAL_NAME>
N,N-diethylcarbamodithioic acid 1,3-benzothiazol-2-yl ester

> <PUBCHEM_IUPAC_INCHI>
InChI=1S/C12H14N2S3/c1-3-14(4-2)12(15)17-11-13-9-7-5-6-8-10(9)16-11/h5-8H,3-4H2,1-2H3

> <PUBCHEM_IUPAC_INCHIKEY>
LFMQNMXVVXHZCC-UHFFFAOYSA-N

> <PUBCHEM_XLOGP3>
4.2

> <PUBCHEM_EXACT_MASS>
282.031911

> <PUBCHEM_MOLECULAR_FORMULA>
C12H14N2S3

> <PUBCHEM_MOLECULAR_WEIGHT>
282.44796

> <PUBCHEM_OPENEYE_CAN_SMILES>
CCN(CC)C(=S)SC1=NC2=CC=CC=C2S1

> <PUBCHEM_OPENEYE_ISO_SMILES>
CCN(CC)C(=S)SC1=NC2=CC=CC=C2S1

> <PUBCHEM_CACTVS_TPSA>
102

> <PUBCHEM_MONOISOTOPIC_WEIGHT>
282.031911

> <PUBCHEM_TOTAL_CHARGE>
0

> <PUBCHEM_HEAVY_ATOM_COUNT>
17

> <PUBCHEM_ATOM_DEF_STEREO_COUNT>
0

> <PUBCHEM_ATOM_UDEF_STEREO_COUNT>
0

> <PUBCHEM_BOND_DEF_STEREO_COUNT>
0

> <PUBCHEM_BOND_UDEF_STEREO_COUNT>
0

> <PUBCHEM_ISOTOPIC_ATOM_COUNT>
0

> <PUBCHEM_COMPONENT_COUNT>
1

> <PUBCHEM_CACTVS_TAUTO_COUNT>
1

> <PUBCHEM_COORDINATE_TYPE>
1
5
255

> <PUBCHEM_BONDANNOTATIONS>
11  12  8
11  14  8
12  15  8
14  16  8
15  17  8
16  17  8
2  11  8
2  13  8
5  12  8
5  13  8

$$$$

