22955
  -OEChem-07051213033D

 45 48  0     1  0  0  0  0  0999 V2000
    4.4784   -1.7349    0.1707 O   0  0  0  0  0  0  0  0  0  0  0  0
   -5.9971    0.2334   -0.0239 O   0  0  0  0  0  0  0  0  0  0  0  0
    6.0478    0.4600   -0.3833 O   0  0  0  0  0  0  0  0  0  0  0  0
   -4.5074    2.4264    0.8050 O   0  0  0  0  0  0  0  0  0  0  0  0
    0.2304   -1.4183   -0.1131 N   0  0  2  0  0  0  0  0  0  0  0  0
   -0.3273   -0.1706    0.4644 C   0  0  1  0  0  0  0  0  0  0  0  0
    0.4065    1.0158   -0.2083 C   0  0  0  0  0  0  0  0  0  0  0  0
   -0.5639   -2.5890    0.2688 C   0  0  0  0  0  0  0  0  0  0  0  0
   -1.8432   -0.0543    0.3165 C   0  0  0  0  0  0  0  0  0  0  0  0
    1.6334   -1.5939    0.2995 C   0  0  0  0  0  0  0  0  0  0  0  0
   -1.9484   -2.4868   -0.3661 C   0  0  0  0  0  0  0  0  0  0  0  0
   -2.6125   -1.1721   -0.0588 C   0  0  0  0  0  0  0  0  0  0  0  0
    1.9073    0.8593   -0.2368 C   0  0  0  0  0  0  0  0  0  0  0  0
    2.4938   -0.3983   -0.0261 C   0  0  0  0  0  0  0  0  0  0  0  0
   -2.5086    1.1442    0.6240 C   0  0  0  0  0  0  0  0  0  0  0  0
   -4.0049   -1.0581   -0.1854 C   0  0  0  0  0  0  0  0  0  0  0  0
    3.8887   -0.5267   -0.0653 C   0  0  0  0  0  0  0  0  0  0  0  0
    2.7215    1.9635   -0.5224 C   0  0  0  0  0  0  0  0  0  0  0  0
   -3.8962    1.2453    0.5086 C   0  0  0  0  0  0  0  0  0  0  0  0
   -4.6433    0.1471    0.0968 C   0  0  0  0  0  0  0  0  0  0  0  0
    4.6914    0.5801   -0.3397 C   0  0  0  0  0  0  0  0  0  0  0  0
    4.1081    1.8234   -0.5713 C   0  0  0  0  0  0  0  0  0  0  0  0
   -6.5105    0.6391   -1.2914 C   0  0  0  0  0  0  0  0  0  0  0  0
    6.7559    0.6651    0.8376 C   0  0  0  0  0  0  0  0  0  0  0  0
   -0.1239   -0.1572    1.5461 H   0  0  0  0  0  0  0  0  0  0  0  0
    0.1748    1.9445    0.3269 H   0  0  0  0  0  0  0  0  0  0  0  0
    0.0592    1.1356   -1.2437 H   0  0  0  0  0  0  0  0  0  0  0  0
   -0.6444   -2.6712    1.3610 H   0  0  0  0  0  0  0  0  0  0  0  0
   -0.0915   -3.5101   -0.0939 H   0  0  0  0  0  0  0  0  0  0  0  0
    2.0345   -2.4671   -0.2299 H   0  0  0  0  0  0  0  0  0  0  0  0
    1.7028   -1.7871    1.3783 H   0  0  0  0  0  0  0  0  0  0  0  0
   -2.5661   -3.3135    0.0048 H   0  0  0  0  0  0  0  0  0  0  0  0
   -1.8708   -2.5904   -1.4559 H   0  0  0  0  0  0  0  0  0  0  0  0
   -1.9501    2.0122    0.9646 H   0  0  0  0  0  0  0  0  0  0  0  0
   -4.5928   -1.9181   -0.4983 H   0  0  0  0  0  0  0  0  0  0  0  0
    2.2783    2.9390   -0.7064 H   0  0  0  0  0  0  0  0  0  0  0  0
    4.7271    2.6894   -0.7899 H   0  0  0  0  0  0  0  0  0  0  0  0
    5.4393   -1.6421    0.0536 H   0  0  0  0  0  0  0  0  0  0  0  0
   -5.4684    2.3099    0.7102 H   0  0  0  0  0  0  0  0  0  0  0  0
   -6.2478   -0.0934   -2.0612 H   0  0  0  0  0  0  0  0  0  0  0  0
   -6.1283    1.6269   -1.5676 H   0  0  0  0  0  0  0  0  0  0  0  0
   -7.6001    0.6938   -1.2180 H   0  0  0  0  0  0  0  0  0  0  0  0
    6.4150   -0.0331    1.6086 H   0  0  0  0  0  0  0  0  0  0  0  0
    6.6286    1.6959    1.1831 H   0  0  0  0  0  0  0  0  0  0  0  0
    7.8187    0.4880    0.6510 H   0  0  0  0  0  0  0  0  0  0  0  0
  1 17  1  0  0  0  0
  1 38  1  0  0  0  0
  2 20  1  0  0  0  0
  2 23  1  0  0  0  0
  3 21  1  0  0  0  0
  3 24  1  0  0  0  0
  4 19  1  0  0  0  0
  4 39  1  0  0  0  0
  5  6  1  0  0  0  0
  5  8  1  0  0  0  0
  5 10  1  0  0  0  0
  6  7  1  0  0  0  0
  6  9  1  0  0  0  0
  6 25  1  0  0  0  0
  7 13  1  0  0  0  0
  7 26  1  0  0  0  0
  7 27  1  0  0  0  0
  8 11  1  0  0  0  0
  8 28  1  0  0  0  0
  8 29  1  0  0  0  0
  9 12  1  0  0  0  0
  9 15  2  0  0  0  0
 10 14  1  0  0  0  0
 10 30  1  0  0  0  0
 10 31  1  0  0  0  0
 11 12  1  0  0  0  0
 11 32  1  0  0  0  0
 11 33  1  0  0  0  0
 12 16  2  0  0  0  0
 13 14  2  0  0  0  0
 13 18  1  0  0  0  0
 14 17  1  0  0  0  0
 15 19  1  0  0  0  0
 15 34  1  0  0  0  0
 16 20  1  0  0  0  0
 16 35  1  0  0  0  0
 17 21  2  0  0  0  0
 18 22  2  0  0  0  0
 18 36  1  0  0  0  0
 19 20  2  0  0  0  0
 21 22  1  0  0  0  0
 22 37  1  0  0  0  0
 23 40  1  0  0  0  0
 23 41  1  0  0  0  0
 23 42  1  0  0  0  0
 24 43  1  0  0  0  0
 24 44  1  0  0  0  0
 24 45  1  0  0  0  0
M  END
> <PUBCHEM_COMPOUND_CID>
22955

> <PUBCHEM_CONFORMER_RMSD>
0.6

> <PUBCHEM_CONFORMER_DIVERSEORDER>
2
5
6
3
9
7
4
8
1

> <PUBCHEM_MMFF94_PARTIAL_CHARGES>
30
1 -0.53
10 0.41
11 0.14
12 -0.14
13 -0.14
14 -0.14
15 -0.15
16 -0.15
17 0.08
18 -0.15
19 0.08
2 -0.36
20 0.08
21 0.08
22 -0.15
23 0.28
24 0.28
3 -0.36
34 0.15
35 0.15
36 0.15
37 0.15
38 0.45
39 0.45
4 -0.53
5 -0.81
6 0.41
7 0.14
8 0.27
9 -0.14

> <PUBCHEM_EFFECTIVE_ROTOR_COUNT>
2.8

> <PUBCHEM_PHARMACOPHORE_FEATURES>
9
1 1 donor
1 2 acceptor
1 3 acceptor
1 4 donor
1 5 cation
6 13 14 17 18 21 22 rings
6 5 6 7 10 13 14 rings
6 5 6 8 9 11 12 rings
6 9 12 15 16 19 20 rings

> <PUBCHEM_HEAVY_ATOM_COUNT>
24

> <PUBCHEM_ATOM_DEF_STEREO_COUNT>
0

> <PUBCHEM_ATOM_UDEF_STEREO_COUNT>
1

> <PUBCHEM_BOND_DEF_STEREO_COUNT>
0

> <PUBCHEM_BOND_UDEF_STEREO_COUNT>
0

> <PUBCHEM_ISOTOPIC_ATOM_COUNT>
0

> <PUBCHEM_COMPONENT_COUNT>
1

> <PUBCHEM_CACTVS_TAUTO_COUNT>
26

> <PUBCHEM_CONFORMER_ID>
000059AB00000002

> <PUBCHEM_MMFF94_ENERGY>
87.2615

> <PUBCHEM_FEATURE_SELFOVERLAP>
45.735

> <PUBCHEM_SHAPE_FINGERPRINT>
10411042 1 17692816299624197050
10763959 59 17632577175451829805
10906281 52 18059281069235930076
11089746 13 18260833670029430420
11315181 36 18410852131639699600
11578080 2 17097224822343191490
12107183 9 17906168812672953456
12236239 1 18187646937921619395
12788726 201 17822566213341616057
12838862 33 18339662082340883861
13177829 73 18410011031240770168
13533116 47 17822009860985643694
13583140 156 17417807336279014537
14767858 380 18261406529337268671
14790565 3 18411411843156092113
15131766 46 16341432607127128852
15142383 8 17131843083620113644
15183329 4 18411415120595693916
15196674 1 18411133636638833770
15461852 350 17386289779760938580
18608769 82 18337388220024088859
18681886 176 18261399909753448104
19489759 90 17967248689298339593
20511986 3 18338530646600556550
21033648 29 16845303721644095117
21033650 10 17097460263560294920
21150785 3 15430040928999205288
21267235 1 18339069411150373283
21298829 104 18338516443181405029
21421861 104 17845665858400462378
21859007 373 17916327054500053380
23402539 116 18334016051382187469
23558518 356 17627503835928344322
23559900 14 18115031792414433640
23569917 315 18410568487647346047
25147074 1 18340505403401513642
2838139 119 18272095985218856533
300161 21 18408608045956257130
3004659 81 18411696626048872502
335352 9 18412542107540628390
34797466 226 16877939413105959880
34934 24 18411702063356117474
350125 39 18410573994274382657
3545911 37 18410290298292995792
3680242 22 18272653493585682026
4017518 198 17822003212951725486
4073 2 18130220442473408362
4214541 1 18410853226750488140
474 4 18131346384517390825
5104073 3 18413102874833142218
559249 180 18412546479422040730
6328613 192 18271797966286798884
633830 44 17345756274590892224
9709674 26 18335127657849463190
9981440 41 18411131433579581131

> <PUBCHEM_SHAPE_MULTIPOLES>
465.45
14.59
2.34
0.82
2.28
0.67
0.04
-5.57
0.98
-0.55
-0.04
-0.33
-0.19
-0.65

> <PUBCHEM_SHAPE_SELFOVERLAP>
1021.555

> <PUBCHEM_SHAPE_VOLUME>
251.7

> <PUBCHEM_COORDINATE_TYPE>
2
5
10

$$$$

