5282015
  -OEChem-07051213022D

 92 95  0     1  0  0  0  0  0999 V2000
    8.1282   -1.7500    0.0000 O   0  0  0  0  0  0  0  0  0  0  0  0
    8.1282   -0.7500    0.0000 O   0  0  0  0  0  0  0  0  0  0  0  0
    5.5301   -3.2500    0.0000 O   0  0  0  0  0  0  0  0  0  0  0  0
    5.5301    0.7500    0.0000 O   0  0  0  0  0  0  0  0  0  0  0  0
    4.6641    4.2500    0.0000 O   0  0  0  0  0  0  0  0  0  0  0  0
    6.5301    1.7500    0.0000 O   0  0  0  0  0  0  0  0  0  0  0  0
   10.7263    3.7500    0.0000 O   0  0  0  0  0  0  0  0  0  0  0  0
    2.0000    3.7742    0.0000 O   0  0  0  0  0  0  0  0  0  0  0  0
    7.2622   -1.2500    0.0000 C   0  0  2  0  0  0  0  0  0  0  0  0
    8.1282   -2.7500    0.0000 C   0  0  1  0  0  0  0  0  0  0  0  0
    7.2622   -3.2500    0.0000 C   0  0  2  0  0  0  0  0  0  0  0  0
    6.3961   -1.7500    0.0000 C   0  0  0  0  0  0  0  0  0  0  0  0
    6.3961   -2.7500    0.0000 C   0  0  2  0  0  0  0  0  0  0  0  0
    6.3961   -0.7500    0.0000 C   0  0  0  0  0  0  0  0  0  0  0  0
    6.3961    0.2500    0.0000 C   0  0  2  0  0  0  0  0  0  0  0  0
    8.9942   -3.2500    0.0000 C   0  0  3  0  0  0  0  0  0  0  0  0
    8.1282    0.2500    0.0000 C   0  0  1  0  0  0  0  0  0  0  0  0
    7.2622    0.7500    0.0000 C   0  0  0  0  0  0  0  0  0  0  0  0
    7.2622   -4.2500    0.0000 C   0  0  0  0  0  0  0  0  0  0  0  0
    8.9942   -4.2500    0.0000 C   0  0  0  0  0  0  0  0  0  0  0  0
    8.9942    0.7500    0.0000 C   0  0  0  0  0  0  0  0  0  0  0  0
    9.8602   -2.7500    0.0000 C   0  0  0  0  0  0  0  0  0  0  0  0
    9.8602   -4.7500    0.0000 C   0  0  0  0  0  0  0  0  0  0  0  0
    8.9942    1.7500    0.0000 C   0  0  0  0  0  0  0  0  0  0  0  0
    4.6641    2.2500    0.0000 C   0  0  1  0  0  0  0  0  0  0  0  0
    5.5301    1.7500    0.0000 C   0  0  0  0  0  0  0  0  0  0  0  0
    4.6641    3.2500    0.0000 C   0  0  2  0  0  0  0  0  0  0  0  0
    9.8602    2.2500    0.0000 C   0  0  0  0  0  0  0  0  0  0  0  0
    3.7702    3.7847    0.0000 C   0  0  0  0  0  0  0  0  0  0  0  0
    3.7702    1.7153    0.0000 C   0  0  0  0  0  0  0  0  0  0  0  0
    5.5301    3.7500    0.0000 C   0  0  0  0  0  0  0  0  0  0  0  0
    9.8602    3.2500    0.0000 C   0  0  2  0  0  0  0  0  0  0  0  0
    2.8641    2.2292    0.0000 C   0  0  0  0  0  0  0  0  0  0  0  0
    2.8641    3.2708    0.0000 C   0  0  0  0  0  0  0  0  0  0  0  0
    8.9942    3.7500    0.0000 C   0  0  2  0  0  0  0  0  0  0  0  0
   10.7263    1.7500    0.0000 C   0  0  0  0  0  0  0  0  0  0  0  0
    6.3961    3.2500    0.0000 C   0  0  0  0  0  0  0  0  0  0  0  0
    5.5301    4.7500    0.0000 C   0  0  0  0  0  0  0  0  0  0  0  0
    2.0000    1.7258    0.0000 C   0  0  0  0  0  0  0  0  0  0  0  0
    8.1282    3.2500    0.0000 C   0  0  0  0  0  0  0  0  0  0  0  0
    7.2622    3.7500    0.0000 C   0  0  0  0  0  0  0  0  0  0  0  0
    8.9942    4.7500    0.0000 C   0  0  0  0  0  0  0  0  0  0  0  0
    8.6651   -2.4400    0.0000 H   0  0  0  0  0  0  0  0  0  0  0  0
    6.7252   -3.5600    0.0000 H   0  0  0  0  0  0  0  0  0  0  0  0
    6.1841   -1.1674    0.0000 H   0  0  0  0  0  0  0  0  0  0  0  0
    5.7856   -1.8577    0.0000 H   0  0  0  0  0  0  0  0  0  0  0  0
    5.8592   -2.4400    0.0000 H   0  0  0  0  0  0  0  0  0  0  0  0
    5.7856   -0.6423    0.0000 H   0  0  0  0  0  0  0  0  0  0  0  0
    6.1841   -1.3326    0.0000 H   0  0  0  0  0  0  0  0  0  0  0  0
    5.6600   -0.1750    0.0000 H   0  0  0  0  0  0  0  0  0  0  0  0
    8.9942   -2.4000    0.0000 H   0  0  0  0  0  0  0  0  0  0  0  0
    8.8643   -0.1750    0.0000 H   0  0  0  0  0  0  0  0  0  0  0  0
    7.6607    1.2250    0.0000 H   0  0  0  0  0  0  0  0  0  0  0  0
    6.8636    1.2250    0.0000 H   0  0  0  0  0  0  0  0  0  0  0  0
    6.6422   -4.2500    0.0000 H   0  0  0  0  0  0  0  0  0  0  0  0
    7.2622   -4.8700    0.0000 H   0  0  0  0  0  0  0  0  0  0  0  0
    7.8822   -4.2500    0.0000 H   0  0  0  0  0  0  0  0  0  0  0  0
    8.3836   -4.1423    0.0000 H   0  0  0  0  0  0  0  0  0  0  0  0
    8.7822   -4.8326    0.0000 H   0  0  0  0  0  0  0  0  0  0  0  0
    9.2063    0.1674    0.0000 H   0  0  0  0  0  0  0  0  0  0  0  0
    9.6048    0.8577    0.0000 H   0  0  0  0  0  0  0  0  0  0  0  0
   10.1703   -3.2869    0.0000 H   0  0  0  0  0  0  0  0  0  0  0  0
   10.3972   -2.4400    0.0000 H   0  0  0  0  0  0  0  0  0  0  0  0
    9.5502   -2.2131    0.0000 H   0  0  0  0  0  0  0  0  0  0  0  0
    5.5301   -3.8700    0.0000 H   0  0  0  0  0  0  0  0  0  0  0  0
    9.5502   -5.2869    0.0000 H   0  0  0  0  0  0  0  0  0  0  0  0
   10.3972   -5.0600    0.0000 H   0  0  0  0  0  0  0  0  0  0  0  0
   10.1703   -4.2131    0.0000 H   0  0  0  0  0  0  0  0  0  0  0  0
    8.4573    2.0600    0.0000 H   0  0  0  0  0  0  0  0  0  0  0  0
    4.6641    1.4000    0.0000 H   0  0  0  0  0  0  0  0  0  0  0  0
    4.1748    4.2544    0.0000 H   0  0  0  0  0  0  0  0  0  0  0  0
    3.3765    4.2637    0.0000 H   0  0  0  0  0  0  0  0  0  0  0  0
    3.7773    1.0954    0.0000 H   0  0  0  0  0  0  0  0  0  0  0  0
   10.3972    2.9400    0.0000 H   0  0  0  0  0  0  0  0  0  0  0  0
    8.4573    4.0600    0.0000 H   0  0  0  0  0  0  0  0  0  0  0  0
   10.4163    1.2131    0.0000 H   0  0  0  0  0  0  0  0  0  0  0  0
   11.2632    1.4400    0.0000 H   0  0  0  0  0  0  0  0  0  0  0  0
   11.0363    2.2869    0.0000 H   0  0  0  0  0  0  0  0  0  0  0  0
    4.1272    4.5600    0.0000 H   0  0  0  0  0  0  0  0  0  0  0  0
    6.7062    2.7131    0.0000 H   0  0  0  0  0  0  0  0  0  0  0  0
    6.1501    4.7500    0.0000 H   0  0  0  0  0  0  0  0  0  0  0  0
    5.5301    5.3700    0.0000 H   0  0  0  0  0  0  0  0  0  0  0  0
    4.9101    4.7500    0.0000 H   0  0  0  0  0  0  0  0  0  0  0  0
    1.6879    2.2616    0.0000 H   0  0  0  0  0  0  0  0  0  0  0  0
    1.4643    1.4138    0.0000 H   0  0  0  0  0  0  0  0  0  0  0  0
    2.3121    1.1901    0.0000 H   0  0  0  0  0  0  0  0  0  0  0  0
    8.1282    2.6300    0.0000 H   0  0  0  0  0  0  0  0  0  0  0  0
    7.2622    4.3700    0.0000 H   0  0  0  0  0  0  0  0  0  0  0  0
    9.6142    4.7500    0.0000 H   0  0  0  0  0  0  0  0  0  0  0  0
    8.9942    5.3700    0.0000 H   0  0  0  0  0  0  0  0  0  0  0  0
    8.3742    4.7500    0.0000 H   0  0  0  0  0  0  0  0  0  0  0  0
   11.2632    3.4400    0.0000 H   0  0  0  0  0  0  0  0  0  0  0  0
  9  1  1  6  0  0  0
  1 10  1  0  0  0  0
  2  9  1  0  0  0  0
  2 17  1  0  0  0  0
 13  3  1  1  0  0  0
  3 65  1  0  0  0  0
  4 15  1  0  0  0  0
  4 26  1  0  0  0  0
 27  5  1  6  0  0  0
  5 79  1  0  0  0  0
  6 26  2  0  0  0  0
 32  7  1  6  0  0  0
  7 92  1  0  0  0  0
  8 34  2  0  0  0  0
  9 12  1  0  0  0  0
  9 14  1  0  0  0  0
 10 11  1  0  0  0  0
 10 16  1  6  0  0  0
 10 43  1  0  0  0  0
 11 13  1  0  0  0  0
 11 19  1  1  0  0  0
 11 44  1  0  0  0  0
 12 13  1  0  0  0  0
 12 45  1  0  0  0  0
 12 46  1  0  0  0  0
 13 47  1  0  0  0  0
 14 15  1  0  0  0  0
 14 48  1  0  0  0  0
 14 49  1  0  0  0  0
 15 18  1  0  0  0  0
 15 50  1  6  0  0  0
 16 20  1  0  0  0  0
 16 22  1  0  0  0  0
 16 51  1  0  0  0  0
 17 18  1  0  0  0  0
 17 21  1  0  0  0  0
 17 52  1  6  0  0  0
 18 53  1  0  0  0  0
 18 54  1  0  0  0  0
 19 55  1  0  0  0  0
 19 56  1  0  0  0  0
 19 57  1  0  0  0  0
 20 23  1  0  0  0  0
 20 58  1  0  0  0  0
 20 59  1  0  0  0  0
 21 24  1  0  0  0  0
 21 60  1  0  0  0  0
 21 61  1  0  0  0  0
 22 62  1  0  0  0  0
 22 63  1  0  0  0  0
 22 64  1  0  0  0  0
 23 66  1  0  0  0  0
 23 67  1  0  0  0  0
 23 68  1  0  0  0  0
 24 28  2  0  0  0  0
 24 69  1  0  0  0  0
 25 26  1  0  0  0  0
 25 27  1  0  0  0  0
 25 30  1  0  0  0  0
 25 70  1  1  0  0  0
 27 29  1  0  0  0  0
 27 31  1  0  0  0  0
 28 32  1  0  0  0  0
 28 36  1  0  0  0  0
 29 34  1  0  0  0  0
 29 71  1  0  0  0  0
 29 72  1  0  0  0  0
 30 33  2  0  0  0  0
 30 73  1  0  0  0  0
 31 37  2  0  0  0  0
 31 38  1  0  0  0  0
 32 35  1  0  0  0  0
 32 74  1  0  0  0  0
 33 34  1  0  0  0  0
 33 39  1  0  0  0  0
 35 40  1  0  0  0  0
 35 42  1  6  0  0  0
 35 75  1  0  0  0  0
 36 76  1  0  0  0  0
 36 77  1  0  0  0  0
 36 78  1  0  0  0  0
 37 41  1  0  0  0  0
 37 80  1  0  0  0  0
 38 81  1  0  0  0  0
 38 82  1  0  0  0  0
 38 83  1  0  0  0  0
 39 84  1  0  0  0  0
 39 85  1  0  0  0  0
 39 86  1  0  0  0  0
 40 41  2  0  0  0  0
 40 87  1  0  0  0  0
 41 88  1  0  0  0  0
 42 89  1  0  0  0  0
 42 90  1  0  0  0  0
 42 91  1  0  0  0  0
M  END
> <PUBCHEM_COMPOUND_CID>
5282015

> <PUBCHEM_COMPOUND_CANONICALIZED>
1

> <PUBCHEM_CACTVS_COMPLEXITY>
1150

> <PUBCHEM_CACTVS_HBOND_ACCEPTOR>
8

> <PUBCHEM_CACTVS_HBOND_DONOR>
3

> <PUBCHEM_CACTVS_ROTATABLE_BOND>
2

> <PUBCHEM_CACTVS_SUBSKEYS>
AAADcfB8PAAAAAAAAAAAAAAAAAAAAAAAAAAkSIAAAAAAAAAAAAAAGgAACAAADVSggAICCAAABgCIAqDSCAAAAAAgAAAICAEAAEgYFBYAAQAiUAAF4AAMkYOI7uyugAAAAAAAAAAAAAAAAAAAAAAAAAAAAA==

> <PUBCHEM_IUPAC_INCHI>
InChI=1S/C34H50O8/c1-8-19(2)31-24(7)29(36)17-33(42-31)16-26-15-25(41-33)13-12-21(4)30(37)20(3)10-9-11-23(6)34(39)18-28(35)22(5)14-27(34)32(38)40-26/h9-12,14,19-20,24-27,29-31,36-37,39H,8,13,15-18H2,1-7H3/b10-9+,21-12+,23-11+/t19?,20-,24-,25+,26-,27-,29-,30-,31+,33-,34+/m0/s1

> <PUBCHEM_IUPAC_INCHIKEY>
QCSFFKFCYQTXGW-ZGLBEODDSA-N

> <PUBCHEM_XLOGP3_AA>
3.9

> <PUBCHEM_EXACT_MASS>
586.350569

> <PUBCHEM_MOLECULAR_FORMULA>
C34H50O8

> <PUBCHEM_MOLECULAR_WEIGHT>
586.756

> <PUBCHEM_OPENEYE_CAN_SMILES>
CCC(C)C1C(C(CC2(O1)CC3CC(O2)CC=C(C(C(C=CC=C(C4(CC(=O)C(=CC4C(=O)O3)C)O)C)C)O)C)O)C

> <PUBCHEM_OPENEYE_ISO_SMILES>
CCC(C)[C@@H]1[C@H]([C@H](C[C@@]2(O1)C[C@@H]3C[C@H](O2)C/C=C(/[C@H]([C@H](/C=C/C=C(/[C@@]4(CC(=O)C(=C[C@H]4C(=O)O3)C)O)\C)C)O)\C)O)C

> <PUBCHEM_CACTVS_TPSA>
123

> <PUBCHEM_MONOISOTOPIC_WEIGHT>
586.350569

> <PUBCHEM_TOTAL_CHARGE>
0

> <PUBCHEM_HEAVY_ATOM_COUNT>
42

> <PUBCHEM_ATOM_DEF_STEREO_COUNT>
10

> <PUBCHEM_ATOM_UDEF_STEREO_COUNT>
1

> <PUBCHEM_BOND_DEF_STEREO_COUNT>
3

> <PUBCHEM_BOND_UDEF_STEREO_COUNT>
0

> <PUBCHEM_ISOTOPIC_ATOM_COUNT>
0

> <PUBCHEM_COMPONENT_COUNT>
1

> <PUBCHEM_CACTVS_TAUTO_COUNT>
7

> <PUBCHEM_COORDINATE_TYPE>
1
5
255

> <PUBCHEM_BONDANNOTATIONS>
9  1  6
10  16  6
11  19  5
15  50  6
16  51  3
17  52  6
25  70  5
13  3  5
35  42  6
27  5  6
32  7  6

$$$$

