46174039
  -OEChem-07051213113D

 60 62  0     1  0  0  0  0  0999 V2000
   -1.0236    3.3531    0.9021 P   0  0  2  0  0  0  0  0  0  0  0  0
   -3.0238    1.2194    1.2231 P   0  0  1  0  0  0  0  0  0  0  0  0
    2.8585    1.7737   -0.1181 O   0  0  0  0  0  0  0  0  0  0  0  0
   -1.5961   -1.0178   -1.2481 O   0  0  0  0  0  0  0  0  0  0  0  0
    3.7549    2.2763   -3.0018 O   0  0  0  0  0  0  0  0  0  0  0  0
    0.4922    3.2022    0.3573 O   0  0  0  0  0  0  0  0  0  0  0  0
   -3.0527   -0.1877    0.4317 O   0  0  0  0  0  0  0  0  0  0  0  0
   -1.5558    1.8271    0.9242 O   0  0  0  0  0  0  0  0  0  0  0  0
    4.7678   -1.8887   -0.1523 O   0  0  0  0  0  0  0  0  0  0  0  0
   -1.8232    3.9992   -0.3468 O   0  0  0  0  0  0  0  0  0  0  0  0
   -4.0048    2.1849    0.3727 O   0  0  0  0  0  0  0  0  0  0  0  0
   -1.1783    4.0875    2.2019 O   0  0  0  0  0  0  0  0  0  0  0  0
   -3.3640    1.1212    2.6820 O   0  0  0  0  0  0  0  0  0  0  0  0
    1.6382   -3.3915    2.8636 O   0  0  0  0  0  0  0  0  0  0  0  0
    2.9151   -0.5329    0.2716 N   0  0  0  0  0  0  0  0  0  0  0  0
   -3.1318   -4.4164   -1.4120 N   0  0  0  0  0  0  0  0  0  0  0  0
    3.1992   -2.6261    1.3497 N   0  0  0  0  0  0  0  0  0  0  0  0
    2.5311    1.7776   -2.4662 C   0  0  2  0  0  0  0  0  0  0  0  0
    2.1987    2.5038   -1.1704 C   0  0  1  0  0  0  0  0  0  0  0  0
    2.7170    0.3463   -2.0184 C   0  0  0  0  0  0  0  0  0  0  0  0
    3.3096    0.5111   -0.6284 C   0  0  1  0  0  0  0  0  0  0  0  0
   -2.9201   -3.0078   -1.7398 C   0  0  1  0  0  0  0  0  0  0  0  0
   -4.2042   -2.2093   -1.4891 C   0  0  0  0  0  0  0  0  0  0  0  0
   -1.7553   -2.4080   -0.9324 C   0  0  1  0  0  0  0  0  0  0  0  0
    0.7064    2.5189   -0.8652 C   0  0  0  0  0  0  0  0  0  0  0  0
   -3.9603   -0.7235   -1.7391 C   0  0  0  0  0  0  0  0  0  0  0  0
   -2.7474   -0.2234   -0.9591 C   0  0  2  0  0  0  0  0  0  0  0  0
   -0.4221   -3.0842   -1.2433 C   0  0  0  0  0  0  0  0  0  0  0  0
    1.7290   -0.3843    0.9799 C   0  0  0  0  0  0  0  0  0  0  0  0
    3.7057   -1.6902    0.4412 C   0  0  0  0  0  0  0  0  0  0  0  0
    1.2471   -1.2820    1.8484 C   0  0  0  0  0  0  0  0  0  0  0  0
    2.0246   -2.5282    2.0803 C   0  0  0  0  0  0  0  0  0  0  0  0
   -0.0316   -1.1003    2.6011 C   0  0  0  0  0  0  0  0  0  0  0  0
    1.7650    1.8827   -3.2403 H   0  0  0  0  0  0  0  0  0  0  0  0
    2.5965    3.5244   -1.1470 H   0  0  0  0  0  0  0  0  0  0  0  0
    3.3737   -0.2407   -2.6682 H   0  0  0  0  0  0  0  0  0  0  0  0
    1.7439   -0.1581   -1.9757 H   0  0  0  0  0  0  0  0  0  0  0  0
    4.4037    0.5555   -0.6875 H   0  0  0  0  0  0  0  0  0  0  0  0
   -2.6866   -2.9308   -2.8101 H   0  0  0  0  0  0  0  0  0  0  0  0
   -5.0107   -2.5632   -2.1428 H   0  0  0  0  0  0  0  0  0  0  0  0
   -4.5453   -2.3533   -0.4555 H   0  0  0  0  0  0  0  0  0  0  0  0
   -1.9428   -2.5002    0.1450 H   0  0  0  0  0  0  0  0  0  0  0  0
    0.1916    3.0569   -1.6674 H   0  0  0  0  0  0  0  0  0  0  0  0
    0.2835    1.5132   -0.8111 H   0  0  0  0  0  0  0  0  0  0  0  0
   -4.8562   -0.1564   -1.4634 H   0  0  0  0  0  0  0  0  0  0  0  0
   -3.7828   -0.5782   -2.8118 H   0  0  0  0  0  0  0  0  0  0  0  0
   -2.5135    0.7892   -1.3046 H   0  0  0  0  0  0  0  0  0  0  0  0
   -0.2131   -3.0583   -2.3185 H   0  0  0  0  0  0  0  0  0  0  0  0
   -0.4010   -4.1242   -0.9061 H   0  0  0  0  0  0  0  0  0  0  0  0
    0.4010   -2.5524   -0.7574 H   0  0  0  0  0  0  0  0  0  0  0  0
    3.6112    3.2098   -3.2333 H   0  0  0  0  0  0  0  0  0  0  0  0
    1.1619    0.5188    0.8228 H   0  0  0  0  0  0  0  0  0  0  0  0
   -2.3250   -4.9663   -1.7024 H   0  0  0  0  0  0  0  0  0  0  0  0
   -3.9243   -4.7763   -1.9426 H   0  0  0  0  0  0  0  0  0  0  0  0
    3.7520   -3.4675    1.4878 H   0  0  0  0  0  0  0  0  0  0  0  0
   -0.7570   -1.8683    2.3150 H   0  0  0  0  0  0  0  0  0  0  0  0
   -0.4829   -0.1230    2.4115 H   0  0  0  0  0  0  0  0  0  0  0  0
    0.1453   -1.1743    3.6791 H   0  0  0  0  0  0  0  0  0  0  0  0
   -1.8717    3.5125   -1.1966 H   0  0  0  0  0  0  0  0  0  0  0  0
   -4.2446    3.0612    0.7423 H   0  0  0  0  0  0  0  0  0  0  0  0
  1  6  1  0  0  0  0
  1  8  1  0  0  0  0
  1 10  1  0  0  0  0
  1 12  2  0  0  0  0
  2  7  1  0  0  0  0
  2  8  1  0  0  0  0
  2 11  1  0  0  0  0
  2 13  2  0  0  0  0
  3 19  1  0  0  0  0
  3 21  1  0  0  0  0
  4 24  1  0  0  0  0
  4 27  1  0  0  0  0
  5 18  1  0  0  0  0
  5 51  1  0  0  0  0
  6 25  1  0  0  0  0
  7 27  1  0  0  0  0
  9 30  2  0  0  0  0
 10 59  1  0  0  0  0
 11 60  1  0  0  0  0
 14 32  2  0  0  0  0
 15 21  1  0  0  0  0
 15 29  1  0  0  0  0
 15 30  1  0  0  0  0
 16 22  1  0  0  0  0
 16 53  1  0  0  0  0
 16 54  1  0  0  0  0
 17 30  1  0  0  0  0
 17 32  1  0  0  0  0
 17 55  1  0  0  0  0
 18 19  1  0  0  0  0
 18 20  1  0  0  0  0
 18 34  1  0  0  0  0
 19 25  1  0  0  0  0
 19 35  1  0  0  0  0
 20 21  1  0  0  0  0
 20 36  1  0  0  0  0
 20 37  1  0  0  0  0
 21 38  1  0  0  0  0
 22 23  1  0  0  0  0
 22 24  1  0  0  0  0
 22 39  1  0  0  0  0
 23 26  1  0  0  0  0
 23 40  1  0  0  0  0
 23 41  1  0  0  0  0
 24 28  1  0  0  0  0
 24 42  1  0  0  0  0
 25 43  1  0  0  0  0
 25 44  1  0  0  0  0
 26 27  1  0  0  0  0
 26 45  1  0  0  0  0
 26 46  1  0  0  0  0
 27 47  1  0  0  0  0
 28 48  1  0  0  0  0
 28 49  1  0  0  0  0
 28 50  1  0  0  0  0
 29 31  2  0  0  0  0
 29 52  1  0  0  0  0
 31 32  1  0  0  0  0
 31 33  1  0  0  0  0
 33 56  1  0  0  0  0
 33 57  1  0  0  0  0
 33 58  1  0  0  0  0
M  END
> <PUBCHEM_COMPOUND_CID>
46174039

> <PUBCHEM_CONFORMER_RMSD>
1.4

> <PUBCHEM_CONFORMER_DIVERSEORDER>
1
86
97
94
90
45
89
65
23
83
74
41
78
101
26
69
40
68
58
46
109
71
67
76
108
103
112
50
49
38
75
62
57
64
2
51
60
31
8
85
72
107
82
3
43
70
39
54
47
34
104
110
96
61
106
77
63
59
44
28
16
92
73
19
66
37
35
21
7
55
10
33
84
113
48
29
79
36
42
53
80
91
88
81
30
98
56
14
52
32
9
11
18
95
20
87
13
105
93
27
111
100
12
102
99
5
15
4
25
22
17
24
6

> <PUBCHEM_MMFF94_PARTIAL_CHARGES>
36
1 1.51
10 -0.77
11 -0.77
12 -0.7
13 -0.7
14 -0.57
15 -0.47
16 -0.99
17 -0.49
18 0.28
19 0.28
2 1.51
21 0.58
22 0.27
24 0.28
25 0.28
27 0.56
29 -0.04
3 -0.56
30 0.69
31 -0.12
32 0.62
33 0.14
4 -0.56
5 -0.68
51 0.4
52 0.15
53 0.36
54 0.36
55 0.37
59 0.5
6 -0.55
60 0.5
7 -0.55
8 -0.54
9 -0.57

> <PUBCHEM_EFFECTIVE_ROTOR_COUNT>
10.2

> <PUBCHEM_PHARMACOPHORE_FEATURES>
16
1 10 acceptor
1 11 acceptor
1 12 acceptor
1 13 acceptor
1 14 acceptor
1 16 cation
1 16 donor
1 17 donor
1 3 acceptor
1 4 acceptor
1 5 acceptor
1 5 donor
1 9 acceptor
5 3 18 19 20 21 rings
6 15 17 29 30 31 32 rings
6 4 22 23 24 26 27 rings

> <PUBCHEM_HEAVY_ATOM_COUNT>
33

> <PUBCHEM_ATOM_DEF_STEREO_COUNT>
6

> <PUBCHEM_ATOM_UDEF_STEREO_COUNT>
0

> <PUBCHEM_BOND_DEF_STEREO_COUNT>
0

> <PUBCHEM_BOND_UDEF_STEREO_COUNT>
0

> <PUBCHEM_ISOTOPIC_ATOM_COUNT>
0

> <PUBCHEM_COMPONENT_COUNT>
1

> <PUBCHEM_CACTVS_TAUTO_COUNT>
3

> <PUBCHEM_CONFORMER_ID>
02C08F5700000001

> <PUBCHEM_MMFF94_ENERGY>
24.1562

> <PUBCHEM_FEATURE_SELFOVERLAP>
81.214

> <PUBCHEM_SHAPE_FINGERPRINT>
12422481 6 17472990978753593906
12539773 59 18121770892381008145
12788726 201 18261663831441809413
13009979 54 18337690679557178754
14674994 50 17406311035645443276
15403338 16 17127888294950723625
19026451 147 17973458610765896327
19319366 153 18129082477196257569
20600515 1 17690333425968037938
21315764 21 17773342151866461885
238 59 17415857802772259327
238918 7 16105605435669655651
35225 105 17125033657242109383
445580 8 18264474256271657945
463206 1 18340211773824837843
581034 39 17826227685782917363
6287921 2 16531453955892987985
86090 222 16756358436806311587

> <PUBCHEM_SHAPE_MULTIPOLES>
601.45
7.65
5.64
2.93
1.18
1.41
-0.6
-3.04
3.44
1.59
-1.09
-0.66
-0.38
-5.08

> <PUBCHEM_SHAPE_SELFOVERLAP>
1216.803

> <PUBCHEM_SHAPE_VOLUME>
352.4

> <PUBCHEM_COORDINATE_TYPE>
2
5
10

$$$$

