1732
  -OEChem-07051213053D

 16 16  0     0  0  0  0  0  0999 V2000
   -2.7950    0.9134    0.0000 Cl  0  0  0  0  0  0  0  0  0  0  0  0
    2.9461   -0.3407    0.0000 O   0  0  0  0  0  0  0  0  0  0  0  0
   -0.6826   -0.8083    0.0000 C   0  0  0  0  0  0  0  0  0  0  0  0
    0.6821   -1.0969    0.0000 C   0  0  0  0  0  0  0  0  0  0  0  0
   -1.1150    0.5178    0.0000 C   0  0  0  0  0  0  0  0  0  0  0  0
    1.6144   -0.0593    0.0000 C   0  0  0  0  0  0  0  0  0  0  0  0
   -1.6493   -1.9482    0.0000 C   0  0  0  0  0  0  0  0  0  0  0  0
   -0.1827    1.5553    0.0000 C   0  0  0  0  0  0  0  0  0  0  0  0
    1.1820    1.2668   -0.0001 C   0  0  0  0  0  0  0  0  0  0  0  0
    1.0247   -2.1290    0.0000 H   0  0  0  0  0  0  0  0  0  0  0  0
   -2.2805   -1.9172    0.8942 H   0  0  0  0  0  0  0  0  0  0  0  0
   -2.2808   -1.9171   -0.8941 H   0  0  0  0  0  0  0  0  0  0  0  0
   -1.1383   -2.9174   -0.0001 H   0  0  0  0  0  0  0  0  0  0  0  0
   -0.5032    2.5941    0.0001 H   0  0  0  0  0  0  0  0  0  0  0  0
    1.9035    2.0793   -0.0002 H   0  0  0  0  0  0  0  0  0  0  0  0
    3.0649   -1.3060    0.0000 H   0  0  0  0  0  0  0  0  0  0  0  0
  1  5  1  0  0  0  0
  2  6  1  0  0  0  0
  2 16  1  0  0  0  0
  3  4  1  0  0  0  0
  3  5  2  0  0  0  0
  3  7  1  0  0  0  0
  4  6  2  0  0  0  0
  4 10  1  0  0  0  0
  5  8  1  0  0  0  0
  6  9  1  0  0  0  0
  7 11  1  0  0  0  0
  7 12  1  0  0  0  0
  7 13  1  0  0  0  0
  8  9  2  0  0  0  0
  8 14  1  0  0  0  0
  9 15  1  0  0  0  0
M  END
> <PUBCHEM_COMPOUND_CID>
1732

> <PUBCHEM_CONFORMER_RMSD>
0.4

> <PUBCHEM_CONFORMER_DIVERSEORDER>
1

> <PUBCHEM_MMFF94_PARTIAL_CHARGES>
13
1 -0.18
10 0.15
14 0.15
15 0.15
16 0.45
2 -0.53
3 -0.14
4 -0.15
5 0.18
6 0.08
7 0.14
8 -0.15
9 -0.15

> <PUBCHEM_EFFECTIVE_ROTOR_COUNT>
0

> <PUBCHEM_PHARMACOPHORE_FEATURES>
2
1 2 donor
6 3 4 5 6 8 9 rings

> <PUBCHEM_HEAVY_ATOM_COUNT>
9

> <PUBCHEM_ATOM_DEF_STEREO_COUNT>
0

> <PUBCHEM_ATOM_UDEF_STEREO_COUNT>
0

> <PUBCHEM_BOND_DEF_STEREO_COUNT>
0

> <PUBCHEM_BOND_UDEF_STEREO_COUNT>
0

> <PUBCHEM_ISOTOPIC_ATOM_COUNT>
0

> <PUBCHEM_COMPONENT_COUNT>
1

> <PUBCHEM_CACTVS_TAUTO_COUNT>
6

> <PUBCHEM_CONFORMER_ID>
000006C400000001

> <PUBCHEM_MMFF94_ENERGY>
20.241

> <PUBCHEM_FEATURE_SELFOVERLAP>
10.148

> <PUBCHEM_SHAPE_FINGERPRINT>
15310529 11 16702023135813141148
16945 1 18410856602610710948
18185500 45 18413110554297905106
193761 8 18122626050455166757
21040471 1 18410574032501742341
23235685 24 18336833103278319973
23402655 69 17977965784655786173
23552423 10 18128818547303213230
2748010 2 18265615385800092716
29004967 10 18200866395886520241
5084963 1 18116427046778795611

> <PUBCHEM_SHAPE_MULTIPOLES>
181.22
3.28
1.85
0.61
0.24
0.33
0
-0.15
0
-0.69
0
-0.04
-0.01
0

> <PUBCHEM_SHAPE_SELFOVERLAP>
367.277

> <PUBCHEM_SHAPE_VOLUME>
107.4

> <PUBCHEM_COORDINATE_TYPE>
2
5
10

$$$$

