5281681
  -OEChem-07051212583D

 46 48  0     1  0  0  0  0  0999 V2000
    0.7156   -1.9688   -0.6037 O   0  0  0  0  0  0  0  0  0  0  0  0
   -4.7715   -0.2446    1.2462 N   0  0  0  0  0  0  0  0  0  0  0  0
   -0.3091    0.0883   -0.1656 N   0  0  0  0  0  0  0  0  0  0  0  0
   -4.0729   -0.3839   -0.0399 C   0  0  1  0  0  0  0  0  0  0  0  0
   -4.8944    0.2497   -1.1740 C   0  0  0  0  0  0  0  0  0  0  0  0
   -2.7148    0.2496    0.0249 C   0  0  0  0  0  0  0  0  0  0  0  0
   -6.3035   -0.3336   -1.2365 C   0  0  0  0  0  0  0  0  0  0  0  0
   -6.9777   -0.2466    0.1274 C   0  0  0  0  0  0  0  0  0  0  0  0
   -2.6814    1.7268    0.3047 C   0  0  0  0  0  0  0  0  0  0  0  0
   -6.0994   -0.8604    1.2136 C   0  0  0  0  0  0  0  0  0  0  0  0
   -1.3146    2.1572    0.8221 C   0  0  0  0  0  0  0  0  0  0  0  0
   -0.1929    1.5535   -0.0153 C   0  0  0  0  0  0  0  0  0  0  0  0
   -1.5888   -0.4613   -0.1573 C   0  0  0  0  0  0  0  0  0  0  0  0
    0.7850   -0.7552   -0.3996 C   0  0  0  0  0  0  0  0  0  0  0  0
    2.1280   -0.1362   -0.4150 C   0  0  0  0  0  0  0  0  0  0  0  0
    3.1578   -0.8804   -0.0174 C   0  0  0  0  0  0  0  0  0  0  0  0
    4.5516   -0.4044    0.0335 C   0  0  0  0  0  0  0  0  0  0  0  0
    4.9181    0.7024   -0.7148 C   0  0  0  0  0  0  0  0  0  0  0  0
    5.4682   -1.0731    0.8286 C   0  0  0  0  0  0  0  0  0  0  0  0
    6.2373    1.1529   -0.6670 C   0  0  0  0  0  0  0  0  0  0  0  0
    6.7874   -0.6224    0.8765 C   0  0  0  0  0  0  0  0  0  0  0  0
    7.1719    0.4905    0.1286 C   0  0  0  0  0  0  0  0  0  0  0  0
   -3.9635   -1.4568   -0.2500 H   0  0  0  0  0  0  0  0  0  0  0  0
   -4.3958    0.0901   -2.1383 H   0  0  0  0  0  0  0  0  0  0  0  0
   -4.9851    1.3355   -1.0414 H   0  0  0  0  0  0  0  0  0  0  0  0
   -6.2515   -1.3822   -1.5541 H   0  0  0  0  0  0  0  0  0  0  0  0
   -6.8989    0.2003   -1.9852 H   0  0  0  0  0  0  0  0  0  0  0  0
   -7.1835    0.8041    0.3680 H   0  0  0  0  0  0  0  0  0  0  0  0
   -7.9440   -0.7624    0.0960 H   0  0  0  0  0  0  0  0  0  0  0  0
   -4.9032    0.7430    1.4614 H   0  0  0  0  0  0  0  0  0  0  0  0
   -2.9019    2.2722   -0.6210 H   0  0  0  0  0  0  0  0  0  0  0  0
   -3.4234    2.0359    1.0455 H   0  0  0  0  0  0  0  0  0  0  0  0
   -6.5772   -0.7235    2.1900 H   0  0  0  0  0  0  0  0  0  0  0  0
   -6.0034   -1.9422    1.0613 H   0  0  0  0  0  0  0  0  0  0  0  0
   -1.2381    3.2503    0.8248 H   0  0  0  0  0  0  0  0  0  0  0  0
   -1.2035    1.8259    1.8632 H   0  0  0  0  0  0  0  0  0  0  0  0
   -0.1851    1.9823   -1.0248 H   0  0  0  0  0  0  0  0  0  0  0  0
    0.7560    1.8103    0.4644 H   0  0  0  0  0  0  0  0  0  0  0  0
   -1.6482   -1.5302   -0.3364 H   0  0  0  0  0  0  0  0  0  0  0  0
    2.2229    0.8853   -0.7552 H   0  0  0  0  0  0  0  0  0  0  0  0
    3.0067   -1.8992    0.3326 H   0  0  0  0  0  0  0  0  0  0  0  0
    4.2332    1.2361   -1.3658 H   0  0  0  0  0  0  0  0  0  0  0  0
    5.1841   -1.9408    1.4180 H   0  0  0  0  0  0  0  0  0  0  0  0
    6.5388    2.0161   -1.2532 H   0  0  0  0  0  0  0  0  0  0  0  0
    7.5155   -1.1380    1.4960 H   0  0  0  0  0  0  0  0  0  0  0  0
    8.1994    0.8404    0.1650 H   0  0  0  0  0  0  0  0  0  0  0  0
  1 14  2  0  0  0  0
  2  4  1  0  0  0  0
  2 10  1  0  0  0  0
  2 30  1  0  0  0  0
  3 12  1  0  0  0  0
  3 13  1  0  0  0  0
  3 14  1  0  0  0  0
  4  5  1  0  0  0  0
  4  6  1  0  0  0  0
  4 23  1  0  0  0  0
  5  7  1  0  0  0  0
  5 24  1  0  0  0  0
  5 25  1  0  0  0  0
  6  9  1  0  0  0  0
  6 13  2  0  0  0  0
  7  8  1  0  0  0  0
  7 26  1  0  0  0  0
  7 27  1  0  0  0  0
  8 10  1  0  0  0  0
  8 28  1  0  0  0  0
  8 29  1  0  0  0  0
  9 11  1  0  0  0  0
  9 31  1  0  0  0  0
  9 32  1  0  0  0  0
 10 33  1  0  0  0  0
 10 34  1  0  0  0  0
 11 12  1  0  0  0  0
 11 35  1  0  0  0  0
 11 36  1  0  0  0  0
 12 37  1  0  0  0  0
 12 38  1  0  0  0  0
 13 39  1  0  0  0  0
 14 15  1  0  0  0  0
 15 16  2  0  0  0  0
 15 40  1  0  0  0  0
 16 17  1  0  0  0  0
 16 41  1  0  0  0  0
 17 18  2  0  0  0  0
 17 19  1  0  0  0  0
 18 20  1  0  0  0  0
 18 42  1  0  0  0  0
 19 21  2  0  0  0  0
 19 43  1  0  0  0  0
 20 22  2  0  0  0  0
 20 44  1  0  0  0  0
 21 22  1  0  0  0  0
 21 45  1  0  0  0  0
 22 46  1  0  0  0  0
M  END
> <PUBCHEM_COMPOUND_CID>
5281681

> <PUBCHEM_CONFORMER_RMSD>
0.8

> <PUBCHEM_CONFORMER_DIVERSEORDER>
1
41
9
37
21
54
39
58
38
33
17
27
15
42
13
57
43
48
6
24
45
28
31
50
49
20
19
47
52
59
34
11
36
46
26
32
18
4
25
22
3
23
60
16
53
12
14
2
55
40
56
30
29
44
10
51
35
8
5
7

> <PUBCHEM_MMFF94_PARTIAL_CHARGES>
27
1 -0.57
10 0.27
12 0.3
13 -0.04
14 0.62
15 -0.14
16 -0.18
17 0.03
18 -0.15
19 -0.15
2 -0.9
20 -0.15
21 -0.15
22 -0.15
3 -0.47
30 0.36
39 0.15
4 0.41
40 0.15
41 0.15
42 0.15
43 0.15
44 0.15
45 0.15
46 0.15
6 -0.28
9 0.14

> <PUBCHEM_EFFECTIVE_ROTOR_COUNT>
6

> <PUBCHEM_PHARMACOPHORE_FEATURES>
6
1 1 acceptor
1 2 cation
1 2 donor
6 17 18 19 20 21 22 rings
6 2 4 5 7 8 10 rings
6 3 6 9 11 12 13 rings

> <PUBCHEM_HEAVY_ATOM_COUNT>
22

> <PUBCHEM_ATOM_DEF_STEREO_COUNT>
1

> <PUBCHEM_ATOM_UDEF_STEREO_COUNT>
0

> <PUBCHEM_BOND_DEF_STEREO_COUNT>
1

> <PUBCHEM_BOND_UDEF_STEREO_COUNT>
0

> <PUBCHEM_ISOTOPIC_ATOM_COUNT>
0

> <PUBCHEM_COMPONENT_COUNT>
1

> <PUBCHEM_CACTVS_TAUTO_COUNT>
1

> <PUBCHEM_CONFORMER_ID>
0050979100000001

> <PUBCHEM_MMFF94_ENERGY>
44.9816

> <PUBCHEM_FEATURE_SELFOVERLAP>
30.446

> <PUBCHEM_SHAPE_FINGERPRINT>
10 15 18060138713537419854
10835480 77 18130514140715975477
10906281 52 18263063505601708639
10968037 39 18334577936837860007
11315181 36 17917709102678178093
11719270 70 18202568393090466562
11724838 91 18411138018322802580
12091667 2 18334577949849258375
12166972 35 17917707989902269756
12236239 1 18131914875389970080
12516196 113 17748827414616975313
12596602 18 17775286067086566120
12730499 353 16009027302914828518
12916748 109 18260261976118297124
13533116 47 18271531983177880154
13862211 1 18334580135428553271
13914758 101 16343709862616026812
14123256 10 18333450941239629076
14251764 18 18408322181686591288
14251764 46 17060622195997150479
14840074 17 17967535679387403895
14848160 23 17418091022631158258
14849402 71 16733555901132537176
15419008 47 16773805783198633228
15716309 27 18261111889462985763
15927050 60 17539412020778349468
17834072 8 10592041358199866746
17980427 23 18342447179833348461
18006028 8 18333453136305748249
19377110 9 18260264195909780682
19489759 90 15626224636648150813
20157964 124 18060419119315213166
21065198 48 18270400620077430824
21095086 128 16008746913937096220
21267235 1 18335415772760762404
22224240 67 17603308145771096062
23035841 295 17748828514186638455
23198884 109 15267344028968832613
23536379 177 16487258781029096887
23559900 14 17988925509954263361
29717793 49 11384114159652858722
3009799 131 17203611488550919005
347723 3 11455891368744199629
34797466 226 17458058245396526212
4073 2 16271918269399253850
4325135 7 18113899364188735124
4340502 62 17346881152533415330
474229 33 18408603669010322086
4938544 92 16733256950630185369
5104073 3 18117553148659975354
5486654 2 18260547809743450190
559249 180 10807927154999972561
5758199 1 17458343039475666607
5969126 39 18411425033644568085
9862886 166 17918269827627589491

> <PUBCHEM_SHAPE_MULTIPOLES>
436.92
20.81
1.52
1.05
7.17
0.5
0.04
-2.37
1.16
0.25
0.19
-0.85
-0.04
-0.52

> <PUBCHEM_SHAPE_SELFOVERLAP>
919.006

> <PUBCHEM_SHAPE_VOLUME>
242.9

> <PUBCHEM_COORDINATE_TYPE>
2
5
10

$$$$

