10533
  -OEChem-06261204393D

 68 72  0     1  0  0  0  0  0999 V2000
   -2.8368    0.2598   -0.8634 O   0  0  0  0  0  0  0  0  0  0  0  0
   -4.5203   -1.1132   -0.0993 O   0  0  0  0  0  0  0  0  0  0  0  0
   -5.0873    3.5601    0.1930 O   0  0  0  0  0  0  0  0  0  0  0  0
    0.6693   -1.4424    0.5033 N   0  3  0  0  0  0  0  0  0  0  0  0
    0.5827   -1.3191   -1.0322 C   0  0  1  0  0  0  0  0  0  0  0  0
   -0.5870   -2.2966    0.7732 C   0  0  2  0  0  0  0  0  0  0  0  0
    0.2697   -2.7588   -1.4723 C   0  0  0  0  0  0  0  0  0  0  0  0
   -0.4896   -3.3937   -0.2999 C   0  0  0  0  0  0  0  0  0  0  0  0
   -0.5762   -0.3791   -1.4097 C   0  0  0  0  0  0  0  0  0  0  0  0
   -1.8485   -1.4423    0.5539 C   0  0  0  0  0  0  0  0  0  0  0  0
   -1.9332   -0.8404   -0.8562 C   0  0  0  0  0  0  0  0  0  0  0  0
    1.9514   -2.1830    0.9333 C   0  0  0  0  0  0  0  0  0  0  0  0
    0.7125   -0.1118    1.2521 C   0  0  0  0  0  0  0  0  0  0  0  0
    3.1998   -1.3876    0.6884 C   0  0  0  0  0  0  0  0  0  0  0  0
    3.8636   -1.5056   -0.5278 C   0  0  0  0  0  0  0  0  0  0  0  0
    3.6819   -0.5398    1.6794 C   0  0  0  0  0  0  0  0  0  0  0  0
   -4.1164   -0.0144   -0.4575 C   0  0  0  0  0  0  0  0  0  0  0  0
   -4.9628    1.2536   -0.5247 C   0  0  2  0  0  0  0  0  0  0  0  0
    5.0240   -0.7660   -0.7557 C   0  0  0  0  0  0  0  0  0  0  0  0
    4.8424    0.1999    1.4512 C   0  0  0  0  0  0  0  0  0  0  0  0
    5.5134    0.0867    0.2338 C   0  0  0  0  0  0  0  0  0  0  0  0
   -4.3454    2.3544    0.3497 C   0  0  0  0  0  0  0  0  0  0  0  0
   -6.4091    0.9648   -0.1547 C   0  0  0  0  0  0  0  0  0  0  0  0
    6.7175    0.8533   -0.0028 C   0  0  0  0  0  0  0  0  0  0  0  0
   -7.2955    0.6084   -1.1515 C   0  0  0  0  0  0  0  0  0  0  0  0
   -6.7941    1.0666    1.1672 C   0  0  0  0  0  0  0  0  0  0  0  0
    6.6341    2.1266   -0.5662 C   0  0  0  0  0  0  0  0  0  0  0  0
    7.9617    0.3193    0.3328 C   0  0  0  0  0  0  0  0  0  0  0  0
   -8.6223    0.3431   -0.8122 C   0  0  0  0  0  0  0  0  0  0  0  0
   -8.1209    0.8012    1.5064 C   0  0  0  0  0  0  0  0  0  0  0  0
   -9.0349    0.4394    0.5166 C   0  0  0  0  0  0  0  0  0  0  0  0
    7.7948    2.8659   -0.7942 C   0  0  0  0  0  0  0  0  0  0  0  0
    9.1224    1.0587    0.1049 C   0  0  0  0  0  0  0  0  0  0  0  0
    9.0388    2.3320   -0.4586 C   0  0  0  0  0  0  0  0  0  0  0  0
    1.5151   -0.9281   -1.4406 H   0  0  0  0  0  0  0  0  0  0  0  0
   -0.5378   -2.6871    1.7950 H   0  0  0  0  0  0  0  0  0  0  0  0
    1.1930   -3.3166   -1.6652 H   0  0  0  0  0  0  0  0  0  0  0  0
   -0.3118   -2.7950   -2.3998 H   0  0  0  0  0  0  0  0  0  0  0  0
   -1.4714   -3.7703   -0.6063 H   0  0  0  0  0  0  0  0  0  0  0  0
    0.0677   -4.2571    0.0817 H   0  0  0  0  0  0  0  0  0  0  0  0
   -0.6509   -0.3086   -2.5030 H   0  0  0  0  0  0  0  0  0  0  0  0
   -0.3616    0.6463   -1.0847 H   0  0  0  0  0  0  0  0  0  0  0  0
   -2.6947   -2.1152    0.7313 H   0  0  0  0  0  0  0  0  0  0  0  0
   -1.9474   -0.6713    1.3261 H   0  0  0  0  0  0  0  0  0  0  0  0
   -2.3300   -1.5986   -1.5451 H   0  0  0  0  0  0  0  0  0  0  0  0
    1.8427   -2.4097    2.0023 H   0  0  0  0  0  0  0  0  0  0  0  0
    2.0126   -3.1487    0.4228 H   0  0  0  0  0  0  0  0  0  0  0  0
   -0.2302    0.4228    1.1332 H   0  0  0  0  0  0  0  0  0  0  0  0
    1.4851    0.5274    0.8188 H   0  0  0  0  0  0  0  0  0  0  0  0
    0.8606   -0.3084    2.3177 H   0  0  0  0  0  0  0  0  0  0  0  0
    3.5060   -2.1782   -1.3021 H   0  0  0  0  0  0  0  0  0  0  0  0
    3.1867   -0.4544    2.6423 H   0  0  0  0  0  0  0  0  0  0  0  0
   -4.9522    1.5970   -1.5688 H   0  0  0  0  0  0  0  0  0  0  0  0
    5.5371   -0.8688   -1.7091 H   0  0  0  0  0  0  0  0  0  0  0  0
    5.2130    0.8562    2.2351 H   0  0  0  0  0  0  0  0  0  0  0  0
   -4.2809    2.1000    1.4114 H   0  0  0  0  0  0  0  0  0  0  0  0
   -3.3185    2.5694    0.0322 H   0  0  0  0  0  0  0  0  0  0  0  0
   -6.9827    0.5280   -2.1882 H   0  0  0  0  0  0  0  0  0  0  0  0
   -6.1128    1.3155    1.9717 H   0  0  0  0  0  0  0  0  0  0  0  0
   -5.0724    3.7939   -0.7508 H   0  0  0  0  0  0  0  0  0  0  0  0
    5.6723    2.5579   -0.8336 H   0  0  0  0  0  0  0  0  0  0  0  0
    8.0447   -0.6717    0.7729 H   0  0  0  0  0  0  0  0  0  0  0  0
   -9.3337    0.0603   -1.5826 H   0  0  0  0  0  0  0  0  0  0  0  0
   -8.4415    0.8693    2.5419 H   0  0  0  0  0  0  0  0  0  0  0  0
  -10.0674    0.2310    0.7810 H   0  0  0  0  0  0  0  0  0  0  0  0
    7.7299    3.8574   -1.2330 H   0  0  0  0  0  0  0  0  0  0  0  0
   10.0912    0.6433    0.3662 H   0  0  0  0  0  0  0  0  0  0  0  0
    9.9425    2.9076   -0.6361 H   0  0  0  0  0  0  0  0  0  0  0  0
  1 11  1  0  0  0  0
  1 17  1  0  0  0  0
  2 17  2  0  0  0  0
  3 22  1  0  0  0  0
  3 60  1  0  0  0  0
  4  5  1  0  0  0  0
  4  6  1  0  0  0  0
  4 12  1  0  0  0  0
  4 13  1  0  0  0  0
  5  7  1  0  0  0  0
  5  9  1  0  0  0  0
  5 35  1  0  0  0  0
  6  8  1  0  0  0  0
  6 10  1  0  0  0  0
  6 36  1  0  0  0  0
  7  8  1  0  0  0  0
  7 37  1  0  0  0  0
  7 38  1  0  0  0  0
  8 39  1  0  0  0  0
  8 40  1  0  0  0  0
  9 11  1  0  0  0  0
  9 41  1  0  0  0  0
  9 42  1  0  0  0  0
 10 11  1  0  0  0  0
 10 43  1  0  0  0  0
 10 44  1  0  0  0  0
 11 45  1  0  0  0  0
 12 14  1  0  0  0  0
 12 46  1  0  0  0  0
 12 47  1  0  0  0  0
 13 48  1  0  0  0  0
 13 49  1  0  0  0  0
 13 50  1  0  0  0  0
 14 15  2  0  0  0  0
 14 16  1  0  0  0  0
 15 19  1  0  0  0  0
 15 51  1  0  0  0  0
 16 20  2  0  0  0  0
 16 52  1  0  0  0  0
 17 18  1  0  0  0  0
 18 22  1  0  0  0  0
 18 23  1  0  0  0  0
 18 53  1  0  0  0  0
 19 21  2  0  0  0  0
 19 54  1  0  0  0  0
 20 21  1  0  0  0  0
 20 55  1  0  0  0  0
 21 24  1  0  0  0  0
 22 56  1  0  0  0  0
 22 57  1  0  0  0  0
 23 25  2  0  0  0  0
 23 26  1  0  0  0  0
 24 27  2  0  0  0  0
 24 28  1  0  0  0  0
 25 29  1  0  0  0  0
 25 58  1  0  0  0  0
 26 30  2  0  0  0  0
 26 59  1  0  0  0  0
 27 32  1  0  0  0  0
 27 61  1  0  0  0  0
 28 33  2  0  0  0  0
 28 62  1  0  0  0  0
 29 31  2  0  0  0  0
 29 63  1  0  0  0  0
 30 31  1  0  0  0  0
 30 64  1  0  0  0  0
 31 65  1  0  0  0  0
 32 34  2  0  0  0  0
 32 66  1  0  0  0  0
 33 34  1  0  0  0  0
 33 67  1  0  0  0  0
 34 68  1  0  0  0  0
M  CHG  1   4   1
M  END
> <PUBCHEM_COMPOUND_CID>
10533

> <PUBCHEM_CONFORMER_RMSD>
1

> <PUBCHEM_CONFORMER_DIVERSEORDER>
1
132
140
9
153
70
139
28
117
133
91
27
151
93
114
71
108
92
129
15
19
149
24
144
55
61
152
95
83
118
78
123
147
17
84
101
115
59
89
82
107
5
141
134
6
110
126
29
60
11
105
49
35
155
20
77
121
85
72
100
157
125
25
130
66
150
18
127
8
50
146
64
56
31
2
148
38
69
81
4
128
36
96
104
136
68
137
116
12
87
156
75
119
16
112
48
103
99
42
145
79
32
98
138
22
26
76
54
122
111
106
13
120
51
65
97
23
80
3
94
143
63
39
57
113
43
30
7
109
44
102
131
53
52
40
58
135
14
74
34
33
41
88
45
142
86
10
90
154
67
124
62
21
37
47
73
46

> <PUBCHEM_MMFF94_PARTIAL_CHARGES>
43
1 -0.43
11 0.28
12 0.65
13 0.5
14 -0.14
15 -0.15
16 -0.15
17 0.66
18 0.2
19 -0.15
2 -0.57
20 -0.15
22 0.28
23 -0.14
25 -0.15
26 -0.15
27 -0.15
28 -0.15
29 -0.15
3 -0.68
30 -0.15
31 -0.15
32 -0.15
33 -0.15
34 -0.15
4 -1.01
5 0.5
51 0.15
52 0.15
54 0.15
55 0.15
58 0.15
59 0.15
6 0.5
60 0.4
61 0.15
62 0.15
63 0.15
64 0.15
65 0.15
66 0.15
67 0.15
68 0.15

> <PUBCHEM_EFFECTIVE_ROTOR_COUNT>
9.2

> <PUBCHEM_PHARMACOPHORE_FEATURES>
8
1 2 acceptor
1 3 acceptor
1 3 donor
1 4 cation
6 14 15 16 19 20 21 rings
6 23 25 26 29 30 31 rings
6 24 27 28 32 33 34 rings
8 4 5 6 7 8 9 10 11 rings

> <PUBCHEM_HEAVY_ATOM_COUNT>
34

> <PUBCHEM_ATOM_DEF_STEREO_COUNT>
0

> <PUBCHEM_ATOM_UDEF_STEREO_COUNT>
3

> <PUBCHEM_BOND_DEF_STEREO_COUNT>
0

> <PUBCHEM_BOND_UDEF_STEREO_COUNT>
0

> <PUBCHEM_ISOTOPIC_ATOM_COUNT>
0

> <PUBCHEM_COMPONENT_COUNT>
1

> <PUBCHEM_CACTVS_TAUTO_COUNT>
1

> <PUBCHEM_CONFORMER_ID>
0000292500000001

> <PUBCHEM_MMFF94_ENERGY>
125.8129

> <PUBCHEM_FEATURE_SELFOVERLAP>
40.594

> <PUBCHEM_SHAPE_FINGERPRINT>
10 15 17846500344195749291
10369192 42 18408606967629277199
10483366 6 6699808678658850500
106641 1 17632857525742681043
10670039 82 5472862533329248947
10930396 42 16056884611417968997
11115154 58 14923939051007348354
11135609 201 18202006521152074818
11273773 46 6266897987451694949
11409948 8 18130213875747858107
11607047 403 18262512701816054774
12013929 112 13984935277869246825
12120059 9 13110701423139312667
12643181 29 10159689201920816449
12758862 56 7853562505552749143
12758862 65 12895063033963223852
13248334 5 18123753316621662898
13540713 4 16083362947343622394
14068700 675 8935005888946684342
14216079 64 8790888484440363196
14359421 15 5328476873524147820
14664723 55 18410564073227340340
14849402 71 18410009923393058553
15064981 194 17750794350708942099
15183329 4 15936128577422098410
15188451 53 9511465528816109178
15350500 16 9871753481498812532
15357212 105 16881019317412195545
15510800 12 10879722004761435488
15538507 32 18261957354161306760
15706992 2 18411971451566610128
15773216 30 16009298920182090030
15840311 113 18273493498625181798
16126227 98 18410855447243266402
16728433 281 16299774538281383369
16989713 51 17532663317281350447
16992610 120 18334288748247572702
16993427 108 10952054441956139654
17686467 74 17918272048695549341
19302320 297 17846498090019044444
20105231 36 6555403255049315453
2026 5 8646507205971902108
20505436 4 18272097076389093178
20691028 202 18199188383262926756
21033648 29 18115040623046633418
21304304 249 8862943888097906288
21307412 95 5112005075274928420
21344244 78 14764347163329524974
21781055 127 17749391520597705546
22224240 67 17989207062298407683
23576562 1 16444209516620989185
23729398 52 17971744734501393110
24771293 8 18201440250883212935
25269216 80 17604441687100083415
306946 40 16773530931978870935
3092352 35 18334018289145259190
3633792 109 14057003806740760346
3711267 37 18409720777130237465
3918712 181 18269843158576158597
3986486 107 16587735443763206160
4112364 45 17417805102880216380
4169191 19 18411422834578802557
4173938 188 18059566963855633483
4258327 124 18410568448975646809
4339292 15 7132446705660699484
439807 62 8935001473630042044
4403749 210 18059856143692845483
4516262 110 18201167614849282118
45266715 3 4750889147630196828
474113 269 9655583997777682368
5028188 123 16877950425934941533
504579 68 14779265306402169978
54039377 194 7637397445937992357
5718773 13 9007064561052441420
5758199 1 18334576863233517075
5776283 40 18261396615551001536
5911458 16 18411698786095980812
6081469 158 6411299027123096592
6126387 218 12607408797762122879
6703917 75 18187641406104436687
9689198 14 18412259532693612898
9953998 17 16917066638213143299

> <PUBCHEM_SHAPE_MULTIPOLES>
677.12
30.1
3.07
1.34
0
0.04
0.15
27.46
0.38
1.69
-0.4
-0.44
-0.22
-1.48

> <PUBCHEM_SHAPE_SELFOVERLAP>
1471.367

> <PUBCHEM_SHAPE_VOLUME>
368.9

> <PUBCHEM_COORDINATE_TYPE>
2
5
10

$$$$

