442129
  -OEChem-07051212573D

 57 59  0     1  0  0  0  0  0999 V2000
   -0.0179    3.3987   -0.3489 O   0  0  0  0  0  0  0  0  0  0  0  0
    2.9567    1.1865    0.0012 O   0  0  0  0  0  0  0  0  0  0  0  0
    0.7319   -0.2146   -0.8000 O   0  0  0  0  0  0  0  0  0  0  0  0
   -1.5910   -0.9487    1.1713 O   0  0  0  0  0  0  0  0  0  0  0  0
    3.1326    0.1004    2.0296 O   0  0  0  0  0  0  0  0  0  0  0  0
   -0.2002   -2.1789   -0.0267 O   0  0  0  0  0  0  0  0  0  0  0  0
   -2.3953   -2.9732    1.8789 O   0  0  0  0  0  0  0  0  0  0  0  0
    1.2809    2.8645   -0.6745 C   0  0  0  0  0  0  0  0  0  0  0  0
    1.6836    1.7421    0.3076 C   0  0  1  0  0  0  0  0  0  0  0  0
    0.6495    0.6166    0.3539 C   0  0  1  0  0  0  0  0  0  0  0  0
   -0.7370    1.1880    0.4236 C   0  0  0  0  0  0  0  0  0  0  0  0
   -0.9821    2.5198    0.0688 C   0  0  0  0  0  0  0  0  0  0  0  0
    2.2523    4.0507   -0.5288 C   0  0  0  0  0  0  0  0  0  0  0  0
    1.2804    2.4448   -2.1531 C   0  0  0  0  0  0  0  0  0  0  0  0
   -1.8290    0.4037    0.8289 C   0  0  0  0  0  0  0  0  0  0  0  0
   -2.2769    3.0468    0.1488 C   0  0  0  0  0  0  0  0  0  0  0  0
   -3.1244    0.9143    0.9033 C   0  0  0  0  0  0  0  0  0  0  0  0
   -3.3446    2.2481    0.5627 C   0  0  0  0  0  0  0  0  0  0  0  0
    3.3973    0.2058    0.8439 C   0  0  0  0  0  0  0  0  0  0  0  0
   -4.2060    0.0444    1.3348 C   0  0  0  0  0  0  0  0  0  0  0  0
   -0.1350   -1.2684   -0.8354 C   0  0  0  0  0  0  0  0  0  0  0  0
   -2.6077   -1.8021    1.5850 C   0  0  0  0  0  0  0  0  0  0  0  0
   -3.9631   -1.2289    1.6542 C   0  0  0  0  0  0  0  0  0  0  0  0
    4.2736   -0.6987    0.0621 C   0  0  0  0  0  0  0  0  0  0  0  0
   -0.9729   -1.1181   -2.0489 C   0  0  0  0  0  0  0  0  0  0  0  0
    4.4706   -2.0050    0.3165 C   0  0  0  0  0  0  0  0  0  0  0  0
   -1.9229   -1.9811   -2.4519 C   0  0  0  0  0  0  0  0  0  0  0  0
    5.3932   -2.8071   -0.5653 C   0  0  0  0  0  0  0  0  0  0  0  0
    3.8362   -2.8026    1.4215 C   0  0  0  0  0  0  0  0  0  0  0  0
   -2.7014   -1.7004   -3.7118 C   0  0  0  0  0  0  0  0  0  0  0  0
   -2.3311   -3.2471   -1.7515 C   0  0  0  0  0  0  0  0  0  0  0  0
    1.7323    2.1956    1.3097 H   0  0  0  0  0  0  0  0  0  0  0  0
    0.8250   -0.0030    1.2414 H   0  0  0  0  0  0  0  0  0  0  0  0
    2.2541    4.4266    0.5010 H   0  0  0  0  0  0  0  0  0  0  0  0
    3.2767    3.7738   -0.7983 H   0  0  0  0  0  0  0  0  0  0  0  0
    1.9431    4.8921   -1.1600 H   0  0  0  0  0  0  0  0  0  0  0  0
    0.4774    1.7397   -2.3791 H   0  0  0  0  0  0  0  0  0  0  0  0
    1.0917    3.3111   -2.7986 H   0  0  0  0  0  0  0  0  0  0  0  0
    2.2352    2.0009   -2.4513 H   0  0  0  0  0  0  0  0  0  0  0  0
   -2.4627    4.0847   -0.1170 H   0  0  0  0  0  0  0  0  0  0  0  0
   -4.3410    2.6801    0.6119 H   0  0  0  0  0  0  0  0  0  0  0  0
   -5.2119    0.4456    1.3924 H   0  0  0  0  0  0  0  0  0  0  0  0
   -4.7668   -1.8820    1.9757 H   0  0  0  0  0  0  0  0  0  0  0  0
    4.7648   -0.2405   -0.7935 H   0  0  0  0  0  0  0  0  0  0  0  0
   -0.7790   -0.2340   -2.6507 H   0  0  0  0  0  0  0  0  0  0  0  0
    6.2009   -3.2437    0.0314 H   0  0  0  0  0  0  0  0  0  0  0  0
    5.8539   -2.1994   -1.3514 H   0  0  0  0  0  0  0  0  0  0  0  0
    4.8426   -3.6182   -1.0531 H   0  0  0  0  0  0  0  0  0  0  0  0
    3.0003   -2.2913    1.9029 H   0  0  0  0  0  0  0  0  0  0  0  0
    4.5802   -3.0441    2.1872 H   0  0  0  0  0  0  0  0  0  0  0  0
    3.4345   -3.7417    1.0249 H   0  0  0  0  0  0  0  0  0  0  0  0
   -2.5430   -2.5004   -4.4424 H   0  0  0  0  0  0  0  0  0  0  0  0
   -2.4075   -0.7571   -4.1843 H   0  0  0  0  0  0  0  0  0  0  0  0
   -3.7717   -1.6390   -3.4885 H   0  0  0  0  0  0  0  0  0  0  0  0
   -1.5885   -3.6404   -1.0584 H   0  0  0  0  0  0  0  0  0  0  0  0
   -2.4974   -4.0426   -2.4871 H   0  0  0  0  0  0  0  0  0  0  0  0
   -3.2692   -3.0904   -1.2100 H   0  0  0  0  0  0  0  0  0  0  0  0
  1  8  1  0  0  0  0
  1 12  1  0  0  0  0
  2  9  1  0  0  0  0
  2 19  1  0  0  0  0
  3 10  1  0  0  0  0
  3 21  1  0  0  0  0
  4 15  1  0  0  0  0
  4 22  1  0  0  0  0
  5 19  2  0  0  0  0
  6 21  2  0  0  0  0
  7 22  2  0  0  0  0
  8  9  1  0  0  0  0
  8 13  1  0  0  0  0
  8 14  1  0  0  0  0
  9 10  1  0  0  0  0
  9 32  1  0  0  0  0
 10 11  1  0  0  0  0
 10 33  1  0  0  0  0
 11 12  2  0  0  0  0
 11 15  1  0  0  0  0
 12 16  1  0  0  0  0
 13 34  1  0  0  0  0
 13 35  1  0  0  0  0
 13 36  1  0  0  0  0
 14 37  1  0  0  0  0
 14 38  1  0  0  0  0
 14 39  1  0  0  0  0
 15 17  2  0  0  0  0
 16 18  2  0  0  0  0
 16 40  1  0  0  0  0
 17 18  1  0  0  0  0
 17 20  1  0  0  0  0
 18 41  1  0  0  0  0
 19 24  1  0  0  0  0
 20 23  2  0  0  0  0
 20 42  1  0  0  0  0
 21 25  1  0  0  0  0
 22 23  1  0  0  0  0
 23 43  1  0  0  0  0
 24 26  2  0  0  0  0
 24 44  1  0  0  0  0
 25 27  2  0  0  0  0
 25 45  1  0  0  0  0
 26 28  1  0  0  0  0
 26 29  1  0  0  0  0
 27 30  1  0  0  0  0
 27 31  1  0  0  0  0
 28 46  1  0  0  0  0
 28 47  1  0  0  0  0
 28 48  1  0  0  0  0
 29 49  1  0  0  0  0
 29 50  1  0  0  0  0
 29 51  1  0  0  0  0
 30 52  1  0  0  0  0
 30 53  1  0  0  0  0
 30 54  1  0  0  0  0
 31 55  1  0  0  0  0
 31 56  1  0  0  0  0
 31 57  1  0  0  0  0
M  END
> <PUBCHEM_COMPOUND_CID>
442129

> <PUBCHEM_CONFORMER_RMSD>
0.8

> <PUBCHEM_CONFORMER_DIVERSEORDER>
1
19
22
8
25
6
10
4
24
23
18
21
5
20
15
7
12
17
14
11
9
16
3
26
2
13

> <PUBCHEM_MMFF94_PARTIAL_CHARGES>
35
1 -0.36
10 0.42
11 -0.14
12 0.08
15 0.08
16 -0.15
17 0.03
18 -0.15
19 0.71
2 -0.43
20 -0.18
21 0.71
22 0.71
23 -0.14
24 -0.14
25 -0.14
26 -0.28
27 -0.28
28 0.14
29 0.14
3 -0.43
30 0.14
31 0.14
4 -0.23
40 0.15
41 0.15
42 0.15
43 0.15
44 0.15
45 0.15
5 -0.57
6 -0.57
7 -0.57
8 0.28
9 0.28

> <PUBCHEM_EFFECTIVE_ROTOR_COUNT>
6.8

> <PUBCHEM_PHARMACOPHORE_FEATURES>
10
1 1 acceptor
1 5 acceptor
1 6 acceptor
1 7 acceptor
3 26 28 29 hydrophobe
3 27 30 31 hydrophobe
3 8 13 14 hydrophobe
6 1 8 9 10 11 12 rings
6 11 12 15 16 17 18 rings
6 4 15 17 20 22 23 rings

> <PUBCHEM_HEAVY_ATOM_COUNT>
31

> <PUBCHEM_ATOM_DEF_STEREO_COUNT>
2

> <PUBCHEM_ATOM_UDEF_STEREO_COUNT>
0

> <PUBCHEM_BOND_DEF_STEREO_COUNT>
0

> <PUBCHEM_BOND_UDEF_STEREO_COUNT>
0

> <PUBCHEM_ISOTOPIC_ATOM_COUNT>
0

> <PUBCHEM_COMPONENT_COUNT>
1

> <PUBCHEM_CACTVS_TAUTO_COUNT>
1

> <PUBCHEM_CONFORMER_ID>
0006BF1100000001

> <PUBCHEM_MMFF94_ENERGY>
124.9196

> <PUBCHEM_FEATURE_SELFOVERLAP>
50.799

> <PUBCHEM_SHAPE_FINGERPRINT>
10906281 52 17760915638848209241
11578080 2 16844742927701238789
12160290 23 17695094445067241440
12422481 6 17968083240716161427
12597179 24 17402055994292327308
12633257 1 18268970112284153105
13140716 1 18268410396362036377
15420108 30 17464265198461023029
17492 89 18199174114447796059
1813 80 17131825482764987016
20600515 1 17840843480976909973
21033648 29 17677905710679879096
23419403 2 17774449278408085999
23559900 14 18343013380839194112
44880168 125 17606121934257443198
7097593 13 18341607058412389322

> <PUBCHEM_SHAPE_MULTIPOLES>
596.88
7.96
4.8
2.4
7.63
1.89
-1.83
-5.33
3
0.72
-1.45
-2.15
-2.06
-1.54

> <PUBCHEM_SHAPE_SELFOVERLAP>
1281.52

> <PUBCHEM_SHAPE_VOLUME>
325.4

> <PUBCHEM_COORDINATE_TYPE>
2
5
10

$$$$

