442155
  -OEChem-07051212572D

 49 53  0     1  0  0  0  0  0999 V2000
    5.5938    0.0086    0.0000 O   0  0  0  0  0  0  0  0  0  0  0  0
    2.5836    1.2788    0.0000 O   0  0  0  0  0  0  0  0  0  0  0  0
    2.5836    2.8882    0.0000 O   0  0  0  0  0  0  0  0  0  0  0  0
    7.6818   -2.3366    0.0000 O   0  0  0  0  0  0  0  0  0  0  0  0
    9.6860   -1.9142    0.0000 O   0  0  0  0  0  0  0  0  0  0  0  0
    3.9372   -0.6326    0.0000 O   0  0  0  0  0  0  0  0  0  0  0  0
    7.2881    2.0731    0.0000 N   0  0  3  0  0  0  0  0  0  0  0  0
    6.9774    1.1226    0.0000 C   0  0  2  0  0  0  0  0  0  0  0  0
    5.9989    0.9164    0.0000 C   0  0  2  0  0  0  0  0  0  0  0  0
    7.6452    0.3783    0.0000 C   0  0  0  0  0  0  0  0  0  0  0  0
    8.2666    2.2794    0.0000 C   0  0  0  0  0  0  0  0  0  0  0  0
    8.9344    1.5350    0.0000 C   0  0  0  0  0  0  0  0  0  0  0  0
    8.6238    0.5845    0.0000 C   0  0  0  0  0  0  0  0  0  0  0  0
    5.2619    1.5835    0.0000 C   0  0  0  0  0  0  0  0  0  0  0  0
    4.3958    1.0835    0.0000 C   0  0  0  0  0  0  0  0  0  0  0  0
    6.6202    2.8174    0.0000 C   0  0  0  0  0  0  0  0  0  0  0  0
    7.3064   -0.6067    0.0000 C   0  0  0  0  0  0  0  0  0  0  0  0
    9.3313   -0.1799    0.0000 C   0  0  0  0  0  0  0  0  0  0  0  0
    4.6051    0.1117    0.0000 C   0  0  0  0  0  0  0  0  0  0  0  0
    5.2619    2.5835    0.0000 C   0  0  0  0  0  0  0  0  0  0  0  0
    3.5298    1.5835    0.0000 C   0  0  0  0  0  0  0  0  0  0  0  0
    7.9961   -1.3873    0.0000 C   0  0  0  0  0  0  0  0  0  0  0  0
    9.0153   -1.1725    0.0000 C   0  0  0  0  0  0  0  0  0  0  0  0
    3.5298    2.5835    0.0000 C   0  0  0  0  0  0  0  0  0  0  0  0
    4.3958    3.0835    0.0000 C   0  0  0  0  0  0  0  0  0  0  0  0
    2.0000    2.0835    0.0000 C   0  0  0  0  0  0  0  0  0  0  0  0
    8.3467   -3.0835    0.0000 C   0  0  0  0  0  0  0  0  0  0  0  0
   10.6637   -1.7042    0.0000 C   0  0  0  0  0  0  0  0  0  0  0  0
    6.4097    1.7553    0.0000 H   0  0  0  0  0  0  0  0  0  0  0  0
    6.5330    0.2551    0.0000 H   0  0  0  0  0  0  0  0  0  0  0  0
    8.7929    2.6070    0.0000 H   0  0  0  0  0  0  0  0  0  0  0  0
    8.0353    2.8546    0.0000 H   0  0  0  0  0  0  0  0  0  0  0  0
    9.4813    1.2430    0.0000 H   0  0  0  0  0  0  0  0  0  0  0  0
    9.3170    2.0230    0.0000 H   0  0  0  0  0  0  0  0  0  0  0  0
    7.0817    3.2315    0.0000 H   0  0  0  0  0  0  0  0  0  0  0  0
    6.2062    3.2789    0.0000 H   0  0  0  0  0  0  0  0  0  0  0  0
    6.1588    2.4034    0.0000 H   0  0  0  0  0  0  0  0  0  0  0  0
    6.6983   -0.7275    0.0000 H   0  0  0  0  0  0  0  0  0  0  0  0
    9.9364   -0.0451    0.0000 H   0  0  0  0  0  0  0  0  0  0  0  0
    5.7988    2.8935    0.0000 H   0  0  0  0  0  0  0  0  0  0  0  0
    4.3958    3.7035    0.0000 H   0  0  0  0  0  0  0  0  0  0  0  0
    1.5391    2.4982    0.0000 H   0  0  0  0  0  0  0  0  0  0  0  0
    1.5391    1.6688    0.0000 H   0  0  0  0  0  0  0  0  0  0  0  0
    7.8837   -3.4958    0.0000 H   0  0  0  0  0  0  0  0  0  0  0  0
    8.7590   -3.5465    0.0000 H   0  0  0  0  0  0  0  0  0  0  0  0
    8.8098   -2.6712    0.0000 H   0  0  0  0  0  0  0  0  0  0  0  0
   10.7939   -2.3104    0.0000 H   0  0  0  0  0  0  0  0  0  0  0  0
   11.2699   -1.5740    0.0000 H   0  0  0  0  0  0  0  0  0  0  0  0
   10.5335   -1.0980    0.0000 H   0  0  0  0  0  0  0  0  0  0  0  0
  1  9  1  0  0  0  0
  1 19  1  0  0  0  0
  2 21  1  0  0  0  0
  2 26  1  0  0  0  0
  3 24  1  0  0  0  0
  3 26  1  0  0  0  0
  4 22  1  0  0  0  0
  4 27  1  0  0  0  0
  5 23  1  0  0  0  0
  5 28  1  0  0  0  0
  6 19  2  0  0  0  0
  7  8  1  0  0  0  0
  7 11  1  0  0  0  0
  7 16  1  0  0  0  0
  8  9  1  0  0  0  0
  8 10  1  0  0  0  0
  8 29  1  6  0  0  0
  9 14  1  0  0  0  0
  9 30  1  6  0  0  0
 10 13  1  0  0  0  0
 10 17  2  0  0  0  0
 11 12  1  0  0  0  0
 11 31  1  0  0  0  0
 11 32  1  0  0  0  0
 12 13  1  0  0  0  0
 12 33  1  0  0  0  0
 12 34  1  0  0  0  0
 13 18  2  0  0  0  0
 14 15  2  0  0  0  0
 14 20  1  0  0  0  0
 15 19  1  0  0  0  0
 15 21  1  0  0  0  0
 16 35  1  0  0  0  0
 16 36  1  0  0  0  0
 16 37  1  0  0  0  0
 17 22  1  0  0  0  0
 17 38  1  0  0  0  0
 18 23  1  0  0  0  0
 18 39  1  0  0  0  0
 20 25  2  0  0  0  0
 20 40  1  0  0  0  0
 21 24  2  0  0  0  0
 22 23  2  0  0  0  0
 24 25  1  0  0  0  0
 25 41  1  0  0  0  0
 26 42  1  0  0  0  0
 26 43  1  0  0  0  0
 27 44  1  0  0  0  0
 27 45  1  0  0  0  0
 27 46  1  0  0  0  0
 28 47  1  0  0  0  0
 28 48  1  0  0  0  0
 28 49  1  0  0  0  0
M  END
> <PUBCHEM_COMPOUND_CID>
442155

> <PUBCHEM_COMPOUND_CANONICALIZED>
1

> <PUBCHEM_CACTVS_COMPLEXITY>
601

> <PUBCHEM_CACTVS_HBOND_ACCEPTOR>
7

> <PUBCHEM_CACTVS_HBOND_DONOR>
0

> <PUBCHEM_CACTVS_ROTATABLE_BOND>
3

> <PUBCHEM_CACTVS_SUBSKEYS>
AAADceB6OAAAAAAAAAAAAAAAAAAAASJAAAA8YIAAAAAAAEixQAAAHgAAAAAADDzhmAcyDoMABACIAiDSCACCCAAkIAAIiAEOjMgfJzaEtRunMWpl4BGeqQf6+f+eoAABAAAYQABAAAIAADCAAAAAAAAAAA==

> <PUBCHEM_IUPAC_OPENEYE_NAME>
(6S)-6-[(1S)-6,7-dimethoxy-2-methyl-3,4-dihydro-1H-isoquinolin-1-yl]-6H-furo[3,4-g][1,3]benzodioxol-8-one

> <PUBCHEM_IUPAC_CAS_NAME>
(6S)-6-[(1S)-6,7-dimethoxy-2-methyl-3,4-dihydro-1H-isoquinolin-1-yl]-6H-furo[3,4-g][1,3]benzodioxol-8-one

> <PUBCHEM_IUPAC_NAME>
(6S)-6-[(1S)-6,7-dimethoxy-2-methyl-3,4-dihydro-1H-isoquinolin-1-yl]-6H-furo[3,4-g][1,3]benzodioxol-8-one

> <PUBCHEM_IUPAC_SYSTEMATIC_NAME>
(6S)-6-[(1S)-6,7-dimethoxy-2-methyl-3,4-dihydro-1H-isoquinolin-1-yl]-6H-furo[3,4-g][1,3]benzodioxol-8-one

> <PUBCHEM_IUPAC_TRADITIONAL_NAME>
(6S)-6-[(1S)-6,7-dimethoxy-2-methyl-3,4-dihydro-1H-isoquinolin-1-yl]-6H-furo[3,4-g][1,3]benzodioxol-8-one

> <PUBCHEM_IUPAC_INCHI>
InChI=1S/C21H21NO6/c1-22-7-6-11-8-15(24-2)16(25-3)9-13(11)18(22)19-12-4-5-14-20(27-10-26-14)17(12)21(23)28-19/h4-5,8-9,18-19H,6-7,10H2,1-3H3/t18-,19-/m0/s1

> <PUBCHEM_IUPAC_INCHIKEY>
SZDGAZFTAUFFQH-OALUTQOASA-N

> <PUBCHEM_XLOGP3_AA>
2.7

> <PUBCHEM_EXACT_MASS>
383.136887

> <PUBCHEM_MOLECULAR_FORMULA>
C21H21NO6

> <PUBCHEM_MOLECULAR_WEIGHT>
383.39454

> <PUBCHEM_OPENEYE_CAN_SMILES>
CN1CCC2=CC(=C(C=C2C1C3C4=C(C5=C(C=C4)OCO5)C(=O)O3)OC)OC

> <PUBCHEM_OPENEYE_ISO_SMILES>
CN1CCC2=CC(=C(C=C2[C@H]1[C@@H]3C4=C(C5=C(C=C4)OCO5)C(=O)O3)OC)OC

> <PUBCHEM_CACTVS_TPSA>
66.5

> <PUBCHEM_MONOISOTOPIC_WEIGHT>
383.136887

> <PUBCHEM_TOTAL_CHARGE>
0

> <PUBCHEM_HEAVY_ATOM_COUNT>
28

> <PUBCHEM_ATOM_DEF_STEREO_COUNT>
2

> <PUBCHEM_ATOM_UDEF_STEREO_COUNT>
0

> <PUBCHEM_BOND_DEF_STEREO_COUNT>
0

> <PUBCHEM_BOND_UDEF_STEREO_COUNT>
0

> <PUBCHEM_ISOTOPIC_ATOM_COUNT>
0

> <PUBCHEM_COMPONENT_COUNT>
1

> <PUBCHEM_CACTVS_TAUTO_COUNT>
1

> <PUBCHEM_COORDINATE_TYPE>
1
5
255

> <PUBCHEM_BONDANNOTATIONS>
10  13  8
10  17  8
13  18  8
14  15  8
14  20  8
15  21  8
17  22  8
18  23  8
20  25  8
21  24  8
22  23  8
24  25  8
8  29  6
9  30  6

$$$$

