79437
  -OEChem-07051213083D

 25 26  0     0  0  0  0  0  0999 V2000
    0.3138   -2.6342    0.0182 O   0  0  0  0  0  0  0  0  0  0  0  0
    3.2595    1.0156    0.0121 O   0  0  0  0  0  0  0  0  0  0  0  0
   -3.7564    0.8457   -0.0010 O   0  0  0  0  0  0  0  0  0  0  0  0
    0.9669    1.4035    0.0000 N   0  0  0  0  0  0  0  0  0  0  0  0
   -1.9030   -0.6637   -0.0009 N   0  0  0  0  0  0  0  0  0  0  0  0
    1.8223   -0.8337   -0.0113 N   0  0  0  0  0  0  0  0  0  0  0  0
   -1.4900    1.5464   -0.0016 N   0  0  0  0  0  0  0  0  0  0  0  0
   -0.5447   -0.4424   -0.0008 C   0  0  0  0  0  0  0  0  0  0  0  0
   -0.2946    0.8691   -0.0014 C   0  0  0  0  0  0  0  0  0  0  0  0
    0.5391   -1.4279    0.0009 C   0  0  0  0  0  0  0  0  0  0  0  0
    2.1083    0.5693   -0.0009 C   0  0  0  0  0  0  0  0  0  0  0  0
   -2.5589    0.6046   -0.0014 C   0  0  0  0  0  0  0  0  0  0  0  0
    1.1346    2.8534    0.0025 C   0  0  0  0  0  0  0  0  0  0  0  0
   -2.5502   -1.9505   -0.0008 C   0  0  0  0  0  0  0  0  0  0  0  0
    2.9534   -1.7553   -0.0137 C   0  0  0  0  0  0  0  0  0  0  0  0
   -1.5841    2.5543   -0.0014 H   0  0  0  0  0  0  0  0  0  0  0  0
    0.6604    3.2708   -0.8914 H   0  0  0  0  0  0  0  0  0  0  0  0
    2.1899    3.1385    0.0005 H   0  0  0  0  0  0  0  0  0  0  0  0
    0.6645    3.2670    0.9003 H   0  0  0  0  0  0  0  0  0  0  0  0
   -2.2554   -2.5055   -0.8957 H   0  0  0  0  0  0  0  0  0  0  0  0
   -3.6360   -1.8211   -0.0049 H   0  0  0  0  0  0  0  0  0  0  0  0
   -2.2618   -2.5018    0.8986 H   0  0  0  0  0  0  0  0  0  0  0  0
    3.8939   -1.2546   -0.2552 H   0  0  0  0  0  0  0  0  0  0  0  0
    2.7754   -2.5542   -0.7405 H   0  0  0  0  0  0  0  0  0  0  0  0
    3.0289   -2.2044    0.9817 H   0  0  0  0  0  0  0  0  0  0  0  0
  1 10  2  0  0  0  0
  2 11  2  0  0  0  0
  3 12  2  0  0  0  0
  4  9  1  0  0  0  0
  4 11  1  0  0  0  0
  4 13  1  0  0  0  0
  5  8  1  0  0  0  0
  5 12  1  0  0  0  0
  5 14  1  0  0  0  0
  6 10  1  0  0  0  0
  6 11  1  0  0  0  0
  6 15  1  0  0  0  0
  7  9  1  0  0  0  0
  7 12  1  0  0  0  0
  7 16  1  0  0  0  0
  8  9  2  0  0  0  0
  8 10  1  0  0  0  0
 13 17  1  0  0  0  0
 13 18  1  0  0  0  0
 13 19  1  0  0  0  0
 14 20  1  0  0  0  0
 14 21  1  0  0  0  0
 14 22  1  0  0  0  0
 15 23  1  0  0  0  0
 15 24  1  0  0  0  0
 15 25  1  0  0  0  0
M  END
> <PUBCHEM_COMPOUND_CID>
79437

> <PUBCHEM_CONFORMER_RMSD>
0.4

> <PUBCHEM_CONFORMER_DIVERSEORDER>
1

> <PUBCHEM_MMFF94_PARTIAL_CHARGES>
16
1 -0.57
10 0.62
11 0.69
12 0.69
13 0.3
14 0.3
15 0.3
16 0.37
2 -0.57
3 -0.57
4 -0.47
5 -0.47
6 -0.42
7 -0.54
8 0.12
9 0.22

> <PUBCHEM_EFFECTIVE_ROTOR_COUNT>
0

> <PUBCHEM_PHARMACOPHORE_FEATURES>
6
1 1 acceptor
1 2 acceptor
1 3 acceptor
1 7 donor
5 5 7 8 9 12 rings
6 4 6 8 9 10 11 rings

> <PUBCHEM_HEAVY_ATOM_COUNT>
15

> <PUBCHEM_ATOM_DEF_STEREO_COUNT>
0

> <PUBCHEM_ATOM_UDEF_STEREO_COUNT>
0

> <PUBCHEM_BOND_DEF_STEREO_COUNT>
0

> <PUBCHEM_BOND_UDEF_STEREO_COUNT>
0

> <PUBCHEM_ISOTOPIC_ATOM_COUNT>
0

> <PUBCHEM_COMPONENT_COUNT>
1

> <PUBCHEM_CACTVS_TAUTO_COUNT>
3

> <PUBCHEM_CONFORMER_ID>
0001364D00000001

> <PUBCHEM_MMFF94_ENERGY>
44.209

> <PUBCHEM_FEATURE_SELFOVERLAP>
30.543

> <PUBCHEM_SHAPE_FINGERPRINT>
10967382 1 18410856602589475526
11132069 177 18411144657661877146
11471102 20 18411142476124634237
13140716 1 18338800116901322570
13380535 21 18411127031168809195
13380535 76 18411985762788166867
13897977 150 18411141303392736565
14325111 11 18410573963681915396
14648413 74 18412825750848355153
15536298 74 18261394468536318378
15775835 57 18411694374647031540
16945 1 18194682794020861891
17990270 104 18411983524809466946
193761 8 18122624951032988898
19591789 44 16318075058336385961
20201158 50 18268148841126937923
20588541 1 18268144438758968871
21501502 16 18411138009110641943
2334 1 18410855443180641542
23402539 116 18046080507677043063
23402655 69 18335714870737498757
23463225 33 18341053016337177650
23526114 1 18410575093432556598
23552423 10 18340768122403014565
23559900 14 18334851758668392878
2748010 2 18410293631446203870
528886 8 18410298007748762273
53812653 166 18334581204965379728
7364860 26 18335139761109195728
8809292 202 18272081738353496947

> <PUBCHEM_SHAPE_MULTIPOLES>
271.16
4.64
2.78
0.57
1.11
0.07
0
-0.11
0
-0.76
-0.01
-0.01
0
0.01

> <PUBCHEM_SHAPE_SELFOVERLAP>
581.535

> <PUBCHEM_SHAPE_VOLUME>
148.7

> <PUBCHEM_COORDINATE_TYPE>
2
5
10

$$$$

