616064
  -OEChem-07051213103D

 39 41  0     1  0  0  0  0  0999 V2000
   -1.3626   -0.8417    0.4218 O   0  0  0  0  0  0  0  0  0  0  0  0
    0.6709   -2.9294    0.3907 O   0  0  0  0  0  0  0  0  0  0  0  0
   -0.4750    1.7679    0.2195 O   0  0  0  0  0  0  0  0  0  0  0  0
    4.1076    0.1974   -0.0197 O   0  0  0  0  0  0  0  0  0  0  0  0
   -4.2579   -1.5350   -1.7075 O   0  0  0  0  0  0  0  0  0  0  0  0
   -0.9137    4.0140    0.1276 O   0  0  0  0  0  0  0  0  0  0  0  0
   -0.0299   -0.5828    0.3137 C   0  0  0  0  0  0  0  0  0  0  0  0
    2.2978   -1.3740    0.1923 C   0  0  0  0  0  0  0  0  0  0  0  0
    0.9277   -1.5939    0.3006 C   0  0  0  0  0  0  0  0  0  0  0  0
    1.8334    1.0004    0.0978 C   0  0  0  0  0  0  0  0  0  0  0  0
    0.4720    0.7174    0.2088 C   0  0  0  0  0  0  0  0  0  0  0  0
    2.7655   -0.0491    0.0883 C   0  0  0  0  0  0  0  0  0  0  0  0
   -2.0865   -1.0330   -0.7923 C   0  0  0  0  0  0  0  0  0  0  0  0
   -3.5597   -1.3022   -0.4857 C   0  0  1  0  0  0  0  0  0  0  0  0
    2.8980   -2.6607    0.2195 C   0  0  0  0  0  0  0  0  0  0  0  0
    2.2533    2.3892   -0.0052 C   0  0  0  0  0  0  0  0  0  0  0  0
    1.8697   -3.5664    0.3408 C   0  0  0  0  0  0  0  0  0  0  0  0
   -4.2380   -0.1651    0.2508 C   0  0  0  0  0  0  0  0  0  0  0  0
    1.3497    3.3719    0.0060 C   0  0  0  0  0  0  0  0  0  0  0  0
   -0.0945    3.1018    0.1212 C   0  0  0  0  0  0  0  0  0  0  0  0
   -4.2621    1.1898   -0.4015 C   0  0  0  0  0  0  0  0  0  0  0  0
    4.6473    0.2451   -1.3358 C   0  0  0  0  0  0  0  0  0  0  0  0
   -4.8131   -0.3616    1.4483 C   0  0  0  0  0  0  0  0  0  0  0  0
   -1.6702   -1.8908   -1.3369 H   0  0  0  0  0  0  0  0  0  0  0  0
   -1.9727   -0.1611   -1.4490 H   0  0  0  0  0  0  0  0  0  0  0  0
   -3.6224   -2.2238    0.1066 H   0  0  0  0  0  0  0  0  0  0  0  0
    3.9505   -2.8988    0.1584 H   0  0  0  0  0  0  0  0  0  0  0  0
    3.3072    2.6298   -0.0844 H   0  0  0  0  0  0  0  0  0  0  0  0
    1.8280   -4.6440    0.4019 H   0  0  0  0  0  0  0  0  0  0  0  0
    1.6593    4.4087   -0.0679 H   0  0  0  0  0  0  0  0  0  0  0  0
   -4.8504    1.9120    0.1751 H   0  0  0  0  0  0  0  0  0  0  0  0
   -4.7082    1.1281   -1.3992 H   0  0  0  0  0  0  0  0  0  0  0  0
   -3.2504    1.5943   -0.4958 H   0  0  0  0  0  0  0  0  0  0  0  0
   -5.1811   -1.7465   -1.4856 H   0  0  0  0  0  0  0  0  0  0  0  0
    5.7027    0.5223   -1.2637 H   0  0  0  0  0  0  0  0  0  0  0  0
    4.1323    0.9924   -1.9476 H   0  0  0  0  0  0  0  0  0  0  0  0
    4.5778   -0.7378   -1.8125 H   0  0  0  0  0  0  0  0  0  0  0  0
   -4.8057   -1.3354    1.9265 H   0  0  0  0  0  0  0  0  0  0  0  0
   -5.3038    0.4471    1.9798 H   0  0  0  0  0  0  0  0  0  0  0  0
  1  7  1  0  0  0  0
  1 13  1  0  0  0  0
  2  9  1  0  0  0  0
  2 17  1  0  0  0  0
  3 11  1  0  0  0  0
  3 20  1  0  0  0  0
  4 12  1  0  0  0  0
  4 22  1  0  0  0  0
  5 14  1  0  0  0  0
  5 34  1  0  0  0  0
  6 20  2  0  0  0  0
  7  9  2  0  0  0  0
  7 11  1  0  0  0  0
  8  9  1  0  0  0  0
  8 12  2  0  0  0  0
  8 15  1  0  0  0  0
 10 11  2  0  0  0  0
 10 12  1  0  0  0  0
 10 16  1  0  0  0  0
 13 14  1  0  0  0  0
 13 24  1  0  0  0  0
 13 25  1  0  0  0  0
 14 18  1  0  0  0  0
 14 26  1  0  0  0  0
 15 17  2  0  0  0  0
 15 27  1  0  0  0  0
 16 19  2  0  0  0  0
 16 28  1  0  0  0  0
 17 29  1  0  0  0  0
 18 21  1  0  0  0  0
 18 23  2  0  0  0  0
 19 20  1  0  0  0  0
 19 30  1  0  0  0  0
 21 31  1  0  0  0  0
 21 32  1  0  0  0  0
 21 33  1  0  0  0  0
 22 35  1  0  0  0  0
 22 36  1  0  0  0  0
 22 37  1  0  0  0  0
 23 38  1  0  0  0  0
 23 39  1  0  0  0  0
M  END
> <PUBCHEM_COMPOUND_CID>
616064

> <PUBCHEM_CONFORMER_RMSD>
0.8

> <PUBCHEM_CONFORMER_DIVERSEORDER>
1
20
14
13
16
11
19
12
17
18
4
8
10
15
6
7
5
3
9
2

> <PUBCHEM_MMFF94_PARTIAL_CHARGES>
29
1 -0.36
10 0.03
11 0.08
12 0.08
13 0.28
14 0.42
15 -0.15
16 -0.18
17 -0.01
18 -0.28
19 -0.14
2 -0.28
20 0.71
21 0.14
22 0.28
23 -0.3
27 0.15
28 0.15
29 0.15
3 -0.23
30 0.15
34 0.4
38 0.15
39 0.15
4 -0.36
5 -0.68
6 -0.57
7 0.08
9 0.14

> <PUBCHEM_EFFECTIVE_ROTOR_COUNT>
5

> <PUBCHEM_PHARMACOPHORE_FEATURES>
9
1 1 acceptor
1 2 acceptor
1 4 acceptor
1 5 acceptor
1 5 donor
1 6 acceptor
5 2 8 9 15 17 rings
6 3 10 11 16 19 20 rings
6 7 8 9 10 11 12 rings

> <PUBCHEM_HEAVY_ATOM_COUNT>
23

> <PUBCHEM_ATOM_DEF_STEREO_COUNT>
0

> <PUBCHEM_ATOM_UDEF_STEREO_COUNT>
1

> <PUBCHEM_BOND_DEF_STEREO_COUNT>
0

> <PUBCHEM_BOND_UDEF_STEREO_COUNT>
0

> <PUBCHEM_ISOTOPIC_ATOM_COUNT>
0

> <PUBCHEM_COMPONENT_COUNT>
1

> <PUBCHEM_CACTVS_TAUTO_COUNT>
1

> <PUBCHEM_CONFORMER_ID>
0009668000000001

> <PUBCHEM_MMFF94_ENERGY>
71.5886

> <PUBCHEM_FEATURE_SELFOVERLAP>
45.802

> <PUBCHEM_SHAPE_FINGERPRINT>
10366900 7 18059576833052246723
10411042 1 18195246847966196386
10693767 8 18186806859515093198
10906281 52 18192136106886747436
10967382 1 18411419497009073946
1100329 8 18195247720323754394
11578080 2 17461474521848383497
116883 192 18048319134715332943
11796584 16 15213285444145434510
12553582 1 18410296925512111475
13009979 54 17822288007341659835
13140716 1 18196374715347108962
13583140 156 18341887481839809787
138480 1 18410858775969956673
14790565 3 18340193086655072876
15042514 8 17330839530838925338
15081414 286 18336817663055305896
15210252 30 18131625682289120156
1601671 61 18410854365180572178
16087824 20 17762338420143768437
16945 1 18339917130990210978
18186145 218 18338237038051162407
19591789 44 18267582399206615524
20739085 24 18192130793373710779
20905425 154 18191021407921686542
21041028 32 18268431419841723915
21421861 104 18056480779642878826
21641784 216 18058995289906022004
2255824 54 18337958865798904679
229495 10 15402439110780389230
2334 1 17690838965705426522
23558518 356 17911513513131477386
23598291 2 17969224439106069431
25 1 18271527507115036514
25147074 1 18056188318820221874
266924 87 18340203106897475612
2748010 2 17834948681998280522
3060560 45 18337962173303777918
3091708 16 9070761480798033544
352729 6 16752981831747828597
3886686 26 17109915269814485440
474 4 18193843643690215355
6443956 14 18412261752954445180
7164475 11 18194686093004281182
84936 182 17898855643141339393

> <PUBCHEM_SHAPE_MULTIPOLES>
438.11
8.18
4.32
0.96
7.21
1.99
0.19
-2.07
1.25
-2.23
-0.39
0.66
-0.26
-0.68

> <PUBCHEM_SHAPE_SELFOVERLAP>
951.631

> <PUBCHEM_SHAPE_VOLUME>
242

> <PUBCHEM_COORDINATE_TYPE>
2
5
10

$$$$

