5993437
  -OEChem-07051213063D

 32 33  0     0  0  0  0  0  0999 V2000
   -5.4131   -0.1733   -0.1866 O   0  0  0  0  0  0  0  0  0  0  0  0
    1.0440    1.6662    1.6843 O   0  0  0  0  0  0  0  0  0  0  0  0
    1.2067    2.4166   -0.4531 O   0  0  0  0  0  0  0  0  0  0  0  0
    5.2491   -0.5559   -0.0960 N   0  0  0  0  0  0  0  0  0  0  0  0
   -1.2782    0.1521   -0.0321 C   0  0  0  0  0  0  0  0  0  0  0  0
    0.1708    0.2662    0.0211 C   0  0  0  0  0  0  0  0  0  0  0  0
   -1.8945   -1.0599    0.2786 C   0  0  0  0  0  0  0  0  0  0  0  0
   -2.0515    1.2550   -0.3947 C   0  0  0  0  0  0  0  0  0  0  0  0
    1.0072   -0.7771   -0.2234 C   0  0  0  0  0  0  0  0  0  0  0  0
    2.4745   -0.7018   -0.1794 C   0  0  0  0  0  0  0  0  0  0  0  0
   -4.0574   -0.0663   -0.1358 C   0  0  0  0  0  0  0  0  0  0  0  0
   -3.2842   -1.1692    0.2267 C   0  0  0  0  0  0  0  0  0  0  0  0
   -3.4410    1.1457   -0.4465 C   0  0  0  0  0  0  0  0  0  0  0  0
    0.8584    1.5615    0.3466 C   0  0  0  0  0  0  0  0  0  0  0  0
    3.1765   -0.3924   -1.3299 C   0  0  0  0  0  0  0  0  0  0  0  0
    3.1348   -0.9394    1.0120 C   0  0  0  0  0  0  0  0  0  0  0  0
    4.5576   -0.3319   -1.2359 C   0  0  0  0  0  0  0  0  0  0  0  0
    4.5178   -0.8545    1.0012 C   0  0  0  0  0  0  0  0  0  0  0  0
   -5.9774   -1.4416    0.1430 C   0  0  0  0  0  0  0  0  0  0  0  0
   -1.3285   -1.9350    0.5870 H   0  0  0  0  0  0  0  0  0  0  0  0
   -1.5995    2.2100   -0.6493 H   0  0  0  0  0  0  0  0  0  0  0  0
    0.6301   -1.7586   -0.4988 H   0  0  0  0  0  0  0  0  0  0  0  0
   -3.6980   -2.1380    0.4849 H   0  0  0  0  0  0  0  0  0  0  0  0
   -4.0384    2.0077   -0.7312 H   0  0  0  0  0  0  0  0  0  0  0  0
    2.6819   -0.2014   -2.2762 H   0  0  0  0  0  0  0  0  0  0  0  0
    2.6072   -1.1841    1.9277 H   0  0  0  0  0  0  0  0  0  0  0  0
    5.1633   -0.0936   -2.1039 H   0  0  0  0  0  0  0  0  0  0  0  0
    5.0920   -1.0303    1.9048 H   0  0  0  0  0  0  0  0  0  0  0  0
   -5.7695   -1.7166    1.1826 H   0  0  0  0  0  0  0  0  0  0  0  0
   -5.6627   -2.2179   -0.5627 H   0  0  0  0  0  0  0  0  0  0  0  0
   -7.0641   -1.3460    0.0490 H   0  0  0  0  0  0  0  0  0  0  0  0
    1.4918    2.5043    1.9279 H   0  0  0  0  0  0  0  0  0  0  0  0
  1 11  1  0  0  0  0
  1 19  1  0  0  0  0
  2 14  1  0  0  0  0
  2 32  1  0  0  0  0
  3 14  2  0  0  0  0
  4 17  2  0  0  0  0
  4 18  1  0  0  0  0
  5  6  1  0  0  0  0
  5  7  2  0  0  0  0
  5  8  1  0  0  0  0
  6  9  2  0  0  0  0
  6 14  1  0  0  0  0
  7 12  1  0  0  0  0
  7 20  1  0  0  0  0
  8 13  2  0  0  0  0
  8 21  1  0  0  0  0
  9 10  1  0  0  0  0
  9 22  1  0  0  0  0
 10 15  2  0  0  0  0
 10 16  1  0  0  0  0
 11 12  2  0  0  0  0
 11 13  1  0  0  0  0
 12 23  1  0  0  0  0
 13 24  1  0  0  0  0
 15 17  1  0  0  0  0
 15 25  1  0  0  0  0
 16 18  2  0  0  0  0
 16 26  1  0  0  0  0
 17 27  1  0  0  0  0
 18 28  1  0  0  0  0
 19 29  1  0  0  0  0
 19 30  1  0  0  0  0
 19 31  1  0  0  0  0
M  END
> <PUBCHEM_COMPOUND_CID>
5993437

> <PUBCHEM_CONFORMER_RMSD>
0.6

> <PUBCHEM_CONFORMER_DIVERSEORDER>
2
5
3
1
6
4

> <PUBCHEM_MMFF94_PARTIAL_CHARGES>
29
1 -0.36
10 0.03
11 0.08
12 -0.15
13 -0.15
14 0.71
15 -0.15
16 -0.15
17 0.16
18 0.16
19 0.28
2 -0.65
20 0.15
21 0.15
22 0.15
23 0.15
24 0.15
25 0.15
26 0.15
27 0.15
28 0.15
3 -0.57
32 0.5
4 -0.62
5 0.03
6 -0.01
7 -0.15
8 -0.15
9 -0.18

> <PUBCHEM_EFFECTIVE_ROTOR_COUNT>
4

> <PUBCHEM_PHARMACOPHORE_FEATURES>
7
1 1 acceptor
1 2 acceptor
1 3 acceptor
1 4 acceptor
3 2 3 14 anion
6 4 10 15 16 17 18 rings
6 5 7 8 11 12 13 rings

> <PUBCHEM_HEAVY_ATOM_COUNT>
19

> <PUBCHEM_ATOM_DEF_STEREO_COUNT>
0

> <PUBCHEM_ATOM_UDEF_STEREO_COUNT>
0

> <PUBCHEM_BOND_DEF_STEREO_COUNT>
1

> <PUBCHEM_BOND_UDEF_STEREO_COUNT>
0

> <PUBCHEM_ISOTOPIC_ATOM_COUNT>
0

> <PUBCHEM_COMPONENT_COUNT>
1

> <PUBCHEM_CACTVS_TAUTO_COUNT>
1

> <PUBCHEM_CONFORMER_ID>
005B73DD00000002

> <PUBCHEM_MMFF94_ENERGY>
74.4163

> <PUBCHEM_FEATURE_SELFOVERLAP>
35.578

> <PUBCHEM_SHAPE_FINGERPRINT>
10354089 29 4678815056358632954
10465860 250 18339650026588853416
12107183 9 16982389959326844064
12236239 1 17561365105765678182
13140716 1 18189903006859509067
13288520 33 18411699902802684991
13533116 47 14996273755955184863
13675066 3 16732701666691882401
13862211 1 18411704283585366007
14252887 29 17458341970397750414
14350574 20 18342454821017439191
14386348 63 17967811669416856326
15342168 16 15648491869657889954
17804303 29 18410012130905365681
17834072 33 17704352156383324383
1813 80 16226312786074069064
18222031 100 18187362134192449118
18785283 64 18043540421074200000
19141452 34 17385727971841810031
200 152 17703788163243252570
20028762 73 17968381126826759983
20369508 70 18412829057904523204
20374829 77 18413109451055812503
20645477 70 18335699399399920653
20871999 31 18060140976790227261
21033648 29 16443642301469546995
21033650 10 17841971554390009332
21041028 32 18040435499143012009
21267235 1 18411693296647306351
2297311 6 18261383481619533444
23175994 123 17676205779878058441
23402539 116 17989211477387209455
23522609 53 18126815332040092805
23536379 177 16702304576630593071
23557571 272 18188765175680782812
23559900 14 18270967830464524553
3004659 81 17917430986308280146
3411729 13 18117850906422519456
34797466 226 18187353308377580132
350125 39 18412261757750858013
465052 167 18409722929182711239
474 4 15697419041444543278
5104073 3 18336260138283870697
542803 24 5473138535662717651
633830 44 10519690173177620322
7164475 11 17772755103115260244
7364860 26 18263082111057702208
7495541 125 18201716219759075283
8272917 22 5906055833315584516
8863177 126 17985534560602753235
9709674 26 18126285229990665787

> <PUBCHEM_SHAPE_MULTIPOLES>
368.42
11.6
1.68
1.06
5.36
0.78
-0.09
-5.14
0.97
0.49
-0.21
-1.2
0.09
0.14

> <PUBCHEM_SHAPE_SELFOVERLAP>
793.598

> <PUBCHEM_SHAPE_VOLUME>
202.2

> <PUBCHEM_COORDINATE_TYPE>
2
5
10

$$$$

