43593
  -OEChem-07051212542D

 53 54  0     1  0  0  0  0  0999 V2000
    8.6956   -1.2154    0.0000 S   0  0  0  0  0  0  0  0  0  0  0  0
    6.0975    0.2846    0.0000 S   0  0  0  0  0  0  0  0  0  0  0  0
    3.1590   -0.9093    0.0000 S   0  0  0  0  0  0  0  0  0  0  0  0
    7.8296    3.2846    0.0000 Na  0  3  0  0  0  0  0  0  0  0  0  0
    2.0000   -2.1965    0.0000 Na  0  3  0  0  0  0  0  0  0  0  0  0
   11.2755    0.9973    0.0000 O   0  0  0  0  0  0  0  0  0  0  0  0
   12.5028   -0.2059    0.0000 O   0  0  0  0  0  0  0  0  0  0  0  0
    7.8296    2.2846    0.0000 O   0  5  0  0  0  0  0  0  0  0  0  0
    9.5616    2.2846    0.0000 O   0  0  0  0  0  0  0  0  0  0  0  0
   12.6868   -2.8453    0.0000 O   0  0  0  0  0  0  0  0  0  0  0  0
    2.2079   -1.2184    0.0000 O   0  5  0  0  0  0  0  0  0  0  0  0
    3.4680   -1.8604    0.0000 O   0  0  0  0  0  0  0  0  0  0  0  0
    2.8500    0.0417    0.0000 O   0  0  0  0  0  0  0  0  0  0  0  0
    9.5616    0.2846    0.0000 N   0  0  0  0  0  0  0  0  0  0  0  0
   11.2755   -1.4281    0.0000 N   0  0  0  0  0  0  0  0  0  0  0  0
    4.3179    0.3778    0.0000 N   0  0  0  0  0  0  0  0  0  0  0  0
    5.1270    1.7791    0.0000 N   0  0  0  0  0  0  0  0  0  0  0  0
    3.6488    1.1210    0.0000 N   0  0  0  0  0  0  0  0  0  0  0  0
    4.1488    1.9870    0.0000 N   0  0  0  0  0  0  0  0  0  0  0  0
    9.5616   -0.7154    0.0000 C   0  0  1  0  0  0  0  0  0  0  0  0
   10.5699   -0.7196    0.0000 C   0  0  1  0  0  0  0  0  0  0  0  0
   10.5699    0.2887    0.0000 C   0  0  0  0  0  0  0  0  0  0  0  0
    8.6956    0.7846    0.0000 C   0  0  0  0  0  0  0  0  0  0  0  0
    7.8296    0.2846    0.0000 C   0  0  0  0  0  0  0  0  0  0  0  0
    7.8296   -0.7154    0.0000 C   0  0  0  0  0  0  0  0  0  0  0  0
    6.9635    0.7846    0.0000 C   0  0  0  0  0  0  0  0  0  0  0  0
   12.2420   -1.1713    0.0000 C   0  0  0  0  0  0  0  0  0  0  0  0
    8.6956    1.7846    0.0000 C   0  0  0  0  0  0  0  0  0  0  0  0
   12.9476   -1.8799    0.0000 C   0  0  1  0  0  0  0  0  0  0  0  0
   13.9141   -1.6230    0.0000 C   0  0  0  0  0  0  0  0  0  0  0  0
    5.2315    0.7846    0.0000 C   0  0  0  0  0  0  0  0  0  0  0  0
   14.6198   -2.3316    0.0000 C   0  0  0  0  0  0  0  0  0  0  0  0
   14.1749   -0.6576    0.0000 C   0  0  0  0  0  0  0  0  0  0  0  0
    4.1100   -0.6003    0.0000 C   0  0  0  0  0  0  0  0  0  0  0  0
   15.5862   -2.0748    0.0000 C   0  0  0  0  0  0  0  0  0  0  0  0
   15.1414   -0.4008    0.0000 C   0  0  0  0  0  0  0  0  0  0  0  0
   15.8470   -1.1094    0.0000 C   0  0  0  0  0  0  0  0  0  0  0  0
    9.7799   -1.5369    0.0000 H   0  0  0  0  0  0  0  0  0  0  0  0
   10.3309   -1.2916    0.0000 H   0  0  0  0  0  0  0  0  0  0  0  0
    7.2190   -0.6078    0.0000 H   0  0  0  0  0  0  0  0  0  0  0  0
    7.6175   -1.2980    0.0000 H   0  0  0  0  0  0  0  0  0  0  0  0
   11.1138   -2.0267    0.0000 H   0  0  0  0  0  0  0  0  0  0  0  0
    7.3621    1.2595    0.0000 H   0  0  0  0  0  0  0  0  0  0  0  0
    6.5650    1.2595    0.0000 H   0  0  0  0  0  0  0  0  0  0  0  0
   13.3852   -2.3192    0.0000 H   0  0  0  0  0  0  0  0  0  0  0  0
   13.1243   -3.2846    0.0000 H   0  0  0  0  0  0  0  0  0  0  0  0
   14.4581   -2.9301    0.0000 H   0  0  0  0  0  0  0  0  0  0  0  0
   13.7374   -0.2183    0.0000 H   0  0  0  0  0  0  0  0  0  0  0  0
    4.1963   -1.2143    0.0000 H   0  0  0  0  0  0  0  0  0  0  0  0
    4.7296   -0.6220    0.0000 H   0  0  0  0  0  0  0  0  0  0  0  0
   16.0237   -2.5141    0.0000 H   0  0  0  0  0  0  0  0  0  0  0  0
   15.3031    0.1977    0.0000 H   0  0  0  0  0  0  0  0  0  0  0  0
   16.4462   -0.9501    0.0000 H   0  0  0  0  0  0  0  0  0  0  0  0
  1 20  1  0  0  0  0
  1 25  1  0  0  0  0
  2 26  1  0  0  0  0
  2 31  1  0  0  0  0
  3 11  1  0  0  0  0
  3 12  2  0  0  0  0
  3 13  2  0  0  0  0
  3 34  1  0  0  0  0
  6 22  2  0  0  0  0
  7 27  2  0  0  0  0
  8 28  1  0  0  0  0
  9 28  2  0  0  0  0
 29 10  1  1  0  0  0
 10 46  1  0  0  0  0
 14 20  1  0  0  0  0
 14 22  1  0  0  0  0
 14 23  1  0  0  0  0
 21 15  1  1  0  0  0
 15 27  1  0  0  0  0
 15 42  1  0  0  0  0
 16 18  1  0  0  0  0
 16 31  1  0  0  0  0
 16 34  1  0  0  0  0
 17 19  1  0  0  0  0
 17 31  2  0  0  0  0
 18 19  2  0  0  0  0
 20 21  1  0  0  0  0
 20 38  1  6  0  0  0
 21 22  1  0  0  0  0
 21 39  1  0  0  0  0
 23 24  2  0  0  0  0
 23 28  1  0  0  0  0
 24 25  1  0  0  0  0
 24 26  1  0  0  0  0
 25 40  1  0  0  0  0
 25 41  1  0  0  0  0
 26 43  1  0  0  0  0
 26 44  1  0  0  0  0
 27 29  1  0  0  0  0
 29 30  1  0  0  0  0
 29 45  1  0  0  0  0
 30 32  2  0  0  0  0
 30 33  1  0  0  0  0
 32 35  1  0  0  0  0
 32 47  1  0  0  0  0
 33 36  2  0  0  0  0
 33 48  1  0  0  0  0
 34 49  1  0  0  0  0
 34 50  1  0  0  0  0
 35 37  2  0  0  0  0
 35 51  1  0  0  0  0
 36 37  1  0  0  0  0
 36 52  1  0  0  0  0
 37 53  1  0  0  0  0
M  CHG  4   4   1   5   1   8  -1  11  -1
M  END
> <PUBCHEM_COMPOUND_CID>
43593

> <PUBCHEM_COMPOUND_CANONICALIZED>
1

> <PUBCHEM_CACTVS_COMPLEXITY>
980

> <PUBCHEM_CACTVS_HBOND_ACCEPTOR>
13

> <PUBCHEM_CACTVS_HBOND_DONOR>
2

> <PUBCHEM_CACTVS_ROTATABLE_BOND>
7

> <PUBCHEM_CACTVS_SUBSKEYS>
AAADceB7vDBgAAAAAAAAAAAAAABYAWAAAAAwQAAAAAAQAAABwAAAHgQYCAAADDzl2AaxGIfIAgqqAiXSfHIKEANggJANyIHICMiKdjqglTGUcAAk1gG4mQeYyKCOAAAAAAAAAAAAAAAAAAAAAAAAAAAAAA==

> <PUBCHEM_IUPAC_OPENEYE_NAME>
disodium (6R,7R)-7-[[(2R)-2-hydroxy-2-phenyl-acetyl]amino]-8-oxo-3-[[1-(sulfonatomethyl)tetrazol-5-yl]sulfanylmethyl]-5-thia-1-azabicyclo[4.2.0]oct-2-ene-2-carboxylate

> <PUBCHEM_IUPAC_CAS_NAME>
disodium (6R,7R)-7-[[(2R)-2-hydroxy-1-oxo-2-phenylethyl]amino]-8-oxo-3-[[[1-(sulfonatomethyl)-5-tetrazolyl]thio]methyl]-5-thia-1-azabicyclo[4.2.0]oct-2-ene-2-carboxylate

> <PUBCHEM_IUPAC_NAME>
disodium (6R,7R)-7-[[(2R)-2-hydroxy-2-phenylacetyl]amino]-8-oxo-3-[[1-(sulfonatomethyl)tetrazol-5-yl]sulfanylmethyl]-5-thia-1-azabicyclo[4.2.0]oct-2-ene-2-carboxylate

> <PUBCHEM_IUPAC_SYSTEMATIC_NAME>
disodium (6R,7R)-8-oxidanylidene-7-[[(2R)-2-oxidanyl-2-phenyl-ethanoyl]amino]-3-[[1-(sulfonatomethyl)-1,2,3,4-tetrazol-5-yl]sulfanylmethyl]-5-thia-1-azabicyclo[4.2.0]oct-2-ene-2-carboxylate

> <PUBCHEM_IUPAC_TRADITIONAL_NAME>
disodium (6R,7R)-7-[[(2R)-2-hydroxy-2-phenyl-acetyl]amino]-8-keto-3-[[[1-(sulfonatomethyl)tetrazol-5-yl]thio]methyl]-5-thia-1-azabicyclo[4.2.0]oct-2-ene-2-carboxylate

> <PUBCHEM_IUPAC_INCHI>
InChI=1S/C18H18N6O8S3.2Na/c25-13(9-4-2-1-3-5-9)14(26)19-11-15(27)24-12(17(28)29)10(6-33-16(11)24)7-34-18-20-21-22-23(18)8-35(30,31)32;;/h1-5,11,13,16,25H,6-8H2,(H,19,26)(H,28,29)(H,30,31,32);;/q;2*+1/p-2/t11-,13-,16-;;/m1../s1

> <PUBCHEM_IUPAC_INCHIKEY>
NAXFZVGOZUWLEP-RFXDPDBWSA-L

> <PUBCHEM_EXACT_MASS>
585.998713

> <PUBCHEM_MOLECULAR_FORMULA>
C18H16N6Na2O8S3

> <PUBCHEM_MOLECULAR_WEIGHT>
586.529579

> <PUBCHEM_OPENEYE_CAN_SMILES>
C1C(=C(N2C(S1)C(C2=O)NC(=O)C(C3=CC=CC=C3)O)C(=O)[O-])CSC4=NN=NN4CS(=O)(=O)[O-].[Na+].[Na+]

> <PUBCHEM_OPENEYE_ISO_SMILES>
C1C(=C(N2[C@H](S1)[C@@H](C2=O)NC(=O)[C@@H](C3=CC=CC=C3)O)C(=O)[O-])CSC4=NN=NN4CS(=O)(=O)[O-].[Na+].[Na+]

> <PUBCHEM_CACTVS_TPSA>
270

> <PUBCHEM_MONOISOTOPIC_WEIGHT>
585.998713

> <PUBCHEM_TOTAL_CHARGE>
0

> <PUBCHEM_HEAVY_ATOM_COUNT>
37

> <PUBCHEM_ATOM_DEF_STEREO_COUNT>
3

> <PUBCHEM_ATOM_UDEF_STEREO_COUNT>
0

> <PUBCHEM_BOND_DEF_STEREO_COUNT>
0

> <PUBCHEM_BOND_UDEF_STEREO_COUNT>
0

> <PUBCHEM_ISOTOPIC_ATOM_COUNT>
0

> <PUBCHEM_COMPONENT_COUNT>
3

> <PUBCHEM_CACTVS_TAUTO_COUNT>
4

> <PUBCHEM_COORDINATE_TYPE>
1
5
255

> <PUBCHEM_BONDANNOTATIONS>
29  10  5
21  15  5
16  18  8
16  31  8
17  19  8
17  31  8
18  19  8
20  38  6
30  32  8
30  33  8
32  35  8
33  36  8
35  37  8
36  37  8

$$$$

