11954034
  -OEChem-07051213053D

 61 65  0     1  0  0  0  0  0999 V2000
    1.4260    0.5677   -1.0155 F   0  0  0  0  0  0  0  0  0  0  0  0
   -2.9643    0.5726   -1.1617 O   0  0  0  0  0  0  0  0  0  0  0  0
   -3.7314    1.8508    0.6552 O   0  0  0  0  0  0  0  0  0  0  0  0
    0.8795   -2.8529   -0.0595 O   0  0  0  0  0  0  0  0  0  0  0  0
   -4.9864   -1.3406    0.5428 O   0  0  0  0  0  0  0  0  0  0  0  0
    6.1998    1.4796   -1.3692 O   0  0  0  0  0  0  0  0  0  0  0  0
   -1.5222   -0.8872    0.2251 C   0  0  1  0  0  0  0  0  0  0  0  0
   -0.7773    0.3620    0.7474 C   0  0  2  0  0  0  0  0  0  0  0  0
    0.6725    0.0758    1.1629 C   0  0  1  0  0  0  0  0  0  0  0  0
   -2.9250   -0.2720   -0.0141 C   0  0  1  0  0  0  0  0  0  0  0  0
    1.4611   -0.4581   -0.0832 C   0  0  1  0  0  0  0  0  0  0  0  0
   -3.1426    0.6635    1.1782 C   0  0  1  0  0  0  0  0  0  0  0  0
   -1.7471    0.9566    1.7714 C   0  0  0  0  0  0  0  0  0  0  0  0
   -0.7779   -1.3718   -1.0330 C   0  0  0  0  0  0  0  0  0  0  0  0
    0.7244   -1.6413   -0.7823 C   0  0  2  0  0  0  0  0  0  0  0  0
    2.9908   -0.6850    0.2382 C   0  0  1  0  0  0  0  0  0  0  0  0
    1.3273    1.3470    1.7334 C   0  0  0  0  0  0  0  0  0  0  0  0
   -1.6287   -2.0248    1.2773 C   0  0  0  0  0  0  0  0  0  0  0  0
    2.8046    1.1428    2.0483 C   0  0  0  0  0  0  0  0  0  0  0  0
   -3.6369    1.7725   -0.7685 C   0  0  0  0  0  0  0  0  0  0  0  0
   -4.0126   -1.2877   -0.2069 C   0  0  0  0  0  0  0  0  0  0  0  0
    3.5320    0.6196    0.8360 C   0  0  0  0  0  0  0  0  0  0  0  0
    3.2607   -1.8215    1.2509 C   0  0  0  0  0  0  0  0  0  0  0  0
    3.7433   -1.0620   -1.0300 C   0  0  0  0  0  0  0  0  0  0  0  0
   -5.0465    1.7779   -1.3536 C   0  0  0  0  0  0  0  0  0  0  0  0
   -2.8455    2.9702   -1.2800 C   0  0  0  0  0  0  0  0  0  0  0  0
   -3.8550   -2.2367   -1.3640 C   0  0  0  0  0  0  0  0  0  0  0  0
    4.5590    1.3092    0.3150 C   0  0  0  0  0  0  0  0  0  0  0  0
    4.7654   -0.3787   -1.5542 C   0  0  0  0  0  0  0  0  0  0  0  0
    5.2531    0.8524   -0.9062 C   0  0  0  0  0  0  0  0  0  0  0  0
   -0.7156    1.0970   -0.0695 H   0  0  0  0  0  0  0  0  0  0  0  0
    0.6835   -0.6779    1.9562 H   0  0  0  0  0  0  0  0  0  0  0  0
   -3.7936    0.2715    1.9658 H   0  0  0  0  0  0  0  0  0  0  0  0
   -1.6334    0.4510    2.7370 H   0  0  0  0  0  0  0  0  0  0  0  0
   -1.5756    2.0272    1.9220 H   0  0  0  0  0  0  0  0  0  0  0  0
   -0.8571   -0.6211   -1.8290 H   0  0  0  0  0  0  0  0  0  0  0  0
   -1.2242   -2.2938   -1.4153 H   0  0  0  0  0  0  0  0  0  0  0  0
    1.1638   -1.7946   -1.7758 H   0  0  0  0  0  0  0  0  0  0  0  0
    0.8129    1.6540    2.6516 H   0  0  0  0  0  0  0  0  0  0  0  0
    1.2190    2.1751    1.0204 H   0  0  0  0  0  0  0  0  0  0  0  0
   -2.2908   -1.7626    2.1094 H   0  0  0  0  0  0  0  0  0  0  0  0
   -2.0248   -2.9430    0.8322 H   0  0  0  0  0  0  0  0  0  0  0  0
   -0.6681   -2.2855    1.7256 H   0  0  0  0  0  0  0  0  0  0  0  0
    2.9191    0.4405    2.8820 H   0  0  0  0  0  0  0  0  0  0  0  0
    3.2287    2.0947    2.3904 H   0  0  0  0  0  0  0  0  0  0  0  0
    2.5895   -1.7857    2.1140 H   0  0  0  0  0  0  0  0  0  0  0  0
    3.1677   -2.8166    0.8047 H   0  0  0  0  0  0  0  0  0  0  0  0
    4.2856   -1.7643    1.6419 H   0  0  0  0  0  0  0  0  0  0  0  0
    3.4434   -1.9747   -1.5403 H   0  0  0  0  0  0  0  0  0  0  0  0
    1.5322   -3.3965   -0.5322 H   0  0  0  0  0  0  0  0  0  0  0  0
   -5.0240    1.6738   -2.4434 H   0  0  0  0  0  0  0  0  0  0  0  0
   -5.6389    0.9449   -0.9611 H   0  0  0  0  0  0  0  0  0  0  0  0
   -5.5810    2.6970   -1.0907 H   0  0  0  0  0  0  0  0  0  0  0  0
   -1.8413    2.9877   -0.8436 H   0  0  0  0  0  0  0  0  0  0  0  0
   -2.7244    2.9320   -2.3676 H   0  0  0  0  0  0  0  0  0  0  0  0
   -3.3286    3.9134   -1.0039 H   0  0  0  0  0  0  0  0  0  0  0  0
   -3.4040   -1.7402   -2.2259 H   0  0  0  0  0  0  0  0  0  0  0  0
   -3.2730   -3.1103   -1.0688 H   0  0  0  0  0  0  0  0  0  0  0  0
   -4.8492   -2.5755   -1.6730 H   0  0  0  0  0  0  0  0  0  0  0  0
    4.9091    2.2354    0.7585 H   0  0  0  0  0  0  0  0  0  0  0  0
    5.2643   -0.7137   -2.4560 H   0  0  0  0  0  0  0  0  0  0  0  0
  1 11  1  0  0  0  0
  2 10  1  0  0  0  0
  2 20  1  0  0  0  0
  3 12  1  0  0  0  0
  3 20  1  0  0  0  0
  4 15  1  0  0  0  0
  4 50  1  0  0  0  0
  5 21  2  0  0  0  0
  6 30  2  0  0  0  0
  7  8  1  0  0  0  0
  7 10  1  0  0  0  0
  7 14  1  0  0  0  0
  7 18  1  0  0  0  0
  8  9  1  0  0  0  0
  8 13  1  0  0  0  0
  8 31  1  0  0  0  0
  9 11  1  0  0  0  0
  9 17  1  0  0  0  0
  9 32  1  0  0  0  0
 10 12  1  0  0  0  0
 10 21  1  0  0  0  0
 11 15  1  0  0  0  0
 11 16  1  0  0  0  0
 12 13  1  0  0  0  0
 12 33  1  0  0  0  0
 13 34  1  0  0  0  0
 13 35  1  0  0  0  0
 14 15  1  0  0  0  0
 14 36  1  0  0  0  0
 14 37  1  0  0  0  0
 15 38  1  0  0  0  0
 16 22  1  0  0  0  0
 16 23  1  0  0  0  0
 16 24  1  0  0  0  0
 17 19  1  0  0  0  0
 17 39  1  0  0  0  0
 17 40  1  0  0  0  0
 18 41  1  0  0  0  0
 18 42  1  0  0  0  0
 18 43  1  0  0  0  0
 19 22  1  0  0  0  0
 19 44  1  0  0  0  0
 19 45  1  0  0  0  0
 20 25  1  0  0  0  0
 20 26  1  0  0  0  0
 21 27  1  0  0  0  0
 22 28  2  0  0  0  0
 23 46  1  0  0  0  0
 23 47  1  0  0  0  0
 23 48  1  0  0  0  0
 24 29  2  0  0  0  0
 24 49  1  0  0  0  0
 25 51  1  0  0  0  0
 25 52  1  0  0  0  0
 25 53  1  0  0  0  0
 26 54  1  0  0  0  0
 26 55  1  0  0  0  0
 26 56  1  0  0  0  0
 27 57  1  0  0  0  0
 27 58  1  0  0  0  0
 27 59  1  0  0  0  0
 28 30  1  0  0  0  0
 28 60  1  0  0  0  0
 29 30  1  0  0  0  0
 29 61  1  0  0  0  0
M  END
> <PUBCHEM_COMPOUND_CID>
11954034

> <PUBCHEM_CONFORMER_RMSD>
0.8

> <PUBCHEM_CONFORMER_DIVERSEORDER>
1

> <PUBCHEM_MMFF94_PARTIAL_CHARGES>
24
1 -0.34
10 0.34
11 0.34
12 0.28
15 0.28
16 0.28
19 0.14
2 -0.56
20 0.56
21 0.45
22 -0.28
24 -0.29
27 0.06
28 -0.14
29 -0.14
3 -0.56
30 0.54
4 -0.68
49 0.15
5 -0.57
50 0.4
6 -0.57
60 0.15
61 0.15

> <PUBCHEM_EFFECTIVE_ROTOR_COUNT>
2.6

> <PUBCHEM_PHARMACOPHORE_FEATURES>
12
1 2 acceptor
1 3 acceptor
1 4 acceptor
1 4 donor
1 5 acceptor
1 6 acceptor
3 20 25 26 hydrophobe
5 2 3 10 12 20 rings
5 7 8 10 12 13 rings
6 16 22 24 28 29 30 rings
6 7 8 9 11 14 15 rings
6 9 11 16 17 19 22 rings

> <PUBCHEM_HEAVY_ATOM_COUNT>
30

> <PUBCHEM_ATOM_DEF_STEREO_COUNT>
8

> <PUBCHEM_ATOM_UDEF_STEREO_COUNT>
0

> <PUBCHEM_BOND_DEF_STEREO_COUNT>
0

> <PUBCHEM_BOND_UDEF_STEREO_COUNT>
0

> <PUBCHEM_ISOTOPIC_ATOM_COUNT>
0

> <PUBCHEM_COMPONENT_COUNT>
1

> <PUBCHEM_CACTVS_TAUTO_COUNT>
6

> <PUBCHEM_CONFORMER_ID>
00B6677200000001

> <PUBCHEM_MMFF94_ENERGY>
109.6536

> <PUBCHEM_FEATURE_SELFOVERLAP>
61.654

> <PUBCHEM_SHAPE_FINGERPRINT>
10366900 7 18339365145381655299
10498660 4 18409731776757149640
10670039 82 18343581833204981764
10863032 1 18338806722661224339
11578080 2 18268422619785966301
11595378 159 17060063691366854077
12236239 1 16558759983402233107
12403259 415 18259988145492634465
12553582 1 17095525101757073192
12596602 18 16487254370050666097
12788726 201 17130422385495249675
13224815 77 18113621187556938651
13583140 156 18263380194778103763
13944108 23 16752693283367280861
14341114 328 15626211408634110868
14739800 52 17846228713585482544
14790565 3 17318988913110961193
15163728 17 18058169612502770413
15788980 27 18060420248474802938
1601671 61 18202282511688092404
16945 1 17896043307324928171
17349148 13 18342461404479857722
17980427 23 17346593067300914485
18186145 218 18186241735948652850
18608769 82 18192143802613801090
1979834 28 13110677315092409624
19862831 5 17894347791706887280
200 152 15430036564890277073
20775438 99 15578424390827856301
21033648 29 18261682488721656080
21033650 10 18199445814447880908
221357 26 17676486124940532491
22182313 1 17823152145633149200
22393880 68 18260271849678560870
23557571 272 18411985732855245153
23559900 14 17675926491229326064
2838139 119 17771922789961774653
296302 2 18131347535652944242
350125 39 18333725802341263219
46194498 28 18116148862221988692
469060 322 18200016375405013355
497634 4 17821998792754299089
5104073 3 17917428773740149088
633830 44 17313106366792954976
7237137 82 18335139769825399957

> <PUBCHEM_SHAPE_MULTIPOLES>
580.77
11.18
2.57
1.77
4.93
0.16
-0.21
-3.33
4.41
-1.88
0.45
0.47
-0.45
0.5

> <PUBCHEM_SHAPE_SELFOVERLAP>
1278.586

> <PUBCHEM_SHAPE_VOLUME>
316

> <PUBCHEM_COORDINATE_TYPE>
2
5
10

$$$$

