10683
  -OEChem-06261204503D

 20 20  0     1  0  0  0  0  0999 V2000
    1.8580    0.8794   -0.1257 O   0  0  0  0  0  0  0  0  0  0  0  0
    0.1117   -2.0133    0.7423 O   0  0  0  0  0  0  0  0  0  0  0  0
    0.2479    2.4918   -0.0975 O   0  0  0  0  0  0  0  0  0  0  0  0
   -0.2096    0.2776    0.4334 N   0  0  0  0  0  0  0  0  0  0  0  0
    1.9227   -0.5313    0.1266 C   0  0  1  0  0  0  0  0  0  0  0  0
    0.5065   -0.8869    0.4808 C   0  0  0  0  0  0  0  0  0  0  0  0
   -1.6300    0.3706    0.7087 C   0  0  0  0  0  0  0  0  0  0  0  0
    0.5782    1.3245    0.0623 C   0  0  0  0  0  0  0  0  0  0  0  0
    2.3969   -1.2534   -1.1175 C   0  0  0  0  0  0  0  0  0  0  0  0
   -2.4465    0.1644   -0.5299 C   0  0  0  0  0  0  0  0  0  0  0  0
   -3.3357   -0.8234   -0.6835 C   0  0  0  0  0  0  0  0  0  0  0  0
    2.5812   -0.7084    0.9822 H   0  0  0  0  0  0  0  0  0  0  0  0
   -1.8458    1.3668    1.1105 H   0  0  0  0  0  0  0  0  0  0  0  0
   -1.8840   -0.3700    1.4756 H   0  0  0  0  0  0  0  0  0  0  0  0
    2.4403   -2.3349   -0.9562 H   0  0  0  0  0  0  0  0  0  0  0  0
    1.7281   -1.0622   -1.9645 H   0  0  0  0  0  0  0  0  0  0  0  0
    3.3906   -0.8993   -1.4109 H   0  0  0  0  0  0  0  0  0  0  0  0
   -2.3105    0.8719   -1.3439 H   0  0  0  0  0  0  0  0  0  0  0  0
   -3.9009   -0.9152   -1.6045 H   0  0  0  0  0  0  0  0  0  0  0  0
   -3.5141   -1.5529    0.0987 H   0  0  0  0  0  0  0  0  0  0  0  0
  1  5  1  0  0  0  0
  1  8  1  0  0  0  0
  2  6  2  0  0  0  0
  3  8  2  0  0  0  0
  4  6  1  0  0  0  0
  4  7  1  0  0  0  0
  4  8  1  0  0  0  0
  5  6  1  0  0  0  0
  5  9  1  0  0  0  0
  5 12  1  0  0  0  0
  7 10  1  0  0  0  0
  7 13  1  0  0  0  0
  7 14  1  0  0  0  0
  9 15  1  0  0  0  0
  9 16  1  0  0  0  0
  9 17  1  0  0  0  0
 10 11  2  0  0  0  0
 10 18  1  0  0  0  0
 11 19  1  0  0  0  0
 11 20  1  0  0  0  0
M  END
> <PUBCHEM_COMPOUND_CID>
10683

> <PUBCHEM_CONFORMER_RMSD>
0.6

> <PUBCHEM_CONFORMER_DIVERSEORDER>
1
8
3
6
7
4
2
5

> <PUBCHEM_MMFF94_PARTIAL_CHARGES>
13
1 -0.43
10 -0.29
11 -0.3
18 0.15
19 0.15
2 -0.57
20 0.15
3 -0.57
4 -0.42
5 0.34
6 0.57
7 0.44
8 0.78

> <PUBCHEM_EFFECTIVE_ROTOR_COUNT>
2.6

> <PUBCHEM_PHARMACOPHORE_FEATURES>
4
1 11 hydrophobe
1 2 acceptor
1 3 acceptor
5 1 4 5 6 8 rings

> <PUBCHEM_HEAVY_ATOM_COUNT>
11

> <PUBCHEM_ATOM_DEF_STEREO_COUNT>
0

> <PUBCHEM_ATOM_UDEF_STEREO_COUNT>
1

> <PUBCHEM_BOND_DEF_STEREO_COUNT>
0

> <PUBCHEM_BOND_UDEF_STEREO_COUNT>
0

> <PUBCHEM_ISOTOPIC_ATOM_COUNT>
0

> <PUBCHEM_COMPONENT_COUNT>
1

> <PUBCHEM_CACTVS_TAUTO_COUNT>
1

> <PUBCHEM_CONFORMER_ID>
000029BB00000001

> <PUBCHEM_MMFF94_ENERGY>
6.9839

> <PUBCHEM_FEATURE_SELFOVERLAP>
20.297

> <PUBCHEM_SHAPE_FINGERPRINT>
11206711 2 18127398175927828340
12423570 1 7875648249485449994
12897270 3 18273224088359233247
13380535 76 18050856511378760128
14128692 85 18186519916764626935
16945 1 18262791844240134520
18185500 45 18266181810608799419
20645477 70 18262813848233656071
21040471 1 18126848196580572328
23402539 116 18339642360425840078
23552423 10 18340763865947953877
241688 4 18263921201664287376
2748010 2 17474094411285129200
449060 23 18040712623275172967
5084963 1 18333733494342743377
53812653 217 17761481887077414397

> <PUBCHEM_SHAPE_MULTIPOLES>
203.79
3.85
1.91
0.91
2.43
0.67
0.07
-1.45
1.37
-0.52
0.02
-0.02
-0.27
0

> <PUBCHEM_SHAPE_SELFOVERLAP>
413.095

> <PUBCHEM_SHAPE_VOLUME>
121.1

> <PUBCHEM_COORDINATE_TYPE>
2
5
10

$$$$

