11873
  -OEChem-07051213013D

 20 20  0     0  0  0  0  0  0999 V2000
    2.6021   -0.1188   -0.0272 O   0  0  0  0  0  0  0  0  0  0  0  0
    0.6856    3.4318   -0.5795 O   0  0  0  0  0  0  0  0  0  0  0  0
    2.4745    2.5591    0.5180 O   0  0  0  0  0  0  0  0  0  0  0  0
    0.4236   -3.5484   -0.0515 O   0  5  0  0  0  0  0  0  0  0  0  0
    2.3834   -2.5597   -0.0617 O   0  0  0  0  0  0  0  0  0  0  0  0
   -3.5288    1.2327    0.0729 O   0  5  0  0  0  0  0  0  0  0  0  0
   -3.6215   -0.9603    0.0403 O   0  0  0  0  0  0  0  0  0  0  0  0
    1.1307   -2.5134   -0.0446 N   0  3  0  0  0  0  0  0  0  0  0  0
   -2.9678    0.1106    0.0483 N   0  3  0  0  0  0  0  0  0  0  0  0
    0.5921    1.1698    0.0176 C   0  0  0  0  0  0  0  0  0  0  0  0
    0.4903   -1.2437   -0.0169 C   0  0  0  0  0  0  0  0  0  0  0  0
    1.2379   -0.0662   -0.0090 C   0  0  0  0  0  0  0  0  0  0  0  0
   -1.5491    0.0509    0.0284 C   0  0  0  0  0  0  0  0  0  0  0  0
   -0.8015    1.2284    0.0365 C   0  0  0  0  0  0  0  0  0  0  0  0
   -0.9033   -1.1852    0.0017 C   0  0  0  0  0  0  0  0  0  0  0  0
    1.3519    2.4125    0.0267 C   0  0  0  0  0  0  0  0  0  0  0  0
   -1.3002    2.1941    0.0727 H   0  0  0  0  0  0  0  0  0  0  0  0
   -1.4891   -2.1015   -0.0043 H   0  0  0  0  0  0  0  0  0  0  0  0
    2.9838    0.7707   -0.0894 H   0  0  0  0  0  0  0  0  0  0  0  0
    1.2043    4.2644   -0.5692 H   0  0  0  0  0  0  0  0  0  0  0  0
  1 12  1  0  0  0  0
  1 19  1  0  0  0  0
  2 16  1  0  0  0  0
  2 20  1  0  0  0  0
  3 16  2  0  0  0  0
  4  8  1  0  0  0  0
  5  8  2  0  0  0  0
  6  9  1  0  0  0  0
  7  9  2  0  0  0  0
  8 11  1  0  0  0  0
  9 13  1  0  0  0  0
 10 12  2  0  0  0  0
 10 14  1  0  0  0  0
 10 16  1  0  0  0  0
 11 12  1  0  0  0  0
 11 15  2  0  0  0  0
 13 14  2  0  0  0  0
 13 15  1  0  0  0  0
 14 17  1  0  0  0  0
 15 18  1  0  0  0  0
M  CHG  4   4  -1   6  -1   8   1   9   1
M  END
> <PUBCHEM_COMPOUND_CID>
11873

> <PUBCHEM_CONFORMER_RMSD>
0.6

> <PUBCHEM_CONFORMER_DIVERSEORDER>
1

> <PUBCHEM_MMFF94_PARTIAL_CHARGES>
20
1 -0.53
10 0.09
11 0.13
12 0.08
13 0.13
14 -0.15
15 -0.15
16 0.63
17 0.15
18 0.15
19 0.45
2 -0.65
20 0.5
3 -0.57
4 -0.52
5 -0.52
6 -0.52
7 -0.52
8 0.91
9 0.91

> <PUBCHEM_EFFECTIVE_ROTOR_COUNT>
3

> <PUBCHEM_PHARMACOPHORE_FEATURES>
11
1 1 donor
1 2 acceptor
1 3 acceptor
1 4 acceptor
1 4 anion
1 5 acceptor
1 6 acceptor
1 6 anion
1 7 acceptor
3 2 3 16 anion
6 10 11 12 13 14 15 rings

> <PUBCHEM_HEAVY_ATOM_COUNT>
16

> <PUBCHEM_ATOM_DEF_STEREO_COUNT>
0

> <PUBCHEM_ATOM_UDEF_STEREO_COUNT>
0

> <PUBCHEM_BOND_DEF_STEREO_COUNT>
0

> <PUBCHEM_BOND_UDEF_STEREO_COUNT>
0

> <PUBCHEM_ISOTOPIC_ATOM_COUNT>
0

> <PUBCHEM_COMPONENT_COUNT>
1

> <PUBCHEM_CACTVS_TAUTO_COUNT>
7

> <PUBCHEM_CONFORMER_ID>
00002E6100000001

> <PUBCHEM_MMFF94_ENERGY>
57.1322

> <PUBCHEM_FEATURE_SELFOVERLAP>
56.04

> <PUBCHEM_SHAPE_FINGERPRINT>
1 1 18338516339695313085
10967382 1 18338516330989262306
13140716 1 18338233743652939217
13380535 76 17975979769411007532
14648413 74 18413105074320516809
14790565 3 18338785772059382276
15442244 35 18119807169451884521
15490181 8 18121506743344118662
16945 1 18410293627082547761
17990270 104 18412265068785274707
193761 8 17906169551623826398
19591789 44 18339356362568855174
20510252 161 16965753845951067264
20645477 70 18341903961529019735
20871998 184 17251752746026683743
21524375 3 17984148054289719489
2334 1 17977946787065050929
23419403 2 17413347811389712046
23526114 1 18411136969496298495
23530152 11 18122059802051193335
23552423 10 18408603647951794637
23557571 272 17468476371072068670
241688 4 17906168808261889400
257057 1 18050857915801404331
2748010 2 18124306117059584327
305870 269 18338520729162731305
3071541 12 18409163328997611081
3091708 16 9185935319528341985
352729 6 17762056545095678447
7364860 26 18408886247919870985
81228 2 17403730541699771355

> <PUBCHEM_SHAPE_MULTIPOLES>
278.23
4.09
3.87
0.59
2.52
2.4
0
-2.55
0.25
-1.56
-0.26
-0.08
-0.09
-0.02

> <PUBCHEM_SHAPE_SELFOVERLAP>
598.92

> <PUBCHEM_SHAPE_VOLUME>
153.7

> <PUBCHEM_COORDINATE_TYPE>
2
5
10

$$$$

