16559
  -OEChem-07051213013D

 35 37  0     0  0  0  0  0  0999 V2000
    0.1059   -1.8908    0.0575 O   0  0  0  0  0  0  0  0  0  0  0  0
    0.1456    2.8096   -0.0379 O   0  0  0  0  0  0  0  0  0  0  0  0
    0.2054    0.4614    0.0070 N   0  0  0  0  0  0  0  0  0  0  0  0
   -1.8389    1.6630    0.0095 N   0  0  0  0  0  0  0  0  0  0  0  0
    1.6482    0.4838   -0.0104 C   0  0  0  0  0  0  0  0  0  0  0  0
    2.2154   -0.1568    1.2591 C   0  0  0  0  0  0  0  0  0  0  0  0
    2.1802   -0.2070   -1.2683 C   0  0  0  0  0  0  0  0  0  0  0  0
    3.7413   -0.1928    1.2369 C   0  0  0  0  0  0  0  0  0  0  0  0
    3.7061   -0.2445   -1.2870 C   0  0  0  0  0  0  0  0  0  0  0  0
    4.2695   -0.8799   -0.0190 C   0  0  0  0  0  0  0  0  0  0  0  0
   -1.9086   -0.7001    0.0567 C   0  0  0  0  0  0  0  0  0  0  0  0
   -2.5113    0.4844    0.0404 C   0  0  0  0  0  0  0  0  0  0  0  0
   -0.4421   -0.7919    0.0404 C   0  0  0  0  0  0  0  0  0  0  0  0
   -2.8763   -1.8255    0.0939 C   0  0  0  0  0  0  0  0  0  0  0  0
   -3.9920    0.3758    0.0626 C   0  0  0  0  0  0  0  0  0  0  0  0
   -4.2003   -1.1176   -0.2321 C   0  0  0  0  0  0  0  0  0  0  0  0
   -0.4480    1.7288   -0.0095 C   0  0  0  0  0  0  0  0  0  0  0  0
    2.0106    1.5186   -0.0359 H   0  0  0  0  0  0  0  0  0  0  0  0
    1.8627   -1.1817    1.4079 H   0  0  0  0  0  0  0  0  0  0  0  0
    1.8806    0.4084    2.1383 H   0  0  0  0  0  0  0  0  0  0  0  0
    1.8217    0.3231   -2.1599 H   0  0  0  0  0  0  0  0  0  0  0  0
    1.8238   -1.2366   -1.3670 H   0  0  0  0  0  0  0  0  0  0  0  0
    4.1118   -0.7141    2.1268 H   0  0  0  0  0  0  0  0  0  0  0  0
    4.1309    0.8317    1.2831 H   0  0  0  0  0  0  0  0  0  0  0  0
    4.0945    0.7767   -1.3862 H   0  0  0  0  0  0  0  0  0  0  0  0
    4.0516   -0.8024   -2.1647 H   0  0  0  0  0  0  0  0  0  0  0  0
    5.3640   -0.8280   -0.0353 H   0  0  0  0  0  0  0  0  0  0  0  0
    3.9998   -1.9430    0.0065 H   0  0  0  0  0  0  0  0  0  0  0  0
   -2.6521   -2.5994   -0.6459 H   0  0  0  0  0  0  0  0  0  0  0  0
   -2.9043   -2.2779    1.0906 H   0  0  0  0  0  0  0  0  0  0  0  0
   -4.3863    0.6441    1.0483 H   0  0  0  0  0  0  0  0  0  0  0  0
   -4.4740    0.9965   -0.6987 H   0  0  0  0  0  0  0  0  0  0  0  0
   -4.4357   -1.2520   -1.2962 H   0  0  0  0  0  0  0  0  0  0  0  0
   -5.0380   -1.5341    0.3369 H   0  0  0  0  0  0  0  0  0  0  0  0
   -2.3745    2.5257    0.0000 H   0  0  0  0  0  0  0  0  0  0  0  0
  1 13  2  0  0  0  0
  2 17  2  0  0  0  0
  3  5  1  0  0  0  0
  3 13  1  0  0  0  0
  3 17  1  0  0  0  0
  4 12  1  0  0  0  0
  4 17  1  0  0  0  0
  4 35  1  0  0  0  0
  5  6  1  0  0  0  0
  5  7  1  0  0  0  0
  5 18  1  0  0  0  0
  6  8  1  0  0  0  0
  6 19  1  0  0  0  0
  6 20  1  0  0  0  0
  7  9  1  0  0  0  0
  7 21  1  0  0  0  0
  7 22  1  0  0  0  0
  8 10  1  0  0  0  0
  8 23  1  0  0  0  0
  8 24  1  0  0  0  0
  9 10  1  0  0  0  0
  9 25  1  0  0  0  0
  9 26  1  0  0  0  0
 10 27  1  0  0  0  0
 10 28  1  0  0  0  0
 11 12  2  0  0  0  0
 11 13  1  0  0  0  0
 11 14  1  0  0  0  0
 12 15  1  0  0  0  0
 14 16  1  0  0  0  0
 14 29  1  0  0  0  0
 14 30  1  0  0  0  0
 15 16  1  0  0  0  0
 15 31  1  0  0  0  0
 15 32  1  0  0  0  0
 16 33  1  0  0  0  0
 16 34  1  0  0  0  0
M  END
> <PUBCHEM_COMPOUND_CID>
16559

> <PUBCHEM_CONFORMER_RMSD>
0.6

> <PUBCHEM_CONFORMER_DIVERSEORDER>
1
2
3

> <PUBCHEM_MMFF94_PARTIAL_CHARGES>
12
1 -0.57
11 -0.12
12 -0.03
13 0.62
14 0.14
15 0.14
17 0.69
2 -0.57
3 -0.42
35 0.37
4 -0.54
5 0.3

> <PUBCHEM_EFFECTIVE_ROTOR_COUNT>
2.8

> <PUBCHEM_PHARMACOPHORE_FEATURES>
6
1 1 acceptor
1 2 acceptor
1 4 donor
5 11 12 14 15 16 rings
6 3 4 11 12 13 17 rings
6 5 6 7 8 9 10 rings

> <PUBCHEM_HEAVY_ATOM_COUNT>
17

> <PUBCHEM_ATOM_DEF_STEREO_COUNT>
0

> <PUBCHEM_ATOM_UDEF_STEREO_COUNT>
0

> <PUBCHEM_BOND_DEF_STEREO_COUNT>
0

> <PUBCHEM_BOND_UDEF_STEREO_COUNT>
0

> <PUBCHEM_ISOTOPIC_ATOM_COUNT>
0

> <PUBCHEM_COMPONENT_COUNT>
1

> <PUBCHEM_CACTVS_TAUTO_COUNT>
3

> <PUBCHEM_CONFORMER_ID>
000040AF00000001

> <PUBCHEM_MMFF94_ENERGY>
28.5932

> <PUBCHEM_FEATURE_SELFOVERLAP>
30.527

> <PUBCHEM_SHAPE_FINGERPRINT>
10062212 137 18272373070554302387
10130415 120 18272652320363082585
10465860 71 18339065026025492820
11132069 177 18408887347436728065
11543360 7 15697998479566702459
11680986 33 18052818048802220641
12032990 46 18408601444296130555
12236239 1 17703790340691412354
12553582 1 18413386532038178395
13140716 1 18338231545283973785
13288520 33 18410009979158515902
13296908 3 18334859385411731434
13538477 17 17917146113653456298
13581323 91 18411142458960400762
13760787 19 17203609276890726939
13760787 5 17917989469162812959
13862211 1 18410860941145261123
14115302 16 17703788080979672859
14289901 80 16153431635998419291
14911166 2 18412267233775625285
14993402 34 17775280564980375454
15196674 1 18410575046393573065
15219456 202 17603590737813421168
15375462 189 18060702796813568665
15536298 74 18263364698372647513
15848700 24 18334018267643308383
16752209 62 18272097127189247555
16945 1 18411418423520444409
17804303 29 18335421253328877889
18175812 5 17748828509664661828
18186145 218 12319463207241911886
19049666 15 17605831658490750348
19141452 34 17749107760434298143
19862831 5 17703787020344205918
200 152 16630529557138882840
20028762 73 18044090147435870103
20279233 1 17821446863207099726
20510252 161 18261395589174928824
20645476 183 17560791083386788655
20905425 154 18118962739826073158
21029758 27 18201430364148071693
21267235 1 18411693271368249443
2297311 6 18334568075740569876
232386 152 18341896264124471735
2334 1 17978791212591372801
23366157 5 17914054192187697629
23402539 116 18334866025468250542
23463225 33 18343024410262416811
23532345 42 18334581209212555760
23557571 272 18260545667024137672
23559900 14 18334852866400404278
2748010 2 18124036724406203957
43471831 8 18270687596222225090
474 4 17058636367024869228
5902787 121 18340771429374786769
69090 78 17385449803752540295
7364860 26 18045780083252225480
77492 1 17704068529902090504
81228 2 18264473152106561584

> <PUBCHEM_SHAPE_MULTIPOLES>
328.15
7.69
1.89
1
0.64
0.85
-0.02
-2.6
-0.14
-1.04
-0.01
1.17
-0.09
0

> <PUBCHEM_SHAPE_SELFOVERLAP>
702.217

> <PUBCHEM_SHAPE_VOLUME>
180.3

> <PUBCHEM_COORDINATE_TYPE>
2
5
10

$$$$

