7326
  -OEChem-06261202013D

 51 52  0     1  0  0  0  0  0999 V2000
    0.2037   -0.6666    0.8193 O   0  0  0  0  0  0  0  0  0  0  0  0
   -1.2851   -2.3123    0.1774 O   0  0  0  0  0  0  0  0  0  0  0  0
    3.2264   -1.4039   -2.2627 O   0  0  0  0  0  0  0  0  0  0  0  0
   -2.3535    0.8351   -0.4342 C   0  0  0  0  0  0  0  0  0  0  0  0
   -3.3427   -0.2320   -0.0676 C   0  0  1  0  0  0  0  0  0  0  0  0
   -2.0697   -0.0951    0.6926 C   0  0  1  0  0  0  0  0  0  0  0  0
   -1.6270    0.6797   -1.7280 C   0  0  0  0  0  0  0  0  0  0  0  0
   -2.6319    2.2568   -0.0749 C   0  0  0  0  0  0  0  0  0  0  0  0
   -4.5826    0.1148    0.6106 C   0  0  0  0  0  0  0  0  0  0  0  0
   -1.0350   -1.1663    0.5257 C   0  0  0  0  0  0  0  0  0  0  0  0
   -5.7474    0.4976    0.0533 C   0  0  0  0  0  0  0  0  0  0  0  0
    1.2844   -1.5826    0.7017 C   0  0  1  0  0  0  0  0  0  0  0  0
   -6.9455    0.8234    0.9011 C   0  0  0  0  0  0  0  0  0  0  0  0
   -5.9604    0.6331   -1.4278 C   0  0  0  0  0  0  0  0  0  0  0  0
    1.4390   -1.9992   -0.7560 C   0  0  0  0  0  0  0  0  0  0  0  0
    2.5811   -0.9041    1.0520 C   0  0  0  0  0  0  0  0  0  0  0  0
    3.4304   -0.7699    0.0242 C   0  0  0  0  0  0  0  0  0  0  0  0
    2.7531   -1.3829   -1.1358 C   0  0  0  0  0  0  0  0  0  0  0  0
    2.8018   -0.4580    2.4600 C   0  0  0  0  0  0  0  0  0  0  0  0
    4.7778   -0.1632   -0.0820 C   0  0  0  0  0  0  0  0  0  0  0  0
    4.7236    1.2994   -0.4257 C   0  0  0  0  0  0  0  0  0  0  0  0
    5.2073    2.2724    0.3606 C   0  0  0  0  0  0  0  0  0  0  0  0
    5.1522    3.7239    0.0161 C   0  0  0  0  0  0  0  0  0  0  0  0
   -3.4395   -1.0815   -0.7371 H   0  0  0  0  0  0  0  0  0  0  0  0
   -2.1140    0.3063    1.7011 H   0  0  0  0  0  0  0  0  0  0  0  0
   -2.1486    1.2189   -2.5266 H   0  0  0  0  0  0  0  0  0  0  0  0
   -0.6133    1.0878   -1.6521 H   0  0  0  0  0  0  0  0  0  0  0  0
   -1.5444   -0.3640   -2.0497 H   0  0  0  0  0  0  0  0  0  0  0  0
   -3.3314    2.7047   -0.7892 H   0  0  0  0  0  0  0  0  0  0  0  0
   -3.0552    2.3765    0.9284 H   0  0  0  0  0  0  0  0  0  0  0  0
   -1.7067    2.8434   -0.1006 H   0  0  0  0  0  0  0  0  0  0  0  0
   -4.5562    0.0400    1.6970 H   0  0  0  0  0  0  0  0  0  0  0  0
    1.1124   -2.4492    1.3519 H   0  0  0  0  0  0  0  0  0  0  0  0
   -7.2606    1.8579    0.7296 H   0  0  0  0  0  0  0  0  0  0  0  0
   -7.7792    0.1595    0.6502 H   0  0  0  0  0  0  0  0  0  0  0  0
   -6.7419    0.7116    1.9713 H   0  0  0  0  0  0  0  0  0  0  0  0
   -6.7638   -0.0344   -1.7563 H   0  0  0  0  0  0  0  0  0  0  0  0
   -6.2418    1.6619   -1.6754 H   0  0  0  0  0  0  0  0  0  0  0  0
   -5.0684    0.3869   -2.0111 H   0  0  0  0  0  0  0  0  0  0  0  0
    0.6645   -1.6189   -1.4268 H   0  0  0  0  0  0  0  0  0  0  0  0
    1.5294   -3.0861   -0.8495 H   0  0  0  0  0  0  0  0  0  0  0  0
    2.0369    0.2676    2.7543 H   0  0  0  0  0  0  0  0  0  0  0  0
    3.7777    0.0162    2.5980 H   0  0  0  0  0  0  0  0  0  0  0  0
    2.7476   -1.3137    3.1406 H   0  0  0  0  0  0  0  0  0  0  0  0
    5.3647   -0.6812   -0.8502 H   0  0  0  0  0  0  0  0  0  0  0  0
    5.3283   -0.3190    0.8540 H   0  0  0  0  0  0  0  0  0  0  0  0
    4.2715    1.5629   -1.3794 H   0  0  0  0  0  0  0  0  0  0  0  0
    5.6656    2.0154    1.3119 H   0  0  0  0  0  0  0  0  0  0  0  0
    6.1650    4.1363   -0.0224 H   0  0  0  0  0  0  0  0  0  0  0  0
    4.6736    3.9033   -0.9518 H   0  0  0  0  0  0  0  0  0  0  0  0
    4.5884    4.2668    0.7809 H   0  0  0  0  0  0  0  0  0  0  0  0
  1 10  1  0  0  0  0
  1 12  1  0  0  0  0
  2 10  2  0  0  0  0
  3 18  2  0  0  0  0
  4  5  1  0  0  0  0
  4  6  1  0  0  0  0
  4  7  1  0  0  0  0
  4  8  1  0  0  0  0
  5  6  1  0  0  0  0
  5  9  1  0  0  0  0
  5 24  1  0  0  0  0
  6 10  1  0  0  0  0
  6 25  1  0  0  0  0
  7 26  1  0  0  0  0
  7 27  1  0  0  0  0
  7 28  1  0  0  0  0
  8 29  1  0  0  0  0
  8 30  1  0  0  0  0
  8 31  1  0  0  0  0
  9 11  2  0  0  0  0
  9 32  1  0  0  0  0
 11 13  1  0  0  0  0
 11 14  1  0  0  0  0
 12 15  1  0  0  0  0
 12 16  1  0  0  0  0
 12 33  1  0  0  0  0
 13 34  1  0  0  0  0
 13 35  1  0  0  0  0
 13 36  1  0  0  0  0
 14 37  1  0  0  0  0
 14 38  1  0  0  0  0
 14 39  1  0  0  0  0
 15 18  1  0  0  0  0
 15 40  1  0  0  0  0
 15 41  1  0  0  0  0
 16 17  2  0  0  0  0
 16 19  1  0  0  0  0
 17 18  1  0  0  0  0
 17 20  1  0  0  0  0
 19 42  1  0  0  0  0
 19 43  1  0  0  0  0
 19 44  1  0  0  0  0
 20 21  1  0  0  0  0
 20 45  1  0  0  0  0
 20 46  1  0  0  0  0
 21 22  2  0  0  0  0
 21 47  1  0  0  0  0
 22 23  1  0  0  0  0
 22 48  1  0  0  0  0
 23 49  1  0  0  0  0
 23 50  1  0  0  0  0
 23 51  1  0  0  0  0
M  END
> <PUBCHEM_COMPOUND_CID>
7326

> <PUBCHEM_CONFORMER_RMSD>
0.8

> <PUBCHEM_CONFORMER_DIVERSEORDER>
1
199
133
172
106
207
170
151
204
162
183
88
48
29
169
77
186
95
46
71
58
180
83
157
35
175
120
203
184
121
85
43
117
93
45
76
189
127
146
50
110
201
197
81
128
141
130
187
14
119
92
171
182
59
139
167
104
150
115
5
111
152
177
96
107
82
129
188
135
98
102
53
205
94
178
56
164
2
100
105
154
47
40
168
198
158
78
131
155
200
57
195
99
34
174
126
90
143
20
51
67
54
63
15
28
163
31
39
123
113
125
42
134
49
87
116
37
89
79
73
72
69
181
144
16
208
41
10
156
193
196
36
192
91
114
86
101
145
7
185
206
62
70
75
112
19
190
66
84
137
65
118
61
68
166
191
97
4
24
27
25
122
11
64
176
159
23
132
52
13
136
202
22
165
26
147
44
140
179
12
33
8
194
38
17
161
9
6
149
18
173
153
21
3
109
55
160
103
148
32
74
138
108
80
142
30
60
124

> <PUBCHEM_MMFF94_PARTIAL_CHARGES>
28
1 -0.43
10 0.72
11 -0.28
12 0.42
13 0.14
14 0.14
15 0.06
16 -0.28
17 -0.12
18 0.49
19 0.14
2 -0.57
20 0.28
21 -0.29
22 -0.29
23 0.14
24 0.1
25 0.1
3 -0.57
32 0.15
4 -0.19
47 0.15
48 0.15
5 -0.06
6 -0.1
7 0.09
8 0.09
9 -0.19

> <PUBCHEM_EFFECTIVE_ROTOR_COUNT>
7

> <PUBCHEM_PHARMACOPHORE_FEATURES>
6
1 2 acceptor
1 23 hydrophobe
1 3 acceptor
3 11 13 14 hydrophobe
3 4 7 8 hydrophobe
5 12 15 16 17 18 rings

> <PUBCHEM_HEAVY_ATOM_COUNT>
23

> <PUBCHEM_ATOM_DEF_STEREO_COUNT>
2

> <PUBCHEM_ATOM_UDEF_STEREO_COUNT>
0

> <PUBCHEM_BOND_DEF_STEREO_COUNT>
0

> <PUBCHEM_BOND_UDEF_STEREO_COUNT>
1

> <PUBCHEM_ISOTOPIC_ATOM_COUNT>
0

> <PUBCHEM_COMPONENT_COUNT>
1

> <PUBCHEM_CACTVS_TAUTO_COUNT>
5

> <PUBCHEM_CONFORMER_ID>
00001C9E00000001

> <PUBCHEM_MMFF94_ENERGY>
29.3138

> <PUBCHEM_FEATURE_SELFOVERLAP>
30.446

> <PUBCHEM_SHAPE_FINGERPRINT>
12236239 1 13984670264911311667
12730499 353 17822008717981277371
13402501 40 18341896268810491708
13533116 47 16701746071773275131
13685833 64 8646774391538950324
13955234 65 18201440349831556290
14739800 52 18131081415580300536
15183329 4 14562525206659134835
15961568 22 18341612594694578652
1813 80 4895559571686544026
19784866 240 7709467138270883138
20511986 3 16988578917829135779
21150785 3 18261683610557102175
21315764 268 18272939349139046284
21475661 188 18057887944711538716
21792934 111 16845300488246007285
2215653 11 7204772575322907241
23227448 37 18339360751687860710
23522609 53 17096345346575464065
23559900 14 18337386149227716910
2838139 119 18338524028525991180
3004659 81 16806161198127329934
3472631 163 18340770347375356966
34797466 226 18260824925939921373
394071 54 18411128135107994137
46194498 28 17968648432452036124
5281201 14 18041836354349949638
7808743 9 18337957770956732426

> <PUBCHEM_SHAPE_MULTIPOLES>
455.72
14.81
2.65
1.56
12.13
1.97
0.08
9.9
-0.26
-4.46
0.15
-0.59
-0.44
0.6

> <PUBCHEM_SHAPE_SELFOVERLAP>
935.113

> <PUBCHEM_SHAPE_VOLUME>
267.7

> <PUBCHEM_COORDINATE_TYPE>
2
5
10

$$$$

