5675
  -OEChem-06261200483D

 57 58  0     0  0  0  0  0  0999 V2000
    3.3584    0.0151    0.4504 O   0  0  0  0  0  0  0  0  0  0  0  0
   -0.7904   -2.2167    1.2458 O   0  0  0  0  0  0  0  0  0  0  0  0
   -0.5955    2.5622    1.2898 O   0  0  0  0  0  0  0  0  0  0  0  0
   -2.5356    0.2348    2.7331 O   0  0  0  0  0  0  0  0  0  0  0  0
   -6.0063    0.4265   -2.4924 O   0  0  0  0  0  0  0  0  0  0  0  0
    1.3812    1.2897    0.8700 C   0  0  0  0  0  0  0  0  0  0  0  0
    1.2897   -1.1134    0.8471 C   0  0  0  0  0  0  0  0  0  0  0  0
    2.0221    0.0670    0.7201 C   0  0  0  0  0  0  0  0  0  0  0  0
   -0.7106    0.1735    1.2717 C   0  0  0  0  0  0  0  0  0  0  0  0
   -0.0766   -1.0601    1.1228 C   0  0  0  0  0  0  0  0  0  0  0  0
    0.0217    1.3538    1.1447 C   0  0  0  0  0  0  0  0  0  0  0  0
    2.1736    2.5658    0.7329 C   0  0  0  0  0  0  0  0  0  0  0  0
    1.9697   -2.4357    0.6872 C   0  0  0  0  0  0  0  0  0  0  0  0
   -2.1396    0.2291    1.5606 C   0  0  0  0  0  0  0  0  0  0  0  0
    2.1999    3.0734   -0.6813 C   0  0  0  0  0  0  0  0  0  0  0  0
    1.9615   -2.9288   -0.7374 C   0  0  0  0  0  0  0  0  0  0  0  0
   -3.1685    0.2811    0.4819 C   0  0  0  0  0  0  0  0  0  0  0  0
    3.2728    3.2597   -1.4738 C   0  0  0  0  0  0  0  0  0  0  0  0
    1.9228   -4.2021   -1.1747 C   0  0  0  0  0  0  0  0  0  0  0  0
    4.2420   -0.0307    1.5678 C   0  0  0  0  0  0  0  0  0  0  0  0
   -2.7509    0.2762   -0.8297 C   0  0  0  0  0  0  0  0  0  0  0  0
   -4.4971    0.3322    0.8390 C   0  0  0  0  0  0  0  0  0  0  0  0
    3.2304    3.7726   -2.8852 C   0  0  0  0  0  0  0  0  0  0  0  0
    4.6574    2.9589   -0.9643 C   0  0  0  0  0  0  0  0  0  0  0  0
    1.8915   -5.3438   -0.1936 C   0  0  0  0  0  0  0  0  0  0  0  0
    1.9170   -4.6245   -2.6166 C   0  0  0  0  0  0  0  0  0  0  0  0
   -3.7132    0.3253   -1.8382 C   0  0  0  0  0  0  0  0  0  0  0  0
   -5.4596    0.3811   -0.1695 C   0  0  0  0  0  0  0  0  0  0  0  0
   -5.0676    0.3776   -1.5083 C   0  0  0  0  0  0  0  0  0  0  0  0
    1.7281    3.3494    1.3602 H   0  0  0  0  0  0  0  0  0  0  0  0
    3.1648    2.4360    1.1691 H   0  0  0  0  0  0  0  0  0  0  0  0
    1.5333   -3.1580    1.3849 H   0  0  0  0  0  0  0  0  0  0  0  0
    3.0149   -2.3684    1.0074 H   0  0  0  0  0  0  0  0  0  0  0  0
    1.2247    3.3236   -1.0985 H   0  0  0  0  0  0  0  0  0  0  0  0
    2.0123   -2.1525   -1.5012 H   0  0  0  0  0  0  0  0  0  0  0  0
   -0.3692   -2.9326    0.7446 H   0  0  0  0  0  0  0  0  0  0  0  0
   -1.5322    2.4493    1.5157 H   0  0  0  0  0  0  0  0  0  0  0  0
    4.8682   -0.9234    1.4839 H   0  0  0  0  0  0  0  0  0  0  0  0
    3.7111   -0.0555    2.5260 H   0  0  0  0  0  0  0  0  0  0  0  0
    4.8935    0.8471    1.5417 H   0  0  0  0  0  0  0  0  0  0  0  0
   -1.7083    0.2364   -1.1258 H   0  0  0  0  0  0  0  0  0  0  0  0
   -4.8260    0.3362    1.8735 H   0  0  0  0  0  0  0  0  0  0  0  0
    3.6797    3.0449   -3.5686 H   0  0  0  0  0  0  0  0  0  0  0  0
    3.7779    4.7170   -2.9672 H   0  0  0  0  0  0  0  0  0  0  0  0
    2.2024    3.9521   -3.2170 H   0  0  0  0  0  0  0  0  0  0  0  0
    5.3855    3.6343   -1.4286 H   0  0  0  0  0  0  0  0  0  0  0  0
    4.9416    1.9344   -1.2241 H   0  0  0  0  0  0  0  0  0  0  0  0
    4.7740    3.1028    0.1117 H   0  0  0  0  0  0  0  0  0  0  0  0
    2.1925   -5.0717    0.8205 H   0  0  0  0  0  0  0  0  0  0  0  0
    0.8862   -5.7755   -0.1529 H   0  0  0  0  0  0  0  0  0  0  0  0
    2.5856   -6.1299   -0.5127 H   0  0  0  0  0  0  0  0  0  0  0  0
    1.0213   -5.2139   -2.8371 H   0  0  0  0  0  0  0  0  0  0  0  0
    2.8005   -5.2301   -2.8423 H   0  0  0  0  0  0  0  0  0  0  0  0
    1.9227   -3.7605   -3.2893 H   0  0  0  0  0  0  0  0  0  0  0  0
   -3.4022    0.3226   -2.8794 H   0  0  0  0  0  0  0  0  0  0  0  0
   -6.5115    0.4220    0.1006 H   0  0  0  0  0  0  0  0  0  0  0  0
   -6.8889    0.4589   -2.0848 H   0  0  0  0  0  0  0  0  0  0  0  0
  1  8  1  0  0  0  0
  1 20  1  0  0  0  0
  2 10  1  0  0  0  0
  2 36  1  0  0  0  0
  3 11  1  0  0  0  0
  3 37  1  0  0  0  0
  4 14  2  0  0  0  0
  5 29  1  0  0  0  0
  5 57  1  0  0  0  0
  6  8  2  0  0  0  0
  6 11  1  0  0  0  0
  6 12  1  0  0  0  0
  7  8  1  0  0  0  0
  7 10  2  0  0  0  0
  7 13  1  0  0  0  0
  9 10  1  0  0  0  0
  9 11  2  0  0  0  0
  9 14  1  0  0  0  0
 12 15  1  0  0  0  0
 12 30  1  0  0  0  0
 12 31  1  0  0  0  0
 13 16  1  0  0  0  0
 13 32  1  0  0  0  0
 13 33  1  0  0  0  0
 14 17  1  0  0  0  0
 15 18  2  0  0  0  0
 15 34  1  0  0  0  0
 16 19  2  0  0  0  0
 16 35  1  0  0  0  0
 17 21  2  0  0  0  0
 17 22  1  0  0  0  0
 18 23  1  0  0  0  0
 18 24  1  0  0  0  0
 19 25  1  0  0  0  0
 19 26  1  0  0  0  0
 20 38  1  0  0  0  0
 20 39  1  0  0  0  0
 20 40  1  0  0  0  0
 21 27  1  0  0  0  0
 21 41  1  0  0  0  0
 22 28  2  0  0  0  0
 22 42  1  0  0  0  0
 23 43  1  0  0  0  0
 23 44  1  0  0  0  0
 23 45  1  0  0  0  0
 24 46  1  0  0  0  0
 24 47  1  0  0  0  0
 24 48  1  0  0  0  0
 25 49  1  0  0  0  0
 25 50  1  0  0  0  0
 25 51  1  0  0  0  0
 26 52  1  0  0  0  0
 26 53  1  0  0  0  0
 26 54  1  0  0  0  0
 27 29  2  0  0  0  0
 27 55  1  0  0  0  0
 28 29  1  0  0  0  0
 28 56  1  0  0  0  0
M  END
> <PUBCHEM_COMPOUND_CID>
5675

> <PUBCHEM_CONFORMER_RMSD>
0.8

> <PUBCHEM_CONFORMER_DIVERSEORDER>
1
147
105
73
162
124
175
159
137
40
16
180
181
101
139
68
21
49
121
61
134
82
188
18
148
106
120
128
151
85
179
142
186
169
184
116
160
154
88
176
90
60
50
76
43
13
41
192
143
95
91
89
77
127
130
136
59
146
58
26
110
172
161
5
64
80
92
185
114
182
44
168
171
122
129
178
113
65
3
177
30
112
93
62
131
152
173
94
75
150
25
56
42
190
57
34
14
125
193
51
98
17
187
74
174
109
111
86
31
119
158
96
84
104
23
67
133
38
35
100
36
6
166
155
79
47
54
189
135
163
164
126
7
66
72
123
53
83
39
19
27
140
70
132
8
52
87
81
32
167
153
55
138
115
157
103
12
71
102
97
183
144
108
78
28
4
46
191
10
33
156
45
117
107
37
118
48
63
69
24
15
170
2
22
9
20
149
141
29
11
99
165
145

> <PUBCHEM_MMFF94_PARTIAL_CHARGES>
38
1 -0.36
10 0.08
11 0.08
12 0.28
13 0.28
14 0.4
15 -0.29
16 -0.29
17 0.09
18 -0.28
19 -0.28
2 -0.53
20 0.28
21 -0.15
22 -0.15
23 0.14
24 0.14
25 0.14
26 0.14
27 -0.15
28 -0.15
29 0.08
3 -0.53
34 0.15
35 0.15
36 0.45
37 0.45
4 -0.57
41 0.15
42 0.15
5 -0.53
55 0.15
56 0.15
57 0.45
6 -0.14
7 -0.14
8 0.08
9 0.09

> <PUBCHEM_EFFECTIVE_ROTOR_COUNT>
7

> <PUBCHEM_PHARMACOPHORE_FEATURES>
9
1 1 acceptor
1 2 donor
1 3 donor
1 4 acceptor
1 5 donor
3 18 23 24 hydrophobe
3 19 25 26 hydrophobe
6 17 21 22 27 28 29 rings
6 6 7 8 9 10 11 rings

> <PUBCHEM_HEAVY_ATOM_COUNT>
29

> <PUBCHEM_ATOM_DEF_STEREO_COUNT>
0

> <PUBCHEM_ATOM_UDEF_STEREO_COUNT>
0

> <PUBCHEM_BOND_DEF_STEREO_COUNT>
0

> <PUBCHEM_BOND_UDEF_STEREO_COUNT>
0

> <PUBCHEM_ISOTOPIC_ATOM_COUNT>
0

> <PUBCHEM_COMPONENT_COUNT>
1

> <PUBCHEM_CACTVS_TAUTO_COUNT>
26

> <PUBCHEM_CONFORMER_ID>
0000162B00000001

> <PUBCHEM_MMFF94_ENERGY>
94.5875

> <PUBCHEM_FEATURE_SELFOVERLAP>
45.669

> <PUBCHEM_SHAPE_FINGERPRINT>
10794284 68 5536392477446696602
11069576 57 18114758134357277743
11477941 20 17400043845654714350
11796584 16 14996273747813642493
12160290 23 17545313078214399738
13383661 66 16957870412310872263
13583140 156 17203889639281056568
13899415 180 17906176500622883738
13911987 19 18337948978795187128
140371 6 18340200890535907400
14114206 34 17265510909313679146
14739800 52 14691696884588547238
14863182 85 18187656803535377602
1813 80 17899975225246306063
20505436 4 16954177393228350825
20775438 99 17115272545367123956
21033648 29 14332312743437740125
21344244 181 17681525079615222574
22907989 373 17549818889365006541
23559900 14 18410860957876374434
24893989 43 16109597577791310668
25222932 49 16084226111183697743
26353 1 17979347887291477134
2838139 119 17273987826073085197
3057174 1 18266166258558744134
34797466 226 18130799967032380269
352729 6 18337664214158040290
4017518 198 18187645770587762398
4394409 98 18196341807782577902
44802255 64 17270287935998036484
46194498 28 18272102625285476717
5080951 261 17029646544731010204
5081480 168 17986661778737267669
5223283 242 17838350927704845085

> <PUBCHEM_SHAPE_MULTIPOLES>
567.46
9.59
5.92
2.5
13.13
7.31
-1.17
-5.6
-4.94
-10.75
-4.62
0.42
-0.41
-0.73

> <PUBCHEM_SHAPE_SELFOVERLAP>
1201.073

> <PUBCHEM_SHAPE_VOLUME>
320.5

> <PUBCHEM_COORDINATE_TYPE>
2
5
10

$$$$

