7181
  -OEChem-06261201523D

 30 31  0     0  0  0  0  0  0999 V2000
    1.2743   -2.1524   -0.0534 S   0  0  0  0  0  0  0  0  0  0  0  0
   -2.3679   -0.5277    1.4168 S   0  0  0  0  0  0  0  0  0  0  0  0
    2.2683   -2.8418    0.7609 O   0  0  0  0  0  0  0  0  0  0  0  0
    1.0747   -2.5827   -1.4318 O   0  0  0  0  0  0  0  0  0  0  0  0
   -0.2289   -2.1956    0.7875 N   0  0  0  0  0  0  0  0  0  0  0  0
   -1.5046   -1.0523   -0.9381 N   0  0  0  0  0  0  0  0  0  0  0  0
   -2.5700   -0.1868   -1.1146 N   0  0  0  0  0  0  0  0  0  0  0  0
    2.6222    3.6389   -0.0433 N   0  0  0  0  0  0  0  0  0  0  0  0
    1.6707   -0.4521   -0.0505 C   0  0  0  0  0  0  0  0  0  0  0  0
    2.4180    0.0880    0.9962 C   0  0  0  0  0  0  0  0  0  0  0  0
    1.2390    0.3666   -1.0941 C   0  0  0  0  0  0  0  0  0  0  0  0
   -1.2802   -1.3223    0.3398 C   0  0  0  0  0  0  0  0  0  0  0  0
    2.3021    2.2654   -0.0447 C   0  0  0  0  0  0  0  0  0  0  0  0
    2.7335    1.4468    0.9992 C   0  0  0  0  0  0  0  0  0  0  0  0
    1.5547    1.7252   -1.0913 C   0  0  0  0  0  0  0  0  0  0  0  0
   -4.2593    1.0761    0.1924 C   0  0  0  0  0  0  0  0  0  0  0  0
   -3.1096    0.1637    0.0333 C   0  0  0  0  0  0  0  0  0  0  0  0
   -3.8369    2.5431    0.3358 C   0  0  0  0  0  0  0  0  0  0  0  0
   -0.2021   -2.3637    1.8006 H   0  0  0  0  0  0  0  0  0  0  0  0
    2.7582   -0.5285    1.8233 H   0  0  0  0  0  0  0  0  0  0  0  0
    0.6739   -0.0308   -1.9317 H   0  0  0  0  0  0  0  0  0  0  0  0
   -4.9098    0.9855   -0.6861 H   0  0  0  0  0  0  0  0  0  0  0  0
   -4.8720    0.7920    1.0564 H   0  0  0  0  0  0  0  0  0  0  0  0
    3.3149    1.8563    1.8212 H   0  0  0  0  0  0  0  0  0  0  0  0
    1.2163    2.3518   -1.9125 H   0  0  0  0  0  0  0  0  0  0  0  0
   -3.2193    2.6910    1.2280 H   0  0  0  0  0  0  0  0  0  0  0  0
   -4.7203    3.1835    0.4211 H   0  0  0  0  0  0  0  0  0  0  0  0
   -3.2576    2.8710   -0.5340 H   0  0  0  0  0  0  0  0  0  0  0  0
    3.1622    4.0319    0.7161 H   0  0  0  0  0  0  0  0  0  0  0  0
    2.3076    4.2328   -0.7989 H   0  0  0  0  0  0  0  0  0  0  0  0
  1  3  2  0  0  0  0
  1  4  2  0  0  0  0
  1  5  1  0  0  0  0
  1  9  1  0  0  0  0
  2 12  1  0  0  0  0
  2 17  1  0  0  0  0
  5 12  1  0  0  0  0
  5 19  1  0  0  0  0
  6  7  1  0  0  0  0
  6 12  2  0  0  0  0
  7 17  2  0  0  0  0
  8 13  1  0  0  0  0
  8 29  1  0  0  0  0
  8 30  1  0  0  0  0
  9 10  2  0  0  0  0
  9 11  1  0  0  0  0
 10 14  1  0  0  0  0
 10 20  1  0  0  0  0
 11 15  2  0  0  0  0
 11 21  1  0  0  0  0
 13 14  2  0  0  0  0
 13 15  1  0  0  0  0
 14 24  1  0  0  0  0
 15 25  1  0  0  0  0
 16 17  1  0  0  0  0
 16 18  1  0  0  0  0
 16 22  1  0  0  0  0
 16 23  1  0  0  0  0
 18 26  1  0  0  0  0
 18 27  1  0  0  0  0
 18 28  1  0  0  0  0
M  END
> <PUBCHEM_COMPOUND_CID>
7181

> <PUBCHEM_CONFORMER_RMSD>
0.6

> <PUBCHEM_CONFORMER_DIVERSEORDER>
1
42
34
35
12
40
7
15
23
49
39
8
3
33
17
14
31
9
18
21
27
22
19
45
43
16
2
29
38
4
41
44
5
10
6
47
24
46
30
48
11
13
32
28
36
26
25
20
37

> <PUBCHEM_MMFF94_PARTIAL_CHARGES>
24
1 1.45
10 -0.15
11 -0.15
12 0.52
13 0.1
14 -0.15
15 -0.15
16 0.18
17 0.2
19 0.42
2 -0.08
20 0.15
21 0.15
24 0.15
25 0.15
29 0.4
3 -0.65
30 0.4
4 -0.65
5 -0.7
6 -0.34
7 -0.34
8 -0.9
9 -0.01

> <PUBCHEM_EFFECTIVE_ROTOR_COUNT>
4

> <PUBCHEM_PHARMACOPHORE_FEATURES>
10
1 18 hydrophobe
1 3 acceptor
1 4 acceptor
1 5 donor
1 6 acceptor
1 7 acceptor
1 8 cation
1 8 donor
5 2 6 7 12 17 rings
6 9 10 11 13 14 15 rings

> <PUBCHEM_HEAVY_ATOM_COUNT>
18

> <PUBCHEM_ATOM_DEF_STEREO_COUNT>
0

> <PUBCHEM_ATOM_UDEF_STEREO_COUNT>
0

> <PUBCHEM_BOND_DEF_STEREO_COUNT>
0

> <PUBCHEM_BOND_UDEF_STEREO_COUNT>
0

> <PUBCHEM_ISOTOPIC_ATOM_COUNT>
0

> <PUBCHEM_COMPONENT_COUNT>
1

> <PUBCHEM_CACTVS_TAUTO_COUNT>
2

> <PUBCHEM_CONFORMER_ID>
00001C0D00000001

> <PUBCHEM_MMFF94_ENERGY>
28.3955

> <PUBCHEM_FEATURE_SELFOVERLAP>
52.256

> <PUBCHEM_SHAPE_FINGERPRINT>
10382601 240 18201442510236398800
104564 63 17258206896456322998
11640471 11 18040722432953849567
11725454 13 16445900505364502176
12633257 1 17774458143004196992
13134695 92 18196376033559612398
13464514 151 18338221743846642846
14817 1 16968013926630452590
15295992 7 18056179496788493969
15420108 30 18117303478232920506
16945 1 18270974478852489170
17041 49 18124318456717280451
18522851 12 9798869140341914349
18981168 100 18267562685565281027
192875 21 17976568046844667237
20442098 301 11311759662704470113
20510252 161 17689431581709790210
20621476 13 18340497780304178709
20671657 1 18412541024402059799
21041028 32 17907862047589298406
21475661 188 17985836058579834261
21524375 3 18118397341741026490
21665062 11 18267300013770977257
21731228 192 18196934366369910272
21947302 44 18341609334787461883
22749437 52 18411983572497634609
23419403 2 13748865835716946487
23558518 356 18410019836314903079
305870 269 18338517443596886034
3286 77 17987512783610018003
474 4 18412271618631447985
49207404 50 18200856419331314425
5939293 188 18266741478943397366
7364860 26 18335418014696689806
7832392 63 18263648535924028479
81228 2 17259607674571049874
84936 182 18333736797030539729
9981440 41 18194693570109632657

> <PUBCHEM_SHAPE_MULTIPOLES>
346.47
6.22
3.62
1.25
6.32
0.91
0.05
4.23
-0.96
-2.55
0.01
-0.13
-0.26
-0.04

> <PUBCHEM_SHAPE_SELFOVERLAP>
700.681

> <PUBCHEM_SHAPE_VOLUME>
202.9

> <PUBCHEM_COORDINATE_TYPE>
2
5
10

$$$$

