440435
  -OEChem-07051212493D

 53 54  0     1  0  0  0  0  0999 V2000
    1.0495   -4.0458    0.4077 S   0  0  0  0  0  0  0  0  0  0  0  0
   -6.2165    1.6274   -0.3301 S   0  0  0  0  0  0  0  0  0  0  0  0
    1.0020   -0.5573   -0.8941 O   0  0  0  0  0  0  0  0  0  0  0  0
   -2.9375   -1.0858    0.1298 O   0  0  0  0  0  0  0  0  0  0  0  0
    1.9477    1.3257    0.1072 O   0  0  0  0  0  0  0  0  0  0  0  0
   -0.7233    1.7407   -0.6426 O   0  0  0  0  0  0  0  0  0  0  0  0
   -2.5213   -3.2493    0.8867 O   0  0  0  0  0  0  0  0  0  0  0  0
    3.5918   -1.5242   -1.4796 O   0  0  0  0  0  0  0  0  0  0  0  0
    5.5624    0.6508   -1.7234 O   0  0  0  0  0  0  0  0  0  0  0  0
    5.4136    2.3827    0.6061 O   0  0  0  0  0  0  0  0  0  0  0  0
   -4.8333    0.8981    0.1551 O   0  0  0  0  0  0  0  0  0  0  0  0
   -0.0929   -5.2041    0.5255 O   0  0  0  0  0  0  0  0  0  0  0  0
    3.5625    3.9535    1.7844 O   0  0  0  0  0  0  0  0  0  0  0  0
    2.1574   -4.4300    1.2629 O   0  0  0  0  0  0  0  0  0  0  0  0
    1.2733   -3.7970   -1.0046 O   0  0  0  0  0  0  0  0  0  0  0  0
    1.5331    3.7579    0.7650 O   0  0  0  0  0  0  0  0  0  0  0  0
   -7.2583    1.3167    0.8862 O   0  0  0  0  0  0  0  0  0  0  0  0
   -5.9781    3.0587   -0.3464 O   0  0  0  0  0  0  0  0  0  0  0  0
   -6.7067    0.9565   -1.5198 O   0  0  0  0  0  0  0  0  0  0  0  0
    0.3029   -2.6499    1.0592 N   0  0  0  0  0  0  0  0  0  0  0  0
   -0.1336   -0.4957   -0.0294 C   0  0  2  0  0  0  0  0  0  0  0  0
   -0.6573   -1.9161    0.1878 C   0  0  2  0  0  0  0  0  0  0  0  0
   -1.1979    0.3973   -0.6713 C   0  0  1  0  0  0  0  0  0  0  0  0
   -2.5261    0.2820    0.0822 C   0  0  1  0  0  0  0  0  0  0  0  0
   -2.0310   -1.9096    0.8617 C   0  0  1  0  0  0  0  0  0  0  0  0
    2.1670   -0.0349   -0.2566 C   0  0  2  0  0  0  0  0  0  0  0  0
    3.3313   -0.1410   -1.2418 C   0  0  1  0  0  0  0  0  0  0  0  0
    4.5906    0.5233   -0.6843 C   0  0  2  0  0  0  0  0  0  0  0  0
    4.2906    1.9217   -0.1433 C   0  0  1  0  0  0  0  0  0  0  0  0
    3.0704    1.8975    0.7687 C   0  0  1  0  0  0  0  0  0  0  0  0
   -3.6448    1.0665   -0.5960 C   0  0  0  0  0  0  0  0  0  0  0  0
    2.6125    3.2839    1.0870 C   0  0  0  0  0  0  0  0  0  0  0  0
    0.1374   -0.0723    0.9494 H   0  0  0  0  0  0  0  0  0  0  0  0
   -0.7432   -2.4141   -0.7855 H   0  0  0  0  0  0  0  0  0  0  0  0
   -1.3240    0.1150   -1.7235 H   0  0  0  0  0  0  0  0  0  0  0  0
   -2.4278    0.6533    1.1115 H   0  0  0  0  0  0  0  0  0  0  0  0
   -1.9679   -1.5540    1.8982 H   0  0  0  0  0  0  0  0  0  0  0  0
    2.3697   -0.6355    0.6406 H   0  0  0  0  0  0  0  0  0  0  0  0
    3.0587    0.3006   -2.2076 H   0  0  0  0  0  0  0  0  0  0  0  0
    5.0517   -0.1035    0.0881 H   0  0  0  0  0  0  0  0  0  0  0  0
    4.1455    2.6238   -0.9735 H   0  0  0  0  0  0  0  0  0  0  0  0
    3.2489    1.3712    1.7147 H   0  0  0  0  0  0  0  0  0  0  0  0
    0.1249   -2.6070    2.0702 H   0  0  0  0  0  0  0  0  0  0  0  0
   -3.8193    0.6861   -1.6089 H   0  0  0  0  0  0  0  0  0  0  0  0
   -3.3949    2.1311   -0.6519 H   0  0  0  0  0  0  0  0  0  0  0  0
   -0.6302    2.0073    0.2879 H   0  0  0  0  0  0  0  0  0  0  0  0
   -3.1587   -3.3059    1.6187 H   0  0  0  0  0  0  0  0  0  0  0  0
    3.8243   -1.9378   -0.6307 H   0  0  0  0  0  0  0  0  0  0  0  0
    5.1739    1.1859   -2.4365 H   0  0  0  0  0  0  0  0  0  0  0  0
    5.5497    1.7730    1.3514 H   0  0  0  0  0  0  0  0  0  0  0  0
    0.1630   -6.0867    0.1681 H   0  0  0  0  0  0  0  0  0  0  0  0
    3.2813    4.8678    2.0019 H   0  0  0  0  0  0  0  0  0  0  0  0
   -8.1653    1.6851    0.7689 H   0  0  0  0  0  0  0  0  0  0  0  0
  1 12  1  0  0  0  0
  1 14  2  0  0  0  0
  1 15  2  0  0  0  0
  1 20  1  0  0  0  0
  2 11  1  0  0  0  0
  2 17  1  0  0  0  0
  2 18  2  0  0  0  0
  2 19  2  0  0  0  0
  3 21  1  0  0  0  0
  3 26  1  0  0  0  0
  4 24  1  0  0  0  0
  4 25  1  0  0  0  0
  5 26  1  0  0  0  0
  5 30  1  0  0  0  0
  6 23  1  0  0  0  0
  6 46  1  0  0  0  0
  7 25  1  0  0  0  0
  7 47  1  0  0  0  0
  8 27  1  0  0  0  0
  8 48  1  0  0  0  0
  9 28  1  0  0  0  0
  9 49  1  0  0  0  0
 10 29  1  0  0  0  0
 10 50  1  0  0  0  0
 11 31  1  0  0  0  0
 12 51  1  0  0  0  0
 13 32  1  0  0  0  0
 13 52  1  0  0  0  0
 16 32  2  0  0  0  0
 17 53  1  0  0  0  0
 20 22  1  0  0  0  0
 20 43  1  0  0  0  0
 21 22  1  0  0  0  0
 21 23  1  0  0  0  0
 21 33  1  0  0  0  0
 22 25  1  0  0  0  0
 22 34  1  0  0  0  0
 23 24  1  0  0  0  0
 23 35  1  0  0  0  0
 24 31  1  0  0  0  0
 24 36  1  0  0  0  0
 25 37  1  0  0  0  0
 26 27  1  0  0  0  0
 26 38  1  0  0  0  0
 27 28  1  0  0  0  0
 27 39  1  0  0  0  0
 28 29  1  0  0  0  0
 28 40  1  0  0  0  0
 29 30  1  0  0  0  0
 29 41  1  0  0  0  0
 30 32  1  0  0  0  0
 30 42  1  0  0  0  0
 31 44  1  0  0  0  0
 31 45  1  0  0  0  0
M  END
> <PUBCHEM_COMPOUND_CID>
440435

> <PUBCHEM_CONFORMER_RMSD>
1

> <PUBCHEM_CONFORMER_DIVERSEORDER>
1
39
43
42
13
37
18
5
29
20
23
14
19
33
31
27
6
46
35
26
9
34
25
10
40
44
22
28
8
12
21
16
32
38
15
7
41
3
47
4
30
45
17
11
36
24
2

> <PUBCHEM_MMFF94_PARTIAL_CHARGES>
41
1 1.62
10 -0.68
11 -0.46
12 -0.68
13 -0.65
14 -0.65
15 -0.65
16 -0.57
17 -0.68
18 -0.65
19 -0.65
2 1.67
20 -0.91
21 0.28
22 0.36
23 0.28
24 0.28
25 0.56
26 0.56
27 0.28
28 0.28
29 0.28
3 -0.56
30 0.34
31 0.28
32 0.66
4 -0.56
43 0.42
46 0.4
47 0.4
48 0.4
49 0.4
5 -0.56
50 0.4
51 0.5
52 0.5
53 0.5
6 -0.68
7 -0.68
8 -0.68
9 -0.68

> <PUBCHEM_EFFECTIVE_ROTOR_COUNT>
10.4

> <PUBCHEM_PHARMACOPHORE_FEATURES>
27
1 10 acceptor
1 10 donor
1 12 acceptor
1 13 acceptor
1 14 acceptor
1 15 acceptor
1 16 acceptor
1 17 acceptor
1 18 acceptor
1 19 acceptor
1 20 donor
1 3 acceptor
1 4 acceptor
1 5 acceptor
1 6 acceptor
1 6 donor
1 7 acceptor
1 7 donor
1 8 acceptor
1 8 donor
1 9 acceptor
1 9 donor
3 13 16 32 anion
4 1 12 14 15 anion
4 2 17 18 19 anion
6 4 21 22 23 24 25 rings
6 5 26 27 28 29 30 rings

> <PUBCHEM_HEAVY_ATOM_COUNT>
32

> <PUBCHEM_ATOM_DEF_STEREO_COUNT>
9

> <PUBCHEM_ATOM_UDEF_STEREO_COUNT>
1

> <PUBCHEM_BOND_DEF_STEREO_COUNT>
0

> <PUBCHEM_BOND_UDEF_STEREO_COUNT>
0

> <PUBCHEM_ISOTOPIC_ATOM_COUNT>
0

> <PUBCHEM_COMPONENT_COUNT>
1

> <PUBCHEM_CACTVS_TAUTO_COUNT>
1

> <PUBCHEM_CONFORMER_ID>
0006B87300000001

> <PUBCHEM_MMFF94_ENERGY>
71.168

> <PUBCHEM_FEATURE_SELFOVERLAP>
137.318

> <PUBCHEM_SHAPE_FINGERPRINT>
10165383 225 18272925051071501532
10411042 1 17547293762397408371
10675989 125 18334010618671246400
1100329 8 17258214601643749041
12730499 353 18341040913330483443
13140716 1 18411424972823273098
13402501 40 18409730659828795693
13944108 23 18124875917549874077
13955234 65 18339083817103628747
15351339 4 18052249885275784810
15927050 60 18410856560394975631
17913733 40 18339907287104432811
17980427 26 18263948612098091556
21033648 29 18338799988042078832
21049683 118 18198082316491203786
21344244 78 17903937877852830651
23558518 356 18049452439388198926
23559900 14 18333447642520070892
23845131 108 18341619183327092627
5265222 85 18056455293760280756
5385378 56 18341047523153250953
550186 72 16609700060643740284
6371380 46 18409450263394836624
9709674 26 17902505992118348142
9777508 108 18195245516335819899

> <PUBCHEM_SHAPE_MULTIPOLES>
561.48
12.97
5.97
1.27
19.64
6.02
-0.08
-14.32
-2.51
-3.33
2.81
-0.86
-0.15
1.96

> <PUBCHEM_SHAPE_SELFOVERLAP>
1133.087

> <PUBCHEM_SHAPE_VOLUME>
327.8

> <PUBCHEM_COORDINATE_TYPE>
2
5
10

$$$$

