5281581
  -OEChem-07051212583D

 85 88  0     1  0  0  0  0  0999 V2000
   -3.3612    2.5378    0.6161 O   0  0  0  0  0  0  0  0  0  0  0  0
   -1.9844    0.1911   -2.2731 O   0  0  0  0  0  0  0  0  0  0  0  0
    0.8884    1.1848    1.5472 O   0  0  0  0  0  0  0  0  0  0  0  0
   -2.3769   -4.5823   -0.8531 O   0  0  0  0  0  0  0  0  0  0  0  0
   -0.0094    1.6261   -0.5444 N   0  0  0  0  0  0  0  0  0  0  0  0
   -1.3007   -1.1393   -0.4969 N   0  0  0  0  0  0  0  0  0  0  0  0
    2.2392    3.2823   -0.7386 N   0  0  0  0  0  0  0  0  0  0  0  0
   -3.5229   -2.6652   -0.2412 N   0  0  0  0  0  0  0  0  0  0  0  0
    4.2711   -1.5938    1.8553 N   0  0  0  0  0  0  0  0  0  0  0  0
   -2.3723    2.4583   -0.4439 C   0  0  2  0  0  0  0  0  0  0  0  0
   -1.3710    1.2885   -0.2003 C   0  0  1  0  0  0  0  0  0  0  0  0
   -1.7062    3.8384   -0.4396 C   0  0  0  0  0  0  0  0  0  0  0  0
   -1.3062   -2.4295   -1.1973 C   0  0  1  0  0  0  0  0  0  0  0  0
    0.0586   -3.0942   -1.0689 C   0  0  2  0  0  0  0  0  0  0  0  0
   -1.6312    0.0730   -1.1004 C   0  0  0  0  0  0  0  0  0  0  0  0
    2.3750    1.9203   -0.2189 C   0  0  2  0  0  0  0  0  0  0  0  0
    1.0224    1.5431    0.3781 C   0  0  0  0  0  0  0  0  0  0  0  0
    3.4845    1.8528    0.8428 C   0  0  0  0  0  0  0  0  0  0  0  0
   -2.5745    4.8499   -1.1805 C   0  0  0  0  0  0  0  0  0  0  0  0
   -1.4422    4.2966    0.9909 C   0  0  0  0  0  0  0  0  0  0  0  0
    0.3982   -3.4731    0.3855 C   0  0  0  0  0  0  0  0  0  0  0  0
    1.1455   -2.1690   -1.6267 C   0  0  0  0  0  0  0  0  0  0  0  0
    4.0122    0.4614    1.0578 C   0  0  0  0  0  0  0  0  0  0  0  0
   -2.4253   -3.3629   -0.7033 C   0  0  0  0  0  0  0  0  0  0  0  0
    5.0966   -0.1500    0.3683 C   0  0  0  0  0  0  0  0  0  0  0  0
   -4.2080    1.4640    0.6659 C   0  0  0  0  0  0  0  0  0  0  0  0
    1.7583   -4.1392    0.5371 C   0  0  0  0  0  0  0  0  0  0  0  0
    3.5254   -0.4509    1.9653 C   0  0  0  0  0  0  0  0  0  0  0  0
    5.2380   -1.4387    0.8877 C   0  0  0  0  0  0  0  0  0  0  0  0
    2.2949    4.2524    0.3535 C   0  0  0  0  0  0  0  0  0  0  0  0
    3.2839    3.5585   -1.7232 C   0  0  0  0  0  0  0  0  0  0  0  0
   -4.2339    0.7424    1.8601 C   0  0  0  0  0  0  0  0  0  0  0  0
   -4.9812    1.0648   -0.4242 C   0  0  0  0  0  0  0  0  0  0  0  0
    5.9741    0.2706   -0.6507 C   0  0  0  0  0  0  0  0  0  0  0  0
    6.2169   -2.3313    0.4370 C   0  0  0  0  0  0  0  0  0  0  0  0
   -5.5221   -0.9734    0.7555 C   0  0  0  0  0  0  0  0  0  0  0  0
   -4.7317   -3.1921    0.1569 C   0  0  0  0  0  0  0  0  0  0  0  0
   -4.8852   -0.4858    1.9045 C   0  0  0  0  0  0  0  0  0  0  0  0
   -5.6395   -0.1614   -0.3815 C   0  0  0  0  0  0  0  0  0  0  0  0
    6.9582   -0.6116   -1.1114 C   0  0  0  0  0  0  0  0  0  0  0  0
   -5.7312   -2.4217    0.6271 C   0  0  0  0  0  0  0  0  0  0  0  0
    7.0759   -1.8921   -0.5745 C   0  0  0  0  0  0  0  0  0  0  0  0
   -2.8723    2.3314   -1.4114 H   0  0  0  0  0  0  0  0  0  0  0  0
   -1.4183    0.9745    0.8482 H   0  0  0  0  0  0  0  0  0  0  0  0
   -0.7619    3.8260   -0.9917 H   0  0  0  0  0  0  0  0  0  0  0  0
   -1.5223   -2.2420   -2.2568 H   0  0  0  0  0  0  0  0  0  0  0  0
    0.0596   -4.0126   -1.6712 H   0  0  0  0  0  0  0  0  0  0  0  0
    2.5624    1.2093   -1.0355 H   0  0  0  0  0  0  0  0  0  0  0  0
    0.2053    1.8753   -1.5064 H   0  0  0  0  0  0  0  0  0  0  0  0
   -1.0898   -1.1423    0.4962 H   0  0  0  0  0  0  0  0  0  0  0  0
    4.3550    2.4581    0.5626 H   0  0  0  0  0  0  0  0  0  0  0  0
    3.1505    2.2395    1.8155 H   0  0  0  0  0  0  0  0  0  0  0  0
   -3.5616    4.9517   -0.7165 H   0  0  0  0  0  0  0  0  0  0  0  0
   -2.7204    4.5520   -2.2243 H   0  0  0  0  0  0  0  0  0  0  0  0
   -2.1023    5.8383   -1.1814 H   0  0  0  0  0  0  0  0  0  0  0  0
   -2.3618    4.5574    1.5261 H   0  0  0  0  0  0  0  0  0  0  0  0
   -0.9080    3.5404    1.5734 H   0  0  0  0  0  0  0  0  0  0  0  0
   -0.8204    5.1992    0.9827 H   0  0  0  0  0  0  0  0  0  0  0  0
    0.3860   -2.5893    1.0335 H   0  0  0  0  0  0  0  0  0  0  0  0
   -0.3562   -4.1611    0.7823 H   0  0  0  0  0  0  0  0  0  0  0  0
    1.3587   -1.3290   -0.9574 H   0  0  0  0  0  0  0  0  0  0  0  0
    0.8513   -1.7618   -2.6006 H   0  0  0  0  0  0  0  0  0  0  0  0
    2.0821   -2.7131   -1.7873 H   0  0  0  0  0  0  0  0  0  0  0  0
    2.5773   -3.4544    0.3038 H   0  0  0  0  0  0  0  0  0  0  0  0
    1.8409   -5.0150   -0.1142 H   0  0  0  0  0  0  0  0  0  0  0  0
    1.8974   -4.4737    1.5704 H   0  0  0  0  0  0  0  0  0  0  0  0
    2.7217   -0.3945    2.6857 H   0  0  0  0  0  0  0  0  0  0  0  0
    1.5934    4.0185    1.1612 H   0  0  0  0  0  0  0  0  0  0  0  0
    1.9817    5.2312   -0.0304 H   0  0  0  0  0  0  0  0  0  0  0  0
    3.2928    4.3966    0.7824 H   0  0  0  0  0  0  0  0  0  0  0  0
    3.1290    4.5508   -2.1625 H   0  0  0  0  0  0  0  0  0  0  0  0
    4.2981    3.5327   -1.3123 H   0  0  0  0  0  0  0  0  0  0  0  0
    3.2310    2.8448   -2.5533 H   0  0  0  0  0  0  0  0  0  0  0  0
   -3.4153   -1.6581   -0.1823 H   0  0  0  0  0  0  0  0  0  0  0  0
    4.1322   -2.4310    2.4043 H   0  0  0  0  0  0  0  0  0  0  0  0
   -3.6598    1.0771    2.7199 H   0  0  0  0  0  0  0  0  0  0  0  0
   -5.0128    1.6525   -1.3365 H   0  0  0  0  0  0  0  0  0  0  0  0
    5.8956    1.2644   -1.0818 H   0  0  0  0  0  0  0  0  0  0  0  0
    6.3089   -3.3285    0.8540 H   0  0  0  0  0  0  0  0  0  0  0  0
   -4.8451   -4.2667    0.0723 H   0  0  0  0  0  0  0  0  0  0  0  0
   -4.7842   -1.1059    2.7920 H   0  0  0  0  0  0  0  0  0  0  0  0
   -6.1323   -0.5279   -1.2790 H   0  0  0  0  0  0  0  0  0  0  0  0
    7.6374   -0.2928   -1.8976 H   0  0  0  0  0  0  0  0  0  0  0  0
   -6.6817   -2.8365    0.9397 H   0  0  0  0  0  0  0  0  0  0  0  0
    7.8473   -2.5610   -0.9475 H   0  0  0  0  0  0  0  0  0  0  0  0
  1 10  1  0  0  0  0
  1 26  1  0  0  0  0
  2 15  2  0  0  0  0
  3 17  2  0  0  0  0
  4 24  2  0  0  0  0
  5 11  1  0  0  0  0
  5 17  1  0  0  0  0
  5 49  1  0  0  0  0
  6 13  1  0  0  0  0
  6 15  1  0  0  0  0
  6 50  1  0  0  0  0
  7 16  1  0  0  0  0
  7 30  1  0  0  0  0
  7 31  1  0  0  0  0
  8 24  1  0  0  0  0
  8 37  1  0  0  0  0
  8 74  1  0  0  0  0
  9 28  1  0  0  0  0
  9 29  1  0  0  0  0
  9 75  1  0  0  0  0
 10 11  1  0  0  0  0
 10 12  1  0  0  0  0
 10 43  1  0  0  0  0
 11 15  1  0  0  0  0
 11 44  1  0  0  0  0
 12 19  1  0  0  0  0
 12 20  1  0  0  0  0
 12 45  1  0  0  0  0
 13 14  1  0  0  0  0
 13 24  1  0  0  0  0
 13 46  1  0  0  0  0
 14 21  1  0  0  0  0
 14 22  1  0  0  0  0
 14 47  1  0  0  0  0
 16 17  1  0  0  0  0
 16 18  1  0  0  0  0
 16 48  1  0  0  0  0
 18 23  1  0  0  0  0
 18 51  1  0  0  0  0
 18 52  1  0  0  0  0
 19 53  1  0  0  0  0
 19 54  1  0  0  0  0
 19 55  1  0  0  0  0
 20 56  1  0  0  0  0
 20 57  1  0  0  0  0
 20 58  1  0  0  0  0
 21 27  1  0  0  0  0
 21 59  1  0  0  0  0
 21 60  1  0  0  0  0
 22 61  1  0  0  0  0
 22 62  1  0  0  0  0
 22 63  1  0  0  0  0
 23 25  1  0  0  0  0
 23 28  2  0  0  0  0
 25 29  1  0  0  0  0
 25 34  2  0  0  0  0
 26 32  2  0  0  0  0
 26 33  1  0  0  0  0
 27 64  1  0  0  0  0
 27 65  1  0  0  0  0
 27 66  1  0  0  0  0
 28 67  1  0  0  0  0
 29 35  2  0  0  0  0
 30 68  1  0  0  0  0
 30 69  1  0  0  0  0
 30 70  1  0  0  0  0
 31 71  1  0  0  0  0
 31 72  1  0  0  0  0
 31 73  1  0  0  0  0
 32 38  1  0  0  0  0
 32 76  1  0  0  0  0
 33 39  2  0  0  0  0
 33 77  1  0  0  0  0
 34 40  1  0  0  0  0
 34 78  1  0  0  0  0
 35 42  1  0  0  0  0
 35 79  1  0  0  0  0
 36 38  2  0  0  0  0
 36 39  1  0  0  0  0
 36 41  1  0  0  0  0
 37 41  2  0  0  0  0
 37 80  1  0  0  0  0
 38 81  1  0  0  0  0
 39 82  1  0  0  0  0
 40 42  2  0  0  0  0
 40 83  1  0  0  0  0
 41 84  1  0  0  0  0
 42 85  1  0  0  0  0
M  END
> <PUBCHEM_COMPOUND_CID>
5281581

> <PUBCHEM_CONFORMER_RMSD>
1.2

> <PUBCHEM_CONFORMER_DIVERSEORDER>
1
38
32
12
24
47
16
17
40
36
41
10
37
35
50
39
45
14
20
19
11
23
43
48
26
13
30
18
21
31
9
2
15
28
22
42
5
8
4
29
33
25
49
34
6
3
44
46
7
27

> <PUBCHEM_MMFF94_PARTIAL_CHARGES>
49
1 -0.36
10 0.28
11 0.36
13 0.36
15 0.57
16 0.33
17 0.57
18 0.18
2 -0.57
23 -0.18
24 0.57
26 0.08
28 -0.3
29 -0.15
3 -0.57
30 0.27
31 0.27
32 -0.15
33 -0.15
34 -0.15
35 -0.15
36 0.03
37 -0.04
38 -0.15
39 -0.15
4 -0.57
40 -0.15
41 -0.18
42 -0.15
49 0.37
5 -0.73
50 0.37
6 -0.73
67 0.15
7 -0.81
74 0.37
75 0.27
76 0.15
77 0.15
78 0.15
79 0.15
8 -0.54
80 0.15
81 0.15
82 0.15
83 0.15
84 0.15
85 0.15
9 0.03

> <PUBCHEM_EFFECTIVE_ROTOR_COUNT>
10.2

> <PUBCHEM_PHARMACOPHORE_FEATURES>
16
1 1 acceptor
1 2 acceptor
1 22 hydrophobe
1 27 hydrophobe
1 3 acceptor
1 4 acceptor
1 5 donor
1 6 donor
1 7 cation
1 8 donor
1 9 cation
1 9 donor
3 12 19 20 hydrophobe
5 9 23 25 28 29 rings
6 25 29 34 35 40 42 rings
6 26 32 33 36 38 39 rings

> <PUBCHEM_HEAVY_ATOM_COUNT>
42

> <PUBCHEM_ATOM_DEF_STEREO_COUNT>
5

> <PUBCHEM_ATOM_UDEF_STEREO_COUNT>
0

> <PUBCHEM_BOND_DEF_STEREO_COUNT>
1

> <PUBCHEM_BOND_UDEF_STEREO_COUNT>
0

> <PUBCHEM_ISOTOPIC_ATOM_COUNT>
0

> <PUBCHEM_COMPONENT_COUNT>
1

> <PUBCHEM_CACTVS_TAUTO_COUNT>
8

> <PUBCHEM_CONFORMER_ID>
0050972D00000001

> <PUBCHEM_MMFF94_ENERGY>
131.1809

> <PUBCHEM_FEATURE_SELFOVERLAP>
81.29

> <PUBCHEM_SHAPE_FINGERPRINT>
10581848 31 18335133194288608776
11578080 2 17129879463295796687
117089 54 18269547252551343283
11756154 67 18411416233155682516
12422481 6 18261110759781364739
12522641 33 17979926226952704861
14017579 51 18408606980657701576
14117953 113 18408889560099519597
14856354 85 18410289216083109047
14955137 171 18409165554218139896
15001296 14 18339371773001333888
15361156 5 18131059437831596496
15439362 3 17257373470996439364
15484559 13 13933190700880752358
15781502 409 18194109936274780118
15968369 153 18262246525438907914
16112460 7 18261672589254464616
18608769 82 18408039624262402206
20764821 26 18337104566934177599
21796203 349 17910355508687210009
338550 245 18411136896782697078
392239 28 18336817637718421535
44880168 125 17748830739344084910
5265222 85 18408600371345792476
5912855 24 17977942393376791252
9896288 288 17970623223681224865

> <PUBCHEM_SHAPE_MULTIPOLES>
815.96
14.95
6.59
1.63
12.1
2.09
0.14
-7.15
2.25
-2.7
-1.42
0.13
0.06
-0.6

> <PUBCHEM_SHAPE_SELFOVERLAP>
1728.959

> <PUBCHEM_SHAPE_VOLUME>
454.7

> <PUBCHEM_COORDINATE_TYPE>
2
5
10

$$$$

