11169452
  -OEChem-07051213083D

 74 78  0     1  0  0  0  0  0999 V2000
   -2.4110    0.8176    1.4398 O   0  0  0  0  0  0  0  0  0  0  0  0
    0.2036   -1.7106    1.7886 O   0  0  0  0  0  0  0  0  0  0  0  0
   -2.7054    0.3852   -0.8341 O   0  0  0  0  0  0  0  0  0  0  0  0
   -3.6495   -1.2506    3.1337 O   0  0  0  0  0  0  0  0  0  0  0  0
   -0.1297   -0.1580    0.0791 O   0  0  0  0  0  0  0  0  0  0  0  0
   -1.6678   -2.4805    4.8413 O   0  0  0  0  0  0  0  0  0  0  0  0
   -4.5841    2.6282    1.3543 O   0  0  0  0  0  0  0  0  0  0  0  0
   -4.9364    3.7980   -1.3268 O   0  0  0  0  0  0  0  0  0  0  0  0
   -5.0254    1.7197   -3.3340 O   0  0  0  0  0  0  0  0  0  0  0  0
    2.1468   -3.1221    3.1256 O   0  0  0  0  0  0  0  0  0  0  0  0
   -2.4121   -1.5578   -2.7562 O   0  0  0  0  0  0  0  0  0  0  0  0
    3.3562    0.4548   -0.9976 O   0  3  0  0  0  0  0  0  0  0  0  0
    1.9185    4.2827    1.6259 O   0  0  0  0  0  0  0  0  0  0  0  0
    6.3404    4.0998   -0.1191 O   0  0  0  0  0  0  0  0  0  0  0  0
    2.2253   -4.9448   -0.7823 O   0  0  0  0  0  0  0  0  0  0  0  0
    1.2120   -5.0284   -3.3690 O   0  0  0  0  0  0  0  0  0  0  0  0
   -1.8949   -0.4954    1.6564 C   0  0  2  0  0  0  0  0  0  0  0  0
   -2.2535   -0.9549    3.0696 C   0  0  2  0  0  0  0  0  0  0  0  0
   -1.4843   -2.2194    3.4523 C   0  0  1  0  0  0  0  0  0  0  0  0
   -3.3425    0.8371    0.3586 C   0  0  2  0  0  0  0  0  0  0  0  0
   -3.8383    2.2733    0.1903 C   0  0  1  0  0  0  0  0  0  0  0  0
   -0.3804   -0.4541    1.4526 C   0  0  1  0  0  0  0  0  0  0  0  0
    0.0094   -2.0555    3.1613 C   0  0  1  0  0  0  0  0  0  0  0  0
   -4.7282    2.4131   -1.0449 C   0  0  2  0  0  0  0  0  0  0  0  0
   -4.0773    1.7736   -2.2714 C   0  0  1  0  0  0  0  0  0  0  0  0
   -3.5935    0.3569   -1.9527 C   0  0  1  0  0  0  0  0  0  0  0  0
    0.7809   -3.3447    3.4252 C   0  0  0  0  0  0  0  0  0  0  0  0
   -2.8365   -0.2584   -3.1255 C   0  0  0  0  0  0  0  0  0  0  0  0
    1.0544    0.5235   -0.0837 C   0  0  0  0  0  0  0  0  0  0  0  0
    2.1742   -0.0812   -0.8727 C   0  0  0  0  0  0  0  0  0  0  0  0
    1.2935    1.7140    0.4810 C   0  0  0  0  0  0  0  0  0  0  0  0
    2.5909    2.3631    0.3313 C   0  0  0  0  0  0  0  0  0  0  0  0
    1.9214   -1.3861   -1.5272 C   0  0  0  0  0  0  0  0  0  0  0  0
    3.5890    1.7056   -0.3953 C   0  0  0  0  0  0  0  0  0  0  0  0
    2.8608    3.6083    0.9068 C   0  0  0  0  0  0  0  0  0  0  0  0
    4.8477    2.2884   -0.5466 C   0  0  0  0  0  0  0  0  0  0  0  0
    2.1939   -2.5644   -0.8414 C   0  0  0  0  0  0  0  0  0  0  0  0
    1.4150   -1.4200   -2.8215 C   0  0  0  0  0  0  0  0  0  0  0  0
    4.1206    4.1897    0.7533 C   0  0  0  0  0  0  0  0  0  0  0  0
    5.1129    3.5304    0.0281 C   0  0  0  0  0  0  0  0  0  0  0  0
    1.9566   -3.7929   -1.4581 C   0  0  0  0  0  0  0  0  0  0  0  0
    1.1781   -2.6485   -3.4383 C   0  0  0  0  0  0  0  0  0  0  0  0
    1.4487   -3.8349   -2.7566 C   0  0  0  0  0  0  0  0  0  0  0  0
   -2.3272   -1.2159    0.9468 H   0  0  0  0  0  0  0  0  0  0  0  0
   -2.0756   -0.1546    3.7975 H   0  0  0  0  0  0  0  0  0  0  0  0
   -1.8946   -3.0717    2.8952 H   0  0  0  0  0  0  0  0  0  0  0  0
   -4.1773    0.1702    0.6145 H   0  0  0  0  0  0  0  0  0  0  0  0
   -2.9907    2.9667    0.1340 H   0  0  0  0  0  0  0  0  0  0  0  0
    0.0317    0.3140    2.1208 H   0  0  0  0  0  0  0  0  0  0  0  0
    0.4467   -1.2658    3.7874 H   0  0  0  0  0  0  0  0  0  0  0  0
   -5.7215    1.9849   -0.8660 H   0  0  0  0  0  0  0  0  0  0  0  0
   -3.2398    2.4018   -2.6021 H   0  0  0  0  0  0  0  0  0  0  0  0
   -4.4392   -0.3015   -1.7116 H   0  0  0  0  0  0  0  0  0  0  0  0
    0.7056   -3.6582    4.4701 H   0  0  0  0  0  0  0  0  0  0  0  0
    0.4247   -4.1521    2.7767 H   0  0  0  0  0  0  0  0  0  0  0  0
   -3.4634   -0.3501   -4.0162 H   0  0  0  0  0  0  0  0  0  0  0  0
   -1.9448    0.3249   -3.3781 H   0  0  0  0  0  0  0  0  0  0  0  0
   -3.8428   -1.9444    2.4805 H   0  0  0  0  0  0  0  0  0  0  0  0
   -1.3891   -3.3957    5.0118 H   0  0  0  0  0  0  0  0  0  0  0  0
   -5.3419    2.0227    1.4231 H   0  0  0  0  0  0  0  0  0  0  0  0
   -4.0683    4.2108   -1.4735 H   0  0  0  0  0  0  0  0  0  0  0  0
   -4.5401    1.5437   -4.1575 H   0  0  0  0  0  0  0  0  0  0  0  0
    2.6166   -3.9578    3.2882 H   0  0  0  0  0  0  0  0  0  0  0  0
   -1.8463   -1.4702   -1.9699 H   0  0  0  0  0  0  0  0  0  0  0  0
    0.5045    2.2063    1.0361 H   0  0  0  0  0  0  0  0  0  0  0  0
    5.6155    1.7702   -1.1142 H   0  0  0  0  0  0  0  0  0  0  0  0
    2.5929   -2.5342    0.1692 H   0  0  0  0  0  0  0  0  0  0  0  0
    1.1999   -0.5006   -3.3593 H   0  0  0  0  0  0  0  0  0  0  0  0
    4.3234    5.1585    1.2036 H   0  0  0  0  0  0  0  0  0  0  0  0
    0.7810   -2.6664   -4.4497 H   0  0  0  0  0  0  0  0  0  0  0  0
    1.2857    3.6636    2.0209 H   0  0  0  0  0  0  0  0  0  0  0  0
    6.3482    4.9562    0.3419 H   0  0  0  0  0  0  0  0  0  0  0  0
    2.0019   -5.6965   -1.3583 H   0  0  0  0  0  0  0  0  0  0  0  0
    0.8620   -4.8626   -4.2612 H   0  0  0  0  0  0  0  0  0  0  0  0
  1 17  1  0  0  0  0
  1 20  1  0  0  0  0
  2 22  1  0  0  0  0
  2 23  1  0  0  0  0
  3 20  1  0  0  0  0
  3 26  1  0  0  0  0
  4 18  1  0  0  0  0
  4 58  1  0  0  0  0
  5 22  1  0  0  0  0
  5 29  1  0  0  0  0
  6 19  1  0  0  0  0
  6 59  1  0  0  0  0
  7 21  1  0  0  0  0
  7 60  1  0  0  0  0
  8 24  1  0  0  0  0
  8 61  1  0  0  0  0
  9 25  1  0  0  0  0
  9 62  1  0  0  0  0
 10 27  1  0  0  0  0
 10 63  1  0  0  0  0
 11 28  1  0  0  0  0
 11 64  1  0  0  0  0
 12 30  2  0  0  0  0
 12 34  1  0  0  0  0
 13 35  1  0  0  0  0
 13 71  1  0  0  0  0
 14 40  1  0  0  0  0
 14 72  1  0  0  0  0
 15 41  1  0  0  0  0
 15 73  1  0  0  0  0
 16 43  1  0  0  0  0
 16 74  1  0  0  0  0
 17 18  1  0  0  0  0
 17 22  1  0  0  0  0
 17 44  1  0  0  0  0
 18 19  1  0  0  0  0
 18 45  1  0  0  0  0
 19 23  1  0  0  0  0
 19 46  1  0  0  0  0
 20 21  1  0  0  0  0
 20 47  1  0  0  0  0
 21 24  1  0  0  0  0
 21 48  1  0  0  0  0
 22 49  1  0  0  0  0
 23 27  1  0  0  0  0
 23 50  1  0  0  0  0
 24 25  1  0  0  0  0
 24 51  1  0  0  0  0
 25 26  1  0  0  0  0
 25 52  1  0  0  0  0
 26 28  1  0  0  0  0
 26 53  1  0  0  0  0
 27 54  1  0  0  0  0
 27 55  1  0  0  0  0
 28 56  1  0  0  0  0
 28 57  1  0  0  0  0
 29 30  1  0  0  0  0
 29 31  2  0  0  0  0
 30 33  1  0  0  0  0
 31 32  1  0  0  0  0
 31 65  1  0  0  0  0
 32 34  1  0  0  0  0
 32 35  2  0  0  0  0
 33 37  2  0  0  0  0
 33 38  1  0  0  0  0
 34 36  2  0  0  0  0
 35 39  1  0  0  0  0
 36 40  1  0  0  0  0
 36 66  1  0  0  0  0
 37 41  1  0  0  0  0
 37 67  1  0  0  0  0
 38 42  2  0  0  0  0
 38 68  1  0  0  0  0
 39 40  2  0  0  0  0
 39 69  1  0  0  0  0
 41 43  2  0  0  0  0
 42 43  1  0  0  0  0
 42 70  1  0  0  0  0
M  CHG  1  12   1
M  END
> <PUBCHEM_COMPOUND_CID>
11169452

> <PUBCHEM_CONFORMER_RMSD>
1.2

> <PUBCHEM_CONFORMER_DIVERSEORDER>
2
96
17
16
190
202
184
181
141
176
207
157
172
123
162
194
3
86
151
116
61
84
38
87
186
180
205
169
130
104
120
42
133
105
70
117
129
147
91
165
214
206
50
68
74
177
111
64
166
101
211
174
58
97
185
175
212
89
217
6
36
75
192
23
188
131
200
152
94
178
163
118
149
48
59
57
182
20
179
153
112
155
167
113
203
124
161
142
115
193
81
139
55
60
47
28
106
215
103
119
10
209
7
150
216
29
136
144
73
32
122
72
183
158
13
197
208
135
44
204
102
125
39
4
82
201
99
65
9
11
213
128
8
121
78
35
85
198
134
195
71
109
171
114
49
46
189
108
146
5
90
43
173
93
137
95
14
27
160
126
79
19
143
31
191
159
156
22
53
196
199
187
170
34
210
24
76
110
56
98
52
1
63
100
138
132
37
62
40
30
51
83
154
66
18
148
77
168
45
80
88
107
92
127
21
41
15
54
67
26
164
69
12
145
25
33
140

> <PUBCHEM_MMFF94_PARTIAL_CHARGES>
60
1 -0.56
10 -0.68
11 -0.68
12 -0.87
13 -0.53
14 -0.53
15 -0.53
16 -0.53
17 0.28
18 0.28
19 0.28
2 -0.56
20 0.56
21 0.28
22 0.56
23 0.28
24 0.28
25 0.28
26 0.28
27 0.28
28 0.28
29 0.09
3 -0.56
30 0.85
31 -0.18
32 0.03
33 0.09
34 0.92
35 0.08
36 -0.15
37 -0.15
38 -0.15
39 -0.15
4 -0.68
40 0.08
41 0.08
42 -0.15
43 0.08
5 -0.36
58 0.4
59 0.4
6 -0.68
60 0.4
61 0.4
62 0.4
63 0.4
64 0.4
65 0.15
66 0.15
67 0.15
68 0.15
69 0.15
7 -0.68
70 0.15
71 0.45
72 0.45
73 0.45
74 0.45
8 -0.68
9 -0.68

> <PUBCHEM_EFFECTIVE_ROTOR_COUNT>
9.4

> <PUBCHEM_PHARMACOPHORE_FEATURES>
27
1 1 acceptor
1 10 acceptor
1 10 donor
1 11 acceptor
1 11 donor
1 13 donor
1 14 donor
1 15 donor
1 16 donor
1 2 acceptor
1 3 acceptor
1 4 acceptor
1 4 donor
1 5 acceptor
1 6 acceptor
1 6 donor
1 7 acceptor
1 7 donor
1 8 acceptor
1 8 donor
1 9 acceptor
1 9 donor
6 12 29 30 31 32 34 rings
6 2 17 18 19 22 23 rings
6 3 20 21 24 25 26 rings
6 32 34 35 36 39 40 rings
6 33 37 38 41 42 43 rings

> <PUBCHEM_HEAVY_ATOM_COUNT>
43

> <PUBCHEM_ATOM_DEF_STEREO_COUNT>
10

> <PUBCHEM_ATOM_UDEF_STEREO_COUNT>
0

> <PUBCHEM_BOND_DEF_STEREO_COUNT>
0

> <PUBCHEM_BOND_UDEF_STEREO_COUNT>
0

> <PUBCHEM_ISOTOPIC_ATOM_COUNT>
0

> <PUBCHEM_COMPONENT_COUNT>
1

> <PUBCHEM_CACTVS_TAUTO_COUNT>
154

> <PUBCHEM_CONFORMER_ID>
00AA6EAC00000002

> <PUBCHEM_MMFF94_ENERGY>
139.6246

> <PUBCHEM_FEATURE_SELFOVERLAP>
137.169

> <PUBCHEM_SHAPE_FINGERPRINT>
11093857 51 17315386758209328661
11377469 6 16374913023523549967
11434127 23 18130230328697391412
11578080 2 17487022744161969598
11582403 64 18270136629311331726
12128747 34 17988923319831718186
12156800 1 16669982018618734306
14040222 75 16467288664624828052
14114206 34 17046505794057770414
14856354 85 12175359036232742656
16114785 44 17624153611055891784
17980427 26 17771664284300954558
20587220 17 15833741002640745343
21033648 29 17203058442644870196
244849 19 18124000599183082963
376196 1 18412551989670071568
469060 322 17904471905770793375
5080951 261 17757560651225297584
550186 7 17842261580868411652
6691757 9 17459179687433316064

> <PUBCHEM_SHAPE_MULTIPOLES>
791.01
9.43
6.78
4.89
0.6
2.3
-2.48
-15.46
3.16
6.36
1.41
-4.46
6.5
4.19

> <PUBCHEM_SHAPE_SELFOVERLAP>
1716.111

> <PUBCHEM_SHAPE_VOLUME>
425.4

> <PUBCHEM_COORDINATE_TYPE>
2
5
10

$$$$

