78659
  -OEChem-07051213093D

 18 18  0     0  0  0  0  0  0999 V2000
   -1.8880    2.3181    0.2072 Br  0  0  0  0  0  0  0  0  0  0  0  0
    1.4653    2.8293   -0.1672 Br  0  0  0  0  0  0  0  0  0  0  0  0
    1.9379   -2.3810    0.0161 O   0  0  0  0  0  0  0  0  0  0  0  0
   -3.1998   -0.8750   -0.8627 O   0  0  0  0  0  0  0  0  0  0  0  0
    2.9406    0.1647   -0.2021 O   0  0  0  0  0  0  0  0  0  0  0  0
   -1.1456   -0.4337    0.2518 C   0  0  0  0  0  0  0  0  0  0  0  0
   -0.2725   -1.5206    0.2084 C   0  0  0  0  0  0  0  0  0  0  0  0
   -0.6485    0.8650    0.1416 C   0  0  0  0  0  0  0  0  0  0  0  0
    1.0977   -1.3089    0.0551 C   0  0  0  0  0  0  0  0  0  0  0  0
   -2.6033   -0.7245    0.4182 C   0  0  0  0  0  0  0  0  0  0  0  0
    1.5947   -0.0102   -0.0549 C   0  0  0  0  0  0  0  0  0  0  0  0
    0.7216    1.0767   -0.0116 C   0  0  0  0  0  0  0  0  0  0  0  0
   -0.6496   -2.5373    0.2906 H   0  0  0  0  0  0  0  0  0  0  0  0
   -2.7444   -1.6679    0.9589 H   0  0  0  0  0  0  0  0  0  0  0  0
   -3.1511    0.0213    0.9999 H   0  0  0  0  0  0  0  0  0  0  0  0
    2.8472   -2.0527   -0.0937 H   0  0  0  0  0  0  0  0  0  0  0  0
   -3.0577   -0.0492   -1.3565 H   0  0  0  0  0  0  0  0  0  0  0  0
    3.1201    1.1187   -0.2631 H   0  0  0  0  0  0  0  0  0  0  0  0
  1  8  1  0  0  0  0
  2 12  1  0  0  0  0
  3  9  1  0  0  0  0
  3 16  1  0  0  0  0
  4 10  1  0  0  0  0
  4 17  1  0  0  0  0
  5 11  1  0  0  0  0
  5 18  1  0  0  0  0
  6  7  2  0  0  0  0
  6  8  1  0  0  0  0
  6 10  1  0  0  0  0
  7  9  1  0  0  0  0
  7 13  1  0  0  0  0
  8 12  2  0  0  0  0
  9 11  2  0  0  0  0
 10 14  1  0  0  0  0
 10 15  1  0  0  0  0
 11 12  1  0  0  0  0
M  END
> <PUBCHEM_COMPOUND_CID>
78659

> <PUBCHEM_CONFORMER_RMSD>
0.4

> <PUBCHEM_CONFORMER_DIVERSEORDER>
1
2
3

> <PUBCHEM_MMFF94_PARTIAL_CHARGES>
16
1 -0.11
10 0.42
11 0.08
12 0.11
13 0.15
16 0.45
17 0.4
18 0.45
2 -0.11
3 -0.53
4 -0.68
5 -0.53
6 -0.14
7 -0.15
8 0.11
9 0.08

> <PUBCHEM_EFFECTIVE_ROTOR_COUNT>
1

> <PUBCHEM_PHARMACOPHORE_FEATURES>
7
1 1 hydrophobe
1 2 hydrophobe
1 3 donor
1 4 acceptor
1 4 donor
1 5 donor
6 6 7 8 9 11 12 rings

> <PUBCHEM_HEAVY_ATOM_COUNT>
12

> <PUBCHEM_ATOM_DEF_STEREO_COUNT>
0

> <PUBCHEM_ATOM_UDEF_STEREO_COUNT>
0

> <PUBCHEM_BOND_DEF_STEREO_COUNT>
0

> <PUBCHEM_BOND_UDEF_STEREO_COUNT>
0

> <PUBCHEM_ISOTOPIC_ATOM_COUNT>
0

> <PUBCHEM_COMPONENT_COUNT>
1

> <PUBCHEM_CACTVS_TAUTO_COUNT>
8

> <PUBCHEM_CONFORMER_ID>
0001334300000001

> <PUBCHEM_MMFF94_ENERGY>
32.0316

> <PUBCHEM_FEATURE_SELFOVERLAP>
35.525

> <PUBCHEM_SHAPE_FINGERPRINT>
10967382 1 18122621652339967017
11206711 2 18412255142794152461
12423570 1 9694654567786517542
12897270 3 18339642243992081423
13140716 1 18123466073091157202
16945 1 18411412878200733178
17775402 16 18121782733916832021
193761 8 18410853308376316593
21501502 16 18267303312200046978
2334 1 17690276010882044402
23419403 2 17043241141992111713
23526114 1 18337950228777947606
23552423 10 18410852144682590545
23559900 14 18190445238813374078
241688 4 18123751117116976032
2748010 2 18265893751315374550
5084963 1 18113893823559590832

> <PUBCHEM_SHAPE_MULTIPOLES>
241.23
3.72
3.01
0.7
1.18
1.3
0.03
-0.33
0.46
-0.91
-0.03
0.22
0.03
-0.23

> <PUBCHEM_SHAPE_SELFOVERLAP>
477.07

> <PUBCHEM_SHAPE_VOLUME>
149.4

> <PUBCHEM_COORDINATE_TYPE>
2
5
10

$$$$

