46173989
  -OEChem-07051213103D

 89 92  0     1  0  0  0  0  0999 V2000
   10.3649    0.1422   -0.6366 O   0  0  0  0  0  0  0  0  0  0  0  0
  -10.0610   -0.1738    1.2179 O   0  0  0  0  0  0  0  0  0  0  0  0
   13.4770    0.0701    1.3128 O   0  0  0  0  0  0  0  0  0  0  0  0
  -13.5885    0.4107    0.3772 O   0  0  0  0  0  0  0  0  0  0  0  0
   12.5458   -2.6429    1.4545 O   0  0  0  0  0  0  0  0  0  0  0  0
  -12.9374   -1.9556   -1.1141 O   0  0  0  0  0  0  0  0  0  0  0  0
    8.4761   -1.2294   -0.6204 O   0  0  0  0  0  0  0  0  0  0  0  0
   -8.3588   -1.3236    0.1102 O   0  0  0  0  0  0  0  0  0  0  0  0
    9.6382   -2.7456    1.5008 O   0  0  0  0  0  0  0  0  0  0  0  0
  -10.1729   -1.8889   -2.0198 O   0  0  0  0  0  0  0  0  0  0  0  0
   11.1965    2.7015   -1.1571 O   0  0  0  0  0  0  0  0  0  0  0  0
  -10.5231    1.9018    2.9473 O   0  0  0  0  0  0  0  0  0  0  0  0
    6.1058   -2.3557    0.3060 O   0  0  0  0  0  0  0  0  0  0  0  0
   -6.0019   -2.4634   -0.8245 O   0  0  0  0  0  0  0  0  0  0  0  0
    1.3370    3.4521   -0.3358 O   0  0  0  0  0  0  0  0  0  0  0  0
   -1.3381    3.3622   -0.2324 O   0  0  0  0  0  0  0  0  0  0  0  0
   12.4236   -0.4428    0.5011 C   0  0  1  0  0  0  0  0  0  0  0  0
  -12.3923   -0.3388    0.5749 C   0  0  1  0  0  0  0  0  0  0  0  0
   11.6845   -1.5130    1.3045 C   0  0  1  0  0  0  0  0  0  0  0  0
  -11.9868   -0.9469   -0.7678 C   0  0  1  0  0  0  0  0  0  0  0  0
   11.4708    0.6818    0.0891 C   0  0  1  0  0  0  0  0  0  0  0  0
  -11.2818    0.5621    1.1207 C   0  0  1  0  0  0  0  0  0  0  0  0
   10.4024   -1.9500    0.5956 C   0  0  2  0  0  0  0  0  0  0  0  0
  -10.5944   -1.5737   -0.6934 C   0  0  2  0  0  0  0  0  0  0  0  0
    9.5741   -0.7445    0.1514 C   0  0  1  0  0  0  0  0  0  0  0  0
   -9.5882   -0.6187   -0.0515 C   0  0  1  0  0  0  0  0  0  0  0  0
   12.1458    1.7078   -0.8161 C   0  0  0  0  0  0  0  0  0  0  0  0
  -11.6008    1.0913    2.5156 C   0  0  0  0  0  0  0  0  0  0  0  0
    7.3240   -0.4927   -0.5762 C   0  0  0  0  0  0  0  0  0  0  0  0
   -7.2123   -0.5906    0.0472 C   0  0  0  0  0  0  0  0  0  0  0  0
    6.1372   -1.0592   -0.1114 C   0  0  0  0  0  0  0  0  0  0  0  0
   -6.0296   -1.1622   -0.4218 C   0  0  0  0  0  0  0  0  0  0  0  0
    7.3432    0.8359   -1.0008 C   0  0  0  0  0  0  0  0  0  0  0  0
   -7.2279    0.7429    0.4567 C   0  0  0  0  0  0  0  0  0  0  0  0
    4.9695   -0.2972   -0.0713 C   0  0  0  0  0  0  0  0  0  0  0  0
   -4.8625   -0.4005   -0.4815 C   0  0  0  0  0  0  0  0  0  0  0  0
    6.1755    1.5978   -0.9609 C   0  0  0  0  0  0  0  0  0  0  0  0
   -6.0608    1.5044    0.3974 C   0  0  0  0  0  0  0  0  0  0  0  0
    4.9886    1.0313   -0.4960 C   0  0  0  0  0  0  0  0  0  0  0  0
   -4.8781    0.9327   -0.0718 C   0  0  0  0  0  0  0  0  0  0  0  0
    3.7708    1.8255   -0.4538 C   0  0  0  0  0  0  0  0  0  0  0  0
   -3.6448    1.7371   -0.1353 C   0  0  0  0  0  0  0  0  0  0  0  0
    4.8528   -2.8579    0.7663 C   0  0  0  0  0  0  0  0  0  0  0  0
   -6.2838   -2.7225   -2.1984 C   0  0  0  0  0  0  0  0  0  0  0  0
    2.5134    1.3232   -0.4000 C   0  0  0  0  0  0  0  0  0  0  0  0
   -2.4054    1.2280   -0.1938 C   0  0  0  0  0  0  0  0  0  0  0  0
    1.2628    2.0720   -0.3571 C   0  0  0  0  0  0  0  0  0  0  0  0
   -1.2302    2.1428   -0.2423 C   0  0  0  0  0  0  0  0  0  0  0  0
    0.0811    1.4330   -0.3052 C   0  0  0  0  0  0  0  0  0  0  0  0
   12.8841   -0.8982   -0.3841 H   0  0  0  0  0  0  0  0  0  0  0  0
  -12.6215   -1.1394    1.2886 H   0  0  0  0  0  0  0  0  0  0  0  0
   11.4681   -1.1587    2.3194 H   0  0  0  0  0  0  0  0  0  0  0  0
  -12.0352   -0.1967   -1.5661 H   0  0  0  0  0  0  0  0  0  0  0  0
   11.0842    1.2116    0.9704 H   0  0  0  0  0  0  0  0  0  0  0  0
  -11.1168    1.4254    0.4616 H   0  0  0  0  0  0  0  0  0  0  0  0
   10.6386   -2.5890   -0.2637 H   0  0  0  0  0  0  0  0  0  0  0  0
  -10.6293   -2.5200   -0.1405 H   0  0  0  0  0  0  0  0  0  0  0  0
    9.1915   -0.2123    1.0350 H   0  0  0  0  0  0  0  0  0  0  0  0
   -9.4518    0.2375   -0.7292 H   0  0  0  0  0  0  0  0  0  0  0  0
   12.4897    1.2416   -1.7455 H   0  0  0  0  0  0  0  0  0  0  0  0
   12.9933    2.1860   -0.3157 H   0  0  0  0  0  0  0  0  0  0  0  0
  -11.7068    0.2683    3.2302 H   0  0  0  0  0  0  0  0  0  0  0  0
  -12.5159    1.6911    2.5157 H   0  0  0  0  0  0  0  0  0  0  0  0
   13.0765    0.5128    2.0804 H   0  0  0  0  0  0  0  0  0  0  0  0
  -13.3850    1.1487   -0.2225 H   0  0  0  0  0  0  0  0  0  0  0  0
   12.7506   -2.9865    0.5682 H   0  0  0  0  0  0  0  0  0  0  0  0
  -12.9128   -2.6427   -0.4265 H   0  0  0  0  0  0  0  0  0  0  0  0
    9.3898   -2.1872    2.2572 H   0  0  0  0  0  0  0  0  0  0  0  0
  -10.1067   -1.0583   -2.5212 H   0  0  0  0  0  0  0  0  0  0  0  0
   11.6456    3.3411   -1.7357 H   0  0  0  0  0  0  0  0  0  0  0  0
  -10.7454    2.2248    3.8372 H   0  0  0  0  0  0  0  0  0  0  0  0
    8.2494    1.2944   -1.3840 H   0  0  0  0  0  0  0  0  0  0  0  0
   -8.1104    1.2338    0.8513 H   0  0  0  0  0  0  0  0  0  0  0  0
    4.0461   -0.7050    0.3182 H   0  0  0  0  0  0  0  0  0  0  0  0
   -3.9665   -0.8758   -0.8709 H   0  0  0  0  0  0  0  0  0  0  0  0
    6.2084    2.6302   -1.3009 H   0  0  0  0  0  0  0  0  0  0  0  0
   -6.0893    2.5404    0.7264 H   0  0  0  0  0  0  0  0  0  0  0  0
    3.9085    2.9045   -0.4709 H   0  0  0  0  0  0  0  0  0  0  0  0
   -3.7949    2.8141   -0.1187 H   0  0  0  0  0  0  0  0  0  0  0  0
    5.0113   -3.9042    1.0486 H   0  0  0  0  0  0  0  0  0  0  0  0
    4.0985   -2.8569   -0.0281 H   0  0  0  0  0  0  0  0  0  0  0  0
    4.5148   -2.3364    1.6683 H   0  0  0  0  0  0  0  0  0  0  0  0
   -6.2568   -3.8042   -2.3557 H   0  0  0  0  0  0  0  0  0  0  0  0
   -5.5276   -2.2565   -2.8379 H   0  0  0  0  0  0  0  0  0  0  0  0
   -7.2794   -2.3548   -2.4654 H   0  0  0  0  0  0  0  0  0  0  0  0
    2.3672    0.2454   -0.4176 H   0  0  0  0  0  0  0  0  0  0  0  0
   -2.2067    0.1629   -0.1860 H   0  0  0  0  0  0  0  0  0  0  0  0
    0.0489    0.3464   -0.3095 H   0  0  0  0  0  0  0  0  0  0  0  0
    0.4457    3.8324   -0.3002 H   0  0  0  0  0  0  0  0  0  0  0  0
  1 21  1  0  0  0  0
  1 25  1  0  0  0  0
  2 22  1  0  0  0  0
  2 26  1  0  0  0  0
  3 17  1  0  0  0  0
  3 64  1  0  0  0  0
  4 18  1  0  0  0  0
  4 65  1  0  0  0  0
  5 19  1  0  0  0  0
  5 66  1  0  0  0  0
  6 20  1  0  0  0  0
  6 67  1  0  0  0  0
  7 25  1  0  0  0  0
  7 29  1  0  0  0  0
  8 26  1  0  0  0  0
  8 30  1  0  0  0  0
  9 23  1  0  0  0  0
  9 68  1  0  0  0  0
 10 24  1  0  0  0  0
 10 69  1  0  0  0  0
 11 27  1  0  0  0  0
 11 70  1  0  0  0  0
 12 28  1  0  0  0  0
 12 71  1  0  0  0  0
 13 31  1  0  0  0  0
 13 43  1  0  0  0  0
 14 32  1  0  0  0  0
 14 44  1  0  0  0  0
 15 47  1  0  0  0  0
 15 89  1  0  0  0  0
 16 48  2  0  0  0  0
 17 19  1  0  0  0  0
 17 21  1  0  0  0  0
 17 50  1  0  0  0  0
 18 20  1  0  0  0  0
 18 22  1  0  0  0  0
 18 51  1  0  0  0  0
 19 23  1  0  0  0  0
 19 52  1  0  0  0  0
 20 24  1  0  0  0  0
 20 53  1  0  0  0  0
 21 27  1  0  0  0  0
 21 54  1  0  0  0  0
 22 28  1  0  0  0  0
 22 55  1  0  0  0  0
 23 25  1  0  0  0  0
 23 56  1  0  0  0  0
 24 26  1  0  0  0  0
 24 57  1  0  0  0  0
 25 58  1  0  0  0  0
 26 59  1  0  0  0  0
 27 60  1  0  0  0  0
 27 61  1  0  0  0  0
 28 62  1  0  0  0  0
 28 63  1  0  0  0  0
 29 31  2  0  0  0  0
 29 33  1  0  0  0  0
 30 32  2  0  0  0  0
 30 34  1  0  0  0  0
 31 35  1  0  0  0  0
 32 36  1  0  0  0  0
 33 37  2  0  0  0  0
 33 72  1  0  0  0  0
 34 38  2  0  0  0  0
 34 73  1  0  0  0  0
 35 39  2  0  0  0  0
 35 74  1  0  0  0  0
 36 40  2  0  0  0  0
 36 75  1  0  0  0  0
 37 39  1  0  0  0  0
 37 76  1  0  0  0  0
 38 40  1  0  0  0  0
 38 77  1  0  0  0  0
 39 41  1  0  0  0  0
 40 42  1  0  0  0  0
 41 45  2  0  0  0  0
 41 78  1  0  0  0  0
 42 46  2  0  0  0  0
 42 79  1  0  0  0  0
 43 80  1  0  0  0  0
 43 81  1  0  0  0  0
 43 82  1  0  0  0  0
 44 83  1  0  0  0  0
 44 84  1  0  0  0  0
 44 85  1  0  0  0  0
 45 47  1  0  0  0  0
 45 86  1  0  0  0  0
 46 48  1  0  0  0  0
 46 87  1  0  0  0  0
 47 49  2  0  0  0  0
 48 49  1  0  0  0  0
 49 88  1  0  0  0  0
M  END
> <PUBCHEM_COMPOUND_CID>
46173989

> <PUBCHEM_CONFORMER_RMSD>
1.4

> <PUBCHEM_CONFORMER_DIVERSEORDER>
6
36
28
24
1
10
8
7
27
37
26
14
30
41
40
21
3
25
32
34
22
13
20
39
29
31
9
5
11
38
16
33
4
19
18
12
35
15
2
17
23

> <PUBCHEM_MMFF94_PARTIAL_CHARGES>
69
1 -0.56
10 -0.68
11 -0.68
12 -0.68
13 -0.36
14 -0.36
15 -0.53
16 -0.57
17 0.28
18 0.28
19 0.28
2 -0.56
20 0.28
21 0.28
22 0.28
23 0.28
24 0.28
25 0.56
26 0.56
27 0.28
28 0.28
29 0.08
3 -0.68
30 0.08
31 0.08
32 0.08
33 -0.15
34 -0.15
35 -0.15
36 -0.15
37 -0.15
38 -0.15
39 0.03
4 -0.68
40 0.03
41 -0.18
42 -0.18
43 0.28
44 0.28
45 -0.15
46 -0.14
47 0.08
48 0.54
49 -0.14
5 -0.68
6 -0.68
64 0.4
65 0.4
66 0.4
67 0.4
68 0.4
69 0.4
7 -0.36
70 0.4
71 0.4
72 0.15
73 0.15
74 0.15
75 0.15
76 0.15
77 0.15
78 0.15
79 0.15
8 -0.36
86 0.15
87 0.15
88 0.15
89 0.45
9 -0.68

> <PUBCHEM_EFFECTIVE_ROTOR_COUNT>
15.4

> <PUBCHEM_PHARMACOPHORE_FEATURES>
28
1 1 acceptor
1 10 acceptor
1 10 donor
1 11 acceptor
1 11 donor
1 12 acceptor
1 12 donor
1 13 acceptor
1 14 acceptor
1 15 donor
1 16 acceptor
1 2 acceptor
1 3 acceptor
1 3 donor
1 4 acceptor
1 4 donor
1 5 acceptor
1 5 donor
1 6 acceptor
1 6 donor
1 7 acceptor
1 8 acceptor
1 9 acceptor
1 9 donor
6 1 17 19 21 23 25 rings
6 2 18 20 22 24 26 rings
6 29 31 33 35 37 39 rings
6 30 32 34 36 38 40 rings

> <PUBCHEM_HEAVY_ATOM_COUNT>
49

> <PUBCHEM_ATOM_DEF_STEREO_COUNT>
10

> <PUBCHEM_ATOM_UDEF_STEREO_COUNT>
0

> <PUBCHEM_BOND_DEF_STEREO_COUNT>
3

> <PUBCHEM_BOND_UDEF_STEREO_COUNT>
0

> <PUBCHEM_ISOTOPIC_ATOM_COUNT>
0

> <PUBCHEM_COMPONENT_COUNT>
1

> <PUBCHEM_CACTVS_TAUTO_COUNT>
2

> <PUBCHEM_CONFORMER_ID>
02C08F2500000006

> <PUBCHEM_MMFF94_ENERGY>
180.4385

> <PUBCHEM_FEATURE_SELFOVERLAP>
142.219

> <PUBCHEM_SHAPE_FINGERPRINT>
11061554 47 7637410618560472107
11672396 167 18343302569788548013
12013929 94 18409448098636315380
12498461 61 18186803570307725655
12559415 135 18113050545670544312
15145343 6 17603589630097702512
15247644 1 17988921146657855363
16728433 110 18131067109250387972
20580484 106 17313103056322494785
21102433 48 18410294713878663534
24893992 56 18410576185942255528
3430473 40 18187641448548026310
3986486 107 15913334611052838405
3991529 128 7276832390227861309
44389302 135 18187081775839203150

> <PUBCHEM_SHAPE_MULTIPOLES>
914.49
72.71
3.15
1.47
1.13
0.08
-0.53
26.33
-17.27
3.04
0.28
-3.05
0.26
-8.43

> <PUBCHEM_SHAPE_SELFOVERLAP>
1932.263

> <PUBCHEM_SHAPE_VOLUME>
506.4

> <PUBCHEM_COORDINATE_TYPE>
2
5
10

$$$$

