13941
  -OEChem-06241222412D

 47 47  0     0  0  0  0  0  0999 V2000
    7.7400    3.5605    0.0000 Br  0  5  0  0  0  0  0  0  0  0  0  0
    3.4860    3.6350    0.0000 O   0  0  0  0  0  0  0  0  0  0  0  0
    1.7540    3.6350    0.0000 O   0  0  0  0  0  0  0  0  0  0  0  0
    1.1200    6.0010    0.0000 O   0  0  0  0  0  0  0  0  0  0  0  0
    4.1200    6.0010    0.0000 N   0  3  0  0  0  0  0  0  0  0  0  0
    2.6200    5.1350    0.0000 C   0  0  0  0  0  0  0  0  0  0  0  0
    3.1200    6.0010    0.0000 C   0  0  0  0  0  0  0  0  0  0  0  0
    3.4860    4.6350    0.0000 C   0  0  0  0  0  0  0  0  0  0  0  0
    1.7540    4.6350    0.0000 C   0  0  0  0  0  0  0  0  0  0  0  0
    2.1200    6.0010    0.0000 C   0  0  0  0  0  0  0  0  0  0  0  0
    2.6200    3.1350    0.0000 C   0  0  0  0  0  0  0  0  0  0  0  0
    5.1200    6.0010    0.0000 C   0  0  0  0  0  0  0  0  0  0  0  0
    4.1200    7.0010    0.0000 C   0  0  0  0  0  0  0  0  0  0  0  0
    4.1200    5.0010    0.0000 C   0  0  0  0  0  0  0  0  0  0  0  0
    2.1200    2.2690    0.0000 C   0  0  0  0  0  0  0  0  0  0  0  0
    3.1200    2.2690    0.0000 C   0  0  0  0  0  0  0  0  0  0  0  0
    1.1200    2.2690    0.0000 C   0  0  0  0  0  0  0  0  0  0  0  0
    2.6200    1.4030    0.0000 C   0  0  0  0  0  0  0  0  0  0  0  0
    0.6200    1.4030    0.0000 C   0  0  0  0  0  0  0  0  0  0  0  0
    2.1200    0.5369    0.0000 C   0  0  0  0  0  0  0  0  0  0  0  0
    1.1200    0.5369    0.0000 C   0  0  0  0  0  0  0  0  0  0  0  0
    3.2277    6.6116    0.0000 H   0  0  0  0  0  0  0  0  0  0  0  0
    2.5374    6.2131    0.0000 H   0  0  0  0  0  0  0  0  0  0  0  0
    4.0966    4.5274    0.0000 H   0  0  0  0  0  0  0  0  0  0  0  0
    3.6981    5.2176    0.0000 H   0  0  0  0  0  0  0  0  0  0  0  0
    1.5419    5.2176    0.0000 H   0  0  0  0  0  0  0  0  0  0  0  0
    1.1434    4.5274    0.0000 H   0  0  0  0  0  0  0  0  0  0  0  0
    2.7026    6.2131    0.0000 H   0  0  0  0  0  0  0  0  0  0  0  0
    2.0123    6.6116    0.0000 H   0  0  0  0  0  0  0  0  0  0  0  0
    5.1200    5.3810    0.0000 H   0  0  0  0  0  0  0  0  0  0  0  0
    5.7400    6.0010    0.0000 H   0  0  0  0  0  0  0  0  0  0  0  0
    5.1200    6.6210    0.0000 H   0  0  0  0  0  0  0  0  0  0  0  0
    4.7400    7.0010    0.0000 H   0  0  0  0  0  0  0  0  0  0  0  0
    4.1200    7.6210    0.0000 H   0  0  0  0  0  0  0  0  0  0  0  0
    3.5000    7.0010    0.0000 H   0  0  0  0  0  0  0  0  0  0  0  0
    3.5000    5.0010    0.0000 H   0  0  0  0  0  0  0  0  0  0  0  0
    4.1200    4.3810    0.0000 H   0  0  0  0  0  0  0  0  0  0  0  0
    4.7400    5.0010    0.0000 H   0  0  0  0  0  0  0  0  0  0  0  0
    2.5831    1.9590    0.0000 H   0  0  0  0  0  0  0  0  0  0  0  0
    3.4300    1.7320    0.0000 H   0  0  0  0  0  0  0  0  0  0  0  0
    3.6569    2.5790    0.0000 H   0  0  0  0  0  0  0  0  0  0  0  0
    0.8100    6.5380    0.0000 H   0  0  0  0  0  0  0  0  0  0  0  0
    0.8100    2.8059    0.0000 H   0  0  0  0  0  0  0  0  0  0  0  0
    3.2400    1.4030    0.0000 H   0  0  0  0  0  0  0  0  0  0  0  0
    0.0000    1.4030    0.0000 H   0  0  0  0  0  0  0  0  0  0  0  0
    2.4300    0.0000    0.0000 H   0  0  0  0  0  0  0  0  0  0  0  0
    0.8100    0.0000    0.0000 H   0  0  0  0  0  0  0  0  0  0  0  0
  2  8  1  0  0  0  0
  2 11  1  0  0  0  0
  3  9  1  0  0  0  0
  3 11  1  0  0  0  0
  4 10  1  0  0  0  0
  4 42  1  0  0  0  0
  5  7  1  0  0  0  0
  5 12  1  0  0  0  0
  5 13  1  0  0  0  0
  5 14  1  0  0  0  0
  6  7  1  0  0  0  0
  6  8  1  0  0  0  0
  6  9  1  0  0  0  0
  6 10  1  0  0  0  0
  7 22  1  0  0  0  0
  7 23  1  0  0  0  0
  8 24  1  0  0  0  0
  8 25  1  0  0  0  0
  9 26  1  0  0  0  0
  9 27  1  0  0  0  0
 10 28  1  0  0  0  0
 10 29  1  0  0  0  0
 11 15  1  0  0  0  0
 11 16  1  0  0  0  0
 12 30  1  0  0  0  0
 12 31  1  0  0  0  0
 12 32  1  0  0  0  0
 13 33  1  0  0  0  0
 13 34  1  0  0  0  0
 13 35  1  0  0  0  0
 14 36  1  0  0  0  0
 14 37  1  0  0  0  0
 14 38  1  0  0  0  0
 15 17  2  0  0  0  0
 15 18  1  0  0  0  0
 16 39  1  0  0  0  0
 16 40  1  0  0  0  0
 16 41  1  0  0  0  0
 17 19  1  0  0  0  0
 17 43  1  0  0  0  0
 18 20  2  0  0  0  0
 18 44  1  0  0  0  0
 19 21  2  0  0  0  0
 19 45  1  0  0  0  0
 20 21  1  0  0  0  0
 20 46  1  0  0  0  0
 21 47  1  0  0  0  0
M  CHG  2   1  -1   5   1
M  END
> <PUBCHEM_COMPOUND_CID>
13941

> <PUBCHEM_COMPOUND_CANONICALIZED>
1

> <PUBCHEM_CACTVS_COMPLEXITY>
310

> <PUBCHEM_CACTVS_HBOND_ACCEPTOR>
4

> <PUBCHEM_CACTVS_HBOND_DONOR>
1

> <PUBCHEM_CACTVS_ROTATABLE_BOND>
4

> <PUBCHEM_CACTVS_SUBSKEYS>
AAADceB6MAAAEAAAAAAAAAAAAAAAAAAAAAA0QAAAAAAAAAABAAAAHgAACAAADgThmAYyCIMABgCAAiBCAAACAAAgAAAIiAAICIgYNiKAMRimcAAnwAEMqAeAwKAOAAAAAAAAAAAAAAAAAAAAAAAAAAAAAA==

> <PUBCHEM_IUPAC_OPENEYE_NAME>
[5-(hydroxymethyl)-2-methyl-2-phenyl-1,3-dioxan-5-yl]methyl-trimethyl-ammonium bromide

> <PUBCHEM_IUPAC_CAS_NAME>
[5-(hydroxymethyl)-2-methyl-2-phenyl-1,3-dioxan-5-yl]methyl-trimethylammonium bromide

> <PUBCHEM_IUPAC_NAME>
[5-(hydroxymethyl)-2-methyl-2-phenyl-1,3-dioxan-5-yl]methyl-trimethylazanium bromide

> <PUBCHEM_IUPAC_SYSTEMATIC_NAME>
[5-(hydroxymethyl)-2-methyl-2-phenyl-1,3-dioxan-5-yl]methyl-trimethyl-azanium bromide

> <PUBCHEM_IUPAC_TRADITIONAL_NAME>
trimethyl-[(2-methyl-5-methylol-2-phenyl-1,3-dioxan-5-yl)methyl]ammonium bromide

> <PUBCHEM_IUPAC_INCHI>
InChI=1S/C16H26NO3.BrH/c1-15(14-8-6-5-7-9-14)19-12-16(11-18,13-20-15)10-17(2,3)4;/h5-9,18H,10-13H2,1-4H3;1H/q+1;/p-1

> <PUBCHEM_IUPAC_INCHIKEY>
ZXAOAWDGSZABDD-UHFFFAOYSA-M

> <PUBCHEM_EXACT_MASS>
359.109606

> <PUBCHEM_MOLECULAR_FORMULA>
C16H26BrNO3

> <PUBCHEM_MOLECULAR_WEIGHT>
360.28654

> <PUBCHEM_OPENEYE_CAN_SMILES>
CC1(OCC(CO1)(C[N+](C)(C)C)CO)C2=CC=CC=C2.[Br-]

> <PUBCHEM_OPENEYE_ISO_SMILES>
CC1(OCC(CO1)(C[N+](C)(C)C)CO)C2=CC=CC=C2.[Br-]

> <PUBCHEM_CACTVS_TPSA>
38.7

> <PUBCHEM_MONOISOTOPIC_WEIGHT>
359.109606

> <PUBCHEM_TOTAL_CHARGE>
0

> <PUBCHEM_HEAVY_ATOM_COUNT>
21

> <PUBCHEM_ATOM_DEF_STEREO_COUNT>
0

> <PUBCHEM_ATOM_UDEF_STEREO_COUNT>
0

> <PUBCHEM_BOND_DEF_STEREO_COUNT>
0

> <PUBCHEM_BOND_UDEF_STEREO_COUNT>
0

> <PUBCHEM_ISOTOPIC_ATOM_COUNT>
0

> <PUBCHEM_COMPONENT_COUNT>
2

> <PUBCHEM_CACTVS_TAUTO_COUNT>
1

> <PUBCHEM_COORDINATE_TYPE>
1
5
255

> <PUBCHEM_BONDANNOTATIONS>
15  17  8
15  18  8
17  19  8
18  20  8
19  21  8
20  21  8

$$$$

