5281711
  -OEChem-07051212592D

 54 61  0     0  0  0  0  0  0999 V2000
    8.8274    0.5911    0.0000 O   0  0  0  0  0  0  0  0  0  0  0  0
    5.3125   -0.3884    0.0000 O   0  0  0  0  0  0  0  0  0  0  0  0
    6.9363   -3.5878    0.0000 O   0  0  0  0  0  0  0  0  0  0  0  0
    7.0675    3.6395    0.0000 O   0  0  0  0  0  0  0  0  0  0  0  0
    5.2208   -2.4080    0.0000 O   0  0  0  0  0  0  0  0  0  0  0  0
    8.7835    2.5980    0.0000 O   0  0  0  0  0  0  0  0  0  0  0  0
    9.8196   -0.2730    0.0000 O   0  0  0  0  0  0  0  0  0  0  0  0
    4.3399    0.4369    0.0000 O   0  0  0  0  0  0  0  0  0  0  0  0
   10.4749   -1.2585    0.0000 O   0  0  0  0  0  0  0  0  0  0  0  0
    3.7206    1.2625    0.0000 O   0  0  0  0  0  0  0  0  0  0  0  0
    6.1733    5.1672    0.0000 O   0  0  0  0  0  0  0  0  0  0  0  0
    7.8168   -5.1672    0.0000 O   0  0  0  0  0  0  0  0  0  0  0  0
   11.6673   -2.1163    0.0000 O   0  0  0  0  0  0  0  0  0  0  0  0
    2.5405    2.0587    0.0000 O   0  0  0  0  0  0  0  0  0  0  0  0
   11.6138   -4.2527    0.0000 O   0  0  0  0  0  0  0  0  0  0  0  0
    2.5244    4.1503    0.0000 O   0  0  0  0  0  0  0  0  0  0  0  0
    7.0514    0.5980    0.0000 C   0  0  0  0  0  0  0  0  0  0  0  0
    7.0354   -0.4435    0.0000 C   0  0  0  0  0  0  0  0  0  0  0  0
    7.9334   -0.9713    0.0000 C   0  0  0  0  0  0  0  0  0  0  0  0
    6.1854    1.0980    0.0000 C   0  0  0  0  0  0  0  0  0  0  0  0
    6.1854    2.0980    0.0000 C   0  0  0  0  0  0  0  0  0  0  0  0
    7.9073   -2.0128    0.0000 C   0  0  0  0  0  0  0  0  0  0  0  0
    6.1582   -0.9063    0.0000 C   0  0  0  0  0  0  0  0  0  0  0  0
    7.9174    1.0980    0.0000 C   0  0  0  0  0  0  0  0  0  0  0  0
    6.9885   -2.5038    0.0000 C   0  0  0  0  0  0  0  0  0  0  0  0
    7.0514    2.5980    0.0000 C   0  0  0  0  0  0  0  0  0  0  0  0
    7.9174    2.0980    0.0000 C   0  0  0  0  0  0  0  0  0  0  0  0
    6.1081   -1.9469    0.0000 C   0  0  0  0  0  0  0  0  0  0  0  0
    8.8376   -2.5715    0.0000 C   0  0  0  0  0  0  0  0  0  0  0  0
    5.2754    2.6048    0.0000 C   0  0  0  0  0  0  0  0  0  0  0  0
    5.3259    0.6032    0.0000 C   0  0  0  0  0  0  0  0  0  0  0  0
    8.8355   -0.4505    0.0000 C   0  0  0  0  0  0  0  0  0  0  0  0
    8.8104   -3.6564    0.0000 C   0  0  0  0  0  0  0  0  0  0  0  0
    5.2674    3.6464    0.0000 C   0  0  0  0  0  0  0  0  0  0  0  0
    4.3486    2.0408    0.0000 C   0  0  0  0  0  0  0  0  0  0  0  0
    9.8219   -2.0158    0.0000 C   0  0  0  0  0  0  0  0  0  0  0  0
    6.1694    4.1672    0.0000 C   0  0  0  0  0  0  0  0  0  0  0  0
    7.8534   -4.1679    0.0000 C   0  0  0  0  0  0  0  0  0  0  0  0
    9.7657   -4.2607    0.0000 C   0  0  0  0  0  0  0  0  0  0  0  0
    4.3319    4.1962    0.0000 C   0  0  0  0  0  0  0  0  0  0  0  0
    3.4007    2.5687    0.0000 C   0  0  0  0  0  0  0  0  0  0  0  0
   10.7909   -2.5979    0.0000 C   0  0  0  0  0  0  0  0  0  0  0  0
   10.7626   -3.7279    0.0000 C   0  0  0  0  0  0  0  0  0  0  0  0
    3.3923    3.6537    0.0000 C   0  0  0  0  0  0  0  0  0  0  0  0
    4.3343    4.8162    0.0000 H   0  0  0  0  0  0  0  0  0  0  0  0
    9.7430   -4.8803    0.0000 H   0  0  0  0  0  0  0  0  0  0  0  0
    8.7835    3.2180    0.0000 H   0  0  0  0  0  0  0  0  0  0  0  0
    5.1933   -3.0274    0.0000 H   0  0  0  0  0  0  0  0  0  0  0  0
    3.1081    1.3583    0.0000 H   0  0  0  0  0  0  0  0  0  0  0  0
   11.0840   -1.3744    0.0000 H   0  0  0  0  0  0  0  0  0  0  0  0
    2.0000    2.3625    0.0000 H   0  0  0  0  0  0  0  0  0  0  0  0
   12.1975   -2.4376    0.0000 H   0  0  0  0  0  0  0  0  0  0  0  0
    2.5220    4.7703    0.0000 H   0  0  0  0  0  0  0  0  0  0  0  0
   11.5959   -4.8724    0.0000 H   0  0  0  0  0  0  0  0  0  0  0  0
  1 24  1  0  0  0  0
  1 32  1  0  0  0  0
  2 23  1  0  0  0  0
  2 31  1  0  0  0  0
  3 25  1  0  0  0  0
  3 38  1  0  0  0  0
  4 26  1  0  0  0  0
  4 37  1  0  0  0  0
  5 28  1  0  0  0  0
  5 48  1  0  0  0  0
  6 27  1  0  0  0  0
  6 47  1  0  0  0  0
  7 32  2  0  0  0  0
  8 31  2  0  0  0  0
  9 36  1  0  0  0  0
  9 50  1  0  0  0  0
 10 35  1  0  0  0  0
 10 49  1  0  0  0  0
 11 37  2  0  0  0  0
 12 38  2  0  0  0  0
 13 42  1  0  0  0  0
 13 52  1  0  0  0  0
 14 41  1  0  0  0  0
 14 51  1  0  0  0  0
 15 43  1  0  0  0  0
 15 54  1  0  0  0  0
 16 44  1  0  0  0  0
 16 53  1  0  0  0  0
 17 18  1  0  0  0  0
 17 20  1  0  0  0  0
 17 24  2  0  0  0  0
 18 19  1  0  0  0  0
 18 23  2  0  0  0  0
 19 22  2  0  0  0  0
 19 32  1  0  0  0  0
 20 21  2  0  0  0  0
 20 31  1  0  0  0  0
 21 26  1  0  0  0  0
 21 30  1  0  0  0  0
 22 25  1  0  0  0  0
 22 29  1  0  0  0  0
 23 28  1  0  0  0  0
 24 27  1  0  0  0  0
 25 28  2  0  0  0  0
 26 27  2  0  0  0  0
 29 33  1  0  0  0  0
 29 36  2  0  0  0  0
 30 34  1  0  0  0  0
 30 35  2  0  0  0  0
 33 38  1  0  0  0  0
 33 39  2  0  0  0  0
 34 37  1  0  0  0  0
 34 40  2  0  0  0  0
 35 41  1  0  0  0  0
 36 42  1  0  0  0  0
 39 43  1  0  0  0  0
 39 46  1  0  0  0  0
 40 44  1  0  0  0  0
 40 45  1  0  0  0  0
 41 44  2  0  0  0  0
 42 43  2  0  0  0  0
M  END
> <PUBCHEM_COMPOUND_CID>
5281711

> <PUBCHEM_COMPOUND_CANONICALIZED>
1

> <PUBCHEM_CACTVS_COMPLEXITY>
1190

> <PUBCHEM_CACTVS_HBOND_ACCEPTOR>
16

> <PUBCHEM_CACTVS_HBOND_DONOR>
8

> <PUBCHEM_CACTVS_ROTATABLE_BOND>
0

> <PUBCHEM_CACTVS_SUBSKEYS>
AAADccB4PgAAAAAAAAAAAAAAAAAAAAAAAAA0aNGiAAAAAACRVAAAGgAACAAADASAmAAwDoAABgCIAiDSCAACCAAkIAAAiAEGiMgNJzKGNBqCeyOlwBULuYfK7PzOoAADCAAYQABAAAYQADCAAAAAAAAAAA==

> <PUBCHEM_IUPAC_INCHI>
InChI=1S/C28H10O16/c29-5-1-3-7(17(33)15(5)31)9-13-11-12-14(28(40)44-23(11)19(35)21(9)41-25(3)37)10-8-4(2-6(30)16(32)18(8)34)26(38)42-22(10)20(36)24(12)43-27(13)39/h1-2,29-36H

> <PUBCHEM_IUPAC_INCHIKEY>
UGAJKWZVPNVCIO-UHFFFAOYSA-N

> <PUBCHEM_XLOGP3_AA>
1.9

> <PUBCHEM_EXACT_MASS>
601.996884

> <PUBCHEM_MOLECULAR_FORMULA>
C28H10O16

> <PUBCHEM_MOLECULAR_WEIGHT>
602.3694

> <PUBCHEM_OPENEYE_CAN_SMILES>
C1=C2C(=C(C(=C1O)O)O)C3=C(C(=C4C5=C3C(=O)OC6=C(C7=C(C8=C(C(=C(C=C8C(=O)O7)O)O)O)C(=C56)C(=O)O4)O)O)OC2=O

> <PUBCHEM_OPENEYE_ISO_SMILES>
C1=C2C(=C(C(=C1O)O)O)C3=C(C(=C4C5=C3C(=O)OC6=C(C7=C(C8=C(C(=C(C=C8C(=O)O7)O)O)O)C(=C56)C(=O)O4)O)O)OC2=O

> <PUBCHEM_CACTVS_TPSA>
267

> <PUBCHEM_MONOISOTOPIC_WEIGHT>
601.996884

> <PUBCHEM_TOTAL_CHARGE>
0

> <PUBCHEM_HEAVY_ATOM_COUNT>
44

> <PUBCHEM_ATOM_DEF_STEREO_COUNT>
0

> <PUBCHEM_ATOM_UDEF_STEREO_COUNT>
0

> <PUBCHEM_BOND_DEF_STEREO_COUNT>
0

> <PUBCHEM_BOND_UDEF_STEREO_COUNT>
0

> <PUBCHEM_ISOTOPIC_ATOM_COUNT>
0

> <PUBCHEM_COMPONENT_COUNT>
1

> <PUBCHEM_CACTVS_TAUTO_COUNT>
992

> <PUBCHEM_COORDINATE_TYPE>
1
5
255

> <PUBCHEM_BONDANNOTATIONS>
1  24  8
1  32  8
17  18  8
17  20  8
17  24  8
18  19  8
18  23  8
19  22  8
19  32  8
2  23  8
2  31  8
20  21  8
20  31  8
21  26  8
21  30  8
22  25  8
22  29  8
23  28  8
24  27  8
25  28  8
26  27  8
29  33  8
29  36  8
3  25  8
3  38  8
30  34  8
30  35  8
33  38  8
33  39  8
34  37  8
34  40  8
35  41  8
36  42  8
39  43  8
4  26  8
4  37  8
40  44  8
41  44  8
42  43  8

$$$$

