244949
  -OEChem-07051213063D

 39 41  0     1  0  0  0  0  0999 V2000
   -0.5702   -0.7376   -0.2611 O   0  0  0  0  0  0  0  0  0  0  0  0
    3.4076    2.0384   -0.1236 O   0  0  0  0  0  0  0  0  0  0  0  0
    1.0210    3.0431   -0.1956 O   0  0  0  0  0  0  0  0  0  0  0  0
    3.7343   -2.7103   -0.3185 O   0  0  0  0  0  0  0  0  0  0  0  0
    4.9307   -0.2218   -0.1862 O   0  0  0  0  0  0  0  0  0  0  0  0
   -6.8357   -0.7457   -0.0822 O   0  0  0  0  0  0  0  0  0  0  0  0
   -1.2947    0.3534    0.3284 C   0  0  1  0  0  0  0  0  0  0  0  0
   -0.9436    1.6753   -0.3520 C   0  0  0  0  0  0  0  0  0  0  0  0
    1.3903    0.7112   -0.1966 C   0  0  0  0  0  0  0  0  0  0  0  0
    0.5376    1.9176   -0.2208 C   0  0  0  0  0  0  0  0  0  0  0  0
    0.7877   -0.5494   -0.2410 C   0  0  0  0  0  0  0  0  0  0  0  0
   -2.7760    0.0598    0.2185 C   0  0  0  0  0  0  0  0  0  0  0  0
    2.7824    0.8277   -0.1733 C   0  0  0  0  0  0  0  0  0  0  0  0
    1.5811   -1.6959   -0.2967 C   0  0  0  0  0  0  0  0  0  0  0  0
    3.5704   -0.3234   -0.2086 C   0  0  0  0  0  0  0  0  0  0  0  0
    2.9715   -1.5820   -0.2749 C   0  0  0  0  0  0  0  0  0  0  0  0
   -3.5411   -0.1033    1.3726 C   0  0  0  0  0  0  0  0  0  0  0  0
   -3.3735   -0.0474   -1.0369 C   0  0  0  0  0  0  0  0  0  0  0  0
   -4.9057   -0.3740    1.2713 C   0  0  0  0  0  0  0  0  0  0  0  0
   -4.7381   -0.3180   -1.1382 C   0  0  0  0  0  0  0  0  0  0  0  0
   -5.5043   -0.4813    0.0160 C   0  0  0  0  0  0  0  0  0  0  0  0
    3.6865    2.5697    1.1696 C   0  0  0  0  0  0  0  0  0  0  0  0
    4.0815   -3.3062    0.9297 C   0  0  0  0  0  0  0  0  0  0  0  0
   -1.0186    0.4005    1.3922 H   0  0  0  0  0  0  0  0  0  0  0  0
   -1.4817    2.5034    0.1229 H   0  0  0  0  0  0  0  0  0  0  0  0
   -1.1702    1.6731   -1.4241 H   0  0  0  0  0  0  0  0  0  0  0  0
    1.1174   -2.6781   -0.3469 H   0  0  0  0  0  0  0  0  0  0  0  0
   -3.0894   -0.0227    2.3576 H   0  0  0  0  0  0  0  0  0  0  0  0
   -2.7920    0.0647   -1.9477 H   0  0  0  0  0  0  0  0  0  0  0  0
   -5.4972   -0.5004    2.1740 H   0  0  0  0  0  0  0  0  0  0  0  0
   -5.1920   -0.4018   -2.1220 H   0  0  0  0  0  0  0  0  0  0  0  0
    5.3107   -1.1137   -0.2642 H   0  0  0  0  0  0  0  0  0  0  0  0
    4.5061    2.0135    1.6350 H   0  0  0  0  0  0  0  0  0  0  0  0
    2.8035    2.5362    1.8160 H   0  0  0  0  0  0  0  0  0  0  0  0
    3.9951    3.6121    1.0526 H   0  0  0  0  0  0  0  0  0  0  0  0
    3.1828   -3.6539    1.4489 H   0  0  0  0  0  0  0  0  0  0  0  0
    4.6285   -2.5985    1.5607 H   0  0  0  0  0  0  0  0  0  0  0  0
    4.7254   -4.1672    0.7309 H   0  0  0  0  0  0  0  0  0  0  0  0
   -7.0804   -0.7855   -1.0227 H   0  0  0  0  0  0  0  0  0  0  0  0
  1  7  1  0  0  0  0
  1 11  1  0  0  0  0
  2 13  1  0  0  0  0
  2 22  1  0  0  0  0
  3 10  2  0  0  0  0
  4 16  1  0  0  0  0
  4 23  1  0  0  0  0
  5 15  1  0  0  0  0
  5 32  1  0  0  0  0
  6 21  1  0  0  0  0
  6 39  1  0  0  0  0
  7  8  1  0  0  0  0
  7 12  1  0  0  0  0
  7 24  1  0  0  0  0
  8 10  1  0  0  0  0
  8 25  1  0  0  0  0
  8 26  1  0  0  0  0
  9 10  1  0  0  0  0
  9 11  1  0  0  0  0
  9 13  2  0  0  0  0
 11 14  2  0  0  0  0
 12 17  2  0  0  0  0
 12 18  1  0  0  0  0
 13 15  1  0  0  0  0
 14 16  1  0  0  0  0
 14 27  1  0  0  0  0
 15 16  2  0  0  0  0
 17 19  1  0  0  0  0
 17 28  1  0  0  0  0
 18 20  2  0  0  0  0
 18 29  1  0  0  0  0
 19 21  2  0  0  0  0
 19 30  1  0  0  0  0
 20 21  1  0  0  0  0
 20 31  1  0  0  0  0
 22 33  1  0  0  0  0
 22 34  1  0  0  0  0
 22 35  1  0  0  0  0
 23 36  1  0  0  0  0
 23 37  1  0  0  0  0
 23 38  1  0  0  0  0
M  END
> <PUBCHEM_COMPOUND_CID>
244949

> <PUBCHEM_CONFORMER_RMSD>
0.6

> <PUBCHEM_CONFORMER_DIVERSEORDER>
2
7
4
5
11
3
8
10
1
9
6

> <PUBCHEM_MMFF94_PARTIAL_CHARGES>
30
1 -0.36
10 0.42
11 0.08
12 -0.14
13 0.08
14 -0.15
15 0.08
16 0.08
17 -0.15
18 -0.15
19 -0.15
2 -0.36
20 -0.15
21 0.08
22 0.28
23 0.28
27 0.15
28 0.15
29 0.15
3 -0.57
30 0.15
31 0.15
32 0.45
39 0.45
4 -0.36
5 -0.53
6 -0.53
7 0.42
8 0.06
9 0.09

> <PUBCHEM_EFFECTIVE_ROTOR_COUNT>
3.6

> <PUBCHEM_PHARMACOPHORE_FEATURES>
9
1 1 acceptor
1 2 acceptor
1 3 acceptor
1 4 acceptor
1 5 donor
1 6 donor
6 1 7 8 9 10 11 rings
6 12 17 18 19 20 21 rings
6 9 11 13 14 15 16 rings

> <PUBCHEM_HEAVY_ATOM_COUNT>
23

> <PUBCHEM_ATOM_DEF_STEREO_COUNT>
0

> <PUBCHEM_ATOM_UDEF_STEREO_COUNT>
1

> <PUBCHEM_BOND_DEF_STEREO_COUNT>
0

> <PUBCHEM_BOND_UDEF_STEREO_COUNT>
0

> <PUBCHEM_ISOTOPIC_ATOM_COUNT>
0

> <PUBCHEM_COMPONENT_COUNT>
1

> <PUBCHEM_CACTVS_TAUTO_COUNT>
12

> <PUBCHEM_CONFORMER_ID>
0003BCD500000002

> <PUBCHEM_MMFF94_ENERGY>
88.0074

> <PUBCHEM_FEATURE_SELFOVERLAP>
45.711

> <PUBCHEM_SHAPE_FINGERPRINT>
10366900 7 18270667736730564112
10411042 1 18194401319698720790
10622 236 17897191077464654127
10912923 1 17676482835686745211
11796584 16 16773794792519441731
12107183 9 17900809767704331105
12236239 1 17749104457899443453
12403259 226 18196940083282780036
12553582 1 18335982090195832710
12616971 3 18040721381130214447
12670546 56 17894344463171004225
13073987 5 18408037404164853897
13134695 92 18411138034875424693
13140716 1 17977386036372820896
13533116 47 18334856108726237707
13540713 4 18196670677159409748
13540713 5 18053648459918697396
13544653 18 18343014536375079581
13782708 43 17632286845117568691
13862211 1 18410574024455367190
13911852 28 18195528318552961634
13955234 65 18408609132572265152
14386348 63 17989485200127201059
14739800 52 16805898294419967336
14790565 3 17764299549191875620
15142526 21 17172665557941931680
15196674 1 18339641260270529885
15475509 84 17897153835111913057
15961568 22 16343133611323113716
17349148 13 18040433304667521711
17492 89 18051977223403647594
17844677 252 18409724084813535925
1813 80 18189320415772165229
18222031 100 18261390095742971390
200 152 18333733537693277853
20028762 73 18187086195403255599
20511986 3 17749682809315704149
20645477 70 18341897393822339247
21033648 29 17988936556725940197
21065198 48 18113327622917319785
21065201 7 16917350359452507043
21267235 1 18335975437085373014
21279426 13 18129668646275618125
21285901 2 17846503638203687205
21641784 216 17986933289253007372
221357 26 18272093820734466381
221490 88 18341050834499189644
22182313 1 18200049420171836428
22224240 67 18117005390649815328
23559900 14 17704066313298344530
239999 70 17846498102112141936
2871803 45 18131068276752965643
314194 84 18410291423859764139
33824 294 18410294679587016064
3411729 13 15358841997301730387
3421961 26 18411138060602672930
345986 75 17968660530963582216
34797466 226 16487244457450562055
4073 2 18200870657248536555
42630746 31 18334013852649276796
46194498 28 17418088785211569703
465052 167 18334852844145554143
474 4 18190461545517605145
5104073 3 18336829817633607585
5281201 14 18060416936960169973
5283173 99 17987808535179502789
602551 16 14923949994678619533
7288768 16 16304899082700253256
7970288 3 18267868465726126571

> <PUBCHEM_SHAPE_MULTIPOLES>
438.11
12.14
2.81
1.01
14.07
0.05
0.2
4.83
1.07
-5.46
0.47
0.71
0.03
0.15

> <PUBCHEM_SHAPE_SELFOVERLAP>
960.523

> <PUBCHEM_SHAPE_VOLUME>
237

> <PUBCHEM_COORDINATE_TYPE>
2
5
10

$$$$

