46173925
  -OEChem-07051213102D

 48 52  0     1  0  0  0  0  0999 V2000
    8.6622    1.1957    0.0000 O   0  0  0  0  0  0  0  0  0  0  0  0
    3.5425   -1.8386    0.0000 O   0  0  0  0  0  0  0  0  0  0  0  0
    7.3478    3.8864    0.0000 O   0  0  0  0  0  0  0  0  0  0  0  0
    9.7870    2.6616    0.0000 O   0  0  0  0  0  0  0  0  0  0  0  0
    2.0000   -0.8951    0.0000 O   0  0  0  0  0  0  0  0  0  0  0  0
    6.3523   -3.7591    0.0000 O   0  0  0  0  0  0  0  0  0  0  0  0
    5.0982    0.9545    0.0000 C   0  0  1  0  0  0  0  0  0  0  0  0
    4.5982    1.8205    0.0000 C   0  0  2  0  0  0  0  0  0  0  0  0
    4.5913    0.0445    0.0000 C   0  0  2  0  0  0  0  0  0  0  0  0
    3.5497    0.0365    0.0000 C   0  0  1  0  0  0  0  0  0  0  0  0
    3.5567    1.8366    0.0000 C   0  0  0  0  0  0  0  0  0  0  0  0
    7.0890    2.9204    0.0000 C   0  0  2  0  0  0  0  0  0  0  0  0
    6.8302    1.9545    0.0000 C   0  0  2  0  0  0  0  0  0  0  0  0
    3.0289    0.9386    0.0000 C   0  0  0  0  0  0  0  0  0  0  0  0
    5.1554   -0.8823    0.0000 C   0  0  0  0  0  0  0  0  0  0  0  0
    4.0982    2.6866    0.0000 C   0  0  0  0  0  0  0  0  0  0  0  0
    5.5336   -0.2903    0.0000 C   0  0  0  0  0  0  0  0  0  0  0  0
    6.7184    4.2691    0.0000 C   0  0  0  0  0  0  0  0  0  0  0  0
    5.8524    3.7691    0.0000 C   0  0  0  0  0  0  0  0  0  0  0  0
    4.6274   -1.8302    0.0000 C   0  0  2  0  0  0  0  0  0  0  0  0
    8.9210    2.1616    0.0000 C   0  0  0  0  0  0  0  0  0  0  0  0
    3.0000   -0.8989    0.0000 C   0  0  0  0  0  0  0  0  0  0  0  0
    5.1374   -2.6904    0.0000 C   0  0  0  0  0  0  0  0  0  0  0  0
    4.7413   -3.6086    0.0000 C   0  0  0  0  0  0  0  0  0  0  0  0
    6.1331   -2.7834    0.0000 C   0  0  0  0  0  0  0  0  0  0  0  0
    5.4921   -4.2691    0.0000 C   0  0  0  0  0  0  0  0  0  0  0  0
    5.7493    0.4081    0.0000 H   0  0  0  0  0  0  0  0  0  0  0  0
    2.6997    0.0398    0.0000 H   0  0  0  0  0  0  0  0  0  0  0  0
    3.6722    2.4457    0.0000 H   0  0  0  0  0  0  0  0  0  0  0  0
    2.9763    2.0546    0.0000 H   0  0  0  0  0  0  0  0  0  0  0  0
    6.6102    1.1335    0.0000 H   0  0  0  0  0  0  0  0  0  0  0  0
    2.5560    1.3395    0.0000 H   0  0  0  0  0  0  0  0  0  0  0  0
    2.5529    0.5413    0.0000 H   0  0  0  0  0  0  0  0  0  0  0  0
    5.6374   -1.2723    0.0000 H   0  0  0  0  0  0  0  0  0  0  0  0
    5.6220   -0.4741    0.0000 H   0  0  0  0  0  0  0  0  0  0  0  0
    4.6351    2.9966    0.0000 H   0  0  0  0  0  0  0  0  0  0  0  0
    3.7882    3.2235    0.0000 H   0  0  0  0  0  0  0  0  0  0  0  0
    3.5612    2.3766    0.0000 H   0  0  0  0  0  0  0  0  0  0  0  0
    5.3261   -0.8745    0.0000 H   0  0  0  0  0  0  0  0  0  0  0  0
    6.1178   -0.4978    0.0000 H   0  0  0  0  0  0  0  0  0  0  0  0
    5.7412    0.2940    0.0000 H   0  0  0  0  0  0  0  0  0  0  0  0
    6.9539    4.8426    0.0000 H   0  0  0  0  0  0  0  0  0  0  0  0
    5.2560    3.9383    0.0000 H   0  0  0  0  0  0  0  0  0  0  0  0
    4.3226   -2.3701    0.0000 H   0  0  0  0  0  0  0  0  0  0  0  0
    7.9467    4.0468    0.0000 H   0  0  0  0  0  0  0  0  0  0  0  0
    4.1364   -3.7445    0.0000 H   0  0  0  0  0  0  0  0  0  0  0  0
    6.5426   -2.3179    0.0000 H   0  0  0  0  0  0  0  0  0  0  0  0
    5.4344   -4.8864    0.0000 H   0  0  0  0  0  0  0  0  0  0  0  0
  1 13  1  0  0  0  0
  1 21  1  0  0  0  0
  2 20  1  0  0  0  0
  2 22  1  0  0  0  0
 12  3  1  6  0  0  0
  3 45  1  0  0  0  0
  4 21  2  0  0  0  0
  5 22  2  0  0  0  0
  6 25  1  0  0  0  0
  6 26  1  0  0  0  0
  7  8  1  0  0  0  0
  7  9  1  0  0  0  0
  7 13  1  0  0  0  0
  7 27  1  1  0  0  0
  8 11  1  0  0  0  0
  8 12  1  0  0  0  0
  8 16  1  1  0  0  0
  9 10  1  0  0  0  0
  9 15  1  0  0  0  0
  9 17  1  6  0  0  0
 10 14  1  0  0  0  0
 10 22  1  0  0  0  0
 10 28  1  1  0  0  0
 11 14  1  0  0  0  0
 11 29  1  0  0  0  0
 11 30  1  0  0  0  0
 12 18  1  0  0  0  0
 12 21  1  0  0  0  0
 13 19  1  0  0  0  0
 13 31  1  1  0  0  0
 14 32  1  0  0  0  0
 14 33  1  0  0  0  0
 15 20  1  0  0  0  0
 15 34  1  0  0  0  0
 15 35  1  0  0  0  0
 16 36  1  0  0  0  0
 16 37  1  0  0  0  0
 16 38  1  0  0  0  0
 17 39  1  0  0  0  0
 17 40  1  0  0  0  0
 17 41  1  0  0  0  0
 18 19  2  0  0  0  0
 18 42  1  0  0  0  0
 19 43  1  0  0  0  0
 20 23  1  6  0  0  0
 20 44  1  0  0  0  0
 23 24  1  0  0  0  0
 23 25  2  0  0  0  0
 24 26  2  0  0  0  0
 24 46  1  0  0  0  0
 25 47  1  0  0  0  0
 26 48  1  0  0  0  0
M  END
> <PUBCHEM_COMPOUND_CID>
46173925

> <PUBCHEM_COMPOUND_CANONICALIZED>
1

> <PUBCHEM_CACTVS_COMPLEXITY>
702

> <PUBCHEM_CACTVS_HBOND_ACCEPTOR>
6

> <PUBCHEM_CACTVS_HBOND_DONOR>
1

> <PUBCHEM_CACTVS_ROTATABLE_BOND>
1

> <PUBCHEM_CACTVS_SUBSKEYS>
AAADceB4OAAAAAAAAAAAAAAAAAAAASAAAAA0SIECAAAAAACRgAAAGgAACAAAD1SgmAIyDIAABkCIAijSiAICCAAkIAAIiAFGCMgNJxYENQqCWSCl4BELOYPK7PzPgAAAAAAAAACAAAQAACAAAAAAAAAAAA==

> <PUBCHEM_IUPAC_INCHI>
InChI=1S/C20H22O6/c1-18-9-14(11-5-8-24-10-11)25-16(21)12(18)3-6-19(2)15(18)13-4-7-20(19,23)17(22)26-13/h4-5,7-8,10,12-15,23H,3,6,9H2,1-2H3/t12-,13-,14+,15+,18-,19-,20+/m0/s1

> <PUBCHEM_IUPAC_INCHIKEY>
AALLCALQGXXWNA-VBFYFJBNSA-N

> <PUBCHEM_XLOGP3_AA>
2.2

> <PUBCHEM_EXACT_MASS>
358.141638

> <PUBCHEM_MOLECULAR_FORMULA>
C20H22O6

> <PUBCHEM_MOLECULAR_WEIGHT>
358.38508

> <PUBCHEM_OPENEYE_CAN_SMILES>
CC12CCC3C(=O)OC(CC3(C1C4C=CC2(C(=O)O4)O)C)C5=COC=C5

> <PUBCHEM_OPENEYE_ISO_SMILES>
C[C@]12CC[C@H]3C(=O)O[C@H](C[C@@]3([C@H]1[C@@H]4C=C[C@]2(C(=O)O4)O)C)C5=COC=C5

> <PUBCHEM_CACTVS_TPSA>
86

> <PUBCHEM_MONOISOTOPIC_WEIGHT>
358.141638

> <PUBCHEM_TOTAL_CHARGE>
0

> <PUBCHEM_HEAVY_ATOM_COUNT>
26

> <PUBCHEM_ATOM_DEF_STEREO_COUNT>
7

> <PUBCHEM_ATOM_UDEF_STEREO_COUNT>
0

> <PUBCHEM_BOND_DEF_STEREO_COUNT>
0

> <PUBCHEM_BOND_UDEF_STEREO_COUNT>
0

> <PUBCHEM_ISOTOPIC_ATOM_COUNT>
0

> <PUBCHEM_COMPONENT_COUNT>
1

> <PUBCHEM_CACTVS_TAUTO_COUNT>
2

> <PUBCHEM_COORDINATE_TYPE>
1
5
255

> <PUBCHEM_BONDANNOTATIONS>
10  28  5
13  31  5
20  23  6
23  24  8
23  25  8
24  26  8
12  3  6
6  25  8
6  26  8
7  27  5
8  16  5
9  17  6

$$$$

