65074
  -OEChem-07051212503D

 31 32  0     1  0  0  0  0  0999 V2000
   -2.5386    0.2973    1.9835 O   0  0  0  0  0  0  0  0  0  0  0  0
   -2.8942    0.0226   -1.6491 O   0  0  0  0  0  0  0  0  0  0  0  0
   -5.2503   -1.2816   -0.9439 O   0  0  0  0  0  0  0  0  0  0  0  0
    1.3541   -2.5062    0.5270 O   0  0  0  0  0  0  0  0  0  0  0  0
    1.0028    2.1298   -0.1953 N   0  0  0  0  0  0  0  0  0  0  0  0
   -0.2345   -0.2847    0.4217 N   0  0  0  0  0  0  0  0  0  0  0  0
    3.1037    0.9473   -0.3485 N   0  0  0  0  0  0  0  0  0  0  0  0
    3.2832   -1.3748    0.0130 N   0  0  0  0  0  0  0  0  0  0  0  0
    5.1611   -0.0643   -0.5244 N   0  0  0  0  0  0  0  0  0  0  0  0
   -2.4325    0.6867    0.6245 C   0  0  1  0  0  0  0  0  0  0  0  0
   -0.9528    0.7966    0.3563 C   0  0  0  0  0  0  0  0  0  0  0  0
   -3.1404   -0.3128   -0.2816 C   0  0  1  0  0  0  0  0  0  0  0  0
   -0.4188    2.1771    0.0260 C   0  0  0  0  0  0  0  0  0  0  0  0
    1.7469    0.9748   -0.1253 C   0  0  0  0  0  0  0  0  0  0  0  0
    1.1133   -0.1785    0.1759 C   0  0  0  0  0  0  0  0  0  0  0  0
   -4.6471   -0.3592   -0.0417 C   0  0  0  0  0  0  0  0  0  0  0  0
    1.9214   -1.4506    0.2547 C   0  0  0  0  0  0  0  0  0  0  0  0
    3.8228   -0.2194   -0.2726 C   0  0  0  0  0  0  0  0  0  0  0  0
   -2.8869    1.6779    0.5085 H   0  0  0  0  0  0  0  0  0  0  0  0
   -2.7346   -1.3206   -0.1282 H   0  0  0  0  0  0  0  0  0  0  0  0
   -0.9256    2.5445   -0.8719 H   0  0  0  0  0  0  0  0  0  0  0  0
   -0.6461    2.8508    0.8581 H   0  0  0  0  0  0  0  0  0  0  0  0
    1.4997    2.9839   -0.4232 H   0  0  0  0  0  0  0  0  0  0  0  0
   -5.0966    0.6216   -0.2298 H   0  0  0  0  0  0  0  0  0  0  0  0
   -4.8776   -0.6705    0.9817 H   0  0  0  0  0  0  0  0  0  0  0  0
    3.5491    1.8300   -0.5726 H   0  0  0  0  0  0  0  0  0  0  0  0
   -2.2119    1.0336    2.5288 H   0  0  0  0  0  0  0  0  0  0  0  0
   -3.3665   -0.6267   -2.1979 H   0  0  0  0  0  0  0  0  0  0  0  0
   -6.2052   -1.2758   -0.7606 H   0  0  0  0  0  0  0  0  0  0  0  0
    5.5566    0.8433   -0.7444 H   0  0  0  0  0  0  0  0  0  0  0  0
    5.7954   -0.8552   -0.4981 H   0  0  0  0  0  0  0  0  0  0  0  0
  1 10  1  0  0  0  0
  1 27  1  0  0  0  0
  2 12  1  0  0  0  0
  2 28  1  0  0  0  0
  3 16  1  0  0  0  0
  3 29  1  0  0  0  0
  4 17  2  0  0  0  0
  5 13  1  0  0  0  0
  5 14  1  0  0  0  0
  5 23  1  0  0  0  0
  6 11  2  0  0  0  0
  6 15  1  0  0  0  0
  7 14  1  0  0  0  0
  7 18  1  0  0  0  0
  7 26  1  0  0  0  0
  8 17  1  0  0  0  0
  8 18  2  0  0  0  0
  9 18  1  0  0  0  0
  9 30  1  0  0  0  0
  9 31  1  0  0  0  0
 10 11  1  0  0  0  0
 10 12  1  0  0  0  0
 10 19  1  0  0  0  0
 11 13  1  0  0  0  0
 12 16  1  0  0  0  0
 12 20  1  0  0  0  0
 13 21  1  0  0  0  0
 13 22  1  0  0  0  0
 14 15  2  0  0  0  0
 15 17  1  0  0  0  0
 16 24  1  0  0  0  0
 16 25  1  0  0  0  0
M  END
> <PUBCHEM_COMPOUND_CID>
65074

> <PUBCHEM_CONFORMER_RMSD>
0.6

> <PUBCHEM_CONFORMER_DIVERSEORDER>
2
21
11
7
14
23
19
3
5
13
10
22
15
9
12
17
1
4
20
6
16
8
18

> <PUBCHEM_MMFF94_PARTIAL_CHARGES>
25
1 -0.68
10 0.34
11 0.33
12 0.28
13 0.43
14 0.2
15 0.19
16 0.28
17 0.77
18 0.55
2 -0.68
23 0.4
26 0.4
27 0.4
28 0.4
29 0.4
3 -0.68
30 0.4
31 0.4
4 -0.57
5 -0.87
6 -0.62
7 -0.55
8 -0.66
9 -0.85

> <PUBCHEM_EFFECTIVE_ROTOR_COUNT>
3.4

> <PUBCHEM_PHARMACOPHORE_FEATURES>
15
1 1 acceptor
1 1 donor
1 2 acceptor
1 2 donor
1 3 acceptor
1 3 donor
1 4 acceptor
1 5 cation
1 5 donor
1 6 acceptor
1 7 donor
1 8 donor
1 9 donor
6 5 6 11 13 14 15 rings
6 7 8 14 15 17 18 rings

> <PUBCHEM_HEAVY_ATOM_COUNT>
18

> <PUBCHEM_ATOM_DEF_STEREO_COUNT>
2

> <PUBCHEM_ATOM_UDEF_STEREO_COUNT>
0

> <PUBCHEM_BOND_DEF_STEREO_COUNT>
0

> <PUBCHEM_BOND_UDEF_STEREO_COUNT>
0

> <PUBCHEM_ISOTOPIC_ATOM_COUNT>
0

> <PUBCHEM_COMPONENT_COUNT>
1

> <PUBCHEM_CACTVS_TAUTO_COUNT>
78

> <PUBCHEM_CONFORMER_ID>
0000FE3200000002

> <PUBCHEM_MMFF94_ENERGY>
51.2629

> <PUBCHEM_FEATURE_SELFOVERLAP>
76.322

> <PUBCHEM_SHAPE_FINGERPRINT>
11471102 20 18343019969355922916
11578080 2 17823443598305062433
11806522 49 18408040706213884968
12236239 1 17967529073289929977
12251169 10 8070025575573177765
13288520 33 17894907451362055340
13862211 1 18340768234800437298
14251717 144 18412544301572681402
14576447 43 18408327670053564863
15757776 16 18411421725907241830
16945 1 18341886411902219288
19433438 38 17918000498543883751
200 152 18409167714438522393
20279233 1 17346873464024613891
20645477 70 18343302552360174047
21256008 61 18408887321445469061
21267235 1 18335974320256738814
21501502 16 18054225707354107920
21634736 98 18117285752528051462
221490 88 18125716790794895979
22646028 28 18260829302216235615
23402539 116 18409166649392257940
23402655 69 18341333400302771301
23526113 38 17703513280614021913
2748010 2 18053649288356866096
2871803 45 18341613745565751062
3286 77 17603587422099006824
34934 24 18195522816736506065
465052 167 17896318009692367599
602551 16 15719401594287457503
77492 1 17967807258427265081

> <PUBCHEM_SHAPE_MULTIPOLES>
322.05
8.82
1.88
1.01
2.83
0.03
-0.12
-3.09
2.28
-0.69
-0.08
1
-0.02
-0.69

> <PUBCHEM_SHAPE_SELFOVERLAP>
680.826

> <PUBCHEM_SHAPE_VOLUME>
177

> <PUBCHEM_COORDINATE_TYPE>
2
5
10

$$$$

