13386145
  -OEChem-07051213102D

123128  0     1  0  0  0  0  0999 V2000
   14.0025    2.9105    0.0000 O   0  0  0  0  0  0  0  0  0  0  0  0
    9.4754   -1.6419    0.0000 O   0  0  0  0  0  0  0  0  0  0  0  0
   17.0759    2.3551    0.0000 O   0  0  0  0  0  0  0  0  0  0  0  0
    7.7434   -1.6352    0.0000 O   0  0  0  0  0  0  0  0  0  0  0  0
    9.4832    0.3581    0.0000 O   0  0  0  0  0  0  0  0  0  0  0  0
    7.7550    1.3648    0.0000 O   0  0  0  0  0  0  0  0  0  0  0  0
    6.0191    0.3715    0.0000 O   0  0  0  0  0  0  0  0  0  0  0  0
    6.0075   -2.6285    0.0000 O   0  0  0  0  0  0  0  0  0  0  0  0
    4.2755   -2.6218    0.0000 O   0  0  0  0  0  0  0  0  0  0  0  0
    5.9998   -4.6285    0.0000 O   0  0  0  0  0  0  0  0  0  0  0  0
    4.2639   -5.6218    0.0000 O   0  0  0  0  0  0  0  0  0  0  0  0
    2.5357   -4.6151    0.0000 O   0  0  0  0  0  0  0  0  0  0  0  0
   14.0025   -0.0895    0.0000 C   0  0  3  0  0  0  0  0  0  0  0  0
   14.8685    0.4105    0.0000 C   0  0  3  0  0  0  0  0  0  0  0  0
   13.1365    0.4105    0.0000 C   0  0  3  0  0  0  0  0  0  0  0  0
   12.2265   -0.0964    0.0000 C   0  0  3  0  0  0  0  0  0  0  0  0
   14.8685    1.4105    0.0000 C   0  0  3  0  0  0  0  0  0  0  0  0
   12.2185   -1.1380    0.0000 C   0  0  3  0  0  0  0  0  0  0  0  0
   14.0186   -1.1310    0.0000 C   0  0  0  0  0  0  0  0  0  0  0  0
   13.1365    1.4105    0.0000 C   0  0  0  0  0  0  0  0  0  0  0  0
   15.8148    1.7152    0.0000 C   0  0  3  0  0  0  0  0  0  0  0  0
   14.0025    1.9105    0.0000 C   0  0  3  0  0  0  0  0  0  0  0  0
   15.8148    0.1057    0.0000 C   0  0  0  0  0  0  0  0  0  0  0  0
   13.1205   -1.6588    0.0000 C   0  0  0  0  0  0  0  0  0  0  0  0
   11.2830   -1.6877    0.0000 C   0  0  0  0  0  0  0  0  0  0  0  0
   16.3984    0.9105    0.0000 C   0  0  0  0  0  0  0  0  0  0  0  0
   11.2996    0.4677    0.0000 C   0  0  0  0  0  0  0  0  0  0  0  0
   14.6453   -0.8556    0.0000 C   0  0  0  0  0  0  0  0  0  0  0  0
   15.2107   -0.5292    0.0000 C   0  0  0  0  0  0  0  0  0  0  0  0
   12.2342    0.9036    0.0000 C   0  0  0  0  0  0  0  0  0  0  0  0
   10.3434   -1.1452    0.0000 C   0  0  3  0  0  0  0  0  0  0  0  0
   10.3518   -0.0602    0.0000 C   0  0  0  0  0  0  0  0  0  0  0  0
   16.1254    2.6657    0.0000 C   0  0  3  0  0  0  0  0  0  0  0  0
   10.7864   -2.5556    0.0000 C   0  0  0  0  0  0  0  0  0  0  0  0
   11.7864   -2.5518    0.0000 C   0  0  0  0  0  0  0  0  0  0  0  0
   16.4361    3.6162    0.0000 C   0  0  0  0  0  0  0  0  0  0  0  0
   15.1749    2.9764    0.0000 C   0  0  0  0  0  0  0  0  0  0  0  0
   17.4146    3.8225    0.0000 C   0  0  0  0  0  0  0  0  0  0  0  0
    8.6114   -1.1385    0.0000 C   0  0  3  0  0  0  0  0  0  0  0  0
    8.6152   -0.1385    0.0000 C   0  0  3  0  0  0  0  0  0  0  0  0
   17.7252    4.7730    0.0000 C   0  0  0  0  0  0  0  0  0  0  0  0
    7.7511    0.3648    0.0000 C   0  0  3  0  0  0  0  0  0  0  0  0
    6.8793   -1.1318    0.0000 C   0  0  3  0  0  0  0  0  0  0  0  0
    6.8832   -0.1319    0.0000 C   0  0  3  0  0  0  0  0  0  0  0  0
   18.7038    4.9792    0.0000 C   0  0  0  0  0  0  0  0  0  0  0  0
    6.0114   -1.6285    0.0000 C   0  0  0  0  0  0  0  0  0  0  0  0
   19.0144    5.9297    0.0000 C   0  0  0  0  0  0  0  0  0  0  0  0
   19.3716    4.2349    0.0000 C   0  0  0  0  0  0  0  0  0  0  0  0
    5.1396   -3.1252    0.0000 C   0  0  3  0  0  0  0  0  0  0  0  0
    5.1357   -4.1252    0.0000 C   0  0  3  0  0  0  0  0  0  0  0  0
    4.2678   -4.6218    0.0000 C   0  0  3  0  0  0  0  0  0  0  0  0
    3.4075   -3.1185    0.0000 C   0  0  0  0  0  0  0  0  0  0  0  0
    3.4037   -4.1185    0.0000 C   0  0  3  0  0  0  0  0  0  0  0  0
   13.6734    0.7205    0.0000 H   0  0  0  0  0  0  0  0  0  0  0  0
   14.9341    2.0270    0.0000 H   0  0  0  0  0  0  0  0  0  0  0  0
   12.2208   -1.7580    0.0000 H   0  0  0  0  0  0  0  0  0  0  0  0
   14.2366   -1.7114    0.0000 H   0  0  0  0  0  0  0  0  0  0  0  0
   14.6277   -1.0155    0.0000 H   0  0  0  0  0  0  0  0  0  0  0  0
   12.9244    1.9931    0.0000 H   0  0  0  0  0  0  0  0  0  0  0  0
   12.5259    1.3028    0.0000 H   0  0  0  0  0  0  0  0  0  0  0  0
   16.4272    1.8114    0.0000 H   0  0  0  0  0  0  0  0  0  0  0  0
   14.5394    2.2205    0.0000 H   0  0  0  0  0  0  0  0  0  0  0  0
   15.5637   -0.4612    0.0000 H   0  0  0  0  0  0  0  0  0  0  0  0
   16.3521   -0.2035    0.0000 H   0  0  0  0  0  0  0  0  0  0  0  0
   12.7232   -2.1348    0.0000 H   0  0  0  0  0  0  0  0  0  0  0  0
   13.5215   -2.1317    0.0000 H   0  0  0  0  0  0  0  0  0  0  0  0
   16.8592    0.4957    0.0000 H   0  0  0  0  0  0  0  0  0  0  0  0
   16.8592    1.3252    0.0000 H   0  0  0  0  0  0  0  0  0  0  0  0
   11.7079    0.9344    0.0000 H   0  0  0  0  0  0  0  0  0  0  0  0
   10.9097    0.9498    0.0000 H   0  0  0  0  0  0  0  0  0  0  0  0
   14.1704   -1.2541    0.0000 H   0  0  0  0  0  0  0  0  0  0  0  0
   15.0438   -1.3305    0.0000 H   0  0  0  0  0  0  0  0  0  0  0  0
   15.1202   -0.4570    0.0000 H   0  0  0  0  0  0  0  0  0  0  0  0
   14.6281   -0.7413    0.0000 H   0  0  0  0  0  0  0  0  0  0  0  0
   15.4228   -1.1118    0.0000 H   0  0  0  0  0  0  0  0  0  0  0  0
   15.7932   -0.3171    0.0000 H   0  0  0  0  0  0  0  0  0  0  0  0
   12.8542    0.8988    0.0000 H   0  0  0  0  0  0  0  0  0  0  0  0
   12.2390    1.5236    0.0000 H   0  0  0  0  0  0  0  0  0  0  0  0
   11.6142    0.9084    0.0000 H   0  0  0  0  0  0  0  0  0  0  0  0
    9.8083   -0.8321    0.0000 H   0  0  0  0  0  0  0  0  0  0  0  0
   10.1472    0.5250    0.0000 H   0  0  0  0  0  0  0  0  0  0  0  0
    9.7401   -0.1616    0.0000 H   0  0  0  0  0  0  0  0  0  0  0  0
   11.2506   -2.8638    0.0000 H   0  0  0  0  0  0  0  0  0  0  0  0
   12.0984   -3.0875    0.0000 H   0  0  0  0  0  0  0  0  0  0  0  0
   12.3221   -2.2397    0.0000 H   0  0  0  0  0  0  0  0  0  0  0  0
   10.2482   -2.2477    0.0000 H   0  0  0  0  0  0  0  0  0  0  0  0
   10.4784   -3.0938    0.0000 H   0  0  0  0  0  0  0  0  0  0  0  0
   11.3245   -2.8636    0.0000 H   0  0  0  0  0  0  0  0  0  0  0  0
   13.4656    3.2205    0.0000 H   0  0  0  0  0  0  0  0  0  0  0  0
   16.4155    4.2359    0.0000 H   0  0  0  0  0  0  0  0  0  0  0  0
   15.8223    3.7036    0.0000 H   0  0  0  0  0  0  0  0  0  0  0  0
   15.3675    3.5657    0.0000 H   0  0  0  0  0  0  0  0  0  0  0  0
   14.5856    3.1690    0.0000 H   0  0  0  0  0  0  0  0  0  0  0  0
   14.9823    2.3871    0.0000 H   0  0  0  0  0  0  0  0  0  0  0  0
   17.5374    2.7691    0.0000 H   0  0  0  0  0  0  0  0  0  0  0  0
   17.4352    3.2028    0.0000 H   0  0  0  0  0  0  0  0  0  0  0  0
   18.0284    3.7351    0.0000 H   0  0  0  0  0  0  0  0  0  0  0  0
    8.6090   -1.7585    0.0000 H   0  0  0  0  0  0  0  0  0  0  0  0
    9.1510   -0.4506    0.0000 H   0  0  0  0  0  0  0  0  0  0  0  0
   17.3112    5.2344    0.0000 H   0  0  0  0  0  0  0  0  0  0  0  0
    8.2892    0.6727    0.0000 H   0  0  0  0  0  0  0  0  0  0  0  0
    6.8769   -1.7518    0.0000 H   0  0  0  0  0  0  0  0  0  0  0  0
    6.3450   -0.4398    0.0000 H   0  0  0  0  0  0  0  0  0  0  0  0
    9.4856    0.9781    0.0000 H   0  0  0  0  0  0  0  0  0  0  0  0
    5.8016   -1.0451    0.0000 H   0  0  0  0  0  0  0  0  0  0  0  0
    5.4004   -1.7338    0.0000 H   0  0  0  0  0  0  0  0  0  0  0  0
    7.2192    1.6769    0.0000 H   0  0  0  0  0  0  0  0  0  0  0  0
    5.4810    0.0636    0.0000 H   0  0  0  0  0  0  0  0  0  0  0  0
   18.9101    3.8208    0.0000 H   0  0  0  0  0  0  0  0  0  0  0  0
   19.7857    3.7734    0.0000 H   0  0  0  0  0  0  0  0  0  0  0  0
   19.8331    4.6490    0.0000 H   0  0  0  0  0  0  0  0  0  0  0  0
   19.6037    5.7371    0.0000 H   0  0  0  0  0  0  0  0  0  0  0  0
   19.2070    6.5190    0.0000 H   0  0  0  0  0  0  0  0  0  0  0  0
   18.4251    6.1223    0.0000 H   0  0  0  0  0  0  0  0  0  0  0  0
    5.6753   -3.4372    0.0000 H   0  0  0  0  0  0  0  0  0  0  0  0
    5.6738   -3.8172    0.0000 H   0  0  0  0  0  0  0  0  0  0  0  0
    3.7296   -4.9297    0.0000 H   0  0  0  0  0  0  0  0  0  0  0  0
    3.1977   -2.5351    0.0000 H   0  0  0  0  0  0  0  0  0  0  0  0
    2.7966   -3.2238    0.0000 H   0  0  0  0  0  0  0  0  0  0  0  0
    2.8680   -3.8064    0.0000 H   0  0  0  0  0  0  0  0  0  0  0  0
    5.9974   -5.2485    0.0000 H   0  0  0  0  0  0  0  0  0  0  0  0
    3.7258   -5.9297    0.0000 H   0  0  0  0  0  0  0  0  0  0  0  0
    2.0000   -4.3031    0.0000 H   0  0  0  0  0  0  0  0  0  0  0  0
  1 22  1  0  0  0  0
  1 89  1  0  0  0  0
  2 31  1  0  0  0  0
  2 39  1  0  0  0  0
  3 33  1  0  0  0  0
  3 95  1  0  0  0  0
  4 39  1  0  0  0  0
  4 43  1  0  0  0  0
  5 40  1  0  0  0  0
  5104  1  0  0  0  0
  6 42  1  0  0  0  0
  6107  1  0  0  0  0
  7 44  1  0  0  0  0
  7108  1  0  0  0  0
  8 46  1  0  0  0  0
  8 49  1  0  0  0  0
  9 49  1  0  0  0  0
  9 52  1  0  0  0  0
 10 50  1  0  0  0  0
 10121  1  0  0  0  0
 11 51  1  0  0  0  0
 11122  1  0  0  0  0
 12 53  1  0  0  0  0
 12123  1  0  0  0  0
 13 14  1  0  0  0  0
 13 15  1  0  0  0  0
 13 19  1  0  0  0  0
 13 28  1  0  0  0  0
 14 17  1  0  0  0  0
 14 23  1  0  0  0  0
 14 29  1  0  0  0  0
 15 16  1  0  0  0  0
 15 20  1  0  0  0  0
 15 54  1  0  0  0  0
 16 18  1  0  0  0  0
 16 27  1  0  0  0  0
 16 30  1  0  0  0  0
 17 21  1  0  0  0  0
 17 22  1  0  0  0  0
 17 55  1  0  0  0  0
 18 24  1  0  0  0  0
 18 25  1  0  0  0  0
 18 56  1  0  0  0  0
 19 24  1  0  0  0  0
 19 57  1  0  0  0  0
 19 58  1  0  0  0  0
 20 22  1  0  0  0  0
 20 59  1  0  0  0  0
 20 60  1  0  0  0  0
 21 26  1  0  0  0  0
 21 33  1  0  0  0  0
 21 61  1  0  0  0  0
 22 62  1  0  0  0  0
 23 26  1  0  0  0  0
 23 63  1  0  0  0  0
 23 64  1  0  0  0  0
 24 65  1  0  0  0  0
 24 66  1  0  0  0  0
 25 31  1  0  0  0  0
 25 34  1  0  0  0  0
 25 35  1  0  0  0  0
 26 67  1  0  0  0  0
 26 68  1  0  0  0  0
 27 32  1  0  0  0  0
 27 69  1  0  0  0  0
 27 70  1  0  0  0  0
 28 71  1  0  0  0  0
 28 72  1  0  0  0  0
 28 73  1  0  0  0  0
 29 74  1  0  0  0  0
 29 75  1  0  0  0  0
 29 76  1  0  0  0  0
 30 77  1  0  0  0  0
 30 78  1  0  0  0  0
 30 79  1  0  0  0  0
 31 32  1  0  0  0  0
 31 80  1  0  0  0  0
 32 81  1  0  0  0  0
 32 82  1  0  0  0  0
 33 36  1  0  0  0  0
 33 37  1  0  0  0  0
 34 86  1  0  0  0  0
 34 87  1  0  0  0  0
 34 88  1  0  0  0  0
 35 83  1  0  0  0  0
 35 84  1  0  0  0  0
 35 85  1  0  0  0  0
 36 38  1  0  0  0  0
 36 90  1  0  0  0  0
 36 91  1  0  0  0  0
 37 92  1  0  0  0  0
 37 93  1  0  0  0  0
 37 94  1  0  0  0  0
 38 41  1  0  0  0  0
 38 96  1  0  0  0  0
 38 97  1  0  0  0  0
 39 40  1  0  0  0  0
 39 98  1  0  0  0  0
 40 42  1  0  0  0  0
 40 99  1  0  0  0  0
 41 45  2  0  0  0  0
 41100  1  0  0  0  0
 42 44  1  0  0  0  0
 42101  1  0  0  0  0
 43 44  1  0  0  0  0
 43 46  1  0  0  0  0
 43102  1  0  0  0  0
 44103  1  0  0  0  0
 45 47  1  0  0  0  0
 45 48  1  0  0  0  0
 46105  1  0  0  0  0
 46106  1  0  0  0  0
 47112  1  0  0  0  0
 47113  1  0  0  0  0
 47114  1  0  0  0  0
 48109  1  0  0  0  0
 48110  1  0  0  0  0
 48111  1  0  0  0  0
 49 50  1  0  0  0  0
 49115  1  0  0  0  0
 50 51  1  0  0  0  0
 50116  1  0  0  0  0
 51 53  1  0  0  0  0
 51117  1  0  0  0  0
 52 53  1  0  0  0  0
 52118  1  0  0  0  0
 52119  1  0  0  0  0
 53120  1  0  0  0  0
M  END
> <PUBCHEM_COMPOUND_CID>
13386145

> <PUBCHEM_COMPOUND_CANONICALIZED>
1

> <PUBCHEM_CACTVS_COMPLEXITY>
1320

> <PUBCHEM_CACTVS_HBOND_ACCEPTOR>
12

> <PUBCHEM_CACTVS_HBOND_DONOR>
8

> <PUBCHEM_CACTVS_ROTATABLE_BOND>
9

> <PUBCHEM_CACTVS_SUBSKEYS>
AAADcfB8PAAAAAAAAAAAAAAAAAAAAYAAAAA0aMECAAAAAGDAAAAAGgAACAAAD1SwgAMCCAAABgCAAiBCAAAAAAAgAAAACAAAAAgREAIAAQAiQAAFgAAPAAPA4PwPgAAAAAAAAADAAAYAADAAAQAACAAAAA==

> <PUBCHEM_IUPAC_OPENEYE_NAME>
2-[[12-hydroxy-17-(1-hydroxy-1,5-dimethyl-hex-4-enyl)-4,4,8,10,14-pentamethyl-2,3,5,6,7,9,11,12,13,15,16,17-dodecahydro-1H-cyclopenta[a]phenanthren-3-yl]oxy]-6-[(3,4,5-trihydroxytetrahydropyran-2-yl)oxymethyl]tetrahydropyran-3,4,5-triol

> <PUBCHEM_IUPAC_CAS_NAME>
2-[[12-hydroxy-17-(2-hydroxy-6-methylhept-5-en-2-yl)-4,4,8,10,14-pentamethyl-2,3,5,6,7,9,11,12,13,15,16,17-dodecahydro-1H-cyclopenta[a]phenanthren-3-yl]oxy]-6-[(3,4,5-trihydroxy-2-oxanyl)oxymethyl]oxane-3,4,5-triol

> <PUBCHEM_IUPAC_NAME>
2-[[12-hydroxy-17-(2-hydroxy-6-methylhept-5-en-2-yl)-4,4,8,10,14-pentamethyl-2,3,5,6,7,9,11,12,13,15,16,17-dodecahydro-1H-cyclopenta[a]phenanthren-3-yl]oxy]-6-[(3,4,5-trihydroxyoxan-2-yl)oxymethyl]oxane-3,4,5-triol

> <PUBCHEM_IUPAC_SYSTEMATIC_NAME>
2-[[4,4,8,10,14-pentamethyl-17-(6-methyl-2-oxidanyl-hept-5-en-2-yl)-12-oxidanyl-2,3,5,6,7,9,11,12,13,15,16,17-dodecahydro-1H-cyclopenta[a]phenanthren-3-yl]oxy]-6-[[3,4,5-tris(oxidanyl)oxan-2-yl]oxymethyl]oxane-3,4,5-triol

> <PUBCHEM_IUPAC_TRADITIONAL_NAME>
2-[[12-hydroxy-17-(1-hydroxy-1,5-dimethyl-hex-4-enyl)-4,4,8,10,14-pentamethyl-2,3,5,6,7,9,11,12,13,15,16,17-dodecahydro-1H-cyclopenta[a]phenanthren-3-yl]oxy]-6-[(3,4,5-trihydroxytetrahydropyran-2-yl)oxymethyl]tetrahydropyran-3,4,5-triol

> <PUBCHEM_IUPAC_INCHI>
InChI=1S/C41H70O12/c1-21(2)10-9-14-41(8,49)22-11-16-40(7)29(22)23(42)18-27-38(5)15-13-28(37(3,4)26(38)12-17-39(27,40)6)53-36-34(48)32(46)31(45)25(52-36)20-51-35-33(47)30(44)24(43)19-50-35/h10,22-36,42-49H,9,11-20H2,1-8H3

> <PUBCHEM_IUPAC_INCHIKEY>
DGSOBIYFLJXVQZ-UHFFFAOYSA-N

> <PUBCHEM_XLOGP3_AA>
3.5

> <PUBCHEM_EXACT_MASS>
754.486728

> <PUBCHEM_MOLECULAR_FORMULA>
C41H70O12

> <PUBCHEM_MOLECULAR_WEIGHT>
754.9873

> <PUBCHEM_OPENEYE_CAN_SMILES>
CC(=CCCC(C)(C1CCC2(C1C(CC3C2(CCC4C3(CCC(C4(C)C)OC5C(C(C(C(O5)COC6C(C(C(CO6)O)O)O)O)O)O)C)C)O)C)O)C

> <PUBCHEM_OPENEYE_ISO_SMILES>
CC(=CCCC(C)(C1CCC2(C1C(CC3C2(CCC4C3(CCC(C4(C)C)OC5C(C(C(C(O5)COC6C(C(C(CO6)O)O)O)O)O)O)C)C)O)C)O)C

> <PUBCHEM_CACTVS_TPSA>
199

> <PUBCHEM_MONOISOTOPIC_WEIGHT>
754.486728

> <PUBCHEM_TOTAL_CHARGE>
0

> <PUBCHEM_HEAVY_ATOM_COUNT>
53

> <PUBCHEM_ATOM_DEF_STEREO_COUNT>
0

> <PUBCHEM_ATOM_UDEF_STEREO_COUNT>
19

> <PUBCHEM_BOND_DEF_STEREO_COUNT>
0

> <PUBCHEM_BOND_UDEF_STEREO_COUNT>
0

> <PUBCHEM_ISOTOPIC_ATOM_COUNT>
0

> <PUBCHEM_COMPONENT_COUNT>
1

> <PUBCHEM_CACTVS_TAUTO_COUNT>
1

> <PUBCHEM_COORDINATE_TYPE>
1
5
255

> <PUBCHEM_BONDANNOTATIONS>
22  1  3
50  10  3
51  11  3
53  12  3
13  28  3
14  29  3
15  20  3
16  30  3
17  22  3
18  24  3
31  2  3
39  2  3
21  26  3
33  3  3
43  46  3
40  5  3
42  6  3
44  7  3
49  8  3

$$$$

