11545701
  -OEChem-07051213072D

 49 52  0     1  0  0  0  0  0999 V2000
    3.4022   -1.2649    0.0000 P   0  0  0  0  0  0  0  0  0  0  0  0
   10.9163    2.5393    0.0000 O   0  0  0  0  0  0  0  0  0  0  0  0
    4.2663   -1.7683    0.0000 O   0  0  0  0  0  0  0  0  0  0  0  0
    2.5381   -0.7616    0.0000 O   0  0  0  0  0  0  0  0  0  0  0  0
    2.8989   -2.1290    0.0000 O   0  0  0  0  0  0  0  0  0  0  0  0
    3.9056   -0.4009    0.0000 O   0  0  0  0  0  0  0  0  0  0  0  0
    9.6594    1.2840    0.0000 C   0  0  1  0  0  0  0  0  0  0  0  0
    9.6594    0.2841    0.0000 C   0  0  2  0  0  0  0  0  0  0  0  0
    8.7934   -0.2159    0.0000 C   0  0  1  0  0  0  0  0  0  0  0  0
    7.9273    0.2841    0.0000 C   0  0  2  0  0  0  0  0  0  0  0  0
   10.6056    1.5888    0.0000 C   0  0  2  0  0  0  0  0  0  0  0  0
    8.7934    1.7840    0.0000 C   0  0  0  0  0  0  0  0  0  0  0  0
   10.6056   -0.0207    0.0000 C   0  0  0  0  0  0  0  0  0  0  0  0
    7.9273    1.2840    0.0000 C   0  0  0  0  0  0  0  0  0  0  0  0
   11.1892    0.7841    0.0000 C   0  0  0  0  0  0  0  0  0  0  0  0
    8.8094   -1.2574    0.0000 C   0  0  0  0  0  0  0  0  0  0  0  0
    9.6594    2.2840    0.0000 C   0  0  0  0  0  0  0  0  0  0  0  0
    7.0173   -0.2228    0.0000 C   0  0  0  0  0  0  0  0  0  0  0  0
    7.9114   -1.7852    0.0000 C   0  0  0  0  0  0  0  0  0  0  0  0
    7.0093   -1.2644    0.0000 C   0  0  0  0  0  0  0  0  0  0  0  0
    6.0905    0.3413    0.0000 C   0  0  0  0  0  0  0  0  0  0  0  0
    6.0739   -1.8141    0.0000 C   0  0  0  0  0  0  0  0  0  0  0  0
    5.1426   -0.1867    0.0000 C   0  0  0  0  0  0  0  0  0  0  0  0
    5.1343   -1.2716    0.0000 C   0  0  0  0  0  0  0  0  0  0  0  0
    9.7493   -0.5612    0.0000 H   0  0  0  0  0  0  0  0  0  0  0  0
    9.5328   -0.6353    0.0000 H   0  0  0  0  0  0  0  0  0  0  0  0
    8.6635    0.7091    0.0000 H   0  0  0  0  0  0  0  0  0  0  0  0
   10.1682    2.0281    0.0000 H   0  0  0  0  0  0  0  0  0  0  0  0
    9.1919    2.2590    0.0000 H   0  0  0  0  0  0  0  0  0  0  0  0
    8.3948    2.2590    0.0000 H   0  0  0  0  0  0  0  0  0  0  0  0
   10.3546   -0.5876    0.0000 H   0  0  0  0  0  0  0  0  0  0  0  0
   11.1430   -0.3299    0.0000 H   0  0  0  0  0  0  0  0  0  0  0  0
    7.7153    1.8667    0.0000 H   0  0  0  0  0  0  0  0  0  0  0  0
    7.3168    1.1764    0.0000 H   0  0  0  0  0  0  0  0  0  0  0  0
   11.6501    0.3693    0.0000 H   0  0  0  0  0  0  0  0  0  0  0  0
   11.6501    1.1988    0.0000 H   0  0  0  0  0  0  0  0  0  0  0  0
    9.0275   -1.8378    0.0000 H   0  0  0  0  0  0  0  0  0  0  0  0
    9.4186   -1.1420    0.0000 H   0  0  0  0  0  0  0  0  0  0  0  0
   10.2794    2.2840    0.0000 H   0  0  0  0  0  0  0  0  0  0  0  0
    9.6594    2.9040    0.0000 H   0  0  0  0  0  0  0  0  0  0  0  0
    9.0394    2.2840    0.0000 H   0  0  0  0  0  0  0  0  0  0  0  0
    7.5141   -2.2612    0.0000 H   0  0  0  0  0  0  0  0  0  0  0  0
    8.3124   -2.2581    0.0000 H   0  0  0  0  0  0  0  0  0  0  0  0
   11.5230    2.6672    0.0000 H   0  0  0  0  0  0  0  0  0  0  0  0
    6.1024    0.9612    0.0000 H   0  0  0  0  0  0  0  0  0  0  0  0
    6.0763   -2.4341    0.0000 H   0  0  0  0  0  0  0  0  0  0  0  0
    4.6093    0.1295    0.0000 H   0  0  0  0  0  0  0  0  0  0  0  0
    2.0000   -1.0695    0.0000 H   0  0  0  0  0  0  0  0  0  0  0  0
    3.2068   -2.6672    0.0000 H   0  0  0  0  0  0  0  0  0  0  0  0
  1  3  1  0  0  0  0
  1  4  1  0  0  0  0
  1  5  1  0  0  0  0
  1  6  2  0  0  0  0
 11  2  1  1  0  0  0
  2 44  1  0  0  0  0
  3 24  1  0  0  0  0
  4 48  1  0  0  0  0
  5 49  1  0  0  0  0
  7  8  1  0  0  0  0
  7 11  1  0  0  0  0
  7 12  1  0  0  0  0
  7 17  1  1  0  0  0
  8  9  1  0  0  0  0
  8 13  1  0  0  0  0
  8 25  1  6  0  0  0
  9 10  1  0  0  0  0
  9 16  1  0  0  0  0
  9 26  1  1  0  0  0
 10 14  1  0  0  0  0
 10 18  1  0  0  0  0
 10 27  1  6  0  0  0
 11 15  1  0  0  0  0
 11 28  1  0  0  0  0
 12 14  1  0  0  0  0
 12 29  1  0  0  0  0
 12 30  1  0  0  0  0
 13 15  1  0  0  0  0
 13 31  1  0  0  0  0
 13 32  1  0  0  0  0
 14 33  1  0  0  0  0
 14 34  1  0  0  0  0
 15 35  1  0  0  0  0
 15 36  1  0  0  0  0
 16 19  1  0  0  0  0
 16 37  1  0  0  0  0
 16 38  1  0  0  0  0
 17 39  1  0  0  0  0
 17 40  1  0  0  0  0
 17 41  1  0  0  0  0
 18 20  2  0  0  0  0
 18 21  1  0  0  0  0
 19 20  1  0  0  0  0
 19 42  1  0  0  0  0
 19 43  1  0  0  0  0
 20 22  1  0  0  0  0
 21 23  2  0  0  0  0
 21 45  1  0  0  0  0
 22 24  2  0  0  0  0
 22 46  1  0  0  0  0
 23 24  1  0  0  0  0
 23 47  1  0  0  0  0
M  END
> <PUBCHEM_COMPOUND_CID>
11545701

> <PUBCHEM_COMPOUND_CANONICALIZED>
1

> <PUBCHEM_CACTVS_COMPLEXITY>
534

> <PUBCHEM_CACTVS_HBOND_ACCEPTOR>
5

> <PUBCHEM_CACTVS_HBOND_DONOR>
3

> <PUBCHEM_CACTVS_ROTATABLE_BOND>
2

> <PUBCHEM_CACTVS_SUBSKEYS>
AAADceB4OAIAAAAAAAAAAAAAAAAAAYAAAAAwYMAAAAAAAGDBAAAAGgAACCAADxSgmAIyBoAAAxCAQiBCAIACAAAgIAAIiAAGCIgINiKAERKAcAAkwBEIiAeAwPAPoAABAAAQAADAAAYAACAAAIAADAAAAA==

> <PUBCHEM_IUPAC_OPENEYE_NAME>
[(8R,9S,13S,14S,17S)-17-hydroxy-13-methyl-6,7,8,9,11,12,14,15,16,17-decahydrocyclopenta[a]phenanthren-3-yl] dihydrogen phosphate

> <PUBCHEM_IUPAC_CAS_NAME>
[(8R,9S,13S,14S,17S)-17-hydroxy-13-methyl-6,7,8,9,11,12,14,15,16,17-decahydrocyclopenta[a]phenanthren-3-yl] dihydrogen phosphate

> <PUBCHEM_IUPAC_NAME>
[(8R,9S,13S,14S,17S)-17-hydroxy-13-methyl-6,7,8,9,11,12,14,15,16,17-decahydrocyclopenta[a]phenanthren-3-yl] dihydrogen phosphate

> <PUBCHEM_IUPAC_SYSTEMATIC_NAME>
[(8R,9S,13S,14S,17S)-13-methyl-17-oxidanyl-6,7,8,9,11,12,14,15,16,17-decahydrocyclopenta[a]phenanthren-3-yl] dihydrogen phosphate

> <PUBCHEM_IUPAC_TRADITIONAL_NAME>
[(8R,9S,13S,14S,17S)-17-hydroxy-13-methyl-6,7,8,9,11,12,14,15,16,17-decahydrocyclopenta[a]phenanthren-3-yl] dihydrogen phosphate

> <PUBCHEM_IUPAC_INCHI>
InChI=1S/C18H25O5P/c1-18-9-8-14-13-5-3-12(23-24(20,21)22)10-11(13)2-4-15(14)16(18)6-7-17(18)19/h3,5,10,14-17,19H,2,4,6-9H2,1H3,(H2,20,21,22)/t14-,15-,16+,17+,18+/m1/s1

> <PUBCHEM_IUPAC_INCHIKEY>
HRGSZQQJTWZVHP-ZBRFXRBCSA-N

> <PUBCHEM_XLOGP3>
1.4

> <PUBCHEM_EXACT_MASS>
352.143961

> <PUBCHEM_MOLECULAR_FORMULA>
C18H25O5P

> <PUBCHEM_MOLECULAR_WEIGHT>
352.361862

> <PUBCHEM_OPENEYE_CAN_SMILES>
CC12CCC3C(C1CCC2O)CCC4=C3C=CC(=C4)OP(=O)(O)O

> <PUBCHEM_OPENEYE_ISO_SMILES>
C[C@]12CC[C@H]3[C@H]([C@@H]1CC[C@@H]2O)CCC4=C3C=CC(=C4)OP(=O)(O)O

> <PUBCHEM_CACTVS_TPSA>
87

> <PUBCHEM_MONOISOTOPIC_WEIGHT>
352.143961

> <PUBCHEM_TOTAL_CHARGE>
0

> <PUBCHEM_HEAVY_ATOM_COUNT>
24

> <PUBCHEM_ATOM_DEF_STEREO_COUNT>
5

> <PUBCHEM_ATOM_UDEF_STEREO_COUNT>
0

> <PUBCHEM_BOND_DEF_STEREO_COUNT>
0

> <PUBCHEM_BOND_UDEF_STEREO_COUNT>
0

> <PUBCHEM_ISOTOPIC_ATOM_COUNT>
0

> <PUBCHEM_COMPONENT_COUNT>
1

> <PUBCHEM_CACTVS_TAUTO_COUNT>
1

> <PUBCHEM_COORDINATE_TYPE>
1
5
255

> <PUBCHEM_BONDANNOTATIONS>
10  27  6
18  20  8
18  21  8
11  2  5
20  22  8
21  23  8
22  24  8
23  24  8
7  17  5
8  25  6
9  26  5

$$$$

