441868
  -OEChem-07051212563D

 82 87  0     1  0  0  0  0  0999 V2000
    3.9573   -1.5020    0.7693 O   0  0  0  0  0  0  0  0  0  0  0  0
    0.4801    2.7379   -0.3953 O   0  0  0  0  0  0  0  0  0  0  0  0
   -3.9577   -0.7937   -0.4173 O   0  0  0  0  0  0  0  0  0  0  0  0
    8.3399    0.6677    0.2745 O   0  0  0  0  0  0  0  0  0  0  0  0
   -5.4434    0.8562   -1.2552 O   0  0  0  0  0  0  0  0  0  0  0  0
    8.8461   -1.5699    0.4553 O   0  0  0  0  0  0  0  0  0  0  0  0
   -7.2935   -1.2817   -1.7711 O   0  0  0  0  0  0  0  0  0  0  0  0
   -7.9990   -1.5963    0.9025 O   0  0  0  0  0  0  0  0  0  0  0  0
   -7.4125    1.0291    1.8563 O   0  0  0  0  0  0  0  0  0  0  0  0
    3.1002   -0.6091    0.0402 C   0  0  1  0  0  0  0  0  0  0  0  0
    1.7054   -0.6851    0.7195 C   0  0  1  0  0  0  0  0  0  0  0  0
    0.6782    0.3747    0.2068 C   0  0  1  0  0  0  0  0  0  0  0  0
    3.7101    0.8154    0.0261 C   0  0  2  0  0  0  0  0  0  0  0  0
   -0.7203    0.2436    0.9572 C   0  0  2  0  0  0  0  0  0  0  0  0
   -1.2393   -1.2311    0.8493 C   0  0  2  0  0  0  0  0  0  0  0  0
    1.3203    1.7850    0.2512 C   0  0  1  0  0  0  0  0  0  0  0  0
    2.6623    1.8336   -0.4835 C   0  0  0  0  0  0  0  0  0  0  0  0
    4.8494    0.7150   -1.0404 C   0  0  2  0  0  0  0  0  0  0  0  0
    1.1377   -2.1164    0.6455 C   0  0  0  0  0  0  0  0  0  0  0  0
    3.1200   -1.0200   -1.4415 C   0  0  0  0  0  0  0  0  0  0  0  0
   -0.2063   -2.2488    1.3477 C   0  0  0  0  0  0  0  0  0  0  0  0
    4.3565   -0.3439   -2.0494 C   0  0  0  0  0  0  0  0  0  0  0  0
   -1.8449    1.1608    0.3902 C   0  0  0  0  0  0  0  0  0  0  0  0
   -1.7035   -1.5974   -0.5828 C   0  0  0  0  0  0  0  0  0  0  0  0
    4.2179    1.2712    1.4082 C   0  0  0  0  0  0  0  0  0  0  0  0
   -0.5803    0.6329    2.4532 C   0  0  0  0  0  0  0  0  0  0  0  0
   -2.2664    0.8190   -1.0370 C   0  0  0  0  0  0  0  0  0  0  0  0
   -2.7403   -0.6270   -1.1416 C   0  0  2  0  0  0  0  0  0  0  0  0
    6.2164    0.3676   -0.5266 C   0  0  0  0  0  0  0  0  0  0  0  0
    7.1938    1.4105   -0.1544 C   0  0  0  0  0  0  0  0  0  0  0  0
    6.7189   -0.8503   -0.3425 C   0  0  0  0  0  0  0  0  0  0  0  0
   -5.0897   -0.5310   -1.2395 C   0  0  2  0  0  0  0  0  0  0  0  0
    8.0780   -0.6676    0.1696 C   0  0  0  0  0  0  0  0  0  0  0  0
   -6.2712   -1.3827   -0.7786 C   0  0  1  0  0  0  0  0  0  0  0  0
   -6.8032   -0.8946    0.5698 C   0  0  1  0  0  0  0  0  0  0  0  0
   -5.8670    1.3682    0.0124 C   0  0  2  0  0  0  0  0  0  0  0  0
   -7.0937    0.6062    0.5329 C   0  0  2  0  0  0  0  0  0  0  0  0
   -6.1565    2.8541   -0.1812 C   0  0  0  0  0  0  0  0  0  0  0  0
    1.8833   -0.4905    1.7854 H   0  0  0  0  0  0  0  0  0  0  0  0
    0.4829    0.1605   -0.8506 H   0  0  0  0  0  0  0  0  0  0  0  0
   -2.1198   -1.3326    1.5004 H   0  0  0  0  0  0  0  0  0  0  0  0
    1.4521    2.1120    1.2868 H   0  0  0  0  0  0  0  0  0  0  0  0
    2.4699    1.6942   -1.5564 H   0  0  0  0  0  0  0  0  0  0  0  0
    3.0724    2.8512   -0.4167 H   0  0  0  0  0  0  0  0  0  0  0  0
    4.9522    1.6688   -1.5764 H   0  0  0  0  0  0  0  0  0  0  0  0
    1.8250   -2.8267    1.1187 H   0  0  0  0  0  0  0  0  0  0  0  0
    1.0390   -2.4349   -0.3977 H   0  0  0  0  0  0  0  0  0  0  0  0
    2.2292   -0.6746   -1.9762 H   0  0  0  0  0  0  0  0  0  0  0  0
    3.1847   -2.1049   -1.5787 H   0  0  0  0  0  0  0  0  0  0  0  0
   -0.5877   -3.2680    1.2082 H   0  0  0  0  0  0  0  0  0  0  0  0
   -0.0614   -2.1310    2.4281 H   0  0  0  0  0  0  0  0  0  0  0  0
    5.1041   -1.0853   -2.3480 H   0  0  0  0  0  0  0  0  0  0  0  0
    4.0577    0.1536   -2.9815 H   0  0  0  0  0  0  0  0  0  0  0  0
   -1.5767    2.2183    0.4557 H   0  0  0  0  0  0  0  0  0  0  0  0
   -2.7293    1.0681    1.0354 H   0  0  0  0  0  0  0  0  0  0  0  0
   -0.8515   -1.6293   -1.2701 H   0  0  0  0  0  0  0  0  0  0  0  0
   -2.1330   -2.6074   -0.5627 H   0  0  0  0  0  0  0  0  0  0  0  0
    3.4069    1.3046    2.1427 H   0  0  0  0  0  0  0  0  0  0  0  0
    4.9779    0.6019    1.8227 H   0  0  0  0  0  0  0  0  0  0  0  0
    4.6446    2.2786    1.3562 H   0  0  0  0  0  0  0  0  0  0  0  0
   -1.5158    0.4460    2.9941 H   0  0  0  0  0  0  0  0  0  0  0  0
    0.2013    0.0735    2.9721 H   0  0  0  0  0  0  0  0  0  0  0  0
   -0.3553    1.6984    2.5688 H   0  0  0  0  0  0  0  0  0  0  0  0
   -3.0525    1.5146   -1.3445 H   0  0  0  0  0  0  0  0  0  0  0  0
   -1.4273    0.9818   -1.7222 H   0  0  0  0  0  0  0  0  0  0  0  0
   -2.8780   -0.8873   -2.1985 H   0  0  0  0  0  0  0  0  0  0  0  0
    3.7907   -2.4113    0.4711 H   0  0  0  0  0  0  0  0  0  0  0  0
    0.8878    3.6140   -0.2868 H   0  0  0  0  0  0  0  0  0  0  0  0
    7.4767    2.0340   -1.0078 H   0  0  0  0  0  0  0  0  0  0  0  0
    6.8601    2.0444    0.6698 H   0  0  0  0  0  0  0  0  0  0  0  0
    6.2694   -1.8126   -0.5142 H   0  0  0  0  0  0  0  0  0  0  0  0
   -4.8899   -0.8037   -2.2831 H   0  0  0  0  0  0  0  0  0  0  0  0
   -5.9949   -2.4401   -0.7040 H   0  0  0  0  0  0  0  0  0  0  0  0
   -6.0734   -1.1190    1.3577 H   0  0  0  0  0  0  0  0  0  0  0  0
   -5.0413    1.2871    0.7290 H   0  0  0  0  0  0  0  0  0  0  0  0
   -7.9739    0.8040   -0.0895 H   0  0  0  0  0  0  0  0  0  0  0  0
   -7.4464   -0.3404   -1.9594 H   0  0  0  0  0  0  0  0  0  0  0  0
   -5.2695    3.3670   -0.5691 H   0  0  0  0  0  0  0  0  0  0  0  0
   -6.9536    3.0038   -0.9178 H   0  0  0  0  0  0  0  0  0  0  0  0
   -6.4512    3.3322    0.7576 H   0  0  0  0  0  0  0  0  0  0  0  0
   -8.3155   -1.2452    1.7524 H   0  0  0  0  0  0  0  0  0  0  0  0
   -6.6303    0.8842    2.4155 H   0  0  0  0  0  0  0  0  0  0  0  0
  1 10  1  0  0  0  0
  1 67  1  0  0  0  0
  2 16  1  0  0  0  0
  2 68  1  0  0  0  0
  3 28  1  0  0  0  0
  3 32  1  0  0  0  0
  4 30  1  0  0  0  0
  4 33  1  0  0  0  0
  5 32  1  0  0  0  0
  5 36  1  0  0  0  0
  6 33  2  0  0  0  0
  7 34  1  0  0  0  0
  7 77  1  0  0  0  0
  8 35  1  0  0  0  0
  8 81  1  0  0  0  0
  9 37  1  0  0  0  0
  9 82  1  0  0  0  0
 10 11  1  0  0  0  0
 10 13  1  0  0  0  0
 10 20  1  0  0  0  0
 11 12  1  0  0  0  0
 11 19  1  0  0  0  0
 11 39  1  0  0  0  0
 12 14  1  0  0  0  0
 12 16  1  0  0  0  0
 12 40  1  0  0  0  0
 13 17  1  0  0  0  0
 13 18  1  0  0  0  0
 13 25  1  0  0  0  0
 14 15  1  0  0  0  0
 14 23  1  0  0  0  0
 14 26  1  0  0  0  0
 15 21  1  0  0  0  0
 15 24  1  0  0  0  0
 15 41  1  0  0  0  0
 16 17  1  0  0  0  0
 16 42  1  0  0  0  0
 17 43  1  0  0  0  0
 17 44  1  0  0  0  0
 18 22  1  0  0  0  0
 18 29  1  0  0  0  0
 18 45  1  0  0  0  0
 19 21  1  0  0  0  0
 19 46  1  0  0  0  0
 19 47  1  0  0  0  0
 20 22  1  0  0  0  0
 20 48  1  0  0  0  0
 20 49  1  0  0  0  0
 21 50  1  0  0  0  0
 21 51  1  0  0  0  0
 22 52  1  0  0  0  0
 22 53  1  0  0  0  0
 23 27  1  0  0  0  0
 23 54  1  0  0  0  0
 23 55  1  0  0  0  0
 24 28  1  0  0  0  0
 24 56  1  0  0  0  0
 24 57  1  0  0  0  0
 25 58  1  0  0  0  0
 25 59  1  0  0  0  0
 25 60  1  0  0  0  0
 26 61  1  0  0  0  0
 26 62  1  0  0  0  0
 26 63  1  0  0  0  0
 27 28  1  0  0  0  0
 27 64  1  0  0  0  0
 27 65  1  0  0  0  0
 28 66  1  0  0  0  0
 29 30  1  0  0  0  0
 29 31  2  0  0  0  0
 30 69  1  0  0  0  0
 30 70  1  0  0  0  0
 31 33  1  0  0  0  0
 31 71  1  0  0  0  0
 32 34  1  0  0  0  0
 32 72  1  0  0  0  0
 34 35  1  0  0  0  0
 34 73  1  0  0  0  0
 35 37  1  0  0  0  0
 35 74  1  0  0  0  0
 36 37  1  0  0  0  0
 36 38  1  0  0  0  0
 36 75  1  0  0  0  0
 37 76  1  0  0  0  0
 38 78  1  0  0  0  0
 38 79  1  0  0  0  0
 38 80  1  0  0  0  0
M  END
> <PUBCHEM_COMPOUND_CID>
441868

> <PUBCHEM_CONFORMER_RMSD>
1

> <PUBCHEM_CONFORMER_DIVERSEORDER>
3
22
25
14
28
6
21
15
24
27
16
26
19
8
5
23
1
10
18
13
20
2
11
17
9
4
7
12

> <PUBCHEM_MMFF94_PARTIAL_CHARGES>
28
1 -0.68
10 0.28
16 0.28
18 0.14
2 -0.68
28 0.28
29 -0.28
3 -0.56
30 0.42
31 -0.14
32 0.56
33 0.71
34 0.28
35 0.28
36 0.28
37 0.28
4 -0.43
5 -0.56
6 -0.57
67 0.4
68 0.4
7 -0.68
71 0.15
77 0.4
8 -0.68
81 0.4
82 0.4
9 -0.68

> <PUBCHEM_EFFECTIVE_ROTOR_COUNT>
6.8

> <PUBCHEM_PHARMACOPHORE_FEATURES>
19
1 1 acceptor
1 1 donor
1 2 acceptor
1 2 donor
1 3 acceptor
1 5 acceptor
1 6 acceptor
1 7 acceptor
1 7 donor
1 8 acceptor
1 8 donor
1 9 acceptor
1 9 donor
5 10 13 18 20 22 rings
5 4 29 30 31 33 rings
6 10 11 12 13 16 17 rings
6 11 12 14 15 19 21 rings
6 14 15 23 24 27 28 rings
6 5 32 34 35 36 37 rings

> <PUBCHEM_HEAVY_ATOM_COUNT>
38

> <PUBCHEM_ATOM_DEF_STEREO_COUNT>
14

> <PUBCHEM_ATOM_UDEF_STEREO_COUNT>
0

> <PUBCHEM_BOND_DEF_STEREO_COUNT>
0

> <PUBCHEM_BOND_UDEF_STEREO_COUNT>
0

> <PUBCHEM_ISOTOPIC_ATOM_COUNT>
0

> <PUBCHEM_COMPONENT_COUNT>
1

> <PUBCHEM_CACTVS_TAUTO_COUNT>
1

> <PUBCHEM_CONFORMER_ID>
0006BE0C00000003

> <PUBCHEM_MMFF94_ENERGY>
132.2217

> <PUBCHEM_FEATURE_SELFOVERLAP>
96.693

> <PUBCHEM_SHAPE_FINGERPRINT>
10076449 9 18272650143252760460
10670039 82 18413114970242106677
11135926 11 18342184392111597327
11456790 92 18272092716906973952
11578080 2 17344057465160964140
12664476 115 18113900460228263313
12741549 16 17240488027264723544
12857493 111 15140679189457590762
13782708 43 15768941310637781371
13811026 1 18411697712644008306
13914758 101 18343302591742795438
14068700 675 17967534553953588976
14294032 229 17989212563781969773
14394314 77 18341612676230547717
1454969 45 7853856092279087922
14849402 71 18271522005520744221
14856354 85 18202282464760034423
15131766 46 14402899075434337062
15183329 4 18335426764051370109
15301273 46 8935003668210520406
15840311 113 15985101882887406486
18608769 82 18272087171729446427
19611394 137 15984806100878876825
19841028 212 18263361555506996646
21033648 29 17345473687893242528
21223535 225 18335425707173716453
21792961 116 17489590086811908690
22224240 67 8718828687121103388
23559900 14 18263371291711936536
23569917 315 18131063862097175258
249057 3 15913323577381593782
25019877 29 18273213101390649703
3004659 81 18113339695489970860
335352 9 18272930514981700958
335507 130 18261107444789000319
4093350 32 17385724665175797504
4098825 35 18334296469928993724
4325135 7 16128657432012841951
4339292 15 16371300918454103399
4625314 4 8502657004339573122
6009941 240 14057003806745704087
6523845 18 15338844131766718944

> <PUBCHEM_SHAPE_MULTIPOLES>
729.2
24.17
2.24
1.54
0.73
0.5
-0.13
-0.97
1.27
1.31
-0.17
0.82
-0.15
-0.54

> <PUBCHEM_SHAPE_SELFOVERLAP>
1568.962

> <PUBCHEM_SHAPE_VOLUME>
398.7

> <PUBCHEM_COORDINATE_TYPE>
2
5
10

$$$$

