5281642
  -OEChem-07051212582D

 32 34  0     0  0  0  0  0  0999 V2000
    6.0290    0.6126    0.0000 O   0  0  0  0  0  0  0  0  0  0  0  0
    4.2690   -2.4221    0.0000 O   0  0  0  0  0  0  0  0  0  0  0  0
    2.5369   -1.4221    0.0000 O   0  0  0  0  0  0  0  0  0  0  0  0
    6.0174   -2.4567    0.0000 O   0  0  0  0  0  0  0  0  0  0  0  0
    2.5369    0.5779    0.0000 O   0  0  0  0  0  0  0  0  0  0  0  0
   10.3991    0.1121    0.0000 O   0  0  0  0  0  0  0  0  0  0  0  0
   10.3914    2.1121    0.0000 O   0  0  0  0  0  0  0  0  0  0  0  0
    5.1350   -0.9221    0.0000 C   0  0  0  0  0  0  0  0  0  0  0  0
    5.1350    0.0779    0.0000 C   0  0  0  0  0  0  0  0  0  0  0  0
    6.9350    0.0987    0.0000 C   0  0  0  0  0  0  0  0  0  0  0  0
    7.7991    0.6021    0.0000 C   0  0  0  0  0  0  0  0  0  0  0  0
    6.0290   -1.4567    0.0000 C   0  0  0  0  0  0  0  0  0  0  0  0
    4.2690   -1.4221    0.0000 C   0  0  0  0  0  0  0  0  0  0  0  0
    6.9350   -0.9429    0.0000 C   0  0  0  0  0  0  0  0  0  0  0  0
    4.2690    0.5779    0.0000 C   0  0  0  0  0  0  0  0  0  0  0  0
    3.4030   -0.9221    0.0000 C   0  0  0  0  0  0  0  0  0  0  0  0
    3.4030    0.0779    0.0000 C   0  0  0  0  0  0  0  0  0  0  0  0
    8.6671    0.1054    0.0000 C   0  0  0  0  0  0  0  0  0  0  0  0
    7.7953    1.6021    0.0000 C   0  0  0  0  0  0  0  0  0  0  0  0
    9.5312    0.6088    0.0000 C   0  0  0  0  0  0  0  0  0  0  0  0
    8.6594    2.1054    0.0000 C   0  0  0  0  0  0  0  0  0  0  0  0
    9.5273    1.6087    0.0000 C   0  0  0  0  0  0  0  0  0  0  0  0
    7.4708   -1.2550    0.0000 H   0  0  0  0  0  0  0  0  0  0  0  0
    4.2690    1.1979    0.0000 H   0  0  0  0  0  0  0  0  0  0  0  0
    8.6694   -0.5146    0.0000 H   0  0  0  0  0  0  0  0  0  0  0  0
    7.2571    1.9100    0.0000 H   0  0  0  0  0  0  0  0  0  0  0  0
    8.6570    2.7254    0.0000 H   0  0  0  0  0  0  0  0  0  0  0  0
    3.7320   -2.7321    0.0000 H   0  0  0  0  0  0  0  0  0  0  0  0
    2.0000   -1.1121    0.0000 H   0  0  0  0  0  0  0  0  0  0  0  0
    2.5369    1.1979    0.0000 H   0  0  0  0  0  0  0  0  0  0  0  0
   10.4015   -0.5079    0.0000 H   0  0  0  0  0  0  0  0  0  0  0  0
   10.3890    2.7321    0.0000 H   0  0  0  0  0  0  0  0  0  0  0  0
  1  9  1  0  0  0  0
  1 10  1  0  0  0  0
  2 13  1  0  0  0  0
  2 28  1  0  0  0  0
  3 16  1  0  0  0  0
  3 29  1  0  0  0  0
  4 12  2  0  0  0  0
  5 17  1  0  0  0  0
  5 30  1  0  0  0  0
  6 20  1  0  0  0  0
  6 31  1  0  0  0  0
  7 22  1  0  0  0  0
  7 32  1  0  0  0  0
  8  9  2  0  0  0  0
  8 12  1  0  0  0  0
  8 13  1  0  0  0  0
  9 15  1  0  0  0  0
 10 11  1  0  0  0  0
 10 14  2  0  0  0  0
 11 18  2  0  0  0  0
 11 19  1  0  0  0  0
 12 14  1  0  0  0  0
 13 16  2  0  0  0  0
 14 23  1  0  0  0  0
 15 17  2  0  0  0  0
 15 24  1  0  0  0  0
 16 17  1  0  0  0  0
 18 20  1  0  0  0  0
 18 25  1  0  0  0  0
 19 21  2  0  0  0  0
 19 26  1  0  0  0  0
 20 22  2  0  0  0  0
 21 22  1  0  0  0  0
 21 27  1  0  0  0  0
M  END
> <PUBCHEM_COMPOUND_CID>
5281642

> <PUBCHEM_COMPOUND_CANONICALIZED>
1

> <PUBCHEM_CACTVS_COMPLEXITY>
477

> <PUBCHEM_CACTVS_HBOND_ACCEPTOR>
7

> <PUBCHEM_CACTVS_HBOND_DONOR>
5

> <PUBCHEM_CACTVS_ROTATABLE_BOND>
1

> <PUBCHEM_CACTVS_SUBSKEYS>
AAADccBwOAAAAAAAAAAAAAAAAAAAAAAAAAAwYIAAAAAAAACBQAAAGgAACAAADASAmAAwBoAABgCIAqBSAAACCAAkIAAIiAEGiMgNJzaGNRqCeWGl4BUJuQfK7LzOIQABCAAIQABCAAIQABCAAAAAAAAAAA==

> <PUBCHEM_IUPAC_OPENEYE_NAME>
2-(3,4-dihydroxyphenyl)-5,6,7-trihydroxy-chromen-4-one

> <PUBCHEM_IUPAC_CAS_NAME>
2-(3,4-dihydroxyphenyl)-5,6,7-trihydroxy-1-benzopyran-4-one

> <PUBCHEM_IUPAC_NAME>
2-(3,4-dihydroxyphenyl)-5,6,7-trihydroxychromen-4-one

> <PUBCHEM_IUPAC_SYSTEMATIC_NAME>
2-[3,4-bis(oxidanyl)phenyl]-5,6,7-tris(oxidanyl)chromen-4-one

> <PUBCHEM_IUPAC_TRADITIONAL_NAME>
2-(3,4-dihydroxyphenyl)-5,6,7-trihydroxy-chromone

> <PUBCHEM_IUPAC_INCHI>
InChI=1S/C15H10O7/c16-7-2-1-6(3-8(7)17)11-4-9(18)13-12(22-11)5-10(19)14(20)15(13)21/h1-5,16-17,19-21H

> <PUBCHEM_IUPAC_INCHIKEY>
VYAKIUWQLHRZGK-UHFFFAOYSA-N

> <PUBCHEM_XLOGP3>
1

> <PUBCHEM_EXACT_MASS>
302.042653

> <PUBCHEM_MOLECULAR_FORMULA>
C15H10O7

> <PUBCHEM_MOLECULAR_WEIGHT>
302.2357

> <PUBCHEM_OPENEYE_CAN_SMILES>
C1=CC(=C(C=C1C2=CC(=O)C3=C(C(=C(C=C3O2)O)O)O)O)O

> <PUBCHEM_OPENEYE_ISO_SMILES>
C1=CC(=C(C=C1C2=CC(=O)C3=C(C(=C(C=C3O2)O)O)O)O)O

> <PUBCHEM_CACTVS_TPSA>
127

> <PUBCHEM_MONOISOTOPIC_WEIGHT>
302.042653

> <PUBCHEM_TOTAL_CHARGE>
0

> <PUBCHEM_HEAVY_ATOM_COUNT>
22

> <PUBCHEM_ATOM_DEF_STEREO_COUNT>
0

> <PUBCHEM_ATOM_UDEF_STEREO_COUNT>
0

> <PUBCHEM_BOND_DEF_STEREO_COUNT>
0

> <PUBCHEM_BOND_UDEF_STEREO_COUNT>
0

> <PUBCHEM_ISOTOPIC_ATOM_COUNT>
0

> <PUBCHEM_COMPONENT_COUNT>
1

> <PUBCHEM_CACTVS_TAUTO_COUNT>
444

> <PUBCHEM_COORDINATE_TYPE>
1
5
255

> <PUBCHEM_BONDANNOTATIONS>
1  10  8
1  9  8
10  14  8
11  18  8
11  19  8
12  14  8
13  16  8
15  17  8
16  17  8
18  20  8
19  21  8
20  22  8
21  22  8
8  12  8
8  13  8
8  9  8
9  15  8

$$$$

