11479
  -OEChem-06261205433D

 24 24  0     1  0  0  0  0  0999 V2000
    1.0475   -0.2426    2.1953 O   0  0  0  0  0  0  0  0  0  0  0  0
    2.4453   -1.4794    0.0874 O   0  0  0  0  0  0  0  0  0  0  0  0
    1.8452   -0.5491   -1.8910 O   0  0  0  0  0  0  0  0  0  0  0  0
    1.4436    1.8771   -0.8294 N   0  0  0  0  0  0  0  0  0  0  0  0
    0.6487    0.6629    1.1635 C   0  0  1  0  0  0  0  0  0  0  0  0
    1.7796    0.8190    0.1290 C   0  0  1  0  0  0  0  0  0  0  0  0
   -0.6730    0.2591    0.5376 C   0  0  0  0  0  0  0  0  0  0  0  0
   -1.5479    1.2446    0.1202 C   0  0  0  0  0  0  0  0  0  0  0  0
   -0.9691   -1.0843    0.4009 C   0  0  0  0  0  0  0  0  0  0  0  0
    2.0089   -0.4476   -0.6815 C   0  0  0  0  0  0  0  0  0  0  0  0
   -2.7631    0.8731   -0.4550 C   0  0  0  0  0  0  0  0  0  0  0  0
   -2.1843   -1.4557   -0.1745 C   0  0  0  0  0  0  0  0  0  0  0  0
   -3.0813   -0.4770   -0.6025 C   0  0  0  0  0  0  0  0  0  0  0  0
    0.5008    1.6232    1.6761 H   0  0  0  0  0  0  0  0  0  0  0  0
    2.7260    1.0702    0.6221 H   0  0  0  0  0  0  0  0  0  0  0  0
   -1.3144    2.2988    0.2350 H   0  0  0  0  0  0  0  0  0  0  0  0
   -0.2864   -1.8622    0.7281 H   0  0  0  0  0  0  0  0  0  0  0  0
    2.2342    2.0357   -1.4533 H   0  0  0  0  0  0  0  0  0  0  0  0
    1.2975    2.7539   -0.3304 H   0  0  0  0  0  0  0  0  0  0  0  0
    1.8796    0.0903    2.5726 H   0  0  0  0  0  0  0  0  0  0  0  0
   -3.4622    1.6351   -0.7870 H   0  0  0  0  0  0  0  0  0  0  0  0
   -2.4324   -2.5069   -0.2891 H   0  0  0  0  0  0  0  0  0  0  0  0
   -4.0277   -0.7661   -1.0501 H   0  0  0  0  0  0  0  0  0  0  0  0
    2.5971   -2.2910   -0.4423 H   0  0  0  0  0  0  0  0  0  0  0  0
  1  5  1  0  0  0  0
  1 20  1  0  0  0  0
  2 10  1  0  0  0  0
  2 24  1  0  0  0  0
  3 10  2  0  0  0  0
  4  6  1  0  0  0  0
  4 18  1  0  0  0  0
  4 19  1  0  0  0  0
  5  6  1  0  0  0  0
  5  7  1  0  0  0  0
  5 14  1  0  0  0  0
  6 10  1  0  0  0  0
  6 15  1  0  0  0  0
  7  8  2  0  0  0  0
  7  9  1  0  0  0  0
  8 11  1  0  0  0  0
  8 16  1  0  0  0  0
  9 12  2  0  0  0  0
  9 17  1  0  0  0  0
 11 13  2  0  0  0  0
 11 21  1  0  0  0  0
 12 13  1  0  0  0  0
 12 22  1  0  0  0  0
 13 23  1  0  0  0  0
M  END
> <PUBCHEM_COMPOUND_CID>
11479

> <PUBCHEM_CONFORMER_RMSD>
0.6

> <PUBCHEM_CONFORMER_DIVERSEORDER>
1
7
5
12
3
15
16
6
14
17
9
13
11
10
4
8
2

> <PUBCHEM_MMFF94_PARTIAL_CHARGES>
22
1 -0.68
10 0.66
11 -0.15
12 -0.15
13 -0.15
16 0.15
17 0.15
18 0.36
19 0.36
2 -0.65
20 0.4
21 0.15
22 0.15
23 0.15
24 0.5
3 -0.57
4 -0.99
5 0.42
6 0.33
7 -0.14
8 -0.15
9 -0.15

> <PUBCHEM_EFFECTIVE_ROTOR_COUNT>
3

> <PUBCHEM_PHARMACOPHORE_FEATURES>
8
1 1 acceptor
1 1 donor
1 2 acceptor
1 3 acceptor
1 4 cation
1 4 donor
3 2 3 10 anion
6 7 8 9 11 12 13 rings

> <PUBCHEM_HEAVY_ATOM_COUNT>
13

> <PUBCHEM_ATOM_DEF_STEREO_COUNT>
1

> <PUBCHEM_ATOM_UDEF_STEREO_COUNT>
1

> <PUBCHEM_BOND_DEF_STEREO_COUNT>
0

> <PUBCHEM_BOND_UDEF_STEREO_COUNT>
0

> <PUBCHEM_ISOTOPIC_ATOM_COUNT>
0

> <PUBCHEM_COMPONENT_COUNT>
1

> <PUBCHEM_CACTVS_TAUTO_COUNT>
1

> <PUBCHEM_CONFORMER_ID>
00002CD700000001

> <PUBCHEM_MMFF94_ENERGY>
27.7612

> <PUBCHEM_FEATURE_SELFOVERLAP>
40.657

> <PUBCHEM_SHAPE_FINGERPRINT>
12326174 3 14978859695121058336
12524768 44 18193848046100440809
12897270 3 18194111924116156901
12932764 1 17346608482233951045
15775835 57 17418099814529531029
16945 1 18341320171576373321
20201158 50 17821728368301335655
20361792 2 15430024474552317285
20645476 183 17489596670918126155
20711985 344 16155641718715877920
21028194 46 13686291361811264070
22802520 49 18340758287001805211
230 275 15913054183340921252
23552423 10 18341616988424347563
23559900 14 18043820999188631450
369184 2 5617253676599272471
430814 3 15984807234132687522
5084963 1 18334017219956189569
549884 4 17775560953024476660
8030462 33 17274833453957263945
81228 2 16373240657794702072

> <PUBCHEM_SHAPE_MULTIPOLES>
244.94
4.13
1.57
1.38
1.42
0.02
-0.25
-0.67
1.13
-0.06
0.2
-0.84
-0.02
0.13

> <PUBCHEM_SHAPE_SELFOVERLAP>
507.851

> <PUBCHEM_SHAPE_VOLUME>
138.9

> <PUBCHEM_COORDINATE_TYPE>
2
5
10

$$$$

