22094
  -OEChem-07051213133D

 38 39  0     0  0  0  0  0  0999 V2000
    5.9023   -0.6207   -0.3602 Cl  0  0  0  0  0  0  0  0  0  0  0  0
   -3.2604   -4.5249   -0.2303 Cl  0  0  0  0  0  0  0  0  0  0  0  0
   -1.8737    1.7370   -0.2454 O   0  0  0  0  0  0  0  0  0  0  0  0
   -0.2418    1.0309    1.6708 O   0  0  0  0  0  0  0  0  0  0  0  0
    0.1017    2.2935   -1.2829 O   0  0  0  0  0  0  0  0  0  0  0  0
    0.0414    0.4521    0.3650 C   0  0  0  0  0  0  0  0  0  0  0  0
    1.4980    0.1867    0.1841 C   0  0  0  0  0  0  0  0  0  0  0  0
   -0.8095   -0.8281    0.2123 C   0  0  0  0  0  0  0  0  0  0  0  0
   -0.5325    1.6051   -0.4922 C   0  0  0  0  0  0  0  0  0  0  0  0
   -2.4062    3.0564   -0.4005 C   0  0  0  0  0  0  0  0  0  0  0  0
    1.9672   -0.3374   -1.0203 C   0  0  0  0  0  0  0  0  0  0  0  0
   -1.0563   -1.5752    1.3324 C   0  0  0  0  0  0  0  0  0  0  0  0
    2.3906    0.4616    1.2202 C   0  0  0  0  0  0  0  0  0  0  0  0
   -1.2713   -1.1492   -1.0360 C   0  0  0  0  0  0  0  0  0  0  0  0
    3.3293   -0.5867   -1.1887 C   0  0  0  0  0  0  0  0  0  0  0  0
   -1.8236   -2.7319    1.1940 C   0  0  0  0  0  0  0  0  0  0  0  0
    3.7527    0.2124    1.0516 C   0  0  0  0  0  0  0  0  0  0  0  0
   -2.0388   -2.3058   -1.1743 C   0  0  0  0  0  0  0  0  0  0  0  0
   -3.9018    3.0281   -0.1247 C   0  0  0  0  0  0  0  0  0  0  0  0
   -1.6748    4.0050    0.5371 C   0  0  0  0  0  0  0  0  0  0  0  0
    4.2221   -0.3118   -0.1527 C   0  0  0  0  0  0  0  0  0  0  0  0
   -2.3149   -3.0971   -0.0594 C   0  0  0  0  0  0  0  0  0  0  0  0
   -2.2601    3.3751   -1.4401 H   0  0  0  0  0  0  0  0  0  0  0  0
    1.3029   -0.5428   -1.8531 H   0  0  0  0  0  0  0  0  0  0  0  0
   -0.6707   -1.3148    2.3124 H   0  0  0  0  0  0  0  0  0  0  0  0
    2.0713    0.8582    2.1788 H   0  0  0  0  0  0  0  0  0  0  0  0
   -1.0682   -0.5503   -1.9172 H   0  0  0  0  0  0  0  0  0  0  0  0
    0.2401    1.8727    1.7491 H   0  0  0  0  0  0  0  0  0  0  0  0
    3.6816   -0.9911   -2.1341 H   0  0  0  0  0  0  0  0  0  0  0  0
   -2.0280   -3.3408    2.0710 H   0  0  0  0  0  0  0  0  0  0  0  0
    4.4369    0.4286    1.8682 H   0  0  0  0  0  0  0  0  0  0  0  0
   -2.4146   -2.5786   -2.1572 H   0  0  0  0  0  0  0  0  0  0  0  0
   -4.3510    4.0174   -0.2537 H   0  0  0  0  0  0  0  0  0  0  0  0
   -4.4004    2.3259   -0.8015 H   0  0  0  0  0  0  0  0  0  0  0  0
   -4.1042    2.6794    0.8940 H   0  0  0  0  0  0  0  0  0  0  0  0
   -2.1261    5.0025    0.5101 H   0  0  0  0  0  0  0  0  0  0  0  0
   -0.6182    4.1206    0.2790 H   0  0  0  0  0  0  0  0  0  0  0  0
   -1.7115    3.6395    1.5695 H   0  0  0  0  0  0  0  0  0  0  0  0
  1 21  1  0  0  0  0
  2 22  1  0  0  0  0
  3  9  1  0  0  0  0
  3 10  1  0  0  0  0
  4  6  1  0  0  0  0
  4 28  1  0  0  0  0
  5  9  2  0  0  0  0
  6  7  1  0  0  0  0
  6  8  1  0  0  0  0
  6  9  1  0  0  0  0
  7 11  2  0  0  0  0
  7 13  1  0  0  0  0
  8 12  2  0  0  0  0
  8 14  1  0  0  0  0
 10 19  1  0  0  0  0
 10 20  1  0  0  0  0
 10 23  1  0  0  0  0
 11 15  1  0  0  0  0
 11 24  1  0  0  0  0
 12 16  1  0  0  0  0
 12 25  1  0  0  0  0
 13 17  2  0  0  0  0
 13 26  1  0  0  0  0
 14 18  2  0  0  0  0
 14 27  1  0  0  0  0
 15 21  2  0  0  0  0
 15 29  1  0  0  0  0
 16 22  2  0  0  0  0
 16 30  1  0  0  0  0
 17 21  1  0  0  0  0
 17 31  1  0  0  0  0
 18 22  1  0  0  0  0
 18 32  1  0  0  0  0
 19 33  1  0  0  0  0
 19 34  1  0  0  0  0
 19 35  1  0  0  0  0
 20 36  1  0  0  0  0
 20 37  1  0  0  0  0
 20 38  1  0  0  0  0
M  END
> <PUBCHEM_COMPOUND_CID>
22094

> <PUBCHEM_CONFORMER_RMSD>
0.8

> <PUBCHEM_CONFORMER_DIVERSEORDER>
1
3
2
9
7
8
4
10
5
6
11

> <PUBCHEM_MMFF94_PARTIAL_CHARGES>
29
1 -0.18
10 0.28
11 -0.15
12 -0.15
13 -0.15
14 -0.15
15 -0.15
16 -0.15
17 -0.15
18 -0.15
2 -0.18
21 0.18
22 0.18
24 0.15
25 0.15
26 0.15
27 0.15
28 0.4
29 0.15
3 -0.43
30 0.15
31 0.15
32 0.15
4 -0.68
5 -0.57
6 0.63
7 -0.14
8 -0.14
9 0.66

> <PUBCHEM_EFFECTIVE_ROTOR_COUNT>
5

> <PUBCHEM_PHARMACOPHORE_FEATURES>
6
1 4 acceptor
1 4 donor
1 5 acceptor
3 10 19 20 hydrophobe
6 7 11 13 15 17 21 rings
6 8 12 14 16 18 22 rings

> <PUBCHEM_HEAVY_ATOM_COUNT>
22

> <PUBCHEM_ATOM_DEF_STEREO_COUNT>
0

> <PUBCHEM_ATOM_UDEF_STEREO_COUNT>
0

> <PUBCHEM_BOND_DEF_STEREO_COUNT>
0

> <PUBCHEM_BOND_UDEF_STEREO_COUNT>
0

> <PUBCHEM_ISOTOPIC_ATOM_COUNT>
0

> <PUBCHEM_COMPONENT_COUNT>
1

> <PUBCHEM_CACTVS_TAUTO_COUNT>
1

> <PUBCHEM_CONFORMER_ID>
0000564E00000001

> <PUBCHEM_MMFF94_ENERGY>
63.2877

> <PUBCHEM_FEATURE_SELFOVERLAP>
30.446

> <PUBCHEM_SHAPE_FINGERPRINT>
10254770 206 17188414305822762082
1100329 8 18340494361868218485
11101153 10 18055062174348754940
11488393 25 17616800472653027907
11578080 2 17678178196200829705
116883 192 18337956671270914343
11796584 16 18264766744431277894
12293681 4 18338249150471218103
12363563 72 18124596384056604006
12500047 106 18337954622930216556
12532896 13 18265341792151660789
12549972 3 17822593684622341418
12553582 1 18054211151520537858
12714826 92 18187351113580706606
12788726 201 18271227336245503941
13134695 92 17762631585624962727
13140716 1 18267018362895539329
13681431 1 17766562343809757565
13757389 114 18269540797236583636
13955234 65 17256522449518169737
14955137 171 17186442344069289544
15042514 8 18411413999582888227
15906896 17 18272642485025280883
15927050 60 18193558002179444614
16945 1 18409736170307960477
17357779 13 18116447954721881774
17539 30 18410296878320283935
1813 80 18046610218952614998
19591789 44 17978794832937586495
200 152 4822631121584897376
20197701 30 18124315175272407085
20567600 347 17979632656735132061
20600515 1 17626696823962332328
20602899 9 18118115011854606856
20711985 344 18340776974246326226
21041028 32 18124874565014353639
21452121 199 17980768133981071446
21524375 3 18053103118424049112
22224240 67 18265327494876199217
2255824 54 16895108020759005367
22620623 9 18408597059324490550
23419403 2 17314244271265025201
23557571 272 18196951984605612688
23558518 356 18272651199878135560
23559900 14 18189618423133344350
23598288 3 18129075910217505628
298252 57 18056473078692793736
3729539 64 17471559405955528366
3759504 43 18268708488139751884
404807 78 18131082550274573469
4409770 3 18412545431629167215
458136 41 17688862460062788713
6138700 20 17113250603861689958
6442390 28 18120930865697755745
6669772 16 17975413830181973958
7364860 26 17187008588251596451
77188 2 18050285864938656077
81228 2 18341903965043200329
9925002 15 18201427043864468317

> <PUBCHEM_SHAPE_MULTIPOLES>
438.88
7.52
5.03
1.31
11.33
0.72
0.17
-2.62
-0.8
-9.81
-0.15
0.21
-0.2
0.35

> <PUBCHEM_SHAPE_SELFOVERLAP>
919.754

> <PUBCHEM_SHAPE_VOLUME>
250.4

> <PUBCHEM_COORDINATE_TYPE>
2
5
10

$$$$

