17395854
  -OEChem-06241222523D

 48 51  0     1  0  0  0  0  0999 V2000
    2.5966   -1.8349    0.1583 O   0  0  0  0  0  0  0  0  0  0  0  0
    0.5587   -2.8505    1.4506 O   0  0  0  0  0  0  0  0  0  0  0  0
    6.4921    0.8722   -0.7658 O   0  0  0  0  0  0  0  0  0  0  0  0
    5.4708    2.8293    0.2012 O   0  0  0  0  0  0  0  0  0  0  0  0
   -0.9373   -1.5239    0.2669 N   0  0  0  0  0  0  0  0  0  0  0  0
   -3.4740   -0.1506    0.0267 N   0  0  0  0  0  0  0  0  0  0  0  0
   -2.0219   -1.7404    1.2209 C   0  0  0  0  0  0  0  0  0  0  0  0
   -1.2392   -0.6613   -0.8776 C   0  0  0  0  0  0  0  0  0  0  0  0
   -2.9315   -0.5193    1.3374 C   0  0  0  0  0  0  0  0  0  0  0  0
   -2.7370   -0.5667   -1.1691 C   0  0  0  0  0  0  0  0  0  0  0  0
    0.3029   -2.1241    0.4876 C   0  0  0  0  0  0  0  0  0  0  0  0
   -4.6777    0.5430   -0.0747 C   0  0  0  0  0  0  0  0  0  0  0  0
    1.3703   -1.8472   -0.5427 C   0  0  2  0  0  0  0  0  0  0  0  0
   -5.5129    0.3344   -1.1723 C   0  0  0  0  0  0  0  0  0  0  0  0
   -5.0477    1.4468    0.9214 C   0  0  0  0  0  0  0  0  0  0  0  0
    1.3701   -2.9115   -1.6148 C   0  0  0  0  0  0  0  0  0  0  0  0
    3.2916   -0.6494    0.1849 C   0  0  0  0  0  0  0  0  0  0  0  0
   -6.7179    1.0296   -1.2740 C   0  0  0  0  0  0  0  0  0  0  0  0
   -6.2528    2.1418    0.8196 C   0  0  0  0  0  0  0  0  0  0  0  0
   -7.0879    1.9332   -0.2780 C   0  0  0  0  0  0  0  0  0  0  0  0
    4.5812   -0.5883   -0.3488 C   0  0  0  0  0  0  0  0  0  0  0  0
    5.2379    0.6241   -0.2996 C   0  0  0  0  0  0  0  0  0  0  0  0
    2.6957    0.4923    0.7492 C   0  0  0  0  0  0  0  0  0  0  0  0
    4.6547    1.7415    0.2528 C   0  0  0  0  0  0  0  0  0  0  0  0
    3.3825    1.7082    0.7863 C   0  0  0  0  0  0  0  0  0  0  0  0
    6.6327    2.2717   -0.4463 C   0  0  0  0  0  0  0  0  0  0  0  0
   -2.5895   -2.6086    0.8642 H   0  0  0  0  0  0  0  0  0  0  0  0
   -1.6131   -1.9991    2.2035 H   0  0  0  0  0  0  0  0  0  0  0  0
   -0.8365    0.3311   -0.6405 H   0  0  0  0  0  0  0  0  0  0  0  0
   -0.7374   -1.0228   -1.7780 H   0  0  0  0  0  0  0  0  0  0  0  0
   -3.7382   -0.7629    2.0394 H   0  0  0  0  0  0  0  0  0  0  0  0
   -2.3652    0.3267    1.7460 H   0  0  0  0  0  0  0  0  0  0  0  0
   -3.1139   -1.5407   -1.5049 H   0  0  0  0  0  0  0  0  0  0  0  0
   -2.8750    0.1511   -1.9870 H   0  0  0  0  0  0  0  0  0  0  0  0
    1.2162   -0.8778   -1.0258 H   0  0  0  0  0  0  0  0  0  0  0  0
   -5.2613   -0.3734   -1.9574 H   0  0  0  0  0  0  0  0  0  0  0  0
   -4.4133    1.6423    1.7816 H   0  0  0  0  0  0  0  0  0  0  0  0
    0.4094   -2.9814   -2.1328 H   0  0  0  0  0  0  0  0  0  0  0  0
    2.1530   -2.7099   -2.3539 H   0  0  0  0  0  0  0  0  0  0  0  0
    1.5920   -3.8961   -1.1870 H   0  0  0  0  0  0  0  0  0  0  0  0
   -7.3699    0.8650   -2.1269 H   0  0  0  0  0  0  0  0  0  0  0  0
   -6.5399    2.8479    1.5934 H   0  0  0  0  0  0  0  0  0  0  0  0
   -8.0262    2.4744   -0.3571 H   0  0  0  0  0  0  0  0  0  0  0  0
    5.0485   -1.4636   -0.7866 H   0  0  0  0  0  0  0  0  0  0  0  0
    1.6958    0.4408    1.1725 H   0  0  0  0  0  0  0  0  0  0  0  0
    2.9275    2.5902    1.2222 H   0  0  0  0  0  0  0  0  0  0  0  0
    7.4969    2.3952    0.2166 H   0  0  0  0  0  0  0  0  0  0  0  0
    6.8180    2.8264   -1.3733 H   0  0  0  0  0  0  0  0  0  0  0  0
  1 13  1  0  0  0  0
  1 17  1  0  0  0  0
  2 11  2  0  0  0  0
  3 22  1  0  0  0  0
  3 26  1  0  0  0  0
  4 24  1  0  0  0  0
  4 26  1  0  0  0  0
  5  7  1  0  0  0  0
  5  8  1  0  0  0  0
  5 11  1  0  0  0  0
  6  9  1  0  0  0  0
  6 10  1  0  0  0  0
  6 12  1  0  0  0  0
  7  9  1  0  0  0  0
  7 27  1  0  0  0  0
  7 28  1  0  0  0  0
  8 10  1  0  0  0  0
  8 29  1  0  0  0  0
  8 30  1  0  0  0  0
  9 31  1  0  0  0  0
  9 32  1  0  0  0  0
 10 33  1  0  0  0  0
 10 34  1  0  0  0  0
 11 13  1  0  0  0  0
 12 14  2  0  0  0  0
 12 15  1  0  0  0  0
 13 16  1  0  0  0  0
 13 35  1  0  0  0  0
 14 18  1  0  0  0  0
 14 36  1  0  0  0  0
 15 19  2  0  0  0  0
 15 37  1  0  0  0  0
 16 38  1  0  0  0  0
 16 39  1  0  0  0  0
 16 40  1  0  0  0  0
 17 21  2  0  0  0  0
 17 23  1  0  0  0  0
 18 20  2  0  0  0  0
 18 41  1  0  0  0  0
 19 20  1  0  0  0  0
 19 42  1  0  0  0  0
 20 43  1  0  0  0  0
 21 22  1  0  0  0  0
 21 44  1  0  0  0  0
 22 24  2  0  0  0  0
 23 25  2  0  0  0  0
 23 45  1  0  0  0  0
 24 25  1  0  0  0  0
 25 46  1  0  0  0  0
 26 47  1  0  0  0  0
 26 48  1  0  0  0  0
M  END
> <PUBCHEM_COMPOUND_CID>
17395854

> <PUBCHEM_CONFORMER_RMSD>
0.8

> <PUBCHEM_CONFORMER_DIVERSEORDER>
2
90
231
163
223
207
235
255
309
203
213
204
107
124
210
94
197
22
233
132
307
118
220
56
248
261
52
156
98
254
172
208
263
3
65
252
194
131
46
142
199
238
206
280
190
282
14
310
256
279
293
272
284
150
15
108
173
239
215
59
7
134
227
38
97
216
226
193
288
137
181
53
283
177
5
115
129
87
267
41
71
27
121
33
151
290
106
301
17
74
86
211
143
274
47
303
184
174
77
178
171
32
234
127
152
58
201
270
149
103
85
138
247
286
169
278
253
135
185
104
76
285
157
294
299
110
214
268
165
99
296
55
28
168
23
241
91
291
298
281
48
13
257
155
224
300
11
100
45
75
170
73
140
111
139
154
191
230
128
244
120
112
144
218
295
82
26
40
182
136
308
273
95
271
232
64
10
21
221
304
31
269
83
39
19
146
147
205
43
242
68
51
225
222
9
266
236
4
62
188
61
167
260
196
12
141
228
179
219
49
60
251
145
101
20
264
246
66
292
164
105
70
195
25
116
250
6
289
249
200
125
30
302
240
37
67
84
133
180
29
8
311
202
306
63
258
113
175
78
166
262
158
54
148
72
126
189
259
275
245
186
237
35
50
217
96
153
265
36
162
198
159
92
161
69
212
176
89
183
16
88
287
297
80
209
192
57
187
42
130
305
93
117
109
229
79
114
81
24
122
119
18
243
160
34
1
123
102
277
276
44

> <PUBCHEM_MMFF94_PARTIAL_CHARGES>
33
1 -0.36
10 0.37
11 0.57
12 0.1
13 0.34
14 -0.15
15 -0.15
17 0.08
18 -0.15
19 -0.15
2 -0.57
20 -0.15
21 -0.15
22 0.08
23 -0.15
24 0.08
25 -0.15
26 0.56
3 -0.36
36 0.15
37 0.15
4 -0.36
41 0.15
42 0.15
43 0.15
44 0.15
45 0.15
46 0.15
5 -0.66
6 -0.84
7 0.3
8 0.3
9 0.37

> <PUBCHEM_EFFECTIVE_ROTOR_COUNT>
6.8

> <PUBCHEM_PHARMACOPHORE_FEATURES>
9
1 1 acceptor
1 2 acceptor
1 3 acceptor
1 4 acceptor
1 6 cation
5 3 4 22 24 26 rings
6 12 14 15 18 19 20 rings
6 17 21 22 23 24 25 rings
6 5 6 7 8 9 10 rings

> <PUBCHEM_HEAVY_ATOM_COUNT>
26

> <PUBCHEM_ATOM_DEF_STEREO_COUNT>
0

> <PUBCHEM_ATOM_UDEF_STEREO_COUNT>
1

> <PUBCHEM_BOND_DEF_STEREO_COUNT>
0

> <PUBCHEM_BOND_UDEF_STEREO_COUNT>
0

> <PUBCHEM_ISOTOPIC_ATOM_COUNT>
0

> <PUBCHEM_COMPONENT_COUNT>
1

> <PUBCHEM_CACTVS_TAUTO_COUNT>
1

> <PUBCHEM_CONFORMER_ID>
0109708E00000002

> <PUBCHEM_MMFF94_ENERGY>
89.6552

> <PUBCHEM_FEATURE_SELFOVERLAP>
45.835

> <PUBCHEM_SHAPE_FINGERPRINT>
10 15 16989123158261359573
10074138 170 16629951141377852195
10670039 82 16153702167672727833
12166972 35 7420950889480896344
12633257 1 16630245801302585630
13103583 49 14548735058672169082
13402501 40 18343023298056187557
13540713 4 18269534139953339675
13690498 29 17097227034784683919
13878862 14 18270700756159671534
13944108 23 18190738824617456632
13955234 65 17843687905137743395
14123256 34 8935008087552851224
14142895 15 18408609163433861509
14251751 18 9367349232274655331
14347332 77 8790886294091795643
14528608 73 18113344119686061495
14681490 219 18187085104681619529
14931854 50 17967805046952098640
15183329 4 17385723612497509441
15510800 12 7276828013029043772
15803439 3 16805878494958271670
15961568 22 18411981399233783061
17980427 23 16917064408867329487
18335252 114 18260832639600893340
190975 80 10015578381641376492
1979834 28 14333131913675471720
20715895 44 18410292489433432584
21033648 144 18271531979040882655
21033648 29 17846211134004342834
21033650 10 14562794591292916667
21267235 1 10231763301517608288
21298829 104 18408600388072519961
21307412 95 5761646006404852045
21585482 111 18198623426980173069
21682296 61 8286196163507377533
23522609 53 17168974747206005065
23845131 108 18131069333563575115
270888 7 18411982434140981240
2748736 6 18412832364892470448
2838139 119 18410014372572274181
3014063 24 9871745784817379857
3472631 163 18333731320867875823
34797466 226 18188772881395554143
3862424 121 14058150515912306981
397830 11 18270384058910664019
4058900 60 18335132115893653979
439807 62 7276836783589404521
465052 167 9943802300675747592
474 4 18408606976214267803
5104073 3 17918276449918936978
543368 44 18408886261627848645
5718773 13 7997702973848761444
5911458 16 17750221664835418569
6327066 14 18337391543932721220
6608658 132 17313375773265278249
6712543 237 15626232307497081273
7970288 3 9583522005472008921

> <PUBCHEM_SHAPE_MULTIPOLES>
501.63
18.95
3.1
1.29
7.2
0.5
-0.02
-19.46
-3.67
-2.46
0.18
1.02
0.47
0.07

> <PUBCHEM_SHAPE_SELFOVERLAP>
1086.586

> <PUBCHEM_SHAPE_VOLUME>
273.6

> <PUBCHEM_COORDINATE_TYPE>
2
5
10

$$$$

