7566553
  -OEChem-07051213113D

 45 46  0     1  0  0  0  0  0999 V2000
   -1.4532    0.7483   -0.5748 O   0  0  0  0  0  0  0  0  0  0  0  0
   -0.4300   -1.0920    0.4638 O   0  0  0  0  0  0  0  0  0  0  0  0
    0.9630    0.7001   -0.0625 O   0  0  0  0  0  0  0  0  0  0  0  0
   -2.8244   -2.4099    0.4949 O   0  0  0  0  0  0  0  0  0  0  0  0
   -4.4969    0.1051    1.1631 O   0  0  0  0  0  0  0  0  0  0  0  0
    1.8183   -2.6092    1.2815 O   0  0  0  0  0  0  0  0  0  0  0  0
    3.8007   -1.4548   -0.2080 O   0  0  0  0  0  0  0  0  0  0  0  0
    3.1299    1.4806    1.8352 O   0  0  0  0  0  0  0  0  0  0  0  0
   -1.9552   -0.8049   -2.8306 O   0  0  0  0  0  0  0  0  0  0  0  0
   -1.4719    3.3287    0.5323 O   0  0  0  0  0  0  0  0  0  0  0  0
    1.5369    1.3828   -2.6699 O   0  0  0  0  0  0  0  0  0  0  0  0
   -1.3920   -0.6887   -0.5122 C   0  0  1  0  0  0  0  0  0  0  0  0
   -2.7859   -1.1092   -0.0576 C   0  0  2  0  0  0  0  0  0  0  0  0
   -3.1031   -0.0338    0.9595 C   0  0  1  0  0  0  0  0  0  0  0  0
   -2.5269    1.2008    0.2753 C   0  0  1  0  0  0  0  0  0  0  0  0
    0.8938   -0.7175    0.0785 C   0  0  1  0  0  0  0  0  0  0  0  0
    1.8455   -1.1884    1.1776 C   0  0  2  0  0  0  0  0  0  0  0  0
    3.2798   -0.7315    0.9057 C   0  0  2  0  0  0  0  0  0  0  0  0
    3.3260    0.7690    0.6097 C   0  0  1  0  0  0  0  0  0  0  0  0
    2.2536    1.2242   -0.3957 C   0  0  1  0  0  0  0  0  0  0  0  0
   -1.0146   -1.2567   -1.8714 C   0  0  0  0  0  0  0  0  0  0  0  0
   -1.9937    2.2283    1.2587 C   0  0  0  0  0  0  0  0  0  0  0  0
    2.6003    0.9288   -1.8530 C   0  0  0  0  0  0  0  0  0  0  0  0
   -3.5229   -1.0692   -0.8683 H   0  0  0  0  0  0  0  0  0  0  0  0
   -2.6316   -0.2483    1.9259 H   0  0  0  0  0  0  0  0  0  0  0  0
   -3.2652    1.6773   -0.3816 H   0  0  0  0  0  0  0  0  0  0  0  0
    1.1877   -1.2374   -0.8356 H   0  0  0  0  0  0  0  0  0  0  0  0
    1.5118   -0.7866    2.1420 H   0  0  0  0  0  0  0  0  0  0  0  0
    3.9035   -0.9821    1.7719 H   0  0  0  0  0  0  0  0  0  0  0  0
    4.3187    1.0473    0.2365 H   0  0  0  0  0  0  0  0  0  0  0  0
    2.1305    2.3113   -0.3094 H   0  0  0  0  0  0  0  0  0  0  0  0
   -0.9976   -2.3511   -1.8656 H   0  0  0  0  0  0  0  0  0  0  0  0
   -0.0574   -0.9046   -2.2567 H   0  0  0  0  0  0  0  0  0  0  0  0
   -2.7852    2.5866    1.9239 H   0  0  0  0  0  0  0  0  0  0  0  0
   -1.1779    1.8100    1.8574 H   0  0  0  0  0  0  0  0  0  0  0  0
    2.7248   -0.1384   -2.0472 H   0  0  0  0  0  0  0  0  0  0  0  0
    3.5192    1.4472   -2.1449 H   0  0  0  0  0  0  0  0  0  0  0  0
   -2.1478   -2.4591    1.1916 H   0  0  0  0  0  0  0  0  0  0  0  0
   -4.6320    0.8666    1.7524 H   0  0  0  0  0  0  0  0  0  0  0  0
    2.1362   -2.9745    0.4380 H   0  0  0  0  0  0  0  0  0  0  0  0
    4.7172   -1.1608   -0.3457 H   0  0  0  0  0  0  0  0  0  0  0  0
    3.2341    2.4285    1.6445 H   0  0  0  0  0  0  0  0  0  0  0  0
   -1.9471    0.1676   -2.8167 H   0  0  0  0  0  0  0  0  0  0  0  0
   -1.1341    3.9672    1.1833 H   0  0  0  0  0  0  0  0  0  0  0  0
    1.7803    1.1914   -3.5916 H   0  0  0  0  0  0  0  0  0  0  0  0
  1 12  1  0  0  0  0
  1 15  1  0  0  0  0
  2 12  1  0  0  0  0
  2 16  1  0  0  0  0
  3 16  1  0  0  0  0
  3 20  1  0  0  0  0
  4 13  1  0  0  0  0
  4 38  1  0  0  0  0
  5 14  1  0  0  0  0
  5 39  1  0  0  0  0
  6 17  1  0  0  0  0
  6 40  1  0  0  0  0
  7 18  1  0  0  0  0
  7 41  1  0  0  0  0
  8 19  1  0  0  0  0
  8 42  1  0  0  0  0
  9 21  1  0  0  0  0
  9 43  1  0  0  0  0
 10 22  1  0  0  0  0
 10 44  1  0  0  0  0
 11 23  1  0  0  0  0
 11 45  1  0  0  0  0
 12 13  1  0  0  0  0
 12 21  1  0  0  0  0
 13 14  1  0  0  0  0
 13 24  1  0  0  0  0
 14 15  1  0  0  0  0
 14 25  1  0  0  0  0
 15 22  1  0  0  0  0
 15 26  1  0  0  0  0
 16 17  1  0  0  0  0
 16 27  1  0  0  0  0
 17 18  1  0  0  0  0
 17 28  1  0  0  0  0
 18 19  1  0  0  0  0
 18 29  1  0  0  0  0
 19 20  1  0  0  0  0
 19 30  1  0  0  0  0
 20 23  1  0  0  0  0
 20 31  1  0  0  0  0
 21 32  1  0  0  0  0
 21 33  1  0  0  0  0
 22 34  1  0  0  0  0
 22 35  1  0  0  0  0
 23 36  1  0  0  0  0
 23 37  1  0  0  0  0
M  END
> <PUBCHEM_COMPOUND_CID>
7566553

> <PUBCHEM_CONFORMER_RMSD>
0.8

> <PUBCHEM_CONFORMER_DIVERSEORDER>
1
2
7
6
5
3
4

> <PUBCHEM_MMFF94_PARTIAL_CHARGES>
31
1 -0.56
10 -0.68
11 -0.68
12 0.56
13 0.28
14 0.28
15 0.28
16 0.56
17 0.28
18 0.28
19 0.28
2 -0.56
20 0.28
21 0.28
22 0.28
23 0.28
3 -0.56
38 0.4
39 0.4
4 -0.68
40 0.4
41 0.4
42 0.4
43 0.4
44 0.4
45 0.4
5 -0.68
6 -0.68
7 -0.68
8 -0.68
9 -0.68

> <PUBCHEM_EFFECTIVE_ROTOR_COUNT>
7.2

> <PUBCHEM_PHARMACOPHORE_FEATURES>
21
1 1 acceptor
1 10 acceptor
1 10 donor
1 11 acceptor
1 11 donor
1 2 acceptor
1 3 acceptor
1 4 acceptor
1 4 donor
1 5 acceptor
1 5 donor
1 6 acceptor
1 6 donor
1 7 acceptor
1 7 donor
1 8 acceptor
1 8 donor
1 9 acceptor
1 9 donor
5 1 12 13 14 15 rings
6 3 16 17 18 19 20 rings

> <PUBCHEM_HEAVY_ATOM_COUNT>
23

> <PUBCHEM_ATOM_DEF_STEREO_COUNT>
9

> <PUBCHEM_ATOM_UDEF_STEREO_COUNT>
0

> <PUBCHEM_BOND_DEF_STEREO_COUNT>
0

> <PUBCHEM_BOND_UDEF_STEREO_COUNT>
0

> <PUBCHEM_ISOTOPIC_ATOM_COUNT>
0

> <PUBCHEM_COMPONENT_COUNT>
1

> <PUBCHEM_CACTVS_TAUTO_COUNT>
1

> <PUBCHEM_CONFORMER_ID>
007374D900000001

> <PUBCHEM_MMFF94_ENERGY>
77.7322

> <PUBCHEM_FEATURE_SELFOVERLAP>
106.708

> <PUBCHEM_SHAPE_FINGERPRINT>
11578080 2 18052012244060538260
12173636 292 18409735058085867995
12633257 1 16774072994493981648
13538477 17 18412255117097928525
14178342 30 18130520698719657794
14223421 5 18408326583473974138
14787075 74 17259606059599536599
16945 1 18265624366587329667
1813 80 17701811305888004678
18219364 16 17489321779814751590
20559304 39 18343012294402508256
20715895 44 17840590624301521077
21524375 3 17899137397528248673
22112679 90 18042134184593694095
23419403 2 15529779866184866241
23557571 272 17241889787512533696
23598288 3 18335424586307902223
2748010 2 17558292039744191790
31174 14 16343699876874871564
3797600 57 17557399017042438376
45790113 50 18201146724307247335
6992083 37 18057607783308609224
7097593 13 18126847337619015419
81228 2 16806745962245859079
9925002 15 14571853145408221148

> <PUBCHEM_SHAPE_MULTIPOLES>
408.77
6.44
2.51
2.01
0.04
0.82
1.56
-0.07
-1.96
0.67
-0.66
-0.47
-0.01
-1.06

> <PUBCHEM_SHAPE_SELFOVERLAP>
844.553

> <PUBCHEM_SHAPE_VOLUME>
231.4

> <PUBCHEM_COORDINATE_TYPE>
2
5
10

$$$$

