247013
  -OEChem-07051213073D

 50 53  0     1  0  0  0  0  0999 V2000
   -4.9306   -1.0928   -0.0729 O   0  0  0  0  0  0  0  0  0  0  0  0
   -0.3493    0.7962    0.1911 C   0  0  1  0  0  0  0  0  0  0  0  0
   -1.7760    0.7181   -0.3631 C   0  0  1  0  0  0  0  0  0  0  0  0
    0.4537   -0.4382   -0.3299 C   0  0  1  0  0  0  0  0  0  0  0  0
   -2.5138   -0.5661    0.0660 C   0  0  2  0  0  0  0  0  0  0  0  0
    1.9490   -0.4147    0.1538 C   0  0  2  0  0  0  0  0  0  0  0  0
   -0.2833   -1.7771   -0.0587 C   0  0  0  0  0  0  0  0  0  0  0  0
   -1.7545   -1.7675   -0.5127 C   0  0  0  0  0  0  0  0  0  0  0  0
    2.5800    0.9465   -0.2831 C   0  0  1  0  0  0  0  0  0  0  0  0
    0.3364    2.1088   -0.2132 C   0  0  0  0  0  0  0  0  0  0  0  0
   -2.7680    1.8290   -0.0266 C   0  0  0  0  0  0  0  0  0  0  0  0
   -3.8833   -0.2943   -0.5894 C   0  0  2  0  0  0  0  0  0  0  0  0
    1.7956    2.1598    0.2302 C   0  0  0  0  0  0  0  0  0  0  0  0
   -4.1443    1.2000   -0.3126 C   0  0  0  0  0  0  0  0  0  0  0  0
    2.7599   -1.5517   -0.5417 C   0  0  0  0  0  0  0  0  0  0  0  0
   -2.6731   -0.7400    1.5971 C   0  0  0  0  0  0  0  0  0  0  0  0
    2.0422   -0.6162    1.6896 C   0  0  0  0  0  0  0  0  0  0  0  0
    4.0702    1.0568    0.0921 C   0  0  0  0  0  0  0  0  0  0  0  0
    4.2507   -1.3615   -0.5068 C   0  0  0  0  0  0  0  0  0  0  0  0
    4.8386   -0.1950   -0.2095 C   0  0  0  0  0  0  0  0  0  0  0  0
   -0.3917    0.7736    1.2851 H   0  0  0  0  0  0  0  0  0  0  0  0
   -1.6872    0.7157   -1.4628 H   0  0  0  0  0  0  0  0  0  0  0  0
    0.4835   -0.3424   -1.4273 H   0  0  0  0  0  0  0  0  0  0  0  0
   -0.2444   -2.0272    1.0055 H   0  0  0  0  0  0  0  0  0  0  0  0
    0.2244   -2.5938   -0.5843 H   0  0  0  0  0  0  0  0  0  0  0  0
   -1.7798   -1.7361   -1.6097 H   0  0  0  0  0  0  0  0  0  0  0  0
   -2.2372   -2.7077   -0.2200 H   0  0  0  0  0  0  0  0  0  0  0  0
    2.5324    0.9863   -1.3834 H   0  0  0  0  0  0  0  0  0  0  0  0
   -0.1949    2.9619    0.2245 H   0  0  0  0  0  0  0  0  0  0  0  0
    0.2884    2.2333   -1.3026 H   0  0  0  0  0  0  0  0  0  0  0  0
   -2.6053    2.7236   -0.6363 H   0  0  0  0  0  0  0  0  0  0  0  0
   -2.6952    2.1263    1.0254 H   0  0  0  0  0  0  0  0  0  0  0  0
   -3.8373   -0.4632   -1.6721 H   0  0  0  0  0  0  0  0  0  0  0  0
    2.2493    3.0823   -0.1524 H   0  0  0  0  0  0  0  0  0  0  0  0
    1.8478    2.2203    1.3235 H   0  0  0  0  0  0  0  0  0  0  0  0
   -4.8265    1.3622    0.5293 H   0  0  0  0  0  0  0  0  0  0  0  0
   -4.6081    1.6656   -1.1895 H   0  0  0  0  0  0  0  0  0  0  0  0
    2.4656   -1.6365   -1.5956 H   0  0  0  0  0  0  0  0  0  0  0  0
    2.5271   -2.5153   -0.0723 H   0  0  0  0  0  0  0  0  0  0  0  0
   -3.1860   -1.6810    1.8282 H   0  0  0  0  0  0  0  0  0  0  0  0
   -1.7135   -0.7684    2.1201 H   0  0  0  0  0  0  0  0  0  0  0  0
   -3.2558    0.0669    2.0527 H   0  0  0  0  0  0  0  0  0  0  0  0
    1.6550   -1.5955    1.9887 H   0  0  0  0  0  0  0  0  0  0  0  0
    3.0743   -0.5757    2.0512 H   0  0  0  0  0  0  0  0  0  0  0  0
    1.4819    0.1398    2.2455 H   0  0  0  0  0  0  0  0  0  0  0  0
    4.1911    1.2984    1.1546 H   0  0  0  0  0  0  0  0  0  0  0  0
    4.5165    1.8862   -0.4702 H   0  0  0  0  0  0  0  0  0  0  0  0
    4.8707   -2.2231   -0.7373 H   0  0  0  0  0  0  0  0  0  0  0  0
    5.9229   -0.1378   -0.1860 H   0  0  0  0  0  0  0  0  0  0  0  0
   -5.1243   -0.8095    0.8360 H   0  0  0  0  0  0  0  0  0  0  0  0
  1 12  1  0  0  0  0
  1 50  1  0  0  0  0
  2  3  1  0  0  0  0
  2  4  1  0  0  0  0
  2 10  1  0  0  0  0
  2 21  1  0  0  0  0
  3  5  1  0  0  0  0
  3 11  1  0  0  0  0
  3 22  1  0  0  0  0
  4  6  1  0  0  0  0
  4  7  1  0  0  0  0
  4 23  1  0  0  0  0
  5  8  1  0  0  0  0
  5 12  1  0  0  0  0
  5 16  1  0  0  0  0
  6  9  1  0  0  0  0
  6 15  1  0  0  0  0
  6 17  1  0  0  0  0
  7  8  1  0  0  0  0
  7 24  1  0  0  0  0
  7 25  1  0  0  0  0
  8 26  1  0  0  0  0
  8 27  1  0  0  0  0
  9 13  1  0  0  0  0
  9 18  1  0  0  0  0
  9 28  1  0  0  0  0
 10 13  1  0  0  0  0
 10 29  1  0  0  0  0
 10 30  1  0  0  0  0
 11 14  1  0  0  0  0
 11 31  1  0  0  0  0
 11 32  1  0  0  0  0
 12 14  1  0  0  0  0
 12 33  1  0  0  0  0
 13 34  1  0  0  0  0
 13 35  1  0  0  0  0
 14 36  1  0  0  0  0
 14 37  1  0  0  0  0
 15 19  1  0  0  0  0
 15 38  1  0  0  0  0
 15 39  1  0  0  0  0
 16 40  1  0  0  0  0
 16 41  1  0  0  0  0
 16 42  1  0  0  0  0
 17 43  1  0  0  0  0
 17 44  1  0  0  0  0
 17 45  1  0  0  0  0
 18 20  1  0  0  0  0
 18 46  1  0  0  0  0
 18 47  1  0  0  0  0
 19 20  2  0  0  0  0
 19 48  1  0  0  0  0
 20 49  1  0  0  0  0
M  END
> <PUBCHEM_COMPOUND_CID>
247013

> <PUBCHEM_CONFORMER_RMSD>
0.6

> <PUBCHEM_CONFORMER_DIVERSEORDER>
1

> <PUBCHEM_MMFF94_PARTIAL_CHARGES>
9
1 -0.68
12 0.28
15 0.14
18 0.14
19 -0.29
20 -0.29
48 0.15
49 0.15
50 0.4

> <PUBCHEM_EFFECTIVE_ROTOR_COUNT>
1.8

> <PUBCHEM_PHARMACOPHORE_FEATURES>
6
1 1 acceptor
1 1 donor
5 3 5 11 12 14 rings
6 2 3 4 5 7 8 rings
6 2 4 6 9 10 13 rings
6 6 9 15 18 19 20 rings

> <PUBCHEM_HEAVY_ATOM_COUNT>
20

> <PUBCHEM_ATOM_DEF_STEREO_COUNT>
7

> <PUBCHEM_ATOM_UDEF_STEREO_COUNT>
0

> <PUBCHEM_BOND_DEF_STEREO_COUNT>
0

> <PUBCHEM_BOND_UDEF_STEREO_COUNT>
0

> <PUBCHEM_ISOTOPIC_ATOM_COUNT>
0

> <PUBCHEM_COMPONENT_COUNT>
1

> <PUBCHEM_CACTVS_TAUTO_COUNT>
1

> <PUBCHEM_CONFORMER_ID>
0003C4E500000001

> <PUBCHEM_MMFF94_ENERGY>
67.5776

> <PUBCHEM_FEATURE_SELFOVERLAP>
30.538

> <PUBCHEM_SHAPE_FINGERPRINT>
10366900 7 17704072884772108155
10498660 4 18341899648611701957
10967382 1 18409731737906959868
11132069 177 18408610244979428296
11471102 20 18409168796870475340
12011746 2 18413111679758665613
12236239 1 17846500357286444246
12403259 226 18336552633767354093
13140716 1 17978230452469892512
13221675 6 18413389817471888402
13224815 77 18272936020074856248
13296908 3 18342454841848658426
13675066 3 18341891857725441800
14115302 16 17632005373580957534
14223421 5 18124873452169535187
14790565 3 18121209046187137145
14866123 147 17178827642004974994
15099037 51 18410295843380637797
15196674 1 18410012151916076092
15309172 13 18333724719645702563
15375358 24 18409732867683844718
15442244 35 18408603690606243916
15536298 74 18334579027453734252
15848702 151 17822564014402678246
16752209 62 18338524135061098145
16945 1 18266453200838898580
17349148 13 17749109984826086335
17802600 8 18410295791624862685
17804303 29 18409446990212830861
18186145 218 17988649618112803421
19591789 44 18338517546628881830
19862831 5 18343300387881344684
200 152 17967817145647565733
20028762 73 18114186268448155495
20510252 161 18261110802857508625
20645477 70 18340209591913035620
21029758 11 18334016102996005009
21033648 29 17677066714567290665
21267235 1 18409721868309711422
21452121 103 18261686883106280624
221357 26 18409171017352951101
221490 88 18268705022063954394
23402539 116 18335145323355400054
23493267 7 18059571425049825603
23559900 14 18260835890859916360
2748010 2 18411705395564930556
2871803 45 18273219694090679148
296302 2 18413670222785568485
3004659 81 18272085059222994862
335352 9 18265614458060835396
34934 24 18410580569916597156
350125 39 18409163321088288401
4214541 1 18409448111183438365
474 4 17417243218126481468
4921388 177 16271913888195027745
5104073 3 18409730676960426208
633830 44 17775002358753221918
69090 78 18333734602165010311
7364860 26 18261959522929126608
74978 22 18337112276147129367
7832392 63 18336833004831519996
9709674 26 18340486660374548211
9981440 41 17333930855600402048

> <PUBCHEM_SHAPE_MULTIPOLES>
405.72
8.78
2.14
0.98
0.12
0.5
0.41
-0.88
-0.87
0.04
-0.16
-0.05
-0.23
0.32

> <PUBCHEM_SHAPE_SELFOVERLAP>
863.619

> <PUBCHEM_SHAPE_VOLUME>
223.3

> <PUBCHEM_COORDINATE_TYPE>
2
5
10

$$$$

