17396235
  -OEChem-06241222553D

 51 53  0     0  0  0  0  0  0999 V2000
    0.5477   -1.3527   -0.3376 S   0  0  0  0  0  0  0  0  0  0  0  0
    0.3536   -2.7673   -0.0646 O   0  0  0  0  0  0  0  0  0  0  0  0
    1.0891   -0.9213   -1.6163 O   0  0  0  0  0  0  0  0  0  0  0  0
   -4.0755   -1.9669    0.5921 O   0  0  0  0  0  0  0  0  0  0  0  0
    1.4934   -0.6564    0.9047 N   0  0  0  0  0  0  0  0  0  0  0  0
   -3.3281   -0.3009   -0.8614 N   0  0  0  0  0  0  0  0  0  0  0  0
   -0.9914   -0.5223   -0.0939 C   0  0  0  0  0  0  0  0  0  0  0  0
    2.9262    1.1975    1.6095 C   0  0  0  0  0  0  0  0  0  0  0  0
    1.5859    0.8118    0.9958 C   0  0  0  0  0  0  0  0  0  0  0  0
    4.0929    0.6791    0.7683 C   0  0  0  0  0  0  0  0  0  0  0  0
   -2.0473   -0.9610   -1.0902 C   0  0  0  0  0  0  0  0  0  0  0  0
    5.4376    1.1000    1.3651 C   0  0  0  0  0  0  0  0  0  0  0  0
   -4.2566   -0.9053    0.0001 C   0  0  0  0  0  0  0  0  0  0  0  0
    6.5942    0.6238    0.5240 C   0  0  0  0  0  0  0  0  0  0  0  0
   -5.5451   -0.1822    0.1915 C   0  0  0  0  0  0  0  0  0  0  0  0
   -3.5842    0.8978   -1.5010 C   0  0  0  0  0  0  0  0  0  0  0  0
   -5.7637    1.0313   -0.4760 C   0  0  0  0  0  0  0  0  0  0  0  0
   -4.7284    1.5717   -1.3506 C   0  0  0  0  0  0  0  0  0  0  0  0
   -6.5301   -0.7114    1.0329 C   0  0  0  0  0  0  0  0  0  0  0  0
    7.1683   -0.6234    0.7700 C   0  0  0  0  0  0  0  0  0  0  0  0
    7.0902    1.4300   -0.5006 C   0  0  0  0  0  0  0  0  0  0  0  0
   -6.9739    1.7094   -0.2942 C   0  0  0  0  0  0  0  0  0  0  0  0
   -7.7334   -0.0274    1.2068 C   0  0  0  0  0  0  0  0  0  0  0  0
   -7.9549    1.1799    0.5455 C   0  0  0  0  0  0  0  0  0  0  0  0
    8.2385   -1.0645   -0.0083 C   0  0  0  0  0  0  0  0  0  0  0  0
    8.1604    0.9889   -1.2790 C   0  0  0  0  0  0  0  0  0  0  0  0
    8.7345   -0.2584   -1.0328 C   0  0  0  0  0  0  0  0  0  0  0  0
   -0.8222    0.5538   -0.1931 H   0  0  0  0  0  0  0  0  0  0  0  0
   -1.3184   -0.7307    0.9304 H   0  0  0  0  0  0  0  0  0  0  0  0
    2.9994    0.7907    2.6257 H   0  0  0  0  0  0  0  0  0  0  0  0
    2.9812    2.2894    1.6923 H   0  0  0  0  0  0  0  0  0  0  0  0
    1.4975    1.2675    0.0041 H   0  0  0  0  0  0  0  0  0  0  0  0
    0.7721    1.1842    1.6263 H   0  0  0  0  0  0  0  0  0  0  0  0
   -1.7196   -0.7670   -2.1193 H   0  0  0  0  0  0  0  0  0  0  0  0
   -2.1934   -2.0457   -1.0182 H   0  0  0  0  0  0  0  0  0  0  0  0
    4.0598   -0.4150    0.6977 H   0  0  0  0  0  0  0  0  0  0  0  0
    4.0044    1.0638   -0.2558 H   0  0  0  0  0  0  0  0  0  0  0  0
    1.4528   -1.1214    1.8213 H   0  0  0  0  0  0  0  0  0  0  0  0
    5.5383    0.7054    2.3844 H   0  0  0  0  0  0  0  0  0  0  0  0
    5.4831    2.1924    1.4614 H   0  0  0  0  0  0  0  0  0  0  0  0
   -2.7987    1.2818   -2.1432 H   0  0  0  0  0  0  0  0  0  0  0  0
   -4.8987    2.5105   -1.8646 H   0  0  0  0  0  0  0  0  0  0  0  0
   -6.3804   -1.6500    1.5591 H   0  0  0  0  0  0  0  0  0  0  0  0
    6.7894   -1.2614    1.5641 H   0  0  0  0  0  0  0  0  0  0  0  0
    6.6501    2.4028   -0.7032 H   0  0  0  0  0  0  0  0  0  0  0  0
   -7.1658    2.6520   -0.8012 H   0  0  0  0  0  0  0  0  0  0  0  0
   -8.4995   -0.4361    1.8594 H   0  0  0  0  0  0  0  0  0  0  0  0
   -8.8931    1.7095    0.6839 H   0  0  0  0  0  0  0  0  0  0  0  0
    8.6852   -2.0358    0.1828 H   0  0  0  0  0  0  0  0  0  0  0  0
    8.5463    1.6162   -2.0772 H   0  0  0  0  0  0  0  0  0  0  0  0
    9.5674   -0.6019   -1.6392 H   0  0  0  0  0  0  0  0  0  0  0  0
  1  2  2  0  0  0  0
  1  3  2  0  0  0  0
  1  5  1  0  0  0  0
  1  7  1  0  0  0  0
  4 13  2  0  0  0  0
  5  9  1  0  0  0  0
  5 38  1  0  0  0  0
  6 11  1  0  0  0  0
  6 13  1  0  0  0  0
  6 16  1  0  0  0  0
  7 11  1  0  0  0  0
  7 28  1  0  0  0  0
  7 29  1  0  0  0  0
  8  9  1  0  0  0  0
  8 10  1  0  0  0  0
  8 30  1  0  0  0  0
  8 31  1  0  0  0  0
  9 32  1  0  0  0  0
  9 33  1  0  0  0  0
 10 12  1  0  0  0  0
 10 36  1  0  0  0  0
 10 37  1  0  0  0  0
 11 34  1  0  0  0  0
 11 35  1  0  0  0  0
 12 14  1  0  0  0  0
 12 39  1  0  0  0  0
 12 40  1  0  0  0  0
 13 15  1  0  0  0  0
 14 20  2  0  0  0  0
 14 21  1  0  0  0  0
 15 17  1  0  0  0  0
 15 19  2  0  0  0  0
 16 18  2  0  0  0  0
 16 41  1  0  0  0  0
 17 18  1  0  0  0  0
 17 22  2  0  0  0  0
 18 42  1  0  0  0  0
 19 23  1  0  0  0  0
 19 43  1  0  0  0  0
 20 25  1  0  0  0  0
 20 44  1  0  0  0  0
 21 26  2  0  0  0  0
 21 45  1  0  0  0  0
 22 24  1  0  0  0  0
 22 46  1  0  0  0  0
 23 24  2  0  0  0  0
 23 47  1  0  0  0  0
 24 48  1  0  0  0  0
 25 27  2  0  0  0  0
 25 49  1  0  0  0  0
 26 27  1  0  0  0  0
 26 50  1  0  0  0  0
 27 51  1  0  0  0  0
M  END
> <PUBCHEM_COMPOUND_CID>
17396235

> <PUBCHEM_CONFORMER_RMSD>
1.4

> <PUBCHEM_CONFORMER_DIVERSEORDER>
2
74
1
58
42
31
12
44
29
90
84
66
52
82
3
86
76
59
23
73
85
11
78
4
43
67
37
20
30
81
45
87
9
55
65
88
53
47
91
28
13
71
35
18
49
62
93
48
14
51
70
27
8
95
17
68
40
38
63
79
75
92
39
41
10
36
21
32
24
19
6
46
80
33
94
34
54
61
56
7
64
69
5
26
15
77
83
16
89
22
25
60
72
50
57
96

> <PUBCHEM_MMFF94_PARTIAL_CHARGES>
37
1 1.33
11 0.3
12 0.14
13 0.54
14 -0.14
15 0.09
16 -0.04
17 0.03
18 -0.18
19 -0.15
2 -0.65
20 -0.15
21 -0.15
22 -0.15
23 -0.15
24 -0.15
25 -0.15
26 -0.15
27 -0.15
3 -0.65
38 0.42
4 -0.57
41 0.15
42 0.15
43 0.15
44 0.15
45 0.15
46 0.15
47 0.15
48 0.15
49 0.15
5 -0.91
50 0.15
51 0.15
6 -0.47
7 0.11
9 0.36

> <PUBCHEM_EFFECTIVE_ROTOR_COUNT>
9

> <PUBCHEM_PHARMACOPHORE_FEATURES>
7
1 2 acceptor
1 3 acceptor
1 4 acceptor
1 5 donor
6 14 20 21 25 26 27 rings
6 15 17 19 22 23 24 rings
6 6 13 15 16 17 18 rings

> <PUBCHEM_HEAVY_ATOM_COUNT>
27

> <PUBCHEM_ATOM_DEF_STEREO_COUNT>
0

> <PUBCHEM_ATOM_UDEF_STEREO_COUNT>
0

> <PUBCHEM_BOND_DEF_STEREO_COUNT>
0

> <PUBCHEM_BOND_UDEF_STEREO_COUNT>
0

> <PUBCHEM_ISOTOPIC_ATOM_COUNT>
0

> <PUBCHEM_COMPONENT_COUNT>
1

> <PUBCHEM_CACTVS_TAUTO_COUNT>
1

> <PUBCHEM_CONFORMER_ID>
0109720B00000002

> <PUBCHEM_MMFF94_ENERGY>
50.9587

> <PUBCHEM_FEATURE_SELFOVERLAP>
35.563

> <PUBCHEM_SHAPE_FINGERPRINT>
10 15 18059857277036021443
10299344 5 17275106128567155680
10369192 42 18272655644900132015
10391435 84 11095876073154577593
106641 1 15410892955165125353
10670039 82 14634866471029738099
10674148 151 18408326575854633272
11135926 11 16225759723187968295
11315181 36 11095887082030761871
11719270 70 8502658121437758824
11828422 8 16157672289692702144
12202916 173 9007057971940308201
12643181 29 7997964683581128677
13177829 20 16200434671343163753
13914758 101 15140674783137323490
14251764 18 15482671277734313544
1454969 45 11887954367558614698
14849402 71 16702014236999997292
14856354 85 17775003445322425643
14933364 13 18131072632313968888
15183329 4 17385724695155899668
15444296 9 17022615407994633668
15461852 350 18341060636205520255
15728490 51 14117793605052744352
15979999 66 8358251549126007755
190975 80 12247678279630135672
21365058 27 16774080674243595650
21585482 111 18116430530937159985
22149856 69 13254528625189102324
22224240 67 13973967606121122360
2747138 104 13758355609244241524
28498 318 17530962493341374976
4280585 95 6627752201645001651
45270241 37 18343012278419715996
474113 269 5039680232115243884
5085150 59 6844203160132248964
5381727 24 16515406249484672391
5758199 1 16128658552719712416
6394761 36 17603585227402301688
6698420 124 17822007584399808907
9689198 14 17989205945627762708
9962374 69 12175325969378880553

> <PUBCHEM_SHAPE_MULTIPOLES>
531.93
30.52
1.81
1.44
25.75
0.47
0.08
-7.88
-0.27
-0.65
0.11
0.38
-0.3
0.99

> <PUBCHEM_SHAPE_SELFOVERLAP>
1109.765

> <PUBCHEM_SHAPE_VOLUME>
301.3

> <PUBCHEM_COORDINATE_TYPE>
2
5
10

$$$$

