440011
  -OEChem-07051212483D

 45 47  0     1  0  0  0  0  0999 V2000
    2.9370    1.1394   -0.2412 S   0  0  0  0  0  0  0  0  0  0  0  0
   -0.1372    1.0051   -0.5624 O   0  0  0  0  0  0  0  0  0  0  0  0
   -2.0841    3.4978   -1.1007 O   0  0  0  0  0  0  0  0  0  0  0  0
   -0.4845    4.2307    0.9817 O   0  0  0  0  0  0  0  0  0  0  0  0
   -5.0789   -3.2715    1.1524 O   0  0  0  0  0  0  0  0  0  0  0  0
    7.1082   -0.9448   -1.7115 O   0  0  0  0  0  0  0  0  0  0  0  0
    7.2345   -2.6480   -0.2210 O   0  0  0  0  0  0  0  0  0  0  0  0
   -2.2486    0.0537   -0.0415 N   0  0  0  0  0  0  0  0  0  0  0  0
   -2.6533   -1.6105    1.4116 N   0  0  0  0  0  0  0  0  0  0  0  0
   -4.2387   -0.2328   -1.4145 N   0  0  0  0  0  0  0  0  0  0  0  0
   -5.6862   -2.0234   -0.7069 N   0  0  0  0  0  0  0  0  0  0  0  0
    4.8781   -2.0822    0.8990 N   0  0  0  0  0  0  0  0  0  0  0  0
   -1.9151    2.5369   -0.0599 C   0  0  2  0  0  0  0  0  0  0  0  0
   -0.6924    2.8489    0.7825 C   0  0  1  0  0  0  0  0  0  0  0  0
   -1.5655    1.1816   -0.6771 C   0  0  1  0  0  0  0  0  0  0  0  0
    0.4261    2.2126   -0.0242 C   0  0  1  0  0  0  0  0  0  0  0  0
    1.6560    1.8822    0.8023 C   0  0  0  0  0  0  0  0  0  0  0  0
   -3.4169   -0.5268   -0.4024 C   0  0  0  0  0  0  0  0  0  0  0  0
   -1.8216   -0.6411    1.0689 C   0  0  0  0  0  0  0  0  0  0  0  0
   -3.6559   -1.5377    0.4861 C   0  0  0  0  0  0  0  0  0  0  0  0
    4.2009    0.8875    1.0268 C   0  0  0  0  0  0  0  0  0  0  0  0
    5.4833    0.2521    0.4817 C   0  0  0  0  0  0  0  0  0  0  0  0
   -4.8477   -2.3611    0.3661 C   0  0  0  0  0  0  0  0  0  0  0  0
    5.3192   -1.1433   -0.1375 C   0  0  1  0  0  0  0  0  0  0  0  0
   -5.3602   -1.0353   -1.4969 C   0  0  0  0  0  0  0  0  0  0  0  0
    6.6436   -1.6697   -0.6611 C   0  0  0  0  0  0  0  0  0  0  0  0
   -2.8394    2.5374    0.5255 H   0  0  0  0  0  0  0  0  0  0  0  0
   -0.7830    2.3567    1.7586 H   0  0  0  0  0  0  0  0  0  0  0  0
   -1.8097    1.1371   -1.7446 H   0  0  0  0  0  0  0  0  0  0  0  0
    0.7086    2.8657   -0.8610 H   0  0  0  0  0  0  0  0  0  0  0  0
    2.0537    2.7882    1.2704 H   0  0  0  0  0  0  0  0  0  0  0  0
    1.4020    1.1599    1.5855 H   0  0  0  0  0  0  0  0  0  0  0  0
   -1.2861    3.4977   -1.6553 H   0  0  0  0  0  0  0  0  0  0  0  0
   -1.2855    4.5881    1.4014 H   0  0  0  0  0  0  0  0  0  0  0  0
   -0.9045   -0.3968    1.5877 H   0  0  0  0  0  0  0  0  0  0  0  0
    4.4550    1.8649    1.4516 H   0  0  0  0  0  0  0  0  0  0  0  0
    3.7854    0.2810    1.8374 H   0  0  0  0  0  0  0  0  0  0  0  0
   -4.0763    0.5161   -2.0795 H   0  0  0  0  0  0  0  0  0  0  0  0
    6.2185    0.2051    1.2975 H   0  0  0  0  0  0  0  0  0  0  0  0
    5.9249    0.9298   -0.2616 H   0  0  0  0  0  0  0  0  0  0  0  0
    4.6040   -1.1565   -0.9659 H   0  0  0  0  0  0  0  0  0  0  0  0
   -6.0132   -0.7635   -2.3413 H   0  0  0  0  0  0  0  0  0  0  0  0
    3.9507   -1.8200    1.2297 H   0  0  0  0  0  0  0  0  0  0  0  0
    4.7716   -3.0115    0.4923 H   0  0  0  0  0  0  0  0  0  0  0  0
    7.9581   -1.2973   -2.0516 H   0  0  0  0  0  0  0  0  0  0  0  0
  1 17  1  0  0  0  0
  1 21  1  0  0  0  0
  2 15  1  0  0  0  0
  2 16  1  0  0  0  0
  3 13  1  0  0  0  0
  3 33  1  0  0  0  0
  4 14  1  0  0  0  0
  4 34  1  0  0  0  0
  5 23  2  0  0  0  0
  6 26  1  0  0  0  0
  6 45  1  0  0  0  0
  7 26  2  0  0  0  0
  8 15  1  0  0  0  0
  8 18  1  0  0  0  0
  8 19  1  0  0  0  0
  9 19  2  0  0  0  0
  9 20  1  0  0  0  0
 10 18  1  0  0  0  0
 10 25  1  0  0  0  0
 10 38  1  0  0  0  0
 11 23  1  0  0  0  0
 11 25  2  0  0  0  0
 12 24  1  0  0  0  0
 12 43  1  0  0  0  0
 12 44  1  0  0  0  0
 13 14  1  0  0  0  0
 13 15  1  0  0  0  0
 13 27  1  0  0  0  0
 14 16  1  0  0  0  0
 14 28  1  0  0  0  0
 15 29  1  0  0  0  0
 16 17  1  0  0  0  0
 16 30  1  0  0  0  0
 17 31  1  0  0  0  0
 17 32  1  0  0  0  0
 18 20  2  0  0  0  0
 19 35  1  0  0  0  0
 20 23  1  0  0  0  0
 21 22  1  0  0  0  0
 21 36  1  0  0  0  0
 21 37  1  0  0  0  0
 22 24  1  0  0  0  0
 22 39  1  0  0  0  0
 22 40  1  0  0  0  0
 24 26  1  0  0  0  0
 24 41  1  0  0  0  0
 25 42  1  0  0  0  0
M  END
> <PUBCHEM_COMPOUND_CID>
440011

> <PUBCHEM_CONFORMER_RMSD>
1

> <PUBCHEM_CONFORMER_DIVERSEORDER>
1
327
302
251
129
544
13
304
255
322
260
429
56
125
11
356
144
298
23
42
170
375
359
20
133
311
457
109
113
40
85
537
249
118
38
405
49
286
269
237
361
329
219
6
426
185
449
130
25
241
314
240
453
435
557
236
139
500
30
268
468
16
152
522
231
10
51
120
519
26
463
549
234
362
223
444
355
188
68
39
489
148
499
136
182
482
228
3
100
415
392
373
214
564
353
175
540
132
250
98
276
515
5
67
408
505
71
325
430
263
354
448
229
204
397
490
445
578
147
200
510
230
76
541
90
301
66
292
96
207
388
491
282
347
281
211
8
31
569
333
357
244
193
458
414
416
29
169
50
442
413
396
134
7
82
173
160
528
81
433
406
372
54
21
273
210
35
17
364
291
91
12
121

> <PUBCHEM_MMFF94_PARTIAL_CHARGES>
33
1 -0.46
10 -0.53
11 -0.66
12 -0.99
13 0.28
14 0.28
15 0.54
16 0.28
17 0.23
18 -0.07
19 0.04
2 -0.56
20 0.14
21 0.23
23 0.87
24 0.33
25 0.44
26 0.66
3 -0.68
33 0.4
34 0.4
35 0.15
38 0.4
4 -0.68
42 0.06
43 0.36
44 0.36
45 0.5
5 -0.57
6 -0.65
7 -0.57
8 0.05
9 -0.57

> <PUBCHEM_EFFECTIVE_ROTOR_COUNT>
8

> <PUBCHEM_PHARMACOPHORE_FEATURES>
18
1 10 donor
1 11 donor
1 12 cation
1 12 donor
1 2 acceptor
1 3 acceptor
1 3 donor
1 4 acceptor
1 4 donor
1 5 acceptor
1 6 acceptor
1 7 acceptor
3 6 7 26 anion
3 8 9 19 cation
4 1 17 21 22 hydrophobe
5 2 13 14 15 16 rings
5 8 9 18 19 20 rings
6 10 11 18 20 23 25 rings

> <PUBCHEM_HEAVY_ATOM_COUNT>
26

> <PUBCHEM_ATOM_DEF_STEREO_COUNT>
5

> <PUBCHEM_ATOM_UDEF_STEREO_COUNT>
0

> <PUBCHEM_BOND_DEF_STEREO_COUNT>
0

> <PUBCHEM_BOND_UDEF_STEREO_COUNT>
0

> <PUBCHEM_ISOTOPIC_ATOM_COUNT>
0

> <PUBCHEM_COMPONENT_COUNT>
1

> <PUBCHEM_CACTVS_TAUTO_COUNT>
3

> <PUBCHEM_CONFORMER_ID>
0006B6CB00000001

> <PUBCHEM_MMFF94_ENERGY>
57.9859

> <PUBCHEM_FEATURE_SELFOVERLAP>
91.565

> <PUBCHEM_SHAPE_FINGERPRINT>
10 15 7060372648248267694
10319926 262 5039681399591941780
11796584 16 17845672347288755849
11809386 21 18268434701718620312
11991303 11 18125721437786649309
12760667 363 18409448089639893569
131258 43 18336529548962061340
13533116 47 18042126462221624488
13540713 4 18262540146805457208
13631057 29 18411698825113981898
13782708 43 17967817150196039542
13911852 28 18335704875699520067
14123256 34 18335977597717881238
14866123 147 18337952394027313385
14931854 50 17988935482346169691
15250474 111 17915467301638386738
15510800 12 18411144619582477090
15519825 34 14707506745188430415
15927050 60 18121786299019243049
17492 89 18410012144181118976
21279426 13 18270977777598382229
21307412 95 18342184345415433999
21682296 61 18338517409833753379
21703447 108 18338811022314391360
23559900 14 18201166433770198717
2748736 6 9871473088970275446
2838139 119 9006794067705902192
3004659 81 17917717855557737824
437815 12 18338240371114680105
463206 1 18267589009204222842
484985 159 18335697312241292641
5104073 3 18040438828343767648
5309563 4 18408604738446687722
56633871 153 18041843904586445351
7970288 3 18337391526500170370

> <PUBCHEM_SHAPE_MULTIPOLES>
478.8
16.96
4.21
1.28
24.25
2.54
-0.13
-20.45
-4.2
-1.69
0.76
-0.39
-0.22
1.63

> <PUBCHEM_SHAPE_SELFOVERLAP>
1001.466

> <PUBCHEM_SHAPE_VOLUME>
273.5

> <PUBCHEM_COORDINATE_TYPE>
2
5
10

$$$$

