3700
  -OEChem-06251223363D

 46 48  0     0  0  0  0  0  0999 V2000
    0.9355    2.9024    0.5141 O   0  0  0  0  0  0  0  0  0  0  0  0
    5.5391    0.1596    0.0502 O   0  0  0  0  0  0  0  0  0  0  0  0
    4.5545   -2.3762   -0.4021 O   0  0  0  0  0  0  0  0  0  0  0  0
   -6.4805   -1.3008   -0.2534 O   0  0  0  0  0  0  0  0  0  0  0  0
    3.8101    2.3312    0.4259 N   0  0  0  0  0  0  0  0  0  0  0  0
   -0.0469   -0.5296   -0.0947 C   0  0  0  0  0  0  0  0  0  0  0  0
    1.4520   -0.5114   -0.0852 C   0  0  0  0  0  0  0  0  0  0  0  0
    1.9613    0.7689    0.1426 C   0  0  0  0  0  0  0  0  0  0  0  0
   -0.4032    0.9129    0.1595 C   0  0  0  0  0  0  0  0  0  0  0  0
    0.8505    1.7098    0.3046 C   0  0  0  0  0  0  0  0  0  0  0  0
    3.3168    1.0351    0.1949 C   0  0  0  0  0  0  0  0  0  0  0  0
    2.3158   -1.5774   -0.2701 C   0  0  0  0  0  0  0  0  0  0  0  0
   -1.6202    1.4518    0.2499 C   0  0  0  0  0  0  0  0  0  0  0  0
    4.1882   -0.0387    0.0087 C   0  0  0  0  0  0  0  0  0  0  0  0
    3.6924   -1.3342   -0.2218 C   0  0  0  0  0  0  0  0  0  0  0  0
   -2.8982    0.7278    0.1175 C   0  0  0  0  0  0  0  0  0  0  0  0
   -3.4919    0.6243   -1.1293 C   0  0  0  0  0  0  0  0  0  0  0  0
   -3.4781    0.1661    1.2428 C   0  0  0  0  0  0  0  0  0  0  0  0
   -4.7008   -0.0604   -1.2546 C   0  0  0  0  0  0  0  0  0  0  0  0
   -4.6868   -0.5187    1.1175 C   0  0  0  0  0  0  0  0  0  0  0  0
   -5.2982   -0.6318   -0.1312 C   0  0  0  0  0  0  0  0  0  0  0  0
   -5.3405   -0.1705   -2.5995 C   0  0  0  0  0  0  0  0  0  0  0  0
   -5.3105   -1.1249    2.3315 C   0  0  0  0  0  0  0  0  0  0  0  0
    6.1822    0.4749   -1.1813 C   0  0  0  0  0  0  0  0  0  0  0  0
    4.9574   -3.0903    0.7636 C   0  0  0  0  0  0  0  0  0  0  0  0
   -0.4154   -0.8625   -1.0700 H   0  0  0  0  0  0  0  0  0  0  0  0
   -0.4225   -1.1770    0.7038 H   0  0  0  0  0  0  0  0  0  0  0  0
    1.9331   -2.5772   -0.4488 H   0  0  0  0  0  0  0  0  0  0  0  0
   -1.7324    2.5176    0.4364 H   0  0  0  0  0  0  0  0  0  0  0  0
   -3.0222    1.0718   -2.0021 H   0  0  0  0  0  0  0  0  0  0  0  0
   -2.9977    0.2570    2.2142 H   0  0  0  0  0  0  0  0  0  0  0  0
    3.1726    3.1039    0.5623 H   0  0  0  0  0  0  0  0  0  0  0  0
    4.8076    2.4904    0.4754 H   0  0  0  0  0  0  0  0  0  0  0  0
   -6.3277    0.3034   -2.5979 H   0  0  0  0  0  0  0  0  0  0  0  0
   -4.7459    0.3299   -3.3720 H   0  0  0  0  0  0  0  0  0  0  0  0
   -5.4350   -1.2201   -2.8977 H   0  0  0  0  0  0  0  0  0  0  0  0
   -5.4073   -2.2086    2.2082 H   0  0  0  0  0  0  0  0  0  0  0  0
   -4.7117   -0.9482    3.2314 H   0  0  0  0  0  0  0  0  0  0  0  0
   -6.3015   -0.6929    2.5059 H   0  0  0  0  0  0  0  0  0  0  0  0
    5.7661    1.3886   -1.6170 H   0  0  0  0  0  0  0  0  0  0  0  0
    6.0840   -0.3545   -1.8889 H   0  0  0  0  0  0  0  0  0  0  0  0
    7.2447    0.6373   -0.9808 H   0  0  0  0  0  0  0  0  0  0  0  0
    4.0916   -3.5515    1.2494 H   0  0  0  0  0  0  0  0  0  0  0  0
    5.4720   -2.4261    1.4651 H   0  0  0  0  0  0  0  0  0  0  0  0
    5.6493   -3.8804    0.4595 H   0  0  0  0  0  0  0  0  0  0  0  0
   -6.7922   -1.3032   -1.1714 H   0  0  0  0  0  0  0  0  0  0  0  0
  1 10  2  0  0  0  0
  2 14  1  0  0  0  0
  2 24  1  0  0  0  0
  3 15  1  0  0  0  0
  3 25  1  0  0  0  0
  4 21  1  0  0  0  0
  4 46  1  0  0  0  0
  5 11  1  0  0  0  0
  5 32  1  0  0  0  0
  5 33  1  0  0  0  0
  6  7  1  0  0  0  0
  6  9  1  0  0  0  0
  6 26  1  0  0  0  0
  6 27  1  0  0  0  0
  7  8  1  0  0  0  0
  7 12  2  0  0  0  0
  8 10  1  0  0  0  0
  8 11  2  0  0  0  0
  9 10  1  0  0  0  0
  9 13  2  0  0  0  0
 11 14  1  0  0  0  0
 12 15  1  0  0  0  0
 12 28  1  0  0  0  0
 13 16  1  0  0  0  0
 13 29  1  0  0  0  0
 14 15  2  0  0  0  0
 16 17  2  0  0  0  0
 16 18  1  0  0  0  0
 17 19  1  0  0  0  0
 17 30  1  0  0  0  0
 18 20  2  0  0  0  0
 18 31  1  0  0  0  0
 19 21  2  0  0  0  0
 19 22  1  0  0  0  0
 20 21  1  0  0  0  0
 20 23  1  0  0  0  0
 22 34  1  0  0  0  0
 22 35  1  0  0  0  0
 22 36  1  0  0  0  0
 23 37  1  0  0  0  0
 23 38  1  0  0  0  0
 23 39  1  0  0  0  0
 24 40  1  0  0  0  0
 24 41  1  0  0  0  0
 24 42  1  0  0  0  0
 25 43  1  0  0  0  0
 25 44  1  0  0  0  0
 25 45  1  0  0  0  0
M  END
> <PUBCHEM_COMPOUND_CID>
3700

> <PUBCHEM_CONFORMER_RMSD>
0.6

> <PUBCHEM_CONFORMER_DIVERSEORDER>
1
6
4
5
2
3

> <PUBCHEM_MMFF94_PARTIAL_CHARGES>
32
1 -0.57
10 0.47
11 0.1
12 -0.15
13 -0.18
14 0.08
15 0.08
16 0.03
17 -0.15
18 -0.15
19 -0.14
2 -0.36
20 -0.14
21 0.08
22 0.14
23 0.14
24 0.28
25 0.28
28 0.15
29 0.15
3 -0.36
30 0.15
31 0.15
32 0.4
33 0.4
4 -0.53
46 0.45
5 -0.9
6 0.28
7 -0.14
8 0.09
9 -0.12

> <PUBCHEM_EFFECTIVE_ROTOR_COUNT>
3.2

> <PUBCHEM_PHARMACOPHORE_FEATURES>
9
1 1 acceptor
1 2 acceptor
1 3 acceptor
1 4 donor
1 5 cation
1 5 donor
5 6 7 8 9 10 rings
6 16 17 18 19 20 21 rings
6 7 8 11 12 14 15 rings

> <PUBCHEM_HEAVY_ATOM_COUNT>
25

> <PUBCHEM_ATOM_DEF_STEREO_COUNT>
0

> <PUBCHEM_ATOM_UDEF_STEREO_COUNT>
0

> <PUBCHEM_BOND_DEF_STEREO_COUNT>
0

> <PUBCHEM_BOND_UDEF_STEREO_COUNT>
1

> <PUBCHEM_ISOTOPIC_ATOM_COUNT>
0

> <PUBCHEM_COMPONENT_COUNT>
1

> <PUBCHEM_CACTVS_TAUTO_COUNT>
36

> <PUBCHEM_CONFORMER_ID>
00000E7400000001

> <PUBCHEM_MMFF94_ENERGY>
106.2138

> <PUBCHEM_FEATURE_SELFOVERLAP>
45.756

> <PUBCHEM_SHAPE_FINGERPRINT>
10447042 23 18411142463160572150
10673678 19 17559096702415750596
10912923 1 17240765060332288089
11796584 16 17346324833502785314
11963148 33 18342740668076718098
12236239 1 17240478091813038937
12422481 6 16878781758823359526
12596602 18 16153429424106099474
12616971 3 17894908546874023915
12730499 353 18341325614117517490
13402501 40 18201709627401612139
13540713 5 18122329445289919256
13544653 18 18411133671098870373
13782708 43 17988646319420119442
13862211 1 18335140912545189100
13955234 65 18262802857106539936
14386348 63 18131632253952449169
14767858 380 18338223900395427788
14849402 71 16516543084030546608
15188451 53 16081388336328895877
15196674 1 18337389460799800880
15537594 2 18261109664638427806
15788980 27 18186523219858410029
15961568 22 16701736034778089860
17349148 13 17967811660700197659
17492 89 18121497127635555518
17844677 252 18408037407964448845
17857418 61 17968103027244923951
17870717 6 17203608195038886179
1813 80 18114448029134099757
18222031 100 18041007258047431052
19377110 9 17458069256853539650
19489759 90 16415763016242988553
200 152 18260270750573186425
20028762 73 18113904904750223702
20645477 70 18413112748957608697
21033648 29 18130521747092779573
21033650 10 15912765132247856381
21065201 7 17131836473538766529
21267235 1 18260259750945579212
21623969 137 18411131420467468059
21641784 216 18200013145363760764
22061861 79 18272656761691790551
22393880 68 17632583781448932883
23522609 53 17897414299314469480
23557571 272 17489874838601188245
23559900 14 17989491805697601797
23569914 152 17332560219782274791
314194 84 18334015003399838271
3411729 13 15069769391375358418
345986 75 17822293543364159024
34797466 226 17060330808235882149
351380 3 17894910728321817045
4015057 19 18339081489141735577
4073 2 18131345332376997689
46194498 28 17489019362493207581
465052 167 18186799210351846678
5104073 3 18262799713168958248
5283173 99 17703520981765235989

> <PUBCHEM_SHAPE_MULTIPOLES>
486.03
15.82
2.31
1.47
3.76
0.4
-0.31
6.58
-2.33
-3.51
0.6
3.09
0.25
0.66

> <PUBCHEM_SHAPE_SELFOVERLAP>
1063.078

> <PUBCHEM_SHAPE_VOLUME>
268.2

> <PUBCHEM_COORDINATE_TYPE>
2
5
10

$$$$

