5281368
  -OEChem-07051212563D

 89 95  0     1  0  0  0  0  0999 V2000
   -2.9654    1.8695    1.9324 O   0  0  0  0  0  0  0  0  0  0  0  0
   -3.1240   -0.1571   -0.5342 O   0  0  0  0  0  0  0  0  0  0  0  0
   -2.9089   -1.3728    1.4914 O   0  0  0  0  0  0  0  0  0  0  0  0
   -2.3810   -2.4094   -0.4532 O   0  0  0  0  0  0  0  0  0  0  0  0
    1.0680   -1.2427   -0.1703 O   0  0  0  0  0  0  0  0  0  0  0  0
    0.3288    2.4463   -0.1711 O   0  0  0  0  0  0  0  0  0  0  0  0
   -0.3275    4.4175    1.5351 O   0  0  0  0  0  0  0  0  0  0  0  0
   -0.5224    3.2356    4.1152 O   0  0  0  0  0  0  0  0  0  0  0  0
   -0.3017    5.0127   -1.3721 O   0  0  0  0  0  0  0  0  0  0  0  0
    2.1746   -1.6093   -2.1651 O   0  0  0  0  0  0  0  0  0  0  0  0
   -1.2558    0.2565    1.0262 C   0  0  1  0  0  0  0  0  0  0  0  0
   -1.8025    0.4547   -0.4331 C   0  0  2  0  0  0  0  0  0  0  0  0
   -1.7749    1.1215    2.1497 C   0  0  1  0  0  0  0  0  0  0  0  0
   -1.7658    2.6379    2.1789 C   0  0  1  0  0  0  0  0  0  0  0  0
   -1.4850   -1.2295    1.3911 C   0  0  2  0  0  0  0  0  0  0  0  0
   -2.0514    1.9575   -0.7780 C   0  0  1  0  0  0  0  0  0  0  0  0
   -0.7900   -0.2858   -1.4246 C   0  0  1  0  0  0  0  0  0  0  0  0
   -1.1345   -2.1976    0.2408 C   0  0  2  0  0  0  0  0  0  0  0  0
   -0.9934    2.9554   -0.2631 C   0  0  1  0  0  0  0  0  0  0  0  0
   -1.3999    3.5852    1.0714 C   0  0  2  0  0  0  0  0  0  0  0  0
   -0.1779   -1.5803   -0.7844 C   0  0  2  0  0  0  0  0  0  0  0  0
   -3.2670   -1.4397    0.1081 C   0  0  2  0  0  0  0  0  0  0  0  0
   -1.8171    3.2674    3.5392 C   0  0  0  0  0  0  0  0  0  0  0  0
   -2.2447    2.3507   -2.2166 C   0  0  0  0  0  0  0  0  0  0  0  0
   -1.3858   -0.6594   -2.7967 C   0  0  0  0  0  0  0  0  0  0  0  0
   -0.9168    3.9562   -1.3996 C   0  0  0  0  0  0  0  0  0  0  0  0
   -0.6825   -3.5338    0.7449 C   0  0  0  0  0  0  0  0  0  0  0  0
   -1.6359    3.4777   -2.5920 C   0  0  0  0  0  0  0  0  0  0  0  0
   -4.6708   -1.9024   -0.0274 C   0  0  0  0  0  0  0  0  0  0  0  0
    0.5375   -3.5334    1.6176 C   0  0  0  0  0  0  0  0  0  0  0  0
   -1.3312   -4.6658    0.4335 C   0  0  0  0  0  0  0  0  0  0  0  0
   -1.6664    4.1915   -3.8857 C   0  0  0  0  0  0  0  0  0  0  0  0
   -5.0611   -2.6263   -1.1541 C   0  0  0  0  0  0  0  0  0  0  0  0
   -5.6000   -1.6129    0.9719 C   0  0  0  0  0  0  0  0  0  0  0  0
    2.1578   -1.3017   -0.9838 C   0  0  0  0  0  0  0  0  0  0  0  0
   -6.3805   -3.0608   -1.2813 C   0  0  0  0  0  0  0  0  0  0  0  0
   -6.9193   -2.0475    0.8447 C   0  0  0  0  0  0  0  0  0  0  0  0
    3.3405   -0.9244   -0.1788 C   0  0  0  0  0  0  0  0  0  0  0  0
   -7.3096   -2.7713   -0.2819 C   0  0  0  0  0  0  0  0  0  0  0  0
    4.5535   -0.9031   -0.7471 C   0  0  0  0  0  0  0  0  0  0  0  0
    5.7513   -0.5438   -0.0190 C   0  0  0  0  0  0  0  0  0  0  0  0
    6.9693   -0.5202   -0.5809 C   0  0  0  0  0  0  0  0  0  0  0  0
    8.1658   -0.1615    0.1476 C   0  0  0  0  0  0  0  0  0  0  0  0
    9.3852   -0.1368   -0.4107 C   0  0  0  0  0  0  0  0  0  0  0  0
   10.6340    0.2380    0.3353 C   0  0  0  0  0  0  0  0  0  0  0  0
   11.7086   -0.8508    0.2845 C   0  0  0  0  0  0  0  0  0  0  0  0
   11.2756   -2.1520    0.9453 C   0  0  0  0  0  0  0  0  0  0  0  0
   -0.1757    0.4341    1.0344 H   0  0  0  0  0  0  0  0  0  0  0  0
   -1.6468    0.6383    3.1140 H   0  0  0  0  0  0  0  0  0  0  0  0
   -1.0474   -1.4604    2.3642 H   0  0  0  0  0  0  0  0  0  0  0  0
   -3.0319    2.2280   -0.3587 H   0  0  0  0  0  0  0  0  0  0  0  0
    0.0445    0.3886   -1.6337 H   0  0  0  0  0  0  0  0  0  0  0  0
   -2.2574    4.2523    0.9109 H   0  0  0  0  0  0  0  0  0  0  0  0
   -0.0035   -2.3320   -1.5669 H   0  0  0  0  0  0  0  0  0  0  0  0
   -2.4960    2.7286    4.2104 H   0  0  0  0  0  0  0  0  0  0  0  0
   -2.1610    4.3064    3.4885 H   0  0  0  0  0  0  0  0  0  0  0  0
   -2.9205    1.8133   -2.8696 H   0  0  0  0  0  0  0  0  0  0  0  0
   -0.6872   -1.2860   -3.3633 H   0  0  0  0  0  0  0  0  0  0  0  0
   -1.5545    0.2163   -3.4231 H   0  0  0  0  0  0  0  0  0  0  0  0
   -2.3270   -1.2083   -2.7173 H   0  0  0  0  0  0  0  0  0  0  0  0
    0.6325    2.1923   -1.0578 H   0  0  0  0  0  0  0  0  0  0  0  0
   -0.1846    5.1131    0.8712 H   0  0  0  0  0  0  0  0  0  0  0  0
    1.4436   -3.4125    1.0176 H   0  0  0  0  0  0  0  0  0  0  0  0
    0.5264   -2.7631    2.3899 H   0  0  0  0  0  0  0  0  0  0  0  0
    0.6403   -4.4901    2.1439 H   0  0  0  0  0  0  0  0  0  0  0  0
   -0.5880    3.6517    4.9915 H   0  0  0  0  0  0  0  0  0  0  0  0
   -2.2107   -4.7077   -0.1977 H   0  0  0  0  0  0  0  0  0  0  0  0
   -0.9794   -5.6209    0.8128 H   0  0  0  0  0  0  0  0  0  0  0  0
   -0.6580    4.2674   -4.3044 H   0  0  0  0  0  0  0  0  0  0  0  0
   -2.2957    3.6710   -4.6148 H   0  0  0  0  0  0  0  0  0  0  0  0
   -2.0648    5.2028   -3.7579 H   0  0  0  0  0  0  0  0  0  0  0  0
   -4.3584   -2.8544   -1.9509 H   0  0  0  0  0  0  0  0  0  0  0  0
   -5.3270   -1.0389    1.8531 H   0  0  0  0  0  0  0  0  0  0  0  0
   -6.6854   -3.6220   -2.1597 H   0  0  0  0  0  0  0  0  0  0  0  0
   -7.6438   -1.8193    1.6210 H   0  0  0  0  0  0  0  0  0  0  0  0
    3.1920   -0.6711    0.8662 H   0  0  0  0  0  0  0  0  0  0  0  0
   -8.3372   -3.1083   -0.3817 H   0  0  0  0  0  0  0  0  0  0  0  0
    4.6758   -1.1611   -1.7960 H   0  0  0  0  0  0  0  0  0  0  0  0
    5.6322   -0.2852    1.0310 H   0  0  0  0  0  0  0  0  0  0  0  0
    7.0887   -0.7787   -1.6308 H   0  0  0  0  0  0  0  0  0  0  0  0
    8.0526    0.0939    1.1983 H   0  0  0  0  0  0  0  0  0  0  0  0
    9.5048   -0.3839   -1.4634 H   0  0  0  0  0  0  0  0  0  0  0  0
   10.4085    0.4779    1.3817 H   0  0  0  0  0  0  0  0  0  0  0  0
   11.0388    1.1521   -0.1155 H   0  0  0  0  0  0  0  0  0  0  0  0
   12.6079   -0.4799    0.7904 H   0  0  0  0  0  0  0  0  0  0  0  0
   11.9909   -1.0517   -0.7562 H   0  0  0  0  0  0  0  0  0  0  0  0
   10.4394   -2.6158    0.4133 H   0  0  0  0  0  0  0  0  0  0  0  0
   12.1053   -2.8662    0.9465 H   0  0  0  0  0  0  0  0  0  0  0  0
   10.9739   -1.9827    1.9839 H   0  0  0  0  0  0  0  0  0  0  0  0
  1 13  1  0  0  0  0
  1 14  1  0  0  0  0
  2 12  1  0  0  0  0
  2 22  1  0  0  0  0
  3 15  1  0  0  0  0
  3 22  1  0  0  0  0
  4 18  1  0  0  0  0
  4 22  1  0  0  0  0
  5 21  1  0  0  0  0
  5 35  1  0  0  0  0
  6 19  1  0  0  0  0
  6 61  1  0  0  0  0
  7 20  1  0  0  0  0
  7 62  1  0  0  0  0
  8 23  1  0  0  0  0
  8 66  1  0  0  0  0
  9 26  2  0  0  0  0
 10 35  2  0  0  0  0
 11 12  1  0  0  0  0
 11 13  1  0  0  0  0
 11 15  1  0  0  0  0
 11 48  1  0  0  0  0
 12 16  1  0  0  0  0
 12 17  1  0  0  0  0
 13 14  1  0  0  0  0
 13 49  1  0  0  0  0
 14 20  1  0  0  0  0
 14 23  1  0  0  0  0
 15 18  1  0  0  0  0
 15 50  1  0  0  0  0
 16 19  1  0  0  0  0
 16 24  1  0  0  0  0
 16 51  1  0  0  0  0
 17 21  1  0  0  0  0
 17 25  1  0  0  0  0
 17 52  1  0  0  0  0
 18 21  1  0  0  0  0
 18 27  1  0  0  0  0
 19 20  1  0  0  0  0
 19 26  1  0  0  0  0
 20 53  1  0  0  0  0
 21 54  1  0  0  0  0
 22 29  1  0  0  0  0
 23 55  1  0  0  0  0
 23 56  1  0  0  0  0
 24 28  2  0  0  0  0
 24 57  1  0  0  0  0
 25 58  1  0  0  0  0
 25 59  1  0  0  0  0
 25 60  1  0  0  0  0
 26 28  1  0  0  0  0
 27 30  1  0  0  0  0
 27 31  2  0  0  0  0
 28 32  1  0  0  0  0
 29 33  2  0  0  0  0
 29 34  1  0  0  0  0
 30 63  1  0  0  0  0
 30 64  1  0  0  0  0
 30 65  1  0  0  0  0
 31 67  1  0  0  0  0
 31 68  1  0  0  0  0
 32 69  1  0  0  0  0
 32 70  1  0  0  0  0
 32 71  1  0  0  0  0
 33 36  1  0  0  0  0
 33 72  1  0  0  0  0
 34 37  2  0  0  0  0
 34 73  1  0  0  0  0
 35 38  1  0  0  0  0
 36 39  2  0  0  0  0
 36 74  1  0  0  0  0
 37 39  1  0  0  0  0
 37 75  1  0  0  0  0
 38 40  2  0  0  0  0
 38 76  1  0  0  0  0
 39 77  1  0  0  0  0
 40 41  1  0  0  0  0
 40 78  1  0  0  0  0
 41 42  2  0  0  0  0
 41 79  1  0  0  0  0
 42 43  1  0  0  0  0
 42 80  1  0  0  0  0
 43 44  2  0  0  0  0
 43 81  1  0  0  0  0
 44 45  1  0  0  0  0
 44 82  1  0  0  0  0
 45 46  1  0  0  0  0
 45 83  1  0  0  0  0
 45 84  1  0  0  0  0
 46 47  1  0  0  0  0
 46 85  1  0  0  0  0
 46 86  1  0  0  0  0
 47 87  1  0  0  0  0
 47 88  1  0  0  0  0
 47 89  1  0  0  0  0
M  END
> <PUBCHEM_COMPOUND_CID>
5281368

> <PUBCHEM_CONFORMER_RMSD>
1.2

> <PUBCHEM_CONFORMER_DIVERSEORDER>
1
6
2
5
4
3

> <PUBCHEM_MMFF94_PARTIAL_CHARGES>
61
1 -0.3
10 -0.57
11 0.09
12 0.28
13 -0.05
14 -0.04
15 0.28
16 0.14
18 0.42
19 0.34
2 -0.56
20 0.38
21 0.28
22 0.98
23 0.38
24 -0.29
26 0.49
27 -0.28
28 -0.12
29 -0.14
3 -0.56
30 0.14
31 -0.3
32 0.14
33 -0.15
34 -0.15
35 0.71
36 -0.15
37 -0.15
38 -0.14
39 -0.15
4 -0.56
40 -0.15
41 -0.15
42 -0.15
43 -0.15
44 -0.29
45 0.14
49 0.1
5 -0.43
57 0.15
6 -0.68
61 0.4
62 0.4
66 0.4
67 0.15
68 0.15
7 -0.68
72 0.15
73 0.15
74 0.15
75 0.15
76 0.15
77 0.15
78 0.15
79 0.15
8 -0.68
80 0.15
81 0.15
82 0.15
9 -0.57

> <PUBCHEM_EFFECTIVE_ROTOR_COUNT>
11.4

> <PUBCHEM_PHARMACOPHORE_FEATURES>
17
1 1 acceptor
1 10 acceptor
1 2 acceptor
1 3 acceptor
1 4 acceptor
1 47 hydrophobe
1 6 acceptor
1 6 donor
1 7 acceptor
1 7 donor
1 8 acceptor
1 8 donor
1 9 acceptor
10 2 3 4 11 12 15 17 18 21 22 rings
5 16 19 24 26 28 rings
6 29 33 34 36 37 39 rings
7 11 12 13 14 16 19 20 rings

> <PUBCHEM_HEAVY_ATOM_COUNT>
47

> <PUBCHEM_ATOM_DEF_STEREO_COUNT>
11

> <PUBCHEM_ATOM_UDEF_STEREO_COUNT>
1

> <PUBCHEM_BOND_DEF_STEREO_COUNT>
3

> <PUBCHEM_BOND_UDEF_STEREO_COUNT>
0

> <PUBCHEM_ISOTOPIC_ATOM_COUNT>
0

> <PUBCHEM_COMPONENT_COUNT>
1

> <PUBCHEM_CACTVS_TAUTO_COUNT>
3

> <PUBCHEM_CONFORMER_ID>
0050965800000001

> <PUBCHEM_MMFF94_ENERGY>
146.3088

> <PUBCHEM_FEATURE_SELFOVERLAP>
86.454

> <PUBCHEM_SHAPE_FINGERPRINT>
10930396 42 18198080096573327738
11007060 377 18131064987805484442
12156800 1 17771941382927848417
12664476 115 18187085023851960330
13560911 43 18202286875443053488
14068700 675 18261948553582308249
14118638 360 17917998308965806794
14150022 121 18040428915242386240
14415361 192 18199489742967332881
15439362 3 17910390590333550189
15513586 35 18266169527820712268
17686467 74 18338798906379629106
19309040 13 16228845116013949432
20721686 146 14708028017517988427
21927370 108 18342442734283194579
25019877 29 17023172804312385207
283562 15 18339921614593624819
3552219 110 18336252453891350349
469060 322 18200579406419779697
5265222 85 16682307415149408285
6691757 9 12679463122770918886

> <PUBCHEM_SHAPE_MULTIPOLES>
908.54
22.14
6.3
2.87
103.4
5.39
0.82
-20.68
1.44
-8.24
-0.33
-3.06
4.25
-0.58

> <PUBCHEM_SHAPE_SELFOVERLAP>
1986.227

> <PUBCHEM_SHAPE_VOLUME>
483

> <PUBCHEM_COORDINATE_TYPE>
2
5
10

$$$$

