49787021
  -OEChem-07051213073D

105108  0     1  0  0  0  0  0999 V2000
    3.4101   -1.8911   -0.4206 O   0  0  0  0  0  0  0  0  0  0  0  0
    4.6378    0.3938   -0.3417 O   0  0  0  0  0  0  0  0  0  0  0  0
    0.5140    0.7631   -1.4631 O   0  0  0  0  0  0  0  0  0  0  0  0
    5.8340    2.3755    0.2056 O   0  0  0  0  0  0  0  0  0  0  0  0
   -4.5589   -0.1038    0.2209 O   0  0  0  0  0  0  0  0  0  0  0  0
   -6.6916   -0.0013    1.1465 O   0  0  0  0  0  0  0  0  0  0  0  0
    6.5717    0.9573    2.6680 O   0  0  0  0  0  0  0  0  0  0  0  0
    8.5001   -0.6483    1.3215 O   0  0  0  0  0  0  0  0  0  0  0  0
   -3.3517   -4.7585   -0.5730 O   0  0  0  0  0  0  0  0  0  0  0  0
    8.6015    2.1838    1.2008 O   0  0  0  0  0  0  0  0  0  0  0  0
   -7.5910    3.3778   -1.0322 O   0  0  0  0  0  0  0  0  0  0  0  0
   -4.8130    2.6149   -0.6107 O   0  0  0  0  0  0  0  0  0  0  0  0
   -0.8579   -4.8960    0.2973 O   0  0  0  0  0  0  0  0  0  0  0  0
   -0.4999    2.6077   -2.4055 O   0  0  0  0  0  0  0  0  0  0  0  0
    2.5629   -1.3521   -1.4414 C   0  0  2  0  0  0  0  0  0  0  0  0
    2.8256    0.0733   -1.8682 C   0  0  1  0  0  0  0  0  0  0  0  0
    2.0280   -1.7067   -0.0682 C   0  0  1  0  0  0  0  0  0  0  0  0
    1.5562    0.7358   -2.4667 C   0  0  1  0  0  0  0  0  0  0  0  0
    3.4122    0.9599   -0.7625 C   0  0  0  0  0  0  0  0  0  0  0  0
    1.0581   -2.8031    0.0415 C   0  0  0  0  0  0  0  0  0  0  0  0
   -3.2307   -2.0324    0.9546 C   0  0  2  0  0  0  0  0  0  0  0  0
    5.2487    1.1618    0.6884 C   0  0  2  0  0  0  0  0  0  0  0  0
   -3.6793   -0.5645    1.2501 C   0  0  1  0  0  0  0  0  0  0  0  0
    6.2614    0.2978    1.4418 C   0  0  1  0  0  0  0  0  0  0  0  0
   -3.1618   -2.3440   -0.5693 C   0  0  0  0  0  0  0  0  0  0  0  0
    7.5225    0.0919    0.5999 C   0  0  1  0  0  0  0  0  0  0  0  0
    1.0353    0.0107   -3.7070 C   0  0  0  0  0  0  0  0  0  0  0  0
   -2.5144   -3.6858   -0.9931 C   0  0  1  0  0  0  0  0  0  0  0  0
    8.0987    1.4189    0.1026 C   0  0  1  0  0  0  0  0  0  0  0  0
   -2.5552    0.4837    1.4748 C   0  0  2  0  0  0  0  0  0  0  0  0
    7.0227    2.2646   -0.5886 C   0  0  1  0  0  0  0  0  0  0  0  0
   -0.1045   -2.8461   -0.6235 C   0  0  0  0  0  0  0  0  0  0  0  0
   -5.5526    0.7590    0.7467 C   0  0  2  0  0  0  0  0  0  0  0  0
   -5.9264    1.7628   -0.3460 C   0  0  1  0  0  0  0  0  0  0  0  0
   -1.1243   -3.9025   -0.3767 C   0  0  0  0  0  0  0  0  0  0  0  0
   -7.1083    2.6336    0.0828 C   0  0  2  0  0  0  0  0  0  0  0  0
   -4.1978   -2.9908    1.6694 C   0  0  0  0  0  0  0  0  0  0  0  0
   -8.2462    1.7735    0.6232 C   0  0  0  0  0  0  0  0  0  0  0  0
   -7.7318    0.8136    1.6929 C   0  0  1  0  0  0  0  0  0  0  0  0
   -2.4253   -3.7683   -2.5226 C   0  0  0  0  0  0  0  0  0  0  0  0
   -1.5407    0.5726    0.3598 C   0  0  0  0  0  0  0  0  0  0  0  0
   -1.8221    0.2386    2.7995 C   0  0  0  0  0  0  0  0  0  0  0  0
    6.7065    1.7934   -2.0058 C   0  0  0  0  0  0  0  0  0  0  0  0
   -0.4409    1.7236   -1.5614 C   0  0  0  0  0  0  0  0  0  0  0  0
   -1.4515    1.6100   -0.4847 C   0  0  0  0  0  0  0  0  0  0  0  0
   -8.8396   -0.1098    2.1799 C   0  0  0  0  0  0  0  0  0  0  0  0
    5.5533    0.7570    3.6375 C   0  0  0  0  0  0  0  0  0  0  0  0
    9.3816   -1.3241    0.4414 C   0  0  0  0  0  0  0  0  0  0  0  0
   -8.3255    4.5190   -0.6147 C   0  0  0  0  0  0  0  0  0  0  0  0
    2.3634   -2.0070   -2.2807 H   0  0  0  0  0  0  0  0  0  0  0  0
    3.5821    0.0130   -2.6633 H   0  0  0  0  0  0  0  0  0  0  0  0
    1.8252   -0.9079    0.6352 H   0  0  0  0  0  0  0  0  0  0  0  0
    1.8141    1.7651   -2.7494 H   0  0  0  0  0  0  0  0  0  0  0  0
    2.7223    1.0463    0.0841 H   0  0  0  0  0  0  0  0  0  0  0  0
    3.5926    1.9673   -1.1562 H   0  0  0  0  0  0  0  0  0  0  0  0
    1.3028   -3.5815    0.7585 H   0  0  0  0  0  0  0  0  0  0  0  0
   -2.2475   -2.1940    1.4075 H   0  0  0  0  0  0  0  0  0  0  0  0
    4.4592    1.4809    1.3733 H   0  0  0  0  0  0  0  0  0  0  0  0
   -4.2433   -0.5976    2.1941 H   0  0  0  0  0  0  0  0  0  0  0  0
    5.8456   -0.6953    1.6594 H   0  0  0  0  0  0  0  0  0  0  0  0
   -2.6311   -1.5263   -1.0692 H   0  0  0  0  0  0  0  0  0  0  0  0
   -4.1872   -2.3289   -0.9648 H   0  0  0  0  0  0  0  0  0  0  0  0
    7.2147   -0.5014   -0.2723 H   0  0  0  0  0  0  0  0  0  0  0  0
    0.2209    0.5793   -4.1686 H   0  0  0  0  0  0  0  0  0  0  0  0
    1.8250   -0.1177   -4.4533 H   0  0  0  0  0  0  0  0  0  0  0  0
    0.6164   -0.9689   -3.4562 H   0  0  0  0  0  0  0  0  0  0  0  0
    8.9448    1.2561   -0.5722 H   0  0  0  0  0  0  0  0  0  0  0  0
   -3.0228    1.4722    1.5686 H   0  0  0  0  0  0  0  0  0  0  0  0
    7.3920    3.2939   -0.6768 H   0  0  0  0  0  0  0  0  0  0  0  0
   -0.3605   -2.0577   -1.3217 H   0  0  0  0  0  0  0  0  0  0  0  0
   -5.1737    1.3115    1.6169 H   0  0  0  0  0  0  0  0  0  0  0  0
   -6.1585    1.2444   -1.2839 H   0  0  0  0  0  0  0  0  0  0  0  0
   -6.7619    3.3278    0.8613 H   0  0  0  0  0  0  0  0  0  0  0  0
   -5.1913   -2.9714    1.2096 H   0  0  0  0  0  0  0  0  0  0  0  0
   -4.3083   -2.7222    2.7260 H   0  0  0  0  0  0  0  0  0  0  0  0
   -3.8265   -4.0185    1.6577 H   0  0  0  0  0  0  0  0  0  0  0  0
   -9.0482    2.3932    1.0380 H   0  0  0  0  0  0  0  0  0  0  0  0
   -8.6896    1.2104   -0.2092 H   0  0  0  0  0  0  0  0  0  0  0  0
   -7.3363    1.3702    2.5520 H   0  0  0  0  0  0  0  0  0  0  0  0
   -1.9356   -4.6982   -2.8353 H   0  0  0  0  0  0  0  0  0  0  0  0
   -3.4257   -3.7747   -2.9703 H   0  0  0  0  0  0  0  0  0  0  0  0
   -1.8617   -2.9340   -2.9522 H   0  0  0  0  0  0  0  0  0  0  0  0
   -0.8456   -0.2552    0.2831 H   0  0  0  0  0  0  0  0  0  0  0  0
   -1.1006    1.0397    2.9983 H   0  0  0  0  0  0  0  0  0  0  0  0
   -2.5284    0.2184    3.6364 H   0  0  0  0  0  0  0  0  0  0  0  0
   -1.2708   -0.7073    2.7992 H   0  0  0  0  0  0  0  0  0  0  0  0
    6.4057    0.7435   -2.0440 H   0  0  0  0  0  0  0  0  0  0  0  0
    7.5821    1.9077   -2.6530 H   0  0  0  0  0  0  0  0  0  0  0  0
    5.8837    2.3790   -2.4293 H   0  0  0  0  0  0  0  0  0  0  0  0
   -2.1444    2.4414   -0.4099 H   0  0  0  0  0  0  0  0  0  0  0  0
   -2.9867   -5.5869   -0.9282 H   0  0  0  0  0  0  0  0  0  0  0  0
    9.0162    2.9849    0.8374 H   0  0  0  0  0  0  0  0  0  0  0  0
   -9.2292   -0.7236    1.3601 H   0  0  0  0  0  0  0  0  0  0  0  0
   -9.6662    0.4567    2.6190 H   0  0  0  0  0  0  0  0  0  0  0  0
   -8.4523   -0.8037    2.9339 H   0  0  0  0  0  0  0  0  0  0  0  0
   -4.5782    3.0705    0.2156 H   0  0  0  0  0  0  0  0  0  0  0  0
    4.6442    1.3144    3.4026 H   0  0  0  0  0  0  0  0  0  0  0  0
    5.3278   -0.3063    3.7672 H   0  0  0  0  0  0  0  0  0  0  0  0
    5.9276    1.1366    4.5931 H   0  0  0  0  0  0  0  0  0  0  0  0
    8.8362   -2.0159   -0.2085 H   0  0  0  0  0  0  0  0  0  0  0  0
    9.9711   -0.6251   -0.1572 H   0  0  0  0  0  0  0  0  0  0  0  0
   10.0773   -1.9115    1.0477 H   0  0  0  0  0  0  0  0  0  0  0  0
   -9.2494    4.2391   -0.1026 H   0  0  0  0  0  0  0  0  0  0  0  0
   -7.7165    5.1672    0.0234 H   0  0  0  0  0  0  0  0  0  0  0  0
   -8.5994    5.0871   -1.5085 H   0  0  0  0  0  0  0  0  0  0  0  0
  1 15  1  0  0  0  0
  1 17  1  0  0  0  0
  2 19  1  0  0  0  0
  2 22  1  0  0  0  0
  3 18  1  0  0  0  0
  3 44  1  0  0  0  0
  4 22  1  0  0  0  0
  4 31  1  0  0  0  0
  5 23  1  0  0  0  0
  5 33  1  0  0  0  0
  6 33  1  0  0  0  0
  6 39  1  0  0  0  0
  7 24  1  0  0  0  0
  7 47  1  0  0  0  0
  8 26  1  0  0  0  0
  8 48  1  0  0  0  0
  9 28  1  0  0  0  0
  9 91  1  0  0  0  0
 10 29  1  0  0  0  0
 10 92  1  0  0  0  0
 11 36  1  0  0  0  0
 11 49  1  0  0  0  0
 12 34  1  0  0  0  0
 12 96  1  0  0  0  0
 13 35  2  0  0  0  0
 14 44  2  0  0  0  0
 15 16  1  0  0  0  0
 15 17  1  0  0  0  0
 15 50  1  0  0  0  0
 16 18  1  0  0  0  0
 16 19  1  0  0  0  0
 16 51  1  0  0  0  0
 17 20  1  0  0  0  0
 17 52  1  0  0  0  0
 18 27  1  0  0  0  0
 18 53  1  0  0  0  0
 19 54  1  0  0  0  0
 19 55  1  0  0  0  0
 20 32  2  0  0  0  0
 20 56  1  0  0  0  0
 21 23  1  0  0  0  0
 21 25  1  0  0  0  0
 21 37  1  0  0  0  0
 21 57  1  0  0  0  0
 22 24  1  0  0  0  0
 22 58  1  0  0  0  0
 23 30  1  0  0  0  0
 23 59  1  0  0  0  0
 24 26  1  0  0  0  0
 24 60  1  0  0  0  0
 25 28  1  0  0  0  0
 25 61  1  0  0  0  0
 25 62  1  0  0  0  0
 26 29  1  0  0  0  0
 26 63  1  0  0  0  0
 27 64  1  0  0  0  0
 27 65  1  0  0  0  0
 27 66  1  0  0  0  0
 28 35  1  0  0  0  0
 28 40  1  0  0  0  0
 29 31  1  0  0  0  0
 29 67  1  0  0  0  0
 30 41  1  0  0  0  0
 30 42  1  0  0  0  0
 30 68  1  0  0  0  0
 31 43  1  0  0  0  0
 31 69  1  0  0  0  0
 32 35  1  0  0  0  0
 32 70  1  0  0  0  0
 33 34  1  0  0  0  0
 33 71  1  0  0  0  0
 34 36  1  0  0  0  0
 34 72  1  0  0  0  0
 36 38  1  0  0  0  0
 36 73  1  0  0  0  0
 37 74  1  0  0  0  0
 37 75  1  0  0  0  0
 37 76  1  0  0  0  0
 38 39  1  0  0  0  0
 38 77  1  0  0  0  0
 38 78  1  0  0  0  0
 39 46  1  0  0  0  0
 39 79  1  0  0  0  0
 40 80  1  0  0  0  0
 40 81  1  0  0  0  0
 40 82  1  0  0  0  0
 41 45  2  0  0  0  0
 41 83  1  0  0  0  0
 42 84  1  0  0  0  0
 42 85  1  0  0  0  0
 42 86  1  0  0  0  0
 43 87  1  0  0  0  0
 43 88  1  0  0  0  0
 43 89  1  0  0  0  0
 44 45  1  0  0  0  0
 45 90  1  0  0  0  0
 46 93  1  0  0  0  0
 46 94  1  0  0  0  0
 46 95  1  0  0  0  0
 47 97  1  0  0  0  0
 47 98  1  0  0  0  0
 47 99  1  0  0  0  0
 48100  1  0  0  0  0
 48101  1  0  0  0  0
 48102  1  0  0  0  0
 49103  1  0  0  0  0
 49104  1  0  0  0  0
 49105  1  0  0  0  0
M  END
> <PUBCHEM_COMPOUND_CID>
49787021

> <PUBCHEM_CONFORMER_RMSD>
1.2

> <PUBCHEM_CONFORMER_DIVERSEORDER>
1
9
94
48
34
55
88
23
83
81
6
30
56
92
59
66
68
52
36
28
62
64
86
60
4
33
87
51
96
38
15
11
63
73
78
43
39
46
67
24
32
77
61
90
91
89
79
31
85
19
18
58
40
37
82
25
93
57
44
69
21
47
49
41
53
17
84
72
14
20
35
42
16
10
2
95
7
12
8
65
13
45
71
76
3
74
5
80
26
50
27
70
54
75
29
22

> <PUBCHEM_MMFF94_PARTIAL_CHARGES>
49
1 -0.3
10 -0.68
11 -0.56
12 -0.68
13 -0.57
14 -0.57
15 -0.05
16 0.09
17 0.09
18 0.28
19 0.28
2 -0.56
20 -0.19
22 0.56
23 0.28
24 0.28
26 0.28
28 0.34
29 0.28
3 -0.43
30 0.14
31 0.28
32 -0.14
33 0.56
34 0.28
35 0.49
36 0.28
39 0.28
4 -0.56
41 -0.29
44 0.71
45 -0.14
47 0.28
48 0.28
49 0.28
5 -0.56
50 0.1
52 0.1
56 0.15
6 -0.56
7 -0.56
70 0.15
8 -0.56
83 0.15
9 -0.68
90 0.15
91 0.4
92 0.4
96 0.4

> <PUBCHEM_EFFECTIVE_ROTOR_COUNT>
12.2

> <PUBCHEM_PHARMACOPHORE_FEATURES>
18
1 1 acceptor
1 10 acceptor
1 10 donor
1 11 acceptor
1 12 acceptor
1 12 donor
1 13 acceptor
1 14 acceptor
1 2 acceptor
1 4 acceptor
1 5 acceptor
1 6 acceptor
1 7 acceptor
1 8 acceptor
1 9 acceptor
1 9 donor
6 4 22 24 26 29 31 rings
6 6 33 34 36 38 39 rings

> <PUBCHEM_HEAVY_ATOM_COUNT>
49

> <PUBCHEM_ATOM_DEF_STEREO_COUNT>
17

> <PUBCHEM_ATOM_UDEF_STEREO_COUNT>
0

> <PUBCHEM_BOND_DEF_STEREO_COUNT>
2

> <PUBCHEM_BOND_UDEF_STEREO_COUNT>
0

> <PUBCHEM_ISOTOPIC_ATOM_COUNT>
0

> <PUBCHEM_COMPONENT_COUNT>
1

> <PUBCHEM_CACTVS_TAUTO_COUNT>
1

> <PUBCHEM_CONFORMER_ID>
02F7B08D00000001

> <PUBCHEM_MMFF94_ENERGY>
147.4543

> <PUBCHEM_FEATURE_SELFOVERLAP>
91.462

> <PUBCHEM_SHAPE_FINGERPRINT>
10190108 129 17203894085347602250
12144603 126 17418081088899817468
12422481 6 18341614785565379062
14040222 383 18335701586029021387
14747282 305 18199760292354948298
15183329 4 8862952680133091156
15320294 125 17917990555927078967
19302320 297 18200584813646793172
19304144 158 18270959159484820589
19315958 150 18334288799249408342
23522609 53 17631158686015249918
4173938 306 18041000639576973417
4403749 210 17750800944000452956

> <PUBCHEM_SHAPE_MULTIPOLES>
926.23
27.37
5.08
2.75
14.04
4.5
-0.02
-24.82
-13.75
-8.38
2.01
1.87
-0.41
1.04

> <PUBCHEM_SHAPE_SELFOVERLAP>
1887.763

> <PUBCHEM_SHAPE_VOLUME>
530.5

> <PUBCHEM_COORDINATE_TYPE>
2
5
10

$$$$

