54670067
  -OEChem-07051212432D

 20 20  0     1  0  0  0  0  0999 V2000
    5.0298   -0.5357    0.0000 O   0  0  0  0  0  0  0  0  0  0  0  0
    3.3548    1.5521    0.0000 O   0  0  0  0  0  0  0  0  0  0  0  0
    2.4608   -0.2266    0.0000 O   0  0  0  0  0  0  0  0  0  0  0  0
    5.0868    2.5521    0.0000 O   0  0  0  0  0  0  0  0  0  0  0  0
    3.1330   -2.2957    0.0000 O   0  0  0  0  0  0  0  0  0  0  0  0
    5.3086   -2.2957    0.0000 O   0  0  0  0  0  0  0  0  0  0  0  0
    4.2208    0.0521    0.0000 C   0  0  2  0  0  0  0  0  0  0  0  0
    4.2208    1.0521    0.0000 C   0  0  2  0  0  0  0  0  0  0  0  0
    3.4118   -0.5357    0.0000 C   0  0  0  0  0  0  0  0  0  0  0  0
    5.0868    1.5521    0.0000 C   0  0  0  0  0  0  0  0  0  0  0  0
    3.7208   -1.4867    0.0000 C   0  0  0  0  0  0  0  0  0  0  0  0
    4.7208   -1.4867    0.0000 C   0  0  0  0  0  0  0  0  0  0  0  0
    4.9782    0.4380    0.0000 H   0  0  0  0  0  0  0  0  0  0  0  0
    4.2208    1.6721    0.0000 H   0  0  0  0  0  0  0  0  0  0  0  0
    5.2989    0.9695    0.0000 H   0  0  0  0  0  0  0  0  0  0  0  0
    5.6974    1.6598    0.0000 H   0  0  0  0  0  0  0  0  0  0  0  0
    3.3548    2.1721    0.0000 H   0  0  0  0  0  0  0  0  0  0  0  0
    2.0000   -0.6415    0.0000 H   0  0  0  0  0  0  0  0  0  0  0  0
    5.6238    2.8621    0.0000 H   0  0  0  0  0  0  0  0  0  0  0  0
    3.3852   -2.8621    0.0000 H   0  0  0  0  0  0  0  0  0  0  0  0
  1  7  1  0  0  0  0
  1 12  1  0  0  0  0
  8  2  1  1  0  0  0
  2 17  1  0  0  0  0
  3  9  1  0  0  0  0
  3 18  1  0  0  0  0
  4 10  1  0  0  0  0
  4 19  1  0  0  0  0
  5 11  1  0  0  0  0
  5 20  1  0  0  0  0
  6 12  2  0  0  0  0
  7  8  1  0  0  0  0
  7  9  1  0  0  0  0
  7 13  1  6  0  0  0
  8 10  1  0  0  0  0
  8 14  1  0  0  0  0
  9 11  2  0  0  0  0
 10 15  1  0  0  0  0
 10 16  1  0  0  0  0
 11 12  1  0  0  0  0
M  END
> <PUBCHEM_COMPOUND_CID>
54670067

> <PUBCHEM_COMPOUND_CANONICALIZED>
1

> <PUBCHEM_CACTVS_COMPLEXITY>
232

> <PUBCHEM_CACTVS_HBOND_ACCEPTOR>
6

> <PUBCHEM_CACTVS_HBOND_DONOR>
4

> <PUBCHEM_CACTVS_ROTATABLE_BOND>
2

> <PUBCHEM_CACTVS_SUBSKEYS>
AAADccBgOAAAAAAAAAAAAAAAAAAAAQAAAAAAAAAAAAAAAAAAAAAAGgAACAAACBSggAIACAAABgCIAADQCAIAAAAgIAAACABAAEgBFAAAIAACUAAFwAALIQJAAAAAAAAAAAAAAAAAAAAAAAAAAAAAAAAAAA==

> <PUBCHEM_IUPAC_OPENEYE_NAME>
(2R)-2-[(1S)-1,2-dihydroxyethyl]-3,4-dihydroxy-2H-furan-5-one

> <PUBCHEM_IUPAC_CAS_NAME>
(2R)-2-[(1S)-1,2-dihydroxyethyl]-3,4-dihydroxy-2H-furan-5-one

> <PUBCHEM_IUPAC_NAME>
(2R)-2-[(1S)-1,2-dihydroxyethyl]-3,4-dihydroxy-2H-furan-5-one

> <PUBCHEM_IUPAC_SYSTEMATIC_NAME>
(2R)-2-[(1S)-1,2-bis(oxidanyl)ethyl]-3,4-bis(oxidanyl)-2H-furan-5-one

> <PUBCHEM_IUPAC_TRADITIONAL_NAME>
(2R)-2-[(1S)-1,2-dihydroxyethyl]-3,4-dihydroxy-2H-furan-5-one

> <PUBCHEM_IUPAC_INCHI>
InChI=1S/C6H8O6/c7-1-2(8)5-3(9)4(10)6(11)12-5/h2,5,7-10H,1H2/t2-,5+/m0/s1

> <PUBCHEM_IUPAC_INCHIKEY>
CIWBSHSKHKDKBQ-JLAZNSOCSA-N

> <PUBCHEM_XLOGP3>
-1.6

> <PUBCHEM_EXACT_MASS>
176.032088

> <PUBCHEM_MOLECULAR_FORMULA>
C6H8O6

> <PUBCHEM_MOLECULAR_WEIGHT>
176.12412

> <PUBCHEM_OPENEYE_CAN_SMILES>
C(C(C1C(=C(C(=O)O1)O)O)O)O

> <PUBCHEM_OPENEYE_ISO_SMILES>
C([C@@H]([C@@H]1C(=C(C(=O)O1)O)O)O)O

> <PUBCHEM_CACTVS_TPSA>
107

> <PUBCHEM_MONOISOTOPIC_WEIGHT>
176.032088

> <PUBCHEM_TOTAL_CHARGE>
0

> <PUBCHEM_HEAVY_ATOM_COUNT>
12

> <PUBCHEM_ATOM_DEF_STEREO_COUNT>
2

> <PUBCHEM_ATOM_UDEF_STEREO_COUNT>
0

> <PUBCHEM_BOND_DEF_STEREO_COUNT>
0

> <PUBCHEM_BOND_UDEF_STEREO_COUNT>
0

> <PUBCHEM_ISOTOPIC_ATOM_COUNT>
0

> <PUBCHEM_COMPONENT_COUNT>
1

> <PUBCHEM_CACTVS_TAUTO_COUNT>
8

> <PUBCHEM_COORDINATE_TYPE>
1
5
255

> <PUBCHEM_BONDANNOTATIONS>
8  2  5
7  13  6

$$$$

