53297356
  -OEChem-07051212583D

 52 54  0     1  0  0  0  0  0999 V2000
    0.5996    0.8694    0.7537 O   0  0  0  0  0  0  0  0  0  0  0  0
   -0.4208    0.1813   -1.2502 O   0  0  0  0  0  0  0  0  0  0  0  0
   -2.9693    3.3599    0.1082 O   0  0  0  0  0  0  0  0  0  0  0  0
    2.1278   -0.5577   -0.2816 O   0  0  0  0  0  0  0  0  0  0  0  0
   -4.1143    2.4660   -2.2504 O   0  0  0  0  0  0  0  0  0  0  0  0
    2.7240    2.6062    1.4457 O   0  0  0  0  0  0  0  0  0  0  0  0
    5.2815    1.1667    1.7051 O   0  0  0  0  0  0  0  0  0  0  0  0
    5.7715   -0.4560   -0.6364 O   0  0  0  0  0  0  0  0  0  0  0  0
   -2.6550   -2.7145    1.6139 O   0  0  0  0  0  0  0  0  0  0  0  0
    2.3995   -2.3726   -2.3279 O   0  0  0  0  0  0  0  0  0  0  0  0
   -2.5793   -3.3343   -0.6153 O   0  0  0  0  0  0  0  0  0  0  0  0
   -1.7549    1.3024    0.5332 C   0  0  1  0  0  0  0  0  0  0  0  0
   -2.9220    1.9774   -0.2387 C   0  0  1  0  0  0  0  0  0  0  0  0
   -2.2961   -0.0699    1.0058 C   0  0  1  0  0  0  0  0  0  0  0  0
   -0.4166    1.1665   -0.2092 C   0  0  1  0  0  0  0  0  0  0  0  0
   -4.1150    1.2897    0.3542 C   0  0  0  0  0  0  0  0  0  0  0  0
   -3.7765    0.1780    1.0154 C   0  0  0  0  0  0  0  0  0  0  0  0
   -1.8854   -1.1811    0.0916 C   0  0  0  0  0  0  0  0  0  0  0  0
    1.8840    0.7830    0.1375 C   0  0  2  0  0  0  0  0  0  0  0  0
   -2.9288    1.8667   -1.7601 C   0  0  0  0  0  0  0  0  0  0  0  0
    2.9289    1.2222    1.1632 C   0  0  1  0  0  0  0  0  0  0  0  0
    4.3484    1.0170    0.6339 C   0  0  2  0  0  0  0  0  0  0  0  0
    4.5230   -0.3838    0.0470 C   0  0  1  0  0  0  0  0  0  0  0  0
    3.3914   -0.7077   -0.9312 C   0  0  1  0  0  0  0  0  0  0  0  0
   -1.0403   -0.9987   -0.9296 C   0  0  0  0  0  0  0  0  0  0  0  0
   -2.4090   -2.5342    0.2915 C   0  0  0  0  0  0  0  0  0  0  0  0
    3.4790   -2.1428   -1.4410 C   0  0  0  0  0  0  0  0  0  0  0  0
   -3.1754   -3.9991    1.9718 C   0  0  0  0  0  0  0  0  0  0  0  0
   -1.5603    1.9042    1.4364 H   0  0  0  0  0  0  0  0  0  0  0  0
   -1.9342   -0.2644    2.0227 H   0  0  0  0  0  0  0  0  0  0  0  0
   -0.1756    2.1342   -0.6665 H   0  0  0  0  0  0  0  0  0  0  0  0
   -5.1343    1.6318    0.2390 H   0  0  0  0  0  0  0  0  0  0  0  0
   -4.4920   -0.4742    1.4967 H   0  0  0  0  0  0  0  0  0  0  0  0
    1.9273    1.4543   -0.7322 H   0  0  0  0  0  0  0  0  0  0  0  0
   -2.9110    0.8289   -2.1041 H   0  0  0  0  0  0  0  0  0  0  0  0
   -2.0837    2.4085   -2.1964 H   0  0  0  0  0  0  0  0  0  0  0  0
    2.7893    0.6827    2.1075 H   0  0  0  0  0  0  0  0  0  0  0  0
    4.6060    1.7851   -0.1047 H   0  0  0  0  0  0  0  0  0  0  0  0
    4.5506   -1.1222    0.8576 H   0  0  0  0  0  0  0  0  0  0  0  0
    3.4177   -0.0373   -1.8011 H   0  0  0  0  0  0  0  0  0  0  0  0
   -0.7590   -1.7615   -1.6434 H   0  0  0  0  0  0  0  0  0  0  0  0
   -3.7306    3.7597   -0.3465 H   0  0  0  0  0  0  0  0  0  0  0  0
    4.4169   -2.3232   -1.9747 H   0  0  0  0  0  0  0  0  0  0  0  0
    3.3891   -2.8561   -0.6149 H   0  0  0  0  0  0  0  0  0  0  0  0
   -4.0943    2.3920   -3.2198 H   0  0  0  0  0  0  0  0  0  0  0  0
    2.8422    3.1038    0.6186 H   0  0  0  0  0  0  0  0  0  0  0  0
    5.0673    0.5077    2.3872 H   0  0  0  0  0  0  0  0  0  0  0  0
    5.7520    0.1860   -1.3665 H   0  0  0  0  0  0  0  0  0  0  0  0
    2.4709   -3.2925   -2.6348 H   0  0  0  0  0  0  0  0  0  0  0  0
   -3.3267   -4.0149    3.0544 H   0  0  0  0  0  0  0  0  0  0  0  0
   -2.4618   -4.7844    1.7049 H   0  0  0  0  0  0  0  0  0  0  0  0
   -4.1380   -4.1676    1.4798 H   0  0  0  0  0  0  0  0  0  0  0  0
  1 15  1  0  0  0  0
  1 19  1  0  0  0  0
  2 15  1  0  0  0  0
  2 25  1  0  0  0  0
  3 13  1  0  0  0  0
  3 42  1  0  0  0  0
  4 19  1  0  0  0  0
  4 24  1  0  0  0  0
  5 20  1  0  0  0  0
  5 45  1  0  0  0  0
  6 21  1  0  0  0  0
  6 46  1  0  0  0  0
  7 22  1  0  0  0  0
  7 47  1  0  0  0  0
  8 23  1  0  0  0  0
  8 48  1  0  0  0  0
  9 26  1  0  0  0  0
  9 28  1  0  0  0  0
 10 27  1  0  0  0  0
 10 49  1  0  0  0  0
 11 26  2  0  0  0  0
 12 13  1  0  0  0  0
 12 14  1  0  0  0  0
 12 15  1  0  0  0  0
 12 29  1  0  0  0  0
 13 16  1  0  0  0  0
 13 20  1  0  0  0  0
 14 17  1  0  0  0  0
 14 18  1  0  0  0  0
 14 30  1  0  0  0  0
 15 31  1  0  0  0  0
 16 17  2  0  0  0  0
 16 32  1  0  0  0  0
 17 33  1  0  0  0  0
 18 25  2  0  0  0  0
 18 26  1  0  0  0  0
 19 21  1  0  0  0  0
 19 34  1  0  0  0  0
 20 35  1  0  0  0  0
 20 36  1  0  0  0  0
 21 22  1  0  0  0  0
 21 37  1  0  0  0  0
 22 23  1  0  0  0  0
 22 38  1  0  0  0  0
 23 24  1  0  0  0  0
 23 39  1  0  0  0  0
 24 27  1  0  0  0  0
 24 40  1  0  0  0  0
 25 41  1  0  0  0  0
 27 43  1  0  0  0  0
 27 44  1  0  0  0  0
 28 50  1  0  0  0  0
 28 51  1  0  0  0  0
 28 52  1  0  0  0  0
M  END
> <PUBCHEM_COMPOUND_CID>
53297356

> <PUBCHEM_CONFORMER_RMSD>
1

> <PUBCHEM_CONFORMER_DIVERSEORDER>
1
33
36
4
17
19
10
38
27
11
3
18
16
49
22
24
39
15
28
12
8
30
47
32
40
41
14
26
5
6
37
44
29
48
21
7
35
34
43
13
20
46
31
45
2
9
42
25
23

> <PUBCHEM_MMFF94_PARTIAL_CHARGES>
36
1 -0.56
10 -0.68
11 -0.57
13 0.42
14 0.28
15 0.56
16 -0.29
17 -0.29
18 -0.12
19 0.56
2 -0.36
20 0.28
21 0.28
22 0.28
23 0.28
24 0.28
25 -0.07
26 0.71
27 0.28
28 0.28
3 -0.68
32 0.15
33 0.15
4 -0.56
41 0.15
42 0.4
45 0.4
46 0.4
47 0.4
48 0.4
49 0.4
5 -0.68
6 -0.68
7 -0.68
8 -0.68
9 -0.43

> <PUBCHEM_EFFECTIVE_ROTOR_COUNT>
7.8

> <PUBCHEM_PHARMACOPHORE_FEATURES>
19
1 1 acceptor
1 10 acceptor
1 10 donor
1 11 acceptor
1 2 acceptor
1 3 acceptor
1 3 donor
1 4 acceptor
1 5 acceptor
1 5 donor
1 6 acceptor
1 6 donor
1 7 acceptor
1 7 donor
1 8 acceptor
1 8 donor
5 12 13 14 16 17 rings
6 2 12 14 15 18 25 rings
6 4 19 21 22 23 24 rings

> <PUBCHEM_HEAVY_ATOM_COUNT>
28

> <PUBCHEM_ATOM_DEF_STEREO_COUNT>
9

> <PUBCHEM_ATOM_UDEF_STEREO_COUNT>
0

> <PUBCHEM_BOND_DEF_STEREO_COUNT>
0

> <PUBCHEM_BOND_UDEF_STEREO_COUNT>
0

> <PUBCHEM_ISOTOPIC_ATOM_COUNT>
0

> <PUBCHEM_COMPONENT_COUNT>
1

> <PUBCHEM_CACTVS_TAUTO_COUNT>
1

> <PUBCHEM_CONFORMER_ID>
032D40CC00000001

> <PUBCHEM_MMFF94_ENERGY>
82.1375

> <PUBCHEM_FEATURE_SELFOVERLAP>
96.717

> <PUBCHEM_SHAPE_FINGERPRINT>
105312 117 17773323529030918397
10721379 63 17260215679169185293
11370993 144 17968921080901857035
11552529 35 17677608666336346275
11796584 16 18201440350548688290
12236239 1 15410609319778056449
12422481 6 18048843417964737403
12969540 114 18127709312107337277
13140716 1 18197490719681034505
133893 2 14852988755114200788
13583140 156 17968095283498107816
14178342 30 18202002105694060194
14223421 5 18262516979286586200
14251757 17 18262230144259444146
15042514 8 18271235016306529587
15163728 17 17199115766342482573
15375358 24 18187652448438617260
15420108 30 14648916373611219120
17349148 13 14851894663882909644
1813 80 17631166386052983647
20600515 1 17127071009602624839
20645477 70 17240482546316467940
20681651 13 16443071556024109774
21033648 29 18270685401562612421
21133410 58 17474113098952903379
22182313 1 18114173125820861606
23557571 272 18341334405077023253
23559900 14 18334010631961673588
3187 122 18197774410629085679
3380486 145 17970624087549626835
4015057 19 17967825988937930808
469060 322 17247828159514382605
508706 21 18413105060992821622
5104073 3 18261114041790143746
633830 44 17972325280876991221
7399639 24 17901954041254425496
81228 2 18270679754165076715
9709674 26 18260828206778094094
9981440 41 17100070405385480825

> <PUBCHEM_SHAPE_MULTIPOLES>
511.66
10.12
3.87
1.79
10.87
2.65
0.42
-1.11
-0.84
-4.85
-0.49
-0.05
0.34
3.91

> <PUBCHEM_SHAPE_SELFOVERLAP>
1084.807

> <PUBCHEM_SHAPE_VOLUME>
281

> <PUBCHEM_COORDINATE_TYPE>
2
5
10

$$$$

