17395435
  -OEChem-06241222503D

 32 33  0     1  0  0  0  0  0999 V2000
   -4.4806   -0.4647   -0.0018 S   0  0  0  0  0  0  0  0  0  0  0  0
    4.6467    2.1020    0.1908 F   0  0  0  0  0  0  0  0  0  0  0  0
    4.0731   -2.5905    0.4761 F   0  0  0  0  0  0  0  0  0  0  0  0
   -5.1248   -0.4727   -1.2988 O   0  0  0  0  0  0  0  0  0  0  0  0
   -4.9863   -1.2299    1.1189 O   0  0  0  0  0  0  0  0  0  0  0  0
    0.0252    0.1436   -2.0443 O   0  0  0  0  0  0  0  0  0  0  0  0
   -0.6479    0.3570    0.1607 N   0  0  0  0  0  0  0  0  0  0  0  0
   -2.0366    0.5083   -0.1946 C   0  0  1  0  0  0  0  0  0  0  0  0
   -2.7466   -0.8437   -0.2162 C   0  0  0  0  0  0  0  0  0  0  0  0
   -2.7733    1.3563    0.8444 C   0  0  0  0  0  0  0  0  0  0  0  0
   -4.2560    1.2313    0.5135 C   0  0  0  0  0  0  0  0  0  0  0  0
   -0.3467    0.3744    1.5973 C   0  0  0  0  0  0  0  0  0  0  0  0
    0.3273    0.1765   -0.8496 C   0  0  0  0  0  0  0  0  0  0  0  0
    1.7226    0.0310   -0.4402 C   0  0  0  0  0  0  0  0  0  0  0  0
    2.2422   -1.2353   -0.1721 C   0  0  0  0  0  0  0  0  0  0  0  0
    2.5347    1.1584   -0.3176 C   0  0  0  0  0  0  0  0  0  0  0  0
    3.8666    1.0195    0.0733 C   0  0  0  0  0  0  0  0  0  0  0  0
    3.5740   -1.3744    0.2187 C   0  0  0  0  0  0  0  0  0  0  0  0
    4.3862   -0.2470    0.3414 C   0  0  0  0  0  0  0  0  0  0  0  0
   -2.1224    0.9793   -1.1820 H   0  0  0  0  0  0  0  0  0  0  0  0
   -2.6019   -1.3742   -1.1606 H   0  0  0  0  0  0  0  0  0  0  0  0
   -2.4448   -1.4921    0.6121 H   0  0  0  0  0  0  0  0  0  0  0  0
   -2.4514    2.4031    0.8284 H   0  0  0  0  0  0  0  0  0  0  0  0
   -2.6627    0.9904    1.8707 H   0  0  0  0  0  0  0  0  0  0  0  0
   -4.8997    1.4474    1.3686 H   0  0  0  0  0  0  0  0  0  0  0  0
   -4.5245    1.8751   -0.3293 H   0  0  0  0  0  0  0  0  0  0  0  0
   -0.4681    1.3896    1.9860 H   0  0  0  0  0  0  0  0  0  0  0  0
    0.6831    0.0783    1.8035 H   0  0  0  0  0  0  0  0  0  0  0  0
   -0.9890   -0.3365    2.1250 H   0  0  0  0  0  0  0  0  0  0  0  0
    1.6183   -2.1205   -0.2640 H   0  0  0  0  0  0  0  0  0  0  0  0
    2.1402    2.1499   -0.5237 H   0  0  0  0  0  0  0  0  0  0  0  0
    5.4230   -0.3553    0.6457 H   0  0  0  0  0  0  0  0  0  0  0  0
  1  4  2  0  0  0  0
  1  5  2  0  0  0  0
  1  9  1  0  0  0  0
  1 11  1  0  0  0  0
  2 17  1  0  0  0  0
  3 18  1  0  0  0  0
  6 13  2  0  0  0  0
  7  8  1  0  0  0  0
  7 12  1  0  0  0  0
  7 13  1  0  0  0  0
  8  9  1  0  0  0  0
  8 10  1  0  0  0  0
  8 20  1  0  0  0  0
  9 21  1  0  0  0  0
  9 22  1  0  0  0  0
 10 11  1  0  0  0  0
 10 23  1  0  0  0  0
 10 24  1  0  0  0  0
 11 25  1  0  0  0  0
 11 26  1  0  0  0  0
 12 27  1  0  0  0  0
 12 28  1  0  0  0  0
 12 29  1  0  0  0  0
 13 14  1  0  0  0  0
 14 15  2  0  0  0  0
 14 16  1  0  0  0  0
 15 18  1  0  0  0  0
 15 30  1  0  0  0  0
 16 17  2  0  0  0  0
 16 31  1  0  0  0  0
 17 19  1  0  0  0  0
 18 19  2  0  0  0  0
 19 32  1  0  0  0  0
M  END
> <PUBCHEM_COMPOUND_CID>
17395435

> <PUBCHEM_CONFORMER_RMSD>
0.6

> <PUBCHEM_CONFORMER_DIVERSEORDER>
5
24
37
34
11
43
28
42
29
44
7
27
36
40
4
30
9
39
8
14
12
38
20
31
3
15
32
6
33
18
23
1
17
13
21
10
25
22
2
26
16
35
19
41

> <PUBCHEM_MMFF94_PARTIAL_CHARGES>
21
1 1.09
11 0.11
12 0.3
13 0.54
14 0.09
15 -0.15
16 -0.15
17 0.19
18 0.19
19 -0.15
2 -0.19
3 -0.19
30 0.15
31 0.15
32 0.15
4 -0.65
5 -0.65
6 -0.57
7 -0.66
8 0.3
9 0.11

> <PUBCHEM_EFFECTIVE_ROTOR_COUNT>
3.8

> <PUBCHEM_PHARMACOPHORE_FEATURES>
5
1 4 acceptor
1 5 acceptor
1 6 acceptor
5 1 8 9 10 11 rings
6 14 15 16 17 18 19 rings

> <PUBCHEM_HEAVY_ATOM_COUNT>
19

> <PUBCHEM_ATOM_DEF_STEREO_COUNT>
0

> <PUBCHEM_ATOM_UDEF_STEREO_COUNT>
1

> <PUBCHEM_BOND_DEF_STEREO_COUNT>
0

> <PUBCHEM_BOND_UDEF_STEREO_COUNT>
0

> <PUBCHEM_ISOTOPIC_ATOM_COUNT>
0

> <PUBCHEM_COMPONENT_COUNT>
1

> <PUBCHEM_CACTVS_TAUTO_COUNT>
1

> <PUBCHEM_CONFORMER_ID>
01096EEB00000005

> <PUBCHEM_MMFF94_ENERGY>
49.7018

> <PUBCHEM_FEATURE_SELFOVERLAP>
25.388

> <PUBCHEM_SHAPE_FINGERPRINT>
10366900 7 18272923921801135272
10912923 1 18040434395430602145
11370993 70 18413389830199054659
11401426 45 16630814287769473181
11405975 8 18266455584709414889
12107183 9 17759799642924273208
12236239 1 17894914044674827288
12403259 118 17968103065704847256
12670546 56 18410015454888403341
12839892 36 17386015000253608071
12892183 10 18411134736145141341
13167823 11 18409448115425690603
13533116 47 18410576197176069051
13583140 156 18334588944285463413
13675066 3 17774996912471206173
13760787 19 18260266326419079670
14251739 40 18410571812140728916
14251764 18 17749383759991811963
14252887 29 17775566442440937132
14289901 80 18408040710440280848
14341114 176 18335976506405492544
14341114 328 17748820817742380923
146900 427 17822005359384839728
14787075 74 17968099681391800507
15375358 24 16630525115873790432
15788980 27 18114180860750889309
15848700 24 16558749014092545990
15848702 151 18131350829950902037
17492 89 18261949768615545559
17834072 33 18407761430249822028
1813 80 16917063369336712876
18186145 218 17346595292178395089
19026448 5 18334574672098394337
19050596 39 18261387892714593513
200 152 18409451388586136109
20279233 1 16558747910053946097
20645477 70 18343021124976692002
20715895 44 17682954749891001801
21065198 48 18335137617672452328
21065199 12 18412824706939109033
21069387 34 18130775785396124387
22646028 1 18333734628256300943
23402539 116 18259990388061687813
23559900 14 18342738503248565968
26918003 58 18342178864461787227
31174 14 18271813449580031956
314173 85 16773795926222048020
3286 77 18272370931776412678
33824 294 18273217495742929898
42 15 18341609351782422255
4214541 1 18338234967998478873
4340502 62 18339361868738099354
474 4 18268429032351954468
4990 188 17060339621609026011
5104073 3 18336261327383286681
542803 24 15574709188418974937
573450 72 18115028614417825971
69090 78 18202001023219642899
7495541 125 17821736013422075081
77779 3 18410291436559660081
9709674 26 18334848463489863047
9971528 1 17775001306111902732

> <PUBCHEM_SHAPE_MULTIPOLES>
357.72
11.2
1.69
1.17
3.62
0.22
-0.17
1.26
1.18
-1.53
0.33
0.63
0.03
-0.56

> <PUBCHEM_SHAPE_SELFOVERLAP>
744.211

> <PUBCHEM_SHAPE_VOLUME>
206.4

> <PUBCHEM_COORDINATE_TYPE>
2
5
10

$$$$

