46173763
  -OEChem-07051212523D

 75 77  0     1  0  0  0  0  0999 V2000
   -4.5254    2.3713    1.7336 O   0  0  0  0  0  0  0  0  0  0  0  0
    1.1502   -0.9279    0.0565 C   0  0  2  0  0  0  0  0  0  0  0  0
    2.1407   -1.8438    0.8218 C   0  0  1  0  0  0  0  0  0  0  0  0
   -0.2014   -1.5904    0.4307 C   0  0  2  0  0  0  0  0  0  0  0  0
    1.5885   -3.2604    0.6161 C   0  0  0  0  0  0  0  0  0  0  0  0
    0.0829   -3.1014    0.3867 C   0  0  0  0  0  0  0  0  0  0  0  0
    1.3793   -0.9388   -1.4785 C   0  0  0  0  0  0  0  0  0  0  0  0
    3.6074   -1.7256    0.4287 C   0  0  2  0  0  0  0  0  0  0  0  0
   -1.3540   -1.1599   -0.4456 C   0  0  0  0  0  0  0  0  0  0  0  0
    1.2255    0.5157    0.5852 C   0  0  0  0  0  0  0  0  0  0  0  0
    0.1849   -0.3936   -2.2655 C   0  0  0  0  0  0  0  0  0  0  0  0
   -1.1018   -1.1443   -1.9306 C   0  0  0  0  0  0  0  0  0  0  0  0
    4.4561   -2.7454    1.1912 C   0  0  0  0  0  0  0  0  0  0  0  0
   -2.5298   -0.7728    0.0724 C   0  0  0  0  0  0  0  0  0  0  0  0
    4.1140   -0.3298    0.6980 C   0  0  0  0  0  0  0  0  0  0  0  0
   -3.6347   -0.3163   -0.7318 C   0  0  0  0  0  0  0  0  0  0  0  0
    4.5932    0.4866   -0.2532 C   0  0  0  0  0  0  0  0  0  0  0  0
   -4.8105    0.0707   -0.2132 C   0  0  0  0  0  0  0  0  0  0  0  0
    5.0972    1.8877    0.0160 C   0  0  1  0  0  0  0  0  0  0  0  0
   -5.9378    0.5861   -1.0845 C   0  0  2  0  0  0  0  0  0  0  0  0
   -5.0656    0.0559    1.2760 C   0  0  0  0  0  0  0  0  0  0  0  0
   -6.4356    1.9428   -0.5581 C   0  0  0  0  0  0  0  0  0  0  0  0
    6.5932    2.0375   -0.3825 C   0  0  0  0  0  0  0  0  0  0  0  0
   -5.5799    1.4103    1.7736 C   0  0  2  0  0  0  0  0  0  0  0  0
   -6.7542    1.9280    0.9405 C   0  0  0  0  0  0  0  0  0  0  0  0
    4.1895    2.8716   -0.7316 C   0  0  0  0  0  0  0  0  0  0  0  0
   -7.0717   -0.4381   -1.1881 C   0  0  0  0  0  0  0  0  0  0  0  0
    7.4960    1.0587    0.3780 C   0  0  0  0  0  0  0  0  0  0  0  0
    7.1040    3.4656   -0.1417 C   0  0  0  0  0  0  0  0  0  0  0  0
    2.0487   -1.6275    1.8982 H   0  0  0  0  0  0  0  0  0  0  0  0
   -0.4251   -1.3368    1.4782 H   0  0  0  0  0  0  0  0  0  0  0  0
    1.7851   -3.8969    1.4859 H   0  0  0  0  0  0  0  0  0  0  0  0
    2.0371   -3.7504   -0.2562 H   0  0  0  0  0  0  0  0  0  0  0  0
   -0.1942   -3.5570   -0.5703 H   0  0  0  0  0  0  0  0  0  0  0  0
   -0.4892   -3.6231    1.1625 H   0  0  0  0  0  0  0  0  0  0  0  0
    1.5747   -1.9596   -1.8299 H   0  0  0  0  0  0  0  0  0  0  0  0
    2.2627   -0.3514   -1.7479 H   0  0  0  0  0  0  0  0  0  0  0  0
    3.7271   -1.9570   -0.6374 H   0  0  0  0  0  0  0  0  0  0  0  0
    2.0200    1.0896    0.1213 H   0  0  0  0  0  0  0  0  0  0  0  0
    0.2994    1.0592    0.3644 H   0  0  0  0  0  0  0  0  0  0  0  0
    1.3539    0.5486    1.6725 H   0  0  0  0  0  0  0  0  0  0  0  0
    0.0580    0.6761   -2.0593 H   0  0  0  0  0  0  0  0  0  0  0  0
    0.3902   -0.4842   -3.3388 H   0  0  0  0  0  0  0  0  0  0  0  0
   -1.0073   -2.1823   -2.2747 H   0  0  0  0  0  0  0  0  0  0  0  0
   -1.8823   -0.7088   -2.5516 H   0  0  0  0  0  0  0  0  0  0  0  0
    4.2068   -3.7730    0.9081 H   0  0  0  0  0  0  0  0  0  0  0  0
    5.5214   -2.6045    0.9737 H   0  0  0  0  0  0  0  0  0  0  0  0
    4.3241   -2.6495    2.2750 H   0  0  0  0  0  0  0  0  0  0  0  0
   -2.6068   -0.8171    1.1495 H   0  0  0  0  0  0  0  0  0  0  0  0
    4.0845    0.0163    1.7290 H   0  0  0  0  0  0  0  0  0  0  0  0
   -3.5550   -0.2658   -1.8086 H   0  0  0  0  0  0  0  0  0  0  0  0
    4.6332    0.1405   -1.2834 H   0  0  0  0  0  0  0  0  0  0  0  0
    5.0048    2.1070    1.0886 H   0  0  0  0  0  0  0  0  0  0  0  0
   -5.5705    0.7549   -2.1059 H   0  0  0  0  0  0  0  0  0  0  0  0
   -5.8298   -0.7059    1.4777 H   0  0  0  0  0  0  0  0  0  0  0  0
   -4.2160   -0.2117    1.9010 H   0  0  0  0  0  0  0  0  0  0  0  0
   -7.3247    2.2609   -1.1160 H   0  0  0  0  0  0  0  0  0  0  0  0
   -5.6655    2.7023   -0.7481 H   0  0  0  0  0  0  0  0  0  0  0  0
    6.7006    1.8232   -1.4546 H   0  0  0  0  0  0  0  0  0  0  0  0
   -5.8959    1.3233    2.8195 H   0  0  0  0  0  0  0  0  0  0  0  0
   -7.0075    2.9487    1.2513 H   0  0  0  0  0  0  0  0  0  0  0  0
   -7.6370    1.3046    1.1232 H   0  0  0  0  0  0  0  0  0  0  0  0
    4.2802    2.7528   -1.8173 H   0  0  0  0  0  0  0  0  0  0  0  0
    4.4389    3.9080   -0.4839 H   0  0  0  0  0  0  0  0  0  0  0  0
    3.1377    2.7443   -0.4666 H   0  0  0  0  0  0  0  0  0  0  0  0
   -7.5287   -0.6577   -0.2181 H   0  0  0  0  0  0  0  0  0  0  0  0
   -6.7040   -1.3830   -1.6038 H   0  0  0  0  0  0  0  0  0  0  0  0
   -7.8615   -0.0696   -1.8518 H   0  0  0  0  0  0  0  0  0  0  0  0
    6.6168    4.1835   -0.8081 H   0  0  0  0  0  0  0  0  0  0  0  0
    8.1798    3.5325   -0.3385 H   0  0  0  0  0  0  0  0  0  0  0  0
    6.9304    3.7798    0.8930 H   0  0  0  0  0  0  0  0  0  0  0  0
    8.5471    1.2077    0.1076 H   0  0  0  0  0  0  0  0  0  0  0  0
    7.2495    0.0184    0.1436 H   0  0  0  0  0  0  0  0  0  0  0  0
    7.4036    1.1960    1.4608 H   0  0  0  0  0  0  0  0  0  0  0  0
   -3.7981    2.0320    2.2826 H   0  0  0  0  0  0  0  0  0  0  0  0
  1 24  1  0  0  0  0
  1 75  1  0  0  0  0
  2  3  1  0  0  0  0
  2  4  1  0  0  0  0
  2  7  1  0  0  0  0
  2 10  1  0  0  0  0
  3  5  1  0  0  0  0
  3  8  1  0  0  0  0
  3 30  1  0  0  0  0
  4  6  1  0  0  0  0
  4  9  1  0  0  0  0
  4 31  1  0  0  0  0
  5  6  1  0  0  0  0
  5 32  1  0  0  0  0
  5 33  1  0  0  0  0
  6 34  1  0  0  0  0
  6 35  1  0  0  0  0
  7 11  1  0  0  0  0
  7 36  1  0  0  0  0
  7 37  1  0  0  0  0
  8 13  1  0  0  0  0
  8 15  1  0  0  0  0
  8 38  1  0  0  0  0
  9 12  1  0  0  0  0
  9 14  2  0  0  0  0
 10 39  1  0  0  0  0
 10 40  1  0  0  0  0
 10 41  1  0  0  0  0
 11 12  1  0  0  0  0
 11 42  1  0  0  0  0
 11 43  1  0  0  0  0
 12 44  1  0  0  0  0
 12 45  1  0  0  0  0
 13 46  1  0  0  0  0
 13 47  1  0  0  0  0
 13 48  1  0  0  0  0
 14 16  1  0  0  0  0
 14 49  1  0  0  0  0
 15 17  2  0  0  0  0
 15 50  1  0  0  0  0
 16 18  2  0  0  0  0
 16 51  1  0  0  0  0
 17 19  1  0  0  0  0
 17 52  1  0  0  0  0
 18 20  1  0  0  0  0
 18 21  1  0  0  0  0
 19 23  1  0  0  0  0
 19 26  1  0  0  0  0
 19 53  1  0  0  0  0
 20 22  1  0  0  0  0
 20 27  1  0  0  0  0
 20 54  1  0  0  0  0
 21 24  1  0  0  0  0
 21 55  1  0  0  0  0
 21 56  1  0  0  0  0
 22 25  1  0  0  0  0
 22 57  1  0  0  0  0
 22 58  1  0  0  0  0
 23 28  1  0  0  0  0
 23 29  1  0  0  0  0
 23 59  1  0  0  0  0
 24 25  1  0  0  0  0
 24 60  1  0  0  0  0
 25 61  1  0  0  0  0
 25 62  1  0  0  0  0
 26 63  1  0  0  0  0
 26 64  1  0  0  0  0
 26 65  1  0  0  0  0
 27 66  1  0  0  0  0
 27 67  1  0  0  0  0
 27 68  1  0  0  0  0
 28 72  1  0  0  0  0
 28 73  1  0  0  0  0
 28 74  1  0  0  0  0
 29 69  1  0  0  0  0
 29 70  1  0  0  0  0
 29 71  1  0  0  0  0
M  END
> <PUBCHEM_COMPOUND_CID>
46173763

> <PUBCHEM_CONFORMER_RMSD>
0.8

> <PUBCHEM_CONFORMER_DIVERSEORDER>
1
223
186
206
171
7
159
135
240
164
200
119
32
147
144
103
174
41
190
160
21
83
14
197
73
152
53
43
157
205
214
80
239
30
24
221
198
208
137
126
75
202
134
154
127
139
34
211
155
201
78
18
60
183
131
54
111
162
93
117
192
168
19
71
156
181
102
45
153
217
33
142
179
224
84
65
165
227
191
57
151
63
94
86
38
194
23
180
184
182
27
4
68
178
46
226
163
26
175
150
196
185
125
88
215
220
11
22
132
193
124
112
195
225
67
113
92
59
203
105
82
140
172
110
141
167
69
64
129
158
230
61
76
207
177
95
42
218
120
166
189
48
62
6
47
216
91
114
143
123
17
90
55
212
118
8
96
72
50
209
25
9
16
56
235
49
39
2
58
199
51
81
31
40
36
74
12
100
108
130
106
234
188
161
20
219
13
170
228
121
3
89
107
99
109
77
237
97
222
85
104
146
204
145
149
28
229
15
169
52
44
213
115
133
136
35
232
210
70
66
79
29
176
231
233
122
98
37
148
173
87
236
128
5
101
138
238
187
116
10

> <PUBCHEM_MMFF94_PARTIAL_CHARGES>
19
1 -0.68
12 0.14
14 -0.15
15 -0.29
16 -0.15
17 -0.29
18 -0.28
19 0.14
20 0.14
21 0.14
24 0.28
4 0.14
49 0.15
50 0.15
51 0.15
52 0.15
75 0.4
8 0.14
9 -0.28

> <PUBCHEM_EFFECTIVE_ROTOR_COUNT>
7.2

> <PUBCHEM_PHARMACOPHORE_FEATURES>
8
1 1 acceptor
1 1 donor
1 13 hydrophobe
1 26 hydrophobe
3 23 28 29 hydrophobe
5 2 3 4 5 6 rings
6 18 20 21 22 24 25 rings
6 2 4 7 9 11 12 rings

> <PUBCHEM_HEAVY_ATOM_COUNT>
29

> <PUBCHEM_ATOM_DEF_STEREO_COUNT>
5

> <PUBCHEM_ATOM_UDEF_STEREO_COUNT>
2

> <PUBCHEM_BOND_DEF_STEREO_COUNT>
3

> <PUBCHEM_BOND_UDEF_STEREO_COUNT>
0

> <PUBCHEM_ISOTOPIC_ATOM_COUNT>
0

> <PUBCHEM_COMPONENT_COUNT>
1

> <PUBCHEM_CACTVS_TAUTO_COUNT>
1

> <PUBCHEM_CONFORMER_ID>
02C08E4300000001

> <PUBCHEM_MMFF94_ENERGY>
71.7749

> <PUBCHEM_FEATURE_SELFOVERLAP>
40.763

> <PUBCHEM_SHAPE_FINGERPRINT>
10 15 17561367274729164579
10006869 2 18336552719513777964
10319926 262 15482665806494656845
10411042 1 17765444523576234474
10554248 39 17896611754662376615
10591671 39 17167866335978671367
10670039 82 16588016926939429065
10674148 151 18260543400088787076
10693767 8 8286196132793942076
10906281 52 17895464917169805931
11410812 94 15358240677134164984
12236239 1 18115035211746633359
12422481 6 16917068823918947942
12596602 18 18342455967779157875
12677640 9 17981603771492791415
13248334 5 18268432519982034858
13540713 5 18196676041795595618
14347332 77 9079122154779548787
14394314 77 18408880755122105641
14790565 3 18410291410663132233
14849402 71 18410575050847341721
15183329 4 17240198824391437520
15238133 3 18113347401342087818
15475509 35 15553619546777464466
1577012 14 18186803604145464745
15840311 113 18340483460576355917
15961568 22 18186799205999376345
20691028 202 18053665773022421940
20715895 44 18339924810639850840
21033648 144 18343589547177189975
21033648 29 17346321557328799021
21033650 10 15647040578348996067
21298829 104 18410292480596052104
21344244 181 6411005478687797821
21424621 283 18335700499502554488
21585482 111 18271247239061728997
21637258 2 10952050039567194543
22122407 14 18336539439311310304
22224240 67 17775011162866901570
22393880 68 5400796117021890151
23569914 152 7562564512800404529
2748736 6 18411141311866925664
2838139 119 17967532333154692617
3411729 13 18272654545699883082
38570 142 18335413556831814622
394071 54 18131351912456818724
397830 11 17846207839706294611
4073 2 18272933830591777091
4093350 32 18040150739001103550
4169191 19 18342179968548249613
445580 204 18187080633752130328
5104073 3 17989205936510769475
5385378 56 18201728336853730938
5911458 16 18260545610688805692
6328613 192 18334295365974582232
6608658 132 17894635850985124289
6712543 237 15338849650383470745

> <PUBCHEM_SHAPE_MULTIPOLES>
590.94
20.32
3.6
1.56
5.44
0.14
0.32
20.25
-2.19
-5.29
-0.83
1.78
0.01
-2.51

> <PUBCHEM_SHAPE_SELFOVERLAP>
1206.996

> <PUBCHEM_SHAPE_VOLUME>
343

> <PUBCHEM_COORDINATE_TYPE>
2
5
10

$$$$

