11954082
  -OEChem-07051213062D

 59 63  0     1  0  0  0  0  0999 V2000
   10.2339    2.6890    0.0000 O   0  0  0  0  0  0  0  0  0  0  0  0
    8.1110   -0.0663    0.0000 C   0  0  2  0  0  0  0  0  0  0  0  0
    7.2450    0.4337    0.0000 C   0  0  1  0  0  0  0  0  0  0  0  0
    8.9770    0.4337    0.0000 C   0  0  1  0  0  0  0  0  0  0  0  0
    8.9770    1.4337    0.0000 C   0  0  2  0  0  0  0  0  0  0  0  0
    6.3350   -0.0731    0.0000 C   0  0  2  0  0  0  0  0  0  0  0  0
    6.3270   -1.1147    0.0000 C   0  0  1  0  0  0  0  0  0  0  0  0
    7.2450    1.4337    0.0000 C   0  0  0  0  0  0  0  0  0  0  0  0
    8.1110    1.9337    0.0000 C   0  0  0  0  0  0  0  0  0  0  0  0
    8.1271   -1.1078    0.0000 C   0  0  0  0  0  0  0  0  0  0  0  0
    9.9233    0.1290    0.0000 C   0  0  0  0  0  0  0  0  0  0  0  0
    9.9233    1.7385    0.0000 C   0  0  2  0  0  0  0  0  0  0  0  0
    7.2290   -1.6355    0.0000 C   0  0  0  0  0  0  0  0  0  0  0  0
    5.4082    0.4910    0.0000 C   0  0  0  0  0  0  0  0  0  0  0  0
   10.5069    0.9337    0.0000 C   0  0  0  0  0  0  0  0  0  0  0  0
    5.3915   -1.6644    0.0000 C   0  0  0  0  0  0  0  0  0  0  0  0
    8.9770    2.4337    0.0000 C   0  0  0  0  0  0  0  0  0  0  0  0
    6.3427    0.9269    0.0000 C   0  0  0  0  0  0  0  0  0  0  0  0
    4.4603   -0.0370    0.0000 C   0  0  0  0  0  0  0  0  0  0  0  0
    4.4519   -1.1219    0.0000 C   0  0  0  0  0  0  0  0  0  0  0  0
    3.5840   -1.6186    0.0000 C   0  0  0  0  0  0  0  0  0  0  0  0
    2.6720   -1.2083    0.0000 C   0  0  0  0  0  0  0  0  0  0  0  0
    3.4756   -2.6127    0.0000 C   0  0  0  0  0  0  0  0  0  0  0  0
    2.0000   -1.9489    0.0000 C   0  0  0  0  0  0  0  0  0  0  0  0
    2.4967   -2.8168    0.0000 C   0  0  0  0  0  0  0  0  0  0  0  0
    8.8504   -0.4856    0.0000 H   0  0  0  0  0  0  0  0  0  0  0  0
    7.9811    0.8587    0.0000 H   0  0  0  0  0  0  0  0  0  0  0  0
    9.0670   -0.4115    0.0000 H   0  0  0  0  0  0  0  0  0  0  0  0
    6.3302   -1.9647    0.0000 H   0  0  0  0  0  0  0  0  0  0  0  0
    7.0329    2.0164    0.0000 H   0  0  0  0  0  0  0  0  0  0  0  0
    6.6344    1.3261    0.0000 H   0  0  0  0  0  0  0  0  0  0  0  0
    8.5096    2.4087    0.0000 H   0  0  0  0  0  0  0  0  0  0  0  0
    7.7125    2.4087    0.0000 H   0  0  0  0  0  0  0  0  0  0  0  0
    8.3451   -1.6882    0.0000 H   0  0  0  0  0  0  0  0  0  0  0  0
    8.7362   -0.9923    0.0000 H   0  0  0  0  0  0  0  0  0  0  0  0
    9.6722   -0.4379    0.0000 H   0  0  0  0  0  0  0  0  0  0  0  0
   10.4606   -0.1802    0.0000 H   0  0  0  0  0  0  0  0  0  0  0  0
   10.5358    1.8347    0.0000 H   0  0  0  0  0  0  0  0  0  0  0  0
    6.8317   -2.1115    0.0000 H   0  0  0  0  0  0  0  0  0  0  0  0
    7.6300   -2.1084    0.0000 H   0  0  0  0  0  0  0  0  0  0  0  0
    5.8164    0.9576    0.0000 H   0  0  0  0  0  0  0  0  0  0  0  0
    5.0182    0.9730    0.0000 H   0  0  0  0  0  0  0  0  0  0  0  0
   10.9677    0.5190    0.0000 H   0  0  0  0  0  0  0  0  0  0  0  0
   10.9677    1.3485    0.0000 H   0  0  0  0  0  0  0  0  0  0  0  0
    4.9942   -2.1404    0.0000 H   0  0  0  0  0  0  0  0  0  0  0  0
    5.7925   -2.1373    0.0000 H   0  0  0  0  0  0  0  0  0  0  0  0
    9.5970    2.4337    0.0000 H   0  0  0  0  0  0  0  0  0  0  0  0
    8.9770    3.0537    0.0000 H   0  0  0  0  0  0  0  0  0  0  0  0
    8.3570    2.4337    0.0000 H   0  0  0  0  0  0  0  0  0  0  0  0
    6.9627    0.9221    0.0000 H   0  0  0  0  0  0  0  0  0  0  0  0
    6.3475    1.5468    0.0000 H   0  0  0  0  0  0  0  0  0  0  0  0
    5.7227    0.9316    0.0000 H   0  0  0  0  0  0  0  0  0  0  0  0
    4.2557    0.5483    0.0000 H   0  0  0  0  0  0  0  0  0  0  0  0
    3.8486   -0.1384    0.0000 H   0  0  0  0  0  0  0  0  0  0  0  0
   10.8406    2.8168    0.0000 H   0  0  0  0  0  0  0  0  0  0  0  0
    2.5454   -0.6014    0.0000 H   0  0  0  0  0  0  0  0  0  0  0  0
    3.9348   -3.0293    0.0000 H   0  0  0  0  0  0  0  0  0  0  0  0
    1.3836   -1.8817    0.0000 H   0  0  0  0  0  0  0  0  0  0  0  0
    2.2423   -3.3823    0.0000 H   0  0  0  0  0  0  0  0  0  0  0  0
 12  1  1  1  0  0  0
  1 55  1  0  0  0  0
  2  3  1  0  0  0  0
  2  4  1  0  0  0  0
  2 10  1  0  0  0  0
  2 26  1  1  0  0  0
  3  6  1  0  0  0  0
  3  8  1  0  0  0  0
  3 27  1  6  0  0  0
  4  5  1  0  0  0  0
  4 11  1  0  0  0  0
  4 28  1  6  0  0  0
  5  9  1  0  0  0  0
  5 12  1  0  0  0  0
  5 17  1  1  0  0  0
  6  7  1  0  0  0  0
  6 14  1  0  0  0  0
  6 18  1  1  0  0  0
  7 13  1  0  0  0  0
  7 16  1  0  0  0  0
  7 29  1  6  0  0  0
  8  9  1  0  0  0  0
  8 30  1  0  0  0  0
  8 31  1  0  0  0  0
  9 32  1  0  0  0  0
  9 33  1  0  0  0  0
 10 13  1  0  0  0  0
 10 34  1  0  0  0  0
 10 35  1  0  0  0  0
 11 15  1  0  0  0  0
 11 36  1  0  0  0  0
 11 37  1  0  0  0  0
 12 15  1  0  0  0  0
 12 38  1  0  0  0  0
 13 39  1  0  0  0  0
 13 40  1  0  0  0  0
 14 19  1  0  0  0  0
 14 41  1  0  0  0  0
 14 42  1  0  0  0  0
 15 43  1  0  0  0  0
 15 44  1  0  0  0  0
 16 20  1  0  0  0  0
 16 45  1  0  0  0  0
 16 46  1  0  0  0  0
 17 47  1  0  0  0  0
 17 48  1  0  0  0  0
 17 49  1  0  0  0  0
 18 50  1  0  0  0  0
 18 51  1  0  0  0  0
 18 52  1  0  0  0  0
 19 20  1  0  0  0  0
 19 53  1  0  0  0  0
 19 54  1  0  0  0  0
 20 21  2  0  0  0  0
 21 22  1  0  0  0  0
 21 23  1  0  0  0  0
 22 24  2  0  0  0  0
 22 56  1  0  0  0  0
 23 25  2  0  0  0  0
 23 57  1  0  0  0  0
 24 25  1  0  0  0  0
 24 58  1  0  0  0  0
 25 59  1  0  0  0  0
M  END
> <PUBCHEM_COMPOUND_CID>
11954082

> <PUBCHEM_COMPOUND_CANONICALIZED>
1

> <PUBCHEM_CACTVS_COMPLEXITY>
641

> <PUBCHEM_CACTVS_HBOND_ACCEPTOR>
1

> <PUBCHEM_CACTVS_HBOND_DONOR>
1

> <PUBCHEM_CACTVS_ROTATABLE_BOND>
0

> <PUBCHEM_CACTVS_SUBSKEYS>
AAADcfB4IAAAAAAAAAAAAAAAAAAAAYIAAAAwYMAAAAAAAGDAAAAAGgAACAAADxSggAICAAAAAgCAAiBCAAAAAAAgAAAICAAAAAgIEAIAAQAAQAAEgAAIgAOAwPAPgAAAAAAAAACAAAQAACAAAIAADAAAAA==

> <PUBCHEM_IUPAC_OPENEYE_NAME>
(5S,8R,9S,10S,13S,14S,17S)-3-cyclopenta-2,4-dien-1-ylidene-10,13-dimethyl-1,2,4,5,6,7,8,9,11,12,14,15,16,17-tetradecahydrocyclopenta[a]phenanthren-17-ol

> <PUBCHEM_IUPAC_CAS_NAME>
(5S,8R,9S,10S,13S,14S,17S)-3-(1-cyclopenta-2,4-dienylidene)-10,13-dimethyl-1,2,4,5,6,7,8,9,11,12,14,15,16,17-tetradecahydrocyclopenta[a]phenanthren-17-ol

> <PUBCHEM_IUPAC_NAME>
(5S,8R,9S,10S,13S,14S,17S)-3-cyclopenta-2,4-dien-1-ylidene-10,13-dimethyl-1,2,4,5,6,7,8,9,11,12,14,15,16,17-tetradecahydrocyclopenta[a]phenanthren-17-ol

> <PUBCHEM_IUPAC_SYSTEMATIC_NAME>
(5S,8R,9S,10S,13S,14S,17S)-3-cyclopenta-2,4-dien-1-ylidene-10,13-dimethyl-1,2,4,5,6,7,8,9,11,12,14,15,16,17-tetradecahydrocyclopenta[a]phenanthren-17-ol

> <PUBCHEM_IUPAC_TRADITIONAL_NAME>
(5S,8R,9S,10S,13S,14S,17S)-3-cyclopenta-2,4-dien-1-ylidene-10,13-dimethyl-1,2,4,5,6,7,8,9,11,12,14,15,16,17-tetradecahydrocyclopenta[a]phenanthren-17-ol

> <PUBCHEM_IUPAC_INCHI>
InChI=1S/C24H34O/c1-23-13-11-17(16-5-3-4-6-16)15-18(23)7-8-19-20-9-10-22(25)24(20,2)14-12-21(19)23/h3-6,18-22,25H,7-15H2,1-2H3/t18-,19-,20-,21-,22-,23-,24-/m0/s1

> <PUBCHEM_IUPAC_INCHIKEY>
OYOVFIJVSKWVLT-LQDRYOBXSA-N

> <PUBCHEM_XLOGP3>
6

> <PUBCHEM_EXACT_MASS>
338.260966

> <PUBCHEM_MOLECULAR_FORMULA>
C24H34O

> <PUBCHEM_MOLECULAR_WEIGHT>
338.52616

> <PUBCHEM_OPENEYE_CAN_SMILES>
CC12CCC(=C3C=CC=C3)CC1CCC4C2CCC5(C4CCC5O)C

> <PUBCHEM_OPENEYE_ISO_SMILES>
C[C@]12CCC(=C3C=CC=C3)C[C@@H]1CC[C@@H]4[C@@H]2CC[C@]5([C@H]4CC[C@@H]5O)C

> <PUBCHEM_CACTVS_TPSA>
20.2

> <PUBCHEM_MONOISOTOPIC_WEIGHT>
338.260966

> <PUBCHEM_TOTAL_CHARGE>
0

> <PUBCHEM_HEAVY_ATOM_COUNT>
25

> <PUBCHEM_ATOM_DEF_STEREO_COUNT>
7

> <PUBCHEM_ATOM_UDEF_STEREO_COUNT>
0

> <PUBCHEM_BOND_DEF_STEREO_COUNT>
0

> <PUBCHEM_BOND_UDEF_STEREO_COUNT>
0

> <PUBCHEM_ISOTOPIC_ATOM_COUNT>
0

> <PUBCHEM_COMPONENT_COUNT>
1

> <PUBCHEM_CACTVS_TAUTO_COUNT>
1

> <PUBCHEM_COORDINATE_TYPE>
1
5
255

> <PUBCHEM_BONDANNOTATIONS>
12  1  5
2  26  5
3  27  6
4  28  6
5  17  5
6  18  5
7  29  6

$$$$

