53665
  -OEChem-07051213132D

 14 14  0     1  0  0  0  0  0999 V2000
    5.9809    0.1452    0.0000 Cl  0  0  0  0  0  0  0  0  0  0  0  0
    3.3548    1.9239    0.0000 Cl  0  0  0  0  0  0  0  0  0  0  0  0
    5.0868    1.9239    0.0000 Cl  0  0  0  0  0  0  0  0  0  0  0  0
    3.7208   -1.1149    0.0000 O   0  0  0  0  0  0  0  0  0  0  0  0
    2.4608    0.1452    0.0000 O   0  0  0  0  0  0  0  0  0  0  0  0
    5.3086   -1.9239    0.0000 O   0  0  0  0  0  0  0  0  0  0  0  0
    4.2208    0.4239    0.0000 C   0  0  0  0  0  0  0  0  0  0  0  0
    3.4118   -0.1639    0.0000 C   0  0  3  0  0  0  0  0  0  0  0  0
    5.0298   -0.1639    0.0000 C   0  0  0  0  0  0  0  0  0  0  0  0
    4.2208    1.4239    0.0000 C   0  0  0  0  0  0  0  0  0  0  0  0
    4.7208   -1.1149    0.0000 C   0  0  0  0  0  0  0  0  0  0  0  0
    2.9734   -0.6023    0.0000 H   0  0  0  0  0  0  0  0  0  0  0  0
    4.2208    2.0439    0.0000 H   0  0  0  0  0  0  0  0  0  0  0  0
    2.0000   -0.2697    0.0000 H   0  0  0  0  0  0  0  0  0  0  0  0
  1  9  1  0  0  0  0
  2 10  1  0  0  0  0
  3 10  1  0  0  0  0
  4  8  1  0  0  0  0
  4 11  1  0  0  0  0
  5  8  1  0  0  0  0
  5 14  1  0  0  0  0
  6 11  2  0  0  0  0
  7  8  1  0  0  0  0
  7  9  2  0  0  0  0
  7 10  1  0  0  0  0
  8 12  1  0  0  0  0
  9 11  1  0  0  0  0
 10 13  1  0  0  0  0
M  END
> <PUBCHEM_COMPOUND_CID>
53665

> <PUBCHEM_COMPOUND_CANONICALIZED>
1

> <PUBCHEM_CACTVS_COMPLEXITY>
223

> <PUBCHEM_CACTVS_HBOND_ACCEPTOR>
3

> <PUBCHEM_CACTVS_HBOND_DONOR>
1

> <PUBCHEM_CACTVS_ROTATABLE_BOND>
1

> <PUBCHEM_CACTVS_SUBSKEYS>
AAADcQBgMAAGAAAAAAAAAAAAAAAAAQAAAAAAAAAAAAAAAAAAAAAAGgIACAAADAOwgMMACAAABgCIAgDQCAAAAAAAAAAACAAAA0BQFAAAIAACUAAAAAAEMQAAAAAAAAAAAAAAAAAAAAAAAAAAAAAAAAAAAA==

> <PUBCHEM_IUPAC_OPENEYE_NAME>
4-chloro-3-(dichloromethyl)-2-hydroxy-2H-furan-5-one

> <PUBCHEM_IUPAC_CAS_NAME>
4-chloro-3-(dichloromethyl)-2-hydroxy-2H-furan-5-one

> <PUBCHEM_IUPAC_NAME>
4-chloro-3-(dichloromethyl)-2-hydroxy-2H-furan-5-one

> <PUBCHEM_IUPAC_SYSTEMATIC_NAME>
3-[bis(chloranyl)methyl]-4-chloranyl-2-oxidanyl-2H-furan-5-one

> <PUBCHEM_IUPAC_TRADITIONAL_NAME>
4-chloro-3-(dichloromethyl)-2-hydroxy-2H-furan-5-one

> <PUBCHEM_IUPAC_INCHI>
InChI=1S/C5H3Cl3O3/c6-2-1(3(7)8)4(9)11-5(2)10/h3-4,9H

> <PUBCHEM_IUPAC_INCHIKEY>
WNTRMRXAGJOLCU-UHFFFAOYSA-N

> <PUBCHEM_XLOGP3_AA>
1.2

> <PUBCHEM_EXACT_MASS>
215.914777

> <PUBCHEM_MOLECULAR_FORMULA>
C5H3Cl3O3

> <PUBCHEM_MOLECULAR_WEIGHT>
217.43452

> <PUBCHEM_OPENEYE_CAN_SMILES>
C1(C(=C(C(=O)O1)Cl)C(Cl)Cl)O

> <PUBCHEM_OPENEYE_ISO_SMILES>
C1(C(=C(C(=O)O1)Cl)C(Cl)Cl)O

> <PUBCHEM_CACTVS_TPSA>
46.5

> <PUBCHEM_MONOISOTOPIC_WEIGHT>
215.914777

> <PUBCHEM_TOTAL_CHARGE>
0

> <PUBCHEM_HEAVY_ATOM_COUNT>
11

> <PUBCHEM_ATOM_DEF_STEREO_COUNT>
0

> <PUBCHEM_ATOM_UDEF_STEREO_COUNT>
1

> <PUBCHEM_BOND_DEF_STEREO_COUNT>
0

> <PUBCHEM_BOND_UDEF_STEREO_COUNT>
0

> <PUBCHEM_ISOTOPIC_ATOM_COUNT>
0

> <PUBCHEM_COMPONENT_COUNT>
1

> <PUBCHEM_CACTVS_TAUTO_COUNT>
1

> <PUBCHEM_COORDINATE_TYPE>
1
5
255

> <PUBCHEM_BONDANNOTATIONS>
8  5  3

$$$$

