56928068
  -OEChem-07051212502D

  8  7  0     0  0  0  0  0  0999 V2000
    4.2690    0.2315    0.0000 Se  0  0  0  0  0  0  0  0  0  0  0  0
    3.4030   -0.2685    0.0000 P   0  0  0  0  0  0  0  0  0  0  0  0
    2.5369   -0.7685    0.0000 O   0  0  0  0  0  0  0  0  0  0  0  0
    2.9030    0.5976    0.0000 O   0  0  0  0  0  0  0  0  0  0  0  0
    3.9030   -1.1345    0.0000 O   0  0  0  0  0  0  0  0  0  0  0  0
    4.8059   -0.0785    0.0000 H   0  0  0  0  0  0  0  0  0  0  0  0
    2.0000   -0.4585    0.0000 H   0  0  0  0  0  0  0  0  0  0  0  0
    3.2130    1.1345    0.0000 H   0  0  0  0  0  0  0  0  0  0  0  0
  1  2  1  0  0  0  0
  1  6  1  0  0  0  0
  2  3  1  0  0  0  0
  2  4  1  0  0  0  0
  2  5  2  0  0  0  0
  3  7  1  0  0  0  0
  4  8  1  0  0  0  0
M  END
> <PUBCHEM_COMPOUND_CID>
56928068

> <PUBCHEM_COMPOUND_CANONICALIZED>
1

> <PUBCHEM_CACTVS_COMPLEXITY>
61.3

> <PUBCHEM_CACTVS_HBOND_ACCEPTOR>
3

> <PUBCHEM_CACTVS_HBOND_DONOR>
2

> <PUBCHEM_CACTVS_ROTATABLE_BOND>
0

> <PUBCHEM_CACTVS_SUBSKEYS>
AAADcQAAMAIAAAAAIAAAAAAAAAAAAAAAAAAAAAAAAAAAAAAAAAAAAAAACCAAAAAAAAAAAAAAABAAQAAAAIAAAAAAAAAAAAAAAAAAAAAAAAAAAAAAAAAAAAAAAAAAAAAAAAAAAAAAAAAAAAAAAAAAAAAAAA==

> <PUBCHEM_IUPAC_OPENEYE_NAME>
selanylphosphonic acid

> <PUBCHEM_IUPAC_CAS_NAME>
selenylphosphonic acid

> <PUBCHEM_IUPAC_NAME>
selanylphosphonic acid

> <PUBCHEM_IUPAC_SYSTEMATIC_NAME>
selanylphosphonic acid

> <PUBCHEM_IUPAC_TRADITIONAL_NAME>
hydroselenophosphonic acid

> <PUBCHEM_IUPAC_INCHI>
InChI=1S/H3O3PSe/c1-4(2,3)5/h(H3,1,2,3,5)

> <PUBCHEM_IUPAC_INCHIKEY>
JRPHGDYSKGJTKZ-UHFFFAOYSA-N

> <PUBCHEM_EXACT_MASS>
161.898502

> <PUBCHEM_MOLECULAR_FORMULA>
H3O3PSe

> <PUBCHEM_MOLECULAR_WEIGHT>
160.955782

> <PUBCHEM_OPENEYE_CAN_SMILES>
OP(=O)(O)[SeH]

> <PUBCHEM_OPENEYE_ISO_SMILES>
OP(=O)(O)[SeH]

> <PUBCHEM_CACTVS_TPSA>
57.5

> <PUBCHEM_MONOISOTOPIC_WEIGHT>
161.898502

> <PUBCHEM_TOTAL_CHARGE>
0

> <PUBCHEM_HEAVY_ATOM_COUNT>
5

> <PUBCHEM_ATOM_DEF_STEREO_COUNT>
0

> <PUBCHEM_ATOM_UDEF_STEREO_COUNT>
0

> <PUBCHEM_BOND_DEF_STEREO_COUNT>
0

> <PUBCHEM_BOND_UDEF_STEREO_COUNT>
0

> <PUBCHEM_ISOTOPIC_ATOM_COUNT>
0

> <PUBCHEM_COMPONENT_COUNT>
1

> <PUBCHEM_CACTVS_TAUTO_COUNT>
2

> <PUBCHEM_COORDINATE_TYPE>
1
5
255

$$$$

