46174025
  -OEChem-07051213113D

 64 65  0     1  0  0  0  0  0999 V2000
    1.4039   -0.0730   -0.0987 O   0  0  0  0  0  0  0  0  0  0  0  0
   -2.0037   -2.7960   -1.7084 O   0  0  0  0  0  0  0  0  0  0  0  0
   -1.2446   -1.0906    2.2030 O   0  0  0  0  0  0  0  0  0  0  0  0
    3.2089    0.9915    0.9873 O   0  0  0  0  0  0  0  0  0  0  0  0
   -2.7967    1.5467   -0.8196 O   0  0  0  0  0  0  0  0  0  0  0  0
   -4.9951    3.2811    1.5153 O   0  0  0  0  0  0  0  0  0  0  0  0
   -2.9339   -0.6280    0.0063 N   0  0  0  0  0  0  0  0  0  0  0  0
    0.7168   -3.2328    1.6934 N   0  0  0  0  0  0  0  0  0  0  0  0
    0.5093    2.4421   -1.1252 N   0  0  0  0  0  0  0  0  0  0  0  0
    6.5785    0.1929   -0.2688 N   0  0  0  0  0  0  0  0  0  0  0  0
   -5.3693    2.1137   -0.4778 N   0  0  0  0  0  0  0  0  0  0  0  0
   -1.5369   -0.9561   -0.1934 C   0  0  1  0  0  0  0  0  0  0  0  0
    0.7778   -0.8936    0.8891 C   0  0  1  0  0  0  0  0  0  0  0  0
   -0.7033   -0.5030    1.0191 C   0  0  2  0  0  0  0  0  0  0  0  0
    0.9979   -2.3783    0.5377 C   0  0  2  0  0  0  0  0  0  0  0  0
   -1.3547   -2.4541   -0.4832 C   0  0  2  0  0  0  0  0  0  0  0  0
    0.1264   -2.8102   -0.6483 C   0  0  0  0  0  0  0  0  0  0  0  0
    1.8819    1.1361    0.4671 C   0  0  1  0  0  0  0  0  0  0  0  0
    1.8471    2.2730   -0.5648 C   0  0  1  0  0  0  0  0  0  0  0  0
    2.8631    2.0219   -1.6819 C   0  0  0  0  0  0  0  0  0  0  0  0
    4.1843    0.6785   -0.0138 C   0  0  1  0  0  0  0  0  0  0  0  0
    4.2435    1.7762   -1.0778 C   0  0  0  0  0  0  0  0  0  0  0  0
   -3.7578   -1.6903    0.5828 C   0  0  0  0  0  0  0  0  0  0  0  0
   -3.4634    0.6300   -0.3322 C   0  0  0  0  0  0  0  0  0  0  0  0
    5.5287    0.5232    0.6848 C   0  0  0  0  0  0  0  0  0  0  0  0
   -2.2737   -4.1870   -1.7774 C   0  0  0  0  0  0  0  0  0  0  0  0
   -4.9468    0.8075   -0.0605 C   0  0  0  0  0  0  0  0  0  0  0  0
    7.8656    0.0550    0.3995 C   0  0  0  0  0  0  0  0  0  0  0  0
   -5.3538    3.2237    0.3461 C   0  0  0  0  0  0  0  0  0  0  0  0
    1.2797   -0.7271    1.8542 H   0  0  0  0  0  0  0  0  0  0  0  0
   -1.1984   -0.3899   -1.0716 H   0  0  0  0  0  0  0  0  0  0  0  0
   -0.8114    0.5817    1.1293 H   0  0  0  0  0  0  0  0  0  0  0  0
    2.0480   -2.5248    0.2551 H   0  0  0  0  0  0  0  0  0  0  0  0
   -1.7412   -3.0726    0.3344 H   0  0  0  0  0  0  0  0  0  0  0  0
    0.2595   -3.8847   -0.8207 H   0  0  0  0  0  0  0  0  0  0  0  0
    0.5064   -2.3323   -1.5624 H   0  0  0  0  0  0  0  0  0  0  0  0
    1.2539    1.4467    1.3120 H   0  0  0  0  0  0  0  0  0  0  0  0
    2.1333    3.2043   -0.0584 H   0  0  0  0  0  0  0  0  0  0  0  0
    2.5689    1.1519   -2.2832 H   0  0  0  0  0  0  0  0  0  0  0  0
    2.9078    2.8809   -2.3622 H   0  0  0  0  0  0  0  0  0  0  0  0
    0.9151   -4.2045    1.4586 H   0  0  0  0  0  0  0  0  0  0  0  0
    1.3419   -2.9892    2.4605 H   0  0  0  0  0  0  0  0  0  0  0  0
    3.9120   -0.2784   -0.4787 H   0  0  0  0  0  0  0  0  0  0  0  0
    4.5919    2.7130   -0.6240 H   0  0  0  0  0  0  0  0  0  0  0  0
    4.9435    1.5197   -1.8803 H   0  0  0  0  0  0  0  0  0  0  0  0
   -0.7301   -0.7568    2.9574 H   0  0  0  0  0  0  0  0  0  0  0  0
   -4.0173   -2.4128   -0.1945 H   0  0  0  0  0  0  0  0  0  0  0  0
   -4.7004   -1.3217    0.9876 H   0  0  0  0  0  0  0  0  0  0  0  0
   -3.2580   -2.1814    1.4200 H   0  0  0  0  0  0  0  0  0  0  0  0
    5.7705    1.4520    1.2180 H   0  0  0  0  0  0  0  0  0  0  0  0
    5.4435   -0.2576    1.4519 H   0  0  0  0  0  0  0  0  0  0  0  0
   -0.1515    2.6557   -0.3794 H   0  0  0  0  0  0  0  0  0  0  0  0
    0.4996    3.2407   -1.7581 H   0  0  0  0  0  0  0  0  0  0  0  0
   -1.3578   -4.7728   -1.8852 H   0  0  0  0  0  0  0  0  0  0  0  0
   -2.8829   -4.3644   -2.6687 H   0  0  0  0  0  0  0  0  0  0  0  0
   -2.8448   -4.5292   -0.9086 H   0  0  0  0  0  0  0  0  0  0  0  0
   -5.5255    0.0758   -0.6312 H   0  0  0  0  0  0  0  0  0  0  0  0
   -5.1417    0.7120    1.0116 H   0  0  0  0  0  0  0  0  0  0  0  0
    6.3484   -0.6794   -0.7439 H   0  0  0  0  0  0  0  0  0  0  0  0
   -5.6821    2.2314   -1.4371 H   0  0  0  0  0  0  0  0  0  0  0  0
    8.1600    0.9888    0.8894 H   0  0  0  0  0  0  0  0  0  0  0  0
    8.6358   -0.1850   -0.3400 H   0  0  0  0  0  0  0  0  0  0  0  0
    7.8489   -0.7499    1.1415 H   0  0  0  0  0  0  0  0  0  0  0  0
   -5.7193    4.1119   -0.1951 H   0  0  0  0  0  0  0  0  0  0  0  0
  1 13  1  0  0  0  0
  1 18  1  0  0  0  0
  2 16  1  0  0  0  0
  2 26  1  0  0  0  0
  3 14  1  0  0  0  0
  3 46  1  0  0  0  0
  4 18  1  0  0  0  0
  4 21  1  0  0  0  0
  5 24  2  0  0  0  0
  6 29  2  0  0  0  0
  7 12  1  0  0  0  0
  7 23  1  0  0  0  0
  7 24  1  0  0  0  0
  8 15  1  0  0  0  0
  8 41  1  0  0  0  0
  8 42  1  0  0  0  0
  9 19  1  0  0  0  0
  9 52  1  0  0  0  0
  9 53  1  0  0  0  0
 10 25  1  0  0  0  0
 10 28  1  0  0  0  0
 10 59  1  0  0  0  0
 11 27  1  0  0  0  0
 11 29  1  0  0  0  0
 11 60  1  0  0  0  0
 12 14  1  0  0  0  0
 12 16  1  0  0  0  0
 12 31  1  0  0  0  0
 13 14  1  0  0  0  0
 13 15  1  0  0  0  0
 13 30  1  0  0  0  0
 14 32  1  0  0  0  0
 15 17  1  0  0  0  0
 15 33  1  0  0  0  0
 16 17  1  0  0  0  0
 16 34  1  0  0  0  0
 17 35  1  0  0  0  0
 17 36  1  0  0  0  0
 18 19  1  0  0  0  0
 18 37  1  0  0  0  0
 19 20  1  0  0  0  0
 19 38  1  0  0  0  0
 20 22  1  0  0  0  0
 20 39  1  0  0  0  0
 20 40  1  0  0  0  0
 21 22  1  0  0  0  0
 21 25  1  0  0  0  0
 21 43  1  0  0  0  0
 22 44  1  0  0  0  0
 22 45  1  0  0  0  0
 23 47  1  0  0  0  0
 23 48  1  0  0  0  0
 23 49  1  0  0  0  0
 24 27  1  0  0  0  0
 25 50  1  0  0  0  0
 25 51  1  0  0  0  0
 26 54  1  0  0  0  0
 26 55  1  0  0  0  0
 26 56  1  0  0  0  0
 27 57  1  0  0  0  0
 27 58  1  0  0  0  0
 28 61  1  0  0  0  0
 28 62  1  0  0  0  0
 28 63  1  0  0  0  0
 29 64  1  0  0  0  0
M  END
> <PUBCHEM_COMPOUND_CID>
46174025

> <PUBCHEM_CONFORMER_RMSD>
1.2

> <PUBCHEM_CONFORMER_DIVERSEORDER>
1
5
3
11
14
15
9
10
4
7
12
13
8
2
6
16

> <PUBCHEM_MMFF94_PARTIAL_CHARGES>
34
1 -0.56
10 -0.9
11 -0.73
12 0.3
13 0.28
14 0.28
15 0.27
16 0.28
18 0.56
19 0.27
2 -0.56
21 0.28
23 0.3
24 0.57
25 0.27
26 0.28
27 0.36
28 0.27
29 0.57
3 -0.68
4 -0.56
41 0.36
42 0.36
46 0.4
5 -0.57
52 0.36
53 0.36
59 0.36
6 -0.57
60 0.37
64 0.06
7 -0.66
8 -0.99
9 -0.99

> <PUBCHEM_EFFECTIVE_ROTOR_COUNT>
12.4

> <PUBCHEM_PHARMACOPHORE_FEATURES>
16
1 1 acceptor
1 10 cation
1 10 donor
1 11 donor
1 2 acceptor
1 3 acceptor
1 3 donor
1 4 acceptor
1 5 acceptor
1 6 acceptor
1 8 cation
1 8 donor
1 9 cation
1 9 donor
6 12 13 14 15 16 17 rings
6 4 18 19 20 21 22 rings

> <PUBCHEM_HEAVY_ATOM_COUNT>
29

> <PUBCHEM_ATOM_DEF_STEREO_COUNT>
8

> <PUBCHEM_ATOM_UDEF_STEREO_COUNT>
0

> <PUBCHEM_BOND_DEF_STEREO_COUNT>
0

> <PUBCHEM_BOND_UDEF_STEREO_COUNT>
0

> <PUBCHEM_ISOTOPIC_ATOM_COUNT>
0

> <PUBCHEM_COMPONENT_COUNT>
1

> <PUBCHEM_CACTVS_TAUTO_COUNT>
2

> <PUBCHEM_CONFORMER_ID>
02C08F4900000001

> <PUBCHEM_MMFF94_ENERGY>
63.8699

> <PUBCHEM_FEATURE_SELFOVERLAP>
81.23

> <PUBCHEM_SHAPE_FINGERPRINT>
10165383 225 18113332012669289035
10366900 7 11815352437449247511
11763715 3 17404006038388396759
12107183 9 18341617018927033508
12293681 160 17385726949744692787
12422481 6 17987246705647958376
12633257 1 17418100918410122137
12788726 201 17979067181224760167
13177829 73 18410573993947549288
14251751 93 18338518525913125911
14294032 229 18260545594484414939
14790565 3 18272364261339508444
15163728 17 18262221327219138461
15297060 5 17968656137724183073
15420108 30 18336838592557864855
15439362 3 18117273877038286991
16628084 112 17486783141528477978
20642791 35 18267019651797931710
21033648 144 18199475531716992245
21033648 29 18262249819868890856
21033650 10 18194380218323585060
21298829 104 18337109064050000096
21987440 362 18122339348445631724
2838139 119 18408327678849338173
3411729 13 18198901607948432537
38695281 34 18335419123077846583
44062 13 18189613848217837822
474 4 18201719583093280985
5385378 56 18269552913175145352
559249 180 18409169875213689290
6328613 192 18270960142758518708
7226269 152 18186517692378126768

> <PUBCHEM_SHAPE_MULTIPOLES>
536.69
13.3
4.43
1.48
15.17
1.77
-0.03
-10.01
-1.04
-6.04
1.07
-0.28
0.55
-2.2

> <PUBCHEM_SHAPE_SELFOVERLAP>
1079.036

> <PUBCHEM_SHAPE_VOLUME>
311.4

> <PUBCHEM_COORDINATE_TYPE>
2
5
10

$$$$

