586345
  -OEChem-06241222463D

 38 38  0     1  0  0  0  0  0999 V2000
    2.0436    0.3742   -0.7264 O   0  0  0  0  0  0  0  0  0  0  0  0
   -0.3525   -3.5136   -0.7382 O   0  0  0  0  0  0  0  0  0  0  0  0
    2.5070   -0.8414    1.1817 O   0  0  0  0  0  0  0  0  0  0  0  0
   -3.7319    1.6042    0.4059 O   0  0  0  0  0  0  0  0  0  0  0  0
    2.5784    1.5507   -0.1120 C   0  0  0  0  0  0  0  0  0  0  0  0
    0.2023   -2.4183   -0.0088 C   0  0  1  0  0  0  0  0  0  0  0  0
    1.4588   -1.9066   -0.7157 C   0  0  0  0  0  0  0  0  0  0  0  0
    4.0420    1.2917    0.2423 C   0  0  0  0  0  0  0  0  0  0  0  0
    2.4636    2.6901   -1.1223 C   0  0  0  0  0  0  0  0  0  0  0  0
    1.7609    1.8595    1.1414 C   0  0  0  0  0  0  0  0  0  0  0  0
   -0.8514   -1.3406    0.1023 C   0  0  0  0  0  0  0  0  0  0  0  0
    2.0728   -0.7531    0.0406 C   0  0  0  0  0  0  0  0  0  0  0  0
   -1.3367   -0.9942    1.3520 C   0  0  0  0  0  0  0  0  0  0  0  0
   -1.3105   -0.7213   -1.0483 C   0  0  0  0  0  0  0  0  0  0  0  0
   -2.3094    0.0003    1.4545 C   0  0  0  0  0  0  0  0  0  0  0  0
   -2.2832    0.2732   -0.9460 C   0  0  0  0  0  0  0  0  0  0  0  0
   -2.7826    0.6341    0.3054 C   0  0  0  0  0  0  0  0  0  0  0  0
   -4.1713    2.2112   -0.8084 C   0  0  0  0  0  0  0  0  0  0  0  0
    0.4663   -2.7933    0.9877 H   0  0  0  0  0  0  0  0  0  0  0  0
    2.2107   -2.7026   -0.7816 H   0  0  0  0  0  0  0  0  0  0  0  0
    1.2605   -1.6239   -1.7563 H   0  0  0  0  0  0  0  0  0  0  0  0
    4.5660    0.8019   -0.5867 H   0  0  0  0  0  0  0  0  0  0  0  0
    4.5573    2.2364    0.4533 H   0  0  0  0  0  0  0  0  0  0  0  0
    4.1910    0.6713    1.1296 H   0  0  0  0  0  0  0  0  0  0  0  0
    2.8536    3.6315   -0.7218 H   0  0  0  0  0  0  0  0  0  0  0  0
    1.4189    2.8445   -1.4157 H   0  0  0  0  0  0  0  0  0  0  0  0
    3.0109    2.4509   -2.0413 H   0  0  0  0  0  0  0  0  0  0  0  0
    1.9603    1.2005    1.9898 H   0  0  0  0  0  0  0  0  0  0  0  0
    1.9743    2.8747    1.4966 H   0  0  0  0  0  0  0  0  0  0  0  0
    0.6867    1.7972    0.9319 H   0  0  0  0  0  0  0  0  0  0  0  0
   -0.9753   -1.4793    2.2541 H   0  0  0  0  0  0  0  0  0  0  0  0
   -0.9427   -0.9978   -2.0319 H   0  0  0  0  0  0  0  0  0  0  0  0
   -2.6941    0.2776    2.4320 H   0  0  0  0  0  0  0  0  0  0  0  0
   -2.6081    0.7225   -1.8782 H   0  0  0  0  0  0  0  0  0  0  0  0
    0.3356   -4.1973   -0.8061 H   0  0  0  0  0  0  0  0  0  0  0  0
   -4.9250    2.9593   -0.5415 H   0  0  0  0  0  0  0  0  0  0  0  0
   -4.6603    1.4854   -1.4669 H   0  0  0  0  0  0  0  0  0  0  0  0
   -3.3560    2.7434   -1.3100 H   0  0  0  0  0  0  0  0  0  0  0  0
  1  5  1  0  0  0  0
  1 12  1  0  0  0  0
  2  6  1  0  0  0  0
  2 35  1  0  0  0  0
  3 12  2  0  0  0  0
  4 17  1  0  0  0  0
  4 18  1  0  0  0  0
  5  8  1  0  0  0  0
  5  9  1  0  0  0  0
  5 10  1  0  0  0  0
  6  7  1  0  0  0  0
  6 11  1  0  0  0  0
  6 19  1  0  0  0  0
  7 12  1  0  0  0  0
  7 20  1  0  0  0  0
  7 21  1  0  0  0  0
  8 22  1  0  0  0  0
  8 23  1  0  0  0  0
  8 24  1  0  0  0  0
  9 25  1  0  0  0  0
  9 26  1  0  0  0  0
  9 27  1  0  0  0  0
 10 28  1  0  0  0  0
 10 29  1  0  0  0  0
 10 30  1  0  0  0  0
 11 13  2  0  0  0  0
 11 14  1  0  0  0  0
 13 15  1  0  0  0  0
 13 31  1  0  0  0  0
 14 16  2  0  0  0  0
 14 32  1  0  0  0  0
 15 17  2  0  0  0  0
 15 33  1  0  0  0  0
 16 17  1  0  0  0  0
 16 34  1  0  0  0  0
 18 36  1  0  0  0  0
 18 37  1  0  0  0  0
 18 38  1  0  0  0  0
M  END
> <PUBCHEM_COMPOUND_CID>
586345

> <PUBCHEM_CONFORMER_RMSD>
0.8

> <PUBCHEM_CONFORMER_DIVERSEORDER>
1
9
93
47
71
48
69
52
43
87
60
76
79
11
25
66
51
28
21
20
16
91
70
67
33
84
7
82
41
4
53
83
58
40
5
10
73
56
90
81
19
6
22
12
45
29
2
75
89
72
14
80
38
77
37
24
8
94
30
3
61
13
55
23
34
65
59
36
46
50
26
54
57
27
86
63
78
92
17
88
49
15
31
32
74
44
42
39
68
18
95
85
35
64
62

> <PUBCHEM_MMFF94_PARTIAL_CHARGES>
20
1 -0.43
11 -0.14
12 0.66
13 -0.15
14 -0.15
15 -0.15
16 -0.15
17 0.08
18 0.28
2 -0.68
3 -0.57
31 0.15
32 0.15
33 0.15
34 0.15
35 0.4
4 -0.36
5 0.28
6 0.42
7 0.06

> <PUBCHEM_EFFECTIVE_ROTOR_COUNT>
6

> <PUBCHEM_PHARMACOPHORE_FEATURES>
6
1 2 acceptor
1 2 donor
1 3 acceptor
1 4 acceptor
4 5 8 9 10 hydrophobe
6 11 13 14 15 16 17 rings

> <PUBCHEM_HEAVY_ATOM_COUNT>
18

> <PUBCHEM_ATOM_DEF_STEREO_COUNT>
0

> <PUBCHEM_ATOM_UDEF_STEREO_COUNT>
1

> <PUBCHEM_BOND_DEF_STEREO_COUNT>
0

> <PUBCHEM_BOND_UDEF_STEREO_COUNT>
0

> <PUBCHEM_ISOTOPIC_ATOM_COUNT>
0

> <PUBCHEM_COMPONENT_COUNT>
1

> <PUBCHEM_CACTVS_TAUTO_COUNT>
1

> <PUBCHEM_CONFORMER_ID>
0008F26900000001

> <PUBCHEM_MMFF94_ENERGY>
56.562

> <PUBCHEM_FEATURE_SELFOVERLAP>
30.446

> <PUBCHEM_SHAPE_FINGERPRINT>
10871710 139 17406537118297503885
11640471 11 18040724687674555899
11725454 13 17129892605943052399
12077114 3 18340487768513085992
12173636 292 18263929843286173407
12403259 327 17274539957166612851
12633257 1 17274835635674511296
128993 33 18126553523312065100
13134695 92 17764590215197756343
13618510 140 18335415785519271769
14026960 21 18341883061838063547
14386348 128 18119508960902644152
15422964 175 9655574084813555151
15775835 57 18261111863455883109
16945 1 18120644984184572827
18186145 218 18188197793015065647
18219364 16 18337657668374491257
18981168 100 18190723289609346966
20621476 13 18199195164267708045
21041028 32 17333658674299488151
21475661 188 17843973769655250869
21524375 3 18336540504457878938
21639500 275 18264495147097924669
21731516 1 10591770895524694714
23175994 123 17980751963646174942
23557571 272 15503244179587913119
23558518 356 18341055103496988086
25 1 18336261327166923576
27216 239 18128251177628250800
3060560 45 18044380666964203631
350125 39 18337380531426116622
474 4 18338802333325863009
49207404 50 18271224089667050929
5262128 65 14851607643807644369
81228 2 17543059083440934082

> <PUBCHEM_SHAPE_MULTIPOLES>
346.95
6.3
3.25
1.29
0.94
0.92
0.21
-5.79
-0.03
-0.22
-0.9
0.27
-0.09
0.16

> <PUBCHEM_SHAPE_SELFOVERLAP>
710.267

> <PUBCHEM_SHAPE_VOLUME>
201.4

> <PUBCHEM_COORDINATE_TYPE>
2
5
10

$$$$

