443126
  -OEChem-07051213013D

 60 59  0     1  0  0  0  0  0999 V2000
   -0.6394   -0.3338    1.9005 O   0  0  0  0  0  0  0  0  0  0  0  0
    1.5001    0.7726   -1.2297 O   0  0  0  0  0  0  0  0  0  0  0  0
   -4.4922    0.2100    2.7303 O   0  0  0  0  0  0  0  0  0  0  0  0
   -4.3967   -1.3640    1.0996 O   0  0  0  0  0  0  0  0  0  0  0  0
    1.2549   -1.0824    0.1448 N   0  0  0  0  0  0  0  0  0  0  0  0
   -2.1475   -0.1287    0.1471 N   0  0  0  0  0  0  0  0  0  0  0  0
    4.1675   -0.8236   -0.7420 N   0  0  0  0  0  0  0  0  0  0  0  0
   -0.1113   -1.3929   -0.2087 C   0  0  1  0  0  0  0  0  0  0  0  0
   -0.3607   -2.9038   -0.0757 C   0  0  0  0  0  0  0  0  0  0  0  0
    0.4548   -3.7761   -1.0547 C   0  0  0  0  0  0  0  0  0  0  0  0
    3.3851    0.0718    0.1140 C   0  0  1  0  0  0  0  0  0  0  0  0
    3.9479    1.5002    0.0377 C   0  0  0  0  0  0  0  0  0  0  0  0
    5.3794    1.6550    0.5952 C   0  0  0  0  0  0  0  0  0  0  0  0
   -0.9779   -0.5763    0.7435 C   0  0  0  0  0  0  0  0  0  0  0  0
   -3.1187    0.6901    0.8359 C   0  0  1  0  0  0  0  0  0  0  0  0
    1.9527   -0.0151   -0.4010 C   0  0  0  0  0  0  0  0  0  0  0  0
   -3.8699    1.5845   -0.1500 C   0  0  0  0  0  0  0  0  0  0  0  0
    0.2160   -5.2720   -0.8451 C   0  0  0  0  0  0  0  0  0  0  0  0
    0.1067   -3.3956   -2.4966 C   0  0  0  0  0  0  0  0  0  0  0  0
   -2.9526    2.5880   -0.8549 C   0  0  0  0  0  0  0  0  0  0  0  0
    5.4045    1.2480    2.0713 C   0  0  0  0  0  0  0  0  0  0  0  0
    5.9162    3.0791    0.4448 C   0  0  0  0  0  0  0  0  0  0  0  0
   -3.7416    3.4849   -1.8095 C   0  0  0  0  0  0  0  0  0  0  0  0
   -4.0467   -0.2777    1.5436 C   0  0  0  0  0  0  0  0  0  0  0  0
   -2.8306    4.4580   -2.5404 C   0  0  0  0  0  0  0  0  0  0  0  0
   -0.3001   -1.0440   -1.2290 H   0  0  0  0  0  0  0  0  0  0  0  0
   -0.1347   -3.2209    0.9516 H   0  0  0  0  0  0  0  0  0  0  0  0
   -1.4314   -3.1017   -0.2193 H   0  0  0  0  0  0  0  0  0  0  0  0
    1.5244   -3.5898   -0.8978 H   0  0  0  0  0  0  0  0  0  0  0  0
    3.3998   -0.2924    1.1459 H   0  0  0  0  0  0  0  0  0  0  0  0
    3.2720    2.1769    0.5782 H   0  0  0  0  0  0  0  0  0  0  0  0
    3.9385    1.8460   -1.0053 H   0  0  0  0  0  0  0  0  0  0  0  0
    1.6996   -1.6436    0.8660 H   0  0  0  0  0  0  0  0  0  0  0  0
    6.0634    0.9996    0.0438 H   0  0  0  0  0  0  0  0  0  0  0  0
   -2.5951    1.2901    1.5895 H   0  0  0  0  0  0  0  0  0  0  0  0
   -4.6577    2.1275    0.3877 H   0  0  0  0  0  0  0  0  0  0  0  0
   -4.3802    0.9674   -0.9015 H   0  0  0  0  0  0  0  0  0  0  0  0
   -2.3741   -0.4488   -0.7904 H   0  0  0  0  0  0  0  0  0  0  0  0
    0.4786   -5.5641    0.1771 H   0  0  0  0  0  0  0  0  0  0  0  0
   -0.8346   -5.5325   -1.0123 H   0  0  0  0  0  0  0  0  0  0  0  0
    0.8280   -5.8667   -1.5313 H   0  0  0  0  0  0  0  0  0  0  0  0
   -0.9736   -3.4360   -2.6726 H   0  0  0  0  0  0  0  0  0  0  0  0
    0.5860   -4.0829   -3.2029 H   0  0  0  0  0  0  0  0  0  0  0  0
    0.4621   -2.3922   -2.7485 H   0  0  0  0  0  0  0  0  0  0  0  0
   -2.4416    3.2066   -0.1071 H   0  0  0  0  0  0  0  0  0  0  0  0
   -2.1771    2.0565   -1.4191 H   0  0  0  0  0  0  0  0  0  0  0  0
    4.6480    1.7891    2.6496 H   0  0  0  0  0  0  0  0  0  0  0  0
    6.3825    1.4671    2.5147 H   0  0  0  0  0  0  0  0  0  0  0  0
    5.2380    0.1746    2.1997 H   0  0  0  0  0  0  0  0  0  0  0  0
    5.2975    3.7955    0.9958 H   0  0  0  0  0  0  0  0  0  0  0  0
    6.9416    3.1538    0.8218 H   0  0  0  0  0  0  0  0  0  0  0  0
    5.9237    3.3785   -0.6085 H   0  0  0  0  0  0  0  0  0  0  0  0
   -4.4981    4.0484   -1.2512 H   0  0  0  0  0  0  0  0  0  0  0  0
   -4.2724    2.8698   -2.5454 H   0  0  0  0  0  0  0  0  0  0  0  0
    5.1245   -0.8833   -0.3981 H   0  0  0  0  0  0  0  0  0  0  0  0
    3.7935   -1.7703   -0.6752 H   0  0  0  0  0  0  0  0  0  0  0  0
   -2.3055    5.1094   -1.8343 H   0  0  0  0  0  0  0  0  0  0  0  0
   -3.4153    5.0904   -3.2158 H   0  0  0  0  0  0  0  0  0  0  0  0
   -2.0836    3.9242   -3.1365 H   0  0  0  0  0  0  0  0  0  0  0  0
   -5.1059   -0.4133    3.1744 H   0  0  0  0  0  0  0  0  0  0  0  0
  1 14  2  0  0  0  0
  2 16  2  0  0  0  0
  3 24  1  0  0  0  0
  3 60  1  0  0  0  0
  4 24  2  0  0  0  0
  5  8  1  0  0  0  0
  5 16  1  0  0  0  0
  5 33  1  0  0  0  0
  6 14  1  0  0  0  0
  6 15  1  0  0  0  0
  6 38  1  0  0  0  0
  7 11  1  0  0  0  0
  7 55  1  0  0  0  0
  7 56  1  0  0  0  0
  8  9  1  0  0  0  0
  8 14  1  0  0  0  0
  8 26  1  0  0  0  0
  9 10  1  0  0  0  0
  9 27  1  0  0  0  0
  9 28  1  0  0  0  0
 10 18  1  0  0  0  0
 10 19  1  0  0  0  0
 10 29  1  0  0  0  0
 11 12  1  0  0  0  0
 11 16  1  0  0  0  0
 11 30  1  0  0  0  0
 12 13  1  0  0  0  0
 12 31  1  0  0  0  0
 12 32  1  0  0  0  0
 13 21  1  0  0  0  0
 13 22  1  0  0  0  0
 13 34  1  0  0  0  0
 15 17  1  0  0  0  0
 15 24  1  0  0  0  0
 15 35  1  0  0  0  0
 17 20  1  0  0  0  0
 17 36  1  0  0  0  0
 17 37  1  0  0  0  0
 18 39  1  0  0  0  0
 18 40  1  0  0  0  0
 18 41  1  0  0  0  0
 19 42  1  0  0  0  0
 19 43  1  0  0  0  0
 19 44  1  0  0  0  0
 20 23  1  0  0  0  0
 20 45  1  0  0  0  0
 20 46  1  0  0  0  0
 21 47  1  0  0  0  0
 21 48  1  0  0  0  0
 21 49  1  0  0  0  0
 22 50  1  0  0  0  0
 22 51  1  0  0  0  0
 22 52  1  0  0  0  0
 23 25  1  0  0  0  0
 23 53  1  0  0  0  0
 23 54  1  0  0  0  0
 25 57  1  0  0  0  0
 25 58  1  0  0  0  0
 25 59  1  0  0  0  0
M  END
> <PUBCHEM_COMPOUND_CID>
443126

> <PUBCHEM_CONFORMER_RMSD>
1.2

> <PUBCHEM_CONFORMER_DIVERSEORDER>
1
19
2
64
44
8
58
49
7
50
68
12
25
70
39
9
34
17
35
24
62
52
20
47
74
56
54
5
51
22
61
42
16
29
65
14
48
57
27
37
6
71
15
53
28
43
21
26
63
72
4
10
18
38
30
41
31
69
45
73
3
36
13
46
33
40
11
60
67
32
23
59
55
66

> <PUBCHEM_MMFF94_PARTIAL_CHARGES>
18
1 -0.57
11 0.33
14 0.57
15 0.36
16 0.57
2 -0.57
24 0.66
3 -0.65
33 0.37
38 0.37
4 -0.57
5 -0.73
55 0.36
56 0.36
6 -0.73
60 0.5
7 -0.99
8 0.36

> <PUBCHEM_EFFECTIVE_ROTOR_COUNT>
14

> <PUBCHEM_PHARMACOPHORE_FEATURES>
12
1 1 acceptor
1 2 acceptor
1 25 hydrophobe
1 3 acceptor
1 4 acceptor
1 5 donor
1 6 donor
1 7 cation
1 7 donor
3 10 18 19 hydrophobe
3 13 21 22 hydrophobe
3 3 4 24 anion

> <PUBCHEM_HEAVY_ATOM_COUNT>
25

> <PUBCHEM_ATOM_DEF_STEREO_COUNT>
1

> <PUBCHEM_ATOM_UDEF_STEREO_COUNT>
2

> <PUBCHEM_BOND_DEF_STEREO_COUNT>
0

> <PUBCHEM_BOND_UDEF_STEREO_COUNT>
0

> <PUBCHEM_ISOTOPIC_ATOM_COUNT>
0

> <PUBCHEM_COMPONENT_COUNT>
1

> <PUBCHEM_CACTVS_TAUTO_COUNT>
4

> <PUBCHEM_CONFORMER_ID>
0006C2F600000001

> <PUBCHEM_MMFF94_ENERGY>
32.8184

> <PUBCHEM_FEATURE_SELFOVERLAP>
60.952

> <PUBCHEM_SHAPE_FINGERPRINT>
10764073 3 17198001960952307110
12403259 415 18337660997122085280
12549972 3 17483938742973879611
12596602 18 16558753360805996488
12788726 201 17825965718996967582
12892183 10 17775567546084041384
12988421 55 18259984872848906944
13911987 19 18186523193851587113
1813 80 12535341307597650066
19784866 34 17967522497948253555
20645477 56 18261669256201372832
21033648 29 18334583434238373728
21304303 282 17829654679270681510
21859007 373 18270126841772110220
22182313 1 17984402299721944935
23557571 272 17701795874059473319
23559900 14 18049443943916903282
238078 22 7781519239156487128
25019877 29 17461137891250330271
376196 1 18198351838579301152
6049 1 17767093747903655443
621550 34 18339061792548251387
633830 44 17313932138632439418
7399639 24 18339066169056641795
9862522 239 18412270523019103239
9925002 15 17834949776972315783
9981440 41 18269292299092396713

> <PUBCHEM_SHAPE_MULTIPOLES>
476.07
11.19
6.01
2.2
11.11
4
-0.05
-13.92
-4.86
-1.84
5.47
-2.32
-0.58
3.9

> <PUBCHEM_SHAPE_SELFOVERLAP>
911.33

> <PUBCHEM_SHAPE_VOLUME>
291.5

> <PUBCHEM_COORDINATE_TYPE>
2
5
10

$$$$

