443844
  -OEChem-07051213032D

 31 32  0     1  0  0  0  0  0999 V2000
    2.5369   -0.9895    0.0000 O   0  0  0  0  0  0  0  0  0  0  0  0
    5.4755   -2.1834    0.0000 O   0  0  0  0  0  0  0  0  0  0  0  0
    3.7813   -2.5435    0.0000 O   0  0  0  0  0  0  0  0  0  0  0  0
    5.3739    2.2955    0.0000 N   0  0  3  0  0  0  0  0  0  0  0  0
    5.8517    0.3469    0.0000 C   0  0  3  0  0  0  0  0  0  0  0  0
    6.1105    1.3129    0.0000 C   0  0  3  0  0  0  0  0  0  0  0  0
    4.3165   -0.8962    0.0000 C   0  0  2  0  0  0  0  0  0  0  0  0
    7.6836   -0.4119    0.0000 C   0  0  0  0  0  0  0  0  0  0  0  0
    7.9424    0.5541    0.0000 C   0  0  0  0  0  0  0  0  0  0  0  0
    3.5075    0.5051    0.0000 C   0  0  0  0  0  0  0  0  0  0  0  0
    3.4030   -0.4895    0.0000 C   0  0  2  0  0  0  0  0  0  0  0  0
    4.8739    3.1615    0.0000 C   0  0  0  0  0  0  0  0  0  0  0  0
    4.5244   -1.8744    0.0000 C   0  0  0  0  0  0  0  0  0  0  0  0
    5.6834   -3.1615    0.0000 C   0  0  0  0  0  0  0  0  0  0  0  0
    5.9736   -0.4943    0.0000 H   0  0  0  0  0  0  0  0  0  0  0  0
    6.0715    0.4638    0.0000 H   0  0  0  0  0  0  0  0  0  0  0  0
    3.8347   -1.2864    0.0000 H   0  0  0  0  0  0  0  0  0  0  0  0
    7.4716   -0.9945    0.0000 H   0  0  0  0  0  0  0  0  0  0  0  0
    8.2749   -0.5983    0.0000 H   0  0  0  0  0  0  0  0  0  0  0  0
    8.5337    0.3676    0.0000 H   0  0  0  0  0  0  0  0  0  0  0  0
    8.1545    1.1367    0.0000 H   0  0  0  0  0  0  0  0  0  0  0  0
    3.4052    1.1166    0.0000 H   0  0  0  0  0  0  0  0  0  0  0  0
    2.8878    0.4862    0.0000 H   0  0  0  0  0  0  0  0  0  0  0  0
    2.8830   -0.1518    0.0000 H   0  0  0  0  0  0  0  0  0  0  0  0
    5.4108    3.4715    0.0000 H   0  0  0  0  0  0  0  0  0  0  0  0
    4.5639    3.6984    0.0000 H   0  0  0  0  0  0  0  0  0  0  0  0
    4.3369    2.8515    0.0000 H   0  0  0  0  0  0  0  0  0  0  0  0
    2.0000   -0.6795    0.0000 H   0  0  0  0  0  0  0  0  0  0  0  0
    5.0769   -3.2904    0.0000 H   0  0  0  0  0  0  0  0  0  0  0  0
    5.8123   -3.7680    0.0000 H   0  0  0  0  0  0  0  0  0  0  0  0
    6.2898   -3.0326    0.0000 H   0  0  0  0  0  0  0  0  0  0  0  0
 11  1  1  1  0  0  0
  1 28  1  0  0  0  0
  2 13  1  0  0  0  0
  2 14  1  0  0  0  0
  3 13  2  0  0  0  0
  4  5  1  0  0  0  0
  4  6  1  0  0  0  0
  4 12  1  0  0  0  0
  5  7  1  0  0  0  0
  5  8  1  0  0  0  0
  5 15  1  0  0  0  0
  6  9  1  0  0  0  0
  6 10  1  0  0  0  0
  6 16  1  0  0  0  0
  7 11  1  0  0  0  0
  7 13  1  1  0  0  0
  7 17  1  0  0  0  0
  8  9  1  0  0  0  0
  8 18  1  0  0  0  0
  8 19  1  0  0  0  0
  9 20  1  0  0  0  0
  9 21  1  0  0  0  0
 10 11  1  0  0  0  0
 10 22  1  0  0  0  0
 10 23  1  0  0  0  0
 11 24  1  0  0  0  0
 12 25  1  0  0  0  0
 12 26  1  0  0  0  0
 12 27  1  0  0  0  0
 14 29  1  0  0  0  0
 14 30  1  0  0  0  0
 14 31  1  0  0  0  0
M  END
> <PUBCHEM_COMPOUND_CID>
443844

> <PUBCHEM_COMPOUND_CANONICALIZED>
1

> <PUBCHEM_CACTVS_COMPLEXITY>
244

> <PUBCHEM_CACTVS_HBOND_ACCEPTOR>
4

> <PUBCHEM_CACTVS_HBOND_DONOR>
1

> <PUBCHEM_CACTVS_ROTATABLE_BOND>
2

> <PUBCHEM_CACTVS_SUBSKEYS>
AAADceByMAAAAAAAAAAAAAAAAAAAAWAAAAAsAAAABgAAAAAAAAAAHgAACAAADTzhgAYCCAMABgAIAACQCAAAAAAAAAAAAAEIAAAAEB4AgAAEQAAHIACAAAGY2eOeAAAAAAAAAAAAAAAAAAAAAAAAAAAAAA==

> <PUBCHEM_IUPAC_OPENEYE_NAME>
methyl (3S,4R)-3-hydroxy-8-methyl-8-azabicyclo[3.2.1]octane-4-carboxylate

> <PUBCHEM_IUPAC_CAS_NAME>
(3S,4R)-3-hydroxy-8-methyl-8-azabicyclo[3.2.1]octane-4-carboxylic acid methyl ester

> <PUBCHEM_IUPAC_NAME>
methyl (3S,4R)-3-hydroxy-8-methyl-8-azabicyclo[3.2.1]octane-4-carboxylate

> <PUBCHEM_IUPAC_SYSTEMATIC_NAME>
methyl (3S,4R)-8-methyl-3-oxidanyl-8-azabicyclo[3.2.1]octane-4-carboxylate

> <PUBCHEM_IUPAC_TRADITIONAL_NAME>
(3S,4R)-3-hydroxy-8-methyl-8-azabicyclo[3.2.1]octane-4-carboxylic acid methyl ester

> <PUBCHEM_IUPAC_INCHI>
InChI=1S/C10H17NO3/c1-11-6-3-4-7(11)9(8(12)5-6)10(13)14-2/h6-9,12H,3-5H2,1-2H3/t6?,7?,8-,9+/m0/s1

> <PUBCHEM_IUPAC_INCHIKEY>
QIQNNBXHAYSQRY-ABIFROTESA-N

> <PUBCHEM_XLOGP3>
0.6

> <PUBCHEM_EXACT_MASS>
199.120843

> <PUBCHEM_MOLECULAR_FORMULA>
C10H17NO3

> <PUBCHEM_MOLECULAR_WEIGHT>
199.24688

> <PUBCHEM_OPENEYE_CAN_SMILES>
CN1C2CCC1C(C(C2)O)C(=O)OC

> <PUBCHEM_OPENEYE_ISO_SMILES>
CN1C2CCC1[C@H]([C@H](C2)O)C(=O)OC

> <PUBCHEM_CACTVS_TPSA>
49.8

> <PUBCHEM_MONOISOTOPIC_WEIGHT>
199.120843

> <PUBCHEM_TOTAL_CHARGE>
0

> <PUBCHEM_HEAVY_ATOM_COUNT>
14

> <PUBCHEM_ATOM_DEF_STEREO_COUNT>
2

> <PUBCHEM_ATOM_UDEF_STEREO_COUNT>
2

> <PUBCHEM_BOND_DEF_STEREO_COUNT>
0

> <PUBCHEM_BOND_UDEF_STEREO_COUNT>
0

> <PUBCHEM_ISOTOPIC_ATOM_COUNT>
0

> <PUBCHEM_COMPONENT_COUNT>
1

> <PUBCHEM_CACTVS_TAUTO_COUNT>
1

> <PUBCHEM_COORDINATE_TYPE>
1
5
255

> <PUBCHEM_BONDANNOTATIONS>
11  1  5
5  15  3
6  16  3
7  13  5

$$$$

