5478927
  -OEChem-07051213032D

 95 98  0     1  0  0  0  0  0999 V2000
    8.2619    1.4704    0.0000 Ca  0  2  0  0  0  0  0  0  0  0  0  0
    6.7619    5.8006    0.0000 O   0  0  0  0  0  0  0  0  0  0  0  0
    9.7619   -1.1276    0.0000 O   0  0  0  0  0  0  0  0  0  0  0  0
    7.7619    2.3365    0.0000 O   0  5  0  0  0  0  0  0  0  0  0  0
    9.2619    3.2025    0.0000 O   0  0  0  0  0  0  0  0  0  0  0  0
    7.7619    0.6044    0.0000 O   0  5  0  0  0  0  0  0  0  0  0  0
    9.2619   -0.2616    0.0000 O   0  0  0  0  0  0  0  0  0  0  0  0
    5.2619    4.9346    0.0000 N   0  0  0  0  0  0  0  0  0  0  0  0
    9.7619   -2.8597    0.0000 N   0  0  0  0  0  0  0  0  0  0  0  0
    3.7320    5.4346    0.0000 C   0  0  1  0  0  0  0  0  0  0  0  0
    3.7320    4.4346    0.0000 C   0  0  2  0  0  0  0  0  0  0  0  0
   10.9598   -3.9346    0.0000 C   0  0  1  0  0  0  0  0  0  0  0  0
   10.0938   -4.4346    0.0000 C   0  0  2  0  0  0  0  0  0  0  0  0
    4.6783    5.7393    0.0000 C   0  0  0  0  0  0  0  0  0  0  0  0
    4.6783    4.1298    0.0000 C   0  0  0  0  0  0  0  0  0  0  0  0
    2.8660    3.9346    0.0000 C   0  0  0  0  0  0  0  0  0  0  0  0
    2.8660    5.9346    0.0000 C   0  0  0  0  0  0  0  0  0  0  0  0
   10.7506   -2.9627    0.0000 C   0  0  0  0  0  0  0  0  0  0  0  0
    9.3568   -3.7675    0.0000 C   0  0  0  0  0  0  0  0  0  0  0  0
   10.0938   -5.4346    0.0000 C   0  0  0  0  0  0  0  0  0  0  0  0
   11.8258   -4.4346    0.0000 C   0  0  0  0  0  0  0  0  0  0  0  0
    2.0000    5.4346    0.0000 C   0  0  0  0  0  0  0  0  0  0  0  0
    2.0000    4.4346    0.0000 C   0  0  0  0  0  0  0  0  0  0  0  0
   11.8258   -5.4346    0.0000 C   0  0  0  0  0  0  0  0  0  0  0  0
   10.9598   -5.9346    0.0000 C   0  0  0  0  0  0  0  0  0  0  0  0
    6.2619    4.9346    0.0000 C   0  0  0  0  0  0  0  0  0  0  0  0
    9.2619   -1.9936    0.0000 C   0  0  0  0  0  0  0  0  0  0  0  0
    6.7619    4.0685    0.0000 C   0  0  0  0  0  0  0  0  0  0  0  0
    8.2619   -1.9936    0.0000 C   0  0  0  0  0  0  0  0  0  0  0  0
    7.7619    4.0685    0.0000 C   0  0  2  0  0  0  0  0  0  0  0  0
    7.7619   -1.1276    0.0000 C   0  0  2  0  0  0  0  0  0  0  0  0
    8.2619    4.9346    0.0000 C   0  0  0  0  0  0  0  0  0  0  0  0
    6.7619   -1.1276    0.0000 C   0  0  0  0  0  0  0  0  0  0  0  0
    8.2619    3.2025    0.0000 C   0  0  0  0  0  0  0  0  0  0  0  0
    8.2619   -0.2616    0.0000 C   0  0  0  0  0  0  0  0  0  0  0  0
    9.2619    4.9346    0.0000 C   0  0  0  0  0  0  0  0  0  0  0  0
    6.2619   -1.9936    0.0000 C   0  0  0  0  0  0  0  0  0  0  0  0
    9.7619    4.0685    0.0000 C   0  0  0  0  0  0  0  0  0  0  0  0
    9.7619    5.8006    0.0000 C   0  0  0  0  0  0  0  0  0  0  0  0
    5.2619   -1.9936    0.0000 C   0  0  0  0  0  0  0  0  0  0  0  0
    6.7619   -2.8597    0.0000 C   0  0  0  0  0  0  0  0  0  0  0  0
   10.7619    4.0685    0.0000 C   0  0  0  0  0  0  0  0  0  0  0  0
   10.7619    5.8006    0.0000 C   0  0  0  0  0  0  0  0  0  0  0  0
    4.7619   -2.8597    0.0000 C   0  0  0  0  0  0  0  0  0  0  0  0
    6.2619   -3.7257    0.0000 C   0  0  0  0  0  0  0  0  0  0  0  0
   11.2619    4.9346    0.0000 C   0  0  0  0  0  0  0  0  0  0  0  0
    5.2619   -3.7257    0.0000 C   0  0  0  0  0  0  0  0  0  0  0  0
    3.8220    3.5893    0.0000 H   0  0  0  0  0  0  0  0  0  0  0  0
    3.8220    6.2798    0.0000 H   0  0  0  0  0  0  0  0  0  0  0  0
    9.3168   -4.7793    0.0000 H   0  0  0  0  0  0  0  0  0  0  0  0
   11.6468   -3.4340    0.0000 H   0  0  0  0  0  0  0  0  0  0  0  0
    5.2156    6.0485    0.0000 H   0  0  0  0  0  0  0  0  0  0  0  0
    4.4272    6.3062    0.0000 H   0  0  0  0  0  0  0  0  0  0  0  0
    4.4272    3.5629    0.0000 H   0  0  0  0  0  0  0  0  0  0  0  0
    5.2156    3.8206    0.0000 H   0  0  0  0  0  0  0  0  0  0  0  0
    2.4675    3.4596    0.0000 H   0  0  0  0  0  0  0  0  0  0  0  0
    3.2646    3.4596    0.0000 H   0  0  0  0  0  0  0  0  0  0  0  0
    3.2646    6.4095    0.0000 H   0  0  0  0  0  0  0  0  0  0  0  0
    2.4675    6.4095    0.0000 H   0  0  0  0  0  0  0  0  0  0  0  0
   11.3671   -2.8967    0.0000 H   0  0  0  0  0  0  0  0  0  0  0  0
   10.7497   -2.3427    0.0000 H   0  0  0  0  0  0  0  0  0  0  0  0
    8.8203   -3.4567    0.0000 H   0  0  0  0  0  0  0  0  0  0  0  0
    8.9913   -4.2683    0.0000 H   0  0  0  0  0  0  0  0  0  0  0  0
    9.4832   -5.3269    0.0000 H   0  0  0  0  0  0  0  0  0  0  0  0
    9.8817   -6.0172    0.0000 H   0  0  0  0  0  0  0  0  0  0  0  0
   12.4364   -4.5422    0.0000 H   0  0  0  0  0  0  0  0  0  0  0  0
   12.0379   -3.8519    0.0000 H   0  0  0  0  0  0  0  0  0  0  0  0
    1.3894    4.5422    0.0000 H   0  0  0  0  0  0  0  0  0  0  0  0
    1.7880    3.8519    0.0000 H   0  0  0  0  0  0  0  0  0  0  0  0
    1.7880    6.0172    0.0000 H   0  0  0  0  0  0  0  0  0  0  0  0
    1.3894    5.3269    0.0000 H   0  0  0  0  0  0  0  0  0  0  0  0
   10.5613   -6.4095    0.0000 H   0  0  0  0  0  0  0  0  0  0  0  0
   11.3583   -6.4095    0.0000 H   0  0  0  0  0  0  0  0  0  0  0  0
   12.0379   -6.0172    0.0000 H   0  0  0  0  0  0  0  0  0  0  0  0
   12.4364   -5.3269    0.0000 H   0  0  0  0  0  0  0  0  0  0  0  0
    6.1793    3.8565    0.0000 H   0  0  0  0  0  0  0  0  0  0  0  0
    6.8695    3.4579    0.0000 H   0  0  0  0  0  0  0  0  0  0  0  0
    7.6793   -2.2057    0.0000 H   0  0  0  0  0  0  0  0  0  0  0  0
    8.3695   -2.6042    0.0000 H   0  0  0  0  0  0  0  0  0  0  0  0
    7.4519    3.5316    0.0000 H   0  0  0  0  0  0  0  0  0  0  0  0
    7.4519   -0.5907    0.0000 H   0  0  0  0  0  0  0  0  0  0  0  0
    8.3695    5.5451    0.0000 H   0  0  0  0  0  0  0  0  0  0  0  0
    7.6793    5.1466    0.0000 H   0  0  0  0  0  0  0  0  0  0  0  0
    6.8695   -0.5170    0.0000 H   0  0  0  0  0  0  0  0  0  0  0  0
    6.1793   -0.9156    0.0000 H   0  0  0  0  0  0  0  0  0  0  0  0
    9.4519    3.5316    0.0000 H   0  0  0  0  0  0  0  0  0  0  0  0
    9.4519    6.3375    0.0000 H   0  0  0  0  0  0  0  0  0  0  0  0
    4.9519   -1.4567    0.0000 H   0  0  0  0  0  0  0  0  0  0  0  0
    7.3819   -2.8597    0.0000 H   0  0  0  0  0  0  0  0  0  0  0  0
   11.0719    3.5316    0.0000 H   0  0  0  0  0  0  0  0  0  0  0  0
   11.0719    6.3375    0.0000 H   0  0  0  0  0  0  0  0  0  0  0  0
    4.1419   -2.8597    0.0000 H   0  0  0  0  0  0  0  0  0  0  0  0
    6.5719   -4.2626    0.0000 H   0  0  0  0  0  0  0  0  0  0  0  0
   11.8819    4.9346    0.0000 H   0  0  0  0  0  0  0  0  0  0  0  0
    4.9519   -4.2626    0.0000 H   0  0  0  0  0  0  0  0  0  0  0  0
  2 26  2  0  0  0  0
  3 27  2  0  0  0  0
  4 34  1  0  0  0  0
  5 34  2  0  0  0  0
  6 35  1  0  0  0  0
  7 35  2  0  0  0  0
  8 14  1  0  0  0  0
  8 15  1  0  0  0  0
  8 26  1  0  0  0  0
  9 18  1  0  0  0  0
  9 19  1  0  0  0  0
  9 27  1  0  0  0  0
 10 11  1  0  0  0  0
 10 14  1  0  0  0  0
 10 17  1  0  0  0  0
 10 49  1  1  0  0  0
 11 15  1  0  0  0  0
 11 16  1  0  0  0  0
 11 48  1  1  0  0  0
 12 13  1  0  0  0  0
 12 18  1  0  0  0  0
 12 21  1  0  0  0  0
 12 51  1  6  0  0  0
 13 19  1  0  0  0  0
 13 20  1  0  0  0  0
 13 50  1  6  0  0  0
 14 52  1  0  0  0  0
 14 53  1  0  0  0  0
 15 54  1  0  0  0  0
 15 55  1  0  0  0  0
 16 23  1  0  0  0  0
 16 56  1  0  0  0  0
 16 57  1  0  0  0  0
 17 22  1  0  0  0  0
 17 58  1  0  0  0  0
 17 59  1  0  0  0  0
 18 60  1  0  0  0  0
 18 61  1  0  0  0  0
 19 62  1  0  0  0  0
 19 63  1  0  0  0  0
 20 25  1  0  0  0  0
 20 64  1  0  0  0  0
 20 65  1  0  0  0  0
 21 24  1  0  0  0  0
 21 66  1  0  0  0  0
 21 67  1  0  0  0  0
 22 23  1  0  0  0  0
 22 70  1  0  0  0  0
 22 71  1  0  0  0  0
 23 68  1  0  0  0  0
 23 69  1  0  0  0  0
 24 25  1  0  0  0  0
 24 74  1  0  0  0  0
 24 75  1  0  0  0  0
 25 72  1  0  0  0  0
 25 73  1  0  0  0  0
 26 28  1  0  0  0  0
 27 29  1  0  0  0  0
 28 30  1  0  0  0  0
 28 76  1  0  0  0  0
 28 77  1  0  0  0  0
 29 31  1  0  0  0  0
 29 78  1  0  0  0  0
 29 79  1  0  0  0  0
 30 32  1  0  0  0  0
 30 34  1  6  0  0  0
 30 80  1  0  0  0  0
 31 33  1  0  0  0  0
 31 35  1  6  0  0  0
 31 81  1  0  0  0  0
 32 36  1  0  0  0  0
 32 82  1  0  0  0  0
 32 83  1  0  0  0  0
 33 37  1  0  0  0  0
 33 84  1  0  0  0  0
 33 85  1  0  0  0  0
 36 38  2  0  0  0  0
 36 39  1  0  0  0  0
 37 40  2  0  0  0  0
 37 41  1  0  0  0  0
 38 42  1  0  0  0  0
 38 86  1  0  0  0  0
 39 43  2  0  0  0  0
 39 87  1  0  0  0  0
 40 44  1  0  0  0  0
 40 88  1  0  0  0  0
 41 45  2  0  0  0  0
 41 89  1  0  0  0  0
 42 46  2  0  0  0  0
 42 90  1  0  0  0  0
 43 46  1  0  0  0  0
 43 91  1  0  0  0  0
 44 47  2  0  0  0  0
 44 92  1  0  0  0  0
 45 47  1  0  0  0  0
 45 93  1  0  0  0  0
 46 94  1  0  0  0  0
 47 95  1  0  0  0  0
M  CHG  3   1   2   4  -1   6  -1
M  END
> <PUBCHEM_COMPOUND_CID>
5478927

> <PUBCHEM_COMPOUND_CANONICALIZED>
1

> <PUBCHEM_CACTVS_COMPLEXITY>
411

> <PUBCHEM_CACTVS_HBOND_ACCEPTOR>
6

> <PUBCHEM_CACTVS_HBOND_DONOR>
0

> <PUBCHEM_CACTVS_ROTATABLE_BOND>
8

> <PUBCHEM_CACTVS_SUBSKEYS>
AAADcfB/OAAAAAgAAAAAAAAAAAAAAWLAAAAwYMGAAAAAAFgBQAAAHgAAAAAADQDBmAQwCIMAAACIAiHSGAACAAAgAAAIiAEIAIgIIDKAkRCEIAAkhgCIiAe/yOCOgAAAAAAAAAAAAAAAACAAAAAAAAAAAA==

> <PUBCHEM_IUPAC_OPENEYE_NAME>
calcium (2S)-4-[(3aS,7aR)-1,3,3a,4,5,6,7,7a-octahydroisoindol-2-yl]-2-benzyl-4-oxo-butanoate

> <PUBCHEM_IUPAC_CAS_NAME>
calcium (2S)-4-[(3aS,7aR)-1,3,3a,4,5,6,7,7a-octahydroisoindol-2-yl]-4-oxo-2-(phenylmethyl)butanoate

> <PUBCHEM_IUPAC_NAME>
calcium (2S)-4-[(3aS,7aR)-1,3,3a,4,5,6,7,7a-octahydroisoindol-2-yl]-2-benzyl-4-oxobutanoate

> <PUBCHEM_IUPAC_SYSTEMATIC_NAME>
calcium (2S)-4-[(3aS,7aR)-1,3,3a,4,5,6,7,7a-octahydroisoindol-2-yl]-4-oxidanylidene-2-(phenylmethyl)butanoate

> <PUBCHEM_IUPAC_TRADITIONAL_NAME>
calcium (2S)-4-[(3aS,7aR)-1,3,3a,4,5,6,7,7a-octahydroisoindol-2-yl]-2-benzyl-4-keto-butyrate

> <PUBCHEM_IUPAC_INCHI>
InChI=1S/2C19H25NO3.Ca/c2*21-18(20-12-15-8-4-5-9-16(15)13-20)11-17(19(22)23)10-14-6-2-1-3-7-14;/h2*1-3,6-7,15-17H,4-5,8-13H2,(H,22,23);/q;;+2/p-2/t2*15-,16+,17-;/m00./s1

> <PUBCHEM_IUPAC_INCHIKEY>
PMRVFZXOCRHXFE-FMEJWYFOSA-L

> <PUBCHEM_EXACT_MASS>
668.313828

> <PUBCHEM_MOLECULAR_FORMULA>
C38H48CaN2O6

> <PUBCHEM_MOLECULAR_WEIGHT>
668.87552

> <PUBCHEM_OPENEYE_CAN_SMILES>
C1CCC2CN(CC2C1)C(=O)CC(CC3=CC=CC=C3)C(=O)[O-].C1CCC2CN(CC2C1)C(=O)CC(CC3=CC=CC=C3)C(=O)[O-].[Ca+2]

> <PUBCHEM_OPENEYE_ISO_SMILES>
C1CC[C@H]2CN(C[C@H]2C1)C(=O)C[C@H](CC3=CC=CC=C3)C(=O)[O-].C1CC[C@H]2CN(C[C@H]2C1)C(=O)C[C@H](CC3=CC=CC=C3)C(=O)[O-].[Ca+2]

> <PUBCHEM_CACTVS_TPSA>
121

> <PUBCHEM_MONOISOTOPIC_WEIGHT>
668.313828

> <PUBCHEM_TOTAL_CHARGE>
0

> <PUBCHEM_HEAVY_ATOM_COUNT>
47

> <PUBCHEM_ATOM_DEF_STEREO_COUNT>
6

> <PUBCHEM_ATOM_UDEF_STEREO_COUNT>
0

> <PUBCHEM_BOND_DEF_STEREO_COUNT>
0

> <PUBCHEM_BOND_UDEF_STEREO_COUNT>
0

> <PUBCHEM_ISOTOPIC_ATOM_COUNT>
0

> <PUBCHEM_COMPONENT_COUNT>
3

> <PUBCHEM_CACTVS_TAUTO_COUNT>
1

> <PUBCHEM_COORDINATE_TYPE>
1
5
255

> <PUBCHEM_BONDANNOTATIONS>
10  49  5
11  48  5
12  51  6
13  50  6
30  34  6
31  35  6
36  38  8
36  39  8
37  40  8
37  41  8
38  42  8
39  43  8
40  44  8
41  45  8
42  46  8
43  46  8
44  47  8
45  47  8

$$$$

