5280865
  -OEChem-07051212502D

 79 82  0     1  0  0  0  0  0999 V2000
    3.4557    2.9115    0.0000 O   0  0  0  0  0  0  0  0  0  0  0  0
    7.8380    4.5681    0.0000 O   0  0  0  0  0  0  0  0  0  0  0  0
   13.3215   -1.5220    0.0000 O   0  0  0  0  0  0  0  0  0  0  0  0
    9.2392    3.5500    0.0000 O   0  0  0  0  0  0  0  0  0  0  0  0
   12.4555   -0.0220    0.0000 O   0  0  0  0  0  0  0  0  0  0  0  0
    5.1522   -5.0697    0.0000 O   0  0  0  0  0  0  0  0  0  0  0  0
    6.9759   -0.4158    0.0000 N   0  0  0  0  0  0  0  0  0  0  0  0
    8.2747   -1.8584    0.0000 N   0  0  0  0  0  0  0  0  0  0  0  0
    4.5772    1.5266    0.0000 N   0  0  0  0  0  0  0  0  0  0  0  0
    6.8735   -4.6085    0.0000 N   0  0  0  0  0  0  0  0  0  0  0  0
    7.4759    1.1230    0.0000 C   0  0  0  0  0  0  0  0  0  0  0  0
    7.7849    0.1719    0.0000 C   0  0  0  0  0  0  0  0  0  0  0  0
    6.4759    1.1230    0.0000 C   0  0  0  0  0  0  0  0  0  0  0  0
    6.1669    0.1719    0.0000 C   0  0  0  0  0  0  0  0  0  0  0  0
    8.9439   -1.1152    0.0000 C   0  0  0  0  0  0  0  0  0  0  0  0
    9.8574   -1.5220    0.0000 C   0  0  0  0  0  0  0  0  0  0  0  0
    8.0637    1.9320    0.0000 C   0  0  0  0  0  0  0  0  0  0  0  0
    8.7360   -0.1371    0.0000 C   0  0  0  0  0  0  0  0  0  0  0  0
    2.9945    1.1902    0.0000 C   0  0  2  0  0  0  0  0  0  0  0  0
    9.7529   -2.5165    0.0000 C   0  0  0  0  0  0  0  0  0  0  0  0
    4.4727    0.5321    0.0000 C   0  0  0  0  0  0  0  0  0  0  0  0
    3.4945    0.3241    0.0000 C   0  0  0  0  0  0  0  0  0  0  0  0
    5.2158   -0.1371    0.0000 C   0  0  0  0  0  0  0  0  0  0  0  0
    8.7747   -2.7244    0.0000 C   0  0  0  0  0  0  0  0  0  0  0  0
   10.7234   -1.0220    0.0000 C   0  0  0  0  0  0  0  0  0  0  0  0
    3.6636    1.9333    0.0000 C   0  0  0  0  0  0  0  0  0  0  0  0
    5.8881    1.9320    0.0000 C   0  0  0  0  0  0  0  0  0  0  0  0
    7.6569    2.8456    0.0000 C   0  0  0  0  0  0  0  0  0  0  0  0
    2.0000    1.2947    0.0000 C   0  0  0  0  0  0  0  0  0  0  0  0
   11.5895   -1.5220    0.0000 C   0  0  0  0  0  0  0  0  0  0  0  0
   10.4960   -3.1856    0.0000 C   0  0  0  0  0  0  0  0  0  0  0  0
    8.3680   -3.6379    0.0000 C   0  0  0  0  0  0  0  0  0  0  0  0
    3.0878   -0.5894    0.0000 C   0  0  0  0  0  0  0  0  0  0  0  0
    7.3735   -3.7425    0.0000 C   0  0  0  0  0  0  0  0  0  0  0  0
    8.2447    3.6546    0.0000 C   0  0  0  0  0  0  0  0  0  0  0  0
    3.6756   -1.3984    0.0000 C   0  0  0  0  0  0  0  0  0  0  0  0
    6.7044   -2.9993    0.0000 C   0  0  0  0  0  0  0  0  0  0  0  0
   12.4555   -1.0220    0.0000 C   0  0  0  0  0  0  0  0  0  0  0  0
    5.7908   -3.4061    0.0000 C   0  0  0  0  0  0  0  0  0  0  0  0
    5.8953   -4.4006    0.0000 C   0  0  0  0  0  0  0  0  0  0  0  0
    6.9123   -2.0212    0.0000 C   0  0  0  0  0  0  0  0  0  0  0  0
    4.9248   -2.9061    0.0000 C   0  0  0  0  0  0  0  0  0  0  0  0
    4.0588   -3.4061    0.0000 C   0  0  0  0  0  0  0  0  0  0  0  0
    6.9759   -1.0358    0.0000 H   0  0  0  0  0  0  0  0  0  0  0  0
    8.4944    1.4860    0.0000 H   0  0  0  0  0  0  0  0  0  0  0  0
    8.5777    2.2787    0.0000 H   0  0  0  0  0  0  0  0  0  0  0  0
    9.1967    0.2778    0.0000 H   0  0  0  0  0  0  0  0  0  0  0  0
    2.7723    1.7690    0.0000 H   0  0  0  0  0  0  0  0  0  0  0  0
    5.0869   -0.7435    0.0000 H   0  0  0  0  0  0  0  0  0  0  0  0
   11.1220   -0.5470    0.0000 H   0  0  0  0  0  0  0  0  0  0  0  0
   10.3249   -0.5470    0.0000 H   0  0  0  0  0  0  0  0  0  0  0  0
    7.6581   -1.7936    0.0000 H   0  0  0  0  0  0  0  0  0  0  0  0
    6.3897    2.2964    0.0000 H   0  0  0  0  0  0  0  0  0  0  0  0
    5.5237    2.4336    0.0000 H   0  0  0  0  0  0  0  0  0  0  0  0
    5.3865    1.5676    0.0000 H   0  0  0  0  0  0  0  0  0  0  0  0
    5.1141    1.8366    0.0000 H   0  0  0  0  0  0  0  0  0  0  0  0
    7.2262    3.2916    0.0000 H   0  0  0  0  0  0  0  0  0  0  0  0
    7.1429    2.4989    0.0000 H   0  0  0  0  0  0  0  0  0  0  0  0
    2.0648    1.9113    0.0000 H   0  0  0  0  0  0  0  0  0  0  0  0
    1.3834    1.3595    0.0000 H   0  0  0  0  0  0  0  0  0  0  0  0
    1.9352    0.6781    0.0000 H   0  0  0  0  0  0  0  0  0  0  0  0
   11.1909   -1.9969    0.0000 H   0  0  0  0  0  0  0  0  0  0  0  0
   11.9880   -1.9969    0.0000 H   0  0  0  0  0  0  0  0  0  0  0  0
   10.0812   -3.6464    0.0000 H   0  0  0  0  0  0  0  0  0  0  0  0
   10.9568   -3.6005    0.0000 H   0  0  0  0  0  0  0  0  0  0  0  0
   10.9109   -2.7249    0.0000 H   0  0  0  0  0  0  0  0  0  0  0  0
    8.7324   -4.1395    0.0000 H   0  0  0  0  0  0  0  0  0  0  0  0
    2.4712   -0.6542    0.0000 H   0  0  0  0  0  0  0  0  0  0  0  0
    3.1740   -1.7628    0.0000 H   0  0  0  0  0  0  0  0  0  0  0  0
    4.0400   -1.9000    0.0000 H   0  0  0  0  0  0  0  0  0  0  0  0
    4.1772   -1.0340    0.0000 H   0  0  0  0  0  0  0  0  0  0  0  0
    7.5187   -2.1501    0.0000 H   0  0  0  0  0  0  0  0  0  0  0  0
    7.0412   -1.4147    0.0000 H   0  0  0  0  0  0  0  0  0  0  0  0
    6.3058   -1.8923    0.0000 H   0  0  0  0  0  0  0  0  0  0  0  0
    8.2024    5.0697    0.0000 H   0  0  0  0  0  0  0  0  0  0  0  0
    4.9248   -2.2861    0.0000 H   0  0  0  0  0  0  0  0  0  0  0  0
   13.8585   -1.2120    0.0000 H   0  0  0  0  0  0  0  0  0  0  0  0
    3.5218   -3.0961    0.0000 H   0  0  0  0  0  0  0  0  0  0  0  0
    4.0588   -4.0261    0.0000 H   0  0  0  0  0  0  0  0  0  0  0  0
  1 26  2  0  0  0  0
  2 35  1  0  0  0  0
  2 75  1  0  0  0  0
  3 38  1  0  0  0  0
  3 77  1  0  0  0  0
  4 35  2  0  0  0  0
  5 38  2  0  0  0  0
  6 40  2  0  0  0  0
  7 12  1  0  0  0  0
  7 14  1  0  0  0  0
  7 44  1  0  0  0  0
  8 15  1  0  0  0  0
  8 24  1  0  0  0  0
  8 52  1  0  0  0  0
  9 21  1  0  0  0  0
  9 26  1  0  0  0  0
  9 56  1  0  0  0  0
 10 34  2  0  0  0  0
 10 40  1  0  0  0  0
 11 12  2  0  0  0  0
 11 13  1  0  0  0  0
 11 17  1  0  0  0  0
 12 18  1  0  0  0  0
 13 14  2  0  0  0  0
 13 27  1  0  0  0  0
 14 23  1  0  0  0  0
 15 16  1  0  0  0  0
 15 18  2  0  0  0  0
 16 20  2  0  0  0  0
 16 25  1  0  0  0  0
 17 28  1  0  0  0  0
 17 45  1  0  0  0  0
 17 46  1  0  0  0  0
 18 47  1  0  0  0  0
 19 22  1  0  0  0  0
 19 26  1  0  0  0  0
 19 29  1  1  0  0  0
 19 48  1  0  0  0  0
 20 24  1  0  0  0  0
 20 31  1  0  0  0  0
 21 22  1  0  0  0  0
 21 23  2  0  0  0  0
 22 33  2  0  0  0  0
 23 49  1  0  0  0  0
 24 32  2  0  0  0  0
 25 30  1  0  0  0  0
 25 50  1  0  0  0  0
 25 51  1  0  0  0  0
 27 53  1  0  0  0  0
 27 54  1  0  0  0  0
 27 55  1  0  0  0  0
 28 35  1  0  0  0  0
 28 57  1  0  0  0  0
 28 58  1  0  0  0  0
 29 59  1  0  0  0  0
 29 60  1  0  0  0  0
 29 61  1  0  0  0  0
 30 38  1  0  0  0  0
 30 62  1  0  0  0  0
 30 63  1  0  0  0  0
 31 64  1  0  0  0  0
 31 65  1  0  0  0  0
 31 66  1  0  0  0  0
 32 34  1  0  0  0  0
 32 67  1  0  0  0  0
 33 36  1  0  0  0  0
 33 68  1  0  0  0  0
 34 37  1  0  0  0  0
 36 69  1  0  0  0  0
 36 70  1  0  0  0  0
 36 71  1  0  0  0  0
 37 39  2  0  0  0  0
 37 41  1  0  0  0  0
 39 40  1  0  0  0  0
 39 42  1  0  0  0  0
 41 72  1  0  0  0  0
 41 73  1  0  0  0  0
 41 74  1  0  0  0  0
 42 43  2  0  0  0  0
 42 76  1  0  0  0  0
 43 78  1  0  0  0  0
 43 79  1  0  0  0  0
M  END
> <PUBCHEM_COMPOUND_CID>
5280865

> <PUBCHEM_COMPOUND_CANONICALIZED>
1

> <PUBCHEM_CACTVS_COMPLEXITY>
1490

> <PUBCHEM_CACTVS_HBOND_ACCEPTOR>
7

> <PUBCHEM_CACTVS_HBOND_DONOR>
5

> <PUBCHEM_CACTVS_ROTATABLE_BOND>
10

> <PUBCHEM_CACTVS_SUBSKEYS>
AAADcfB/uAAAAAAAAAAAAAAAAAAAAWLECAAAAAAAAAAAAAABgAAAHgAQCAAADQiBngACiJLJkgCoAyXyXACCgCAhAiAImSEwRNgIIHLAkZGEQAhklADIyQec2TOegAAAAAAAAAAAAAAAAAAAAAAAAAAAAA==

> <PUBCHEM_IUPAC_OPENEYE_NAME>
3-[(2Z,5Z)-2-[[3-(2-carboxyethyl)-5-[(Z)-[(3Z,4R)-3-ethylidene-4-methyl-5-oxo-pyrrolidin-2-ylidene]methyl]-4-methyl-1H-pyrrol-2-yl]methylene]-4-methyl-5-[(3-methyl-5-oxo-4-vinyl-pyrrol-2-yl)methylene]pyrrol-3-yl]propanoic acid

> <PUBCHEM_IUPAC_CAS_NAME>
3-[(2Z,5Z)-2-[[3-(2-carboxyethyl)-5-[(Z)-[(3Z,4R)-3-ethylidene-4-methyl-5-oxo-2-pyrrolidinylidene]methyl]-4-methyl-1H-pyrrol-2-yl]methylidene]-5-[(4-ethenyl-3-methyl-5-oxo-2-pyrrolyl)methylidene]-4-methyl-3-pyrrolyl]propanoic acid

> <PUBCHEM_IUPAC_NAME>
3-[(2Z,5Z)-2-[[3-(2-carboxyethyl)-5-[(Z)-[(3Z,4R)-3-ethylidene-4-methyl-5-oxopyrrolidin-2-ylidene]methyl]-4-methyl-1H-pyrrol-2-yl]methylidene]-5-[(4-ethenyl-3-methyl-5-oxopyrrol-2-yl)methylidene]-4-methylpyrrol-3-yl]propanoic acid

> <PUBCHEM_IUPAC_SYSTEMATIC_NAME>
3-[(2Z,5Z)-5-[(4-ethenyl-3-methyl-5-oxidanylidene-pyrrol-2-yl)methylidene]-2-[[5-[(Z)-[(3Z,4R)-3-ethylidene-4-methyl-5-oxidanylidene-pyrrolidin-2-ylidene]methyl]-3-(3-hydroxy-3-oxopropyl)-4-methyl-1H-pyrrol-2-yl]methylidene]-4-methyl-pyrrol-3-yl]propanoic acid

> <PUBCHEM_IUPAC_TRADITIONAL_NAME>
3-[(2Z,5Z)-2-[[3-(2-carboxyethyl)-5-[(Z)-[(3Z,4R)-3-ethylidene-5-keto-4-methyl-pyrrolidin-2-ylidene]methyl]-4-methyl-1H-pyrrol-2-yl]methylene]-5-[(5-keto-3-methyl-4-vinyl-pyrrol-2-yl)methylene]-4-methyl-3-pyrrolin-3-yl]propionic acid

> <PUBCHEM_IUPAC_INCHI>
InChI=1S/C33H36N4O6/c1-7-20-19(6)32(42)37-27(20)14-25-18(5)23(10-12-31(40)41)29(35-25)15-28-22(9-11-30(38)39)17(4)24(34-28)13-26-16(3)21(8-2)33(43)36-26/h7-8,13-15,19,34-35H,2,9-12H2,1,3-6H3,(H,37,42)(H,38,39)(H,40,41)/b20-7-,24-13-,27-14-,28-15-/t19-/m1/s1

> <PUBCHEM_IUPAC_INCHIKEY>
LXWZWRRIEITWMN-ZUTFDUMMSA-N

> <PUBCHEM_XLOGP3_AA>
2.4

> <PUBCHEM_EXACT_MASS>
584.263485

> <PUBCHEM_MOLECULAR_FORMULA>
C33H36N4O6

> <PUBCHEM_MOLECULAR_WEIGHT>
584.66214

> <PUBCHEM_OPENEYE_CAN_SMILES>
CC=C1C(C(=O)NC1=CC2=C(C(=C(N2)C=C3C(=C(C(=CC4=NC(=O)C(=C4C)C=C)N3)C)CCC(=O)O)CCC(=O)O)C)C

> <PUBCHEM_OPENEYE_ISO_SMILES>
C/C=C\1/[C@H](C(=O)N/C1=C\C2=C(C(=C(N2)/C=C\3/C(=C(/C(=C/C4=NC(=O)C(=C4C)C=C)/N3)C)CCC(=O)O)CCC(=O)O)C)C

> <PUBCHEM_CACTVS_TPSA>
161

> <PUBCHEM_MONOISOTOPIC_WEIGHT>
584.263485

> <PUBCHEM_TOTAL_CHARGE>
0

> <PUBCHEM_HEAVY_ATOM_COUNT>
43

> <PUBCHEM_ATOM_DEF_STEREO_COUNT>
1

> <PUBCHEM_ATOM_UDEF_STEREO_COUNT>
0

> <PUBCHEM_BOND_DEF_STEREO_COUNT>
4

> <PUBCHEM_BOND_UDEF_STEREO_COUNT>
0

> <PUBCHEM_ISOTOPIC_ATOM_COUNT>
0

> <PUBCHEM_COMPONENT_COUNT>
1

> <PUBCHEM_CACTVS_TAUTO_COUNT>
1001

> <PUBCHEM_COORDINATE_TYPE>
1
5
255

> <PUBCHEM_BONDANNOTATIONS>
11  12  8
11  13  8
13  14  8
15  16  8
16  20  8
19  29  5
20  24  8
7  12  8
7  14  8
8  15  8
8  24  8

$$$$

