656580
  -OEChem-07051213022D

 43 43  0     1  0  0  0  0  0999 V2000
    6.0010    4.0000    0.0000 Cl  0  0  0  0  0  0  0  0  0  0  0  0
    4.2690    4.0000    0.0000 Cl  0  0  0  0  0  0  0  0  0  0  0  0
    2.5369    1.0000    0.0000 O   0  0  0  0  0  0  0  0  0  0  0  0
    6.0010    1.0000    0.0000 O   0  0  0  0  0  0  0  0  0  0  0  0
    6.0010    2.0000    0.0000 O   0  0  0  0  0  0  0  0  0  0  0  0
    6.8671   -0.5000    0.0000 O   0  0  0  0  0  0  0  0  0  0  0  0
    2.5369   -4.0000    0.0000 O   0  5  0  0  0  0  0  0  0  0  0  0
    4.2690   -4.0000    0.0000 O   0  0  0  0  0  0  0  0  0  0  0  0
   10.3312    0.5000    0.0000 O   0  0  0  0  0  0  0  0  0  0  0  0
    9.4651    2.0000    0.0000 O   0  0  0  0  0  0  0  0  0  0  0  0
    4.2690    2.0000    0.0000 N   0  0  0  0  0  0  0  0  0  0  0  0
    3.4030   -3.5000    0.0000 N   0  3  0  0  0  0  0  0  0  0  0  0
    4.2690    1.0000    0.0000 C   0  0  1  0  0  0  0  0  0  0  0  0
    3.4030    0.5000    0.0000 C   0  0  1  0  0  0  0  0  0  0  0  0
    5.1350    0.5000    0.0000 C   0  0  0  0  0  0  0  0  0  0  0  0
    3.4030   -0.5000    0.0000 C   0  0  0  0  0  0  0  0  0  0  0  0
    2.5369   -1.0000    0.0000 C   0  0  0  0  0  0  0  0  0  0  0  0
    4.2690   -1.0000    0.0000 C   0  0  0  0  0  0  0  0  0  0  0  0
    5.1350    2.5000    0.0000 C   0  0  0  0  0  0  0  0  0  0  0  0
    2.5369   -2.0000    0.0000 C   0  0  0  0  0  0  0  0  0  0  0  0
    4.2690   -2.0000    0.0000 C   0  0  0  0  0  0  0  0  0  0  0  0
    3.4030   -2.5000    0.0000 C   0  0  0  0  0  0  0  0  0  0  0  0
    6.8671    0.5000    0.0000 C   0  0  0  0  0  0  0  0  0  0  0  0
    7.7331    1.0000    0.0000 C   0  0  0  0  0  0  0  0  0  0  0  0
    5.1350    3.5000    0.0000 C   0  0  0  0  0  0  0  0  0  0  0  0
    8.5991    0.5000    0.0000 C   0  0  0  0  0  0  0  0  0  0  0  0
    9.4651    1.0000    0.0000 C   0  0  0  0  0  0  0  0  0  0  0  0
    4.8059    1.3100    0.0000 H   0  0  0  0  0  0  0  0  0  0  0  0
    3.4030    1.1200    0.0000 H   0  0  0  0  0  0  0  0  0  0  0  0
    4.7365    0.0251    0.0000 H   0  0  0  0  0  0  0  0  0  0  0  0
    5.5335    0.0251    0.0000 H   0  0  0  0  0  0  0  0  0  0  0  0
    3.7320    2.3100    0.0000 H   0  0  0  0  0  0  0  0  0  0  0  0
    2.0000   -0.6900    0.0000 H   0  0  0  0  0  0  0  0  0  0  0  0
    4.8059   -0.6900    0.0000 H   0  0  0  0  0  0  0  0  0  0  0  0
    2.0000    0.6900    0.0000 H   0  0  0  0  0  0  0  0  0  0  0  0
    2.0000   -2.3100    0.0000 H   0  0  0  0  0  0  0  0  0  0  0  0
    4.8059   -2.3100    0.0000 H   0  0  0  0  0  0  0  0  0  0  0  0
    8.1316    1.4750    0.0000 H   0  0  0  0  0  0  0  0  0  0  0  0
    7.3346    1.4750    0.0000 H   0  0  0  0  0  0  0  0  0  0  0  0
    5.1350    4.1200    0.0000 H   0  0  0  0  0  0  0  0  0  0  0  0
    8.2006    0.0251    0.0000 H   0  0  0  0  0  0  0  0  0  0  0  0
    8.9976    0.0251    0.0000 H   0  0  0  0  0  0  0  0  0  0  0  0
   10.8681    0.8100    0.0000 H   0  0  0  0  0  0  0  0  0  0  0  0
  1 25  1  0  0  0  0
  2 25  1  0  0  0  0
 14  3  1  1  0  0  0
  3 35  1  0  0  0  0
  4 15  1  0  0  0  0
  4 23  1  0  0  0  0
  5 19  2  0  0  0  0
  6 23  2  0  0  0  0
  7 12  1  0  0  0  0
  8 12  2  0  0  0  0
  9 27  1  0  0  0  0
  9 43  1  0  0  0  0
 10 27  2  0  0  0  0
 13 11  1  6  0  0  0
 11 19  1  0  0  0  0
 11 32  1  0  0  0  0
 12 22  1  0  0  0  0
 13 14  1  0  0  0  0
 13 15  1  0  0  0  0
 13 28  1  0  0  0  0
 14 16  1  0  0  0  0
 14 29  1  0  0  0  0
 15 30  1  0  0  0  0
 15 31  1  0  0  0  0
 16 17  2  0  0  0  0
 16 18  1  0  0  0  0
 17 20  1  0  0  0  0
 17 33  1  0  0  0  0
 18 21  2  0  0  0  0
 18 34  1  0  0  0  0
 19 25  1  0  0  0  0
 20 22  2  0  0  0  0
 20 36  1  0  0  0  0
 21 22  1  0  0  0  0
 21 37  1  0  0  0  0
 23 24  1  0  0  0  0
 24 26  1  0  0  0  0
 24 38  1  0  0  0  0
 24 39  1  0  0  0  0
 25 40  1  0  0  0  0
 26 27  1  0  0  0  0
 26 41  1  0  0  0  0
 26 42  1  0  0  0  0
M  CHG  2   7  -1  12   1
M  END
> <PUBCHEM_COMPOUND_CID>
656580

> <PUBCHEM_COMPOUND_CANONICALIZED>
1

> <PUBCHEM_CACTVS_COMPLEXITY>
546

> <PUBCHEM_CACTVS_HBOND_ACCEPTOR>
8

> <PUBCHEM_CACTVS_HBOND_DONOR>
3

> <PUBCHEM_CACTVS_ROTATABLE_BOND>
10

> <PUBCHEM_CACTVS_SUBSKEYS>
AAADceBzPAAGAAAAAAAAAAAAAAAAAAAAAAAwAAAAAAAAAAABAAAAHgIUCAAADD/hmMYwyILQRgCJAiXSWwCCAAAgAgAoiIEIbIpKNjKAkZHHcABl1gGY2AfT0KEOCAAAAAAAAAAQAAAAAAAAAAAAAAAAAA==

> <PUBCHEM_IUPAC_OPENEYE_NAME>
4-[(2R,3R)-2-[(2,2-dichloroacetyl)amino]-3-hydroxy-3-(4-nitrophenyl)propoxy]-4-oxo-butanoic acid

> <PUBCHEM_IUPAC_CAS_NAME>
4-[(2R,3R)-2-[(2,2-dichloro-1-oxoethyl)amino]-3-hydroxy-3-(4-nitrophenyl)propoxy]-4-oxobutanoic acid

> <PUBCHEM_IUPAC_NAME>
4-[(2R,3R)-2-[(2,2-dichloroacetyl)amino]-3-hydroxy-3-(4-nitrophenyl)propoxy]-4-oxobutanoic acid

> <PUBCHEM_IUPAC_SYSTEMATIC_NAME>
4-[(2R,3R)-2-[2,2-bis(chloranyl)ethanoylamino]-3-(4-nitrophenyl)-3-oxidanyl-propoxy]-4-oxidanylidene-butanoic acid

> <PUBCHEM_IUPAC_TRADITIONAL_NAME>
4-[(2R,3R)-2-[(2,2-dichloroacetyl)amino]-3-hydroxy-3-(4-nitrophenyl)propoxy]-4-keto-butyric acid

> <PUBCHEM_IUPAC_INCHI>
InChI=1S/C15H16Cl2N2O8/c16-14(17)15(24)18-10(7-27-12(22)6-5-11(20)21)13(23)8-1-3-9(4-2-8)19(25)26/h1-4,10,13-14,23H,5-7H2,(H,18,24)(H,20,21)/t10-,13-/m1/s1

> <PUBCHEM_IUPAC_INCHIKEY>
LIRCDOVJWUGTMW-ZWNOBZJWSA-N

> <PUBCHEM_XLOGP3>
1.1

> <PUBCHEM_EXACT_MASS>
422.028371

> <PUBCHEM_MOLECULAR_FORMULA>
C15H16Cl2N2O8

> <PUBCHEM_MOLECULAR_WEIGHT>
423.20214

> <PUBCHEM_OPENEYE_CAN_SMILES>
C1=CC(=CC=C1C(C(COC(=O)CCC(=O)O)NC(=O)C(Cl)Cl)O)[N+](=O)[O-]

> <PUBCHEM_OPENEYE_ISO_SMILES>
C1=CC(=CC=C1[C@H]([C@@H](COC(=O)CCC(=O)O)NC(=O)C(Cl)Cl)O)[N+](=O)[O-]

> <PUBCHEM_CACTVS_TPSA>
159

> <PUBCHEM_MONOISOTOPIC_WEIGHT>
422.028371

> <PUBCHEM_TOTAL_CHARGE>
0

> <PUBCHEM_HEAVY_ATOM_COUNT>
27

> <PUBCHEM_ATOM_DEF_STEREO_COUNT>
2

> <PUBCHEM_ATOM_UDEF_STEREO_COUNT>
0

> <PUBCHEM_BOND_DEF_STEREO_COUNT>
0

> <PUBCHEM_BOND_UDEF_STEREO_COUNT>
0

> <PUBCHEM_ISOTOPIC_ATOM_COUNT>
0

> <PUBCHEM_COMPONENT_COUNT>
1

> <PUBCHEM_CACTVS_TAUTO_COUNT>
2

> <PUBCHEM_COORDINATE_TYPE>
1
5
255

> <PUBCHEM_BONDANNOTATIONS>
13  11  6
16  17  8
16  18  8
17  20  8
18  21  8
20  22  8
21  22  8
14  3  5

$$$$

