11953994
  -OEChem-07051213023D

 64 66  0     0  0  0  0  0  0999 V2000
    1.2152   -0.5790    1.3517 O   0  0  0  0  0  0  0  0  0  0  0  0
    2.0288   -3.0274   -0.8197 N   0  0  0  0  0  0  0  0  0  0  0  0
    3.5798    1.2351   -0.5884 N   0  0  0  0  0  0  0  0  0  0  0  0
    4.0303    4.1762   -0.9946 N   0  0  0  0  0  0  0  0  0  0  0  0
   -3.1159   -1.5824   -0.6106 C   0  0  0  0  0  0  0  0  0  0  0  0
   -2.6831   -3.0031   -0.2443 C   0  0  0  0  0  0  0  0  0  0  0  0
   -4.5260   -1.2804   -0.0986 C   0  0  0  0  0  0  0  0  0  0  0  0
   -1.2604   -3.2930   -0.7278 C   0  0  0  0  0  0  0  0  0  0  0  0
   -4.9414    0.1533   -0.4342 C   0  0  0  0  0  0  0  0  0  0  0  0
   -0.8166   -4.7045   -0.3313 C   0  0  0  0  0  0  0  0  0  0  0  0
   -6.3389    0.5187    0.0752 C   0  0  0  0  0  0  0  0  0  0  0  0
    0.5958   -5.0524   -0.8147 C   0  0  0  0  0  0  0  0  0  0  0  0
   -6.7765    1.9682   -0.1561 C   0  0  0  0  0  0  0  0  0  0  0  0
    1.6646   -4.1776   -0.2077 C   0  0  0  0  0  0  0  0  0  0  0  0
   -8.1994    2.2586    0.3219 C   0  0  0  0  0  0  0  0  0  0  0  0
    2.3831   -4.3503    0.9285 C   0  0  0  0  0  0  0  0  0  0  0  0
    3.0078   -2.4306   -0.0687 C   0  0  0  0  0  0  0  0  0  0  0  0
    3.2482   -3.2326    1.0250 C   0  0  0  0  0  0  0  0  0  0  0  0
   -8.5809    3.7105    0.0764 C   0  0  0  0  0  0  0  0  0  0  0  0
    3.5403   -1.2127   -0.5177 C   0  0  0  0  0  0  0  0  0  0  0  0
    3.0902    0.0183   -0.1735 C   0  0  0  0  0  0  0  0  0  0  0  0
    1.9847    0.3480    0.7138 C   0  0  0  0  0  0  0  0  0  0  0  0
    2.8799    2.2850   -0.0404 C   0  0  0  0  0  0  0  0  0  0  0  0
    1.8512    1.6846    0.7999 C   0  0  0  0  0  0  0  0  0  0  0  0
    3.0637    3.5980   -0.2048 C   0  0  0  0  0  0  0  0  0  0  0  0
    2.2870    4.6434    0.4119 C   0  0  0  0  0  0  0  0  0  0  0  0
    2.7381    5.8391    0.0319 C   0  0  0  0  0  0  0  0  0  0  0  0
    0.2148    0.0378    2.1491 C   0  0  0  0  0  0  0  0  0  0  0  0
    3.8357    5.4512   -0.8521 C   0  0  0  0  0  0  0  0  0  0  0  0
   -3.0841   -1.4567   -1.6996 H   0  0  0  0  0  0  0  0  0  0  0  0
   -2.4084   -0.8623   -0.1811 H   0  0  0  0  0  0  0  0  0  0  0  0
   -3.3781   -3.7260   -0.6884 H   0  0  0  0  0  0  0  0  0  0  0  0
   -2.7332   -3.1320    0.8439 H   0  0  0  0  0  0  0  0  0  0  0  0
   -4.5624   -1.4257    0.9878 H   0  0  0  0  0  0  0  0  0  0  0  0
   -5.2401   -1.9836   -0.5437 H   0  0  0  0  0  0  0  0  0  0  0  0
   -1.2088   -3.1812   -1.8174 H   0  0  0  0  0  0  0  0  0  0  0  0
   -0.5910   -2.5457   -0.2889 H   0  0  0  0  0  0  0  0  0  0  0  0
   -4.2140    0.8501    0.0005 H   0  0  0  0  0  0  0  0  0  0  0  0
   -4.9084    0.2992   -1.5209 H   0  0  0  0  0  0  0  0  0  0  0  0
   -0.8661   -4.8081    0.7600 H   0  0  0  0  0  0  0  0  0  0  0  0
   -1.5180   -5.4352   -0.7525 H   0  0  0  0  0  0  0  0  0  0  0  0
   -6.3865    0.3106    1.1517 H   0  0  0  0  0  0  0  0  0  0  0  0
   -7.0677   -0.1502   -0.4002 H   0  0  0  0  0  0  0  0  0  0  0  0
    0.6401   -4.9868   -1.9092 H   0  0  0  0  0  0  0  0  0  0  0  0
    0.8100   -6.0976   -0.5583 H   0  0  0  0  0  0  0  0  0  0  0  0
   -6.7020    2.1945   -1.2270 H   0  0  0  0  0  0  0  0  0  0  0  0
   -6.0750    2.6373    0.3573 H   0  0  0  0  0  0  0  0  0  0  0  0
   -8.9073    1.6050   -0.2007 H   0  0  0  0  0  0  0  0  0  0  0  0
   -8.2831    2.0387    1.3924 H   0  0  0  0  0  0  0  0  0  0  0  0
    1.6455   -2.6665   -1.6838 H   0  0  0  0  0  0  0  0  0  0  0  0
    2.3093   -5.1760    1.6222 H   0  0  0  0  0  0  0  0  0  0  0  0
    3.9666   -3.0369    1.8095 H   0  0  0  0  0  0  0  0  0  0  0  0
   -8.5361    3.9531   -0.9901 H   0  0  0  0  0  0  0  0  0  0  0  0
   -7.9091    4.3887    0.6122 H   0  0  0  0  0  0  0  0  0  0  0  0
   -9.6014    3.8979    0.4249 H   0  0  0  0  0  0  0  0  0  0  0  0
    4.3852   -1.2736   -1.2007 H   0  0  0  0  0  0  0  0  0  0  0  0
    4.3598    1.3455   -1.2181 H   0  0  0  0  0  0  0  0  0  0  0  0
    1.1335    2.2501    1.3708 H   0  0  0  0  0  0  0  0  0  0  0  0
    1.4572    4.4995    1.0858 H   0  0  0  0  0  0  0  0  0  0  0  0
    2.4068    6.8268    0.2884 H   0  0  0  0  0  0  0  0  0  0  0  0
    0.6464    0.6367    2.9593 H   0  0  0  0  0  0  0  0  0  0  0  0
   -0.4953    0.6134    1.5439 H   0  0  0  0  0  0  0  0  0  0  0  0
   -0.3591   -0.7656    2.6237 H   0  0  0  0  0  0  0  0  0  0  0  0
    4.4328    6.2313   -1.3452 H   0  0  0  0  0  0  0  0  0  0  0  0
  1 22  1  0  0  0  0
  1 28  1  0  0  0  0
  2 14  1  0  0  0  0
  2 17  1  0  0  0  0
  2 50  1  0  0  0  0
  3 21  1  0  0  0  0
  3 23  1  0  0  0  0
  3 57  1  0  0  0  0
  4 25  1  0  0  0  0
  4 29  2  0  0  0  0
  5  6  1  0  0  0  0
  5  7  1  0  0  0  0
  5 30  1  0  0  0  0
  5 31  1  0  0  0  0
  6  8  1  0  0  0  0
  6 32  1  0  0  0  0
  6 33  1  0  0  0  0
  7  9  1  0  0  0  0
  7 34  1  0  0  0  0
  7 35  1  0  0  0  0
  8 10  1  0  0  0  0
  8 36  1  0  0  0  0
  8 37  1  0  0  0  0
  9 11  1  0  0  0  0
  9 38  1  0  0  0  0
  9 39  1  0  0  0  0
 10 12  1  0  0  0  0
 10 40  1  0  0  0  0
 10 41  1  0  0  0  0
 11 13  1  0  0  0  0
 11 42  1  0  0  0  0
 11 43  1  0  0  0  0
 12 14  1  0  0  0  0
 12 44  1  0  0  0  0
 12 45  1  0  0  0  0
 13 15  1  0  0  0  0
 13 46  1  0  0  0  0
 13 47  1  0  0  0  0
 14 16  2  0  0  0  0
 15 19  1  0  0  0  0
 15 48  1  0  0  0  0
 15 49  1  0  0  0  0
 16 18  1  0  0  0  0
 16 51  1  0  0  0  0
 17 18  2  0  0  0  0
 17 20  1  0  0  0  0
 18 52  1  0  0  0  0
 19 53  1  0  0  0  0
 19 54  1  0  0  0  0
 19 55  1  0  0  0  0
 20 21  2  0  0  0  0
 20 56  1  0  0  0  0
 21 22  1  0  0  0  0
 22 24  2  0  0  0  0
 23 24  1  0  0  0  0
 23 25  2  0  0  0  0
 24 58  1  0  0  0  0
 25 26  1  0  0  0  0
 26 27  2  0  0  0  0
 26 59  1  0  0  0  0
 27 29  1  0  0  0  0
 27 60  1  0  0  0  0
 28 61  1  0  0  0  0
 28 62  1  0  0  0  0
 28 63  1  0  0  0  0
 29 64  1  0  0  0  0
M  END
> <PUBCHEM_COMPOUND_CID>
11953994

> <PUBCHEM_CONFORMER_RMSD>
1.2

> <PUBCHEM_CONFORMER_DIVERSEORDER>
1
42
7
23
180
81
29
182
204
40
160
209
73
173
80
78
58
16
149
165
167
137
12
25
15
96
94
221
68
84
162
116
132
72
82
19
150
11
51
163
43
187
198
138
114
34
213
36
4
134
194
159
222
97
126
146
176
41
8
144
24
69
157
188
85
174
115
33
118
142
59
148
139
121
175
117
64
217
164
32
153
128
27
183
119
151
38
111
61
172
74
203
122
10
205
179
26
200
147
52
145
191
186
90
158
143
55
141
166
170
45
17
5
193
95
211
77
57
75
171
177
65
214
154
212
91
20
189
66
101
208
129
201
22
56
161
100
2
127
169
156
130
47
131
181
98
135
37
105
21
218
53
6
107
102
108
44
207
168
14
178
103
125
109
92
46
110
112
93
136
106
67
133
76
202
123
70
99
215
79
3
206
62
124
18
104
199
216
35
49
54
88
185
28
9
13
120
87
113
192
48
155
83
60
63
210
184
30
219
196
86
197
195
89
220
190
140
71
31
50
152
39

> <PUBCHEM_MMFF94_PARTIAL_CHARGES>
28
1 -0.36
12 0.18
14 -0.33
16 -0.15
17 -0.2
18 -0.15
2 0.03
20 -0.11
21 0.1
22 0.08
23 0.1
24 -0.15
25 0.17
26 -0.15
27 -0.14
28 0.28
29 0.38
3 -0.6
4 -0.62
50 0.27
51 0.15
52 0.15
56 0.15
57 0.4
58 0.15
59 0.15
60 0.15
64 0.06

> <PUBCHEM_EFFECTIVE_ROTOR_COUNT>
12

> <PUBCHEM_PHARMACOPHORE_FEATURES>
10
1 1 acceptor
1 19 hydrophobe
1 2 cation
1 2 donor
1 3 cation
1 3 donor
1 4 acceptor
5 2 14 16 17 18 rings
5 3 21 22 23 24 rings
5 4 25 26 27 29 rings

> <PUBCHEM_HEAVY_ATOM_COUNT>
29

> <PUBCHEM_ATOM_DEF_STEREO_COUNT>
0

> <PUBCHEM_ATOM_UDEF_STEREO_COUNT>
0

> <PUBCHEM_BOND_DEF_STEREO_COUNT>
2

> <PUBCHEM_BOND_UDEF_STEREO_COUNT>
0

> <PUBCHEM_ISOTOPIC_ATOM_COUNT>
0

> <PUBCHEM_COMPONENT_COUNT>
1

> <PUBCHEM_CACTVS_TAUTO_COUNT>
3

> <PUBCHEM_CONFORMER_ID>
00B6674A00000001

> <PUBCHEM_MMFF94_ENERGY>
59.2888

> <PUBCHEM_FEATURE_SELFOVERLAP>
50.743

> <PUBCHEM_SHAPE_FINGERPRINT>
10675989 125 18409730694430425633
10816530 23 18268150851461588273
10937287 8 18194969526001003030
10951579 204 17259891933119872028
11059845 2 17759836679092386048
11479125 193 18338790101628114265
11761917 142 17398960375197324024
12202916 173 13588322062927233707
13944108 23 18337948008110966421
14251764 75 18192703454501356763
14790565 3 18050849918519506236
151778 21 18410297990965064575
15264996 151 17765149862964528627
15320295 198 18126282189676352445
15400415 2 18266459807069098189
15439362 3 18265892459195376548
155225 5 17473827221222049573
15569901 51 17760926647488069393
15773879 134 18410300220870581205
16067689 134 18269275669680561972
16087824 20 18265895942245080958
16990350 14 18267590104573357424
17899979 129 18340762667805747717
20580484 21 18194118758623363693
21057603 30 18053626327536075852
23569914 152 17826758549022381356
23569943 247 15471203196175933168
3103668 31 17183617135698615190
4487111 67 17833270814052920305
4760202 170 17835254707625942397
5283173 99 17183619898142638632
53794403 172 18410012126753239263
5951187 136 18260820523213906487

> <PUBCHEM_SHAPE_MULTIPOLES>
575.99
15.61
10.5
1.1
54.99
5.63
-0.39
20.48
0.51
-11.66
1.98
-0.61
-0.18
-2

> <PUBCHEM_SHAPE_SELFOVERLAP>
1197.932

> <PUBCHEM_SHAPE_VOLUME>
330.6

> <PUBCHEM_COORDINATE_TYPE>
2
5
10

$$$$

