17395778
  -OEChem-06241222523D

 47 49  0     1  0  0  0  0  0999 V2000
    4.2630    3.5884    1.1310 Cl  0  0  0  0  0  0  0  0  0  0  0  0
   -4.6958    0.6080   -0.2097 O   0  0  0  0  0  0  0  0  0  0  0  0
   -0.0107   -4.1883    0.9551 O   0  0  0  0  0  0  0  0  0  0  0  0
   -2.7370    1.8079   -0.3031 N   0  0  0  0  0  0  0  0  0  0  0  0
   -2.9359   -1.2127    1.4980 N   0  0  0  0  0  0  0  0  0  0  0  0
    1.2422   -1.9044   -1.2334 N   0  0  1  0  0  0  0  0  0  0  0  0
   -2.2553    4.0295   -0.9283 C   0  0  0  0  0  0  0  0  0  0  0  0
   -1.0979    3.4899   -0.0982 C   0  0  0  0  0  0  0  0  0  0  0  0
   -3.3910    3.0800   -0.5797 C   0  0  0  0  0  0  0  0  0  0  0  0
   -1.2892    1.9825   -0.1929 C   0  0  0  0  0  0  0  0  0  0  0  0
   -3.4699    0.6407   -0.0872 C   0  0  0  0  0  0  0  0  0  0  0  0
   -2.7223   -0.5451    0.3203 C   0  0  0  0  0  0  0  0  0  0  0  0
   -1.7122   -1.1937   -0.3552 C   0  0  0  0  0  0  0  0  0  0  0  0
   -1.3042   -2.2897    0.4444 C   0  0  0  0  0  0  0  0  0  0  0  0
    0.5209   -3.1692   -1.1518 C   0  0  0  0  0  0  0  0  0  0  0  0
   -2.0775   -2.2775    1.5843 C   0  0  0  0  0  0  0  0  0  0  0  0
   -0.2835   -3.2565    0.1623 C   0  0  0  0  0  0  0  0  0  0  0  0
    2.4394   -1.9387   -0.3917 C   0  0  0  0  0  0  0  0  0  0  0  0
    2.8966   -0.5559   -0.0101 C   0  0  0  0  0  0  0  0  0  0  0  0
    1.6046   -1.6066   -2.6200 C   0  0  0  0  0  0  0  0  0  0  0  0
    3.8020    0.1282   -0.8213 C   0  0  0  0  0  0  0  0  0  0  0  0
    2.4132    0.0420    1.1538 C   0  0  0  0  0  0  0  0  0  0  0  0
    4.2242    1.4099   -0.4685 C   0  0  0  0  0  0  0  0  0  0  0  0
    2.8354    1.3237    1.5065 C   0  0  0  0  0  0  0  0  0  0  0  0
    3.7408    2.0077    0.6955 C   0  0  0  0  0  0  0  0  0  0  0  0
   -2.0139    3.9522   -1.9954 H   0  0  0  0  0  0  0  0  0  0  0  0
   -2.4938    5.0726   -0.7044 H   0  0  0  0  0  0  0  0  0  0  0  0
   -1.2031    3.8181    0.9429 H   0  0  0  0  0  0  0  0  0  0  0  0
   -0.1197    3.8137   -0.4640 H   0  0  0  0  0  0  0  0  0  0  0  0
   -4.1228    2.9718   -1.3857 H   0  0  0  0  0  0  0  0  0  0  0  0
   -3.9129    3.3931    0.3315 H   0  0  0  0  0  0  0  0  0  0  0  0
   -0.8863    1.4571    0.6773 H   0  0  0  0  0  0  0  0  0  0  0  0
   -0.8323    1.5832   -1.1046 H   0  0  0  0  0  0  0  0  0  0  0  0
   -1.3344   -0.9062   -1.3267 H   0  0  0  0  0  0  0  0  0  0  0  0
   -3.6207   -0.9600    2.1973 H   0  0  0  0  0  0  0  0  0  0  0  0
    1.1900   -4.0354   -1.2307 H   0  0  0  0  0  0  0  0  0  0  0  0
   -0.2168   -3.2668   -1.9593 H   0  0  0  0  0  0  0  0  0  0  0  0
   -2.0981   -2.9260    2.4494 H   0  0  0  0  0  0  0  0  0  0  0  0
    3.2594   -2.4965   -0.8655 H   0  0  0  0  0  0  0  0  0  0  0  0
    2.2453   -2.4768    0.5463 H   0  0  0  0  0  0  0  0  0  0  0  0
    2.0134   -0.5980   -2.7263 H   0  0  0  0  0  0  0  0  0  0  0  0
    2.3227   -2.3271   -3.0283 H   0  0  0  0  0  0  0  0  0  0  0  0
    0.7130   -1.6236   -3.2583 H   0  0  0  0  0  0  0  0  0  0  0  0
    4.1979   -0.3285   -1.7244 H   0  0  0  0  0  0  0  0  0  0  0  0
    1.7040   -0.4782    1.7922 H   0  0  0  0  0  0  0  0  0  0  0  0
    4.9324    1.9299   -1.1086 H   0  0  0  0  0  0  0  0  0  0  0  0
    2.4490    1.7777    2.4155 H   0  0  0  0  0  0  0  0  0  0  0  0
  1 25  1  0  0  0  0
  2 11  2  0  0  0  0
  3 17  2  0  0  0  0
  4  9  1  0  0  0  0
  4 10  1  0  0  0  0
  4 11  1  0  0  0  0
  5 12  1  0  0  0  0
  5 16  1  0  0  0  0
  5 35  1  0  0  0  0
  6 15  1  0  0  0  0
  6 18  1  0  0  0  0
  6 20  1  0  0  0  0
  7  8  1  0  0  0  0
  7  9  1  0  0  0  0
  7 26  1  0  0  0  0
  7 27  1  0  0  0  0
  8 10  1  0  0  0  0
  8 28  1  0  0  0  0
  8 29  1  0  0  0  0
  9 30  1  0  0  0  0
  9 31  1  0  0  0  0
 10 32  1  0  0  0  0
 10 33  1  0  0  0  0
 11 12  1  0  0  0  0
 12 13  2  0  0  0  0
 13 14  1  0  0  0  0
 13 34  1  0  0  0  0
 14 16  2  0  0  0  0
 14 17  1  0  0  0  0
 15 17  1  0  0  0  0
 15 36  1  0  0  0  0
 15 37  1  0  0  0  0
 16 38  1  0  0  0  0
 18 19  1  0  0  0  0
 18 39  1  0  0  0  0
 18 40  1  0  0  0  0
 19 21  2  0  0  0  0
 19 22  1  0  0  0  0
 20 41  1  0  0  0  0
 20 42  1  0  0  0  0
 20 43  1  0  0  0  0
 21 23  1  0  0  0  0
 21 44  1  0  0  0  0
 22 24  2  0  0  0  0
 22 45  1  0  0  0  0
 23 25  2  0  0  0  0
 23 46  1  0  0  0  0
 24 25  1  0  0  0  0
 24 47  1  0  0  0  0
M  END
> <PUBCHEM_COMPOUND_CID>
17395778

> <PUBCHEM_CONFORMER_RMSD>
1.2

> <PUBCHEM_CONFORMER_DIVERSEORDER>
1
16
6
5
33
81
49
41
39
63
75
66
67
72
30
25
32
15
69
74
71
52
21
18
85
35
42
17
13
26
55
77
27
40
19
44
38
36
7
53
64
82
83
57
59
80
61
22
11
73
10
68
54
51
58
62
24
65
60
4
43
78
3
45
56
14
20
29
23
48
12
9
28
8
2
46
34
84
31
47
76
50
79
37
70

> <PUBCHEM_MMFF94_PARTIAL_CHARGES>
30
1 -0.18
10 0.3
11 0.71
12 -0.24
13 -0.15
14 -0.09
15 0.33
16 -0.3
17 0.6
18 0.41
19 -0.14
2 -0.57
20 0.27
21 -0.15
22 -0.15
23 -0.15
24 -0.15
25 0.18
3 -0.57
34 0.15
35 0.27
38 0.15
4 -0.66
44 0.15
45 0.15
46 0.15
47 0.15
5 0.03
6 -0.81
9 0.3

> <PUBCHEM_EFFECTIVE_ROTOR_COUNT>
8

> <PUBCHEM_PHARMACOPHORE_FEATURES>
8
1 2 acceptor
1 3 acceptor
1 5 cation
1 5 donor
1 6 cation
5 4 7 8 9 10 rings
5 5 12 13 14 16 rings
6 19 21 22 23 24 25 rings

> <PUBCHEM_HEAVY_ATOM_COUNT>
25

> <PUBCHEM_ATOM_DEF_STEREO_COUNT>
0

> <PUBCHEM_ATOM_UDEF_STEREO_COUNT>
0

> <PUBCHEM_BOND_DEF_STEREO_COUNT>
0

> <PUBCHEM_BOND_UDEF_STEREO_COUNT>
0

> <PUBCHEM_ISOTOPIC_ATOM_COUNT>
0

> <PUBCHEM_COMPONENT_COUNT>
1

> <PUBCHEM_CACTVS_TAUTO_COUNT>
7

> <PUBCHEM_CONFORMER_ID>
0109704200000001

> <PUBCHEM_MMFF94_ENERGY>
56.4279

> <PUBCHEM_FEATURE_SELFOVERLAP>
40.594

> <PUBCHEM_SHAPE_FINGERPRINT>
10087517 78 17254289925808210288
10498660 4 18339084782832726054
10871710 139 17830464877416176638
11014199 57 16895116817142021882
11221954 11 18336829800464163862
11370993 70 18339647844587536292
12100795 323 18117561713004286432
12156800 1 14145280365065574264
12553582 1 17908974414175634189
13122387 1 17762334021558583020
13402501 40 18408038502800950489
1361 2 18189632540163176517
14114207 22 5527956126721512450
14466204 15 18123477347860857154
14468879 13 18413950581376698843
14931854 50 17257085398843434869
17974551 9 17917153909214511970
20398071 114 18196654214127608501
21049683 118 16770974713436944905
21860390 5 17614579454163026046
23536364 44 17611994438619092294
23559900 14 18120945171959460245
238 59 18042417987200099076
3187 122 18059003987377942465
469060 322 17545601150293253098
54672768 99 18267865171659315940
6287921 2 16819952003133398520
84936 182 17837486719585952983
9862522 239 17825401687011350762
9981440 41 18271247226308059355

> <PUBCHEM_SHAPE_MULTIPOLES>
489.68
7.92
5.75
1.55
3.24
1.36
-0.34
6.61
1.09
-1.73
-0.37
0.62
-0.75
2.8

> <PUBCHEM_SHAPE_SELFOVERLAP>
1031.377

> <PUBCHEM_SHAPE_VOLUME>
278.9

> <PUBCHEM_COORDINATE_TYPE>
2
5
10

$$$$

