8458
  -OEChem-06261202512D

 21 21  0     0  0  0  0  0  0999 V2000
    3.7320    1.3450    0.0000 S   0  0  0  0  0  0  0  0  0  0  0  0
    3.7320    2.3450    0.0000 O   0  0  0  0  0  0  0  0  0  0  0  0
    4.7320    1.3450    0.0000 O   0  0  0  0  0  0  0  0  0  0  0  0
    2.7320    1.3450    0.0000 O   0  0  0  0  0  0  0  0  0  0  0  0
    5.4641   -2.6550    0.0000 O   0  5  0  0  0  0  0  0  0  0  0  0
    6.3301   -1.1550    0.0000 O   0  0  0  0  0  0  0  0  0  0  0  0
    5.4641   -1.6550    0.0000 N   0  3  0  0  0  0  0  0  0  0  0  0
    3.7320    0.3450    0.0000 C   0  0  0  0  0  0  0  0  0  0  0  0
    2.8660   -0.1550    0.0000 C   0  0  0  0  0  0  0  0  0  0  0  0
    4.5981   -0.1550    0.0000 C   0  0  0  0  0  0  0  0  0  0  0  0
    2.8660   -1.1550    0.0000 C   0  0  0  0  0  0  0  0  0  0  0  0
    4.5981   -1.1550    0.0000 C   0  0  0  0  0  0  0  0  0  0  0  0
    3.7320   -1.6550    0.0000 C   0  0  0  0  0  0  0  0  0  0  0  0
    2.0000    0.3450    0.0000 C   0  0  0  0  0  0  0  0  0  0  0  0
    5.1350    0.1550    0.0000 H   0  0  0  0  0  0  0  0  0  0  0  0
    2.3291   -1.4650    0.0000 H   0  0  0  0  0  0  0  0  0  0  0  0
    3.7320   -2.2750    0.0000 H   0  0  0  0  0  0  0  0  0  0  0  0
    2.3100    0.8819    0.0000 H   0  0  0  0  0  0  0  0  0  0  0  0
    1.4631    0.6550    0.0000 H   0  0  0  0  0  0  0  0  0  0  0  0
    1.6900   -0.1919    0.0000 H   0  0  0  0  0  0  0  0  0  0  0  0
    4.2690    2.6550    0.0000 H   0  0  0  0  0  0  0  0  0  0  0  0
  1  2  1  0  0  0  0
  1  3  2  0  0  0  0
  1  4  2  0  0  0  0
  1  8  1  0  0  0  0
  2 21  1  0  0  0  0
  5  7  1  0  0  0  0
  6  7  2  0  0  0  0
  7 12  1  0  0  0  0
  8  9  2  0  0  0  0
  8 10  1  0  0  0  0
  9 11  1  0  0  0  0
  9 14  1  0  0  0  0
 10 12  2  0  0  0  0
 10 15  1  0  0  0  0
 11 13  2  0  0  0  0
 11 16  1  0  0  0  0
 12 13  1  0  0  0  0
 13 17  1  0  0  0  0
 14 18  1  0  0  0  0
 14 19  1  0  0  0  0
 14 20  1  0  0  0  0
M  CHG  2   5  -1   7   1
M  END
> <PUBCHEM_COMPOUND_CID>
8458

> <PUBCHEM_COMPOUND_CANONICALIZED>
1

> <PUBCHEM_CACTVS_COMPLEXITY>
314

> <PUBCHEM_CACTVS_HBOND_ACCEPTOR>
5

> <PUBCHEM_CACTVS_HBOND_DONOR>
1

> <PUBCHEM_CACTVS_ROTATABLE_BOND>
1

> <PUBCHEM_CACTVS_SUBSKEYS>
AAADcYBiOABAAAAAAAAAAAAAAAAAAAAAAAAwAAAAAAAAAAABAAAAHAQECAAADAiBWAAywYAQQIKBAiRCQ3DCAEAgAgAoiBgAZIoIICKAkZGAIARggAAIyAcQgAAOCAAAACAEAAAQAAAAQAgAAAAAAAAAAA==

> <PUBCHEM_IUPAC_OPENEYE_NAME>
2-methyl-5-nitro-benzenesulfonic acid

> <PUBCHEM_IUPAC_CAS_NAME>
2-methyl-5-nitrobenzenesulfonic acid

> <PUBCHEM_IUPAC_NAME>
2-methyl-5-nitrobenzenesulfonic acid

> <PUBCHEM_IUPAC_SYSTEMATIC_NAME>
2-methyl-5-nitro-benzenesulfonic acid

> <PUBCHEM_IUPAC_TRADITIONAL_NAME>
2-methyl-5-nitro-besylic acid

> <PUBCHEM_IUPAC_INCHI>
InChI=1S/C7H7NO5S/c1-5-2-3-6(8(9)10)4-7(5)14(11,12)13/h2-4H,1H3,(H,11,12,13)

> <PUBCHEM_IUPAC_INCHIKEY>
ZDTXQHVBLWYPHS-UHFFFAOYSA-N

> <PUBCHEM_XLOGP3_AA>
0.9

> <PUBCHEM_EXACT_MASS>
217.004493

> <PUBCHEM_MOLECULAR_FORMULA>
C7H7NO5S

> <PUBCHEM_MOLECULAR_WEIGHT>
217.19918

> <PUBCHEM_OPENEYE_CAN_SMILES>
CC1=C(C=C(C=C1)[N+](=O)[O-])S(=O)(=O)O

> <PUBCHEM_OPENEYE_ISO_SMILES>
CC1=C(C=C(C=C1)[N+](=O)[O-])S(=O)(=O)O

> <PUBCHEM_CACTVS_TPSA>
109

> <PUBCHEM_MONOISOTOPIC_WEIGHT>
217.004493

> <PUBCHEM_TOTAL_CHARGE>
0

> <PUBCHEM_HEAVY_ATOM_COUNT>
14

> <PUBCHEM_ATOM_DEF_STEREO_COUNT>
0

> <PUBCHEM_ATOM_UDEF_STEREO_COUNT>
0

> <PUBCHEM_BOND_DEF_STEREO_COUNT>
0

> <PUBCHEM_BOND_UDEF_STEREO_COUNT>
0

> <PUBCHEM_ISOTOPIC_ATOM_COUNT>
0

> <PUBCHEM_COMPONENT_COUNT>
1

> <PUBCHEM_CACTVS_TAUTO_COUNT>
1

> <PUBCHEM_COORDINATE_TYPE>
1
5
255

> <PUBCHEM_BONDANNOTATIONS>
10  12  8
11  13  8
12  13  8
8  10  8
8  9  8
9  11  8

$$$$

