11385
  -OEChem-06261205363D

 25 27  0     0  0  0  0  0  0999 V2000
   -0.2233    1.2844    0.0002 N   0  0  0  0  0  0  0  0  0  0  0  0
    4.5734    1.0198   -0.0008 N   0  0  0  0  0  0  0  0  0  0  0  0
    0.8301   -0.8788    0.0000 C   0  0  0  0  0  0  0  0  0  0  0  0
   -1.5922   -0.6942   -0.0001 C   0  0  0  0  0  0  0  0  0  0  0  0
    0.8893    0.5251    0.0001 C   0  0  0  0  0  0  0  0  0  0  0  0
   -1.4381    0.7024    0.0000 C   0  0  0  0  0  0  0  0  0  0  0  0
   -0.4337   -1.4777   -0.0001 C   0  0  0  0  0  0  0  0  0  0  0  0
    2.0109   -1.6416    0.0001 C   0  0  0  0  0  0  0  0  0  0  0  0
    2.1447    1.1274    0.0003 C   0  0  0  0  0  0  0  0  0  0  0  0
    3.3202    0.3724    0.0003 C   0  0  0  0  0  0  0  0  0  0  0  0
   -2.8749   -1.2695   -0.0001 C   0  0  0  0  0  0  0  0  0  0  0  0
   -2.5878    1.4878    0.0000 C   0  0  0  0  0  0  0  0  0  0  0  0
    3.2536   -1.0150    0.0002 C   0  0  0  0  0  0  0  0  0  0  0  0
   -4.0083   -0.4620   -0.0001 C   0  0  0  0  0  0  0  0  0  0  0  0
   -3.8641    0.9195    0.0000 C   0  0  0  0  0  0  0  0  0  0  0  0
   -0.5164   -2.5639   -0.0002 H   0  0  0  0  0  0  0  0  0  0  0  0
    1.9681   -2.7285    0.0000 H   0  0  0  0  0  0  0  0  0  0  0  0
    2.2096    2.2150    0.0001 H   0  0  0  0  0  0  0  0  0  0  0  0
   -2.9973   -2.3504   -0.0002 H   0  0  0  0  0  0  0  0  0  0  0  0
   -2.5011    2.5729    0.0002 H   0  0  0  0  0  0  0  0  0  0  0  0
    4.1574   -1.6181    0.0001 H   0  0  0  0  0  0  0  0  0  0  0  0
   -4.9978   -0.9089   -0.0002 H   0  0  0  0  0  0  0  0  0  0  0  0
   -4.7420    1.5588    0.0000 H   0  0  0  0  0  0  0  0  0  0  0  0
    4.6216    2.0299    0.0011 H   0  0  0  0  0  0  0  0  0  0  0  0
    5.4249    0.4741    0.0011 H   0  0  0  0  0  0  0  0  0  0  0  0
  1  5  2  0  0  0  0
  1  6  1  0  0  0  0
  2 10  1  0  0  0  0
  2 24  1  0  0  0  0
  2 25  1  0  0  0  0
  3  5  1  0  0  0  0
  3  7  2  0  0  0  0
  3  8  1  0  0  0  0
  4  6  1  0  0  0  0
  4  7  1  0  0  0  0
  4 11  2  0  0  0  0
  5  9  1  0  0  0  0
  6 12  2  0  0  0  0
  7 16  1  0  0  0  0
  8 13  2  0  0  0  0
  8 17  1  0  0  0  0
  9 10  2  0  0  0  0
  9 18  1  0  0  0  0
 10 13  1  0  0  0  0
 11 14  1  0  0  0  0
 11 19  1  0  0  0  0
 12 15  1  0  0  0  0
 12 20  1  0  0  0  0
 13 21  1  0  0  0  0
 14 15  2  0  0  0  0
 14 22  1  0  0  0  0
 15 23  1  0  0  0  0
M  END
> <PUBCHEM_COMPOUND_CID>
11385

> <PUBCHEM_CONFORMER_RMSD>
0.4

> <PUBCHEM_CONFORMER_DIVERSEORDER>
1

> <PUBCHEM_MMFF94_PARTIAL_CHARGES>
23
1 -0.62
10 0.1
11 -0.15
12 -0.15
13 -0.15
14 -0.15
15 -0.15
16 0.15
17 0.15
18 0.15
19 0.15
2 -0.9
20 0.15
21 0.15
22 0.15
23 0.15
24 0.4
25 0.4
5 0.31
6 0.31
7 -0.15
8 -0.15
9 -0.15

> <PUBCHEM_EFFECTIVE_ROTOR_COUNT>
0

> <PUBCHEM_PHARMACOPHORE_FEATURES>
6
1 1 acceptor
1 2 cation
1 2 donor
6 1 3 4 5 6 7 rings
6 3 5 8 9 10 13 rings
6 4 6 11 12 14 15 rings

> <PUBCHEM_HEAVY_ATOM_COUNT>
15

> <PUBCHEM_ATOM_DEF_STEREO_COUNT>
0

> <PUBCHEM_ATOM_UDEF_STEREO_COUNT>
0

> <PUBCHEM_BOND_DEF_STEREO_COUNT>
0

> <PUBCHEM_BOND_UDEF_STEREO_COUNT>
0

> <PUBCHEM_ISOTOPIC_ATOM_COUNT>
0

> <PUBCHEM_COMPONENT_COUNT>
1

> <PUBCHEM_CACTVS_TAUTO_COUNT>
3

> <PUBCHEM_CONFORMER_ID>
00002C7900000001

> <PUBCHEM_MMFF94_ENERGY>
57.1307

> <PUBCHEM_FEATURE_SELFOVERLAP>
30.507

> <PUBCHEM_SHAPE_FINGERPRINT>
10411042 1 15600328213948605797
10608611 8 18410859888313621821
10967382 1 18410855481603037254
10980938 120 18410855486167218322
11132069 177 18410579491325950449
11471102 20 18410578400472868062
11543360 7 15647346199141039008
11806522 49 18339645538453738479
12032990 46 18410568504915827119
12932764 1 17313396607697553123
13214271 11 18410857629376926735
13221675 6 18410293601128244615
13380535 76 18411981351535136922
14144814 61 18411136960927443379
14325111 11 18410575106148536353
14897335 6 18410014338175696974
15196674 1 18410855481618893991
15219456 202 18409447011539863775
15442244 35 18122063366842400530
15536298 74 18335138726164352806
15775835 57 18408882940568186696
16945 1 18338516309535589799
18186145 218 18202001078985671902
18522853 276 18408887330077634281
200 152 18113627772480171285
20510252 161 18260827133131378329
20645477 70 18262520406623548663
21267235 1 18410565206254570595
21501502 16 18410576231461681467
2334 1 18410575093358625475
23402539 116 18335711511186596423
23402655 69 18335145327544969733
23463225 33 18413108385228559894
23559900 14 18263648523334759402
2748010 2 18410572915831338079
296302 2 18411980256228415852
3312278 4 18408882927931198353
335352 9 18050286173938963831
34934 24 18411144636192367191
474 4 17130417996339261932
4990 188 18040704892803220420
5104073 3 18411418440156976131
528886 8 18410298012043775034
53812653 166 18334298651888405344
69090 78 18334299768706567711
7364860 26 18263362654448405350
77779 3 18410291432143269430
8809292 202 18272082786446817019
9709674 26 18410287004074750518

> <PUBCHEM_SHAPE_MULTIPOLES>
298.73
7.38
1.72
0.61
0.84
0.14
0
-1.15
0
0.03
0
-0.02
0.01
0

> <PUBCHEM_SHAPE_SELFOVERLAP>
677.721

> <PUBCHEM_SHAPE_VOLUME>
155.4

> <PUBCHEM_COORDINATE_TYPE>
2
5
10

$$$$

