7836
  -OEChem-06261202223D

 17 17  0     1  0  0  0  0  0999 V2000
    2.9953    0.4493   -0.8018 O   0  0  0  0  0  0  0  0  0  0  0  0
   -0.2410    0.3810    0.1737 O   0  0  0  0  0  0  0  0  0  0  0  0
   -1.6103   -1.4441   -0.1920 O   0  0  0  0  0  0  0  0  0  0  0  0
    2.1517    0.3860    0.3390 C   0  0  2  0  0  0  0  0  0  0  0  0
    3.4956   -0.2449    0.3482 C   0  0  0  0  0  0  0  0  0  0  0  0
    0.9153   -0.4615    0.1278 C   0  0  0  0  0  0  0  0  0  0  0  0
   -1.4324   -0.2512   -0.0023 C   0  0  0  0  0  0  0  0  0  0  0  0
   -2.4970    0.7705    0.0746 C   0  0  0  0  0  0  0  0  0  0  0  0
   -3.7770    0.4150   -0.0672 C   0  0  0  0  0  0  0  0  0  0  0  0
    1.9969    1.2721    0.9380 H   0  0  0  0  0  0  0  0  0  0  0  0
    4.2836    0.2338    0.9150 H   0  0  0  0  0  0  0  0  0  0  0  0
    3.5696   -1.3229    0.2891 H   0  0  0  0  0  0  0  0  0  0  0  0
    0.8496   -1.1984    0.9365 H   0  0  0  0  0  0  0  0  0  0  0  0
    0.9555   -0.9824   -0.8362 H   0  0  0  0  0  0  0  0  0  0  0  0
   -2.2252    1.8060    0.2467 H   0  0  0  0  0  0  0  0  0  0  0  0
   -4.5582    1.1658   -0.0105 H   0  0  0  0  0  0  0  0  0  0  0  0
   -4.0814   -0.6113   -0.2402 H   0  0  0  0  0  0  0  0  0  0  0  0
  1  4  1  0  0  0  0
  1  5  1  0  0  0  0
  2  6  1  0  0  0  0
  2  7  1  0  0  0  0
  3  7  2  0  0  0  0
  4  5  1  0  0  0  0
  4  6  1  0  0  0  0
  4 10  1  0  0  0  0
  5 11  1  0  0  0  0
  5 12  1  0  0  0  0
  6 13  1  0  0  0  0
  6 14  1  0  0  0  0
  7  8  1  0  0  0  0
  8  9  2  0  0  0  0
  8 15  1  0  0  0  0
  9 16  1  0  0  0  0
  9 17  1  0  0  0  0
M  END
> <PUBCHEM_COMPOUND_CID>
7836

> <PUBCHEM_CONFORMER_RMSD>
0.6

> <PUBCHEM_CONFORMER_DIVERSEORDER>
3
29
46
33
16
57
18
42
2
43
25
40
32
54
1
24
48
35
56
44
30
53
31
6
23
55
19
51
5
34
45
47
41
50
39
38
4
17
36
10
28
52
9
11
14
12
21
13
8
20
15
26
49
7
37
27
22

> <PUBCHEM_MMFF94_PARTIAL_CHARGES>
15
1 -0.3
10 0.1
11 0.1
12 0.1
15 0.15
16 0.15
17 0.15
2 -0.43
3 -0.57
4 -0.05
5 -0.05
6 0.38
7 0.71
8 -0.14
9 -0.3

> <PUBCHEM_EFFECTIVE_ROTOR_COUNT>
4.6

> <PUBCHEM_PHARMACOPHORE_FEATURES>
3
1 1 acceptor
1 3 acceptor
1 9 hydrophobe

> <PUBCHEM_HEAVY_ATOM_COUNT>
9

> <PUBCHEM_ATOM_DEF_STEREO_COUNT>
0

> <PUBCHEM_ATOM_UDEF_STEREO_COUNT>
1

> <PUBCHEM_BOND_DEF_STEREO_COUNT>
0

> <PUBCHEM_BOND_UDEF_STEREO_COUNT>
0

> <PUBCHEM_ISOTOPIC_ATOM_COUNT>
0

> <PUBCHEM_COMPONENT_COUNT>
1

> <PUBCHEM_CACTVS_TAUTO_COUNT>
1

> <PUBCHEM_CONFORMER_ID>
00001E9C00000003

> <PUBCHEM_MMFF94_ENERGY>
15.0043

> <PUBCHEM_FEATURE_SELFOVERLAP>
15.223

> <PUBCHEM_SHAPE_FINGERPRINT>
11062470 55 5112003937082149081
12932764 1 14261359015976726424
14325111 11 18411982459551978474
14390081 3 18259989279337535753
190213 19 17917993884062243057
20201158 50 17530681022058309990
20279233 1 17168142326007870670
21293036 1 16732989721252574365
23402539 116 18041572415835692741
3248919 1 16660354857924656418

> <PUBCHEM_SHAPE_MULTIPOLES>
167.61
6.55
0.95
0.68
0.27
0.22
0.02
-0.97
0.16
-0.38
0.03
0.23
-0.04
-0.16

> <PUBCHEM_SHAPE_SELFOVERLAP>
322.062

> <PUBCHEM_SHAPE_VOLUME>
102.9

> <PUBCHEM_COORDINATE_TYPE>
2
5
10

$$$$

