441589
  -OEChem-07051212553D

 37 41  0     1  0  0  0  0  0999 V2000
    1.2378   -2.2468    1.4207 O   0  0  0  0  0  0  0  0  0  0  0  0
   -3.9866   -1.3887   -0.2668 O   0  0  0  0  0  0  0  0  0  0  0  0
   -4.4282    0.9322    0.2035 O   0  0  0  0  0  0  0  0  0  0  0  0
    1.6499    1.6502   -0.2880 N   0  0  2  0  0  0  0  0  0  0  0  0
    1.8703    0.3131    0.2565 C   0  0  1  0  0  0  0  0  0  0  0  0
    0.9456   -0.6824   -0.4415 C   0  0  1  0  0  0  0  0  0  0  0  0
    3.3090    0.0638   -0.0123 C   0  0  0  0  0  0  0  0  0  0  0  0
    1.3746   -2.0993    0.0062 C   0  0  1  0  0  0  0  0  0  0  0  0
    2.8451    2.3968    0.1194 C   0  0  0  0  0  0  0  0  0  0  0  0
    4.0009    1.3920   -0.0858 C   0  0  0  0  0  0  0  0  0  0  0  0
   -0.4932   -0.2336   -0.2205 C   0  0  0  0  0  0  0  0  0  0  0  0
    0.3715    2.1669    0.1946 C   0  0  0  0  0  0  0  0  0  0  0  0
    2.8616   -2.3663   -0.3523 C   0  0  0  0  0  0  0  0  0  0  0  0
   -0.7609    1.1537    0.0320 C   0  0  0  0  0  0  0  0  0  0  0  0
    3.7736   -1.1592   -0.2942 C   0  0  0  0  0  0  0  0  0  0  0  0
   -1.5615   -1.1343   -0.3470 C   0  0  0  0  0  0  0  0  0  0  0  0
   -2.0822    1.5992    0.1960 C   0  0  0  0  0  0  0  0  0  0  0  0
   -2.8446   -0.6513   -0.1849 C   0  0  0  0  0  0  0  0  0  0  0  0
   -3.0974    0.6736    0.0805 C   0  0  0  0  0  0  0  0  0  0  0  0
   -4.9854   -0.3795   -0.0160 C   0  0  0  0  0  0  0  0  0  0  0  0
    1.7198    0.3108    1.3482 H   0  0  0  0  0  0  0  0  0  0  0  0
    1.0990   -0.6306   -1.5314 H   0  0  0  0  0  0  0  0  0  0  0  0
    0.7599   -2.8759   -0.4609 H   0  0  0  0  0  0  0  0  0  0  0  0
    2.7987    2.6913    1.1760 H   0  0  0  0  0  0  0  0  0  0  0  0
    2.9876    3.2982   -0.4849 H   0  0  0  0  0  0  0  0  0  0  0  0
    4.7577    1.5037    0.6959 H   0  0  0  0  0  0  0  0  0  0  0  0
    4.4585    1.5283   -1.0715 H   0  0  0  0  0  0  0  0  0  0  0  0
    0.1238    3.0733   -0.3699 H   0  0  0  0  0  0  0  0  0  0  0  0
    0.4290    2.4307    1.2588 H   0  0  0  0  0  0  0  0  0  0  0  0
    2.9041   -2.7441   -1.3816 H   0  0  0  0  0  0  0  0  0  0  0  0
    3.2707   -3.1443    0.3029 H   0  0  0  0  0  0  0  0  0  0  0  0
    4.8188   -1.2992   -0.5518 H   0  0  0  0  0  0  0  0  0  0  0  0
   -1.4004   -2.1824   -0.5718 H   0  0  0  0  0  0  0  0  0  0  0  0
   -2.3007    2.6407    0.4078 H   0  0  0  0  0  0  0  0  0  0  0  0
    0.2991   -2.1244    1.6407 H   0  0  0  0  0  0  0  0  0  0  0  0
   -5.5621   -0.6688    0.8701 H   0  0  0  0  0  0  0  0  0  0  0  0
   -5.6621   -0.3339   -0.8769 H   0  0  0  0  0  0  0  0  0  0  0  0
  1  8  1  0  0  0  0
  1 35  1  0  0  0  0
  2 18  1  0  0  0  0
  2 20  1  0  0  0  0
  3 19  1  0  0  0  0
  3 20  1  0  0  0  0
  4  5  1  0  0  0  0
  4  9  1  0  0  0  0
  4 12  1  0  0  0  0
  5  6  1  0  0  0  0
  5  7  1  0  0  0  0
  5 21  1  0  0  0  0
  6  8  1  0  0  0  0
  6 11  1  0  0  0  0
  6 22  1  0  0  0  0
  7 10  1  0  0  0  0
  7 15  2  0  0  0  0
  8 13  1  0  0  0  0
  8 23  1  0  0  0  0
  9 10  1  0  0  0  0
  9 24  1  0  0  0  0
  9 25  1  0  0  0  0
 10 26  1  0  0  0  0
 10 27  1  0  0  0  0
 11 14  1  0  0  0  0
 11 16  2  0  0  0  0
 12 14  1  0  0  0  0
 12 28  1  0  0  0  0
 12 29  1  0  0  0  0
 13 15  1  0  0  0  0
 13 30  1  0  0  0  0
 13 31  1  0  0  0  0
 14 17  2  0  0  0  0
 15 32  1  0  0  0  0
 16 18  1  0  0  0  0
 16 33  1  0  0  0  0
 17 19  1  0  0  0  0
 17 34  1  0  0  0  0
 18 19  2  0  0  0  0
 20 36  1  0  0  0  0
 20 37  1  0  0  0  0
M  END
> <PUBCHEM_COMPOUND_CID>
441589

> <PUBCHEM_CONFORMER_RMSD>
0.6

> <PUBCHEM_CONFORMER_DIVERSEORDER>
1

> <PUBCHEM_MMFF94_PARTIAL_CHARGES>
24
1 -0.68
10 0.14
11 -0.14
12 0.41
13 0.14
14 -0.14
15 -0.29
16 -0.15
17 -0.15
18 0.08
19 0.08
2 -0.36
20 0.56
3 -0.36
32 0.15
33 0.15
34 0.15
35 0.4
4 -0.81
5 0.41
6 0.14
7 -0.28
8 0.28
9 0.27

> <PUBCHEM_EFFECTIVE_ROTOR_COUNT>
1.6

> <PUBCHEM_PHARMACOPHORE_FEATURES>
10
1 1 acceptor
1 1 donor
1 2 acceptor
1 3 acceptor
1 4 cation
5 2 3 18 19 20 rings
5 4 5 7 9 10 rings
6 11 14 16 17 18 19 rings
6 4 5 6 11 12 14 rings
6 5 6 7 8 13 15 rings

> <PUBCHEM_HEAVY_ATOM_COUNT>
20

> <PUBCHEM_ATOM_DEF_STEREO_COUNT>
3

> <PUBCHEM_ATOM_UDEF_STEREO_COUNT>
0

> <PUBCHEM_BOND_DEF_STEREO_COUNT>
0

> <PUBCHEM_BOND_UDEF_STEREO_COUNT>
0

> <PUBCHEM_ISOTOPIC_ATOM_COUNT>
0

> <PUBCHEM_COMPONENT_COUNT>
1

> <PUBCHEM_CACTVS_TAUTO_COUNT>
1

> <PUBCHEM_CONFORMER_ID>
0006BCF500000001

> <PUBCHEM_MMFF94_ENERGY>
52.9059

> <PUBCHEM_FEATURE_SELFOVERLAP>
51.116

> <PUBCHEM_SHAPE_FINGERPRINT>
10411042 1 18049722124875659566
10608611 8 18411703213763807157
10616163 171 18263642866430353119
10967382 1 18409730621368476140
10980938 120 18409730655453803910
11471102 20 18410577279428388068
11578080 2 17416136194168089740
11806522 49 18411418414381877247
12107183 9 17757824903293460969
12553582 1 18051416463265966034
13009979 54 17460867647370173810
13140716 1 18194410991626980784
13221675 6 18408887351599949991
138480 1 18409448133048729804
14223421 5 18339927111808346189
14251717 144 18411139121322457902
14787075 74 18266742389492307865
14790565 3 18122618349795927492
15196674 1 18408885135570885549
15230672 131 14090512995546164275
15375462 189 18199747110329566355
15442244 35 18263923422051622344
15536298 74 18334294275084459508
16945 1 18262244300724755124
17492 89 18408039632720773527
1813 80 17418088828209026973
18186145 218 18060143141189818271
19591789 44 18409730625399939750
200 152 18114186320044784245
20559304 39 18408604781707213644
20645477 70 18409451397012709583
20691752 17 17917705846380837337
20905425 154 18335137656649093452
21267235 1 18336537304601650958
21421861 104 17986678266578231089
21452121 103 18261684700983078992
21501502 16 18336261348641954913
221490 88 18411973659259272322
2255824 54 18342735209066626684
22854114 111 18411981351503222148
2334 1 18338517426675674580
23463225 33 18408322206844439420
23559900 14 18263085568558726758
25 1 18340207388900540420
2748010 2 17688878957195365132
2871803 45 18413673521388926253
3323516 105 18413668019472613882
335352 9 18192992849070648941
33824 294 18411983537936883960
34934 24 18261398814579005021
350125 39 18409727404380280460
4409770 3 16831786630914274782
474 4 18201436917962216884
5104073 3 18409165519741824985
543358 83 18337105782278007585
6138700 20 18410568514444557430
7364860 26 18335421283404100886
77779 3 18408884040491271175
8272917 22 18410006632877696117
9709674 26 18411413999409133163
9981440 41 17615980902472012272

> <PUBCHEM_SHAPE_MULTIPOLES>
389
8.13
2.62
0.72
6.23
0.05
0.1
0.28
-0.28
-2.04
0.2
-0.14
0.2
-0.18

> <PUBCHEM_SHAPE_SELFOVERLAP>
878.827

> <PUBCHEM_SHAPE_VOLUME>
204.9

> <PUBCHEM_COORDINATE_TYPE>
2
5
10

$$$$

