441980
  -OEChem-07051212562D

 34 36  0     0  0  0  0  0  0999 V2000
    8.7098    0.7056    0.0000 O   0  0  0  0  0  0  0  0  0  0  0  0
    5.1738    0.7334    0.0000 O   0  0  0  0  0  0  0  0  0  0  0  0
    6.9338   -2.3013    0.0000 O   0  0  0  0  0  0  0  0  0  0  0  0
    5.1854   -2.3359    0.0000 O   0  0  0  0  0  0  0  0  0  0  0  0
    2.5357    0.2262    0.0000 O   0  0  0  0  0  0  0  0  0  0  0  0
    8.7179    1.7472    0.0000 C   0  0  0  0  0  0  0  0  0  0  0  0
    6.9338    0.6987    0.0000 C   0  0  0  0  0  0  0  0  0  0  0  0
    7.7998    0.1987    0.0000 C   0  0  0  0  0  0  0  0  0  0  0  0
    7.8158    2.2680    0.0000 C   0  0  0  0  0  0  0  0  0  0  0  0
    6.0678    0.1987    0.0000 C   0  0  0  0  0  0  0  0  0  0  0  0
    6.9178    1.7402    0.0000 C   0  0  0  0  0  0  0  0  0  0  0  0
    9.2212    2.6113    0.0000 C   0  0  0  0  0  0  0  0  0  0  0  0
    9.7179    1.7433    0.0000 C   0  0  0  0  0  0  0  0  0  0  0  0
    6.0678   -0.8013    0.0000 C   0  0  0  0  0  0  0  0  0  0  0  0
    7.7998   -0.8013    0.0000 C   0  0  0  0  0  0  0  0  0  0  0  0
    6.9338   -1.3013    0.0000 C   0  0  0  0  0  0  0  0  0  0  0  0
    5.1738   -1.3359    0.0000 C   0  0  0  0  0  0  0  0  0  0  0  0
    4.2678    0.2195    0.0000 C   0  0  0  0  0  0  0  0  0  0  0  0
    4.2678   -0.8221    0.0000 C   0  0  0  0  0  0  0  0  0  0  0  0
    3.4037    0.7229    0.0000 C   0  0  0  0  0  0  0  0  0  0  0  0
    7.8134    2.8880    0.0000 H   0  0  0  0  0  0  0  0  0  0  0  0
    6.3773    2.0440    0.0000 H   0  0  0  0  0  0  0  0  0  0  0  0
    9.7155    1.1233    0.0000 H   0  0  0  0  0  0  0  0  0  0  0  0
   10.3379    1.7409    0.0000 H   0  0  0  0  0  0  0  0  0  0  0  0
    9.7202    2.3633    0.0000 H   0  0  0  0  0  0  0  0  0  0  0  0
    9.7569    2.2992    0.0000 H   0  0  0  0  0  0  0  0  0  0  0  0
    9.5333    3.1470    0.0000 H   0  0  0  0  0  0  0  0  0  0  0  0
    8.6855    2.9233    0.0000 H   0  0  0  0  0  0  0  0  0  0  0  0
    8.3368   -1.1113    0.0000 H   0  0  0  0  0  0  0  0  0  0  0  0
    3.7320   -1.1342    0.0000 H   0  0  0  0  0  0  0  0  0  0  0  0
    3.8040    1.1963    0.0000 H   0  0  0  0  0  0  0  0  0  0  0  0
    3.0070    1.1994    0.0000 H   0  0  0  0  0  0  0  0  0  0  0  0
    7.4707   -2.6113    0.0000 H   0  0  0  0  0  0  0  0  0  0  0  0
    2.0000    0.5383    0.0000 H   0  0  0  0  0  0  0  0  0  0  0  0
  1  6  1  0  0  0  0
  1  8  1  0  0  0  0
  2 10  1  0  0  0  0
  2 18  1  0  0  0  0
  3 16  1  0  0  0  0
  3 33  1  0  0  0  0
  4 17  2  0  0  0  0
  5 20  1  0  0  0  0
  5 34  1  0  0  0  0
  6  9  1  0  0  0  0
  6 12  1  0  0  0  0
  6 13  1  0  0  0  0
  7  8  1  0  0  0  0
  7 10  2  0  0  0  0
  7 11  1  0  0  0  0
  8 15  2  0  0  0  0
  9 11  2  0  0  0  0
  9 21  1  0  0  0  0
 10 14  1  0  0  0  0
 11 22  1  0  0  0  0
 12 26  1  0  0  0  0
 12 27  1  0  0  0  0
 12 28  1  0  0  0  0
 13 23  1  0  0  0  0
 13 24  1  0  0  0  0
 13 25  1  0  0  0  0
 14 16  2  0  0  0  0
 14 17  1  0  0  0  0
 15 16  1  0  0  0  0
 15 29  1  0  0  0  0
 17 19  1  0  0  0  0
 18 19  2  0  0  0  0
 18 20  1  0  0  0  0
 19 30  1  0  0  0  0
 20 31  1  0  0  0  0
 20 32  1  0  0  0  0
M  END
> <PUBCHEM_COMPOUND_CID>
441980

> <PUBCHEM_COMPOUND_CANONICALIZED>
1

> <PUBCHEM_CACTVS_COMPLEXITY>
479

> <PUBCHEM_CACTVS_HBOND_ACCEPTOR>
5

> <PUBCHEM_CACTVS_HBOND_DONOR>
2

> <PUBCHEM_CACTVS_ROTATABLE_BOND>
1

> <PUBCHEM_CACTVS_SUBSKEYS>
AAADccBwOAAAAAAAAAAAAAAAAAAAAAAAAAAwQIAAAAAAAACBAAAAGgAACAAADESgmAIyBoAABgCIAqBSAAACCAAkIAAIiAEGCMgNNzaGNRqCeWCl4BULuQeI7OzOIAACCAAIAABAAAQQABAAAAAAAAAAAA==

> <PUBCHEM_IUPAC_OPENEYE_NAME>
5-hydroxy-2-(hydroxymethyl)-8,8-dimethyl-pyrano[2,3-h]chromen-4-one

> <PUBCHEM_IUPAC_CAS_NAME>
5-hydroxy-2-(hydroxymethyl)-8,8-dimethyl-4-pyrano[2,3-h][1]benzopyranone

> <PUBCHEM_IUPAC_NAME>
5-hydroxy-2-(hydroxymethyl)-8,8-dimethylpyrano[2,3-h]chromen-4-one

> <PUBCHEM_IUPAC_SYSTEMATIC_NAME>
2-(hydroxymethyl)-8,8-dimethyl-5-oxidanyl-pyrano[2,3-h]chromen-4-one

> <PUBCHEM_IUPAC_TRADITIONAL_NAME>
5-hydroxy-8,8-dimethyl-2-methylol-pyrano[2,3-h]chromen-4-one

> <PUBCHEM_IUPAC_INCHI>
InChI=1S/C15H14O5/c1-15(2)4-3-9-12(20-15)6-11(18)13-10(17)5-8(7-16)19-14(9)13/h3-6,16,18H,7H2,1-2H3

> <PUBCHEM_IUPAC_INCHIKEY>
QLDUXSCWWAQMTC-UHFFFAOYSA-N

> <PUBCHEM_XLOGP3_AA>
1.8

> <PUBCHEM_EXACT_MASS>
274.084124

> <PUBCHEM_MOLECULAR_FORMULA>
C15H14O5

> <PUBCHEM_MOLECULAR_WEIGHT>
274.26866

> <PUBCHEM_OPENEYE_CAN_SMILES>
CC1(C=CC2=C3C(=C(C=C2O1)O)C(=O)C=C(O3)CO)C

> <PUBCHEM_OPENEYE_ISO_SMILES>
CC1(C=CC2=C3C(=C(C=C2O1)O)C(=O)C=C(O3)CO)C

> <PUBCHEM_CACTVS_TPSA>
76

> <PUBCHEM_MONOISOTOPIC_WEIGHT>
274.084124

> <PUBCHEM_TOTAL_CHARGE>
0

> <PUBCHEM_HEAVY_ATOM_COUNT>
20

> <PUBCHEM_ATOM_DEF_STEREO_COUNT>
0

> <PUBCHEM_ATOM_UDEF_STEREO_COUNT>
0

> <PUBCHEM_BOND_DEF_STEREO_COUNT>
0

> <PUBCHEM_BOND_UDEF_STEREO_COUNT>
0

> <PUBCHEM_ISOTOPIC_ATOM_COUNT>
0

> <PUBCHEM_COMPONENT_COUNT>
1

> <PUBCHEM_CACTVS_TAUTO_COUNT>
6

> <PUBCHEM_COORDINATE_TYPE>
1
5
255

> <PUBCHEM_BONDANNOTATIONS>
10  14  8
14  16  8
14  17  8
15  16  8
17  19  8
18  19  8
2  10  8
2  18  8
7  10  8
7  8  8
8  15  8

$$$$

