9543055
  -OEChem-07051213082D

  8  7  0     0  0  0  0  0  0999 V2000
    4.5981    1.0600    0.0000 Cl  0  0  0  0  0  0  0  0  0  0  0  0
    2.0000   -0.4400    0.0000 O   0  0  0  0  0  0  0  0  0  0  0  0
    3.7320   -0.4400    0.0000 C   0  0  0  0  0  0  0  0  0  0  0  0
    4.5981    0.0600    0.0000 C   0  0  0  0  0  0  0  0  0  0  0  0
    2.8660    0.0600    0.0000 C   0  0  0  0  0  0  0  0  0  0  0  0
    3.7320   -1.0600    0.0000 H   0  0  0  0  0  0  0  0  0  0  0  0
    5.1350   -0.2500    0.0000 H   0  0  0  0  0  0  0  0  0  0  0  0
    2.8660    0.6800    0.0000 H   0  0  0  0  0  0  0  0  0  0  0  0
  1  4  1  0  0  0  0
  2  5  2  0  0  0  0
  3  4  2  0  0  0  0
  3  5  1  0  0  0  0
  3  6  1  0  0  0  0
  4  7  1  0  0  0  0
  5  8  1  0  0  0  0
M  END
> <PUBCHEM_COMPOUND_CID>
9543055

> <PUBCHEM_COMPOUND_CANONICALIZED>
1

> <PUBCHEM_CACTVS_COMPLEXITY>
48.9

> <PUBCHEM_CACTVS_HBOND_ACCEPTOR>
1

> <PUBCHEM_CACTVS_HBOND_DONOR>
0

> <PUBCHEM_CACTVS_ROTATABLE_BOND>
1

> <PUBCHEM_CACTVS_SUBSKEYS>
AAADcQBAIAAEAAAAAAAAAAAAAAAAAAAAAAAAAAAAAAAAAAAAAAAAGgIAAAAACAOggEIAAAAAAACIAChSgAAAAAAAAAAIAAAAAEAAAAAAAQAAAAAAAAAAAIAAAAAAAAAAAAAAAAAAAAAAAAAAAAAAAAAAAA==

> <PUBCHEM_IUPAC_OPENEYE_NAME>
(Z)-3-chloroprop-2-enal

> <PUBCHEM_IUPAC_CAS_NAME>
(Z)-3-chloro-2-propenal

> <PUBCHEM_IUPAC_NAME>
(Z)-3-chloroprop-2-enal

> <PUBCHEM_IUPAC_SYSTEMATIC_NAME>
(Z)-3-chloranylprop-2-enal

> <PUBCHEM_IUPAC_TRADITIONAL_NAME>
(Z)-3-chloroacrolein

> <PUBCHEM_IUPAC_INCHI>
InChI=1S/C3H3ClO/c4-2-1-3-5/h1-3H/b2-1-

> <PUBCHEM_IUPAC_INCHIKEY>
ZSOPPQGHWJVKJB-UPHRSURJSA-N

> <PUBCHEM_XLOGP3_AA>
0.6

> <PUBCHEM_EXACT_MASS>
89.987242

> <PUBCHEM_MOLECULAR_FORMULA>
C3H3ClO

> <PUBCHEM_MOLECULAR_WEIGHT>
90.50832

> <PUBCHEM_OPENEYE_CAN_SMILES>
C(=CCl)C=O

> <PUBCHEM_OPENEYE_ISO_SMILES>
C(=C\Cl)\C=O

> <PUBCHEM_CACTVS_TPSA>
17.1

> <PUBCHEM_MONOISOTOPIC_WEIGHT>
89.987242

> <PUBCHEM_TOTAL_CHARGE>
0

> <PUBCHEM_HEAVY_ATOM_COUNT>
5

> <PUBCHEM_ATOM_DEF_STEREO_COUNT>
0

> <PUBCHEM_ATOM_UDEF_STEREO_COUNT>
0

> <PUBCHEM_BOND_DEF_STEREO_COUNT>
1

> <PUBCHEM_BOND_UDEF_STEREO_COUNT>
0

> <PUBCHEM_ISOTOPIC_ATOM_COUNT>
0

> <PUBCHEM_COMPONENT_COUNT>
1

> <PUBCHEM_CACTVS_TAUTO_COUNT>
1

> <PUBCHEM_COORDINATE_TYPE>
1
5
255

$$$$

