5281830
  -OEChem-07051213003D

 35 36  0     1  0  0  0  0  0999 V2000
    5.1892   -2.0423    0.1990 O   0  0  0  0  0  0  0  0  0  0  0  0
   -4.9160   -1.7226    1.2957 O   0  0  0  0  0  0  0  0  0  0  0  0
    0.5677    1.1891    0.0208 C   0  0  2  0  0  0  0  0  0  0  0  0
    1.8157    0.3162    0.0686 C   0  0  0  0  0  0  0  0  0  0  0  0
    0.0781    1.3873   -1.3995 C   0  0  0  0  0  0  0  0  0  0  0  0
    1.7597   -0.8883    0.7375 C   0  0  0  0  0  0  0  0  0  0  0  0
    2.9612    0.7595   -0.5579 C   0  0  0  0  0  0  0  0  0  0  0  0
    0.7848    2.5209    0.7051 C   0  0  0  0  0  0  0  0  0  0  0  0
   -1.1204    0.9635   -1.8337 C   0  0  0  0  0  0  0  0  0  0  0  0
   -2.1168    0.2576   -1.0117 C   0  0  0  0  0  0  0  0  0  0  0  0
    2.9026   -1.6867    0.7817 C   0  0  0  0  0  0  0  0  0  0  0  0
    4.1041   -0.0389   -0.5138 C   0  0  0  0  0  0  0  0  0  0  0  0
    4.0748   -1.2621    0.1561 C   0  0  0  0  0  0  0  0  0  0  0  0
   -2.5251   -1.0144   -1.3811 C   0  0  0  0  0  0  0  0  0  0  0  0
   -2.6293    0.8784    0.1169 C   0  0  0  0  0  0  0  0  0  0  0  0
   -3.4699   -1.6826   -0.6022 C   0  0  0  0  0  0  0  0  0  0  0  0
   -3.5738    0.2100    0.8958 C   0  0  0  0  0  0  0  0  0  0  0  0
    0.1076    2.9259    1.7864 C   0  0  0  0  0  0  0  0  0  0  0  0
   -3.9942   -1.0705    0.5362 C   0  0  0  0  0  0  0  0  0  0  0  0
   -0.1790    0.6523    0.6124 H   0  0  0  0  0  0  0  0  0  0  0  0
    0.7277    1.8979   -2.1072 H   0  0  0  0  0  0  0  0  0  0  0  0
    0.8540   -1.2320    1.2277 H   0  0  0  0  0  0  0  0  0  0  0  0
    3.0043    1.7083   -1.0839 H   0  0  0  0  0  0  0  0  0  0  0  0
    1.5192    3.2031    0.2816 H   0  0  0  0  0  0  0  0  0  0  0  0
   -1.3912    1.1158   -2.8754 H   0  0  0  0  0  0  0  0  0  0  0  0
    2.8666   -2.6378    1.3063 H   0  0  0  0  0  0  0  0  0  0  0  0
    5.0143    0.2971   -1.0030 H   0  0  0  0  0  0  0  0  0  0  0  0
   -2.1232   -1.5020   -2.2653 H   0  0  0  0  0  0  0  0  0  0  0  0
   -2.3417    1.8875    0.3958 H   0  0  0  0  0  0  0  0  0  0  0  0
   -3.7889   -2.6800   -0.8930 H   0  0  0  0  0  0  0  0  0  0  0  0
   -3.9840    0.6949    1.7774 H   0  0  0  0  0  0  0  0  0  0  0  0
    0.3033    3.8998    2.2219 H   0  0  0  0  0  0  0  0  0  0  0  0
   -0.6415    2.3011    2.2593 H   0  0  0  0  0  0  0  0  0  0  0  0
    4.9892   -2.8503    0.7023 H   0  0  0  0  0  0  0  0  0  0  0  0
   -5.0897   -2.5944    0.9010 H   0  0  0  0  0  0  0  0  0  0  0  0
  1 13  1  0  0  0  0
  1 34  1  0  0  0  0
  2 19  1  0  0  0  0
  2 35  1  0  0  0  0
  3  4  1  0  0  0  0
  3  5  1  0  0  0  0
  3  8  1  0  0  0  0
  3 20  1  0  0  0  0
  4  6  2  0  0  0  0
  4  7  1  0  0  0  0
  5  9  2  0  0  0  0
  5 21  1  0  0  0  0
  6 11  1  0  0  0  0
  6 22  1  0  0  0  0
  7 12  2  0  0  0  0
  7 23  1  0  0  0  0
  8 18  2  0  0  0  0
  8 24  1  0  0  0  0
  9 10  1  0  0  0  0
  9 25  1  0  0  0  0
 10 14  2  0  0  0  0
 10 15  1  0  0  0  0
 11 13  2  0  0  0  0
 11 26  1  0  0  0  0
 12 13  1  0  0  0  0
 12 27  1  0  0  0  0
 14 16  1  0  0  0  0
 14 28  1  0  0  0  0
 15 17  2  0  0  0  0
 15 29  1  0  0  0  0
 16 19  2  0  0  0  0
 16 30  1  0  0  0  0
 17 19  1  0  0  0  0
 17 31  1  0  0  0  0
 18 32  1  0  0  0  0
 18 33  1  0  0  0  0
M  END
> <PUBCHEM_COMPOUND_CID>
5281830

> <PUBCHEM_CONFORMER_RMSD>
0.6

> <PUBCHEM_CONFORMER_DIVERSEORDER>
1
6
7
16
11
18
15
13
17
4
5
8
14
12
2
10
3
9

> <PUBCHEM_MMFF94_PARTIAL_CHARGES>
34
1 -0.53
10 0.03
11 -0.15
12 -0.15
13 0.08
14 -0.15
15 -0.15
16 -0.15
17 -0.15
18 -0.3
19 0.08
2 -0.53
21 0.15
22 0.15
23 0.15
24 0.15
25 0.15
26 0.15
27 0.15
28 0.15
29 0.15
3 0.42
30 0.15
31 0.15
32 0.15
33 0.15
34 0.45
35 0.45
4 -0.14
5 -0.29
6 -0.15
7 -0.15
8 -0.29
9 -0.18

> <PUBCHEM_EFFECTIVE_ROTOR_COUNT>
4

> <PUBCHEM_PHARMACOPHORE_FEATURES>
5
1 1 donor
1 18 hydrophobe
1 2 donor
6 10 14 15 16 17 19 rings
6 4 6 7 11 12 13 rings

> <PUBCHEM_HEAVY_ATOM_COUNT>
19

> <PUBCHEM_ATOM_DEF_STEREO_COUNT>
1

> <PUBCHEM_ATOM_UDEF_STEREO_COUNT>
0

> <PUBCHEM_BOND_DEF_STEREO_COUNT>
1

> <PUBCHEM_BOND_UDEF_STEREO_COUNT>
0

> <PUBCHEM_ISOTOPIC_ATOM_COUNT>
0

> <PUBCHEM_COMPONENT_COUNT>
1

> <PUBCHEM_CACTVS_TAUTO_COUNT>
4

> <PUBCHEM_CONFORMER_ID>
0050982600000001

> <PUBCHEM_MMFF94_ENERGY>
52.9346

> <PUBCHEM_FEATURE_SELFOVERLAP>
25.371

> <PUBCHEM_SHAPE_FINGERPRINT>
11578080 2 18340786878410204405
12077114 3 5328738595354847807
12119455 92 9295290530209069736
121448 382 13254789127287157617
12506688 2 18411986874952399580
12553582 1 18187368726840537622
12633257 1 17749941173099716879
12714826 92 18271536401955240709
12824470 246 18272653492957992624
13103583 49 18187347840762828043
13149001 5 14116646784265322084
13533116 47 18119813509092788047
13544653 18 18412829087958582476
14251732 17 7276837865957832986
14251764 30 18114731716230075102
14787075 74 18266464213763033360
15061688 2 7781517005583446301
15188451 53 16516264941858753943
15209289 33 18413105043918401939
15375462 189 18408885109648146452
17780758 139 18189906498820602978
1813 80 18270382971466163284
18186145 218 13973956619262333412
19078846 21 18040426685806543913
200 152 18271242820087870298
20291156 8 18408041818499651432
20871999 31 16630252480287889535
21713013 43 17489874855401158239
221490 88 18202568410464936262
22950370 63 18334288777969575374
23402539 116 14907899448632594110
235170 7 16056885731972267406
23559900 14 18201163135978867069
23598288 3 18042409195719094596
238078 22 18411135874780752390
2871803 45 17632866316897443383
3286 77 18337391535316282683
3472631 163 7348624954756051203
351380 180 6988323806841914399
3737641 26 18190173680146834534
458136 41 17906736903660730964
5486654 36 18341325665219379459
633830 44 13110125416374384932
6786 2 17183624291414641488
7097593 13 17896324610376359149
83771 10 18342739623886961556

> <PUBCHEM_SHAPE_MULTIPOLES>
379.27
8.98
2.56
1.49
1
1.09
-0.19
-7.5
1.68
0.61
1.06
-0.89
0.47
-0.08

> <PUBCHEM_SHAPE_SELFOVERLAP>
809.64

> <PUBCHEM_SHAPE_VOLUME>
210.1

> <PUBCHEM_COORDINATE_TYPE>
2
5
10

$$$$

