41648
  -OEChem-07051213123D

 32 32  0     0  0  0  0  0  0999 V2000
   -1.5530   -1.2553    0.0031 O   0  0  0  0  0  0  0  0  0  0  0  0
    2.6540   -1.5872   -0.0093 O   0  0  0  0  0  0  0  0  0  0  0  0
   -0.1635   -1.2652   -0.0012 N   0  0  0  0  0  0  0  0  0  0  0  0
    1.5059    0.4430   -0.0131 N   0  0  0  0  0  0  0  0  0  0  0  0
    3.8813    0.3750    0.0034 N   0  0  0  0  0  0  0  0  0  0  0  0
   -3.4471    0.2253    0.0038 C   0  0  0  0  0  0  0  0  0  0  0  0
   -1.9232    0.0200   -0.0004 C   0  0  0  0  0  0  0  0  0  0  0  0
   -3.8688    1.0106   -1.2570 C   0  0  0  0  0  0  0  0  0  0  0  0
   -3.8608    1.0219    1.2602 C   0  0  0  0  0  0  0  0  0  0  0  0
   -4.2554   -1.0921    0.0124 C   0  0  0  0  0  0  0  0  0  0  0  0
   -0.9206    0.8827   -0.0067 C   0  0  0  0  0  0  0  0  0  0  0  0
    0.1913    0.0228   -0.0071 C   0  0  0  0  0  0  0  0  0  0  0  0
    2.6692   -0.3545   -0.0139 C   0  0  0  0  0  0  0  0  0  0  0  0
    5.1815   -0.2831    0.0276 C   0  0  0  0  0  0  0  0  0  0  0  0
    3.9091    1.8361   -0.0020 C   0  0  0  0  0  0  0  0  0  0  0  0
   -4.9522    1.1743   -1.2817 H   0  0  0  0  0  0  0  0  0  0  0  0
   -3.3863    1.9942   -1.2962 H   0  0  0  0  0  0  0  0  0  0  0  0
   -3.5885    0.4715   -2.1696 H   0  0  0  0  0  0  0  0  0  0  0  0
   -3.3781    2.0059    1.2873 H   0  0  0  0  0  0  0  0  0  0  0  0
   -4.9440    1.1858    1.2904 H   0  0  0  0  0  0  0  0  0  0  0  0
   -3.5745    0.4911    2.1758 H   0  0  0  0  0  0  0  0  0  0  0  0
   -4.0227   -1.6944    0.8984 H   0  0  0  0  0  0  0  0  0  0  0  0
   -5.3346   -0.9007    0.0152 H   0  0  0  0  0  0  0  0  0  0  0  0
   -4.0286   -1.7023   -0.8697 H   0  0  0  0  0  0  0  0  0  0  0  0
   -0.9444    1.9621   -0.0106 H   0  0  0  0  0  0  0  0  0  0  0  0
    1.6082    1.4520   -0.0164 H   0  0  0  0  0  0  0  0  0  0  0  0
    5.7447    0.0161   -0.8610 H   0  0  0  0  0  0  0  0  0  0  0  0
    5.0750   -1.3706    0.0331 H   0  0  0  0  0  0  0  0  0  0  0  0
    5.7172    0.0278    0.9292 H   0  0  0  0  0  0  0  0  0  0  0  0
    4.9408    2.2002   -0.0082 H   0  0  0  0  0  0  0  0  0  0  0  0
    3.4057    2.2093    0.8948 H   0  0  0  0  0  0  0  0  0  0  0  0
    3.3980    2.2050   -0.8962 H   0  0  0  0  0  0  0  0  0  0  0  0
  1  3  1  0  0  0  0
  1  7  1  0  0  0  0
  2 13  2  0  0  0  0
  3 12  2  0  0  0  0
  4 12  1  0  0  0  0
  4 13  1  0  0  0  0
  4 26  1  0  0  0  0
  5 13  1  0  0  0  0
  5 14  1  0  0  0  0
  5 15  1  0  0  0  0
  6  7  1  0  0  0  0
  6  8  1  0  0  0  0
  6  9  1  0  0  0  0
  6 10  1  0  0  0  0
  7 11  2  0  0  0  0
  8 16  1  0  0  0  0
  8 17  1  0  0  0  0
  8 18  1  0  0  0  0
  9 19  1  0  0  0  0
  9 20  1  0  0  0  0
  9 21  1  0  0  0  0
 10 22  1  0  0  0  0
 10 23  1  0  0  0  0
 10 24  1  0  0  0  0
 11 12  1  0  0  0  0
 11 25  1  0  0  0  0
 14 27  1  0  0  0  0
 14 28  1  0  0  0  0
 14 29  1  0  0  0  0
 15 30  1  0  0  0  0
 15 31  1  0  0  0  0
 15 32  1  0  0  0  0
M  END
> <PUBCHEM_COMPOUND_CID>
41648

> <PUBCHEM_CONFORMER_RMSD>
0.6

> <PUBCHEM_CONFORMER_DIVERSEORDER>
1
3
4
5
2

> <PUBCHEM_MMFF94_PARTIAL_CHARGES>
14
1 -0.02
11 -0.15
12 0.35
13 0.69
14 0.3
15 0.3
2 -0.57
25 0.15
26 0.37
3 -0.41
4 -0.49
5 -0.66
6 0.18
7 -0.04

> <PUBCHEM_EFFECTIVE_ROTOR_COUNT>
4

> <PUBCHEM_PHARMACOPHORE_FEATURES>
4
1 2 acceptor
1 4 donor
4 6 8 9 10 hydrophobe
5 1 3 7 11 12 rings

> <PUBCHEM_HEAVY_ATOM_COUNT>
15

> <PUBCHEM_ATOM_DEF_STEREO_COUNT>
0

> <PUBCHEM_ATOM_UDEF_STEREO_COUNT>
0

> <PUBCHEM_BOND_DEF_STEREO_COUNT>
0

> <PUBCHEM_BOND_UDEF_STEREO_COUNT>
0

> <PUBCHEM_ISOTOPIC_ATOM_COUNT>
0

> <PUBCHEM_COMPONENT_COUNT>
1

> <PUBCHEM_CACTVS_TAUTO_COUNT>
3

> <PUBCHEM_CONFORMER_ID>
0000A2B000000001

> <PUBCHEM_MMFF94_ENERGY>
33.4373

> <PUBCHEM_FEATURE_SELFOVERLAP>
20.297

> <PUBCHEM_SHAPE_FINGERPRINT>
10014705 185 18272657839855253869
10680689 15 17847058887449408193
11471102 20 18409169909446495876
11543360 7 15864361207103650980
13675066 3 17775563147763138688
14123238 8 18059856147100893910
14144814 61 18408039636735321433
14325111 11 18410574002589835143
14445660 50 18335413569484640305
15239154 128 18411980247781386812
17834072 33 18334860472054327222
18186145 218 18409161151380328029
200 152 17603587434804235426
20279233 1 17846493742419688658
20281475 54 18186525422854912015
20645477 56 17988927820846934069
20645477 70 18337112383690727710
21267235 1 18410002222062632790
22485316 2 18201723976364685771
23402539 116 17603308175798833205
23402655 69 18333736844206393668
23557571 272 16773521074169193583
23559900 14 18334858342505136566
4214541 1 18410856559676732321
449060 50 18412260614730011396
4990 188 17821719546891936982
5104073 3 18411138000694606210
633830 44 17968649531705200607
69090 78 18409733945488774310
77779 3 18408601457175660266
90127 26 17632574950732564260
9709674 26 18410287017175995190

> <PUBCHEM_SHAPE_MULTIPOLES>
282.01
10.32
1.46
0.82
5.74
0.03
0
1.33
0.06
0.31
0
-0.91
0.24
0

> <PUBCHEM_SHAPE_SELFOVERLAP>
567.556

> <PUBCHEM_SHAPE_VOLUME>
169.1

> <PUBCHEM_COORDINATE_TYPE>
2
5
10

$$$$

