25058196
  -OEChem-07051213093D

 22 21  0     1  0  0  0  0  0999 V2000
    0.9727   -1.2181    1.0728 O   0  0  0  0  0  0  0  0  0  0  0  0
   -0.5367    1.2985    0.8387 O   0  0  0  0  0  0  0  0  0  0  0  0
    2.3117    1.1201    0.7809 O   0  0  0  0  0  0  0  0  0  0  0  0
   -4.1682   -0.8658    0.0899 O   0  0  0  0  0  0  0  0  0  0  0  0
    4.2477   -0.3918   -0.3317 O   0  0  0  0  0  0  0  0  0  0  0  0
   -3.2440    1.0018   -0.8156 O   0  0  0  0  0  0  0  0  0  0  0  0
    0.7738   -0.5183   -0.1554 C   0  0  1  0  0  0  0  0  0  0  0  0
   -0.5732    0.2306   -0.1039 C   0  0  1  0  0  0  0  0  0  0  0  0
    1.9628    0.4244   -0.4004 C   0  0  2  0  0  0  0  0  0  0  0  0
   -1.7908   -0.6581    0.1721 C   0  0  0  0  0  0  0  0  0  0  0  0
    3.1637   -0.3503   -0.9048 C   0  0  0  0  0  0  0  0  0  0  0  0
   -3.1196   -0.0729   -0.2426 C   0  0  0  0  0  0  0  0  0  0  0  0
    0.7152   -1.2694   -0.9529 H   0  0  0  0  0  0  0  0  0  0  0  0
   -0.7028    0.7032   -1.0863 H   0  0  0  0  0  0  0  0  0  0  0  0
    1.7135    1.1547   -1.1789 H   0  0  0  0  0  0  0  0  0  0  0  0
   -1.6836   -1.6019   -0.3752 H   0  0  0  0  0  0  0  0  0  0  0  0
   -1.8511   -0.8715    1.2458 H   0  0  0  0  0  0  0  0  0  0  0  0
    1.8030   -1.7180    0.9965 H   0  0  0  0  0  0  0  0  0  0  0  0
   -1.3803    1.7779    0.7772 H   0  0  0  0  0  0  0  0  0  0  0  0
    3.0148   -0.8833   -1.8600 H   0  0  0  0  0  0  0  0  0  0  0  0
    2.9910    1.7755    0.5464 H   0  0  0  0  0  0  0  0  0  0  0  0
   -5.0249   -0.4741   -0.1838 H   0  0  0  0  0  0  0  0  0  0  0  0
  1  7  1  0  0  0  0
  1 18  1  0  0  0  0
  2  8  1  0  0  0  0
  2 19  1  0  0  0  0
  3  9  1  0  0  0  0
  3 21  1  0  0  0  0
  4 12  1  0  0  0  0
  4 22  1  0  0  0  0
  5 11  2  0  0  0  0
  6 12  2  0  0  0  0
  7  8  1  0  0  0  0
  7  9  1  0  0  0  0
  7 13  1  0  0  0  0
  8 10  1  0  0  0  0
  8 14  1  0  0  0  0
  9 11  1  0  0  0  0
  9 15  1  0  0  0  0
 10 12  1  0  0  0  0
 10 16  1  0  0  0  0
 10 17  1  0  0  0  0
 11 20  1  0  0  0  0
M  END
> <PUBCHEM_COMPOUND_CID>
25058196

> <PUBCHEM_CONFORMER_RMSD>
0.6

> <PUBCHEM_CONFORMER_DIVERSEORDER>
1
150
6
18
47
101
106
30
86
31
149
133
124
74
81
3
87
15
52
111
68
100
151
56
152
146
20
69
120
116
132
19
84
70
85
26
90
39
78
92
147
66
77
41
129
141
64
61
34
127
79
45
105
9
58
95
50
54
16
17
144
57
29
89
8
99
98
22
44
128
46
51
93
107
138
104
23
33
59
10
102
88
72
125
27
137
53
37
142
83
36
145
4
60
48
103
131
14
24
76
126
112
62
148
118
143
97
63
139
117
109
43
12
121
5
40
67
108
73
96
110
80
11
49
7
114
2
42
32
123
135
82
113
122
71
13
55
94
136
35
115
21
91
119
38
28
134
140
25
130
65
75

> <PUBCHEM_MMFF94_PARTIAL_CHARGES>
17
1 -0.68
10 0.06
11 0.45
12 0.66
18 0.4
19 0.4
2 -0.68
20 0.06
21 0.4
22 0.5
3 -0.68
4 -0.65
5 -0.57
6 -0.57
7 0.28
8 0.28
9 0.34

> <PUBCHEM_EFFECTIVE_ROTOR_COUNT>
5

> <PUBCHEM_PHARMACOPHORE_FEATURES>
10
1 1 acceptor
1 1 donor
1 2 acceptor
1 2 donor
1 3 acceptor
1 3 donor
1 4 acceptor
1 5 acceptor
1 6 acceptor
3 4 6 12 anion

> <PUBCHEM_HEAVY_ATOM_COUNT>
12

> <PUBCHEM_ATOM_DEF_STEREO_COUNT>
3

> <PUBCHEM_ATOM_UDEF_STEREO_COUNT>
0

> <PUBCHEM_BOND_DEF_STEREO_COUNT>
0

> <PUBCHEM_BOND_UDEF_STEREO_COUNT>
0

> <PUBCHEM_ISOTOPIC_ATOM_COUNT>
0

> <PUBCHEM_COMPONENT_COUNT>
1

> <PUBCHEM_CACTVS_TAUTO_COUNT>
15

> <PUBCHEM_CONFORMER_ID>
017E5B9400000001

> <PUBCHEM_MMFF94_ENERGY>
15.4254

> <PUBCHEM_FEATURE_SELFOVERLAP>
50.831

> <PUBCHEM_SHAPE_FINGERPRINT>
11062470 55 13326855521739052655
12032990 46 18261106353213146527
12251169 10 7060377037720408471
12897270 3 18334293184162779341
12932764 1 18411991251772065487
13296908 3 18187650180516465349
14325111 11 18131349700205730646
14993402 34 17060331908006063558
18186145 218 18412266138079156905
190213 19 17894631452573992607
1986462 14 18342174475290002015
20201158 50 18040991860579164606
20671657 53 18114454639199193412
20711985 327 5400798367110084402
21119208 17 17989204845620152623
21293036 1 18411978048646932814
22485316 2 14201396118331741750
23402539 116 17895197726758319740
3248919 1 15936680489193238702

> <PUBCHEM_SHAPE_MULTIPOLES>
211.74
6.91
1.11
0.89
0.98
0.13
-0.05
-0.79
1.48
0.14
-0.21
-0.23
0.04
0.34

> <PUBCHEM_SHAPE_SELFOVERLAP>
406.457

> <PUBCHEM_SHAPE_VOLUME>
128

> <PUBCHEM_COORDINATE_TYPE>
2
5
10

$$$$

