5283845
  -OEChem-07051213103D

 69 72  0     1  0  0  0  0  0999 V2000
   -1.4941    2.5396   -0.8932 O   0  0  0  0  0  0  0  0  0  0  0  0
   -3.6775   -2.4203    1.4843 O   0  0  0  0  0  0  0  0  0  0  0  0
   -4.9055    2.0728    2.6207 O   0  0  0  0  0  0  0  0  0  0  0  0
    6.5180    1.9143    2.1488 O   0  0  0  0  0  0  0  0  0  0  0  0
    7.3557    0.9490    0.2718 O   0  0  0  0  0  0  0  0  0  0  0  0
    0.4028    0.3939   -0.9481 C   0  0  1  0  0  0  0  0  0  0  0  0
   -1.0813    0.1702   -1.2745 C   0  0  1  0  0  0  0  0  0  0  0  0
    1.1344   -0.9009   -0.5403 C   0  0  1  0  0  0  0  0  0  0  0  0
   -1.8014   -0.4235   -0.0110 C   0  0  1  0  0  0  0  0  0  0  0  0
   -3.3378   -0.6905   -0.2963 C   0  0  2  0  0  0  0  0  0  0  0  0
    2.5659   -0.3358   -0.3675 C   0  0  2  0  0  0  0  0  0  0  0  0
   -4.0000    0.6542   -0.7699 C   0  0  2  0  0  0  0  0  0  0  0  0
    0.4857   -1.4033    0.7528 C   0  0  0  0  0  0  0  0  0  0  0  0
   -1.0263   -1.6328    0.5832 C   0  0  0  0  0  0  0  0  0  0  0  0
   -1.7608    1.4572   -1.7803 C   0  0  1  0  0  0  0  0  0  0  0  0
    1.3073    0.9922   -2.0231 C   0  0  0  0  0  0  0  0  0  0  0  0
    2.7307    0.6167   -1.5735 C   0  0  0  0  0  0  0  0  0  0  0  0
   -3.2696    1.2903   -1.9696 C   0  0  0  0  0  0  0  0  0  0  0  0
   -4.1619   -1.1999    0.9383 C   0  0  2  0  0  0  0  0  0  0  0  0
    1.0998   -2.0178   -1.6125 C   0  0  0  0  0  0  0  0  0  0  0  0
   -4.1668    1.6774    0.3760 C   0  0  0  0  0  0  0  0  0  0  0  0
    3.6926   -1.3531   -0.2585 C   0  0  1  0  0  0  0  0  0  0  0  0
   -3.5082   -1.7581   -1.4145 C   0  0  0  0  0  0  0  0  0  0  0  0
   -4.2556   -0.1790    2.0667 C   0  0  0  0  0  0  0  0  0  0  0  0
   -4.9100    1.1046    1.5770 C   0  0  1  0  0  0  0  0  0  0  0  0
    5.0503   -0.6312   -0.1362 C   0  0  0  0  0  0  0  0  0  0  0  0
    3.4354   -2.2973    0.9205 C   0  0  0  0  0  0  0  0  0  0  0  0
    5.1297    0.3358    1.0468 C   0  0  0  0  0  0  0  0  0  0  0  0
    6.4482    1.0754    1.0820 C   0  0  0  0  0  0  0  0  0  0  0  0
    0.4495    1.0859   -0.0919 H   0  0  0  0  0  0  0  0  0  0  0  0
   -1.1461   -0.5547   -2.0920 H   0  0  0  0  0  0  0  0  0  0  0  0
   -1.7464    0.3394    0.7754 H   0  0  0  0  0  0  0  0  0  0  0  0
    2.5421    0.2801    0.5412 H   0  0  0  0  0  0  0  0  0  0  0  0
   -5.0179    0.4210   -1.1164 H   0  0  0  0  0  0  0  0  0  0  0  0
    0.6391   -0.6778    1.5622 H   0  0  0  0  0  0  0  0  0  0  0  0
    0.9027   -2.3494    1.0991 H   0  0  0  0  0  0  0  0  0  0  0  0
   -1.1846   -2.5267   -0.0275 H   0  0  0  0  0  0  0  0  0  0  0  0
   -1.4129   -1.8610    1.5812 H   0  0  0  0  0  0  0  0  0  0  0  0
   -1.3286    1.7434   -2.7458 H   0  0  0  0  0  0  0  0  0  0  0  0
    1.1895    2.0779   -2.0998 H   0  0  0  0  0  0  0  0  0  0  0  0
    1.0941    0.5656   -3.0096 H   0  0  0  0  0  0  0  0  0  0  0  0
    3.2612    0.1439   -2.4078 H   0  0  0  0  0  0  0  0  0  0  0  0
    3.2944    1.5119   -1.2891 H   0  0  0  0  0  0  0  0  0  0  0  0
   -3.4443    0.6731   -2.8589 H   0  0  0  0  0  0  0  0  0  0  0  0
   -3.7197    2.2679   -2.1844 H   0  0  0  0  0  0  0  0  0  0  0  0
   -5.1894   -1.4089    0.6090 H   0  0  0  0  0  0  0  0  0  0  0  0
    0.0814   -2.3034   -1.8895 H   0  0  0  0  0  0  0  0  0  0  0  0
    1.6051   -1.7226   -2.5375 H   0  0  0  0  0  0  0  0  0  0  0  0
    1.5840   -2.9326   -1.2579 H   0  0  0  0  0  0  0  0  0  0  0  0
   -3.2105    2.0646    0.7315 H   0  0  0  0  0  0  0  0  0  0  0  0
   -4.7107    2.5581    0.0100 H   0  0  0  0  0  0  0  0  0  0  0  0
    3.7516   -1.9629   -1.1686 H   0  0  0  0  0  0  0  0  0  0  0  0
   -4.5706   -1.9361   -1.6195 H   0  0  0  0  0  0  0  0  0  0  0  0
   -3.0548   -1.4640   -2.3637 H   0  0  0  0  0  0  0  0  0  0  0  0
   -3.0697   -2.7207   -1.1369 H   0  0  0  0  0  0  0  0  0  0  0  0
   -3.2678    0.0234    2.4997 H   0  0  0  0  0  0  0  0  0  0  0  0
   -4.8342   -0.5948    2.9022 H   0  0  0  0  0  0  0  0  0  0  0  0
   -5.9548    0.9148    1.3038 H   0  0  0  0  0  0  0  0  0  0  0  0
   -1.3430    2.2076    0.0044 H   0  0  0  0  0  0  0  0  0  0  0  0
    5.8471   -1.3810   -0.0411 H   0  0  0  0  0  0  0  0  0  0  0  0
    5.2715   -0.0932   -1.0664 H   0  0  0  0  0  0  0  0  0  0  0  0
    3.0787   -1.7705    1.8110 H   0  0  0  0  0  0  0  0  0  0  0  0
    2.7428   -3.0986    0.6565 H   0  0  0  0  0  0  0  0  0  0  0  0
    4.3655   -2.8054    1.2027 H   0  0  0  0  0  0  0  0  0  0  0  0
   -3.8357   -3.1246    0.8342 H   0  0  0  0  0  0  0  0  0  0  0  0
   -5.3867    1.6924    3.3752 H   0  0  0  0  0  0  0  0  0  0  0  0
    4.3613    1.1105    0.9863 H   0  0  0  0  0  0  0  0  0  0  0  0
    5.0224   -0.2091    1.9903 H   0  0  0  0  0  0  0  0  0  0  0  0
    7.3724    2.3952    2.1801 H   0  0  0  0  0  0  0  0  0  0  0  0
  1 15  1  0  0  0  0
  1 59  1  0  0  0  0
  2 19  1  0  0  0  0
  2 65  1  0  0  0  0
  3 25  1  0  0  0  0
  3 66  1  0  0  0  0
  4 29  1  0  0  0  0
  4 69  1  0  0  0  0
  5 29  2  0  0  0  0
  6  7  1  0  0  0  0
  6  8  1  0  0  0  0
  6 16  1  0  0  0  0
  6 30  1  0  0  0  0
  7  9  1  0  0  0  0
  7 15  1  0  0  0  0
  7 31  1  0  0  0  0
  8 11  1  0  0  0  0
  8 13  1  0  0  0  0
  8 20  1  0  0  0  0
  9 10  1  0  0  0  0
  9 14  1  0  0  0  0
  9 32  1  0  0  0  0
 10 12  1  0  0  0  0
 10 19  1  0  0  0  0
 10 23  1  0  0  0  0
 11 17  1  0  0  0  0
 11 22  1  0  0  0  0
 11 33  1  0  0  0  0
 12 18  1  0  0  0  0
 12 21  1  0  0  0  0
 12 34  1  0  0  0  0
 13 14  1  0  0  0  0
 13 35  1  0  0  0  0
 13 36  1  0  0  0  0
 14 37  1  0  0  0  0
 14 38  1  0  0  0  0
 15 18  1  0  0  0  0
 15 39  1  0  0  0  0
 16 17  1  0  0  0  0
 16 40  1  0  0  0  0
 16 41  1  0  0  0  0
 17 42  1  0  0  0  0
 17 43  1  0  0  0  0
 18 44  1  0  0  0  0
 18 45  1  0  0  0  0
 19 24  1  0  0  0  0
 19 46  1  0  0  0  0
 20 47  1  0  0  0  0
 20 48  1  0  0  0  0
 20 49  1  0  0  0  0
 21 25  1  0  0  0  0
 21 50  1  0  0  0  0
 21 51  1  0  0  0  0
 22 26  1  0  0  0  0
 22 27  1  0  0  0  0
 22 52  1  0  0  0  0
 23 53  1  0  0  0  0
 23 54  1  0  0  0  0
 23 55  1  0  0  0  0
 24 25  1  0  0  0  0
 24 56  1  0  0  0  0
 24 57  1  0  0  0  0
 25 58  1  0  0  0  0
 26 28  1  0  0  0  0
 26 60  1  0  0  0  0
 26 61  1  0  0  0  0
 27 62  1  0  0  0  0
 27 63  1  0  0  0  0
 27 64  1  0  0  0  0
 28 29  1  0  0  0  0
 28 67  1  0  0  0  0
 28 68  1  0  0  0  0
M  END
> <PUBCHEM_COMPOUND_CID>
5283845

> <PUBCHEM_CONFORMER_RMSD>
0.8

> <PUBCHEM_CONFORMER_DIVERSEORDER>
3
4
9
8
2
6
1
5
7

> <PUBCHEM_MMFF94_PARTIAL_CHARGES>
14
1 -0.68
15 0.28
19 0.28
2 -0.68
25 0.28
28 0.06
29 0.66
3 -0.68
4 -0.65
5 -0.57
59 0.4
65 0.4
66 0.4
69 0.5

> <PUBCHEM_EFFECTIVE_ROTOR_COUNT>
6.2

> <PUBCHEM_PHARMACOPHORE_FEATURES>
14
1 1 acceptor
1 1 donor
1 2 acceptor
1 2 donor
1 27 hydrophobe
1 3 acceptor
1 3 donor
1 4 acceptor
1 5 acceptor
3 4 5 29 anion
5 6 8 11 16 17 rings
6 10 12 19 21 24 25 rings
6 6 7 8 9 13 14 rings
6 7 9 10 12 15 18 rings

> <PUBCHEM_HEAVY_ATOM_COUNT>
29

> <PUBCHEM_ATOM_DEF_STEREO_COUNT>
11

> <PUBCHEM_ATOM_UDEF_STEREO_COUNT>
0

> <PUBCHEM_BOND_DEF_STEREO_COUNT>
0

> <PUBCHEM_BOND_UDEF_STEREO_COUNT>
0

> <PUBCHEM_ISOTOPIC_ATOM_COUNT>
0

> <PUBCHEM_COMPONENT_COUNT>
1

> <PUBCHEM_CACTVS_TAUTO_COUNT>
1

> <PUBCHEM_CONFORMER_ID>
0050A00500000003

> <PUBCHEM_MMFF94_ENERGY>
107.9729

> <PUBCHEM_FEATURE_SELFOVERLAP>
71.221

> <PUBCHEM_SHAPE_FINGERPRINT>
10 15 17704072889552677276
10319926 262 17845108410273662762
10670039 82 4967616074797452018
10675989 125 16261550187855555045
11135926 11 5112019322135266188
11370993 144 18115581690036075543
11578080 2 17386276701137161375
11796584 16 13758089518813907488
1200032 147 5038856718769634563
12403259 415 18340204202219618246
12422481 6 18129933598022471951
12596602 18 18186799188418262810
12633257 1 18130775751025628797
12892183 10 18202009871411467782
13140716 1 17773577365645080843
13224815 77 17917137347772729687
13690498 29 5760781841256771908
13782708 43 12247688167030012248
14211702 104 14836404765814540456
14251751 18 13686295777438759856
14931854 50 6555127169813293577
15575132 122 16081089260212579568
17349148 13 15554154952372255830
17492 54 5255839759722451761
17980427 23 18409166588877756924
1813 80 15697702783805893991
18927931 339 17203325624175595591
19377110 9 17060330813137406820
20567600 247 12175625070981028024
20775438 99 10298967496417077649
21033648 29 17988085607102272925
21637258 2 12967130502072513836
21709351 56 4750867157069832642
21756936 100 17023193682612107382
22122407 14 17603303735177222472
22182313 1 17915172649079526215
23559900 14 17988649566705325036
23569914 152 8788120918946971384
23569914 2 16736968931470748800
2838139 119 17168149992946708488
392239 28 17988924453186307472
4058900 60 15430308153247990004
4258327 124 16515687732629921937
5104073 3 17844817069366449290
5364581 5 18130792192282699132
633830 44 17240484745139309070
6608658 132 14634860976970339170

> <PUBCHEM_SHAPE_MULTIPOLES>
567.46
14.04
2.37
2.19
19.21
0.29
-0.93
-3.29
-10.13
-1.01
0.1
-1.05
-0.7
0.84

> <PUBCHEM_SHAPE_SELFOVERLAP>
1190.308

> <PUBCHEM_SHAPE_VOLUME>
317.3

> <PUBCHEM_COORDINATE_TYPE>
2
5
10

$$$$

