13933
  -OEChem-06241222412D

 44 44  0     0  0  0  0  0  0999 V2000
    6.9300    3.8030    0.0000 Br  0  5  0  0  0  0  0  0  0  0  0  0
    2.6760    4.1200    0.0000 O   0  0  0  0  0  0  0  0  0  0  0  0
    0.9440    4.1200    0.0000 O   0  0  0  0  0  0  0  0  0  0  0  0
    0.3100    6.4860    0.0000 O   0  0  0  0  0  0  0  0  0  0  0  0
    3.3100    6.4860    0.0000 N   0  3  0  0  0  0  0  0  0  0  0  0
    1.8100    5.6200    0.0000 C   0  0  0  0  0  0  0  0  0  0  0  0
    2.3100    6.4860    0.0000 C   0  0  0  0  0  0  0  0  0  0  0  0
    0.9440    5.1200    0.0000 C   0  0  0  0  0  0  0  0  0  0  0  0
    2.6760    5.1200    0.0000 C   0  0  0  0  0  0  0  0  0  0  0  0
    1.3100    6.4860    0.0000 C   0  0  0  0  0  0  0  0  0  0  0  0
    4.3100    6.4860    0.0000 C   0  0  0  0  0  0  0  0  0  0  0  0
    3.3100    7.4860    0.0000 C   0  0  0  0  0  0  0  0  0  0  0  0
    3.3100    5.4860    0.0000 C   0  0  0  0  0  0  0  0  0  0  0  0
    1.8100    3.6200    0.0000 C   0  0  0  0  0  0  0  0  0  0  0  0
    1.8100    2.6200    0.0000 C   0  0  0  0  0  0  0  0  0  0  0  0
    0.9440    2.1200    0.0000 C   0  0  0  0  0  0  0  0  0  0  0  0
    2.6760    2.1200    0.0000 C   0  0  0  0  0  0  0  0  0  0  0  0
    0.9440    1.1200    0.0000 C   0  0  0  0  0  0  0  0  0  0  0  0
    2.6760    1.1200    0.0000 C   0  0  0  0  0  0  0  0  0  0  0  0
    1.8100    0.6200    0.0000 C   0  0  0  0  0  0  0  0  0  0  0  0
    2.4177    7.0966    0.0000 H   0  0  0  0  0  0  0  0  0  0  0  0
    1.7274    6.6981    0.0000 H   0  0  0  0  0  0  0  0  0  0  0  0
    0.7319    5.7026    0.0000 H   0  0  0  0  0  0  0  0  0  0  0  0
    0.3334    5.0123    0.0000 H   0  0  0  0  0  0  0  0  0  0  0  0
    3.2866    5.0123    0.0000 H   0  0  0  0  0  0  0  0  0  0  0  0
    2.8881    5.7026    0.0000 H   0  0  0  0  0  0  0  0  0  0  0  0
    1.8926    6.6981    0.0000 H   0  0  0  0  0  0  0  0  0  0  0  0
    1.2023    7.0966    0.0000 H   0  0  0  0  0  0  0  0  0  0  0  0
    2.6900    5.4860    0.0000 H   0  0  0  0  0  0  0  0  0  0  0  0
    4.3100    5.8660    0.0000 H   0  0  0  0  0  0  0  0  0  0  0  0
    3.3100    4.8660    0.0000 H   0  0  0  0  0  0  0  0  0  0  0  0
    3.9300    5.4860    0.0000 H   0  0  0  0  0  0  0  0  0  0  0  0
    3.9300    7.4860    0.0000 H   0  0  0  0  0  0  0  0  0  0  0  0
    3.3100    8.1060    0.0000 H   0  0  0  0  0  0  0  0  0  0  0  0
    2.6900    7.4860    0.0000 H   0  0  0  0  0  0  0  0  0  0  0  0
    4.9300    6.4860    0.0000 H   0  0  0  0  0  0  0  0  0  0  0  0
    4.3100    7.1060    0.0000 H   0  0  0  0  0  0  0  0  0  0  0  0
    2.3469    3.3100    0.0000 H   0  0  0  0  0  0  0  0  0  0  0  0
    0.0000    7.0230    0.0000 H   0  0  0  0  0  0  0  0  0  0  0  0
    0.4070    2.4300    0.0000 H   0  0  0  0  0  0  0  0  0  0  0  0
    3.2130    2.4300    0.0000 H   0  0  0  0  0  0  0  0  0  0  0  0
    0.4070    0.8100    0.0000 H   0  0  0  0  0  0  0  0  0  0  0  0
    3.2130    0.8100    0.0000 H   0  0  0  0  0  0  0  0  0  0  0  0
    1.8100    0.0000    0.0000 H   0  0  0  0  0  0  0  0  0  0  0  0
  2  9  1  0  0  0  0
  2 14  1  0  0  0  0
  3  8  1  0  0  0  0
  3 14  1  0  0  0  0
  4 10  1  0  0  0  0
  4 39  1  0  0  0  0
  5  7  1  0  0  0  0
  5 11  1  0  0  0  0
  5 12  1  0  0  0  0
  5 13  1  0  0  0  0
  6  7  1  0  0  0  0
  6  8  1  0  0  0  0
  6  9  1  0  0  0  0
  6 10  1  0  0  0  0
  7 21  1  0  0  0  0
  7 22  1  0  0  0  0
  8 23  1  0  0  0  0
  8 24  1  0  0  0  0
  9 25  1  0  0  0  0
  9 26  1  0  0  0  0
 10 27  1  0  0  0  0
 10 28  1  0  0  0  0
 11 30  1  0  0  0  0
 11 36  1  0  0  0  0
 11 37  1  0  0  0  0
 12 33  1  0  0  0  0
 12 34  1  0  0  0  0
 12 35  1  0  0  0  0
 13 29  1  0  0  0  0
 13 31  1  0  0  0  0
 13 32  1  0  0  0  0
 14 15  1  0  0  0  0
 14 38  1  0  0  0  0
 15 16  2  0  0  0  0
 15 17  1  0  0  0  0
 16 18  1  0  0  0  0
 16 40  1  0  0  0  0
 17 19  2  0  0  0  0
 17 41  1  0  0  0  0
 18 20  2  0  0  0  0
 18 42  1  0  0  0  0
 19 20  1  0  0  0  0
 19 43  1  0  0  0  0
 20 44  1  0  0  0  0
M  CHG  2   1  -1   5   1
M  END
> <PUBCHEM_COMPOUND_CID>
13933

> <PUBCHEM_COMPOUND_CANONICALIZED>
1

> <PUBCHEM_CACTVS_COMPLEXITY>
274

> <PUBCHEM_CACTVS_HBOND_ACCEPTOR>
4

> <PUBCHEM_CACTVS_HBOND_DONOR>
1

> <PUBCHEM_CACTVS_ROTATABLE_BOND>
4

> <PUBCHEM_CACTVS_SUBSKEYS>
AAADceByMAAAEAAAAAAAAAAAAAAAAAAAAAA0QAAAAAAAAAABAAAAHgAACAAADgDxmAcyCIMABgCAAiBCAAACAAAgAAAIiAAICIgYNiKAMRimcAAnwAEMqAeAwCAOAAAAAAAAAAAAAAAAAAAAAAAAAAAAAA==

> <PUBCHEM_IUPAC_OPENEYE_NAME>
[5-(hydroxymethyl)-2-phenyl-1,3-dioxan-5-yl]methyl-trimethyl-ammonium bromide

> <PUBCHEM_IUPAC_CAS_NAME>
[5-(hydroxymethyl)-2-phenyl-1,3-dioxan-5-yl]methyl-trimethylammonium bromide

> <PUBCHEM_IUPAC_NAME>
[5-(hydroxymethyl)-2-phenyl-1,3-dioxan-5-yl]methyl-trimethylazanium bromide

> <PUBCHEM_IUPAC_SYSTEMATIC_NAME>
[5-(hydroxymethyl)-2-phenyl-1,3-dioxan-5-yl]methyl-trimethyl-azanium bromide

> <PUBCHEM_IUPAC_TRADITIONAL_NAME>
trimethyl-[(5-methylol-2-phenyl-1,3-dioxan-5-yl)methyl]ammonium bromide

> <PUBCHEM_IUPAC_INCHI>
InChI=1S/C15H24NO3.BrH/c1-16(2,3)9-15(10-17)11-18-14(19-12-15)13-7-5-4-6-8-13;/h4-8,14,17H,9-12H2,1-3H3;1H/q+1;/p-1

> <PUBCHEM_IUPAC_INCHIKEY>
SMYPXRRNUNYQND-UHFFFAOYSA-M

> <PUBCHEM_EXACT_MASS>
345.093956

> <PUBCHEM_MOLECULAR_FORMULA>
C15H24BrNO3

> <PUBCHEM_MOLECULAR_WEIGHT>
346.25996

> <PUBCHEM_OPENEYE_CAN_SMILES>
C[N+](C)(C)CC1(COC(OC1)C2=CC=CC=C2)CO.[Br-]

> <PUBCHEM_OPENEYE_ISO_SMILES>
C[N+](C)(C)CC1(COC(OC1)C2=CC=CC=C2)CO.[Br-]

> <PUBCHEM_CACTVS_TPSA>
38.7

> <PUBCHEM_MONOISOTOPIC_WEIGHT>
345.093956

> <PUBCHEM_TOTAL_CHARGE>
0

> <PUBCHEM_HEAVY_ATOM_COUNT>
20

> <PUBCHEM_ATOM_DEF_STEREO_COUNT>
0

> <PUBCHEM_ATOM_UDEF_STEREO_COUNT>
0

> <PUBCHEM_BOND_DEF_STEREO_COUNT>
0

> <PUBCHEM_BOND_UDEF_STEREO_COUNT>
0

> <PUBCHEM_ISOTOPIC_ATOM_COUNT>
0

> <PUBCHEM_COMPONENT_COUNT>
2

> <PUBCHEM_CACTVS_TAUTO_COUNT>
1

> <PUBCHEM_COORDINATE_TYPE>
1
5
255

> <PUBCHEM_BONDANNOTATIONS>
15  16  8
15  17  8
16  18  8
17  19  8
18  20  8
19  20  8

$$$$

