440544
  -OEChem-07051212502D

 29 29  0     1  0  0  0  0  0999 V2000
    6.2690    2.0880    0.0000 P   0  0  0  0  0  0  0  0  0  0  0  0
    5.1350   -0.1440    0.0000 O   0  0  0  0  0  0  0  0  0  0  0  0
    2.5369    0.3560    0.0000 O   0  0  0  0  0  0  0  0  0  0  0  0
    3.7690    1.2220    0.0000 O   0  0  0  0  0  0  0  0  0  0  0  0
    2.5369   -1.6440    0.0000 O   0  0  0  0  0  0  0  0  0  0  0  0
    4.2690   -2.6440    0.0000 O   0  0  0  0  0  0  0  0  0  0  0  0
    5.7690    1.2220    0.0000 O   0  0  0  0  0  0  0  0  0  0  0  0
    6.7690    2.9540    0.0000 O   0  0  0  0  0  0  0  0  0  0  0  0
    7.1350    1.5880    0.0000 O   0  0  0  0  0  0  0  0  0  0  0  0
    5.4030    2.5880    0.0000 O   0  0  0  0  0  0  0  0  0  0  0  0
    3.4030   -0.1440    0.0000 C   0  0  2  0  0  0  0  0  0  0  0  0
    4.2690    0.3560    0.0000 C   0  0  3  0  0  0  0  0  0  0  0  0
    3.4030   -1.1440    0.0000 C   0  0  1  0  0  0  0  0  0  0  0  0
    4.2690   -1.6440    0.0000 C   0  0  1  0  0  0  0  0  0  0  0  0
    5.1350   -1.1440    0.0000 C   0  0  0  0  0  0  0  0  0  0  0  0
    4.7690    1.2220    0.0000 C   0  0  0  0  0  0  0  0  0  0  0  0
    3.4030    0.4760    0.0000 H   0  0  0  0  0  0  0  0  0  0  0  0
    3.4030   -1.7640    0.0000 H   0  0  0  0  0  0  0  0  0  0  0  0
    4.8059   -1.9540    0.0000 H   0  0  0  0  0  0  0  0  0  0  0  0
    5.3471   -1.7266    0.0000 H   0  0  0  0  0  0  0  0  0  0  0  0
    5.7456   -1.0364    0.0000 H   0  0  0  0  0  0  0  0  0  0  0  0
    4.8766    1.8326    0.0000 H   0  0  0  0  0  0  0  0  0  0  0  0
    4.1864    1.4340    0.0000 H   0  0  0  0  0  0  0  0  0  0  0  0
    2.0000    0.0460    0.0000 H   0  0  0  0  0  0  0  0  0  0  0  0
    4.0790    1.7589    0.0000 H   0  0  0  0  0  0  0  0  0  0  0  0
    2.5369   -2.2640    0.0000 H   0  0  0  0  0  0  0  0  0  0  0  0
    4.8059   -2.9540    0.0000 H   0  0  0  0  0  0  0  0  0  0  0  0
    7.3890    2.9540    0.0000 H   0  0  0  0  0  0  0  0  0  0  0  0
    7.6720    1.8980    0.0000 H   0  0  0  0  0  0  0  0  0  0  0  0
  1  7  1  0  0  0  0
  1  8  1  0  0  0  0
  1  9  1  0  0  0  0
  1 10  2  0  0  0  0
  2 12  1  0  0  0  0
  2 15  1  0  0  0  0
 11  3  1  6  0  0  0
  3 24  1  0  0  0  0
  4 12  1  0  0  0  0
  4 25  1  0  0  0  0
 13  5  1  1  0  0  0
  5 26  1  0  0  0  0
 14  6  1  1  0  0  0
  6 27  1  0  0  0  0
  7 16  1  0  0  0  0
  8 28  1  0  0  0  0
  9 29  1  0  0  0  0
 11 12  1  0  0  0  0
 11 13  1  0  0  0  0
 11 17  1  0  0  0  0
 12 16  1  0  0  0  0
 13 14  1  0  0  0  0
 13 18  1  0  0  0  0
 14 15  1  0  0  0  0
 14 19  1  0  0  0  0
 15 20  1  0  0  0  0
 15 21  1  0  0  0  0
 16 22  1  0  0  0  0
 16 23  1  0  0  0  0
M  END
> <PUBCHEM_COMPOUND_CID>
440544

> <PUBCHEM_COMPOUND_CANONICALIZED>
1

> <PUBCHEM_CACTVS_COMPLEXITY>
290

> <PUBCHEM_CACTVS_HBOND_ACCEPTOR>
9

> <PUBCHEM_CACTVS_HBOND_DONOR>
6

> <PUBCHEM_CACTVS_ROTATABLE_BOND>
3

> <PUBCHEM_CACTVS_SUBSKEYS>
AAADccBgPAIAAAAAAAAAAAAAAAAAAAAAAAAkAAAAAAAAAAAAAAAAGgAACCAACBSggAIACAAABxAAQAAAAIAAAAAAAAAAAAAAAAAREAIAAAACQAAFAAAHAAHAYAQAAAAAAAAAAAAAAAAAAAAAAAAAAAAAAA==

> <PUBCHEM_IUPAC_OPENEYE_NAME>
[(3S,4R,5R)-2,3,4,5-tetrahydroxytetrahydropyran-2-yl]methyl dihydrogen phosphate

> <PUBCHEM_IUPAC_CAS_NAME>
[(3S,4R,5R)-2,3,4,5-tetrahydroxy-2-oxanyl]methyl dihydrogen phosphate

> <PUBCHEM_IUPAC_NAME>
[(3S,4R,5R)-2,3,4,5-tetrahydroxyoxan-2-yl]methyl dihydrogen phosphate

> <PUBCHEM_IUPAC_SYSTEMATIC_NAME>
[(3S,4R,5R)-2,3,4,5-tetrakis(oxidanyl)oxan-2-yl]methyl dihydrogen phosphate

> <PUBCHEM_IUPAC_TRADITIONAL_NAME>
[(3S,4R,5R)-2,3,4,5-tetrahydroxytetrahydropyran-2-yl]methyl dihydrogen phosphate

> <PUBCHEM_IUPAC_INCHI>
InChI=1S/C6H13O9P/c7-3-1-14-6(10,5(9)4(3)8)2-15-16(11,12)13/h3-5,7-10H,1-2H2,(H2,11,12,13)/t3-,4-,5+,6?/m1/s1

> <PUBCHEM_IUPAC_INCHIKEY>
HXRNACQBNUPKDX-VRPWFDPXSA-N

> <PUBCHEM_XLOGP3_AA>
-4.5

> <PUBCHEM_EXACT_MASS>
260.029719

> <PUBCHEM_MOLECULAR_FORMULA>
C6H13O9P

> <PUBCHEM_MOLECULAR_WEIGHT>
260.135782

> <PUBCHEM_OPENEYE_CAN_SMILES>
C1C(C(C(C(O1)(COP(=O)(O)O)O)O)O)O

> <PUBCHEM_OPENEYE_ISO_SMILES>
C1[C@H]([C@H]([C@@H](C(O1)(COP(=O)(O)O)O)O)O)O

> <PUBCHEM_CACTVS_TPSA>
157

> <PUBCHEM_MONOISOTOPIC_WEIGHT>
260.029719

> <PUBCHEM_TOTAL_CHARGE>
0

> <PUBCHEM_HEAVY_ATOM_COUNT>
16

> <PUBCHEM_ATOM_DEF_STEREO_COUNT>
3

> <PUBCHEM_ATOM_UDEF_STEREO_COUNT>
1

> <PUBCHEM_BOND_DEF_STEREO_COUNT>
0

> <PUBCHEM_BOND_UDEF_STEREO_COUNT>
0

> <PUBCHEM_ISOTOPIC_ATOM_COUNT>
0

> <PUBCHEM_COMPONENT_COUNT>
1

> <PUBCHEM_CACTVS_TAUTO_COUNT>
1

> <PUBCHEM_COORDINATE_TYPE>
1
5
255

> <PUBCHEM_BONDANNOTATIONS>
12  16  3
11  3  6
13  5  5
14  6  5

$$$$

