9543305
  -OEChem-07051213112D

 20 19  0     0  0  0  0  0  0999 V2000
    6.0010   -1.8100    0.0000 Cl  0  0  0  0  0  0  0  0  0  0  0  0
    5.1350    0.6900    0.0000 O   0  0  0  0  0  0  0  0  0  0  0  0
    2.5369   -0.8100    0.0000 O   0  0  0  0  0  0  0  0  0  0  0  0
    7.7331    1.1900    0.0000 O   0  0  0  0  0  0  0  0  0  0  0  0
    3.4030    0.6900    0.0000 O   0  0  0  0  0  0  0  0  0  0  0  0
    6.0010    1.1900    0.0000 O   0  0  0  0  0  0  0  0  0  0  0  0
    4.2690   -0.8100    0.0000 C   0  0  0  0  0  0  0  0  0  0  0  0
    6.8671   -0.3100    0.0000 C   0  0  0  0  0  0  0  0  0  0  0  0
    5.1350   -0.3100    0.0000 C   0  0  0  0  0  0  0  0  0  0  0  0
    6.0010   -0.8100    0.0000 C   0  0  0  0  0  0  0  0  0  0  0  0
    7.7331   -0.8100    0.0000 C   0  0  0  0  0  0  0  0  0  0  0  0
    3.4030   -0.3100    0.0000 C   0  0  0  0  0  0  0  0  0  0  0  0
    6.8671    0.6900    0.0000 C   0  0  0  0  0  0  0  0  0  0  0  0
    3.8705   -1.2850    0.0000 H   0  0  0  0  0  0  0  0  0  0  0  0
    4.6675   -1.2850    0.0000 H   0  0  0  0  0  0  0  0  0  0  0  0
    7.4231   -1.3469    0.0000 H   0  0  0  0  0  0  0  0  0  0  0  0
    8.2700   -1.1200    0.0000 H   0  0  0  0  0  0  0  0  0  0  0  0
    8.0431   -0.2731    0.0000 H   0  0  0  0  0  0  0  0  0  0  0  0
    2.0000   -0.5000    0.0000 H   0  0  0  0  0  0  0  0  0  0  0  0
    7.7331    1.8100    0.0000 H   0  0  0  0  0  0  0  0  0  0  0  0
  1 10  1  0  0  0  0
  2  9  2  0  0  0  0
  3 12  1  0  0  0  0
  3 19  1  0  0  0  0
  4 13  1  0  0  0  0
  4 20  1  0  0  0  0
  5 12  2  0  0  0  0
  6 13  2  0  0  0  0
  7  9  1  0  0  0  0
  7 12  1  0  0  0  0
  7 14  1  0  0  0  0
  7 15  1  0  0  0  0
  8 10  2  0  0  0  0
  8 11  1  0  0  0  0
  8 13  1  0  0  0  0
  9 10  1  0  0  0  0
 11 16  1  0  0  0  0
 11 17  1  0  0  0  0
 11 18  1  0  0  0  0
M  END
> <PUBCHEM_COMPOUND_CID>
9543305

> <PUBCHEM_COMPOUND_CANONICALIZED>
1

> <PUBCHEM_CACTVS_COMPLEXITY>
291

> <PUBCHEM_CACTVS_HBOND_ACCEPTOR>
5

> <PUBCHEM_CACTVS_HBOND_DONOR>
2

> <PUBCHEM_CACTVS_ROTATABLE_BOND>
4

> <PUBCHEM_CACTVS_SUBSKEYS>
AAADcYBgOAAEAAAAAAAAAAAAAAAAAAAAAAAAAAAAAAAAAAAAAAAAGgIACAAADAaAgAACCAAAAgCIAoDQCAAAAAAgAAAACAEAAkhABBQJAAAAUAAEoAAIEQIAAAAAAAAAAAAAAAAAAAAAAAAAAAAAAAAAAA==

> <PUBCHEM_IUPAC_OPENEYE_NAME>
(E)-3-chloro-2-methyl-4-oxo-hex-2-enedioic acid

> <PUBCHEM_IUPAC_CAS_NAME>
(E)-3-chloro-2-methyl-4-oxo-2-hexenedioic acid

> <PUBCHEM_IUPAC_NAME>
(E)-3-chloro-2-methyl-4-oxohex-2-enedioic acid

> <PUBCHEM_IUPAC_SYSTEMATIC_NAME>
(E)-3-chloranyl-2-methyl-4-oxidanylidene-hex-2-enedioic acid

> <PUBCHEM_IUPAC_TRADITIONAL_NAME>
(E)-3-chloro-4-keto-2-methyl-hex-2-enedioic acid

> <PUBCHEM_IUPAC_INCHI>
InChI=1S/C7H7ClO5/c1-3(7(12)13)6(8)4(9)2-5(10)11/h2H2,1H3,(H,10,11)(H,12,13)/b6-3+

> <PUBCHEM_IUPAC_INCHIKEY>
YXWGPDFKFBYCFE-ZZXKWVIFSA-N

> <PUBCHEM_XLOGP3_AA>
0.6

> <PUBCHEM_EXACT_MASS>
205.998201

> <PUBCHEM_MOLECULAR_FORMULA>
C7H7ClO5

> <PUBCHEM_MOLECULAR_WEIGHT>
206.58048

> <PUBCHEM_OPENEYE_CAN_SMILES>
CC(=C(C(=O)CC(=O)O)Cl)C(=O)O

> <PUBCHEM_OPENEYE_ISO_SMILES>
C/C(=C(/C(=O)CC(=O)O)\Cl)/C(=O)O

> <PUBCHEM_CACTVS_TPSA>
91.7

> <PUBCHEM_MONOISOTOPIC_WEIGHT>
205.998201

> <PUBCHEM_TOTAL_CHARGE>
0

> <PUBCHEM_HEAVY_ATOM_COUNT>
13

> <PUBCHEM_ATOM_DEF_STEREO_COUNT>
0

> <PUBCHEM_ATOM_UDEF_STEREO_COUNT>
0

> <PUBCHEM_BOND_DEF_STEREO_COUNT>
1

> <PUBCHEM_BOND_UDEF_STEREO_COUNT>
0

> <PUBCHEM_ISOTOPIC_ATOM_COUNT>
0

> <PUBCHEM_COMPONENT_COUNT>
1

> <PUBCHEM_CACTVS_TAUTO_COUNT>
8

> <PUBCHEM_COORDINATE_TYPE>
1
5
255

$$$$

