440112
  -OEChem-07051212483D

 17 17  0     0  0  0  0  0  0999 V2000
   -0.9217    1.4276    0.0145 O   0  0  0  0  0  0  0  0  0  0  0  0
   -3.4001    0.9573   -0.0105 O   0  0  0  0  0  0  0  0  0  0  0  0
   -3.0035   -1.3023   -0.0450 O   0  0  0  0  0  0  0  0  0  0  0  0
    1.1876   -0.4253    0.0284 N   0  0  0  0  0  0  0  0  0  0  0  0
    3.1444    0.2468   -0.7308 N   0  0  0  0  0  0  0  0  0  0  0  0
   -0.1939   -0.8989    0.0175 C   0  0  0  0  0  0  0  0  0  0  0  0
    1.9286   -0.1732    1.1355 C   0  0  0  0  0  0  0  0  0  0  0  0
    1.9424   -0.1649   -1.0682 C   0  0  0  0  0  0  0  0  0  0  0  0
   -1.1866    0.2346    0.0156 C   0  0  0  0  0  0  0  0  0  0  0  0
    3.1425    0.2433    0.6417 C   0  0  0  0  0  0  0  0  0  0  0  0
   -2.6398   -0.1447    0.0012 C   0  0  0  0  0  0  0  0  0  0  0  0
   -0.3243   -1.5101   -0.8812 H   0  0  0  0  0  0  0  0  0  0  0  0
   -0.3365   -1.5172    0.9095 H   0  0  0  0  0  0  0  0  0  0  0  0
    1.5553   -0.3014    2.1420 H   0  0  0  0  0  0  0  0  0  0  0  0
    1.5794   -0.2864   -2.0797 H   0  0  0  0  0  0  0  0  0  0  0  0
    4.0148    0.5418    1.2047 H   0  0  0  0  0  0  0  0  0  0  0  0
   -4.3579    0.7481   -0.0444 H   0  0  0  0  0  0  0  0  0  0  0  0
  1  9  2  0  0  0  0
  2 11  1  0  0  0  0
  2 17  1  0  0  0  0
  3 11  2  0  0  0  0
  4  6  1  0  0  0  0
  4  7  1  0  0  0  0
  4  8  1  0  0  0  0
  5  8  2  0  0  0  0
  5 10  1  0  0  0  0
  6  9  1  0  0  0  0
  6 12  1  0  0  0  0
  6 13  1  0  0  0  0
  7 10  2  0  0  0  0
  7 14  1  0  0  0  0
  8 15  1  0  0  0  0
  9 11  1  0  0  0  0
 10 16  1  0  0  0  0
M  END
> <PUBCHEM_COMPOUND_CID>
440112

> <PUBCHEM_CONFORMER_RMSD>
0.6

> <PUBCHEM_CONFORMER_DIVERSEORDER>
1
4
15
7
13
12
5
14
11
3
2
9
16
10
6
8

> <PUBCHEM_MMFF94_PARTIAL_CHARGES>
15
1 -0.57
10 0.08
11 0.72
14 0.15
15 0.15
16 0.15
17 0.5
2 -0.65
3 -0.57
4 0.05
5 -0.57
6 0.32
7 -0.3
8 0.04
9 0.51

> <PUBCHEM_EFFECTIVE_ROTOR_COUNT>
3

> <PUBCHEM_PHARMACOPHORE_FEATURES>
6
1 1 acceptor
1 2 acceptor
1 3 acceptor
3 2 3 11 anion
3 4 5 8 cation
5 4 5 7 8 10 rings

> <PUBCHEM_HEAVY_ATOM_COUNT>
11

> <PUBCHEM_ATOM_DEF_STEREO_COUNT>
0

> <PUBCHEM_ATOM_UDEF_STEREO_COUNT>
0

> <PUBCHEM_BOND_DEF_STEREO_COUNT>
0

> <PUBCHEM_BOND_UDEF_STEREO_COUNT>
0

> <PUBCHEM_ISOTOPIC_ATOM_COUNT>
0

> <PUBCHEM_COMPONENT_COUNT>
1

> <PUBCHEM_CACTVS_TAUTO_COUNT>
2

> <PUBCHEM_CONFORMER_ID>
0006B73000000001

> <PUBCHEM_MMFF94_ENERGY>
10.8587

> <PUBCHEM_FEATURE_SELFOVERLAP>
30.516

> <PUBCHEM_SHAPE_FINGERPRINT>
10219947 1 15698284404219092010
10857977 72 18334582308724170587
11031198 65 16298384609385835680
11062470 55 17203892967880359197
12897270 3 18186518829974338279
12932764 1 17060623308340880847
14325111 11 18410575093311211186
15310529 11 14996281439693524000
15775835 57 17917989486131821996
17844478 74 17530677697579484763
18175812 5 17821449049440217077
20201158 50 17313101968820153662
20279233 1 17676491652663818575
20645477 70 16153985867152373597
23402539 116 18334585637561169436
3248919 1 17561082505523321467
369184 2 15841550786397791321

> <PUBCHEM_SHAPE_MULTIPOLES>
198.8
5.7
1.04
0.91
1.31
0.06
0
0.36
0
0.73
0
-0.75
-0.03
0.02

> <PUBCHEM_SHAPE_SELFOVERLAP>
412.01

> <PUBCHEM_SHAPE_VOLUME>
114.4

> <PUBCHEM_COORDINATE_TYPE>
2
5
10

$$$$

