17395648
  -OEChem-06241222513D

 39 41  0     0  0  0  0  0  0999 V2000
    6.4721   -1.6870    0.1620 S   0  0  0  0  0  0  0  0  0  0  0  0
   -4.0456   -1.1816   -1.9646 O   0  0  0  0  0  0  0  0  0  0  0  0
    2.9876    0.1505   -0.0215 O   0  0  0  0  0  0  0  0  0  0  0  0
    1.3473    2.2233    0.0490 O   0  0  0  0  0  0  0  0  0  0  0  0
    3.4810   -2.0803   -0.2184 O   0  0  0  0  0  0  0  0  0  0  0  0
   -4.9531   -0.4580    0.0199 N   0  0  0  0  0  0  0  0  0  0  0  0
   -2.7914    1.6846   -0.5386 N   0  0  0  0  0  0  0  0  0  0  0  0
   -6.0413   -0.3512    2.1085 C   0  0  0  0  0  0  0  0  0  0  0  0
   -7.0281   -0.8582    1.0650 C   0  0  0  0  0  0  0  0  0  0  0  0
   -4.9673    0.3162    1.2606 C   0  0  0  0  0  0  0  0  0  0  0  0
   -6.1178   -1.3297   -0.0582 C   0  0  0  0  0  0  0  0  0  0  0  0
   -3.9515   -0.4873   -0.9507 C   0  0  0  0  0  0  0  0  0  0  0  0
   -2.7638    0.3242   -0.7017 C   0  0  0  0  0  0  0  0  0  0  0  0
   -1.4544   -0.0881   -0.5875 C   0  0  0  0  0  0  0  0  0  0  0  0
   -0.6673    1.0650   -0.3472 C   0  0  0  0  0  0  0  0  0  0  0  0
   -1.5195    2.1468   -0.3218 C   0  0  0  0  0  0  0  0  0  0  0  0
    0.7522    1.1412   -0.1592 C   0  0  0  0  0  0  0  0  0  0  0  0
    1.6144   -0.1341   -0.2070 C   0  0  0  0  0  0  0  0  0  0  0  0
    3.8481   -0.9226   -0.0466 C   0  0  0  0  0  0  0  0  0  0  0  0
    5.2354   -0.5026    0.1568 C   0  0  0  0  0  0  0  0  0  0  0  0
    5.7338    0.7662    0.3558 C   0  0  0  0  0  0  0  0  0  0  0  0
    7.1497    0.7658    0.5145 C   0  0  0  0  0  0  0  0  0  0  0  0
    7.6795   -0.5030    0.4308 C   0  0  0  0  0  0  0  0  0  0  0  0
   -5.6144   -1.1990    2.6580 H   0  0  0  0  0  0  0  0  0  0  0  0
   -6.4946    0.3338    2.8300 H   0  0  0  0  0  0  0  0  0  0  0  0
   -7.6577   -0.0304    0.7170 H   0  0  0  0  0  0  0  0  0  0  0  0
   -7.6798   -1.6515    1.4409 H   0  0  0  0  0  0  0  0  0  0  0  0
   -5.2454    1.3453    1.0099 H   0  0  0  0  0  0  0  0  0  0  0  0
   -3.9887    0.3110    1.7480 H   0  0  0  0  0  0  0  0  0  0  0  0
   -5.7772   -2.3585    0.1039 H   0  0  0  0  0  0  0  0  0  0  0  0
   -6.5847   -1.2641   -1.0454 H   0  0  0  0  0  0  0  0  0  0  0  0
   -1.1119   -1.1110   -0.6692 H   0  0  0  0  0  0  0  0  0  0  0  0
   -3.6197    2.2625   -0.5783 H   0  0  0  0  0  0  0  0  0  0  0  0
   -1.3412    3.2026   -0.1709 H   0  0  0  0  0  0  0  0  0  0  0  0
    1.2698   -0.8033    0.5895 H   0  0  0  0  0  0  0  0  0  0  0  0
    1.4698   -0.6024   -1.1872 H   0  0  0  0  0  0  0  0  0  0  0  0
    5.1241    1.6603    0.3883 H   0  0  0  0  0  0  0  0  0  0  0  0
    7.7492    1.6511    0.6816 H   0  0  0  0  0  0  0  0  0  0  0  0
    8.7178   -0.7913    0.5147 H   0  0  0  0  0  0  0  0  0  0  0  0
  1 20  1  0  0  0  0
  1 23  1  0  0  0  0
  2 12  2  0  0  0  0
  3 18  1  0  0  0  0
  3 19  1  0  0  0  0
  4 17  2  0  0  0  0
  5 19  2  0  0  0  0
  6 10  1  0  0  0  0
  6 11  1  0  0  0  0
  6 12  1  0  0  0  0
  7 13  1  0  0  0  0
  7 16  1  0  0  0  0
  7 33  1  0  0  0  0
  8  9  1  0  0  0  0
  8 10  1  0  0  0  0
  8 24  1  0  0  0  0
  8 25  1  0  0  0  0
  9 11  1  0  0  0  0
  9 26  1  0  0  0  0
  9 27  1  0  0  0  0
 10 28  1  0  0  0  0
 10 29  1  0  0  0  0
 11 30  1  0  0  0  0
 11 31  1  0  0  0  0
 12 13  1  0  0  0  0
 13 14  2  0  0  0  0
 14 15  1  0  0  0  0
 14 32  1  0  0  0  0
 15 16  2  0  0  0  0
 15 17  1  0  0  0  0
 16 34  1  0  0  0  0
 17 18  1  0  0  0  0
 18 35  1  0  0  0  0
 18 36  1  0  0  0  0
 19 20  1  0  0  0  0
 20 21  2  0  0  0  0
 21 22  1  0  0  0  0
 21 37  1  0  0  0  0
 22 23  2  0  0  0  0
 22 38  1  0  0  0  0
 23 39  1  0  0  0  0
M  END
> <PUBCHEM_COMPOUND_CID>
17395648

> <PUBCHEM_CONFORMER_RMSD>
1.2

> <PUBCHEM_CONFORMER_DIVERSEORDER>
1
8
26
3
19
41
31
62
58
18
16
11
13
46
33
50
61
34
40
12
43
25
9
17
55
37
56
53
39
38
20
15
54
28
14
48
29
64
42
2
6
10
7
45
32
21
68
36
23
49
66
57
22
67
51
52
24
44
35
5
69
27
47
60
63
30
59
4
65

> <PUBCHEM_MMFF94_PARTIAL_CHARGES>
27
1 -0.08
10 0.3
11 0.3
12 0.71
13 -0.24
14 -0.15
15 -0.09
16 -0.3
17 0.6
18 0.34
19 0.81
2 -0.57
20 -0.05
21 -0.15
22 -0.15
23 -0.11
3 -0.43
32 0.15
33 0.27
34 0.15
37 0.15
38 0.15
39 0.15
4 -0.57
5 -0.57
6 -0.66
7 0.03

> <PUBCHEM_EFFECTIVE_ROTOR_COUNT>
8

> <PUBCHEM_PHARMACOPHORE_FEATURES>
8
1 2 acceptor
1 4 acceptor
1 5 acceptor
1 7 cation
1 7 donor
5 1 20 21 22 23 rings
5 6 8 9 10 11 rings
5 7 13 14 15 16 rings

> <PUBCHEM_HEAVY_ATOM_COUNT>
23

> <PUBCHEM_ATOM_DEF_STEREO_COUNT>
0

> <PUBCHEM_ATOM_UDEF_STEREO_COUNT>
0

> <PUBCHEM_BOND_DEF_STEREO_COUNT>
0

> <PUBCHEM_BOND_UDEF_STEREO_COUNT>
0

> <PUBCHEM_ISOTOPIC_ATOM_COUNT>
0

> <PUBCHEM_COMPONENT_COUNT>
1

> <PUBCHEM_CACTVS_TAUTO_COUNT>
7

> <PUBCHEM_CONFORMER_ID>
01096FC000000001

> <PUBCHEM_MMFF94_ENERGY>
36.4627

> <PUBCHEM_FEATURE_SELFOVERLAP>
40.594

> <PUBCHEM_SHAPE_FINGERPRINT>
10 15 17240478117941233571
10066227 112 6411288040607654042
10299344 5 17967532363720253322
10554248 39 9655575228113470816
10670039 82 10663829576179267391
10674148 151 16630526229299345097
11089746 13 11167940264599219622
11315181 36 17385730167012767815
12166972 35 16487249959377502156
12516196 113 18407760335402556528
12596602 18 17676481778397030947
12760667 363 18272086093950968739
13073987 5 18270685384798688482
13668630 136 16988843899830716914
13673619 4 17203322287587406293
13685833 64 18343018887129464578
13885169 127 18059576927784237413
1420 363 18344145904128802122
14251757 52 14779554448739445786
14251764 18 17749390347654213023
14849402 71 17822857446922412496
14856354 85 17022905618775743853
15461852 350 15123507021819811906
15537594 2 18335426776414669342
15716309 27 18407760339227921434
16110190 28 18186520977458214071
17093844 174 18272373092509180229
17492 89 18124601044607745242
17780758 139 17894348865844466963
1813 80 18340752802724428693
18335252 114 9079117730789076394
18335252 98 18413106174407235274
190975 80 18411136909519984074
19377110 9 18335695053289032544
19489759 90 13542466479259877255
20281389 69 6843918378030044134
21033648 29 6699508478326218638
21049683 271 18271802381413387596
21150785 3 14979954761963740138
21267235 1 18410008858578025780
21521721 280 18114185190758373658
21623969 137 18342733026880920658
220451 1 17821452357198187310
22224240 67 17385727984578934254
22288116 15 12247385779578008465
23522609 53 17969764320458776448
23559900 14 18337969895285964140
3044373 193 15913042055229302700
3383291 50 18060135423070869338
4325135 7 18411421705160263084
5104073 3 18264212589963418832
5758199 1 18040155089861028626
636775 8 17774992493050397514
6691757 9 16515401842906820839
7226269 152 15719386261776547595
9862886 166 17132109126251893794
999808 66 18131345306923997363

> <PUBCHEM_SHAPE_MULTIPOLES>
443.74
22.24
1.8
1.19
13.54
0.42
0.17
-9.23
7.39
0.55
-0.16
-2.48
-0.25
0.38

> <PUBCHEM_SHAPE_SELFOVERLAP>
937.903

> <PUBCHEM_SHAPE_VOLUME>
250.6

> <PUBCHEM_COORDINATE_TYPE>
2
5
10

$$$$

