159846
  -OEChem-07051213093D

 26 27  0     0  0  0  0  0  0999 V2000
   -0.3840   -2.4326   -0.0001 O   0  0  0  0  0  0  0  0  0  0  0  0
    3.0914   -0.2026    0.0000 O   0  0  0  0  0  0  0  0  0  0  0  0
   -5.2855    0.7639    0.0018 O   0  0  0  0  0  0  0  0  0  0  0  0
    4.4230    1.6853   -0.0001 O   0  0  0  0  0  0  0  0  0  0  0  0
   -0.6104    0.3262   -0.0001 C   0  0  0  0  0  0  0  0  0  0  0  0
   -1.8039   -0.5084   -0.0005 C   0  0  0  0  0  0  0  0  0  0  0  0
    0.7076   -0.2606    0.0003 C   0  0  0  0  0  0  0  0  0  0  0  0
   -2.9613    0.3445   -0.0008 C   0  0  0  0  0  0  0  0  0  0  0  0
   -1.0455    1.5986   -0.0003 C   0  0  0  0  0  0  0  0  0  0  0  0
    1.9251    0.6034    0.0001 C   0  0  0  0  0  0  0  0  0  0  0  0
   -2.5052    1.6087   -0.0006 C   0  0  0  0  0  0  0  0  0  0  0  0
   -1.6418   -1.8351   -0.0004 C   0  0  0  0  0  0  0  0  0  0  0  0
    0.7409   -1.6084    0.0003 C   0  0  0  0  0  0  0  0  0  0  0  0
   -4.3575   -0.0477   -0.0002 C   0  0  0  0  0  0  0  0  0  0  0  0
    4.2843    0.4696    0.0000 C   0  0  0  0  0  0  0  0  0  0  0  0
    5.4229   -0.5049    0.0005 C   0  0  0  0  0  0  0  0  0  0  0  0
   -0.4430    2.4932   -0.0002 H   0  0  0  0  0  0  0  0  0  0  0  0
    1.9269    1.2384    0.8944 H   0  0  0  0  0  0  0  0  0  0  0  0
    1.9268    1.2385   -0.8941 H   0  0  0  0  0  0  0  0  0  0  0  0
   -3.0923    2.5137   -0.0003 H   0  0  0  0  0  0  0  0  0  0  0  0
   -2.4291   -2.5736   -0.0007 H   0  0  0  0  0  0  0  0  0  0  0  0
    1.6330   -2.2193    0.0005 H   0  0  0  0  0  0  0  0  0  0  0  0
   -4.5534   -1.1321   -0.0002 H   0  0  0  0  0  0  0  0  0  0  0  0
    5.3786   -1.1262   -0.8975 H   0  0  0  0  0  0  0  0  0  0  0  0
    5.3795   -1.1242    0.8998 H   0  0  0  0  0  0  0  0  0  0  0  0
    6.3696    0.0428   -0.0006 H   0  0  0  0  0  0  0  0  0  0  0  0
  1 12  1  0  0  0  0
  1 13  1  0  0  0  0
  2 10  1  0  0  0  0
  2 15  1  0  0  0  0
  3 14  2  0  0  0  0
  4 15  2  0  0  0  0
  5  6  1  0  0  0  0
  5  7  1  0  0  0  0
  5  9  2  0  0  0  0
  6  8  1  0  0  0  0
  6 12  2  0  0  0  0
  7 10  1  0  0  0  0
  7 13  2  0  0  0  0
  8 11  2  0  0  0  0
  8 14  1  0  0  0  0
  9 11  1  0  0  0  0
  9 17  1  0  0  0  0
 10 18  1  0  0  0  0
 10 19  1  0  0  0  0
 11 20  1  0  0  0  0
 12 21  1  0  0  0  0
 13 22  1  0  0  0  0
 14 23  1  0  0  0  0
 15 16  1  0  0  0  0
 16 24  1  0  0  0  0
 16 25  1  0  0  0  0
 16 26  1  0  0  0  0
M  END
> <PUBCHEM_COMPOUND_CID>
159846

> <PUBCHEM_CONFORMER_RMSD>
0.6

> <PUBCHEM_CONFORMER_DIVERSEORDER>
1
17
13
11
22
15
16
19
14
8
18
23
4
20
3
21
7
6
5
12
2
9
10

> <PUBCHEM_MMFF94_PARTIAL_CHARGES>
19
1 -0.15
10 0.42
11 -0.15
12 -0.07
13 -0.07
14 0.5
15 0.66
16 0.06
17 0.15
2 -0.43
20 0.15
21 0.15
22 0.15
23 0.06
3 -0.57
4 -0.57
7 -0.14
8 0.01
9 -0.15

> <PUBCHEM_EFFECTIVE_ROTOR_COUNT>
4

> <PUBCHEM_PHARMACOPHORE_FEATURES>
5
1 1 acceptor
1 3 acceptor
1 4 acceptor
5 5 6 8 9 11 rings
6 1 5 6 7 12 13 rings

> <PUBCHEM_HEAVY_ATOM_COUNT>
16

> <PUBCHEM_ATOM_DEF_STEREO_COUNT>
0

> <PUBCHEM_ATOM_UDEF_STEREO_COUNT>
0

> <PUBCHEM_BOND_DEF_STEREO_COUNT>
0

> <PUBCHEM_BOND_UDEF_STEREO_COUNT>
0

> <PUBCHEM_ISOTOPIC_ATOM_COUNT>
0

> <PUBCHEM_COMPONENT_COUNT>
1

> <PUBCHEM_CACTVS_TAUTO_COUNT>
1

> <PUBCHEM_CONFORMER_ID>
0002706600000001

> <PUBCHEM_MMFF94_ENERGY>
55.1051

> <PUBCHEM_FEATURE_SELFOVERLAP>
25.47

> <PUBCHEM_SHAPE_FINGERPRINT>
12236239 1 17775566429555963780
12390115 104 18116417318899936041
12592029 89 18342458192203146954
13081056 2 18409449193831844380
13140716 1 18195236733644586465
13214271 11 18412824664622477759
13380535 76 18410008853402577527
13862211 1 18410578366424586799
15042514 8 18340483344760587771
15196674 1 18338516343889994950
15536298 74 18262517125347551614
16945 1 18335717052348425203
17846911 113 18409168813623141497
187816 3 17821728342515512657
200 152 16805323297056782438
204376 136 18411979156917358611
20510252 161 18261671575051715689
20645477 56 18410576146047749136
20645477 70 16878214368759860622
21267235 1 18411973685340052562
21524375 3 18409729581844102054
23402539 116 18334583429731701645
23402655 69 18189060935956233109
23559900 14 18261394404512904632
2748010 2 18124030397845387709
335352 9 18410856568741382046
351380 180 18333734615524503252
3545911 37 18409166598285303364
366044 4 18411138039022536227
4340502 62 16917344857815503923
474 4 17202197409856744428
474229 33 18410856560077886327
5104073 3 18339644434826206466
69090 78 18335422357024768046
7364860 26 18191585465592256262
9709674 26 18334851702391018118

> <PUBCHEM_SHAPE_MULTIPOLES>
305.8
9.67
1.88
0.59
6.73
0.59
0
-2.7
0
-0.27
0
-0.01
0
0

> <PUBCHEM_SHAPE_SELFOVERLAP>
658.888

> <PUBCHEM_SHAPE_VOLUME>
167.8

> <PUBCHEM_COORDINATE_TYPE>
2
5
10

$$$$

