3114
  -OEChem-07051212523D

 54 55  0     1  0  0  0  0  0999 V2000
    0.0194    0.9165    2.6221 O   0  0  0  0  0  0  0  0  0  0  0  0
   -2.2177    0.5965   -0.3915 N   0  0  0  0  0  0  0  0  0  0  0  0
    2.6156    0.8873   -1.2239 N   0  0  0  0  0  0  0  0  0  0  0  0
    1.1760    2.6073    1.6198 N   0  0  0  0  0  0  0  0  0  0  0  0
    0.7627    0.5447    0.2973 C   0  0  1  0  0  0  0  0  0  0  0  0
    0.0474    1.4753   -0.7636 C   0  0  0  0  0  0  0  0  0  0  0  0
   -1.4211    1.8195   -0.4537 C   0  0  0  0  0  0  0  0  0  0  0  0
   -3.6037    0.9050   -0.0392 C   0  0  0  0  0  0  0  0  0  0  0  0
   -2.1625   -0.1168   -1.6675 C   0  0  0  0  0  0  0  0  0  0  0  0
    0.1203   -0.8673    0.4069 C   0  0  0  0  0  0  0  0  0  0  0  0
    2.2598    0.3295   -0.0773 C   0  0  0  0  0  0  0  0  0  0  0  0
    0.6273    1.3392    1.6383 C   0  0  0  0  0  0  0  0  0  0  0  0
   -4.4261   -0.3798   -0.0407 C   0  0  0  0  0  0  0  0  0  0  0  0
   -3.6633    1.5924    1.3220 C   0  0  0  0  0  0  0  0  0  0  0  0
   -2.7694    0.7543   -2.7630 C   0  0  0  0  0  0  0  0  0  0  0  0
   -0.7218   -0.4931   -2.0015 C   0  0  0  0  0  0  0  0  0  0  0  0
    0.6342   -1.8597   -0.3754 C   0  0  0  0  0  0  0  0  0  0  0  0
   -0.9174   -1.0259    1.2780 C   0  0  0  0  0  0  0  0  0  0  0  0
    3.0121   -0.3878    0.7914 C   0  0  0  0  0  0  0  0  0  0  0  0
    0.0581   -3.1262   -0.2774 C   0  0  0  0  0  0  0  0  0  0  0  0
   -1.4936   -2.2924    1.3761 C   0  0  0  0  0  0  0  0  0  0  0  0
    4.3430   -0.5616    0.4282 C   0  0  0  0  0  0  0  0  0  0  0  0
   -1.0058   -3.3426    0.5984 C   0  0  0  0  0  0  0  0  0  0  0  0
    3.9153    0.6973   -1.5438 C   0  0  0  0  0  0  0  0  0  0  0  0
    4.8111   -0.0119   -0.7601 C   0  0  0  0  0  0  0  0  0  0  0  0
    0.2755    1.4547   -1.8364 H   0  0  0  0  0  0  0  0  0  0  0  0
    0.5223    2.4634   -0.6398 H   0  0  0  0  0  0  0  0  0  0  0  0
   -1.7959    2.5627   -1.1663 H   0  0  0  0  0  0  0  0  0  0  0  0
   -1.4241    2.3380    0.5087 H   0  0  0  0  0  0  0  0  0  0  0  0
   -4.0720    1.6150   -0.7303 H   0  0  0  0  0  0  0  0  0  0  0  0
   -2.7059   -1.0660   -1.6185 H   0  0  0  0  0  0  0  0  0  0  0  0
   -4.6577   -0.7432   -1.0466 H   0  0  0  0  0  0  0  0  0  0  0  0
   -5.4005   -0.1996    0.4302 H   0  0  0  0  0  0  0  0  0  0  0  0
   -3.9533   -1.1836    0.5296 H   0  0  0  0  0  0  0  0  0  0  0  0
   -4.7051    1.6686    1.6572 H   0  0  0  0  0  0  0  0  0  0  0  0
   -3.1273    1.0411    2.0991 H   0  0  0  0  0  0  0  0  0  0  0  0
   -3.2903    2.6208    1.2970 H   0  0  0  0  0  0  0  0  0  0  0  0
   -3.8239    1.0005   -2.6186 H   0  0  0  0  0  0  0  0  0  0  0  0
   -2.7560    0.1907   -3.7064 H   0  0  0  0  0  0  0  0  0  0  0  0
   -2.2152    1.6741   -2.9707 H   0  0  0  0  0  0  0  0  0  0  0  0
    0.3055   -0.2511   -1.8389 H   0  0  0  0  0  0  0  0  0  0  0  0
   -0.6587   -0.1919   -3.0689 H   0  0  0  0  0  0  0  0  0  0  0  0
   -0.7633   -1.5773   -2.1949 H   0  0  0  0  0  0  0  0  0  0  0  0
    1.4726   -1.7726   -1.0591 H   0  0  0  0  0  0  0  0  0  0  0  0
   -1.4199   -0.2742    1.8596 H   0  0  0  0  0  0  0  0  0  0  0  0
    2.6426   -0.8010    1.7217 H   0  0  0  0  0  0  0  0  0  0  0  0
    1.1023    3.2099    2.4329 H   0  0  0  0  0  0  0  0  0  0  0  0
    1.7501    2.9552    0.8594 H   0  0  0  0  0  0  0  0  0  0  0  0
    0.4399   -3.9457   -0.8795 H   0  0  0  0  0  0  0  0  0  0  0  0
   -2.3318   -2.4597    2.0465 H   0  0  0  0  0  0  0  0  0  0  0  0
    5.0149   -1.1219    1.0715 H   0  0  0  0  0  0  0  0  0  0  0  0
   -1.4563   -4.3279    0.6726 H   0  0  0  0  0  0  0  0  0  0  0  0
    4.2304    1.1459   -2.4801 H   0  0  0  0  0  0  0  0  0  0  0  0
    5.8447   -0.1342   -1.0629 H   0  0  0  0  0  0  0  0  0  0  0  0
  1 12  2  0  0  0  0
  2  7  1  0  0  0  0
  2  8  1  0  0  0  0
  2  9  1  0  0  0  0
  3 11  1  0  0  0  0
  3 24  2  0  0  0  0
  4 12  1  0  0  0  0
  4 47  1  0  0  0  0
  4 48  1  0  0  0  0
  5  6  1  0  0  0  0
  5 10  1  0  0  0  0
  5 11  1  0  0  0  0
  5 12  1  0  0  0  0
  6  7  1  0  0  0  0
  6 26  1  0  0  0  0
  6 27  1  0  0  0  0
  7 28  1  0  0  0  0
  7 29  1  0  0  0  0
  8 13  1  0  0  0  0
  8 14  1  0  0  0  0
  8 30  1  0  0  0  0
  9 15  1  0  0  0  0
  9 16  1  0  0  0  0
  9 31  1  0  0  0  0
 10 17  2  0  0  0  0
 10 18  1  0  0  0  0
 11 19  2  0  0  0  0
 13 32  1  0  0  0  0
 13 33  1  0  0  0  0
 13 34  1  0  0  0  0
 14 35  1  0  0  0  0
 14 36  1  0  0  0  0
 14 37  1  0  0  0  0
 15 38  1  0  0  0  0
 15 39  1  0  0  0  0
 15 40  1  0  0  0  0
 16 41  1  0  0  0  0
 16 42  1  0  0  0  0
 16 43  1  0  0  0  0
 17 20  1  0  0  0  0
 17 44  1  0  0  0  0
 18 21  2  0  0  0  0
 18 45  1  0  0  0  0
 19 22  1  0  0  0  0
 19 46  1  0  0  0  0
 20 23  2  0  0  0  0
 20 49  1  0  0  0  0
 21 23  1  0  0  0  0
 21 50  1  0  0  0  0
 22 25  2  0  0  0  0
 22 51  1  0  0  0  0
 23 52  1  0  0  0  0
 24 25  1  0  0  0  0
 24 53  1  0  0  0  0
 25 54  1  0  0  0  0
M  END
> <PUBCHEM_COMPOUND_CID>
3114

> <PUBCHEM_CONFORMER_RMSD>
0.8

> <PUBCHEM_CONFORMER_DIVERSEORDER>
2
1
4
6
3
5

> <PUBCHEM_MMFF94_PARTIAL_CHARGES>
31
1 -0.57
10 -0.14
11 0.17
12 0.57
17 -0.15
18 -0.15
19 -0.15
2 -0.81
20 -0.15
21 -0.15
22 -0.15
23 -0.15
24 0.16
25 -0.15
3 -0.62
4 -0.8
44 0.15
45 0.15
46 0.15
47 0.37
48 0.37
49 0.15
5 0.35
50 0.15
51 0.15
52 0.15
53 0.15
54 0.15
7 0.27
8 0.27
9 0.27

> <PUBCHEM_EFFECTIVE_ROTOR_COUNT>
8

> <PUBCHEM_PHARMACOPHORE_FEATURES>
8
1 1 acceptor
1 2 cation
1 3 acceptor
1 4 donor
3 8 13 14 hydrophobe
3 9 15 16 hydrophobe
6 10 17 18 20 21 23 rings
6 3 11 19 22 24 25 rings

> <PUBCHEM_HEAVY_ATOM_COUNT>
25

> <PUBCHEM_ATOM_DEF_STEREO_COUNT>
0

> <PUBCHEM_ATOM_UDEF_STEREO_COUNT>
1

> <PUBCHEM_BOND_DEF_STEREO_COUNT>
0

> <PUBCHEM_BOND_UDEF_STEREO_COUNT>
0

> <PUBCHEM_ISOTOPIC_ATOM_COUNT>
0

> <PUBCHEM_COMPONENT_COUNT>
1

> <PUBCHEM_CACTVS_TAUTO_COUNT>
2

> <PUBCHEM_CONFORMER_ID>
00000C2A00000002

> <PUBCHEM_MMFF94_ENERGY>
192.9363

> <PUBCHEM_FEATURE_SELFOVERLAP>
40.594

> <PUBCHEM_SHAPE_FINGERPRINT>
10165383 225 18343292691605989797
10863032 1 18058720308718849590
10948715 1 16630253605136713173
11578080 2 18049997801493319208
12011746 2 18343301440554722031
12035758 1 18337110059922984419
12293681 4 17895181200019499081
12403814 3 17132112424955348013
12592029 89 17917144022083465778
12633257 1 17826199975181743827
12714826 92 18198049288652009410
12715332 25 18342179968358338770
12788726 201 17895746426601564640
13140716 1 18271530776059512896
13149001 5 18189345575812066448
133893 2 17623599809308665639
14251751 93 17060350625204423094
14787075 74 18408601483109007359
15209289 33 18334297569646129075
16752209 62 18339077078047129658
16945 1 18115608031012245925
17349148 13 18265335187156889962
17492 54 17775005635665712631
17980427 23 11815316261324874311
18981168 100 17842860848780360540
20600515 1 18336818732972116196
20691752 17 18193586456469149077
21330990 113 18272072912248262515
22907989 373 18129661872542694894
23227448 37 15983958347085073924
23402539 116 17822014246262914236
23419403 2 17898847937769114770
23559900 14 18408323264587945072
238 59 17913244032880537471
2748010 2 17977962193286853974
298252 57 17632310015838012060
34934 24 17824263924173273625
4340502 62 18267564975199639769
69090 78 17775845709567009388
81228 2 17697331615858163955

> <PUBCHEM_SHAPE_MULTIPOLES>
493.68
6.77
2.73
2.09
3.45
2.32
0.15
-1.86
1.39
-0.95
-0.59
-0.78
-0.86
0.12

> <PUBCHEM_SHAPE_SELFOVERLAP>
1055.553

> <PUBCHEM_SHAPE_VOLUME>
271.9

> <PUBCHEM_COORDINATE_TYPE>
2
5
10

$$$$

