68148
  -OEChem-07051213092D

 20 20  0     0  0  0  0  0  0999 V2000
    2.8660   -2.5950    0.0000 O   0  0  0  0  0  0  0  0  0  0  0  0
    2.8660    0.4050    0.0000 C   0  0  0  0  0  0  0  0  0  0  0  0
    2.8660    1.4050    0.0000 C   0  0  0  0  0  0  0  0  0  0  0  0
    2.0000   -0.0950    0.0000 C   0  0  0  0  0  0  0  0  0  0  0  0
    3.7320   -0.0950    0.0000 C   0  0  0  0  0  0  0  0  0  0  0  0
    2.0000   -1.0950    0.0000 C   0  0  0  0  0  0  0  0  0  0  0  0
    3.7320   -1.0950    0.0000 C   0  0  0  0  0  0  0  0  0  0  0  0
    2.8660   -1.5950    0.0000 C   0  0  0  0  0  0  0  0  0  0  0  0
    3.7320    1.9050    0.0000 C   0  0  0  0  0  0  0  0  0  0  0  0
    3.7320    2.9050    0.0000 C   0  0  0  0  0  0  0  0  0  0  0  0
    2.6540    1.9876    0.0000 H   0  0  0  0  0  0  0  0  0  0  0  0
    2.2554    1.2973    0.0000 H   0  0  0  0  0  0  0  0  0  0  0  0
    1.4631    0.2150    0.0000 H   0  0  0  0  0  0  0  0  0  0  0  0
    4.2690    0.2150    0.0000 H   0  0  0  0  0  0  0  0  0  0  0  0
    1.4631   -1.4050    0.0000 H   0  0  0  0  0  0  0  0  0  0  0  0
    4.2690   -1.4050    0.0000 H   0  0  0  0  0  0  0  0  0  0  0  0
    4.2690    1.5950    0.0000 H   0  0  0  0  0  0  0  0  0  0  0  0
    4.2690    3.2150    0.0000 H   0  0  0  0  0  0  0  0  0  0  0  0
    3.1951    3.2150    0.0000 H   0  0  0  0  0  0  0  0  0  0  0  0
    2.3291   -2.9050    0.0000 H   0  0  0  0  0  0  0  0  0  0  0  0
  1  8  1  0  0  0  0
  1 20  1  0  0  0  0
  2  3  1  0  0  0  0
  2  4  2  0  0  0  0
  2  5  1  0  0  0  0
  3  9  1  0  0  0  0
  3 11  1  0  0  0  0
  3 12  1  0  0  0  0
  4  6  1  0  0  0  0
  4 13  1  0  0  0  0
  5  7  2  0  0  0  0
  5 14  1  0  0  0  0
  6  8  2  0  0  0  0
  6 15  1  0  0  0  0
  7  8  1  0  0  0  0
  7 16  1  0  0  0  0
  9 10  2  0  0  0  0
  9 17  1  0  0  0  0
 10 18  1  0  0  0  0
 10 19  1  0  0  0  0
M  END
> <PUBCHEM_COMPOUND_CID>
68148

> <PUBCHEM_COMPOUND_CANONICALIZED>
1

> <PUBCHEM_CACTVS_COMPLEXITY>
101

> <PUBCHEM_CACTVS_HBOND_ACCEPTOR>
1

> <PUBCHEM_CACTVS_HBOND_DONOR>
1

> <PUBCHEM_CACTVS_ROTATABLE_BOND>
2

> <PUBCHEM_CACTVS_SUBSKEYS>
AAADccBwIAAAAAAAAAAAAAAAAAAAAAAAAAAwAAAAAAAAAAABAAAAGgAACAAADASAmAAwBoAAAgCAAiBCAAACAAAgIAAIiAAGCIgIJiKCERKAcAAkwBEImAeAwIAOIAAAAAAAAABAAAAAAAAAAAAAAAAAAA==

> <PUBCHEM_IUPAC_OPENEYE_NAME>
4-allylphenol

> <PUBCHEM_IUPAC_CAS_NAME>
4-prop-2-enylphenol

> <PUBCHEM_IUPAC_NAME>
4-prop-2-enylphenol

> <PUBCHEM_IUPAC_SYSTEMATIC_NAME>
4-prop-2-enylphenol

> <PUBCHEM_IUPAC_TRADITIONAL_NAME>
4-allylphenol

> <PUBCHEM_IUPAC_INCHI>
InChI=1S/C9H10O/c1-2-3-8-4-6-9(10)7-5-8/h2,4-7,10H,1,3H2

> <PUBCHEM_IUPAC_INCHIKEY>
RGIBXDHONMXTLI-UHFFFAOYSA-N

> <PUBCHEM_XLOGP3>
2.9

> <PUBCHEM_EXACT_MASS>
134.073165

> <PUBCHEM_MOLECULAR_FORMULA>
C9H10O

> <PUBCHEM_MOLECULAR_WEIGHT>
134.1751

> <PUBCHEM_OPENEYE_CAN_SMILES>
C=CCC1=CC=C(C=C1)O

> <PUBCHEM_OPENEYE_ISO_SMILES>
C=CCC1=CC=C(C=C1)O

> <PUBCHEM_CACTVS_TPSA>
20.2

> <PUBCHEM_MONOISOTOPIC_WEIGHT>
134.073165

> <PUBCHEM_TOTAL_CHARGE>
0

> <PUBCHEM_HEAVY_ATOM_COUNT>
10

> <PUBCHEM_ATOM_DEF_STEREO_COUNT>
0

> <PUBCHEM_ATOM_UDEF_STEREO_COUNT>
0

> <PUBCHEM_BOND_DEF_STEREO_COUNT>
0

> <PUBCHEM_BOND_UDEF_STEREO_COUNT>
0

> <PUBCHEM_ISOTOPIC_ATOM_COUNT>
0

> <PUBCHEM_COMPONENT_COUNT>
1

> <PUBCHEM_CACTVS_TAUTO_COUNT>
2

> <PUBCHEM_COORDINATE_TYPE>
1
5
255

> <PUBCHEM_BONDANNOTATIONS>
2  4  8
2  5  8
4  6  8
5  7  8
6  8  8
7  8  8

$$$$

