1548885
  -OEChem-07051212463D

 42 44  0     1  0  0  0  0  0999 V2000
   -6.2580    0.2340    0.2436 S   0  0  1  0  0  0  0  0  0  0  0  0
    6.0303   -1.6631   -0.1798 F   0  0  0  0  0  0  0  0  0  0  0  0
    3.1824    4.3208   -0.0789 O   0  0  0  0  0  0  0  0  0  0  0  0
    2.5068    2.7831    1.4554 O   0  0  0  0  0  0  0  0  0  0  0  0
   -6.9088   -0.4107   -0.9485 O   0  0  0  0  0  0  0  0  0  0  0  0
    1.8435    0.9554   -0.5475 C   0  0  0  0  0  0  0  0  0  0  0  0
    2.7210   -0.2056   -0.3115 C   0  0  0  0  0  0  0  0  0  0  0  0
    0.5682    0.5576   -0.3492 C   0  0  0  0  0  0  0  0  0  0  0  0
    0.5565   -0.8587    0.0191 C   0  0  0  0  0  0  0  0  0  0  0  0
    1.9444   -1.3238    0.0364 C   0  0  0  0  0  0  0  0  0  0  0  0
    2.3876    2.2834   -0.9339 C   0  0  0  0  0  0  0  0  0  0  0  0
   -0.5116   -1.6163    0.2950 C   0  0  0  0  0  0  0  0  0  0  0  0
    4.1026   -0.3050   -0.3884 C   0  0  0  0  0  0  0  0  0  0  0  0
    2.5249   -2.5513    0.3114 C   0  0  0  0  0  0  0  0  0  0  0  0
   -0.6802    1.3636   -0.4661 C   0  0  0  0  0  0  0  0  0  0  0  0
   -1.9128   -1.1649    0.2822 C   0  0  0  0  0  0  0  0  0  0  0  0
    4.6977   -1.5392   -0.1127 C   0  0  0  0  0  0  0  0  0  0  0  0
    3.9155   -2.6523    0.2340 C   0  0  0  0  0  0  0  0  0  0  0  0
    2.6825    3.1129    0.2920 C   0  0  0  0  0  0  0  0  0  0  0  0
   -2.4796   -0.6752    1.4485 C   0  0  0  0  0  0  0  0  0  0  0  0
   -2.6398   -1.2379   -0.8956 C   0  0  0  0  0  0  0  0  0  0  0  0
   -4.5512   -0.3148    0.2584 C   0  0  0  0  0  0  0  0  0  0  0  0
   -3.8073   -0.2475    1.4364 C   0  0  0  0  0  0  0  0  0  0  0  0
   -3.9674   -0.8101   -0.9078 C   0  0  0  0  0  0  0  0  0  0  0  0
   -5.9470    1.9657   -0.1924 C   0  0  0  0  0  0  0  0  0  0  0  0
    1.6566    2.8276   -1.5422 H   0  0  0  0  0  0  0  0  0  0  0  0
    3.2983    2.1842   -1.5331 H   0  0  0  0  0  0  0  0  0  0  0  0
   -0.3925   -2.6646    0.5596 H   0  0  0  0  0  0  0  0  0  0  0  0
    4.7245    0.5439   -0.6510 H   0  0  0  0  0  0  0  0  0  0  0  0
    1.9307   -3.4177    0.5802 H   0  0  0  0  0  0  0  0  0  0  0  0
   -0.4397    2.4004   -0.7289 H   0  0  0  0  0  0  0  0  0  0  0  0
   -1.2155    1.4350    0.4821 H   0  0  0  0  0  0  0  0  0  0  0  0
   -1.3251    1.0092   -1.2718 H   0  0  0  0  0  0  0  0  0  0  0  0
    4.3994   -3.6023    0.4441 H   0  0  0  0  0  0  0  0  0  0  0  0
   -1.9106   -0.6179    2.3725 H   0  0  0  0  0  0  0  0  0  0  0  0
   -2.1961   -1.6215   -1.8106 H   0  0  0  0  0  0  0  0  0  0  0  0
   -4.2481    0.1362    2.3529 H   0  0  0  0  0  0  0  0  0  0  0  0
   -4.5237   -0.8681   -1.8393 H   0  0  0  0  0  0  0  0  0  0  0  0
    3.3831    4.8867    0.6968 H   0  0  0  0  0  0  0  0  0  0  0  0
   -5.3745    2.4467    0.6043 H   0  0  0  0  0  0  0  0  0  0  0  0
   -6.9089    2.4725   -0.3011 H   0  0  0  0  0  0  0  0  0  0  0  0
   -5.3996    2.0231   -1.1365 H   0  0  0  0  0  0  0  0  0  0  0  0
  1  5  2  0  0  0  0
  1 22  1  0  0  0  0
  1 25  1  0  0  0  0
  2 17  1  0  0  0  0
  3 19  1  0  0  0  0
  3 39  1  0  0  0  0
  4 19  2  0  0  0  0
  6  7  1  0  0  0  0
  6  8  2  0  0  0  0
  6 11  1  0  0  0  0
  7 10  2  0  0  0  0
  7 13  1  0  0  0  0
  8  9  1  0  0  0  0
  8 15  1  0  0  0  0
  9 10  1  0  0  0  0
  9 12  2  0  0  0  0
 10 14  1  0  0  0  0
 11 19  1  0  0  0  0
 11 26  1  0  0  0  0
 11 27  1  0  0  0  0
 12 16  1  0  0  0  0
 12 28  1  0  0  0  0
 13 17  2  0  0  0  0
 13 29  1  0  0  0  0
 14 18  2  0  0  0  0
 14 30  1  0  0  0  0
 15 31  1  0  0  0  0
 15 32  1  0  0  0  0
 15 33  1  0  0  0  0
 16 20  2  0  0  0  0
 16 21  1  0  0  0  0
 17 18  1  0  0  0  0
 18 34  1  0  0  0  0
 20 23  1  0  0  0  0
 20 35  1  0  0  0  0
 21 24  2  0  0  0  0
 21 36  1  0  0  0  0
 22 23  2  0  0  0  0
 22 24  1  0  0  0  0
 23 37  1  0  0  0  0
 24 38  1  0  0  0  0
 25 40  1  0  0  0  0
 25 41  1  0  0  0  0
 25 42  1  0  0  0  0
M  END
> <PUBCHEM_COMPOUND_CID>
1548885

> <PUBCHEM_CONFORMER_RMSD>
0.8

> <PUBCHEM_CONFORMER_DIVERSEORDER>
2
3
5
1
4

> <PUBCHEM_MMFF94_PARTIAL_CHARGES>
34
1 0.24
10 0.03
11 0.2
12 -0.18
13 -0.15
14 -0.15
15 0.14
16 0.03
17 0.19
18 -0.15
19 0.66
2 -0.19
20 -0.15
21 -0.15
22 0.06
23 -0.15
24 -0.15
25 0.19
28 0.15
29 0.15
3 -0.65
30 0.15
34 0.15
35 0.15
36 0.15
37 0.15
38 0.15
39 0.5
4 -0.57
5 -0.5
6 -0.17
7 0.03
8 -0.14
9 -0.03

> <PUBCHEM_EFFECTIVE_ROTOR_COUNT>
4

> <PUBCHEM_PHARMACOPHORE_FEATURES>
7
1 3 acceptor
1 4 acceptor
1 5 acceptor
3 3 4 19 anion
5 6 7 8 9 10 rings
6 16 20 21 22 23 24 rings
6 7 10 13 14 17 18 rings

> <PUBCHEM_HEAVY_ATOM_COUNT>
25

> <PUBCHEM_ATOM_DEF_STEREO_COUNT>
0

> <PUBCHEM_ATOM_UDEF_STEREO_COUNT>
1

> <PUBCHEM_BOND_DEF_STEREO_COUNT>
1

> <PUBCHEM_BOND_UDEF_STEREO_COUNT>
0

> <PUBCHEM_ISOTOPIC_ATOM_COUNT>
0

> <PUBCHEM_COMPONENT_COUNT>
1

> <PUBCHEM_CACTVS_TAUTO_COUNT>
1

> <PUBCHEM_CONFORMER_ID>
0017A25500000002

> <PUBCHEM_MMFF94_ENERGY>
76.4725

> <PUBCHEM_FEATURE_SELFOVERLAP>
35.659

> <PUBCHEM_SHAPE_FINGERPRINT>
10411042 1 18123470742280523654
10595046 47 18263085423321051799
11089746 13 18411138048087042607
11421498 54 11887960960249466694
11456790 92 17916019243305415233
11545043 162 17202748355191548123
12166972 35 18186523232632354283
12236239 1 18113056052077450431
12403260 363 18187642535701811505
12516196 113 18337673117825957514
12549972 3 17917135109720190137
12616971 3 18186236226239010287
13134695 92 18412262852772086566
13140716 1 18197775497461488250
13533116 47 18408602539766018113
13590594 115 18339073912418771416
13878862 14 18341068345297439045
14170010 4 18410014329722932082
14178342 30 17838051503316083202
14294032 229 16952796510404881409
14466204 15 18194964273498229513
14739800 52 17313955095417689080
14848178 96 18192145997442218745
15042514 8 17836368525029657554
15183329 4 18342178925219180711
15527383 91 18342454858944261655
15849732 13 17749392593906583774
15927050 60 17976817589551986990
16087824 20 18124031492946913165
17844677 252 18411410701459520019
17980427 23 17750224962430797817
1813 80 18188477103676834982
18335252 114 18267031733793636661
18681886 176 18186526509350133050
20511986 3 17895489045784183303
20612939 158 18412260614745757815
20832881 197 18272088356924331010
21033648 144 18341622456165752799
21033648 29 17346611763836840223
21033650 10 15214113363648213995
21267235 1 18269829969158691406
21279426 13 17842843501581720471
21304253 13 18335986454277698432
21304303 172 17970056954229377304
2132832 1 18113614620731726897
21452121 103 18339647741518890304
21641784 216 17773011246591033870
21792961 116 17774159153853096414
22122407 14 18265315344555747817
221357 26 18201162143529932295
22182313 1 17845112738682975052
22393880 68 18116705210330232311
23557571 272 14273448206696811459
23559900 14 17917987244042719045
24771293 8 18189070720208095216
2838139 119 18339083804767703813
335352 9 18341891900886611910
350125 39 18341328976249320061
474 4 18193557770519495448
495365 180 18336550404277952848
5104073 3 18270676472836696907
5895379 119 16806983598069347280
7364860 26 18337953390369522148
7471813 234 18113621196358012768
84936 182 18044089047669995376
9971528 1 18333450954620636954
9981440 41 17760935039283479760

> <PUBCHEM_SHAPE_MULTIPOLES>
493.46
13.45
3.44
1.03
16.09
3.67
-0.2
-1.11
1.08
-5.58
-0.36
0.68
0.11
0.12

> <PUBCHEM_SHAPE_SELFOVERLAP>
1065.044

> <PUBCHEM_SHAPE_VOLUME>
276.4

> <PUBCHEM_COORDINATE_TYPE>
2
5
10

$$$$

