441088
  -OEChem-07051212513D

 28 28  0     1  0  0  0  0  0999 V2000
   -0.7085   -1.7649    1.1811 O   0  0  0  0  0  0  0  0  0  0  0  0
    1.6018   -2.0478   -0.0978 O   0  0  0  0  0  0  0  0  0  0  0  0
    3.4613   -0.1722   -0.8485 O   0  0  0  0  0  0  0  0  0  0  0  0
    3.2815    1.3968    0.8229 O   0  0  0  0  0  0  0  0  0  0  0  0
   -0.6567   -1.1901   -0.1271 C   0  0  1  0  0  0  0  0  0  0  0  0
   -1.4825    0.0763   -0.0839 C   0  0  0  0  0  0  0  0  0  0  0  0
   -2.9708   -0.0743   -0.1785 C   0  0  0  0  0  0  0  0  0  0  0  0
    0.8124   -0.9566   -0.5615 C   0  0  1  0  0  0  0  0  0  0  0  0
    1.3551    0.3677   -0.0899 C   0  0  0  0  0  0  0  0  0  0  0  0
   -0.8884    1.2744    0.0596 C   0  0  0  0  0  0  0  0  0  0  0  0
    0.5448    1.3966    0.2024 C   0  0  0  0  0  0  0  0  0  0  0  0
   -3.6344    0.4328    1.0975 C   0  0  0  0  0  0  0  0  0  0  0  0
   -3.5114    0.6581   -1.4030 C   0  0  0  0  0  0  0  0  0  0  0  0
    2.7959    0.6032    0.0267 C   0  0  0  0  0  0  0  0  0  0  0  0
   -1.1057   -1.9153   -0.8168 H   0  0  0  0  0  0  0  0  0  0  0  0
   -3.2260   -1.1362   -0.2858 H   0  0  0  0  0  0  0  0  0  0  0  0
    0.8595   -0.9619   -1.6579 H   0  0  0  0  0  0  0  0  0  0  0  0
   -1.4591    2.1959    0.1075 H   0  0  0  0  0  0  0  0  0  0  0  0
    0.9188    2.3651    0.5189 H   0  0  0  0  0  0  0  0  0  0  0  0
   -3.5059    1.5119    1.2362 H   0  0  0  0  0  0  0  0  0  0  0  0
   -3.2318   -0.0732    1.9823 H   0  0  0  0  0  0  0  0  0  0  0  0
   -4.7120    0.2356    1.0689 H   0  0  0  0  0  0  0  0  0  0  0  0
   -3.0182    0.3132   -2.3188 H   0  0  0  0  0  0  0  0  0  0  0  0
   -3.3777    1.7432   -1.3340 H   0  0  0  0  0  0  0  0  0  0  0  0
   -4.5849    0.4689   -1.5159 H   0  0  0  0  0  0  0  0  0  0  0  0
   -0.2975   -2.6444    1.1273 H   0  0  0  0  0  0  0  0  0  0  0  0
    1.6863   -1.9684    0.8679 H   0  0  0  0  0  0  0  0  0  0  0  0
    4.4321   -0.0413   -0.7953 H   0  0  0  0  0  0  0  0  0  0  0  0
  1  5  1  0  0  0  0
  1 26  1  0  0  0  0
  2  8  1  0  0  0  0
  2 27  1  0  0  0  0
  3 14  1  0  0  0  0
  3 28  1  0  0  0  0
  4 14  2  0  0  0  0
  5  6  1  0  0  0  0
  5  8  1  0  0  0  0
  5 15  1  0  0  0  0
  6  7  1  0  0  0  0
  6 10  2  0  0  0  0
  7 12  1  0  0  0  0
  7 13  1  0  0  0  0
  7 16  1  0  0  0  0
  8  9  1  0  0  0  0
  8 17  1  0  0  0  0
  9 11  2  0  0  0  0
  9 14  1  0  0  0  0
 10 11  1  0  0  0  0
 10 18  1  0  0  0  0
 11 19  1  0  0  0  0
 12 20  1  0  0  0  0
 12 21  1  0  0  0  0
 12 22  1  0  0  0  0
 13 23  1  0  0  0  0
 13 24  1  0  0  0  0
 13 25  1  0  0  0  0
M  END
> <PUBCHEM_COMPOUND_CID>
441088

> <PUBCHEM_CONFORMER_RMSD>
0.6

> <PUBCHEM_CONFORMER_DIVERSEORDER>
1
2
5
3
4
6

> <PUBCHEM_MMFF94_PARTIAL_CHARGES>
17
1 -0.68
10 -0.15
11 -0.15
14 0.71
18 0.15
19 0.15
2 -0.68
26 0.4
27 0.4
28 0.5
3 -0.65
4 -0.57
5 0.42
6 -0.28
7 0.14
8 0.42
9 -0.12

> <PUBCHEM_EFFECTIVE_ROTOR_COUNT>
2.4

> <PUBCHEM_PHARMACOPHORE_FEATURES>
9
1 1 acceptor
1 1 donor
1 2 acceptor
1 2 donor
1 3 acceptor
1 4 acceptor
3 3 4 14 anion
3 7 12 13 hydrophobe
6 5 6 8 9 10 11 rings

> <PUBCHEM_HEAVY_ATOM_COUNT>
14

> <PUBCHEM_ATOM_DEF_STEREO_COUNT>
2

> <PUBCHEM_ATOM_UDEF_STEREO_COUNT>
0

> <PUBCHEM_BOND_DEF_STEREO_COUNT>
0

> <PUBCHEM_BOND_UDEF_STEREO_COUNT>
0

> <PUBCHEM_ISOTOPIC_ATOM_COUNT>
0

> <PUBCHEM_COMPONENT_COUNT>
1

> <PUBCHEM_CACTVS_TAUTO_COUNT>
1

> <PUBCHEM_CONFORMER_ID>
0006BB0000000001

> <PUBCHEM_MMFF94_ENERGY>
28.8028

> <PUBCHEM_FEATURE_SELFOVERLAP>
45.743

> <PUBCHEM_SHAPE_FINGERPRINT>
10219947 1 18412265021171518628
11132069 177 18410582751237945416
11471102 20 18335704961472402045
11543360 7 15575001611014440212
12138202 97 18131631153760703007
12423570 1 9222651234184856078
12491281 212 17822001021699829505
13380535 76 18411986836224133210
13581323 91 16988559065862318771
13897977 150 18336267851206538816
14325111 11 18333450919617235837
14617773 55 17751355312134658169
15219456 202 18129943494049115029
15775835 57 17967810544093044617
16945 1 18408608066998524989
17844478 74 18131339835151310733
17846911 113 18336275565205328912
18186145 218 18407758144515619933
19026448 5 16153425043176192573
193761 8 17761209212509850724
19422 9 16950282905651953613
200 152 16515400759846626244
20201158 50 18409729564521580767
20588541 1 18412538803845640022
20645476 183 17632006447655220758
20645477 70 18265061412919261615
21501502 16 18120372317874510860
23235685 24 18411984641406031205
2334 1 17906453216701587620
23402539 116 18342190950447160220
23402655 69 18265070179332797197
23493267 7 17489866072177077001
23559900 14 18335128758326091460
25 1 18411135852815337957
2748010 2 18121777223215140004
528886 8 18261116248627827507
53812653 166 18335139760876873024
6333449 129 18262802856626069119
7364860 26 18188772885084191150
81228 2 17767403478943030363

> <PUBCHEM_SHAPE_MULTIPOLES>
264.64
5.76
1.65
1.02
0.63
0.5
-0.02
-1.55
-0.36
-0.67
0.25
0.66
0
0.44

> <PUBCHEM_SHAPE_SELFOVERLAP>
544.153

> <PUBCHEM_SHAPE_VOLUME>
151.3

> <PUBCHEM_COORDINATE_TYPE>
2
5
10

$$$$

