14214
  -OEChem-06241222423D

 17 16  0     0  0  0  0  0  0999 V2000
   -2.3480    0.5364    0.0477 O   0  0  0  0  0  0  0  0  0  0  0  0
    1.2451   -1.4507   -0.4364 O   0  0  0  0  0  0  0  0  0  0  0  0
   -0.0048    0.5126   -0.0720 N   0  0  0  0  0  0  0  0  0  0  0  0
   -1.2825   -0.0873    0.0578 C   0  0  0  0  0  0  0  0  0  0  0  0
    1.1675   -0.2830   -0.0494 C   0  0  0  0  0  0  0  0  0  0  0  0
    0.1213    1.9645   -0.2315 C   0  0  0  0  0  0  0  0  0  0  0  0
   -1.3207   -1.5861    0.2249 C   0  0  0  0  0  0  0  0  0  0  0  0
    2.4220    0.3937    0.4590 C   0  0  0  0  0  0  0  0  0  0  0  0
    0.9561    2.2040   -0.8954 H   0  0  0  0  0  0  0  0  0  0  0  0
    0.2981    2.4052    0.7539 H   0  0  0  0  0  0  0  0  0  0  0  0
   -0.8011    2.3833   -0.6427 H   0  0  0  0  0  0  0  0  0  0  0  0
   -0.6717   -1.9113    1.0418 H   0  0  0  0  0  0  0  0  0  0  0  0
   -2.3411   -1.8853    0.4884 H   0  0  0  0  0  0  0  0  0  0  0  0
   -1.0662   -2.0819   -0.7150 H   0  0  0  0  0  0  0  0  0  0  0  0
    2.8917    0.9574   -0.3509 H   0  0  0  0  0  0  0  0  0  0  0  0
    3.1232   -0.3671    0.8152 H   0  0  0  0  0  0  0  0  0  0  0  0
    2.1960    1.0588    1.2963 H   0  0  0  0  0  0  0  0  0  0  0  0
  1  4  2  0  0  0  0
  2  5  2  0  0  0  0
  3  4  1  0  0  0  0
  3  5  1  0  0  0  0
  3  6  1  0  0  0  0
  4  7  1  0  0  0  0
  5  8  1  0  0  0  0
  6  9  1  0  0  0  0
  6 10  1  0  0  0  0
  6 11  1  0  0  0  0
  7 12  1  0  0  0  0
  7 13  1  0  0  0  0
  7 14  1  0  0  0  0
  8 15  1  0  0  0  0
  8 16  1  0  0  0  0
  8 17  1  0  0  0  0
M  END
> <PUBCHEM_COMPOUND_CID>
14214

> <PUBCHEM_CONFORMER_RMSD>
0.4

> <PUBCHEM_CONFORMER_DIVERSEORDER>
1
5
6
4
2
3

> <PUBCHEM_MMFF94_PARTIAL_CHARGES>
8
1 -0.57
2 -0.57
3 -0.42
4 0.57
5 0.57
6 0.3
7 0.06
8 0.06

> <PUBCHEM_EFFECTIVE_ROTOR_COUNT>
2

> <PUBCHEM_PHARMACOPHORE_FEATURES>
2
1 1 acceptor
1 2 acceptor

> <PUBCHEM_HEAVY_ATOM_COUNT>
8

> <PUBCHEM_ATOM_DEF_STEREO_COUNT>
0

> <PUBCHEM_ATOM_UDEF_STEREO_COUNT>
0

> <PUBCHEM_BOND_DEF_STEREO_COUNT>
0

> <PUBCHEM_BOND_UDEF_STEREO_COUNT>
0

> <PUBCHEM_ISOTOPIC_ATOM_COUNT>
0

> <PUBCHEM_COMPONENT_COUNT>
1

> <PUBCHEM_CACTVS_TAUTO_COUNT>
1

> <PUBCHEM_CONFORMER_ID>
0000378600000001

> <PUBCHEM_MMFF94_ENERGY>
22.7967

> <PUBCHEM_FEATURE_SELFOVERLAP>
10.149

> <PUBCHEM_SHAPE_FINGERPRINT>
10857977 72 18266471909916757408
16714656 1 18340764948253299764
18185500 45 18412261709751518947
21040471 1 18411695530051152423
23552423 10 18273491286669680910
24536 1 18338521820168528131
29004967 10 18411975858208304688

> <PUBCHEM_SHAPE_MULTIPOLES>
147.92
2.78
1.75
0.64
0.21
0.25
0.02
-0.18
0.39
-0.13
-0.17
0.09
-0.03
0.12

> <PUBCHEM_SHAPE_SELFOVERLAP>
275.829

> <PUBCHEM_SHAPE_VOLUME>
94

> <PUBCHEM_COORDINATE_TYPE>
2
5
10

$$$$

