6823
  -OEChem-06261201313D

 37 39  0     0  0  0  0  0  0999 V2000
   -0.7793   -3.0237    0.3276 O   0  0  0  0  0  0  0  0  0  0  0  0
    0.1519   -0.4294    0.5335 N   0  0  0  0  0  0  0  0  0  0  0  0
    0.7653   -0.3404   -0.5534 N   0  0  0  0  0  0  0  0  0  0  0  0
   -2.1142    0.4036    0.1479 C   0  0  0  0  0  0  0  0  0  0  0  0
   -3.4804    0.1270   -0.0966 C   0  0  0  0  0  0  0  0  0  0  0  0
   -1.2121   -0.6634    0.2895 C   0  0  0  0  0  0  0  0  0  0  0  0
    3.0178   -1.1698   -0.1728 C   0  0  0  0  0  0  0  0  0  0  0  0
    2.1295   -0.1063   -0.3099 C   0  0  0  0  0  0  0  0  0  0  0  0
   -3.9043   -1.2084   -0.1925 C   0  0  0  0  0  0  0  0  0  0  0  0
   -1.6507   -1.9842    0.1911 C   0  0  0  0  0  0  0  0  0  0  0  0
   -1.6902    1.7391    0.2437 C   0  0  0  0  0  0  0  0  0  0  0  0
    3.9340    1.4573    0.0306 C   0  0  0  0  0  0  0  0  0  0  0  0
   -4.3824    1.1941   -0.2383 C   0  0  0  0  0  0  0  0  0  0  0  0
    2.5829    1.2065   -0.2092 C   0  0  0  0  0  0  0  0  0  0  0  0
   -2.9941   -2.2561   -0.0494 C   0  0  0  0  0  0  0  0  0  0  0  0
    4.3687   -0.9189    0.0671 C   0  0  0  0  0  0  0  0  0  0  0  0
    4.8269    0.3945    0.1687 C   0  0  0  0  0  0  0  0  0  0  0  0
   -2.6002    2.7869    0.1003 C   0  0  0  0  0  0  0  0  0  0  0  0
   -3.9437    2.5149   -0.1403 C   0  0  0  0  0  0  0  0  0  0  0  0
    2.5504   -2.5849   -0.2766 C   0  0  0  0  0  0  0  0  0  0  0  0
    4.4243    2.8615    0.1391 C   0  0  0  0  0  0  0  0  0  0  0  0
   -4.9497   -1.4443   -0.3802 H   0  0  0  0  0  0  0  0  0  0  0  0
   -0.6518    1.9962    0.4371 H   0  0  0  0  0  0  0  0  0  0  0  0
   -5.4372    1.0050   -0.4267 H   0  0  0  0  0  0  0  0  0  0  0  0
    1.8863    2.0339   -0.3213 H   0  0  0  0  0  0  0  0  0  0  0  0
   -3.3496   -3.2801   -0.1284 H   0  0  0  0  0  0  0  0  0  0  0  0
    5.0768   -1.7359    0.1788 H   0  0  0  0  0  0  0  0  0  0  0  0
    5.8821    0.5771    0.3542 H   0  0  0  0  0  0  0  0  0  0  0  0
   -2.2598    3.8154    0.1780 H   0  0  0  0  0  0  0  0  0  0  0  0
   -4.6517    3.3310   -0.2516 H   0  0  0  0  0  0  0  0  0  0  0  0
    1.8884   -2.7193   -1.1385 H   0  0  0  0  0  0  0  0  0  0  0  0
    3.3892   -3.2763   -0.4133 H   0  0  0  0  0  0  0  0  0  0  0  0
    2.0221   -2.8752    0.6368 H   0  0  0  0  0  0  0  0  0  0  0  0
    4.7034    3.2393   -0.8495 H   0  0  0  0  0  0  0  0  0  0  0  0
    3.6545    3.5165    0.5612 H   0  0  0  0  0  0  0  0  0  0  0  0
    5.2965    2.9267    0.7984 H   0  0  0  0  0  0  0  0  0  0  0  0
   -1.2638   -3.8610    0.2270 H   0  0  0  0  0  0  0  0  0  0  0  0
  1 10  1  0  0  0  0
  1 37  1  0  0  0  0
  2  3  2  0  0  0  0
  2  6  1  0  0  0  0
  3  8  1  0  0  0  0
  4  5  1  0  0  0  0
  4  6  1  0  0  0  0
  4 11  2  0  0  0  0
  5  9  1  0  0  0  0
  5 13  2  0  0  0  0
  6 10  2  0  0  0  0
  7  8  2  0  0  0  0
  7 16  1  0  0  0  0
  7 20  1  0  0  0  0
  8 14  1  0  0  0  0
  9 15  2  0  0  0  0
  9 22  1  0  0  0  0
 10 15  1  0  0  0  0
 11 18  1  0  0  0  0
 11 23  1  0  0  0  0
 12 14  2  0  0  0  0
 12 17  1  0  0  0  0
 12 21  1  0  0  0  0
 13 19  1  0  0  0  0
 13 24  1  0  0  0  0
 14 25  1  0  0  0  0
 15 26  1  0  0  0  0
 16 17  2  0  0  0  0
 16 27  1  0  0  0  0
 17 28  1  0  0  0  0
 18 19  2  0  0  0  0
 18 29  1  0  0  0  0
 19 30  1  0  0  0  0
 20 31  1  0  0  0  0
 20 32  1  0  0  0  0
 20 33  1  0  0  0  0
 21 34  1  0  0  0  0
 21 35  1  0  0  0  0
 21 36  1  0  0  0  0
M  END
> <PUBCHEM_COMPOUND_CID>
6823

> <PUBCHEM_CONFORMER_RMSD>
0.6

> <PUBCHEM_CONFORMER_DIVERSEORDER>
1
4
2
3
6
5

> <PUBCHEM_MMFF94_PARTIAL_CHARGES>
29
1 -0.53
10 0.08
11 -0.15
12 -0.14
13 -0.15
14 -0.15
15 -0.15
16 -0.15
17 -0.15
18 -0.15
19 -0.15
2 -0.18
20 0.14
21 0.14
22 0.15
23 0.15
24 0.15
25 0.15
26 0.15
27 0.15
28 0.15
29 0.15
3 -0.18
30 0.15
37 0.45
6 0.18
7 -0.14
8 0.18
9 -0.15

> <PUBCHEM_EFFECTIVE_ROTOR_COUNT>
2

> <PUBCHEM_PHARMACOPHORE_FEATURES>
4
1 1 donor
6 4 5 11 13 18 19 rings
6 4 5 6 9 10 15 rings
6 7 8 12 14 16 17 rings

> <PUBCHEM_HEAVY_ATOM_COUNT>
21

> <PUBCHEM_ATOM_DEF_STEREO_COUNT>
0

> <PUBCHEM_ATOM_UDEF_STEREO_COUNT>
0

> <PUBCHEM_BOND_DEF_STEREO_COUNT>
0

> <PUBCHEM_BOND_UDEF_STEREO_COUNT>
0

> <PUBCHEM_ISOTOPIC_ATOM_COUNT>
0

> <PUBCHEM_COMPONENT_COUNT>
1

> <PUBCHEM_CACTVS_TAUTO_COUNT>
3

> <PUBCHEM_CONFORMER_ID>
00001AA700000001

> <PUBCHEM_MMFF94_ENERGY>
63.1356

> <PUBCHEM_FEATURE_SELFOVERLAP>
20.324

> <PUBCHEM_SHAPE_FINGERPRINT>
10319926 262 18337125492684575090
10411042 1 17618503177492855995
10608611 8 18409448085508404576
10616163 171 18409165485139791582
10646746 165 18410855469177097332
10670039 82 18198891519202422780
11370993 70 18410295834659022558
11405975 8 18413109485167579330
11595378 159 17774738501200064488
12107183 9 18053391182407762378
12173636 292 18411702093030297407
12403260 363 18337964470683883134
12633257 1 18271253828046962376
13140716 1 18269550705688627115
13583140 156 17749402446513691338
138480 1 17546447138174917474
14251764 38 18334856172766164276
14790565 3 18191298493696067809
15196674 1 18410856546876544780
15420108 30 15446061204300039968
15442244 35 18267585887137051170
17492 89 18410854373502390831
18186145 218 18115857662943220234
20510252 161 18408600345085105523
20645477 56 18341608252487254261
20715895 44 18195252345656099949
21065198 57 18410855473477514742
21709351 56 18407763642717155518
21859007 373 17414737645400690180
22393880 68 18335692828817278774
23227448 37 18409168822455773413
23402539 116 18409174302923642479
23557571 272 18262508208873781612
23558518 356 18201431446073746027
23559900 14 18261675990842390138
245318 6 16696662742273067324
335352 9 18267303312859781150
351380 180 18409169947621296564
3545911 37 18410008862134683556
4214541 1 18410855481840518044
5104073 3 18413107255905369490
77779 3 18410573976878053670
9709674 26 18408316705176436854
9981440 41 18269559347289551154

> <PUBCHEM_SHAPE_MULTIPOLES>
416.34
10.22
3.43
0.66
4.99
0.2
0
4.14
-0.29
-0.75
0.1
0.01
-0.01
0.26

> <PUBCHEM_SHAPE_SELFOVERLAP>
919.353

> <PUBCHEM_SHAPE_VOLUME>
225.5

> <PUBCHEM_COORDINATE_TYPE>
2
5
10

$$$$

