7846960
  -OEChem-06241222483D

 47 49  0     1  0  0  0  0  0999 V2000
    4.3123    0.7378    0.1632 S   0  0  0  0  0  0  0  0  0  0  0  0
   -0.0005    3.0099    0.4863 O   0  0  0  0  0  0  0  0  0  0  0  0
   -0.2669    0.4233    1.2826 O   0  0  0  0  0  0  0  0  0  0  0  0
   -0.0206    1.8095   -1.4836 O   0  0  0  0  0  0  0  0  0  0  0  0
    2.3053   -0.1340   -1.2020 N   0  0  0  0  0  0  0  0  0  0  0  0
   -1.3156    2.5345    0.7914 C   0  0  1  0  0  0  0  0  0  0  0  0
    2.8651    2.2314   -1.6403 C   0  0  0  0  0  0  0  0  0  0  0  0
   -2.4493    0.2095    0.4479 C   0  0  0  0  0  0  0  0  0  0  0  0
    1.9084    3.1553   -0.8637 C   0  0  0  0  0  0  0  0  0  0  0  0
   -1.2654    1.0124    0.8708 C   0  0  0  0  0  0  0  0  0  0  0  0
   -3.3508   -1.7980   -0.4685 C   0  0  0  0  0  0  0  0  0  0  0  0
    3.0512    0.9224   -0.9774 C   0  0  0  0  0  0  0  0  0  0  0  0
   -4.6347   -1.2695   -0.3349 C   0  0  0  0  0  0  0  0  0  0  0  0
   -2.2432   -1.0484   -0.0719 C   0  0  0  0  0  0  0  0  0  0  0  0
   -3.7035    0.7580    0.5922 C   0  0  0  0  0  0  0  0  0  0  0  0
    0.5280    2.5634   -0.6916 C   0  0  0  0  0  0  0  0  0  0  0  0
   -1.7233    3.1491    2.1203 C   0  0  0  0  0  0  0  0  0  0  0  0
   -4.8111    0.0086    0.1954 C   0  0  0  0  0  0  0  0  0  0  0  0
    3.8440   -0.9045    0.4004 C   0  0  0  0  0  0  0  0  0  0  0  0
    2.7478   -1.1902   -0.4190 C   0  0  0  0  0  0  0  0  0  0  0  0
   -3.1369   -3.1631   -1.0352 C   0  0  0  0  0  0  0  0  0  0  0  0
   -5.8356   -2.0528   -0.7529 C   0  0  0  0  0  0  0  0  0  0  0  0
    4.4061   -1.8705    1.2505 C   0  0  0  0  0  0  0  0  0  0  0  0
    2.1965   -2.4895   -0.3846 C   0  0  0  0  0  0  0  0  0  0  0  0
    3.8417   -3.1484    1.2653 C   0  0  0  0  0  0  0  0  0  0  0  0
    2.7512   -3.4561    0.4593 C   0  0  0  0  0  0  0  0  0  0  0  0
   -1.9929    2.8653   -0.0040 H   0  0  0  0  0  0  0  0  0  0  0  0
    3.8244    2.7447   -1.7788 H   0  0  0  0  0  0  0  0  0  0  0  0
    2.4626    2.0620   -2.6473 H   0  0  0  0  0  0  0  0  0  0  0  0
    1.8004    4.1090   -1.3915 H   0  0  0  0  0  0  0  0  0  0  0  0
    2.3342    3.3614    0.1260 H   0  0  0  0  0  0  0  0  0  0  0  0
   -1.2414   -1.4542   -0.1811 H   0  0  0  0  0  0  0  0  0  0  0  0
   -3.8814    1.7467    0.9953 H   0  0  0  0  0  0  0  0  0  0  0  0
   -0.9978    2.8943    2.9020 H   0  0  0  0  0  0  0  0  0  0  0  0
   -2.7060    2.8180    2.4624 H   0  0  0  0  0  0  0  0  0  0  0  0
   -1.7306    4.2420    2.0468 H   0  0  0  0  0  0  0  0  0  0  0  0
   -5.8045    0.4356    0.3053 H   0  0  0  0  0  0  0  0  0  0  0  0
   -3.5151   -3.2182   -2.0612 H   0  0  0  0  0  0  0  0  0  0  0  0
   -3.6375   -3.9186   -0.4210 H   0  0  0  0  0  0  0  0  0  0  0  0
   -2.0740   -3.4271   -1.0683 H   0  0  0  0  0  0  0  0  0  0  0  0
   -5.7910   -2.2863   -1.8215 H   0  0  0  0  0  0  0  0  0  0  0  0
   -5.9084   -2.9825   -0.1794 H   0  0  0  0  0  0  0  0  0  0  0  0
   -6.7633   -1.4951   -0.5828 H   0  0  0  0  0  0  0  0  0  0  0  0
    5.2574   -1.6374    1.8827 H   0  0  0  0  0  0  0  0  0  0  0  0
    1.3436   -2.7401   -1.0091 H   0  0  0  0  0  0  0  0  0  0  0  0
    4.2616   -3.9108    1.9163 H   0  0  0  0  0  0  0  0  0  0  0  0
    2.3250   -4.4552    0.4846 H   0  0  0  0  0  0  0  0  0  0  0  0
  1 12  1  0  0  0  0
  1 19  1  0  0  0  0
  2  6  1  0  0  0  0
  2 16  1  0  0  0  0
  3 10  2  0  0  0  0
  4 16  2  0  0  0  0
  5 12  2  0  0  0  0
  5 20  1  0  0  0  0
  6 10  1  0  0  0  0
  6 17  1  0  0  0  0
  6 27  1  0  0  0  0
  7  9  1  0  0  0  0
  7 12  1  0  0  0  0
  7 28  1  0  0  0  0
  7 29  1  0  0  0  0
  8 10  1  0  0  0  0
  8 14  2  0  0  0  0
  8 15  1  0  0  0  0
  9 16  1  0  0  0  0
  9 30  1  0  0  0  0
  9 31  1  0  0  0  0
 11 13  2  0  0  0  0
 11 14  1  0  0  0  0
 11 21  1  0  0  0  0
 13 18  1  0  0  0  0
 13 22  1  0  0  0  0
 14 32  1  0  0  0  0
 15 18  2  0  0  0  0
 15 33  1  0  0  0  0
 17 34  1  0  0  0  0
 17 35  1  0  0  0  0
 17 36  1  0  0  0  0
 18 37  1  0  0  0  0
 19 20  1  0  0  0  0
 19 23  2  0  0  0  0
 20 24  2  0  0  0  0
 21 38  1  0  0  0  0
 21 39  1  0  0  0  0
 21 40  1  0  0  0  0
 22 41  1  0  0  0  0
 22 42  1  0  0  0  0
 22 43  1  0  0  0  0
 23 25  1  0  0  0  0
 23 44  1  0  0  0  0
 24 26  1  0  0  0  0
 24 45  1  0  0  0  0
 25 26  2  0  0  0  0
 25 46  1  0  0  0  0
 26 47  1  0  0  0  0
M  END
> <PUBCHEM_COMPOUND_CID>
7846960

> <PUBCHEM_CONFORMER_RMSD>
1.2

> <PUBCHEM_CONFORMER_DIVERSEORDER>
1
266
29
13
57
216
291
276
11
305
26
301
223
65
256
250
201
69
47
39
148
299
247
333
37
322
98
89
101
126
6
8
22
121
12
278
196
162
267
241
180
20
64
155
170
83
63
169
261
226
182
61
7
80
71
85
129
92
86
265
100
277
48
44
294
144
270
147
232
210
124
260
284
54
249
17
75
53
197
272
219
224
189
313
50
217
34
159
240
187
177
152
203
56
329
309
46
287
82
40
77
262
204
271
49
244
254
293
330
275
154
127
24
178
166
220
117
306
103
188
221
3
108
172
321
163
325
115
150
136
251
332
255
296
87
324
131
62
55
165
149
73
175
185
32
243
43
158
58
120
130
273
90
239
194
285
181
95
314
230
110
105
319
238
23
179
252
111
198
96
19
233
146
31
122
215
134
323
66
15
282
269
195
45
140
9
109
200
202
183
97
139
206
334
257
326
289
128
328
67
74
186
171
225
190
157
72
94
168
236
176
228
156
212
14
28
145
142
123
213
113
119
114
234
193
264
133
283
106
104
199
318
143
231
93
138
253
25
5
141
208
79
317
18
242
274
258
41
320
102
303
36
27
21
81
191
51
263
302
209
107
2
310
167
161
16
312
38
84
151
192
174
112
327
125
308
235
248
91
211
35
297
227
99
290
160
331
118
70
52
135
59
259
311
237
76
300
286
42
68
88
153
30
279
222
218
268
295
132
292
173
4
184
288
164
137
116
60
207
33
205
78
304
298
245
280
229
10
246
214
307
316
315
281

> <PUBCHEM_MMFF94_PARTIAL_CHARGES>
32
1 -0.08
10 0.42
11 -0.14
12 0.2
13 -0.14
14 -0.15
15 -0.15
16 0.66
18 -0.15
19 0.04
2 -0.43
20 0.23
21 0.14
22 0.14
23 -0.15
24 -0.15
25 -0.15
26 -0.15
3 -0.57
32 0.15
33 0.15
37 0.15
4 -0.57
44 0.15
45 0.15
46 0.15
47 0.15
5 -0.57
6 0.34
7 0.18
8 0.09
9 0.06

> <PUBCHEM_EFFECTIVE_ROTOR_COUNT>
7

> <PUBCHEM_PHARMACOPHORE_FEATURES>
6
1 3 acceptor
1 4 acceptor
1 5 acceptor
5 1 5 12 19 20 rings
6 19 20 23 24 25 26 rings
6 8 11 13 14 15 18 rings

> <PUBCHEM_HEAVY_ATOM_COUNT>
26

> <PUBCHEM_ATOM_DEF_STEREO_COUNT>
1

> <PUBCHEM_ATOM_UDEF_STEREO_COUNT>
0

> <PUBCHEM_BOND_DEF_STEREO_COUNT>
0

> <PUBCHEM_BOND_UDEF_STEREO_COUNT>
0

> <PUBCHEM_ISOTOPIC_ATOM_COUNT>
0

> <PUBCHEM_COMPONENT_COUNT>
1

> <PUBCHEM_CACTVS_TAUTO_COUNT>
4

> <PUBCHEM_CONFORMER_ID>
0077BC3000000001

> <PUBCHEM_MMFF94_ENERGY>
57.4442

> <PUBCHEM_FEATURE_SELFOVERLAP>
30.519

> <PUBCHEM_SHAPE_FINGERPRINT>
1100329 8 18050852109670180564
11069576 57 18343579634049805566
11186622 123 17684373854361629151
11552529 35 18047476905140834186
12422481 6 17762586858316051945
12553582 1 18262782008986670147
12633257 1 17758108581614969344
12788726 201 18187348944427173457
13004483 165 18339650060816651457
13083527 12 18342748433561068268
14114206 34 16412647167878167418
14117953 113 18049441744967221887
14251757 17 17630910354615489957
14429115 67 18340486763401022346
1454969 45 18272088297775645548
14713325 29 10698735209190986429
15250474 111 18337108952386027807
17134984 74 18052539872640312591
17138139 8 17611463030345868660
17492 89 18265050412954855658
17818456 19 18117265068314038377
1813 80 18201170917794651209
19026451 147 18341337712281501850
20028762 73 18335698300874951230
20511986 3 18335995172449386221
20715895 44 17977951512167744021
20764821 26 17187004189841971970
20775530 9 18270397334005761618
21033648 29 15430028873115773707
21285901 2 17275113790398610685
21315764 371 18040995077783722832
21421861 104 18338214029869452161
22393880 68 18192417589630350180
23559900 14 18334577957832856344
3004659 81 18411135844357681551
345986 75 18260543420750941633
3680242 22 18410282632372737939
3797600 57 17676487242381362680
392239 28 18187370870599288280
463206 1 18119526544493576403
474144 1 18340484465525194574
563151 97 18127390294700926516
56633871 153 17835795679001834995
6823239 73 17677874907448784158

> <PUBCHEM_SHAPE_MULTIPOLES>
516.33
10.46
4.74
1.45
6.45
0.07
-0.17
-8.04
0.24
-1.75
-0.36
-0.43
0.71
-3.47

> <PUBCHEM_SHAPE_SELFOVERLAP>
1099.233

> <PUBCHEM_SHAPE_VOLUME>
290.5

> <PUBCHEM_COORDINATE_TYPE>
2
5
10

$$$$

