53297396
  -OEChem-07051213123D

 57 61  0     1  0  0  0  0  0999 V2000
    3.4221    0.2101    0.7418 O   0  0  0  0  0  0  0  0  0  0  0  0
    2.8350   -0.7549   -1.3094 O   0  0  0  0  0  0  0  0  0  0  0  0
    6.7333    1.9966   -0.9432 O   0  0  0  0  0  0  0  0  0  0  0  0
    6.5502    1.7392    1.9301 O   0  0  0  0  0  0  0  0  0  0  0  0
   -1.3665    2.8034   -0.1579 O   0  0  0  0  0  0  0  0  0  0  0  0
    0.8888    0.8627   -1.6737 O   0  0  0  0  0  0  0  0  0  0  0  0
   -2.6354   -2.6591    0.1487 O   0  0  0  0  0  0  0  0  0  0  0  0
   -3.9724   -1.4792    1.7862 O   0  0  0  0  0  0  0  0  0  0  0  0
    5.9972    0.9673   -0.2882 C   0  0  1  0  0  0  0  0  0  0  0  0
    5.4620    1.5059    1.0400 C   0  0  1  0  0  0  0  0  0  0  0  0
    4.8495    0.5151   -1.1837 C   0  0  0  0  0  0  0  0  0  0  0  0
    4.4665    0.5222    1.6685 C   0  0  1  0  0  0  0  0  0  0  0  0
    3.9122   -0.4271   -0.4378 C   0  0  1  0  0  0  0  0  0  0  0  0
   -1.6806    1.9162   -1.2311 C   0  0  1  0  0  0  0  0  0  0  0  0
   -1.3095    0.5028   -0.8421 C   0  0  0  0  0  0  0  0  0  0  0  0
   -2.2012   -0.3539   -0.3042 C   0  0  0  0  0  0  0  0  0  0  0  0
   -3.1631    2.0602   -1.5857 C   0  0  0  0  0  0  0  0  0  0  0  0
   -3.5621    0.1581    0.0275 C   0  0  0  0  0  0  0  0  0  0  0  0
   -4.0364    1.3296   -0.5984 C   0  0  0  0  0  0  0  0  0  0  0  0
    0.5346   -1.2377   -0.7035 C   0  0  0  0  0  0  0  0  0  0  0  0
    3.8151    1.1041    2.9191 C   0  0  0  0  0  0  0  0  0  0  0  0
    0.0990    0.1010   -1.1268 C   0  0  0  0  0  0  0  0  0  0  0  0
    1.8820   -1.6006   -0.8238 C   0  0  0  0  0  0  0  0  0  0  0  0
   -0.3877   -2.1455   -0.1944 C   0  0  0  0  0  0  0  0  0  0  0  0
   -1.8108   -1.7822   -0.0844 C   0  0  0  0  0  0  0  0  0  0  0  0
   -5.3273    1.8097   -0.3293 C   0  0  0  0  0  0  0  0  0  0  0  0
   -4.3905   -0.4622    0.9764 C   0  0  0  0  0  0  0  0  0  0  0  0
    2.3001   -2.8718   -0.4303 C   0  0  0  0  0  0  0  0  0  0  0  0
    0.0342   -3.4230    0.1964 C   0  0  0  0  0  0  0  0  0  0  0  0
   -6.1410    1.1602    0.5935 C   0  0  0  0  0  0  0  0  0  0  0  0
   -5.6687    0.0314    1.2530 C   0  0  0  0  0  0  0  0  0  0  0  0
    1.3772   -3.7820    0.0795 C   0  0  0  0  0  0  0  0  0  0  0  0
   -7.5057    1.6835    0.8870 C   0  0  0  0  0  0  0  0  0  0  0  0
    6.6909    0.1376   -0.1061 H   0  0  0  0  0  0  0  0  0  0  0  0
    4.9780    2.4745    0.8629 H   0  0  0  0  0  0  0  0  0  0  0  0
    4.2912    1.3946   -1.5334 H   0  0  0  0  0  0  0  0  0  0  0  0
    5.2335    0.0410   -2.0953 H   0  0  0  0  0  0  0  0  0  0  0  0
    4.9757   -0.4058    1.9606 H   0  0  0  0  0  0  0  0  0  0  0  0
    4.4670   -1.3330   -0.1629 H   0  0  0  0  0  0  0  0  0  0  0  0
   -1.1007    2.2451   -2.1013 H   0  0  0  0  0  0  0  0  0  0  0  0
   -3.4365    3.1220   -1.6112 H   0  0  0  0  0  0  0  0  0  0  0  0
   -3.3537    1.6362   -2.5797 H   0  0  0  0  0  0  0  0  0  0  0  0
    3.2620    2.0197    2.6819 H   0  0  0  0  0  0  0  0  0  0  0  0
    4.5551    1.3304    3.6923 H   0  0  0  0  0  0  0  0  0  0  0  0
    3.0872    0.3970    3.3318 H   0  0  0  0  0  0  0  0  0  0  0  0
   -5.6869    2.7022   -0.8366 H   0  0  0  0  0  0  0  0  0  0  0  0
    7.0554    1.6345   -1.7863 H   0  0  0  0  0  0  0  0  0  0  0  0
    6.9802    0.8850    2.1067 H   0  0  0  0  0  0  0  0  0  0  0  0
    3.3348   -3.1859   -0.5341 H   0  0  0  0  0  0  0  0  0  0  0  0
   -0.6666   -4.1517    0.5953 H   0  0  0  0  0  0  0  0  0  0  0  0
   -6.2942   -0.4504    2.0016 H   0  0  0  0  0  0  0  0  0  0  0  0
   -1.5636    3.7078   -0.4557 H   0  0  0  0  0  0  0  0  0  0  0  0
    1.7015   -4.7741    0.3798 H   0  0  0  0  0  0  0  0  0  0  0  0
   -7.9331    2.1863    0.0127 H   0  0  0  0  0  0  0  0  0  0  0  0
   -7.4648    2.3967    1.7162 H   0  0  0  0  0  0  0  0  0  0  0  0
   -8.1905    0.8718    1.1553 H   0  0  0  0  0  0  0  0  0  0  0  0
   -4.6916   -1.7507    2.3813 H   0  0  0  0  0  0  0  0  0  0  0  0
  1 12  1  0  0  0  0
  1 13  1  0  0  0  0
  2 13  1  0  0  0  0
  2 23  1  0  0  0  0
  3  9  1  0  0  0  0
  3 47  1  0  0  0  0
  4 10  1  0  0  0  0
  4 48  1  0  0  0  0
  5 14  1  0  0  0  0
  5 52  1  0  0  0  0
  6 22  2  0  0  0  0
  7 25  2  0  0  0  0
  8 27  1  0  0  0  0
  8 57  1  0  0  0  0
  9 10  1  0  0  0  0
  9 11  1  0  0  0  0
  9 34  1  0  0  0  0
 10 12  1  0  0  0  0
 10 35  1  0  0  0  0
 11 13  1  0  0  0  0
 11 36  1  0  0  0  0
 11 37  1  0  0  0  0
 12 21  1  0  0  0  0
 12 38  1  0  0  0  0
 13 39  1  0  0  0  0
 14 15  1  0  0  0  0
 14 17  1  0  0  0  0
 14 40  1  0  0  0  0
 15 16  2  0  0  0  0
 15 22  1  0  0  0  0
 16 18  1  0  0  0  0
 16 25  1  0  0  0  0
 17 19  1  0  0  0  0
 17 41  1  0  0  0  0
 17 42  1  0  0  0  0
 18 19  2  0  0  0  0
 18 27  1  0  0  0  0
 19 26  1  0  0  0  0
 20 22  1  0  0  0  0
 20 23  1  0  0  0  0
 20 24  2  0  0  0  0
 21 43  1  0  0  0  0
 21 44  1  0  0  0  0
 21 45  1  0  0  0  0
 23 28  2  0  0  0  0
 24 25  1  0  0  0  0
 24 29  1  0  0  0  0
 26 30  2  0  0  0  0
 26 46  1  0  0  0  0
 27 31  2  0  0  0  0
 28 32  1  0  0  0  0
 28 49  1  0  0  0  0
 29 32  2  0  0  0  0
 29 50  1  0  0  0  0
 30 31  1  0  0  0  0
 30 33  1  0  0  0  0
 31 51  1  0  0  0  0
 32 53  1  0  0  0  0
 33 54  1  0  0  0  0
 33 55  1  0  0  0  0
 33 56  1  0  0  0  0
M  END
> <PUBCHEM_COMPOUND_CID>
53297396

> <PUBCHEM_CONFORMER_RMSD>
0.8

> <PUBCHEM_CONFORMER_DIVERSEORDER>
1
39
29
17
35
25
26
21
27
33
12
38
3
30
8
32
15
36
16
34
24
10
20
19
22
6
18
2
11
9
13
5
23
31
4
14
28
37
7

> <PUBCHEM_MMFF94_PARTIAL_CHARGES>
40
1 -0.56
10 0.28
12 0.28
13 0.56
14 0.42
15 -0.12
16 -0.01
17 0.14
18 0.03
19 -0.14
2 -0.36
20 0.09
22 0.47
23 0.08
24 0.09
25 0.47
26 -0.15
27 0.08
28 -0.15
29 -0.15
3 -0.68
30 -0.14
31 -0.15
32 -0.15
33 0.14
4 -0.68
46 0.15
47 0.4
48 0.4
49 0.15
5 -0.68
50 0.15
51 0.15
52 0.4
53 0.15
57 0.45
6 -0.57
7 -0.57
8 -0.53
9 0.28

> <PUBCHEM_EFFECTIVE_ROTOR_COUNT>
3.6

> <PUBCHEM_PHARMACOPHORE_FEATURES>
16
1 1 acceptor
1 2 acceptor
1 3 acceptor
1 3 donor
1 4 acceptor
1 4 donor
1 5 acceptor
1 5 donor
1 6 acceptor
1 7 acceptor
1 8 donor
6 1 9 10 11 12 13 rings
6 14 15 16 17 18 19 rings
6 15 16 20 22 24 25 rings
6 18 19 26 27 30 31 rings
6 20 23 24 28 29 32 rings

> <PUBCHEM_HEAVY_ATOM_COUNT>
33

> <PUBCHEM_ATOM_DEF_STEREO_COUNT>
5

> <PUBCHEM_ATOM_UDEF_STEREO_COUNT>
0

> <PUBCHEM_BOND_DEF_STEREO_COUNT>
0

> <PUBCHEM_BOND_UDEF_STEREO_COUNT>
0

> <PUBCHEM_ISOTOPIC_ATOM_COUNT>
0

> <PUBCHEM_COMPONENT_COUNT>
1

> <PUBCHEM_CACTVS_TAUTO_COUNT>
33

> <PUBCHEM_CONFORMER_ID>
032D40F400000001

> <PUBCHEM_MMFF94_ENERGY>
109.3362

> <PUBCHEM_FEATURE_SELFOVERLAP>
81.314

> <PUBCHEM_SHAPE_FINGERPRINT>
10 15 18060132133051690004
10006869 2 18190182467353574501
10074138 170 18057052311031063570
10165383 225 18408599271622745758
10319926 262 17988087810969167442
11112241 14 17677065541972952193
11115154 58 17173524294288975287
11578080 2 18259705605839126075
11595378 159 17632868533379909236
12035758 1 18201423797739233905
12403259 415 18340485685227029510
12422481 6 17988930006299530686
12596602 18 17131836443621993776
12838862 33 18202570597152169549
12925494 130 17981047732369258837
13140716 1 18199174101863307727
13402501 40 18408040710466927208
13540713 4 17842842402285916151
13726171 33 18194962934213095784
14790565 3 18126549155082152509
17913733 40 18336264625691608234
21033648 29 18262244326795271856
21130935 74 18268136743232967091
21223535 225 16515952753507333336
21307412 95 9511457861872861169
21792934 111 18057887051495289813
22122407 14 17531798199445712145
22149856 69 18126821989729479481
22182313 1 17986955352668278847
23559900 14 17985258818668637831
24771293 8 18410853274992563373
2838139 119 16660636358818896922
3411729 13 18341331188162752242
3459 39 18410864230773296022
392239 28 18333732428969431497
4093350 32 17385997438290148229
4340502 62 18411135878548381142
437795 51 17822009800665827585
508706 21 18190752937953278886
5104073 3 18056193820425414945
5252454 2 18261121763719581714
5265222 85 18197205967681551076
6004065 56 18411983530090936453
6086070 43 17458067041199501946
6697151 62 17477507750913922231
7808743 9 18340769222542318494
9658208 31 18336254670580259502

> <PUBCHEM_SHAPE_MULTIPOLES>
632.17
15.92
3.43
1.73
0.51
2.82
-0.86
-13.35
-6.14
0.91
0.04
1.48
-0.87
1.77

> <PUBCHEM_SHAPE_SELFOVERLAP>
1407.851

> <PUBCHEM_SHAPE_VOLUME>
333.6

> <PUBCHEM_COORDINATE_TYPE>
2
5
10

$$$$

