10729
  -OEChem-06261204533D

 18 19  0     0  0  0  0  0  0999 V2000
   -1.3636   -2.5213   -0.0002 O   0  0  0  0  0  0  0  0  0  0  0  0
    3.7188    0.9403   -0.0001 O   0  0  0  0  0  0  0  0  0  0  0  0
   -0.9849    1.4332    0.0000 N   0  0  0  0  0  0  0  0  0  0  0  0
    1.4137    1.2657    0.0000 N   0  0  0  0  0  0  0  0  0  0  0  0
    1.1773   -1.5033   -0.0001 N   0  0  0  0  0  0  0  0  0  0  0  0
   -2.3830   -0.4647    0.0003 N   0  0  0  0  0  0  0  0  0  0  0  0
   -3.2675    1.7153   -0.0001 N   0  0  0  0  0  0  0  0  0  0  0  0
    0.1671    0.6884    0.0000 C   0  0  0  0  0  0  0  0  0  0  0  0
    0.0946   -0.6574   -0.0002 C   0  0  0  0  0  0  0  0  0  0  0  0
   -2.2194    0.8323    0.0001 C   0  0  0  0  0  0  0  0  0  0  0  0
   -1.2735   -1.2956    0.0000 C   0  0  0  0  0  0  0  0  0  0  0  0
    2.5711    0.5247    0.0000 C   0  0  0  0  0  0  0  0  0  0  0  0
    2.3493   -0.9575    0.0004 C   0  0  0  0  0  0  0  0  0  0  0  0
   -0.8839    2.4417    0.0002 H   0  0  0  0  0  0  0  0  0  0  0  0
    1.4667    2.2795   -0.0001 H   0  0  0  0  0  0  0  0  0  0  0  0
    3.2619   -1.5742    0.0006 H   0  0  0  0  0  0  0  0  0  0  0  0
   -4.2281    1.3900    0.0000 H   0  0  0  0  0  0  0  0  0  0  0  0
   -3.1147    2.7178    0.0005 H   0  0  0  0  0  0  0  0  0  0  0  0
  1 11  2  0  0  0  0
  2 12  2  0  0  0  0
  3  8  1  0  0  0  0
  3 10  1  0  0  0  0
  3 14  1  0  0  0  0
  4  8  1  0  0  0  0
  4 12  1  0  0  0  0
  4 15  1  0  0  0  0
  5  9  1  0  0  0  0
  5 13  2  0  0  0  0
  6 10  2  0  0  0  0
  6 11  1  0  0  0  0
  7 10  1  0  0  0  0
  7 17  1  0  0  0  0
  7 18  1  0  0  0  0
  8  9  2  0  0  0  0
  9 11  1  0  0  0  0
 12 13  1  0  0  0  0
 13 16  1  0  0  0  0
M  END
> <PUBCHEM_COMPOUND_CID>
10729

> <PUBCHEM_CONFORMER_RMSD>
0.4

> <PUBCHEM_CONFORMER_DIVERSEORDER>
1

> <PUBCHEM_MMFF94_PARTIAL_CHARGES>
18
1 -0.57
10 0.55
11 0.77
12 0.63
13 0.39
14 0.4
15 0.37
16 0.06
17 0.4
18 0.4
2 -0.57
3 -0.55
4 -0.54
5 -0.62
6 -0.66
7 -0.85
8 0.21
9 0.19

> <PUBCHEM_EFFECTIVE_ROTOR_COUNT>
0

> <PUBCHEM_PHARMACOPHORE_FEATURES>
9
1 1 acceptor
1 2 acceptor
1 3 donor
1 4 donor
1 5 acceptor
1 6 donor
1 7 donor
6 3 6 8 9 10 11 rings
6 4 5 8 9 12 13 rings

> <PUBCHEM_HEAVY_ATOM_COUNT>
13

> <PUBCHEM_ATOM_DEF_STEREO_COUNT>
0

> <PUBCHEM_ATOM_UDEF_STEREO_COUNT>
0

> <PUBCHEM_BOND_DEF_STEREO_COUNT>
0

> <PUBCHEM_BOND_UDEF_STEREO_COUNT>
0

> <PUBCHEM_ISOTOPIC_ATOM_COUNT>
0

> <PUBCHEM_COMPONENT_COUNT>
1

> <PUBCHEM_CACTVS_TAUTO_COUNT>
18

> <PUBCHEM_CONFORMER_ID>
000029E900000001

> <PUBCHEM_MMFF94_ENERGY>
36.9884

> <PUBCHEM_FEATURE_SELFOVERLAP>
45.867

> <PUBCHEM_SHAPE_FINGERPRINT>
10608611 8 18336267860102694920
10967382 1 18338797947694644964
11206711 2 18266177227683496534
13380535 21 18338222830331099622
13380535 76 18408890658666849582
14325111 11 18410574019553673345
14897335 6 18410299128777463388
15775835 57 18341045302264872496
16945 1 18338798905472371463
193761 8 14519463464721743589
20871998 184 18188484653881194503
21040471 1 18410856581119907303
21501502 16 18411144636218883850
23402539 116 18263374615995297311
23402655 69 18263095460522751989
23463225 33 18343025514707113954
23552423 10 18200312091870830342
23559900 14 18333444353772705500
241688 4 16320057482217572507
2748010 2 18339354279346186343
528886 8 18410299128777489472
53812653 166 18334580143955470336
6333449 129 18409450258529754309
7364860 26 18191025805995090790

> <PUBCHEM_SHAPE_MULTIPOLES>
230.89
4.63
2.04
0.57
1.19
0.74
0
-1.84
0
-0.84
0
0.01
0.01
0

> <PUBCHEM_SHAPE_SELFOVERLAP>
505.548

> <PUBCHEM_SHAPE_VOLUME>
121.7

> <PUBCHEM_COORDINATE_TYPE>
2
5
10

$$$$

