12811
  -OEChem-06261207242D

 20 20  0     0  0  0  0  0  0999 V2000
    2.8090    0.5584    0.0000 S   0  0  0  0  0  0  0  0  0  0  0  0
    4.0339   -0.8101    0.0000 O   0  0  0  0  0  0  0  0  0  0  0  0
    5.1928   -2.0973    0.0000 O   0  0  0  0  0  0  0  0  0  0  0  0
    4.5691    0.8372    0.0000 N   0  0  0  0  0  0  0  0  0  0  0  0
    3.3090    2.0973    0.0000 N   0  0  0  0  0  0  0  0  0  0  0  0
    5.7281   -0.4500    0.0000 C   0  0  0  0  0  0  0  0  0  0  0  0
    4.7770   -0.1410    0.0000 C   0  0  0  0  0  0  0  0  0  0  0  0
    5.9360   -1.4281    0.0000 C   0  0  0  0  0  0  0  0  0  0  0  0
    3.6180    1.1462    0.0000 C   0  0  0  0  0  0  0  0  0  0  0  0
    6.8870   -1.7371    0.0000 C   0  0  0  0  0  0  0  0  0  0  0  0
    2.0000    1.1462    0.0000 C   0  0  0  0  0  0  0  0  0  0  0  0
    2.3090    2.0973    0.0000 C   0  0  0  0  0  0  0  0  0  0  0  0
    6.3477   -0.4283    0.0000 H   0  0  0  0  0  0  0  0  0  0  0  0
    5.8144    0.1640    0.0000 H   0  0  0  0  0  0  0  0  0  0  0  0
    5.0298    1.2521    0.0000 H   0  0  0  0  0  0  0  0  0  0  0  0
    6.6954   -2.3268    0.0000 H   0  0  0  0  0  0  0  0  0  0  0  0
    7.4767   -1.9287    0.0000 H   0  0  0  0  0  0  0  0  0  0  0  0
    7.0786   -1.1475    0.0000 H   0  0  0  0  0  0  0  0  0  0  0  0
    1.4103    0.9546    0.0000 H   0  0  0  0  0  0  0  0  0  0  0  0
    1.9446    2.5988    0.0000 H   0  0  0  0  0  0  0  0  0  0  0  0
  1  9  1  0  0  0  0
  1 11  1  0  0  0  0
  2  7  2  0  0  0  0
  3  8  2  0  0  0  0
  4  7  1  0  0  0  0
  4  9  1  0  0  0  0
  4 15  1  0  0  0  0
  5  9  2  0  0  0  0
  5 12  1  0  0  0  0
  6  7  1  0  0  0  0
  6  8  1  0  0  0  0
  6 13  1  0  0  0  0
  6 14  1  0  0  0  0
  8 10  1  0  0  0  0
 10 16  1  0  0  0  0
 10 17  1  0  0  0  0
 10 18  1  0  0  0  0
 11 12  2  0  0  0  0
 11 19  1  0  0  0  0
 12 20  1  0  0  0  0
M  END
> <PUBCHEM_COMPOUND_CID>
12811

> <PUBCHEM_COMPOUND_CANONICALIZED>
1

> <PUBCHEM_CACTVS_COMPLEXITY>
196

> <PUBCHEM_CACTVS_HBOND_ACCEPTOR>
4

> <PUBCHEM_CACTVS_HBOND_DONOR>
1

> <PUBCHEM_CACTVS_ROTATABLE_BOND>
3

> <PUBCHEM_CACTVS_SUBSKEYS>
AAADccBjMABAAAAAAAAAAAAAAAAAAWAAAAAAAAAAAAAAAAABgAAAHgQQAAAACATFwgSvkRLIEAisAJE3dAAA8KlRCjlJQA0YIACAABgIiAAEAAAIEQIAACAAAAAAAAAAAAAAAAAAAAAAAAAAAAAAAAAAAA==

> <PUBCHEM_IUPAC_OPENEYE_NAME>
3-oxo-N-thiazol-2-yl-butanamide

> <PUBCHEM_IUPAC_CAS_NAME>
3-oxo-N-(2-thiazolyl)butanamide

> <PUBCHEM_IUPAC_NAME>
3-oxo-N-(1,3-thiazol-2-yl)butanamide

> <PUBCHEM_IUPAC_SYSTEMATIC_NAME>
3-oxidanylidene-N-(1,3-thiazol-2-yl)butanamide

> <PUBCHEM_IUPAC_TRADITIONAL_NAME>
3-keto-N-thiazol-2-yl-butyramide

> <PUBCHEM_IUPAC_INCHI>
InChI=1S/C7H8N2O2S/c1-5(10)4-6(11)9-7-8-2-3-12-7/h2-3H,4H2,1H3,(H,8,9,11)

> <PUBCHEM_IUPAC_INCHIKEY>
IWMDVLIESVGDLX-UHFFFAOYSA-N

> <PUBCHEM_XLOGP3>
1.2

> <PUBCHEM_EXACT_MASS>
184.030649

> <PUBCHEM_MOLECULAR_FORMULA>
C7H8N2O2S

> <PUBCHEM_MOLECULAR_WEIGHT>
184.21562

> <PUBCHEM_OPENEYE_CAN_SMILES>
CC(=O)CC(=O)NC1=NC=CS1

> <PUBCHEM_OPENEYE_ISO_SMILES>
CC(=O)CC(=O)NC1=NC=CS1

> <PUBCHEM_CACTVS_TPSA>
87.3

> <PUBCHEM_MONOISOTOPIC_WEIGHT>
184.030649

> <PUBCHEM_TOTAL_CHARGE>
0

> <PUBCHEM_HEAVY_ATOM_COUNT>
12

> <PUBCHEM_ATOM_DEF_STEREO_COUNT>
0

> <PUBCHEM_ATOM_UDEF_STEREO_COUNT>
0

> <PUBCHEM_BOND_DEF_STEREO_COUNT>
0

> <PUBCHEM_BOND_UDEF_STEREO_COUNT>
0

> <PUBCHEM_ISOTOPIC_ATOM_COUNT>
0

> <PUBCHEM_COMPONENT_COUNT>
1

> <PUBCHEM_CACTVS_TAUTO_COUNT>
13

> <PUBCHEM_COORDINATE_TYPE>
1
5
255

> <PUBCHEM_BONDANNOTATIONS>
1  11  8
1  9  8
11  12  8
5  12  8
5  9  8

$$$$

