5280679
  -OEChem-07051212493D

 20 19  0     0  0  0  0  0  0999 V2000
   -1.2063    0.0826   -1.4626 O   0  0  0  0  0  0  0  0  0  0  0  0
    0.2343    2.7068   -0.2211 O   0  0  0  0  0  0  0  0  0  0  0  0
    2.4554    2.4418    0.1794 O   0  0  0  0  0  0  0  0  0  0  0  0
   -3.6112   -0.3972   -0.8850 O   0  0  0  0  0  0  0  0  0  0  0  0
    2.9553   -2.3638   -0.4316 O   0  0  0  0  0  0  0  0  0  0  0  0
   -3.1111   -0.3834    1.3545 O   0  0  0  0  0  0  0  0  0  0  0  0
    0.8391   -2.4343    0.4058 O   0  0  0  0  0  0  0  0  0  0  0  0
   -0.3808    0.2070    0.8375 C   0  0  0  0  0  0  0  0  0  0  0  0
    0.9704    0.5390    0.2651 C   0  0  0  0  0  0  0  0  0  0  0  0
   -1.4086    0.0226   -0.2589 C   0  0  0  0  0  0  0  0  0  0  0  0
    1.9417   -0.3313   -0.0656 C   0  0  0  0  0  0  0  0  0  0  0  0
    1.3314    1.9739    0.0824 C   0  0  0  0  0  0  0  0  0  0  0  0
   -2.8158   -0.2600    0.1832 C   0  0  0  0  0  0  0  0  0  0  0  0
    1.8062   -1.8038    0.0169 C   0  0  0  0  0  0  0  0  0  0  0  0
   -0.3513   -0.6906    1.4605 H   0  0  0  0  0  0  0  0  0  0  0  0
   -0.7157    1.0217    1.4911 H   0  0  0  0  0  0  0  0  0  0  0  0
    2.8922    0.0260   -0.4562 H   0  0  0  0  0  0  0  0  0  0  0  0
    0.4499    3.6552   -0.3492 H   0  0  0  0  0  0  0  0  0  0  0  0
   -4.5365   -0.6064   -0.6354 H   0  0  0  0  0  0  0  0  0  0  0  0
    2.9212   -3.3438   -0.4038 H   0  0  0  0  0  0  0  0  0  0  0  0
  1 10  2  0  0  0  0
  2 12  1  0  0  0  0
  2 18  1  0  0  0  0
  3 12  2  0  0  0  0
  4 13  1  0  0  0  0
  4 19  1  0  0  0  0
  5 14  1  0  0  0  0
  5 20  1  0  0  0  0
  6 13  2  0  0  0  0
  7 14  2  0  0  0  0
  8  9  1  0  0  0  0
  8 10  1  0  0  0  0
  8 15  1  0  0  0  0
  8 16  1  0  0  0  0
  9 11  2  0  0  0  0
  9 12  1  0  0  0  0
 10 13  1  0  0  0  0
 11 14  1  0  0  0  0
 11 17  1  0  0  0  0
M  END
> <PUBCHEM_COMPOUND_CID>
5280679

> <PUBCHEM_CONFORMER_RMSD>
0.6

> <PUBCHEM_CONFORMER_DIVERSEORDER>
1
37
24
55
58
29
9
63
67
15
65
38
27
48
64
62
34
42
66
39
23
12
21
7
52
25
57
14
20
2
53
61
35
43
6
50
22
18
40
36
33
46
28
11
26
31
49
16
19
41
47
54
59
17
10
32
44
51
60
56
8
45
13
30
4
5
3

> <PUBCHEM_MMFF94_PARTIAL_CHARGES>
18
1 -0.57
10 0.51
11 -0.14
12 0.71
13 0.72
14 0.71
17 0.15
18 0.5
19 0.5
2 -0.65
20 0.5
3 -0.57
4 -0.65
5 -0.65
6 -0.57
7 -0.57
8 0.2
9 -0.12

> <PUBCHEM_EFFECTIVE_ROTOR_COUNT>
5

> <PUBCHEM_PHARMACOPHORE_FEATURES>
10
1 1 acceptor
1 2 acceptor
1 3 acceptor
1 4 acceptor
1 5 acceptor
1 6 acceptor
1 7 acceptor
3 2 3 12 anion
3 4 6 13 anion
3 5 7 14 anion

> <PUBCHEM_HEAVY_ATOM_COUNT>
14

> <PUBCHEM_ATOM_DEF_STEREO_COUNT>
0

> <PUBCHEM_ATOM_UDEF_STEREO_COUNT>
0

> <PUBCHEM_BOND_DEF_STEREO_COUNT>
1

> <PUBCHEM_BOND_UDEF_STEREO_COUNT>
0

> <PUBCHEM_ISOTOPIC_ATOM_COUNT>
0

> <PUBCHEM_COMPONENT_COUNT>
1

> <PUBCHEM_CACTVS_TAUTO_COUNT>
4

> <PUBCHEM_CONFORMER_ID>
005093A700000001

> <PUBCHEM_MMFF94_ENERGY>
25.9154

> <PUBCHEM_FEATURE_SELFOVERLAP>
50.929

> <PUBCHEM_SHAPE_FINGERPRINT>
1 1 18266742372618627700
12138202 78 18412832394941124917
12326174 3 18260535698030393668
13380535 76 18124321501743305978
14251717 144 18410300176834068079
15279307 12 17970068833671003231
16945 1 18410009909927154313
20201158 50 18272934967966566155
20361792 2 18189904286400885486
20645477 70 18338245890474982727
20708731 107 18342448218945745596
20711985 344 17763191636258954058
20871998 184 17539129858474476638
20871998 22 18263645233073104682
21061003 4 18339920540508604202
23552423 10 18334860498161662987
23598291 2 18113892775930306005
2748010 2 18120387707137679012
449060 23 17751070525754421718
528862 383 18336551525238153535
7364860 26 18335704918422326752
77492 1 17676201356014017129
81228 2 17617388719557348296
8272917 22 18408881811635301223
88987 49 15769786732174171023

> <PUBCHEM_SHAPE_MULTIPOLES>
247.03
4.58
2.7
0.95
3.34
0.53
0.03
-1.44
0.16
-3.07
0.03
0.65
-0.07
0.23

> <PUBCHEM_SHAPE_SELFOVERLAP>
499.508

> <PUBCHEM_SHAPE_VOLUME>
141.5

> <PUBCHEM_COORDINATE_TYPE>
2
5
10

$$$$

