8571
  -OEChem-06261202553D

 28 29  0     0  0  0  0  0  0999 V2000
    2.4129   -2.3204    0.0089 O   0  0  0  0  0  0  0  0  0  0  0  0
   -1.3413   -1.3912   -1.8037 O   0  0  0  0  0  0  0  0  0  0  0  0
    0.0428   -2.0635    1.1930 O   0  0  0  0  0  0  0  0  0  0  0  0
    4.7453    1.7937   -0.5680 O   0  0  0  0  0  0  0  0  0  0  0  0
   -5.0380    1.2597   -0.3869 O   0  0  0  0  0  0  0  0  0  0  0  0
    1.2483   -0.2493    0.3406 C   0  0  0  0  0  0  0  0  0  0  0  0
   -1.3330   -0.3637    0.3633 C   0  0  0  0  0  0  0  0  0  0  0  0
    0.0097   -0.9462    0.6585 C   0  0  0  0  0  0  0  0  0  0  0  0
    2.4081   -0.9577    0.0259 C   0  0  0  0  0  0  0  0  0  0  0  0
   -1.9327   -0.6189   -0.8490 C   0  0  0  0  0  0  0  0  0  0  0  0
    1.2634    1.1454    0.3493 C   0  0  0  0  0  0  0  0  0  0  0  0
   -1.9236    0.4124    1.3359 C   0  0  0  0  0  0  0  0  0  0  0  0
    3.5832   -0.2710   -0.2800 C   0  0  0  0  0  0  0  0  0  0  0  0
   -3.1891   -0.0689   -1.1034 C   0  0  0  0  0  0  0  0  0  0  0  0
    2.4383    1.8319    0.0434 C   0  0  0  0  0  0  0  0  0  0  0  0
   -3.1799    0.9622    1.0816 C   0  0  0  0  0  0  0  0  0  0  0  0
    3.5983    1.1238   -0.2712 C   0  0  0  0  0  0  0  0  0  0  0  0
   -3.8127    0.7217   -0.1380 C   0  0  0  0  0  0  0  0  0  0  0  0
    0.3858    1.7344    0.5951 H   0  0  0  0  0  0  0  0  0  0  0  0
   -1.4382    0.6001    2.2890 H   0  0  0  0  0  0  0  0  0  0  0  0
    4.4840   -0.8286   -0.5247 H   0  0  0  0  0  0  0  0  0  0  0  0
   -3.6837   -0.2558   -2.0536 H   0  0  0  0  0  0  0  0  0  0  0  0
    2.4450    2.9184    0.0534 H   0  0  0  0  0  0  0  0  0  0  0  0
   -3.6610    1.5768    1.8377 H   0  0  0  0  0  0  0  0  0  0  0  0
    1.5177   -2.6685    0.1450 H   0  0  0  0  0  0  0  0  0  0  0  0
   -1.9274   -1.4448   -2.5781 H   0  0  0  0  0  0  0  0  0  0  0  0
    5.4470    1.1479   -0.7601 H   0  0  0  0  0  0  0  0  0  0  0  0
   -5.3256    0.9917   -1.2766 H   0  0  0  0  0  0  0  0  0  0  0  0
  1  9  1  0  0  0  0
  1 25  1  0  0  0  0
  2 10  1  0  0  0  0
  2 26  1  0  0  0  0
  3  8  2  0  0  0  0
  4 17  1  0  0  0  0
  4 27  1  0  0  0  0
  5 18  1  0  0  0  0
  5 28  1  0  0  0  0
  6  8  1  0  0  0  0
  6  9  2  0  0  0  0
  6 11  1  0  0  0  0
  7  8  1  0  0  0  0
  7 10  2  0  0  0  0
  7 12  1  0  0  0  0
  9 13  1  0  0  0  0
 10 14  1  0  0  0  0
 11 15  2  0  0  0  0
 11 19  1  0  0  0  0
 12 16  2  0  0  0  0
 12 20  1  0  0  0  0
 13 17  2  0  0  0  0
 13 21  1  0  0  0  0
 14 18  2  0  0  0  0
 14 22  1  0  0  0  0
 15 17  1  0  0  0  0
 15 23  1  0  0  0  0
 16 18  1  0  0  0  0
 16 24  1  0  0  0  0
M  END
> <PUBCHEM_COMPOUND_CID>
8571

> <PUBCHEM_CONFORMER_RMSD>
0.6

> <PUBCHEM_CONFORMER_DIVERSEORDER>
3
14
8
5
6
10
13
11
12
7
2
4
9
1

> <PUBCHEM_MMFF94_PARTIAL_CHARGES>
28
1 -0.53
10 0.08
11 -0.15
12 -0.15
13 -0.15
14 -0.15
15 -0.15
16 -0.15
17 0.08
18 0.08
19 0.15
2 -0.53
20 0.15
21 0.15
22 0.15
23 0.15
24 0.15
25 0.45
26 0.45
27 0.45
28 0.45
3 -0.57
4 -0.53
5 -0.53
6 0.09
7 0.09
8 0.4
9 0.08

> <PUBCHEM_EFFECTIVE_ROTOR_COUNT>
2

> <PUBCHEM_PHARMACOPHORE_FEATURES>
7
1 1 donor
1 2 donor
1 3 acceptor
1 4 donor
1 5 donor
6 6 9 11 13 15 17 rings
6 7 10 12 14 16 18 rings

> <PUBCHEM_HEAVY_ATOM_COUNT>
18

> <PUBCHEM_ATOM_DEF_STEREO_COUNT>
0

> <PUBCHEM_ATOM_UDEF_STEREO_COUNT>
0

> <PUBCHEM_BOND_DEF_STEREO_COUNT>
0

> <PUBCHEM_BOND_UDEF_STEREO_COUNT>
0

> <PUBCHEM_ISOTOPIC_ATOM_COUNT>
0

> <PUBCHEM_COMPONENT_COUNT>
1

> <PUBCHEM_CACTVS_TAUTO_COUNT>
72

> <PUBCHEM_CONFORMER_ID>
0000217B00000003

> <PUBCHEM_MMFF94_ENERGY>
59.7646

> <PUBCHEM_FEATURE_SELFOVERLAP>
35.52

> <PUBCHEM_SHAPE_FINGERPRINT>
11471102 20 18412260657943454408
11543360 7 16515962575923633968
11578080 2 11526815224982839767
12236239 1 18113903800895122483
12730499 353 18272925038218241467
13764800 53 16343430586920872237
14115302 16 17240773899232701335
14993402 34 17822293504656789417
15309172 13 17632580431015459779
15342168 16 17988635255610557037
15775835 57 18408603660525713645
16752209 62 16660364826717862675
16945 1 18338510958064543450
1813 80 17903921407023177522
18186145 218 18342736334174160182
19784866 34 18343019948450714224
19862831 5 17676487228731485065
19868273 293 17822014194295986847
20612939 158 18411415150776366588
20645476 183 18113624460770567303
20645477 70 18337670922559501718
20871999 31 17676779656433937735
21486144 27 18060697290713188318
22079108 93 18201149984619851179
22854114 59 17489867154999276889
231179 274 17846784000905264720
23402539 116 18411987923352006020
23402655 69 18333730221393391620
23559900 14 18262787456029036148
23598291 2 17896310501218848714
25 1 18342177756571162866
2748010 2 18051118204200030376
2838139 119 17913788368831573445
3082319 5 17821730524311361061
350125 39 17839164222047370240
4028521 119 18335421248839153849
474 4 18341331102468919976
5374978 207 13038901144776044453
633830 44 18341330101841552495
74978 22 17749113244511117505
76465 3 6771600161271753036
77492 1 18113902705715469819
81228 2 16913959289066706043
8272917 22 18267582601581982819
9981440 41 17611769807318227464

> <PUBCHEM_SHAPE_MULTIPOLES>
341.08
8.1
1.9
1.16
0.73
0.35
-0.07
-4.23
-1.78
-1.35
0.05
0.84
0.24
-0.62

> <PUBCHEM_SHAPE_SELFOVERLAP>
750.848

> <PUBCHEM_SHAPE_VOLUME>
184

> <PUBCHEM_COORDINATE_TYPE>
2
5
10

$$$$

