448799
  -OEChem-07051213022D

 73 75  0     1  0  0  0  0  0999 V2000
    9.2784   -4.1500    0.0000 S   0  0  0  0  0  0  0  0  0  0  0  0
    8.0034    2.2749    0.0000 O   0  0  0  0  0  0  0  0  0  0  0  0
    6.3637   -0.5751    0.0000 O   0  0  0  0  0  0  0  0  0  0  0  0
    2.8070    3.2745    0.0000 O   0  0  0  0  0  0  0  0  0  0  0  0
    4.7994    0.6360    0.0000 O   0  0  0  0  0  0  0  0  0  0  0  0
    2.0000    1.3262    0.0000 O   0  0  0  0  0  0  0  0  0  0  0  0
    5.9154   -2.2481    0.0000 O   0  0  0  0  0  0  0  0  0  0  0  0
   10.1119   -2.7632    0.0000 N   0  0  0  0  0  0  0  0  0  0  0  0
    7.1371    1.7745    0.0000 C   0  0  1  0  0  0  0  0  0  0  0  0
    8.0032    1.2745    0.0000 C   0  0  2  0  0  0  0  0  0  0  0  0
    6.2711    1.2745    0.0000 C   0  0  0  0  0  0  0  0  0  0  0  0
    8.0032    0.2745    0.0000 C   0  0  0  0  0  0  0  0  0  0  0  0
    5.4051    1.7745    0.0000 C   0  0  0  0  0  0  0  0  0  0  0  0
    4.5391    3.2745    0.0000 C   0  0  1  0  0  0  0  0  0  0  0  0
    5.4051    2.7745    0.0000 C   0  0  0  0  0  0  0  0  0  0  0  0
    3.6730    2.7745    0.0000 C   0  0  1  0  0  0  0  0  0  0  0  0
    7.3637   -0.5751    0.0000 C   0  0  1  0  0  0  0  0  0  0  0  0
    3.6730    1.7745    0.0000 C   0  0  2  0  0  0  0  0  0  0  0  0
    3.2247    0.1015    0.0000 C   0  0  0  0  0  0  0  0  0  0  0  0
    2.9659    1.0674    0.0000 C   0  0  0  0  0  0  0  0  0  0  0  0
    4.1907   -0.1574    0.0000 C   0  0  2  0  0  0  0  0  0  0  0  0
    4.5391    4.2745    0.0000 C   0  0  0  0  0  0  0  0  0  0  0  0
    7.7544   -1.4956    0.0000 C   0  0  0  0  0  0  0  0  0  0  0  0
    4.5969    1.3918    0.0000 C   0  0  0  0  0  0  0  0  0  0  0  0
    4.6907   -1.0234    0.0000 C   0  0  0  0  0  0  0  0  0  0  0  0
    2.2247    0.1015    0.0000 C   0  0  0  0  0  0  0  0  0  0  0  0
    2.7247   -0.7646    0.0000 C   0  0  0  0  0  0  0  0  0  0  0  0
    5.6566   -1.2822    0.0000 C   0  0  0  0  0  0  0  0  0  0  0  0
    7.1525   -2.2942    0.0000 C   0  0  0  0  0  0  0  0  0  0  0  0
    8.7469   -1.6176    0.0000 C   0  0  0  0  0  0  0  0  0  0  0  0
    9.1375   -2.5381    0.0000 C   0  0  0  0  0  0  0  0  0  0  0  0
    8.6224   -3.3953    0.0000 C   0  0  0  0  0  0  0  0  0  0  0  0
   10.1990   -3.7594    0.0000 C   0  0  0  0  0  0  0  0  0  0  0  0
   11.0561   -4.2745    0.0000 C   0  0  0  0  0  0  0  0  0  0  0  0
    6.8271    2.3114    0.0000 H   0  0  0  0  0  0  0  0  0  0  0  0
    8.6232    1.2744    0.0000 H   0  0  0  0  0  0  0  0  0  0  0  0
    5.8726    0.7995    0.0000 H   0  0  0  0  0  0  0  0  0  0  0  0
    6.6696    0.7995    0.0000 H   0  0  0  0  0  0  0  0  0  0  0  0
    8.3619   -0.2312    0.0000 H   0  0  0  0  0  0  0  0  0  0  0  0
    8.5939    0.4628    0.0000 H   0  0  0  0  0  0  0  0  0  0  0  0
    4.7945    1.8822    0.0000 H   0  0  0  0  0  0  0  0  0  0  0  0
    5.1930    1.1919    0.0000 H   0  0  0  0  0  0  0  0  0  0  0  0
    5.0760    3.5845    0.0000 H   0  0  0  0  0  0  0  0  0  0  0  0
    6.0157    2.6668    0.0000 H   0  0  0  0  0  0  0  0  0  0  0  0
    5.6171    3.3571    0.0000 H   0  0  0  0  0  0  0  0  0  0  0  0
    3.1361    2.4645    0.0000 H   0  0  0  0  0  0  0  0  0  0  0  0
    7.0215   -1.0921    0.0000 H   0  0  0  0  0  0  0  0  0  0  0  0
    4.1885    2.1189    0.0000 H   0  0  0  0  0  0  0  0  0  0  0  0
    3.9914    0.4297    0.0000 H   0  0  0  0  0  0  0  0  0  0  0  0
    5.1591    4.2745    0.0000 H   0  0  0  0  0  0  0  0  0  0  0  0
    4.5391    4.8945    0.0000 H   0  0  0  0  0  0  0  0  0  0  0  0
    3.9191    4.2745    0.0000 H   0  0  0  0  0  0  0  0  0  0  0  0
    4.3596    0.8190    0.0000 H   0  0  0  0  0  0  0  0  0  0  0  0
    5.1697    1.1545    0.0000 H   0  0  0  0  0  0  0  0  0  0  0  0
    4.8342    1.9646    0.0000 H   0  0  0  0  0  0  0  0  0  0  0  0
    4.0918   -1.1839    0.0000 H   0  0  0  0  0  0  0  0  0  0  0  0
    4.6907   -1.6434    0.0000 H   0  0  0  0  0  0  0  0  0  0  0  0
    2.2248    0.7215    0.0000 H   0  0  0  0  0  0  0  0  0  0  0  0
    1.6047    0.1015    0.0000 H   0  0  0  0  0  0  0  0  0  0  0  0
    2.2247   -0.5185    0.0000 H   0  0  0  0  0  0  0  0  0  0  0  0
    2.1878   -0.4546    0.0000 H   0  0  0  0  0  0  0  0  0  0  0  0
    2.4147   -1.3015    0.0000 H   0  0  0  0  0  0  0  0  0  0  0  0
    3.2617   -1.0746    0.0000 H   0  0  0  0  0  0  0  0  0  0  0  0
    2.8070    3.8945    0.0000 H   0  0  0  0  0  0  0  0  0  0  0  0
    6.6574   -1.9211    0.0000 H   0  0  0  0  0  0  0  0  0  0  0  0
    6.7793   -2.7894    0.0000 H   0  0  0  0  0  0  0  0  0  0  0  0
    7.6476   -2.6674    0.0000 H   0  0  0  0  0  0  0  0  0  0  0  0
    9.1201   -1.1225    0.0000 H   0  0  0  0  0  0  0  0  0  0  0  0
    5.4141    0.5551    0.0000 H   0  0  0  0  0  0  0  0  0  0  0  0
    8.0048   -3.4492    0.0000 H   0  0  0  0  0  0  0  0  0  0  0  0
   10.7367   -4.8059    0.0000 H   0  0  0  0  0  0  0  0  0  0  0  0
   11.5875   -4.5938    0.0000 H   0  0  0  0  0  0  0  0  0  0  0  0
   11.3755   -3.7431    0.0000 H   0  0  0  0  0  0  0  0  0  0  0  0
  1 32  1  0  0  0  0
  1 33  1  0  0  0  0
  9  2  1  1  0  0  0
 10  2  1  1  0  0  0
  3 17  1  0  0  0  0
  3 28  1  0  0  0  0
 16  4  1  1  0  0  0
  4 64  1  0  0  0  0
 21  5  1  1  0  0  0
  5 69  1  0  0  0  0
  6 20  2  0  0  0  0
  7 28  2  0  0  0  0
  8 31  1  0  0  0  0
  8 33  2  0  0  0  0
  9 10  1  0  0  0  0
  9 11  1  0  0  0  0
  9 35  1  0  0  0  0
 10 12  1  0  0  0  0
 10 36  1  0  0  0  0
 11 13  1  0  0  0  0
 11 37  1  0  0  0  0
 11 38  1  0  0  0  0
 12 17  1  0  0  0  0
 12 39  1  0  0  0  0
 12 40  1  0  0  0  0
 13 15  1  0  0  0  0
 13 41  1  0  0  0  0
 13 42  1  0  0  0  0
 14 15  1  0  0  0  0
 14 16  1  0  0  0  0
 14 22  1  1  0  0  0
 14 43  1  0  0  0  0
 15 44  1  0  0  0  0
 15 45  1  0  0  0  0
 16 18  1  0  0  0  0
 16 46  1  0  0  0  0
 17 23  1  1  0  0  0
 17 47  1  0  0  0  0
 18 20  1  0  0  0  0
 18 24  1  1  0  0  0
 18 48  1  0  0  0  0
 19 20  1  0  0  0  0
 19 21  1  0  0  0  0
 19 26  1  0  0  0  0
 19 27  1  0  0  0  0
 21 25  1  0  0  0  0
 21 49  1  0  0  0  0
 22 50  1  0  0  0  0
 22 51  1  0  0  0  0
 22 52  1  0  0  0  0
 23 29  1  0  0  0  0
 23 30  2  0  0  0  0
 24 53  1  0  0  0  0
 24 54  1  0  0  0  0
 24 55  1  0  0  0  0
 25 28  1  0  0  0  0
 25 56  1  0  0  0  0
 25 57  1  0  0  0  0
 26 58  1  0  0  0  0
 26 59  1  0  0  0  0
 26 60  1  0  0  0  0
 27 61  1  0  0  0  0
 27 62  1  0  0  0  0
 27 63  1  0  0  0  0
 29 65  1  0  0  0  0
 29 66  1  0  0  0  0
 29 67  1  0  0  0  0
 30 31  1  0  0  0  0
 30 68  1  0  0  0  0
 31 32  2  0  0  0  0
 32 70  1  0  0  0  0
 33 34  1  0  0  0  0
 34 71  1  0  0  0  0
 34 72  1  0  0  0  0
 34 73  1  0  0  0  0
M  END
> <PUBCHEM_COMPOUND_CID>
448799

> <PUBCHEM_COMPOUND_CANONICALIZED>
1

> <PUBCHEM_CACTVS_COMPLEXITY>
770

> <PUBCHEM_CACTVS_HBOND_ACCEPTOR>
8

> <PUBCHEM_CACTVS_HBOND_DONOR>
2

> <PUBCHEM_CACTVS_ROTATABLE_BOND>
2

> <PUBCHEM_CACTVS_SUBSKEYS>
AAADcfB6OABAAAAAAAAAAAAAEgAAAWAAAAAAAAAAAAAAAAABgAAAHgQACAAADxyl1gKiiRIIFgisA6TyTACC8KBhCjgAiBUQIBgIFBagIQACUAAFoACooAfI7vSvAAAAAAAAAAAAAAAAAAAAAAAAAAAAAA==

> <PUBCHEM_IUPAC_OPENEYE_NAME>
(1R,5S,6S,7R,10S,14S,16S)-6,10-dihydroxy-5,7,9,9-tetramethyl-14-[(E)-1-methyl-2-(2-methylthiazol-4-yl)vinyl]-13,17-dioxabicyclo[14.1.0]heptadecane-8,12-dione

> <PUBCHEM_IUPAC_CAS_NAME>
(1R,5S,6S,7R,10S,14S,16S)-6,10-dihydroxy-5,7,9,9-tetramethyl-14-[(E)-1-(2-methyl-4-thiazolyl)prop-1-en-2-yl]-13,17-dioxabicyclo[14.1.0]heptadecane-8,12-dione

> <PUBCHEM_IUPAC_NAME>
(1R,5S,6S,7R,10S,14S,16S)-6,10-dihydroxy-5,7,9,9-tetramethyl-14-[(E)-1-(2-methyl-1,3-thiazol-4-yl)prop-1-en-2-yl]-13,17-dioxabicyclo[14.1.0]heptadecane-8,12-dione

> <PUBCHEM_IUPAC_SYSTEMATIC_NAME>
(1R,5S,6S,7R,10S,14S,16S)-5,7,9,9-tetramethyl-14-[(E)-1-(2-methyl-1,3-thiazol-4-yl)prop-1-en-2-yl]-6,10-bis(oxidanyl)-13,17-dioxabicyclo[14.1.0]heptadecane-8,12-dione

> <PUBCHEM_IUPAC_TRADITIONAL_NAME>
(1R,5S,6S,7R,10S,14S,16S)-6,10-dihydroxy-5,7,9,9-tetramethyl-14-[(E)-1-methyl-2-(2-methylthiazol-4-yl)vinyl]-13,17-dioxabicyclo[14.1.0]heptadecane-8,12-quinone

> <PUBCHEM_IUPAC_INCHI>
InChI=1S/C26H39NO6S/c1-14-8-7-9-19-21(32-19)11-20(15(2)10-18-13-34-17(4)27-18)33-23(29)12-22(28)26(5,6)25(31)16(3)24(14)30/h10,13-14,16,19-22,24,28,30H,7-9,11-12H2,1-6H3/b15-10+/t14-,16+,19+,20-,21-,22-,24-/m0/s1

> <PUBCHEM_IUPAC_INCHIKEY>
HESCAJZNRMSMJG-KKQRBIROSA-N

> <PUBCHEM_XLOGP3_AA>
4

> <PUBCHEM_EXACT_MASS>
493.249809

> <PUBCHEM_MOLECULAR_FORMULA>
C26H39NO6S

> <PUBCHEM_MOLECULAR_WEIGHT>
493.65596

> <PUBCHEM_OPENEYE_CAN_SMILES>
CC1CCCC2C(O2)CC(OC(=O)CC(C(C(=O)C(C1O)C)(C)C)O)C(=CC3=CSC(=N3)C)C

> <PUBCHEM_OPENEYE_ISO_SMILES>
C[C@H]1CCC[C@@H]2[C@@H](O2)C[C@H](OC(=O)C[C@@H](C(C(=O)[C@@H]([C@H]1O)C)(C)C)O)/C(=C/C3=CSC(=N3)C)/C

> <PUBCHEM_CACTVS_TPSA>
138

> <PUBCHEM_MONOISOTOPIC_WEIGHT>
493.249809

> <PUBCHEM_TOTAL_CHARGE>
0

> <PUBCHEM_HEAVY_ATOM_COUNT>
34

> <PUBCHEM_ATOM_DEF_STEREO_COUNT>
7

> <PUBCHEM_ATOM_UDEF_STEREO_COUNT>
0

> <PUBCHEM_BOND_DEF_STEREO_COUNT>
1

> <PUBCHEM_BOND_UDEF_STEREO_COUNT>
0

> <PUBCHEM_ISOTOPIC_ATOM_COUNT>
0

> <PUBCHEM_COMPONENT_COUNT>
1

> <PUBCHEM_CACTVS_TAUTO_COUNT>
4

> <PUBCHEM_COORDINATE_TYPE>
1
5
255

> <PUBCHEM_BONDANNOTATIONS>
1  32  8
1  33  8
14  22  5
17  23  5
18  24  5
10  2  5
9  2  5
31  32  8
16  4  5
21  5  5
8  31  8
8  33  8

$$$$

