47205035
  -OEChem-06241222573D

 36 37  0     0  0  0  0  0  0999 V2000
    1.2354   -1.0621   -0.7955 O   0  0  0  0  0  0  0  0  0  0  0  0
   -1.3281   -0.9627   -1.6118 O   0  0  0  0  0  0  0  0  0  0  0  0
   -2.1232   -1.5524    0.4925 N   0  0  0  0  0  0  0  0  0  0  0  0
   -4.4260    0.6556   -0.6910 N   0  0  0  0  0  0  0  0  0  0  0  0
   -4.9481    1.8403   -0.3303 N   0  0  0  0  0  0  0  0  0  0  0  0
    2.8084    0.7609   -0.7799 C   0  0  0  0  0  0  0  0  0  0  0  0
    2.4030   -0.4984   -0.3377 C   0  0  0  0  0  0  0  0  0  0  0  0
   -3.5323   -1.5242    0.1751 C   0  0  0  0  0  0  0  0  0  0  0  0
    4.7787    0.6148    0.6107 C   0  0  0  0  0  0  0  0  0  0  0  0
    3.9962    1.3174   -0.3057 C   0  0  0  0  0  0  0  0  0  0  0  0
   -4.1230   -0.1567    0.3621 C   0  0  0  0  0  0  0  0  0  0  0  0
    3.1853   -1.2011    0.5789 C   0  0  0  0  0  0  0  0  0  0  0  0
    0.2485   -1.3703    0.1658 C   0  0  0  0  0  0  0  0  0  0  0  0
    4.3730   -0.6445    1.0530 C   0  0  0  0  0  0  0  0  0  0  0  0
   -1.1359   -1.2665   -0.4375 C   0  0  0  0  0  0  0  0  0  0  0  0
    1.9839    1.5266   -1.7612 C   0  0  0  0  0  0  0  0  0  0  0  0
    6.0479    1.2102    1.1193 C   0  0  0  0  0  0  0  0  0  0  0  0
   -4.4707    0.5457    1.4901 C   0  0  0  0  0  0  0  0  0  0  0  0
   -4.9731    1.7673    1.0032 C   0  0  0  0  0  0  0  0  0  0  0  0
   -3.6755   -1.8695   -0.8551 H   0  0  0  0  0  0  0  0  0  0  0  0
   -4.0312   -2.2361    0.8413 H   0  0  0  0  0  0  0  0  0  0  0  0
    4.3172    2.2982   -0.6489 H   0  0  0  0  0  0  0  0  0  0  0  0
    2.8862   -2.1864    0.9258 H   0  0  0  0  0  0  0  0  0  0  0  0
    0.3977   -2.3966    0.5199 H   0  0  0  0  0  0  0  0  0  0  0  0
    0.2965   -0.6825    1.0202 H   0  0  0  0  0  0  0  0  0  0  0  0
    4.9753   -1.2034    1.7643 H   0  0  0  0  0  0  0  0  0  0  0  0
   -1.8566   -1.7767    1.4469 H   0  0  0  0  0  0  0  0  0  0  0  0
    1.8784    0.9605   -2.6926 H   0  0  0  0  0  0  0  0  0  0  0  0
    0.9895    1.7258   -1.3480 H   0  0  0  0  0  0  0  0  0  0  0  0
    2.4361    2.4921   -2.0119 H   0  0  0  0  0  0  0  0  0  0  0  0
    6.2899    0.8349    2.1195 H   0  0  0  0  0  0  0  0  0  0  0  0
    6.8744    0.9652    0.4448 H   0  0  0  0  0  0  0  0  0  0  0  0
    5.9679    2.2998    1.1972 H   0  0  0  0  0  0  0  0  0  0  0  0
   -4.3753    0.2216    2.5161 H   0  0  0  0  0  0  0  0  0  0  0  0
   -4.3034    0.4678   -1.6783 H   0  0  0  0  0  0  0  0  0  0  0  0
   -5.3561    2.6073    1.5646 H   0  0  0  0  0  0  0  0  0  0  0  0
  1  7  1  0  0  0  0
  1 13  1  0  0  0  0
  2 15  2  0  0  0  0
  3  8  1  0  0  0  0
  3 15  1  0  0  0  0
  3 27  1  0  0  0  0
  4  5  1  0  0  0  0
  4 11  1  0  0  0  0
  4 35  1  0  0  0  0
  5 19  2  0  0  0  0
  6  7  2  0  0  0  0
  6 10  1  0  0  0  0
  6 16  1  0  0  0  0
  7 12  1  0  0  0  0
  8 11  1  0  0  0  0
  8 20  1  0  0  0  0
  8 21  1  0  0  0  0
  9 10  2  0  0  0  0
  9 14  1  0  0  0  0
  9 17  1  0  0  0  0
 10 22  1  0  0  0  0
 11 18  2  0  0  0  0
 12 14  2  0  0  0  0
 12 23  1  0  0  0  0
 13 15  1  0  0  0  0
 13 24  1  0  0  0  0
 13 25  1  0  0  0  0
 14 26  1  0  0  0  0
 16 28  1  0  0  0  0
 16 29  1  0  0  0  0
 16 30  1  0  0  0  0
 17 31  1  0  0  0  0
 17 32  1  0  0  0  0
 17 33  1  0  0  0  0
 18 19  1  0  0  0  0
 18 34  1  0  0  0  0
 19 36  1  0  0  0  0
M  END
> <PUBCHEM_COMPOUND_CID>
47205035

> <PUBCHEM_CONFORMER_RMSD>
1

> <PUBCHEM_CONFORMER_DIVERSEORDER>
2
3
8
12
97
108
107
14
41
100
80
81
57
35
87
98
28
21
42
48
62
61
109
9
73
59
46
74
23
60
1
84
33
30
20
36
53
38
56
70
18
27
69
66
52
15
96
63
13
106
72
40
91
76
47
101
17
55
29
31
77
7
4
105
49
68
19
95
37
51
85
11
22
88
71
65
34
16
92
44
104
50
39
64
79
78
93
45
5
83
86
58
54
82
32
99
89
102
43
6
94
90
103
25
10
24
26
75
67

> <PUBCHEM_MMFF94_PARTIAL_CHARGES>
26
1 -0.36
10 -0.15
11 -0.33
12 -0.15
13 0.34
14 -0.15
15 0.57
16 0.14
17 0.14
18 -0.15
19 0.14
2 -0.57
22 0.15
23 0.15
26 0.15
27 0.37
3 -0.73
34 0.15
35 0.27
36 0.15
4 0.3
5 -0.71
6 -0.14
7 0.08
8 0.48
9 -0.14

> <PUBCHEM_EFFECTIVE_ROTOR_COUNT>
6

> <PUBCHEM_PHARMACOPHORE_FEATURES>
7
1 1 acceptor
1 2 acceptor
1 3 donor
1 4 donor
1 5 acceptor
5 4 5 11 18 19 rings
6 6 7 9 10 12 14 rings

> <PUBCHEM_HEAVY_ATOM_COUNT>
19

> <PUBCHEM_ATOM_DEF_STEREO_COUNT>
0

> <PUBCHEM_ATOM_UDEF_STEREO_COUNT>
0

> <PUBCHEM_BOND_DEF_STEREO_COUNT>
0

> <PUBCHEM_BOND_UDEF_STEREO_COUNT>
0

> <PUBCHEM_ISOTOPIC_ATOM_COUNT>
0

> <PUBCHEM_COMPONENT_COUNT>
1

> <PUBCHEM_CACTVS_TAUTO_COUNT>
4

> <PUBCHEM_CONFORMER_ID>
02D04AAB00000002

> <PUBCHEM_MMFF94_ENERGY>
38.6153

> <PUBCHEM_FEATURE_SELFOVERLAP>
35.527

> <PUBCHEM_SHAPE_MULTIPOLES>
364.33
13.96
1.95
1.35
2.65
0.22
0.16
7.01
-5.53
1.04
0.07
-0.19
0.34
-0.67

> <PUBCHEM_SHAPE_SELFOVERLAP>
764.061

> <PUBCHEM_SHAPE_VOLUME>
206.4

> <PUBCHEM_COORDINATE_TYPE>
2
5
10

$$$$

