13359
  -OEChem-06261209193D

 20 19  0     1  0  0  0  0  0999 V2000
    1.7425    2.2516   -0.0409 S   0  0  0  0  0  0  0  0  0  0  0  0
   -1.1192   -0.0362    0.4008 O   0  0  0  0  0  0  0  0  0  0  0  0
   -0.0018   -0.6404   -1.5236 O   0  0  0  0  0  0  0  0  0  0  0  0
    1.6963   -1.7870    0.5843 N   0  0  0  0  0  0  0  0  0  0  0  0
    1.2032   -0.4075    0.5798 C   0  0  1  0  0  0  0  0  0  0  0  0
    2.2996    0.5209    0.0551 C   0  0  0  0  0  0  0  0  0  0  0  0
   -0.0176   -0.3921   -0.3243 C   0  0  0  0  0  0  0  0  0  0  0  0
   -2.3435    0.0440   -0.3358 C   0  0  0  0  0  0  0  0  0  0  0  0
   -3.4594    0.4467    0.6045 C   0  0  0  0  0  0  0  0  0  0  0  0
    0.9195   -0.1313    1.6018 H   0  0  0  0  0  0  0  0  0  0  0  0
    3.1756    0.4860    0.7119 H   0  0  0  0  0  0  0  0  0  0  0  0
    2.6248    0.2275   -0.9496 H   0  0  0  0  0  0  0  0  0  0  0  0
   -2.2423    0.7907   -1.1313 H   0  0  0  0  0  0  0  0  0  0  0  0
   -2.5674   -0.9325   -0.7794 H   0  0  0  0  0  0  0  0  0  0  0  0
    2.5140   -1.8524    1.1899 H   0  0  0  0  0  0  0  0  0  0  0  0
    2.0214   -2.0425   -0.3480 H   0  0  0  0  0  0  0  0  0  0  0  0
   -4.4124    0.5179    0.0728 H   0  0  0  0  0  0  0  0  0  0  0  0
   -3.5608   -0.2812    1.4162 H   0  0  0  0  0  0  0  0  0  0  0  0
   -3.2409    1.4134    1.0699 H   0  0  0  0  0  0  0  0  0  0  0  0
    0.8397    2.0775   -1.0171 H   0  0  0  0  0  0  0  0  0  0  0  0
  1  6  1  0  0  0  0
  1 20  1  0  0  0  0
  2  7  1  0  0  0  0
  2  8  1  0  0  0  0
  3  7  2  0  0  0  0
  4  5  1  0  0  0  0
  4 15  1  0  0  0  0
  4 16  1  0  0  0  0
  5  6  1  0  0  0  0
  5  7  1  0  0  0  0
  5 10  1  0  0  0  0
  6 11  1  0  0  0  0
  6 12  1  0  0  0  0
  8  9  1  0  0  0  0
  8 13  1  0  0  0  0
  8 14  1  0  0  0  0
  9 17  1  0  0  0  0
  9 18  1  0  0  0  0
  9 19  1  0  0  0  0
M  END
> <PUBCHEM_COMPOUND_CID>
13359

> <PUBCHEM_CONFORMER_RMSD>
0.6

> <PUBCHEM_CONFORMER_DIVERSEORDER>
1
35
21
14
22
37
32
50
11
28
41
17
25
16
27
20
29
8
15
40
24
13
36
26
34
19
6
2
49
33
4
23
45
43
5
46
47
30
44
39
3
31
9
42
18
48
12
10
38
7

> <PUBCHEM_MMFF94_PARTIAL_CHARGES>
11
1 -0.41
15 0.36
16 0.36
2 -0.43
20 0.18
3 -0.57
4 -0.99
5 0.33
6 0.23
7 0.66
8 0.28

> <PUBCHEM_EFFECTIVE_ROTOR_COUNT>
4

> <PUBCHEM_PHARMACOPHORE_FEATURES>
3
1 3 acceptor
1 4 cation
1 4 donor

> <PUBCHEM_HEAVY_ATOM_COUNT>
9

> <PUBCHEM_ATOM_DEF_STEREO_COUNT>
1

> <PUBCHEM_ATOM_UDEF_STEREO_COUNT>
0

> <PUBCHEM_BOND_DEF_STEREO_COUNT>
0

> <PUBCHEM_BOND_UDEF_STEREO_COUNT>
0

> <PUBCHEM_ISOTOPIC_ATOM_COUNT>
0

> <PUBCHEM_COMPONENT_COUNT>
1

> <PUBCHEM_CACTVS_TAUTO_COUNT>
1

> <PUBCHEM_CONFORMER_ID>
0000342F00000001

> <PUBCHEM_MMFF94_ENERGY>
7.153

> <PUBCHEM_FEATURE_SELFOVERLAP>
15.223

> <PUBCHEM_SHAPE_FINGERPRINT>
10857977 72 15841557353397596677
12932764 1 18272931643967463863
14390081 3 18336546010716611761
15775835 57 18189612744036929857
20653085 51 17826498986351628604
21040471 1 16660373570918018511
29004967 10 17988369259743239138
3248919 1 17676768768807730455
5084963 1 18113622304295843315

> <PUBCHEM_SHAPE_MULTIPOLES>
172.35
4.29
1.71
0.95
3.78
0.49
0.25
1.48
-0.84
-1.58
-0.15
0.1
-0.17
-0.35

> <PUBCHEM_SHAPE_SELFOVERLAP>
307.338

> <PUBCHEM_SHAPE_VOLUME>
113.8

> <PUBCHEM_COORDINATE_TYPE>
2
5
10

$$$$

