10176360
  -OEChem-07051213093D

 19 19  0     0  0  0  0  0  0999 V2000
   -2.6274    2.0569   -0.2498 O   0  0  0  0  0  0  0  0  0  0  0  0
   -4.1473   -0.1089    0.2314 O   0  0  0  0  0  0  0  0  0  0  0  0
    4.3142    1.1252    0.6457 O   0  0  0  0  0  0  0  0  0  0  0  0
    4.1845   -0.8206   -0.5386 O   0  0  0  0  0  0  0  0  0  0  0  0
   -0.0837   -0.4468   -0.1482 C   0  0  0  0  0  0  0  0  0  0  0  0
   -0.6281    0.7772   -0.2706 C   0  0  0  0  0  0  0  0  0  0  0  0
   -0.9326   -1.6019    0.1113 C   0  0  0  0  0  0  0  0  0  0  0  0
   -2.0886    0.9661   -0.1450 C   0  0  0  0  0  0  0  0  0  0  0  0
   -2.2621   -1.5457    0.2435 C   0  0  0  0  0  0  0  0  0  0  0  0
    1.3538   -0.5763   -0.2821 C   0  0  0  0  0  0  0  0  0  0  0  0
   -2.9389   -0.2434    0.1235 C   0  0  0  0  0  0  0  0  0  0  0  0
    2.2032    0.3118    0.2300 C   0  0  0  0  0  0  0  0  0  0  0  0
    3.6530    0.1062    0.0490 C   0  0  0  0  0  0  0  0  0  0  0  0
   -0.0541    1.6738   -0.4818 H   0  0  0  0  0  0  0  0  0  0  0  0
   -0.4398   -2.5666    0.2023 H   0  0  0  0  0  0  0  0  0  0  0  0
    1.7080   -1.4639   -0.7997 H   0  0  0  0  0  0  0  0  0  0  0  0
   -2.8587   -2.4285    0.4369 H   0  0  0  0  0  0  0  0  0  0  0  0
    1.8850    1.1884    0.7845 H   0  0  0  0  0  0  0  0  0  0  0  0
    5.2868    1.0362    0.5534 H   0  0  0  0  0  0  0  0  0  0  0  0
  1  8  2  0  0  0  0
  2 11  2  0  0  0  0
  3 13  1  0  0  0  0
  3 19  1  0  0  0  0
  4 13  2  0  0  0  0
  5  6  2  0  0  0  0
  5  7  1  0  0  0  0
  5 10  1  0  0  0  0
  6  8  1  0  0  0  0
  6 14  1  0  0  0  0
  7  9  2  0  0  0  0
  7 15  1  0  0  0  0
  8 11  1  0  0  0  0
  9 11  1  0  0  0  0
  9 17  1  0  0  0  0
 10 12  2  0  0  0  0
 10 16  1  0  0  0  0
 12 13  1  0  0  0  0
 12 18  1  0  0  0  0
M  END
> <PUBCHEM_COMPOUND_CID>
10176360

> <PUBCHEM_CONFORMER_RMSD>
0.6

> <PUBCHEM_CONFORMER_DIVERSEORDER>
1
3
2

> <PUBCHEM_MMFF94_PARTIAL_CHARGES>
18
1 -0.57
10 -0.15
11 0.56
12 -0.14
13 0.71
14 0.15
15 0.15
16 0.15
17 0.15
18 0.15
19 0.5
2 -0.57
3 -0.65
4 -0.57
6 -0.14
7 -0.15
8 0.56
9 -0.14

> <PUBCHEM_EFFECTIVE_ROTOR_COUNT>
2

> <PUBCHEM_PHARMACOPHORE_FEATURES>
6
1 1 acceptor
1 2 acceptor
1 3 acceptor
1 4 acceptor
3 3 4 13 anion
6 5 6 7 8 9 11 rings

> <PUBCHEM_HEAVY_ATOM_COUNT>
13

> <PUBCHEM_ATOM_DEF_STEREO_COUNT>
0

> <PUBCHEM_ATOM_UDEF_STEREO_COUNT>
0

> <PUBCHEM_BOND_DEF_STEREO_COUNT>
1

> <PUBCHEM_BOND_UDEF_STEREO_COUNT>
0

> <PUBCHEM_ISOTOPIC_ATOM_COUNT>
0

> <PUBCHEM_COMPONENT_COUNT>
1

> <PUBCHEM_CACTVS_TAUTO_COUNT>
1

> <PUBCHEM_CONFORMER_ID>
009B476800000001

> <PUBCHEM_MMFF94_ENERGY>
28.7015

> <PUBCHEM_FEATURE_SELFOVERLAP>
30.509

> <PUBCHEM_SHAPE_FINGERPRINT>
10608611 8 18407762547226363320
11132069 177 18413109433205874308
12119455 92 17530965804186277535
12251169 10 18272371945140761700
12932764 1 17531254915889146774
13024252 1 12319741367068352879
13081056 2 18334574646523730320
13897977 58 18271519797822670772
14144814 61 18272092720732143506
14325111 11 18410856594305476588
15219456 202 18188484795498921334
16945 1 18342446037619486231
18186145 218 18040990769963166434
20279233 1 18186796972615823902
20510252 161 18335420201014632153
20528008 55 18408608041233963451
20645464 45 18187639223986445063
20645477 56 18408888408436204912
20645477 70 17240756324817350942
20871998 184 18262513693900907759
23402539 116 18409738339825724975
23559900 14 18335704975053460586
2748010 2 18053935427836813391
43471831 8 18131355249367463099
474 4 16557047958494805772
6333449 129 18410013247369957463
69090 78 18259707782928440071
7364860 26 18265898153905461386

> <PUBCHEM_SHAPE_MULTIPOLES>
244.06
7.54
1.56
0.66
5.97
0.16
0
0.96
0.59
-0.99
-0.01
0.16
0
0.52

> <PUBCHEM_SHAPE_SELFOVERLAP>
512.407

> <PUBCHEM_SHAPE_VOLUME>
136.9

> <PUBCHEM_COORDINATE_TYPE>
2
5
10

$$$$

