11527333
  -OEChem-07051213123D

 38 38  0     1  0  0  0  0  0999 V2000
   -2.0746    2.2379   -1.7586 Cl  0  0  0  0  0  0  0  0  0  0  0  0
   -4.9665   -2.2033   -0.8200 Cl  0  0  0  0  0  0  0  0  0  0  0  0
    1.2713    1.2587   -1.1673 O   0  0  0  0  0  0  0  0  0  0  0  0
    0.5983    0.9486    1.0298 N   0  0  0  0  0  0  0  0  0  0  0  0
    4.7794    1.1136   -1.0057 N   0  0  0  0  0  0  0  0  0  0  0  0
    2.6309   -1.4787    0.1374 C   0  0  0  0  0  0  0  0  0  0  0  0
    2.7597    0.0686    0.3361 C   0  0  2  0  0  0  0  0  0  0  0  0
    1.4919   -2.0912    0.9768 C   0  0  0  0  0  0  0  0  0  0  0  0
    2.3699   -1.8112   -1.3475 C   0  0  0  0  0  0  0  0  0  0  0  0
    3.9548   -2.1707    0.5362 C   0  0  0  0  0  0  0  0  0  0  0  0
    1.4772    0.8218   -0.0359 C   0  0  0  0  0  0  0  0  0  0  0  0
   -0.6753    1.6210    0.9171 C   0  0  1  0  0  0  0  0  0  0  0  0
   -1.7633    0.6740    0.4515 C   0  0  0  0  0  0  0  0  0  0  0  0
    3.8897    0.6550   -0.4184 C   0  0  0  0  0  0  0  0  0  0  0  0
   -1.0312    2.2815    2.2510 C   0  0  0  0  0  0  0  0  0  0  0  0
   -2.4322    0.8909   -0.7404 C   0  0  0  0  0  0  0  0  0  0  0  0
   -2.0594   -0.4099    1.2610 C   0  0  0  0  0  0  0  0  0  0  0  0
   -3.4274   -0.0029   -1.1359 C   0  0  0  0  0  0  0  0  0  0  0  0
   -3.0546   -1.3036    0.8656 C   0  0  0  0  0  0  0  0  0  0  0  0
   -3.7386   -1.1001   -0.3328 C   0  0  0  0  0  0  0  0  0  0  0  0
    2.9581    0.2578    1.4009 H   0  0  0  0  0  0  0  0  0  0  0  0
    0.5102   -1.7617    0.6263 H   0  0  0  0  0  0  0  0  0  0  0  0
    1.4992   -3.1856    0.9136 H   0  0  0  0  0  0  0  0  0  0  0  0
    1.5924   -1.8209    2.0333 H   0  0  0  0  0  0  0  0  0  0  0  0
    2.3141   -2.8961   -1.4983 H   0  0  0  0  0  0  0  0  0  0  0  0
    1.4197   -1.3924   -1.6955 H   0  0  0  0  0  0  0  0  0  0  0  0
    3.1643   -1.4373   -2.0018 H   0  0  0  0  0  0  0  0  0  0  0  0
    3.8703   -3.2607    0.4551 H   0  0  0  0  0  0  0  0  0  0  0  0
    4.2189   -1.9374    1.5738 H   0  0  0  0  0  0  0  0  0  0  0  0
    4.7911   -1.8669   -0.1022 H   0  0  0  0  0  0  0  0  0  0  0  0
   -0.5197    2.4422    0.2138 H   0  0  0  0  0  0  0  0  0  0  0  0
    0.8277    0.5068    1.9153 H   0  0  0  0  0  0  0  0  0  0  0  0
   -1.9918    2.8045    2.1869 H   0  0  0  0  0  0  0  0  0  0  0  0
   -0.2659    3.0151    2.5303 H   0  0  0  0  0  0  0  0  0  0  0  0
   -1.0938    1.5594    3.0726 H   0  0  0  0  0  0  0  0  0  0  0  0
   -1.5339   -0.5914    2.1939 H   0  0  0  0  0  0  0  0  0  0  0  0
   -3.9621    0.1543   -2.0703 H   0  0  0  0  0  0  0  0  0  0  0  0
   -3.2852   -2.1554    1.5004 H   0  0  0  0  0  0  0  0  0  0  0  0
  1 16  1  0  0  0  0
  2 20  1  0  0  0  0
  3 11  2  0  0  0  0
  4 11  1  0  0  0  0
  4 12  1  0  0  0  0
  4 32  1  0  0  0  0
  5 14  3  0  0  0  0
  6  7  1  0  0  0  0
  6  8  1  0  0  0  0
  6  9  1  0  0  0  0
  6 10  1  0  0  0  0
  7 11  1  0  0  0  0
  7 14  1  0  0  0  0
  7 21  1  0  0  0  0
  8 22  1  0  0  0  0
  8 23  1  0  0  0  0
  8 24  1  0  0  0  0
  9 25  1  0  0  0  0
  9 26  1  0  0  0  0
  9 27  1  0  0  0  0
 10 28  1  0  0  0  0
 10 29  1  0  0  0  0
 10 30  1  0  0  0  0
 12 13  1  0  0  0  0
 12 15  1  0  0  0  0
 12 31  1  0  0  0  0
 13 16  2  0  0  0  0
 13 17  1  0  0  0  0
 15 33  1  0  0  0  0
 15 34  1  0  0  0  0
 15 35  1  0  0  0  0
 16 18  1  0  0  0  0
 17 19  2  0  0  0  0
 17 36  1  0  0  0  0
 18 20  2  0  0  0  0
 18 37  1  0  0  0  0
 19 20  1  0  0  0  0
 19 38  1  0  0  0  0
M  END
> <PUBCHEM_COMPOUND_CID>
11527333

> <PUBCHEM_CONFORMER_RMSD>
0.8

> <PUBCHEM_CONFORMER_DIVERSEORDER>
2
19
33
25
35
1
23
18
29
20
32
27
21
30
17
24
13
26
7
3
28
22
14
16
34
31
9
6
15
11
10
12
8
5
4

> <PUBCHEM_MMFF94_PARTIAL_CHARGES>
19
1 -0.18
11 0.57
12 0.44
13 -0.14
14 0.36
16 0.18
17 -0.15
18 -0.15
19 -0.15
2 -0.18
20 0.18
3 -0.57
32 0.37
36 0.15
37 0.15
38 0.15
4 -0.73
5 -0.56
7 0.26

> <PUBCHEM_EFFECTIVE_ROTOR_COUNT>
5

> <PUBCHEM_PHARMACOPHORE_FEATURES>
5
1 3 acceptor
1 4 donor
1 5 acceptor
4 6 8 9 10 hydrophobe
6 13 16 17 18 19 20 rings

> <PUBCHEM_HEAVY_ATOM_COUNT>
20

> <PUBCHEM_ATOM_DEF_STEREO_COUNT>
1

> <PUBCHEM_ATOM_UDEF_STEREO_COUNT>
1

> <PUBCHEM_BOND_DEF_STEREO_COUNT>
0

> <PUBCHEM_BOND_UDEF_STEREO_COUNT>
0

> <PUBCHEM_ISOTOPIC_ATOM_COUNT>
0

> <PUBCHEM_COMPONENT_COUNT>
1

> <PUBCHEM_CACTVS_TAUTO_COUNT>
2

> <PUBCHEM_CONFORMER_ID>
00AFE4A500000002

> <PUBCHEM_MMFF94_ENERGY>
48.0694

> <PUBCHEM_FEATURE_SELFOVERLAP>
25.371

> <PUBCHEM_SHAPE_FINGERPRINT>
11370993 70 17847066562250472418
11578080 2 18264509401810453264
122479 349 9439404648837932501
12506688 2 18262519178600083195
12553582 1 17603311427241810503
12596599 1 18119520179473298214
12788726 201 17750509749344570441
12824470 246 18335139791400541017
13224815 77 18187645842599567890
14787075 74 17971192526328866776
18981168 100 12678607758479774217
200 152 18335420140805663017
20361792 2 17385734577570050145
21250096 35 18113341886371834211
21285901 2 18272663337624448247
21731516 1 17676488358460799977
22393880 68 18200592622324241782
23557571 272 16701447962472401697
23559900 14 18267038326177876920
23598288 3 17677606639106501249
2871803 45 18343021068909859166
463206 1 18262808345943141239
474 4 10519443921670835007
7970288 3 17530962449669731167
9709674 26 18131350816849806711

> <PUBCHEM_SHAPE_MULTIPOLES>
399.5
8.61
2.73
1.66
1.2
0.31
-0.19
4.52
2.73
-0.43
-0.11
-0.61
-0.8
-0.53

> <PUBCHEM_SHAPE_SELFOVERLAP>
800.184

> <PUBCHEM_SHAPE_VOLUME>
236.5

> <PUBCHEM_COORDINATE_TYPE>
2
5
10

$$$$

