439685
  -OEChem-07051212473D

 16 16  0     1  0  0  0  0  0999 V2000
   -2.6935    0.7906    0.1837 O   0  0  0  0  0  0  0  0  0  0  0  0
    2.6859   -0.3871    0.1809 O   0  0  0  0  0  0  0  0  0  0  0  0
    1.4442    1.4745    0.5286 O   0  0  0  0  0  0  0  0  0  0  0  0
   -0.6139    0.5347   -0.8612 N   0  0  0  0  0  0  0  0  0  0  0  0
    0.5122   -0.3514   -0.7736 C   0  0  2  0  0  0  0  0  0  0  0  0
   -0.0448   -1.5756   -0.0724 C   0  0  0  0  0  0  0  0  0  0  0  0
   -1.2028   -1.0363    0.7669 C   0  0  0  0  0  0  0  0  0  0  0  0
   -1.6407    0.1954    0.0129 C   0  0  0  0  0  0  0  0  0  0  0  0
    1.5534    0.3551    0.0342 C   0  0  0  0  0  0  0  0  0  0  0  0
    0.8937   -0.5542   -1.7779 H   0  0  0  0  0  0  0  0  0  0  0  0
    0.6833   -2.1202    0.5361 H   0  0  0  0  0  0  0  0  0  0  0  0
   -0.4438   -2.2739   -0.8192 H   0  0  0  0  0  0  0  0  0  0  0  0
   -0.8676   -0.7373    1.7649 H   0  0  0  0  0  0  0  0  0  0  0  0
   -2.0186   -1.7588    0.8454 H   0  0  0  0  0  0  0  0  0  0  0  0
   -0.6459    1.3496   -1.4661 H   0  0  0  0  0  0  0  0  0  0  0  0
    3.3631    0.0828    0.7129 H   0  0  0  0  0  0  0  0  0  0  0  0
  1  8  2  0  0  0  0
  2  9  1  0  0  0  0
  2 16  1  0  0  0  0
  3  9  2  0  0  0  0
  4  5  1  0  0  0  0
  4  8  1  0  0  0  0
  4 15  1  0  0  0  0
  5  6  1  0  0  0  0
  5  9  1  0  0  0  0
  5 10  1  0  0  0  0
  6  7  1  0  0  0  0
  6 11  1  0  0  0  0
  6 12  1  0  0  0  0
  7  8  1  0  0  0  0
  7 13  1  0  0  0  0
  7 14  1  0  0  0  0
M  END
> <PUBCHEM_COMPOUND_CID>
439685

> <PUBCHEM_CONFORMER_RMSD>
0.4

> <PUBCHEM_CONFORMER_DIVERSEORDER>
1
6
5
4
3
2

> <PUBCHEM_MMFF94_PARTIAL_CHARGES>
10
1 -0.57
15 0.37
16 0.5
2 -0.65
3 -0.57
4 -0.73
5 0.36
7 0.06
8 0.57
9 0.66

> <PUBCHEM_EFFECTIVE_ROTOR_COUNT>
1.8

> <PUBCHEM_PHARMACOPHORE_FEATURES>
6
1 1 acceptor
1 2 acceptor
1 3 acceptor
1 4 donor
3 2 3 9 anion
5 4 5 6 7 8 rings

> <PUBCHEM_HEAVY_ATOM_COUNT>
9

> <PUBCHEM_ATOM_DEF_STEREO_COUNT>
1

> <PUBCHEM_ATOM_UDEF_STEREO_COUNT>
0

> <PUBCHEM_BOND_DEF_STEREO_COUNT>
0

> <PUBCHEM_BOND_UDEF_STEREO_COUNT>
0

> <PUBCHEM_ISOTOPIC_ATOM_COUNT>
0

> <PUBCHEM_COMPONENT_COUNT>
1

> <PUBCHEM_CACTVS_TAUTO_COUNT>
3

> <PUBCHEM_CONFORMER_ID>
0006B58500000001

> <PUBCHEM_MMFF94_ENERGY>
15.1254

> <PUBCHEM_FEATURE_SELFOVERLAP>
30.506

> <PUBCHEM_SHAPE_FINGERPRINT>
12897270 3 9151177553851318082
137420 1 16892034361578052958
14128692 85 11743248719894677769
18185500 45 16970259640296098246
20645464 45 18262244322347193704
20653085 51 16805592655683026312
21040471 1 18271514356077858279
24536 1 17629772175323255254
29004967 10 18114455747274297558
369184 2 17968100763538741466
5084963 1 18131352994545840935

> <PUBCHEM_SHAPE_MULTIPOLES>
162.63
2.97
1.35
0.82
0.18
0.2
0.05
-0.68
-0.49
-0.04
-0.15
-0.03
0.02
0.22

> <PUBCHEM_SHAPE_SELFOVERLAP>
331.802

> <PUBCHEM_SHAPE_VOLUME>
95.6

> <PUBCHEM_COORDINATE_TYPE>
2
5
10

$$$$

