10085783
  -OEChem-07051213122D

 40 41  0     1  0  0  0  0  0999 V2000
    2.8660    2.2756    0.0000 Si  0  0  0  0  0  0  0  0  0  0  0  0
    3.7320   -3.2244    0.0000 F   0  0  0  0  0  0  0  0  0  0  0  0
    2.7320    0.7756    0.0000 O   0  0  0  0  0  0  0  0  0  0  0  0
    5.2320    1.6417    0.0000 N   0  0  0  0  0  0  0  0  0  0  0  0
    6.2266    1.7462    0.0000 N   0  0  0  0  0  0  0  0  0  0  0  0
    5.5685    3.2244    0.0000 N   0  0  0  0  0  0  0  0  0  0  0  0
    3.7320    1.7756    0.0000 C   0  0  0  0  0  0  0  0  0  0  0  0
    3.7320    0.7756    0.0000 C   0  0  3  0  0  0  0  0  0  0  0  0
    4.7320    0.7756    0.0000 C   0  0  0  0  0  0  0  0  0  0  0  0
    2.0000    2.7756    0.0000 C   0  0  0  0  0  0  0  0  0  0  0  0
    3.3660    3.1417    0.0000 C   0  0  0  0  0  0  0  0  0  0  0  0
    2.3660    1.4096    0.0000 C   0  0  0  0  0  0  0  0  0  0  0  0
    3.7320   -0.2244    0.0000 C   0  0  0  0  0  0  0  0  0  0  0  0
    2.8660   -0.7244    0.0000 C   0  0  0  0  0  0  0  0  0  0  0  0
    4.5981   -0.7244    0.0000 C   0  0  0  0  0  0  0  0  0  0  0  0
    2.8660   -1.7244    0.0000 C   0  0  0  0  0  0  0  0  0  0  0  0
    4.5981   -1.7244    0.0000 C   0  0  0  0  0  0  0  0  0  0  0  0
    4.8253    2.5552    0.0000 C   0  0  0  0  0  0  0  0  0  0  0  0
    3.7320   -2.2244    0.0000 C   0  0  0  0  0  0  0  0  0  0  0  0
    6.4345    2.7244    0.0000 C   0  0  0  0  0  0  0  0  0  0  0  0
    4.3426    1.6680    0.0000 H   0  0  0  0  0  0  0  0  0  0  0  0
    3.9441    2.3583    0.0000 H   0  0  0  0  0  0  0  0  0  0  0  0
    4.6244    0.1651    0.0000 H   0  0  0  0  0  0  0  0  0  0  0  0
    5.3147    0.5636    0.0000 H   0  0  0  0  0  0  0  0  0  0  0  0
    2.3100    3.3126    0.0000 H   0  0  0  0  0  0  0  0  0  0  0  0
    1.4631    3.0856    0.0000 H   0  0  0  0  0  0  0  0  0  0  0  0
    1.6900    2.2387    0.0000 H   0  0  0  0  0  0  0  0  0  0  0  0
    3.9030    2.8317    0.0000 H   0  0  0  0  0  0  0  0  0  0  0  0
    3.6760    3.6786    0.0000 H   0  0  0  0  0  0  0  0  0  0  0  0
    2.8291    3.4517    0.0000 H   0  0  0  0  0  0  0  0  0  0  0  0
    1.8291    1.7196    0.0000 H   0  0  0  0  0  0  0  0  0  0  0  0
    2.0560    0.8727    0.0000 H   0  0  0  0  0  0  0  0  0  0  0  0
    2.9030    1.0996    0.0000 H   0  0  0  0  0  0  0  0  0  0  0  0
    2.4220    0.2387    0.0000 H   0  0  0  0  0  0  0  0  0  0  0  0
    2.3291   -0.4144    0.0000 H   0  0  0  0  0  0  0  0  0  0  0  0
    5.1350   -0.4144    0.0000 H   0  0  0  0  0  0  0  0  0  0  0  0
    2.3291   -2.0344    0.0000 H   0  0  0  0  0  0  0  0  0  0  0  0
    5.1350   -2.0344    0.0000 H   0  0  0  0  0  0  0  0  0  0  0  0
    4.2189    2.6841    0.0000 H   0  0  0  0  0  0  0  0  0  0  0  0
    7.0009    2.9765    0.0000 H   0  0  0  0  0  0  0  0  0  0  0  0
  1  7  1  0  0  0  0
  1 10  1  0  0  0  0
  1 11  1  0  0  0  0
  1 12  1  0  0  0  0
  2 19  1  0  0  0  0
  3  8  1  0  0  0  0
  3 34  1  0  0  0  0
  4  5  1  0  0  0  0
  4  9  1  0  0  0  0
  4 18  1  0  0  0  0
  5 20  2  0  0  0  0
  6 18  2  0  0  0  0
  6 20  1  0  0  0  0
  7  8  1  0  0  0  0
  7 21  1  0  0  0  0
  7 22  1  0  0  0  0
  8  9  1  0  0  0  0
  8 13  1  0  0  0  0
  9 23  1  0  0  0  0
  9 24  1  0  0  0  0
 10 25  1  0  0  0  0
 10 26  1  0  0  0  0
 10 27  1  0  0  0  0
 11 28  1  0  0  0  0
 11 29  1  0  0  0  0
 11 30  1  0  0  0  0
 12 31  1  0  0  0  0
 12 32  1  0  0  0  0
 12 33  1  0  0  0  0
 13 14  2  0  0  0  0
 13 15  1  0  0  0  0
 14 16  1  0  0  0  0
 14 35  1  0  0  0  0
 15 17  2  0  0  0  0
 15 36  1  0  0  0  0
 16 19  2  0  0  0  0
 16 37  1  0  0  0  0
 17 19  1  0  0  0  0
 17 38  1  0  0  0  0
 18 39  1  0  0  0  0
 20 40  1  0  0  0  0
M  END
> <PUBCHEM_COMPOUND_CID>
10085783

> <PUBCHEM_COMPOUND_CANONICALIZED>
1

> <PUBCHEM_CACTVS_COMPLEXITY>
318

> <PUBCHEM_CACTVS_HBOND_ACCEPTOR>
4

> <PUBCHEM_CACTVS_HBOND_DONOR>
1

> <PUBCHEM_CACTVS_ROTATABLE_BOND>
5

> <PUBCHEM_CACTVS_SUBSKEYS>
AAADceBzIQgAAAAAAAAAAAAAAAAAAWAAAAAwAAAAAAAAAAABwAAAHxAICAAADETBuAx3EIYIEgGiAiBDJAASAAswgIAdyAAICIiKLiKAmRGEcAAswAMYmAeQwOAOgAAAAAAAAAAAAAAAAAAAAAAAAAAAAA==

> <PUBCHEM_IUPAC_OPENEYE_NAME>
2-(4-fluorophenyl)-1-(1,2,4-triazol-1-yl)-3-trimethylsilyl-propan-2-ol

> <PUBCHEM_IUPAC_CAS_NAME>
2-(4-fluorophenyl)-1-(1,2,4-triazol-1-yl)-3-trimethylsilyl-2-propanol

> <PUBCHEM_IUPAC_NAME>
2-(4-fluorophenyl)-1-(1,2,4-triazol-1-yl)-3-trimethylsilylpropan-2-ol

> <PUBCHEM_IUPAC_SYSTEMATIC_NAME>
2-(4-fluorophenyl)-1-(1,2,4-triazol-1-yl)-3-trimethylsilyl-propan-2-ol

> <PUBCHEM_IUPAC_TRADITIONAL_NAME>
2-(4-fluorophenyl)-1-(1,2,4-triazol-1-yl)-3-trimethylsilyl-propan-2-ol

> <PUBCHEM_IUPAC_INCHI>
InChI=1S/C14H20FN3OSi/c1-20(2,3)9-14(19,8-18-11-16-10-17-18)12-4-6-13(15)7-5-12/h4-7,10-11,19H,8-9H2,1-3H3

> <PUBCHEM_IUPAC_INCHIKEY>
YABFPHSQTSFWQB-UHFFFAOYSA-N

> <PUBCHEM_EXACT_MASS>
293.135967

> <PUBCHEM_MOLECULAR_FORMULA>
C14H20FN3OSi

> <PUBCHEM_MOLECULAR_WEIGHT>
293.412003

> <PUBCHEM_OPENEYE_CAN_SMILES>
C[Si](C)(C)CC(CN1C=NC=N1)(C2=CC=C(C=C2)F)O

> <PUBCHEM_OPENEYE_ISO_SMILES>
C[Si](C)(C)CC(CN1C=NC=N1)(C2=CC=C(C=C2)F)O

> <PUBCHEM_CACTVS_TPSA>
50.9

> <PUBCHEM_MONOISOTOPIC_WEIGHT>
293.135967

> <PUBCHEM_TOTAL_CHARGE>
0

> <PUBCHEM_HEAVY_ATOM_COUNT>
20

> <PUBCHEM_ATOM_DEF_STEREO_COUNT>
0

> <PUBCHEM_ATOM_UDEF_STEREO_COUNT>
1

> <PUBCHEM_BOND_DEF_STEREO_COUNT>
0

> <PUBCHEM_BOND_UDEF_STEREO_COUNT>
0

> <PUBCHEM_ISOTOPIC_ATOM_COUNT>
0

> <PUBCHEM_COMPONENT_COUNT>
1

> <PUBCHEM_CACTVS_TAUTO_COUNT>
1

> <PUBCHEM_COORDINATE_TYPE>
1
5
255

> <PUBCHEM_BONDANNOTATIONS>
13  14  8
13  15  8
14  16  8
15  17  8
16  19  8
17  19  8
4  18  8
4  5  8
5  20  8
6  18  8
6  20  8
8  9  3

$$$$

