10261389
  -OEChem-07051213083D

 21 20  0     1  0  0  0  0  0999 V2000
   -3.3980   -1.1506   -0.4209 O   0  0  0  0  0  0  0  0  0  0  0  0
   -1.7453    1.8759   -0.7127 O   0  0  0  0  0  0  0  0  0  0  0  0
   -1.5798    1.1721    1.4375 O   0  0  0  0  0  0  0  0  0  0  0  0
    3.7042    0.8072   -0.4126 O   0  0  0  0  0  0  0  0  0  0  0  0
    3.1131   -1.1504    0.5752 O   0  0  0  0  0  0  0  0  0  0  0  0
   -1.0705   -0.3934   -0.3634 C   0  0  1  0  0  0  0  0  0  0  0  0
    0.3631   -0.7698    0.0523 C   0  0  0  0  0  0  0  0  0  0  0  0
    1.3944    0.2624   -0.4144 C   0  0  0  0  0  0  0  0  0  0  0  0
   -2.0900   -1.4649    0.0400 C   0  0  0  0  0  0  0  0  0  0  0  0
   -1.4916    0.9400    0.2389 C   0  0  0  0  0  0  0  0  0  0  0  0
    2.8004   -0.1285   -0.0198 C   0  0  0  0  0  0  0  0  0  0  0  0
   -1.1046   -0.2878   -1.4562 H   0  0  0  0  0  0  0  0  0  0  0  0
    0.4198   -0.8704    1.1441 H   0  0  0  0  0  0  0  0  0  0  0  0
    0.6157   -1.7524   -0.3661 H   0  0  0  0  0  0  0  0  0  0  0  0
    1.3600    0.3539   -1.5055 H   0  0  0  0  0  0  0  0  0  0  0  0
    1.1856    1.2393    0.0343 H   0  0  0  0  0  0  0  0  0  0  0  0
   -2.1405   -1.5678    1.1293 H   0  0  0  0  0  0  0  0  0  0  0  0
   -1.8119   -2.4397   -0.3746 H   0  0  0  0  0  0  0  0  0  0  0  0
   -3.3531   -1.0630   -1.3883 H   0  0  0  0  0  0  0  0  0  0  0  0
   -2.0060    2.7357   -0.3191 H   0  0  0  0  0  0  0  0  0  0  0  0
    4.6193    0.5596   -0.1606 H   0  0  0  0  0  0  0  0  0  0  0  0
  1  9  1  0  0  0  0
  1 19  1  0  0  0  0
  2 10  1  0  0  0  0
  2 20  1  0  0  0  0
  3 10  2  0  0  0  0
  4 11  1  0  0  0  0
  4 21  1  0  0  0  0
  5 11  2  0  0  0  0
  6  7  1  0  0  0  0
  6  9  1  0  0  0  0
  6 10  1  0  0  0  0
  6 12  1  0  0  0  0
  7  8  1  0  0  0  0
  7 13  1  0  0  0  0
  7 14  1  0  0  0  0
  8 11  1  0  0  0  0
  8 15  1  0  0  0  0
  8 16  1  0  0  0  0
  9 17  1  0  0  0  0
  9 18  1  0  0  0  0
M  END
> <PUBCHEM_COMPOUND_CID>
10261389

> <PUBCHEM_CONFORMER_RMSD>
0.6

> <PUBCHEM_CONFORMER_DIVERSEORDER>
1
81
68
63
27
21
70
66
61
43
24
37
34
65
60
54
10
49
57
78
18
79
71
4
74
52
84
2
30
35
87
77
26
22
85
59
73
72
67
69
80
13
38
25
33
86
83
64
31
62
23
11
76
14
56
5
45
41
55
15
20
51
3
12
82
8
50
7
44
75
39
53
29
46
28
16
6
47
17
58
42
9
48
32
40
36
19

> <PUBCHEM_MMFF94_PARTIAL_CHARGES>
13
1 -0.68
10 0.66
11 0.66
19 0.4
2 -0.65
20 0.5
21 0.5
3 -0.57
4 -0.65
5 -0.57
6 0.06
8 0.06
9 0.28

> <PUBCHEM_EFFECTIVE_ROTOR_COUNT>
5

> <PUBCHEM_PHARMACOPHORE_FEATURES>
8
1 1 acceptor
1 1 donor
1 2 acceptor
1 3 acceptor
1 4 acceptor
1 5 acceptor
3 2 3 10 anion
3 4 5 11 anion

> <PUBCHEM_HEAVY_ATOM_COUNT>
11

> <PUBCHEM_ATOM_DEF_STEREO_COUNT>
0

> <PUBCHEM_ATOM_UDEF_STEREO_COUNT>
1

> <PUBCHEM_BOND_DEF_STEREO_COUNT>
0

> <PUBCHEM_BOND_UDEF_STEREO_COUNT>
0

> <PUBCHEM_ISOTOPIC_ATOM_COUNT>
0

> <PUBCHEM_COMPONENT_COUNT>
1

> <PUBCHEM_CACTVS_TAUTO_COUNT>
1

> <PUBCHEM_CONFORMER_ID>
009C938D00000001

> <PUBCHEM_MMFF94_ENERGY>
10.925

> <PUBCHEM_FEATURE_SELFOVERLAP>
40.712

> <PUBCHEM_SHAPE_FINGERPRINT>
12932764 1 18272077353529016884
14325111 11 18412545435686647230
15775835 57 18341042003925187536
3248919 1 17895478149763396302
369184 2 18343863341966150952
5084963 1 18411702079955374144
8030462 33 17988915674394428254

> <PUBCHEM_SHAPE_MULTIPOLES>
197.03
5.44
1.58
0.85
3.59
0.27
0.18
-0.78
-0.26
-1.03
0
-0.23
0.22
-0.44

> <PUBCHEM_SHAPE_SELFOVERLAP>
374.843

> <PUBCHEM_SHAPE_VOLUME>
120.6

> <PUBCHEM_COORDINATE_TYPE>
2
5
10

$$$$

