194953
  -OEChem-07051212523D

 28 28  0     1  0  0  0  0  0999 V2000
    0.2082   -1.7757   -1.6015 O   0  0  0  0  0  0  0  0  0  0  0  0
   -0.4253    2.3990    1.3492 O   0  0  0  0  0  0  0  0  0  0  0  0
    2.8228   -0.0850    0.7091 O   0  0  0  0  0  0  0  0  0  0  0  0
    2.1187   -2.2339    0.6940 O   0  0  0  0  0  0  0  0  0  0  0  0
    0.4483    0.8169   -0.1525 N   0  0  0  0  0  0  0  0  0  0  0  0
   -3.9859   -0.3063    0.4088 N   0  0  0  0  0  0  0  0  0  0  0  0
    0.4516   -0.4983    0.4373 C   0  0  1  0  0  0  0  0  0  0  0  0
    0.8848    1.2601   -1.4565 C   0  0  0  0  0  0  0  0  0  0  0  0
   -0.4227   -1.4884   -0.3523 C   0  0  1  0  0  0  0  0  0  0  0  0
    0.4626    2.6782   -1.0272 C   0  0  0  0  0  0  0  0  0  0  0  0
    0.0536    2.0244    0.3035 C   0  0  0  0  0  0  0  0  0  0  0  0
   -1.8520   -0.9919   -0.6217 C   0  0  0  0  0  0  0  0  0  0  0  0
    1.8618   -1.0366    0.6290 C   0  0  0  0  0  0  0  0  0  0  0  0
   -2.6266   -0.7624    0.6809 C   0  0  0  0  0  0  0  0  0  0  0  0
    0.0497   -0.3898    1.4517 H   0  0  0  0  0  0  0  0  0  0  0  0
    0.3075    0.8453   -2.2865 H   0  0  0  0  0  0  0  0  0  0  0  0
    1.9549    1.1292   -1.6349 H   0  0  0  0  0  0  0  0  0  0  0  0
   -0.4714   -2.4377    0.1959 H   0  0  0  0  0  0  0  0  0  0  0  0
   -0.3732    3.1082   -1.5846 H   0  0  0  0  0  0  0  0  0  0  0  0
    1.2757    3.4021   -0.9340 H   0  0  0  0  0  0  0  0  0  0  0  0
   -1.8372   -0.0811   -1.2324 H   0  0  0  0  0  0  0  0  0  0  0  0
   -2.3746   -1.7392   -1.2340 H   0  0  0  0  0  0  0  0  0  0  0  0
   -2.1413   -0.0068    1.3039 H   0  0  0  0  0  0  0  0  0  0  0  0
   -2.6714   -1.6892    1.2629 H   0  0  0  0  0  0  0  0  0  0  0  0
   -0.3352   -2.4390   -2.0600 H   0  0  0  0  0  0  0  0  0  0  0  0
   -4.4650   -0.9916   -0.1745 H   0  0  0  0  0  0  0  0  0  0  0  0
   -3.9537    0.5525   -0.1397 H   0  0  0  0  0  0  0  0  0  0  0  0
    3.7158   -0.4743    0.8248 H   0  0  0  0  0  0  0  0  0  0  0  0
  1  9  1  0  0  0  0
  1 25  1  0  0  0  0
  2 11  2  0  0  0  0
  3 13  1  0  0  0  0
  3 28  1  0  0  0  0
  4 13  2  0  0  0  0
  5  7  1  0  0  0  0
  5  8  1  0  0  0  0
  5 11  1  0  0  0  0
  6 14  1  0  0  0  0
  6 26  1  0  0  0  0
  6 27  1  0  0  0  0
  7  9  1  0  0  0  0
  7 13  1  0  0  0  0
  7 15  1  0  0  0  0
  8 10  1  0  0  0  0
  8 16  1  0  0  0  0
  8 17  1  0  0  0  0
  9 12  1  0  0  0  0
  9 18  1  0  0  0  0
 10 11  1  0  0  0  0
 10 19  1  0  0  0  0
 10 20  1  0  0  0  0
 12 14  1  0  0  0  0
 12 21  1  0  0  0  0
 12 22  1  0  0  0  0
 14 23  1  0  0  0  0
 14 24  1  0  0  0  0
M  END
> <PUBCHEM_COMPOUND_CID>
194953

> <PUBCHEM_CONFORMER_RMSD>
0.6

> <PUBCHEM_CONFORMER_DIVERSEORDER>
1
94
34
102
35
64
107
92
77
85
2
70
105
103
97
49
24
83
74
61
104
44
41
108
80
10
11
84
100
59
101
65
9
89
27
23
82
37
13
28
12
96
95
91
5
86
106
72
18
43
69
81
63
26
29
54
25
90
71
47
76
58
3
67
42
48
46
87
75
56
60
39
99
73
55
53
36
4
45
19
38
17
32
40
16
68
52
93
78
62
50
6
79
57
51
31
88
22
66
30
8
33
14
15
20
21
98
7

> <PUBCHEM_MMFF94_PARTIAL_CHARGES>
17
1 -0.68
10 0.05
11 0.58
13 0.66
14 0.27
2 -0.57
25 0.4
26 0.36
27 0.36
28 0.5
3 -0.65
4 -0.57
5 -0.59
6 -0.99
7 0.36
8 0.22
9 0.28

> <PUBCHEM_EFFECTIVE_ROTOR_COUNT>
5.6

> <PUBCHEM_PHARMACOPHORE_FEATURES>
9
1 1 acceptor
1 1 donor
1 2 acceptor
1 3 acceptor
1 4 acceptor
1 6 cation
1 6 donor
3 3 4 13 anion
4 5 8 10 11 rings

> <PUBCHEM_HEAVY_ATOM_COUNT>
14

> <PUBCHEM_ATOM_DEF_STEREO_COUNT>
2

> <PUBCHEM_ATOM_UDEF_STEREO_COUNT>
0

> <PUBCHEM_BOND_DEF_STEREO_COUNT>
0

> <PUBCHEM_BOND_UDEF_STEREO_COUNT>
0

> <PUBCHEM_ISOTOPIC_ATOM_COUNT>
0

> <PUBCHEM_COMPONENT_COUNT>
1

> <PUBCHEM_CACTVS_TAUTO_COUNT>
1

> <PUBCHEM_CONFORMER_ID>
0002F98900000001

> <PUBCHEM_MMFF94_ENERGY>
19.718

> <PUBCHEM_FEATURE_SELFOVERLAP>
45.731

> <PUBCHEM_SHAPE_FINGERPRINT>
10219947 1 18334017207029505387
12423570 1 16747266991397924014
13132413 78 18337113367069264260
13380536 167 18268126803486445724
14817 1 10480322713174368471
15775835 57 17977093566527349397
16945 1 18200882768296402446
17357990 137 17896860098509246107
19930374 2 17335051751537470265
20379382 53 17986958453275866047
20388701 513 18193276527497223577
20511035 2 18193561064827976627
20559304 39 18336541595722229739
21524375 3 17760071927013692359
23419403 2 18049760495875728593
23526113 38 17271765850749381191
2748010 2 18267604565638370950
305870 269 17836089974519454697
3250762 1 17468192687959785302
430814 3 17481139003864296965
81228 2 17981604084946198275

> <PUBCHEM_SHAPE_MULTIPOLES>
254.67
3.54
2.86
1.28
3.88
0.96
0.28
-0.82
-0.9
-1.6
-0.02
-0.19
0.2
-0.73

> <PUBCHEM_SHAPE_SELFOVERLAP>
506.945

> <PUBCHEM_SHAPE_VOLUME>
149.6

> <PUBCHEM_COORDINATE_TYPE>
2
5
10

$$$$

