439488
  -OEChem-07051212453D

 40 42  0     1  0  0  0  0  0999 V2000
   -3.8629    0.2972    0.9177 P   0  0  2  0  0  0  0  0  0  0  0  0
   -4.2890   -2.0938   -0.7423 P   0  0  0  0  0  0  0  0  0  0  0  0
    0.1878    1.7662    0.8843 O   0  0  0  0  0  0  0  0  0  0  0  0
    0.5785    4.4359   -0.6159 O   0  0  0  0  0  0  0  0  0  0  0  0
   -2.5564    1.2475    1.0134 O   0  0  0  0  0  0  0  0  0  0  0  0
   -3.4320   -0.8847   -0.0977 O   0  0  0  0  0  0  0  0  0  0  0  0
   -4.9257    1.1586    0.0542 O   0  0  0  0  0  0  0  0  0  0  0  0
   -4.3865   -0.1871    2.2387 O   0  0  0  0  0  0  0  0  0  0  0  0
    4.5941   -3.3101    0.1629 O   0  0  0  0  0  0  0  0  0  0  0  0
   -4.6634   -3.0025    0.5408 O   0  0  0  0  0  0  0  0  0  0  0  0
   -3.1733   -2.9716   -1.5149 O   0  0  0  0  0  0  0  0  0  0  0  0
   -5.4548   -1.6577   -1.5796 O   0  0  0  0  0  0  0  0  0  0  0  0
    1.9402    0.3594    0.1245 N   0  0  0  0  0  0  0  0  0  0  0  0
    2.0100   -1.8855    0.2165 N   0  0  0  0  0  0  0  0  0  0  0  0
    4.3415    0.7444    0.0018 N   0  0  0  0  0  0  0  0  0  0  0  0
    5.6750   -1.2614    0.0280 N   0  0  0  0  0  0  0  0  0  0  0  0
   -0.0585    3.2165   -0.9907 C   0  0  2  0  0  0  0  0  0  0  0  0
    1.3850    1.7074    0.0897 C   0  0  1  0  0  0  0  0  0  0  0  0
   -0.7685    2.6183    0.2192 C   0  0  1  0  0  0  0  0  0  0  0  0
    1.0112    2.1950   -1.3026 C   0  0  0  0  0  0  0  0  0  0  0  0
   -1.9701    1.7670   -0.1672 C   0  0  0  0  0  0  0  0  0  0  0  0
    3.2423   -0.0117    0.0823 C   0  0  0  0  0  0  0  0  0  0  0  0
    1.2284   -0.8187    0.2057 C   0  0  0  0  0  0  0  0  0  0  0  0
    3.2759   -1.3770    0.1386 C   0  0  0  0  0  0  0  0  0  0  0  0
    4.5440   -2.0872    0.1131 C   0  0  0  0  0  0  0  0  0  0  0  0
    5.5272    0.0356   -0.0205 C   0  0  0  0  0  0  0  0  0  0  0  0
   -0.7178    3.4317   -1.8355 H   0  0  0  0  0  0  0  0  0  0  0  0
    2.1177    2.3709    0.5637 H   0  0  0  0  0  0  0  0  0  0  0  0
   -1.0704    3.3836    0.9433 H   0  0  0  0  0  0  0  0  0  0  0  0
    0.5880    1.3796   -1.9014 H   0  0  0  0  0  0  0  0  0  0  0  0
    1.8772    2.6029   -1.8331 H   0  0  0  0  0  0  0  0  0  0  0  0
   -1.6658    0.9269   -0.7997 H   0  0  0  0  0  0  0  0  0  0  0  0
   -2.7090    2.3699   -0.7041 H   0  0  0  0  0  0  0  0  0  0  0  0
    1.0553    4.2996    0.2198 H   0  0  0  0  0  0  0  0  0  0  0  0
    0.1477   -0.8386    0.2492 H   0  0  0  0  0  0  0  0  0  0  0  0
    4.3321    1.7579   -0.0441 H   0  0  0  0  0  0  0  0  0  0  0  0
    6.4099    0.6910   -0.0877 H   0  0  0  0  0  0  0  0  0  0  0  0
   -5.4405    1.8631    0.5022 H   0  0  0  0  0  0  0  0  0  0  0  0
   -5.2650   -3.7680    0.4213 H   0  0  0  0  0  0  0  0  0  0  0  0
   -3.4627   -3.7333   -2.0610 H   0  0  0  0  0  0  0  0  0  0  0  0
  1  5  1  0  0  0  0
  1  6  1  0  0  0  0
  1  7  1  0  0  0  0
  1  8  2  0  0  0  0
  2  6  1  0  0  0  0
  2 10  1  0  0  0  0
  2 11  1  0  0  0  0
  2 12  2  0  0  0  0
  3 18  1  0  0  0  0
  3 19  1  0  0  0  0
  4 17  1  0  0  0  0
  4 34  1  0  0  0  0
  5 21  1  0  0  0  0
  7 38  1  0  0  0  0
  9 25  2  0  0  0  0
 10 39  1  0  0  0  0
 11 40  1  0  0  0  0
 13 18  1  0  0  0  0
 13 22  1  0  0  0  0
 13 23  1  0  0  0  0
 14 23  2  0  0  0  0
 14 24  1  0  0  0  0
 15 22  1  0  0  0  0
 15 26  1  0  0  0  0
 15 36  1  0  0  0  0
 16 25  1  0  0  0  0
 16 26  2  0  0  0  0
 17 19  1  0  0  0  0
 17 20  1  0  0  0  0
 17 27  1  0  0  0  0
 18 20  1  0  0  0  0
 18 28  1  0  0  0  0
 19 21  1  0  0  0  0
 19 29  1  0  0  0  0
 20 30  1  0  0  0  0
 20 31  1  0  0  0  0
 21 32  1  0  0  0  0
 21 33  1  0  0  0  0
 22 24  2  0  0  0  0
 23 35  1  0  0  0  0
 24 25  1  0  0  0  0
 26 37  1  0  0  0  0
M  END
> <PUBCHEM_COMPOUND_CID>
439488

> <PUBCHEM_CONFORMER_RMSD>
0.8

> <PUBCHEM_CONFORMER_DIVERSEORDER>
1
249
226
174
114
195
73
254
247
281
96
171
46
223
95
53
212
41
159
263
79
172
58
187
111
89
207
49
91
293
303
229
250
4
217
248
125
272
176
42
283
147
68
40
214
21
48
183
124
100
188
302
121
47
184
115
82
38
15
44
266
245
265
142
10
102
167
242
9
67
238
277
182
261
246
284
294
152
134
224
192
264
24
256
123
19
74
87
236
129
179
60
30
78
209
255
45
270
204
37
154
289
232
92
162
128
83
54
240
257
145
151
131
23
213
244
2
72
51
65
169
120
282
117
127
13
98
137
308
97
225
70
59
243
156
227
252
215
208
118
211
197
146
231
17
7
178
228
122
189
12
274
155
237
99
180
126
166
273
50
305
163
85
108
220
104
135
25
18
221
164
153
233
260
186
234
76
141
3
288
148
251
101
84
253
268
259
285
29
77
57
262
161
177
170
33
27
181
119
61
291
185
138
88
136
200
218
36
75
62
298
304
11
309
103
279
43
132
105
276
199
269
86
292
219
14
310
235
110
6
139
267
205
168
216
112
140
296
31
306
81
301
201
206
5
258
130
290
52
16
56
35
150
69
55
20
222
158
173
28
193
287
71
64
307
271
106
275
143
26
63
39
133
297
94
109
113
286
191
93
80
157
300
202
175
239
66
116
190
299
144
32
8
107
295
34
149
230
90
165
280
241
278
196
210
194
198
160
22
203

> <PUBCHEM_MMFF94_PARTIAL_CHARGES>
32
1 1.51
10 -0.77
11 -0.77
12 -0.7
13 0.05
14 -0.57
15 -0.53
16 -0.66
17 0.28
18 0.54
19 0.28
2 1.51
21 0.28
22 -0.07
23 0.04
24 0.14
25 0.87
26 0.44
3 -0.56
34 0.4
35 0.15
36 0.4
37 0.06
38 0.5
39 0.5
4 -0.68
40 0.5
5 -0.55
6 -0.54
7 -0.77
8 -0.7
9 -0.57

> <PUBCHEM_EFFECTIVE_ROTOR_COUNT>
7

> <PUBCHEM_PHARMACOPHORE_FEATURES>
16
1 10 acceptor
1 11 acceptor
1 12 acceptor
1 15 donor
1 16 donor
1 3 acceptor
1 4 acceptor
1 4 donor
1 7 acceptor
1 8 acceptor
1 9 acceptor
3 13 14 23 cation
4 2 10 11 12 anion
5 13 14 22 23 24 rings
5 3 17 18 19 20 rings
6 15 16 22 24 25 26 rings

> <PUBCHEM_HEAVY_ATOM_COUNT>
26

> <PUBCHEM_ATOM_DEF_STEREO_COUNT>
3

> <PUBCHEM_ATOM_UDEF_STEREO_COUNT>
0

> <PUBCHEM_BOND_DEF_STEREO_COUNT>
0

> <PUBCHEM_BOND_UDEF_STEREO_COUNT>
0

> <PUBCHEM_ISOTOPIC_ATOM_COUNT>
0

> <PUBCHEM_COMPONENT_COUNT>
1

> <PUBCHEM_CACTVS_TAUTO_COUNT>
3

> <PUBCHEM_CONFORMER_ID>
0006B4C000000001

> <PUBCHEM_MMFF94_ENERGY>
3.4955

> <PUBCHEM_FEATURE_SELFOVERLAP>
81.392

> <PUBCHEM_SHAPE_FINGERPRINT>
10622 236 17970928677998510671
11315621 246 18263915700465432894
11552529 35 18189055467967155672
12403259 226 18197780119226262544
12633257 1 17458619047290903697
13004483 165 18126853917524756249
13103583 49 17749660861753182361
13544653 18 18342450478251978776
14117953 113 18191585461829526301
1454969 45 18341329995127201428
14950920 106 17458627843241514440
15352361 1 18410577275365620135
15415430 10 18335422352777110989
15537594 2 18339623595238839971
16110190 28 18335692871397874779
17492 89 18195528091568216571
19141452 34 18336823220980948593
20775530 9 18337682918767169187
23402539 116 18343020008110888162
23559900 14 18265344923910943209
314194 84 18340759360675330400
4280585 95 18342751709956555120
46194498 28 16701162063932713477
463206 1 18342731910389416139
6431902 208 18412823564551999347
88748 71 18340482258507966571
9981440 41 9617004888144087904

> <PUBCHEM_SHAPE_MULTIPOLES>
464.15
12.5
4.39
1.16
0.19
1.46
-0.06
-11.47
-0.35
0.87
1.31
1.75
-0.07
-1.45

> <PUBCHEM_SHAPE_SELFOVERLAP>
960.561

> <PUBCHEM_SHAPE_VOLUME>
267.3

> <PUBCHEM_COORDINATE_TYPE>
2
5
10

$$$$

