46173794
  -OEChem-07051213022D

113115  0     1  0  0  0  0  0999 V2000
    7.7331    3.4050    0.0000 O   0  0  0  0  0  0  0  0  0  0  0  0
    9.4651    3.4050    0.0000 O   0  0  0  0  0  0  0  0  0  0  0  0
    7.7331    5.4050    0.0000 O   0  0  0  0  0  0  0  0  0  0  0  0
   11.1972    5.4050    0.0000 O   0  0  0  0  0  0  0  0  0  0  0  0
    6.0010    3.4050    0.0000 O   0  0  0  0  0  0  0  0  0  0  0  0
    4.2690    0.4050    0.0000 O   0  0  0  0  0  0  0  0  0  0  0  0
    5.1350   -4.0950    0.0000 O   0  0  0  0  0  0  0  0  0  0  0  0
    4.2690   -2.5950    0.0000 O   0  0  0  0  0  0  0  0  0  0  0  0
   10.3312   -1.0950    0.0000 O   0  0  0  0  0  0  0  0  0  0  0  0
   11.1972    2.4050    0.0000 O   0  0  0  0  0  0  0  0  0  0  0  0
    6.1350    0.9050    0.0000 O   0  0  0  0  0  0  0  0  0  0  0  0
    2.5369   -3.5950    0.0000 O   0  0  0  0  0  0  0  0  0  0  0  0
    2.5369   -5.5950    0.0000 O   0  0  0  0  0  0  0  0  0  0  0  0
    4.2690   -6.5950    0.0000 O   0  0  0  0  0  0  0  0  0  0  0  0
    9.4651    6.4050    0.0000 N   0  0  0  0  0  0  0  0  0  0  0  0
    7.7331    2.4050    0.0000 C   0  0  1  0  0  0  0  0  0  0  0  0
    8.5991    1.9050    0.0000 C   0  0  2  0  0  0  0  0  0  0  0  0
    6.8671    1.9050    0.0000 C   0  0  2  0  0  0  0  0  0  0  0  0
    9.4651    5.4050    0.0000 C   0  0  2  0  0  0  0  0  0  0  0  0
    8.5991    4.9050    0.0000 C   0  0  2  0  0  0  0  0  0  0  0  0
    8.5991    3.9050    0.0000 C   0  0  2  0  0  0  0  0  0  0  0  0
   10.3312    4.9050    0.0000 C   0  0  1  0  0  0  0  0  0  0  0  0
   10.3312    3.9050    0.0000 C   0  0  1  0  0  0  0  0  0  0  0  0
    8.5991    0.9050    0.0000 C   0  0  0  0  0  0  0  0  0  0  0  0
    6.0010    2.4050    0.0000 C   0  0  1  0  0  0  0  0  0  0  0  0
    9.4651    2.4050    0.0000 C   0  0  0  0  0  0  0  0  0  0  0  0
    9.4651    0.4050    0.0000 C   0  0  1  0  0  0  0  0  0  0  0  0
    6.8671    0.9050    0.0000 C   0  0  0  0  0  0  0  0  0  0  0  0
    5.1350    1.9050    0.0000 C   0  0  0  0  0  0  0  0  0  0  0  0
   11.1972    3.4050    0.0000 C   0  0  0  0  0  0  0  0  0  0  0  0
   10.3312    6.9050    0.0000 C   0  0  0  0  0  0  0  0  0  0  0  0
    8.5991    6.9050    0.0000 C   0  0  0  0  0  0  0  0  0  0  0  0
   10.4651    0.4050    0.0000 C   0  0  0  0  0  0  0  0  0  0  0  0
    9.4651   -0.5950    0.0000 C   0  0  0  0  0  0  0  0  0  0  0  0
   10.3312    1.9050    0.0000 C   0  0  0  0  0  0  0  0  0  0  0  0
    5.1350    0.9050    0.0000 C   0  0  0  0  0  0  0  0  0  0  0  0
    4.2690   -0.5950    0.0000 C   0  0  1  0  0  0  0  0  0  0  0  0
    5.1350   -1.0950    0.0000 C   0  0  1  0  0  0  0  0  0  0  0  0
    3.4030   -4.0950    0.0000 C   0  0  2  0  0  0  0  0  0  0  0  0
    3.4030   -5.0950    0.0000 C   0  0  1  0  0  0  0  0  0  0  0  0
    4.2690   -3.5950    0.0000 C   0  0  1  0  0  0  0  0  0  0  0  0
    4.2690   -5.5950    0.0000 C   0  0  1  0  0  0  0  0  0  0  0  0
    5.1350   -5.0950    0.0000 C   0  0  1  0  0  0  0  0  0  0  0  0
    5.1350   -2.0950    0.0000 C   0  0  0  0  0  0  0  0  0  0  0  0
    8.5991   -1.0950    0.0000 C   0  0  0  0  0  0  0  0  0  0  0  0
    3.4030   -1.0950    0.0000 C   0  0  0  0  0  0  0  0  0  0  0  0
    6.0010   -0.5950    0.0000 C   0  0  0  0  0  0  0  0  0  0  0  0
    7.7331   -0.5950    0.0000 C   0  0  0  0  0  0  0  0  0  0  0  0
    6.8671   -1.0950    0.0000 C   0  0  0  0  0  0  0  0  0  0  0  0
    6.0010   -5.5950    0.0000 C   0  0  0  0  0  0  0  0  0  0  0  0
    2.5369   -0.5950    0.0000 C   0  0  0  0  0  0  0  0  0  0  0  0
    6.8671   -2.0950    0.0000 C   0  0  0  0  0  0  0  0  0  0  0  0
    8.2700    2.7150    0.0000 H   0  0  0  0  0  0  0  0  0  0  0  0
    8.5991    2.5250    0.0000 H   0  0  0  0  0  0  0  0  0  0  0  0
    6.3301    1.5950    0.0000 H   0  0  0  0  0  0  0  0  0  0  0  0
   10.0021    5.7150    0.0000 H   0  0  0  0  0  0  0  0  0  0  0  0
    8.5991    5.5250    0.0000 H   0  0  0  0  0  0  0  0  0  0  0  0
    8.5991    3.2850    0.0000 H   0  0  0  0  0  0  0  0  0  0  0  0
   10.8681    4.5950    0.0000 H   0  0  0  0  0  0  0  0  0  0  0  0
   10.3312    3.2850    0.0000 H   0  0  0  0  0  0  0  0  0  0  0  0
    7.9885    1.0127    0.0000 H   0  0  0  0  0  0  0  0  0  0  0  0
    8.3871    0.3224    0.0000 H   0  0  0  0  0  0  0  0  0  0  0  0
    6.5380    2.7150    0.0000 H   0  0  0  0  0  0  0  0  0  0  0  0
    9.8637    2.8800    0.0000 H   0  0  0  0  0  0  0  0  0  0  0  0
    9.0666    2.8800    0.0000 H   0  0  0  0  0  0  0  0  0  0  0  0
    9.6256    1.0039    0.0000 H   0  0  0  0  0  0  0  0  0  0  0  0
    6.2471    0.9050    0.0000 H   0  0  0  0  0  0  0  0  0  0  0  0
    6.8671    0.2850    0.0000 H   0  0  0  0  0  0  0  0  0  0  0  0
    7.4871    0.9050    0.0000 H   0  0  0  0  0  0  0  0  0  0  0  0
    4.9230    2.4876    0.0000 H   0  0  0  0  0  0  0  0  0  0  0  0
    4.5244    1.7973    0.0000 H   0  0  0  0  0  0  0  0  0  0  0  0
   10.8872    2.8681    0.0000 H   0  0  0  0  0  0  0  0  0  0  0  0
   11.7341    3.0950    0.0000 H   0  0  0  0  0  0  0  0  0  0  0  0
   11.5072    3.9419    0.0000 H   0  0  0  0  0  0  0  0  0  0  0  0
    7.1962    5.0950    0.0000 H   0  0  0  0  0  0  0  0  0  0  0  0
   11.7341    5.0950    0.0000 H   0  0  0  0  0  0  0  0  0  0  0  0
   10.6412    6.3681    0.0000 H   0  0  0  0  0  0  0  0  0  0  0  0
   10.8681    7.2150    0.0000 H   0  0  0  0  0  0  0  0  0  0  0  0
   10.0212    7.4419    0.0000 H   0  0  0  0  0  0  0  0  0  0  0  0
    8.9091    7.4419    0.0000 H   0  0  0  0  0  0  0  0  0  0  0  0
    8.0622    7.2150    0.0000 H   0  0  0  0  0  0  0  0  0  0  0  0
    8.2891    6.3681    0.0000 H   0  0  0  0  0  0  0  0  0  0  0  0
   10.4651   -0.2150    0.0000 H   0  0  0  0  0  0  0  0  0  0  0  0
   11.0851    0.4050    0.0000 H   0  0  0  0  0  0  0  0  0  0  0  0
   10.4651    1.0250    0.0000 H   0  0  0  0  0  0  0  0  0  0  0  0
   10.6413    1.3681    0.0000 H   0  0  0  0  0  0  0  0  0  0  0  0
    5.4641    3.7150    0.0000 H   0  0  0  0  0  0  0  0  0  0  0  0
    3.7320   -0.2850    0.0000 H   0  0  0  0  0  0  0  0  0  0  0  0
    5.6720   -1.4050    0.0000 H   0  0  0  0  0  0  0  0  0  0  0  0
    3.4030   -3.4750    0.0000 H   0  0  0  0  0  0  0  0  0  0  0  0
    3.4030   -5.7150    0.0000 H   0  0  0  0  0  0  0  0  0  0  0  0
    3.7320   -3.2850    0.0000 H   0  0  0  0  0  0  0  0  0  0  0  0
    4.8059   -5.9050    0.0000 H   0  0  0  0  0  0  0  0  0  0  0  0
    5.6720   -4.7850    0.0000 H   0  0  0  0  0  0  0  0  0  0  0  0
    5.3471   -2.6776    0.0000 H   0  0  0  0  0  0  0  0  0  0  0  0
    5.7456   -1.9873    0.0000 H   0  0  0  0  0  0  0  0  0  0  0  0
    8.5991   -1.7150    0.0000 H   0  0  0  0  0  0  0  0  0  0  0  0
    3.0044   -1.5700    0.0000 H   0  0  0  0  0  0  0  0  0  0  0  0
    3.8015   -1.5700    0.0000 H   0  0  0  0  0  0  0  0  0  0  0  0
    6.0010    0.0250    0.0000 H   0  0  0  0  0  0  0  0  0  0  0  0
    7.7331    0.0250    0.0000 H   0  0  0  0  0  0  0  0  0  0  0  0
    5.6910   -6.1319    0.0000 H   0  0  0  0  0  0  0  0  0  0  0  0
    6.5380   -5.9050    0.0000 H   0  0  0  0  0  0  0  0  0  0  0  0
    6.3110   -5.0581    0.0000 H   0  0  0  0  0  0  0  0  0  0  0  0
    2.8469   -0.0581    0.0000 H   0  0  0  0  0  0  0  0  0  0  0  0
    2.0000   -0.2850    0.0000 H   0  0  0  0  0  0  0  0  0  0  0  0
    2.2269   -1.1319    0.0000 H   0  0  0  0  0  0  0  0  0  0  0  0
    2.0000   -3.9050    0.0000 H   0  0  0  0  0  0  0  0  0  0  0  0
    2.5369   -6.2150    0.0000 H   0  0  0  0  0  0  0  0  0  0  0  0
    4.8059   -6.9050    0.0000 H   0  0  0  0  0  0  0  0  0  0  0  0
    6.2471   -2.0950    0.0000 H   0  0  0  0  0  0  0  0  0  0  0  0
    6.8671   -2.7150    0.0000 H   0  0  0  0  0  0  0  0  0  0  0  0
    7.4871   -2.0950    0.0000 H   0  0  0  0  0  0  0  0  0  0  0  0
 16  1  1  1  0  0  0
 21  1  1  1  0  0  0
  2 21  1  0  0  0  0
  2 23  1  0  0  0  0
 20  3  1  6  0  0  0
  3 75  1  0  0  0  0
 22  4  1  6  0  0  0
  4 76  1  0  0  0  0
 25  5  1  1  0  0  0
  5 87  1  0  0  0  0
  6 36  1  0  0  0  0
  6 37  1  0  0  0  0
  7 41  1  0  0  0  0
  7 43  1  0  0  0  0
 41  8  1  6  0  0  0
  8 44  1  0  0  0  0
  9 34  2  0  0  0  0
 10 35  2  0  0  0  0
 11 36  2  0  0  0  0
 39 12  1  1  0  0  0
 12108  1  0  0  0  0
 40 13  1  1  0  0  0
 13109  1  0  0  0  0
 42 14  1  1  0  0  0
 14110  1  0  0  0  0
 19 15  1  1  0  0  0
 15 31  1  0  0  0  0
 15 32  1  0  0  0  0
 16 17  1  0  0  0  0
 16 18  1  0  0  0  0
 16 53  1  0  0  0  0
 17 24  1  0  0  0  0
 17 26  1  1  0  0  0
 17 54  1  0  0  0  0
 18 25  1  0  0  0  0
 18 28  1  1  0  0  0
 18 55  1  0  0  0  0
 19 20  1  0  0  0  0
 19 22  1  0  0  0  0
 19 56  1  0  0  0  0
 20 21  1  0  0  0  0
 20 57  1  0  0  0  0
 21 58  1  0  0  0  0
 22 23  1  0  0  0  0
 22 59  1  0  0  0  0
 23 30  1  1  0  0  0
 23 60  1  0  0  0  0
 24 27  1  0  0  0  0
 24 61  1  0  0  0  0
 24 62  1  0  0  0  0
 25 29  1  0  0  0  0
 25 63  1  0  0  0  0
 26 35  1  0  0  0  0
 26 64  1  0  0  0  0
 26 65  1  0  0  0  0
 27 33  1  1  0  0  0
 27 34  1  0  0  0  0
 27 66  1  0  0  0  0
 28 67  1  0  0  0  0
 28 68  1  0  0  0  0
 28 69  1  0  0  0  0
 29 36  1  0  0  0  0
 29 70  1  0  0  0  0
 29 71  1  0  0  0  0
 30 72  1  0  0  0  0
 30 73  1  0  0  0  0
 30 74  1  0  0  0  0
 31 77  1  0  0  0  0
 31 78  1  0  0  0  0
 31 79  1  0  0  0  0
 32 80  1  0  0  0  0
 32 81  1  0  0  0  0
 32 82  1  0  0  0  0
 33 83  1  0  0  0  0
 33 84  1  0  0  0  0
 33 85  1  0  0  0  0
 34 45  1  0  0  0  0
 35 86  1  0  0  0  0
 37 38  1  0  0  0  0
 37 46  1  1  0  0  0
 37 88  1  0  0  0  0
 38 44  1  6  0  0  0
 38 47  1  0  0  0  0
 38 89  1  0  0  0  0
 39 40  1  0  0  0  0
 39 41  1  0  0  0  0
 39 90  1  0  0  0  0
 40 42  1  0  0  0  0
 40 91  1  0  0  0  0
 41 92  1  0  0  0  0
 42 43  1  0  0  0  0
 42 93  1  0  0  0  0
 43 50  1  6  0  0  0
 43 94  1  0  0  0  0
 44 95  1  0  0  0  0
 44 96  1  0  0  0  0
 45 48  2  0  0  0  0
 45 97  1  0  0  0  0
 46 51  1  0  0  0  0
 46 98  1  0  0  0  0
 46 99  1  0  0  0  0
 47 49  2  0  0  0  0
 47100  1  0  0  0  0
 48 49  1  0  0  0  0
 48101  1  0  0  0  0
 49 52  1  0  0  0  0
 50102  1  0  0  0  0
 50103  1  0  0  0  0
 50104  1  0  0  0  0
 51105  1  0  0  0  0
 51106  1  0  0  0  0
 51107  1  0  0  0  0
 52111  1  0  0  0  0
 52112  1  0  0  0  0
 52113  1  0  0  0  0
M  END
> <PUBCHEM_COMPOUND_CID>
46173794

> <PUBCHEM_COMPOUND_CANONICALIZED>
1

> <PUBCHEM_CACTVS_COMPLEXITY>
1230

> <PUBCHEM_CACTVS_HBOND_ACCEPTOR>
15

> <PUBCHEM_CACTVS_HBOND_DONOR>
6

> <PUBCHEM_CACTVS_ROTATABLE_BOND>
9

> <PUBCHEM_CACTVS_SUBSKEYS>
AAADcfB+PAAAAAAAAAAAAAAAAAAAAAAAAAAkSAAAAAAAAAAAAAAAHgAACAAADTzxgAcCCAMABgCIAqjSiAAAAAAgAAAICAEIAEgbEBYAgQAmQAAH4AAfgYPK7OzOAAAAAAAAAAAAAAAAAAAAAAAAAAAAAA==

> <PUBCHEM_IUPAC_OPENEYE_NAME>
2-[(4R,5S,6S,7R,9R,11E,13E,15R,16R)-6-[(2R,3R,4S,5S,6R)-4-(dimethylamino)-3,5-dihydroxy-6-methyl-tetrahydropyran-2-yl]oxy-16-ethyl-4-hydroxy-5,9,13-trimethyl-2,10-dioxo-15-[[(2R,3R,4R,5S,6R)-3,4,5-trihydroxy-6-methyl-tetrahydropyran-2-yl]oxymethyl]-1-oxacyclohexadeca-11,13-dien-7-yl]acetaldehyde

> <PUBCHEM_IUPAC_CAS_NAME>
2-[(4R,5S,6S,7R,9R,11E,13E,15R,16R)-6-[[(2R,3R,4S,5S,6R)-4-(dimethylamino)-3,5-dihydroxy-6-methyl-2-oxanyl]oxy]-16-ethyl-4-hydroxy-5,9,13-trimethyl-2,10-dioxo-15-[[(2R,3R,4R,5S,6R)-3,4,5-trihydroxy-6-methyl-2-oxanyl]oxymethyl]-1-oxacyclohexadeca-11,13-dien-7-yl]acetaldehyde

> <PUBCHEM_IUPAC_NAME>
2-[(4R,5S,6S,7R,9R,11E,13E,15R,16R)-6-[(2R,3R,4S,5S,6R)-4-(dimethylamino)-3,5-dihydroxy-6-methyloxan-2-yl]oxy-16-ethyl-4-hydroxy-5,9,13-trimethyl-2,10-dioxo-15-[[(2R,3R,4R,5S,6R)-3,4,5-trihydroxy-6-methyloxan-2-yl]oxymethyl]-1-oxacyclohexadeca-11,13-dien-7-yl]acetaldehyde

> <PUBCHEM_IUPAC_SYSTEMATIC_NAME>
2-[(4R,5S,6S,7R,9R,11E,13E,15R,16R)-6-[(2R,3R,4S,5S,6R)-4-(dimethylamino)-6-methyl-3,5-bis(oxidanyl)oxan-2-yl]oxy-16-ethyl-5,9,13-trimethyl-15-[[(2R,3R,4R,5S,6R)-6-methyl-3,4,5-tris(oxidanyl)oxan-2-yl]oxymethyl]-4-oxidanyl-2,10-bis(oxidanylidene)-1-oxacyclohexadeca-11,13-dien-7-yl]ethanal

> <PUBCHEM_IUPAC_TRADITIONAL_NAME>
2-[(4R,5S,6S,7R,9R,11E,13E,15R,16R)-6-[(2R,3R,4S,5S,6R)-4-(dimethylamino)-3,5-dihydroxy-6-methyl-tetrahydropyran-2-yl]oxy-16-ethyl-4-hydroxy-2,10-diketo-5,9,13-trimethyl-15-[[(2R,3R,4R,5S,6R)-3,4,5-trihydroxy-6-methyl-tetrahydropyran-2-yl]oxymethyl]-1-oxacyclohexadeca-11,13-dien-7-yl]acetaldehyde

> <PUBCHEM_IUPAC_INCHI>
InChI=1S/C37H61NO14/c1-9-27-24(17-48-36-34(47)33(46)31(44)22(6)49-36)14-18(2)10-11-25(40)19(3)15-23(12-13-39)35(20(4)26(41)16-28(42)51-27)52-37-32(45)29(38(7)8)30(43)21(5)50-37/h10-11,13-14,19-24,26-27,29-37,41,43-47H,9,12,15-17H2,1-8H3/b11-10+,18-14+/t19-,20+,21-,22-,23+,24-,26-,27-,29+,30-,31-,32-,33-,34-,35-,36-,37+/m1/s1

> <PUBCHEM_IUPAC_INCHIKEY>
QZCOVMJUGCBXHV-AVCFMDPFSA-N

> <PUBCHEM_XLOGP3_AA>
-0.2

> <PUBCHEM_EXACT_MASS>
743.409206

> <PUBCHEM_MOLECULAR_FORMULA>
C37H61NO14

> <PUBCHEM_MOLECULAR_WEIGHT>
743.87854

> <PUBCHEM_OPENEYE_CAN_SMILES>
CCC1C(C=C(C=CC(=O)C(CC(C(C(C(CC(=O)O1)O)C)OC2C(C(C(C(O2)C)O)N(C)C)O)CC=O)C)C)COC3C(C(C(C(O3)C)O)O)O

> <PUBCHEM_OPENEYE_ISO_SMILES>
CC[C@@H]1[C@H](/C=C(/C=C/C(=O)[C@@H](C[C@@H]([C@@H]([C@H]([C@@H](CC(=O)O1)O)C)O[C@H]2[C@@H]([C@H]([C@@H]([C@H](O2)C)O)N(C)C)O)CC=O)C)\C)CO[C@H]3[C@@H]([C@@H]([C@@H]([C@H](O3)C)O)O)O

> <PUBCHEM_CACTVS_TPSA>
222

> <PUBCHEM_MONOISOTOPIC_WEIGHT>
743.409206

> <PUBCHEM_TOTAL_CHARGE>
0

> <PUBCHEM_HEAVY_ATOM_COUNT>
52

> <PUBCHEM_ATOM_DEF_STEREO_COUNT>
17

> <PUBCHEM_ATOM_UDEF_STEREO_COUNT>
0

> <PUBCHEM_BOND_DEF_STEREO_COUNT>
2

> <PUBCHEM_BOND_UDEF_STEREO_COUNT>
0

> <PUBCHEM_ISOTOPIC_ATOM_COUNT>
0

> <PUBCHEM_COMPONENT_COUNT>
1

> <PUBCHEM_CACTVS_TAUTO_COUNT>
28

> <PUBCHEM_COORDINATE_TYPE>
1
5
255

> <PUBCHEM_BONDANNOTATIONS>
16  1  5
21  1  5
39  12  5
40  13  5
42  14  5
19  15  5
17  26  5
18  28  5
23  30  5
27  33  5
20  3  6
37  46  5
38  44  6
22  4  6
43  50  6
25  5  5
41  8  6

$$$$

