54675775
  -OEChem-07051212513D

 16 16  0     1  0  0  0  0  0999 V2000
   -0.2036    1.4370    0.3495 O   0  0  0  0  0  0  0  0  0  0  0  0
    0.8949   -1.9830    0.2485 O   0  0  0  0  0  0  0  0  0  0  0  0
    3.1464    0.1587   -0.2033 O   0  0  0  0  0  0  0  0  0  0  0  0
   -1.9997   -1.6036   -0.3421 O   0  0  0  0  0  0  0  0  0  0  0  0
   -2.4504    1.3067   -0.1518 O   0  0  0  0  0  0  0  0  0  0  0  0
    0.8784    0.4911    0.4696 C   0  0  1  0  0  0  0  0  0  0  0  0
    0.2173   -0.8005    0.1981 C   0  0  0  0  0  0  0  0  0  0  0  0
    1.9584    0.8567   -0.5361 C   0  0  0  0  0  0  0  0  0  0  0  0
   -1.0778   -0.6484   -0.0593 C   0  0  0  0  0  0  0  0  0  0  0  0
   -1.3639    0.7852    0.0272 C   0  0  0  0  0  0  0  0  0  0  0  0
    1.2584    0.5269    1.4968 H   0  0  0  0  0  0  0  0  0  0  0  0
    2.1652    1.9320   -0.5017 H   0  0  0  0  0  0  0  0  0  0  0  0
    1.6657    0.6079   -1.5625 H   0  0  0  0  0  0  0  0  0  0  0  0
    1.8166   -1.7809    0.4849 H   0  0  0  0  0  0  0  0  0  0  0  0
    3.8212    0.4156   -0.8546 H   0  0  0  0  0  0  0  0  0  0  0  0
   -2.8515   -1.1518   -0.4725 H   0  0  0  0  0  0  0  0  0  0  0  0
  1  6  1  0  0  0  0
  1 10  1  0  0  0  0
  2  7  1  0  0  0  0
  2 14  1  0  0  0  0
  3  8  1  0  0  0  0
  3 15  1  0  0  0  0
  4  9  1  0  0  0  0
  4 16  1  0  0  0  0
  5 10  2  0  0  0  0
  6  7  1  0  0  0  0
  6  8  1  0  0  0  0
  6 11  1  0  0  0  0
  7  9  2  0  0  0  0
  8 12  1  0  0  0  0
  8 13  1  0  0  0  0
  9 10  1  0  0  0  0
M  END
> <PUBCHEM_COMPOUND_CID>
54675775

> <PUBCHEM_CONFORMER_RMSD>
0.4

> <PUBCHEM_CONFORMER_DIVERSEORDER>
1
3
2

> <PUBCHEM_MMFF94_PARTIAL_CHARGES>
13
1 -0.43
10 0.71
14 0.45
15 0.4
16 0.45
2 -0.53
3 -0.68
4 -0.53
5 -0.57
6 0.42
7 -0.06
8 0.28
9 0.09

> <PUBCHEM_EFFECTIVE_ROTOR_COUNT>
1.4

> <PUBCHEM_PHARMACOPHORE_FEATURES>
6
1 2 donor
1 3 acceptor
1 3 donor
1 4 donor
1 5 acceptor
5 1 6 7 9 10 rings

> <PUBCHEM_HEAVY_ATOM_COUNT>
10

> <PUBCHEM_ATOM_DEF_STEREO_COUNT>
1

> <PUBCHEM_ATOM_UDEF_STEREO_COUNT>
0

> <PUBCHEM_BOND_DEF_STEREO_COUNT>
0

> <PUBCHEM_BOND_UDEF_STEREO_COUNT>
0

> <PUBCHEM_ISOTOPIC_ATOM_COUNT>
0

> <PUBCHEM_COMPONENT_COUNT>
1

> <PUBCHEM_CACTVS_TAUTO_COUNT>
8

> <PUBCHEM_CONFORMER_ID>
0342493F00000001

> <PUBCHEM_MMFF94_ENERGY>
10.2677

> <PUBCHEM_FEATURE_SELFOVERLAP>
30.448

> <PUBCHEM_SHAPE_FINGERPRINT>
12423570 1 7236046516805808128
12716758 59 18334293167278335224
137420 1 6601399909755370185
16945 1 18337676411506444537
21040471 1 18337117876958732145
23552423 10 18342736321368464054
241688 4 16175094579245562835
2748010 2 18193846941956443409
29004967 10 16009016255689275788
369184 2 18187079516833558888
5084963 1 18116146675661232616
528862 383 18056198205001331715

> <PUBCHEM_SHAPE_MULTIPOLES>
176.45
3.19
1.73
0.66
1.21
0.51
0
-0.51
0.55
-0.53
-0.03
0.07
-0.03
-0.18

> <PUBCHEM_SHAPE_SELFOVERLAP>
365.825

> <PUBCHEM_SHAPE_VOLUME>
101.4

> <PUBCHEM_COORDINATE_TYPE>
2
5
10

$$$$

