108064
  -OEChem-07051212582D

 38 39  0     1  0  0  0  0  0999 V2000
    2.5369   -0.7979    0.0000 O   0  0  0  0  0  0  0  0  0  0  0  0
    2.5369    1.2021    0.0000 O   0  0  0  0  0  0  0  0  0  0  0  0
    5.1350   -0.2979    0.0000 C   0  0  0  0  0  0  0  0  0  0  0  0
    4.2690   -0.7979    0.0000 C   0  0  1  0  0  0  0  0  0  0  0  0
    5.1350    0.7021    0.0000 C   0  0  0  0  0  0  0  0  0  0  0  0
    6.0290   -0.8326    0.0000 C   0  0  0  0  0  0  0  0  0  0  0  0
    6.9350   -0.3187    0.0000 C   0  0  1  0  0  0  0  0  0  0  0  0
    3.4030   -0.2979    0.0000 C   0  0  2  0  0  0  0  0  0  0  0  0
    4.2690    1.2021    0.0000 C   0  0  0  0  0  0  0  0  0  0  0  0
    3.4030    0.7021    0.0000 C   0  0  1  0  0  0  0  0  0  0  0  0
    6.0290    1.2367    0.0000 C   0  0  0  0  0  0  0  0  0  0  0  0
    6.9350    0.7229    0.0000 C   0  0  0  0  0  0  0  0  0  0  0  0
    4.2690   -1.7979    0.0000 C   0  0  0  0  0  0  0  0  0  0  0  0
    7.7991   -0.8221    0.0000 C   0  0  0  0  0  0  0  0  0  0  0  0
    8.6671   -0.3254    0.0000 C   0  0  0  0  0  0  0  0  0  0  0  0
    7.7953   -1.8221    0.0000 C   0  0  0  0  0  0  0  0  0  0  0  0
    4.8059   -1.1079    0.0000 H   0  0  0  0  0  0  0  0  0  0  0  0
    5.6244   -1.3024    0.0000 H   0  0  0  0  0  0  0  0  0  0  0  0
    6.4226   -1.3116    0.0000 H   0  0  0  0  0  0  0  0  0  0  0  0
    7.4726   -0.0098    0.0000 H   0  0  0  0  0  0  0  0  0  0  0  0
    3.4030   -0.9179    0.0000 H   0  0  0  0  0  0  0  0  0  0  0  0
    4.6675    1.6770    0.0000 H   0  0  0  0  0  0  0  0  0  0  0  0
    3.8705    1.6770    0.0000 H   0  0  0  0  0  0  0  0  0  0  0  0
    3.4030    1.3221    0.0000 H   0  0  0  0  0  0  0  0  0  0  0  0
    6.4226    1.7158    0.0000 H   0  0  0  0  0  0  0  0  0  0  0  0
    5.6244    1.7065    0.0000 H   0  0  0  0  0  0  0  0  0  0  0  0
    7.5459    0.6168    0.0000 H   0  0  0  0  0  0  0  0  0  0  0  0
    7.1441    1.3066    0.0000 H   0  0  0  0  0  0  0  0  0  0  0  0
    3.6490   -1.7979    0.0000 H   0  0  0  0  0  0  0  0  0  0  0  0
    4.2690   -2.4179    0.0000 H   0  0  0  0  0  0  0  0  0  0  0  0
    4.8890   -1.7979    0.0000 H   0  0  0  0  0  0  0  0  0  0  0  0
    2.0000   -0.4879    0.0000 H   0  0  0  0  0  0  0  0  0  0  0  0
    2.5369    1.8221    0.0000 H   0  0  0  0  0  0  0  0  0  0  0  0
    8.9750   -0.8635    0.0000 H   0  0  0  0  0  0  0  0  0  0  0  0
    9.2052   -0.0175    0.0000 H   0  0  0  0  0  0  0  0  0  0  0  0
    8.3591    0.2127    0.0000 H   0  0  0  0  0  0  0  0  0  0  0  0
    7.2571   -2.1300    0.0000 H   0  0  0  0  0  0  0  0  0  0  0  0
    8.3310   -2.1341    0.0000 H   0  0  0  0  0  0  0  0  0  0  0  0
  8  1  1  1  0  0  0
  1 32  1  0  0  0  0
 10  2  1  6  0  0  0
  2 33  1  0  0  0  0
  3  4  1  0  0  0  0
  3  5  2  0  0  0  0
  3  6  1  0  0  0  0
  4  8  1  0  0  0  0
  4 13  1  6  0  0  0
  4 17  1  0  0  0  0
  5  9  1  0  0  0  0
  5 11  1  0  0  0  0
  6  7  1  0  0  0  0
  6 18  1  0  0  0  0
  6 19  1  0  0  0  0
  7 12  1  0  0  0  0
  7 14  1  1  0  0  0
  7 20  1  0  0  0  0
  8 10  1  0  0  0  0
  8 21  1  0  0  0  0
  9 10  1  0  0  0  0
  9 22  1  0  0  0  0
  9 23  1  0  0  0  0
 10 24  1  0  0  0  0
 11 12  1  0  0  0  0
 11 25  1  0  0  0  0
 11 26  1  0  0  0  0
 12 27  1  0  0  0  0
 12 28  1  0  0  0  0
 13 29  1  0  0  0  0
 13 30  1  0  0  0  0
 13 31  1  0  0  0  0
 14 15  1  0  0  0  0
 14 16  2  0  0  0  0
 15 34  1  0  0  0  0
 15 35  1  0  0  0  0
 15 36  1  0  0  0  0
 16 37  1  0  0  0  0
 16 38  1  0  0  0  0
M  END
> <PUBCHEM_COMPOUND_CID>
108064

> <PUBCHEM_COMPOUND_CANONICALIZED>
1

> <PUBCHEM_CACTVS_COMPLEXITY>
330

> <PUBCHEM_CACTVS_HBOND_ACCEPTOR>
2

> <PUBCHEM_CACTVS_HBOND_DONOR>
2

> <PUBCHEM_CACTVS_ROTATABLE_BOND>
1

> <PUBCHEM_CACTVS_SUBSKEYS>
AAADceBwMAAAAAAAAAAAAAAAAAAAAAAAAAAgQAAAAAAAAADAAAAAGgAACAAADRSggAICAAAAAgCAAgBCAAAAAAAgAAAACAAAAAgBEAIAAQAAQAAEwAAJAAOAwPAOAAAAAAAAAAAAAAAAAAAAAAAAAAAAAA==

> <PUBCHEM_IUPAC_OPENEYE_NAME>
(1S,2R,3R,7R)-7-isopropenyl-1-methyl-1,2,3,4,5,6,7,8-octahydronaphthalene-2,3-diol

> <PUBCHEM_IUPAC_CAS_NAME>
(1S,2R,3R,7R)-1-methyl-7-(1-methylethenyl)-1,2,3,4,5,6,7,8-octahydronaphthalene-2,3-diol

> <PUBCHEM_IUPAC_NAME>
(1S,2R,3R,7R)-1-methyl-7-prop-1-en-2-yl-1,2,3,4,5,6,7,8-octahydronaphthalene-2,3-diol

> <PUBCHEM_IUPAC_SYSTEMATIC_NAME>
(1S,2R,3R,7R)-1-methyl-7-prop-1-en-2-yl-1,2,3,4,5,6,7,8-octahydronaphthalene-2,3-diol

> <PUBCHEM_IUPAC_TRADITIONAL_NAME>
(1S,2R,3R,7R)-7-isopropenyl-1-methyl-1,2,3,4,5,6,7,8-octahydronaphthalene-2,3-diol

> <PUBCHEM_IUPAC_INCHI>
InChI=1S/C14H22O2/c1-8(2)10-4-5-11-7-13(15)14(16)9(3)12(11)6-10/h9-10,13-16H,1,4-7H2,2-3H3/t9-,10+,13+,14+/m0/s1

> <PUBCHEM_IUPAC_INCHIKEY>
XSCYYIVXGBKTOC-GZZJDILISA-N

> <PUBCHEM_XLOGP3_AA>
1.9

> <PUBCHEM_EXACT_MASS>
222.16198

> <PUBCHEM_MOLECULAR_FORMULA>
C14H22O2

> <PUBCHEM_MOLECULAR_WEIGHT>
222.32328

> <PUBCHEM_OPENEYE_CAN_SMILES>
CC1C(C(CC2=C1CC(CC2)C(=C)C)O)O

> <PUBCHEM_OPENEYE_ISO_SMILES>
C[C@@H]1[C@H]([C@@H](CC2=C1C[C@@H](CC2)C(=C)C)O)O

> <PUBCHEM_CACTVS_TPSA>
40.5

> <PUBCHEM_MONOISOTOPIC_WEIGHT>
222.16198

> <PUBCHEM_TOTAL_CHARGE>
0

> <PUBCHEM_HEAVY_ATOM_COUNT>
16

> <PUBCHEM_ATOM_DEF_STEREO_COUNT>
4

> <PUBCHEM_ATOM_UDEF_STEREO_COUNT>
0

> <PUBCHEM_BOND_DEF_STEREO_COUNT>
0

> <PUBCHEM_BOND_UDEF_STEREO_COUNT>
0

> <PUBCHEM_ISOTOPIC_ATOM_COUNT>
0

> <PUBCHEM_COMPONENT_COUNT>
1

> <PUBCHEM_CACTVS_TAUTO_COUNT>
1

> <PUBCHEM_COORDINATE_TYPE>
1
5
255

> <PUBCHEM_BONDANNOTATIONS>
8  1  5
10  2  6
4  13  6
7  14  5

$$$$

