582719
  -OEChem-06241222433D

 27 28  0     0  0  0  0  0  0999 V2000
    0.0537    0.9675    0.4823 N   0  0  0  0  0  0  0  0  0  0  0  0
   -2.9698    0.0097   -0.2524 N   0  0  0  0  0  0  0  0  0  0  0  0
   -0.7059   -0.1668    0.5879 C   0  0  0  0  0  0  0  0  0  0  0  0
   -2.1382   -0.1010    0.9337 C   0  0  0  0  0  0  0  0  0  0  0  0
    1.3499    0.6421    0.1519 C   0  0  0  0  0  0  0  0  0  0  0  0
    1.4098   -0.7492    0.0453 C   0  0  0  0  0  0  0  0  0  0  0  0
    0.1056   -1.2458    0.3230 C   0  0  0  0  0  0  0  0  0  0  0  0
    2.4624    1.4643   -0.0585 C   0  0  0  0  0  0  0  0  0  0  0  0
    2.6394   -1.3513   -0.2875 C   0  0  0  0  0  0  0  0  0  0  0  0
   -4.3832    0.0638    0.1011 C   0  0  0  0  0  0  0  0  0  0  0  0
    3.6713    0.8445   -0.3875 C   0  0  0  0  0  0  0  0  0  0  0  0
    3.7607   -0.5415   -0.5006 C   0  0  0  0  0  0  0  0  0  0  0  0
   -5.2557    0.1635   -1.1387 C   0  0  0  0  0  0  0  0  0  0  0  0
   -2.4055   -1.0067    1.4931 H   0  0  0  0  0  0  0  0  0  0  0  0
   -2.3158    0.7492    1.6051 H   0  0  0  0  0  0  0  0  0  0  0  0
   -0.2846    1.9094    0.6244 H   0  0  0  0  0  0  0  0  0  0  0  0
   -0.2037   -2.2824    0.3277 H   0  0  0  0  0  0  0  0  0  0  0  0
   -2.7213    0.8515   -0.7724 H   0  0  0  0  0  0  0  0  0  0  0  0
   -4.6682   -0.8387    0.6544 H   0  0  0  0  0  0  0  0  0  0  0  0
   -4.5834    0.9287    0.7446 H   0  0  0  0  0  0  0  0  0  0  0  0
    2.3939    2.5434    0.0294 H   0  0  0  0  0  0  0  0  0  0  0  0
    2.7232   -2.4304   -0.3790 H   0  0  0  0  0  0  0  0  0  0  0  0
    4.5549    1.4545   -0.5574 H   0  0  0  0  0  0  0  0  0  0  0  0
    4.7118   -1.0005   -0.7576 H   0  0  0  0  0  0  0  0  0  0  0  0
   -5.0321    1.0718   -1.7082 H   0  0  0  0  0  0  0  0  0  0  0  0
   -5.1070   -0.6991   -1.7969 H   0  0  0  0  0  0  0  0  0  0  0  0
   -6.3129    0.1943   -0.8561 H   0  0  0  0  0  0  0  0  0  0  0  0
  1  3  1  0  0  0  0
  1  5  1  0  0  0  0
  1 16  1  0  0  0  0
  2  4  1  0  0  0  0
  2 10  1  0  0  0  0
  2 18  1  0  0  0  0
  3  4  1  0  0  0  0
  3  7  2  0  0  0  0
  4 14  1  0  0  0  0
  4 15  1  0  0  0  0
  5  6  1  0  0  0  0
  5  8  2  0  0  0  0
  6  7  1  0  0  0  0
  6  9  2  0  0  0  0
  7 17  1  0  0  0  0
  8 11  1  0  0  0  0
  8 21  1  0  0  0  0
  9 12  1  0  0  0  0
  9 22  1  0  0  0  0
 10 13  1  0  0  0  0
 10 19  1  0  0  0  0
 10 20  1  0  0  0  0
 11 12  2  0  0  0  0
 11 23  1  0  0  0  0
 12 24  1  0  0  0  0
 13 25  1  0  0  0  0
 13 26  1  0  0  0  0
 13 27  1  0  0  0  0
M  END
> <PUBCHEM_COMPOUND_CID>
582719

> <PUBCHEM_CONFORMER_RMSD>
0.6

> <PUBCHEM_CONFORMER_DIVERSEORDER>
1
6
4
7
8
5
2
3

> <PUBCHEM_MMFF94_PARTIAL_CHARGES>
18
1 0.03
10 0.27
11 -0.15
12 -0.15
16 0.27
17 0.15
18 0.36
2 -0.9
21 0.15
22 0.15
23 0.15
24 0.15
3 -0.33
4 0.45
5 -0.15
7 -0.15
8 -0.15
9 -0.15

> <PUBCHEM_EFFECTIVE_ROTOR_COUNT>
3

> <PUBCHEM_PHARMACOPHORE_FEATURES>
6
1 1 cation
1 1 donor
1 2 cation
1 2 donor
5 1 3 5 6 7 rings
6 5 6 8 9 11 12 rings

> <PUBCHEM_HEAVY_ATOM_COUNT>
13

> <PUBCHEM_ATOM_DEF_STEREO_COUNT>
0

> <PUBCHEM_ATOM_UDEF_STEREO_COUNT>
0

> <PUBCHEM_BOND_DEF_STEREO_COUNT>
0

> <PUBCHEM_BOND_UDEF_STEREO_COUNT>
0

> <PUBCHEM_ISOTOPIC_ATOM_COUNT>
0

> <PUBCHEM_COMPONENT_COUNT>
1

> <PUBCHEM_CACTVS_TAUTO_COUNT>
1

> <PUBCHEM_CONFORMER_ID>
0008E43F00000001

> <PUBCHEM_MMFF94_ENERGY>
12.4851

> <PUBCHEM_FEATURE_SELFOVERLAP>
30.538

> <PUBCHEM_SHAPE_FINGERPRINT>
10498660 4 17059230296492994229
11401426 45 18335704927312896352
11471102 20 18410853261447797636
12500047 106 17132109113351271635
12730499 353 17988922306256599547
13571099 22 18410004442760905578
13675066 3 9151177536861515203
14251717 144 18334292089094084790
14252887 29 8574438637764382084
14576447 43 17894919503283043663
14911166 2 18411128143802826294
14993402 34 17894907421260270070
15477762 27 18187079594132505318
16945 1 18336808850220290474
17834072 33 18259990340822062591
18186145 218 18201996651217001771
200 152 17967812764701776649
20279233 1 18059848459004082251
20606313 2 18412260623372829868
20645477 70 18410007771165926855
21119208 17 18186803582443638559
212847 35 16487264295682897365
22485316 2 6194844752747263685
231179 274 17632301172326295733
23402539 116 17060063618478757159
23402655 69 18409168822619277581
23557571 272 17418083305218544419
2748010 2 18048580535637043514
276578 36 15410900660246725592
29717793 49 17531246192752644109
3060560 45 18410012143579544238
4028521 119 17846506963030639413
4047638 21 17775284962731376832
4072396 5 18342189873122311178
42 15 8502658116836186631
4990 188 18408319995168397151
522135 26 18409730676997322639

> <PUBCHEM_SHAPE_MULTIPOLES>
257.57
8.84
1.27
0.87
10.75
0
-0.05
-0.87
-3.23
-1.19
-0.01
0.59
0
0.2

> <PUBCHEM_SHAPE_SELFOVERLAP>
544.795

> <PUBCHEM_SHAPE_VOLUME>
146.5

> <PUBCHEM_COORDINATE_TYPE>
2
5
10

$$$$

